# Generated by pormake.
# Topology ukd, (4)-cn, num edge types: 1
# Building blocks:
#     Node 0, Type 0, BuildingBlock: ICAMEG_clean_sbu_1, # of connection points: 4
#     Node 1, Type 0, BuildingBlock: ICAMEG_clean_sbu_1, # of connection points: 4
#     Node 2, Type 0, BuildingBlock: ICAMEG_clean_sbu_1, # of connection points: 4
#     Node 3, Type 0, BuildingBlock: ICAMEG_clean_sbu_1, # of connection points: 4
#     Node 4, Type 0, BuildingBlock: ICAMEG_clean_sbu_1, # of connection points: 4
#     Node 5, Type 0, BuildingBlock: ICAMEG_clean_sbu_1, # of connection points: 4
#     Node 6, Type 0, BuildingBlock: ICAMEG_clean_sbu_1, # of connection points: 4
#     Node 7, Type 0, BuildingBlock: ICAMEG_clean_sbu_1, # of connection points: 4
#     Node 8, Type 0, BuildingBlock: ICAMEG_clean_sbu_1, # of connection points: 4
#     Node 9, Type 0, BuildingBlock: ICAMEG_clean_sbu_1, # of connection points: 4
#     Node 10, Type 0, BuildingBlock: ICAMEG_clean_sbu_1, # of connection points: 4
#     Node 11, Type 0, BuildingBlock: ICAMEG_clean_sbu_1, # of connection points: 4
#     Node 12, Type 0, BuildingBlock: ICAMEG_clean_sbu_1, # of connection points: 4
#     Node 13, Type 0, BuildingBlock: ICAMEG_clean_sbu_1, # of connection points: 4
#     Node 14, Type 0, BuildingBlock: ICAMEG_clean_sbu_1, # of connection points: 4
#     Node 15, Type 0, BuildingBlock: ICAMEG_clean_sbu_1, # of connection points: 4
#     Node 16, Type 0, BuildingBlock: ICAMEG_clean_sbu_1, # of connection points: 4
#     Node 17, Type 0, BuildingBlock: ICAMEG_clean_sbu_1, # of connection points: 4
#     Node 18, Type 0, BuildingBlock: ICAMEG_clean_sbu_1, # of connection points: 4
#     Node 19, Type 0, BuildingBlock: ICAMEG_clean_sbu_1, # of connection points: 4
#     Node 20, Type 0, BuildingBlock: ICAMEG_clean_sbu_1, # of connection points: 4
#     Node 21, Type 0, BuildingBlock: ICAMEG_clean_sbu_1, # of connection points: 4
#     Node 22, Type 0, BuildingBlock: ICAMEG_clean_sbu_1, # of connection points: 4
#     Node 23, Type 0, BuildingBlock: ICAMEG_clean_sbu_1, # of connection points: 4
#     Node 24, Type 0, BuildingBlock: ICAMEG_clean_sbu_1, # of connection points: 4
#     Node 25, Type 0, BuildingBlock: ICAMEG_clean_sbu_1, # of connection points: 4
#     Node 26, Type 0, BuildingBlock: ICAMEG_clean_sbu_1, # of connection points: 4
#     Node 27, Type 0, BuildingBlock: ICAMEG_clean_sbu_1, # of connection points: 4
#     Node 28, Type 0, BuildingBlock: ICAMEG_clean_sbu_1, # of connection points: 4
#     Node 29, Type 0, BuildingBlock: ICAMEG_clean_sbu_1, # of connection points: 4
#     Node 30, Type 0, BuildingBlock: ICAMEG_clean_sbu_1, # of connection points: 4
#     Node 31, Type 0, BuildingBlock: ICAMEG_clean_sbu_1, # of connection points: 4
#     Edge 32, Type (0, 0), BuildingBlock: UVAHIK_clean_linker_0, # of connection points: 2
#     Edge 33, Type (0, 0), BuildingBlock: UVAHIK_clean_linker_0, # of connection points: 2
#     Edge 34, Type (0, 0), BuildingBlock: UVAHIK_clean_linker_0, # of connection points: 2
#     Edge 35, Type (0, 0), BuildingBlock: UVAHIK_clean_linker_0, # of connection points: 2
#     Edge 36, Type (0, 0), BuildingBlock: UVAHIK_clean_linker_0, # of connection points: 2
#     Edge 37, Type (0, 0), BuildingBlock: UVAHIK_clean_linker_0, # of connection points: 2
#     Edge 38, Type (0, 0), BuildingBlock: UVAHIK_clean_linker_0, # of connection points: 2
#     Edge 39, Type (0, 0), BuildingBlock: UVAHIK_clean_linker_0, # of connection points: 2
#     Edge 40, Type (0, 0), BuildingBlock: UVAHIK_clean_linker_0, # of connection points: 2
#     Edge 41, Type (0, 0), BuildingBlock: UVAHIK_clean_linker_0, # of connection points: 2
#     Edge 42, Type (0, 0), BuildingBlock: UVAHIK_clean_linker_0, # of connection points: 2
#     Edge 43, Type (0, 0), BuildingBlock: UVAHIK_clean_linker_0, # of connection points: 2
#     Edge 44, Type (0, 0), BuildingBlock: UVAHIK_clean_linker_0, # of connection points: 2
#     Edge 45, Type (0, 0), BuildingBlock: UVAHIK_clean_linker_0, # of connection points: 2
#     Edge 46, Type (0, 0), BuildingBlock: UVAHIK_clean_linker_0, # of connection points: 2
#     Edge 47, Type (0, 0), BuildingBlock: UVAHIK_clean_linker_0, # of connection points: 2
#     Edge 48, Type (0, 0), BuildingBlock: UVAHIK_clean_linker_0, # of connection points: 2
#     Edge 49, Type (0, 0), BuildingBlock: UVAHIK_clean_linker_0, # of connection points: 2
#     Edge 50, Type (0, 0), BuildingBlock: UVAHIK_clean_linker_0, # of connection points: 2
#     Edge 51, Type (0, 0), BuildingBlock: UVAHIK_clean_linker_0, # of connection points: 2
#     Edge 52, Type (0, 0), BuildingBlock: UVAHIK_clean_linker_0, # of connection points: 2
#     Edge 53, Type (0, 0), BuildingBlock: UVAHIK_clean_linker_0, # of connection points: 2
#     Edge 54, Type (0, 0), BuildingBlock: UVAHIK_clean_linker_0, # of connection points: 2
#     Edge 55, Type (0, 0), BuildingBlock: UVAHIK_clean_linker_0, # of connection points: 2
#     Edge 56, Type (0, 0), BuildingBlock: UVAHIK_clean_linker_0, # of connection points: 2
#     Edge 57, Type (0, 0), BuildingBlock: UVAHIK_clean_linker_0, # of connection points: 2
#     Edge 58, Type (0, 0), BuildingBlock: UVAHIK_clean_linker_0, # of connection points: 2
#     Edge 59, Type (0, 0), BuildingBlock: UVAHIK_clean_linker_0, # of connection points: 2
#     Edge 60, Type (0, 0), BuildingBlock: UVAHIK_clean_linker_0, # of connection points: 2
#     Edge 61, Type (0, 0), BuildingBlock: UVAHIK_clean_linker_0, # of connection points: 2
#     Edge 62, Type (0, 0), BuildingBlock: UVAHIK_clean_linker_0, # of connection points: 2
#     Edge 63, Type (0, 0), BuildingBlock: UVAHIK_clean_linker_0, # of connection points: 2
#     Edge 64, Type (0, 0), BuildingBlock: UVAHIK_clean_linker_0, # of connection points: 2
#     Edge 65, Type (0, 0), BuildingBlock: UVAHIK_clean_linker_0, # of connection points: 2
#     Edge 66, Type (0, 0), BuildingBlock: UVAHIK_clean_linker_0, # of connection points: 2
#     Edge 67, Type (0, 0), BuildingBlock: UVAHIK_clean_linker_0, # of connection points: 2
#     Edge 68, Type (0, 0), BuildingBlock: UVAHIK_clean_linker_0, # of connection points: 2
#     Edge 69, Type (0, 0), BuildingBlock: UVAHIK_clean_linker_0, # of connection points: 2
#     Edge 70, Type (0, 0), BuildingBlock: UVAHIK_clean_linker_0, # of connection points: 2
#     Edge 71, Type (0, 0), BuildingBlock: UVAHIK_clean_linker_0, # of connection points: 2
#     Edge 72, Type (0, 0), BuildingBlock: UVAHIK_clean_linker_0, # of connection points: 2
#     Edge 73, Type (0, 0), BuildingBlock: UVAHIK_clean_linker_0, # of connection points: 2
#     Edge 74, Type (0, 0), BuildingBlock: UVAHIK_clean_linker_0, # of connection points: 2
#     Edge 75, Type (0, 0), BuildingBlock: UVAHIK_clean_linker_0, # of connection points: 2
#     Edge 76, Type (0, 0), BuildingBlock: UVAHIK_clean_linker_0, # of connection points: 2
#     Edge 77, Type (0, 0), BuildingBlock: UVAHIK_clean_linker_0, # of connection points: 2
#     Edge 78, Type (0, 0), BuildingBlock: UVAHIK_clean_linker_0, # of connection points: 2
#     Edge 79, Type (0, 0), BuildingBlock: UVAHIK_clean_linker_0, # of connection points: 2
#     Edge 80, Type (0, 0), BuildingBlock: UVAHIK_clean_linker_0, # of connection points: 2
#     Edge 81, Type (0, 0), BuildingBlock: UVAHIK_clean_linker_0, # of connection points: 2
#     Edge 82, Type (0, 0), BuildingBlock: UVAHIK_clean_linker_0, # of connection points: 2
#     Edge 83, Type (0, 0), BuildingBlock: UVAHIK_clean_linker_0, # of connection points: 2
#     Edge 84, Type (0, 0), BuildingBlock: UVAHIK_clean_linker_0, # of connection points: 2
#     Edge 85, Type (0, 0), BuildingBlock: UVAHIK_clean_linker_0, # of connection points: 2
#     Edge 86, Type (0, 0), BuildingBlock: UVAHIK_clean_linker_0, # of connection points: 2
#     Edge 87, Type (0, 0), BuildingBlock: UVAHIK_clean_linker_0, # of connection points: 2
#     Edge 88, Type (0, 0), BuildingBlock: UVAHIK_clean_linker_0, # of connection points: 2
#     Edge 89, Type (0, 0), BuildingBlock: UVAHIK_clean_linker_0, # of connection points: 2
#     Edge 90, Type (0, 0), BuildingBlock: UVAHIK_clean_linker_0, # of connection points: 2
#     Edge 91, Type (0, 0), BuildingBlock: UVAHIK_clean_linker_0, # of connection points: 2
#     Edge 92, Type (0, 0), BuildingBlock: UVAHIK_clean_linker_0, # of connection points: 2
#     Edge 93, Type (0, 0), BuildingBlock: UVAHIK_clean_linker_0, # of connection points: 2
#     Edge 94, Type (0, 0), BuildingBlock: UVAHIK_clean_linker_0, # of connection points: 2
#     Edge 95, Type (0, 0), BuildingBlock: UVAHIK_clean_linker_0, # of connection points: 2
# Relax obj value: 0.010
# Max RMSD: 0.031
# Mean RMSD: 0.031
data_MOF--net-ukd--node1-ICAMEG_clean_sbu_1--edge1-UVAHIK_clean_linker_0
_symmetry_space_group_name_H-M    P1
_symmetry_Int_Tables_number       1
_symmetry_cell_setting            triclinic
loop_
_symmetry_equiv_pos_as_xyz
'x, y, z'
_cell_length_a     61.49565
_cell_length_b     61.49618
_cell_length_c     100.54444
_cell_angle_alpha  90.003205
_cell_angle_beta   90.010642
_cell_angle_gamma 89.997201
loop_
_atom_site_label
_atom_site_type_symbol
_atom_site_fract_x
_atom_site_fract_y
_atom_site_fract_z
_atom_type_partial_charge
Co0 Co 0.18532 0.18071 0.33008 0.0
Co1 Co 0.2125 0.18423 0.36005 0.0
O2 O 0.21155 0.17804 0.34095 0.0
C3 C 0.21622 0.2088 0.31526 0.0
O4 O 0.22105 0.21843 0.32654 0.0
C5 C 0.22956 0.13923 0.35846 0.0
O6 O 0.21296 0.13454 0.35076 0.0
O7 O 0.18648 0.16569 0.36348 0.0
O8 O 0.16708 0.16839 0.34464 0.0
H9 H 0.18112 0.20463 0.40447 0.0
H10 H 0.22397 0.15791 0.3194 0.0
O11 O 0.20279 0.19304 0.31508 0.0
H12 H 0.16511 0.10346 0.31887 0.0
H13 H 0.14239 0.1757 0.28753 0.0
H14 H 0.14013 0.19539 0.33506 0.0
H15 H 0.15813 0.14084 0.32665 0.0
H16 H 0.17509 0.172 0.30156 0.0
O17 O 0.23195 0.15848 0.36291 0.0
H18 H 0.18003 0.19711 0.38038 0.0
H19 H 0.24781 0.18384 0.38039 0.0
H20 H 0.10699 0.19916 0.32143 0.0
H21 H 0.23164 0.12076 0.31142 0.0
H22 H 0.108 0.18929 0.29748 0.0
H23 H 0.2021 0.09322 0.31117 0.0
O24 O 0.17977 0.21068 0.3369 0.0
H25 H 0.28552 0.20165 0.34033 0.0
H26 H 0.22528 0.22922 0.36796 0.0
H27 H 0.25679 0.25287 0.36342 0.0
H28 H 0.28722 0.23909 0.34953 0.0
H29 H 0.2536 0.17859 0.34503 0.0
H30 H 0.24961 0.19105 0.4045 0.0
H31 H 0.2161 0.20161 0.41669 0.0
O32 O 0.19321 0.21005 0.35769 0.0
C33 C 0.16924 0.16241 0.35671 0.0
C34 C 0.19584 0.20012 0.39926 0.0
C35 C 0.23428 0.19246 0.39928 0.0
N36 N 0.21387 0.19023 0.37897 0.0
C37 C 0.19534 0.19591 0.38562 0.0
C38 C 0.23315 0.18836 0.38563 0.0
C39 C 0.21547 0.1984 0.40611 0.0
C40 C 0.211 0.14606 0.31922 0.0
N41 N 0.19062 0.15155 0.32347 0.0
C42 C 0.21545 0.12503 0.31473 0.0
C43 C 0.19888 0.10958 0.31461 0.0
C44 C 0.17813 0.11531 0.31894 0.0
C45 C 0.17428 0.13648 0.32338 0.0
C46 C 0.14173 0.18003 0.29796 0.0
C47 C 0.14066 0.19094 0.32466 0.0
C48 C 0.16021 0.17801 0.30594 0.0
N49 N 0.15948 0.18334 0.31913 0.0
C50 C 0.12186 0.19316 0.31699 0.0
C51 C 0.12244 0.18764 0.30355 0.0
C52 C 0.18254 0.21921 0.34835 0.0
C53 C 0.27239 0.20781 0.34642 0.0
C54 C 0.23843 0.22312 0.36188 0.0
C55 C 0.25625 0.23658 0.35936 0.0
C56 C 0.27332 0.22883 0.35157 0.0
N57 N 0.23766 0.2025 0.35682 0.0
C58 C 0.25432 0.1948 0.34916 0.0
Co59 Co 0.06867 0.93467 0.5803 0.0
Co60 Co 0.06708 0.964 0.60957 0.0
O61 O 0.07351 0.96128 0.59057 0.0
C62 C 0.0436 0.96695 0.56466 0.0
O63 O 0.03433 0.97311 0.57581 0.0
C64 C 0.11339 0.97803 0.60813 0.0
O65 O 0.11756 0.96092 0.60075 0.0
O66 O 0.08356 0.93678 0.6137 0.0
O67 O 0.07899 0.91639 0.59538 0.0
H68 H 0.04305 0.93702 0.65438 0.0
H69 H 0.09497 0.97031 0.56871 0.0
O70 O 0.05816 0.95224 0.56479 0.0
H71 H 0.1441 0.90701 0.57063 0.0
H72 H 0.0709 0.88884 0.53882 0.0
H73 H 0.04964 0.89138 0.58608 0.0
H74 H 0.1061 0.90395 0.57824 0.0
H75 H 0.07719 0.92192 0.55215 0.0
O76 O 0.09414 0.98158 0.61226 0.0
H77 H 0.05096 0.93396 0.6304 0.0
H78 H 0.07007 1.0003 0.6292 0.0
H79 H 0.0432 0.85791 0.57315 0.0
H80 H 0.13282 0.97405 0.56089 0.0
H81 H 0.05386 0.8565 0.54933 0.0
H82 H 0.15768 0.94225 0.56186 0.0
O83 O 0.03827 0.93209 0.587 0.0
H84 H 0.05599 0.0365 0.58756 0.0
H85 H 0.02361 0.98163 0.6173 0.0
H86 H 0.00276 0.01464 0.61174 0.0
H87 H 0.01898 0.04239 0.59678 0.0
H88 H 0.07615 0.0031 0.59329 0.0
H89 H 0.06256 0.00402 0.65319 0.0
H90 H 0.04886 0.97225 0.66593 0.0
O91 O 0.03971 0.94685 0.60742 0.0
C92 C 0.08521 0.91884 0.60738 0.0
C93 C 0.04896 0.951 0.64893 0.0
C94 C 0.05994 0.98859 0.64827 0.0
N95 N 0.06085 0.96696 0.6284 0.0
C96 C 0.05342 0.94938 0.63534 0.0
C97 C 0.06423 0.98637 0.63469 0.0
C98 C 0.05224 0.97076 0.65541 0.0
C99 C 0.10564 0.95636 0.56905 0.0
N100 N 0.09831 0.93692 0.57386 0.0
C101 C 0.12708 0.95859 0.56466 0.0
C102 C 0.14102 0.94075 0.56522 0.0
C103 C 0.13342 0.92098 0.57015 0.0
C104 C 0.1119 0.91936 0.57447 0.0
C105 C 0.06623 0.88924 0.54919 0.0
C106 C 0.05446 0.89084 0.57575 0.0
C107 C 0.06972 0.90793 0.55679 0.0
N108 N 0.06396 0.9085 0.56991 0.0
C109 C 0.05071 0.87187 0.56846 0.0
C110 C 0.05668 0.8711 0.5551 0.0
C111 C 0.02981 0.93637 0.59829 0.0
C112 C 0.04875 0.02453 0.5941 0.0
C113 C 0.03069 0.99352 0.61071 0.0
C114 C 0.01886 0.01224 0.60764 0.0
C115 C 0.02798 0.02782 0.59926 0.0
N116 N 0.05105 0.9904 0.6056 0.0
C117 C 0.06011 0.00562 0.5974 0.0
Co118 Co 0.31787 0.82128 0.82993 0.0
Co119 Co 0.28941 0.81745 0.85946 0.0
O120 O 0.29118 0.8237 0.8404 0.0
C121 C 0.28756 0.79295 0.81479 0.0
O122 O 0.28232 0.78344 0.82603 0.0
C123 C 0.27231 0.86243 0.8577 0.0
O124 O 0.28915 0.8672 0.85023 0.0
O125 O 0.31521 0.83604 0.86332 0.0
O126 O 0.33537 0.83408 0.84473 0.0
H127 H 0.31895 0.79696 0.90434 0.0
H128 H 0.27923 0.8435 0.81877 0.0
O129 O 0.30111 0.8086 0.81471 0.0
H130 H 0.33749 0.8986 0.8185 0.0
H131 H 0.36235 0.82631 0.78799 0.0
H132 H 0.36306 0.80734 0.83564 0.0
H133 H 0.3447 0.86139 0.82649 0.0
H134 H 0.32907 0.82976 0.80151 0.0
O135 O 0.26979 0.84314 0.86206 0.0
H136 H 0.32104 0.80458 0.88029 0.0
H137 H 0.25325 0.81767 0.87923 0.0
H138 H 0.39676 0.80384 0.82251 0.0
H139 H 0.27133 0.88047 0.81056 0.0
H140 H 0.39653 0.81335 0.7985 0.0
H141 H 0.30056 0.90834 0.81044 0.0
O142 O 0.32358 0.79142 0.83693 0.0
H143 H 0.2173 0.79995 0.83854 0.0
H144 H 0.27641 0.77239 0.8671 0.0
H145 H 0.24515 0.74868 0.862 0.0
H146 H 0.2153 0.76245 0.84765 0.0
H147 H 0.24895 0.82306 0.84381 0.0
H148 H 0.25045 0.81036 0.90329 0.0
H149 H 0.28346 0.79984 0.916 0.0
O150 O 0.30884 0.79171 0.85738 0.0
C151 C 0.33261 0.83982 0.85681 0.0
C152 C 0.30444 0.80145 0.89891 0.0
C153 C 0.266 0.80901 0.89832 0.0
N154 N 0.28726 0.81137 0.87834 0.0
C155 C 0.30551 0.80572 0.88528 0.0
C156 C 0.26769 0.81316 0.8847 0.0
C157 C 0.28453 0.8031 0.90544 0.0
C158 C 0.29208 0.8555 0.81866 0.0
N159 N 0.31241 0.8503 0.82312 0.0
C160 C 0.28749 0.87642 0.81403 0.0
C161 C 0.30389 0.89206 0.81399 0.0
C162 C 0.3246 0.88661 0.81852 0.0
C163 C 0.32858 0.86554 0.82309 0.0
C164 C 0.36266 0.82215 0.79844 0.0
C165 C 0.36287 0.81164 0.82522 0.0
C166 C 0.34386 0.82401 0.80615 0.0
N167 N 0.34417 0.81889 0.81938 0.0
C168 C 0.38198 0.80957 0.81783 0.0
C169 C 0.38184 0.81488 0.80435 0.0
C170 C 0.32018 0.78275 0.84828 0.0
C171 C 0.23018 0.79379 0.84484 0.0
C172 C 0.26351 0.77849 0.86081 0.0
C173 C 0.24583 0.765 0.85799 0.0
C174 C 0.22908 0.77274 0.84994 0.0
N175 N 0.26444 0.79913 0.8558 0.0
C176 C 0.24809 0.80682 0.84789 0.0
Co177 Co 0.43295 0.0673 0.07937 0.0
Co178 Co 0.43569 0.0393 0.10909 0.0
O179 O 0.42969 0.04082 0.08998 0.0
C180 C 0.46044 0.03616 0.06429 0.0
O181 O 0.47007 0.03093 0.0755 0.0
C182 C 0.39046 0.02277 0.10726 0.0
O183 O 0.3859 0.03953 0.09966 0.0
O184 O 0.41746 0.06548 0.11267 0.0
O185 O 0.42083 0.08538 0.09407 0.0
H186 H 0.45634 0.06938 0.1538 0.0
H187 H 0.40948 0.02934 0.0683 0.0
O188 O 0.44501 0.04996 0.06423 0.0
H189 H 0.35622 0.08929 0.06808 0.0
H190 H 0.42908 0.11143 0.03725 0.0
H191 H 0.44843 0.11206 0.08485 0.0
H192 H 0.39366 0.09535 0.07603 0.0
H193 H 0.42468 0.07843 0.05093 0.0
O194 O 0.40968 0.02015 0.11171 0.0
H195 H 0.44902 0.0711 0.12971 0.0
H196 H 0.43457 0.00357 0.12914 0.0
H197 H 0.4529 0.14549 0.07156 0.0
H198 H 0.37225 0.02259 0.06014 0.0
H199 H 0.4432 0.1453 0.04758 0.0
H200 H 0.34531 0.05268 0.06004 0.0
O201 O 0.463 0.0721 0.08634 0.0
H202 H 0.45225 0.96657 0.0887 0.0
H203 H 0.48039 0.02561 0.11709 0.0
H204 H 0.50362 0.99387 0.11232 0.0
H205 H 0.48956 0.96404 0.09805 0.0
H206 H 0.42962 0.9987 0.09364 0.0
H207 H 0.44156 1.00115 0.15325 0.0
H208 H 0.45262 0.03421 0.16574 0.0
O209 O 0.46182 0.05819 0.10698 0.0
C210 C 0.41455 0.08295 0.10607 0.0
C211 C 0.4516 0.05485 0.14847 0.0
C212 C 0.44327 0.01656 0.14816 0.0
N213 N 0.44152 0.03743 0.12801 0.0
C214 C 0.44748 0.05571 0.13482 0.0
C215 C 0.43929 0.01804 0.13451 0.0
C216 C 0.44948 0.03511 0.15516 0.0
C217 C 0.39789 0.04256 0.06819 0.0
N218 N 0.40374 0.06272 0.07263 0.0
C219 C 0.37682 0.03862 0.0636 0.0
C220 C 0.3617 0.0555 0.06356 0.0
C221 C 0.3678 0.07604 0.06808 0.0
C222 C 0.38901 0.07936 0.07262 0.0
C223 C 0.43334 0.11173 0.04769 0.0
C224 C 0.44406 0.11189 0.07444 0.0
C225 C 0.43093 0.09308 0.05548 0.0
N226 N 0.43617 0.09337 0.06869 0.0
C227 C 0.44668 0.13085 0.06696 0.0
C228 C 0.44125 0.13073 0.0535 0.0
C229 C 0.47136 0.06885 0.09779 0.0
C230 C 0.45854 0.97943 0.09496 0.0
C231 C 0.47417 0.01273 0.11084 0.0
C232 C 0.48738 0.99477 0.1082 0.0
C233 C 0.47948 0.97804 0.10019 0.0
N234 N 0.45362 0.01395 0.10569 0.0
C235 C 0.44577 0.99762 0.09783 0.0
Co236 Co 0.18479 0.8208 0.17236 0.0
Co237 Co 0.21211 0.8179 0.14244 0.0
O238 O 0.21106 0.82383 0.16156 0.0
C239 C 0.21594 0.79296 0.18721 0.0
O240 O 0.22089 0.78338 0.17593 0.0
C241 C 0.22921 0.8629 0.14424 0.0
O242 O 0.21258 0.86761 0.1519 0.0
O243 O 0.18608 0.83648 0.13907 0.0
O244 O 0.16649 0.83304 0.15779 0.0
H245 H 0.18091 0.79811 0.09786 0.0
H246 H 0.22312 0.84395 0.18319 0.0
O247 O 0.20232 0.80856 0.18738 0.0
H248 H 0.16363 0.89771 0.18377 0.0
H249 H 0.14154 0.82496 0.21482 0.0
H250 H 0.1398 0.80565 0.16722 0.0
H251 H 0.15713 0.86032 0.17586 0.0
H252 H 0.17428 0.82916 0.20089 0.0
O253 O 0.23156 0.84368 0.13974 0.0
H254 H 0.17973 0.80528 0.12198 0.0
H255 H 0.2475 0.8186 0.12216 0.0
H256 H 0.10663 0.80138 0.18076 0.0
H257 H 0.23032 0.88112 0.19131 0.0
H258 H 0.10738 0.81106 0.20474 0.0
H259 H 0.20046 0.90831 0.19159 0.0
O260 O 0.17961 0.79081 0.16543 0.0
H261 H 0.28504 0.80026 0.16221 0.0
H262 H 0.22497 0.77305 0.13429 0.0
H263 H 0.2565 0.74936 0.13876 0.0
H264 H 0.28684 0.76295 0.1528 0.0
H265 H 0.25312 0.82335 0.15757 0.0
H266 H 0.24939 0.81174 0.09801 0.0
H267 H 0.21594 0.80133 0.08571 0.0
O268 O 0.19284 0.79204 0.14461 0.0
C269 C 0.16872 0.83938 0.14579 0.0
C270 C 0.19561 0.80256 0.10311 0.0
C271 C 0.23404 0.81024 0.1032 0.0
N272 N 0.21355 0.81217 0.12349 0.0
C273 C 0.19505 0.80658 0.11678 0.0
C274 C 0.23286 0.81414 0.11686 0.0
C275 C 0.21527 0.80439 0.0963 0.0
C276 C 0.21001 0.85565 0.18338 0.0
N277 N 0.18972 0.84996 0.17907 0.0
C278 C 0.2142 0.87669 0.18795 0.0
C279 C 0.19744 0.89195 0.18808 0.0
C280 C 0.17678 0.88601 0.18369 0.0
C281 C 0.17321 0.86483 0.17917 0.0
C282 C 0.141 0.82072 0.20438 0.0
C283 C 0.14021 0.81002 0.17763 0.0
C284 C 0.15951 0.82301 0.19645 0.0
N285 N 0.15891 0.81778 0.18324 0.0
C286 C 0.1214 0.80751 0.18526 0.0
C287 C 0.12184 0.81293 0.19872 0.0
C288 C 0.18235 0.78257 0.1539 0.0
C289 C 0.27195 0.79417 0.15605 0.0
C290 C 0.23808 0.77906 0.14044 0.0
C291 C 0.25591 0.76559 0.14291 0.0
C292 C 0.27294 0.77323 0.15078 0.0
N293 N 0.23727 0.7996 0.14561 0.0
C294 C 0.25388 0.8072 0.15335 0.0
Co295 Co 0.43225 0.93355 0.42333 0.0
Co296 Co 0.43478 0.96142 0.39357 0.0
O297 O 0.42888 0.95997 0.41269 0.0
C298 C 0.45983 0.96477 0.43832 0.0
O299 O 0.46938 0.96993 0.42707 0.0
C300 C 0.38957 0.97807 0.39546 0.0
O301 O 0.38497 0.96135 0.40307 0.0
O302 O 0.41654 0.9352 0.39006 0.0
O303 O 0.42008 0.91536 0.40868 0.0
H304 H 0.4552 0.93116 0.34886 0.0
H305 H 0.40876 0.97152 0.43437 0.0
O306 O 0.44438 0.95099 0.43843 0.0
H307 H 0.35564 0.91146 0.43483 0.0
H308 H 0.42877 0.88962 0.46555 0.0
H309 H 0.44779 0.88879 0.41791 0.0
H310 H 0.39305 0.90543 0.42683 0.0
H311 H 0.42418 0.92254 0.45182 0.0
O312 O 0.40877 0.98058 0.39096 0.0
H313 H 0.448 0.92954 0.37297 0.0
H314 H 0.43356 0.99707 0.37346 0.0
H315 H 0.45244 0.85545 0.43125 0.0
H316 H 0.37157 0.97824 0.44259 0.0
H317 H 0.4429 0.85574 0.45525 0.0
H318 H 0.34469 0.94809 0.44281 0.0
O319 O 0.46228 0.92879 0.41633 0.0
H320 H 0.45145 0.03423 0.41381 0.0
H321 H 0.47943 0.97508 0.38546 0.0
H322 H 0.50268 0.00685 0.39013 0.0
H323 H 0.48869 0.03673 0.40439 0.0
H324 H 0.4288 0.00207 0.40897 0.0
H325 H 0.44043 0.99939 0.34934 0.0
H326 H 0.45142 0.96628 0.33688 0.0
O327 O 0.46093 0.94254 0.39565 0.0
C328 C 0.41373 0.91774 0.39669 0.0
C329 C 0.45048 0.94571 0.35418 0.0
C330 C 0.44217 0.984 0.35445 0.0
N331 N 0.44051 0.96321 0.37463 0.0
C332 C 0.44644 0.9449 0.36784 0.0
C333 C 0.43825 0.98258 0.3681 0.0
C334 C 0.44834 0.96542 0.34747 0.0
C335 C 0.3972 0.95828 0.43453 0.0
N336 N 0.40307 0.9381 0.43012 0.0
C337 C 0.37615 0.9622 0.43915 0.0
C338 C 0.36107 0.94528 0.43926 0.0
C339 C 0.36719 0.92473 0.43477 0.0
C340 C 0.38838 0.92143 0.4302 0.0
C341 C 0.43295 0.88928 0.4551 0.0
C342 C 0.44348 0.88901 0.42833 0.0
C343 C 0.43044 0.90789 0.44728 0.0
N344 N 0.43559 0.90754 0.43405 0.0
C345 C 0.44621 0.87009 0.43584 0.0
C346 C 0.44087 0.87027 0.44931 0.0
C347 C 0.47055 0.93199 0.40485 0.0
C348 C 0.4577 0.02134 0.40756 0.0
C349 C 0.47324 0.98799 0.3917 0.0
C350 C 0.48647 0.00596 0.39429 0.0
C351 C 0.47861 0.02272 0.40228 0.0
N352 N 0.45273 0.98678 0.39689 0.0
C353 C 0.44492 0.00314 0.40475 0.0
Co354 Co 0.31783 0.18165 0.67302 0.0
Co355 Co 0.28989 0.18421 0.64327 0.0
O356 O 0.29146 0.178 0.66235 0.0
C357 C 0.2862 0.2085 0.68814 0.0
O358 O 0.28087 0.21807 0.67693 0.0
C359 C 0.27411 0.13863 0.64482 0.0
O360 O 0.29086 0.13422 0.65246 0.0
O361 O 0.31642 0.16651 0.63964 0.0
O362 O 0.3362 0.17003 0.65829 0.0
H363 H 0.31976 0.2059 0.59869 0.0
H364 H 0.28031 0.15737 0.68398 0.0
O365 O 0.30021 0.19326 0.68819 0.0
H366 H 0.34122 0.10521 0.68398 0.0
H367 H 0.36186 0.17819 0.71521 0.0
H368 H 0.36233 0.19801 0.66768 0.0
H369 H 0.34659 0.14283 0.67618 0.0
H370 H 0.32901 0.17329 0.70145 0.0
O371 O 0.27122 0.15788 0.64048 0.0
H372 H 0.32152 0.19832 0.62276 0.0
H373 H 0.25425 0.18273 0.62317 0.0
H374 H 0.3956 0.20299 0.68104 0.0
H375 H 0.27425 0.11994 0.692 0.0
H376 H 0.39549 0.19306 0.70499 0.0
H377 H 0.30483 0.09355 0.69199 0.0
O378 O 0.32211 0.21184 0.66619 0.0
H379 H 0.2168 0.19918 0.66362 0.0
H380 H 0.27543 0.22875 0.63547 0.0
H381 H 0.24326 0.25134 0.64031 0.0
H382 H 0.21364 0.23656 0.65446 0.0
H383 H 0.24935 0.1772 0.65862 0.0
H384 H 0.25178 0.18997 0.59908 0.0
H385 H 0.28469 0.20173 0.58669 0.0
O386 O 0.30831 0.21066 0.64552 0.0
C387 C 0.33393 0.16387 0.64625 0.0
C388 C 0.30529 0.20085 0.60399 0.0
C389 C 0.26715 0.19188 0.6042 0.0
N390 N 0.28798 0.19024 0.62437 0.0
C391 C 0.30618 0.19659 0.61762 0.0
C392 C 0.26865 0.18775 0.61783 0.0
C393 C 0.28561 0.19849 0.59726 0.0
C394 C 0.29373 0.14602 0.68405 0.0
N395 N 0.31379 0.15229 0.67963 0.0
C396 C 0.29019 0.12483 0.68856 0.0
C397 C 0.30734 0.11003 0.68853 0.0
C398 C 0.32776 0.11655 0.68403 0.0
C399 C 0.33069 0.13786 0.67957 0.0
C400 C 0.36212 0.18255 0.70478 0.0
C401 C 0.36219 0.19353 0.67808 0.0
C402 C 0.34355 0.17986 0.69695 0.0
N403 N 0.3438 0.18523 0.68375 0.0
C404 C 0.38106 0.19644 0.6856 0.0
C405 C 0.38099 0.19088 0.69904 0.0
C406 C 0.31877 0.22026 0.65477 0.0
C407 C 0.22957 0.20578 0.65741 0.0
C408 C 0.26264 0.22222 0.64167 0.0
C409 C 0.24444 0.23507 0.64435 0.0
C410 C 0.22782 0.22676 0.65228 0.0
N411 N 0.26421 0.20163 0.64671 0.0
C412 C 0.248 0.19338 0.65451 0.0
Co413 Co 0.06971 0.06809 0.92279 0.0
Co414 Co 0.06713 0.04022 0.89303 0.0
O415 O 0.07315 0.04168 0.91214 0.0
C416 C 0.0424 0.03682 0.9379 0.0
O417 O 0.03272 0.03163 0.9267 0.0
C418 C 0.11239 0.02363 0.89482 0.0
O419 O 0.11702 0.04034 0.90244 0.0
O420 O 0.08528 0.06648 0.88948 0.0
O421 O 0.0816 0.08633 0.90808 0.0
H422 H 0.04639 0.07044 0.84836 0.0
H423 H 0.09353 0.03031 0.93379 0.0
O424 O 0.05784 0.0506 0.93794 0.0
H425 H 0.14631 0.09068 0.93398 0.0
H426 H 0.07337 0.1121 0.96497 0.0
H427 H 0.05383 0.11275 0.9174 0.0
H428 H 0.10879 0.09645 0.92608 0.0
H429 H 0.078 0.07919 0.95123 0.0
O430 O 0.09316 0.02111 0.89036 0.0
H431 H 0.05371 0.07207 0.87246 0.0
H432 H 0.0683 0.00457 0.87292 0.0
H433 H 0.04912 0.14608 0.93074 0.0
H434 H 0.13085 0.02384 0.94189 0.0
H435 H 0.05892 0.14589 0.95471 0.0
H436 H 0.15754 0.05415 0.94198 0.0
O437 O 0.03959 0.07266 0.91587 0.0
H438 H 0.05076 0.96737 0.91331 0.0
H439 H 0.02247 0.02644 0.88501 0.0
H440 H 0.99932 0.99462 0.88973 0.0
H441 H 0.01346 0.96478 0.90396 0.0
H442 H 0.0733 0.99958 0.90842 0.0
H443 H 0.0613 0.00223 0.8488 0.0
H444 H 0.05018 0.03533 0.83637 0.0
O445 O 0.04095 0.05903 0.89517 0.0
C446 C 0.08794 0.08399 0.89609 0.0
C447 C 0.05116 0.0559 0.85368 0.0
C448 C 0.05956 0.01762 0.85392 0.0
N449 N 0.06128 0.03841 0.8741 0.0
C450 C 0.05528 0.05671 0.86733 0.0
C451 C 0.06355 0.01905 0.86757 0.0
C452 C 0.05331 0.03619 0.84695 0.0
C453 C 0.10502 0.04361 0.93389 0.0
N454 N 0.09898 0.06374 0.92947 0.0
C455 C 0.12614 0.03984 0.93845 0.0
C456 C 0.14112 0.05684 0.93848 0.0
C457 C 0.13483 0.07734 0.93398 0.0
C458 C 0.11358 0.0805 0.92947 0.0
C459 C 0.06908 0.1124 0.95453 0.0
C460 C 0.05825 0.11258 0.9278 0.0
C461 C 0.07161 0.0938 0.94671 0.0
N462 N 0.06632 0.0941 0.93351 0.0
C463 C 0.05549 0.13148 0.93531 0.0
C464 C 0.06097 0.13135 0.94876 0.0
C465 C 0.0313 0.0695 0.90439 0.0
C466 C 0.04444 0.98024 0.90707 0.0
C467 C 0.02872 0.01355 0.89124 0.0
C468 C 0.01555 0.99555 0.89386 0.0
C469 C 0.0235 0.97881 0.90183 0.0
N470 N 0.04926 0.01481 0.89639 0.0
C471 C 0.05716 0.99848 0.90423 0.0
Co472 Co 0.81758 0.81893 0.67321 0.0
Co473 Co 0.7893 0.81749 0.64372 0.0
O474 O 0.79102 0.82324 0.66283 0.0
C475 C 0.7856 0.79334 0.68875 0.0
O476 O 0.77985 0.78376 0.67762 0.0
C477 C 0.77258 0.86265 0.64573 0.0
O478 O 0.78957 0.86731 0.65312 0.0
O479 O 0.81527 0.83605 0.64027 0.0
O480 O 0.83601 0.82953 0.6582 0.0
H481 H 0.81911 0.79816 0.59871 0.0
H482 H 0.78145 0.84476 0.68462 0.0
O483 O 0.79999 0.80822 0.68863 0.0
H484 H 0.8441 0.89474 0.68302 0.0
H485 H 0.86294 0.82185 0.71488 0.0
H486 H 0.86116 0.80041 0.66763 0.0
H487 H 0.84778 0.85678 0.67543 0.0
H488 H 0.82993 0.82769 0.70141 0.0
O489 O 0.76989 0.84339 0.64136 0.0
H490 H 0.82103 0.80503 0.62286 0.0
H491 H 0.75333 0.81863 0.62382 0.0
H492 H 0.89457 0.79443 0.6807 0.0
H493 H 0.7771 0.88255 0.69242 0.0
H494 H 0.8956 0.80518 0.70451 0.0
H495 H 0.80857 0.90784 0.69161 0.0
O496 O 0.82053 0.7886 0.66652 0.0
H497 H 0.71689 0.79994 0.66419 0.0
H498 H 0.77592 0.77283 0.63543 0.0
H499 H 0.7444 0.74926 0.64012 0.0
H500 H 0.71458 0.7628 0.65458 0.0
H501 H 0.74881 0.82292 0.65933 0.0
H502 H 0.75071 0.8121 0.59967 0.0
H503 H 0.78375 0.80169 0.58696 0.0
O504 O 0.80852 0.79139 0.64551 0.0
C505 C 0.83331 0.8371 0.6465 0.0
C506 C 0.80458 0.80262 0.60415 0.0
C507 C 0.7662 0.81047 0.60468 0.0
N508 N 0.78729 0.81205 0.62476 0.0
C509 C 0.80556 0.80647 0.61783 0.0
C510 C 0.7678 0.81419 0.61835 0.0
C511 C 0.78474 0.80462 0.59756 0.0
C512 C 0.79526 0.85562 0.68435 0.0
N513 N 0.81485 0.84855 0.67964 0.0
C514 C 0.79268 0.87702 0.68873 0.0
C515 C 0.81034 0.89121 0.68826 0.0
C516 C 0.83028 0.88387 0.68343 0.0
C517 C 0.83224 0.86237 0.67912 0.0
C518 C 0.86271 0.81714 0.70451 0.0
C519 C 0.86153 0.80527 0.67796 0.0
C520 C 0.84405 0.82038 0.69683 0.0
N521 N 0.84369 0.81459 0.68371 0.0
C522 C 0.88047 0.80178 0.68532 0.0
C523 C 0.88103 0.8078 0.69868 0.0
C524 C 0.8181 0.78101 0.65481 0.0
C525 C 0.72975 0.79388 0.65785 0.0
C526 C 0.76304 0.77882 0.64177 0.0
C527 C 0.74521 0.76541 0.64436 0.0
C528 C 0.72848 0.77303 0.65247 0.0
N529 N 0.76414 0.79927 0.64706 0.0
C530 C 0.74782 0.80684 0.65502 0.0
Co531 Co 0.93126 0.06792 0.42287 0.0
Co532 Co 0.93426 0.04048 0.39299 0.0
O533 O 0.92834 0.04159 0.41211 0.0
C534 C 0.95928 0.03699 0.43776 0.0
O535 O 0.96885 0.03202 0.42648 0.0
C536 C 0.88936 0.0231 0.39483 0.0
O537 O 0.88457 0.03972 0.40249 0.0
O538 O 0.91555 0.06641 0.38958 0.0
O539 O 0.91891 0.0861 0.40827 0.0
H540 H 0.95391 0.07159 0.34837 0.0
H541 H 0.90832 0.02953 0.43377 0.0
O542 O 0.94361 0.05052 0.43791 0.0
H543 H 0.85425 0.08874 0.43426 0.0
H544 H 0.9269 0.11134 0.46526 0.0
H545 H 0.94618 0.11296 0.41766 0.0
H546 H 0.8916 0.0954 0.42633 0.0
H547 H 0.92286 0.07852 0.45138 0.0
O548 O 0.90859 0.02088 0.39032 0.0
H549 H 0.94673 0.07284 0.37249 0.0
H550 H 0.93374 0.00501 0.37276 0.0
H551 H 0.95029 0.14622 0.43115 0.0
H552 H 0.87119 0.02218 0.44192 0.0
H553 H 0.94062 0.14553 0.45513 0.0
H554 H 0.84385 0.05191 0.44215 0.0
O555 O 0.96121 0.07321 0.41593 0.0
H556 H 0.95229 0.96773 0.41288 0.0
H557 H 0.97917 0.0278 0.38485 0.0
H558 H 0.00303 0.99642 0.38938 0.0
H559 H 0.9896 0.96608 0.40346 0.0
H560 H 0.92904 0.99951 0.40819 0.0
H561 H 0.9406 0.00305 0.34861 0.0
H562 H 0.95085 0.03651 0.33627 0.0
O563 O 0.96003 0.05987 0.39514 0.0
C564 C 0.91258 0.08378 0.39627 0.0
C565 C 0.94952 0.05689 0.35364 0.0
C566 C 0.94203 0.01843 0.35378 0.0
N567 N 0.94 0.03899 0.37404 0.0
C568 C 0.9455 0.05748 0.36731 0.0
C569 C 0.93812 0.01965 0.36744 0.0
C570 C 0.94779 0.0372 0.34686 0.0
C571 C 0.89655 0.04258 0.43395 0.0
N572 N 0.90212 0.06288 0.42959 0.0
C573 C 0.87554 0.03831 0.43852 0.0
C574 C 0.86019 0.05499 0.43864 0.0
C575 C 0.86601 0.07565 0.4342 0.0
C576 C 0.88717 0.07931 0.42967 0.0
C577 C 0.93114 0.11186 0.45481 0.0
C578 C 0.94182 0.11257 0.42807 0.0
C579 C 0.92893 0.09331 0.44691 0.0
N580 N 0.93415 0.09387 0.4337 0.0
C581 C 0.94424 0.13144 0.43567 0.0
C582 C 0.93883 0.13104 0.44912 0.0
C583 C 0.96946 0.07045 0.4044 0.0
C584 C 0.95831 0.98082 0.40669 0.0
C585 C 0.97323 0.01469 0.39102 0.0
C586 C 0.9868 0.99694 0.39353 0.0
C587 C 0.97925 0.97992 0.40142 0.0
N588 N 0.95269 0.01543 0.3962 0.0
C589 C 0.94518 0.99882 0.40396 0.0
Co590 Co 0.68323 0.18124 0.17313 0.0
Co591 Co 0.71193 0.18599 0.14371 0.0
O592 O 0.71004 0.17934 0.16272 0.0
C593 C 0.71303 0.20983 0.18845 0.0
O594 O 0.71815 0.21953 0.17724 0.0
C595 C 0.72926 0.14107 0.14526 0.0
O596 O 0.71241 0.13614 0.15269 0.0
O597 O 0.68625 0.16734 0.13962 0.0
O598 O 0.66603 0.16838 0.15822 0.0
H599 H 0.68266 0.20735 0.09892 0.0
H600 H 0.72212 0.15945 0.18429 0.0
O601 O 0.69972 0.19397 0.18844 0.0
H602 H 0.6647 0.10348 0.18409 0.0
H603 H 0.63857 0.17499 0.21493 0.0
H604 H 0.63788 0.19457 0.16737 0.0
H605 H 0.65699 0.14069 0.17628 0.0
H606 H 0.67198 0.17223 0.20147 0.0
O607 O 0.7317 0.16042 0.14098 0.0
H608 H 0.68041 0.19922 0.1229 0.0
H609 H 0.74823 0.18629 0.12405 0.0
H610 H 0.60404 0.19738 0.18043 0.0
H611 H 0.73051 0.12248 0.19233 0.0
H612 H 0.60426 0.18756 0.20439 0.0
H613 H 0.7017 0.09418 0.19221 0.0
O614 O 0.67713 0.21111 0.16626 0.0
H615 H 0.78379 0.20339 0.16498 0.0
H616 H 0.72478 0.23125 0.13646 0.0
H617 H 0.75589 0.25499 0.14182 0.0
H618 H 0.7857 0.24107 0.15615 0.0
H619 H 0.75228 0.18025 0.15945 0.0
H620 H 0.75118 0.1941 0.10005 0.0
H621 H 0.71824 0.2048 0.08734 0.0
O622 O 0.69235 0.2116 0.14595 0.0
C623 C 0.66891 0.16306 0.14608 0.0
C624 C 0.69714 0.20277 0.10436 0.0
C625 C 0.73559 0.19531 0.10499 0.0
N626 N 0.7142 0.19247 0.12489 0.0
C627 C 0.69598 0.19822 0.11795 0.0
C628 C 0.73381 0.19086 0.11857 0.0
C629 C 0.71711 0.20132 0.09786 0.0
C630 C 0.70946 0.14725 0.1843 0.0
N631 N 0.68908 0.15221 0.1798 0.0
C632 C 0.71432 0.12634 0.18883 0.0
C633 C 0.69816 0.11046 0.18874 0.0
C634 C 0.6774 0.11566 0.18417 0.0
C635 C 0.67314 0.13673 0.17971 0.0
C636 C 0.63826 0.17928 0.20449 0.0
C637 C 0.63807 0.19014 0.17777 0.0
C638 C 0.65714 0.17781 0.19683 0.0
N639 N 0.65684 0.1831 0.18363 0.0
C640 C 0.61888 0.19182 0.18513 0.0
C641 C 0.61901 0.18633 0.19857 0.0
C642 C 0.6807 0.22016 0.15505 0.0
C643 C 0.77093 0.20962 0.15869 0.0
C644 C 0.73766 0.22509 0.14273 0.0
C645 C 0.75526 0.2386 0.14571 0.0
C646 C 0.77198 0.23077 0.15375 0.0
N647 N 0.73678 0.20435 0.14759 0.0
C648 C 0.75309 0.19657 0.15549 0.0
Co649 Co 0.57076 0.93345 0.92205 0.0
Co650 Co 0.56705 0.96223 0.89262 0.0
O651 O 0.57337 0.96024 0.91167 0.0
C652 C 0.54268 0.96378 0.93734 0.0
O653 O 0.53309 0.96913 0.92613 0.0
C654 C 0.61213 0.97919 0.89441 0.0
O655 O 0.61692 0.96233 0.90187 0.0
O656 O 0.58546 0.93632 0.88866 0.0
O657 O 0.58339 0.91601 0.90718 0.0
H658 H 0.54595 0.93318 0.84773 0.0
H659 H 0.59333 0.97181 0.9333 0.0
O660 O 0.55828 0.95017 0.93733 0.0
H661 H 0.64794 0.91309 0.93339 0.0
H662 H 0.57554 0.88853 0.96383 0.0
H663 H 0.55645 0.88844 0.91619 0.0
H664 H 0.61065 0.90625 0.92541 0.0
H665 H 0.57921 0.92192 0.95042 0.0
O666 O 0.59284 0.98169 0.89003 0.0
H667 H 0.55369 0.93087 0.87176 0.0
H668 H 0.56751 0.99851 0.87293 0.0
H669 H 0.55273 0.85464 0.9292 0.0
H670 H 0.63038 0.97935 0.94151 0.0
H671 H 0.5623 0.85456 0.9532 0.0
H672 H 0.658 0.94988 0.94154 0.0
O673 O 0.54081 0.92808 0.91507 0.0
H674 H 0.55016 0.03424 0.91384 0.0
H675 H 0.52209 0.9757 0.88505 0.0
H676 H 0.49864 0.00708 0.89028 0.0
H677 H 0.51267 0.03666 0.90476 0.0
H678 H 0.573 0.00247 0.90843 0.0
H679 H 0.56008 0.00153 0.84889 0.0
H680 H 0.54914 0.96871 0.83614 0.0
O681 O 0.54115 0.94305 0.89469 0.0
C682 C 0.58916 0.91886 0.89512 0.0
C683 C 0.55064 0.94761 0.85318 0.0
C684 C 0.5586 0.98596 0.85383 0.0
N685 N 0.56089 0.96456 0.87375 0.0
C686 C 0.55499 0.94641 0.8668 0.0
C687 C 0.56283 0.98415 0.86744 0.0
C688 C 0.55245 0.96754 0.84668 0.0
C689 C 0.60522 0.95887 0.93337 0.0
N690 N 0.59985 0.93862 0.92885 0.0
C691 C 0.62619 0.96325 0.93799 0.0
C692 C 0.64169 0.94672 0.93799 0.0
C693 C 0.63606 0.92608 0.93341 0.0
C694 C 0.61495 0.92232 0.92883 0.0
C695 C 0.57135 0.88835 0.95338 0.0
C696 C 0.56078 0.88849 0.92661 0.0
C697 C 0.57334 0.90722 0.94574 0.0
N698 N 0.56819 0.90708 0.93251 0.0
C699 C 0.55858 0.86932 0.93393 0.0
C700 C 0.56393 0.86929 0.94741 0.0
C701 C 0.53208 0.93176 0.90377 0.0
C702 C 0.54388 0.02149 0.90749 0.0
C703 C 0.5283 0.98847 0.89138 0.0
C704 C 0.51495 0.00622 0.89429 0.0
C705 C 0.52284 0.02282 0.90241 0.0
N706 N 0.54894 0.98731 0.89638 0.0
C707 C 0.55677 0.0035 0.90435 0.0
Co708 Co 0.81827 0.18068 0.82958 0.0
Co709 Co 0.78975 0.18492 0.85907 0.0
O710 O 0.79152 0.17859 0.84002 0.0
C711 C 0.78832 0.20936 0.81442 0.0
O712 O 0.78322 0.21893 0.82567 0.0
C713 C 0.77231 0.14009 0.8573 0.0
O714 O 0.78912 0.13521 0.84982 0.0
O715 O 0.81538 0.16612 0.86298 0.0
O716 O 0.8356 0.16772 0.8444 0.0
H717 H 0.81933 0.20527 0.90397 0.0
H718 H 0.77943 0.15889 0.81836 0.0
O719 O 0.80168 0.19354 0.81434 0.0
H720 H 0.83706 0.10312 0.81824 0.0
H721 H 0.86279 0.17509 0.78768 0.0
H722 H 0.8636 0.19411 0.83532 0.0
H723 H 0.84465 0.14027 0.82622 0.0
H724 H 0.82944 0.17205 0.80117 0.0
O725 O 0.76992 0.15938 0.86167 0.0
H726 H 0.82142 0.19758 0.87993 0.0
H727 H 0.75353 0.18505 0.87879 0.0
H728 H 0.89737 0.19721 0.82222 0.0
H729 H 0.77115 0.12199 0.81017 0.0
H730 H 0.89709 0.18767 0.79822 0.0
H731 H 0.80006 0.09379 0.81012 0.0
O732 O 0.82429 0.21049 0.83657 0.0
H733 H 0.71785 0.20295 0.83806 0.0
H734 H 0.7771 0.2301 0.86664 0.0
H735 H 0.74605 0.25405 0.8615 0.0
H736 H 0.71612 0.24048 0.84713 0.0
H737 H 0.7493 0.1796 0.84338 0.0
H738 H 0.75073 0.19243 0.90285 0.0
H739 H 0.78378 0.20271 0.91559 0.0
O740 O 0.80941 0.21048 0.85698 0.0
C741 C 0.83274 0.16209 0.85649 0.0
C742 C 0.8048 0.20089 0.89852 0.0
C743 C 0.7663 0.19365 0.89789 0.0
N744 N 0.7876 0.19107 0.87795 0.0
C745 C 0.80587 0.19658 0.8849 0.0
C746 C 0.768 0.18945 0.88428 0.0
C747 C 0.78485 0.19942 0.90504 0.0
C748 C 0.79214 0.14674 0.81828 0.0
N749 N 0.81251 0.15172 0.82278 0.0
C750 C 0.78733 0.12586 0.81367 0.0
C751 C 0.80356 0.11004 0.81366 0.0
C752 C 0.82431 0.11526 0.81823 0.0
C753 C 0.8285 0.1363 0.82279 0.0
C754 C 0.86312 0.17927 0.79813 0.0
C755 C 0.86339 0.18981 0.8249 0.0
C756 C 0.84428 0.17763 0.80582 0.0
N757 N 0.84461 0.18277 0.81904 0.0
C758 C 0.88254 0.19165 0.81753 0.0
C759 C 0.88237 0.18631 0.80405 0.0
C760 C 0.8209 0.21926 0.84789 0.0
C761 C 0.73076 0.20902 0.84437 0.0
C762 C 0.76417 0.22409 0.86036 0.0
C763 C 0.74661 0.23772 0.8575 0.0
C764 C 0.72981 0.23009 0.84944 0.0
N765 N 0.76494 0.20343 0.85537 0.0
C766 C 0.74856 0.19585 0.84745 0.0
Co767 Co 0.5714 0.06865 0.57985 0.0
Co768 Co 0.56814 0.04125 0.60974 0.0
O769 O 0.57429 0.04234 0.59064 0.0
C770 C 0.54372 0.03758 0.56484 0.0
O771 O 0.53396 0.03267 0.57606 0.0
C772 C 0.61311 0.02401 0.60813 0.0
O773 O 0.61795 0.0406 0.60046 0.0
O774 O 0.58673 0.06722 0.61321 0.0
O775 O 0.58348 0.0869 0.59451 0.0
H776 H 0.54793 0.07238 0.65426 0.0
H777 H 0.59466 0.03033 0.56909 0.0
O778 O 0.55934 0.05116 0.56475 0.0
H779 H 0.64848 0.08978 0.56885 0.0
H780 H 0.57614 0.11202 0.53746 0.0
H781 H 0.55624 0.11364 0.58496 0.0
H782 H 0.61099 0.09629 0.57658 0.0
H783 H 0.58012 0.07923 0.55138 0.0
O784 O 0.59383 0.02172 0.61254 0.0
H785 H 0.5554 0.07361 0.63017 0.0
H786 H 0.56846 0.0058 0.62998 0.0
H787 H 0.55219 0.14686 0.57144 0.0
H788 H 0.63193 0.02313 0.56114 0.0
H789 H 0.56216 0.14617 0.5475 0.0
H790 H 0.65915 0.05297 0.56104 0.0
O791 O 0.54134 0.07384 0.58665 0.0
H792 H 0.55053 0.96842 0.58981 0.0
H793 H 0.52315 0.02849 0.61766 0.0
H794 H 0.49942 0.99705 0.61304 0.0
H795 H 0.51311 0.96671 0.59904 0.0
H796 H 0.57365 1.00027 0.59459 0.0
H797 H 0.56131 0.00385 0.65409 0.0
H798 H 0.55087 0.0373 0.66638 0.0
O799 O 0.54235 0.0606 0.60746 0.0
C800 C 0.58968 0.08462 0.60653 0.0
C801 C 0.55239 0.05768 0.64901 0.0
C802 C 0.55993 0.01922 0.64891 0.0
N803 N 0.56217 0.03977 0.62866 0.0
C804 C 0.55657 0.05826 0.63536 0.0
C805 C 0.564 0.02043 0.63527 0.0
C806 C 0.55406 0.038 0.6558 0.0
C807 C 0.60638 0.04344 0.56897 0.0
N808 N 0.60065 0.06371 0.57328 0.0
C809 C 0.62747 0.03925 0.5645 0.0
C810 C 0.64274 0.05599 0.56446 0.0
C811 C 0.63677 0.07664 0.56886 0.0
C812 C 0.61554 0.08021 0.57327 0.0
C813 C 0.57177 0.11253 0.54788 0.0
C814 C 0.56074 0.11325 0.57457 0.0
C815 C 0.57394 0.094 0.5558 0.0
N816 N 0.56855 0.09456 0.56899 0.0
C817 C 0.55835 0.1321 0.56696 0.0
C818 C 0.56393 0.13169 0.55353 0.0
C819 C 0.53299 0.07113 0.59815 0.0
C820 C 0.54441 0.98151 0.59595 0.0
C821 C 0.5292 0.01538 0.61153 0.0
C822 C 0.51571 0.9976 0.60897 0.0
C823 C 0.5234 0.98057 0.60112 0.0
N824 N 0.54981 0.01615 0.60645 0.0
C825 C 0.55745 0.99954 0.59873 0.0
Co826 Co 0.68352 0.82093 0.33005 0.0
Co827 Co 0.71224 0.81694 0.35949 0.0
O828 O 0.71034 0.82313 0.34043 0.0
C829 C 0.71339 0.79219 0.31487 0.0
O830 O 0.71858 0.78266 0.32612 0.0
C831 C 0.72966 0.86177 0.35759 0.0
O832 O 0.71279 0.86661 0.35014 0.0
O833 O 0.68662 0.83575 0.36341 0.0
O834 O 0.66629 0.83399 0.34488 0.0
H835 H 0.68295 0.79688 0.4045 0.0
H836 H 0.72228 0.84268 0.3187 0.0
O837 O 0.70002 0.808 0.3148 0.0
H838 H 0.66462 0.89841 0.31856 0.0
H839 H 0.63873 0.82625 0.28824 0.0
H840 H 0.63824 0.80751 0.33592 0.0
H841 H 0.65709 0.86131 0.32664 0.0
H842 H 0.67216 0.82938 0.30165 0.0
O843 O 0.73208 0.84249 0.36199 0.0
H844 H 0.6807 0.80441 0.38044 0.0
H845 H 0.74858 0.81694 0.37913 0.0
H846 H 0.60438 0.80433 0.32291 0.0
H847 H 0.73049 0.87953 0.3104 0.0
H848 H 0.6045 0.81373 0.29888 0.0
H849 H 0.70156 0.90771 0.31035 0.0
O850 O 0.67757 0.79116 0.33713 0.0
H851 H 0.784 0.79877 0.33836 0.0
H852 H 0.72494 0.77181 0.36715 0.0
H853 H 0.75596 0.74783 0.36198 0.0
H854 H 0.78579 0.76129 0.34751 0.0
H855 H 0.75259 0.82216 0.34369 0.0
H856 H 0.75155 0.80971 0.4032 0.0
H857 H 0.71858 0.79952 0.41604 0.0
O858 O 0.69258 0.79136 0.35751 0.0
C859 C 0.66921 0.83971 0.35694 0.0
C860 C 0.69745 0.80123 0.39901 0.0
C861 C 0.73594 0.80846 0.39828 0.0
N862 N 0.71452 0.81092 0.37837 0.0
C863 C 0.69628 0.80545 0.38538 0.0
C864 C 0.73415 0.81257 0.38466 0.0
C865 C 0.71744 0.80274 0.40548 0.0
C866 C 0.70956 0.85482 0.31862 0.0
N867 N 0.68923 0.84986 0.32317 0.0
C868 C 0.71433 0.87567 0.31395 0.0
C869 C 0.69809 0.89148 0.31393 0.0
C870 C 0.67737 0.88628 0.31856 0.0
C871 C 0.67322 0.86527 0.32317 0.0
C872 C 0.63846 0.82214 0.2987 0.0
C873 C 0.63838 0.81175 0.32549 0.0
C874 C 0.65736 0.82383 0.30634 0.0
N875 N 0.65711 0.81877 0.31958 0.0
C876 C 0.61918 0.80987 0.31816 0.0
C877 C 0.61926 0.81512 0.30468 0.0
C878 C 0.68103 0.78249 0.34847 0.0
C879 C 0.77114 0.79274 0.34471 0.0
C880 C 0.73783 0.77777 0.36081 0.0
C881 C 0.75538 0.76413 0.35795 0.0
C882 C 0.77211 0.7717 0.34983 0.0
N883 N 0.73702 0.7984 0.35578 0.0
C884 C 0.75335 0.80593 0.3478 0.0
Co885 Co 0.93091 0.93494 0.07988 0.0
Co886 Co 0.9341 0.96251 0.10971 0.0
O887 O 0.92806 0.96133 0.0906 0.0
C888 C 0.95877 0.96578 0.06481 0.0
O889 O 0.96858 0.97072 0.07602 0.0
C890 C 0.88921 0.97994 0.10792 0.0
O891 O 0.88437 0.96329 0.1003 0.0
O892 O 0.91537 0.93663 0.1132 0.0
O893 O 0.91872 0.91682 0.09456 0.0
H894 H 0.95395 0.93156 0.15435 0.0
H895 H 0.90779 0.97325 0.069 0.0
O896 O 0.94307 0.95229 0.06476 0.0
H897 H 0.85383 0.91394 0.06877 0.0
H898 H 0.92624 0.89131 0.03759 0.0
H899 H 0.94594 0.88994 0.08513 0.0
H900 H 0.89127 0.90738 0.07659 0.0
H901 H 0.92228 0.9242 0.05142 0.0
O902 O 0.90846 0.98217 0.1124 0.0
H903 H 0.94663 0.93022 0.13024 0.0
H904 H 0.93375 0.99807 0.12989 0.0
H905 H 0.94997 0.85663 0.07169 0.0
H906 H 0.87058 0.98051 0.06097 0.0
H907 H 0.9401 0.85719 0.04774 0.0
H908 H 0.84329 0.95073 0.06087 0.0
O909 O 0.96093 0.92972 0.08675 0.0
H910 H 0.95213 0.03514 0.08967 0.0
H911 H 0.97908 0.97515 0.11774 0.0
H912 H 0.00295 0.00647 0.11312 0.0
H913 H 0.98949 0.03677 0.09901 0.0
H914 H 0.92885 0.00342 0.09446 0.0
H915 H 0.94076 1.00012 0.15401 0.0
H916 H 0.95103 0.96671 0.16639 0.0
O917 O 0.95983 0.94305 0.10755 0.0
C918 C 0.91242 0.9192 0.10656 0.0
C919 C 0.94956 0.94625 0.14906 0.0
C920 C 0.94213 0.98472 0.14887 0.0
N921 N 0.93994 0.96408 0.12865 0.0
C922 C 0.94546 0.9456 0.1354 0.0
C923 C 0.93814 0.98345 0.13522 0.0
C924 C 0.9479 0.96597 0.15581 0.0
C925 C 0.89605 0.96018 0.06888 0.0
N926 N 0.9017 0.93991 0.07325 0.0
C927 C 0.87498 0.9644 0.06437 0.0
C928 C 0.85967 0.94769 0.06433 0.0
C929 C 0.86557 0.92705 0.06878 0.0
C930 C 0.88677 0.92345 0.07324 0.0
C931 C 0.93057 0.89085 0.04802 0.0
C932 C 0.94148 0.89028 0.07473 0.0
C933 C 0.92841 0.90944 0.05589 0.0
N934 N 0.93374 0.90895 0.06909 0.0
C935 C 0.94386 0.87138 0.06717 0.0
C936 C 0.93834 0.87171 0.05372 0.0
C937 C 0.96923 0.93247 0.09827 0.0
C938 C 0.95816 0.02207 0.09586 0.0
C939 C 0.97312 0.98824 0.11156 0.0
C940 C 0.9867 0.00595 0.109 0.0
C941 C 0.97913 0.02296 0.10109 0.0
N942 N 0.95255 0.98752 0.10642 0.0
C943 C 0.94502 0.00411 0.09864 0.0
Co944 Co 0.68453 0.68139 0.83058 0.0
Co945 Co 0.71241 0.6845 0.86034 0.0
O946 O 0.71093 0.67824 0.84126 0.0
C947 C 0.71566 0.70897 0.8156 0.0
O948 O 0.72088 0.71842 0.82687 0.0
C949 C 0.72868 0.63915 0.85868 0.0
O950 O 0.71192 0.63465 0.85107 0.0
O951 O 0.68606 0.66653 0.864 0.0
O952 O 0.66639 0.66933 0.84526 0.0
H953 H 0.68235 0.70606 0.9049 0.0
H954 H 0.7226 0.65799 0.81961 0.0
O955 O 0.70192 0.69348 0.81547 0.0
H956 H 0.66284 0.60453 0.81942 0.0
H957 H 0.64071 0.67723 0.78834 0.0
H958 H 0.63969 0.69679 0.8359 0.0
H959 H 0.65662 0.64199 0.82729 0.0
H960 H 0.67362 0.67295 0.80212 0.0
O961 O 0.73136 0.65837 0.86312 0.0
H962 H 0.68065 0.6984 0.88084 0.0
H963 H 0.74806 0.68336 0.88045 0.0
H964 H 0.60635 0.70114 0.82251 0.0
H965 H 0.72951 0.62074 0.81154 0.0
H966 H 0.60674 0.69133 0.79855 0.0
H967 H 0.69951 0.5937 0.81145 0.0
O968 O 0.67961 0.71146 0.83745 0.0
H969 H 0.78535 0.70022 0.83999 0.0
H970 H 0.72639 0.72921 0.86811 0.0
H971 H 0.75832 0.75214 0.86326 0.0
H972 H 0.7881 0.73765 0.84913 0.0
H973 H 0.75304 0.6779 0.845 0.0
H974 H 0.75045 0.6907 0.90453 0.0
H975 H 0.71745 0.70222 0.9169 0.0
O976 O 0.69372 0.71075 0.85806 0.0
C977 C 0.66868 0.66341 0.85734 0.0
C978 C 0.69686 0.70112 0.89961 0.0
C979 C 0.73508 0.69246 0.8994 0.0
N980 N 0.71426 0.69059 0.87923 0.0
C981 C 0.69601 0.69681 0.88598 0.0
C982 C 0.73361 0.68828 0.88578 0.0
C983 C 0.71655 0.69893 0.90634 0.0
C984 C 0.70943 0.64635 0.81951 0.0
N985 N 0.68923 0.65216 0.82391 0.0
C986 C 0.71345 0.62527 0.81496 0.0
C987 C 0.69662 0.6101 0.81493 0.0
C988 C 0.67605 0.61616 0.81942 0.0
C989 C 0.67264 0.63738 0.82391 0.0
C990 C 0.64033 0.68152 0.79877 0.0
C991 C 0.63994 0.69236 0.8255 0.0
C992 C 0.65892 0.67919 0.80662 0.0
N993 N 0.65853 0.68448 0.81982 0.0
C994 C 0.62104 0.69492 0.81796 0.0
C995 C 0.62127 0.68943 0.80451 0.0
C996 C 0.68299 0.72007 0.84882 0.0
C997 C 0.77251 0.70669 0.84619 0.0
C998 C 0.73926 0.7228 0.86192 0.0
C999 C 0.75732 0.73585 0.85924 0.0
C1000 C 0.77403 0.7277 0.85131 0.0
N1001 N 0.73791 0.70219 0.85689 0.0
C1002 C 0.75421 0.6941 0.8491 0.0
Co1003 Co 0.57134 0.43494 0.08023 0.0
Co1004 Co 0.5677 0.46396 0.10966 0.0
O1005 O 0.57459 0.46157 0.09069 0.0
C1006 C 0.54382 0.46593 0.06507 0.0
O1007 O 0.5346 0.47158 0.07633 0.0
C1008 C 0.61387 0.47834 0.10846 0.0
O1009 O 0.61806 0.46162 0.10075 0.0
O1010 O 0.58411 0.43671 0.11392 0.0
O1011 O 0.58354 0.41727 0.09502 0.0
H1012 H 0.54235 0.43632 0.15404 0.0
H1013 H 0.59455 0.47287 0.06892 0.0
O1014 O 0.5591 0.45196 0.06499 0.0
H1015 H 0.64818 0.41325 0.06901 0.0
H1016 H 0.5753 0.39019 0.03834 0.0
H1017 H 0.55629 0.39011 0.08599 0.0
H1018 H 0.61079 0.40709 0.07702 0.0
H1019 H 0.57953 0.42343 0.05183 0.0
O1020 O 0.59464 0.48156 0.11273 0.0
H1021 H 0.55095 0.43362 0.13014 0.0
H1022 H 0.5701 0.49997 0.12952 0.0
H1023 H 0.55199 0.35646 0.0729 0.0
H1024 H 0.63172 0.47973 0.0607 0.0
H1025 H 0.56152 0.35637 0.0489 0.0
H1026 H 0.65885 0.4498 0.06075 0.0
O1027 O 0.54131 0.42993 0.08722 0.0
H1028 H 0.55696 0.53667 0.08783 0.0
H1029 H 0.52403 0.4814 0.11706 0.0
H1030 H 0.50321 0.51441 0.11143 0.0
H1031 H 0.51971 0.54236 0.09673 0.0
H1032 H 0.57709 0.50328 0.09362 0.0
H1033 H 0.5619 0.50333 0.15344 0.0
H1034 H 0.54783 0.47137 0.16585 0.0
O1035 O 0.54056 0.44677 0.10707 0.0
C1036 C 0.58819 0.41947 0.1073 0.0
C1037 C 0.54841 0.45038 0.14874 0.0
C1038 C 0.55942 0.48798 0.1484 0.0
N1039 N 0.5609 0.46665 0.12843 0.0
C1040 C 0.55326 0.44896 0.13519 0.0
C1041 C 0.5641 0.48596 0.13487 0.0
C1042 C 0.55152 0.47004 0.15536 0.0
C1043 C 0.60622 0.45972 0.06888 0.0
N1044 N 0.6005 0.43959 0.07344 0.0
C1045 C 0.62726 0.46372 0.06425 0.0
C1046 C 0.64248 0.44693 0.0643 0.0
C1047 C 0.63651 0.42643 0.06894 0.0
C1048 C 0.61534 0.42305 0.07351 0.0
C1049 C 0.57112 0.39002 0.0488 0.0
C1050 C 0.56059 0.39017 0.07557 0.0
C1051 C 0.57343 0.40881 0.05648 0.0
N1052 N 0.56828 0.40867 0.0697 0.0
C1053 C 0.55807 0.37108 0.0682 0.0
C1054 C 0.5634 0.37104 0.05473 0.0
C1055 C 0.53187 0.43493 0.09811 0.0
C1056 C 0.5496 0.52461 0.09425 0.0
C1057 C 0.53123 0.49338 0.11058 0.0
C1058 C 0.51941 0.5121 0.10747 0.0
C1059 C 0.52869 0.52778 0.09923 0.0
N1060 N 0.55171 0.49037 0.10564 0.0
C1061 C 0.56093 0.5057 0.09759 0.0
Co1062 Co 0.81713 0.32129 0.32977 0.0
Co1063 Co 0.79002 0.31847 0.35977 0.0
O1064 O 0.79091 0.32428 0.34063 0.0
C1065 C 0.78597 0.2933 0.31502 0.0
O1066 O 0.78121 0.28361 0.32629 0.0
C1067 C 0.7726 0.36336 0.35791 0.0
O1068 O 0.78916 0.36813 0.3502 0.0
O1069 O 0.81596 0.33722 0.36302 0.0
O1070 O 0.83548 0.3337 0.34428 0.0
H1071 H 0.82162 0.29913 0.40432 0.0
H1072 H 0.77861 0.34427 0.31904 0.0
O1073 O 0.79952 0.30895 0.31482 0.0
H1074 H 0.83792 0.3982 0.31811 0.0
H1075 H 0.86007 0.32539 0.2872 0.0
H1076 H 0.86221 0.30635 0.33483 0.0
H1077 H 0.84463 0.36088 0.32607 0.0
H1078 H 0.82741 0.32953 0.3012 0.0
O1079 O 0.77041 0.34414 0.36245 0.0
H1080 H 0.8226 0.30616 0.38017 0.0
H1081 H 0.75476 0.31909 0.38013 0.0
H1082 H 0.89531 0.30215 0.32122 0.0
H1083 H 0.77121 0.38137 0.31088 0.0
H1084 H 0.89437 0.31169 0.29722 0.0
H1085 H 0.80098 0.40865 0.31042 0.0
O1086 O 0.82246 0.29135 0.33675 0.0
H1087 H 0.71708 0.30024 0.3402 0.0
H1088 H 0.77747 0.27359 0.36806 0.0
H1089 H 0.74607 0.24968 0.36372 0.0
H1090 H 0.71557 0.263 0.34971 0.0
H1091 H 0.74888 0.32356 0.34471 0.0
H1092 H 0.75307 0.31237 0.4043 0.0
H1093 H 0.78666 0.30222 0.41654 0.0
O1094 O 0.80942 0.2927 0.35761 0.0
C1095 C 0.83327 0.34014 0.35627 0.0
C1096 C 0.80686 0.30347 0.39909 0.0
C1097 C 0.76839 0.31093 0.39908 0.0
N1098 N 0.78873 0.31285 0.37874 0.0
C1099 C 0.8073 0.3074 0.38541 0.0
C1100 C 0.76946 0.31475 0.3854 0.0
C1101 C 0.78724 0.30523 0.40594 0.0
C1102 C 0.79168 0.35601 0.31878 0.0
N1103 N 0.81203 0.35041 0.32303 0.0
C1104 C 0.78738 0.377 0.31419 0.0
C1105 C 0.80408 0.39231 0.31395 0.0
C1106 C 0.82481 0.38647 0.31828 0.0
C1107 C 0.8285 0.36533 0.32282 0.0
C1108 C 0.8607 0.32121 0.29765 0.0
C1109 C 0.86171 0.31066 0.32441 0.0
C1110 C 0.84224 0.32347 0.30562 0.0
N1111 N 0.84294 0.31832 0.31884 0.0
C1112 C 0.88049 0.30819 0.31675 0.0
C1113 C 0.87994 0.31353 0.30328 0.0
C1114 C 0.81987 0.28319 0.34832 0.0
C1115 C 0.73024 0.29428 0.34635 0.0
C1116 C 0.76429 0.27949 0.36193 0.0
C1117 C 0.74653 0.26589 0.35953 0.0
C1118 C 0.72941 0.27337 0.35168 0.0
N1119 N 0.76495 0.3 0.3567 0.0
C1120 C 0.74825 0.30744 0.34898 0.0
Co1121 Co 0.93329 0.56784 0.57998 0.0
Co1122 Co 0.93663 0.54021 0.60981 0.0
O1123 O 0.9304 0.54148 0.59073 0.0
C1124 C 0.96104 0.53679 0.56503 0.0
O1125 O 0.97064 0.53173 0.57628 0.0
C1126 C 0.89145 0.52343 0.60818 0.0
O1127 O 0.88679 0.54008 0.60052 0.0
O1128 O 0.91833 0.56638 0.61338 0.0
O1129 O 0.92104 0.58596 0.59461 0.0
H1130 H 0.95775 0.57088 0.6543 0.0
H1131 H 0.91022 0.52946 0.56915 0.0
O1132 O 0.9455 0.55046 0.5649 0.0
H1133 H 0.85623 0.58875 0.56875 0.0
H1134 H 0.92867 0.61136 0.53764 0.0
H1135 H 0.94827 0.61286 0.5852 0.0
H1136 H 0.89364 0.59537 0.57658 0.0
H1137 H 0.92472 0.5785 0.5515 0.0
O1138 O 0.9107 0.52098 0.61263 0.0
H1139 H 0.95015 0.57229 0.63022 0.0
H1140 H 0.93581 0.50473 0.63003 0.0
H1141 H 0.95229 0.64615 0.57173 0.0
H1142 H 0.87303 0.52215 0.5611 0.0
H1143 H 0.94246 0.64552 0.54777 0.0
H1144 H 0.84572 0.55191 0.56092 0.0
O1145 O 0.96332 0.57309 0.58685 0.0
H1146 H 0.95321 0.4673 0.58968 0.0
H1147 H 0.98146 0.52676 0.61769 0.0
H1148 H 0.00474 0.49505 0.61296 0.0
H1149 H 0.99062 0.46501 0.59888 0.0
H1150 H 0.93053 0.49942 0.59457 0.0
H1151 H 0.94309 0.50262 0.65413 0.0
H1152 H 0.95423 0.53585 0.66641 0.0
O1153 O 0.96269 0.55918 0.6075 0.0
C1154 C 0.91504 0.58368 0.60667 0.0
C1155 C 0.95297 0.55628 0.64905 0.0
C1156 C 0.94472 0.51797 0.64896 0.0
N1157 N 0.94269 0.53858 0.62872 0.0
C1158 C 0.9487 0.55696 0.63541 0.0
C1159 C 0.94057 0.51927 0.63532 0.0
C1160 C 0.95097 0.53662 0.65584 0.0
C1161 C 0.89847 0.54253 0.56899 0.0
N1162 N 0.9041 0.56283 0.57332 0.0
C1163 C 0.87742 0.53828 0.56447 0.0
C1164 C 0.8621 0.55497 0.56439 0.0
C1165 C 0.86797 0.57564 0.56879 0.0
C1166 C 0.88917 0.57929 0.57326 0.0
C1167 C 0.93298 0.61184 0.54808 0.0
C1168 C 0.94384 0.61249 0.57479 0.0
C1169 C 0.93083 0.59327 0.55596 0.0
N1170 N 0.93613 0.5938 0.56916 0.0
C1171 C 0.94621 0.63138 0.56721 0.0
C1172 C 0.94071 0.63101 0.55377 0.0
C1173 C 0.97195 0.56991 0.59823 0.0
C1174 C 0.95952 0.48026 0.59586 0.0
C1175 C 0.97521 0.51379 0.61152 0.0
C1176 C 0.98846 0.49585 0.6089 0.0
C1177 C 0.98052 0.47899 0.60101 0.0
N1178 N 0.95461 0.51489 0.60645 0.0
C1179 C 0.94673 0.49844 0.5987 0.0
Co1180 Co 0.68453 0.32244 0.67314 0.0
Co1181 Co 0.71272 0.31861 0.64351 0.0
O1182 O 0.71116 0.32475 0.66259 0.0
C1183 C 0.71472 0.29378 0.68816 0.0
O1184 O 0.71973 0.28422 0.67689 0.0
C1185 C 0.73029 0.36343 0.64535 0.0
O1186 O 0.71354 0.36833 0.65288 0.0
O1187 O 0.68703 0.33744 0.63978 0.0
O1188 O 0.66698 0.3354 0.65841 0.0
H1189 H 0.68263 0.29865 0.59867 0.0
H1190 H 0.72337 0.34438 0.68424 0.0
O1191 O 0.70135 0.30959 0.68828 0.0
H1192 H 0.66544 0.39982 0.68475 0.0
H1193 H 0.64043 0.32754 0.71522 0.0
H1194 H 0.63922 0.30879 0.66754 0.0
H1195 H 0.65796 0.36268 0.67671 0.0
H1196 H 0.67361 0.33085 0.7016 0.0
O1197 O 0.73256 0.34415 0.64092 0.0
H1198 H 0.68081 0.30613 0.62275 0.0
H1199 H 0.74871 0.31865 0.62363 0.0
H1200 H 0.6056 0.30543 0.68077 0.0
H1201 H 0.73155 0.38126 0.69249 0.0
H1202 H 0.60608 0.31483 0.70479 0.0
H1203 H 0.70248 0.4093 0.69273 0.0
O1204 O 0.67861 0.29264 0.6661 0.0
H1205 H 0.78483 0.30032 0.66418 0.0
H1206 H 0.72527 0.2735 0.63571 0.0
H1207 H 0.75636 0.24948 0.64065 0.0
H1208 H 0.78644 0.26288 0.65496 0.0
H1209 H 0.75334 0.32375 0.65907 0.0
H1210 H 0.75125 0.31148 0.59954 0.0
H1211 H 0.71805 0.3013 0.58691 0.0
O1212 O 0.69309 0.29302 0.64558 0.0
C1213 C 0.66969 0.34123 0.64635 0.0
C1214 C 0.69723 0.30299 0.60407 0.0
C1215 C 0.73573 0.31022 0.60456 0.0
N1216 N 0.71466 0.31264 0.62461 0.0
C1217 C 0.69631 0.30719 0.61771 0.0
C1218 C 0.73419 0.31431 0.61819 0.0
C1219 C 0.7171 0.30451 0.59748 0.0
C1220 C 0.7106 0.35645 0.6844 0.0
N1221 N 0.69021 0.35139 0.67998 0.0
C1222 C 0.71535 0.37733 0.68905 0.0
C1223 C 0.69903 0.39306 0.68917 0.0
C1224 C 0.67826 0.38776 0.68467 0.0
C1225 C 0.67413 0.36673 0.68008 0.0
C1226 C 0.64 0.32343 0.70476 0.0
C1227 C 0.63952 0.31304 0.67797 0.0
C1228 C 0.65876 0.32521 0.69701 0.0
N1229 N 0.65831 0.32015 0.68377 0.0
C1230 C 0.62045 0.31105 0.68542 0.0
C1231 C 0.62074 0.3163 0.6989 0.0
C1232 C 0.68181 0.28405 0.65471 0.0
C1233 C 0.77185 0.29432 0.6579 0.0
C1234 C 0.73827 0.27944 0.64197 0.0
C1235 C 0.75585 0.26577 0.64471 0.0
C1236 C 0.77273 0.2733 0.65274 0.0
N1237 N 0.73756 0.30005 0.64704 0.0
C1238 C 0.75403 0.30754 0.65493 0.0
Co1239 Co 0.93239 0.43413 0.92257 0.0
Co1240 Co 0.93496 0.46203 0.89282 0.0
O1241 O 0.92889 0.46053 0.91192 0.0
C1242 C 0.95959 0.46547 0.93773 0.0
O1243 O 0.96932 0.47066 0.92654 0.0
C1244 C 0.88958 0.47823 0.89458 0.0
O1245 O 0.88511 0.46146 0.90218 0.0
O1246 O 0.91701 0.43564 0.88923 0.0
O1247 O 0.92059 0.41584 0.90786 0.0
H1248 H 0.95609 0.43198 0.84819 0.0
H1249 H 0.90842 0.47184 0.93355 0.0
O1250 O 0.94416 0.45167 0.93773 0.0
H1251 H 0.85583 0.41131 0.93367 0.0
H1252 H 0.92878 0.39014 0.96476 0.0
H1253 H 0.94844 0.38953 0.91721 0.0
H1254 H 0.8934 0.40565 0.92583 0.0
H1255 H 0.92406 0.42302 0.95101 0.0
O1256 O 0.90878 0.48094 0.89013 0.0
H1257 H 0.94869 0.43029 0.87227 0.0
H1258 H 0.93357 0.49767 0.87272 0.0
H1259 H 0.95324 0.35622 0.93056 0.0
H1260 H 0.87106 0.4782 0.9416 0.0
H1261 H 0.94338 0.3564 0.95452 0.0
H1262 H 0.84445 0.44781 0.94164 0.0
O1263 O 0.96253 0.42966 0.91569 0.0
H1264 H 0.95075 0.535 0.91312 0.0
H1265 H 0.97955 0.47611 0.88487 0.0
H1266 H 0.00246 0.5081 0.88962 0.0
H1267 H 0.98806 0.53785 0.90382 0.0
H1268 H 0.92845 0.50263 0.90821 0.0
H1269 H 0.94064 0.50007 0.84861 0.0
H1270 H 0.95207 0.46707 0.83619 0.0
O1271 O 0.96126 0.44339 0.895 0.0
C1272 C 0.91434 0.41814 0.89585 0.0
C1273 C 0.95118 0.44648 0.85349 0.0
C1274 C 0.94248 0.48469 0.85373 0.0
N1275 N 0.94085 0.46389 0.87391 0.0
C1276 C 0.94702 0.44564 0.86714 0.0
C1277 C 0.93846 0.48323 0.86737 0.0
C1278 C 0.9489 0.46617 0.84677 0.0
C1279 C 0.89697 0.4585 0.93364 0.0
N1280 N 0.90309 0.43839 0.92923 0.0
C1281 C 0.87583 0.46221 0.93816 0.0
C1282 C 0.8609 0.44516 0.93817 0.0
C1283 C 0.86727 0.42469 0.93368 0.0
C1284 C 0.88854 0.42159 0.92921 0.0
C1285 C 0.9331 0.38985 0.95433 0.0
C1286 C 0.94399 0.38969 0.92761 0.0
C1287 C 0.93052 0.40843 0.9465 0.0
N1288 N 0.93584 0.40815 0.9333 0.0
C1289 C 0.9468 0.3708 0.93513 0.0
C1290 C 0.94129 0.37092 0.94857 0.0
C1291 C 0.97089 0.43292 0.90424 0.0
C1292 C 0.95718 0.52217 0.90689 0.0
C1293 C 0.97318 0.48896 0.89109 0.0
C1294 C 0.98622 0.50705 0.89372 0.0
C1295 C 0.97812 0.52375 0.90168 0.0
N1296 N 0.95264 0.48756 0.89621 0.0
C1297 C 0.9446 0.50384 0.90404 0.0
Co1298 Co 0.81855 0.68153 0.17338 0.0
Co1299 Co 0.79076 0.68424 0.14361 0.0
O1300 O 0.79216 0.67825 0.16271 0.0
C1301 C 0.78725 0.70893 0.18841 0.0
O1302 O 0.7821 0.71852 0.17717 0.0
C1303 C 0.77431 0.639 0.14535 0.0
O1304 O 0.79112 0.63446 0.15292 0.0
O1305 O 0.81694 0.66599 0.14008 0.0
O1306 O 0.83678 0.66951 0.1587 0.0
H1307 H 0.82107 0.70458 0.0989 0.0
H1308 H 0.78061 0.65793 0.18437 0.0
O1309 O 0.80108 0.69352 0.18851 0.0
H1310 H 0.84066 0.60479 0.18456 0.0
H1311 H 0.86241 0.67764 0.21562 0.0
H1312 H 0.86332 0.69713 0.16804 0.0
H1313 H 0.84667 0.64228 0.17668 0.0
H1314 H 0.82952 0.67319 0.20185 0.0
O1315 O 0.77159 0.65824 0.14096 0.0
H1316 H 0.82269 0.69732 0.123 0.0
H1317 H 0.75508 0.68323 0.12352 0.0
H1318 H 0.89664 0.70166 0.18143 0.0
H1319 H 0.77391 0.62066 0.19246 0.0
H1320 H 0.89631 0.69189 0.2054 0.0
H1321 H 0.80406 0.59378 0.19255 0.0
O1322 O 0.82334 0.71159 0.16646 0.0
H1323 H 0.71791 0.70092 0.16379 0.0
H1324 H 0.77725 0.72898 0.13562 0.0
H1325 H 0.74552 0.75228 0.14031 0.0
H1326 H 0.71554 0.73825 0.15447 0.0
H1327 H 0.75003 0.67823 0.15893 0.0
H1328 H 0.75276 0.69018 0.09939 0.0
H1329 H 0.7859 0.70102 0.08693 0.0
O1330 O 0.80975 0.71032 0.14573 0.0
C1331 C 0.83442 0.66321 0.1467 0.0
C1332 C 0.8065 0.69994 0.10423 0.0
C1333 C 0.76816 0.69183 0.1045 0.0
N1334 N 0.78897 0.69004 0.12468 0.0
C1335 C 0.8073 0.69587 0.11788 0.0
C1336 C 0.76959 0.68788 0.11815 0.0
C1337 C 0.78677 0.69792 0.09752 0.0
C1338 C 0.79385 0.64637 0.18448 0.0
N1339 N 0.81402 0.65229 0.18007 0.0
C1340 C 0.78994 0.62527 0.18902 0.0
C1341 C 0.80685 0.61019 0.18906 0.0
C1342 C 0.82739 0.61635 0.18457 0.0
C1343 C 0.83068 0.63759 0.18007 0.0
C1344 C 0.86277 0.68193 0.20518 0.0
C1345 C 0.86309 0.69273 0.17845 0.0
C1346 C 0.84418 0.67949 0.19734 0.0
N1347 N 0.84455 0.68477 0.18413 0.0
C1348 C 0.88199 0.69538 0.18599 0.0
C1349 C 0.88179 0.68991 0.19944 0.0
C1350 C 0.82033 0.71986 0.15496 0.0
C1351 C 0.73084 0.70719 0.15758 0.0
C1352 C 0.7643 0.72278 0.14182 0.0
C1353 C 0.74635 0.73603 0.14442 0.0
C1354 C 0.72953 0.72815 0.15236 0.0
N1355 N 0.76543 0.70223 0.14695 0.0
C1356 C 0.74902 0.69439 0.15475 0.0
Co1357 Co 0.5699 0.56782 0.4238 0.0
Co1358 Co 0.56662 0.54031 0.39395 0.0
O1359 O 0.57279 0.54148 0.41304 0.0
C1360 C 0.54235 0.53671 0.43888 0.0
O1361 O 0.53257 0.53173 0.42767 0.0
C1362 C 0.61164 0.52321 0.39556 0.0
O1363 O 0.61642 0.5399 0.40317 0.0
O1364 O 0.58517 0.56629 0.39044 0.0
O1365 O 0.58191 0.58604 0.4091 0.0
H1366 H 0.54633 0.57125 0.34939 0.0
H1367 H 0.59326 0.52957 0.43458 0.0
O1368 O 0.55792 0.55036 0.43893 0.0
H1369 H 0.64697 0.58911 0.4347 0.0
H1370 H 0.57471 0.61135 0.46612 0.0
H1371 H 0.55465 0.61277 0.41864 0.0
H1372 H 0.60945 0.59554 0.427 0.0
H1373 H 0.57869 0.57851 0.45225 0.0
O1374 O 0.59235 0.5208 0.39117 0.0
H1375 H 0.55382 0.57258 0.37347 0.0
H1376 H 0.56699 0.50478 0.37375 0.0
H1377 H 0.55059 0.64603 0.43212 0.0
H1378 H 0.63057 0.52245 0.44248 0.0
H1379 H 0.56066 0.64545 0.45605 0.0
H1380 H 0.65774 0.55234 0.44253 0.0
O1381 O 0.53981 0.57293 0.41701 0.0
H1382 H 0.54914 0.46752 0.41396 0.0
H1383 H 0.52164 0.52746 0.38605 0.0
H1384 H 0.49797 0.496 0.39071 0.0
H1385 H 0.51171 0.46572 0.40474 0.0
H1386 H 0.57221 0.49938 0.40914 0.0
H1387 H 0.55982 0.50274 0.34964 0.0
H1388 H 0.54932 0.53613 0.33731 0.0
O1389 O 0.54081 0.55964 0.3962 0.0
C1390 C 0.58811 0.58372 0.39708 0.0
C1391 C 0.55082 0.55657 0.35466 0.0
C1392 C 0.55842 0.51813 0.3548 0.0
N1393 N 0.56064 0.53875 0.37503 0.0
C1394 C 0.55501 0.55721 0.3683 0.0
C1395 C 0.5625 0.51939 0.36844 0.0
C1396 C 0.55252 0.53687 0.34789 0.0
C1397 C 0.60495 0.5427 0.43467 0.0
N1398 N 0.59918 0.56295 0.43035 0.0
C1399 C 0.62607 0.53855 0.43911 0.0
C1400 C 0.64131 0.55532 0.43912 0.0
C1401 C 0.63529 0.57595 0.43472 0.0
C1402 C 0.61403 0.57948 0.43033 0.0
C1403 C 0.5703 0.61182 0.4557 0.0
C1404 C 0.55918 0.61242 0.42903 0.0
C1405 C 0.57247 0.59326 0.44781 0.0
N1406 N 0.56703 0.59377 0.43463 0.0
C1407 C 0.55679 0.63129 0.43662 0.0
C1408 C 0.56242 0.63095 0.45004 0.0
C1409 C 0.53145 0.57019 0.40551 0.0
C1410 C 0.54299 0.48058 0.4078 0.0
C1411 C 0.52772 0.51438 0.3922 0.0
C1412 C 0.51426 0.49659 0.39477 0.0
C1413 C 0.52198 0.4796 0.40264 0.0
N1414 N 0.54833 0.51519 0.39727 0.0
C1415 C 0.55601 0.49862 0.405 0.0
Co1416 Co 0.31881 0.31863 0.17301 0.0
Co1417 Co 0.2907 0.31727 0.14346 0.0
O1418 O 0.29234 0.32306 0.16257 0.0
C1419 C 0.28665 0.29319 0.18852 0.0
O1420 O 0.28094 0.28357 0.17739 0.0
C1421 C 0.27407 0.3625 0.14539 0.0
O1422 O 0.29103 0.3672 0.15279 0.0
O1423 O 0.31681 0.33567 0.14003 0.0
O1424 O 0.33737 0.32911 0.15803 0.0
H1425 H 0.32065 0.29773 0.09852 0.0
H1426 H 0.28274 0.34466 0.18432 0.0
O1427 O 0.30108 0.30804 0.18841 0.0
H1428 H 0.34568 0.3943 0.18285 0.0
H1429 H 0.36393 0.32133 0.21478 0.0
H1430 H 0.36235 0.29994 0.16752 0.0
H1431 H 0.34919 0.35632 0.17528 0.0
H1432 H 0.33103 0.32733 0.20123 0.0
O1433 O 0.27141 0.34324 0.14103 0.0
H1434 H 0.32247 0.30462 0.12266 0.0
H1435 H 0.25483 0.31851 0.12349 0.0
H1436 H 0.39565 0.2938 0.18067 0.0
H1437 H 0.27855 0.38249 0.1921 0.0
H1438 H 0.39657 0.30453 0.20448 0.0
H1439 H 0.31016 0.4076 0.19136 0.0
O1440 O 0.32165 0.28827 0.16635 0.0
H1441 H 0.2181 0.30013 0.16382 0.0
H1442 H 0.27713 0.27266 0.13519 0.0
H1443 H 0.24547 0.24925 0.13984 0.0
H1444 H 0.21565 0.26298 0.15423 0.0
H1445 H 0.25016 0.32293 0.15899 0.0
H1446 H 0.2523 0.31194 0.09934 0.0
H1447 H 0.28536 0.30138 0.0867 0.0
O1448 O 0.30977 0.29109 0.14531 0.0
C1449 C 0.33482 0.33662 0.1463 0.0
C1450 C 0.30611 0.30225 0.10392 0.0
C1451 C 0.26776 0.31026 0.10438 0.0
N1452 N 0.28875 0.31179 0.12449 0.0
C1453 C 0.30704 0.30612 0.1176 0.0
C1454 C 0.2693 0.314 0.11805 0.0
C1455 C 0.28631 0.30432 0.0973 0.0
C1456 C 0.29661 0.35545 0.18408 0.0
N1457 N 0.3162 0.34827 0.17941 0.0
C1458 C 0.29412 0.37686 0.18845 0.0
C1459 C 0.31186 0.39095 0.18801 0.0
C1460 C 0.33179 0.38351 0.18323 0.0
C1461 C 0.33366 0.362 0.17893 0.0
C1462 C 0.36374 0.31663 0.20441 0.0
C1463 C 0.36267 0.30478 0.17785 0.0
C1464 C 0.34515 0.31996 0.19669 0.0
N1465 N 0.34484 0.31417 0.18357 0.0
C1466 C 0.38155 0.3012 0.18526 0.0
C1467 C 0.38206 0.30721 0.19862 0.0
C1468 C 0.31924 0.28067 0.15463 0.0
C1469 C 0.23096 0.29399 0.1575 0.0
C1470 C 0.26426 0.27873 0.14149 0.0
C1471 C 0.24634 0.26542 0.14407 0.0
C1472 C 0.22961 0.27314 0.15213 0.0
N1473 N 0.26543 0.29918 0.14677 0.0
C1474 C 0.24911 0.30685 0.1547 0.0
Co1475 Co 0.43114 0.56812 0.92348 0.0
Co1476 Co 0.4345 0.54045 0.89369 0.0
O1477 O 0.42829 0.54172 0.91277 0.0
C1478 C 0.4588 0.53713 0.93854 0.0
O1479 O 0.46846 0.53208 0.92731 0.0
C1480 C 0.38952 0.52325 0.89533 0.0
O1481 O 0.38468 0.53992 0.90293 0.0
O1482 O 0.41594 0.56642 0.89011 0.0
O1483 O 0.41905 0.58623 0.90877 0.0
H1484 H 0.45492 0.57116 0.84909 0.0
H1485 H 0.40791 0.52986 0.93435 0.0
O1486 O 0.44322 0.55077 0.93862 0.0
H1487 H 0.35405 0.58927 0.93443 0.0
H1488 H 0.42638 0.61181 0.96574 0.0
H1489 H 0.44625 0.61308 0.91823 0.0
H1490 H 0.39153 0.59574 0.92667 0.0
H1491 H 0.42241 0.57891 0.95192 0.0
O1492 O 0.4088 0.52093 0.89092 0.0
H1493 H 0.44738 0.57261 0.87317 0.0
H1494 H 0.43417 0.50483 0.87355 0.0
H1495 H 0.45029 0.64641 0.93166 0.0
H1496 H 0.37065 0.52269 0.94232 0.0
H1497 H 0.44033 0.6459 0.9556 0.0
H1498 H 0.34341 0.55251 0.94235 0.0
O1499 O 0.4612 0.57329 0.91668 0.0
H1500 H 0.45196 0.46778 0.91387 0.0
H1501 H 0.4795 0.52756 0.88585 0.0
H1502 H 0.50317 0.49613 0.8906 0.0
H1503 H 0.48941 0.46594 0.90469 0.0
H1504 H 0.42889 0.49961 0.90896 0.0
H1505 H 0.4414 0.50267 0.84946 0.0
H1506 H 0.45194 0.53599 0.83707 0.0
O1507 O 0.4603 0.55978 0.89593 0.0
C1508 C 0.41291 0.58385 0.89674 0.0
C1509 C 0.45041 0.55651 0.85438 0.0
C1510 C 0.44279 0.51808 0.85459 0.0
N1511 N 0.44052 0.5388 0.87478 0.0
C1512 C 0.44618 0.55723 0.86802 0.0
C1513 C 0.43868 0.51941 0.86822 0.0
C1514 C 0.44872 0.53678 0.84765 0.0
C1515 C 0.39619 0.54296 0.93443 0.0
N1516 N 0.40189 0.5632 0.93006 0.0
C1517 C 0.3751 0.53878 0.93891 0.0
C1518 C 0.35982 0.55551 0.93891 0.0
C1519 C 0.36577 0.57613 0.93446 0.0
C1520 C 0.387 0.57969 0.93003 0.0
C1521 C 0.43074 0.61225 0.95532 0.0
C1522 C 0.44175 0.61277 0.92863 0.0
C1523 C 0.42858 0.59366 0.94745 0.0
N1524 N 0.43396 0.59412 0.93426 0.0
C1525 C 0.44413 0.63168 0.93619 0.0
C1526 C 0.43856 0.63137 0.94962 0.0
C1527 C 0.46961 0.57042 0.90521 0.0
C1528 C 0.45812 0.48081 0.90769 0.0
C1529 C 0.47341 0.51451 0.89202 0.0
C1530 C 0.48687 0.49674 0.89465 0.0
C1531 C 0.47914 0.4798 0.90255 0.0
N1532 N 0.45279 0.51536 0.89707 0.0
C1533 C 0.4451 0.49883 0.90484 0.0
Co1534 Co 0.18395 0.68175 0.67277 0.0
Co1535 Co 0.21389 0.68616 0.64371 0.0
O1536 O 0.21099 0.67912 0.66262 0.0
C1537 C 0.21413 0.70984 0.68817 0.0
O1538 O 0.22003 0.71897 0.67693 0.0
C1539 C 0.22883 0.64018 0.64499 0.0
O1540 O 0.21194 0.6358 0.65251 0.0
O1541 O 0.18709 0.66933 0.63911 0.0
O1542 O 0.16704 0.66893 0.65779 0.0
H1543 H 0.18728 0.71129 0.59904 0.0
H1544 H 0.2222 0.65951 0.68441 0.0
O1545 O 0.20023 0.6945 0.68817 0.0
H1546 H 0.1638 0.60456 0.68416 0.0
H1547 H 0.13807 0.6771 0.71416 0.0
H1548 H 0.13896 0.69563 0.66644 0.0
H1549 H 0.15692 0.64175 0.67601 0.0
H1550 H 0.1718 0.67353 0.70107 0.0
O1551 O 0.232 0.65947 0.6408 0.0
H1552 H 0.18395 0.70254 0.6229 0.0
H1553 H 0.25056 0.68442 0.6243 0.0
H1554 H 0.10483 0.69925 0.67914 0.0
H1555 H 0.22977 0.62257 0.69279 0.0
H1556 H 0.10425 0.68996 0.70318 0.0
H1557 H 0.20046 0.59478 0.69265 0.0
O1558 O 0.17843 0.71163 0.66566 0.0
H1559 H 0.28577 0.69788 0.66636 0.0
H1560 H 0.23077 0.73021 0.63667 0.0
H1561 H 0.26327 0.7515 0.64273 0.0
H1562 H 0.29108 0.73531 0.65766 0.0
H1563 H 0.25289 0.67727 0.66014 0.0
H1564 H 0.25457 0.69279 0.60043 0.0
H1565 H 0.22279 0.70641 0.58765 0.0
O1566 O 0.19619 0.71301 0.64614 0.0
C1567 C 0.16981 0.66455 0.64551 0.0
C1568 C 0.20126 0.70542 0.60451 0.0
C1569 C 0.23902 0.69501 0.60528 0.0
N1570 N 0.21707 0.6931 0.625 0.0
C1571 C 0.19949 0.7005 0.61803 0.0
C1572 C 0.23664 0.69023 0.61879 0.0
C1573 C 0.22118 0.70266 0.59812 0.0
C1574 C 0.20933 0.64754 0.6844 0.0
N1575 N 0.18914 0.65277 0.6797 0.0
C1576 C 0.21372 0.62664 0.68912 0.0
C1577 C 0.19728 0.61104 0.68903 0.0
C1578 C 0.17672 0.61651 0.68425 0.0
C1579 C 0.17293 0.63757 0.67959 0.0
C1580 C 0.13811 0.68117 0.70369 0.0
C1581 C 0.1388 0.69143 0.67688 0.0
C1582 C 0.15717 0.67924 0.69623 0.0
N1583 N 0.15731 0.68424 0.68298 0.0
C1584 C 0.11944 0.69357 0.68403 0.0
C1585 C 0.11914 0.68837 0.69752 0.0
C1586 C 0.18374 0.72135 0.65491 0.0
C1587 C 0.27377 0.70511 0.65984 0.0
C1588 C 0.2427 0.72313 0.64325 0.0
C1589 C 0.26113 0.73522 0.6466 0.0
C1590 C 0.27673 0.72612 0.65497 0.0
N1591 N 0.2399 0.70255 0.64807 0.0
C1592 C 0.25515 0.6935 0.65626 0.0
Co1593 Co 0.07108 0.43319 0.42302 0.0
Co1594 Co 0.06906 0.4621 0.39366 0.0
O1595 O 0.07493 0.45985 0.41273 0.0
C1596 C 0.0442 0.46448 0.43833 0.0
O1597 O 0.03477 0.4701 0.42713 0.0
C1598 C 0.11485 0.47728 0.39509 0.0
O1599 O 0.11972 0.459 0.40115 0.0
O1600 O 0.08689 0.4357 0.38977 0.0
O1601 O 0.08282 0.4153 0.40812 0.0
H1602 H 0.04855 0.43411 0.34841 0.0
H1603 H 0.09542 0.47032 0.43443 0.0
O1604 O 0.05935 0.45037 0.43833 0.0
H1605 H 0.14725 0.40913 0.43415 0.0
H1606 H 0.07379 0.38781 0.46468 0.0
H1607 H 0.05467 0.38892 0.41705 0.0
H1608 H 0.1097 0.40416 0.4261 0.0
H1609 H 0.07899 0.42108 0.45135 0.0
O1610 O 0.09534 0.48113 0.39154 0.0
H1611 H 0.05559 0.4313 0.3725 0.0
H1612 H 0.07099 0.49858 0.37416 0.0
H1613 H 0.04939 0.35525 0.42997 0.0
H1614 H 0.13278 0.47599 0.44268 0.0
H1615 H 0.05897 0.35456 0.45397 0.0
H1616 H 0.159 0.44526 0.44254 0.0
O1617 O 0.041 0.42923 0.41597 0.0
H1618 H 0.05318 0.53431 0.41494 0.0
H1619 H 0.02462 0.47658 0.38571 0.0
H1620 H 0.00171 0.50843 0.39081 0.0
H1621 H 0.01599 0.5376 0.4055 0.0
H1622 H 0.07547 0.50209 0.40968 0.0
H1623 H 0.06428 0.50208 0.35006 0.0
H1624 H 0.05289 0.4697 0.33703 0.0
O1625 O 0.04268 0.44337 0.39538 0.0
C1626 C 0.08925 0.41793 0.39617 0.0
C1627 C 0.05343 0.44835 0.35399 0.0
C1628 C 0.06228 0.48649 0.35491 0.0
N1629 N 0.0635 0.46479 0.37475 0.0
C1630 C 0.05737 0.44688 0.36764 0.0
C1631 C 0.0661 0.4844 0.36855 0.0
C1632 C 0.05589 0.46832 0.34761 0.0
C1633 C 0.1067 0.45684 0.43442 0.0
N1634 N 0.10038 0.43692 0.42981 0.0
C1635 C 0.12785 0.46016 0.43907 0.0
C1636 C 0.14256 0.44292 0.43897 0.0
C1637 C 0.13598 0.42265 0.43426 0.0
C1638 C 0.11472 0.41994 0.42967 0.0
C1639 C 0.06959 0.3879 0.45423 0.0
C1640 C 0.059 0.38871 0.42747 0.0
C1641 C 0.07245 0.4067 0.44664 0.0
N1642 N 0.06727 0.40689 0.43341 0.0
C1643 C 0.05592 0.36961 0.43474 0.0
C1644 C 0.06128 0.36925 0.44821 0.0
C1645 C 0.03289 0.43269 0.40447 0.0
C1646 C 0.0468 0.52174 0.40849 0.0
C1647 C 0.03093 0.48917 0.39215 0.0
C1648 C 0.0179 0.50719 0.39497 0.0
C1649 C 0.02592 0.52356 0.40321 0.0
N1650 N 0.05141 0.48753 0.39734 0.0
C1651 C 0.05937 0.5035 0.40544 0.0
Co1652 Co 0.31874 0.68137 0.32917 0.0
Co1653 Co 0.28947 0.68369 0.3584 0.0
O1654 O 0.29194 0.6777 0.33936 0.0
C1655 C 0.28776 0.70843 0.31374 0.0
O1656 O 0.28205 0.71781 0.32495 0.0
C1657 C 0.27423 0.6379 0.35706 0.0
O1658 O 0.29252 0.63295 0.35105 0.0
O1659 O 0.31578 0.66584 0.36246 0.0
O1660 O 0.33639 0.66955 0.34417 0.0
H1661 H 0.31696 0.70439 0.40374 0.0
H1662 H 0.2816 0.65726 0.31759 0.0
O1663 O 0.3018 0.69321 0.31378 0.0
H1664 H 0.34244 0.60503 0.31824 0.0
H1665 H 0.36457 0.67832 0.28771 0.0
H1666 H 0.36305 0.6975 0.33533 0.0
H1667 H 0.34755 0.64257 0.32628 0.0
H1668 H 0.33112 0.67335 0.3009 0.0
O1669 O 0.27038 0.65746 0.36052 0.0
H1670 H 0.32004 0.69721 0.37968 0.0
H1671 H 0.25274 0.68198 0.37773 0.0
H1672 H 0.3969 0.70255 0.32254 0.0
H1673 H 0.2758 0.61992 0.30934 0.0
H1674 H 0.39779 0.69293 0.29855 0.0
H1675 H 0.30635 0.5935 0.30967 0.0
O1676 O 0.32282 0.71145 0.33622 0.0
H1677 H 0.21752 0.69954 0.33677 0.0
H1678 H 0.27499 0.72822 0.36616 0.0
H1679 H 0.24323 0.75114 0.36087 0.0
H1680 H 0.2142 0.7368 0.34609 0.0
H1681 H 0.24965 0.67723 0.34223 0.0
H1682 H 0.24896 0.68885 0.4018 0.0
H1683 H 0.28121 0.70022 0.41495 0.0
O1684 O 0.30827 0.71001 0.3567 0.0
C1685 C 0.3336 0.66328 0.35614 0.0
C1686 C 0.30277 0.69952 0.3981 0.0
C1687 C 0.26462 0.69077 0.39702 0.0
N1688 N 0.28656 0.68938 0.37729 0.0
C1689 C 0.3044 0.6955 0.38447 0.0
C1690 C 0.26686 0.68687 0.3834 0.0
C1691 C 0.28271 0.69716 0.40439 0.0
C1692 C 0.29501 0.64589 0.31768 0.0
N1693 N 0.3149 0.6521 0.32238 0.0
C1694 C 0.29161 0.62476 0.31303 0.0
C1695 C 0.30875 0.60994 0.31323 0.0
C1696 C 0.329 0.61639 0.31805 0.0
C1697 C 0.33179 0.63765 0.32263 0.0
C1698 C 0.36439 0.68253 0.29816 0.0
C1699 C 0.36335 0.69316 0.32491 0.0
C1700 C 0.34548 0.67981 0.30567 0.0
N1701 N 0.34518 0.685 0.31889 0.0
C1702 C 0.38255 0.69611 0.31772 0.0
C1703 C 0.38303 0.69073 0.30425 0.0
C1704 C 0.3192 0.71966 0.34767 0.0
C1705 C 0.23004 0.70595 0.34325 0.0
C1706 C 0.26245 0.72188 0.35969 0.0
C1707 C 0.24449 0.73492 0.35675 0.0
C1708 C 0.2282 0.72686 0.34847 0.0
N1709 N 0.26411 0.70137 0.35456 0.0
C1710 C 0.24822 0.69336 0.34642 0.0
Co1711 Co 0.07109 0.56695 0.07974 0.0
Co1712 Co 0.06817 0.53962 0.10967 0.0
O1713 O 0.07409 0.54066 0.09054 0.0
C1714 C 0.04317 0.53598 0.06477 0.0
O1715 O 0.03333 0.53115 0.07599 0.0
C1716 C 0.11317 0.52251 0.10792 0.0
O1717 O 0.11786 0.5391 0.10021 0.0
O1718 O 0.08677 0.56562 0.11303 0.0
O1719 O 0.08331 0.58524 0.09433 0.0
H1720 H 0.04841 0.57088 0.15423 0.0
H1721 H 0.09425 0.52861 0.06893 0.0
O1722 O 0.0589 0.54944 0.0647 0.0
H1723 H 0.14803 0.58807 0.0684 0.0
H1724 H 0.07536 0.61023 0.0373 0.0
H1725 H 0.05595 0.61195 0.08487 0.0
H1726 H 0.11063 0.59459 0.07628 0.0
H1727 H 0.07952 0.57747 0.05122 0.0
O1728 O 0.09394 0.52015 0.11239 0.0
H1729 H 0.0556 0.57203 0.13011 0.0
H1730 H 0.06879 0.50424 0.12995 0.0
H1731 H 0.05173 0.64513 0.07134 0.0
H1732 H 0.13143 0.52139 0.06085 0.0
H1733 H 0.06146 0.64439 0.04736 0.0
H1734 H 0.15864 0.55124 0.06059 0.0
O1735 O 0.04109 0.57215 0.08666 0.0
H1736 H 0.05046 0.46669 0.08991 0.0
H1737 H 0.0233 0.52681 0.1178 0.0
H1738 H 0.99958 0.49531 0.11333 0.0
H1739 H 0.01315 0.46494 0.09932 0.0
H1740 H 0.07358 0.4986 0.09455 0.0
H1741 H 0.06192 0.50238 0.1541 0.0
H1742 H 0.05156 0.53585 0.16639 0.0
O1743 O 0.04233 0.55892 0.10748 0.0
C1744 C 0.08966 0.58299 0.10632 0.0
C1745 C 0.05283 0.55616 0.14898 0.0
C1746 C 0.06045 0.51773 0.14891 0.0
N1747 N 0.06242 0.5382 0.12861 0.0
C1748 C 0.05686 0.55671 0.13532 0.0
C1749 C 0.06436 0.51889 0.13524 0.0
C1750 C 0.05463 0.53651 0.1558 0.0
C1751 C 0.10595 0.54172 0.06875 0.0
N1752 N 0.10027 0.56201 0.07306 0.0
C1753 C 0.127 0.53752 0.0642 0.0
C1754 C 0.14226 0.55427 0.06408 0.0
C1755 C 0.13633 0.57493 0.06847 0.0
C1756 C 0.11515 0.57851 0.07297 0.0
C1757 C 0.0711 0.61076 0.04774 0.0
C1758 C 0.06034 0.61153 0.07447 0.0
C1759 C 0.07337 0.59225 0.05566 0.0
N1760 N 0.06811 0.59284 0.06887 0.0
C1761 C 0.05786 0.63036 0.06684 0.0
C1762 C 0.0633 0.62993 0.05339 0.0
C1763 C 0.03287 0.56944 0.0982 0.0
C1764 C 0.04438 0.4798 0.09606 0.0
C1765 C 0.0293 0.51369 0.11166 0.0
C1766 C 0.01581 0.49587 0.10919 0.0
C1767 C 0.02344 0.47884 0.10133 0.0
N1768 N 0.04984 0.51448 0.10649 0.0
C1769 C 0.05743 0.49786 0.09876 0.0
Co1770 Co 0.18403 0.32145 0.82985 0.0
Co1771 Co 0.21253 0.31727 0.85936 0.0
O1772 O 0.21078 0.32356 0.8403 0.0
C1773 C 0.21391 0.29265 0.81471 0.0
O1774 O 0.21903 0.2831 0.82597 0.0
C1775 C 0.22994 0.36212 0.85758 0.0
O1776 O 0.21314 0.36697 0.85009 0.0
O1777 O 0.18689 0.33606 0.86325 0.0
O1778 O 0.16672 0.33449 0.84464 0.0
H1779 H 0.18291 0.297 0.90426 0.0
H1780 H 0.22291 0.34316 0.81863 0.0
O1781 O 0.20061 0.30852 0.81463 0.0
H1782 H 0.16536 0.399 0.81841 0.0
H1783 H 0.13955 0.32696 0.78792 0.0
H1784 H 0.13869 0.30808 0.83559 0.0
H1785 H 0.1577 0.36188 0.82642 0.0
H1786 H 0.17289 0.33002 0.80143 0.0
O1787 O 0.23234 0.34282 0.86196 0.0
H1788 H 0.18084 0.30463 0.88021 0.0
H1789 H 0.24873 0.3172 0.87911 0.0
H1790 H 0.10493 0.30497 0.82248 0.0
H1791 H 0.23125 0.38002 0.8104 0.0
H1792 H 0.10523 0.31444 0.79846 0.0
H1793 H 0.20237 0.40826 0.8103 0.0
O1794 O 0.17798 0.29167 0.83687 0.0
H1795 H 0.28448 0.29924 0.83842 0.0
H1796 H 0.2252 0.27211 0.86698 0.0
H1797 H 0.25628 0.24818 0.86187 0.0
H1798 H 0.28622 0.26173 0.84752 0.0
H1799 H 0.253 0.32258 0.84369 0.0
H1800 H 0.25151 0.30988 0.90317 0.0
H1801 H 0.21845 0.29961 0.9159 0.0
O1802 O 0.19289 0.29169 0.85728 0.0
C1803 C 0.16955 0.34012 0.85673 0.0
C1804 C 0.19745 0.30138 0.89881 0.0
C1805 C 0.23594 0.30864 0.89821 0.0
N1806 N 0.21467 0.31116 0.87824 0.0
C1807 C 0.19639 0.30566 0.88519 0.0
C1808 C 0.23426 0.31281 0.88459 0.0
C1809 C 0.21739 0.30287 0.90534 0.0
C1810 C 0.21022 0.35532 0.81853 0.0
N1811 N 0.18984 0.35039 0.82302 0.0
C1812 C 0.21506 0.37618 0.81389 0.0
C1813 C 0.19885 0.39202 0.81386 0.0
C1814 C 0.17809 0.38685 0.81842 0.0
C1815 C 0.17386 0.36583 0.823 0.0
C1816 C 0.1392 0.32282 0.79838 0.0
C1817 C 0.13892 0.31236 0.82516 0.0
C1818 C 0.15804 0.32446 0.80607 0.0
N1819 N 0.1577 0.31936 0.81931 0.0
C1820 C 0.11976 0.31051 0.81778 0.0
C1821 C 0.11995 0.3158 0.8043 0.0
C1822 C 0.18139 0.28291 0.84819 0.0
C1823 C 0.27156 0.29318 0.84472 0.0
C1824 C 0.23814 0.27811 0.86069 0.0
C1825 C 0.25571 0.2645 0.85786 0.0
C1826 C 0.27252 0.27212 0.84981 0.0
N1827 N 0.23735 0.29877 0.85569 0.0
C1828 C 0.25374 0.30634 0.84778 0.0
Co1829 Co 0.43109 0.43346 0.5808 0.0
Co1830 Co 0.43428 0.46236 0.61022 0.0
O1831 O 0.42817 0.46026 0.59115 0.0
C1832 C 0.45922 0.46388 0.56559 0.0
O1833 O 0.46866 0.4693 0.57683 0.0
C1834 C 0.38902 0.47892 0.60834 0.0
O1835 O 0.38439 0.462 0.6009 0.0
O1836 O 0.41605 0.43632 0.61413 0.0
O1837 O 0.4184 0.41597 0.59563 0.0
H1838 H 0.45518 0.4336 0.65522 0.0
H1839 H 0.40841 0.47163 0.56941 0.0
O1840 O 0.44366 0.45022 0.56555 0.0
H1841 H 0.3542 0.41255 0.56915 0.0
H1842 H 0.42712 0.3884 0.53905 0.0
H1843 H 0.44563 0.38856 0.58677 0.0
H1844 H 0.39143 0.40599 0.57731 0.0
H1845 H 0.42307 0.42179 0.55241 0.0
O1846 O 0.40829 0.48162 0.6127 0.0
H1847 H 0.44769 0.43117 0.63116 0.0
H1848 H 0.43334 0.49869 0.62987 0.0
H1849 H 0.44975 0.35475 0.57381 0.0
H1850 H 0.37141 0.47889 0.56102 0.0
H1851 H 0.44047 0.35454 0.54977 0.0
H1852 H 0.34399 0.44924 0.5609 0.0
O1853 O 0.461 0.4283 0.58792 0.0
H1854 H 0.45077 0.53445 0.58899 0.0
H1855 H 0.47905 0.47623 0.61794 0.0
H1856 H 0.50229 0.50779 0.61276 0.0
H1857 H 0.48815 0.53721 0.5982 0.0
H1858 H 0.42814 0.5025 0.59435 0.0
H1859 H 0.4405 0.50183 0.65393 0.0
H1860 H 0.45158 0.46914 0.66676 0.0
O1861 O 0.46037 0.44339 0.60826 0.0
C1862 C 0.41251 0.41881 0.60768 0.0
C1863 C 0.45042 0.44798 0.64973 0.0
C1864 C 0.44215 0.48627 0.64901 0.0
N1865 N 0.44024 0.46479 0.6291 0.0
C1866 C 0.44622 0.44671 0.6361 0.0
C1867 C 0.43807 0.48438 0.6354 0.0
C1868 C 0.44838 0.46792 0.6562 0.0
C1869 C 0.3966 0.45861 0.5693 0.0
N1870 N 0.40206 0.43841 0.57387 0.0
C1871 C 0.37566 0.46284 0.56458 0.0
C1872 C 0.36028 0.4462 0.56453 0.0
C1873 C 0.36599 0.42562 0.56917 0.0
C1874 C 0.38707 0.42201 0.57384 0.0
C1875 C 0.43119 0.38828 0.54952 0.0
C1876 C 0.44144 0.38856 0.57633 0.0
C1877 C 0.42898 0.40715 0.55713 0.0
N1878 N 0.43398 0.40708 0.57038 0.0
C1879 C 0.44386 0.36938 0.56904 0.0
C1880 C 0.43867 0.36928 0.55554 0.0
C1881 C 0.4696 0.43211 0.59924 0.0
C1882 C 0.45709 0.52177 0.59538 0.0
C1883 C 0.4728 0.48893 0.61157 0.0
C1884 C 0.48602 0.50679 0.6087 0.0
C1885 C 0.47807 0.52329 0.60053 0.0
N1886 N 0.45222 0.48759 0.6065 0.0
C1887 C 0.44432 0.50369 0.59848 0.0
C1888 C 0.1044 0.38026 0.39696 0.0
C1889 C 0.09939 0.39893 0.38949 0.0
C1890 C 0.11261 0.3617 0.39082 0.0
C1891 C 0.13943 0.34086 0.36053 0.0
H1892 H 0.11911 0.28579 0.37469 0.0
C1893 C 0.16461 0.25416 0.34106 0.0
C1894 C 0.17251 0.24061 0.35127 0.0
C1895 C 0.15488 0.27419 0.34412 0.0
C1896 C 0.12488 0.30105 0.37061 0.0
H1897 H 0.09952 0.41273 0.36963 0.0
H1898 H 0.11369 0.37993 0.35882 0.0
H1899 H 0.10337 0.31957 0.3828 0.0
H1900 H 0.1764 0.23766 0.37268 0.0
H1901 H 0.15911 0.27209 0.37791 0.0
H1902 H 0.161 0.32192 0.34831 0.0
C1903 C 0.11141 0.37989 0.3695 0.0
C1904 C 0.11598 0.32042 0.3753 0.0
C1905 C 0.10326 0.39866 0.37569 0.0
C1906 C 0.17052 0.24758 0.36454 0.0
C1907 C 0.16053 0.2673 0.36757 0.0
C1908 C 0.14822 0.32133 0.35571 0.0
C1909 C 0.11584 0.36107 0.377 0.0
C1910 C 0.12361 0.34061 0.37066 0.0
C1911 C 0.15251 0.28074 0.35742 0.0
C1912 C 0.14142 0.30131 0.361 0.0
H1913 H 0.10179 0.37978 0.4076 0.0
H1914 H 0.11639 0.34775 0.39698 0.0
H1915 H 0.1457 0.35611 0.35676 0.0
H1916 H 0.16598 0.24932 0.33074 0.0
H1917 H 0.14879 0.28431 0.33613 0.0
C1918 C 0.9979 0.91181 0.59363 0.0
C1919 C 0.0076 0.92833 0.60128 0.0
C1920 C 0.97776 0.90301 0.59734 0.0
C1921 C 0.94315 0.89744 0.6273 0.0
H1922 H 0.89994 0.87606 0.60245 0.0
C1923 C 0.85013 0.86055 0.62866 0.0
C1924 C 0.85237 0.84734 0.64 0.0
C1925 C 0.86836 0.87073 0.62304 0.0
C1926 C 0.91175 0.88215 0.60952 0.0
H1927 H 0.00308 0.94927 0.61844 0.0
H1928 H 0.96792 0.93475 0.62451 0.0
H1929 H 0.93247 0.89443 0.59408 0.0
H1930 H 0.8757 0.83369 0.65391 0.0
H1931 H 0.90717 0.85077 0.64399 0.0
H1932 H 0.9224 0.88588 0.64273 0.0
C1933 C 0.9761 0.92797 0.61592 0.0
C1934 C 0.93053 0.89244 0.60471 0.0
C1935 C 0.99627 0.93648 0.61234 0.0
C1936 C 0.87325 0.84402 0.64532 0.0
C1937 C 0.89137 0.85395 0.63965 0.0
C1938 C 0.92442 0.88737 0.63207 0.0
C1939 C 0.96682 0.91073 0.6087 0.0
C1940 C 0.9465 0.90016 0.61357 0.0
C1941 C 0.88917 0.86776 0.6286 0.0
C1942 C 0.90858 0.87935 0.62327 0.0
H1943 H 0.0062 0.90512 0.58505 0.0
H1944 H 0.9712 0.88965 0.5916 0.0
H1945 H 0.95519 0.90278 0.63445 0.0
H1946 H 0.83427 0.8634 0.62431 0.0
H1947 H 0.86606 0.88135 0.61457 0.0
C1948 C 0.39953 0.60359 0.87629 0.0
C1949 C 0.40253 0.60282 0.89016 0.0
C1950 C 0.39136 0.62243 0.87019 0.0
C1951 C 0.38517 0.68153 0.87677 0.0
H1952 H 0.34287 0.68031 0.84816 0.0
C1953 C 0.33115 0.75425 0.86466 0.0
C1954 C 0.3302 0.7614 0.85139 0.0
C1955 C 0.34103 0.73456 0.8679 0.0
C1956 C 0.3549 0.68083 0.85603 0.0
H1957 H 0.3985 0.62109 0.90849 0.0
H1958 H 0.3838 0.65325 0.89802 0.0
H1959 H 0.35782 0.64607 0.85675 0.0
H1960 H 0.33852 0.75306 0.83104 0.0
H1961 H 0.35554 0.71813 0.83677 0.0
H1962 H 0.38165 0.71613 0.87641 0.0
C1963 C 0.38831 0.63966 0.89175 0.0
C1964 C 0.36348 0.66127 0.86094 0.0
C1965 C 0.39656 0.62103 0.89779 0.0
C1966 C 0.33906 0.74808 0.84137 0.0
C1967 C 0.3487 0.72808 0.84462 0.0
C1968 C 0.37647 0.70094 0.87197 0.0
C1969 C 0.386 0.64082 0.87786 0.0
C1970 C 0.37832 0.6614 0.8716 0.0
C1971 C 0.35 0.72133 0.85795 0.0
C1972 C 0.36092 0.70078 0.86176 0.0
H1973 H 0.40402 0.58989 0.8701 0.0
H1974 H 0.38983 0.62279 0.85947 0.0
H1975 H 0.39705 0.68232 0.8847 0.0
H1976 H 0.3245 0.76398 0.87266 0.0
H1977 H 0.3416 0.72962 0.87824 0.0
C1978 C 0.5062 0.08754 0.09095 0.0
C1979 C 0.49329 0.07768 0.10081 0.0
C1980 C 0.527 0.09545 0.09404 0.0
C1981 C 0.57019 0.09074 0.11988 0.0
H1982 H 0.58964 0.14666 0.10662 0.0
C1983 C 0.63381 0.1425 0.14669 0.0
C1984 C 0.65091 0.15153 0.13922 0.0
C1985 C 0.61649 0.13208 0.14041 0.0
C1986 C 0.58454 0.13087 0.11023 0.0
H1987 H 0.49214 0.06887 0.12174 0.0
H1988 H 0.52774 0.08295 0.12709 0.0
H1989 H 0.55541 0.13119 0.0985 0.0
H1990 H 0.66296 0.15689 0.1192 0.0
H1991 H 0.63217 0.13898 0.10818 0.0
H1992 H 0.59876 0.09091 0.13205 0.0
C1993 C 0.5222 0.08409 0.11689 0.0
C1994 C 0.56497 0.12198 0.10558 0.0
C1995 C 0.50159 0.07614 0.11381 0.0
C1996 C 0.65015 0.14997 0.12526 0.0
C1997 C 0.63251 0.13984 0.11894 0.0
C1998 C 0.58954 0.09971 0.12461 0.0
C1999 C 0.53529 0.09369 0.10705 0.0
C2000 C 0.55728 0.10205 0.11063 0.0
C2001 C 0.61559 0.13071 0.12649 0.0
C2002 C 0.59665 0.12008 0.12008 0.0
H2003 H 0.50033 0.08899 0.08083 0.0
H2004 H 0.53668 0.10267 0.0862 0.0
H2005 H 0.56511 0.07509 0.12372 0.0
H2006 H 0.63367 0.14351 0.15743 0.0
H2007 H 0.60351 0.12545 0.14646 0.0
C2008 C 0.16427 0.74752 0.16089 0.0
C2009 C 0.17252 0.76112 0.15082 0.0
C2010 C 0.15475 0.72746 0.15768 0.0
C2011 C 0.12635 0.7003 0.13052 0.0
H2012 H 0.14564 0.64557 0.14561 0.0
C2013 C 0.10589 0.62019 0.10502 0.0
C2014 C 0.10014 0.60203 0.11275 0.0
C2015 C 0.11426 0.63887 0.11095 0.0
C2016 C 0.13982 0.66073 0.14146 0.0
H2017 H 0.17729 0.76409 0.12948 0.0
H2018 H 0.16045 0.72958 0.12397 0.0
H2019 H 0.16064 0.67989 0.15403 0.0
H2020 H 0.09916 0.58924 0.13286 0.0
H2021 H 0.11356 0.62223 0.14328 0.0
H2022 H 0.10554 0.68155 0.118 0.0
C2023 C 0.16137 0.73438 0.13433 0.0
C2024 C 0.14842 0.68034 0.14627 0.0
C2025 C 0.17111 0.75415 0.13752 0.0
C2026 C 0.10348 0.6029 0.1266 0.0
C2027 C 0.11176 0.62179 0.13257 0.0
C2028 C 0.11763 0.68084 0.12582 0.0
C2029 C 0.15298 0.72089 0.14434 0.0
C2030 C 0.14215 0.70025 0.14058 0.0
C2031 C 0.11691 0.64013 0.12481 0.0
C2032 C 0.12469 0.66076 0.13094 0.0
H2033 H 0.16517 0.75235 0.17124 0.0
H2034 H 0.14837 0.71731 0.16557 0.0
H2035 H 0.12096 0.71546 0.12612 0.0
H2036 H 0.1037 0.62018 0.09434 0.0
H2037 H 0.11859 0.65244 0.1046 0.0
C2038 C 0.5057 0.91394 0.41175 0.0
C2039 C 0.49254 0.92331 0.40183 0.0
C2040 C 0.52661 0.90629 0.40867 0.0
C2041 C 0.56949 0.91114 0.38267 0.0
H2042 H 0.59011 0.85596 0.39642 0.0
C2043 C 0.63389 0.85988 0.35621 0.0
C2044 C 0.65115 0.85125 0.36372 0.0
C2045 C 0.61646 0.8702 0.36243 0.0
C2046 C 0.58468 0.87155 0.39267 0.0
H2047 H 0.49103 0.9315 0.38082 0.0
H2048 H 0.52683 0.91787 0.3755 0.0
H2049 H 0.55565 0.87098 0.40448 0.0
H2050 H 0.66338 0.84656 0.38377 0.0
H2051 H 0.63241 0.8643 0.39468 0.0
H2052 H 0.59797 0.91121 0.37043 0.0
C2053 C 0.5214 0.91692 0.38572 0.0
C2054 C 0.56498 0.88018 0.39729 0.0
C2055 C 0.50069 0.9246 0.38878 0.0
C2056 C 0.65045 0.85315 0.37767 0.0
C2057 C 0.63271 0.86319 0.38393 0.0
C2058 C 0.58897 0.90242 0.37798 0.0
C2059 C 0.53475 0.90784 0.39562 0.0
C2060 C 0.55686 0.89981 0.39206 0.0
C2061 C 0.6156 0.87188 0.37634 0.0
C2062 C 0.59652 0.88232 0.38269 0.0
H2063 H 0.49996 0.91269 0.42191 0.0
H2064 H 0.53649 0.89947 0.41655 0.0
H2065 H 0.56407 0.92659 0.37869 0.0
H2066 H 0.6337 0.8586 0.34548 0.0
H2067 H 0.60335 0.87649 0.35634 0.0
C2068 C 0.32602 0.25065 0.63885 0.0
C2069 C 0.32733 0.24234 0.65186 0.0
C2070 C 0.33385 0.27134 0.63587 0.0
C2071 C 0.37104 0.31445 0.64767 0.0
H2072 H 0.34084 0.34786 0.62066 0.0
C2073 C 0.39874 0.39999 0.62832 0.0
C2074 C 0.4011 0.4006 0.61439 0.0
C2075 C 0.38858 0.38225 0.63451 0.0
C2076 C 0.34939 0.33875 0.62826 0.0
H2077 H 0.33804 0.24947 0.67195 0.0
H2078 H 0.35146 0.28597 0.66674 0.0
H2079 H 0.32494 0.31413 0.62879 0.0
H2080 H 0.39454 0.3829 0.59613 0.0
H2081 H 0.3764 0.35257 0.60686 0.0
H2082 H 0.39553 0.33935 0.64701 0.0
C2083 C 0.34455 0.27623 0.65883 0.0
C2084 C 0.34038 0.31935 0.63287 0.0
C2085 C 0.33678 0.25534 0.66182 0.0
C2086 C 0.39288 0.38319 0.60684 0.0
C2087 C 0.38243 0.36576 0.61298 0.0
C2088 C 0.37995 0.33409 0.64315 0.0
C2089 C 0.34308 0.28451 0.6458 0.0
C2090 C 0.35141 0.30656 0.64232 0.0
C2091 C 0.38022 0.36506 0.62686 0.0
C2092 C 0.36948 0.34606 0.63312 0.0
H2093 H 0.31906 0.24113 0.63085 0.0
H2094 H 0.33293 0.27687 0.62565 0.0
H2095 H 0.38004 0.305 0.65491 0.0
H2096 H 0.40501 0.41304 0.63446 0.0
H2097 H 0.38707 0.38205 0.64524 0.0
C2098 C 0.99618 0.08758 0.91131 0.0
C2099 C 0.0093 0.07816 0.90139 0.0
C2100 C 0.97529 0.09527 0.90823 0.0
C2101 C 0.93236 0.09052 0.88223 0.0
H2102 H 0.91195 0.14581 0.89595 0.0
C2103 C 0.86806 0.1419 0.85575 0.0
C2104 C 0.85083 0.15057 0.86327 0.0
C2105 C 0.88549 0.13157 0.86197 0.0
C2106 C 0.91732 0.13019 0.89221 0.0
H2107 H 0.01074 0.06992 0.88038 0.0
H2108 H 0.97498 0.08361 0.87506 0.0
H2109 H 0.94635 0.13068 0.90402 0.0
H2110 H 0.83867 0.15536 0.88332 0.0
H2111 H 0.86964 0.1376 0.89423 0.0
H2112 H 0.90388 0.09053 0.86999 0.0
C2113 C 0.98043 0.08458 0.88529 0.0
C2114 C 0.93699 0.12149 0.89683 0.0
C2115 C 1.00112 0.07685 0.88835 0.0
C2116 C 0.85157 0.14872 0.87722 0.0
C2117 C 0.86931 0.13867 0.88348 0.0
C2118 C 0.91291 0.0993 0.87753 0.0
C2119 C 0.96712 0.09372 0.89518 0.0
C2120 C 0.94503 0.10182 0.89162 0.0
C2121 C 0.88638 0.12993 0.87588 0.0
C2122 C 0.90544 0.11945 0.88223 0.0
H2123 H 0.00195 0.08884 0.92146 0.0
H2124 H 0.96544 0.10215 0.91611 0.0
H2125 H 0.93772 0.07505 0.87827 0.0
H2126 H 0.86822 0.14315 0.84502 0.0
H2127 H 0.89857 0.12523 0.85588 0.0
C2128 C 0.90077 0.60329 0.62694 0.0
C2129 C 0.90422 0.60251 0.6131 0.0
C2130 C 0.89184 0.6219 0.63288 0.0
C2131 C 0.88381 0.68071 0.62605 0.0
H2132 H 0.84087 0.67819 0.65425 0.0
C2133 C 0.82872 0.7527 0.63819 0.0
C2134 C 0.82753 0.75946 0.65153 0.0
C2135 C 0.83858 0.73304 0.63483 0.0
C2136 C 0.85303 0.67908 0.64648 0.0
H2137 H 0.90024 0.62056 0.59468 0.0
H2138 H 0.88422 0.65229 0.60488 0.0
H2139 H 0.85709 0.64443 0.64583 0.0
H2140 H 0.83524 0.75039 0.67186 0.0
H2141 H 0.85223 0.71561 0.6659 0.0
H2142 H 0.87924 0.71518 0.62636 0.0
C2143 C 0.88896 0.63889 0.61125 0.0
C2144 C 0.86236 0.6598 0.64168 0.0
C2145 C 0.89798 0.6205 0.60536 0.0
C2146 C 0.83595 0.74571 0.66148 0.0
C2147 C 0.84559 0.7258 0.6581 0.0
C2148 C 0.87437 0.69983 0.63073 0.0
C2149 C 0.88612 0.64005 0.6251 0.0
C2150 C 0.87751 0.66038 0.63119 0.0
C2151 C 0.84729 0.71949 0.64471 0.0
C2152 C 0.8586 0.6992 0.6408 0.0
H2153 H 0.90545 0.58975 0.63321 0.0
H2154 H 0.88994 0.62228 0.64358 0.0
H2155 H 0.8959 0.68186 0.61825 0.0
H2156 H 0.82239 0.76275 0.63024 0.0
H2157 H 0.83944 0.72843 0.62444 0.0
C2158 C 0.13222 0.14577 0.35542 0.0
C2159 C 0.15022 0.15194 0.36317 0.0
C2160 C 0.11351 0.1375 0.36135 0.0
C2161 C 0.09131 0.11293 0.39205 0.0
H2162 H 0.03674 0.13129 0.37627 0.0
C2163 C 0.00442 0.08875 0.41137 0.0
C2164 C 0.99089 0.08031 0.40131 0.0
C2165 C 0.02449 0.09825 0.40814 0.0
C2166 C 0.05186 0.12604 0.38079 0.0
H2167 H 0.16273 0.15372 0.38333 0.0
H2168 H 0.12969 0.13947 0.39376 0.0
H2169 H 0.07074 0.14647 0.36812 0.0
H2170 H 0.98805 0.07517 0.37999 0.0
H2171 H 0.02257 0.09194 0.37446 0.0
H2172 H 0.07203 0.09246 0.40476 0.0
C2173 C 0.13027 0.14088 0.38303 0.0
C2174 C 0.07136 0.13462 0.37608 0.0
C2175 C 0.14919 0.14908 0.37705 0.0
C2176 C 0.99793 0.0815 0.38802 0.0
C2177 C 0.01771 0.09121 0.38481 0.0
C2178 C 0.07166 0.10445 0.39687 0.0
C2179 C 0.11207 0.13535 0.37524 0.0
C2180 C 0.09139 0.12773 0.38137 0.0
C2181 C 0.03114 0.09979 0.3948 0.0
C2182 C 0.05181 0.11054 0.39103 0.0
H2183 H 0.13237 0.14758 0.34471 0.0
H2184 H 0.10005 0.13287 0.355 0.0
H2185 H 0.10644 0.10726 0.39634 0.0
H2186 H 0.99953 0.08801 0.4217 0.0
H2187 H 0.03458 0.10477 0.41601 0.0
C2188 C 0.59977 0.39924 0.12803 0.0
C2189 C 0.59824 0.4005 0.11407 0.0
C2190 C 0.60774 0.38034 0.13417 0.0
C2191 C 0.61576 0.32168 0.12697 0.0
H2192 H 0.65593 0.3223 0.1567 0.0
C2193 C 0.6703 0.24939 0.13898 0.0
C2194 C 0.67057 0.24155 0.15213 0.0
C2195 C 0.66029 0.26908 0.13591 0.0
C2196 C 0.64448 0.32194 0.14851 0.0
H2197 H 0.60477 0.38306 0.0957 0.0
H2198 H 0.61903 0.35085 0.10628 0.0
H2199 H 0.64082 0.35667 0.14836 0.0
H2200 H 0.66094 0.24872 0.17242 0.0
H2201 H 0.64367 0.28365 0.16699 0.0
H2202 H 0.62001 0.28717 0.12675 0.0
C2203 C 0.61353 0.36408 0.11255 0.0
C2204 C 0.63582 0.34157 0.14375 0.0
C2205 C 0.6055 0.38275 0.10646 0.0
C2206 C 0.66093 0.25423 0.16219 0.0
C2207 C 0.65114 0.27423 0.15911 0.0
C2208 C 0.62453 0.30222 0.13162 0.0
C2209 C 0.61435 0.36238 0.12647 0.0
C2210 C 0.6218 0.34168 0.13267 0.0
C2211 C 0.6505 0.28165 0.1459 0.0
C2212 C 0.63936 0.30217 0.14223 0.0
H2213 H 0.59427 0.41258 0.1342 0.0
H2214 H 0.60816 0.37955 0.14493 0.0
H2215 H 0.60451 0.32107 0.11868 0.0
H2216 H 0.67757 0.24018 0.13095 0.0
H2217 H 0.66025 0.27455 0.12567 0.0
C2218 C 0.50174 0.92429 0.88787 0.0
C2219 C 0.51015 0.92285 0.90085 0.0
C2220 C 0.48102 0.91652 0.88491 0.0
C2221 C 0.43774 0.87952 0.89662 0.0
H2222 H 0.40417 0.9109 0.87018 0.0
C2223 C 0.35173 0.85303 0.87748 0.0
C2224 C 0.35085 0.85117 0.86353 0.0
C2225 C 0.36962 0.86292 0.88367 0.0
C2226 C 0.41332 0.90202 0.87761 0.0
H2227 H 0.50324 0.91185 0.9209 0.0
H2228 H 0.46667 0.89848 0.91574 0.0
H2229 H 0.43823 0.92618 0.87826 0.0
H2230 H 0.36815 0.85842 0.84522 0.0
H2231 H 0.39874 0.87608 0.85597 0.0
H2232 H 0.41258 0.85531 0.89583 0.0
C2233 C 0.47635 0.90548 0.90783 0.0
C2234 C 0.43291 0.91067 0.88219 0.0
C2235 C 0.49728 0.9132 0.9108 0.0
C2236 C 0.36809 0.85968 0.85595 0.0
C2237 C 0.38567 0.86986 0.86211 0.0
C2238 C 0.41793 0.87095 0.89212 0.0
C2239 C 0.46792 0.90722 0.89485 0.0
C2240 C 0.44574 0.89922 0.89143 0.0
C2241 C 0.38669 0.8715 0.87601 0.0
C2242 C 0.40589 0.88185 0.88229 0.0
H2243 H 0.51118 0.93139 0.87988 0.0
H2244 H 0.47538 0.91761 0.87473 0.0
H2245 H 0.44722 0.87021 0.90369 0.0
H2246 H 0.33882 0.84651 0.88362 0.0
H2247 H 0.37006 0.864 0.89442 0.0
C2248 C 0.90083 0.39831 0.87546 0.0
C2249 C 0.90414 0.39905 0.88931 0.0
C2250 C 0.89267 0.37944 0.8694 0.0
C2251 C 0.88676 0.32026 0.87595 0.0
H2252 H 0.84381 0.32157 0.84771 0.0
C2253 C 0.83227 0.24768 0.86422 0.0
C2254 C 0.83109 0.24054 0.85095 0.0
C2255 C 0.84228 0.26733 0.8674 0.0
C2256 C 0.85602 0.32102 0.85547 0.0
H2257 H 0.9007 0.38064 0.90763 0.0
H2258 H 0.88599 0.34844 0.89723 0.0
H2259 H 0.85895 0.35578 0.8562 0.0
H2260 H 0.83912 0.24885 0.83056 0.0
H2261 H 0.85635 0.28372 0.8362 0.0
H2262 H 0.88319 0.28566 0.87561 0.0
C2263 C 0.89026 0.36208 0.89095 0.0
C2264 C 0.86471 0.34056 0.86033 0.0
C2265 C 0.89852 0.38074 0.89695 0.0
C2266 C 0.83985 0.25383 0.84088 0.0
C2267 C 0.84961 0.27379 0.84408 0.0
C2268 C 0.87793 0.30087 0.87122 0.0
C2269 C 0.8876 0.36098 0.87708 0.0
C2270 C 0.8798 0.34041 0.87086 0.0
C2271 C 0.85113 0.28053 0.8574 0.0
C2272 C 0.86215 0.30106 0.86114 0.0
H2273 H 0.90505 0.41208 0.86926 0.0
H2274 H 0.89087 0.37913 0.85869 0.0
H2275 H 0.89882 0.31945 0.88378 0.0
H2276 H 0.82571 0.23796 0.87226 0.0
H2277 H 0.84303 0.27227 0.87774 0.0
C2278 C 0.35364 0.15025 0.62585 0.0
C2279 C 0.35307 0.1538 0.63968 0.0
C2280 C 0.37248 0.14213 0.61975 0.0
C2281 C 0.43178 0.13685 0.62597 0.0
H2282 H 0.43035 0.09302 0.59825 0.0
C2283 C 0.50467 0.08274 0.61449 0.0
C2284 C 0.51159 0.0811 0.60119 0.0
C2285 C 0.48498 0.09265 0.61765 0.0
C2286 C 0.43093 0.10548 0.60586 0.0
H2287 H 0.37176 0.15086 0.65794 0.0
H2288 H 0.40396 0.13626 0.64746 0.0
H2289 H 0.39617 0.10816 0.60678 0.0
H2290 H 0.5028 0.08819 0.58074 0.0
H2291 H 0.46784 0.10526 0.58635 0.0
H2292 H 0.4664 0.13357 0.62545 0.0
C2293 C 0.39018 0.14029 0.64122 0.0
C2294 C 0.4114 0.11416 0.61074 0.0
C2295 C 0.37153 0.14849 0.64727 0.0
C2296 C 0.498 0.08927 0.59108 0.0
C2297 C 0.478 0.09895 0.59427 0.0
C2298 C 0.45117 0.12805 0.62122 0.0
C2299 C 0.39109 0.13736 0.62737 0.0
C2300 C 0.41161 0.12957 0.6211 0.0
C2301 C 0.47149 0.10096 0.60761 0.0
C2302 C 0.45093 0.11195 0.61133 0.0
H2303 H 0.33974 0.15423 0.6197 0.0
H2304 H 0.37266 0.14012 0.60905 0.0
H2305 H 0.43262 0.14915 0.63367 0.0
H2306 H 0.51461 0.07663 0.62256 0.0
H2307 H 0.48022 0.09377 0.628 0.0
C2308 C 0.66993 0.75416 0.36492 0.0
C2309 C 0.67088 0.76122 0.35163 0.0
C2310 C 0.65999 0.73452 0.3682 0.0
C2311 C 0.64605 0.68075 0.3564 0.0
H2312 H 0.60404 0.68229 0.38515 0.0
C2313 C 0.60149 0.60353 0.37667 0.0
C2314 C 0.59844 0.60273 0.39054 0.0
C2315 C 0.60964 0.62238 0.37059 0.0
C2316 C 0.61589 0.68149 0.3772 0.0
H2317 H 0.6625 0.7528 0.33131 0.0
H2318 H 0.6454 0.71795 0.33712 0.0
H2319 H 0.61944 0.71609 0.37683 0.0
H2320 H 0.6024 0.62098 0.40888 0.0
H2321 H 0.6171 0.65317 0.39844 0.0
H2322 H 0.6431 0.646 0.35714 0.0
C2323 C 0.65226 0.72793 0.34494 0.0
C2324 C 0.62459 0.70089 0.37238 0.0
C2325 C 0.66195 0.74788 0.34164 0.0
C2326 C 0.60436 0.62094 0.39818 0.0
C2327 C 0.61262 0.63959 0.39215 0.0
C2328 C 0.63748 0.6612 0.36133 0.0
C2329 C 0.65098 0.72125 0.35828 0.0
C2330 C 0.64007 0.70071 0.36214 0.0
C2331 C 0.61497 0.64077 0.37827 0.0
C2332 C 0.62268 0.66135 0.37202 0.0
H2333 H 0.67662 0.76392 0.3729 0.0
H2334 H 0.65944 0.72963 0.37855 0.0
H2335 H 0.65803 0.68021 0.34851 0.0
H2336 H 0.59703 0.58983 0.37047 0.0
H2337 H 0.6112 0.62275 0.35986 0.0
C2338 C 0.1488 0.85323 0.12552 0.0
C2339 C 0.14967 0.84986 0.13936 0.0
C2340 C 0.12991 0.86153 0.11955 0.0
C2341 C 0.07084 0.86744 0.1263 0.0
H2342 H 0.07184 0.91049 0.09812 0.0
C2343 C 0.9976 0.92108 0.11464 0.0
C2344 C 0.99064 0.92255 0.10134 0.0
C2345 C 0.01734 0.91127 0.11782 0.0
C2346 C 0.07137 0.89826 0.10587 0.0
H2347 H 0.13151 0.85338 0.15777 0.0
H2348 H 0.09926 0.8683 0.14752 0.0
H2349 H 0.10615 0.89544 0.10653 0.0
H2350 H 0.9994 0.91524 0.08091 0.0
H2351 H 0.0344 0.89833 0.08657 0.0
H2352 H 0.03622 0.87082 0.126 0.0
C2353 C 0.11282 0.86398 0.14117 0.0
C2354 C 0.09098 0.88962 0.11067 0.0
C2355 C 0.1315 0.85559 0.14709 0.0
C2356 C 0.00422 0.91429 0.09126 0.0
C2357 C 0.02426 0.90471 0.09447 0.0
C2358 C 0.05139 0.87619 0.12161 0.0
C2359 C 0.11156 0.86667 0.12731 0.0
C2360 C 0.09093 0.87448 0.12118 0.0
C2361 C 0.03083 0.90288 0.10781 0.0
C2362 C 0.05146 0.89201 0.11155 0.0
H2363 H 0.16246 0.84893 0.11925 0.0
H2364 H 0.12947 0.86335 0.10884 0.0
H2365 H 0.07012 0.85534 0.13411 0.0
H2366 H 0.98767 0.92726 0.12269 0.0
H2367 H 0.02214 0.9103 0.12818 0.0
C2368 C 0.67559 0.75065 0.86457 0.0
C2369 C 0.67426 0.74211 0.85162 0.0
C2370 C 0.66775 0.77138 0.86742 0.0
C2371 C 0.63051 0.81425 0.85541 0.0
H2372 H 0.66107 0.84823 0.88201 0.0
C2373 C 0.60285 0.90001 0.87446 0.0
C2374 C 0.60062 0.90068 0.8884 0.0
C2375 C 0.61303 0.88226 0.86828 0.0
C2376 C 0.65243 0.83896 0.87452 0.0
H2377 H 0.66346 0.74885 0.83149 0.0
H2378 H 0.64999 0.78541 0.83647 0.0
H2379 H 0.67688 0.81433 0.87406 0.0
H2380 H 0.60743 0.88313 0.90668 0.0
H2381 H 0.6256 0.85283 0.89597 0.0
H2382 H 0.606 0.83913 0.85602 0.0
C2383 C 0.65694 0.77583 0.84444 0.0
C2384 C 0.66138 0.81947 0.87001 0.0
C2385 C 0.66473 0.7549 0.84158 0.0
C2386 C 0.60899 0.88336 0.89597 0.0
C2387 C 0.61946 0.86595 0.88984 0.0
C2388 C 0.62165 0.83397 0.85983 0.0
C2389 C 0.65849 0.78436 0.8574 0.0
C2390 C 0.65022 0.80648 0.86073 0.0
C2391 C 0.62153 0.86516 0.87595 0.0
C2392 C 0.63225 0.84615 0.86971 0.0
H2393 H 0.68262 0.74128 0.87262 0.0
H2394 H 0.66871 0.77711 0.87759 0.0
H2395 H 0.62142 0.80464 0.8483 0.0
H2396 H 0.59644 0.91298 0.86832 0.0
H2397 H 0.61442 0.88198 0.85755 0.0
C2398 C 0.50136 0.40838 0.09387 0.0
C2399 C 0.50974 0.42638 0.10083 0.0
C2400 C 0.48124 0.39934 0.09747 0.0
C2401 C 0.44466 0.39664 0.12664 0.0
H2402 H 0.40348 0.37106 0.10198 0.0
C2403 C 0.35224 0.35844 0.12788 0.0
C2404 C 0.35405 0.34657 0.1398 0.0
C2405 C 0.37063 0.36817 0.12215 0.0
C2406 C 0.41473 0.37832 0.10898 0.0
H2407 H 0.50288 0.44965 0.11651 0.0
H2408 H 0.4679 0.43456 0.12237 0.0
H2409 H 0.43622 0.38896 0.09346 0.0
H2410 H 0.37687 0.33493 0.15469 0.0
H2411 H 0.4086 0.35128 0.14464 0.0
H2412 H 0.42318 0.38667 0.14212 0.0
C2413 C 0.47705 0.42688 0.11446 0.0
C2414 C 0.43361 0.38835 0.1041 0.0
C2415 C 0.49714 0.43568 0.11101 0.0
C2416 C 0.37471 0.34419 0.14563 0.0
C2417 C 0.39298 0.3537 0.13988 0.0
C2418 C 0.42586 0.38679 0.13147 0.0
C2419 C 0.46907 0.40825 0.10801 0.0
C2420 C 0.44881 0.39763 0.1129 0.0
C2421 C 0.39119 0.36612 0.1282 0.0
C2422 C 0.41073 0.37731 0.12275 0.0
H2423 H 0.51066 0.4008 0.08598 0.0
H2424 H 0.47565 0.38492 0.09232 0.0
H2425 H 0.45611 0.40325 0.13375 0.0
H2426 H 0.33659 0.36053 0.12311 0.0
H2427 H 0.36866 0.37772 0.11319 0.0
C2428 C 0.89877 0.10361 0.37596 0.0
C2429 C 0.90206 0.10278 0.38981 0.0
C2430 C 0.89048 0.12247 0.36995 0.0
C2431 C 0.8846 0.18156 0.37663 0.0
H2432 H 0.84171 0.18055 0.34835 0.0
C2433 C 0.83128 0.25492 0.36475 0.0
C2434 C 0.82979 0.26178 0.35144 0.0
C2435 C 0.84104 0.23518 0.36798 0.0
C2436 C 0.8539 0.18102 0.35612 0.0
H2437 H 0.89839 0.12098 0.4082 0.0
H2438 H 0.88351 0.1532 0.39787 0.0
H2439 H 0.85665 0.14624 0.35683 0.0
H2440 H 0.83701 0.25285 0.33103 0.0
H2441 H 0.85385 0.21785 0.33676 0.0
H2442 H 0.88132 0.21618 0.37627 0.0
C2443 C 0.88788 0.13962 0.39155 0.0
C2444 C 0.86247 0.16141 0.36097 0.0
C2445 C 0.89624 0.12096 0.39751 0.0
C2446 C 0.83798 0.2481 0.34138 0.0
C2447 C 0.84752 0.22806 0.34464 0.0
C2448 C 0.87593 0.20101 0.37189 0.0
C2449 C 0.88529 0.14084 0.37769 0.0
C2450 C 0.87754 0.16146 0.37151 0.0
C2451 C 0.84936 0.22159 0.358 0.0
C2452 C 0.86017 0.20094 0.36179 0.0
H2453 H 0.90313 0.08994 0.36972 0.0
H2454 H 0.88874 0.12288 0.35924 0.0
H2455 H 0.89665 0.18227 0.38447 0.0
H2456 H 0.82515 0.26493 0.37278 0.0
H2457 H 0.84201 0.23046 0.37835 0.0
C2458 C 0.135 0.64352 0.6459 0.0
C2459 C 0.15178 0.65327 0.6385 0.0
C2460 C 0.11772 0.63317 0.63956 0.0
C2461 C 0.08489 0.63291 0.60977 0.0
H2462 H 0.06686 0.57622 0.62256 0.0
C2463 C 0.00628 0.58924 0.59109 0.0
C2464 C 0.99392 0.57888 0.60103 0.0
C2465 C 0.02712 0.59731 0.59395 0.0
C2466 C 0.07156 0.59211 0.61892 0.0
H2467 H 0.16325 0.66001 0.61851 0.0
H2468 H 0.13246 0.64218 0.60737 0.0
H2469 H 0.10065 0.59213 0.6306 0.0
H2470 H 0.99379 0.56931 0.62184 0.0
H2471 H 0.02949 0.5836 0.62678 0.0
H2472 H 0.05523 0.63333 0.59854 0.0
C2473 C 0.13306 0.64243 0.61814 0.0
C2474 C 0.09099 0.60115 0.62347 0.0
C2475 C 0.15069 0.65252 0.62452 0.0
C2476 C 0.00281 0.57698 0.61387 0.0
C2477 C 0.02347 0.58506 0.6167 0.0
C2478 C 0.06524 0.62394 0.60528 0.0
C2479 C 0.11649 0.63255 0.62564 0.0
C2480 C 0.09759 0.62186 0.61922 0.0
C2481 C 0.03601 0.59518 0.60679 0.0
C2482 C 0.05805 0.60368 0.61011 0.0
H2483 H 0.1351 0.64386 0.65666 0.0
H2484 H 0.10502 0.62596 0.64559 0.0
H2485 H 0.08957 0.64896 0.60638 0.0
H2486 H 0.99995 0.591 0.5811 0.0
H2487 H 0.03636 0.60494 0.58606 0.0
C2488 C 0.60308 0.10452 0.62692 0.0
C2489 C 0.60001 0.10367 0.61305 0.0
C2490 C 0.61117 0.12343 0.63297 0.0
C2491 C 0.61701 0.18254 0.62629 0.0
H2492 H 0.6594 0.18166 0.65485 0.0
C2493 C 0.67053 0.25569 0.63831 0.0
C2494 C 0.67171 0.26274 0.6516 0.0
C2495 C 0.66069 0.23599 0.63508 0.0
C2496 C 0.64734 0.18209 0.647 0.0
H2497 H 0.6039 0.12186 0.59468 0.0
H2498 H 0.61846 0.15415 0.60508 0.0
H2499 H 0.64464 0.14731 0.64632 0.0
H2500 H 0.66381 0.2542 0.67197 0.0
H2501 H 0.64684 0.21924 0.66625 0.0
H2502 H 0.6203 0.21716 0.62661 0.0
C2503 C 0.61405 0.14057 0.61138 0.0
C2504 C 0.63888 0.16246 0.64212 0.0
C2505 C 0.60587 0.12186 0.60538 0.0
C2506 C 0.66308 0.2493 0.66164 0.0
C2507 C 0.65347 0.22929 0.65839 0.0
C2508 C 0.6256 0.20201 0.63106 0.0
C2509 C 0.61641 0.14181 0.62526 0.0
C2510 C 0.624 0.16246 0.63147 0.0
C2511 C 0.65197 0.22262 0.64505 0.0
C2512 C 0.64118 0.20198 0.64126 0.0
H2513 H 0.59867 0.09084 0.63314 0.0
H2514 H 0.61274 0.12386 0.64369 0.0
H2515 H 0.6051 0.18322 0.61837 0.0
H2516 H 0.677 0.26552 0.63029 0.0
H2517 H 0.65998 0.23111 0.62473 0.0
C2518 C 0.15068 0.35357 0.87743 0.0
C2519 C 0.15147 0.35169 0.86348 0.0
C2520 C 0.13295 0.36367 0.88366 0.0
C2521 C 0.08946 0.40312 0.87763 0.0
H2522 H 0.05581 0.3718 0.90403 0.0
C2523 C 1.0012 0.42571 0.88827 0.0
C2524 C 0.99293 0.42433 0.90128 0.0
C2525 C 0.02192 0.41799 0.88525 0.0
C2526 C 0.06523 0.38097 0.89687 0.0
H2527 H 0.13416 0.35913 0.8452 0.0
H2528 H 0.10382 0.37713 0.856 0.0
H2529 H 0.09023 0.35661 0.89604 0.0
H2530 H 1.00015 0.41356 0.92135 0.0
H2531 H 0.0367 0.40029 0.91608 0.0
H2532 H 0.06468 0.42743 0.87832 0.0
C2533 C 0.11686 0.37078 0.86212 0.0
C2534 C 0.08491 0.37225 0.89229 0.0
C2535 C 0.13429 0.36039 0.85593 0.0
C2536 C 0.00599 0.41487 0.91122 0.0
C2537 C 0.0269 0.4072 0.90819 0.0
C2538 C 0.06999 0.41194 0.88229 0.0
C2539 C 0.11593 0.37244 0.87603 0.0
C2540 C 0.09686 0.38297 0.88234 0.0
C2541 C 0.03515 0.4088 0.89516 0.0
C2542 C 0.05725 0.40066 0.89165 0.0
H2543 H 0.16356 0.34691 0.88355 0.0
H2544 H 0.13259 0.36476 0.89441 0.0
H2545 H 0.09854 0.41188 0.87011 0.0
H2546 H 0.99163 0.43268 0.88029 0.0
H2547 H 0.02743 0.419 0.87504 0.0
C2548 C 0.89879 0.89945 0.12694 0.0
C2549 C 0.90195 0.90023 0.11308 0.0
C2550 C 0.89054 0.88061 0.13299 0.0
C2551 C 0.88445 0.82152 0.12638 0.0
H2552 H 0.84198 0.82267 0.15488 0.0
C2553 C 0.83101 0.74839 0.13852 0.0
C2554 C 0.82999 0.74137 0.15182 0.0
C2555 C 0.84068 0.76817 0.13525 0.0
C2556 C 0.85405 0.82217 0.14704 0.0
H2557 H 0.8981 0.88198 0.09473 0.0
H2558 H 0.88327 0.84982 0.10513 0.0
H2559 H 0.85689 0.85693 0.14631 0.0
H2560 H 0.83791 0.75006 0.17217 0.0
H2561 H 0.85457 0.78513 0.16638 0.0
H2562 H 0.88105 0.7869 0.12675 0.0
C2563 C 0.88771 0.86341 0.11142 0.0
C2564 C 0.86261 0.84174 0.14214 0.0
C2565 C 0.89605 0.88204 0.10542 0.0
C2566 C 0.83851 0.75494 0.16183 0.0
C2567 C 0.84795 0.77501 0.15854 0.0
C2568 C 0.87578 0.80209 0.13116 0.0
C2569 C 0.88526 0.86223 0.1253 0.0
C2570 C 0.87753 0.84164 0.13152 0.0
C2571 C 0.84936 0.78162 0.14519 0.0
C2572 C 0.86017 0.80222 0.14134 0.0
H2573 H 0.90322 0.91314 0.13315 0.0
H2574 H 0.8889 0.88024 0.14371 0.0
H2575 H 0.8964 0.82075 0.11848 0.0
H2576 H 0.82461 0.73848 0.13052 0.0
H2577 H 0.84132 0.77299 0.12489 0.0
C2578 C 0.50323 0.58196 0.38915 0.0
C2579 C 0.51005 0.58017 0.40246 0.0
C2580 C 0.48357 0.59193 0.38598 0.0
C2581 C 0.42943 0.6046 0.39748 0.0
H2582 H 0.43171 0.64896 0.3701 0.0
C2583 C 0.35253 0.64946 0.37678 0.0
C2584 C 0.35246 0.65313 0.36296 0.0
C2585 C 0.37118 0.64133 0.38312 0.0
C2586 C 0.43071 0.63648 0.37768 0.0
H2587 H 0.50113 0.58704 0.42292 0.0
H2588 H 0.46622 0.60422 0.41727 0.0
H2589 H 0.46533 0.63329 0.37852 0.0
H2590 H 0.37184 0.65038 0.34496 0.0
H2591 H 0.40368 0.63582 0.35584 0.0
H2592 H 0.39467 0.60718 0.39621 0.0
C2593 C 0.47643 0.59798 0.40937 0.0
C2594 C 0.44999 0.62763 0.38255 0.0
C2595 C 0.4964 0.58824 0.41257 0.0
C2596 C 0.37121 0.64793 0.35562 0.0
C2597 C 0.38966 0.63974 0.3619 0.0
C2598 C 0.41 0.61334 0.39248 0.0
C2599 C 0.47003 0.60015 0.39601 0.0
C2600 C 0.44955 0.61126 0.39226 0.0
C2601 C 0.39009 0.63671 0.37575 0.0
C2602 C 0.41044 0.62898 0.38225 0.0
H2603 H 0.51322 0.57593 0.38109 0.0
H2604 H 0.4789 0.59319 0.37561 0.0
H2605 H 0.42869 0.59194 0.40495 0.0
H2606 H 0.33839 0.65334 0.38275 0.0
H2607 H 0.37098 0.63922 0.39381 0.0
C2608 C 0.40025 0.10238 0.12638 0.0
C2609 C 0.40389 0.10182 0.11257 0.0
C2610 C 0.39151 0.12102 0.13241 0.0
C2611 C 0.38447 0.18005 0.12595 0.0
H2612 H 0.34099 0.17765 0.15385 0.0
C2613 C 0.32983 0.25235 0.13802 0.0
C2614 C 0.32857 0.25908 0.15137 0.0
C2615 C 0.33957 0.23265 0.13466 0.0
C2616 C 0.35332 0.1785 0.14617 0.0
H2617 H 0.40046 0.12026 0.09425 0.0
H2618 H 0.38476 0.15203 0.10458 0.0
H2619 H 0.3569 0.14382 0.14532 0.0
H2620 H 0.336 0.24987 0.17171 0.0
H2621 H 0.35278 0.21498 0.16576 0.0
H2622 H 0.38035 0.21458 0.12644 0.0
C2623 C 0.3892 0.13845 0.11088 0.0
C2624 C 0.36245 0.15918 0.1413 0.0
C2625 C 0.39804 0.12003 0.10491 0.0
C2626 C 0.33678 0.24523 0.16133 0.0
C2627 C 0.3463 0.22525 0.15795 0.0
C2628 C 0.37521 0.19922 0.13069 0.0
C2629 C 0.38618 0.13939 0.12472 0.0
C2630 C 0.37779 0.15973 0.13091 0.0
C2631 C 0.34807 0.21899 0.14456 0.0
C2632 C 0.35924 0.19863 0.14065 0.0
H2633 H 0.40463 0.08867 0.13259 0.0
H2634 H 0.38945 0.12123 0.1431 0.0
H2635 H 0.3967 0.18117 0.11823 0.0
H2636 H 0.32365 0.26248 0.13006 0.0
H2637 H 0.34049 0.22807 0.12427 0.0
C2638 C 0.50443 0.5889 0.91227 0.0
C2639 C 0.49106 0.58031 0.90218 0.0
C2640 C 0.52445 0.59853 0.90909 0.0
C2641 C 0.55159 0.62675 0.88191 0.0
H2642 H 0.60645 0.60805 0.89713 0.0
C2643 C 0.63151 0.64706 0.85624 0.0
C2644 C 0.64967 0.65308 0.86389 0.0
C2645 C 0.61289 0.63875 0.86225 0.0
C2646 C 0.59124 0.61371 0.89294 0.0
H2647 H 0.48847 0.57501 0.88086 0.0
H2648 H 0.5229 0.59206 0.87543 0.0
H2649 H 0.57221 0.59291 0.9056 0.0
H2650 H 0.66252 0.65461 0.88398 0.0
H2651 H 0.62962 0.64031 0.89456 0.0
H2652 H 0.57022 0.64751 0.86929 0.0
C2653 C 0.51795 0.59132 0.88576 0.0
C2654 C 0.57169 0.60503 0.89779 0.0
C2655 C 0.49823 0.58146 0.88892 0.0
C2656 C 0.64886 0.65008 0.87777 0.0
C2657 C 0.63002 0.64185 0.88383 0.0
C2658 C 0.57099 0.63554 0.87718 0.0
C2659 C 0.5312 0.60007 0.89578 0.0
C2660 C 0.55175 0.61107 0.89204 0.0
C2661 C 0.61169 0.63643 0.87614 0.0
C2662 C 0.59112 0.62868 0.88235 0.0
H2663 H 0.49943 0.5882 0.92259 0.0
H2664 H 0.53442 0.6052 0.91699 0.0
H2665 H 0.5364 0.63195 0.87747 0.0
H2666 H 0.63148 0.64898 0.84553 0.0
H2667 H 0.59933 0.6342 0.85596 0.0
C2668 C 0.18412 0.75614 0.64205 0.0
C2669 C 0.17494 0.74339 0.6522 0.0
C2670 C 0.17525 0.77626 0.63871 0.0
C2671 C 0.13677 0.81955 0.64945 0.0
H2672 H 0.13483 0.83069 0.61152 0.0
C2673 C 0.10654 0.90131 0.62602 0.0
C2674 C 0.09473 0.89955 0.61409 0.0
C2675 C 0.11624 0.88287 0.63175 0.0
C2676 C 0.13504 0.82783 0.62214 0.0
H2677 H 0.14944 0.74225 0.66709 0.0
H2678 H 0.13344 0.77729 0.66095 0.0
H2679 H 0.15154 0.79765 0.61961 0.0
H2680 H 0.08297 0.87674 0.59922 0.0
H2681 H 0.09923 0.84498 0.60925 0.0
H2682 H 0.11943 0.84963 0.65181 0.0
C2683 C 0.14783 0.77179 0.65574 0.0
C2684 C 0.14496 0.80895 0.62682 0.0
C2685 C 0.15694 0.75165 0.65921 0.0
C2686 C 0.09223 0.87889 0.60829 0.0
C2687 C 0.10168 0.86058 0.61403 0.0
C2688 C 0.12668 0.83852 0.64473 0.0
C2689 C 0.15666 0.78414 0.64525 0.0
C2690 C 0.14602 0.80452 0.64053 0.0
C2691 C 0.1142 0.86233 0.62567 0.0
C2692 C 0.12555 0.84277 0.63099 0.0
H2693 H 0.19809 0.75051 0.63649 0.0
H2694 H 0.18287 0.78553 0.63082 0.0
H2695 H 0.13745 0.81674 0.66007 0.0
H2696 H 0.10873 0.91697 0.63077 0.0
H2697 H 0.12584 0.8848 0.6407 0.0
C2698 C 0.00423 0.42294 0.38786 0.0
C2699 C 0.01127 0.4234 0.40117 0.0
C2700 C 0.98441 0.41346 0.38446 0.0
C2701 C 0.93044 0.39939 0.39619 0.0
H2702 H 0.93187 0.3579 0.36716 0.0
C2703 C 0.85336 0.35397 0.37647 0.0
C2704 C 0.85229 0.3508 0.36262 0.0
C2705 C 0.87223 0.36246 0.38236 0.0
C2706 C 0.93109 0.36963 0.37518 0.0
H2707 H 0.00254 0.41472 0.4214 0.0
H2708 H 0.96744 0.39842 0.41537 0.0
H2709 H 0.96566 0.37349 0.37535 0.0
H2710 H 0.87004 0.3549 0.34411 0.0
H2711 H 0.90221 0.37023 0.35422 0.0
H2712 H 0.89571 0.39608 0.39569 0.0
C2713 C 0.97756 0.40532 0.40763 0.0
C2714 C 0.95048 0.37844 0.37991 0.0
C2715 C 0.99766 0.41456 0.41105 0.0
C2716 C 0.87021 0.35695 0.3548 0.0
C2717 C 0.88886 0.36557 0.36064 0.0
C2718 C 0.91089 0.39071 0.39133 0.0
C2719 C 0.97094 0.40442 0.39427 0.0
C2720 C 0.95035 0.3937 0.39029 0.0
C2721 C 0.89035 0.36804 0.37451 0.0
C2722 C 0.91097 0.37607 0.38056 0.0
H2723 H 0.01418 0.4296 0.37996 0.0
H2724 H 0.97958 0.41321 0.37409 0.0
H2725 H 0.92993 0.41118 0.40419 0.0
H2726 H 0.83989 0.34934 0.3828 0.0
H2727 H 0.87283 0.36408 0.39308 0.0
C2728 C 0.33776 0.75469 0.34114 0.0
C2729 C 0.32866 0.74119 0.35099 0.0
C2730 C 0.34725 0.77466 0.3446 0.0
C2731 C 0.37457 0.80112 0.3723 0.0
H2732 H 0.35735 0.85637 0.35697 0.0
C2733 C 0.39709 0.88069 0.39789 0.0
C2734 C 0.40314 0.8988 0.3902 0.0
C2735 C 0.38835 0.8622 0.39194 0.0
C2736 C 0.36261 0.84105 0.3612 0.0
H2737 H 0.32222 0.73836 0.37218 0.0
H2738 H 0.33906 0.77271 0.37812 0.0
H2739 H 0.34176 0.82247 0.34832 0.0
H2740 H 0.40439 0.91165 0.37012 0.0
H2741 H 0.38947 0.87896 0.35963 0.0
H2742 H 0.39551 0.81926 0.38507 0.0
C2743 C 0.33881 0.7679 0.36775 0.0
C2744 C 0.35365 0.82169 0.35625 0.0
C2745 C 0.32908 0.74822 0.36431 0.0
C2746 C 0.39984 0.89803 0.37635 0.0
C2747 C 0.39123 0.87931 0.37035 0.0
C2748 C 0.38368 0.82033 0.37711 0.0
C2749 C 0.34813 0.78124 0.35797 0.0
C2750 C 0.35918 0.80162 0.362 0.0
C2751 C 0.38568 0.86104 0.37807 0.0
C2752 C 0.3774 0.84061 0.37189 0.0
H2753 H 0.33764 0.74981 0.33079 0.0
H2754 H 0.35437 0.78469 0.33689 0.0
H2755 H 0.37939 0.78581 0.37675 0.0
H2756 H 0.39925 0.88062 0.40857 0.0
H2757 H 0.38372 0.84873 0.39827 0.0
C2758 C 0.00463 0.58087 0.11464 0.0
C2759 C 0.01149 0.5794 0.10132 0.0
C2760 C 0.98498 0.59079 0.11789 0.0
C2761 C 0.93093 0.60409 0.10622 0.0
H2762 H 0.93292 0.64729 0.13429 0.0
C2763 C 0.85401 0.64936 0.12632 0.0
C2764 C 0.85343 0.65285 0.14015 0.0
C2765 C 0.87278 0.64104 0.12023 0.0
C2766 C 0.932 0.63511 0.12653 0.0
H2767 H 0.00262 0.5868 0.08092 0.0
H2768 H 0.96775 0.6039 0.08669 0.0
H2769 H 0.96659 0.63159 0.12599 0.0
H2770 H 0.87199 0.64957 0.15843 0.0
H2771 H 0.90406 0.63463 0.14797 0.0
H2772 H 0.89619 0.60703 0.10713 0.0
C2773 C 0.97791 0.59744 0.09455 0.0
C2774 C 0.95132 0.62624 0.12173 0.0
C2775 C 0.99787 0.58775 0.09128 0.0
C2776 C 0.87178 0.64726 0.14776 0.0
C2777 C 0.89036 0.63886 0.14172 0.0
C2778 C 0.91147 0.61284 0.11114 0.0
C2779 C 0.97147 0.59929 0.10792 0.0
C2780 C 0.95098 0.61032 0.11174 0.0
C2781 C 0.8913 0.63601 0.12786 0.0
C2782 C 0.91178 0.62809 0.12159 0.0
H2783 H 0.01459 0.57462 0.12266 0.0
H2784 H 0.98028 0.59178 0.12826 0.0
H2785 H 0.93027 0.59177 0.09853 0.0
H2786 H 0.84019 0.65355 0.12015 0.0
H2787 H 0.87298 0.63911 0.10953 0.0
C2788 C 0.16247 0.24831 0.84118 0.0
C2789 C 0.17121 0.26162 0.85125 0.0
C2790 C 0.15274 0.22834 0.84438 0.0
C2791 C 0.12447 0.20123 0.87152 0.0
H2792 H 0.14348 0.14634 0.85649 0.0
C2793 C 0.10385 0.12135 0.89722 0.0
C2794 C 0.09822 0.10306 0.88957 0.0
C2795 C 0.11215 0.14 0.89122 0.0
C2796 C 0.13771 0.16155 0.86062 0.0
H2797 H 0.17659 0.26422 0.87256 0.0
H2798 H 0.15932 0.22989 0.87804 0.0
H2799 H 0.1586 0.18057 0.84801 0.0
H2800 H 0.09732 0.09003 0.86952 0.0
H2801 H 0.11156 0.12298 0.85896 0.0
H2802 H 0.10359 0.18263 0.88408 0.0
C2803 C 0.16007 0.23483 0.8677 0.0
C2804 C 0.14639 0.1811 0.85577 0.0
C2805 C 0.17004 0.25448 0.86453 0.0
C2806 C 0.10156 0.1038 0.87572 0.0
C2807 C 0.10976 0.12266 0.86967 0.0
C2808 C 0.11566 0.18183 0.87625 0.0
C2809 C 0.15123 0.2216 0.8577 0.0
C2810 C 0.14024 0.20105 0.86145 0.0
C2811 C 0.11483 0.14111 0.87736 0.0
C2812 C 0.12262 0.16169 0.87116 0.0
H2813 H 0.1632 0.25329 0.83086 0.0
H2814 H 0.14602 0.21839 0.8365 0.0
H2815 H 0.1192 0.21644 0.87591 0.0
H2816 H 0.10166 0.12145 0.9079 0.0
H2817 H 0.11643 0.15364 0.89752 0.0
C2818 C 0.49986 0.42489 0.61526 0.0
C2819 C 0.49157 0.42335 0.60226 0.0
C2820 C 0.5206 0.41723 0.61829 0.0
C2821 C 0.56422 0.38045 0.60671 0.0
H2822 H 0.59744 0.41199 0.63325 0.0
C2823 C 0.65038 0.35445 0.62574 0.0
C2824 C 0.6514 0.35263 0.63969 0.0
C2825 C 0.6324 0.36426 0.6196 0.0
C2826 C 0.58838 0.40306 0.62579 0.0
H2827 H 0.49873 0.41232 0.58224 0.0
H2828 H 0.53531 0.39917 0.58753 0.0
H2829 H 0.56328 0.42702 0.62515 0.0
H2830 H 0.63427 0.3599 0.65805 0.0
H2831 H 0.6035 0.37742 0.64739 0.0
H2832 H 0.58959 0.35646 0.60748 0.0
C2833 C 0.52553 0.40614 0.5954 0.0
C2834 C 0.56873 0.41157 0.6212 0.0
C2835 C 0.50458 0.41374 0.59236 0.0
C2836 C 0.63422 0.36113 0.64731 0.0
C2837 C 0.61654 0.37123 0.64121 0.0
C2838 C 0.58409 0.37203 0.61122 0.0
C2839 C 0.53384 0.40796 0.60841 0.0
C2840 C 0.55604 0.40007 0.61191 0.0
C2841 C 0.61536 0.3728 0.62731 0.0
C2842 C 0.59602 0.38299 0.62108 0.0
H2843 H 0.49031 0.43197 0.62321 0.0
H2844 H 0.52614 0.41839 0.62849 0.0
H2845 H 0.55485 0.3711 0.59961 0.0
H2846 H 0.66325 0.34794 0.61955 0.0
H2847 H 0.63185 0.36529 0.60885 0.0
C2848 C 0.26408 0.26751 0.20223 0.0
C2849 C 0.27778 0.28576 0.20145 0.0
C2850 C 0.25714 0.25966 0.2146 0.0
C2851 C 0.27208 0.26053 0.25029 0.0
H2852 H 0.21362 0.23851 0.25537 0.0
C2853 C 0.238 0.23583 0.302 0.0
C2854 C 0.22491 0.21711 0.30248 0.0
C2855 C 0.2448 0.24435 0.28977 0.0
C2856 C 0.23008 0.24439 0.25408 0.0
H2857 H 0.29434 0.31049 0.21309 0.0
H2858 H 0.28201 0.29701 0.23453 0.0
H2859 H 0.22411 0.25338 0.23383 0.0
H2860 H 0.20928 0.1923 0.29043 0.0
H2861 H 0.22127 0.207 0.26924 0.0
H2862 H 0.27802 0.25154 0.27055 0.0
C2863 C 0.27696 0.28848 0.22563 0.0
C2864 C 0.2361 0.25291 0.24172 0.0
C2865 C 0.28391 0.29629 0.2133 0.0
C2866 C 0.21922 0.20683 0.29047 0.0
C2867 C 0.22597 0.21535 0.27828 0.0
C2868 C 0.26605 0.25203 0.26266 0.0
C2869 C 0.26372 0.2699 0.22646 0.0
C2870 C 0.25719 0.26105 0.23966 0.0
C2871 C 0.23861 0.23435 0.27775 0.0
C2872 C 0.245 0.24377 0.26468 0.0
H2873 H 0.25909 0.25899 0.19331 0.0
H2874 H 0.24709 0.24521 0.21487 0.0
H2875 H 0.28857 0.26633 0.24899 0.0
H2876 H 0.24266 0.24416 0.31106 0.0
H2877 H 0.25443 0.2591 0.28971 0.0
C2878 C 0.04625 0.96916 0.53983 0.0
C2879 C 0.03605 0.97569 0.55171 0.0
C2880 C 0.03829 0.97601 0.5275 0.0
C2881 C 0.98825 0.99579 0.51138 0.0
H2882 H 0.02718 0.01205 0.48271 0.0
C2883 C 0.95731 0.03411 0.46256 0.0
C2884 C 0.96747 0.02821 0.45056 0.0
C2885 C 0.96562 0.02711 0.47476 0.0
C2886 C 0.01609 0.00726 0.49055 0.0
H2887 H 0.0098 0.99503 0.55991 0.0
H2888 H 0.99598 0.00713 0.53836 0.0
H2889 H 0.04211 0.00208 0.50435 0.0
H2890 H 0.99413 0.00987 0.44199 0.0
H2891 H 0.00852 0.99738 0.46333 0.0
H2892 H 0.96223 1.00087 0.49759 0.0
C2893 C 0.00999 0.99646 0.53861 0.0
C2894 C 0.02465 0.00162 0.50297 0.0
C2895 C 0.018 0.98966 0.55096 0.0
C2896 C 0.98593 0.01475 0.45104 0.0
C2897 C 0.99427 0.00773 0.46328 0.0
C2898 C 0.97969 0.00139 0.49895 0.0
C2899 C 0.01991 0.98953 0.52672 0.0
C2900 C 0.01083 0.99587 0.51355 0.0
C2901 C 0.9843 0.01397 0.4753 0.0
C2902 C 0.99349 0.00727 0.48839 0.0
H2903 H 0.06019 0.95841 0.54001 0.0
H2904 H 0.0462 0.9702 0.51856 0.0
H2905 H 0.97716 0.99105 0.51923 0.0
H2906 H 0.94307 0.04448 0.4626 0.0
H2907 H 0.95767 0.03248 0.48379 0.0
C2908 C 0.21635 0.70782 0.71302 0.0
C2909 C 0.22268 0.71789 0.70106 0.0
C2910 C 0.22342 0.71586 0.72527 0.0
C2911 C 0.26536 0.75056 0.74096 0.0
H2912 H 0.22415 0.75284 0.77013 0.0
C2913 C 0.28482 0.79511 0.78997 0.0
C2914 C 0.2788 0.78491 0.80194 0.0
C2915 C 0.27766 0.78703 0.77775 0.0
C2916 C 0.23593 0.7521 0.76214 0.0
H2917 H 0.24173 0.74418 0.69266 0.0
H2918 H 0.25397 0.75835 0.71409 0.0
H2919 H 0.21269 0.7386 0.74861 0.0
H2920 H 0.26014 0.75839 0.81042 0.0
H2921 H 0.2477 0.74419 0.78902 0.0
H2922 H 0.28858 0.76409 0.75449 0.0
C2923 C 0.24366 0.74408 0.71395 0.0
C2924 C 0.22937 0.74392 0.74979 0.0
C2925 C 0.23657 0.73601 0.70166 0.0
C2926 C 0.26507 0.76665 0.8014 0.0
C2927 C 0.25787 0.75856 0.78913 0.0
C2928 C 0.27191 0.75875 0.75331 0.0
C2929 C 0.23701 0.7342 0.72592 0.0
C2930 C 0.24401 0.74304 0.73904 0.0
C2931 C 0.26427 0.76854 0.77715 0.0
C2932 C 0.25727 0.75964 0.76405 0.0
H2933 H 0.20577 0.69374 0.71295 0.0
H2934 H 0.21831 0.7076 0.73425 0.0
H2935 H 0.27716 0.7498 0.73298 0.0
H2936 H 0.29526 0.80929 0.78999 0.0
H2937 H 0.28257 0.79536 0.76875 0.0
C2938 C 0.45765 0.03297 0.03953 0.0
C2939 C 0.46826 0.02729 0.05143 0.0
C2940 C 0.46561 0.02591 0.02726 0.0
C2941 C 0.50133 0.98505 0.01145 0.0
H2942 H 0.50195 0.02627 0.98224 0.0
C2943 C 0.54533 0.96662 0.96212 0.0
C2944 C 0.53476 0.97242 0.95023 0.0
C2945 C 0.53734 0.9736 0.9744 0.0
C2946 C 0.50167 0.01448 0.99024 0.0
H2947 H 0.49536 0.00929 0.05974 0.0
H2948 H 0.50936 0.99701 0.03827 0.0
H2949 H 0.48774 0.03734 0.00384 0.0
H2950 H 0.50768 0.99051 0.94194 0.0
H2951 H 0.49363 0.00261 0.96344 0.0
H2952 H 0.51525 0.96219 0.99785 0.0
C2953 C 0.49476 0.00684 0.03846 0.0
C2954 C 0.49352 0.02082 0.00264 0.0
C2955 C 0.48678 0.01394 0.05078 0.0
C2956 C 0.51623 0.98576 0.9509 0.0
C2957 C 0.50823 0.99277 0.96323 0.0
C2958 C 0.50947 0.97871 0.99906 0.0
C2959 C 0.4844 0.01297 0.02655 0.0
C2960 C 0.49322 0.00618 0.01339 0.0
C2961 C 0.51857 0.98657 0.97513 0.0
C2962 C 0.50976 0.99335 0.9883 0.0
H2963 H 0.44324 0.04311 0.03964 0.0
H2964 H 0.45698 0.03058 0.01832 0.0
H2965 H 0.50105 0.97327 0.01946 0.0
H2966 H 0.55973 0.95649 0.962 0.0
H2967 H 0.54596 0.96887 0.98334 0.0
C2968 C 0.28525 0.70603 0.28892 0.0
C2969 C 0.27911 0.71632 0.30084 0.0
C2970 C 0.27831 0.71409 0.27665 0.0
C2971 C 0.23716 0.74964 0.26084 0.0
H2972 H 0.27868 0.75124 0.23181 0.0
C2973 C 0.21909 0.79513 0.212 0.0
C2974 C 0.22481 0.78483 0.2 0.0
C2975 C 0.22609 0.78681 0.22419 0.0
C2976 C 0.26682 0.75069 0.23976 0.0
H2977 H 0.26046 0.74296 0.30917 0.0
H2978 H 0.24845 0.75716 0.28771 0.0
H2979 H 0.28962 0.73655 0.25332 0.0
H2980 H 0.24283 0.75795 0.19144 0.0
H2981 H 0.25502 0.74335 0.2128 0.0
H2982 H 0.21439 0.76383 0.24728 0.0
C2983 C 0.25851 0.74271 0.28788 0.0
C2984 C 0.27307 0.74226 0.2521 0.0
C2985 C 0.26546 0.73462 0.30019 0.0
C2986 C 0.23815 0.76629 0.20049 0.0
C2987 C 0.24519 0.75797 0.21273 0.0
C2988 C 0.23092 0.75809 0.2485 0.0
C2989 C 0.26504 0.73266 0.27595 0.0
C2990 C 0.25832 0.74163 0.2628 0.0
C2991 C 0.23901 0.76799 0.22474 0.0
C2992 C 0.24568 0.75877 0.23781 0.0
H2993 H 0.29564 0.6918 0.28903 0.0
H2994 H 0.28331 0.70569 0.26768 0.0
H2995 H 0.22528 0.74909 0.26878 0.0
H2996 H 0.20895 0.80953 0.21202 0.0
H2997 H 0.22137 0.79518 0.23322 0.0
C2998 C 0.45729 0.96808 0.4631 0.0
C2999 C 0.46781 0.97365 0.45115 0.0
C3000 C 0.46543 0.97514 0.47533 0.0
C3001 C 0.50172 0.01579 0.49093 0.0
H3002 H 0.50217 0.97479 0.52025 0.0
C3003 C 0.54636 0.03419 0.54007 0.0
C3004 C 0.53577 0.02868 0.55201 0.0
C3005 C 0.53825 0.02712 0.52784 0.0
C3006 C 0.50195 0.98652 0.51222 0.0
H3007 H 0.49493 0.99145 0.44271 0.0
H3008 H 0.50925 0.00371 0.46411 0.0
H3009 H 0.4876 0.96372 0.49874 0.0
H3010 H 0.50856 0.01098 0.56042 0.0
H3011 H 0.4943 0.9987 0.53901 0.0
H3012 H 0.51608 0.03858 0.50441 0.0
C3013 C 0.49458 0.99398 0.46399 0.0
C3014 C 0.49359 0.98018 0.49987 0.0
C3015 C 0.48641 0.98689 0.45172 0.0
C3016 C 0.51713 0.0155 0.55142 0.0
C3017 C 0.509 0.0084 0.53915 0.0
C3018 C 0.51009 0.02212 0.50327 0.0
C3019 C 0.48431 0.98797 0.47595 0.0
C3020 C 0.49334 0.99475 0.48907 0.0
C3021 C 0.51933 0.01434 0.52719 0.0
C3022 C 0.51033 0.00756 0.51407 0.0
H3023 H 0.44283 0.95802 0.46305 0.0
H3024 H 0.45686 0.97056 0.48431 0.0
H3025 H 0.5015 0.02752 0.4829 0.0
H3026 H 0.56085 0.0442 0.54012 0.0
H3027 H 0.54686 0.03166 0.51886 0.0
C3028 C 0.21667 0.29469 0.78989 0.0
C3029 C 0.22245 0.28437 0.80187 0.0
C3030 C 0.22358 0.28638 0.77767 0.0
C3031 C 0.26433 0.25023 0.7621 0.0
H3032 H 0.22311 0.24918 0.73289 0.0
C3033 C 0.28305 0.2058 0.71292 0.0
C3034 C 0.27725 0.21628 0.701 0.0
C3035 C 0.27593 0.2138 0.72518 0.0
C3036 C 0.2349 0.24957 0.74089 0.0
H3037 H 0.24043 0.2574 0.81037 0.0
H3038 H 0.25243 0.2428 0.78898 0.0
H3039 H 0.21206 0.26378 0.7544 0.0
H3040 H 0.259 0.24316 0.69263 0.0
H3041 H 0.24667 0.25724 0.71406 0.0
H3042 H 0.28718 0.23607 0.74858 0.0
C3043 C 0.24264 0.25744 0.78908 0.0
C3044 C 0.22857 0.25794 0.75323 0.0
C3045 C 0.2357 0.26576 0.80134 0.0
C3046 C 0.26374 0.23468 0.70161 0.0
C3047 C 0.25661 0.2427 0.71391 0.0
C3048 C 0.27066 0.24187 0.74975 0.0
C3049 C 0.23647 0.26754 0.77708 0.0
C3050 C 0.24321 0.25842 0.76399 0.0
C3051 C 0.26283 0.23249 0.72585 0.0
C3052 C 0.25602 0.24142 0.73899 0.0
H3053 H 0.2066 0.30914 0.7899 0.0
H3054 H 0.21887 0.29481 0.76866 0.0
H3055 H 0.27612 0.25064 0.7701 0.0
H3056 H 0.29332 0.1915 0.71284 0.0
H3057 H 0.2807 0.20528 0.73414 0.0
C3058 C 0.04526 0.03356 0.96266 0.0
C3059 C 0.03455 0.02802 0.95077 0.0
C3060 C 0.03721 0.02664 0.97494 0.0
C3061 C 1.00065 0.98648 0.99079 0.0
H3062 H 1.00086 0.02775 0.01998 0.0
C3063 C 0.95604 0.96906 0.04005 0.0
C3064 C 0.96675 0.97452 0.05196 0.0
C3065 C 0.96419 0.97593 0.02778 0.0
C3066 C 1.0009 0.01595 0.01198 0.0
H3067 H 0.00717 0.0104 0.94249 0.0
H3068 H 0.993 0.99841 0.96397 0.0
H3069 H 0.0154 0.03846 0.99839 0.0
H3070 H 0.99421 0.99195 0.06028 0.0
H3071 H 0.00853 0.0039 0.03882 0.0
H3072 H 0.98612 0.96398 0.00438 0.0
C3073 C 0.00776 0.008 0.96377 0.0
C3074 C 0.00924 0.02208 0.9996 0.0
C3075 C 0.01584 0.01493 0.95145 0.0
C3076 C 0.98555 0.98748 0.05131 0.0
C3077 C 0.99371 0.99438 0.039 0.0
C3078 C 0.9923 0.98036 0.00318 0.0
C3079 C 0.01821 0.014 0.97568 0.0
C3080 C 0.00924 0.00742 0.98884 0.0
C3081 C 0.98326 0.98847 0.02708 0.0
C3082 C 0.99229 0.99502 0.01393 0.0
H3083 H 0.05981 0.04349 0.96254 0.0
H3084 H 0.04591 0.03121 0.98388 0.0
H3085 H 1.00068 0.97468 0.9828 0.0
H3086 H 0.94143 0.95922 0.04015 0.0
H3087 H 0.95548 0.97143 0.01883 0.0
C3088 C 0.76301 0.76768 0.70246 0.0
C3089 C 0.77681 0.78585 0.7017 0.0
C3090 C 0.75612 0.75978 0.71483 0.0
C3091 C 0.77138 0.76026 0.75046 0.0
H3092 H 0.71273 0.73884 0.75572 0.0
C3093 C 0.73764 0.73573 0.80227 0.0
C3094 C 0.72428 0.7172 0.80278 0.0
C3095 C 0.74439 0.7442 0.79001 0.0
C3096 C 0.72925 0.74454 0.75438 0.0
H3097 H 0.79361 0.81039 0.71334 0.0
H3098 H 0.78138 0.79683 0.73479 0.0
H3099 H 0.72318 0.7537 0.73417 0.0
H3100 H 0.70813 0.69266 0.79078 0.0
H3101 H 0.72006 0.70726 0.76955 0.0
H3102 H 0.77743 0.75108 0.77068 0.0
C3103 C 0.77621 0.78839 0.72588 0.0
C3104 C 0.73523 0.75307 0.74201 0.0
C3105 C 0.7831 0.79626 0.71355 0.0
C3106 C 0.71828 0.70705 0.79078 0.0
C3107 C 0.72499 0.71551 0.77857 0.0
C3108 C 0.76539 0.75175 0.76283 0.0
C3109 C 0.76286 0.76989 0.72669 0.0
C3110 C 0.75638 0.76099 0.73989 0.0
C3111 C 0.73791 0.73434 0.77801 0.0
C3112 C 0.74427 0.74371 0.76493 0.0
H3113 H 0.75789 0.75925 0.69353 0.0
H3114 H 0.74598 0.74539 0.71509 0.0
H3115 H 0.78791 0.7659 0.74911 0.0
H3116 H 0.74253 0.74396 0.81131 0.0
H3117 H 0.75423 0.75881 0.78992 0.0
C3118 C 0.71606 0.20727 0.21324 0.0
C3119 C 0.72163 0.21789 0.20132 0.0
C3120 C 0.72309 0.21533 0.2255 0.0
C3121 C 0.74212 0.26567 0.24174 0.0
H3122 H 0.76082 0.22637 0.26967 0.0
C3123 C 0.78206 0.29597 0.29028 0.0
C3124 C 0.77683 0.28534 0.30225 0.0
C3125 C 0.7747 0.28792 0.2781 0.0
C3126 C 0.75536 0.23755 0.26204 0.0
H3127 H 0.73937 0.24513 0.19297 0.0
H3128 H 0.75183 0.25913 0.21442 0.0
H3129 H 0.75025 0.21181 0.24805 0.0
H3130 H 0.7593 0.25812 0.31078 0.0
H3131 H 0.74622 0.24414 0.28947 0.0
H3132 H 0.74722 0.29141 0.25573 0.0
C3133 C 0.74175 0.24469 0.21425 0.0
C3134 C 0.74935 0.2292 0.24963 0.0
C3135 C 0.73474 0.23659 0.20196 0.0
C3136 C 0.76367 0.26667 0.30176 0.0
C3137 C 0.75631 0.25858 0.28953 0.0
C3138 C 0.74811 0.27401 0.25416 0.0
C3139 C 0.73588 0.23424 0.22618 0.0
C3140 C 0.74267 0.24316 0.23932 0.0
C3141 C 0.76188 0.26902 0.27754 0.0
C3142 C 0.75485 0.26007 0.26446 0.0
H3143 H 0.70598 0.19283 0.21316 0.0
H3144 H 0.71805 0.20701 0.23447 0.0
H3145 H 0.73669 0.27685 0.23411 0.0
H3146 H 0.79217 0.31039 0.29026 0.0
H3147 H 0.77953 0.29624 0.26908 0.0
C3148 C 0.78527 0.20712 0.78961 0.0
C3149 C 0.77962 0.21752 0.80159 0.0
C3150 C 0.77815 0.21528 0.7774 0.0
C3151 C 0.73706 0.25125 0.76195 0.0
H3152 H 0.77775 0.2521 0.73248 0.0
C3153 C 0.71792 0.296 0.71296 0.0
C3154 C 0.7235 0.28561 0.70096 0.0
C3155 C 0.72507 0.2878 0.72515 0.0
C3156 C 0.76611 0.25175 0.74056 0.0
H3157 H 0.76169 0.24452 0.81008 0.0
H3158 H 0.74934 0.25889 0.78872 0.0
H3159 H 0.78916 0.23759 0.75394 0.0
H3160 H 0.74135 0.25859 0.69243 0.0
H3161 H 0.75375 0.24417 0.71377 0.0
H3162 H 0.714 0.26542 0.74857 0.0
C3163 C 0.75917 0.24427 0.78881 0.0
C3164 C 0.77264 0.24343 0.75287 0.0
C3165 C 0.76632 0.23609 0.80106 0.0
C3166 C 0.73677 0.26702 0.70146 0.0
C3167 C 0.74395 0.2588 0.7137 0.0
C3168 C 0.73052 0.25957 0.74964 0.0
C3169 C 0.76518 0.23408 0.77682 0.0
C3170 C 0.7582 0.24306 0.76373 0.0
C3171 C 0.73799 0.26898 0.72571 0.0
C3172 C 0.74497 0.25995 0.73878 0.0
H3173 H 0.79538 0.1927 0.78962 0.0
H3174 H 0.78276 0.20678 0.7684 0.0
H3175 H 0.72541 0.25091 0.77003 0.0
H3176 H 0.70784 0.31045 0.71297 0.0
H3177 H 0.7205 0.2963 0.73416 0.0
C3178 C 0.73538 0.76549 0.30148 0.0
C3179 C 0.72201 0.78401 0.30203 0.0
C3180 C 0.74247 0.7573 0.28922 0.0
C3181 C 0.72878 0.75804 0.25331 0.0
H3182 H 0.78756 0.73648 0.24887 0.0
C3183 C 0.76471 0.73515 0.2018 0.0
C3184 C 0.77822 0.71674 0.20123 0.0
C3185 C 0.75742 0.74315 0.21407 0.0
C3186 C 0.771 0.7422 0.24998 0.0
H3187 H 0.70608 0.80875 0.29008 0.0
H3188 H 0.71861 0.79466 0.26884 0.0
H3189 H 0.77616 0.75084 0.27037 0.0
H3190 H 0.79415 0.69194 0.21313 0.0
H3191 H 0.78128 0.70568 0.23438 0.0
H3192 H 0.72363 0.74941 0.23291 0.0
C3193 C 0.72331 0.78619 0.27784 0.0
C3194 C 0.76447 0.75044 0.26232 0.0
C3195 C 0.71624 0.79436 0.29006 0.0
C3196 C 0.78388 0.70625 0.21318 0.0
C3197 C 0.77662 0.71422 0.2254 0.0
C3198 C 0.73531 0.7498 0.24097 0.0
C3199 C 0.73634 0.76745 0.27724 0.0
C3200 C 0.74329 0.75849 0.26414 0.0
C3201 C 0.7635 0.7329 0.22603 0.0
C3202 C 0.7565 0.74176 0.23915 0.0
H3203 H 0.7401 0.7571 0.3105 0.0
H3204 H 0.75235 0.74273 0.28912 0.0
H3205 H 0.71223 0.76378 0.25441 0.0
H3206 H 0.76007 0.74365 0.1928 0.0
H3207 H 0.74747 0.75767 0.2142 0.0
C3208 C 0.54591 0.46852 0.04025 0.0
C3209 C 0.53569 0.47454 0.05221 0.0
C3210 C 0.53763 0.47538 0.02801 0.0
C3211 C 0.5016 0.51617 0.01232 0.0
H3212 H 0.50017 0.47457 0.98332 0.0
C3213 C 0.4564 0.5341 0.96333 0.0
C3214 C 0.4668 0.52833 0.95137 0.0
C3215 C 0.4646 0.52714 0.97556 0.0
C3216 C 0.50067 0.48646 0.99126 0.0
H3217 H 0.50896 0.49291 0.06067 0.0
H3218 H 0.49439 0.5048 0.03926 0.0
H3219 H 0.51494 0.46376 0.00483 0.0
H3220 H 0.49375 0.51026 0.94293 0.0
H3221 H 0.50815 0.49815 0.96435 0.0
H3222 H 0.48731 0.53885 0.99875 0.0
C3223 C 0.50894 0.49488 0.03937 0.0
C3224 C 0.50914 0.48027 0.00361 0.0
C3225 C 0.51725 0.48801 0.05165 0.0
C3226 C 0.48533 0.51498 0.95194 0.0
C3227 C 0.49354 0.50798 0.96422 0.0
C3228 C 0.49312 0.52235 0.99998 0.0
C3229 C 0.51891 0.48845 0.0274 0.0
C3230 C 0.50975 0.49506 0.01429 0.0
C3231 C 0.48341 0.5142 0.97619 0.0
C3232 C 0.49253 0.50757 0.9893 0.0
H3233 H 0.56024 0.45828 0.04029 0.0
H3234 H 0.54597 0.47047 0.01902 0.0
H3235 H 0.50211 0.52806 0.02026 0.0
H3236 H 0.44201 0.54425 0.96329 0.0
H3237 H 0.45615 0.53189 0.98455 0.0
C3238 C 0.01813 0.48689 0.45189 0.0
C3239 C 0.03645 0.47327 0.45122 0.0
C3240 C 0.01016 0.49394 0.46421 0.0
C3241 C 0.01097 0.47956 0.49999 0.0
H3242 H 0.9895 0.53828 0.50483 0.0
C3243 C 0.98758 0.51459 0.55166 0.0
C3244 C 0.96905 0.52794 0.55221 0.0
C3245 C 0.99577 0.50754 0.53939 0.0
C3246 C 0.99522 0.52174 0.50361 0.0
H3247 H 0.06114 0.45693 0.46299 0.0
H3248 H 0.04745 0.46941 0.48434 0.0
H3249 H 0.00398 0.52731 0.48328 0.0
H3250 H 0.94422 0.5438 0.54029 0.0
H3251 H 0.95832 0.53136 0.51904 0.0
H3252 H 0.00221 0.47401 0.52033 0.0
C3253 C 0.03895 0.47432 0.4754 0.0
C3254 C 0.00352 0.51546 0.49125 0.0
C3255 C 0.04689 0.46728 0.46312 0.0
C3256 C 0.95863 0.53366 0.54025 0.0
C3257 C 0.9668 0.52665 0.52803 0.0
C3258 C 0.00268 0.48585 0.51236 0.0
C3259 C 0.02035 0.48753 0.47612 0.0
C3260 C 0.01149 0.49428 0.48928 0.0
C3261 C 0.9856 0.51372 0.52742 0.0
C3262 C 0.99466 0.50701 0.51431 0.0
H3263 H 0.00968 0.49178 0.44292 0.0
H3264 H 0.99569 0.50397 0.46441 0.0
H3265 H 0.01665 0.46301 0.49877 0.0
H3266 H 0.99601 0.50991 0.56067 0.0
H3267 H 0.01037 0.49771 0.53926 0.0
C3268 C 0.04601 0.53246 0.04003 0.0
C3269 C 0.03517 0.52721 0.05193 0.0
C3270 C 0.03784 0.52563 0.02776 0.0
C3271 C 1.00067 0.48609 0.01193 0.0
H3272 H 0.00157 0.5273 0.98272 0.0
C3273 C 0.95651 0.46885 0.96247 0.0
C3274 C 0.96739 0.47426 0.95061 0.0
C3275 C 0.96452 0.47573 0.97477 0.0
C3276 C 0.00141 0.51551 0.99072 0.0
H3277 H 0.00745 0.51018 0.06023 0.0
H3278 H 0.99308 0.49831 0.03875 0.0
H3279 H 0.01614 0.53785 0.00433 0.0
H3280 H 0.995 0.4916 0.94241 0.0
H3281 H 0.0091 0.5035 0.96394 0.0
H3282 H 0.98597 0.46373 0.99831 0.0
C3283 C 0.00802 0.50763 0.03895 0.0
C3284 C 0.00977 0.52155 0.00312 0.0
C3285 C 0.01622 0.51448 0.05127 0.0
C3286 C 0.9862 0.48718 0.95134 0.0
C3287 C 0.99425 0.49406 0.96369 0.0
C3288 C 0.99232 0.48004 0.99952 0.0
C3289 C 0.01861 0.51336 0.02704 0.0
C3290 C 0.00954 0.50691 0.01388 0.0
C3291 C 0.98364 0.48818 0.97557 0.0
C3292 C 0.99257 0.49468 0.98876 0.0
H3293 H 0.06075 0.54211 0.04014 0.0
H3294 H 0.04665 0.52998 0.01882 0.0
H3295 H 1.00051 0.4743 0.01993 0.0
H3296 H 0.94187 0.45906 0.9623 0.0
H3297 H 0.95569 0.47127 0.98368 0.0
C3298 C 0.51601 0.51441 0.45234 0.0
C3299 C 0.53453 0.52777 0.45172 0.0
C3300 C 0.50801 0.50724 0.46463 0.0
C3301 C 0.50913 0.52101 0.5005 0.0
H3302 H 0.48725 0.46239 0.5051 0.0
C3303 C 0.48581 0.48588 0.55212 0.0
C3304 C 0.46729 0.47251 0.55272 0.0
C3305 C 0.49396 0.49288 0.53983 0.0
C3306 C 0.49307 0.47891 0.50395 0.0
H3307 H 0.55951 0.54354 0.46357 0.0
H3308 H 0.54574 0.53088 0.48485 0.0
H3309 H 0.50162 0.47357 0.48356 0.0
H3310 H 0.44251 0.45651 0.54084 0.0
H3311 H 0.45651 0.4689 0.51955 0.0
H3312 H 0.50056 0.52636 0.52088 0.0
C3313 C 0.53713 0.52625 0.47589 0.0
C3314 C 0.50132 0.4853 0.49159 0.0
C3315 C 0.54512 0.53339 0.46364 0.0
C3316 C 0.45689 0.46667 0.54077 0.0
C3317 C 0.46502 0.47366 0.52853 0.0
C3318 C 0.50088 0.51461 0.51286 0.0
C3319 C 0.51835 0.51329 0.47657 0.0
C3320 C 0.50947 0.50643 0.4897 0.0
C3321 C 0.48377 0.48667 0.52787 0.0
C3322 C 0.49272 0.49349 0.51474 0.0
H3323 H 0.50745 0.50981 0.44336 0.0
H3324 H 0.49341 0.4974 0.46479 0.0
H3325 H 0.51495 0.53752 0.49934 0.0
H3326 H 0.49424 0.49064 0.56112 0.0
H3327 H 0.50854 0.50275 0.53969 0.0
C3328 C 0.24441 0.10119 0.35674 0.0
C3329 C 0.24548 0.12219 0.36224 0.0
C3330 C 0.25952 0.08523 0.36043 0.0
C3331 C 0.28634 0.05127 0.3754 0.0
H3332 H 0.34633 0.06861 0.38071 0.0
C3333 C 0.35158 0.99305 0.39739 0.0
C3334 C 0.37253 0.99409 0.39183 0.0
C3335 C 0.33568 0.00834 0.39386 0.0
C3336 C 0.32969 0.06341 0.37917 0.0
H3337 H 0.26317 0.14275 0.37606 0.0
H3338 H 0.28915 0.11498 0.38259 0.0
H3339 H 0.31962 0.09556 0.37397 0.0
H3340 H 0.39306 0.01191 0.37805 0.0
H3341 H 0.36541 0.03816 0.37179 0.0
H3342 H 0.29664 0.01894 0.38029 0.0
C3343 C 0.27694 0.11088 0.37525 0.0
C3344 C 0.31428 0.07896 0.37547 0.0
C3345 C 0.26192 0.12681 0.37154 0.0
C3346 C 0.37716 0.01067 0.38262 0.0
C3347 C 0.3613 0.02585 0.37907 0.0
C3348 C 0.30181 0.03567 0.3791 0.0
C3349 C 0.27602 0.0899 0.36971 0.0
C3350 C 0.29239 0.07313 0.37354 0.0
C3351 C 0.34038 0.02498 0.38468 0.0
C3352 C 0.32371 0.04154 0.381 0.0
H3353 H 0.23199 0.0971 0.34952 0.0
H3354 H 0.25847 0.06933 0.35584 0.0
H3355 H 0.26959 0.04623 0.37415 0.0
H3356 H 0.34749 0.98052 0.40454 0.0
H3357 H 0.31981 0.00731 0.39849 0.0
C3358 C 0.12658 0.01025 0.621 0.0
C3359 C 0.13091 0.99348 0.61187 0.0
C3360 C 0.14272 0.02512 0.62453 0.0
C3361 C 0.17464 0.06225 0.62408 0.0
H3362 H 0.23457 0.04481 0.6295 0.0
C3363 C 0.24227 0.12563 0.6315 0.0
C3364 C 0.25853 0.12131 0.64097 0.0
C3365 C 0.22745 0.10954 0.62778 0.0
C3366 C 0.21787 0.04992 0.62813 0.0
H3367 H 0.15578 0.97914 0.59935 0.0
H3368 H 0.184 0.00544 0.60538 0.0
H3369 H 0.20737 0.01752 0.62352 0.0
H3370 H 0.27198 0.09653 0.65392 0.0
H3371 H 0.24578 0.06846 0.64759 0.0
H3372 H 0.18485 0.09445 0.62901 0.0
C3373 C 0.16812 0.00685 0.60994 0.0
C3374 C 0.20232 0.03431 0.62453 0.0
C3375 C 0.15192 0.99184 0.60643 0.0
C3376 C 0.25968 0.10039 0.64658 0.0
C3377 C 0.24473 0.08426 0.64289 0.0
C3378 C 0.19011 0.07778 0.62769 0.0
C3379 C 0.16365 0.02378 0.61897 0.0
C3380 C 0.18048 0.04028 0.62251 0.0
C3381 C 0.22834 0.08868 0.63348 0.0
C3382 C 0.21194 0.07187 0.62975 0.0
H3383 H 0.11067 0.01193 0.6255 0.0
H3384 H 0.13878 0.03762 0.63172 0.0
H3385 H 0.15806 0.06754 0.62243 0.0
H3386 H 0.24098 0.14149 0.62687 0.0
H3387 H 0.21535 0.11346 0.62033 0.0
C3388 C 0.23968 0.87477 0.87055 0.0
C3389 C 0.25633 0.87947 0.86141 0.0
C3390 C 0.22466 0.89071 0.87424 0.0
C3391 C 0.1875 0.92282 0.87445 0.0
H3392 H 0.20536 0.98267 0.87972 0.0
C3393 C 0.12482 0.99122 0.88181 0.0
C3394 C 0.12943 0.00765 0.89113 0.0
C3395 C 0.14066 0.97606 0.87822 0.0
C3396 C 0.20013 0.966 0.87841 0.0
H3397 H 0.27018 0.90468 0.84895 0.0
H3398 H 0.24369 0.93247 0.85522 0.0
H3399 H 0.23236 0.95535 0.87355 0.0
H3400 H 0.15442 0.02097 0.90398 0.0
H3401 H 0.18207 0.99419 0.89786 0.0
H3402 H 0.15544 0.93323 0.87962 0.0
C3403 C 0.24248 0.91651 0.8597 0.0
C3404 C 0.21557 0.95037 0.87469 0.0
C3405 C 0.2576 0.90054 0.85604 0.0
C3406 C 0.15035 0.00856 0.89674 0.0
C3407 C 0.16623 0.99328 0.89318 0.0
C3408 C 0.17212 0.93839 0.87819 0.0
C3409 C 0.22579 0.91178 0.86884 0.0
C3410 C 0.20944 0.92857 0.87267 0.0
C3411 C 0.16155 0.97677 0.8839 0.0
C3412 C 0.17819 0.9602 0.88017 0.0
H3413 H 0.23827 0.85877 0.87497 0.0
H3414 H 0.2123 0.88655 0.88147 0.0
H3415 H 0.18209 0.90628 0.87283 0.0
H3416 H 0.10894 0.99009 0.8772 0.0
H3417 H 0.13655 0.96387 0.87086 0.0
C3418 C 0.24424 0.90087 0.14604 0.0
C3419 C 0.24524 0.87988 0.14053 0.0
C3420 C 0.25949 0.91675 0.14242 0.0
C3421 C 0.28669 0.95053 0.12753 0.0
H3422 H 0.34658 0.93273 0.12239 0.0
C3423 C 0.35237 0.00805 0.1054 0.0
C3424 C 0.37332 0.0069 0.11095 0.0
C3425 C 0.33636 0.99293 0.10899 0.0
C3426 C 0.32998 0.93807 0.12388 0.0
H3427 H 0.26295 0.85924 0.12676 0.0
H3428 H 0.28915 0.88685 0.12035 0.0
H3429 H 0.31965 0.90602 0.12914 0.0
H3430 H 0.39374 0.98907 0.12479 0.0
H3431 H 0.3659 0.96311 0.13117 0.0
H3432 H 0.29724 0.98275 0.12259 0.0
C3433 C 0.27689 0.89102 0.12765 0.0
C3434 C 0.31444 0.92265 0.1276 0.0
C3435 C 0.26175 0.87518 0.13129 0.0
C3436 C 0.37784 0.99039 0.12022 0.0
C3437 C 0.36187 0.97538 0.12384 0.0
C3438 C 0.30229 0.966 0.12384 0.0
C3439 C 0.27605 0.91199 0.13321 0.0
C3440 C 0.29257 0.92864 0.12944 0.0
C3441 C 0.34094 0.97635 0.11824 0.0
C3442 C 0.32415 0.95996 0.12199 0.0
H3443 H 0.23177 0.90502 0.15321 0.0
H3444 H 0.25849 0.93265 0.14702 0.0
H3445 H 0.26997 0.9557 0.12873 0.0
H3446 H 0.34836 0.02053 0.0982 0.0
H3447 H 0.32049 0.99403 0.10437 0.0
C3448 C 0.75804 0.90083 0.64744 0.0
C3449 C 0.75663 0.87975 0.64209 0.0
C3450 C 0.74292 0.91684 0.64383 0.0
C3451 C 0.68778 0.92326 0.62927 0.0
H3452 H 0.7058 0.98298 0.6237 0.0
C3453 C 0.65099 0.00871 0.60639 0.0
C3454 C 0.63002 0.00797 0.61195 0.0
C3455 C 0.66679 0.99345 0.61011 0.0
C3456 C 0.70053 0.96634 0.6251 0.0
H3457 H 0.73831 0.85908 0.62864 0.0
H3458 H 0.71236 0.88692 0.62223 0.0
H3459 H 0.73274 0.95567 0.62996 0.0
H3460 H 0.60936 0.99072 0.62592 0.0
H3461 H 0.63684 0.96452 0.63251 0.0
H3462 H 0.65574 0.93369 0.62407 0.0
C3463 C 0.72483 0.89106 0.62941 0.0
C3464 C 0.71593 0.95072 0.62887 0.0
C3465 C 0.73983 0.87509 0.63304 0.0
C3466 C 0.62527 0.99171 0.62135 0.0
C3467 C 0.64104 0.97657 0.62509 0.0
C3468 C 0.67243 0.93882 0.62547 0.0
C3469 C 0.72608 0.91214 0.63478 0.0
C3470 C 0.70975 0.92896 0.63098 0.0
C3471 C 0.66199 0.97713 0.61949 0.0
C3472 C 0.67856 0.96059 0.62336 0.0
H3473 H 0.77074 0.90495 0.65446 0.0
H3474 H 0.74424 0.93282 0.64829 0.0
H3475 H 0.68233 0.90675 0.63096 0.0
H3476 H 0.65516 0.02098 0.5991 0.0
H3477 H 0.68266 0.99423 0.60547 0.0
C3478 C 0.87724 0.99052 0.38187 0.0
C3479 C 0.87248 0.00695 0.39115 0.0
C3480 C 0.86149 0.97527 0.37825 0.0
C3481 C 0.83004 0.93755 0.37808 0.0
H3482 H 0.76983 0.95453 0.3733 0.0
C3483 C 0.76239 0.874 0.37039 0.0
C3484 C 0.74574 0.87873 0.36125 0.0
C3485 C 0.77746 0.8899 0.37406 0.0
C3486 C 0.78661 0.94954 0.37448 0.0
H3487 H 0.84734 0.02017 0.40393 0.0
H3488 H 0.81987 0.99327 0.39775 0.0
H3489 H 0.79679 0.98183 0.37953 0.0
H3490 H 0.73198 0.90394 0.34874 0.0
H3491 H 0.75857 0.93165 0.35497 0.0
H3492 H 0.82008 0.90543 0.37271 0.0
C3493 C 0.83574 0.99242 0.39312 0.0
C3494 C 0.80203 0.96516 0.37823 0.0
C3495 C 0.85153 0.00777 0.39672 0.0
C3496 C 0.74456 0.89978 0.35584 0.0
C3497 C 0.75973 0.91571 0.35948 0.0
C3498 C 0.81468 0.92198 0.37431 0.0
C3499 C 0.84055 0.97593 0.38385 0.0
C3500 C 0.82396 0.95936 0.38006 0.0
C3501 C 0.7764 0.91096 0.36863 0.0
C3502 C 0.79274 0.92774 0.37248 0.0
H3503 H 0.89315 0.98945 0.3773 0.0
H3504 H 0.86569 0.96309 0.37091 0.0
H3505 H 0.84671 0.93239 0.37956 0.0
H3506 H 0.76373 0.85802 0.37484 0.0
H3507 H 0.78981 0.88573 0.3813 0.0
C3508 C 0.76205 0.12897 0.13245 0.0
C3509 C 0.74536 0.12415 0.14155 0.0
C3510 C 0.77715 0.11311 0.12876 0.0
C3511 C 0.81441 0.08104 0.12846 0.0
H3512 H 0.7966 0.02119 0.12314 0.0
C3513 C 0.87709 0.01256 0.12087 0.0
C3514 C 0.87233 0.99611 0.1116 0.0
C3515 C 0.86132 0.0278 0.12449 0.0
C3516 C 0.80183 0.03787 0.12447 0.0
H3517 H 0.73158 0.09881 0.15395 0.0
H3518 H 0.75822 0.07118 0.14768 0.0
H3519 H 0.7696 0.04845 0.12935 0.0
H3520 H 0.8472 0.98289 0.09882 0.0
H3521 H 0.81972 0.00978 0.10497 0.0
H3522 H 0.84648 0.07068 0.12325 0.0
C3523 C 0.75938 0.08717 0.14322 0.0
C3524 C 0.78638 0.05346 0.12821 0.0
C3525 C 0.74418 0.10305 0.14688 0.0
C3526 C 0.85138 0.9953 0.10602 0.0
C3527 C 0.83559 0.01065 0.10962 0.0
C3528 C 0.82981 0.0655 0.12469 0.0
C3529 C 0.77609 0.09201 0.13412 0.0
C3530 C 0.79248 0.07526 0.13025 0.0
C3531 C 0.84038 0.02714 0.11888 0.0
C3532 C 0.82376 0.04369 0.12268 0.0
H3533 H 0.76339 0.145 0.12806 0.0
H3534 H 0.78953 0.11736 0.12156 0.0
H3535 H 0.8198 0.09759 0.13009 0.0
H3536 H 0.893 0.01362 0.12545 0.0
H3537 H 0.86552 0.03999 0.13183 0.0
C3538 C 0.65007 0.99426 0.89628 0.0
C3539 C 0.62908 0.99529 0.89077 0.0
C3540 C 0.66592 0.00957 0.89272 0.0
C3541 C 0.67182 0.0646 0.87792 0.0
H3542 H 0.73191 0.04735 0.87293 0.0
C3543 C 0.7573 0.10212 0.85555 0.0
C3544 C 0.75623 0.12315 0.861 0.0
C3545 C 0.7421 0.08623 0.8592 0.0
C3546 C 0.71516 0.05241 0.87417 0.0
H3547 H 0.60841 0.01309 0.87706 0.0
H3548 H 0.63599 0.03937 0.87073 0.0
H3549 H 0.70486 0.02012 0.87912 0.0
H3550 H 0.73843 0.14386 0.87468 0.0
H3551 H 0.71232 0.11621 0.88117 0.0
H3552 H 0.6819 0.09671 0.87264 0.0
C3553 C 0.64017 0.02707 0.878 0.0
C3554 C 0.69969 0.03684 0.87789 0.0
C3555 C 0.62435 0.01188 0.88159 0.0
C3556 C 0.73968 0.12789 0.8702 0.0
C3557 C 0.72459 0.11202 0.87388 0.0
C3558 C 0.68724 0.08012 0.87417 0.0
C3559 C 0.66114 0.02621 0.88355 0.0
C3560 C 0.6778 0.04273 0.87979 0.0
C3561 C 0.72552 0.091 0.86841 0.0
C3562 C 0.70913 0.07427 0.87226 0.0
H3563 H 0.65423 0.98173 0.90341 0.0
H3564 H 0.68182 0.00855 0.89731 0.0
H3565 H 0.6552 0.06983 0.87945 0.0
H3566 H 0.7698 0.09795 0.8484 0.0
H3567 H 0.74316 0.0703 0.85466 0.0
C3568 C 0.76117 0.62648 0.87154 0.0
C3569 C 0.74454 0.62198 0.86233 0.0
C3570 C 0.77624 0.6105 0.87507 0.0
C3571 C 0.81361 0.57867 0.87481 0.0
H3572 H 0.7962 0.5186 0.87967 0.0
C3573 C 0.87684 0.51063 0.88167 0.0
C3574 C 0.87239 0.49409 0.89093 0.0
C3575 C 0.86086 0.5257 0.87814 0.0
C3576 C 0.80131 0.53534 0.87846 0.0
H3577 H 0.73075 0.59705 0.84962 0.0
H3578 H 0.75734 0.56917 0.85564 0.0
H3579 H 0.76897 0.54586 0.87377 0.0
H3580 H 0.84755 0.48043 0.90375 0.0
H3581 H 0.81966 0.50703 0.89775 0.0
H3582 H 0.84578 0.56839 0.87982 0.0
C3583 C 0.75849 0.58502 0.86028 0.0
C3584 C 0.78573 0.55092 0.87491 0.0
C3585 C 0.74332 0.60104 0.85677 0.0
C3586 C 0.85149 0.49294 0.89656 0.0
C3587 C 0.83547 0.50811 0.89305 0.0
C3588 C 0.82913 0.56314 0.87838 0.0
C3589 C 0.7752 0.58959 0.86944 0.0
C3590 C 0.79169 0.57281 0.87306 0.0
C3591 C 0.83999 0.52475 0.88384 0.0
C3592 C 0.82322 0.54125 0.88023 0.0
H3593 H 0.76254 0.64237 0.8761 0.0
H3594 H 0.7886 0.61452 0.88233 0.0
H3595 H 0.81888 0.59529 0.87331 0.0
H3596 H 0.89269 0.51194 0.87705 0.0
H3597 H 0.86484 0.538 0.87083 0.0
C3598 C 0.74188 0.62632 0.13245 0.0
C3599 C 0.75855 0.62178 0.14161 0.0
C3600 C 0.72699 0.61026 0.12877 0.0
C3601 C 0.68993 0.57811 0.12882 0.0
H3602 H 0.70777 0.51827 0.12345 0.0
C3603 C 0.62707 0.51 0.12183 0.0
C3604 C 0.63131 0.49377 0.11232 0.0
C3605 C 0.64312 0.52492 0.12543 0.0
C3606 C 0.70256 0.53494 0.1248 0.0
H3607 H 0.77261 0.5967 0.1541 0.0
H3608 H 0.74632 0.56869 0.14784 0.0
H3609 H 0.73485 0.54564 0.12948 0.0
H3610 H 0.65593 0.48043 0.09923 0.0
H3611 H 0.68398 0.50681 0.10538 0.0
H3612 H 0.65781 0.56767 0.12385 0.0
C3613 C 0.745 0.58463 0.14334 0.0
C3614 C 0.71804 0.55059 0.12843 0.0
C3615 C 0.76 0.60073 0.14699 0.0
C3616 C 0.65214 0.4927 0.1066 0.0
C3617 C 0.66825 0.50776 0.11018 0.0
C3618 C 0.67452 0.56253 0.12519 0.0
C3619 C 0.72825 0.58923 0.13421 0.0
C3620 C 0.7119 0.57239 0.13048 0.0
C3621 C 0.66386 0.52416 0.11958 0.0
C3622 C 0.68058 0.54072 0.12318 0.0
H3623 H 0.74035 0.64229 0.12801 0.0
H3624 H 0.71458 0.61432 0.12155 0.0
H3625 H 0.68453 0.59465 0.13047 0.0
H3626 H 0.61129 0.51123 0.12655 0.0
H3627 H 0.63926 0.53702 0.1329 0.0
C3628 C 0.75735 0.40124 0.35607 0.0
C3629 C 0.75648 0.38026 0.36161 0.0
C3630 C 0.74205 0.41706 0.3597 0.0
C3631 C 0.71493 0.4508 0.37466 0.0
H3632 H 0.65513 0.43295 0.38011 0.0
C3633 C 0.64968 0.50831 0.3972 0.0
C3634 C 0.62862 0.50722 0.39179 0.0
C3635 C 0.66558 0.49315 0.3935 0.0
C3636 C 0.6717 0.4383 0.37853 0.0
H3637 H 0.73892 0.35959 0.37543 0.0
H3638 H 0.71264 0.38711 0.38186 0.0
H3639 H 0.682 0.40625 0.37323 0.0
H3640 H 0.6079 0.48942 0.37811 0.0
H3641 H 0.63557 0.46336 0.37155 0.0
H3642 H 0.70441 0.48301 0.37966 0.0
C3643 C 0.72483 0.3913 0.37453 0.0
C3644 C 0.68721 0.42289 0.37474 0.0
C3645 C 0.74003 0.37552 0.37088 0.0
C3646 C 0.62388 0.49069 0.38256 0.0
C3647 C 0.63976 0.47563 0.37884 0.0
C3648 C 0.69937 0.46626 0.37843 0.0
C3649 C 0.72556 0.41227 0.36896 0.0
C3650 C 0.70905 0.4289 0.37278 0.0
C3651 C 0.66081 0.47658 0.38429 0.0
C3652 C 0.67754 0.4602 0.38041 0.0
H3653 H 0.76977 0.40542 0.34887 0.0
H3654 H 0.74296 0.43295 0.35509 0.0
H3655 H 0.73162 0.45598 0.37338 0.0
H3656 H 0.65385 0.52079 0.40436 0.0
H3657 H 0.68153 0.49423 0.39802 0.0
C3658 C 0.87905 0.49094 0.62115 0.0
C3659 C 0.87441 0.50746 0.6119 0.0
C3660 C 0.86315 0.47585 0.62479 0.0
C3661 C 0.83131 0.43843 0.62494 0.0
H3662 H 0.77128 0.45597 0.62979 0.0
C3663 C 0.76306 0.37548 0.63252 0.0
C3664 C 0.74647 0.38029 0.64168 0.0
C3665 C 0.77827 0.39127 0.62888 0.0
C3666 C 0.788 0.45083 0.62859 0.0
H3667 H 0.84933 0.52098 0.5992 0.0
H3668 H 0.82162 0.49436 0.60539 0.0
H3669 H 0.79849 0.48305 0.62361 0.0
H3670 H 0.73296 0.40557 0.65425 0.0
H3671 H 0.75978 0.43308 0.64806 0.0
H3672 H 0.82104 0.40638 0.63024 0.0
C3673 C 0.8375 0.49332 0.61 0.0
C3674 C 0.80357 0.46632 0.62487 0.0
C3675 C 0.85343 0.50852 0.60638 0.0
C3676 C 0.74549 0.40133 0.64713 0.0
C3677 C 0.76079 0.41715 0.64352 0.0
C3678 C 0.8158 0.423 0.62868 0.0
C3679 C 0.84219 0.47675 0.61923 0.0
C3680 C 0.82544 0.46032 0.62302 0.0
C3681 C 0.77741 0.4123 0.63435 0.0
C3682 C 0.79392 0.42895 0.63054 0.0
H3683 H 0.89498 0.48969 0.62569 0.0
H3684 H 0.86727 0.46359 0.6321 0.0
H3685 H 0.84792 0.43312 0.62345 0.0
H3686 H 0.76426 0.3595 0.62804 0.0
H3687 H 0.79057 0.38702 0.62162 0.0
C3688 C 0.15114 0.50747 0.10614 0.0
C3689 C 0.13022 0.50663 0.11175 0.0
C3690 C 0.16709 0.49237 0.10988 0.0
C3691 C 0.17326 0.43797 0.12545 0.0
H3692 H 0.23349 0.45528 0.12964 0.0
C3693 C 0.25938 0.40064 0.14709 0.0
C3694 C 0.25803 0.37954 0.14178 0.0
C3695 C 0.24413 0.41656 0.14353 0.0
C3696 C 0.21671 0.45021 0.12863 0.0
H3697 H 0.10979 0.4894 0.12586 0.0
H3698 H 0.13753 0.46348 0.1325 0.0
H3699 H 0.20629 0.48235 0.1234 0.0
H3700 H 0.23969 0.35874 0.12841 0.0
H3701 H 0.21351 0.3864 0.12209 0.0
H3702 H 0.18346 0.40602 0.13099 0.0
C3703 C 0.14158 0.47547 0.12501 0.0
C3704 C 0.20115 0.46569 0.12488 0.0
C3705 C 0.12566 0.49045 0.12124 0.0
C3706 C 0.24117 0.37477 0.13279 0.0
C3707 C 0.22603 0.39064 0.12921 0.0
C3708 C 0.18876 0.42256 0.12923 0.0
C3709 C 0.16248 0.47613 0.11935 0.0
C3710 C 0.17921 0.45976 0.12324 0.0
C3711 C 0.22722 0.41173 0.13456 0.0
C3712 C 0.21071 0.42842 0.13082 0.0
H3713 H 0.15517 0.51968 0.09878 0.0
H3714 H 0.18292 0.49322 0.10519 0.0
H3715 H 0.15659 0.43271 0.12413 0.0
H3716 H 0.27213 0.40485 0.15407 0.0
H3717 H 0.2454 0.43256 0.14797 0.0
C3718 C 0.35164 0.508 0.8971 0.0
C3719 C 0.37263 0.50714 0.89159 0.0
C3720 C 0.33585 0.49268 0.89345 0.0
C3721 C 0.33018 0.43782 0.87841 0.0
H3722 H 0.27002 0.45486 0.87348 0.0
C3723 C 0.24485 0.40013 0.85591 0.0
C3724 C 0.24599 0.37907 0.86131 0.0
C3725 C 0.25999 0.41605 0.85961 0.0
C3726 C 0.28679 0.44986 0.8747 0.0
H3727 H 0.39337 0.48961 0.87779 0.0
H3728 H 0.36591 0.4633 0.87133 0.0
H3729 H 0.29696 0.48214 0.87977 0.0
H3730 H 0.26386 0.35833 0.87494 0.0
H3731 H 0.28989 0.38603 0.8815 0.0
H3732 H 0.32023 0.40571 0.87301 0.0
C3733 C 0.36167 0.47549 0.87865 0.0
C3734 C 0.30219 0.46546 0.87849 0.0
C3735 C 0.37743 0.4907 0.88232 0.0
C3736 C 0.26256 0.37433 0.8705 0.0
C3737 C 0.2776 0.39022 0.87423 0.0
C3738 C 0.31483 0.42227 0.8746 0.0
C3739 C 0.34069 0.47619 0.8842 0.0
C3740 C 0.32411 0.45964 0.88037 0.0
C3741 C 0.27659 0.41128 0.86881 0.0
C3742 C 0.29292 0.42805 0.87271 0.0
H3743 H 0.34742 0.52041 0.9043 0.0
H3744 H 0.31994 0.49357 0.89805 0.0
H3745 H 0.34683 0.43265 0.87992 0.0
H3746 H 0.23233 0.40431 0.84878 0.0
H3747 H 0.25887 0.43201 0.85511 0.0
C3748 C 0.37652 0.51158 0.6211 0.0
C3749 C 0.3719 0.49485 0.61199 0.0
C3750 C 0.36056 0.52663 0.6247 0.0
C3751 C 0.32862 0.56389 0.62462 0.0
H3752 H 0.26865 0.54643 0.62983 0.0
C3753 C 0.26083 0.62719 0.63182 0.0
C3754 C 0.24441 0.62283 0.64117 0.0
C3755 C 0.27575 0.61113 0.62819 0.0
C3756 C 0.28536 0.55154 0.62852 0.0
H3757 H 0.34677 0.48087 0.59951 0.0
H3758 H 0.31892 0.50744 0.60563 0.0
H3759 H 0.29586 0.5192 0.62381 0.0
H3760 H 0.23078 0.59802 0.65402 0.0
H3761 H 0.25714 0.56999 0.64786 0.0
H3762 H 0.31838 0.59605 0.62965 0.0
C3763 C 0.33486 0.50868 0.61015 0.0
C3764 C 0.30092 0.53597 0.6249 0.0
C3765 C 0.35086 0.49352 0.60658 0.0
C3766 C 0.24319 0.6019 0.64676 0.0
C3767 C 0.25824 0.5858 0.64317 0.0
C3768 C 0.31313 0.57939 0.62826 0.0
C3769 C 0.33954 0.52548 0.61923 0.0
C3770 C 0.32277 0.54195 0.62292 0.0
C3771 C 0.2748 0.59027 0.63389 0.0
C3772 C 0.29127 0.57348 0.63023 0.0
H3773 H 0.39249 0.51304 0.62556 0.0
H3774 H 0.36468 0.53906 0.6319 0.0
H3775 H 0.34521 0.56919 0.62302 0.0
H3776 H 0.26218 0.64305 0.6272 0.0
H3777 H 0.28797 0.61508 0.62082 0.0
C3778 C 0.12636 0.51485 0.3886 0.0
C3779 C 0.13203 0.4934 0.39199 0.0
C3780 C 0.14238 0.53001 0.38526 0.0
C3781 C 0.19698 0.53487 0.37147 0.0
H3782 H 0.19636 0.59224 0.38743 0.0
C3783 C 0.26426 0.5987 0.36063 0.0
C3784 C 0.25822 0.62073 0.3604 0.0
C3785 C 0.24936 0.58273 0.36459 0.0
C3786 C 0.19662 0.57645 0.38269 0.0
H3787 H 0.15899 0.47104 0.3945 0.0
H3788 H 0.18702 0.49755 0.38838 0.0
H3789 H 0.16953 0.56535 0.39425 0.0
H3790 H 0.23158 0.6432 0.36367 0.0
H3791 H 0.20545 0.61546 0.37001 0.0
H3792 H 0.22355 0.54606 0.35956 0.0
C3793 C 0.17014 0.50256 0.38841 0.0
C3794 C 0.1813 0.56099 0.38669 0.0
C3795 C 0.15411 0.48746 0.39198 0.0
C3796 C 0.23683 0.62638 0.36387 0.0
C3797 C 0.22187 0.61043 0.36763 0.0
C3798 C 0.21214 0.55045 0.36731 0.0
C3799 C 0.16442 0.52399 0.38502 0.0
C3800 C 0.18125 0.54007 0.38109 0.0
C3801 C 0.22797 0.58838 0.36825 0.0
C3802 C 0.21211 0.57152 0.37281 0.0
H3803 H 0.1095 0.51997 0.38853 0.0
H3804 H 0.13749 0.54637 0.3826 0.0
H3805 H 0.19717 0.51892 0.3669 0.0
H3806 H 0.28066 0.59383 0.35808 0.0
H3807 H 0.25481 0.56601 0.36508 0.0
loop_
_geom_bond_atom_site_label_1
_geom_bond_atom_site_label_2
_geom_bond_distance
_geom_bond_site_symmetry_2
_ccdc_geom_bond_type
Co0 O2 2.143 . S
Co0 O8 2.074 . S
Co0 O11 2.093 . S
Co0 O24 2.097 . S
Co0 N41 2.151 . S
Co0 N49 2.214 . S
Co1 O2 2.160 . S
Co1 O7 2.058 . S
Co1 O17 2.057 . S
Co1 O32 2.037 . S
Co1 N36 2.145 . S
Co1 N57 2.257 . S
O2 Co0 2.143 . S
O2 Co1 2.160 . S
C3 O4 1.278 . S
C3 O11 1.224 . S
O4 C3 1.278 . S
C5 O6 1.245 . S
C5 O17 1.232 . S
O6 C5 1.245 . S
O7 Co1 2.058 . S
O7 C33 1.269 . S
O8 Co0 2.074 . S
O8 C33 1.257 . S
H9 C34 0.930 . S
H10 C40 0.930 . S
O11 Co0 2.093 . S
O11 C3 1.224 . S
H12 C44 0.929 . S
H13 C46 0.930 . S
H14 C47 0.930 . S
H15 C45 0.929 . S
H16 C48 0.928 . S
O17 Co1 2.057 . S
O17 C5 1.232 . S
H18 C37 0.929 . S
H19 C38 0.929 . S
H20 C50 0.931 . S
H21 C42 0.929 . S
H22 C51 0.930 . S
H23 C43 0.931 . S
O24 Co0 2.097 . S
O24 C52 1.214 . S
H25 C53 0.929 . S
H26 C54 0.929 . S
H27 C55 0.930 . S
H28 C56 0.929 . S
H29 C58 0.930 . S
H30 C35 0.930 . S
H31 C39 0.930 . S
O32 Co1 2.037 . S
O32 C52 1.234 . S
C33 O7 1.269 . S
C33 O8 1.257 . S
C34 H9 0.930 . S
C34 C37 1.388 . S
C34 C39 1.418 . S
C35 H30 0.930 . S
C35 C38 1.404 . S
C35 C39 1.353 . S
N36 Co1 2.145 . S
N36 C37 1.397 . S
N36 C38 1.334 . S
C37 H18 0.929 . S
C37 C34 1.388 . S
C37 N36 1.397 . S
C38 H19 0.929 . S
C38 C35 1.404 . S
C38 N36 1.334 . S
C39 H31 0.930 . S
C39 C34 1.418 . S
C39 C35 1.353 . S
C40 H10 0.930 . S
C40 N41 1.330 . S
C40 C42 1.446 . S
N41 Co0 2.151 . S
N41 C40 1.330 . S
N41 C45 1.418 . S
C42 H21 0.929 . S
C42 C40 1.446 . S
C42 C43 1.332 . S
C43 H23 0.931 . S
C43 C42 1.332 . S
C43 C44 1.267 . S
C44 H12 0.929 . S
C44 C43 1.267 . S
C44 C45 1.251 . S
C45 H15 0.929 . S
C45 N41 1.418 . S
C45 C44 1.251 . S
C46 H13 0.930 . S
C46 C48 1.406 . S
C46 C51 1.261 . S
C47 H14 0.930 . S
C47 N49 1.325 . S
C47 C50 1.357 . S
C48 H16 0.928 . S
C48 C46 1.406 . S
C48 N49 1.261 . S
N49 Co0 2.214 . S
N49 C47 1.325 . S
N49 C48 1.261 . S
C50 H20 0.931 . S
C50 C47 1.357 . S
C50 C51 1.312 . S
C51 H22 0.930 . S
C51 C46 1.261 . S
C51 C50 1.312 . S
C52 O24 1.214 . S
C52 O32 1.234 . S
C53 H25 0.929 . S
C53 C56 1.391 . S
C53 C58 1.391 . S
C54 H26 0.929 . S
C54 C55 1.390 . S
C54 N57 1.391 . S
C55 H27 0.930 . S
C55 C54 1.390 . S
C55 C56 1.392 . S
C56 H28 0.929 . S
C56 C53 1.391 . S
C56 C55 1.392 . S
N57 Co1 2.257 . S
N57 C54 1.391 . S
N57 C58 1.388 . S
C58 H29 0.930 . S
C58 C53 1.391 . S
C58 N57 1.388 . S
Co59 O61 2.143 . S
Co59 O67 2.074 . S
Co59 O70 2.093 . S
Co59 O83 2.097 . S
Co59 N100 2.151 . S
Co59 N108 2.214 . S
Co60 O61 2.160 . S
Co60 O66 2.058 . S
Co60 O76 2.057 . S
Co60 O91 2.037 . S
Co60 N95 2.145 . S
Co60 N116 2.257 . S
O61 Co59 2.143 . S
O61 Co60 2.160 . S
C62 O63 1.278 . S
C62 O70 1.224 . S
O63 C62 1.278 . S
C64 O65 1.245 . S
C64 O76 1.232 . S
O65 C64 1.245 . S
O66 Co60 2.058 . S
O66 C92 1.269 . S
O67 Co59 2.074 . S
O67 C92 1.257 . S
H68 C93 0.930 . S
H69 C99 0.930 . S
O70 Co59 2.093 . S
O70 C62 1.224 . S
H71 C103 0.929 . S
H72 C105 0.930 . S
H73 C106 0.930 . S
H74 C104 0.929 . S
H75 C107 0.928 . S
O76 Co60 2.057 . S
O76 C64 1.232 . S
H77 C96 0.929 . S
H78 C97 0.929 . S
H79 C109 0.931 . S
H80 C101 0.929 . S
H81 C110 0.930 . S
H82 C102 0.931 . S
O83 Co59 2.097 . S
O83 C111 1.214 . S
H84 C112 0.929 . S
H85 C113 0.929 . S
H86 C114 0.930 1_655 S
H87 C115 0.960 . S
H88 C117 0.930 . S
H89 C94 0.930 . S
H90 C98 0.930 . S
O91 Co60 2.037 . S
O91 C111 1.234 . S
C92 O66 1.269 . S
C92 O67 1.257 . S
C93 H68 0.930 . S
C93 C96 1.388 . S
C93 C98 1.418 . S
C94 H89 0.930 . S
C94 C97 1.404 . S
C94 C98 1.353 . S
N95 Co60 2.145 . S
N95 C96 1.397 . S
N95 C97 1.334 . S
C96 H77 0.929 . S
C96 C93 1.388 . S
C96 N95 1.397 . S
C97 H78 0.929 . S
C97 C94 1.404 . S
C97 N95 1.334 . S
C98 H90 0.930 . S
C98 C93 1.418 . S
C98 C94 1.353 . S
C99 H69 0.930 . S
C99 N100 1.330 . S
C99 C101 1.446 . S
N100 Co59 2.151 . S
N100 C99 1.330 . S
N100 C104 1.418 . S
C101 H80 0.929 . S
C101 C99 1.446 . S
C101 C102 1.332 . S
C102 H82 0.931 . S
C102 C101 1.332 . S
C102 C103 1.267 . S
C103 H71 0.929 . S
C103 C102 1.267 . S
C103 C104 1.251 . S
C104 H74 0.929 . S
C104 N100 1.418 . S
C104 C103 1.251 . S
C105 H72 0.930 . S
C105 C107 1.406 . S
C105 C110 1.261 . S
C106 H73 0.930 . S
C106 N108 1.325 . S
C106 C109 1.357 . S
C107 H75 0.928 . S
C107 C105 1.406 . S
C107 N108 1.261 . S
N108 Co59 2.214 . S
N108 C106 1.325 . S
N108 C107 1.261 . S
C109 H79 0.931 . S
C109 C106 1.357 . S
C109 C110 1.312 . S
C110 H81 0.930 . S
C110 C105 1.261 . S
C110 C109 1.312 . S
C111 O83 1.214 . S
C111 O91 1.234 . S
C112 H84 0.929 . S
C112 C115 1.391 . S
C112 C117 1.391 . S
C113 H85 0.929 . S
C113 C114 1.390 1_565 S
C113 N116 1.391 . S
C114 H86 0.930 1_455 S
C114 C113 1.390 1_545 S
C114 C115 1.392 . S
C115 H87 0.960 . S
C115 C112 1.391 . S
C115 C114 1.392 . S
N116 Co60 2.257 . S
N116 C113 1.391 . S
N116 C117 1.388 1_565 S
C117 H88 0.930 . S
C117 C112 1.391 . S
C117 N116 1.388 1_545 S
Co118 O120 2.143 . S
Co118 O126 2.074 . S
Co118 O129 2.093 . S
Co118 O142 2.097 . S
Co118 N159 2.151 . S
Co118 N167 2.214 . S
Co119 O120 2.160 . S
Co119 O125 2.058 . S
Co119 O135 2.057 . S
Co119 O150 2.037 . S
Co119 N154 2.145 . S
Co119 N175 2.257 . S
O120 Co118 2.143 . S
O120 Co119 2.160 . S
C121 O122 1.278 . S
C121 O129 1.224 . S
O122 C121 1.278 . S
C123 O124 1.245 . S
C123 O135 1.232 . S
O124 C123 1.245 . S
O125 Co119 2.058 . S
O125 C151 1.269 . S
O126 Co118 2.074 . S
O126 C151 1.257 . S
H127 C152 0.930 . S
H128 C158 0.930 . S
O129 Co118 2.093 . S
O129 C121 1.224 . S
H130 C162 0.929 . S
H131 C164 0.930 . S
H132 C165 0.930 . S
H133 C163 0.929 . S
H134 C166 0.928 . S
O135 Co119 2.057 . S
O135 C123 1.232 . S
H136 C155 0.929 . S
H137 C156 0.929 . S
H138 C168 0.931 . S
H139 C160 0.929 . S
H140 C169 0.930 . S
H141 C161 0.931 . S
O142 Co118 2.097 . S
O142 C170 1.214 . S
H143 C171 0.929 . S
H144 C172 0.929 . S
H145 C173 0.930 . S
H146 C174 0.929 . S
H147 C176 0.930 . S
H148 C153 0.930 . S
H149 C157 0.930 . S
O150 Co119 2.037 . S
O150 C170 1.234 . S
C151 O125 1.269 . S
C151 O126 1.257 . S
C152 H127 0.930 . S
C152 C155 1.388 . S
C152 C157 1.418 . S
C153 H148 0.930 . S
C153 C156 1.404 . S
C153 C157 1.353 . S
N154 Co119 2.145 . S
N154 C155 1.397 . S
N154 C156 1.334 . S
C155 H136 0.929 . S
C155 C152 1.388 . S
C155 N154 1.397 . S
C156 H137 0.929 . S
C156 C153 1.404 . S
C156 N154 1.334 . S
C157 H149 0.930 . S
C157 C152 1.418 . S
C157 C153 1.353 . S
C158 H128 0.930 . S
C158 N159 1.330 . S
C158 C160 1.446 . S
N159 Co118 2.151 . S
N159 C158 1.330 . S
N159 C163 1.418 . S
C160 H139 0.929 . S
C160 C158 1.446 . S
C160 C161 1.332 . S
C161 H141 0.931 . S
C161 C160 1.332 . S
C161 C162 1.267 . S
C162 H130 0.929 . S
C162 C161 1.267 . S
C162 C163 1.251 . S
C163 H133 0.929 . S
C163 N159 1.418 . S
C163 C162 1.251 . S
C164 H131 0.930 . S
C164 C166 1.406 . S
C164 C169 1.261 . S
C165 H132 0.930 . S
C165 N167 1.325 . S
C165 C168 1.357 . S
C166 H134 0.928 . S
C166 C164 1.406 . S
C166 N167 1.261 . S
N167 Co118 2.214 . S
N167 C165 1.325 . S
N167 C166 1.261 . S
C168 H138 0.931 . S
C168 C165 1.357 . S
C168 C169 1.312 . S
C169 H140 0.930 . S
C169 C164 1.261 . S
C169 C168 1.312 . S
C170 O142 1.214 . S
C170 O150 1.234 . S
C171 H143 0.929 . S
C171 C174 1.391 . S
C171 C176 1.391 . S
C172 H144 0.929 . S
C172 C173 1.390 . S
C172 N175 1.391 . S
C173 H145 0.930 . S
C173 C172 1.390 . S
C173 C174 1.392 . S
C174 H146 0.929 . S
C174 C171 1.391 . S
C174 C173 1.392 . S
N175 Co119 2.257 . S
N175 C172 1.391 . S
N175 C176 1.388 . S
C176 H147 0.930 . S
C176 C171 1.391 . S
C176 N175 1.388 . S
Co177 O179 2.143 . S
Co177 O185 2.074 . S
Co177 O188 2.093 . S
Co177 O201 2.097 . S
Co177 N218 2.151 . S
Co177 N226 2.214 . S
Co178 O179 2.160 . S
Co178 O184 2.058 . S
Co178 O194 2.057 . S
Co178 O209 2.037 . S
Co178 N213 2.145 . S
Co178 N234 2.257 . S
O179 Co177 2.143 . S
O179 Co178 2.160 . S
C180 O181 1.278 . S
C180 O188 1.224 . S
O181 C180 1.278 . S
C182 O183 1.245 . S
C182 O194 1.232 . S
O183 C182 1.245 . S
O184 Co178 2.058 . S
O184 C210 1.269 . S
O185 Co177 2.074 . S
O185 C210 1.257 . S
H186 C211 0.930 . S
H187 C217 0.930 . S
O188 Co177 2.093 . S
O188 C180 1.224 . S
H189 C221 0.929 . S
H190 C223 0.930 . S
H191 C224 0.930 . S
H192 C222 0.929 . S
H193 C225 0.928 . S
O194 Co178 2.057 . S
O194 C182 1.232 . S
H195 C214 0.929 . S
H196 C215 0.929 . S
H197 C227 0.931 . S
H198 C219 0.929 . S
H199 C228 0.930 . S
H200 C220 0.931 . S
O201 Co177 2.097 . S
O201 C229 1.214 . S
H202 C230 0.929 . S
H203 C231 0.929 . S
H204 C232 0.930 . S
H205 C233 0.929 . S
H206 C235 0.930 . S
H207 C212 0.930 . S
H208 C216 0.930 . S
O209 Co178 2.037 . S
O209 C229 1.234 . S
C210 O184 1.269 . S
C210 O185 1.257 . S
C211 H186 0.930 . S
C211 C214 1.388 . S
C211 C216 1.418 . S
C212 H207 0.930 . S
C212 C215 1.404 . S
C212 C216 1.353 . S
N213 Co178 2.145 . S
N213 C214 1.397 . S
N213 C215 1.334 . S
C214 H195 0.929 . S
C214 C211 1.388 . S
C214 N213 1.397 . S
C215 H196 0.929 . S
C215 C212 1.404 . S
C215 N213 1.334 . S
C216 H208 0.930 . S
C216 C211 1.418 . S
C216 C212 1.353 . S
C217 H187 0.930 . S
C217 N218 1.330 . S
C217 C219 1.446 . S
N218 Co177 2.151 . S
N218 C217 1.330 . S
N218 C222 1.418 . S
C219 H198 0.929 . S
C219 C217 1.446 . S
C219 C220 1.332 . S
C220 H200 0.931 . S
C220 C219 1.332 . S
C220 C221 1.267 . S
C221 H189 0.929 . S
C221 C220 1.267 . S
C221 C222 1.251 . S
C222 H192 0.929 . S
C222 N218 1.418 . S
C222 C221 1.251 . S
C223 H190 0.930 . S
C223 C225 1.406 . S
C223 C228 1.261 . S
C224 H191 0.930 . S
C224 N226 1.325 . S
C224 C227 1.357 . S
C225 H193 0.928 . S
C225 C223 1.406 . S
C225 N226 1.261 . S
N226 Co177 2.214 . S
N226 C224 1.325 . S
N226 C225 1.261 . S
C227 H197 0.931 . S
C227 C224 1.357 . S
C227 C228 1.312 . S
C228 H199 0.930 . S
C228 C223 1.261 . S
C228 C227 1.312 . S
C229 O201 1.214 . S
C229 O209 1.234 . S
C230 H202 0.929 . S
C230 C233 1.391 . S
C230 C235 1.391 . S
C231 H203 0.929 . S
C231 C232 1.390 1_545 S
C231 N234 1.391 . S
C232 H204 0.930 . S
C232 C231 1.390 1_565 S
C232 C233 1.392 . S
C233 H205 0.929 . S
C233 C230 1.391 . S
C233 C232 1.392 . S
N234 Co178 2.257 . S
N234 C231 1.391 . S
N234 C235 1.388 1_545 S
C235 H206 0.930 . S
C235 C230 1.391 . S
C235 N234 1.388 1_565 S
Co236 O238 2.143 . S
Co236 O244 2.074 . S
Co236 O247 2.093 . S
Co236 O260 2.097 . S
Co236 N277 2.151 . S
Co236 N285 2.214 . S
Co237 O238 2.160 . S
Co237 O243 2.058 . S
Co237 O253 2.057 . S
Co237 O268 2.037 . S
Co237 N272 2.145 . S
Co237 N293 2.257 . S
O238 Co236 2.143 . S
O238 Co237 2.160 . S
C239 O240 1.278 . S
C239 O247 1.224 . S
O240 C239 1.278 . S
C241 O242 1.245 . S
C241 O253 1.232 . S
O242 C241 1.245 . S
O243 Co237 2.058 . S
O243 C269 1.269 . S
O244 Co236 2.074 . S
O244 C269 1.257 . S
H245 C270 0.930 . S
H246 C276 0.930 . S
O247 Co236 2.093 . S
O247 C239 1.224 . S
H248 C280 0.929 . S
H249 C282 0.930 . S
H250 C283 0.930 . S
H251 C281 0.929 . S
H252 C284 0.928 . S
O253 Co237 2.057 . S
O253 C241 1.232 . S
H254 C273 0.929 . S
H255 C274 0.929 . S
H256 C286 0.931 . S
H257 C278 0.929 . S
H258 C287 0.930 . S
H259 C279 0.931 . S
O260 Co236 2.097 . S
O260 C288 1.214 . S
H261 C289 0.929 . S
H262 C290 0.929 . S
H263 C291 0.930 . S
H264 C292 0.929 . S
H265 C294 0.930 . S
H266 C271 0.930 . S
H267 C275 0.930 . S
O268 Co237 2.037 . S
O268 C288 1.234 . S
C269 O243 1.269 . S
C269 O244 1.257 . S
C270 H245 0.930 . S
C270 C273 1.388 . S
C270 C275 1.418 . S
C271 H266 0.930 . S
C271 C274 1.404 . S
C271 C275 1.353 . S
N272 Co237 2.145 . S
N272 C273 1.397 . S
N272 C274 1.334 . S
C273 H254 0.929 . S
C273 C270 1.388 . S
C273 N272 1.397 . S
C274 H255 0.929 . S
C274 C271 1.404 . S
C274 N272 1.334 . S
C275 H267 0.930 . S
C275 C270 1.418 . S
C275 C271 1.353 . S
C276 H246 0.930 . S
C276 N277 1.330 . S
C276 C278 1.446 . S
N277 Co236 2.151 . S
N277 C276 1.330 . S
N277 C281 1.418 . S
C278 H257 0.929 . S
C278 C276 1.446 . S
C278 C279 1.332 . S
C279 H259 0.931 . S
C279 C278 1.332 . S
C279 C280 1.267 . S
C280 H248 0.929 . S
C280 C279 1.267 . S
C280 C281 1.251 . S
C281 H251 0.929 . S
C281 N277 1.418 . S
C281 C280 1.251 . S
C282 H249 0.930 . S
C282 C284 1.406 . S
C282 C287 1.261 . S
C283 H250 0.930 . S
C283 N285 1.325 . S
C283 C286 1.357 . S
C284 H252 0.928 . S
C284 C282 1.406 . S
C284 N285 1.261 . S
N285 Co236 2.214 . S
N285 C283 1.325 . S
N285 C284 1.261 . S
C286 H256 0.931 . S
C286 C283 1.357 . S
C286 C287 1.312 . S
C287 H258 0.930 . S
C287 C282 1.261 . S
C287 C286 1.312 . S
C288 O260 1.214 . S
C288 O268 1.234 . S
C289 H261 0.929 . S
C289 C292 1.391 . S
C289 C294 1.391 . S
C290 H262 0.929 . S
C290 C291 1.390 . S
C290 N293 1.391 . S
C291 H263 0.930 . S
C291 C290 1.390 . S
C291 C292 1.392 . S
C292 H264 0.929 . S
C292 C289 1.391 . S
C292 C291 1.392 . S
N293 Co237 2.257 . S
N293 C290 1.391 . S
N293 C294 1.388 . S
C294 H265 0.930 . S
C294 C289 1.391 . S
C294 N293 1.388 . S
Co295 O297 2.143 . S
Co295 O303 2.074 . S
Co295 O306 2.093 . S
Co295 O319 2.097 . S
Co295 N336 2.151 . S
Co295 N344 2.214 . S
Co296 O297 2.160 . S
Co296 O302 2.058 . S
Co296 O312 2.057 . S
Co296 O327 2.037 . S
Co296 N331 2.145 . S
Co296 N352 2.257 . S
O297 Co295 2.143 . S
O297 Co296 2.160 . S
C298 O299 1.278 . S
C298 O306 1.224 . S
O299 C298 1.278 . S
C300 O301 1.245 . S
C300 O312 1.232 . S
O301 C300 1.245 . S
O302 Co296 2.058 . S
O302 C328 1.269 . S
O303 Co295 2.074 . S
O303 C328 1.257 . S
H304 C329 0.930 . S
H305 C335 0.930 . S
O306 Co295 2.093 . S
O306 C298 1.224 . S
H307 C339 0.929 . S
H308 C341 0.930 . S
H309 C342 0.930 . S
H310 C340 0.929 . S
H311 C343 0.928 . S
O312 Co296 2.057 . S
O312 C300 1.232 . S
H313 C332 0.929 . S
H314 C333 0.929 . S
H315 C345 0.931 . S
H316 C337 0.929 . S
H317 C346 0.930 . S
H318 C338 0.931 . S
O319 Co295 2.097 . S
O319 C347 1.214 . S
H320 C348 0.929 . S
H321 C349 0.929 . S
H322 C350 0.930 . S
H323 C351 0.929 . S
H324 C353 0.930 . S
H325 C330 0.930 . S
H326 C334 0.930 . S
O327 Co296 2.037 . S
O327 C347 1.234 . S
C328 O302 1.269 . S
C328 O303 1.257 . S
C329 H304 0.930 . S
C329 C332 1.388 . S
C329 C334 1.418 . S
C330 H325 0.930 . S
C330 C333 1.404 . S
C330 C334 1.353 . S
N331 Co296 2.145 . S
N331 C332 1.397 . S
N331 C333 1.334 . S
C332 H313 0.929 . S
C332 C329 1.388 . S
C332 N331 1.397 . S
C333 H314 0.929 . S
C333 C330 1.404 . S
C333 N331 1.334 . S
C334 H326 0.930 . S
C334 C329 1.418 . S
C334 C330 1.353 . S
C335 H305 0.930 . S
C335 N336 1.330 . S
C335 C337 1.446 . S
N336 Co295 2.151 . S
N336 C335 1.330 . S
N336 C340 1.418 . S
C337 H316 0.929 . S
C337 C335 1.446 . S
C337 C338 1.332 . S
C338 H318 0.931 . S
C338 C337 1.332 . S
C338 C339 1.267 . S
C339 H307 0.929 . S
C339 C338 1.267 . S
C339 C340 1.251 . S
C340 H310 0.929 . S
C340 N336 1.418 . S
C340 C339 1.251 . S
C341 H308 0.930 . S
C341 C343 1.406 . S
C341 C346 1.261 . S
C342 H309 0.930 . S
C342 N344 1.325 . S
C342 C345 1.357 . S
C343 H311 0.928 . S
C343 C341 1.406 . S
C343 N344 1.261 . S
N344 Co295 2.214 . S
N344 C342 1.325 . S
N344 C343 1.261 . S
C345 H315 0.931 . S
C345 C342 1.357 . S
C345 C346 1.312 . S
C346 H317 0.930 . S
C346 C341 1.261 . S
C346 C345 1.312 . S
C347 O319 1.214 . S
C347 O327 1.234 . S
C348 H320 0.929 . S
C348 C351 1.391 . S
C348 C353 1.391 . S
C349 H321 0.929 . S
C349 C350 1.390 1_565 S
C349 N352 1.391 . S
C350 H322 0.930 . S
C350 C349 1.390 1_545 S
C350 C351 1.392 . S
C351 H323 0.929 . S
C351 C348 1.391 . S
C351 C350 1.392 . S
N352 Co296 2.257 . S
N352 C349 1.391 . S
N352 C353 1.388 1_565 S
C353 H324 0.930 . S
C353 C348 1.391 . S
C353 N352 1.388 1_545 S
Co354 O356 2.143 . S
Co354 O362 2.074 . S
Co354 O365 2.093 . S
Co354 O378 2.097 . S
Co354 N395 2.151 . S
Co354 N403 2.214 . S
Co355 O356 2.160 . S
Co355 O361 2.058 . S
Co355 O371 2.057 . S
Co355 O386 2.037 . S
Co355 N390 2.145 . S
Co355 N411 2.257 . S
O356 Co354 2.143 . S
O356 Co355 2.160 . S
C357 O358 1.278 . S
C357 O365 1.224 . S
O358 C357 1.278 . S
C359 O360 1.245 . S
C359 O371 1.232 . S
O360 C359 1.245 . S
O361 Co355 2.058 . S
O361 C387 1.269 . S
O362 Co354 2.074 . S
O362 C387 1.257 . S
H363 C388 0.930 . S
H364 C394 0.930 . S
O365 Co354 2.093 . S
O365 C357 1.224 . S
H366 C398 0.929 . S
H367 C400 0.930 . S
H368 C401 0.930 . S
H369 C399 0.929 . S
H370 C402 0.928 . S
O371 Co355 2.057 . S
O371 C359 1.232 . S
H372 C391 0.929 . S
H373 C392 0.929 . S
H374 C404 0.931 . S
H375 C396 0.929 . S
H376 C405 0.930 . S
H377 C397 0.931 . S
O378 Co354 2.097 . S
O378 C406 1.214 . S
H379 C407 0.929 . S
H380 C408 0.929 . S
H381 C409 0.930 . S
H382 C410 0.929 . S
H383 C412 0.930 . S
H384 C389 0.930 . S
H385 C393 0.930 . S
O386 Co355 2.037 . S
O386 C406 1.234 . S
C387 O361 1.269 . S
C387 O362 1.257 . S
C388 H363 0.930 . S
C388 C391 1.388 . S
C388 C393 1.418 . S
C389 H384 0.930 . S
C389 C392 1.404 . S
C389 C393 1.353 . S
N390 Co355 2.145 . S
N390 C391 1.397 . S
N390 C392 1.334 . S
C391 H372 0.929 . S
C391 C388 1.388 . S
C391 N390 1.397 . S
C392 H373 0.929 . S
C392 C389 1.404 . S
C392 N390 1.334 . S
C393 H385 0.930 . S
C393 C388 1.418 . S
C393 C389 1.353 . S
C394 H364 0.930 . S
C394 N395 1.330 . S
C394 C396 1.446 . S
N395 Co354 2.151 . S
N395 C394 1.330 . S
N395 C399 1.418 . S
C396 H375 0.929 . S
C396 C394 1.446 . S
C396 C397 1.332 . S
C397 H377 0.931 . S
C397 C396 1.332 . S
C397 C398 1.267 . S
C398 H366 0.929 . S
C398 C397 1.267 . S
C398 C399 1.251 . S
C399 H369 0.929 . S
C399 N395 1.418 . S
C399 C398 1.251 . S
C400 H367 0.930 . S
C400 C402 1.406 . S
C400 C405 1.261 . S
C401 H368 0.930 . S
C401 N403 1.325 . S
C401 C404 1.357 . S
C402 H370 0.928 . S
C402 C400 1.406 . S
C402 N403 1.261 . S
N403 Co354 2.214 . S
N403 C401 1.325 . S
N403 C402 1.261 . S
C404 H374 0.931 . S
C404 C401 1.357 . S
C404 C405 1.312 . S
C405 H376 0.930 . S
C405 C400 1.261 . S
C405 C404 1.312 . S
C406 O378 1.214 . S
C406 O386 1.234 . S
C407 H379 0.929 . S
C407 C410 1.391 . S
C407 C412 1.391 . S
C408 H380 0.929 . S
C408 C409 1.390 . S
C408 N411 1.391 . S
C409 H381 0.930 . S
C409 C408 1.390 . S
C409 C410 1.392 . S
C410 H382 0.929 . S
C410 C407 1.391 . S
C410 C409 1.392 . S
N411 Co355 2.257 . S
N411 C408 1.391 . S
N411 C412 1.388 . S
C412 H383 0.930 . S
C412 C407 1.391 . S
C412 N411 1.388 . S
Co413 O415 2.143 . S
Co413 O421 2.074 . S
Co413 O424 2.093 . S
Co413 O437 2.097 . S
Co413 N454 2.151 . S
Co413 N462 2.214 . S
Co414 O415 2.160 . S
Co414 O420 2.058 . S
Co414 O430 2.057 . S
Co414 O445 2.037 . S
Co414 N449 2.145 . S
Co414 N470 2.257 . S
O415 Co413 2.143 . S
O415 Co414 2.160 . S
C416 O417 1.278 . S
C416 O424 1.224 . S
O417 C416 1.278 . S
C418 O419 1.245 . S
C418 O430 1.232 . S
O419 C418 1.245 . S
O420 Co414 2.058 . S
O420 C446 1.269 . S
O421 Co413 2.074 . S
O421 C446 1.257 . S
H422 C447 0.930 . S
H423 C453 0.930 . S
O424 Co413 2.093 . S
O424 C416 1.224 . S
H425 C457 0.929 . S
H426 C459 0.930 . S
H427 C460 0.930 . S
H428 C458 0.929 . S
H429 C461 0.928 . S
O430 Co414 2.057 . S
O430 C418 1.232 . S
H431 C450 0.929 . S
H432 C451 0.929 . S
H433 C463 0.931 . S
H434 C455 0.929 . S
H435 C464 0.930 . S
H436 C456 0.931 . S
O437 Co413 2.097 . S
O437 C465 1.214 . S
H438 C466 0.929 . S
H439 C467 0.929 . S
H440 C468 0.930 1_655 S
H441 C469 0.960 . S
H442 C471 0.930 . S
H443 C448 0.930 . S
H444 C452 0.930 . S
O445 Co414 2.037 . S
O445 C465 1.234 . S
C446 O420 1.269 . S
C446 O421 1.257 . S
C447 H422 0.930 . S
C447 C450 1.388 . S
C447 C452 1.418 . S
C448 H443 0.930 . S
C448 C451 1.404 . S
C448 C452 1.353 . S
N449 Co414 2.145 . S
N449 C450 1.397 . S
N449 C451 1.334 . S
C450 H431 0.929 . S
C450 C447 1.388 . S
C450 N449 1.397 . S
C451 H432 0.929 . S
C451 C448 1.404 . S
C451 N449 1.334 . S
C452 H444 0.930 . S
C452 C447 1.418 . S
C452 C448 1.353 . S
C453 H423 0.930 . S
C453 N454 1.330 . S
C453 C455 1.446 . S
N454 Co413 2.151 . S
N454 C453 1.330 . S
N454 C458 1.418 . S
C455 H434 0.929 . S
C455 C453 1.446 . S
C455 C456 1.332 . S
C456 H436 0.931 . S
C456 C455 1.332 . S
C456 C457 1.267 . S
C457 H425 0.929 . S
C457 C456 1.267 . S
C457 C458 1.251 . S
C458 H428 0.929 . S
C458 N454 1.418 . S
C458 C457 1.251 . S
C459 H426 0.930 . S
C459 C461 1.406 . S
C459 C464 1.261 . S
C460 H427 0.930 . S
C460 N462 1.325 . S
C460 C463 1.357 . S
C461 H429 0.928 . S
C461 C459 1.406 . S
C461 N462 1.261 . S
N462 Co413 2.214 . S
N462 C460 1.325 . S
N462 C461 1.261 . S
C463 H433 0.931 . S
C463 C460 1.357 . S
C463 C464 1.312 . S
C464 H435 0.930 . S
C464 C459 1.261 . S
C464 C463 1.312 . S
C465 O437 1.214 . S
C465 O445 1.234 . S
C466 H438 0.929 . S
C466 C469 1.391 . S
C466 C471 1.391 . S
C467 H439 0.929 . S
C467 C468 1.390 1_545 S
C467 N470 1.391 . S
C468 H440 0.930 1_455 S
C468 C467 1.390 1_565 S
C468 C469 1.392 . S
C469 H441 0.960 . S
C469 C466 1.391 . S
C469 C468 1.392 . S
N470 Co414 2.257 . S
N470 C467 1.391 . S
N470 C471 1.388 1_545 S
C471 H442 0.930 . S
C471 C466 1.391 . S
C471 N470 1.388 1_565 S
Co472 O474 2.143 . S
Co472 O480 2.074 . S
Co472 O483 2.093 . S
Co472 O496 2.097 . S
Co472 N513 2.151 . S
Co472 N521 2.214 . S
Co473 O474 2.160 . S
Co473 O479 2.058 . S
Co473 O489 2.057 . S
Co473 O504 2.037 . S
Co473 N508 2.145 . S
Co473 N529 2.257 . S
O474 Co472 2.143 . S
O474 Co473 2.160 . S
C475 O476 1.278 . S
C475 O483 1.224 . S
O476 C475 1.278 . S
C477 O478 1.245 . S
C477 O489 1.232 . S
O478 C477 1.245 . S
O479 Co473 2.058 . S
O479 C505 1.269 . S
O480 Co472 2.074 . S
O480 C505 1.257 . S
H481 C506 0.930 . S
H482 C512 0.930 . S
O483 Co472 2.093 . S
O483 C475 1.224 . S
H484 C516 0.929 . S
H485 C518 0.930 . S
H486 C519 0.930 . S
H487 C517 0.929 . S
H488 C520 0.928 . S
O489 Co473 2.057 . S
O489 C477 1.232 . S
H490 C509 0.929 . S
H491 C510 0.929 . S
H492 C522 0.931 . S
H493 C514 0.929 . S
H494 C523 0.930 . S
H495 C515 0.931 . S
O496 Co472 2.097 . S
O496 C524 1.214 . S
H497 C525 0.929 . S
H498 C526 0.929 . S
H499 C527 0.930 . S
H500 C528 0.929 . S
H501 C530 0.930 . S
H502 C507 0.930 . S
H503 C511 0.930 . S
O504 Co473 2.037 . S
O504 C524 1.234 . S
C505 O479 1.269 . S
C505 O480 1.257 . S
C506 H481 0.930 . S
C506 C509 1.388 . S
C506 C511 1.418 . S
C507 H502 0.930 . S
C507 C510 1.404 . S
C507 C511 1.353 . S
N508 Co473 2.145 . S
N508 C509 1.397 . S
N508 C510 1.334 . S
C509 H490 0.929 . S
C509 C506 1.388 . S
C509 N508 1.397 . S
C510 H491 0.929 . S
C510 C507 1.404 . S
C510 N508 1.334 . S
C511 H503 0.930 . S
C511 C506 1.418 . S
C511 C507 1.353 . S
C512 H482 0.930 . S
C512 N513 1.330 . S
C512 C514 1.446 . S
N513 Co472 2.151 . S
N513 C512 1.330 . S
N513 C517 1.418 . S
C514 H493 0.929 . S
C514 C512 1.446 . S
C514 C515 1.332 . S
C515 H495 0.931 . S
C515 C514 1.332 . S
C515 C516 1.267 . S
C516 H484 0.929 . S
C516 C515 1.267 . S
C516 C517 1.251 . S
C517 H487 0.929 . S
C517 N513 1.418 . S
C517 C516 1.251 . S
C518 H485 0.930 . S
C518 C520 1.406 . S
C518 C523 1.261 . S
C519 H486 0.930 . S
C519 N521 1.325 . S
C519 C522 1.357 . S
C520 H488 0.928 . S
C520 C518 1.406 . S
C520 N521 1.261 . S
N521 Co472 2.214 . S
N521 C519 1.325 . S
N521 C520 1.261 . S
C522 H492 0.931 . S
C522 C519 1.357 . S
C522 C523 1.312 . S
C523 H494 0.930 . S
C523 C518 1.261 . S
C523 C522 1.312 . S
C524 O496 1.214 . S
C524 O504 1.234 . S
C525 H497 0.929 . S
C525 C528 1.391 . S
C525 C530 1.391 . S
C526 H498 0.929 . S
C526 C527 1.390 . S
C526 N529 1.391 . S
C527 H499 0.930 . S
C527 C526 1.390 . S
C527 C528 1.392 . S
C528 H500 0.929 . S
C528 C525 1.391 . S
C528 C527 1.392 . S
N529 Co473 2.257 . S
N529 C526 1.391 . S
N529 C530 1.388 . S
C530 H501 0.930 . S
C530 C525 1.391 . S
C530 N529 1.388 . S
Co531 O533 2.143 . S
Co531 O539 2.074 . S
Co531 O542 2.093 . S
Co531 O555 2.097 . S
Co531 N572 2.151 . S
Co531 N580 2.214 . S
Co532 O533 2.160 . S
Co532 O538 2.058 . S
Co532 O548 2.057 . S
Co532 O563 2.037 . S
Co532 N567 2.145 . S
Co532 N588 2.257 . S
O533 Co531 2.143 . S
O533 Co532 2.160 . S
C534 O535 1.278 . S
C534 O542 1.224 . S
O535 C534 1.278 . S
C536 O537 1.245 . S
C536 O548 1.232 . S
O537 C536 1.245 . S
O538 Co532 2.058 . S
O538 C564 1.269 . S
O539 Co531 2.074 . S
O539 C564 1.257 . S
H540 C565 0.930 . S
H541 C571 0.930 . S
O542 Co531 2.093 . S
O542 C534 1.224 . S
H543 C575 0.929 . S
H544 C577 0.930 . S
H545 C578 0.930 . S
H546 C576 0.929 . S
H547 C579 0.928 . S
O548 Co532 2.057 . S
O548 C536 1.232 . S
H549 C568 0.929 . S
H550 C569 0.929 . S
H551 C581 0.931 . S
H552 C573 0.929 . S
H553 C582 0.930 . S
H554 C574 0.931 . S
O555 Co531 2.097 . S
O555 C583 1.214 . S
H556 C584 0.929 . S
H557 C585 0.929 . S
H558 C586 0.930 1_455 S
H559 C587 0.960 . S
H560 C589 0.930 . S
H561 C566 0.930 . S
H562 C570 0.930 . S
O563 Co532 2.037 . S
O563 C583 1.234 . S
C564 O538 1.269 . S
C564 O539 1.257 . S
C565 H540 0.930 . S
C565 C568 1.388 . S
C565 C570 1.418 . S
C566 H561 0.930 . S
C566 C569 1.404 . S
C566 C570 1.353 . S
N567 Co532 2.145 . S
N567 C568 1.397 . S
N567 C569 1.334 . S
C568 H549 0.929 . S
C568 C565 1.388 . S
C568 N567 1.397 . S
C569 H550 0.929 . S
C569 C566 1.404 . S
C569 N567 1.334 . S
C570 H562 0.930 . S
C570 C565 1.418 . S
C570 C566 1.353 . S
C571 H541 0.930 . S
C571 N572 1.330 . S
C571 C573 1.446 . S
N572 Co531 2.151 . S
N572 C571 1.330 . S
N572 C576 1.418 . S
C573 H552 0.929 . S
C573 C571 1.446 . S
C573 C574 1.332 . S
C574 H554 0.931 . S
C574 C573 1.332 . S
C574 C575 1.267 . S
C575 H543 0.929 . S
C575 C574 1.267 . S
C575 C576 1.251 . S
C576 H546 0.929 . S
C576 N572 1.418 . S
C576 C575 1.251 . S
C577 H544 0.930 . S
C577 C579 1.406 . S
C577 C582 1.261 . S
C578 H545 0.930 . S
C578 N580 1.325 . S
C578 C581 1.357 . S
C579 H547 0.928 . S
C579 C577 1.406 . S
C579 N580 1.261 . S
N580 Co531 2.214 . S
N580 C578 1.325 . S
N580 C579 1.261 . S
C581 H551 0.931 . S
C581 C578 1.357 . S
C581 C582 1.312 . S
C582 H553 0.930 . S
C582 C577 1.261 . S
C582 C581 1.312 . S
C583 O555 1.214 . S
C583 O563 1.234 . S
C584 H556 0.929 . S
C584 C587 1.391 . S
C584 C589 1.391 . S
C585 H557 0.929 . S
C585 C586 1.390 1_545 S
C585 N588 1.391 . S
C586 H558 0.930 1_655 S
C586 C585 1.390 1_565 S
C586 C587 1.392 . S
C587 H559 0.960 . S
C587 C584 1.391 . S
C587 C586 1.392 . S
N588 Co532 2.257 . S
N588 C585 1.391 . S
N588 C589 1.388 1_545 S
C589 H560 0.930 . S
C589 C584 1.391 . S
C589 N588 1.388 1_565 S
Co590 O592 2.143 . S
Co590 O598 2.074 . S
Co590 O601 2.093 . S
Co590 O614 2.097 . S
Co590 N631 2.151 . S
Co590 N639 2.214 . S
Co591 O592 2.160 . S
Co591 O597 2.058 . S
Co591 O607 2.057 . S
Co591 O622 2.037 . S
Co591 N626 2.145 . S
Co591 N647 2.257 . S
O592 Co590 2.143 . S
O592 Co591 2.160 . S
C593 O594 1.278 . S
C593 O601 1.224 . S
O594 C593 1.278 . S
C595 O596 1.245 . S
C595 O607 1.232 . S
O596 C595 1.245 . S
O597 Co591 2.058 . S
O597 C623 1.269 . S
O598 Co590 2.074 . S
O598 C623 1.257 . S
H599 C624 0.930 . S
H600 C630 0.930 . S
O601 Co590 2.093 . S
O601 C593 1.224 . S
H602 C634 0.929 . S
H603 C636 0.930 . S
H604 C637 0.930 . S
H605 C635 0.929 . S
H606 C638 0.928 . S
O607 Co591 2.057 . S
O607 C595 1.232 . S
H608 C627 0.929 . S
H609 C628 0.929 . S
H610 C640 0.931 . S
H611 C632 0.929 . S
H612 C641 0.930 . S
H613 C633 0.931 . S
O614 Co590 2.097 . S
O614 C642 1.214 . S
H615 C643 0.929 . S
H616 C644 0.929 . S
H617 C645 0.930 . S
H618 C646 0.929 . S
H619 C648 0.930 . S
H620 C625 0.930 . S
H621 C629 0.930 . S
O622 Co591 2.037 . S
O622 C642 1.234 . S
C623 O597 1.269 . S
C623 O598 1.257 . S
C624 H599 0.930 . S
C624 C627 1.388 . S
C624 C629 1.418 . S
C625 H620 0.930 . S
C625 C628 1.404 . S
C625 C629 1.353 . S
N626 Co591 2.145 . S
N626 C627 1.397 . S
N626 C628 1.334 . S
C627 H608 0.929 . S
C627 C624 1.388 . S
C627 N626 1.397 . S
C628 H609 0.929 . S
C628 C625 1.404 . S
C628 N626 1.334 . S
C629 H621 0.930 . S
C629 C624 1.418 . S
C629 C625 1.353 . S
C630 H600 0.930 . S
C630 N631 1.330 . S
C630 C632 1.446 . S
N631 Co590 2.151 . S
N631 C630 1.330 . S
N631 C635 1.418 . S
C632 H611 0.929 . S
C632 C630 1.446 . S
C632 C633 1.332 . S
C633 H613 0.931 . S
C633 C632 1.332 . S
C633 C634 1.267 . S
C634 H602 0.929 . S
C634 C633 1.267 . S
C634 C635 1.251 . S
C635 H605 0.929 . S
C635 N631 1.418 . S
C635 C634 1.251 . S
C636 H603 0.930 . S
C636 C638 1.406 . S
C636 C641 1.261 . S
C637 H604 0.930 . S
C637 N639 1.325 . S
C637 C640 1.357 . S
C638 H606 0.928 . S
C638 C636 1.406 . S
C638 N639 1.261 . S
N639 Co590 2.214 . S
N639 C637 1.325 . S
N639 C638 1.261 . S
C640 H610 0.931 . S
C640 C637 1.357 . S
C640 C641 1.312 . S
C641 H612 0.930 . S
C641 C636 1.261 . S
C641 C640 1.312 . S
C642 O614 1.214 . S
C642 O622 1.234 . S
C643 H615 0.929 . S
C643 C646 1.391 . S
C643 C648 1.391 . S
C644 H616 0.929 . S
C644 C645 1.390 . S
C644 N647 1.391 . S
C645 H617 0.930 . S
C645 C644 1.390 . S
C645 C646 1.392 . S
C646 H618 0.929 . S
C646 C643 1.391 . S
C646 C645 1.392 . S
N647 Co591 2.257 . S
N647 C644 1.391 . S
N647 C648 1.388 . S
C648 H619 0.930 . S
C648 C643 1.391 . S
C648 N647 1.388 . S
Co649 O651 2.143 . S
Co649 O657 2.074 . S
Co649 O660 2.093 . S
Co649 O673 2.097 . S
Co649 N690 2.151 . S
Co649 N698 2.214 . S
Co650 O651 2.160 . S
Co650 O656 2.058 . S
Co650 O666 2.057 . S
Co650 O681 2.037 . S
Co650 N685 2.145 . S
Co650 N706 2.257 . S
O651 Co649 2.143 . S
O651 Co650 2.160 . S
C652 O653 1.278 . S
C652 O660 1.224 . S
O653 C652 1.278 . S
C654 O655 1.245 . S
C654 O666 1.232 . S
O655 C654 1.245 . S
O656 Co650 2.058 . S
O656 C682 1.269 . S
O657 Co649 2.074 . S
O657 C682 1.257 . S
H658 C683 0.930 . S
H659 C689 0.930 . S
O660 Co649 2.093 . S
O660 C652 1.224 . S
H661 C693 0.929 . S
H662 C695 0.930 . S
H663 C696 0.930 . S
H664 C694 0.929 . S
H665 C697 0.928 . S
O666 Co650 2.057 . S
O666 C654 1.232 . S
H667 C686 0.929 . S
H668 C687 0.929 . S
H669 C699 0.931 . S
H670 C691 0.929 . S
H671 C700 0.930 . S
H672 C692 0.931 . S
O673 Co649 2.097 . S
O673 C701 1.214 . S
H674 C702 0.929 . S
H675 C703 0.929 . S
H676 C704 0.930 . S
H677 C705 0.929 . S
H678 C707 0.930 . S
H679 C684 0.930 . S
H680 C688 0.930 . S
O681 Co650 2.037 . S
O681 C701 1.234 . S
C682 O656 1.269 . S
C682 O657 1.257 . S
C683 H658 0.930 . S
C683 C686 1.388 . S
C683 C688 1.418 . S
C684 H679 0.930 . S
C684 C687 1.404 . S
C684 C688 1.353 . S
N685 Co650 2.145 . S
N685 C686 1.397 . S
N685 C687 1.334 . S
C686 H667 0.929 . S
C686 C683 1.388 . S
C686 N685 1.397 . S
C687 H668 0.929 . S
C687 C684 1.404 . S
C687 N685 1.334 . S
C688 H680 0.930 . S
C688 C683 1.418 . S
C688 C684 1.353 . S
C689 H659 0.930 . S
C689 N690 1.330 . S
C689 C691 1.446 . S
N690 Co649 2.151 . S
N690 C689 1.330 . S
N690 C694 1.418 . S
C691 H670 0.929 . S
C691 C689 1.446 . S
C691 C692 1.332 . S
C692 H672 0.931 . S
C692 C691 1.332 . S
C692 C693 1.267 . S
C693 H661 0.929 . S
C693 C692 1.267 . S
C693 C694 1.251 . S
C694 H664 0.929 . S
C694 N690 1.418 . S
C694 C693 1.251 . S
C695 H662 0.930 . S
C695 C697 1.406 . S
C695 C700 1.261 . S
C696 H663 0.930 . S
C696 N698 1.325 . S
C696 C699 1.357 . S
C697 H665 0.928 . S
C697 C695 1.406 . S
C697 N698 1.261 . S
N698 Co649 2.214 . S
N698 C696 1.325 . S
N698 C697 1.261 . S
C699 H669 0.931 . S
C699 C696 1.357 . S
C699 C700 1.312 . S
C700 H671 0.930 . S
C700 C695 1.261 . S
C700 C699 1.312 . S
C701 O673 1.214 . S
C701 O681 1.234 . S
C702 H674 0.929 . S
C702 C705 1.391 . S
C702 C707 1.391 . S
C703 H675 0.929 . S
C703 C704 1.390 1_565 S
C703 N706 1.391 . S
C704 H676 0.930 . S
C704 C703 1.390 1_545 S
C704 C705 1.392 . S
C705 H677 0.929 . S
C705 C702 1.391 . S
C705 C704 1.392 . S
N706 Co650 2.257 . S
N706 C703 1.391 . S
N706 C707 1.388 1_565 S
C707 H678 0.930 . S
C707 C702 1.391 . S
C707 N706 1.388 1_545 S
Co708 O710 2.143 . S
Co708 O716 2.074 . S
Co708 O719 2.093 . S
Co708 O732 2.097 . S
Co708 N749 2.151 . S
Co708 N757 2.214 . S
Co709 O710 2.160 . S
Co709 O715 2.058 . S
Co709 O725 2.057 . S
Co709 O740 2.037 . S
Co709 N744 2.145 . S
Co709 N765 2.257 . S
O710 Co708 2.143 . S
O710 Co709 2.160 . S
C711 O712 1.278 . S
C711 O719 1.224 . S
O712 C711 1.278 . S
C713 O714 1.245 . S
C713 O725 1.232 . S
O714 C713 1.245 . S
O715 Co709 2.058 . S
O715 C741 1.269 . S
O716 Co708 2.074 . S
O716 C741 1.257 . S
H717 C742 0.930 . S
H718 C748 0.930 . S
O719 Co708 2.093 . S
O719 C711 1.224 . S
H720 C752 0.929 . S
H721 C754 0.930 . S
H722 C755 0.930 . S
H723 C753 0.929 . S
H724 C756 0.928 . S
O725 Co709 2.057 . S
O725 C713 1.232 . S
H726 C745 0.929 . S
H727 C746 0.929 . S
H728 C758 0.931 . S
H729 C750 0.929 . S
H730 C759 0.930 . S
H731 C751 0.931 . S
O732 Co708 2.097 . S
O732 C760 1.214 . S
H733 C761 0.929 . S
H734 C762 0.929 . S
H735 C763 0.930 . S
H736 C764 0.929 . S
H737 C766 0.930 . S
H738 C743 0.930 . S
H739 C747 0.930 . S
O740 Co709 2.037 . S
O740 C760 1.234 . S
C741 O715 1.269 . S
C741 O716 1.257 . S
C742 H717 0.930 . S
C742 C745 1.388 . S
C742 C747 1.418 . S
C743 H738 0.930 . S
C743 C746 1.404 . S
C743 C747 1.353 . S
N744 Co709 2.145 . S
N744 C745 1.397 . S
N744 C746 1.334 . S
C745 H726 0.929 . S
C745 C742 1.388 . S
C745 N744 1.397 . S
C746 H727 0.929 . S
C746 C743 1.404 . S
C746 N744 1.334 . S
C747 H739 0.930 . S
C747 C742 1.418 . S
C747 C743 1.353 . S
C748 H718 0.930 . S
C748 N749 1.330 . S
C748 C750 1.446 . S
N749 Co708 2.151 . S
N749 C748 1.330 . S
N749 C753 1.418 . S
C750 H729 0.929 . S
C750 C748 1.446 . S
C750 C751 1.332 . S
C751 H731 0.931 . S
C751 C750 1.332 . S
C751 C752 1.267 . S
C752 H720 0.929 . S
C752 C751 1.267 . S
C752 C753 1.251 . S
C753 H723 0.929 . S
C753 N749 1.418 . S
C753 C752 1.251 . S
C754 H721 0.930 . S
C754 C756 1.406 . S
C754 C759 1.261 . S
C755 H722 0.930 . S
C755 N757 1.325 . S
C755 C758 1.357 . S
C756 H724 0.928 . S
C756 C754 1.406 . S
C756 N757 1.261 . S
N757 Co708 2.214 . S
N757 C755 1.325 . S
N757 C756 1.261 . S
C758 H728 0.931 . S
C758 C755 1.357 . S
C758 C759 1.312 . S
C759 H730 0.930 . S
C759 C754 1.261 . S
C759 C758 1.312 . S
C760 O732 1.214 . S
C760 O740 1.234 . S
C761 H733 0.929 . S
C761 C764 1.391 . S
C761 C766 1.391 . S
C762 H734 0.929 . S
C762 C763 1.390 . S
C762 N765 1.391 . S
C763 H735 0.930 . S
C763 C762 1.390 . S
C763 C764 1.392 . S
C764 H736 0.929 . S
C764 C761 1.391 . S
C764 C763 1.392 . S
N765 Co709 2.257 . S
N765 C762 1.391 . S
N765 C766 1.388 . S
C766 H737 0.930 . S
C766 C761 1.391 . S
C766 N765 1.388 . S
Co767 O769 2.143 . S
Co767 O775 2.074 . S
Co767 O778 2.093 . S
Co767 O791 2.097 . S
Co767 N808 2.151 . S
Co767 N816 2.214 . S
Co768 O769 2.160 . S
Co768 O774 2.058 . S
Co768 O784 2.057 . S
Co768 O799 2.037 . S
Co768 N803 2.145 . S
Co768 N824 2.257 . S
O769 Co767 2.143 . S
O769 Co768 2.160 . S
C770 O771 1.278 . S
C770 O778 1.224 . S
O771 C770 1.278 . S
C772 O773 1.245 . S
C772 O784 1.232 . S
O773 C772 1.245 . S
O774 Co768 2.058 . S
O774 C800 1.269 . S
O775 Co767 2.074 . S
O775 C800 1.257 . S
H776 C801 0.930 . S
H777 C807 0.930 . S
O778 Co767 2.093 . S
O778 C770 1.224 . S
H779 C811 0.929 . S
H780 C813 0.930 . S
H781 C814 0.930 . S
H782 C812 0.929 . S
H783 C815 0.928 . S
O784 Co768 2.057 . S
O784 C772 1.232 . S
H785 C804 0.929 . S
H786 C805 0.929 . S
H787 C817 0.931 . S
H788 C809 0.929 . S
H789 C818 0.930 . S
H790 C810 0.931 . S
O791 Co767 2.097 . S
O791 C819 1.214 . S
H792 C820 0.929 . S
H793 C821 0.929 . S
H794 C822 0.930 . S
H795 C823 0.929 . S
H796 C825 0.930 . S
H797 C802 0.930 . S
H798 C806 0.930 . S
O799 Co768 2.037 . S
O799 C819 1.234 . S
C800 O774 1.269 . S
C800 O775 1.257 . S
C801 H776 0.930 . S
C801 C804 1.388 . S
C801 C806 1.418 . S
C802 H797 0.930 . S
C802 C805 1.404 . S
C802 C806 1.353 . S
N803 Co768 2.145 . S
N803 C804 1.397 . S
N803 C805 1.334 . S
C804 H785 0.929 . S
C804 C801 1.388 . S
C804 N803 1.397 . S
C805 H786 0.929 . S
C805 C802 1.404 . S
C805 N803 1.334 . S
C806 H798 0.930 . S
C806 C801 1.418 . S
C806 C802 1.353 . S
C807 H777 0.930 . S
C807 N808 1.330 . S
C807 C809 1.446 . S
N808 Co767 2.151 . S
N808 C807 1.330 . S
N808 C812 1.418 . S
C809 H788 0.929 . S
C809 C807 1.446 . S
C809 C810 1.332 . S
C810 H790 0.931 . S
C810 C809 1.332 . S
C810 C811 1.267 . S
C811 H779 0.929 . S
C811 C810 1.267 . S
C811 C812 1.251 . S
C812 H782 0.929 . S
C812 N808 1.418 . S
C812 C811 1.251 . S
C813 H780 0.930 . S
C813 C815 1.406 . S
C813 C818 1.261 . S
C814 H781 0.930 . S
C814 N816 1.325 . S
C814 C817 1.357 . S
C815 H783 0.928 . S
C815 C813 1.406 . S
C815 N816 1.261 . S
N816 Co767 2.214 . S
N816 C814 1.325 . S
N816 C815 1.261 . S
C817 H787 0.931 . S
C817 C814 1.357 . S
C817 C818 1.312 . S
C818 H789 0.930 . S
C818 C813 1.261 . S
C818 C817 1.312 . S
C819 O791 1.214 . S
C819 O799 1.234 . S
C820 H792 0.929 . S
C820 C823 1.391 . S
C820 C825 1.391 . S
C821 H793 0.929 . S
C821 C822 1.390 1_545 S
C821 N824 1.391 . S
C822 H794 0.930 . S
C822 C821 1.390 1_565 S
C822 C823 1.392 . S
C823 H795 0.929 . S
C823 C820 1.391 . S
C823 C822 1.392 . S
N824 Co768 2.257 . S
N824 C821 1.391 . S
N824 C825 1.388 1_545 S
C825 H796 0.930 . S
C825 C820 1.391 . S
C825 N824 1.388 1_565 S
Co826 O828 2.143 . S
Co826 O834 2.074 . S
Co826 O837 2.093 . S
Co826 O850 2.097 . S
Co826 N867 2.151 . S
Co826 N875 2.214 . S
Co827 O828 2.160 . S
Co827 O833 2.058 . S
Co827 O843 2.057 . S
Co827 O858 2.037 . S
Co827 N862 2.145 . S
Co827 N883 2.257 . S
O828 Co826 2.143 . S
O828 Co827 2.160 . S
C829 O830 1.278 . S
C829 O837 1.224 . S
O830 C829 1.278 . S
C831 O832 1.245 . S
C831 O843 1.232 . S
O832 C831 1.245 . S
O833 Co827 2.058 . S
O833 C859 1.269 . S
O834 Co826 2.074 . S
O834 C859 1.257 . S
H835 C860 0.930 . S
H836 C866 0.930 . S
O837 Co826 2.093 . S
O837 C829 1.224 . S
H838 C870 0.929 . S
H839 C872 0.930 . S
H840 C873 0.930 . S
H841 C871 0.929 . S
H842 C874 0.928 . S
O843 Co827 2.057 . S
O843 C831 1.232 . S
H844 C863 0.929 . S
H845 C864 0.929 . S
H846 C876 0.931 . S
H847 C868 0.929 . S
H848 C877 0.930 . S
H849 C869 0.931 . S
O850 Co826 2.097 . S
O850 C878 1.214 . S
H851 C879 0.929 . S
H852 C880 0.929 . S
H853 C881 0.930 . S
H854 C882 0.929 . S
H855 C884 0.930 . S
H856 C861 0.930 . S
H857 C865 0.930 . S
O858 Co827 2.037 . S
O858 C878 1.234 . S
C859 O833 1.269 . S
C859 O834 1.257 . S
C860 H835 0.930 . S
C860 C863 1.388 . S
C860 C865 1.418 . S
C861 H856 0.930 . S
C861 C864 1.404 . S
C861 C865 1.353 . S
N862 Co827 2.145 . S
N862 C863 1.397 . S
N862 C864 1.334 . S
C863 H844 0.929 . S
C863 C860 1.388 . S
C863 N862 1.397 . S
C864 H845 0.929 . S
C864 C861 1.404 . S
C864 N862 1.334 . S
C865 H857 0.930 . S
C865 C860 1.418 . S
C865 C861 1.353 . S
C866 H836 0.930 . S
C866 N867 1.330 . S
C866 C868 1.446 . S
N867 Co826 2.151 . S
N867 C866 1.330 . S
N867 C871 1.418 . S
C868 H847 0.929 . S
C868 C866 1.446 . S
C868 C869 1.332 . S
C869 H849 0.931 . S
C869 C868 1.332 . S
C869 C870 1.267 . S
C870 H838 0.929 . S
C870 C869 1.267 . S
C870 C871 1.251 . S
C871 H841 0.929 . S
C871 N867 1.418 . S
C871 C870 1.251 . S
C872 H839 0.930 . S
C872 C874 1.406 . S
C872 C877 1.261 . S
C873 H840 0.930 . S
C873 N875 1.325 . S
C873 C876 1.357 . S
C874 H842 0.928 . S
C874 C872 1.406 . S
C874 N875 1.261 . S
N875 Co826 2.214 . S
N875 C873 1.325 . S
N875 C874 1.261 . S
C876 H846 0.931 . S
C876 C873 1.357 . S
C876 C877 1.312 . S
C877 H848 0.930 . S
C877 C872 1.261 . S
C877 C876 1.312 . S
C878 O850 1.214 . S
C878 O858 1.234 . S
C879 H851 0.929 . S
C879 C882 1.391 . S
C879 C884 1.391 . S
C880 H852 0.929 . S
C880 C881 1.390 . S
C880 N883 1.391 . S
C881 H853 0.930 . S
C881 C880 1.390 . S
C881 C882 1.392 . S
C882 H854 0.929 . S
C882 C879 1.391 . S
C882 C881 1.392 . S
N883 Co827 2.257 . S
N883 C880 1.391 . S
N883 C884 1.388 . S
C884 H855 0.930 . S
C884 C879 1.391 . S
C884 N883 1.388 . S
Co885 O887 2.143 . S
Co885 O893 2.074 . S
Co885 O896 2.093 . S
Co885 O909 2.097 . S
Co885 N926 2.151 . S
Co885 N934 2.214 . S
Co886 O887 2.160 . S
Co886 O892 2.058 . S
Co886 O902 2.057 . S
Co886 O917 2.037 . S
Co886 N921 2.145 . S
Co886 N942 2.257 . S
O887 Co885 2.143 . S
O887 Co886 2.160 . S
C888 O889 1.278 . S
C888 O896 1.224 . S
O889 C888 1.278 . S
C890 O891 1.245 . S
C890 O902 1.232 . S
O891 C890 1.245 . S
O892 Co886 2.058 . S
O892 C918 1.269 . S
O893 Co885 2.074 . S
O893 C918 1.257 . S
H894 C919 0.930 . S
H895 C925 0.930 . S
O896 Co885 2.093 . S
O896 C888 1.224 . S
H897 C929 0.929 . S
H898 C931 0.930 . S
H899 C932 0.930 . S
H900 C930 0.929 . S
H901 C933 0.928 . S
O902 Co886 2.057 . S
O902 C890 1.232 . S
H903 C922 0.929 . S
H904 C923 0.929 . S
H905 C935 0.931 . S
H906 C927 0.929 . S
H907 C936 0.930 . S
H908 C928 0.931 . S
O909 Co885 2.097 . S
O909 C937 1.214 . S
H910 C938 0.929 . S
H911 C939 0.929 . S
H912 C940 0.930 1_455 S
H913 C941 0.960 . S
H914 C943 0.930 . S
H915 C920 0.930 . S
H916 C924 0.930 . S
O917 Co886 2.037 . S
O917 C937 1.234 . S
C918 O892 1.269 . S
C918 O893 1.257 . S
C919 H894 0.930 . S
C919 C922 1.388 . S
C919 C924 1.418 . S
C920 H915 0.930 . S
C920 C923 1.404 . S
C920 C924 1.353 . S
N921 Co886 2.145 . S
N921 C922 1.397 . S
N921 C923 1.334 . S
C922 H903 0.929 . S
C922 C919 1.388 . S
C922 N921 1.397 . S
C923 H904 0.929 . S
C923 C920 1.404 . S
C923 N921 1.334 . S
C924 H916 0.930 . S
C924 C919 1.418 . S
C924 C920 1.353 . S
C925 H895 0.930 . S
C925 N926 1.330 . S
C925 C927 1.446 . S
N926 Co885 2.151 . S
N926 C925 1.330 . S
N926 C930 1.418 . S
C927 H906 0.929 . S
C927 C925 1.446 . S
C927 C928 1.332 . S
C928 H908 0.931 . S
C928 C927 1.332 . S
C928 C929 1.267 . S
C929 H897 0.929 . S
C929 C928 1.267 . S
C929 C930 1.251 . S
C930 H900 0.929 . S
C930 N926 1.418 . S
C930 C929 1.251 . S
C931 H898 0.930 . S
C931 C933 1.406 . S
C931 C936 1.261 . S
C932 H899 0.930 . S
C932 N934 1.325 . S
C932 C935 1.357 . S
C933 H901 0.928 . S
C933 C931 1.406 . S
C933 N934 1.261 . S
N934 Co885 2.214 . S
N934 C932 1.325 . S
N934 C933 1.261 . S
C935 H905 0.931 . S
C935 C932 1.357 . S
C935 C936 1.312 . S
C936 H907 0.930 . S
C936 C931 1.261 . S
C936 C935 1.312 . S
C937 O909 1.214 . S
C937 O917 1.234 . S
C938 H910 0.929 . S
C938 C941 1.391 . S
C938 C943 1.391 . S
C939 H911 0.929 . S
C939 C940 1.390 1_565 S
C939 N942 1.391 . S
C940 H912 0.930 1_655 S
C940 C939 1.390 1_545 S
C940 C941 1.392 . S
C941 H913 0.960 . S
C941 C938 1.391 . S
C941 C940 1.392 . S
N942 Co886 2.257 . S
N942 C939 1.391 . S
N942 C943 1.388 1_565 S
C943 H914 0.930 . S
C943 C938 1.391 . S
C943 N942 1.388 1_545 S
Co944 O946 2.143 . S
Co944 O952 2.074 . S
Co944 O955 2.093 . S
Co944 O968 2.097 . S
Co944 N985 2.151 . S
Co944 N993 2.214 . S
Co945 O946 2.160 . S
Co945 O951 2.058 . S
Co945 O961 2.057 . S
Co945 O976 2.037 . S
Co945 N980 2.145 . S
Co945 N1001 2.257 . S
O946 Co944 2.143 . S
O946 Co945 2.160 . S
C947 O948 1.278 . S
C947 O955 1.224 . S
O948 C947 1.278 . S
C949 O950 1.245 . S
C949 O961 1.232 . S
O950 C949 1.245 . S
O951 Co945 2.058 . S
O951 C977 1.269 . S
O952 Co944 2.074 . S
O952 C977 1.257 . S
H953 C978 0.930 . S
H954 C984 0.930 . S
O955 Co944 2.093 . S
O955 C947 1.224 . S
H956 C988 0.929 . S
H957 C990 0.930 . S
H958 C991 0.930 . S
H959 C989 0.929 . S
H960 C992 0.928 . S
O961 Co945 2.057 . S
O961 C949 1.232 . S
H962 C981 0.929 . S
H963 C982 0.929 . S
H964 C994 0.931 . S
H965 C986 0.929 . S
H966 C995 0.930 . S
H967 C987 0.931 . S
O968 Co944 2.097 . S
O968 C996 1.214 . S
H969 C997 0.929 . S
H970 C998 0.929 . S
H971 C999 0.930 . S
H972 C1000 0.929 . S
H973 C1002 0.930 . S
H974 C979 0.930 . S
H975 C983 0.930 . S
O976 Co945 2.037 . S
O976 C996 1.234 . S
C977 O951 1.269 . S
C977 O952 1.257 . S
C978 H953 0.930 . S
C978 C981 1.388 . S
C978 C983 1.418 . S
C979 H974 0.930 . S
C979 C982 1.404 . S
C979 C983 1.353 . S
N980 Co945 2.145 . S
N980 C981 1.397 . S
N980 C982 1.334 . S
C981 H962 0.929 . S
C981 C978 1.388 . S
C981 N980 1.397 . S
C982 H963 0.929 . S
C982 C979 1.404 . S
C982 N980 1.334 . S
C983 H975 0.930 . S
C983 C978 1.418 . S
C983 C979 1.353 . S
C984 H954 0.930 . S
C984 N985 1.330 . S
C984 C986 1.446 . S
N985 Co944 2.151 . S
N985 C984 1.330 . S
N985 C989 1.418 . S
C986 H965 0.929 . S
C986 C984 1.446 . S
C986 C987 1.332 . S
C987 H967 0.931 . S
C987 C986 1.332 . S
C987 C988 1.267 . S
C988 H956 0.929 . S
C988 C987 1.267 . S
C988 C989 1.251 . S
C989 H959 0.929 . S
C989 N985 1.418 . S
C989 C988 1.251 . S
C990 H957 0.930 . S
C990 C992 1.406 . S
C990 C995 1.261 . S
C991 H958 0.930 . S
C991 N993 1.325 . S
C991 C994 1.357 . S
C992 H960 0.928 . S
C992 C990 1.406 . S
C992 N993 1.261 . S
N993 Co944 2.214 . S
N993 C991 1.325 . S
N993 C992 1.261 . S
C994 H964 0.931 . S
C994 C991 1.357 . S
C994 C995 1.312 . S
C995 H966 0.930 . S
C995 C990 1.261 . S
C995 C994 1.312 . S
C996 O968 1.214 . S
C996 O976 1.234 . S
C997 H969 0.929 . S
C997 C1000 1.391 . S
C997 C1002 1.391 . S
C998 H970 0.929 . S
C998 C999 1.390 . S
C998 N1001 1.391 . S
C999 H971 0.930 . S
C999 C998 1.390 . S
C999 C1000 1.392 . S
C1000 H972 0.929 . S
C1000 C997 1.391 . S
C1000 C999 1.392 . S
N1001 Co945 2.257 . S
N1001 C998 1.391 . S
N1001 C1002 1.388 . S
C1002 H973 0.930 . S
C1002 C997 1.391 . S
C1002 N1001 1.388 . S
Co1003 O1005 2.143 . S
Co1003 O1011 2.074 . S
Co1003 O1014 2.093 . S
Co1003 O1027 2.097 . S
Co1003 N1044 2.151 . S
Co1003 N1052 2.214 . S
Co1004 O1005 2.160 . S
Co1004 O1010 2.058 . S
Co1004 O1020 2.057 . S
Co1004 O1035 2.037 . S
Co1004 N1039 2.145 . S
Co1004 N1060 2.257 . S
O1005 Co1003 2.143 . S
O1005 Co1004 2.160 . S
C1006 O1007 1.278 . S
C1006 O1014 1.224 . S
O1007 C1006 1.278 . S
C1008 O1009 1.245 . S
C1008 O1020 1.232 . S
O1009 C1008 1.245 . S
O1010 Co1004 2.058 . S
O1010 C1036 1.269 . S
O1011 Co1003 2.074 . S
O1011 C1036 1.257 . S
H1012 C1037 0.930 . S
H1013 C1043 0.930 . S
O1014 Co1003 2.093 . S
O1014 C1006 1.224 . S
H1015 C1047 0.929 . S
H1016 C1049 0.930 . S
H1017 C1050 0.930 . S
H1018 C1048 0.929 . S
H1019 C1051 0.928 . S
O1020 Co1004 2.057 . S
O1020 C1008 1.232 . S
H1021 C1040 0.929 . S
H1022 C1041 0.929 . S
H1023 C1053 0.931 . S
H1024 C1045 0.929 . S
H1025 C1054 0.930 . S
H1026 C1046 0.931 . S
O1027 Co1003 2.097 . S
O1027 C1055 1.214 . S
H1028 C1056 0.929 . S
H1029 C1057 0.929 . S
H1030 C1058 0.930 . S
H1031 C1059 0.929 . S
H1032 C1061 0.930 . S
H1033 C1038 0.930 . S
H1034 C1042 0.930 . S
O1035 Co1004 2.037 . S
O1035 C1055 1.234 . S
C1036 O1010 1.269 . S
C1036 O1011 1.257 . S
C1037 H1012 0.930 . S
C1037 C1040 1.388 . S
C1037 C1042 1.418 . S
C1038 H1033 0.930 . S
C1038 C1041 1.404 . S
C1038 C1042 1.353 . S
N1039 Co1004 2.145 . S
N1039 C1040 1.397 . S
N1039 C1041 1.334 . S
C1040 H1021 0.929 . S
C1040 C1037 1.388 . S
C1040 N1039 1.397 . S
C1041 H1022 0.929 . S
C1041 C1038 1.404 . S
C1041 N1039 1.334 . S
C1042 H1034 0.930 . S
C1042 C1037 1.418 . S
C1042 C1038 1.353 . S
C1043 H1013 0.930 . S
C1043 N1044 1.330 . S
C1043 C1045 1.446 . S
N1044 Co1003 2.151 . S
N1044 C1043 1.330 . S
N1044 C1048 1.418 . S
C1045 H1024 0.929 . S
C1045 C1043 1.446 . S
C1045 C1046 1.332 . S
C1046 H1026 0.931 . S
C1046 C1045 1.332 . S
C1046 C1047 1.267 . S
C1047 H1015 0.929 . S
C1047 C1046 1.267 . S
C1047 C1048 1.251 . S
C1048 H1018 0.929 . S
C1048 N1044 1.418 . S
C1048 C1047 1.251 . S
C1049 H1016 0.930 . S
C1049 C1051 1.406 . S
C1049 C1054 1.261 . S
C1050 H1017 0.930 . S
C1050 N1052 1.325 . S
C1050 C1053 1.357 . S
C1051 H1019 0.928 . S
C1051 C1049 1.406 . S
C1051 N1052 1.261 . S
N1052 Co1003 2.214 . S
N1052 C1050 1.325 . S
N1052 C1051 1.261 . S
C1053 H1023 0.931 . S
C1053 C1050 1.357 . S
C1053 C1054 1.312 . S
C1054 H1025 0.930 . S
C1054 C1049 1.261 . S
C1054 C1053 1.312 . S
C1055 O1027 1.214 . S
C1055 O1035 1.234 . S
C1056 H1028 0.929 . S
C1056 C1059 1.391 . S
C1056 C1061 1.391 . S
C1057 H1029 0.929 . S
C1057 C1058 1.390 . S
C1057 N1060 1.391 . S
C1058 H1030 0.930 . S
C1058 C1057 1.390 . S
C1058 C1059 1.392 . S
C1059 H1031 0.929 . S
C1059 C1056 1.391 . S
C1059 C1058 1.392 . S
N1060 Co1004 2.257 . S
N1060 C1057 1.391 . S
N1060 C1061 1.388 . S
C1061 H1032 0.930 . S
C1061 C1056 1.391 . S
C1061 N1060 1.388 . S
Co1062 O1064 2.143 . S
Co1062 O1070 2.074 . S
Co1062 O1073 2.093 . S
Co1062 O1086 2.097 . S
Co1062 N1103 2.151 . S
Co1062 N1111 2.214 . S
Co1063 O1064 2.160 . S
Co1063 O1069 2.058 . S
Co1063 O1079 2.057 . S
Co1063 O1094 2.037 . S
Co1063 N1098 2.145 . S
Co1063 N1119 2.257 . S
O1064 Co1062 2.143 . S
O1064 Co1063 2.160 . S
C1065 O1066 1.278 . S
C1065 O1073 1.224 . S
O1066 C1065 1.278 . S
C1067 O1068 1.245 . S
C1067 O1079 1.232 . S
O1068 C1067 1.245 . S
O1069 Co1063 2.058 . S
O1069 C1095 1.269 . S
O1070 Co1062 2.074 . S
O1070 C1095 1.257 . S
H1071 C1096 0.930 . S
H1072 C1102 0.930 . S
O1073 Co1062 2.093 . S
O1073 C1065 1.224 . S
H1074 C1106 0.929 . S
H1075 C1108 0.930 . S
H1076 C1109 0.930 . S
H1077 C1107 0.929 . S
H1078 C1110 0.928 . S
O1079 Co1063 2.057 . S
O1079 C1067 1.232 . S
H1080 C1099 0.929 . S
H1081 C1100 0.929 . S
H1082 C1112 0.931 . S
H1083 C1104 0.929 . S
H1084 C1113 0.930 . S
H1085 C1105 0.931 . S
O1086 Co1062 2.097 . S
O1086 C1114 1.214 . S
H1087 C1115 0.929 . S
H1088 C1116 0.929 . S
H1089 C1117 0.930 . S
H1090 C1118 0.929 . S
H1091 C1120 0.930 . S
H1092 C1097 0.930 . S
H1093 C1101 0.930 . S
O1094 Co1063 2.037 . S
O1094 C1114 1.234 . S
C1095 O1069 1.269 . S
C1095 O1070 1.257 . S
C1096 H1071 0.930 . S
C1096 C1099 1.388 . S
C1096 C1101 1.418 . S
C1097 H1092 0.930 . S
C1097 C1100 1.404 . S
C1097 C1101 1.353 . S
N1098 Co1063 2.145 . S
N1098 C1099 1.397 . S
N1098 C1100 1.334 . S
C1099 H1080 0.929 . S
C1099 C1096 1.388 . S
C1099 N1098 1.397 . S
C1100 H1081 0.929 . S
C1100 C1097 1.404 . S
C1100 N1098 1.334 . S
C1101 H1093 0.930 . S
C1101 C1096 1.418 . S
C1101 C1097 1.353 . S
C1102 H1072 0.930 . S
C1102 N1103 1.330 . S
C1102 C1104 1.446 . S
N1103 Co1062 2.151 . S
N1103 C1102 1.330 . S
N1103 C1107 1.418 . S
C1104 H1083 0.929 . S
C1104 C1102 1.446 . S
C1104 C1105 1.332 . S
C1105 H1085 0.931 . S
C1105 C1104 1.332 . S
C1105 C1106 1.267 . S
C1106 H1074 0.929 . S
C1106 C1105 1.267 . S
C1106 C1107 1.251 . S
C1107 H1077 0.929 . S
C1107 N1103 1.418 . S
C1107 C1106 1.251 . S
C1108 H1075 0.930 . S
C1108 C1110 1.406 . S
C1108 C1113 1.261 . S
C1109 H1076 0.930 . S
C1109 N1111 1.325 . S
C1109 C1112 1.357 . S
C1110 H1078 0.928 . S
C1110 C1108 1.406 . S
C1110 N1111 1.261 . S
N1111 Co1062 2.214 . S
N1111 C1109 1.325 . S
N1111 C1110 1.261 . S
C1112 H1082 0.931 . S
C1112 C1109 1.357 . S
C1112 C1113 1.312 . S
C1113 H1084 0.930 . S
C1113 C1108 1.261 . S
C1113 C1112 1.312 . S
C1114 O1086 1.214 . S
C1114 O1094 1.234 . S
C1115 H1087 0.929 . S
C1115 C1118 1.391 . S
C1115 C1120 1.391 . S
C1116 H1088 0.929 . S
C1116 C1117 1.390 . S
C1116 N1119 1.391 . S
C1117 H1089 0.930 . S
C1117 C1116 1.390 . S
C1117 C1118 1.392 . S
C1118 H1090 0.929 . S
C1118 C1115 1.391 . S
C1118 C1117 1.392 . S
N1119 Co1063 2.257 . S
N1119 C1116 1.391 . S
N1119 C1120 1.388 . S
C1120 H1091 0.930 . S
C1120 C1115 1.391 . S
C1120 N1119 1.388 . S
Co1121 O1123 2.143 . S
Co1121 O1129 2.074 . S
Co1121 O1132 2.093 . S
Co1121 O1145 2.097 . S
Co1121 N1162 2.151 . S
Co1121 N1170 2.214 . S
Co1122 O1123 2.160 . S
Co1122 O1128 2.058 . S
Co1122 O1138 2.057 . S
Co1122 O1153 2.037 . S
Co1122 N1157 2.145 . S
Co1122 N1178 2.257 . S
O1123 Co1121 2.143 . S
O1123 Co1122 2.160 . S
C1124 O1125 1.278 . S
C1124 O1132 1.224 . S
O1125 C1124 1.278 . S
C1126 O1127 1.245 . S
C1126 O1138 1.232 . S
O1127 C1126 1.245 . S
O1128 Co1122 2.058 . S
O1128 C1154 1.269 . S
O1129 Co1121 2.074 . S
O1129 C1154 1.257 . S
H1130 C1155 0.930 . S
H1131 C1161 0.930 . S
O1132 Co1121 2.093 . S
O1132 C1124 1.224 . S
H1133 C1165 0.929 . S
H1134 C1167 0.930 . S
H1135 C1168 0.930 . S
H1136 C1166 0.929 . S
H1137 C1169 0.928 . S
O1138 Co1122 2.057 . S
O1138 C1126 1.232 . S
H1139 C1158 0.929 . S
H1140 C1159 0.929 . S
H1141 C1171 0.931 . S
H1142 C1163 0.929 . S
H1143 C1172 0.930 . S
H1144 C1164 0.931 . S
O1145 Co1121 2.097 . S
O1145 C1173 1.214 . S
H1146 C1174 0.929 . S
H1147 C1175 0.929 . S
H1148 C1176 0.930 1_455 S
H1149 C1177 0.960 . S
H1150 C1179 0.930 . S
H1151 C1156 0.930 . S
H1152 C1160 0.930 . S
O1153 Co1122 2.037 . S
O1153 C1173 1.234 . S
C1154 O1128 1.269 . S
C1154 O1129 1.257 . S
C1155 H1130 0.930 . S
C1155 C1158 1.388 . S
C1155 C1160 1.418 . S
C1156 H1151 0.930 . S
C1156 C1159 1.404 . S
C1156 C1160 1.353 . S
N1157 Co1122 2.145 . S
N1157 C1158 1.397 . S
N1157 C1159 1.334 . S
C1158 H1139 0.929 . S
C1158 C1155 1.388 . S
C1158 N1157 1.397 . S
C1159 H1140 0.929 . S
C1159 C1156 1.404 . S
C1159 N1157 1.334 . S
C1160 H1152 0.930 . S
C1160 C1155 1.418 . S
C1160 C1156 1.353 . S
C1161 H1131 0.930 . S
C1161 N1162 1.330 . S
C1161 C1163 1.446 . S
N1162 Co1121 2.151 . S
N1162 C1161 1.330 . S
N1162 C1166 1.418 . S
C1163 H1142 0.929 . S
C1163 C1161 1.446 . S
C1163 C1164 1.332 . S
C1164 H1144 0.931 . S
C1164 C1163 1.332 . S
C1164 C1165 1.267 . S
C1165 H1133 0.929 . S
C1165 C1164 1.267 . S
C1165 C1166 1.251 . S
C1166 H1136 0.929 . S
C1166 N1162 1.418 . S
C1166 C1165 1.251 . S
C1167 H1134 0.930 . S
C1167 C1169 1.406 . S
C1167 C1172 1.261 . S
C1168 H1135 0.930 . S
C1168 N1170 1.325 . S
C1168 C1171 1.357 . S
C1169 H1137 0.928 . S
C1169 C1167 1.406 . S
C1169 N1170 1.261 . S
N1170 Co1121 2.214 . S
N1170 C1168 1.325 . S
N1170 C1169 1.261 . S
C1171 H1141 0.931 . S
C1171 C1168 1.357 . S
C1171 C1172 1.312 . S
C1172 H1143 0.930 . S
C1172 C1167 1.261 . S
C1172 C1171 1.312 . S
C1173 O1145 1.214 . S
C1173 O1153 1.234 . S
C1174 H1146 0.929 . S
C1174 C1177 1.391 . S
C1174 C1179 1.391 . S
C1175 H1147 0.929 . S
C1175 C1176 1.390 . S
C1175 N1178 1.391 . S
C1176 H1148 0.930 1_655 S
C1176 C1175 1.390 . S
C1176 C1177 1.392 . S
C1177 H1149 0.960 . S
C1177 C1174 1.391 . S
C1177 C1176 1.392 . S
N1178 Co1122 2.257 . S
N1178 C1175 1.391 . S
N1178 C1179 1.388 . S
C1179 H1150 0.930 . S
C1179 C1174 1.391 . S
C1179 N1178 1.388 . S
Co1180 O1182 2.143 . S
Co1180 O1188 2.074 . S
Co1180 O1191 2.093 . S
Co1180 O1204 2.097 . S
Co1180 N1221 2.151 . S
Co1180 N1229 2.214 . S
Co1181 O1182 2.160 . S
Co1181 O1187 2.058 . S
Co1181 O1197 2.057 . S
Co1181 O1212 2.037 . S
Co1181 N1216 2.145 . S
Co1181 N1237 2.257 . S
O1182 Co1180 2.143 . S
O1182 Co1181 2.160 . S
C1183 O1184 1.278 . S
C1183 O1191 1.224 . S
O1184 C1183 1.278 . S
C1185 O1186 1.245 . S
C1185 O1197 1.232 . S
O1186 C1185 1.245 . S
O1187 Co1181 2.058 . S
O1187 C1213 1.269 . S
O1188 Co1180 2.074 . S
O1188 C1213 1.257 . S
H1189 C1214 0.930 . S
H1190 C1220 0.930 . S
O1191 Co1180 2.093 . S
O1191 C1183 1.224 . S
H1192 C1224 0.929 . S
H1193 C1226 0.930 . S
H1194 C1227 0.930 . S
H1195 C1225 0.929 . S
H1196 C1228 0.928 . S
O1197 Co1181 2.057 . S
O1197 C1185 1.232 . S
H1198 C1217 0.929 . S
H1199 C1218 0.929 . S
H1200 C1230 0.931 . S
H1201 C1222 0.929 . S
H1202 C1231 0.930 . S
H1203 C1223 0.931 . S
O1204 Co1180 2.097 . S
O1204 C1232 1.214 . S
H1205 C1233 0.929 . S
H1206 C1234 0.929 . S
H1207 C1235 0.930 . S
H1208 C1236 0.929 . S
H1209 C1238 0.930 . S
H1210 C1215 0.930 . S
H1211 C1219 0.930 . S
O1212 Co1181 2.037 . S
O1212 C1232 1.234 . S
C1213 O1187 1.269 . S
C1213 O1188 1.257 . S
C1214 H1189 0.930 . S
C1214 C1217 1.388 . S
C1214 C1219 1.418 . S
C1215 H1210 0.930 . S
C1215 C1218 1.404 . S
C1215 C1219 1.353 . S
N1216 Co1181 2.145 . S
N1216 C1217 1.397 . S
N1216 C1218 1.334 . S
C1217 H1198 0.929 . S
C1217 C1214 1.388 . S
C1217 N1216 1.397 . S
C1218 H1199 0.929 . S
C1218 C1215 1.404 . S
C1218 N1216 1.334 . S
C1219 H1211 0.930 . S
C1219 C1214 1.418 . S
C1219 C1215 1.353 . S
C1220 H1190 0.930 . S
C1220 N1221 1.330 . S
C1220 C1222 1.446 . S
N1221 Co1180 2.151 . S
N1221 C1220 1.330 . S
N1221 C1225 1.418 . S
C1222 H1201 0.929 . S
C1222 C1220 1.446 . S
C1222 C1223 1.332 . S
C1223 H1203 0.931 . S
C1223 C1222 1.332 . S
C1223 C1224 1.267 . S
C1224 H1192 0.929 . S
C1224 C1223 1.267 . S
C1224 C1225 1.251 . S
C1225 H1195 0.929 . S
C1225 N1221 1.418 . S
C1225 C1224 1.251 . S
C1226 H1193 0.930 . S
C1226 C1228 1.406 . S
C1226 C1231 1.261 . S
C1227 H1194 0.930 . S
C1227 N1229 1.325 . S
C1227 C1230 1.357 . S
C1228 H1196 0.928 . S
C1228 C1226 1.406 . S
C1228 N1229 1.261 . S
N1229 Co1180 2.214 . S
N1229 C1227 1.325 . S
N1229 C1228 1.261 . S
C1230 H1200 0.931 . S
C1230 C1227 1.357 . S
C1230 C1231 1.312 . S
C1231 H1202 0.930 . S
C1231 C1226 1.261 . S
C1231 C1230 1.312 . S
C1232 O1204 1.214 . S
C1232 O1212 1.234 . S
C1233 H1205 0.929 . S
C1233 C1236 1.391 . S
C1233 C1238 1.391 . S
C1234 H1206 0.929 . S
C1234 C1235 1.390 . S
C1234 N1237 1.391 . S
C1235 H1207 0.930 . S
C1235 C1234 1.390 . S
C1235 C1236 1.392 . S
C1236 H1208 0.929 . S
C1236 C1233 1.391 . S
C1236 C1235 1.392 . S
N1237 Co1181 2.257 . S
N1237 C1234 1.391 . S
N1237 C1238 1.388 . S
C1238 H1209 0.930 . S
C1238 C1233 1.391 . S
C1238 N1237 1.388 . S
Co1239 O1241 2.143 . S
Co1239 O1247 2.074 . S
Co1239 O1250 2.093 . S
Co1239 O1263 2.097 . S
Co1239 N1280 2.151 . S
Co1239 N1288 2.214 . S
Co1240 O1241 2.160 . S
Co1240 O1246 2.058 . S
Co1240 O1256 2.057 . S
Co1240 O1271 2.037 . S
Co1240 N1275 2.145 . S
Co1240 N1296 2.257 . S
O1241 Co1239 2.143 . S
O1241 Co1240 2.160 . S
C1242 O1243 1.278 . S
C1242 O1250 1.224 . S
O1243 C1242 1.278 . S
C1244 O1245 1.245 . S
C1244 O1256 1.232 . S
O1245 C1244 1.245 . S
O1246 Co1240 2.058 . S
O1246 C1272 1.269 . S
O1247 Co1239 2.074 . S
O1247 C1272 1.257 . S
H1248 C1273 0.930 . S
H1249 C1279 0.930 . S
O1250 Co1239 2.093 . S
O1250 C1242 1.224 . S
H1251 C1283 0.929 . S
H1252 C1285 0.930 . S
H1253 C1286 0.930 . S
H1254 C1284 0.929 . S
H1255 C1287 0.928 . S
O1256 Co1240 2.057 . S
O1256 C1244 1.232 . S
H1257 C1276 0.929 . S
H1258 C1277 0.929 . S
H1259 C1289 0.931 . S
H1260 C1281 0.929 . S
H1261 C1290 0.930 . S
H1262 C1282 0.931 . S
O1263 Co1239 2.097 . S
O1263 C1291 1.214 . S
H1264 C1292 0.929 . S
H1265 C1293 0.929 . S
H1266 C1294 0.930 1_455 S
H1267 C1295 0.960 . S
H1268 C1297 0.930 . S
H1269 C1274 0.930 . S
H1270 C1278 0.930 . S
O1271 Co1240 2.037 . S
O1271 C1291 1.234 . S
C1272 O1246 1.269 . S
C1272 O1247 1.257 . S
C1273 H1248 0.930 . S
C1273 C1276 1.388 . S
C1273 C1278 1.418 . S
C1274 H1269 0.930 . S
C1274 C1277 1.404 . S
C1274 C1278 1.353 . S
N1275 Co1240 2.145 . S
N1275 C1276 1.397 . S
N1275 C1277 1.334 . S
C1276 H1257 0.929 . S
C1276 C1273 1.388 . S
C1276 N1275 1.397 . S
C1277 H1258 0.929 . S
C1277 C1274 1.404 . S
C1277 N1275 1.334 . S
C1278 H1270 0.930 . S
C1278 C1273 1.418 . S
C1278 C1274 1.353 . S
C1279 H1249 0.930 . S
C1279 N1280 1.330 . S
C1279 C1281 1.446 . S
N1280 Co1239 2.151 . S
N1280 C1279 1.330 . S
N1280 C1284 1.418 . S
C1281 H1260 0.929 . S
C1281 C1279 1.446 . S
C1281 C1282 1.332 . S
C1282 H1262 0.931 . S
C1282 C1281 1.332 . S
C1282 C1283 1.267 . S
C1283 H1251 0.929 . S
C1283 C1282 1.267 . S
C1283 C1284 1.251 . S
C1284 H1254 0.929 . S
C1284 N1280 1.418 . S
C1284 C1283 1.251 . S
C1285 H1252 0.930 . S
C1285 C1287 1.406 . S
C1285 C1290 1.261 . S
C1286 H1253 0.930 . S
C1286 N1288 1.325 . S
C1286 C1289 1.357 . S
C1287 H1255 0.928 . S
C1287 C1285 1.406 . S
C1287 N1288 1.261 . S
N1288 Co1239 2.214 . S
N1288 C1286 1.325 . S
N1288 C1287 1.261 . S
C1289 H1259 0.931 . S
C1289 C1286 1.357 . S
C1289 C1290 1.312 . S
C1290 H1261 0.930 . S
C1290 C1285 1.261 . S
C1290 C1289 1.312 . S
C1291 O1263 1.214 . S
C1291 O1271 1.234 . S
C1292 H1264 0.929 . S
C1292 C1295 1.391 . S
C1292 C1297 1.391 . S
C1293 H1265 0.929 . S
C1293 C1294 1.390 . S
C1293 N1296 1.391 . S
C1294 H1266 0.930 1_655 S
C1294 C1293 1.390 . S
C1294 C1295 1.392 . S
C1295 H1267 0.960 . S
C1295 C1292 1.391 . S
C1295 C1294 1.392 . S
N1296 Co1240 2.257 . S
N1296 C1293 1.391 . S
N1296 C1297 1.388 . S
C1297 H1268 0.930 . S
C1297 C1292 1.391 . S
C1297 N1296 1.388 . S
Co1298 O1300 2.143 . S
Co1298 O1306 2.074 . S
Co1298 O1309 2.093 . S
Co1298 O1322 2.097 . S
Co1298 N1339 2.151 . S
Co1298 N1347 2.214 . S
Co1299 O1300 2.160 . S
Co1299 O1305 2.058 . S
Co1299 O1315 2.057 . S
Co1299 O1330 2.037 . S
Co1299 N1334 2.145 . S
Co1299 N1355 2.257 . S
O1300 Co1298 2.143 . S
O1300 Co1299 2.160 . S
C1301 O1302 1.278 . S
C1301 O1309 1.224 . S
O1302 C1301 1.278 . S
C1303 O1304 1.245 . S
C1303 O1315 1.232 . S
O1304 C1303 1.245 . S
O1305 Co1299 2.058 . S
O1305 C1331 1.269 . S
O1306 Co1298 2.074 . S
O1306 C1331 1.257 . S
H1307 C1332 0.930 . S
H1308 C1338 0.930 . S
O1309 Co1298 2.093 . S
O1309 C1301 1.224 . S
H1310 C1342 0.929 . S
H1311 C1344 0.930 . S
H1312 C1345 0.930 . S
H1313 C1343 0.929 . S
H1314 C1346 0.928 . S
O1315 Co1299 2.057 . S
O1315 C1303 1.232 . S
H1316 C1335 0.929 . S
H1317 C1336 0.929 . S
H1318 C1348 0.931 . S
H1319 C1340 0.929 . S
H1320 C1349 0.930 . S
H1321 C1341 0.931 . S
O1322 Co1298 2.097 . S
O1322 C1350 1.214 . S
H1323 C1351 0.929 . S
H1324 C1352 0.929 . S
H1325 C1353 0.930 . S
H1326 C1354 0.929 . S
H1327 C1356 0.930 . S
H1328 C1333 0.930 . S
H1329 C1337 0.930 . S
O1330 Co1299 2.037 . S
O1330 C1350 1.234 . S
C1331 O1305 1.269 . S
C1331 O1306 1.257 . S
C1332 H1307 0.930 . S
C1332 C1335 1.388 . S
C1332 C1337 1.418 . S
C1333 H1328 0.930 . S
C1333 C1336 1.404 . S
C1333 C1337 1.353 . S
N1334 Co1299 2.145 . S
N1334 C1335 1.397 . S
N1334 C1336 1.334 . S
C1335 H1316 0.929 . S
C1335 C1332 1.388 . S
C1335 N1334 1.397 . S
C1336 H1317 0.929 . S
C1336 C1333 1.404 . S
C1336 N1334 1.334 . S
C1337 H1329 0.930 . S
C1337 C1332 1.418 . S
C1337 C1333 1.353 . S
C1338 H1308 0.930 . S
C1338 N1339 1.330 . S
C1338 C1340 1.446 . S
N1339 Co1298 2.151 . S
N1339 C1338 1.330 . S
N1339 C1343 1.418 . S
C1340 H1319 0.929 . S
C1340 C1338 1.446 . S
C1340 C1341 1.332 . S
C1341 H1321 0.931 . S
C1341 C1340 1.332 . S
C1341 C1342 1.267 . S
C1342 H1310 0.929 . S
C1342 C1341 1.267 . S
C1342 C1343 1.251 . S
C1343 H1313 0.929 . S
C1343 N1339 1.418 . S
C1343 C1342 1.251 . S
C1344 H1311 0.930 . S
C1344 C1346 1.406 . S
C1344 C1349 1.261 . S
C1345 H1312 0.930 . S
C1345 N1347 1.325 . S
C1345 C1348 1.357 . S
C1346 H1314 0.928 . S
C1346 C1344 1.406 . S
C1346 N1347 1.261 . S
N1347 Co1298 2.214 . S
N1347 C1345 1.325 . S
N1347 C1346 1.261 . S
C1348 H1318 0.931 . S
C1348 C1345 1.357 . S
C1348 C1349 1.312 . S
C1349 H1320 0.930 . S
C1349 C1344 1.261 . S
C1349 C1348 1.312 . S
C1350 O1322 1.214 . S
C1350 O1330 1.234 . S
C1351 H1323 0.929 . S
C1351 C1354 1.391 . S
C1351 C1356 1.391 . S
C1352 H1324 0.929 . S
C1352 C1353 1.390 . S
C1352 N1355 1.391 . S
C1353 H1325 0.930 . S
C1353 C1352 1.390 . S
C1353 C1354 1.392 . S
C1354 H1326 0.929 . S
C1354 C1351 1.391 . S
C1354 C1353 1.392 . S
N1355 Co1299 2.257 . S
N1355 C1352 1.391 . S
N1355 C1356 1.388 . S
C1356 H1327 0.930 . S
C1356 C1351 1.391 . S
C1356 N1355 1.388 . S
Co1357 O1359 2.143 . S
Co1357 O1365 2.074 . S
Co1357 O1368 2.093 . S
Co1357 O1381 2.097 . S
Co1357 N1398 2.151 . S
Co1357 N1406 2.214 . S
Co1358 O1359 2.160 . S
Co1358 O1364 2.058 . S
Co1358 O1374 2.057 . S
Co1358 O1389 2.037 . S
Co1358 N1393 2.145 . S
Co1358 N1414 2.257 . S
O1359 Co1357 2.143 . S
O1359 Co1358 2.160 . S
C1360 O1361 1.278 . S
C1360 O1368 1.224 . S
O1361 C1360 1.278 . S
C1362 O1363 1.245 . S
C1362 O1374 1.232 . S
O1363 C1362 1.245 . S
O1364 Co1358 2.058 . S
O1364 C1390 1.269 . S
O1365 Co1357 2.074 . S
O1365 C1390 1.257 . S
H1366 C1391 0.930 . S
H1367 C1397 0.930 . S
O1368 Co1357 2.093 . S
O1368 C1360 1.224 . S
H1369 C1401 0.929 . S
H1370 C1403 0.930 . S
H1371 C1404 0.930 . S
H1372 C1402 0.929 . S
H1373 C1405 0.928 . S
O1374 Co1358 2.057 . S
O1374 C1362 1.232 . S
H1375 C1394 0.929 . S
H1376 C1395 0.929 . S
H1377 C1407 0.931 . S
H1378 C1399 0.929 . S
H1379 C1408 0.930 . S
H1380 C1400 0.931 . S
O1381 Co1357 2.097 . S
O1381 C1409 1.214 . S
H1382 C1410 0.929 . S
H1383 C1411 0.929 . S
H1384 C1412 0.930 . S
H1385 C1413 0.929 . S
H1386 C1415 0.930 . S
H1387 C1392 0.930 . S
H1388 C1396 0.930 . S
O1389 Co1358 2.037 . S
O1389 C1409 1.234 . S
C1390 O1364 1.269 . S
C1390 O1365 1.257 . S
C1391 H1366 0.930 . S
C1391 C1394 1.388 . S
C1391 C1396 1.418 . S
C1392 H1387 0.930 . S
C1392 C1395 1.404 . S
C1392 C1396 1.353 . S
N1393 Co1358 2.145 . S
N1393 C1394 1.397 . S
N1393 C1395 1.334 . S
C1394 H1375 0.929 . S
C1394 C1391 1.388 . S
C1394 N1393 1.397 . S
C1395 H1376 0.929 . S
C1395 C1392 1.404 . S
C1395 N1393 1.334 . S
C1396 H1388 0.930 . S
C1396 C1391 1.418 . S
C1396 C1392 1.353 . S
C1397 H1367 0.930 . S
C1397 N1398 1.330 . S
C1397 C1399 1.446 . S
N1398 Co1357 2.151 . S
N1398 C1397 1.330 . S
N1398 C1402 1.418 . S
C1399 H1378 0.929 . S
C1399 C1397 1.446 . S
C1399 C1400 1.332 . S
C1400 H1380 0.931 . S
C1400 C1399 1.332 . S
C1400 C1401 1.267 . S
C1401 H1369 0.929 . S
C1401 C1400 1.267 . S
C1401 C1402 1.251 . S
C1402 H1372 0.929 . S
C1402 N1398 1.418 . S
C1402 C1401 1.251 . S
C1403 H1370 0.930 . S
C1403 C1405 1.406 . S
C1403 C1408 1.261 . S
C1404 H1371 0.930 . S
C1404 N1406 1.325 . S
C1404 C1407 1.357 . S
C1405 H1373 0.928 . S
C1405 C1403 1.406 . S
C1405 N1406 1.261 . S
N1406 Co1357 2.214 . S
N1406 C1404 1.325 . S
N1406 C1405 1.261 . S
C1407 H1377 0.931 . S
C1407 C1404 1.357 . S
C1407 C1408 1.312 . S
C1408 H1379 0.930 . S
C1408 C1403 1.261 . S
C1408 C1407 1.312 . S
C1409 O1381 1.214 . S
C1409 O1389 1.234 . S
C1410 H1382 0.929 . S
C1410 C1413 1.391 . S
C1410 C1415 1.391 . S
C1411 H1383 0.929 . S
C1411 C1412 1.390 . S
C1411 N1414 1.391 . S
C1412 H1384 0.930 . S
C1412 C1411 1.390 . S
C1412 C1413 1.392 . S
C1413 H1385 0.929 . S
C1413 C1410 1.391 . S
C1413 C1412 1.392 . S
N1414 Co1358 2.257 . S
N1414 C1411 1.391 . S
N1414 C1415 1.388 . S
C1415 H1386 0.930 . S
C1415 C1410 1.391 . S
C1415 N1414 1.388 . S
Co1416 O1418 2.143 . S
Co1416 O1424 2.074 . S
Co1416 O1427 2.093 . S
Co1416 O1440 2.097 . S
Co1416 N1457 2.151 . S
Co1416 N1465 2.214 . S
Co1417 O1418 2.160 . S
Co1417 O1423 2.058 . S
Co1417 O1433 2.057 . S
Co1417 O1448 2.037 . S
Co1417 N1452 2.145 . S
Co1417 N1473 2.257 . S
O1418 Co1416 2.143 . S
O1418 Co1417 2.160 . S
C1419 O1420 1.278 . S
C1419 O1427 1.224 . S
O1420 C1419 1.278 . S
C1421 O1422 1.245 . S
C1421 O1433 1.232 . S
O1422 C1421 1.245 . S
O1423 Co1417 2.058 . S
O1423 C1449 1.269 . S
O1424 Co1416 2.074 . S
O1424 C1449 1.257 . S
H1425 C1450 0.930 . S
H1426 C1456 0.930 . S
O1427 Co1416 2.093 . S
O1427 C1419 1.224 . S
H1428 C1460 0.929 . S
H1429 C1462 0.930 . S
H1430 C1463 0.930 . S
H1431 C1461 0.929 . S
H1432 C1464 0.928 . S
O1433 Co1417 2.057 . S
O1433 C1421 1.232 . S
H1434 C1453 0.929 . S
H1435 C1454 0.929 . S
H1436 C1466 0.931 . S
H1437 C1458 0.929 . S
H1438 C1467 0.930 . S
H1439 C1459 0.931 . S
O1440 Co1416 2.097 . S
O1440 C1468 1.214 . S
H1441 C1469 0.929 . S
H1442 C1470 0.929 . S
H1443 C1471 0.930 . S
H1444 C1472 0.929 . S
H1445 C1474 0.930 . S
H1446 C1451 0.930 . S
H1447 C1455 0.930 . S
O1448 Co1417 2.037 . S
O1448 C1468 1.234 . S
C1449 O1423 1.269 . S
C1449 O1424 1.257 . S
C1450 H1425 0.930 . S
C1450 C1453 1.388 . S
C1450 C1455 1.418 . S
C1451 H1446 0.930 . S
C1451 C1454 1.404 . S
C1451 C1455 1.353 . S
N1452 Co1417 2.145 . S
N1452 C1453 1.397 . S
N1452 C1454 1.334 . S
C1453 H1434 0.929 . S
C1453 C1450 1.388 . S
C1453 N1452 1.397 . S
C1454 H1435 0.929 . S
C1454 C1451 1.404 . S
C1454 N1452 1.334 . S
C1455 H1447 0.930 . S
C1455 C1450 1.418 . S
C1455 C1451 1.353 . S
C1456 H1426 0.930 . S
C1456 N1457 1.330 . S
C1456 C1458 1.446 . S
N1457 Co1416 2.151 . S
N1457 C1456 1.330 . S
N1457 C1461 1.418 . S
C1458 H1437 0.929 . S
C1458 C1456 1.446 . S
C1458 C1459 1.332 . S
C1459 H1439 0.931 . S
C1459 C1458 1.332 . S
C1459 C1460 1.267 . S
C1460 H1428 0.929 . S
C1460 C1459 1.267 . S
C1460 C1461 1.251 . S
C1461 H1431 0.929 . S
C1461 N1457 1.418 . S
C1461 C1460 1.251 . S
C1462 H1429 0.930 . S
C1462 C1464 1.406 . S
C1462 C1467 1.261 . S
C1463 H1430 0.930 . S
C1463 N1465 1.325 . S
C1463 C1466 1.357 . S
C1464 H1432 0.928 . S
C1464 C1462 1.406 . S
C1464 N1465 1.261 . S
N1465 Co1416 2.214 . S
N1465 C1463 1.325 . S
N1465 C1464 1.261 . S
C1466 H1436 0.931 . S
C1466 C1463 1.357 . S
C1466 C1467 1.312 . S
C1467 H1438 0.930 . S
C1467 C1462 1.261 . S
C1467 C1466 1.312 . S
C1468 O1440 1.214 . S
C1468 O1448 1.234 . S
C1469 H1441 0.929 . S
C1469 C1472 1.391 . S
C1469 C1474 1.391 . S
C1470 H1442 0.929 . S
C1470 C1471 1.390 . S
C1470 N1473 1.391 . S
C1471 H1443 0.930 . S
C1471 C1470 1.390 . S
C1471 C1472 1.392 . S
C1472 H1444 0.929 . S
C1472 C1469 1.391 . S
C1472 C1471 1.392 . S
N1473 Co1417 2.257 . S
N1473 C1470 1.391 . S
N1473 C1474 1.388 . S
C1474 H1445 0.930 . S
C1474 C1469 1.391 . S
C1474 N1473 1.388 . S
Co1475 O1477 2.143 . S
Co1475 O1483 2.074 . S
Co1475 O1486 2.093 . S
Co1475 O1499 2.097 . S
Co1475 N1516 2.151 . S
Co1475 N1524 2.214 . S
Co1476 O1477 2.160 . S
Co1476 O1482 2.058 . S
Co1476 O1492 2.057 . S
Co1476 O1507 2.037 . S
Co1476 N1511 2.145 . S
Co1476 N1532 2.257 . S
O1477 Co1475 2.143 . S
O1477 Co1476 2.160 . S
C1478 O1479 1.278 . S
C1478 O1486 1.224 . S
O1479 C1478 1.278 . S
C1480 O1481 1.245 . S
C1480 O1492 1.232 . S
O1481 C1480 1.245 . S
O1482 Co1476 2.058 . S
O1482 C1508 1.269 . S
O1483 Co1475 2.074 . S
O1483 C1508 1.257 . S
H1484 C1509 0.930 . S
H1485 C1515 0.930 . S
O1486 Co1475 2.093 . S
O1486 C1478 1.224 . S
H1487 C1519 0.929 . S
H1488 C1521 0.930 . S
H1489 C1522 0.930 . S
H1490 C1520 0.929 . S
H1491 C1523 0.928 . S
O1492 Co1476 2.057 . S
O1492 C1480 1.232 . S
H1493 C1512 0.929 . S
H1494 C1513 0.929 . S
H1495 C1525 0.931 . S
H1496 C1517 0.929 . S
H1497 C1526 0.930 . S
H1498 C1518 0.931 . S
O1499 Co1475 2.097 . S
O1499 C1527 1.214 . S
H1500 C1528 0.929 . S
H1501 C1529 0.929 . S
H1502 C1530 0.930 . S
H1503 C1531 0.929 . S
H1504 C1533 0.930 . S
H1505 C1510 0.930 . S
H1506 C1514 0.930 . S
O1507 Co1476 2.037 . S
O1507 C1527 1.234 . S
C1508 O1482 1.269 . S
C1508 O1483 1.257 . S
C1509 H1484 0.930 . S
C1509 C1512 1.388 . S
C1509 C1514 1.418 . S
C1510 H1505 0.930 . S
C1510 C1513 1.404 . S
C1510 C1514 1.353 . S
N1511 Co1476 2.145 . S
N1511 C1512 1.397 . S
N1511 C1513 1.334 . S
C1512 H1493 0.929 . S
C1512 C1509 1.388 . S
C1512 N1511 1.397 . S
C1513 H1494 0.929 . S
C1513 C1510 1.404 . S
C1513 N1511 1.334 . S
C1514 H1506 0.930 . S
C1514 C1509 1.418 . S
C1514 C1510 1.353 . S
C1515 H1485 0.930 . S
C1515 N1516 1.330 . S
C1515 C1517 1.446 . S
N1516 Co1475 2.151 . S
N1516 C1515 1.330 . S
N1516 C1520 1.418 . S
C1517 H1496 0.929 . S
C1517 C1515 1.446 . S
C1517 C1518 1.332 . S
C1518 H1498 0.931 . S
C1518 C1517 1.332 . S
C1518 C1519 1.267 . S
C1519 H1487 0.929 . S
C1519 C1518 1.267 . S
C1519 C1520 1.251 . S
C1520 H1490 0.929 . S
C1520 N1516 1.418 . S
C1520 C1519 1.251 . S
C1521 H1488 0.930 . S
C1521 C1523 1.406 . S
C1521 C1526 1.261 . S
C1522 H1489 0.930 . S
C1522 N1524 1.325 . S
C1522 C1525 1.357 . S
C1523 H1491 0.928 . S
C1523 C1521 1.406 . S
C1523 N1524 1.261 . S
N1524 Co1475 2.214 . S
N1524 C1522 1.325 . S
N1524 C1523 1.261 . S
C1525 H1495 0.931 . S
C1525 C1522 1.357 . S
C1525 C1526 1.312 . S
C1526 H1497 0.930 . S
C1526 C1521 1.261 . S
C1526 C1525 1.312 . S
C1527 O1499 1.214 . S
C1527 O1507 1.234 . S
C1528 H1500 0.929 . S
C1528 C1531 1.391 . S
C1528 C1533 1.391 . S
C1529 H1501 0.929 . S
C1529 C1530 1.390 . S
C1529 N1532 1.391 . S
C1530 H1502 0.930 . S
C1530 C1529 1.390 . S
C1530 C1531 1.392 . S
C1531 H1503 0.929 . S
C1531 C1528 1.391 . S
C1531 C1530 1.392 . S
N1532 Co1476 2.257 . S
N1532 C1529 1.391 . S
N1532 C1533 1.388 . S
C1533 H1504 0.930 . S
C1533 C1528 1.391 . S
C1533 N1532 1.388 . S
Co1534 O1536 2.143 . S
Co1534 O1542 2.074 . S
Co1534 O1545 2.093 . S
Co1534 O1558 2.097 . S
Co1534 N1575 2.151 . S
Co1534 N1583 2.214 . S
Co1535 O1536 2.160 . S
Co1535 O1541 2.058 . S
Co1535 O1551 2.057 . S
Co1535 O1566 2.037 . S
Co1535 N1570 2.145 . S
Co1535 N1591 2.257 . S
O1536 Co1534 2.143 . S
O1536 Co1535 2.160 . S
C1537 O1538 1.278 . S
C1537 O1545 1.224 . S
O1538 C1537 1.278 . S
C1539 O1540 1.245 . S
C1539 O1551 1.232 . S
O1540 C1539 1.245 . S
O1541 Co1535 2.058 . S
O1541 C1567 1.269 . S
O1542 Co1534 2.074 . S
O1542 C1567 1.257 . S
H1543 C1568 0.930 . S
H1544 C1574 0.930 . S
O1545 Co1534 2.093 . S
O1545 C1537 1.224 . S
H1546 C1578 0.929 . S
H1547 C1580 0.930 . S
H1548 C1581 0.930 . S
H1549 C1579 0.929 . S
H1550 C1582 0.928 . S
O1551 Co1535 2.057 . S
O1551 C1539 1.232 . S
H1552 C1571 0.929 . S
H1553 C1572 0.929 . S
H1554 C1584 0.931 . S
H1555 C1576 0.929 . S
H1556 C1585 0.930 . S
H1557 C1577 0.931 . S
O1558 Co1534 2.097 . S
O1558 C1586 1.214 . S
H1559 C1587 0.929 . S
H1560 C1588 0.929 . S
H1561 C1589 0.930 . S
H1562 C1590 0.929 . S
H1563 C1592 0.930 . S
H1564 C1569 0.930 . S
H1565 C1573 0.930 . S
O1566 Co1535 2.037 . S
O1566 C1586 1.234 . S
C1567 O1541 1.269 . S
C1567 O1542 1.257 . S
C1568 H1543 0.930 . S
C1568 C1571 1.388 . S
C1568 C1573 1.418 . S
C1569 H1564 0.930 . S
C1569 C1572 1.404 . S
C1569 C1573 1.353 . S
N1570 Co1535 2.145 . S
N1570 C1571 1.397 . S
N1570 C1572 1.334 . S
C1571 H1552 0.929 . S
C1571 C1568 1.388 . S
C1571 N1570 1.397 . S
C1572 H1553 0.929 . S
C1572 C1569 1.404 . S
C1572 N1570 1.334 . S
C1573 H1565 0.930 . S
C1573 C1568 1.418 . S
C1573 C1569 1.353 . S
C1574 H1544 0.930 . S
C1574 N1575 1.330 . S
C1574 C1576 1.446 . S
N1575 Co1534 2.151 . S
N1575 C1574 1.330 . S
N1575 C1579 1.418 . S
C1576 H1555 0.929 . S
C1576 C1574 1.446 . S
C1576 C1577 1.332 . S
C1577 H1557 0.931 . S
C1577 C1576 1.332 . S
C1577 C1578 1.267 . S
C1578 H1546 0.929 . S
C1578 C1577 1.267 . S
C1578 C1579 1.251 . S
C1579 H1549 0.929 . S
C1579 N1575 1.418 . S
C1579 C1578 1.251 . S
C1580 H1547 0.930 . S
C1580 C1582 1.406 . S
C1580 C1585 1.261 . S
C1581 H1548 0.930 . S
C1581 N1583 1.325 . S
C1581 C1584 1.357 . S
C1582 H1550 0.928 . S
C1582 C1580 1.406 . S
C1582 N1583 1.261 . S
N1583 Co1534 2.214 . S
N1583 C1581 1.325 . S
N1583 C1582 1.261 . S
C1584 H1554 0.931 . S
C1584 C1581 1.357 . S
C1584 C1585 1.312 . S
C1585 H1556 0.930 . S
C1585 C1580 1.261 . S
C1585 C1584 1.312 . S
C1586 O1558 1.214 . S
C1586 O1566 1.234 . S
C1587 H1559 0.929 . S
C1587 C1590 1.391 . S
C1587 C1592 1.391 . S
C1588 H1560 0.929 . S
C1588 C1589 1.390 . S
C1588 N1591 1.391 . S
C1589 H1561 0.930 . S
C1589 C1588 1.390 . S
C1589 C1590 1.392 . S
C1590 H1562 0.929 . S
C1590 C1587 1.391 . S
C1590 C1589 1.392 . S
N1591 Co1535 2.257 . S
N1591 C1588 1.391 . S
N1591 C1592 1.388 . S
C1592 H1563 0.930 . S
C1592 C1587 1.391 . S
C1592 N1591 1.388 . S
Co1593 O1595 2.143 . S
Co1593 O1601 2.074 . S
Co1593 O1604 2.093 . S
Co1593 O1617 2.097 . S
Co1593 N1634 2.151 . S
Co1593 N1642 2.214 . S
Co1594 O1595 2.160 . S
Co1594 O1600 2.058 . S
Co1594 O1610 2.057 . S
Co1594 O1625 2.037 . S
Co1594 N1629 2.145 . S
Co1594 N1650 2.257 . S
O1595 Co1593 2.143 . S
O1595 Co1594 2.160 . S
C1596 O1597 1.278 . S
C1596 O1604 1.224 . S
O1597 C1596 1.278 . S
C1598 O1599 1.245 . S
C1598 O1610 1.232 . S
O1599 C1598 1.245 . S
O1600 Co1594 2.058 . S
O1600 C1626 1.269 . S
O1601 Co1593 2.074 . S
O1601 C1626 1.257 . S
H1602 C1627 0.930 . S
H1603 C1633 0.930 . S
O1604 Co1593 2.093 . S
O1604 C1596 1.224 . S
H1605 C1637 0.929 . S
H1606 C1639 0.930 . S
H1607 C1640 0.930 . S
H1608 C1638 0.929 . S
H1609 C1641 0.928 . S
O1610 Co1594 2.057 . S
O1610 C1598 1.232 . S
H1611 C1630 0.929 . S
H1612 C1631 0.929 . S
H1613 C1643 0.931 . S
H1614 C1635 0.929 . S
H1615 C1644 0.930 . S
H1616 C1636 0.931 . S
O1617 Co1593 2.097 . S
O1617 C1645 1.214 . S
H1618 C1646 0.929 . S
H1619 C1647 0.929 . S
H1620 C1648 0.930 1_655 S
H1621 C1649 0.960 . S
H1622 C1651 0.930 . S
H1623 C1628 0.930 . S
H1624 C1632 0.930 . S
O1625 Co1594 2.037 . S
O1625 C1645 1.234 . S
C1626 O1600 1.269 . S
C1626 O1601 1.257 . S
C1627 H1602 0.930 . S
C1627 C1630 1.388 . S
C1627 C1632 1.418 . S
C1628 H1623 0.930 . S
C1628 C1631 1.404 . S
C1628 C1632 1.353 . S
N1629 Co1594 2.145 . S
N1629 C1630 1.397 . S
N1629 C1631 1.334 . S
C1630 H1611 0.929 . S
C1630 C1627 1.388 . S
C1630 N1629 1.397 . S
C1631 H1612 0.929 . S
C1631 C1628 1.404 . S
C1631 N1629 1.334 . S
C1632 H1624 0.930 . S
C1632 C1627 1.418 . S
C1632 C1628 1.353 . S
C1633 H1603 0.930 . S
C1633 N1634 1.330 . S
C1633 C1635 1.446 . S
N1634 Co1593 2.151 . S
N1634 C1633 1.330 . S
N1634 C1638 1.418 . S
C1635 H1614 0.929 . S
C1635 C1633 1.446 . S
C1635 C1636 1.332 . S
C1636 H1616 0.931 . S
C1636 C1635 1.332 . S
C1636 C1637 1.267 . S
C1637 H1605 0.929 . S
C1637 C1636 1.267 . S
C1637 C1638 1.251 . S
C1638 H1608 0.929 . S
C1638 N1634 1.418 . S
C1638 C1637 1.251 . S
C1639 H1606 0.930 . S
C1639 C1641 1.406 . S
C1639 C1644 1.261 . S
C1640 H1607 0.930 . S
C1640 N1642 1.325 . S
C1640 C1643 1.357 . S
C1641 H1609 0.928 . S
C1641 C1639 1.406 . S
C1641 N1642 1.261 . S
N1642 Co1593 2.214 . S
N1642 C1640 1.325 . S
N1642 C1641 1.261 . S
C1643 H1613 0.931 . S
C1643 C1640 1.357 . S
C1643 C1644 1.312 . S
C1644 H1615 0.930 . S
C1644 C1639 1.261 . S
C1644 C1643 1.312 . S
C1645 O1617 1.214 . S
C1645 O1625 1.234 . S
C1646 H1618 0.929 . S
C1646 C1649 1.391 . S
C1646 C1651 1.391 . S
C1647 H1619 0.929 . S
C1647 C1648 1.390 . S
C1647 N1650 1.391 . S
C1648 H1620 0.930 1_455 S
C1648 C1647 1.390 . S
C1648 C1649 1.392 . S
C1649 H1621 0.960 . S
C1649 C1646 1.391 . S
C1649 C1648 1.392 . S
N1650 Co1594 2.257 . S
N1650 C1647 1.391 . S
N1650 C1651 1.388 . S
C1651 H1622 0.930 . S
C1651 C1646 1.391 . S
C1651 N1650 1.388 . S
Co1652 O1654 2.143 . S
Co1652 O1660 2.074 . S
Co1652 O1663 2.093 . S
Co1652 O1676 2.097 . S
Co1652 N1693 2.151 . S
Co1652 N1701 2.214 . S
Co1653 O1654 2.160 . S
Co1653 O1659 2.058 . S
Co1653 O1669 2.057 . S
Co1653 O1684 2.037 . S
Co1653 N1688 2.145 . S
Co1653 N1709 2.257 . S
O1654 Co1652 2.143 . S
O1654 Co1653 2.160 . S
C1655 O1656 1.278 . S
C1655 O1663 1.224 . S
O1656 C1655 1.278 . S
C1657 O1658 1.245 . S
C1657 O1669 1.232 . S
O1658 C1657 1.245 . S
O1659 Co1653 2.058 . S
O1659 C1685 1.269 . S
O1660 Co1652 2.074 . S
O1660 C1685 1.257 . S
H1661 C1686 0.930 . S
H1662 C1692 0.930 . S
O1663 Co1652 2.093 . S
O1663 C1655 1.224 . S
H1664 C1696 0.929 . S
H1665 C1698 0.930 . S
H1666 C1699 0.930 . S
H1667 C1697 0.929 . S
H1668 C1700 0.928 . S
O1669 Co1653 2.057 . S
O1669 C1657 1.232 . S
H1670 C1689 0.929 . S
H1671 C1690 0.929 . S
H1672 C1702 0.931 . S
H1673 C1694 0.929 . S
H1674 C1703 0.930 . S
H1675 C1695 0.931 . S
O1676 Co1652 2.097 . S
O1676 C1704 1.214 . S
H1677 C1705 0.929 . S
H1678 C1706 0.929 . S
H1679 C1707 0.930 . S
H1680 C1708 0.929 . S
H1681 C1710 0.930 . S
H1682 C1687 0.930 . S
H1683 C1691 0.930 . S
O1684 Co1653 2.037 . S
O1684 C1704 1.234 . S
C1685 O1659 1.269 . S
C1685 O1660 1.257 . S
C1686 H1661 0.930 . S
C1686 C1689 1.388 . S
C1686 C1691 1.418 . S
C1687 H1682 0.930 . S
C1687 C1690 1.404 . S
C1687 C1691 1.353 . S
N1688 Co1653 2.145 . S
N1688 C1689 1.397 . S
N1688 C1690 1.334 . S
C1689 H1670 0.929 . S
C1689 C1686 1.388 . S
C1689 N1688 1.397 . S
C1690 H1671 0.929 . S
C1690 C1687 1.404 . S
C1690 N1688 1.334 . S
C1691 H1683 0.930 . S
C1691 C1686 1.418 . S
C1691 C1687 1.353 . S
C1692 H1662 0.930 . S
C1692 N1693 1.330 . S
C1692 C1694 1.446 . S
N1693 Co1652 2.151 . S
N1693 C1692 1.330 . S
N1693 C1697 1.418 . S
C1694 H1673 0.929 . S
C1694 C1692 1.446 . S
C1694 C1695 1.332 . S
C1695 H1675 0.931 . S
C1695 C1694 1.332 . S
C1695 C1696 1.267 . S
C1696 H1664 0.929 . S
C1696 C1695 1.267 . S
C1696 C1697 1.251 . S
C1697 H1667 0.929 . S
C1697 N1693 1.418 . S
C1697 C1696 1.251 . S
C1698 H1665 0.930 . S
C1698 C1700 1.406 . S
C1698 C1703 1.261 . S
C1699 H1666 0.930 . S
C1699 N1701 1.325 . S
C1699 C1702 1.357 . S
C1700 H1668 0.928 . S
C1700 C1698 1.406 . S
C1700 N1701 1.261 . S
N1701 Co1652 2.214 . S
N1701 C1699 1.325 . S
N1701 C1700 1.261 . S
C1702 H1672 0.931 . S
C1702 C1699 1.357 . S
C1702 C1703 1.312 . S
C1703 H1674 0.930 . S
C1703 C1698 1.261 . S
C1703 C1702 1.312 . S
C1704 O1676 1.214 . S
C1704 O1684 1.234 . S
C1705 H1677 0.929 . S
C1705 C1708 1.391 . S
C1705 C1710 1.391 . S
C1706 H1678 0.929 . S
C1706 C1707 1.390 . S
C1706 N1709 1.391 . S
C1707 H1679 0.930 . S
C1707 C1706 1.390 . S
C1707 C1708 1.392 . S
C1708 H1680 0.929 . S
C1708 C1705 1.391 . S
C1708 C1707 1.392 . S
N1709 Co1653 2.257 . S
N1709 C1706 1.391 . S
N1709 C1710 1.388 . S
C1710 H1681 0.930 . S
C1710 C1705 1.391 . S
C1710 N1709 1.388 . S
Co1711 O1713 2.143 . S
Co1711 O1719 2.074 . S
Co1711 O1722 2.093 . S
Co1711 O1735 2.097 . S
Co1711 N1752 2.151 . S
Co1711 N1760 2.214 . S
Co1712 O1713 2.160 . S
Co1712 O1718 2.058 . S
Co1712 O1728 2.057 . S
Co1712 O1743 2.037 . S
Co1712 N1747 2.145 . S
Co1712 N1768 2.257 . S
O1713 Co1711 2.143 . S
O1713 Co1712 2.160 . S
C1714 O1715 1.278 . S
C1714 O1722 1.224 . S
O1715 C1714 1.278 . S
C1716 O1717 1.245 . S
C1716 O1728 1.232 . S
O1717 C1716 1.245 . S
O1718 Co1712 2.058 . S
O1718 C1744 1.269 . S
O1719 Co1711 2.074 . S
O1719 C1744 1.257 . S
H1720 C1745 0.930 . S
H1721 C1751 0.930 . S
O1722 Co1711 2.093 . S
O1722 C1714 1.224 . S
H1723 C1755 0.929 . S
H1724 C1757 0.930 . S
H1725 C1758 0.930 . S
H1726 C1756 0.929 . S
H1727 C1759 0.928 . S
O1728 Co1712 2.057 . S
O1728 C1716 1.232 . S
H1729 C1748 0.929 . S
H1730 C1749 0.929 . S
H1731 C1761 0.931 . S
H1732 C1753 0.929 . S
H1733 C1762 0.930 . S
H1734 C1754 0.931 . S
O1735 Co1711 2.097 . S
O1735 C1763 1.214 . S
H1736 C1764 0.929 . S
H1737 C1765 0.929 . S
H1738 C1766 0.930 1_655 S
H1739 C1767 0.960 . S
H1740 C1769 0.930 . S
H1741 C1746 0.930 . S
H1742 C1750 0.930 . S
O1743 Co1712 2.037 . S
O1743 C1763 1.234 . S
C1744 O1718 1.269 . S
C1744 O1719 1.257 . S
C1745 H1720 0.930 . S
C1745 C1748 1.388 . S
C1745 C1750 1.418 . S
C1746 H1741 0.930 . S
C1746 C1749 1.404 . S
C1746 C1750 1.353 . S
N1747 Co1712 2.145 . S
N1747 C1748 1.397 . S
N1747 C1749 1.334 . S
C1748 H1729 0.929 . S
C1748 C1745 1.388 . S
C1748 N1747 1.397 . S
C1749 H1730 0.929 . S
C1749 C1746 1.404 . S
C1749 N1747 1.334 . S
C1750 H1742 0.930 . S
C1750 C1745 1.418 . S
C1750 C1746 1.353 . S
C1751 H1721 0.930 . S
C1751 N1752 1.330 . S
C1751 C1753 1.446 . S
N1752 Co1711 2.151 . S
N1752 C1751 1.330 . S
N1752 C1756 1.418 . S
C1753 H1732 0.929 . S
C1753 C1751 1.446 . S
C1753 C1754 1.332 . S
C1754 H1734 0.931 . S
C1754 C1753 1.332 . S
C1754 C1755 1.267 . S
C1755 H1723 0.929 . S
C1755 C1754 1.267 . S
C1755 C1756 1.251 . S
C1756 H1726 0.929 . S
C1756 N1752 1.418 . S
C1756 C1755 1.251 . S
C1757 H1724 0.930 . S
C1757 C1759 1.406 . S
C1757 C1762 1.261 . S
C1758 H1725 0.930 . S
C1758 N1760 1.325 . S
C1758 C1761 1.357 . S
C1759 H1727 0.928 . S
C1759 C1757 1.406 . S
C1759 N1760 1.261 . S
N1760 Co1711 2.214 . S
N1760 C1758 1.325 . S
N1760 C1759 1.261 . S
C1761 H1731 0.931 . S
C1761 C1758 1.357 . S
C1761 C1762 1.312 . S
C1762 H1733 0.930 . S
C1762 C1757 1.261 . S
C1762 C1761 1.312 . S
C1763 O1735 1.214 . S
C1763 O1743 1.234 . S
C1764 H1736 0.929 . S
C1764 C1767 1.391 . S
C1764 C1769 1.391 . S
C1765 H1737 0.929 . S
C1765 C1766 1.390 . S
C1765 N1768 1.391 . S
C1766 H1738 0.930 1_455 S
C1766 C1765 1.390 . S
C1766 C1767 1.392 . S
C1767 H1739 0.960 . S
C1767 C1764 1.391 . S
C1767 C1766 1.392 . S
N1768 Co1712 2.257 . S
N1768 C1765 1.391 . S
N1768 C1769 1.388 . S
C1769 H1740 0.930 . S
C1769 C1764 1.391 . S
C1769 N1768 1.388 . S
Co1770 O1772 2.143 . S
Co1770 O1778 2.074 . S
Co1770 O1781 2.093 . S
Co1770 O1794 2.097 . S
Co1770 N1811 2.151 . S
Co1770 N1819 2.214 . S
Co1771 O1772 2.160 . S
Co1771 O1777 2.058 . S
Co1771 O1787 2.057 . S
Co1771 O1802 2.037 . S
Co1771 N1806 2.145 . S
Co1771 N1827 2.257 . S
O1772 Co1770 2.143 . S
O1772 Co1771 2.160 . S
C1773 O1774 1.278 . S
C1773 O1781 1.224 . S
O1774 C1773 1.278 . S
C1775 O1776 1.245 . S
C1775 O1787 1.232 . S
O1776 C1775 1.245 . S
O1777 Co1771 2.058 . S
O1777 C1803 1.269 . S
O1778 Co1770 2.074 . S
O1778 C1803 1.257 . S
H1779 C1804 0.930 . S
H1780 C1810 0.930 . S
O1781 Co1770 2.093 . S
O1781 C1773 1.224 . S
H1782 C1814 0.929 . S
H1783 C1816 0.930 . S
H1784 C1817 0.930 . S
H1785 C1815 0.929 . S
H1786 C1818 0.928 . S
O1787 Co1771 2.057 . S
O1787 C1775 1.232 . S
H1788 C1807 0.929 . S
H1789 C1808 0.929 . S
H1790 C1820 0.931 . S
H1791 C1812 0.929 . S
H1792 C1821 0.930 . S
H1793 C1813 0.931 . S
O1794 Co1770 2.097 . S
O1794 C1822 1.214 . S
H1795 C1823 0.929 . S
H1796 C1824 0.929 . S
H1797 C1825 0.930 . S
H1798 C1826 0.929 . S
H1799 C1828 0.930 . S
H1800 C1805 0.930 . S
H1801 C1809 0.930 . S
O1802 Co1771 2.037 . S
O1802 C1822 1.234 . S
C1803 O1777 1.269 . S
C1803 O1778 1.257 . S
C1804 H1779 0.930 . S
C1804 C1807 1.388 . S
C1804 C1809 1.418 . S
C1805 H1800 0.930 . S
C1805 C1808 1.404 . S
C1805 C1809 1.353 . S
N1806 Co1771 2.145 . S
N1806 C1807 1.397 . S
N1806 C1808 1.334 . S
C1807 H1788 0.929 . S
C1807 C1804 1.388 . S
C1807 N1806 1.397 . S
C1808 H1789 0.929 . S
C1808 C1805 1.404 . S
C1808 N1806 1.334 . S
C1809 H1801 0.930 . S
C1809 C1804 1.418 . S
C1809 C1805 1.353 . S
C1810 H1780 0.930 . S
C1810 N1811 1.330 . S
C1810 C1812 1.446 . S
N1811 Co1770 2.151 . S
N1811 C1810 1.330 . S
N1811 C1815 1.418 . S
C1812 H1791 0.929 . S
C1812 C1810 1.446 . S
C1812 C1813 1.332 . S
C1813 H1793 0.931 . S
C1813 C1812 1.332 . S
C1813 C1814 1.267 . S
C1814 H1782 0.929 . S
C1814 C1813 1.267 . S
C1814 C1815 1.251 . S
C1815 H1785 0.929 . S
C1815 N1811 1.418 . S
C1815 C1814 1.251 . S
C1816 H1783 0.930 . S
C1816 C1818 1.406 . S
C1816 C1821 1.261 . S
C1817 H1784 0.930 . S
C1817 N1819 1.325 . S
C1817 C1820 1.357 . S
C1818 H1786 0.928 . S
C1818 C1816 1.406 . S
C1818 N1819 1.261 . S
N1819 Co1770 2.214 . S
N1819 C1817 1.325 . S
N1819 C1818 1.261 . S
C1820 H1790 0.931 . S
C1820 C1817 1.357 . S
C1820 C1821 1.312 . S
C1821 H1792 0.930 . S
C1821 C1816 1.261 . S
C1821 C1820 1.312 . S
C1822 O1794 1.214 . S
C1822 O1802 1.234 . S
C1823 H1795 0.929 . S
C1823 C1826 1.391 . S
C1823 C1828 1.391 . S
C1824 H1796 0.929 . S
C1824 C1825 1.390 . S
C1824 N1827 1.391 . S
C1825 H1797 0.930 . S
C1825 C1824 1.390 . S
C1825 C1826 1.392 . S
C1826 H1798 0.929 . S
C1826 C1823 1.391 . S
C1826 C1825 1.392 . S
N1827 Co1771 2.257 . S
N1827 C1824 1.391 . S
N1827 C1828 1.388 . S
C1828 H1799 0.930 . S
C1828 C1823 1.391 . S
C1828 N1827 1.388 . S
Co1829 O1831 2.143 . S
Co1829 O1837 2.074 . S
Co1829 O1840 2.093 . S
Co1829 O1853 2.097 . S
Co1829 N1870 2.151 . S
Co1829 N1878 2.214 . S
Co1830 O1831 2.160 . S
Co1830 O1836 2.058 . S
Co1830 O1846 2.057 . S
Co1830 O1861 2.037 . S
Co1830 N1865 2.145 . S
Co1830 N1886 2.257 . S
O1831 Co1829 2.143 . S
O1831 Co1830 2.160 . S
C1832 O1833 1.278 . S
C1832 O1840 1.224 . S
O1833 C1832 1.278 . S
C1834 O1835 1.245 . S
C1834 O1846 1.232 . S
O1835 C1834 1.245 . S
O1836 Co1830 2.058 . S
O1836 C1862 1.269 . S
O1837 Co1829 2.074 . S
O1837 C1862 1.257 . S
H1838 C1863 0.930 . S
H1839 C1869 0.930 . S
O1840 Co1829 2.093 . S
O1840 C1832 1.224 . S
H1841 C1873 0.929 . S
H1842 C1875 0.930 . S
H1843 C1876 0.930 . S
H1844 C1874 0.929 . S
H1845 C1877 0.928 . S
O1846 Co1830 2.057 . S
O1846 C1834 1.232 . S
H1847 C1866 0.929 . S
H1848 C1867 0.929 . S
H1849 C1879 0.931 . S
H1850 C1871 0.929 . S
H1851 C1880 0.930 . S
H1852 C1872 0.931 . S
O1853 Co1829 2.097 . S
O1853 C1881 1.214 . S
H1854 C1882 0.929 . S
H1855 C1883 0.929 . S
H1856 C1884 0.930 . S
H1857 C1885 0.929 . S
H1858 C1887 0.930 . S
H1859 C1864 0.930 . S
H1860 C1868 0.930 . S
O1861 Co1830 2.037 . S
O1861 C1881 1.234 . S
C1862 O1836 1.269 . S
C1862 O1837 1.257 . S
C1863 H1838 0.930 . S
C1863 C1866 1.388 . S
C1863 C1868 1.418 . S
C1864 H1859 0.930 . S
C1864 C1867 1.404 . S
C1864 C1868 1.353 . S
N1865 Co1830 2.145 . S
N1865 C1866 1.397 . S
N1865 C1867 1.334 . S
C1866 H1847 0.929 . S
C1866 C1863 1.388 . S
C1866 N1865 1.397 . S
C1867 H1848 0.929 . S
C1867 C1864 1.404 . S
C1867 N1865 1.334 . S
C1868 H1860 0.930 . S
C1868 C1863 1.418 . S
C1868 C1864 1.353 . S
C1869 H1839 0.930 . S
C1869 N1870 1.330 . S
C1869 C1871 1.446 . S
N1870 Co1829 2.151 . S
N1870 C1869 1.330 . S
N1870 C1874 1.418 . S
C1871 H1850 0.929 . S
C1871 C1869 1.446 . S
C1871 C1872 1.332 . S
C1872 H1852 0.931 . S
C1872 C1871 1.332 . S
C1872 C1873 1.267 . S
C1873 H1841 0.929 . S
C1873 C1872 1.267 . S
C1873 C1874 1.251 . S
C1874 H1844 0.929 . S
C1874 N1870 1.418 . S
C1874 C1873 1.251 . S
C1875 H1842 0.930 . S
C1875 C1877 1.406 . S
C1875 C1880 1.261 . S
C1876 H1843 0.930 . S
C1876 N1878 1.325 . S
C1876 C1879 1.357 . S
C1877 H1845 0.928 . S
C1877 C1875 1.406 . S
C1877 N1878 1.261 . S
N1878 Co1829 2.214 . S
N1878 C1876 1.325 . S
N1878 C1877 1.261 . S
C1879 H1849 0.931 . S
C1879 C1876 1.357 . S
C1879 C1880 1.312 . S
C1880 H1851 0.930 . S
C1880 C1875 1.261 . S
C1880 C1879 1.312 . S
C1881 O1853 1.214 . S
C1881 O1861 1.234 . S
C1882 H1854 0.929 . S
C1882 C1885 1.391 . S
C1882 C1887 1.391 . S
C1883 H1855 0.929 . S
C1883 C1884 1.390 . S
C1883 N1886 1.391 . S
C1884 H1856 0.930 . S
C1884 C1883 1.390 . S
C1884 C1885 1.392 . S
C1885 H1857 0.929 . S
C1885 C1882 1.391 . S
C1885 C1884 1.392 . S
N1886 Co1830 2.257 . S
N1886 C1883 1.391 . S
N1886 C1887 1.388 . S
C1887 H1858 0.930 . S
C1887 C1882 1.391 . S
C1887 N1886 1.388 . S
C1888 C1889 1.349 . S
C1888 C1890 1.327 . S
C1888 H1913 0.950 . S
C1889 C1888 1.349 . S
C1889 C1905 1.349 . S
C1890 C1888 1.327 . S
C1890 C1909 1.429 . S
C1890 H1914 0.950 . S
C1891 C1908 1.574 . S
C1891 C1910 1.368 . S
C1891 H1915 0.949 . S
H1892 C1896 0.949 . S
C1893 C1894 1.349 . S
C1893 C1895 1.327 . S
C1893 H1916 0.950 . S
C1894 C1893 1.349 . S
C1894 C1906 1.349 . S
C1895 C1893 1.327 . S
C1895 C1911 1.429 . S
C1895 H1917 0.950 . S
C1896 H1892 0.949 . S
C1896 C1904 1.574 . S
C1896 C1912 1.368 . S
H1897 C1905 0.950 . S
H1898 C1903 0.950 . S
H1899 C1904 0.949 . S
H1900 C1906 0.950 . S
H1901 C1907 0.950 . S
H1902 C1908 0.949 . S
C1903 H1898 0.950 . S
C1903 C1905 1.327 . S
C1903 C1909 1.429 . S
C1904 C1896 1.574 . S
C1904 H1899 0.949 . S
C1904 C1910 1.368 . S
C1905 C1889 1.349 . S
C1905 H1897 0.950 . S
C1905 C1903 1.327 . S
C1906 C1894 1.349 . S
C1906 H1900 0.950 . S
C1906 C1907 1.327 . S
C1907 H1901 0.950 . S
C1907 C1906 1.327 . S
C1907 C1911 1.429 . S
C1908 C1891 1.574 . S
C1908 H1902 0.949 . S
C1908 C1912 1.368 . S
C1909 C1890 1.429 . S
C1909 C1903 1.429 . S
C1909 C1910 1.523 . S
C1910 C1891 1.368 . S
C1910 C1904 1.368 . S
C1910 C1909 1.523 . S
C1911 C1895 1.429 . S
C1911 C1907 1.429 . S
C1911 C1912 1.523 . S
C1912 C1896 1.368 . S
C1912 C1908 1.368 . S
C1912 C1911 1.523 . S
H1913 C1888 0.950 . S
H1914 C1890 0.950 . S
H1915 C1891 0.949 . S
H1916 C1893 0.950 . S
H1917 C1895 0.950 . S
C1918 C1919 1.349 . S
C1918 C1920 1.327 1_455 S
C1918 H1943 0.950 . S
C1919 C1918 1.349 . S
C1919 C1935 1.349 1_455 S
C1920 C1918 1.327 1_655 S
C1920 C1939 1.429 . S
C1920 H1944 0.950 . S
C1921 C1938 1.574 . S
C1921 C1940 1.368 . S
C1921 H1945 0.949 . S
H1922 C1926 0.949 . S
C1923 C1924 1.349 . S
C1923 C1925 1.327 . S
C1923 H1946 0.950 . S
C1924 C1923 1.349 . S
C1924 C1936 1.349 . S
C1925 C1923 1.327 . S
C1925 C1941 1.429 . S
C1925 H1947 0.950 . S
C1926 H1922 0.949 . S
C1926 C1934 1.574 . S
C1926 C1942 1.368 . S
H1927 C1935 0.950 . S
H1928 C1933 0.950 . S
H1929 C1934 0.949 . S
H1930 C1936 0.950 . S
H1931 C1937 0.950 . S
H1932 C1938 0.949 . S
C1933 H1928 0.950 . S
C1933 C1935 1.327 . S
C1933 C1939 1.429 . S
C1934 C1926 1.574 . S
C1934 H1929 0.949 . S
C1934 C1940 1.368 . S
C1935 C1919 1.349 1_655 S
C1935 H1927 0.950 . S
C1935 C1933 1.327 . S
C1936 C1924 1.349 . S
C1936 H1930 0.950 . S
C1936 C1937 1.327 . S
C1937 H1931 0.950 . S
C1937 C1936 1.327 . S
C1937 C1941 1.429 . S
C1938 C1921 1.574 . S
C1938 H1932 0.949 . S
C1938 C1942 1.368 . S
C1939 C1920 1.429 . S
C1939 C1933 1.429 . S
C1939 C1940 1.523 . S
C1940 C1921 1.368 . S
C1940 C1934 1.368 . S
C1940 C1939 1.523 . S
C1941 C1925 1.429 . S
C1941 C1937 1.429 . S
C1941 C1942 1.523 . S
C1942 C1926 1.368 . S
C1942 C1938 1.368 . S
C1942 C1941 1.523 . S
H1943 C1918 0.950 . S
H1944 C1920 0.950 . S
H1945 C1921 0.949 . S
H1946 C1923 0.950 . S
H1947 C1925 0.950 . S
C1948 C1949 1.349 . S
C1948 C1950 1.327 . S
C1948 H1973 0.950 . S
C1949 C1948 1.349 . S
C1949 C1965 1.349 . S
C1950 C1948 1.327 . S
C1950 C1969 1.429 . S
C1950 H1974 0.950 . S
C1951 C1968 1.574 . S
C1951 C1970 1.368 . S
C1951 H1975 0.949 . S
H1952 C1956 0.949 . S
C1953 C1954 1.349 . S
C1953 C1955 1.327 . S
C1953 H1976 0.950 . S
C1954 C1953 1.349 . S
C1954 C1966 1.349 . S
C1955 C1953 1.327 . S
C1955 C1971 1.429 . S
C1955 H1977 0.950 . S
C1956 H1952 0.949 . S
C1956 C1964 1.574 . S
C1956 C1972 1.368 . S
H1957 C1965 0.950 . S
H1958 C1963 0.950 . S
H1959 C1964 0.949 . S
H1960 C1966 0.950 . S
H1961 C1967 0.950 . S
H1962 C1968 0.949 . S
C1963 H1958 0.950 . S
C1963 C1965 1.327 . S
C1963 C1969 1.429 . S
C1964 C1956 1.574 . S
C1964 H1959 0.949 . S
C1964 C1970 1.368 . S
C1965 C1949 1.349 . S
C1965 H1957 0.950 . S
C1965 C1963 1.327 . S
C1966 C1954 1.349 . S
C1966 H1960 0.950 . S
C1966 C1967 1.327 . S
C1967 H1961 0.950 . S
C1967 C1966 1.327 . S
C1967 C1971 1.429 . S
C1968 C1951 1.574 . S
C1968 H1962 0.949 . S
C1968 C1972 1.368 . S
C1969 C1950 1.429 . S
C1969 C1963 1.429 . S
C1969 C1970 1.523 . S
C1970 C1951 1.368 . S
C1970 C1964 1.368 . S
C1970 C1969 1.523 . S
C1971 C1955 1.429 . S
C1971 C1967 1.429 . S
C1971 C1972 1.523 . S
C1972 C1956 1.368 . S
C1972 C1968 1.368 . S
C1972 C1971 1.523 . S
H1973 C1948 0.950 . S
H1974 C1950 0.950 . S
H1975 C1951 0.949 . S
H1976 C1953 0.950 . S
H1977 C1955 0.950 . S
C1978 C1979 1.349 . S
C1978 C1980 1.327 . S
C1978 H2003 0.950 . S
C1979 C1978 1.349 . S
C1979 C1995 1.349 . S
C1980 C1978 1.327 . S
C1980 C1999 1.429 . S
C1980 H2004 0.950 . S
C1981 C1998 1.574 . S
C1981 C2000 1.368 . S
C1981 H2005 0.949 . S
H1982 C1986 0.949 . S
C1983 C1984 1.349 . S
C1983 C1985 1.327 . S
C1983 H2006 0.950 . S
C1984 C1983 1.349 . S
C1984 C1996 1.349 . S
C1985 C1983 1.327 . S
C1985 C2001 1.429 . S
C1985 H2007 0.950 . S
C1986 H1982 0.949 . S
C1986 C1994 1.574 . S
C1986 C2002 1.368 . S
H1987 C1995 0.950 . S
H1988 C1993 0.950 . S
H1989 C1994 0.949 . S
H1990 C1996 0.950 . S
H1991 C1997 0.950 . S
H1992 C1998 0.949 . S
C1993 H1988 0.950 . S
C1993 C1995 1.327 . S
C1993 C1999 1.429 . S
C1994 C1986 1.574 . S
C1994 H1989 0.949 . S
C1994 C2000 1.368 . S
C1995 C1979 1.349 . S
C1995 H1987 0.950 . S
C1995 C1993 1.327 . S
C1996 C1984 1.349 . S
C1996 H1990 0.950 . S
C1996 C1997 1.327 . S
C1997 H1991 0.950 . S
C1997 C1996 1.327 . S
C1997 C2001 1.429 . S
C1998 C1981 1.574 . S
C1998 H1992 0.949 . S
C1998 C2002 1.368 . S
C1999 C1980 1.429 . S
C1999 C1993 1.429 . S
C1999 C2000 1.523 . S
C2000 C1981 1.368 . S
C2000 C1994 1.368 . S
C2000 C1999 1.523 . S
C2001 C1985 1.429 . S
C2001 C1997 1.429 . S
C2001 C2002 1.523 . S
C2002 C1986 1.368 . S
C2002 C1998 1.368 . S
C2002 C2001 1.523 . S
H2003 C1978 0.950 . S
H2004 C1980 0.950 . S
H2005 C1981 0.949 . S
H2006 C1983 0.950 . S
H2007 C1985 0.950 . S
C2008 C2009 1.349 . S
C2008 C2010 1.327 . S
C2008 H2033 0.950 . S
C2009 C2008 1.349 . S
C2009 C2025 1.349 . S
C2010 C2008 1.327 . S
C2010 C2029 1.429 . S
C2010 H2034 0.950 . S
C2011 C2028 1.574 . S
C2011 C2030 1.368 . S
C2011 H2035 0.949 . S
H2012 C2016 0.949 . S
C2013 C2014 1.349 . S
C2013 C2015 1.327 . S
C2013 H2036 0.950 . S
C2014 C2013 1.349 . S
C2014 C2026 1.349 . S
C2015 C2013 1.327 . S
C2015 C2031 1.429 . S
C2015 H2037 0.950 . S
C2016 H2012 0.949 . S
C2016 C2024 1.574 . S
C2016 C2032 1.368 . S
H2017 C2025 0.950 . S
H2018 C2023 0.950 . S
H2019 C2024 0.949 . S
H2020 C2026 0.950 . S
H2021 C2027 0.950 . S
H2022 C2028 0.949 . S
C2023 H2018 0.950 . S
C2023 C2025 1.327 . S
C2023 C2029 1.429 . S
C2024 C2016 1.574 . S
C2024 H2019 0.949 . S
C2024 C2030 1.368 . S
C2025 C2009 1.349 . S
C2025 H2017 0.950 . S
C2025 C2023 1.327 . S
C2026 C2014 1.349 . S
C2026 H2020 0.950 . S
C2026 C2027 1.327 . S
C2027 H2021 0.950 . S
C2027 C2026 1.327 . S
C2027 C2031 1.429 . S
C2028 C2011 1.574 . S
C2028 H2022 0.949 . S
C2028 C2032 1.368 . S
C2029 C2010 1.429 . S
C2029 C2023 1.429 . S
C2029 C2030 1.523 . S
C2030 C2011 1.368 . S
C2030 C2024 1.368 . S
C2030 C2029 1.523 . S
C2031 C2015 1.429 . S
C2031 C2027 1.429 . S
C2031 C2032 1.523 . S
C2032 C2016 1.368 . S
C2032 C2028 1.368 . S
C2032 C2031 1.523 . S
H2033 C2008 0.950 . S
H2034 C2010 0.950 . S
H2035 C2011 0.949 . S
H2036 C2013 0.950 . S
H2037 C2015 0.950 . S
C2038 C2039 1.349 . S
C2038 C2040 1.327 . S
C2038 H2063 0.950 . S
C2039 C2038 1.349 . S
C2039 C2055 1.349 . S
C2040 C2038 1.327 . S
C2040 C2059 1.429 . S
C2040 H2064 0.950 . S
C2041 C2058 1.574 . S
C2041 C2060 1.368 . S
C2041 H2065 0.949 . S
H2042 C2046 0.949 . S
C2043 C2044 1.349 . S
C2043 C2045 1.327 . S
C2043 H2066 0.950 . S
C2044 C2043 1.349 . S
C2044 C2056 1.349 . S
C2045 C2043 1.327 . S
C2045 C2061 1.429 . S
C2045 H2067 0.950 . S
C2046 H2042 0.949 . S
C2046 C2054 1.574 . S
C2046 C2062 1.368 . S
H2047 C2055 0.950 . S
H2048 C2053 0.950 . S
H2049 C2054 0.949 . S
H2050 C2056 0.950 . S
H2051 C2057 0.950 . S
H2052 C2058 0.949 . S
C2053 H2048 0.950 . S
C2053 C2055 1.327 . S
C2053 C2059 1.429 . S
C2054 C2046 1.574 . S
C2054 H2049 0.949 . S
C2054 C2060 1.368 . S
C2055 C2039 1.349 . S
C2055 H2047 0.950 . S
C2055 C2053 1.327 . S
C2056 C2044 1.349 . S
C2056 H2050 0.950 . S
C2056 C2057 1.327 . S
C2057 H2051 0.950 . S
C2057 C2056 1.327 . S
C2057 C2061 1.429 . S
C2058 C2041 1.574 . S
C2058 H2052 0.949 . S
C2058 C2062 1.368 . S
C2059 C2040 1.429 . S
C2059 C2053 1.429 . S
C2059 C2060 1.523 . S
C2060 C2041 1.368 . S
C2060 C2054 1.368 . S
C2060 C2059 1.523 . S
C2061 C2045 1.429 . S
C2061 C2057 1.429 . S
C2061 C2062 1.523 . S
C2062 C2046 1.368 . S
C2062 C2058 1.368 . S
C2062 C2061 1.523 . S
H2063 C2038 0.950 . S
H2064 C2040 0.950 . S
H2065 C2041 0.949 . S
H2066 C2043 0.950 . S
H2067 C2045 0.950 . S
C2068 C2069 1.349 . S
C2068 C2070 1.327 . S
C2068 H2093 0.950 . S
C2069 C2068 1.349 . S
C2069 C2085 1.349 . S
C2070 C2068 1.327 . S
C2070 C2089 1.429 . S
C2070 H2094 0.950 . S
C2071 C2088 1.574 . S
C2071 C2090 1.368 . S
C2071 H2095 0.949 . S
H2072 C2076 0.949 . S
C2073 C2074 1.349 . S
C2073 C2075 1.327 . S
C2073 H2096 0.950 . S
C2074 C2073 1.349 . S
C2074 C2086 1.349 . S
C2075 C2073 1.327 . S
C2075 C2091 1.429 . S
C2075 H2097 0.950 . S
C2076 H2072 0.949 . S
C2076 C2084 1.574 . S
C2076 C2092 1.368 . S
H2077 C2085 0.950 . S
H2078 C2083 0.950 . S
H2079 C2084 0.949 . S
H2080 C2086 0.950 . S
H2081 C2087 0.950 . S
H2082 C2088 0.949 . S
C2083 H2078 0.950 . S
C2083 C2085 1.327 . S
C2083 C2089 1.429 . S
C2084 C2076 1.574 . S
C2084 H2079 0.949 . S
C2084 C2090 1.368 . S
C2085 C2069 1.349 . S
C2085 H2077 0.950 . S
C2085 C2083 1.327 . S
C2086 C2074 1.349 . S
C2086 H2080 0.950 . S
C2086 C2087 1.327 . S
C2087 H2081 0.950 . S
C2087 C2086 1.327 . S
C2087 C2091 1.429 . S
C2088 C2071 1.574 . S
C2088 H2082 0.949 . S
C2088 C2092 1.368 . S
C2089 C2070 1.429 . S
C2089 C2083 1.429 . S
C2089 C2090 1.523 . S
C2090 C2071 1.368 . S
C2090 C2084 1.368 . S
C2090 C2089 1.523 . S
C2091 C2075 1.429 . S
C2091 C2087 1.429 . S
C2091 C2092 1.523 . S
C2092 C2076 1.368 . S
C2092 C2088 1.368 . S
C2092 C2091 1.523 . S
H2093 C2068 0.950 . S
H2094 C2070 0.950 . S
H2095 C2071 0.949 . S
H2096 C2073 0.950 . S
H2097 C2075 0.950 . S
C2098 C2099 1.361 . S
C2098 C2100 1.285 1_455 S
C2098 H2123 0.983 . S
C2099 C2098 1.361 . S
C2099 C2115 1.349 1_455 S
C2100 C2098 1.285 1_655 S
C2100 C2119 1.429 . S
C2100 H2124 0.950 . S
C2101 C2118 1.574 . S
C2101 C2120 1.368 . S
C2101 H2125 0.949 . S
H2102 C2106 0.949 . S
C2103 C2104 1.349 . S
C2103 C2105 1.327 . S
C2103 H2126 0.950 . S
C2104 C2103 1.349 . S
C2104 C2116 1.349 . S
C2105 C2103 1.327 . S
C2105 C2121 1.429 . S
C2105 H2127 0.950 . S
C2106 H2102 0.949 . S
C2106 C2114 1.574 . S
C2106 C2122 1.368 . S
H2107 C2115 0.950 . S
H2108 C2113 0.950 . S
H2109 C2114 0.949 . S
H2110 C2116 0.950 . S
H2111 C2117 0.950 . S
H2112 C2118 0.949 . S
C2113 H2108 0.950 . S
C2113 C2115 1.327 . S
C2113 C2119 1.429 . S
C2114 C2106 1.574 . S
C2114 H2109 0.949 . S
C2114 C2120 1.368 . S
C2115 C2099 1.349 1_655 S
C2115 H2107 0.950 . S
C2115 C2113 1.327 . S
C2116 C2104 1.349 . S
C2116 H2110 0.950 . S
C2116 C2117 1.327 . S
C2117 H2111 0.950 . S
C2117 C2116 1.327 . S
C2117 C2121 1.429 . S
C2118 C2101 1.574 . S
C2118 H2112 0.949 . S
C2118 C2122 1.368 . S
C2119 C2100 1.429 . S
C2119 C2113 1.429 . S
C2119 C2120 1.523 . S
C2120 C2101 1.368 . S
C2120 C2114 1.368 . S
C2120 C2119 1.523 . S
C2121 C2105 1.429 . S
C2121 C2117 1.429 . S
C2121 C2122 1.523 . S
C2122 C2106 1.368 . S
C2122 C2118 1.368 . S
C2122 C2121 1.523 . S
H2123 C2098 0.983 . S
H2124 C2100 0.950 . S
H2125 C2101 0.949 . S
H2126 C2103 0.950 . S
H2127 C2105 0.950 . S
C2128 C2129 1.349 . S
C2128 C2130 1.327 . S
C2128 H2153 0.950 . S
C2129 C2128 1.349 . S
C2129 C2145 1.349 . S
C2130 C2128 1.327 . S
C2130 C2149 1.429 . S
C2130 H2154 0.950 . S
C2131 C2148 1.574 . S
C2131 C2150 1.368 . S
C2131 H2155 0.949 . S
H2132 C2136 0.949 . S
C2133 C2134 1.349 . S
C2133 C2135 1.327 . S
C2133 H2156 0.950 . S
C2134 C2133 1.349 . S
C2134 C2146 1.349 . S
C2135 C2133 1.327 . S
C2135 C2151 1.429 . S
C2135 H2157 0.950 . S
C2136 H2132 0.949 . S
C2136 C2144 1.574 . S
C2136 C2152 1.368 . S
H2137 C2145 0.950 . S
H2138 C2143 0.950 . S
H2139 C2144 0.949 . S
H2140 C2146 0.950 . S
H2141 C2147 0.950 . S
H2142 C2148 0.949 . S
C2143 H2138 0.950 . S
C2143 C2145 1.327 . S
C2143 C2149 1.429 . S
C2144 C2136 1.574 . S
C2144 H2139 0.949 . S
C2144 C2150 1.368 . S
C2145 C2129 1.349 . S
C2145 H2137 0.950 . S
C2145 C2143 1.327 . S
C2146 C2134 1.349 . S
C2146 H2140 0.950 . S
C2146 C2147 1.327 . S
C2147 H2141 0.950 . S
C2147 C2146 1.327 . S
C2147 C2151 1.429 . S
C2148 C2131 1.574 . S
C2148 H2142 0.949 . S
C2148 C2152 1.368 . S
C2149 C2130 1.429 . S
C2149 C2143 1.429 . S
C2149 C2150 1.523 . S
C2150 C2131 1.368 . S
C2150 C2144 1.368 . S
C2150 C2149 1.523 . S
C2151 C2135 1.429 . S
C2151 C2147 1.429 . S
C2151 C2152 1.523 . S
C2152 C2136 1.368 . S
C2152 C2148 1.368 . S
C2152 C2151 1.523 . S
H2153 C2128 0.950 . S
H2154 C2130 0.950 . S
H2155 C2131 0.949 . S
H2156 C2133 0.950 . S
H2157 C2135 0.950 . S
C2158 C2159 1.349 . S
C2158 C2160 1.327 . S
C2158 H2183 0.950 . S
C2159 C2158 1.349 . S
C2159 C2175 1.349 . S
C2160 C2158 1.327 . S
C2160 C2179 1.429 . S
C2160 H2184 0.950 . S
C2161 C2178 1.574 . S
C2161 C2180 1.368 . S
C2161 H2185 0.949 . S
H2162 C2166 0.949 . S
C2163 C2164 1.349 1_455 S
C2163 C2165 1.327 . S
C2163 H2186 0.950 . S
C2164 C2163 1.349 1_655 S
C2164 C2176 1.349 . S
C2165 C2163 1.327 . S
C2165 C2181 1.429 . S
C2165 H2187 0.950 . S
C2166 H2162 0.949 . S
C2166 C2174 1.574 . S
C2166 C2182 1.368 . S
H2167 C2175 0.950 . S
H2168 C2173 0.950 . S
H2169 C2174 0.949 . S
H2170 C2176 0.950 . S
H2171 C2177 0.950 . S
H2172 C2178 0.949 . S
C2173 H2168 0.950 . S
C2173 C2175 1.327 . S
C2173 C2179 1.429 . S
C2174 C2166 1.574 . S
C2174 H2169 0.949 . S
C2174 C2180 1.368 . S
C2175 C2159 1.349 . S
C2175 H2167 0.950 . S
C2175 C2173 1.327 . S
C2176 C2164 1.349 . S
C2176 H2170 0.950 . S
C2176 C2177 1.327 1_655 S
C2177 H2171 0.950 . S
C2177 C2176 1.327 1_455 S
C2177 C2181 1.429 . S
C2178 C2161 1.574 . S
C2178 H2172 0.949 . S
C2178 C2182 1.368 . S
C2179 C2160 1.429 . S
C2179 C2173 1.429 . S
C2179 C2180 1.523 . S
C2180 C2161 1.368 . S
C2180 C2174 1.368 . S
C2180 C2179 1.523 . S
C2181 C2165 1.429 . S
C2181 C2177 1.429 . S
C2181 C2182 1.523 . S
C2182 C2166 1.368 . S
C2182 C2178 1.368 . S
C2182 C2181 1.523 . S
H2183 C2158 0.950 . S
H2184 C2160 0.950 . S
H2185 C2161 0.949 . S
H2186 C2163 0.950 . S
H2187 C2165 0.950 . S
C2188 C2189 1.349 . S
C2188 C2190 1.327 . S
C2188 H2213 0.950 . S
C2189 C2188 1.349 . S
C2189 C2205 1.349 . S
C2190 C2188 1.327 . S
C2190 C2209 1.429 . S
C2190 H2214 0.950 . S
C2191 C2208 1.574 . S
C2191 C2210 1.368 . S
C2191 H2215 0.949 . S
H2192 C2196 0.949 . S
C2193 C2194 1.349 . S
C2193 C2195 1.327 . S
C2193 H2216 0.950 . S
C2194 C2193 1.349 . S
C2194 C2206 1.349 . S
C2195 C2193 1.327 . S
C2195 C2211 1.429 . S
C2195 H2217 0.950 . S
C2196 H2192 0.949 . S
C2196 C2204 1.574 . S
C2196 C2212 1.368 . S
H2197 C2205 0.950 . S
H2198 C2203 0.950 . S
H2199 C2204 0.949 . S
H2200 C2206 0.950 . S
H2201 C2207 0.950 . S
H2202 C2208 0.949 . S
C2203 H2198 0.950 . S
C2203 C2205 1.327 . S
C2203 C2209 1.429 . S
C2204 C2196 1.574 . S
C2204 H2199 0.949 . S
C2204 C2210 1.368 . S
C2205 C2189 1.349 . S
C2205 H2197 0.950 . S
C2205 C2203 1.327 . S
C2206 C2194 1.349 . S
C2206 H2200 0.950 . S
C2206 C2207 1.327 . S
C2207 H2201 0.950 . S
C2207 C2206 1.327 . S
C2207 C2211 1.429 . S
C2208 C2191 1.574 . S
C2208 H2202 0.949 . S
C2208 C2212 1.368 . S
C2209 C2190 1.429 . S
C2209 C2203 1.429 . S
C2209 C2210 1.523 . S
C2210 C2191 1.368 . S
C2210 C2204 1.368 . S
C2210 C2209 1.523 . S
C2211 C2195 1.429 . S
C2211 C2207 1.429 . S
C2211 C2212 1.523 . S
C2212 C2196 1.368 . S
C2212 C2208 1.368 . S
C2212 C2211 1.523 . S
H2213 C2188 0.950 . S
H2214 C2190 0.950 . S
H2215 C2191 0.949 . S
H2216 C2193 0.950 . S
H2217 C2195 0.950 . S
C2218 C2219 1.349 . S
C2218 C2220 1.327 . S
C2218 H2243 0.950 . S
C2219 C2218 1.349 . S
C2219 C2235 1.349 . S
C2220 C2218 1.327 . S
C2220 C2239 1.429 . S
C2220 H2244 0.950 . S
C2221 C2238 1.574 . S
C2221 C2240 1.368 . S
C2221 H2245 0.949 . S
H2222 C2226 0.949 . S
C2223 C2224 1.349 . S
C2223 C2225 1.327 . S
C2223 H2246 0.950 . S
C2224 C2223 1.349 . S
C2224 C2236 1.349 . S
C2225 C2223 1.327 . S
C2225 C2241 1.429 . S
C2225 H2247 0.950 . S
C2226 H2222 0.949 . S
C2226 C2234 1.574 . S
C2226 C2242 1.368 . S
H2227 C2235 0.950 . S
H2228 C2233 0.950 . S
H2229 C2234 0.949 . S
H2230 C2236 0.950 . S
H2231 C2237 0.950 . S
H2232 C2238 0.949 . S
C2233 H2228 0.950 . S
C2233 C2235 1.327 . S
C2233 C2239 1.429 . S
C2234 C2226 1.574 . S
C2234 H2229 0.949 . S
C2234 C2240 1.368 . S
C2235 C2219 1.349 . S
C2235 H2227 0.950 . S
C2235 C2233 1.327 . S
C2236 C2224 1.349 . S
C2236 H2230 0.950 . S
C2236 C2237 1.327 . S
C2237 H2231 0.950 . S
C2237 C2236 1.327 . S
C2237 C2241 1.429 . S
C2238 C2221 1.574 . S
C2238 H2232 0.949 . S
C2238 C2242 1.368 . S
C2239 C2220 1.429 . S
C2239 C2233 1.429 . S
C2239 C2240 1.523 . S
C2240 C2221 1.368 . S
C2240 C2234 1.368 . S
C2240 C2239 1.523 . S
C2241 C2225 1.429 . S
C2241 C2237 1.429 . S
C2241 C2242 1.523 . S
C2242 C2226 1.368 . S
C2242 C2238 1.368 . S
C2242 C2241 1.523 . S
H2243 C2218 0.950 . S
H2244 C2220 0.950 . S
H2245 C2221 0.949 . S
H2246 C2223 0.950 . S
H2247 C2225 0.950 . S
C2248 C2249 1.349 . S
C2248 C2250 1.327 . S
C2248 H2273 0.950 . S
C2249 C2248 1.349 . S
C2249 C2265 1.349 . S
C2250 C2248 1.327 . S
C2250 C2269 1.429 . S
C2250 H2274 0.950 . S
C2251 C2268 1.574 . S
C2251 C2270 1.368 . S
C2251 H2275 0.949 . S
H2252 C2256 0.949 . S
C2253 C2254 1.349 . S
C2253 C2255 1.327 . S
C2253 H2276 0.950 . S
C2254 C2253 1.349 . S
C2254 C2266 1.349 . S
C2255 C2253 1.327 . S
C2255 C2271 1.429 . S
C2255 H2277 0.950 . S
C2256 H2252 0.949 . S
C2256 C2264 1.574 . S
C2256 C2272 1.368 . S
H2257 C2265 0.950 . S
H2258 C2263 0.950 . S
H2259 C2264 0.949 . S
H2260 C2266 0.950 . S
H2261 C2267 0.950 . S
H2262 C2268 0.949 . S
C2263 H2258 0.950 . S
C2263 C2265 1.327 . S
C2263 C2269 1.429 . S
C2264 C2256 1.574 . S
C2264 H2259 0.949 . S
C2264 C2270 1.368 . S
C2265 C2249 1.349 . S
C2265 H2257 0.950 . S
C2265 C2263 1.327 . S
C2266 C2254 1.349 . S
C2266 H2260 0.950 . S
C2266 C2267 1.327 . S
C2267 H2261 0.950 . S
C2267 C2266 1.327 . S
C2267 C2271 1.429 . S
C2268 C2251 1.574 . S
C2268 H2262 0.949 . S
C2268 C2272 1.368 . S
C2269 C2250 1.429 . S
C2269 C2263 1.429 . S
C2269 C2270 1.523 . S
C2270 C2251 1.368 . S
C2270 C2264 1.368 . S
C2270 C2269 1.523 . S
C2271 C2255 1.429 . S
C2271 C2267 1.429 . S
C2271 C2272 1.523 . S
C2272 C2256 1.368 . S
C2272 C2268 1.368 . S
C2272 C2271 1.523 . S
H2273 C2248 0.950 . S
H2274 C2250 0.950 . S
H2275 C2251 0.949 . S
H2276 C2253 0.950 . S
H2277 C2255 0.950 . S
C2278 C2279 1.349 . S
C2278 C2280 1.327 . S
C2278 H2303 0.950 . S
C2279 C2278 1.349 . S
C2279 C2295 1.349 . S
C2280 C2278 1.327 . S
C2280 C2299 1.429 . S
C2280 H2304 0.950 . S
C2281 C2298 1.574 . S
C2281 C2300 1.368 . S
C2281 H2305 0.949 . S
H2282 C2286 0.949 . S
C2283 C2284 1.349 . S
C2283 C2285 1.327 . S
C2283 H2306 0.950 . S
C2284 C2283 1.349 . S
C2284 C2296 1.349 . S
C2285 C2283 1.327 . S
C2285 C2301 1.429 . S
C2285 H2307 0.950 . S
C2286 H2282 0.949 . S
C2286 C2294 1.574 . S
C2286 C2302 1.368 . S
H2287 C2295 0.950 . S
H2288 C2293 0.950 . S
H2289 C2294 0.949 . S
H2290 C2296 0.950 . S
H2291 C2297 0.950 . S
H2292 C2298 0.949 . S
C2293 H2288 0.950 . S
C2293 C2295 1.327 . S
C2293 C2299 1.429 . S
C2294 C2286 1.574 . S
C2294 H2289 0.949 . S
C2294 C2300 1.368 . S
C2295 C2279 1.349 . S
C2295 H2287 0.950 . S
C2295 C2293 1.327 . S
C2296 C2284 1.349 . S
C2296 H2290 0.950 . S
C2296 C2297 1.327 . S
C2297 H2291 0.950 . S
C2297 C2296 1.327 . S
C2297 C2301 1.429 . S
C2298 C2281 1.574 . S
C2298 H2292 0.949 . S
C2298 C2302 1.368 . S
C2299 C2280 1.429 . S
C2299 C2293 1.429 . S
C2299 C2300 1.523 . S
C2300 C2281 1.368 . S
C2300 C2294 1.368 . S
C2300 C2299 1.523 . S
C2301 C2285 1.429 . S
C2301 C2297 1.429 . S
C2301 C2302 1.523 . S
C2302 C2286 1.368 . S
C2302 C2298 1.368 . S
C2302 C2301 1.523 . S
H2303 C2278 0.950 . S
H2304 C2280 0.950 . S
H2305 C2281 0.949 . S
H2306 C2283 0.950 . S
H2307 C2285 0.950 . S
C2308 C2309 1.349 . S
C2308 C2310 1.327 . S
C2308 H2333 0.950 . S
C2309 C2308 1.349 . S
C2309 C2325 1.349 . S
C2310 C2308 1.327 . S
C2310 C2329 1.429 . S
C2310 H2334 0.950 . S
C2311 C2328 1.574 . S
C2311 C2330 1.368 . S
C2311 H2335 0.949 . S
H2312 C2316 0.949 . S
C2313 C2314 1.349 . S
C2313 C2315 1.327 . S
C2313 H2336 0.950 . S
C2314 C2313 1.349 . S
C2314 C2326 1.349 . S
C2315 C2313 1.327 . S
C2315 C2331 1.429 . S
C2315 H2337 0.950 . S
C2316 H2312 0.949 . S
C2316 C2324 1.574 . S
C2316 C2332 1.368 . S
H2317 C2325 0.950 . S
H2318 C2323 0.950 . S
H2319 C2324 0.949 . S
H2320 C2326 0.950 . S
H2321 C2327 0.950 . S
H2322 C2328 0.949 . S
C2323 H2318 0.950 . S
C2323 C2325 1.327 . S
C2323 C2329 1.429 . S
C2324 C2316 1.574 . S
C2324 H2319 0.949 . S
C2324 C2330 1.368 . S
C2325 C2309 1.349 . S
C2325 H2317 0.950 . S
C2325 C2323 1.327 . S
C2326 C2314 1.349 . S
C2326 H2320 0.950 . S
C2326 C2327 1.327 . S
C2327 H2321 0.950 . S
C2327 C2326 1.327 . S
C2327 C2331 1.429 . S
C2328 C2311 1.574 . S
C2328 H2322 0.949 . S
C2328 C2332 1.368 . S
C2329 C2310 1.429 . S
C2329 C2323 1.429 . S
C2329 C2330 1.523 . S
C2330 C2311 1.368 . S
C2330 C2324 1.368 . S
C2330 C2329 1.523 . S
C2331 C2315 1.429 . S
C2331 C2327 1.429 . S
C2331 C2332 1.523 . S
C2332 C2316 1.368 . S
C2332 C2328 1.368 . S
C2332 C2331 1.523 . S
H2333 C2308 0.950 . S
H2334 C2310 0.950 . S
H2335 C2311 0.949 . S
H2336 C2313 0.950 . S
H2337 C2315 0.950 . S
C2338 C2339 1.349 . S
C2338 C2340 1.327 . S
C2338 H2363 0.950 . S
C2339 C2338 1.349 . S
C2339 C2355 1.349 . S
C2340 C2338 1.327 . S
C2340 C2359 1.429 . S
C2340 H2364 0.950 . S
C2341 C2358 1.574 . S
C2341 C2360 1.368 . S
C2341 H2365 0.949 . S
H2342 C2346 0.949 . S
C2343 C2344 1.349 . S
C2343 C2345 1.327 1_655 S
C2343 H2366 0.950 . S
C2344 C2343 1.349 . S
C2344 C2356 1.349 1_655 S
C2345 C2343 1.327 1_455 S
C2345 C2361 1.429 . S
C2345 H2367 0.950 . S
C2346 H2342 0.949 . S
C2346 C2354 1.574 . S
C2346 C2362 1.368 . S
H2347 C2355 0.950 . S
H2348 C2353 0.950 . S
H2349 C2354 0.949 . S
H2350 C2356 0.950 . S
H2351 C2357 0.950 . S
H2352 C2358 0.949 . S
C2353 H2348 0.950 . S
C2353 C2355 1.327 . S
C2353 C2359 1.429 . S
C2354 C2346 1.574 . S
C2354 H2349 0.949 . S
C2354 C2360 1.368 . S
C2355 C2339 1.349 . S
C2355 H2347 0.950 . S
C2355 C2353 1.327 . S
C2356 C2344 1.349 1_455 S
C2356 H2350 0.950 . S
C2356 C2357 1.327 . S
C2357 H2351 0.950 . S
C2357 C2356 1.327 . S
C2357 C2361 1.429 . S
C2358 C2341 1.574 . S
C2358 H2352 0.949 . S
C2358 C2362 1.368 . S
C2359 C2340 1.429 . S
C2359 C2353 1.429 . S
C2359 C2360 1.523 . S
C2360 C2341 1.368 . S
C2360 C2354 1.368 . S
C2360 C2359 1.523 . S
C2361 C2345 1.429 . S
C2361 C2357 1.429 . S
C2361 C2362 1.523 . S
C2362 C2346 1.368 . S
C2362 C2358 1.368 . S
C2362 C2361 1.523 . S
H2363 C2338 0.950 . S
H2364 C2340 0.950 . S
H2365 C2341 0.949 . S
H2366 C2343 0.950 . S
H2367 C2345 0.950 . S
C2368 C2369 1.349 . S
C2368 C2370 1.327 . S
C2368 H2393 0.950 . S
C2369 C2368 1.349 . S
C2369 C2385 1.349 . S
C2370 C2368 1.327 . S
C2370 C2389 1.429 . S
C2370 H2394 0.950 . S
C2371 C2388 1.574 . S
C2371 C2390 1.368 . S
C2371 H2395 0.949 . S
H2372 C2376 0.949 . S
C2373 C2374 1.349 . S
C2373 C2375 1.327 . S
C2373 H2396 0.950 . S
C2374 C2373 1.349 . S
C2374 C2386 1.349 . S
C2375 C2373 1.327 . S
C2375 C2391 1.429 . S
C2375 H2397 0.950 . S
C2376 H2372 0.949 . S
C2376 C2384 1.574 . S
C2376 C2392 1.368 . S
H2377 C2385 0.950 . S
H2378 C2383 0.950 . S
H2379 C2384 0.949 . S
H2380 C2386 0.950 . S
H2381 C2387 0.950 . S
H2382 C2388 0.949 . S
C2383 H2378 0.950 . S
C2383 C2385 1.327 . S
C2383 C2389 1.429 . S
C2384 C2376 1.574 . S
C2384 H2379 0.949 . S
C2384 C2390 1.368 . S
C2385 C2369 1.349 . S
C2385 H2377 0.950 . S
C2385 C2383 1.327 . S
C2386 C2374 1.349 . S
C2386 H2380 0.950 . S
C2386 C2387 1.327 . S
C2387 H2381 0.950 . S
C2387 C2386 1.327 . S
C2387 C2391 1.429 . S
C2388 C2371 1.574 . S
C2388 H2382 0.949 . S
C2388 C2392 1.368 . S
C2389 C2370 1.429 . S
C2389 C2383 1.429 . S
C2389 C2390 1.523 . S
C2390 C2371 1.368 . S
C2390 C2384 1.368 . S
C2390 C2389 1.523 . S
C2391 C2375 1.429 . S
C2391 C2387 1.429 . S
C2391 C2392 1.523 . S
C2392 C2376 1.368 . S
C2392 C2388 1.368 . S
C2392 C2391 1.523 . S
H2393 C2368 0.950 . S
H2394 C2370 0.950 . S
H2395 C2371 0.949 . S
H2396 C2373 0.950 . S
H2397 C2375 0.950 . S
C2398 C2399 1.349 . S
C2398 C2400 1.327 . S
C2398 H2423 0.950 . S
C2399 C2398 1.349 . S
C2399 C2415 1.349 . S
C2400 C2398 1.327 . S
C2400 C2419 1.429 . S
C2400 H2424 0.950 . S
C2401 C2418 1.574 . S
C2401 C2420 1.368 . S
C2401 H2425 0.949 . S
H2402 C2406 0.949 . S
C2403 C2404 1.349 . S
C2403 C2405 1.327 . S
C2403 H2426 0.950 . S
C2404 C2403 1.349 . S
C2404 C2416 1.349 . S
C2405 C2403 1.327 . S
C2405 C2421 1.429 . S
C2405 H2427 0.950 . S
C2406 H2402 0.949 . S
C2406 C2414 1.574 . S
C2406 C2422 1.368 . S
H2407 C2415 0.950 . S
H2408 C2413 0.950 . S
H2409 C2414 0.949 . S
H2410 C2416 0.950 . S
H2411 C2417 0.950 . S
H2412 C2418 0.949 . S
C2413 H2408 0.950 . S
C2413 C2415 1.327 . S
C2413 C2419 1.429 . S
C2414 C2406 1.574 . S
C2414 H2409 0.949 . S
C2414 C2420 1.368 . S
C2415 C2399 1.349 . S
C2415 H2407 0.950 . S
C2415 C2413 1.327 . S
C2416 C2404 1.349 . S
C2416 H2410 0.950 . S
C2416 C2417 1.327 . S
C2417 H2411 0.950 . S
C2417 C2416 1.327 . S
C2417 C2421 1.429 . S
C2418 C2401 1.574 . S
C2418 H2412 0.949 . S
C2418 C2422 1.368 . S
C2419 C2400 1.429 . S
C2419 C2413 1.429 . S
C2419 C2420 1.523 . S
C2420 C2401 1.368 . S
C2420 C2414 1.368 . S
C2420 C2419 1.523 . S
C2421 C2405 1.429 . S
C2421 C2417 1.429 . S
C2421 C2422 1.523 . S
C2422 C2406 1.368 . S
C2422 C2418 1.368 . S
C2422 C2421 1.523 . S
H2423 C2398 0.950 . S
H2424 C2400 0.950 . S
H2425 C2401 0.949 . S
H2426 C2403 0.950 . S
H2427 C2405 0.950 . S
C2428 C2429 1.349 . S
C2428 C2430 1.327 . S
C2428 H2453 0.950 . S
C2429 C2428 1.349 . S
C2429 C2445 1.349 . S
C2430 C2428 1.327 . S
C2430 C2449 1.429 . S
C2430 H2454 0.950 . S
C2431 C2448 1.574 . S
C2431 C2450 1.368 . S
C2431 H2455 0.949 . S
H2432 C2436 0.949 . S
C2433 C2434 1.349 . S
C2433 C2435 1.327 . S
C2433 H2456 0.950 . S
C2434 C2433 1.349 . S
C2434 C2446 1.349 . S
C2435 C2433 1.327 . S
C2435 C2451 1.429 . S
C2435 H2457 0.950 . S
C2436 H2432 0.949 . S
C2436 C2444 1.574 . S
C2436 C2452 1.368 . S
H2437 C2445 0.950 . S
H2438 C2443 0.950 . S
H2439 C2444 0.949 . S
H2440 C2446 0.950 . S
H2441 C2447 0.950 . S
H2442 C2448 0.949 . S
C2443 H2438 0.950 . S
C2443 C2445 1.327 . S
C2443 C2449 1.429 . S
C2444 C2436 1.574 . S
C2444 H2439 0.949 . S
C2444 C2450 1.368 . S
C2445 C2429 1.349 . S
C2445 H2437 0.950 . S
C2445 C2443 1.327 . S
C2446 C2434 1.349 . S
C2446 H2440 0.950 . S
C2446 C2447 1.327 . S
C2447 H2441 0.950 . S
C2447 C2446 1.327 . S
C2447 C2451 1.429 . S
C2448 C2431 1.574 . S
C2448 H2442 0.949 . S
C2448 C2452 1.368 . S
C2449 C2430 1.429 . S
C2449 C2443 1.429 . S
C2449 C2450 1.523 . S
C2450 C2431 1.368 . S
C2450 C2444 1.368 . S
C2450 C2449 1.523 . S
C2451 C2435 1.429 . S
C2451 C2447 1.429 . S
C2451 C2452 1.523 . S
C2452 C2436 1.368 . S
C2452 C2448 1.368 . S
C2452 C2451 1.523 . S
H2453 C2428 0.950 . S
H2454 C2430 0.950 . S
H2455 C2431 0.949 . S
H2456 C2433 0.950 . S
H2457 C2435 0.950 . S
C2458 C2459 1.349 . S
C2458 C2460 1.327 . S
C2458 H2483 0.950 . S
C2459 C2458 1.349 . S
C2459 C2475 1.349 . S
C2460 C2458 1.327 . S
C2460 C2479 1.429 . S
C2460 H2484 0.950 . S
C2461 C2478 1.574 . S
C2461 C2480 1.368 . S
C2461 H2485 0.949 . S
H2462 C2466 0.949 . S
C2463 C2464 1.349 1_455 S
C2463 C2465 1.327 . S
C2463 H2486 0.950 1_455 S
C2464 C2463 1.349 1_655 S
C2464 C2476 1.349 1_655 S
C2465 C2463 1.327 . S
C2465 C2481 1.429 . S
C2465 H2487 0.950 . S
C2466 H2462 0.949 . S
C2466 C2474 1.574 . S
C2466 C2482 1.368 . S
H2467 C2475 0.950 . S
H2468 C2473 0.950 . S
H2469 C2474 0.949 . S
H2470 C2476 0.950 1_655 S
H2471 C2477 0.950 . S
H2472 C2478 0.949 . S
C2473 H2468 0.950 . S
C2473 C2475 1.327 . S
C2473 C2479 1.429 . S
C2474 C2466 1.574 . S
C2474 H2469 0.949 . S
C2474 C2480 1.368 . S
C2475 C2459 1.349 . S
C2475 H2467 0.950 . S
C2475 C2473 1.327 . S
C2476 C2464 1.349 1_455 S
C2476 H2470 0.950 1_455 S
C2476 C2477 1.327 . S
C2477 H2471 0.950 . S
C2477 C2476 1.327 . S
C2477 C2481 1.429 . S
C2478 C2461 1.574 . S
C2478 H2472 0.949 . S
C2478 C2482 1.368 . S
C2479 C2460 1.429 . S
C2479 C2473 1.429 . S
C2479 C2480 1.523 . S
C2480 C2461 1.368 . S
C2480 C2474 1.368 . S
C2480 C2479 1.523 . S
C2481 C2465 1.429 . S
C2481 C2477 1.429 . S
C2481 C2482 1.523 . S
C2482 C2466 1.368 . S
C2482 C2478 1.368 . S
C2482 C2481 1.523 . S
H2483 C2458 0.950 . S
H2484 C2460 0.950 . S
H2485 C2461 0.949 . S
H2486 C2463 0.950 1_655 S
H2487 C2465 0.950 . S
C2488 C2489 1.349 . S
C2488 C2490 1.327 . S
C2488 H2513 0.950 . S
C2489 C2488 1.349 . S
C2489 C2505 1.349 . S
C2490 C2488 1.327 . S
C2490 C2509 1.429 . S
C2490 H2514 0.950 . S
C2491 C2508 1.574 . S
C2491 C2510 1.368 . S
C2491 H2515 0.949 . S
H2492 C2496 0.949 . S
C2493 C2494 1.349 . S
C2493 C2495 1.327 . S
C2493 H2516 0.950 . S
C2494 C2493 1.349 . S
C2494 C2506 1.349 . S
C2495 C2493 1.327 . S
C2495 C2511 1.429 . S
C2495 H2517 0.950 . S
C2496 H2492 0.949 . S
C2496 C2504 1.574 . S
C2496 C2512 1.368 . S
H2497 C2505 0.950 . S
H2498 C2503 0.950 . S
H2499 C2504 0.949 . S
H2500 C2506 0.950 . S
H2501 C2507 0.950 . S
H2502 C2508 0.949 . S
C2503 H2498 0.950 . S
C2503 C2505 1.327 . S
C2503 C2509 1.429 . S
C2504 C2496 1.574 . S
C2504 H2499 0.949 . S
C2504 C2510 1.368 . S
C2505 C2489 1.349 . S
C2505 H2497 0.950 . S
C2505 C2503 1.327 . S
C2506 C2494 1.349 . S
C2506 H2500 0.950 . S
C2506 C2507 1.327 . S
C2507 H2501 0.950 . S
C2507 C2506 1.327 . S
C2507 C2511 1.429 . S
C2508 C2491 1.574 . S
C2508 H2502 0.949 . S
C2508 C2512 1.368 . S
C2509 C2490 1.429 . S
C2509 C2503 1.429 . S
C2509 C2510 1.523 . S
C2510 C2491 1.368 . S
C2510 C2504 1.368 . S
C2510 C2509 1.523 . S
C2511 C2495 1.429 . S
C2511 C2507 1.429 . S
C2511 C2512 1.523 . S
C2512 C2496 1.368 . S
C2512 C2508 1.368 . S
C2512 C2511 1.523 . S
H2513 C2488 0.950 . S
H2514 C2490 0.950 . S
H2515 C2491 0.949 . S
H2516 C2493 0.950 . S
H2517 C2495 0.950 . S
C2518 C2519 1.349 . S
C2518 C2520 1.327 . S
C2518 H2543 0.950 . S
C2519 C2518 1.349 . S
C2519 C2535 1.349 . S
C2520 C2518 1.327 . S
C2520 C2539 1.429 . S
C2520 H2544 0.950 . S
C2521 C2538 1.574 . S
C2521 C2540 1.368 . S
C2521 H2545 0.949 . S
H2522 C2526 0.949 . S
C2523 C2524 1.349 . S
C2523 C2525 1.327 1_655 S
C2523 H2546 0.950 . S
C2524 C2523 1.349 . S
C2524 C2536 1.349 1_655 S
C2525 C2523 1.327 1_455 S
C2525 C2541 1.429 . S
C2525 H2547 0.950 . S
C2526 H2522 0.949 . S
C2526 C2534 1.574 . S
C2526 C2542 1.368 . S
H2527 C2535 0.950 . S
H2528 C2533 0.950 . S
H2529 C2534 0.949 . S
H2530 C2536 0.950 . S
H2531 C2537 0.950 . S
H2532 C2538 0.949 . S
C2533 H2528 0.950 . S
C2533 C2535 1.327 . S
C2533 C2539 1.429 . S
C2534 C2526 1.574 . S
C2534 H2529 0.949 . S
C2534 C2540 1.368 . S
C2535 C2519 1.349 . S
C2535 H2527 0.950 . S
C2535 C2533 1.327 . S
C2536 C2524 1.349 1_455 S
C2536 H2530 0.950 . S
C2536 C2537 1.327 . S
C2537 H2531 0.950 . S
C2537 C2536 1.327 . S
C2537 C2541 1.429 . S
C2538 C2521 1.574 . S
C2538 H2532 0.949 . S
C2538 C2542 1.368 . S
C2539 C2520 1.429 . S
C2539 C2533 1.429 . S
C2539 C2540 1.523 . S
C2540 C2521 1.368 . S
C2540 C2534 1.368 . S
C2540 C2539 1.523 . S
C2541 C2525 1.429 . S
C2541 C2537 1.429 . S
C2541 C2542 1.523 . S
C2542 C2526 1.368 . S
C2542 C2538 1.368 . S
C2542 C2541 1.523 . S
H2543 C2518 0.950 . S
H2544 C2520 0.950 . S
H2545 C2521 0.949 . S
H2546 C2523 0.950 . S
H2547 C2525 0.950 . S
C2548 C2549 1.349 . S
C2548 C2550 1.327 . S
C2548 H2573 0.950 . S
C2549 C2548 1.349 . S
C2549 C2565 1.349 . S
C2550 C2548 1.327 . S
C2550 C2569 1.429 . S
C2550 H2574 0.950 . S
C2551 C2568 1.574 . S
C2551 C2570 1.368 . S
C2551 H2575 0.949 . S
H2552 C2556 0.949 . S
C2553 C2554 1.349 . S
C2553 C2555 1.327 . S
C2553 H2576 0.950 . S
C2554 C2553 1.349 . S
C2554 C2566 1.349 . S
C2555 C2553 1.327 . S
C2555 C2571 1.429 . S
C2555 H2577 0.950 . S
C2556 H2552 0.949 . S
C2556 C2564 1.574 . S
C2556 C2572 1.368 . S
H2557 C2565 0.950 . S
H2558 C2563 0.950 . S
H2559 C2564 0.949 . S
H2560 C2566 0.950 . S
H2561 C2567 0.950 . S
H2562 C2568 0.949 . S
C2563 H2558 0.950 . S
C2563 C2565 1.327 . S
C2563 C2569 1.429 . S
C2564 C2556 1.574 . S
C2564 H2559 0.949 . S
C2564 C2570 1.368 . S
C2565 C2549 1.349 . S
C2565 H2557 0.950 . S
C2565 C2563 1.327 . S
C2566 C2554 1.349 . S
C2566 H2560 0.950 . S
C2566 C2567 1.327 . S
C2567 H2561 0.950 . S
C2567 C2566 1.327 . S
C2567 C2571 1.429 . S
C2568 C2551 1.574 . S
C2568 H2562 0.949 . S
C2568 C2572 1.368 . S
C2569 C2550 1.429 . S
C2569 C2563 1.429 . S
C2569 C2570 1.523 . S
C2570 C2551 1.368 . S
C2570 C2564 1.368 . S
C2570 C2569 1.523 . S
C2571 C2555 1.429 . S
C2571 C2567 1.429 . S
C2571 C2572 1.523 . S
C2572 C2556 1.368 . S
C2572 C2568 1.368 . S
C2572 C2571 1.523 . S
H2573 C2548 0.950 . S
H2574 C2550 0.950 . S
H2575 C2551 0.949 . S
H2576 C2553 0.950 . S
H2577 C2555 0.950 . S
C2578 C2579 1.349 . S
C2578 C2580 1.327 . S
C2578 H2603 0.950 . S
C2579 C2578 1.349 . S
C2579 C2595 1.349 . S
C2580 C2578 1.327 . S
C2580 C2599 1.429 . S
C2580 H2604 0.950 . S
C2581 C2598 1.574 . S
C2581 C2600 1.368 . S
C2581 H2605 0.949 . S
H2582 C2586 0.949 . S
C2583 C2584 1.349 . S
C2583 C2585 1.327 . S
C2583 H2606 0.950 . S
C2584 C2583 1.349 . S
C2584 C2596 1.349 . S
C2585 C2583 1.327 . S
C2585 C2601 1.429 . S
C2585 H2607 0.950 . S
C2586 H2582 0.949 . S
C2586 C2594 1.574 . S
C2586 C2602 1.368 . S
H2587 C2595 0.950 . S
H2588 C2593 0.950 . S
H2589 C2594 0.949 . S
H2590 C2596 0.950 . S
H2591 C2597 0.950 . S
H2592 C2598 0.949 . S
C2593 H2588 0.950 . S
C2593 C2595 1.327 . S
C2593 C2599 1.429 . S
C2594 C2586 1.574 . S
C2594 H2589 0.949 . S
C2594 C2600 1.368 . S
C2595 C2579 1.349 . S
C2595 H2587 0.950 . S
C2595 C2593 1.327 . S
C2596 C2584 1.349 . S
C2596 H2590 0.950 . S
C2596 C2597 1.327 . S
C2597 H2591 0.950 . S
C2597 C2596 1.327 . S
C2597 C2601 1.429 . S
C2598 C2581 1.574 . S
C2598 H2592 0.949 . S
C2598 C2602 1.368 . S
C2599 C2580 1.429 . S
C2599 C2593 1.429 . S
C2599 C2600 1.523 . S
C2600 C2581 1.368 . S
C2600 C2594 1.368 . S
C2600 C2599 1.523 . S
C2601 C2585 1.429 . S
C2601 C2597 1.429 . S
C2601 C2602 1.523 . S
C2602 C2586 1.368 . S
C2602 C2598 1.368 . S
C2602 C2601 1.523 . S
H2603 C2578 0.950 . S
H2604 C2580 0.950 . S
H2605 C2581 0.949 . S
H2606 C2583 0.950 . S
H2607 C2585 0.950 . S
C2608 C2609 1.349 . S
C2608 C2610 1.327 . S
C2608 H2633 0.950 . S
C2609 C2608 1.349 . S
C2609 C2625 1.349 . S
C2610 C2608 1.327 . S
C2610 C2629 1.429 . S
C2610 H2634 0.950 . S
C2611 C2628 1.574 . S
C2611 C2630 1.368 . S
C2611 H2635 0.949 . S
H2612 C2616 0.949 . S
C2613 C2614 1.349 . S
C2613 C2615 1.327 . S
C2613 H2636 0.950 . S
C2614 C2613 1.349 . S
C2614 C2626 1.349 . S
C2615 C2613 1.327 . S
C2615 C2631 1.429 . S
C2615 H2637 0.950 . S
C2616 H2612 0.949 . S
C2616 C2624 1.574 . S
C2616 C2632 1.368 . S
H2617 C2625 0.950 . S
H2618 C2623 0.950 . S
H2619 C2624 0.949 . S
H2620 C2626 0.950 . S
H2621 C2627 0.950 . S
H2622 C2628 0.949 . S
C2623 H2618 0.950 . S
C2623 C2625 1.327 . S
C2623 C2629 1.429 . S
C2624 C2616 1.574 . S
C2624 H2619 0.949 . S
C2624 C2630 1.368 . S
C2625 C2609 1.349 . S
C2625 H2617 0.950 . S
C2625 C2623 1.327 . S
C2626 C2614 1.349 . S
C2626 H2620 0.950 . S
C2626 C2627 1.327 . S
C2627 H2621 0.950 . S
C2627 C2626 1.327 . S
C2627 C2631 1.429 . S
C2628 C2611 1.574 . S
C2628 H2622 0.949 . S
C2628 C2632 1.368 . S
C2629 C2610 1.429 . S
C2629 C2623 1.429 . S
C2629 C2630 1.523 . S
C2630 C2611 1.368 . S
C2630 C2624 1.368 . S
C2630 C2629 1.523 . S
C2631 C2615 1.429 . S
C2631 C2627 1.429 . S
C2631 C2632 1.523 . S
C2632 C2616 1.368 . S
C2632 C2628 1.368 . S
C2632 C2631 1.523 . S
H2633 C2608 0.950 . S
H2634 C2610 0.950 . S
H2635 C2611 0.949 . S
H2636 C2613 0.950 . S
H2637 C2615 0.950 . S
C2638 C2639 1.349 . S
C2638 C2640 1.327 . S
C2638 H2663 0.950 . S
C2639 C2638 1.349 . S
C2639 C2655 1.349 . S
C2640 C2638 1.327 . S
C2640 C2659 1.429 . S
C2640 H2664 0.950 . S
C2641 C2658 1.574 . S
C2641 C2660 1.368 . S
C2641 H2665 0.949 . S
H2642 C2646 0.949 . S
C2643 C2644 1.349 . S
C2643 C2645 1.327 . S
C2643 H2666 0.950 . S
C2644 C2643 1.349 . S
C2644 C2656 1.349 . S
C2645 C2643 1.327 . S
C2645 C2661 1.429 . S
C2645 H2667 0.950 . S
C2646 H2642 0.949 . S
C2646 C2654 1.574 . S
C2646 C2662 1.368 . S
H2647 C2655 0.950 . S
H2648 C2653 0.950 . S
H2649 C2654 0.949 . S
H2650 C2656 0.950 . S
H2651 C2657 0.950 . S
H2652 C2658 0.949 . S
C2653 H2648 0.950 . S
C2653 C2655 1.327 . S
C2653 C2659 1.429 . S
C2654 C2646 1.574 . S
C2654 H2649 0.949 . S
C2654 C2660 1.368 . S
C2655 C2639 1.349 . S
C2655 H2647 0.950 . S
C2655 C2653 1.327 . S
C2656 C2644 1.349 . S
C2656 H2650 0.950 . S
C2656 C2657 1.327 . S
C2657 H2651 0.950 . S
C2657 C2656 1.327 . S
C2657 C2661 1.429 . S
C2658 C2641 1.574 . S
C2658 H2652 0.949 . S
C2658 C2662 1.368 . S
C2659 C2640 1.429 . S
C2659 C2653 1.429 . S
C2659 C2660 1.523 . S
C2660 C2641 1.368 . S
C2660 C2654 1.368 . S
C2660 C2659 1.523 . S
C2661 C2645 1.429 . S
C2661 C2657 1.429 . S
C2661 C2662 1.523 . S
C2662 C2646 1.368 . S
C2662 C2658 1.368 . S
C2662 C2661 1.523 . S
H2663 C2638 0.950 . S
H2664 C2640 0.950 . S
H2665 C2641 0.949 . S
H2666 C2643 0.950 . S
H2667 C2645 0.950 . S
C2668 C2669 1.349 . S
C2668 C2670 1.327 . S
C2668 H2693 0.950 . S
C2669 C2668 1.349 . S
C2669 C2685 1.349 . S
C2670 C2668 1.327 . S
C2670 C2689 1.429 . S
C2670 H2694 0.950 . S
C2671 C2688 1.574 . S
C2671 C2690 1.368 . S
C2671 H2695 0.949 . S
H2672 C2676 0.949 . S
C2673 C2674 1.349 . S
C2673 C2675 1.327 . S
C2673 H2696 0.950 . S
C2674 C2673 1.349 . S
C2674 C2686 1.349 . S
C2675 C2673 1.327 . S
C2675 C2691 1.429 . S
C2675 H2697 0.950 . S
C2676 H2672 0.949 . S
C2676 C2684 1.574 . S
C2676 C2692 1.368 . S
H2677 C2685 0.950 . S
H2678 C2683 0.950 . S
H2679 C2684 0.949 . S
H2680 C2686 0.950 . S
H2681 C2687 0.950 . S
H2682 C2688 0.949 . S
C2683 H2678 0.950 . S
C2683 C2685 1.327 . S
C2683 C2689 1.429 . S
C2684 C2676 1.574 . S
C2684 H2679 0.949 . S
C2684 C2690 1.368 . S
C2685 C2669 1.349 . S
C2685 H2677 0.950 . S
C2685 C2683 1.327 . S
C2686 C2674 1.349 . S
C2686 H2680 0.950 . S
C2686 C2687 1.327 . S
C2687 H2681 0.950 . S
C2687 C2686 1.327 . S
C2687 C2691 1.429 . S
C2688 C2671 1.574 . S
C2688 H2682 0.949 . S
C2688 C2692 1.368 . S
C2689 C2670 1.429 . S
C2689 C2683 1.429 . S
C2689 C2690 1.523 . S
C2690 C2671 1.368 . S
C2690 C2684 1.368 . S
C2690 C2689 1.523 . S
C2691 C2675 1.429 . S
C2691 C2687 1.429 . S
C2691 C2692 1.523 . S
C2692 C2676 1.368 . S
C2692 C2688 1.368 . S
C2692 C2691 1.523 . S
H2693 C2668 0.950 . S
H2694 C2670 0.950 . S
H2695 C2671 0.949 . S
H2696 C2673 0.950 . S
H2697 C2675 0.950 . S
C2698 C2699 1.349 . S
C2698 C2700 1.327 1_455 S
C2698 H2723 0.950 . S
C2699 C2698 1.349 . S
C2699 C2715 1.349 1_455 S
C2700 C2698 1.327 1_655 S
C2700 C2719 1.429 . S
C2700 H2724 0.950 . S
C2701 C2718 1.574 . S
C2701 C2720 1.368 . S
C2701 H2725 0.949 . S
H2702 C2706 0.949 . S
C2703 C2704 1.349 . S
C2703 C2705 1.327 . S
C2703 H2726 0.950 . S
C2704 C2703 1.349 . S
C2704 C2716 1.349 . S
C2705 C2703 1.327 . S
C2705 C2721 1.429 . S
C2705 H2727 0.950 . S
C2706 H2702 0.949 . S
C2706 C2714 1.574 . S
C2706 C2722 1.368 . S
H2707 C2715 0.950 . S
H2708 C2713 0.950 . S
H2709 C2714 0.949 . S
H2710 C2716 0.950 . S
H2711 C2717 0.950 . S
H2712 C2718 0.949 . S
C2713 H2708 0.950 . S
C2713 C2715 1.327 . S
C2713 C2719 1.429 . S
C2714 C2706 1.574 . S
C2714 H2709 0.949 . S
C2714 C2720 1.368 . S
C2715 C2699 1.349 1_655 S
C2715 H2707 0.950 . S
C2715 C2713 1.327 . S
C2716 C2704 1.349 . S
C2716 H2710 0.950 . S
C2716 C2717 1.327 . S
C2717 H2711 0.950 . S
C2717 C2716 1.327 . S
C2717 C2721 1.429 . S
C2718 C2701 1.574 . S
C2718 H2712 0.949 . S
C2718 C2722 1.368 . S
C2719 C2700 1.429 . S
C2719 C2713 1.429 . S
C2719 C2720 1.523 . S
C2720 C2701 1.368 . S
C2720 C2714 1.368 . S
C2720 C2719 1.523 . S
C2721 C2705 1.429 . S
C2721 C2717 1.429 . S
C2721 C2722 1.523 . S
C2722 C2706 1.368 . S
C2722 C2718 1.368 . S
C2722 C2721 1.523 . S
H2723 C2698 0.950 . S
H2724 C2700 0.950 . S
H2725 C2701 0.949 . S
H2726 C2703 0.950 . S
H2727 C2705 0.950 . S
C2728 C2729 1.349 . S
C2728 C2730 1.327 . S
C2728 H2753 0.950 . S
C2729 C2728 1.349 . S
C2729 C2745 1.349 . S
C2730 C2728 1.327 . S
C2730 C2749 1.429 . S
C2730 H2754 0.950 . S
C2731 C2748 1.574 . S
C2731 C2750 1.368 . S
C2731 H2755 0.949 . S
H2732 C2736 0.949 . S
C2733 C2734 1.349 . S
C2733 C2735 1.327 . S
C2733 H2756 0.950 . S
C2734 C2733 1.349 . S
C2734 C2746 1.349 . S
C2735 C2733 1.327 . S
C2735 C2751 1.429 . S
C2735 H2757 0.950 . S
C2736 H2732 0.949 . S
C2736 C2744 1.574 . S
C2736 C2752 1.368 . S
H2737 C2745 0.950 . S
H2738 C2743 0.950 . S
H2739 C2744 0.949 . S
H2740 C2746 0.950 . S
H2741 C2747 0.950 . S
H2742 C2748 0.949 . S
C2743 H2738 0.950 . S
C2743 C2745 1.327 . S
C2743 C2749 1.429 . S
C2744 C2736 1.574 . S
C2744 H2739 0.949 . S
C2744 C2750 1.368 . S
C2745 C2729 1.349 . S
C2745 H2737 0.950 . S
C2745 C2743 1.327 . S
C2746 C2734 1.349 . S
C2746 H2740 0.950 . S
C2746 C2747 1.327 . S
C2747 H2741 0.950 . S
C2747 C2746 1.327 . S
C2747 C2751 1.429 . S
C2748 C2731 1.574 . S
C2748 H2742 0.949 . S
C2748 C2752 1.368 . S
C2749 C2730 1.429 . S
C2749 C2743 1.429 . S
C2749 C2750 1.523 . S
C2750 C2731 1.368 . S
C2750 C2744 1.368 . S
C2750 C2749 1.523 . S
C2751 C2735 1.429 . S
C2751 C2747 1.429 . S
C2751 C2752 1.523 . S
C2752 C2736 1.368 . S
C2752 C2748 1.368 . S
C2752 C2751 1.523 . S
H2753 C2728 0.950 . S
H2754 C2730 0.950 . S
H2755 C2731 0.949 . S
H2756 C2733 0.950 . S
H2757 C2735 0.950 . S
C2758 C2759 1.349 . S
C2758 C2760 1.327 1_455 S
C2758 H2783 0.950 . S
C2759 C2758 1.349 . S
C2759 C2775 1.349 1_455 S
C2760 C2758 1.327 1_655 S
C2760 C2779 1.429 . S
C2760 H2784 0.950 . S
C2761 C2778 1.574 . S
C2761 C2780 1.368 . S
C2761 H2785 0.949 . S
H2762 C2766 0.949 . S
C2763 C2764 1.349 . S
C2763 C2765 1.327 . S
C2763 H2786 0.950 . S
C2764 C2763 1.349 . S
C2764 C2776 1.349 . S
C2765 C2763 1.327 . S
C2765 C2781 1.429 . S
C2765 H2787 0.950 . S
C2766 H2762 0.949 . S
C2766 C2774 1.574 . S
C2766 C2782 1.368 . S
H2767 C2775 0.950 . S
H2768 C2773 0.950 . S
H2769 C2774 0.949 . S
H2770 C2776 0.950 . S
H2771 C2777 0.950 . S
H2772 C2778 0.949 . S
C2773 H2768 0.950 . S
C2773 C2775 1.327 . S
C2773 C2779 1.429 . S
C2774 C2766 1.574 . S
C2774 H2769 0.949 . S
C2774 C2780 1.368 . S
C2775 C2759 1.349 1_655 S
C2775 H2767 0.950 . S
C2775 C2773 1.327 . S
C2776 C2764 1.349 . S
C2776 H2770 0.950 . S
C2776 C2777 1.327 . S
C2777 H2771 0.950 . S
C2777 C2776 1.327 . S
C2777 C2781 1.429 . S
C2778 C2761 1.574 . S
C2778 H2772 0.949 . S
C2778 C2782 1.368 . S
C2779 C2760 1.429 . S
C2779 C2773 1.429 . S
C2779 C2780 1.523 . S
C2780 C2761 1.368 . S
C2780 C2774 1.368 . S
C2780 C2779 1.523 . S
C2781 C2765 1.429 . S
C2781 C2777 1.429 . S
C2781 C2782 1.523 . S
C2782 C2766 1.368 . S
C2782 C2778 1.368 . S
C2782 C2781 1.523 . S
H2783 C2758 0.950 . S
H2784 C2760 0.950 . S
H2785 C2761 0.949 . S
H2786 C2763 0.950 . S
H2787 C2765 0.950 . S
C2788 C2789 1.349 . S
C2788 C2790 1.327 . S
C2788 H2813 0.950 . S
C2789 C2788 1.349 . S
C2789 C2805 1.349 . S
C2790 C2788 1.327 . S
C2790 C2809 1.429 . S
C2790 H2814 0.950 . S
C2791 C2808 1.574 . S
C2791 C2810 1.368 . S
C2791 H2815 0.949 . S
H2792 C2796 0.949 . S
C2793 C2794 1.349 . S
C2793 C2795 1.327 . S
C2793 H2816 0.950 . S
C2794 C2793 1.349 . S
C2794 C2806 1.349 . S
C2795 C2793 1.327 . S
C2795 C2811 1.429 . S
C2795 H2817 0.950 . S
C2796 H2792 0.949 . S
C2796 C2804 1.574 . S
C2796 C2812 1.368 . S
H2797 C2805 0.950 . S
H2798 C2803 0.950 . S
H2799 C2804 0.949 . S
H2800 C2806 0.950 . S
H2801 C2807 0.950 . S
H2802 C2808 0.949 . S
C2803 H2798 0.950 . S
C2803 C2805 1.327 . S
C2803 C2809 1.429 . S
C2804 C2796 1.574 . S
C2804 H2799 0.949 . S
C2804 C2810 1.368 . S
C2805 C2789 1.349 . S
C2805 H2797 0.950 . S
C2805 C2803 1.327 . S
C2806 C2794 1.349 . S
C2806 H2800 0.950 . S
C2806 C2807 1.327 . S
C2807 H2801 0.950 . S
C2807 C2806 1.327 . S
C2807 C2811 1.429 . S
C2808 C2791 1.574 . S
C2808 H2802 0.949 . S
C2808 C2812 1.368 . S
C2809 C2790 1.429 . S
C2809 C2803 1.429 . S
C2809 C2810 1.523 . S
C2810 C2791 1.368 . S
C2810 C2804 1.368 . S
C2810 C2809 1.523 . S
C2811 C2795 1.429 . S
C2811 C2807 1.429 . S
C2811 C2812 1.523 . S
C2812 C2796 1.368 . S
C2812 C2808 1.368 . S
C2812 C2811 1.523 . S
H2813 C2788 0.950 . S
H2814 C2790 0.950 . S
H2815 C2791 0.949 . S
H2816 C2793 0.950 . S
H2817 C2795 0.950 . S
C2818 C2819 1.349 . S
C2818 C2820 1.327 . S
C2818 H2843 0.950 . S
C2819 C2818 1.349 . S
C2819 C2835 1.349 . S
C2820 C2818 1.327 . S
C2820 C2839 1.429 . S
C2820 H2844 0.950 . S
C2821 C2838 1.574 . S
C2821 C2840 1.368 . S
C2821 H2845 0.949 . S
H2822 C2826 0.949 . S
C2823 C2824 1.349 . S
C2823 C2825 1.327 . S
C2823 H2846 0.950 . S
C2824 C2823 1.349 . S
C2824 C2836 1.349 . S
C2825 C2823 1.327 . S
C2825 C2841 1.429 . S
C2825 H2847 0.950 . S
C2826 H2822 0.949 . S
C2826 C2834 1.574 . S
C2826 C2842 1.368 . S
H2827 C2835 0.950 . S
H2828 C2833 0.950 . S
H2829 C2834 0.949 . S
H2830 C2836 0.950 . S
H2831 C2837 0.950 . S
H2832 C2838 0.949 . S
C2833 H2828 0.950 . S
C2833 C2835 1.327 . S
C2833 C2839 1.429 . S
C2834 C2826 1.574 . S
C2834 H2829 0.949 . S
C2834 C2840 1.368 . S
C2835 C2819 1.349 . S
C2835 H2827 0.950 . S
C2835 C2833 1.327 . S
C2836 C2824 1.349 . S
C2836 H2830 0.950 . S
C2836 C2837 1.327 . S
C2837 H2831 0.950 . S
C2837 C2836 1.327 . S
C2837 C2841 1.429 . S
C2838 C2821 1.574 . S
C2838 H2832 0.949 . S
C2838 C2842 1.368 . S
C2839 C2820 1.429 . S
C2839 C2833 1.429 . S
C2839 C2840 1.523 . S
C2840 C2821 1.368 . S
C2840 C2834 1.368 . S
C2840 C2839 1.523 . S
C2841 C2825 1.429 . S
C2841 C2837 1.429 . S
C2841 C2842 1.523 . S
C2842 C2826 1.368 . S
C2842 C2838 1.368 . S
C2842 C2841 1.523 . S
H2843 C2818 0.950 . S
H2844 C2820 0.950 . S
H2845 C2821 0.949 . S
H2846 C2823 0.950 . S
H2847 C2825 0.950 . S
C2848 C2849 1.349 . S
C2848 C2850 1.327 . S
C2848 H2873 0.950 . S
C2849 C2848 1.349 . S
C2849 C2865 1.349 . S
C2850 C2848 1.327 . S
C2850 C2869 1.429 . S
C2850 H2874 0.950 . S
C2851 C2868 1.574 . S
C2851 C2870 1.368 . S
C2851 H2875 0.949 . S
H2852 C2856 0.949 . S
C2853 C2854 1.349 . S
C2853 C2855 1.327 . S
C2853 H2876 0.950 . S
C2854 C2853 1.349 . S
C2854 C2866 1.349 . S
C2855 C2853 1.327 . S
C2855 C2871 1.429 . S
C2855 H2877 0.950 . S
C2856 H2852 0.949 . S
C2856 C2864 1.574 . S
C2856 C2872 1.368 . S
H2857 C2865 0.950 . S
H2858 C2863 0.950 . S
H2859 C2864 0.949 . S
H2860 C2866 0.950 . S
H2861 C2867 0.950 . S
H2862 C2868 0.949 . S
C2863 H2858 0.950 . S
C2863 C2865 1.327 . S
C2863 C2869 1.429 . S
C2864 C2856 1.574 . S
C2864 H2859 0.949 . S
C2864 C2870 1.368 . S
C2865 C2849 1.349 . S
C2865 H2857 0.950 . S
C2865 C2863 1.327 . S
C2866 C2854 1.349 . S
C2866 H2860 0.950 . S
C2866 C2867 1.327 . S
C2867 H2861 0.950 . S
C2867 C2866 1.327 . S
C2867 C2871 1.429 . S
C2868 C2851 1.574 . S
C2868 H2862 0.949 . S
C2868 C2872 1.368 . S
C2869 C2850 1.429 . S
C2869 C2863 1.429 . S
C2869 C2870 1.523 . S
C2870 C2851 1.368 . S
C2870 C2864 1.368 . S
C2870 C2869 1.523 . S
C2871 C2855 1.429 . S
C2871 C2867 1.429 . S
C2871 C2872 1.523 . S
C2872 C2856 1.368 . S
C2872 C2868 1.368 . S
C2872 C2871 1.523 . S
H2873 C2848 0.950 . S
H2874 C2850 0.950 . S
H2875 C2851 0.949 . S
H2876 C2853 0.950 . S
H2877 C2855 0.950 . S
C2878 C2879 1.349 . S
C2878 C2880 1.327 . S
C2878 H2903 0.950 . S
C2879 C2878 1.349 . S
C2879 C2895 1.349 . S
C2880 C2878 1.327 . S
C2880 C2899 1.429 . S
C2880 H2904 0.950 . S
C2881 C2898 1.574 . S
C2881 C2900 1.368 1_645 S
C2881 H2905 0.949 . S
H2882 C2886 0.949 . S
C2883 C2884 1.349 . S
C2883 C2885 1.327 . S
C2883 H2906 0.950 . S
C2884 C2883 1.349 . S
C2884 C2896 1.349 . S
C2885 C2883 1.327 . S
C2885 C2901 1.429 . S
C2885 H2907 0.950 . S
C2886 H2882 0.949 . S
C2886 C2894 1.574 . S
C2886 C2902 1.368 1_465 S
H2887 C2895 0.950 . S
H2888 C2893 0.943 1_645 S
H2889 C2894 0.949 . S
H2890 C2896 0.950 . S
H2891 C2897 0.943 1_465 S
H2892 C2898 0.949 . S
C2893 H2888 0.943 1_465 S
C2893 C2895 1.327 . S
C2893 C2899 1.429 . S
C2894 C2886 1.574 . S
C2894 H2889 0.949 . S
C2894 C2900 1.368 . S
C2895 C2879 1.349 . S
C2895 H2887 0.950 . S
C2895 C2893 1.327 . S
C2896 C2884 1.349 . S
C2896 H2890 0.950 . S
C2896 C2897 1.327 . S
C2897 H2891 0.943 1_645 S
C2897 C2896 1.327 . S
C2897 C2901 1.429 . S
C2898 C2881 1.574 . S
C2898 H2892 0.949 . S
C2898 C2902 1.368 . S
C2899 C2880 1.429 . S
C2899 C2893 1.429 . S
C2899 C2900 1.523 . S
C2900 C2881 1.368 1_465 S
C2900 C2894 1.368 . S
C2900 C2899 1.523 . S
C2901 C2885 1.429 . S
C2901 C2897 1.429 . S
C2901 C2902 1.523 . S
C2902 C2886 1.368 1_645 S
C2902 C2898 1.368 . S
C2902 C2901 1.523 . S
H2903 C2878 0.950 . S
H2904 C2880 0.950 . S
H2905 C2881 0.949 . S
H2906 C2883 0.950 . S
H2907 C2885 0.950 . S
C2908 C2909 1.349 . S
C2908 C2910 1.327 . S
C2908 H2933 0.950 . S
C2909 C2908 1.349 . S
C2909 C2925 1.349 . S
C2910 C2908 1.327 . S
C2910 C2929 1.429 . S
C2910 H2934 0.950 . S
C2911 C2928 1.574 . S
C2911 C2930 1.368 . S
C2911 H2935 0.949 . S
H2912 C2916 0.949 . S
C2913 C2914 1.349 . S
C2913 C2915 1.327 . S
C2913 H2936 0.950 . S
C2914 C2913 1.349 . S
C2914 C2926 1.349 . S
C2915 C2913 1.327 . S
C2915 C2931 1.429 . S
C2915 H2937 0.950 . S
C2916 H2912 0.949 . S
C2916 C2924 1.574 . S
C2916 C2932 1.368 . S
H2917 C2925 0.950 . S
H2918 C2923 0.950 . S
H2919 C2924 0.949 . S
H2920 C2926 0.950 . S
H2921 C2927 0.950 . S
H2922 C2928 0.949 . S
C2923 H2918 0.950 . S
C2923 C2925 1.327 . S
C2923 C2929 1.429 . S
C2924 C2916 1.574 . S
C2924 H2919 0.949 . S
C2924 C2930 1.368 . S
C2925 C2909 1.349 . S
C2925 H2917 0.950 . S
C2925 C2923 1.327 . S
C2926 C2914 1.349 . S
C2926 H2920 0.950 . S
C2926 C2927 1.327 . S
C2927 H2921 0.950 . S
C2927 C2926 1.327 . S
C2927 C2931 1.429 . S
C2928 C2911 1.574 . S
C2928 H2922 0.949 . S
C2928 C2932 1.368 . S
C2929 C2910 1.429 . S
C2929 C2923 1.429 . S
C2929 C2930 1.523 . S
C2930 C2911 1.368 . S
C2930 C2924 1.368 . S
C2930 C2929 1.523 . S
C2931 C2915 1.429 . S
C2931 C2927 1.429 . S
C2931 C2932 1.523 . S
C2932 C2916 1.368 . S
C2932 C2928 1.368 . S
C2932 C2931 1.523 . S
H2933 C2908 0.950 . S
H2934 C2910 0.950 . S
H2935 C2911 0.949 . S
H2936 C2913 0.950 . S
H2937 C2915 0.950 . S
C2938 C2939 1.349 . S
C2938 C2940 1.327 . S
C2938 H2963 0.950 . S
C2939 C2938 1.349 . S
C2939 C2955 1.349 . S
C2940 C2938 1.327 . S
C2940 C2959 1.429 . S
C2940 H2964 0.950 . S
C2941 C2958 1.574 1_554 S
C2941 C2960 1.368 1_565 S
C2941 H2965 0.949 . S
H2942 C2946 0.949 . S
C2943 C2944 1.349 . S
C2943 C2945 1.327 . S
C2943 H2966 0.950 . S
C2944 C2943 1.349 . S
C2944 C2956 1.349 . S
C2945 C2943 1.327 . S
C2945 C2961 1.429 . S
C2945 H2967 0.950 . S
C2946 H2942 0.949 . S
C2946 C2954 1.574 1_556 S
C2946 C2962 1.368 1_545 S
H2947 C2955 0.950 1_565 S
H2948 C2953 0.950 . S
H2949 C2954 0.949 . S
H2950 C2956 0.950 1_545 S
H2951 C2957 0.950 . S
H2952 C2958 0.949 . S
C2953 H2948 0.950 . S
C2953 C2955 1.327 1_565 S
C2953 C2959 1.429 1_565 S
C2954 C2946 1.574 1_554 S
C2954 H2949 0.949 . S
C2954 C2960 1.368 . S
C2955 C2939 1.349 . S
C2955 H2947 0.950 1_545 S
C2955 C2953 1.327 1_545 S
C2956 C2944 1.349 . S
C2956 H2950 0.950 1_565 S
C2956 C2957 1.327 1_565 S
C2957 H2951 0.950 . S
C2957 C2956 1.327 1_545 S
C2957 C2961 1.429 1_545 S
C2958 C2941 1.574 1_556 S
C2958 H2952 0.949 . S
C2958 C2962 1.368 . S
C2959 C2940 1.429 . S
C2959 C2953 1.429 1_545 S
C2959 C2960 1.523 . S
C2960 C2941 1.368 1_545 S
C2960 C2954 1.368 . S
C2960 C2959 1.523 . S
C2961 C2945 1.429 . S
C2961 C2957 1.429 1_565 S
C2961 C2962 1.523 . S
C2962 C2946 1.368 1_565 S
C2962 C2958 1.368 . S
C2962 C2961 1.523 . S
H2963 C2938 0.950 . S
H2964 C2940 0.950 . S
H2965 C2941 0.949 . S
H2966 C2943 0.950 . S
H2967 C2945 0.950 . S
C2968 C2969 1.349 . S
C2968 C2970 1.327 . S
C2968 H2993 0.950 . S
C2969 C2968 1.349 . S
C2969 C2985 1.349 . S
C2970 C2968 1.327 . S
C2970 C2989 1.429 . S
C2970 H2994 0.950 . S
C2971 C2988 1.574 . S
C2971 C2990 1.368 . S
C2971 H2995 0.949 . S
H2972 C2976 0.949 . S
C2973 C2974 1.349 . S
C2973 C2975 1.327 . S
C2973 H2996 0.950 . S
C2974 C2973 1.349 . S
C2974 C2986 1.349 . S
C2975 C2973 1.327 . S
C2975 C2991 1.429 . S
C2975 H2997 0.950 . S
C2976 H2972 0.949 . S
C2976 C2984 1.574 . S
C2976 C2992 1.368 . S
H2977 C2985 0.950 . S
H2978 C2983 0.950 . S
H2979 C2984 0.949 . S
H2980 C2986 0.950 . S
H2981 C2987 0.950 . S
H2982 C2988 0.949 . S
C2983 H2978 0.950 . S
C2983 C2985 1.327 . S
C2983 C2989 1.429 . S
C2984 C2976 1.574 . S
C2984 H2979 0.949 . S
C2984 C2990 1.368 . S
C2985 C2969 1.349 . S
C2985 H2977 0.950 . S
C2985 C2983 1.327 . S
C2986 C2974 1.349 . S
C2986 H2980 0.950 . S
C2986 C2987 1.327 . S
C2987 H2981 0.950 . S
C2987 C2986 1.327 . S
C2987 C2991 1.429 . S
C2988 C2971 1.574 . S
C2988 H2982 0.949 . S
C2988 C2992 1.368 . S
C2989 C2970 1.429 . S
C2989 C2983 1.429 . S
C2989 C2990 1.523 . S
C2990 C2971 1.368 . S
C2990 C2984 1.368 . S
C2990 C2989 1.523 . S
C2991 C2975 1.429 . S
C2991 C2987 1.429 . S
C2991 C2992 1.523 . S
C2992 C2976 1.368 . S
C2992 C2988 1.368 . S
C2992 C2991 1.523 . S
H2993 C2968 0.950 . S
H2994 C2970 0.950 . S
H2995 C2971 0.949 . S
H2996 C2973 0.950 . S
H2997 C2975 0.950 . S
C2998 C2999 1.349 . S
C2998 C3000 1.327 . S
C2998 H3023 0.950 . S
C2999 C2998 1.349 . S
C2999 C3015 1.349 . S
C3000 C2998 1.327 . S
C3000 C3019 1.429 . S
C3000 H3024 0.950 . S
C3001 C3018 1.574 . S
C3001 C3020 1.368 1_545 S
C3001 H3025 0.949 . S
H3002 C3006 0.949 . S
C3003 C3004 1.349 . S
C3003 C3005 1.327 . S
C3003 H3026 0.950 . S
C3004 C3003 1.349 . S
C3004 C3016 1.349 . S
C3005 C3003 1.327 . S
C3005 C3021 1.429 . S
C3005 H3027 0.950 . S
C3006 H3002 0.949 . S
C3006 C3014 1.574 . S
C3006 C3022 1.368 1_565 S
H3007 C3015 0.950 1_545 S
H3008 C3013 0.950 . S
H3009 C3014 0.949 . S
H3010 C3016 0.950 1_565 S
H3011 C3017 0.950 . S
H3012 C3018 0.949 . S
C3013 H3008 0.950 . S
C3013 C3015 1.327 1_545 S
C3013 C3019 1.429 1_545 S
C3014 C3006 1.574 . S
C3014 H3009 0.949 . S
C3014 C3020 1.368 . S
C3015 C2999 1.349 . S
C3015 H3007 0.950 1_565 S
C3015 C3013 1.327 1_565 S
C3016 C3004 1.349 . S
C3016 H3010 0.950 1_545 S
C3016 C3017 1.327 1_545 S
C3017 H3011 0.950 . S
C3017 C3016 1.327 1_565 S
C3017 C3021 1.429 1_565 S
C3018 C3001 1.574 . S
C3018 H3012 0.949 . S
C3018 C3022 1.368 . S
C3019 C3000 1.429 . S
C3019 C3013 1.429 1_565 S
C3019 C3020 1.523 . S
C3020 C3001 1.368 1_565 S
C3020 C3014 1.368 . S
C3020 C3019 1.523 . S
C3021 C3005 1.429 . S
C3021 C3017 1.429 1_545 S
C3021 C3022 1.523 . S
C3022 C3006 1.368 1_545 S
C3022 C3018 1.368 . S
C3022 C3021 1.523 . S
H3023 C2998 0.950 . S
H3024 C3000 0.950 . S
H3025 C3001 0.949 . S
H3026 C3003 0.950 . S
H3027 C3005 0.950 . S
C3028 C3029 1.349 . S
C3028 C3030 1.327 . S
C3028 H3053 0.950 . S
C3029 C3028 1.349 . S
C3029 C3045 1.349 . S
C3030 C3028 1.327 . S
C3030 C3049 1.429 . S
C3030 H3054 0.950 . S
C3031 C3048 1.574 . S
C3031 C3050 1.368 . S
C3031 H3055 0.949 . S
H3032 C3036 0.949 . S
C3033 C3034 1.349 . S
C3033 C3035 1.327 . S
C3033 H3056 0.950 . S
C3034 C3033 1.349 . S
C3034 C3046 1.349 . S
C3035 C3033 1.327 . S
C3035 C3051 1.429 . S
C3035 H3057 0.950 . S
C3036 H3032 0.949 . S
C3036 C3044 1.574 . S
C3036 C3052 1.368 . S
H3037 C3045 0.950 . S
H3038 C3043 0.950 . S
H3039 C3044 0.949 . S
H3040 C3046 0.950 . S
H3041 C3047 0.950 . S
H3042 C3048 0.949 . S
C3043 H3038 0.950 . S
C3043 C3045 1.327 . S
C3043 C3049 1.429 . S
C3044 C3036 1.574 . S
C3044 H3039 0.949 . S
C3044 C3050 1.368 . S
C3045 C3029 1.349 . S
C3045 H3037 0.950 . S
C3045 C3043 1.327 . S
C3046 C3034 1.349 . S
C3046 H3040 0.950 . S
C3046 C3047 1.327 . S
C3047 H3041 0.950 . S
C3047 C3046 1.327 . S
C3047 C3051 1.429 . S
C3048 C3031 1.574 . S
C3048 H3042 0.949 . S
C3048 C3052 1.368 . S
C3049 C3030 1.429 . S
C3049 C3043 1.429 . S
C3049 C3050 1.523 . S
C3050 C3031 1.368 . S
C3050 C3044 1.368 . S
C3050 C3049 1.523 . S
C3051 C3035 1.429 . S
C3051 C3047 1.429 . S
C3051 C3052 1.523 . S
C3052 C3036 1.368 . S
C3052 C3048 1.368 . S
C3052 C3051 1.523 . S
H3053 C3028 0.950 . S
H3054 C3030 0.950 . S
H3055 C3031 0.949 . S
H3056 C3033 0.950 . S
H3057 C3035 0.950 . S
C3058 C3059 1.349 . S
C3058 C3060 1.327 . S
C3058 H3083 0.950 . S
C3059 C3058 1.349 . S
C3059 C3075 1.349 . S
C3060 C3058 1.327 . S
C3060 C3079 1.429 . S
C3060 H3084 0.950 . S
C3061 C3078 1.574 1_556 S
C3061 C3080 1.368 1_565 S
C3061 H3085 0.949 . S
H3062 C3066 0.949 . S
C3063 C3064 1.349 . S
C3063 C3065 1.327 . S
C3063 H3086 0.950 . S
C3064 C3063 1.349 . S
C3064 C3076 1.349 . S
C3065 C3063 1.327 . S
C3065 C3081 1.429 . S
C3065 H3087 0.950 . S
C3066 H3062 0.949 . S
C3066 C3074 1.574 1_554 S
C3066 C3082 1.368 1_545 S
H3067 C3075 0.950 1_565 S
H3068 C3073 0.950 . S
H3069 C3074 0.949 . S
H3070 C3076 0.950 1_545 S
H3071 C3077 0.950 . S
H3072 C3078 0.949 . S
C3073 H3068 0.950 . S
C3073 C3075 1.327 1_565 S
C3073 C3079 1.429 1_565 S
C3074 C3066 1.574 1_556 S
C3074 H3069 0.949 . S
C3074 C3080 1.368 1_655 S
C3075 C3059 1.349 . S
C3075 H3067 0.950 1_545 S
C3075 C3073 1.327 1_545 S
C3076 C3064 1.349 . S
C3076 H3070 0.950 1_565 S
C3076 C3077 1.327 1_565 S
C3077 H3071 0.950 . S
C3077 C3076 1.327 1_545 S
C3077 C3081 1.429 1_545 S
C3078 C3061 1.574 1_554 S
C3078 H3072 0.949 . S
C3078 C3082 1.368 1_455 S
C3079 C3060 1.429 . S
C3079 C3073 1.429 1_545 S
C3079 C3080 1.523 . S
C3080 C3061 1.368 1_545 S
C3080 C3074 1.368 1_455 S
C3080 C3079 1.523 . S
C3081 C3065 1.429 . S
C3081 C3077 1.429 1_565 S
C3081 C3082 1.523 . S
C3082 C3066 1.368 1_565 S
C3082 C3078 1.368 1_655 S
C3082 C3081 1.523 . S
H3083 C3058 0.950 . S
H3084 C3060 0.950 . S
H3085 C3061 0.949 . S
H3086 C3063 0.950 . S
H3087 C3065 0.950 . S
C3088 C3089 1.349 . S
C3088 C3090 1.327 . S
C3088 H3113 0.950 . S
C3089 C3088 1.349 . S
C3089 C3105 1.349 . S
C3090 C3088 1.327 . S
C3090 C3109 1.429 . S
C3090 H3114 0.950 . S
C3091 C3108 1.574 . S
C3091 C3110 1.368 . S
C3091 H3115 0.949 . S
H3092 C3096 0.949 . S
C3093 C3094 1.349 . S
C3093 C3095 1.327 . S
C3093 H3116 0.950 . S
C3094 C3093 1.349 . S
C3094 C3106 1.349 . S
C3095 C3093 1.327 . S
C3095 C3111 1.429 . S
C3095 H3117 0.950 . S
C3096 H3092 0.949 . S
C3096 C3104 1.574 . S
C3096 C3112 1.368 . S
H3097 C3105 0.950 . S
H3098 C3103 0.950 . S
H3099 C3104 0.949 . S
H3100 C3106 0.950 . S
H3101 C3107 0.950 . S
H3102 C3108 0.949 . S
C3103 H3098 0.950 . S
C3103 C3105 1.327 . S
C3103 C3109 1.429 . S
C3104 C3096 1.574 . S
C3104 H3099 0.949 . S
C3104 C3110 1.368 . S
C3105 C3089 1.349 . S
C3105 H3097 0.950 . S
C3105 C3103 1.327 . S
C3106 C3094 1.349 . S
C3106 H3100 0.950 . S
C3106 C3107 1.327 . S
C3107 H3101 0.950 . S
C3107 C3106 1.327 . S
C3107 C3111 1.429 . S
C3108 C3091 1.574 . S
C3108 H3102 0.949 . S
C3108 C3112 1.368 . S
C3109 C3090 1.429 . S
C3109 C3103 1.429 . S
C3109 C3110 1.523 . S
C3110 C3091 1.368 . S
C3110 C3104 1.368 . S
C3110 C3109 1.523 . S
C3111 C3095 1.429 . S
C3111 C3107 1.429 . S
C3111 C3112 1.523 . S
C3112 C3096 1.368 . S
C3112 C3108 1.368 . S
C3112 C3111 1.523 . S
H3113 C3088 0.950 . S
H3114 C3090 0.950 . S
H3115 C3091 0.949 . S
H3116 C3093 0.950 . S
H3117 C3095 0.950 . S
C3118 C3119 1.349 . S
C3118 C3120 1.327 . S
C3118 H3143 0.950 . S
C3119 C3118 1.349 . S
C3119 C3135 1.349 . S
C3120 C3118 1.327 . S
C3120 C3139 1.429 . S
C3120 H3144 0.950 . S
C3121 C3138 1.574 . S
C3121 C3140 1.368 . S
C3121 H3145 0.949 . S
H3122 C3126 0.949 . S
C3123 C3124 1.349 . S
C3123 C3125 1.327 . S
C3123 H3146 0.950 . S
C3124 C3123 1.349 . S
C3124 C3136 1.349 . S
C3125 C3123 1.327 . S
C3125 C3141 1.429 . S
C3125 H3147 0.950 . S
C3126 H3122 0.949 . S
C3126 C3134 1.574 . S
C3126 C3142 1.368 . S
H3127 C3135 0.950 . S
H3128 C3133 0.950 . S
H3129 C3134 0.949 . S
H3130 C3136 0.950 . S
H3131 C3137 0.950 . S
H3132 C3138 0.949 . S
C3133 H3128 0.950 . S
C3133 C3135 1.327 . S
C3133 C3139 1.429 . S
C3134 C3126 1.574 . S
C3134 H3129 0.949 . S
C3134 C3140 1.368 . S
C3135 C3119 1.349 . S
C3135 H3127 0.950 . S
C3135 C3133 1.327 . S
C3136 C3124 1.349 . S
C3136 H3130 0.950 . S
C3136 C3137 1.327 . S
C3137 H3131 0.950 . S
C3137 C3136 1.327 . S
C3137 C3141 1.429 . S
C3138 C3121 1.574 . S
C3138 H3132 0.949 . S
C3138 C3142 1.368 . S
C3139 C3120 1.429 . S
C3139 C3133 1.429 . S
C3139 C3140 1.523 . S
C3140 C3121 1.368 . S
C3140 C3134 1.368 . S
C3140 C3139 1.523 . S
C3141 C3125 1.429 . S
C3141 C3137 1.429 . S
C3141 C3142 1.523 . S
C3142 C3126 1.368 . S
C3142 C3138 1.368 . S
C3142 C3141 1.523 . S
H3143 C3118 0.950 . S
H3144 C3120 0.950 . S
H3145 C3121 0.949 . S
H3146 C3123 0.950 . S
H3147 C3125 0.950 . S
C3148 C3149 1.349 . S
C3148 C3150 1.327 . S
C3148 H3173 0.950 . S
C3149 C3148 1.349 . S
C3149 C3165 1.349 . S
C3150 C3148 1.327 . S
C3150 C3169 1.429 . S
C3150 H3174 0.950 . S
C3151 C3168 1.574 . S
C3151 C3170 1.368 . S
C3151 H3175 0.949 . S
H3152 C3156 0.949 . S
C3153 C3154 1.349 . S
C3153 C3155 1.327 . S
C3153 H3176 0.950 . S
C3154 C3153 1.349 . S
C3154 C3166 1.349 . S
C3155 C3153 1.327 . S
C3155 C3171 1.429 . S
C3155 H3177 0.950 . S
C3156 H3152 0.949 . S
C3156 C3164 1.574 . S
C3156 C3172 1.368 . S
H3157 C3165 0.950 . S
H3158 C3163 0.950 . S
H3159 C3164 0.949 . S
H3160 C3166 0.950 . S
H3161 C3167 0.950 . S
H3162 C3168 0.949 . S
C3163 H3158 0.950 . S
C3163 C3165 1.327 . S
C3163 C3169 1.429 . S
C3164 C3156 1.574 . S
C3164 H3159 0.949 . S
C3164 C3170 1.368 . S
C3165 C3149 1.349 . S
C3165 H3157 0.950 . S
C3165 C3163 1.327 . S
C3166 C3154 1.349 . S
C3166 H3160 0.950 . S
C3166 C3167 1.327 . S
C3167 H3161 0.950 . S
C3167 C3166 1.327 . S
C3167 C3171 1.429 . S
C3168 C3151 1.574 . S
C3168 H3162 0.949 . S
C3168 C3172 1.368 . S
C3169 C3150 1.429 . S
C3169 C3163 1.429 . S
C3169 C3170 1.523 . S
C3170 C3151 1.368 . S
C3170 C3164 1.368 . S
C3170 C3169 1.523 . S
C3171 C3155 1.429 . S
C3171 C3167 1.429 . S
C3171 C3172 1.523 . S
C3172 C3156 1.368 . S
C3172 C3168 1.368 . S
C3172 C3171 1.523 . S
H3173 C3148 0.950 . S
H3174 C3150 0.950 . S
H3175 C3151 0.949 . S
H3176 C3153 0.950 . S
H3177 C3155 0.950 . S
C3178 C3179 1.349 . S
C3178 C3180 1.327 . S
C3178 H3203 0.950 . S
C3179 C3178 1.349 . S
C3179 C3195 1.349 . S
C3180 C3178 1.327 . S
C3180 C3199 1.429 . S
C3180 H3204 0.950 . S
C3181 C3198 1.574 . S
C3181 C3200 1.368 . S
C3181 H3205 0.949 . S
H3182 C3186 0.949 . S
C3183 C3184 1.349 . S
C3183 C3185 1.327 . S
C3183 H3206 0.950 . S
C3184 C3183 1.349 . S
C3184 C3196 1.349 . S
C3185 C3183 1.327 . S
C3185 C3201 1.429 . S
C3185 H3207 0.950 . S
C3186 H3182 0.949 . S
C3186 C3194 1.574 . S
C3186 C3202 1.368 . S
H3187 C3195 0.950 . S
H3188 C3193 0.950 . S
H3189 C3194 0.949 . S
H3190 C3196 0.950 . S
H3191 C3197 0.950 . S
H3192 C3198 0.949 . S
C3193 H3188 0.950 . S
C3193 C3195 1.327 . S
C3193 C3199 1.429 . S
C3194 C3186 1.574 . S
C3194 H3189 0.949 . S
C3194 C3200 1.368 . S
C3195 C3179 1.349 . S
C3195 H3187 0.950 . S
C3195 C3193 1.327 . S
C3196 C3184 1.349 . S
C3196 H3190 0.950 . S
C3196 C3197 1.327 . S
C3197 H3191 0.950 . S
C3197 C3196 1.327 . S
C3197 C3201 1.429 . S
C3198 C3181 1.574 . S
C3198 H3192 0.949 . S
C3198 C3202 1.368 . S
C3199 C3180 1.429 . S
C3199 C3193 1.429 . S
C3199 C3200 1.523 . S
C3200 C3181 1.368 . S
C3200 C3194 1.368 . S
C3200 C3199 1.523 . S
C3201 C3185 1.429 . S
C3201 C3197 1.429 . S
C3201 C3202 1.523 . S
C3202 C3186 1.368 . S
C3202 C3198 1.368 . S
C3202 C3201 1.523 . S
H3203 C3178 0.950 . S
H3204 C3180 0.950 . S
H3205 C3181 0.949 . S
H3206 C3183 0.950 . S
H3207 C3185 0.950 . S
C3208 C3209 1.349 . S
C3208 C3210 1.327 . S
C3208 H3233 0.950 . S
C3209 C3208 1.349 . S
C3209 C3225 1.349 . S
C3210 C3208 1.327 . S
C3210 C3229 1.429 . S
C3210 H3234 0.950 . S
C3211 C3228 1.574 1_554 S
C3211 C3230 1.368 . S
C3211 H3235 0.949 . S
H3212 C3216 0.949 . S
C3213 C3214 1.349 . S
C3213 C3215 1.327 . S
C3213 H3236 0.950 . S
C3214 C3213 1.349 . S
C3214 C3226 1.349 . S
C3215 C3213 1.327 . S
C3215 C3231 1.429 . S
C3215 H3237 0.950 . S
C3216 H3212 0.949 . S
C3216 C3224 1.574 1_556 S
C3216 C3232 1.368 . S
H3217 C3225 0.950 . S
H3218 C3223 0.950 . S
H3219 C3224 0.949 . S
H3220 C3226 0.950 . S
H3221 C3227 0.950 . S
H3222 C3228 0.949 . S
C3223 H3218 0.950 . S
C3223 C3225 1.327 . S
C3223 C3229 1.429 . S
C3224 C3216 1.574 1_554 S
C3224 H3219 0.949 . S
C3224 C3230 1.368 . S
C3225 C3209 1.349 . S
C3225 H3217 0.950 . S
C3225 C3223 1.327 . S
C3226 C3214 1.349 . S
C3226 H3220 0.950 . S
C3226 C3227 1.327 . S
C3227 H3221 0.950 . S
C3227 C3226 1.327 . S
C3227 C3231 1.429 . S
C3228 C3211 1.574 1_556 S
C3228 H3222 0.949 . S
C3228 C3232 1.368 . S
C3229 C3210 1.429 . S
C3229 C3223 1.429 . S
C3229 C3230 1.523 . S
C3230 C3211 1.368 . S
C3230 C3224 1.368 . S
C3230 C3229 1.523 . S
C3231 C3215 1.429 . S
C3231 C3227 1.429 . S
C3231 C3232 1.523 . S
C3232 C3216 1.368 . S
C3232 C3228 1.368 . S
C3232 C3231 1.523 . S
H3233 C3208 0.950 . S
H3234 C3210 0.950 . S
H3235 C3211 0.949 . S
H3236 C3213 0.950 . S
H3237 C3215 0.950 . S
C3238 C3239 1.349 . S
C3238 C3240 1.327 . S
C3238 H3263 0.950 . S
C3239 C3238 1.349 . S
C3239 C3255 1.349 . S
C3240 C3238 1.327 . S
C3240 C3259 1.429 . S
C3240 H3264 0.950 . S
C3241 C3258 1.589 . S
C3241 C3260 1.353 1_655 S
C3241 H3265 0.951 . S
H3242 C3246 0.951 . S
C3243 C3244 1.349 . S
C3243 C3245 1.327 . S
C3243 H3266 0.950 . S
C3244 C3243 1.349 . S
C3244 C3256 1.349 . S
C3245 C3243 1.327 . S
C3245 C3261 1.429 . S
C3245 H3267 0.950 . S
C3246 H3242 0.951 . S
C3246 C3254 1.589 . S
C3246 C3262 1.353 1_455 S
H3247 C3255 0.950 . S
H3248 C3253 0.950 . S
H3249 C3254 0.949 . S
H3250 C3256 0.950 . S
H3251 C3257 0.950 . S
H3252 C3258 0.949 . S
C3253 H3248 0.950 . S
C3253 C3255 1.327 . S
C3253 C3259 1.429 . S
C3254 C3246 1.589 . S
C3254 H3249 0.949 . S
C3254 C3260 1.368 . S
C3255 C3239 1.349 . S
C3255 H3247 0.950 . S
C3255 C3253 1.327 . S
C3256 C3244 1.349 . S
C3256 H3250 0.950 . S
C3256 C3257 1.327 . S
C3257 H3251 0.950 . S
C3257 C3256 1.327 . S
C3257 C3261 1.429 . S
C3258 C3241 1.589 . S
C3258 H3252 0.949 . S
C3258 C3262 1.368 . S
C3259 C3240 1.429 . S
C3259 C3253 1.429 . S
C3259 C3260 1.523 . S
C3260 C3241 1.353 1_455 S
C3260 C3254 1.368 . S
C3260 C3259 1.523 . S
C3261 C3245 1.429 . S
C3261 C3257 1.429 . S
C3261 C3262 1.523 . S
C3262 C3246 1.353 1_655 S
C3262 C3258 1.368 . S
C3262 C3261 1.523 . S
H3263 C3238 0.950 . S
H3264 C3240 0.950 . S
H3265 C3241 0.951 . S
H3266 C3243 0.950 . S
H3267 C3245 0.950 . S
C3268 C3269 1.349 . S
C3268 C3270 1.327 . S
C3268 H3293 0.950 . S
C3269 C3268 1.349 . S
C3269 C3285 1.349 . S
C3270 C3268 1.327 . S
C3270 C3289 1.429 . S
C3270 H3294 0.950 . S
C3271 C3288 1.574 1_554 S
C3271 C3290 1.368 1_655 S
C3271 H3295 0.949 . S
H3272 C3276 0.949 . S
C3273 C3274 1.349 . S
C3273 C3275 1.327 . S
C3273 H3296 0.950 . S
C3274 C3273 1.349 . S
C3274 C3286 1.349 . S
C3275 C3273 1.327 . S
C3275 C3291 1.429 . S
C3275 H3297 0.950 . S
C3276 H3272 0.949 . S
C3276 C3284 1.574 1_556 S
C3276 C3292 1.368 1_455 S
H3277 C3285 0.950 . S
H3278 C3283 0.950 . S
H3279 C3284 0.949 . S
H3280 C3286 0.950 . S
H3281 C3287 0.950 . S
H3282 C3288 0.949 . S
C3283 H3278 0.950 . S
C3283 C3285 1.327 . S
C3283 C3289 1.429 . S
C3284 C3276 1.574 1_554 S
C3284 H3279 0.949 . S
C3284 C3290 1.368 . S
C3285 C3269 1.349 . S
C3285 H3277 0.950 . S
C3285 C3283 1.327 . S
C3286 C3274 1.349 . S
C3286 H3280 0.950 . S
C3286 C3287 1.327 . S
C3287 H3281 0.950 . S
C3287 C3286 1.327 . S
C3287 C3291 1.429 . S
C3288 C3271 1.574 1_556 S
C3288 H3282 0.949 . S
C3288 C3292 1.368 . S
C3289 C3270 1.429 . S
C3289 C3283 1.429 . S
C3289 C3290 1.523 . S
C3290 C3271 1.368 1_455 S
C3290 C3284 1.368 . S
C3290 C3289 1.523 . S
C3291 C3275 1.429 . S
C3291 C3287 1.429 . S
C3291 C3292 1.523 . S
C3292 C3276 1.368 1_655 S
C3292 C3288 1.368 . S
C3292 C3291 1.523 . S
H3293 C3268 0.950 . S
H3294 C3270 0.950 . S
H3295 C3271 0.949 . S
H3296 C3273 0.950 . S
H3297 C3275 0.950 . S
C3298 C3299 1.349 . S
C3298 C3300 1.327 . S
C3298 H3323 0.950 . S
C3299 C3298 1.349 . S
C3299 C3315 1.349 . S
C3300 C3298 1.327 . S
C3300 C3319 1.429 . S
C3300 H3324 0.950 . S
C3301 C3318 1.574 . S
C3301 C3320 1.368 . S
C3301 H3325 0.949 . S
H3302 C3306 0.949 . S
C3303 C3304 1.349 . S
C3303 C3305 1.327 . S
C3303 H3326 0.950 . S
C3304 C3303 1.349 . S
C3304 C3316 1.349 . S
C3305 C3303 1.327 . S
C3305 C3321 1.429 . S
C3305 H3327 0.950 . S
C3306 H3302 0.949 . S
C3306 C3314 1.574 . S
C3306 C3322 1.368 . S
H3307 C3315 0.950 . S
H3308 C3313 0.950 . S
H3309 C3314 0.949 . S
H3310 C3316 0.950 . S
H3311 C3317 0.950 . S
H3312 C3318 0.949 . S
C3313 H3308 0.950 . S
C3313 C3315 1.327 . S
C3313 C3319 1.429 . S
C3314 C3306 1.574 . S
C3314 H3309 0.949 . S
C3314 C3320 1.368 . S
C3315 C3299 1.349 . S
C3315 H3307 0.950 . S
C3315 C3313 1.327 . S
C3316 C3304 1.349 . S
C3316 H3310 0.950 . S
C3316 C3317 1.327 . S
C3317 H3311 0.950 . S
C3317 C3316 1.327 . S
C3317 C3321 1.429 . S
C3318 C3301 1.574 . S
C3318 H3312 0.949 . S
C3318 C3322 1.368 . S
C3319 C3300 1.429 . S
C3319 C3313 1.429 . S
C3319 C3320 1.523 . S
C3320 C3301 1.368 . S
C3320 C3314 1.368 . S
C3320 C3319 1.523 . S
C3321 C3305 1.429 . S
C3321 C3317 1.429 . S
C3321 C3322 1.523 . S
C3322 C3306 1.368 . S
C3322 C3318 1.368 . S
C3322 C3321 1.523 . S
H3323 C3298 0.950 . S
H3324 C3300 0.950 . S
H3325 C3301 0.949 . S
H3326 C3303 0.950 . S
H3327 C3305 0.950 . S
C3328 C3329 1.349 . S
C3328 C3330 1.327 . S
C3328 H3353 0.950 . S
C3329 C3328 1.349 . S
C3329 C3345 1.349 . S
C3330 C3328 1.327 . S
C3330 C3349 1.429 . S
C3330 H3354 0.950 . S
C3331 C3348 1.574 . S
C3331 C3350 1.368 . S
C3331 H3355 0.949 . S
H3332 C3336 0.949 . S
C3333 C3334 1.349 . S
C3333 C3335 1.327 . S
C3333 H3356 0.950 . S
C3334 C3333 1.349 . S
C3334 C3346 1.349 . S
C3335 C3333 1.327 . S
C3335 C3351 1.429 . S
C3335 H3357 0.950 . S
C3336 H3332 0.949 . S
C3336 C3344 1.574 . S
C3336 C3352 1.368 . S
H3337 C3345 0.950 . S
H3338 C3343 0.950 . S
H3339 C3344 0.949 . S
H3340 C3346 0.950 . S
H3341 C3347 0.950 . S
H3342 C3348 0.949 . S
C3343 H3338 0.950 . S
C3343 C3345 1.327 . S
C3343 C3349 1.429 . S
C3344 C3336 1.574 . S
C3344 H3339 0.949 . S
C3344 C3350 1.368 . S
C3345 C3329 1.349 . S
C3345 H3337 0.950 . S
C3345 C3343 1.327 . S
C3346 C3334 1.349 . S
C3346 H3340 0.950 . S
C3346 C3347 1.327 . S
C3347 H3341 0.950 . S
C3347 C3346 1.327 . S
C3347 C3351 1.429 . S
C3348 C3331 1.574 . S
C3348 H3342 0.949 . S
C3348 C3352 1.368 . S
C3349 C3330 1.429 . S
C3349 C3343 1.429 . S
C3349 C3350 1.523 . S
C3350 C3331 1.368 . S
C3350 C3344 1.368 . S
C3350 C3349 1.523 . S
C3351 C3335 1.429 . S
C3351 C3347 1.429 . S
C3351 C3352 1.523 . S
C3352 C3336 1.368 . S
C3352 C3348 1.368 . S
C3352 C3351 1.523 . S
H3353 C3328 0.950 . S
H3354 C3330 0.950 . S
H3355 C3331 0.949 . S
H3356 C3333 0.950 . S
H3357 C3335 0.950 . S
C3358 C3359 1.349 . S
C3358 C3360 1.327 . S
C3358 H3383 0.950 1_545 S
C3359 C3358 1.349 . S
C3359 C3375 1.349 . S
C3360 C3358 1.327 . S
C3360 C3379 1.429 . S
C3360 H3384 0.950 . S
C3361 C3378 1.574 . S
C3361 C3380 1.368 . S
C3361 H3385 0.949 . S
H3362 C3366 0.949 . S
C3363 C3364 1.349 . S
C3363 C3365 1.327 . S
C3363 H3386 0.950 . S
C3364 C3363 1.349 . S
C3364 C3376 1.349 . S
C3365 C3363 1.327 . S
C3365 C3381 1.429 . S
C3365 H3387 0.950 . S
C3366 H3362 0.949 . S
C3366 C3374 1.574 . S
C3366 C3382 1.368 . S
H3367 C3375 0.950 . S
H3368 C3373 0.950 . S
H3369 C3374 0.949 . S
H3370 C3376 0.950 . S
H3371 C3377 0.950 . S
H3372 C3378 0.949 . S
C3373 H3368 0.950 . S
C3373 C3375 1.327 . S
C3373 C3379 1.429 . S
C3374 C3366 1.574 . S
C3374 H3369 0.949 . S
C3374 C3380 1.368 . S
C3375 C3359 1.349 . S
C3375 H3367 0.950 . S
C3375 C3373 1.327 . S
C3376 C3364 1.349 . S
C3376 H3370 0.950 . S
C3376 C3377 1.327 . S
C3377 H3371 0.950 . S
C3377 C3376 1.327 . S
C3377 C3381 1.429 . S
C3378 C3361 1.574 . S
C3378 H3372 0.949 . S
C3378 C3382 1.368 . S
C3379 C3360 1.429 . S
C3379 C3373 1.429 . S
C3379 C3380 1.523 . S
C3380 C3361 1.368 . S
C3380 C3374 1.368 . S
C3380 C3379 1.523 . S
C3381 C3365 1.429 . S
C3381 C3377 1.429 . S
C3381 C3382 1.523 . S
C3382 C3366 1.368 . S
C3382 C3378 1.368 . S
C3382 C3381 1.523 . S
H3383 C3358 0.950 1_565 S
H3384 C3360 0.950 . S
H3385 C3361 0.949 . S
H3386 C3363 0.950 . S
H3387 C3365 0.950 . S
C3388 C3389 1.349 . S
C3388 C3390 1.327 . S
C3388 H3413 0.950 . S
C3389 C3388 1.349 . S
C3389 C3405 1.349 . S
C3390 C3388 1.327 . S
C3390 C3409 1.429 . S
C3390 H3414 0.950 . S
C3391 C3408 1.574 . S
C3391 C3410 1.368 . S
C3391 H3415 0.949 . S
H3392 C3396 0.949 . S
C3393 C3394 1.349 . S
C3393 C3395 1.327 . S
C3393 H3416 0.950 . S
C3394 C3393 1.349 . S
C3394 C3406 1.349 . S
C3395 C3393 1.327 . S
C3395 C3411 1.429 . S
C3395 H3417 0.950 . S
C3396 H3392 0.949 . S
C3396 C3404 1.574 . S
C3396 C3412 1.368 . S
H3397 C3405 0.950 . S
H3398 C3403 0.950 . S
H3399 C3404 0.949 . S
H3400 C3406 0.950 . S
H3401 C3407 0.950 . S
H3402 C3408 0.949 . S
C3403 H3398 0.950 . S
C3403 C3405 1.327 . S
C3403 C3409 1.429 . S
C3404 C3396 1.574 . S
C3404 H3399 0.949 . S
C3404 C3410 1.368 . S
C3405 C3389 1.349 . S
C3405 H3397 0.950 . S
C3405 C3403 1.327 . S
C3406 C3394 1.349 . S
C3406 H3400 0.950 . S
C3406 C3407 1.327 . S
C3407 H3401 0.950 . S
C3407 C3406 1.327 . S
C3407 C3411 1.429 . S
C3408 C3391 1.574 . S
C3408 H3402 0.949 . S
C3408 C3412 1.368 . S
C3409 C3390 1.429 . S
C3409 C3403 1.429 . S
C3409 C3410 1.523 . S
C3410 C3391 1.368 . S
C3410 C3404 1.368 . S
C3410 C3409 1.523 . S
C3411 C3395 1.429 . S
C3411 C3407 1.429 . S
C3411 C3412 1.523 . S
C3412 C3396 1.368 . S
C3412 C3408 1.368 . S
C3412 C3411 1.523 . S
H3413 C3388 0.950 . S
H3414 C3390 0.950 . S
H3415 C3391 0.949 . S
H3416 C3393 0.950 . S
H3417 C3395 0.950 . S
C3418 C3419 1.349 . S
C3418 C3420 1.327 . S
C3418 H3443 0.950 . S
C3419 C3418 1.349 . S
C3419 C3435 1.349 . S
C3420 C3418 1.327 . S
C3420 C3439 1.429 . S
C3420 H3444 0.950 . S
C3421 C3438 1.574 . S
C3421 C3440 1.368 . S
C3421 H3445 0.949 . S
H3422 C3426 0.949 . S
C3423 C3424 1.349 . S
C3423 C3425 1.327 . S
C3423 H3446 0.950 . S
C3424 C3423 1.349 . S
C3424 C3436 1.349 . S
C3425 C3423 1.327 . S
C3425 C3441 1.429 . S
C3425 H3447 0.950 . S
C3426 H3422 0.949 . S
C3426 C3434 1.574 . S
C3426 C3442 1.368 . S
H3427 C3435 0.950 . S
H3428 C3433 0.950 . S
H3429 C3434 0.949 . S
H3430 C3436 0.950 . S
H3431 C3437 0.950 . S
H3432 C3438 0.949 . S
C3433 H3428 0.950 . S
C3433 C3435 1.327 . S
C3433 C3439 1.429 . S
C3434 C3426 1.574 . S
C3434 H3429 0.949 . S
C3434 C3440 1.368 . S
C3435 C3419 1.349 . S
C3435 H3427 0.950 . S
C3435 C3433 1.327 . S
C3436 C3424 1.349 . S
C3436 H3430 0.950 . S
C3436 C3437 1.327 . S
C3437 H3431 0.950 . S
C3437 C3436 1.327 . S
C3437 C3441 1.429 . S
C3438 C3421 1.574 . S
C3438 H3432 0.949 . S
C3438 C3442 1.368 . S
C3439 C3420 1.429 . S
C3439 C3433 1.429 . S
C3439 C3440 1.523 . S
C3440 C3421 1.368 . S
C3440 C3434 1.368 . S
C3440 C3439 1.523 . S
C3441 C3425 1.429 . S
C3441 C3437 1.429 . S
C3441 C3442 1.523 . S
C3442 C3426 1.368 . S
C3442 C3438 1.368 . S
C3442 C3441 1.523 . S
H3443 C3418 0.950 . S
H3444 C3420 0.950 . S
H3445 C3421 0.949 . S
H3446 C3423 0.950 . S
H3447 C3425 0.950 . S
C3448 C3449 1.349 . S
C3448 C3450 1.327 . S
C3448 H3473 0.950 . S
C3449 C3448 1.349 . S
C3449 C3465 1.349 . S
C3450 C3448 1.327 . S
C3450 C3469 1.429 . S
C3450 H3474 0.950 . S
C3451 C3468 1.574 . S
C3451 C3470 1.368 . S
C3451 H3475 0.949 . S
H3452 C3456 0.949 . S
C3453 C3454 1.349 . S
C3453 C3455 1.327 . S
C3453 H3476 0.950 . S
C3454 C3453 1.349 . S
C3454 C3466 1.349 . S
C3455 C3453 1.327 . S
C3455 C3471 1.429 . S
C3455 H3477 0.950 . S
C3456 H3452 0.949 . S
C3456 C3464 1.574 . S
C3456 C3472 1.368 . S
H3457 C3465 0.950 . S
H3458 C3463 0.950 . S
H3459 C3464 0.949 . S
H3460 C3466 0.950 1_545 S
H3461 C3467 0.950 . S
H3462 C3468 0.949 . S
C3463 H3458 0.950 . S
C3463 C3465 1.327 . S
C3463 C3469 1.429 . S
C3464 C3456 1.574 . S
C3464 H3459 0.949 . S
C3464 C3470 1.368 . S
C3465 C3449 1.349 . S
C3465 H3457 0.950 . S
C3465 C3463 1.327 . S
C3466 C3454 1.349 . S
C3466 H3460 0.950 1_565 S
C3466 C3467 1.327 . S
C3467 H3461 0.950 . S
C3467 C3466 1.327 . S
C3467 C3471 1.429 . S
C3468 C3451 1.574 . S
C3468 H3462 0.949 . S
C3468 C3472 1.368 . S
C3469 C3450 1.429 . S
C3469 C3463 1.429 . S
C3469 C3470 1.523 . S
C3470 C3451 1.368 . S
C3470 C3464 1.368 . S
C3470 C3469 1.523 . S
C3471 C3455 1.429 . S
C3471 C3467 1.429 . S
C3471 C3472 1.523 . S
C3472 C3456 1.368 . S
C3472 C3468 1.368 . S
C3472 C3471 1.523 . S
H3473 C3448 0.950 . S
H3474 C3450 0.950 . S
H3475 C3451 0.949 . S
H3476 C3453 0.950 . S
H3477 C3455 0.950 . S
C3478 C3479 1.349 . S
C3478 C3480 1.327 . S
C3478 H3503 0.950 1_565 S
C3479 C3478 1.349 . S
C3479 C3495 1.349 . S
C3480 C3478 1.327 . S
C3480 C3499 1.429 . S
C3480 H3504 0.950 . S
C3481 C3498 1.574 . S
C3481 C3500 1.368 . S
C3481 H3505 0.949 . S
H3482 C3486 0.949 . S
C3483 C3484 1.349 . S
C3483 C3485 1.327 . S
C3483 H3506 0.950 . S
C3484 C3483 1.349 . S
C3484 C3496 1.349 . S
C3485 C3483 1.327 . S
C3485 C3501 1.429 . S
C3485 H3507 0.950 . S
C3486 H3482 0.949 . S
C3486 C3494 1.574 . S
C3486 C3502 1.368 . S
H3487 C3495 0.950 . S
H3488 C3493 0.950 . S
H3489 C3494 0.949 . S
H3490 C3496 0.950 . S
H3491 C3497 0.950 . S
H3492 C3498 0.949 . S
C3493 H3488 0.950 . S
C3493 C3495 1.327 . S
C3493 C3499 1.429 . S
C3494 C3486 1.574 . S
C3494 H3489 0.949 . S
C3494 C3500 1.368 . S
C3495 C3479 1.349 . S
C3495 H3487 0.950 . S
C3495 C3493 1.327 . S
C3496 C3484 1.349 . S
C3496 H3490 0.950 . S
C3496 C3497 1.327 . S
C3497 H3491 0.950 . S
C3497 C3496 1.327 . S
C3497 C3501 1.429 . S
C3498 C3481 1.574 . S
C3498 H3492 0.949 . S
C3498 C3502 1.368 . S
C3499 C3480 1.429 . S
C3499 C3493 1.429 . S
C3499 C3500 1.523 . S
C3500 C3481 1.368 . S
C3500 C3494 1.368 . S
C3500 C3499 1.523 . S
C3501 C3485 1.429 . S
C3501 C3497 1.429 . S
C3501 C3502 1.523 . S
C3502 C3486 1.368 . S
C3502 C3498 1.368 . S
C3502 C3501 1.523 . S
H3503 C3478 0.950 1_545 S
H3504 C3480 0.950 . S
H3505 C3481 0.949 . S
H3506 C3483 0.950 . S
H3507 C3485 0.950 . S
C3508 C3509 1.349 . S
C3508 C3510 1.327 . S
C3508 H3533 0.950 . S
C3509 C3508 1.349 . S
C3509 C3525 1.349 . S
C3510 C3508 1.327 . S
C3510 C3529 1.429 . S
C3510 H3534 0.950 . S
C3511 C3528 1.574 . S
C3511 C3530 1.368 . S
C3511 H3535 0.949 . S
H3512 C3516 0.949 . S
C3513 C3514 1.349 . S
C3513 C3515 1.327 . S
C3513 H3536 0.950 . S
C3514 C3513 1.349 . S
C3514 C3526 1.349 . S
C3515 C3513 1.327 . S
C3515 C3531 1.429 . S
C3515 H3537 0.950 . S
C3516 H3512 0.949 . S
C3516 C3524 1.574 . S
C3516 C3532 1.368 . S
H3517 C3525 0.950 . S
H3518 C3523 0.950 . S
H3519 C3524 0.949 . S
H3520 C3526 0.950 . S
H3521 C3527 0.950 . S
H3522 C3528 0.949 . S
C3523 H3518 0.950 . S
C3523 C3525 1.327 . S
C3523 C3529 1.429 . S
C3524 C3516 1.574 . S
C3524 H3519 0.949 . S
C3524 C3530 1.368 . S
C3525 C3509 1.349 . S
C3525 H3517 0.950 . S
C3525 C3523 1.327 . S
C3526 C3514 1.349 . S
C3526 H3520 0.950 . S
C3526 C3527 1.327 . S
C3527 H3521 0.950 . S
C3527 C3526 1.327 . S
C3527 C3531 1.429 . S
C3528 C3511 1.574 . S
C3528 H3522 0.949 . S
C3528 C3532 1.368 . S
C3529 C3510 1.429 . S
C3529 C3523 1.429 . S
C3529 C3530 1.523 . S
C3530 C3511 1.368 . S
C3530 C3524 1.368 . S
C3530 C3529 1.523 . S
C3531 C3515 1.429 . S
C3531 C3527 1.429 . S
C3531 C3532 1.523 . S
C3532 C3516 1.368 . S
C3532 C3528 1.368 . S
C3532 C3531 1.523 . S
H3533 C3508 0.950 . S
H3534 C3510 0.950 . S
H3535 C3511 0.949 . S
H3536 C3513 0.950 . S
H3537 C3515 0.950 . S
C3538 C3539 1.349 . S
C3538 C3540 1.327 . S
C3538 H3563 0.950 . S
C3539 C3538 1.349 . S
C3539 C3555 1.349 . S
C3540 C3538 1.327 . S
C3540 C3559 1.429 . S
C3540 H3564 0.950 . S
C3541 C3558 1.574 . S
C3541 C3560 1.368 . S
C3541 H3565 0.949 . S
H3542 C3546 0.949 . S
C3543 C3544 1.349 . S
C3543 C3545 1.327 . S
C3543 H3566 0.950 . S
C3544 C3543 1.349 . S
C3544 C3556 1.349 . S
C3545 C3543 1.327 . S
C3545 C3561 1.429 . S
C3545 H3567 0.950 . S
C3546 H3542 0.949 . S
C3546 C3554 1.574 . S
C3546 C3562 1.368 . S
H3547 C3555 0.950 . S
H3548 C3553 0.950 . S
H3549 C3554 0.949 . S
H3550 C3556 0.950 . S
H3551 C3557 0.950 . S
H3552 C3558 0.949 . S
C3553 H3548 0.950 . S
C3553 C3555 1.327 . S
C3553 C3559 1.429 . S
C3554 C3546 1.574 . S
C3554 H3549 0.949 . S
C3554 C3560 1.368 . S
C3555 C3539 1.349 . S
C3555 H3547 0.950 . S
C3555 C3553 1.327 . S
C3556 C3544 1.349 . S
C3556 H3550 0.950 . S
C3556 C3557 1.327 . S
C3557 H3551 0.950 . S
C3557 C3556 1.327 . S
C3557 C3561 1.429 . S
C3558 C3541 1.574 . S
C3558 H3552 0.949 . S
C3558 C3562 1.368 . S
C3559 C3540 1.429 . S
C3559 C3553 1.429 . S
C3559 C3560 1.523 . S
C3560 C3541 1.368 . S
C3560 C3554 1.368 . S
C3560 C3559 1.523 . S
C3561 C3545 1.429 . S
C3561 C3557 1.429 . S
C3561 C3562 1.523 . S
C3562 C3546 1.368 . S
C3562 C3558 1.368 . S
C3562 C3561 1.523 . S
H3563 C3538 0.950 . S
H3564 C3540 0.950 . S
H3565 C3541 0.949 . S
H3566 C3543 0.950 . S
H3567 C3545 0.950 . S
C3568 C3569 1.349 . S
C3568 C3570 1.327 . S
C3568 H3593 0.950 . S
C3569 C3568 1.349 . S
C3569 C3585 1.349 . S
C3570 C3568 1.327 . S
C3570 C3589 1.429 . S
C3570 H3594 0.950 . S
C3571 C3588 1.574 . S
C3571 C3590 1.368 . S
C3571 H3595 0.949 . S
H3572 C3576 0.949 . S
C3573 C3574 1.349 . S
C3573 C3575 1.327 . S
C3573 H3596 0.950 . S
C3574 C3573 1.349 . S
C3574 C3586 1.349 . S
C3575 C3573 1.327 . S
C3575 C3591 1.429 . S
C3575 H3597 0.950 . S
C3576 H3572 0.949 . S
C3576 C3584 1.574 . S
C3576 C3592 1.368 . S
H3577 C3585 0.950 . S
H3578 C3583 0.950 . S
H3579 C3584 0.949 . S
H3580 C3586 0.950 . S
H3581 C3587 0.950 . S
H3582 C3588 0.949 . S
C3583 H3578 0.950 . S
C3583 C3585 1.327 . S
C3583 C3589 1.429 . S
C3584 C3576 1.574 . S
C3584 H3579 0.949 . S
C3584 C3590 1.368 . S
C3585 C3569 1.349 . S
C3585 H3577 0.950 . S
C3585 C3583 1.327 . S
C3586 C3574 1.349 . S
C3586 H3580 0.950 . S
C3586 C3587 1.327 . S
C3587 H3581 0.950 . S
C3587 C3586 1.327 . S
C3587 C3591 1.429 . S
C3588 C3571 1.574 . S
C3588 H3582 0.949 . S
C3588 C3592 1.368 . S
C3589 C3570 1.429 . S
C3589 C3583 1.429 . S
C3589 C3590 1.523 . S
C3590 C3571 1.368 . S
C3590 C3584 1.368 . S
C3590 C3589 1.523 . S
C3591 C3575 1.429 . S
C3591 C3587 1.429 . S
C3591 C3592 1.523 . S
C3592 C3576 1.368 . S
C3592 C3588 1.368 . S
C3592 C3591 1.523 . S
H3593 C3568 0.950 . S
H3594 C3570 0.950 . S
H3595 C3571 0.949 . S
H3596 C3573 0.950 . S
H3597 C3575 0.950 . S
C3598 C3599 1.349 . S
C3598 C3600 1.327 . S
C3598 H3623 0.950 . S
C3599 C3598 1.349 . S
C3599 C3615 1.349 . S
C3600 C3598 1.327 . S
C3600 C3619 1.429 . S
C3600 H3624 0.950 . S
C3601 C3618 1.574 . S
C3601 C3620 1.368 . S
C3601 H3625 0.949 . S
H3602 C3606 0.949 . S
C3603 C3604 1.349 . S
C3603 C3605 1.327 . S
C3603 H3626 0.950 . S
C3604 C3603 1.349 . S
C3604 C3616 1.349 . S
C3605 C3603 1.327 . S
C3605 C3621 1.429 . S
C3605 H3627 0.950 . S
C3606 H3602 0.949 . S
C3606 C3614 1.574 . S
C3606 C3622 1.368 . S
H3607 C3615 0.950 . S
H3608 C3613 0.950 . S
H3609 C3614 0.949 . S
H3610 C3616 0.950 . S
H3611 C3617 0.950 . S
H3612 C3618 0.949 . S
C3613 H3608 0.950 . S
C3613 C3615 1.327 . S
C3613 C3619 1.429 . S
C3614 C3606 1.574 . S
C3614 H3609 0.949 . S
C3614 C3620 1.368 . S
C3615 C3599 1.349 . S
C3615 H3607 0.950 . S
C3615 C3613 1.327 . S
C3616 C3604 1.349 . S
C3616 H3610 0.950 . S
C3616 C3617 1.327 . S
C3617 H3611 0.950 . S
C3617 C3616 1.327 . S
C3617 C3621 1.429 . S
C3618 C3601 1.574 . S
C3618 H3612 0.949 . S
C3618 C3622 1.368 . S
C3619 C3600 1.429 . S
C3619 C3613 1.429 . S
C3619 C3620 1.523 . S
C3620 C3601 1.368 . S
C3620 C3614 1.368 . S
C3620 C3619 1.523 . S
C3621 C3605 1.429 . S
C3621 C3617 1.429 . S
C3621 C3622 1.523 . S
C3622 C3606 1.368 . S
C3622 C3618 1.368 . S
C3622 C3621 1.523 . S
H3623 C3598 0.950 . S
H3624 C3600 0.950 . S
H3625 C3601 0.949 . S
H3626 C3603 0.950 . S
H3627 C3605 0.950 . S
C3628 C3629 1.349 . S
C3628 C3630 1.327 . S
C3628 H3653 0.950 . S
C3629 C3628 1.349 . S
C3629 C3645 1.349 . S
C3630 C3628 1.327 . S
C3630 C3649 1.429 . S
C3630 H3654 0.950 . S
C3631 C3648 1.574 . S
C3631 C3650 1.368 . S
C3631 H3655 0.949 . S
H3632 C3636 0.949 . S
C3633 C3634 1.349 . S
C3633 C3635 1.327 . S
C3633 H3656 0.950 . S
C3634 C3633 1.349 . S
C3634 C3646 1.349 . S
C3635 C3633 1.327 . S
C3635 C3651 1.429 . S
C3635 H3657 0.950 . S
C3636 H3632 0.949 . S
C3636 C3644 1.574 . S
C3636 C3652 1.368 . S
H3637 C3645 0.950 . S
H3638 C3643 0.950 . S
H3639 C3644 0.949 . S
H3640 C3646 0.950 . S
H3641 C3647 0.950 . S
H3642 C3648 0.949 . S
C3643 H3638 0.950 . S
C3643 C3645 1.327 . S
C3643 C3649 1.429 . S
C3644 C3636 1.574 . S
C3644 H3639 0.949 . S
C3644 C3650 1.368 . S
C3645 C3629 1.349 . S
C3645 H3637 0.950 . S
C3645 C3643 1.327 . S
C3646 C3634 1.349 . S
C3646 H3640 0.950 . S
C3646 C3647 1.327 . S
C3647 H3641 0.950 . S
C3647 C3646 1.327 . S
C3647 C3651 1.429 . S
C3648 C3631 1.574 . S
C3648 H3642 0.949 . S
C3648 C3652 1.368 . S
C3649 C3630 1.429 . S
C3649 C3643 1.429 . S
C3649 C3650 1.523 . S
C3650 C3631 1.368 . S
C3650 C3644 1.368 . S
C3650 C3649 1.523 . S
C3651 C3635 1.429 . S
C3651 C3647 1.429 . S
C3651 C3652 1.523 . S
C3652 C3636 1.368 . S
C3652 C3648 1.368 . S
C3652 C3651 1.523 . S
H3653 C3628 0.950 . S
H3654 C3630 0.950 . S
H3655 C3631 0.949 . S
H3656 C3633 0.950 . S
H3657 C3635 0.950 . S
C3658 C3659 1.349 . S
C3658 C3660 1.327 . S
C3658 H3683 0.950 . S
C3659 C3658 1.349 . S
C3659 C3675 1.349 . S
C3660 C3658 1.327 . S
C3660 C3679 1.429 . S
C3660 H3684 0.950 . S
C3661 C3678 1.574 . S
C3661 C3680 1.368 . S
C3661 H3685 0.949 . S
H3662 C3666 0.949 . S
C3663 C3664 1.349 . S
C3663 C3665 1.327 . S
C3663 H3686 0.950 . S
C3664 C3663 1.349 . S
C3664 C3676 1.349 . S
C3665 C3663 1.327 . S
C3665 C3681 1.429 . S
C3665 H3687 0.950 . S
C3666 H3662 0.949 . S
C3666 C3674 1.574 . S
C3666 C3682 1.368 . S
H3667 C3675 0.950 . S
H3668 C3673 0.950 . S
H3669 C3674 0.949 . S
H3670 C3676 0.950 . S
H3671 C3677 0.950 . S
H3672 C3678 0.949 . S
C3673 H3668 0.950 . S
C3673 C3675 1.327 . S
C3673 C3679 1.429 . S
C3674 C3666 1.574 . S
C3674 H3669 0.949 . S
C3674 C3680 1.368 . S
C3675 C3659 1.349 . S
C3675 H3667 0.950 . S
C3675 C3673 1.327 . S
C3676 C3664 1.349 . S
C3676 H3670 0.950 . S
C3676 C3677 1.327 . S
C3677 H3671 0.950 . S
C3677 C3676 1.327 . S
C3677 C3681 1.429 . S
C3678 C3661 1.574 . S
C3678 H3672 0.949 . S
C3678 C3682 1.368 . S
C3679 C3660 1.429 . S
C3679 C3673 1.429 . S
C3679 C3680 1.523 . S
C3680 C3661 1.368 . S
C3680 C3674 1.368 . S
C3680 C3679 1.523 . S
C3681 C3665 1.429 . S
C3681 C3677 1.429 . S
C3681 C3682 1.523 . S
C3682 C3666 1.368 . S
C3682 C3678 1.368 . S
C3682 C3681 1.523 . S
H3683 C3658 0.950 . S
H3684 C3660 0.950 . S
H3685 C3661 0.949 . S
H3686 C3663 0.950 . S
H3687 C3665 0.950 . S
C3688 C3689 1.349 . S
C3688 C3690 1.327 . S
C3688 H3713 0.950 . S
C3689 C3688 1.349 . S
C3689 C3705 1.349 . S
C3690 C3688 1.327 . S
C3690 C3709 1.429 . S
C3690 H3714 0.950 . S
C3691 C3708 1.574 . S
C3691 C3710 1.368 . S
C3691 H3715 0.949 . S
H3692 C3696 0.949 . S
C3693 C3694 1.349 . S
C3693 C3695 1.327 . S
C3693 H3716 0.950 . S
C3694 C3693 1.349 . S
C3694 C3706 1.349 . S
C3695 C3693 1.327 . S
C3695 C3711 1.429 . S
C3695 H3717 0.950 . S
C3696 H3692 0.949 . S
C3696 C3704 1.574 . S
C3696 C3712 1.368 . S
H3697 C3705 0.950 . S
H3698 C3703 0.950 . S
H3699 C3704 0.949 . S
H3700 C3706 0.950 . S
H3701 C3707 0.950 . S
H3702 C3708 0.949 . S
C3703 H3698 0.950 . S
C3703 C3705 1.327 . S
C3703 C3709 1.429 . S
C3704 C3696 1.574 . S
C3704 H3699 0.949 . S
C3704 C3710 1.368 . S
C3705 C3689 1.349 . S
C3705 H3697 0.950 . S
C3705 C3703 1.327 . S
C3706 C3694 1.349 . S
C3706 H3700 0.950 . S
C3706 C3707 1.327 . S
C3707 H3701 0.950 . S
C3707 C3706 1.327 . S
C3707 C3711 1.429 . S
C3708 C3691 1.574 . S
C3708 H3702 0.949 . S
C3708 C3712 1.368 . S
C3709 C3690 1.429 . S
C3709 C3703 1.429 . S
C3709 C3710 1.523 . S
C3710 C3691 1.368 . S
C3710 C3704 1.368 . S
C3710 C3709 1.523 . S
C3711 C3695 1.429 . S
C3711 C3707 1.429 . S
C3711 C3712 1.523 . S
C3712 C3696 1.368 . S
C3712 C3708 1.368 . S
C3712 C3711 1.523 . S
H3713 C3688 0.950 . S
H3714 C3690 0.950 . S
H3715 C3691 0.949 . S
H3716 C3693 0.950 . S
H3717 C3695 0.950 . S
C3718 C3719 1.349 . S
C3718 C3720 1.327 . S
C3718 H3743 0.950 . S
C3719 C3718 1.349 . S
C3719 C3735 1.349 . S
C3720 C3718 1.327 . S
C3720 C3739 1.429 . S
C3720 H3744 0.950 . S
C3721 C3738 1.574 . S
C3721 C3740 1.368 . S
C3721 H3745 0.949 . S
H3722 C3726 0.949 . S
C3723 C3724 1.349 . S
C3723 C3725 1.327 . S
C3723 H3746 0.950 . S
C3724 C3723 1.349 . S
C3724 C3736 1.349 . S
C3725 C3723 1.327 . S
C3725 C3741 1.429 . S
C3725 H3747 0.950 . S
C3726 H3722 0.949 . S
C3726 C3734 1.574 . S
C3726 C3742 1.368 . S
H3727 C3735 0.950 . S
H3728 C3733 0.950 . S
H3729 C3734 0.949 . S
H3730 C3736 0.950 . S
H3731 C3737 0.950 . S
H3732 C3738 0.949 . S
C3733 H3728 0.950 . S
C3733 C3735 1.327 . S
C3733 C3739 1.429 . S
C3734 C3726 1.574 . S
C3734 H3729 0.949 . S
C3734 C3740 1.368 . S
C3735 C3719 1.349 . S
C3735 H3727 0.950 . S
C3735 C3733 1.327 . S
C3736 C3724 1.349 . S
C3736 H3730 0.950 . S
C3736 C3737 1.327 . S
C3737 H3731 0.950 . S
C3737 C3736 1.327 . S
C3737 C3741 1.429 . S
C3738 C3721 1.574 . S
C3738 H3732 0.949 . S
C3738 C3742 1.368 . S
C3739 C3720 1.429 . S
C3739 C3733 1.429 . S
C3739 C3740 1.523 . S
C3740 C3721 1.368 . S
C3740 C3734 1.368 . S
C3740 C3739 1.523 . S
C3741 C3725 1.429 . S
C3741 C3737 1.429 . S
C3741 C3742 1.523 . S
C3742 C3726 1.368 . S
C3742 C3738 1.368 . S
C3742 C3741 1.523 . S
H3743 C3718 0.950 . S
H3744 C3720 0.950 . S
H3745 C3721 0.949 . S
H3746 C3723 0.950 . S
H3747 C3725 0.950 . S
C3748 C3749 1.349 . S
C3748 C3750 1.327 . S
C3748 H3773 0.950 . S
C3749 C3748 1.349 . S
C3749 C3765 1.349 . S
C3750 C3748 1.327 . S
C3750 C3769 1.429 . S
C3750 H3774 0.950 . S
C3751 C3768 1.574 . S
C3751 C3770 1.368 . S
C3751 H3775 0.949 . S
H3752 C3756 0.949 . S
C3753 C3754 1.349 . S
C3753 C3755 1.327 . S
C3753 H3776 0.950 . S
C3754 C3753 1.349 . S
C3754 C3766 1.349 . S
C3755 C3753 1.327 . S
C3755 C3771 1.429 . S
C3755 H3777 0.950 . S
C3756 H3752 0.949 . S
C3756 C3764 1.574 . S
C3756 C3772 1.368 . S
H3757 C3765 0.950 . S
H3758 C3763 0.950 . S
H3759 C3764 0.949 . S
H3760 C3766 0.950 . S
H3761 C3767 0.950 . S
H3762 C3768 0.949 . S
C3763 H3758 0.950 . S
C3763 C3765 1.327 . S
C3763 C3769 1.429 . S
C3764 C3756 1.574 . S
C3764 H3759 0.949 . S
C3764 C3770 1.368 . S
C3765 C3749 1.349 . S
C3765 H3757 0.950 . S
C3765 C3763 1.327 . S
C3766 C3754 1.349 . S
C3766 H3760 0.950 . S
C3766 C3767 1.327 . S
C3767 H3761 0.950 . S
C3767 C3766 1.327 . S
C3767 C3771 1.429 . S
C3768 C3751 1.574 . S
C3768 H3762 0.949 . S
C3768 C3772 1.368 . S
C3769 C3750 1.429 . S
C3769 C3763 1.429 . S
C3769 C3770 1.523 . S
C3770 C3751 1.368 . S
C3770 C3764 1.368 . S
C3770 C3769 1.523 . S
C3771 C3755 1.429 . S
C3771 C3767 1.429 . S
C3771 C3772 1.523 . S
C3772 C3756 1.368 . S
C3772 C3768 1.368 . S
C3772 C3771 1.523 . S
H3773 C3748 0.950 . S
H3774 C3750 0.950 . S
H3775 C3751 0.949 . S
H3776 C3753 0.950 . S
H3777 C3755 0.950 . S
C3778 C3779 1.349 . S
C3778 C3780 1.327 . S
C3778 H3803 0.950 . S
C3779 C3778 1.349 . S
C3779 C3795 1.349 . S
C3780 C3778 1.327 . S
C3780 C3799 1.429 . S
C3780 H3804 0.950 . S
C3781 C3798 1.574 . S
C3781 C3800 1.368 . S
C3781 H3805 0.949 . S
H3782 C3786 0.949 . S
C3783 C3784 1.349 . S
C3783 C3785 1.327 . S
C3783 H3806 0.950 . S
C3784 C3783 1.349 . S
C3784 C3796 1.349 . S
C3785 C3783 1.327 . S
C3785 C3801 1.429 . S
C3785 H3807 0.950 . S
C3786 H3782 0.949 . S
C3786 C3794 1.574 . S
C3786 C3802 1.368 . S
H3787 C3795 0.950 . S
H3788 C3793 0.950 . S
H3789 C3794 0.949 . S
H3790 C3796 0.950 . S
H3791 C3797 0.950 . S
H3792 C3798 0.949 . S
C3793 H3788 0.950 . S
C3793 C3795 1.327 . S
C3793 C3799 1.429 . S
C3794 C3786 1.574 . S
C3794 H3789 0.949 . S
C3794 C3800 1.368 . S
C3795 C3779 1.349 . S
C3795 H3787 0.950 . S
C3795 C3793 1.327 . S
C3796 C3784 1.349 . S
C3796 H3790 0.950 . S
C3796 C3797 1.327 . S
C3797 H3791 0.950 . S
C3797 C3796 1.327 . S
C3797 C3801 1.429 . S
C3798 C3781 1.574 . S
C3798 H3792 0.949 . S
C3798 C3802 1.368 . S
C3799 C3780 1.429 . S
C3799 C3793 1.429 . S
C3799 C3800 1.523 . S
C3800 C3781 1.368 . S
C3800 C3794 1.368 . S
C3800 C3799 1.523 . S
C3801 C3785 1.429 . S
C3801 C3797 1.429 . S
C3801 C3802 1.523 . S
C3802 C3786 1.368 . S
C3802 C3798 1.368 . S
C3802 C3801 1.523 . S
H3803 C3778 0.950 . S
H3804 C3780 0.950 . S
H3805 C3781 0.949 . S
H3806 C3783 0.950 . S
H3807 C3785 0.950 . S
C1889 C1626 1.401 . S
C1894 C52 1.402 . S
C1919 C111 1.402 . S
C1924 C505 1.401 . S
C1949 C1508 1.401 . S
C1954 C170 1.402 . S
C1979 C229 1.402 . S
C1984 C623 1.401 . S
C2009 C288 1.402 . S
C2014 C1744 1.401 . S
C2039 C347 1.402 . S
C2044 C859 1.401 . S
C2069 C406 1.402 . S
C2074 C1862 1.401 . S
C2099 C465 1.402 . S
C2104 C741 1.401 . S
C2129 C1154 1.401 . S
C2134 C524 1.402 . S
C2159 C33 1.401 . S
C2164 C583 1.402 . S
C2189 C1036 1.401 . S
C2194 C642 1.402 . S
C2219 C701 1.402 . S
C2224 C151 1.401 . S
C2249 C1272 1.401 . S
C2254 C760 1.402 . S
C2279 C387 1.401 . S
C2284 C819 1.402 . S
C2309 C878 1.402 . S
C2314 C1390 1.401 . S
C2339 C269 1.401 . S
C2344 C937 1.402 . S
C2369 C996 1.402 . S
C2374 C682 1.401 . S
C2399 C1055 1.402 . S
C2404 C1449 1.401 . S
C2429 C564 1.401 . S
C2434 C1114 1.402 . S
C2459 C1567 1.401 . S
C2464 C1173 1.402 . S
C2489 C800 1.401 . S
C2494 C1232 1.402 . S
C2519 C1803 1.401 . S
C2524 C1291 1.402 . S
C2549 C918 1.401 . S
C2554 C1350 1.402 . S
C2579 C1409 1.402 . S
C2584 C1685 1.401 . S
C2609 C210 1.401 . S
C2614 C1468 1.402 . S
C2639 C1527 1.402 . S
C2644 C977 1.401 . S
C2669 C1586 1.402 . S
C2674 C92 1.401 . S
C2699 C1645 1.402 . S
C2704 C1095 1.401 . S
C2729 C1704 1.402 . S
C2734 C328 1.401 . S
C2759 C1763 1.402 . S
C2764 C1331 1.401 . S
C2789 C1822 1.402 . S
C2794 C446 1.401 . S
C2819 C1881 1.402 . S
C2824 C1213 1.401 . S
C2849 C1419 1.504 . S
C2854 C3 1.504 . S
C2879 C62 1.504 . S
C2884 C534 1.504 . S
C2909 C1537 1.504 . S
C2914 C121 1.504 . S
C2939 C180 1.504 . S
C2944 C652 1.504 . S
C2969 C1655 1.504 . S
C2974 C239 1.504 . S
C2999 C298 1.504 . S
C3004 C770 1.504 . S
C3029 C1773 1.504 . S
C3034 C357 1.504 . S
C3059 C416 1.504 . S
C3064 C888 1.504 . S
C3089 C475 1.504 . S
C3094 C947 1.504 . S
C3119 C593 1.504 . S
C3124 C1065 1.504 . S
C3149 C711 1.504 . S
C3154 C1183 1.504 . S
C3179 C829 1.504 . S
C3184 C1301 1.504 . S
C3209 C1006 1.504 . S
C3214 C1478 1.504 . S
C3239 C1596 1.504 . S
C3244 C1124 1.504 . S
C3269 C1714 1.504 . S
C3274 C1242 1.504 . S
C3299 C1360 1.504 . S
C3304 C1832 1.504 . S
C3329 C5 1.733 . S
C3334 C300 1.733 1_545 S
C3359 C64 1.733 1_545 S
C3364 C359 1.733 . S
C3389 C123 1.733 . S
C3394 C418 1.733 1_565 S
C3419 C241 1.733 . S
C3424 C182 1.733 1_565 S
C3449 C477 1.733 . S
C3454 C772 1.733 1_565 S
C3479 C536 1.733 1_565 S
C3484 C831 1.733 . S
C3509 C595 1.733 . S
C3514 C890 1.733 1_545 S
C3539 C654 1.733 1_545 S
C3544 C713 1.733 . S
C3569 C949 1.733 . S
C3574 C1244 1.733 . S
C3599 C1303 1.733 . S
C3604 C1008 1.733 . S
C3629 C1067 1.733 . S
C3634 C1362 1.733 . S
C3659 C1126 1.733 . S
C3664 C1185 1.733 . S
C3689 C1716 1.733 . S
C3694 C1421 1.733 . S
C3719 C1480 1.733 . S
C3724 C1775 1.733 . S
C3749 C1834 1.733 . S
C3754 C1539 1.733 . S
C3779 C1598 1.733 . S
C3784 C1657 1.733 . S
