# Generated by pormake.
# Topology ofo, (3)-cn, num edge types: 1
# Building blocks:
#     Node 0, Type 0, BuildingBlock: WUSLED_clean_sbu_0, # of connection points: 3
#     Node 1, Type 0, BuildingBlock: WUSLED_clean_sbu_0, # of connection points: 3
#     Node 2, Type 0, BuildingBlock: WUSLED_clean_sbu_0, # of connection points: 3
#     Node 3, Type 0, BuildingBlock: WUSLED_clean_sbu_0, # of connection points: 3
#     Node 4, Type 0, BuildingBlock: WUSLED_clean_sbu_0, # of connection points: 3
#     Node 5, Type 0, BuildingBlock: WUSLED_clean_sbu_0, # of connection points: 3
#     Node 6, Type 0, BuildingBlock: WUSLED_clean_sbu_0, # of connection points: 3
#     Node 7, Type 0, BuildingBlock: WUSLED_clean_sbu_0, # of connection points: 3
#     Node 8, Type 0, BuildingBlock: WUSLED_clean_sbu_0, # of connection points: 3
#     Node 9, Type 0, BuildingBlock: WUSLED_clean_sbu_0, # of connection points: 3
#     Node 10, Type 0, BuildingBlock: WUSLED_clean_sbu_0, # of connection points: 3
#     Node 11, Type 0, BuildingBlock: WUSLED_clean_sbu_0, # of connection points: 3
#     Edge 12, Type (0, 0), BuildingBlock: OJICUG_clean_linker_0, # of connection points: 2
#     Edge 13, Type (0, 0), BuildingBlock: OJICUG_clean_linker_0, # of connection points: 2
#     Edge 14, Type (0, 0), BuildingBlock: OJICUG_clean_linker_0, # of connection points: 2
#     Edge 15, Type (0, 0), BuildingBlock: OJICUG_clean_linker_0, # of connection points: 2
#     Edge 16, Type (0, 0), BuildingBlock: OJICUG_clean_linker_0, # of connection points: 2
#     Edge 17, Type (0, 0), BuildingBlock: OJICUG_clean_linker_0, # of connection points: 2
#     Edge 18, Type (0, 0), BuildingBlock: OJICUG_clean_linker_0, # of connection points: 2
#     Edge 19, Type (0, 0), BuildingBlock: OJICUG_clean_linker_0, # of connection points: 2
#     Edge 20, Type (0, 0), BuildingBlock: OJICUG_clean_linker_0, # of connection points: 2
#     Edge 21, Type (0, 0), BuildingBlock: OJICUG_clean_linker_0, # of connection points: 2
#     Edge 22, Type (0, 0), BuildingBlock: OJICUG_clean_linker_0, # of connection points: 2
#     Edge 23, Type (0, 0), BuildingBlock: OJICUG_clean_linker_0, # of connection points: 2
#     Edge 24, Type (0, 0), BuildingBlock: OJICUG_clean_linker_0, # of connection points: 2
#     Edge 25, Type (0, 0), BuildingBlock: OJICUG_clean_linker_0, # of connection points: 2
#     Edge 26, Type (0, 0), BuildingBlock: OJICUG_clean_linker_0, # of connection points: 2
#     Edge 27, Type (0, 0), BuildingBlock: OJICUG_clean_linker_0, # of connection points: 2
#     Edge 28, Type (0, 0), BuildingBlock: OJICUG_clean_linker_0, # of connection points: 2
#     Edge 29, Type (0, 0), BuildingBlock: OJICUG_clean_linker_0, # of connection points: 2
# Relax obj value: 0.052
# Max RMSD: 0.063
# Mean RMSD: 0.063
data_MOF--net-ofo--node1-WUSLED_clean_sbu_0--edge1-OJICUG_clean_linker_0
_symmetry_space_group_name_H-M    P1
_symmetry_Int_Tables_number       1
_symmetry_cell_setting            triclinic
loop_
_symmetry_equiv_pos_as_xyz
'x, y, z'
_cell_length_a     29.807837
_cell_length_b     29.814125
_cell_length_c     74.871392
_cell_angle_alpha  89.949292
_cell_angle_beta   90.089057
_cell_angle_gamma 119.87827
loop_
_atom_site_label
_atom_site_type_symbol
_atom_site_fract_x
_atom_site_fract_y
_atom_site_fract_z
_atom_type_partial_charge
C0 C 0.4356 0.35904 0.11984 0.0
C1 C 0.48961 0.38044 0.12053 0.0
C2 C 0.49243 0.41563 0.15017 0.0
C3 C 0.51771 0.40863 0.13548 0.0
C4 C 0.43834 0.39385 0.14947 0.0
C5 C 0.41032 0.36613 0.13444 0.0
U6 U 0.39972 0.25062 0.0862 0.0
O7 O 0.32434 0.19207 0.07543 0.0
O8 O 0.38468 0.24656 0.05723 0.0
C9 C 0.3364 0.20938 0.05897 0.0
C10 C 0.40494 0.32842 0.10428 0.0
C11 C 0.29736 0.21586 0.0489 0.0
C12 C 0.22624 0.23392 0.04741 0.0
C13 C 0.26523 0.23163 0.0572 0.0
C14 C 0.25206 0.2062 0.02088 0.0
C15 C 0.21869 0.22049 0.02917 0.0
C16 C 0.29084 0.20386 0.03065 0.0
C17 C 0.47232 0.17314 0.09138 0.0
C18 C 0.44981 0.0826 0.09047 0.0
C19 C 0.53823 0.14979 0.08518 0.0
C20 C 0.52369 0.18739 0.08735 0.0
C21 C 0.50174 0.09695 0.08712 0.0
C22 C 0.43524 0.12027 0.09258 0.0
C23 C 0.45991 0.21398 0.09609 0.0
O24 O 0.43064 0.33427 0.08938 0.0
O25 O 0.37058 0.27992 0.10765 0.0
O26 O 0.41418 0.19893 0.10313 0.0
O27 O 0.47449 0.25238 0.08471 0.0
H28 H 0.51023 0.37518 0.10957 0.0
H29 H 0.55919 0.4242 0.13566 0.0
H30 H 0.4176 0.39863 0.16048 0.0
H31 H 0.36873 0.34996 0.13425 0.0
H32 H 0.20107 0.24473 0.05427 0.0
H33 H 0.26963 0.24122 0.07128 0.0
H34 H 0.24808 0.19655 1.00681 0.0
H35 H 0.31537 0.19186 0.02398 0.0
H36 H 0.42075 0.04234 0.09223 0.0
H37 H 0.57835 0.16223 0.08231 0.0
H38 H 0.55307 0.22785 0.08641 0.0
H39 H 0.39531 0.10793 0.09575 0.0
C40 C 0.08852 0.43153 0.78842 0.0
C41 C 0.11906 0.48575 0.78763 0.0
C42 C 0.09317 0.49335 0.81786 0.0
C43 C 0.12115 0.51627 0.80215 0.0
C44 C 0.06301 0.43909 0.81866 0.0
C45 C 0.06045 0.40859 0.80406 0.0
U46 U 0.15499 0.38823 0.75467 0.0
O47 O 0.13472 0.31071 0.74499 0.0
O48 O 0.1403 0.36947 0.72604 0.0
C49 C 0.12835 0.32109 0.72842 0.0
C50 C 0.08601 0.39837 0.77327 0.0
C51 C 0.08122 0.28183 0.71927 0.0
C52 C 0.98784 0.22557 0.7176 0.0
C53 C 0.03172 0.26399 0.72648 0.0
C54 C 0.04255 0.22312 0.69419 0.0
C55 C 0.99274 0.20454 0.70135 0.0
C56 C 0.08622 0.26131 0.70307 0.0
C57 C 0.30531 0.45744 0.75757 0.0
C58 C 0.37405 0.43575 0.75866 0.0
C59 C 0.39202 0.51886 0.74709 0.0
C60 C 0.3405 0.5055 0.75005 0.0
C61 C 0.40977 0.48461 0.75172 0.0
C62 C 0.32246 0.42233 0.76158 0.0
C63 C 0.25318 0.44731 0.76294 0.0
O64 O 0.10436 0.42173 0.75789 0.0
O65 O 0.09944 0.36354 0.77696 0.0
O66 O 0.22258 0.4029 0.77081 0.0
O67 O 0.22866 0.46146 0.75167 0.0
H68 H 0.14161 0.50471 0.77584 0.0
H69 H 0.14542 0.55786 0.80116 0.0
H70 H 0.04088 0.42012 0.83051 0.0
H71 H 0.03661 0.36691 0.80502 0.0
H72 H 0.95008 0.21256 0.72342 0.0
H73 H 0.02708 0.27955 0.73896 0.0
H74 H 0.048 0.20733 0.6819 0.0
H75 H 0.12413 0.2745 0.69733 0.0
H76 H 0.38639 0.40861 0.7626 0.0
H77 H 0.4182 0.55649 0.74147 0.0
H78 H 0.32856 0.53352 0.74695 0.0
H79 H 0.29659 0.38512 0.76755 0.0
C80 C 0.6668 0.08103 0.45212 0.0
C81 C 0.64416 0.11267 0.45231 0.0
C82 C 0.6083 0.08082 0.48191 0.0
C83 C 0.61504 0.11236 0.46701 0.0
C84 C 0.63106 0.0493 0.48168 0.0
C85 C 0.65973 0.04923 0.46691 0.0
U86 U 0.77981 0.15156 0.41973 0.0
O87 O 0.83641 0.13067 0.40984 0.0
O88 O 0.78595 0.14084 0.39089 0.0
C89 C 0.82094 0.12678 0.39318 0.0
C90 C 0.69822 0.08091 0.43682 0.0
C91 C 0.81175 0.07975 0.38362 0.0
C92 C 0.77182 0.98617 0.38134 0.0
C93 C 0.77809 0.03014 0.39036 0.0
C94 C 0.83207 0.04098 0.35863 0.0
C95 C 0.799 0.99105 0.3654 0.0
C96 C 0.83834 0.08478 0.36766 0.0
C97 C 0.8656 0.30041 0.42613 0.0
C98 C 0.90581 0.37966 0.40844 0.0
C99 C 0.94561 0.37544 0.43611 0.0
C100 C 0.90596 0.32446 0.43861 0.0
C101 C 0.94578 0.40395 0.4211 0.0
C102 C 0.86612 0.32846 0.41092 0.0
C103 C 0.82133 0.24836 0.43018 0.0
O104 O 0.69527 0.10306 0.422 0.0
O105 O 0.74568 0.09203 0.44072 0.0
O106 O 0.83271 0.21503 0.43739 0.0
O107 O 0.78372 0.22722 0.41836 0.0
H108 H 0.64913 0.13792 0.44117 0.0
H109 H 0.59859 0.13757 0.46685 0.0
H110 H 0.62634 0.02425 0.49284 0.0
H111 H 0.67664 0.0244 0.46708 0.0
H112 H 0.74564 0.94835 0.38683 0.0
H113 H 0.75707 0.02549 0.40265 0.0
H114 H 0.85421 0.04636 0.34658 0.0
H115 H 0.86462 0.12277 0.36229 0.0
H116 H 0.90499 0.40035 0.39666 0.0
H117 H 0.9752 0.3931 0.4463 0.0
H118 H 0.90618 0.30424 0.45061 0.0
H119 H 0.83541 0.31132 0.4011 0.0
C120 C 0.59844 0.65649 0.12125 0.0
C121 C 0.59133 0.6819 0.13583 0.0
C122 C 0.53905 0.59951 0.15105 0.0
C123 C 0.56221 0.65376 0.1506 0.0
C124 C 0.54532 0.57412 0.13622 0.0
C125 C 0.575 0.6024 0.12152 0.0
U126 U 0.64091 0.76826 0.08882 0.0
O127 O 0.71739 0.82393 0.07817 0.0
O128 O 0.65502 0.77366 0.05976 0.0
C129 C 0.7042 0.80847 0.06159 0.0
C130 C 0.62929 0.68585 0.1056 0.0
C131 C 0.74143 0.80017 0.05117 0.0
C132 C 0.80737 0.77493 0.04898 0.0
C133 C 0.76857 0.77752 0.05874 0.0
C134 C 0.79095 0.8159 0.02383 0.0
C135 C 0.81972 0.79505 0.03151 0.0
C136 C 0.75233 0.81846 0.03357 0.0
C137 C 0.58113 0.85641 0.09647 0.0
C138 C 0.55324 0.90382 0.07718 0.0
C139 C 0.57866 0.93169 0.10771 0.0
C140 C 0.58879 0.89118 0.11033 0.0
C141 C 0.5603 0.93829 0.09116 0.0
C142 C 0.56364 0.86332 0.07979 0.0
C143 C 0.5882 0.81161 0.1003 0.0
O144 O 0.60251 0.68334 0.0913 0.0
O145 O 0.66747 0.73284 0.1089 0.0
O146 O 0.6333 0.82227 0.10694 0.0
O147 O 0.57009 0.7739 0.08851 0.0
H148 H 0.60825 0.72357 0.13583 0.0
H149 H 0.55727 0.67453 0.16157 0.0
H150 H 0.52792 0.53244 0.13604 0.0
H151 H 0.57965 0.58198 0.11035 0.0
H152 H 0.82893 0.75892 0.05534 0.0
H153 H 0.76073 0.7631 0.07232 0.0
H154 H 0.79871 0.83086 1.01032 0.0
H155 H 0.73171 0.83592 0.02747 0.0
H156 H 0.5396 0.90813 0.06422 0.0
H157 H 0.58378 0.95695 0.11885 0.0
H158 H 0.60167 0.88635 0.12337 0.0
H159 H 0.55727 0.83709 0.06883 0.0
C160 C 0.95031 0.58513 0.78281 0.0
C161 C 0.91507 0.53169 0.78357 0.0
C162 C 0.9512 0.52542 0.81213 0.0
C163 C 0.91569 0.50217 0.79802 0.0
C164 C 0.98591 0.57904 0.81138 0.0
C165 C 0.98567 0.60843 0.79684 0.0
U166 U 0.87956 0.62918 0.75098 0.0
O167 O 0.90029 0.70695 0.74149 0.0
O168 O 0.88997 0.64717 0.7222 0.0
C169 C 0.90386 0.69602 0.72473 0.0
C170 C 0.9504 0.61734 0.76773 0.0
C171 C 0.95048 0.73426 0.71511 0.0
C172 C 0.04387 0.78922 0.71274 0.0
C173 C 1.00039 0.75095 0.72178 0.0
C174 C 0.98798 0.79366 0.69014 0.0
C175 C 0.03819 0.81134 0.69685 0.0
C176 C 0.94467 0.75557 0.69919 0.0
C177 C 0.73082 0.56661 0.75753 0.0
C178 C 0.65117 0.52822 0.74003 0.0
C179 C 0.65643 0.57275 0.76763 0.0
C180 C 0.70732 0.58347 0.77003 0.0
C181 C 0.62746 0.5445 0.7527 0.0
C182 C 0.70229 0.53911 0.74241 0.0
C183 C 0.78284 0.57386 0.76146 0.0
O184 O 0.92808 0.59289 0.75285 0.0
O185 O 0.93928 0.65352 0.77191 0.0
O186 O 0.8163 0.6181 0.76883 0.0
O187 O 0.80384 0.55778 0.74945 0.0
H188 H 0.88684 0.51268 0.77305 0.0
H189 H 0.88767 0.46122 0.79828 0.0
H190 H 1.01369 0.59843 0.82195 0.0
H191 H 1.0131 0.64957 0.79659 0.0
H192 H 0.08193 0.80146 0.71818 0.0
H193 H 1.00565 0.73478 0.73404 0.0
H194 H 0.98197 0.81025 0.67813 0.0
H195 H 0.90644 0.7433 0.69387 0.0
H196 H 0.63011 0.50674 0.72831 0.0
H197 H 0.63921 0.58512 0.77783 0.0
H198 H 0.72791 0.60389 0.78198 0.0
H199 H 0.71898 0.5251 0.73258 0.0
C200 C 0.36547 0.94665 0.45593 0.0
C201 C 0.36796 0.97389 0.47153 0.0
C202 C 0.42271 0.94513 0.48595 0.0
C203 C 0.39597 0.9729 0.4864 0.0
C204 C 0.42046 0.91813 0.47026 0.0
C205 C 0.39203 0.91871 0.45544 0.0
U206 U 0.25668 0.87735 0.42186 0.0
O207 O 0.19885 0.89632 0.41169 0.0
O208 O 0.25302 0.89123 0.39311 0.0
C209 C 0.21618 0.9028 0.39521 0.0
C210 C 0.33479 0.94764 0.44048 0.0
C211 C 0.22387 0.94987 0.38601 0.0
C212 C 0.2572 0.04277 0.38497 0.0
C213 C 0.25226 0.99903 0.39382 0.0
C214 C 0.20626 0.98869 0.36033 0.0
C215 C 0.23402 0.0381 0.36813 0.0
C216 C 0.20127 0.94512 0.36919 0.0
C217 C 0.17717 0.7271 0.42532 0.0
C218 C 0.08731 0.65767 0.42653 0.0
C219 C 0.15307 0.64036 0.41511 0.0
C220 C 0.19064 0.6921 0.41795 0.0
C221 C 0.10107 0.62218 0.41972 0.0
C222 C 0.12489 0.70947 0.42932 0.0
C223 C 0.2186 0.77958 0.43057 0.0
O224 O 0.34047 0.92865 0.42534 0.0
O225 O 0.28634 0.93382 0.4439 0.0
O226 O 0.20418 0.81016 0.43815 0.0
O227 O 0.25729 0.80396 0.41936 0.0
H228 H 0.348 0.99585 0.47225 0.0
H229 H 0.39706 0.9944 0.49819 0.0
H230 H 0.43996 0.89576 0.46951 0.0
H231 H 0.3907 0.897 0.44367 0.0
H232 H 0.27931 0.08025 0.39128 0.0
H233 H 0.27021 1.00351 0.40678 0.0
H234 H 0.18723 0.9834 0.34754 0.0
H235 H 0.17911 0.90747 0.36297 0.0
H236 H 0.04781 0.645 0.43044 0.0
H237 H 0.16499 0.61436 0.4096 0.0
H238 H 0.23063 0.70439 0.41487 0.0
H239 H 0.11309 0.73517 0.43518 0.0
C240 C 0.66624 0.59442 0.2418 0.0
C241 C 0.69138 0.58686 0.22723 0.0
C242 C 0.60869 0.53416 0.2122 0.0
C243 C 0.66296 0.5573 0.21257 0.0
C244 C 0.58356 0.54078 0.22703 0.0
C245 C 0.61212 0.5709 0.24163 0.0
U246 U 0.77877 0.63911 0.27417 0.0
O247 O 0.8342 0.71645 0.28432 0.0
O248 O 0.78455 0.65508 0.30309 0.0
C249 C 0.81895 0.70426 0.30097 0.0
C250 C 0.69592 0.62609 0.25728 0.0
C251 C 0.80937 0.74154 0.31075 0.0
C252 C 0.77005 0.79587 0.31315 0.0
C253 C 0.77594 0.75801 0.30406 0.0
C254 C 0.83007 0.80027 0.33586 0.0
C255 C 0.79738 0.81778 0.32912 0.0
C256 C 0.83596 0.7626 0.32676 0.0
C257 C 0.86721 0.57916 0.26712 0.0
C258 C 0.91486 0.55189 0.28658 0.0
C259 C 0.94175 0.57529 0.25587 0.0
C260 C 0.90143 0.58572 0.25321 0.0
C261 C 0.94871 0.55775 0.27253 0.0
C262 C 0.87454 0.56257 0.28392 0.0
C263 C 0.82233 0.58608 0.26323 0.0
O264 O 0.69377 0.60015 0.27177 0.0
O265 O 0.7428 0.66416 0.25379 0.0
O266 O 0.83279 0.63076 0.25628 0.0
O267 O 0.78487 0.5686 0.27509 0.0
H268 H 0.73307 0.60385 0.22716 0.0
H269 H 0.68354 0.55209 0.20159 0.0
H270 H 0.54187 0.52337 0.22728 0.0
H271 H 0.59191 0.57589 0.25278 0.0
H272 H 0.74414 0.808 0.30767 0.0
H273 H 0.75498 0.74209 0.29171 0.0
H274 H 0.85233 0.81674 0.34793 0.0
H275 H 0.86213 0.75055 0.33208 0.0
H276 H 0.91945 0.53892 0.29962 0.0
H277 H 0.96652 0.57948 0.24468 0.0
H278 H 0.89626 0.59785 0.24009 0.0
H279 H 0.84873 0.55704 0.29492 0.0
C280 C 0.09043 0.67522 0.90717 0.0
C281 C 0.12272 0.70036 0.89249 0.0
C282 C 0.09556 0.61741 0.87809 0.0
C283 C 0.12498 0.67175 0.87805 0.0
C284 C 0.06384 0.59246 0.89292 0.0
C285 C 0.06116 0.62108 0.90726 0.0
U286 U 0.15709 0.78476 0.94054 0.0
O287 O 0.13698 0.84193 0.95052 0.0
O288 O 0.14438 0.78935 0.96928 0.0
C289 C 0.13179 0.82547 0.96708 0.0
C290 C 0.08761 0.70466 0.92258 0.0
C291 C 0.08506 0.81789 0.97645 0.0
C292 C 0.99412 0.76573 0.98446 0.0
C293 C 0.03792 0.77109 0.97553 0.0
C294 C 0.04429 0.85379 0.99522 0.0
C295 C 0.99674 0.80724 0.9943 0.0
C296 C 0.08789 0.85899 0.9864 0.0
C297 C 0.30636 0.86897 0.9352 0.0
C298 C 0.38382 0.90829 0.95381 0.0
C299 C 0.38363 0.94702 0.92541 0.0
C300 C 0.33246 0.90833 0.92255 0.0
C301 C 0.41021 0.94715 0.94096 0.0
C302 C 0.3324 0.86956 0.95097 0.0
C303 C 0.25429 0.82551 0.93077 0.0
O304 O 0.10863 0.70025 0.93745 0.0
O305 O 0.09854 0.75239 0.91927 0.0
O306 O 0.22187 0.83793 0.92342 0.0
O307 O 0.23211 0.78751 0.94238 0.0
H308 H 0.14632 0.74213 0.89217 0.0
H309 H 0.15027 0.69213 0.86695 0.0
H310 H 0.0404 0.55081 0.89335 0.0
H311 H 0.03618 0.60086 0.91845 0.0
H312 H 0.95802 0.72952 0.98336 0.0
H313 H 0.03493 0.73894 0.96785 0.0
H314 H 0.04796 0.88624 1.0029 0.0
H315 H 0.12397 0.89535 0.9873 0.0
H316 H 0.40307 0.90753 0.96599 0.0
H317 H 0.40297 0.97577 0.91508 0.0
H318 H 0.3137 0.9084 0.91015 0.0
H319 H 0.31355 0.83959 0.96096 0.0
C320 C 0.42998 0.07738 0.5734 0.0
C321 C 0.40545 0.04732 0.55826 0.0
C322 C 0.48869 0.07903 0.54346 0.0
C323 C 0.43441 0.04834 0.54342 0.0
C324 C 0.51322 0.10894 0.55869 0.0
C325 C 0.48421 0.10834 0.57346 0.0
U326 U 0.39126 0.14704 0.6075 0.0
O327 O 0.31467 0.12863 0.61761 0.0
O328 O 0.37371 0.13298 0.6362 0.0
C329 C 0.32544 0.12179 0.63408 0.0
C330 C 0.39834 0.07642 0.58879 0.0
C331 C 0.2861 0.07455 0.64312 0.0
C332 C 0.23177 0.98098 0.64492 0.0
C333 C 0.27002 0.02513 0.63615 0.0
C334 C 0.22586 0.0353 0.66775 0.0
C335 C 0.20912 0.98554 0.66083 0.0
C336 C 0.26392 0.07926 0.65898 0.0
C337 C 0.46342 0.29746 0.60418 0.0
C338 C 0.44262 0.36686 0.604 0.0
C339 C 0.52788 0.38479 0.61314 0.0
C340 C 0.51323 0.33286 0.61039 0.0
C341 C 0.49315 0.40275 0.60959 0.0
C342 C 0.42792 0.31484 0.6013 0.0
C343 C 0.45162 0.24474 0.59892 0.0
O344 O 0.42297 0.09497 0.60398 0.0
O345 O 0.36418 0.09091 0.58534 0.0
O346 O 0.40655 0.21473 0.59132 0.0
O347 O 0.46554 0.21987 0.61012 0.0
H348 H 0.36372 0.02314 0.55789 0.0
H349 H 0.41423 0.02468 0.53197 0.0
H350 H 0.55486 0.1336 0.55907 0.0
H351 H 0.50431 0.13238 0.58486 0.0
H352 H 0.2202 0.94329 0.6393 0.0
H353 H 0.2869 0.02074 0.62394 0.0
H354 H 0.2088 0.04045 0.67977 0.0
H355 H 0.27575 0.11711 0.66453 0.0
H356 H 0.415 0.37932 0.60093 0.0
H357 H 0.56682 0.4111 0.61772 0.0
H358 H 0.54151 0.32069 0.61261 0.0
H359 H 0.38931 0.28874 0.59638 0.0
C360 C 0.36473 0.4269 0.24347 0.0
C361 C 0.38571 0.48084 0.24278 0.0
C362 C 0.42138 0.48385 0.21322 0.0
C363 C 0.41397 0.50901 0.22785 0.0
C364 C 0.40011 0.42984 0.21394 0.0
C365 C 0.37234 0.40176 0.22894 0.0
U366 U 0.25661 0.39136 0.27723 0.0
O367 O 0.19727 0.3156 0.28753 0.0
O368 O 0.25213 0.37454 0.30602 0.0
C369 C 0.21451 0.32655 0.30403 0.0
C370 C 0.33388 0.39609 0.25895 0.0
C371 C 0.22132 0.2868 0.31335 0.0
C372 C 0.26344 0.23529 0.31684 0.0
C373 C 0.25831 0.27374 0.3078 0.0
C374 C 0.19494 0.22298 0.3371 0.0
C375 C 0.23174 0.20936 0.33161 0.0
C376 C 0.18985 0.26127 0.32805 0.0
C377 C 0.18099 0.46618 0.27263 0.0
C378 C 0.09075 0.44469 0.27385 0.0
C379 C 0.15883 0.53313 0.27844 0.0
C380 C 0.19594 0.51792 0.27631 0.0
C381 C 0.10577 0.49695 0.2768 0.0
C382 C 0.12794 0.42944 0.27177 0.0
C383 C 0.22127 0.45304 0.26787 0.0
O384 O 0.34013 0.42143 0.27397 0.0
O385 O 0.2852 0.36243 0.2555 0.0
O386 O 0.20562 0.40751 0.26056 0.0
O387 O 0.25939 0.46653 0.27931 0.0
H388 H 0.38003 0.5013 0.25369 0.0
H389 H 0.42919 0.55043 0.22764 0.0
H390 H 0.40529 0.40924 0.20298 0.0
H391 H 0.3565 0.36023 0.22915 0.0
H392 H 0.2925 0.22617 0.31235 0.0
H393 H 0.28307 0.29318 0.29648 0.0
H394 H 0.16929 0.20335 0.34819 0.0
H395 H 0.16096 0.27073 0.33249 0.0
H396 H 0.05031 0.41583 0.27234 0.0
H397 H 0.1718 0.57352 0.28101 0.0
H398 H 0.23655 0.54703 0.27698 0.0
H399 H 0.1151 0.38924 0.26889 0.0
C400 C 0.95489 0.3432 0.90157 0.0
C401 C 0.91774 0.31981 0.88797 0.0
C402 C 0.95273 0.40231 0.87232 0.0
C403 C 0.91688 0.34902 0.87344 0.0
C404 C 0.98932 0.42543 0.8861 0.0
C405 C 0.99056 0.39622 0.90051 0.0
U406 U 0.88595 0.23908 0.93683 0.0
O407 O 0.9019 0.17922 0.94724 0.0
O408 O 0.90223 0.23721 0.96539 0.0
C409 C 0.91123 0.19854 0.96348 0.0
C410 C 0.9565 0.3134 0.91709 0.0
C411 C 0.95817 0.20406 0.97222 0.0
C412 C 0.04685 0.25607 0.98283 0.0
C413 C 1.00368 0.2522 0.97387 0.0
C414 C 0.99975 0.16378 0.98835 0.0
C415 C 0.04539 0.21185 0.99019 0.0
C416 C 0.9567 0.16001 0.97949 0.0
C417 C 0.73555 0.16632 0.93524 0.0
C418 C 0.66335 0.07785 0.93563 0.0
C419 C 0.65087 0.14782 0.94588 0.0
C420 C 0.70289 0.1831 0.94239 0.0
C421 C 0.63011 0.0949 0.94214 0.0
C422 C 0.71545 0.11314 0.93219 0.0
C423 C 0.78817 0.20518 0.92922 0.0
O424 O 0.93975 0.32206 0.93221 0.0
O425 O 0.94022 0.26411 0.91426 0.0
O426 O 0.81606 0.18778 0.92146 0.0
O427 O 0.81527 0.24446 0.93997 0.0
H428 H 0.88925 0.27901 0.88859 0.0
H429 H 0.88759 0.33003 0.86323 0.0
H430 H 1.01743 0.46606 0.88569 0.0
H431 H 1.01939 0.41513 0.91087 0.0
H432 H 0.08153 0.29357 0.98384 0.0
H433 H 1.0058 0.28675 0.96831 0.0
H434 H 0.99694 0.12906 0.99404 0.0
H435 H 0.92191 0.12256 0.97844 0.0
H436 H 0.64863 0.03751 0.93238 0.0
H437 H 0.62661 0.16222 0.95115 0.0
H438 H 0.7172 0.22387 0.94476 0.0
H439 H 0.73937 0.09884 0.92655 0.0
C440 C 0.59947 0.94443 0.57751 0.0
C441 C 0.5458 0.91011 0.57674 0.0
C442 C 0.54108 0.94444 0.54766 0.0
C443 C 0.51691 0.91033 0.56201 0.0
C444 C 0.59479 0.9786 0.54846 0.0
C445 C 0.62358 0.97876 0.56326 0.0
U446 U 0.6421 0.87356 0.60979 0.0
O447 O 0.71944 0.89421 0.61979 0.0
O448 O 0.65868 0.88363 0.63866 0.0
C449 C 0.70769 0.89763 0.63646 0.0
C450 C 0.63108 0.94455 0.59281 0.0
C451 C 0.74536 0.94428 0.64622 0.0
C452 C 0.79786 0.03779 0.64913 0.0
C453 C 0.7603 0.99415 0.63993 0.0
C454 C 0.80516 0.98207 0.67109 0.0
C455 C 0.82102 0.03229 0.66479 0.0
C456 C 0.76777 0.93862 0.66189 0.0
C457 C 0.57931 0.72483 0.60292 0.0
C458 C 0.5437 0.64658 0.62108 0.0
C459 C 0.58104 0.64862 0.59221 0.0
C460 C 0.59231 0.69967 0.58979 0.0
C461 C 0.5561 0.62118 0.60779 0.0
C462 C 0.55518 0.69788 0.61868 0.0
C463 C 0.58713 0.77704 0.59906 0.0
O464 O 0.60602 0.92219 0.60759 0.0
O465 O 0.66746 0.93348 0.58892 0.0
O466 O 0.63185 0.81043 0.59198 0.0
O467 O 0.57057 0.79792 0.61094 0.0
H468 H 0.52612 0.88281 0.58744 0.0
H469 H 0.47574 0.88306 0.56172 0.0
H470 H 0.61458 1.00559 0.5377 0.0
H471 H 0.66487 1.00559 0.56355 0.0
H472 H 0.8087 0.07582 0.64399 0.0
H473 H 0.74328 0.99929 0.62786 0.0
H474 H 0.82261 0.97622 0.68291 0.0
H475 H 0.75685 0.90041 0.66691 0.0
H476 H 0.52489 0.62673 0.63331 0.0
H477 H 0.59037 0.6301 0.58155 0.0
H478 H 0.61014 0.71913 0.5774 0.0
H479 H 0.54431 0.71598 0.62904 0.0
C480 C 0.50328 0.42904 0.18346 0.0
C481 C 0.52236 0.44563 0.1661 0.0
H482 H 0.5155 0.44338 0.21157 0.0
C483 C 0.57017 0.49134 0.16407 0.0
H484 H 0.46711 0.39347 0.18552 0.0
C485 C 0.5978 0.52009 0.17898 0.0
C486 C 0.57872 0.50359 0.19635 0.0
H487 H 0.58593 0.50552 0.15092 0.0
H488 H 0.63387 0.55573 0.17685 0.0
C489 C 0.53107 0.45766 0.1984 0.0
C490 C 0.09466 0.57224 0.83055 0.0
C491 C 0.09536 0.52592 0.8333 0.0
H492 H 0.09343 0.63695 0.84247 0.0
C493 C 0.0982 0.51106 0.85091 0.0
H494 H 0.09213 0.58469 0.81718 0.0
C495 C 0.09966 0.54144 0.86538 0.0
C496 C 0.09727 0.58684 0.86265 0.0
H497 H 0.09996 0.47624 0.85353 0.0
H498 H 0.10298 0.52955 0.87876 0.0
C499 C 0.09549 0.60227 0.84504 0.0
C500 C 0.59518 0.08043 0.51511 0.0
C501 C 0.57791 0.08098 0.49767 0.0
H502 H 0.58037 0.07853 0.54316 0.0
C503 C 0.53129 0.08143 0.49541 0.0
H504 H 0.6312 0.08068 0.51733 0.0
C505 C 0.50255 0.08104 0.51023 0.0
C506 C 0.51957 0.07999 0.52768 0.0
H507 H 0.51657 0.08133 0.48217 0.0
H508 H 0.46713 0.08199 0.50802 0.0
C509 C 0.56634 0.07985 0.52993 0.0
C510 C 0.43429 0.49451 0.17993 0.0
C511 C 0.45112 0.51375 0.19726 0.0
H512 H 0.44823 0.50646 0.15181 0.0
C513 C 0.49678 0.56162 0.19924 0.0
H514 H 0.39871 0.4583 0.17792 0.0
C515 C 0.52536 0.5891 0.1843 0.0
C516 C 0.50868 0.5698 0.16695 0.0
H517 H 0.51106 0.57751 0.21238 0.0
H518 H 0.56102 0.6252 0.18638 0.0
C519 C 0.4627 0.52215 0.16496 0.0
C520 C 0.96006 0.51366 0.84506 0.0
C521 C 0.95177 0.49393 0.82756 0.0
H522 H 0.9659 0.50015 0.87282 0.0
C523 C 0.94373 0.44371 0.82494 0.0
H524 H 0.96568 0.55185 0.84767 0.0
C525 C 0.94364 0.41394 0.83943 0.0
C526 C 0.95206 0.43374 0.85691 0.0
H527 H 0.93825 0.42756 0.81164 0.0
H528 H 0.93805 0.37575 0.83686 0.0
C529 C 0.96023 0.48398 0.85953 0.0
C530 C 0.46194 0.94045 0.53402 0.0
C531 C 0.51049 0.9441 0.53186 0.0
H532 H 0.39589 0.93697 0.52131 0.0
C533 C 0.52963 0.94742 0.51447 0.0
H534 H 0.44623 0.93826 0.54723 0.0
C535 C 0.50118 0.94758 0.49961 0.0
C536 C 0.45276 0.94429 0.50176 0.0
H537 H 0.5666 0.94964 0.51233 0.0
H538 H 0.51756 0.95114 0.48643 0.0
C539 C 0.43339 0.94042 0.51916 0.0
C540 C 0.56465 0.06736 0.09533 0.0
C541 C 0.51836 0.05733 0.08688 0.0
H542 H 0.6145 0.03822 0.10304 0.0
C543 C 0.48727 1.00852 0.07901 0.0
H544 H 0.5893 0.10422 0.10173 0.0
C545 C 0.50154 0.97036 0.07994 0.0
C546 C 0.54713 0.98003 0.08883 0.0
H547 H 0.45164 0.99963 0.07225 0.0
H548 H 0.47603 0.93274 0.07417 0.0
C549 C 0.57883 0.02925 0.09628 0.0
C550 C 0.48194 0.46591 0.74524 0.0
C551 C 0.46582 0.501 0.75046 0.0
H552 H 0.54531 0.45194 0.74188 0.0
C553 C 0.50372 0.55143 0.75539 0.0
H554 H 0.45391 0.42695 0.74118 0.0
C555 C 0.55613 0.56592 0.75559 0.0
C556 C 0.57213 0.53039 0.75091 0.0
H557 H 0.49285 0.57939 0.75967 0.0
H558 H 0.58413 0.6049 0.75965 0.0
C559 C 0.53445 0.48044 0.74545 0.0
C560 C 0.0753 0.52856 0.42364 0.0
C561 C 0.06205 0.56596 0.41858 0.0
H562 H 0.04952 0.44843 0.4281 0.0
C563 C 1.01074 0.5492 0.41333 0.0
H564 H 0.11423 0.53994 0.42795 0.0
C565 C 0.97338 0.49657 0.41363 0.0
C566 C 0.98637 0.4594 0.41922 0.0
H567 H 0.99927 0.57683 0.40917 0.0
H568 H 0.93392 0.48523 0.41004 0.0
C569 C 0.03799 0.47603 0.42394 0.0
C570 C 0.98028 0.49893 0.28412 0.0
C571 C 0.99012 0.54409 0.27491 0.0
H572 H 1.00903 0.44883 0.29212 0.0
C573 C 0.03912 0.57482 0.26718 0.0
H574 H 0.94283 0.47414 0.29011 0.0
C575 C 0.07682 0.56008 0.26818 0.0
C576 C 0.06662 0.51421 0.27696 0.0
H577 H 0.04823 0.61014 0.26016 0.0
H578 H 0.1135 0.58397 0.26157 0.0
C579 C 1.01805 0.48411 0.2851 0.0
C580 C 0.55449 1.0072 0.94964 0.0
C581 C 0.57345 0.05827 0.94368 0.0
H582 H 0.48826 0.93211 0.95345 0.0
C583 C 0.5378 0.07333 0.9381 0.0
H584 H 0.58079 0.99445 0.95423 0.0
C585 C 0.48478 0.0378 0.93785 0.0
C586 C 0.46597 0.98623 0.94314 0.0
H587 H 0.55091 0.11214 0.93325 0.0
H588 H 0.45853 0.05054 0.93319 0.0
C589 C 0.50137 0.9716 0.94939 0.0
C590 C 0.4927 0.52916 0.61647 0.0
C591 C 0.54145 0.56574 0.6097 0.0
H592 H 0.43939 0.44929 0.62195 0.0
C593 C 0.5751 0.54849 0.60387 0.0
H594 H 0.46563 0.541 0.62094 0.0
C595 C 0.55986 0.49592 0.60426 0.0
C596 C 0.51055 0.45909 0.61054 0.0
H597 H 0.61315 0.57563 0.59877 0.0
H598 H 0.58626 0.48405 0.5991 0.0
C599 C 0.47741 0.47647 0.61685 0.0
C600 C 0.12001 0.25604 1.01181 0.0
C601 C 0.09094 0.2154 0.99979 0.0
H602 H 0.18307 0.28974 0.03044 0.0
C603 C 0.10491 0.1772 0.99734 0.0
H604 H 0.11006 0.28588 0.01413 0.0
C605 C 0.14636 0.17917 1.00676 0.0
C606 C 0.17515 0.21943 0.01893 0.0
H607 H 0.08379 0.14566 0.98806 0.0
H608 H 0.15526 0.14849 1.00473 0.0
C609 C 0.16151 0.25794 0.0213 0.0
C610 C 0.86568 0.08004 0.693 0.0
C611 C 0.86283 0.07834 0.67422 0.0
H612 H 0.90863 0.12072 0.71625 0.0
C613 C 0.90161 0.12001 0.66451 0.0
H614 H 0.83616 0.049 0.70093 0.0
C615 C 0.94292 0.16144 0.67331 0.0
C616 C 0.9466 0.16239 0.69207 0.0
H617 H 0.90097 0.11994 0.65005 0.0
H618 H 0.97232 0.19258 0.66538 0.0
C619 C 0.90698 0.12152 0.70181 0.0
C620 C 0.79357 0.94184 0.33734 0.0
C621 C 0.79449 0.94468 0.35611 0.0
H622 H 0.79397 0.90006 0.31414 0.0
C623 C 0.79341 0.90388 0.36591 0.0
H624 H 0.79368 0.97219 0.32935 0.0
C625 C 0.79302 0.86218 0.35718 0.0
C626 C 0.79362 0.86009 0.33841 0.0
H627 H 0.79447 0.90487 0.38037 0.0
H628 H 0.79272 0.83174 0.36517 0.0
C629 C 0.79311 0.9001 0.3286 0.0
C630 C 0.87371 0.75527 0.02213 0.0
C631 C 0.86405 0.79691 0.02162 0.0
H632 H 0.92298 0.72568 1.01389 0.0
C633 C 0.89779 0.84125 1.01178 0.0
H634 H 0.84831 0.7204 0.02948 0.0
C635 C 0.94022 0.84414 1.00281 0.0
C636 C 0.95023 0.8028 1.00341 0.0
H637 H 0.89202 0.87434 1.01125 0.0
H638 H 0.96522 0.87892 0.99534 0.0
C639 C 0.9162 0.75809 1.01305 0.0
C640 C 0.16535 0.9358 0.68879 0.0
C641 C 0.16731 0.93899 0.67002 0.0
H642 H 0.12337 0.89355 0.71192 0.0
C643 C 0.12781 0.89833 0.66015 0.0
H644 H 0.19545 0.96602 0.69683 0.0
C645 C 0.08667 0.85641 0.66882 0.0
C646 C 0.08397 0.85396 0.6876 0.0
H647 H 0.1278 0.89958 0.64569 0.0
H648 H 0.05669 0.82606 0.66079 0.0
C649 C 0.12428 0.89386 0.69746 0.0
C650 C 0.24335 0.08964 0.34026 0.0
C651 C 0.23715 0.08401 0.35891 0.0
H652 H 0.24627 0.13309 0.31705 0.0
C653 C 0.23174 0.12146 0.36858 0.0
H654 H 0.24829 0.06194 0.3324 0.0
C655 C 0.2311 0.16261 0.35978 0.0
C656 C 0.23592 0.16748 0.34108 0.0
H657 H 0.22649 0.11823 0.38292 0.0
H658 H 0.22647 0.19048 0.36766 0.0
C659 C 0.24279 0.13084 0.33146 0.0
loop_
_geom_bond_atom_site_label_1
_geom_bond_atom_site_label_2
_geom_bond_distance
_geom_bond_site_symmetry_2
_ccdc_geom_bond_type
C0 C1 1.264 . S
C0 C5 1.479 . S
C0 C10 1.465 . S
C1 C0 1.264 . S
C1 C3 1.339 . S
C1 H28 0.931 . S
C2 C3 1.395 . S
C2 C4 1.320 . S
C3 C1 1.339 . S
C3 C2 1.395 . S
C3 H29 0.929 . S
C4 C2 1.320 . S
C4 C5 1.405 . S
C4 H30 0.930 . S
C5 C0 1.479 . S
C5 C4 1.405 . S
C5 H31 0.931 . S
U6 O7 2.454 . S
U6 O8 2.458 . S
U6 C9 2.984 . S
U6 C10 2.847 . S
U6 C23 2.882 . S
U6 O24 2.441 . S
U6 O25 2.420 . S
U6 O26 2.455 . S
U6 O27 2.449 . S
O7 U6 2.454 . S
O7 C9 1.353 . S
O8 U6 2.458 . S
O8 C9 1.286 . S
C9 U6 2.984 . S
C9 O7 1.353 . S
C9 O8 1.286 . S
C9 C11 1.363 . S
C10 C0 1.465 . S
C10 U6 2.847 . S
C10 O24 1.249 . S
C10 O25 1.202 . S
C11 C9 1.363 . S
C11 C13 1.408 . S
C11 C16 1.342 . S
C12 C13 1.310 . S
C12 C15 1.461 1_554 S
C12 H32 0.932 . S
C13 C11 1.408 . S
C13 C12 1.310 . S
C13 H33 0.930 . S
C14 C15 1.474 . S
C14 C16 1.285 1_556 S
C14 H34 0.929 . S
C15 C12 1.461 1_556 S
C15 C14 1.474 . S
C16 C11 1.342 . S
C16 C14 1.285 1_554 S
C16 H35 0.930 . S
C17 C20 1.424 . S
C17 C22 1.245 . S
C17 C23 1.428 . S
C18 C21 1.260 . S
C18 C22 1.477 . S
C18 H36 0.932 . S
C19 C20 1.384 . S
C19 C21 1.479 . S
C19 H37 0.929 . S
C20 C17 1.424 . S
C20 C19 1.384 . S
C20 H38 0.928 . S
C21 C18 1.260 . S
C21 C19 1.479 . S
C22 C17 1.245 . S
C22 C18 1.477 . S
C22 H39 0.932 . S
C23 U6 2.882 . S
C23 C17 1.428 . S
C23 O26 1.301 . S
C23 O27 1.282 . S
O24 U6 2.441 . S
O24 C10 1.249 . S
O25 U6 2.420 . S
O25 C10 1.202 . S
O26 U6 2.455 . S
O26 C23 1.301 . S
O27 U6 2.449 . S
O27 C23 1.282 . S
H28 C1 0.931 . S
H29 C3 0.929 . S
H30 C4 0.930 . S
H31 C5 0.931 . S
H32 C12 0.932 . S
H33 C13 0.930 . S
H34 C14 0.929 . S
H35 C16 0.930 . S
H36 C18 0.932 . S
H37 C19 0.929 . S
H38 C20 0.928 . S
H39 C22 0.932 . S
C40 C41 1.264 . S
C40 C45 1.479 . S
C40 C50 1.465 . S
C41 C40 1.264 . S
C41 C43 1.339 . S
C41 H68 0.931 . S
C42 C43 1.395 . S
C42 C44 1.320 . S
C43 C41 1.339 . S
C43 C42 1.395 . S
C43 H69 0.929 . S
C44 C42 1.320 . S
C44 C45 1.405 . S
C44 H70 0.930 . S
C45 C40 1.479 . S
C45 C44 1.405 . S
C45 H71 0.931 . S
U46 O47 2.454 . S
U46 O48 2.458 . S
U46 C49 2.984 . S
U46 C50 2.847 . S
U46 C63 2.882 . S
U46 O64 2.441 . S
U46 O65 2.420 . S
U46 O66 2.455 . S
U46 O67 2.449 . S
O47 U46 2.454 . S
O47 C49 1.353 . S
O48 U46 2.458 . S
O48 C49 1.286 . S
C49 U46 2.984 . S
C49 O47 1.353 . S
C49 O48 1.286 . S
C49 C51 1.363 . S
C50 C40 1.465 . S
C50 U46 2.847 . S
C50 O64 1.249 . S
C50 O65 1.202 . S
C51 C49 1.363 . S
C51 C53 1.408 1_455 S
C51 C56 1.342 . S
C52 C53 1.310 . S
C52 C55 1.461 . S
C52 H72 0.932 . S
C53 C51 1.408 1_655 S
C53 C52 1.310 . S
C53 H73 0.930 . S
C54 C55 1.452 1_455 S
C54 C56 1.297 . S
C54 H74 0.940 . S
C55 C52 1.461 . S
C55 C54 1.452 1_655 S
C56 C51 1.342 . S
C56 C54 1.297 . S
C56 H75 0.930 . S
C57 C60 1.424 . S
C57 C62 1.245 . S
C57 C63 1.428 . S
C58 C61 1.260 . S
C58 C62 1.477 . S
C58 H76 0.932 . S
C59 C60 1.384 . S
C59 C61 1.479 . S
C59 H77 0.929 . S
C60 C57 1.424 . S
C60 C59 1.384 . S
C60 H78 0.928 . S
C61 C58 1.260 . S
C61 C59 1.479 . S
C62 C57 1.245 . S
C62 C58 1.477 . S
C62 H79 0.932 . S
C63 U46 2.882 . S
C63 C57 1.428 . S
C63 O66 1.301 . S
C63 O67 1.282 . S
O64 U46 2.441 . S
O64 C50 1.249 . S
O65 U46 2.420 . S
O65 C50 1.202 . S
O66 U46 2.455 . S
O66 C63 1.301 . S
O67 U46 2.449 . S
O67 C63 1.282 . S
H68 C41 0.931 . S
H69 C43 0.929 . S
H70 C44 0.930 . S
H71 C45 0.931 . S
H72 C52 0.932 . S
H73 C53 0.930 . S
H74 C54 0.940 . S
H75 C56 0.930 . S
H76 C58 0.932 . S
H77 C59 0.929 . S
H78 C60 0.928 . S
H79 C62 0.932 . S
C80 C81 1.264 . S
C80 C85 1.479 . S
C80 C90 1.465 . S
C81 C80 1.264 . S
C81 C83 1.339 . S
C81 H108 0.931 . S
C82 C83 1.395 . S
C82 C84 1.320 . S
C83 C81 1.339 . S
C83 C82 1.395 . S
C83 H109 0.929 . S
C84 C82 1.320 . S
C84 C85 1.405 . S
C84 H110 0.930 . S
C85 C80 1.479 . S
C85 C84 1.405 . S
C85 H111 0.931 . S
U86 O87 2.454 . S
U86 O88 2.458 . S
U86 C89 2.984 . S
U86 C90 2.847 . S
U86 C103 2.882 . S
U86 O104 2.441 . S
U86 O105 2.420 . S
U86 O106 2.455 . S
U86 O107 2.449 . S
O87 U86 2.454 . S
O87 C89 1.353 . S
O88 U86 2.458 . S
O88 C89 1.286 . S
C89 U86 2.984 . S
C89 O87 1.353 . S
C89 O88 1.286 . S
C89 C91 1.363 . S
C90 C80 1.465 . S
C90 U86 2.847 . S
C90 O104 1.249 . S
C90 O105 1.202 . S
C91 C89 1.363 . S
C91 C93 1.408 1_545 S
C91 C96 1.342 . S
C92 C93 1.310 . S
C92 C95 1.461 . S
C92 H112 0.932 . S
C93 C91 1.408 1_565 S
C93 C92 1.310 . S
C93 H113 0.930 . S
C94 C95 1.458 1_545 S
C94 C96 1.303 . S
C94 H114 0.928 . S
C95 C92 1.461 . S
C95 C94 1.458 1_565 S
C96 C91 1.342 . S
C96 C94 1.303 . S
C96 H115 0.930 . S
C97 C100 1.424 . S
C97 C102 1.245 . S
C97 C103 1.428 . S
C98 C101 1.260 . S
C98 C102 1.477 . S
C98 H116 0.932 . S
C99 C100 1.384 . S
C99 C101 1.479 . S
C99 H117 0.929 . S
C100 C97 1.424 . S
C100 C99 1.384 . S
C100 H118 0.928 . S
C101 C98 1.260 . S
C101 C99 1.479 . S
C102 C97 1.245 . S
C102 C98 1.477 . S
C102 H119 0.932 . S
C103 U86 2.882 . S
C103 C97 1.428 . S
C103 O106 1.301 . S
C103 O107 1.282 . S
O104 U86 2.441 . S
O104 C90 1.249 . S
O105 U86 2.420 . S
O105 C90 1.202 . S
O106 U86 2.455 . S
O106 C103 1.301 . S
O107 U86 2.449 . S
O107 C103 1.282 . S
H108 C81 0.931 . S
H109 C83 0.929 . S
H110 C84 0.930 . S
H111 C85 0.931 . S
H112 C92 0.932 . S
H113 C93 0.930 . S
H114 C94 0.928 . S
H115 C96 0.930 . S
H116 C98 0.932 . S
H117 C99 0.929 . S
H118 C100 0.928 . S
H119 C102 0.932 . S
C120 C121 1.264 . S
C120 C125 1.479 . S
C120 C130 1.465 . S
C121 C120 1.264 . S
C121 C123 1.339 . S
C121 H148 0.931 . S
C122 C123 1.395 . S
C122 C124 1.320 . S
C123 C121 1.339 . S
C123 C122 1.395 . S
C123 H149 0.929 . S
C124 C122 1.320 . S
C124 C125 1.405 . S
C124 H150 0.930 . S
C125 C120 1.479 . S
C125 C124 1.405 . S
C125 H151 0.931 . S
U126 O127 2.454 . S
U126 O128 2.458 . S
U126 C129 2.984 . S
U126 C130 2.847 . S
U126 C143 2.882 . S
U126 O144 2.441 . S
U126 O145 2.420 . S
U126 O146 2.455 . S
U126 O147 2.449 . S
O127 U126 2.454 . S
O127 C129 1.353 . S
O128 U126 2.458 . S
O128 C129 1.286 . S
C129 U126 2.984 . S
C129 O127 1.353 . S
C129 O128 1.286 . S
C129 C131 1.363 . S
C130 C120 1.465 . S
C130 U126 2.847 . S
C130 O144 1.249 . S
C130 O145 1.202 . S
C131 C129 1.363 . S
C131 C133 1.408 . S
C131 C136 1.342 . S
C132 C133 1.310 . S
C132 C135 1.461 1_554 S
C132 H152 0.932 . S
C133 C131 1.408 . S
C133 C132 1.310 . S
C133 H153 0.930 . S
C134 C135 1.474 . S
C134 C136 1.285 1_556 S
C134 H154 0.929 . S
C135 C132 1.461 1_556 S
C135 C134 1.474 . S
C136 C131 1.342 . S
C136 C134 1.285 1_554 S
C136 H155 0.930 . S
C137 C140 1.424 . S
C137 C142 1.245 . S
C137 C143 1.428 . S
C138 C141 1.260 . S
C138 C142 1.477 . S
C138 H156 0.932 . S
C139 C140 1.384 . S
C139 C141 1.479 . S
C139 H157 0.929 . S
C140 C137 1.424 . S
C140 C139 1.384 . S
C140 H158 0.928 . S
C141 C138 1.260 . S
C141 C139 1.479 . S
C142 C137 1.245 . S
C142 C138 1.477 . S
C142 H159 0.932 . S
C143 U126 2.882 . S
C143 C137 1.428 . S
C143 O146 1.301 . S
C143 O147 1.282 . S
O144 U126 2.441 . S
O144 C130 1.249 . S
O145 U126 2.420 . S
O145 C130 1.202 . S
O146 U126 2.455 . S
O146 C143 1.301 . S
O147 U126 2.449 . S
O147 C143 1.282 . S
H148 C121 0.931 . S
H149 C123 0.929 . S
H150 C124 0.930 . S
H151 C125 0.931 . S
H152 C132 0.932 . S
H153 C133 0.930 . S
H154 C134 0.929 . S
H155 C136 0.930 . S
H156 C138 0.932 . S
H157 C139 0.929 . S
H158 C140 0.928 . S
H159 C142 0.932 . S
C160 C161 1.264 . S
C160 C165 1.479 . S
C160 C170 1.465 . S
C161 C160 1.264 . S
C161 C163 1.339 . S
C161 H188 0.931 . S
C162 C163 1.395 . S
C162 C164 1.320 . S
C163 C161 1.339 . S
C163 C162 1.395 . S
C163 H189 0.929 . S
C164 C162 1.320 . S
C164 C165 1.405 . S
C164 H190 0.930 . S
C165 C160 1.479 . S
C165 C164 1.405 . S
C165 H191 0.931 . S
U166 O167 2.454 . S
U166 O168 2.458 . S
U166 C169 2.984 . S
U166 C170 2.847 . S
U166 C183 2.882 . S
U166 O184 2.441 . S
U166 O185 2.420 . S
U166 O186 2.455 . S
U166 O187 2.449 . S
O167 U166 2.454 . S
O167 C169 1.353 . S
O168 U166 2.458 . S
O168 C169 1.286 . S
C169 U166 2.984 . S
C169 O167 1.353 . S
C169 O168 1.286 . S
C169 C171 1.363 . S
C170 C160 1.465 . S
C170 U166 2.847 . S
C170 O184 1.249 . S
C170 O185 1.202 . S
C171 C169 1.363 . S
C171 C173 1.408 1_655 S
C171 C176 1.342 . S
C172 C173 1.310 . S
C172 C175 1.461 . S
C172 H192 0.932 . S
C173 C171 1.408 1_455 S
C173 C172 1.310 . S
C173 H193 0.930 . S
C174 C175 1.452 1_655 S
C174 C176 1.297 . S
C174 H194 0.940 . S
C175 C172 1.461 . S
C175 C174 1.452 1_455 S
C176 C171 1.342 . S
C176 C174 1.297 . S
C176 H195 0.930 . S
C177 C180 1.424 . S
C177 C182 1.245 . S
C177 C183 1.428 . S
C178 C181 1.260 . S
C178 C182 1.477 . S
C178 H196 0.932 . S
C179 C180 1.384 . S
C179 C181 1.479 . S
C179 H197 0.929 . S
C180 C177 1.424 . S
C180 C179 1.384 . S
C180 H198 0.928 . S
C181 C178 1.260 . S
C181 C179 1.479 . S
C182 C177 1.245 . S
C182 C178 1.477 . S
C182 H199 0.932 . S
C183 U166 2.882 . S
C183 C177 1.428 . S
C183 O186 1.301 . S
C183 O187 1.282 . S
O184 U166 2.441 . S
O184 C170 1.249 . S
O185 U166 2.420 . S
O185 C170 1.202 . S
O186 U166 2.455 . S
O186 C183 1.301 . S
O187 U166 2.449 . S
O187 C183 1.282 . S
H188 C161 0.931 . S
H189 C163 0.929 . S
H190 C164 0.930 . S
H191 C165 0.931 . S
H192 C172 0.932 . S
H193 C173 0.930 . S
H194 C174 0.940 . S
H195 C176 0.930 . S
H196 C178 0.932 . S
H197 C179 0.929 . S
H198 C180 0.928 . S
H199 C182 0.932 . S
C200 C201 1.264 . S
C200 C205 1.479 . S
C200 C210 1.465 . S
C201 C200 1.264 . S
C201 C203 1.339 . S
C201 H228 0.931 . S
C202 C203 1.395 . S
C202 C204 1.320 . S
C203 C201 1.339 . S
C203 C202 1.395 . S
C203 H229 0.929 . S
C204 C202 1.320 . S
C204 C205 1.405 . S
C204 H230 0.930 . S
C205 C200 1.479 . S
C205 C204 1.405 . S
C205 H231 0.931 . S
U206 O207 2.454 . S
U206 O208 2.458 . S
U206 C209 2.984 . S
U206 C210 2.847 . S
U206 C223 2.882 . S
U206 O224 2.441 . S
U206 O225 2.420 . S
U206 O226 2.455 . S
U206 O227 2.449 . S
O207 U206 2.454 . S
O207 C209 1.353 . S
O208 U206 2.458 . S
O208 C209 1.286 . S
C209 U206 2.984 . S
C209 O207 1.353 . S
C209 O208 1.286 . S
C209 C211 1.363 . S
C210 C200 1.465 . S
C210 U206 2.847 . S
C210 O224 1.249 . S
C210 O225 1.202 . S
C211 C209 1.363 . S
C211 C213 1.408 1_565 S
C211 C216 1.342 . S
C212 C213 1.310 . S
C212 C215 1.461 . S
C212 H232 0.932 . S
C213 C211 1.408 1_545 S
C213 C212 1.310 . S
C213 H233 0.930 . S
C214 C215 1.457 1_565 S
C214 C216 1.304 . S
C214 H234 0.928 . S
C215 C212 1.461 . S
C215 C214 1.457 1_545 S
C216 C211 1.342 . S
C216 C214 1.304 . S
C216 H235 0.930 . S
C217 C220 1.424 . S
C217 C222 1.245 . S
C217 C223 1.428 . S
C218 C221 1.260 . S
C218 C222 1.477 . S
C218 H236 0.932 . S
C219 C220 1.384 . S
C219 C221 1.479 . S
C219 H237 0.929 . S
C220 C217 1.424 . S
C220 C219 1.384 . S
C220 H238 0.928 . S
C221 C218 1.260 . S
C221 C219 1.479 . S
C222 C217 1.245 . S
C222 C218 1.477 . S
C222 H239 0.932 . S
C223 U206 2.882 . S
C223 C217 1.428 . S
C223 O226 1.301 . S
C223 O227 1.282 . S
O224 U206 2.441 . S
O224 C210 1.249 . S
O225 U206 2.420 . S
O225 C210 1.202 . S
O226 U206 2.455 . S
O226 C223 1.301 . S
O227 U206 2.449 . S
O227 C223 1.282 . S
H228 C201 0.931 . S
H229 C203 0.929 . S
H230 C204 0.930 . S
H231 C205 0.931 . S
H232 C212 0.932 . S
H233 C213 0.930 . S
H234 C214 0.928 . S
H235 C216 0.930 . S
H236 C218 0.932 . S
H237 C219 0.929 . S
H238 C220 0.928 . S
H239 C222 0.932 . S
C240 C241 1.264 . S
C240 C245 1.479 . S
C240 C250 1.465 . S
C241 C240 1.264 . S
C241 C243 1.339 . S
C241 H268 0.931 . S
C242 C243 1.395 . S
C242 C244 1.320 . S
C243 C241 1.339 . S
C243 C242 1.395 . S
C243 H269 0.929 . S
C244 C242 1.320 . S
C244 C245 1.405 . S
C244 H270 0.930 . S
C245 C240 1.479 . S
C245 C244 1.405 . S
C245 H271 0.931 . S
U246 O247 2.454 . S
U246 O248 2.458 . S
U246 C249 2.984 . S
U246 C250 2.847 . S
U246 C263 2.882 . S
U246 O264 2.441 . S
U246 O265 2.420 . S
U246 O266 2.455 . S
U246 O267 2.449 . S
O247 U246 2.454 . S
O247 C249 1.353 . S
O248 U246 2.458 . S
O248 C249 1.286 . S
C249 U246 2.984 . S
C249 O247 1.353 . S
C249 O248 1.286 . S
C249 C251 1.363 . S
C250 C240 1.465 . S
C250 U246 2.847 . S
C250 O264 1.249 . S
C250 O265 1.202 . S
C251 C249 1.363 . S
C251 C253 1.408 . S
C251 C256 1.342 . S
C252 C253 1.310 . S
C252 C255 1.461 . S
C252 H272 0.932 . S
C253 C251 1.408 . S
C253 C252 1.310 . S
C253 H273 0.930 . S
C254 C255 1.474 . S
C254 C256 1.285 . S
C254 H274 0.929 . S
C255 C252 1.461 . S
C255 C254 1.474 . S
C256 C251 1.342 . S
C256 C254 1.285 . S
C256 H275 0.930 . S
C257 C260 1.424 . S
C257 C262 1.245 . S
C257 C263 1.428 . S
C258 C261 1.260 . S
C258 C262 1.477 . S
C258 H276 0.932 . S
C259 C260 1.384 . S
C259 C261 1.479 . S
C259 H277 0.929 . S
C260 C257 1.424 . S
C260 C259 1.384 . S
C260 H278 0.928 . S
C261 C258 1.260 . S
C261 C259 1.479 . S
C262 C257 1.245 . S
C262 C258 1.477 . S
C262 H279 0.932 . S
C263 U246 2.882 . S
C263 C257 1.428 . S
C263 O266 1.301 . S
C263 O267 1.282 . S
O264 U246 2.441 . S
O264 C250 1.249 . S
O265 U246 2.420 . S
O265 C250 1.202 . S
O266 U246 2.455 . S
O266 C263 1.301 . S
O267 U246 2.449 . S
O267 C263 1.282 . S
H268 C241 0.931 . S
H269 C243 0.929 . S
H270 C244 0.930 . S
H271 C245 0.931 . S
H272 C252 0.932 . S
H273 C253 0.930 . S
H274 C254 0.929 . S
H275 C256 0.930 . S
H276 C258 0.932 . S
H277 C259 0.929 . S
H278 C260 0.928 . S
H279 C262 0.932 . S
C280 C281 1.264 . S
C280 C285 1.479 . S
C280 C290 1.465 . S
C281 C280 1.264 . S
C281 C283 1.339 . S
C281 H308 0.931 . S
C282 C283 1.395 . S
C282 C284 1.320 . S
C283 C281 1.339 . S
C283 C282 1.395 . S
C283 H309 0.929 . S
C284 C282 1.320 . S
C284 C285 1.405 . S
C284 H310 0.930 . S
C285 C280 1.479 . S
C285 C284 1.405 . S
C285 H311 0.931 . S
U286 O287 2.454 . S
U286 O288 2.458 . S
U286 C289 2.984 . S
U286 C290 2.847 . S
U286 C303 2.882 . S
U286 O304 2.441 . S
U286 O305 2.420 . S
U286 O306 2.455 . S
U286 O307 2.449 . S
O287 U286 2.454 . S
O287 C289 1.353 . S
O288 U286 2.458 . S
O288 C289 1.286 . S
C289 U286 2.984 . S
C289 O287 1.353 . S
C289 O288 1.286 . S
C289 C291 1.363 . S
C290 C280 1.465 . S
C290 U286 2.847 . S
C290 O304 1.249 . S
C290 O305 1.202 . S
C291 C289 1.363 . S
C291 C293 1.408 1_455 S
C291 C296 1.342 . S
C292 C293 1.310 . S
C292 C295 1.461 1_556 S
C292 H312 0.932 . S
C293 C291 1.408 1_655 S
C293 C292 1.310 . S
C293 H313 0.930 . S
C294 C295 1.457 1_455 S
C294 C296 1.304 1_554 S
C294 H314 0.928 . S
C295 C292 1.461 1_554 S
C295 C294 1.457 1_655 S
C296 C291 1.342 . S
C296 C294 1.304 1_556 S
C296 H315 0.930 . S
C297 C300 1.424 . S
C297 C302 1.245 . S
C297 C303 1.428 . S
C298 C301 1.260 . S
C298 C302 1.477 . S
C298 H316 0.932 . S
C299 C300 1.384 . S
C299 C301 1.479 . S
C299 H317 0.929 . S
C300 C297 1.424 . S
C300 C299 1.384 . S
C300 H318 0.928 . S
C301 C298 1.260 . S
C301 C299 1.479 . S
C302 C297 1.245 . S
C302 C298 1.477 . S
C302 H319 0.932 . S
C303 U286 2.882 . S
C303 C297 1.428 . S
C303 O306 1.301 . S
C303 O307 1.282 . S
O304 U286 2.441 . S
O304 C290 1.249 . S
O305 U286 2.420 . S
O305 C290 1.202 . S
O306 U286 2.455 . S
O306 C303 1.301 . S
O307 U286 2.449 . S
O307 C303 1.282 . S
H308 C281 0.931 . S
H309 C283 0.929 . S
H310 C284 0.930 . S
H311 C285 0.931 . S
H312 C292 0.932 . S
H313 C293 0.930 . S
H314 C294 0.928 . S
H315 C296 0.930 . S
H316 C298 0.932 . S
H317 C299 0.929 . S
H318 C300 0.928 . S
H319 C302 0.932 . S
C320 C321 1.264 . S
C320 C325 1.479 . S
C320 C330 1.465 . S
C321 C320 1.264 . S
C321 C323 1.339 . S
C321 H348 0.931 . S
C322 C323 1.395 . S
C322 C324 1.320 . S
C323 C321 1.339 . S
C323 C322 1.395 . S
C323 H349 0.929 . S
C324 C322 1.320 . S
C324 C325 1.405 . S
C324 H350 0.930 . S
C325 C320 1.479 . S
C325 C324 1.405 . S
C325 H351 0.931 . S
U326 O327 2.454 . S
U326 O328 2.458 . S
U326 C329 2.984 . S
U326 C330 2.847 . S
U326 C343 2.882 . S
U326 O344 2.441 . S
U326 O345 2.420 . S
U326 O346 2.455 . S
U326 O347 2.449 . S
O327 U326 2.454 . S
O327 C329 1.353 . S
O328 U326 2.458 . S
O328 C329 1.286 . S
C329 U326 2.984 . S
C329 O327 1.353 . S
C329 O328 1.286 . S
C329 C331 1.363 . S
C330 C320 1.465 . S
C330 U326 2.847 . S
C330 O344 1.249 . S
C330 O345 1.202 . S
C331 C329 1.363 . S
C331 C333 1.408 1_545 S
C331 C336 1.342 . S
C332 C333 1.310 . S
C332 C335 1.461 . S
C332 H352 0.932 . S
C333 C331 1.408 1_565 S
C333 C332 1.310 . S
C333 H353 0.930 . S
C334 C335 1.452 1_545 S
C334 C336 1.297 . S
C334 H354 0.940 . S
C335 C332 1.461 . S
C335 C334 1.452 1_565 S
C336 C331 1.342 . S
C336 C334 1.297 . S
C336 H355 0.930 . S
C337 C340 1.424 . S
C337 C342 1.245 . S
C337 C343 1.428 . S
C338 C341 1.260 . S
C338 C342 1.477 . S
C338 H356 0.932 . S
C339 C340 1.384 . S
C339 C341 1.479 . S
C339 H357 0.929 . S
C340 C337 1.424 . S
C340 C339 1.384 . S
C340 H358 0.928 . S
C341 C338 1.260 . S
C341 C339 1.479 . S
C342 C337 1.245 . S
C342 C338 1.477 . S
C342 H359 0.932 . S
C343 U326 2.882 . S
C343 C337 1.428 . S
C343 O346 1.301 . S
C343 O347 1.282 . S
O344 U326 2.441 . S
O344 C330 1.249 . S
O345 U326 2.420 . S
O345 C330 1.202 . S
O346 U326 2.455 . S
O346 C343 1.301 . S
O347 U326 2.449 . S
O347 C343 1.282 . S
H348 C321 0.931 . S
H349 C323 0.929 . S
H350 C324 0.930 . S
H351 C325 0.931 . S
H352 C332 0.932 . S
H353 C333 0.930 . S
H354 C334 0.940 . S
H355 C336 0.930 . S
H356 C338 0.932 . S
H357 C339 0.929 . S
H358 C340 0.928 . S
H359 C342 0.932 . S
C360 C361 1.264 . S
C360 C365 1.479 . S
C360 C370 1.465 . S
C361 C360 1.264 . S
C361 C363 1.339 . S
C361 H388 0.931 . S
C362 C363 1.395 . S
C362 C364 1.320 . S
C363 C361 1.339 . S
C363 C362 1.395 . S
C363 H389 0.929 . S
C364 C362 1.320 . S
C364 C365 1.405 . S
C364 H390 0.930 . S
C365 C360 1.479 . S
C365 C364 1.405 . S
C365 H391 0.931 . S
U366 O367 2.454 . S
U366 O368 2.458 . S
U366 C369 2.984 . S
U366 C370 2.847 . S
U366 C383 2.882 . S
U366 O384 2.441 . S
U366 O385 2.420 . S
U366 O386 2.455 . S
U366 O387 2.449 . S
O367 U366 2.454 . S
O367 C369 1.353 . S
O368 U366 2.458 . S
O368 C369 1.286 . S
C369 U366 2.984 . S
C369 O367 1.353 . S
C369 O368 1.286 . S
C369 C371 1.363 . S
C370 C360 1.465 . S
C370 U366 2.847 . S
C370 O384 1.249 . S
C370 O385 1.202 . S
C371 C369 1.363 . S
C371 C373 1.408 . S
C371 C376 1.342 . S
C372 C373 1.310 . S
C372 C375 1.461 . S
C372 H392 0.932 . S
C373 C371 1.408 . S
C373 C372 1.310 . S
C373 H393 0.930 . S
C374 C375 1.474 . S
C374 C376 1.285 . S
C374 H394 0.929 . S
C375 C372 1.461 . S
C375 C374 1.474 . S
C376 C371 1.342 . S
C376 C374 1.285 . S
C376 H395 0.930 . S
C377 C380 1.424 . S
C377 C382 1.245 . S
C377 C383 1.428 . S
C378 C381 1.260 . S
C378 C382 1.477 . S
C378 H396 0.932 . S
C379 C380 1.384 . S
C379 C381 1.479 . S
C379 H397 0.929 . S
C380 C377 1.424 . S
C380 C379 1.384 . S
C380 H398 0.928 . S
C381 C378 1.260 . S
C381 C379 1.479 . S
C382 C377 1.245 . S
C382 C378 1.477 . S
C382 H399 0.932 . S
C383 U366 2.882 . S
C383 C377 1.428 . S
C383 O386 1.301 . S
C383 O387 1.282 . S
O384 U366 2.441 . S
O384 C370 1.249 . S
O385 U366 2.420 . S
O385 C370 1.202 . S
O386 U366 2.455 . S
O386 C383 1.301 . S
O387 U366 2.449 . S
O387 C383 1.282 . S
H388 C361 0.931 . S
H389 C363 0.929 . S
H390 C364 0.930 . S
H391 C365 0.931 . S
H392 C372 0.932 . S
H393 C373 0.930 . S
H394 C374 0.929 . S
H395 C376 0.930 . S
H396 C378 0.932 . S
H397 C379 0.929 . S
H398 C380 0.928 . S
H399 C382 0.932 . S
C400 C401 1.264 . S
C400 C405 1.479 . S
C400 C410 1.465 . S
C401 C400 1.264 . S
C401 C403 1.339 . S
C401 H428 0.931 . S
C402 C403 1.395 . S
C402 C404 1.320 . S
C403 C401 1.339 . S
C403 C402 1.395 . S
C403 H429 0.929 . S
C404 C402 1.320 . S
C404 C405 1.405 . S
C404 H430 0.930 . S
C405 C400 1.479 . S
C405 C404 1.405 . S
C405 H431 0.931 . S
U406 O407 2.454 . S
U406 O408 2.458 . S
U406 C409 2.984 . S
U406 C410 2.847 . S
U406 C423 2.882 . S
U406 O424 2.441 . S
U406 O425 2.420 . S
U406 O426 2.455 . S
U406 O427 2.449 . S
O407 U406 2.454 . S
O407 C409 1.353 . S
O408 U406 2.458 . S
O408 C409 1.286 . S
C409 U406 2.984 . S
C409 O407 1.353 . S
C409 O408 1.286 . S
C409 C411 1.363 . S
C410 C400 1.465 . S
C410 U406 2.847 . S
C410 O424 1.249 . S
C410 O425 1.202 . S
C411 C409 1.363 . S
C411 C413 1.408 1_655 S
C411 C416 1.342 . S
C412 C413 1.310 . S
C412 C415 1.461 1_556 S
C412 H432 0.932 . S
C413 C411 1.408 1_455 S
C413 C412 1.310 . S
C413 H433 0.930 . S
C414 C415 1.458 1_655 S
C414 C416 1.303 1_554 S
C414 H434 0.928 . S
C415 C412 1.461 1_554 S
C415 C414 1.458 1_455 S
C416 C411 1.342 . S
C416 C414 1.303 1_556 S
C416 H435 0.930 . S
C417 C420 1.424 . S
C417 C422 1.245 . S
C417 C423 1.428 . S
C418 C421 1.260 . S
C418 C422 1.477 . S
C418 H436 0.932 . S
C419 C420 1.384 . S
C419 C421 1.479 . S
C419 H437 0.929 . S
C420 C417 1.424 . S
C420 C419 1.384 . S
C420 H438 0.928 . S
C421 C418 1.260 . S
C421 C419 1.479 . S
C422 C417 1.245 . S
C422 C418 1.477 . S
C422 H439 0.932 . S
C423 U406 2.882 . S
C423 C417 1.428 . S
C423 O426 1.301 . S
C423 O427 1.282 . S
O424 U406 2.441 . S
O424 C410 1.249 . S
O425 U406 2.420 . S
O425 C410 1.202 . S
O426 U406 2.455 . S
O426 C423 1.301 . S
O427 U406 2.449 . S
O427 C423 1.282 . S
H428 C401 0.931 . S
H429 C403 0.929 . S
H430 C404 0.930 . S
H431 C405 0.931 . S
H432 C412 0.932 . S
H433 C413 0.930 . S
H434 C414 0.928 . S
H435 C416 0.930 . S
H436 C418 0.932 . S
H437 C419 0.929 . S
H438 C420 0.928 . S
H439 C422 0.932 . S
C440 C441 1.264 . S
C440 C445 1.479 . S
C440 C450 1.465 . S
C441 C440 1.264 . S
C441 C443 1.339 . S
C441 H468 0.931 . S
C442 C443 1.395 . S
C442 C444 1.320 . S
C443 C441 1.339 . S
C443 C442 1.395 . S
C443 H469 0.929 . S
C444 C442 1.320 . S
C444 C445 1.405 . S
C444 H470 0.930 . S
C445 C440 1.479 . S
C445 C444 1.405 . S
C445 H471 0.931 . S
U446 O447 2.454 . S
U446 O448 2.458 . S
U446 C449 2.984 . S
U446 C450 2.847 . S
U446 C463 2.882 . S
U446 O464 2.441 . S
U446 O465 2.420 . S
U446 O466 2.455 . S
U446 O467 2.449 . S
O447 U446 2.454 . S
O447 C449 1.353 . S
O448 U446 2.458 . S
O448 C449 1.286 . S
C449 U446 2.984 . S
C449 O447 1.353 . S
C449 O448 1.286 . S
C449 C451 1.363 . S
C450 C440 1.465 . S
C450 U446 2.847 . S
C450 O464 1.249 . S
C450 O465 1.202 . S
C451 C449 1.363 . S
C451 C453 1.408 1_565 S
C451 C456 1.342 . S
C452 C453 1.310 . S
C452 C455 1.461 . S
C452 H472 0.932 . S
C453 C451 1.408 1_545 S
C453 C452 1.310 . S
C453 H473 0.930 . S
C454 C455 1.452 1_565 S
C454 C456 1.297 . S
C454 H474 0.940 . S
C455 C452 1.461 . S
C455 C454 1.452 1_545 S
C456 C451 1.342 . S
C456 C454 1.297 . S
C456 H475 0.930 . S
C457 C460 1.424 . S
C457 C462 1.245 . S
C457 C463 1.428 . S
C458 C461 1.260 . S
C458 C462 1.477 . S
C458 H476 0.932 . S
C459 C460 1.384 . S
C459 C461 1.479 . S
C459 H477 0.929 . S
C460 C457 1.424 . S
C460 C459 1.384 . S
C460 H478 0.928 . S
C461 C458 1.260 . S
C461 C459 1.479 . S
C462 C457 1.245 . S
C462 C458 1.477 . S
C462 H479 0.932 . S
C463 U446 2.882 . S
C463 C457 1.428 . S
C463 O466 1.301 . S
C463 O467 1.282 . S
O464 U446 2.441 . S
O464 C450 1.249 . S
O465 U446 2.420 . S
O465 C450 1.202 . S
O466 U446 2.455 . S
O466 C463 1.301 . S
O467 U446 2.449 . S
O467 C463 1.282 . S
H468 C441 0.931 . S
H469 C443 0.929 . S
H470 C444 0.930 . S
H471 C445 0.931 . S
H472 C452 0.932 . S
H473 C453 0.930 . S
H474 C454 0.940 . S
H475 C456 0.930 . S
H476 C458 0.932 . S
H477 C459 0.929 . S
H478 C460 0.928 . S
H479 C462 0.932 . S
C480 C481 1.387 . S
C480 H484 0.950 . S
C480 C489 1.390 . S
C481 C480 1.387 . S
C481 C483 1.387 . S
H482 C489 0.950 . S
C483 C481 1.387 . S
C483 C485 1.390 . S
C483 H487 0.950 . S
H484 C480 0.950 . S
C485 C483 1.390 . S
C485 C486 1.387 . S
C485 H488 0.950 . S
C486 C485 1.387 . S
C486 C489 1.387 . S
H487 C483 0.950 . S
H488 C485 0.950 . S
C489 C480 1.390 . S
C489 H482 0.950 . S
C489 C486 1.387 . S
C490 C491 1.387 . S
C490 H494 0.950 . S
C490 C499 1.390 . S
C491 C490 1.387 . S
C491 C493 1.387 . S
H492 C499 0.950 . S
C493 C491 1.387 . S
C493 C495 1.390 . S
C493 H497 0.950 . S
H494 C490 0.950 . S
C495 C493 1.390 . S
C495 C496 1.387 . S
C495 H498 0.950 . S
C496 C495 1.387 . S
C496 C499 1.387 . S
H497 C493 0.950 . S
H498 C495 0.950 . S
C499 C490 1.390 . S
C499 H492 0.950 . S
C499 C496 1.387 . S
C500 C501 1.387 . S
C500 H504 0.950 . S
C500 C509 1.390 . S
C501 C500 1.387 . S
C501 C503 1.387 . S
H502 C509 0.950 . S
C503 C501 1.387 . S
C503 C505 1.390 . S
C503 H507 0.950 . S
H504 C500 0.950 . S
C505 C503 1.390 . S
C505 C506 1.387 . S
C505 H508 0.950 . S
C506 C505 1.387 . S
C506 C509 1.387 . S
H507 C503 0.950 . S
H508 C505 0.950 . S
C509 C500 1.390 . S
C509 H502 0.950 . S
C509 C506 1.387 . S
C510 C511 1.387 . S
C510 H514 0.950 . S
C510 C519 1.390 . S
C511 C510 1.387 . S
C511 C513 1.387 . S
H512 C519 0.950 . S
C513 C511 1.387 . S
C513 C515 1.390 . S
C513 H517 0.950 . S
H514 C510 0.950 . S
C515 C513 1.390 . S
C515 C516 1.387 . S
C515 H518 0.950 . S
C516 C515 1.387 . S
C516 C519 1.387 . S
H517 C513 0.950 . S
H518 C515 0.950 . S
C519 C510 1.390 . S
C519 H512 0.950 . S
C519 C516 1.387 . S
C520 C521 1.387 . S
C520 H524 0.950 . S
C520 C529 1.390 . S
C521 C520 1.387 . S
C521 C523 1.387 . S
H522 C529 0.950 . S
C523 C521 1.387 . S
C523 C525 1.390 . S
C523 H527 0.950 . S
H524 C520 0.950 . S
C525 C523 1.390 . S
C525 C526 1.387 . S
C525 H528 0.950 . S
C526 C525 1.387 . S
C526 C529 1.387 . S
H527 C523 0.950 . S
H528 C525 0.950 . S
C529 C520 1.390 . S
C529 H522 0.950 . S
C529 C526 1.387 . S
C530 C531 1.387 . S
C530 H534 0.950 . S
C530 C539 1.390 . S
C531 C530 1.387 . S
C531 C533 1.387 . S
H532 C539 0.950 . S
C533 C531 1.387 . S
C533 C535 1.390 . S
C533 H537 0.950 . S
H534 C530 0.950 . S
C535 C533 1.390 . S
C535 C536 1.387 . S
C535 H538 0.950 . S
C536 C535 1.387 . S
C536 C539 1.387 . S
H537 C533 0.950 . S
H538 C535 0.950 . S
C539 C530 1.390 . S
C539 H532 0.950 . S
C539 C536 1.387 . S
C540 C541 1.387 . S
C540 H544 0.950 . S
C540 C549 1.390 1_545 S
C541 C540 1.387 . S
C541 C543 1.387 . S
H542 C549 0.950 . S
C543 C541 1.387 . S
C543 C545 1.390 1_545 S
C543 H547 0.950 1_554 S
H544 C540 0.950 . S
C545 C543 1.390 1_565 S
C545 C546 1.387 . S
C545 H548 0.950 1_554 S
C546 C545 1.387 . S
C546 C549 1.387 . S
H547 C543 0.950 1_556 S
H548 C545 0.950 1_556 S
C549 C540 1.390 1_565 S
C549 H542 0.950 . S
C549 C546 1.387 . S
C550 C551 1.387 . S
C550 H554 0.950 . S
C550 C559 1.390 . S
C551 C550 1.387 . S
C551 C553 1.387 . S
H552 C559 0.950 . S
C553 C551 1.387 . S
C553 C555 1.390 . S
C553 H557 0.950 . S
H554 C550 0.950 . S
C555 C553 1.390 . S
C555 C556 1.387 . S
C555 H558 0.950 . S
C556 C555 1.387 . S
C556 C559 1.387 . S
H557 C553 0.950 . S
H558 C555 0.950 . S
C559 C550 1.390 . S
C559 H552 0.950 . S
C559 C556 1.387 . S
C560 C561 1.387 . S
C560 H564 0.950 . S
C560 C569 1.390 1_455 S
C561 C560 1.387 . S
C561 C563 1.387 . S
H562 C569 0.950 . S
C563 C561 1.387 . S
C563 C565 1.390 1_455 S
C563 H567 0.950 . S
H564 C560 0.950 . S
C565 C563 1.390 1_655 S
C565 C566 1.387 . S
C565 H568 0.950 . S
C566 C565 1.387 . S
C566 C569 1.387 . S
H567 C563 0.950 . S
H568 C565 0.950 . S
C569 C560 1.390 1_655 S
C569 H562 0.950 . S
C569 C566 1.387 . S
C570 C571 1.387 . S
C570 H574 0.950 . S
C570 C579 1.390 1_655 S
C571 C570 1.387 . S
C571 C573 1.387 . S
H572 C579 0.950 . S
C573 C571 1.387 . S
C573 C575 1.390 1_655 S
C573 H577 0.950 . S
H574 C570 0.950 . S
C575 C573 1.390 1_455 S
C575 C576 1.387 . S
C575 H578 0.950 . S
C576 C575 1.387 . S
C576 C579 1.387 . S
H577 C573 0.950 . S
H578 C575 0.950 . S
C579 C570 1.390 1_455 S
C579 H572 0.950 . S
C579 C576 1.387 . S
C580 C581 1.387 . S
C580 H584 0.950 1_556 S
C580 C589 1.390 1_545 S
C581 C580 1.387 . S
C581 C583 1.387 . S
H582 C589 0.950 1_554 S
C583 C581 1.387 . S
C583 C585 1.390 1_545 S
C583 H587 0.950 . S
H584 C580 0.950 1_554 S
C585 C583 1.390 1_565 S
C585 C586 1.387 . S
C585 H588 0.950 . S
C586 C585 1.387 . S
C586 C589 1.387 . S
H587 C583 0.950 . S
H588 C585 0.950 . S
C589 C580 1.390 1_565 S
C589 H582 0.950 1_556 S
C589 C586 1.387 . S
C590 C591 1.387 . S
C590 H594 0.950 . S
C590 C599 1.390 . S
C591 C590 1.387 . S
C591 C593 1.387 . S
H592 C599 0.950 . S
C593 C591 1.387 . S
C593 C595 1.390 . S
C593 H597 0.950 . S
H594 C590 0.950 . S
C595 C593 1.390 . S
C595 C596 1.387 . S
C595 H598 0.950 . S
C596 C595 1.387 . S
C596 C599 1.387 . S
H597 C593 0.950 . S
H598 C595 0.950 . S
C599 C590 1.390 . S
C599 H592 0.950 . S
C599 C596 1.387 . S
C600 C601 1.387 . S
C600 H604 0.950 . S
C600 C609 1.390 1_554 S
C601 C600 1.387 . S
C601 C603 1.387 . S
H602 C609 0.950 . S
C603 C601 1.387 . S
C603 C605 1.390 1_554 S
C603 H607 0.950 . S
H604 C600 0.950 . S
C605 C603 1.390 1_556 S
C605 C606 1.387 . S
C605 H608 0.950 . S
C606 C605 1.387 . S
C606 C609 1.387 . S
H607 C603 0.950 . S
H608 C605 0.950 . S
C609 C600 1.390 1_556 S
C609 H602 0.950 . S
C609 C606 1.387 . S
C610 C611 1.387 . S
C610 H614 0.950 . S
C610 C619 1.390 . S
C611 C610 1.387 . S
C611 C613 1.387 . S
H612 C619 0.950 . S
C613 C611 1.387 . S
C613 C615 1.390 . S
C613 H617 0.950 . S
H614 C610 0.950 . S
C615 C613 1.390 . S
C615 C616 1.387 . S
C615 H618 0.950 . S
C616 C615 1.387 . S
C616 C619 1.387 . S
H617 C613 0.950 . S
H618 C615 0.950 . S
C619 C610 1.390 . S
C619 H612 0.950 . S
C619 C616 1.387 . S
C620 C621 1.387 . S
C620 H624 0.950 . S
C620 C629 1.390 . S
C621 C620 1.387 . S
C621 C623 1.387 . S
H622 C629 0.950 . S
C623 C621 1.387 . S
C623 C625 1.390 . S
C623 H627 0.950 . S
H624 C620 0.950 . S
C625 C623 1.390 . S
C625 C626 1.387 . S
C625 H628 0.950 . S
C626 C625 1.387 . S
C626 C629 1.387 . S
H627 C623 0.950 . S
H628 C625 0.950 . S
C629 C620 1.390 . S
C629 H622 0.950 . S
C629 C626 1.387 . S
C630 C631 1.387 . S
C630 H634 0.950 . S
C630 C639 1.390 1_556 S
C631 C630 1.387 . S
C631 C633 1.387 . S
H632 C639 0.950 . S
C633 C631 1.387 . S
C633 C635 1.390 1_556 S
C633 H637 0.950 . S
H634 C630 0.950 . S
C635 C633 1.390 1_554 S
C635 C636 1.387 . S
C635 H638 0.950 . S
C636 C635 1.387 . S
C636 C639 1.387 . S
H637 C633 0.950 . S
H638 C635 0.950 . S
C639 C630 1.390 1_554 S
C639 H632 0.950 . S
C639 C636 1.387 . S
C640 C641 1.387 . S
C640 H644 0.950 . S
C640 C649 1.390 . S
C641 C640 1.387 . S
C641 C643 1.387 . S
H642 C649 0.950 . S
C643 C641 1.387 . S
C643 C645 1.390 . S
C643 H647 0.950 . S
H644 C640 0.950 . S
C645 C643 1.390 . S
C645 C646 1.387 . S
C645 H648 0.950 . S
C646 C645 1.387 . S
C646 C649 1.387 . S
H647 C643 0.950 . S
H648 C645 0.950 . S
C649 C640 1.390 . S
C649 H642 0.950 . S
C649 C646 1.387 . S
C650 C651 1.387 . S
C650 H654 0.950 . S
C650 C659 1.390 . S
C651 C650 1.387 . S
C651 C653 1.387 . S
H652 C659 0.950 . S
C653 C651 1.387 . S
C653 C655 1.390 . S
C653 H657 0.950 . S
H654 C650 0.950 . S
C655 C653 1.390 . S
C655 C656 1.387 . S
C655 H658 0.950 . S
C656 C655 1.387 . S
C656 C659 1.387 . S
H657 C653 0.950 . S
H658 C655 0.950 . S
C659 C650 1.390 . S
C659 H652 0.950 . S
C659 C656 1.387 . S
C481 C2 2.100 . S
C486 C242 2.100 . S
C491 C42 2.097 . S
C496 C282 2.097 . S
C501 C82 2.101 . S
C506 C322 2.101 . S
C511 C362 2.101 . S
C516 C122 2.101 . S
C521 C162 2.101 . S
C526 C402 2.101 . S
C531 C442 2.098 . S
C536 C202 2.098 . S
C541 C21 1.788 . S
C546 C141 1.788 . S
C551 C61 1.786 . S
C556 C181 1.786 . S
C561 C221 1.788 . S
C566 C101 1.788 . S
C571 C261 1.786 . S
C576 C381 1.786 . S
C581 C421 1.786 . S
C586 C301 1.786 . S
C591 C461 1.786 . S
C596 C341 1.786 . S
C601 C415 2.055 . S
C606 C15 2.055 . S
C611 C455 2.057 . S
C616 C55 2.057 . S
C621 C95 2.057 . S
C626 C255 2.057 . S
C631 C135 2.055 . S
C636 C295 2.055 . S
C641 C335 2.057 . S
C646 C175 2.057 . S
C651 C215 2.057 . S
C656 C375 2.056 . S
