# Generated by pormake.
# Topology unu, (4)-cn, num edge types: 1
# Building blocks:
#     Node 0, Type 0, BuildingBlock: NAHDIM_clean_sbu_0, # of connection points: 4
#     Node 1, Type 0, BuildingBlock: NAHDIM_clean_sbu_0, # of connection points: 4
#     Node 2, Type 0, BuildingBlock: NAHDIM_clean_sbu_0, # of connection points: 4
#     Node 3, Type 0, BuildingBlock: NAHDIM_clean_sbu_0, # of connection points: 4
#     Node 4, Type 0, BuildingBlock: NAHDIM_clean_sbu_0, # of connection points: 4
#     Node 5, Type 0, BuildingBlock: NAHDIM_clean_sbu_0, # of connection points: 4
#     Node 6, Type 0, BuildingBlock: NAHDIM_clean_sbu_0, # of connection points: 4
#     Node 7, Type 0, BuildingBlock: NAHDIM_clean_sbu_0, # of connection points: 4
#     Node 8, Type 0, BuildingBlock: NAHDIM_clean_sbu_0, # of connection points: 4
#     Node 9, Type 0, BuildingBlock: NAHDIM_clean_sbu_0, # of connection points: 4
#     Node 10, Type 0, BuildingBlock: NAHDIM_clean_sbu_0, # of connection points: 4
#     Node 11, Type 0, BuildingBlock: NAHDIM_clean_sbu_0, # of connection points: 4
#     Node 12, Type 0, BuildingBlock: NAHDIM_clean_sbu_0, # of connection points: 4
#     Node 13, Type 0, BuildingBlock: NAHDIM_clean_sbu_0, # of connection points: 4
#     Node 14, Type 0, BuildingBlock: NAHDIM_clean_sbu_0, # of connection points: 4
#     Node 15, Type 0, BuildingBlock: NAHDIM_clean_sbu_0, # of connection points: 4
#     Node 16, Type 0, BuildingBlock: NAHDIM_clean_sbu_0, # of connection points: 4
#     Node 17, Type 0, BuildingBlock: NAHDIM_clean_sbu_0, # of connection points: 4
#     Node 18, Type 0, BuildingBlock: NAHDIM_clean_sbu_0, # of connection points: 4
#     Node 19, Type 0, BuildingBlock: NAHDIM_clean_sbu_0, # of connection points: 4
#     Node 20, Type 0, BuildingBlock: NAHDIM_clean_sbu_0, # of connection points: 4
#     Node 21, Type 0, BuildingBlock: NAHDIM_clean_sbu_0, # of connection points: 4
#     Node 22, Type 0, BuildingBlock: NAHDIM_clean_sbu_0, # of connection points: 4
#     Node 23, Type 0, BuildingBlock: NAHDIM_clean_sbu_0, # of connection points: 4
#     Node 24, Type 0, BuildingBlock: NAHDIM_clean_sbu_0, # of connection points: 4
#     Node 25, Type 0, BuildingBlock: NAHDIM_clean_sbu_0, # of connection points: 4
#     Node 26, Type 0, BuildingBlock: NAHDIM_clean_sbu_0, # of connection points: 4
#     Node 27, Type 0, BuildingBlock: NAHDIM_clean_sbu_0, # of connection points: 4
#     Node 28, Type 0, BuildingBlock: NAHDIM_clean_sbu_0, # of connection points: 4
#     Node 29, Type 0, BuildingBlock: NAHDIM_clean_sbu_0, # of connection points: 4
#     Node 30, Type 0, BuildingBlock: NAHDIM_clean_sbu_0, # of connection points: 4
#     Node 31, Type 0, BuildingBlock: NAHDIM_clean_sbu_0, # of connection points: 4
#     Node 32, Type 0, BuildingBlock: NAHDIM_clean_sbu_0, # of connection points: 4
#     Node 33, Type 0, BuildingBlock: NAHDIM_clean_sbu_0, # of connection points: 4
#     Node 34, Type 0, BuildingBlock: NAHDIM_clean_sbu_0, # of connection points: 4
#     Node 35, Type 0, BuildingBlock: NAHDIM_clean_sbu_0, # of connection points: 4
#     Edge 36, Type (0, 0), BuildingBlock: CIFDUS_clean_linker_0, # of connection points: 2
#     Edge 37, Type (0, 0), BuildingBlock: CIFDUS_clean_linker_0, # of connection points: 2
#     Edge 38, Type (0, 0), BuildingBlock: CIFDUS_clean_linker_0, # of connection points: 2
#     Edge 39, Type (0, 0), BuildingBlock: CIFDUS_clean_linker_0, # of connection points: 2
#     Edge 40, Type (0, 0), BuildingBlock: CIFDUS_clean_linker_0, # of connection points: 2
#     Edge 41, Type (0, 0), BuildingBlock: CIFDUS_clean_linker_0, # of connection points: 2
#     Edge 42, Type (0, 0), BuildingBlock: CIFDUS_clean_linker_0, # of connection points: 2
#     Edge 43, Type (0, 0), BuildingBlock: CIFDUS_clean_linker_0, # of connection points: 2
#     Edge 44, Type (0, 0), BuildingBlock: CIFDUS_clean_linker_0, # of connection points: 2
#     Edge 45, Type (0, 0), BuildingBlock: CIFDUS_clean_linker_0, # of connection points: 2
#     Edge 46, Type (0, 0), BuildingBlock: CIFDUS_clean_linker_0, # of connection points: 2
#     Edge 47, Type (0, 0), BuildingBlock: CIFDUS_clean_linker_0, # of connection points: 2
#     Edge 48, Type (0, 0), BuildingBlock: CIFDUS_clean_linker_0, # of connection points: 2
#     Edge 49, Type (0, 0), BuildingBlock: CIFDUS_clean_linker_0, # of connection points: 2
#     Edge 50, Type (0, 0), BuildingBlock: CIFDUS_clean_linker_0, # of connection points: 2
#     Edge 51, Type (0, 0), BuildingBlock: CIFDUS_clean_linker_0, # of connection points: 2
#     Edge 52, Type (0, 0), BuildingBlock: CIFDUS_clean_linker_0, # of connection points: 2
#     Edge 53, Type (0, 0), BuildingBlock: CIFDUS_clean_linker_0, # of connection points: 2
#     Edge 54, Type (0, 0), BuildingBlock: CIFDUS_clean_linker_0, # of connection points: 2
#     Edge 55, Type (0, 0), BuildingBlock: CIFDUS_clean_linker_0, # of connection points: 2
#     Edge 56, Type (0, 0), BuildingBlock: CIFDUS_clean_linker_0, # of connection points: 2
#     Edge 57, Type (0, 0), BuildingBlock: CIFDUS_clean_linker_0, # of connection points: 2
#     Edge 58, Type (0, 0), BuildingBlock: CIFDUS_clean_linker_0, # of connection points: 2
#     Edge 59, Type (0, 0), BuildingBlock: CIFDUS_clean_linker_0, # of connection points: 2
#     Edge 60, Type (0, 0), BuildingBlock: CIFDUS_clean_linker_0, # of connection points: 2
#     Edge 61, Type (0, 0), BuildingBlock: CIFDUS_clean_linker_0, # of connection points: 2
#     Edge 62, Type (0, 0), BuildingBlock: CIFDUS_clean_linker_0, # of connection points: 2
#     Edge 63, Type (0, 0), BuildingBlock: CIFDUS_clean_linker_0, # of connection points: 2
#     Edge 64, Type (0, 0), BuildingBlock: CIFDUS_clean_linker_0, # of connection points: 2
#     Edge 65, Type (0, 0), BuildingBlock: CIFDUS_clean_linker_0, # of connection points: 2
#     Edge 66, Type (0, 0), BuildingBlock: CIFDUS_clean_linker_0, # of connection points: 2
#     Edge 67, Type (0, 0), BuildingBlock: CIFDUS_clean_linker_0, # of connection points: 2
#     Edge 68, Type (0, 0), BuildingBlock: CIFDUS_clean_linker_0, # of connection points: 2
#     Edge 69, Type (0, 0), BuildingBlock: CIFDUS_clean_linker_0, # of connection points: 2
#     Edge 70, Type (0, 0), BuildingBlock: CIFDUS_clean_linker_0, # of connection points: 2
#     Edge 71, Type (0, 0), BuildingBlock: CIFDUS_clean_linker_0, # of connection points: 2
#     Edge 72, Type (0, 0), BuildingBlock: CIFDUS_clean_linker_0, # of connection points: 2
#     Edge 73, Type (0, 0), BuildingBlock: CIFDUS_clean_linker_0, # of connection points: 2
#     Edge 74, Type (0, 0), BuildingBlock: CIFDUS_clean_linker_0, # of connection points: 2
#     Edge 75, Type (0, 0), BuildingBlock: CIFDUS_clean_linker_0, # of connection points: 2
#     Edge 76, Type (0, 0), BuildingBlock: CIFDUS_clean_linker_0, # of connection points: 2
#     Edge 77, Type (0, 0), BuildingBlock: CIFDUS_clean_linker_0, # of connection points: 2
#     Edge 78, Type (0, 0), BuildingBlock: CIFDUS_clean_linker_0, # of connection points: 2
#     Edge 79, Type (0, 0), BuildingBlock: CIFDUS_clean_linker_0, # of connection points: 2
#     Edge 80, Type (0, 0), BuildingBlock: CIFDUS_clean_linker_0, # of connection points: 2
#     Edge 81, Type (0, 0), BuildingBlock: CIFDUS_clean_linker_0, # of connection points: 2
#     Edge 82, Type (0, 0), BuildingBlock: CIFDUS_clean_linker_0, # of connection points: 2
#     Edge 83, Type (0, 0), BuildingBlock: CIFDUS_clean_linker_0, # of connection points: 2
#     Edge 84, Type (0, 0), BuildingBlock: CIFDUS_clean_linker_0, # of connection points: 2
#     Edge 85, Type (0, 0), BuildingBlock: CIFDUS_clean_linker_0, # of connection points: 2
#     Edge 86, Type (0, 0), BuildingBlock: CIFDUS_clean_linker_0, # of connection points: 2
#     Edge 87, Type (0, 0), BuildingBlock: CIFDUS_clean_linker_0, # of connection points: 2
#     Edge 88, Type (0, 0), BuildingBlock: CIFDUS_clean_linker_0, # of connection points: 2
#     Edge 89, Type (0, 0), BuildingBlock: CIFDUS_clean_linker_0, # of connection points: 2
#     Edge 90, Type (0, 0), BuildingBlock: CIFDUS_clean_linker_0, # of connection points: 2
#     Edge 91, Type (0, 0), BuildingBlock: CIFDUS_clean_linker_0, # of connection points: 2
#     Edge 92, Type (0, 0), BuildingBlock: CIFDUS_clean_linker_0, # of connection points: 2
#     Edge 93, Type (0, 0), BuildingBlock: CIFDUS_clean_linker_0, # of connection points: 2
#     Edge 94, Type (0, 0), BuildingBlock: CIFDUS_clean_linker_0, # of connection points: 2
#     Edge 95, Type (0, 0), BuildingBlock: CIFDUS_clean_linker_0, # of connection points: 2
#     Edge 96, Type (0, 0), BuildingBlock: CIFDUS_clean_linker_0, # of connection points: 2
#     Edge 97, Type (0, 0), BuildingBlock: CIFDUS_clean_linker_0, # of connection points: 2
#     Edge 98, Type (0, 0), BuildingBlock: CIFDUS_clean_linker_0, # of connection points: 2
#     Edge 99, Type (0, 0), BuildingBlock: CIFDUS_clean_linker_0, # of connection points: 2
#     Edge 100, Type (0, 0), BuildingBlock: CIFDUS_clean_linker_0, # of connection points: 2
#     Edge 101, Type (0, 0), BuildingBlock: CIFDUS_clean_linker_0, # of connection points: 2
#     Edge 102, Type (0, 0), BuildingBlock: CIFDUS_clean_linker_0, # of connection points: 2
#     Edge 103, Type (0, 0), BuildingBlock: CIFDUS_clean_linker_0, # of connection points: 2
#     Edge 104, Type (0, 0), BuildingBlock: CIFDUS_clean_linker_0, # of connection points: 2
#     Edge 105, Type (0, 0), BuildingBlock: CIFDUS_clean_linker_0, # of connection points: 2
#     Edge 106, Type (0, 0), BuildingBlock: CIFDUS_clean_linker_0, # of connection points: 2
#     Edge 107, Type (0, 0), BuildingBlock: CIFDUS_clean_linker_0, # of connection points: 2
# Relax obj value: 0.298
# Max RMSD: 0.283
# Mean RMSD: 0.283
data_MOF--net-unu--node1-NAHDIM_clean_sbu_0--edge1-CIFDUS_clean_linker_0
_symmetry_space_group_name_H-M    P1
_symmetry_Int_Tables_number       1
_symmetry_cell_setting            triclinic
loop_
_symmetry_equiv_pos_as_xyz
'x, y, z'
_cell_length_a     34.955574
_cell_length_b     34.82089
_cell_length_c     109.22915
_cell_angle_alpha  89.921921
_cell_angle_beta   89.955463
_cell_angle_gamma 120.01814
loop_
_atom_site_label
_atom_site_type_symbol
_atom_site_fract_x
_atom_site_fract_y
_atom_site_fract_z
_atom_type_partial_charge
C0 C 0.28349 0.98029 0.10889 0.0
O1 O 0.26612 0.95817 0.11907 0.0
O2 O 0.16413 0.93585 0.1112 0.0
Zn3 Zn 0.21497 0.99794 0.11319 0.0
O4 O 0.23013 0.01239 0.13099 0.0
C5 C 0.21139 0.07953 0.10929 0.0
O6 O 0.24866 0.09915 0.11542 0.0
O7 O 0.26708 0.0022 0.10413 0.0
C8 C 0.2694 0.04173 0.13368 0.0
O9 O 0.29857 0.06032 0.12484 0.0
C10 C 0.1505 0.90506 0.11914 0.0
O11 O 0.17063 0.91282 0.12976 0.0
O12 O 0.194 0.03853 0.10675 0.0
C13 C 0.95586 0.2145 0.10709 0.0
O14 O 0.97219 0.21633 0.11804 0.0
O15 O 0.98269 0.11652 0.10718 0.0
Zn16 Zn 0.93064 0.1245 0.11068 0.0
O17 O 0.92594 0.13329 0.12864 0.0
C18 C 0.87877 0.04656 0.0966 0.0
O19 O 0.91227 0.06748 0.08904 0.0
O20 O 0.93574 0.17732 0.10162 0.0
C21 C 0.89118 0.13369 0.1318 0.0
O22 O 0.86161 0.12712 0.12341 0.0
C23 C 0.02363 0.14413 0.10836 0.0
O24 O 0.0364 0.18418 0.11247 0.0
O25 O 0.87716 0.06672 0.10609 0.0
C26 C 0.7444 0.64768 0.09112 0.0
O27 O 0.73544 0.6567 0.10207 0.0
O28 O 0.82742 0.77778 0.09134 0.0
Zn29 Zn 0.8285 0.72296 0.09647 0.0
O30 O 0.81781 0.71311 0.11463 0.0
C31 C 0.91084 0.72244 0.09978 0.0
O32 O 0.88892 0.69275 0.1083 0.0
O33 O 0.78322 0.67108 0.08685 0.0
C34 C 0.84717 0.74002 0.12198 0.0
O35 O 0.88253 0.77481 0.11756 0.0
C36 C 0.80477 0.79283 0.09632 0.0
O37 O 0.77817 0.7709 0.10544 0.0
O38 O 0.89043 0.73608 0.09303 0.0
C39 C 0.05738 0.33463 0.38209 0.0
O40 O 0.04531 0.32394 0.37063 0.0
O41 O 0.02694 0.22148 0.37415 0.0
Zn42 Zn 0.08678 0.27509 0.37734 0.0
O43 O 0.11757 0.30788 0.36195 0.0
C44 C 0.15579 0.25269 0.38227 0.0
O45 O 0.17473 0.27578 0.37235 0.0
O46 O 0.07733 0.31738 0.38751 0.0
C47 C 0.1242 0.29177 0.3523 0.0
O48 O 0.11022 0.24907 0.35175 0.0
C49 C 0.00347 0.21175 0.36454 0.0
O50 O 0.01782 0.23875 0.35509 0.0
O51 O 0.12103 0.25131 0.38633 0.0
C52 C 0.70619 0.78984 0.38629 0.0
O53 O 0.71361 0.77957 0.37532 0.0
O54 O 0.82035 0.86422 0.37625 0.0
Zn55 Zn 0.76716 0.87192 0.37658 0.0
O56 O 0.73726 0.85519 0.36024 0.0
C57 C 0.80859 0.96231 0.37034 0.0
O58 O 0.80477 0.94379 0.3596 0.0
O59 O 0.72556 0.83049 0.3894 0.0
C60 C 0.703 0.85728 0.35761 0.0
O61 O 0.68529 0.87083 0.36594 0.0
C62 C 0.83643 0.859 0.36639 0.0
O63 O 0.81637 0.85604 0.35597 0.0
O64 O 0.79168 0.93739 0.37966 0.0
C65 C 0.24589 0.96139 0.39541 0.0
O66 O 0.26071 0.97099 0.38411 0.0
O67 O 0.193 0.02377 0.38132 0.0
Zn68 Zn 0.1737 0.95936 0.38361 0.0
O69 O 0.18571 0.93584 0.36821 0.0
C70 C 0.08583 0.92297 0.37669 0.0
O71 O 0.10698 0.93863 0.3663 0.0
O72 O 0.20692 0.95329 0.3977 0.0
C73 C 0.16872 0.89431 0.36667 0.0
O74 O 0.14528 0.8672 0.37556 0.0
C75 C 0.18566 0.04372 0.38995 0.0
O76 O 0.16754 0.02199 0.40013 0.0
O77 O 0.10799 0.92724 0.38632 0.0
C78 C 0.68945 0.92478 0.89609 0.0
O79 O 0.69916 0.93854 0.88471 0.0
O80 O 0.81008 0.97351 0.89171 0.0
Zn81 Zn 0.75986 0.91084 0.89103 0.0
O82 O 0.73839 0.89377 0.87375 0.0
C83 C 0.80785 0.86674 0.88904 0.0
O84 O 0.80934 0.88119 0.87784 0.0
O85 O 0.71093 0.90873 0.90131 0.0
C86 C 0.70144 0.85907 0.87181 0.0
O87 O 0.67812 0.8349 0.88116 0.0
C88 C 0.81825 0.0042 0.88407 0.0
O89 O 0.79252 0.99574 0.8745 0.0
O90 O 0.78514 0.87321 0.89703 0.0
C91 C 0.08944 0.77219 0.90284 0.0
O92 O 0.08502 0.76265 0.89111 0.0
O93 O 0.04002 0.83381 0.88768 0.0
Zn94 Zn 0.10213 0.85121 0.89254 0.0
O95 O 0.13435 0.84505 0.87817 0.0
C96 C 0.16896 0.94546 0.89455 0.0
O97 O 0.19634 0.93435 0.88961 0.0
O98 O 0.09903 0.811 0.90613 0.0
C99 C 0.13616 0.86458 0.86819 0.0
O100 O 0.11681 0.88859 0.8675 0.0
C101 C 0.01339 0.83104 0.89604 0.0
O102 O 0.02659 0.83665 0.90749 0.0
O103 O 0.12998 0.91532 0.89729 0.0
C104 C 0.22295 0.30844 0.88775 0.0
O105 O 0.2289 0.30154 0.87626 0.0
O106 O 0.14081 0.17973 0.88493 0.0
Zn107 Zn 0.1384 0.23563 0.88235 0.0
O108 O 0.14632 0.25328 0.86467 0.0
C109 C 0.06053 0.19784 0.89686 0.0
O110 O 0.08701 0.19401 0.90468 0.0
O111 O 0.18514 0.28452 0.89259 0.0
C112 C 0.14174 0.28633 0.86211 0.0
O113 O 0.13262 0.30594 0.87099 0.0
C114 C 0.1745 0.17543 0.88647 0.0
O115 O 0.21425 0.21037 0.88578 0.0
O116 O 0.07675 0.21938 0.88702 0.0
C117 C 0.88281 0.67906 0.59661 0.0
O118 O 0.89511 0.68487 0.60814 0.0
O119 O 0.92781 0.80532 0.60043 0.0
Zn120 Zn 0.8691 0.7497 0.60286 0.0
O121 O 0.85942 0.72948 0.62039 0.0
C122 C 0.798 0.76921 0.60558 0.0
O123 O 0.78927 0.74607 0.61574 0.0
O124 O 0.86765 0.70239 0.59207 0.0
C125 C 0.86984 0.75577 0.62941 0.0
O126 O 0.88896 0.79867 0.62737 0.0
C127 C 0.96695 0.81184 0.60094 0.0
O128 O 0.97357 0.77921 0.60409 0.0
O129 O 0.82571 0.76902 0.59806 0.0
C130 C 0.31635 0.20645 0.59253 0.0
O131 O 0.31702 0.21452 0.6043 0.0
O132 O 0.20424 0.13958 0.60601 0.0
Zn133 Zn 0.25216 0.12527 0.60194 0.0
O134 O 0.28923 0.13542 0.61685 0.0
C135 C 0.18617 0.04498 0.5912 0.0
O136 O 0.17693 0.07316 0.58585 0.0
O137 O 0.29071 0.16722 0.58871 0.0
C138 C 0.27391 0.11199 0.62644 0.0
O139 O 0.23278 0.07926 0.62653 0.0
C140 C 0.19142 0.15859 0.59843 0.0
O141 O 0.21162 0.17184 0.58782 0.0
O142 O 0.22084 0.06008 0.5977 0.0
C143 C 0.79668 0.09719 0.60309 0.0
O144 O 0.78746 0.087 0.61471 0.0
O145 O 0.84328 0.02593 0.61089 0.0
Zn146 Zn 0.86965 0.09208 0.61108 0.0
O147 O 0.86505 0.11276 0.6278 0.0
C148 C 0.95496 0.13942 0.59748 0.0
O149 O 0.9338 0.14596 0.58852 0.0
O150 O 0.83401 0.10493 0.59904 0.0
C151 C 0.87663 0.15326 0.62939 0.0
O152 O 0.89169 0.18063 0.62003 0.0
C153 C 0.81518 0.99892 0.61851 0.0
O154 O 0.80239 0.0141 0.62771 0.0
O155 O 0.93405 0.11902 0.60706 0.0
C156 C 0.97914 0.44722 0.43101 0.0
O157 O 0.98936 0.45228 0.44268 0.0
O158 O 0.84653 0.36376 0.43758 0.0
Zn159 Zn 0.89381 0.42676 0.44023 0.0
O160 O 0.9175 0.43316 0.45728 0.0
C161 C 0.83669 0.45527 0.44754 0.0
O162 O 0.83282 0.42694 0.45609 0.0
O163 O 0.94122 0.4401 0.42774 0.0
C164 C 0.93744 0.47148 0.46206 0.0
O165 O 0.94261 0.50566 0.45561 0.0
C166 C 0.84572 0.33053 0.44266 0.0
O167 O 0.87765 0.33675 0.45018 0.0
O168 O 0.86379 0.46316 0.43881 0.0
C169 C 0.58749 0.57219 0.42726 0.0
O170 O 0.59546 0.58364 0.43884 0.0
O171 O 0.6275 0.51 0.44402 0.0
Zn172 Zn 0.56586 0.4935 0.43903 0.0
O173 O 0.53792 0.50892 0.45281 0.0
C174 C 0.55646 0.40916 0.43349 0.0
O175 O 0.5985 0.43488 0.43089 0.0
O176 O 0.57187 0.53159 0.42444 0.0
C177 C 0.50598 0.48086 0.45931 0.0
O178 O 0.48882 0.43833 0.45705 0.0
C179 C 0.63415 0.4958 0.45405 0.0
O180 O 0.60095 0.47452 0.46168 0.0
O181 O 0.53319 0.42679 0.43611 0.0
C182 C 0.44635 0.0352 0.44111 0.0
O183 O 0.43421 0.03509 0.45251 0.0
O184 O 0.5335 0.15256 0.45312 0.0
Zn185 Zn 0.53092 0.09334 0.45136 0.0
O186 O 0.51621 0.05905 0.46719 0.0
C187 C 0.62096 0.11067 0.45336 0.0
O188 O 0.60818 0.09253 0.46424 0.0
O189 O 0.48711 0.05746 0.43837 0.0
C190 C 0.50687 0.01875 0.46695 0.0
O191 O 0.50589 0.0004 0.45637 0.0
C192 C 0.50842 0.16411 0.4478 0.0
O193 O 0.47415 0.13458 0.44158 0.0
O194 O 0.59254 0.11063 0.44609 0.0
C195 C 0.75592 0.69287 0.7243 0.0
O196 O 0.74255 0.68461 0.71288 0.0
O197 O 0.72186 0.56904 0.72103 0.0
Zn198 Zn 0.77761 0.62741 0.71832 0.0
O199 O 0.78563 0.64663 0.70074 0.0
C200 C 0.85998 0.62599 0.71609 0.0
O201 O 0.86979 0.65583 0.70747 0.0
O202 O 0.77473 0.67305 0.72893 0.0
C203 C 0.78168 0.62098 0.69198 0.0
O204 O 0.76961 0.57942 0.69435 0.0
C205 C 0.68425 0.55294 0.71595 0.0
O206 O 0.67778 0.57586 0.70747 0.0
O207 O 0.82584 0.61439 0.72267 0.0
C208 C 0.38493 0.13071 0.71698 0.0
O209 O 0.39328 0.12215 0.70591 0.0
O210 O 0.50476 0.21151 0.71056 0.0
Zn211 Zn 0.44906 0.21427 0.7087 0.0
O212 O 0.42379 0.19646 0.69187 0.0
C213 C 0.49504 0.29998 0.71944 0.0
O214 O 0.50766 0.27861 0.72683 0.0
O215 O 0.40483 0.1707 0.7207 0.0
C216 C 0.44225 0.21673 0.68204 0.0
O217 O 0.48156 0.25241 0.6825 0.0
C218 C 0.51809 0.19024 0.70408 0.0
O219 O 0.49411 0.16643 0.6948 0.0
O220 O 0.46604 0.27811 0.71137 0.0
C221 C 0.93263 0.32489 0.71658 0.0
O222 O 0.94258 0.33915 0.70525 0.0
O223 O 0.85718 0.37677 0.71227 0.0
Zn224 Zn 0.85153 0.31737 0.7092 0.0
O225 O 0.86392 0.30836 0.69184 0.0
C226 C 0.76793 0.2773 0.72153 0.0
O227 O 0.79082 0.3083 0.72963 0.0
O228 O 0.89366 0.31151 0.72047 0.0
C229 C 0.85681 0.26929 0.69003 0.0
O230 O 0.84317 0.24122 0.69925 0.0
C231 C 0.88798 0.41546 0.7095 0.0
O232 O 0.92198 0.42054 0.70307 0.0
O233 O 0.78796 0.27264 0.71246 0.0
C234 C 0.36265 0.24338 0.21953 0.0
O235 O 0.37254 0.25736 0.20816 0.0
O236 O 0.47656 0.29092 0.21035 0.0
Zn237 Zn 0.43218 0.22808 0.21463 0.0
O238 O 0.4088 0.19692 0.19871 0.0
C239 C 0.4653 0.16833 0.21958 0.0
O240 O 0.43601 0.14342 0.21134 0.0
O241 O 0.38403 0.22729 0.22474 0.0
C242 C 0.37067 0.16362 0.19699 0.0
O243 O 0.3429 0.1471 0.20622 0.0
C244 C 0.50067 0.31894 0.21839 0.0
O245 O 0.49465 0.30724 0.22998 0.0
O246 O 0.46642 0.20362 0.22314 0.0
C247 C 0.77127 0.11217 0.22485 0.0
O248 O 0.77337 0.10739 0.213 0.0
O249 O 0.71013 0.17891 0.21792 0.0
Zn250 Zn 0.77242 0.19126 0.21696 0.0
O251 O 0.78432 0.17956 0.19978 0.0
C252 C 0.81206 0.28168 0.21214 0.0
O253 O 0.79312 0.26346 0.2017 0.0
O254 O 0.77493 0.14814 0.2289 0.0
C255 C 0.82225 0.18709 0.19642 0.0
O256 O 0.85471 0.20289 0.20439 0.0
C257 C 0.67701 0.14262 0.21452 0.0
O258 O 0.68323 0.11167 0.20966 0.0
O259 O 0.8103 0.25652 0.22086 0.0
C260 C 0.86392 0.63533 0.2305 0.0
O261 O 0.82421 0.6089 0.23492 0.0
O262 O 0.8405 0.54521 0.2033 0.0
Zn263 Zn 0.82561 0.59287 0.20719 0.0
O264 O 0.82744 0.62568 0.19174 0.0
C265 C 0.7359 0.53069 0.20712 0.0
O266 O 0.74843 0.52709 0.19604 0.0
O267 O 0.87078 0.6348 0.2191 0.0
C268 C 0.79688 0.63338 0.18859 0.0
O269 O 0.76227 0.6205 0.19571 0.0
C270 C 0.84477 0.52395 0.21218 0.0
O271 O 0.84204 0.53572 0.22342 0.0
O272 O 0.76414 0.55984 0.21427 0.0
C273 C 0.57182 0.00868 0.94213 0.0
O274 O 0.57953 0.01578 0.95392 0.0
O275 O 0.59443 0.12954 0.94616 0.0
Zn276 Zn 0.54056 0.06879 0.94617 0.0
O277 O 0.52312 0.0456 0.96332 0.0
C278 C 0.46541 0.08238 0.9447 0.0
O279 O 0.45766 0.06664 0.95591 0.0
O280 O 0.55377 0.02753 0.9365 0.0
C281 C 0.49191 0.0059 0.96472 0.0
O282 O 0.47177 0.98229 0.95498 0.0
C283 C 0.63478 0.14074 0.94473 0.0
O284 O 0.64614 0.11012 0.94404 0.0
O285 O 0.49505 0.08048 0.9384 0.0
C286 C 0.96901 0.55073 0.94147 0.0
O287 O 0.96051 0.5599 0.95246 0.0
O288 O 0.85065 0.48682 0.94779 0.0
Zn289 Zn 0.89786 0.47006 0.94884 0.0
O290 O 0.92029 0.47725 0.966 0.0
C291 C 0.83516 0.38826 0.93794 0.0
O292 O 0.82245 0.41439 0.93296 0.0
O293 O 0.94667 0.51115 0.93758 0.0
C294 C 0.95462 0.47461 0.96809 0.0
O295 O 0.97466 0.46759 0.95891 0.0
C296 C 0.84101 0.50758 0.95562 0.0
O297 O 0.86349 0.52089 0.96588 0.0
O298 O 0.86995 0.4053 0.94444 0.0
C299 C 0.4492 0.42039 0.92299 0.0
O300 O 0.44366 0.42394 0.93474 0.0
O301 O 0.50544 0.34229 0.92932 0.0
Zn302 Zn 0.51729 0.40439 0.93186 0.0
O303 O 0.4992 0.40988 0.94892 0.0
C304 C 0.60704 0.47306 0.93766 0.0
O305 O 0.58819 0.482 0.94676 0.0
O306 O 0.48099 0.41512 0.9195 0.0
C307 C 0.51048 0.397 0.95843 0.0
O308 O 0.53537 0.37878 0.9573 0.0
C309 C 0.4707 0.30766 0.9329 0.0
O310 O 0.43986 0.31165 0.93866 0.0
O311 O 0.58294 0.44413 0.92979 0.0
C312 C 0.65685 0.7776 0.77571 0.0
O313 O 0.65575 0.76973 0.7875 0.0
O314 O 0.52844 0.71671 0.78045 0.0
Zn315 Zn 0.57868 0.77923 0.78204 0.0
O316 O 0.59898 0.79113 0.79952 0.0
C317 C 0.55387 0.84723 0.78418 0.0
O318 O 0.57595 0.85654 0.7945 0.0
O319 O 0.62781 0.78521 0.77114 0.0
C320 C 0.57258 0.77505 0.80853 0.0
O321 O 0.53005 0.74986 0.80649 0.0
C322 C 0.52611 0.68291 0.78563 0.0
O323 O 0.55871 0.68764 0.79264 0.0
O324 O 0.55374 0.81818 0.7771 0.0
C325 C 0.2875 0.95428 0.7707 0.0
O326 O 0.29534 0.96183 0.78247 0.0
O327 O 0.33174 0.87993 0.78079 0.0
Zn328 Zn 0.27042 0.87037 0.77882 0.0
O329 O 0.24648 0.87892 0.79465 0.0
C330 C 0.19979 0.77753 0.77844 0.0
O331 O 0.18296 0.78908 0.78749 0.0
O332 O 0.2742 0.91538 0.76665 0.0
C333 C 0.24828 0.86197 0.80478 0.0
O334 O 0.26698 0.83732 0.8052 0.0
C335 C 0.36135 0.90449 0.78841 0.0
O336 O 0.3531 0.92754 0.79642 0.0
O337 O 0.23402 0.80719 0.77295 0.0
C338 C 0.10045 0.40174 0.77157 0.0
O339 O 0.09117 0.40549 0.783 0.0
O340 O 0.17414 0.52404 0.7788 0.0
Zn341 Zn 0.18356 0.47164 0.77927 0.0
O342 O 0.17348 0.44678 0.79633 0.0
C343 C 0.27609 0.49524 0.78094 0.0
O344 O 0.26413 0.47457 0.79151 0.0
O345 O 0.13978 0.42613 0.76772 0.0
C346 C 0.16969 0.40906 0.79828 0.0
O347 O 0.17289 0.38675 0.78902 0.0
C348 C 0.14745 0.52935 0.78551 0.0
O349 O 0.12334 0.49884 0.79364 0.0
O350 O 0.24688 0.49538 0.77403 0.0
C351 C 0.42858 0.94036 0.06125 0.0
O352 O 0.43031 0.9495 0.04953 0.0
O353 O 0.35135 0.81392 0.05409 0.0
Zn354 Zn 0.41605 0.85784 0.05209 0.0
O355 O 0.42769 0.88359 0.03504 0.0
C356 C 0.45906 0.80824 0.04631 0.0
O357 O 0.45136 0.8166 0.03515 0.0
O358 O 0.42781 0.9049 0.06452 0.0
C359 C 0.40377 0.86266 0.02592 0.0
O360 O 0.37074 0.82205 0.02745 0.0
C361 C 0.32139 0.82303 0.05139 0.0
O362 O 0.33239 0.8618 0.04657 0.0
O363 O 0.44908 0.82478 0.0553 0.0
C364 C 0.00611 0.41657 0.06343 0.0
O365 O 0.00547 0.41465 0.05142 0.0
O366 O 0.12961 0.50491 0.05773 0.0
Zn367 Zn 0.07261 0.5055 0.0582 0.0
O368 O 0.04903 0.50019 0.04116 0.0
C369 C 0.09876 0.59792 0.05853 0.0
O370 O 0.08312 0.58951 0.04733 0.0
O371 O 0.0308 0.45359 0.06863 0.0
C372 C 0.01225 0.49825 0.03927 0.0
O373 O 0.98957 0.49998 0.04865 0.0
C374 C 0.13571 0.4724 0.05582 0.0
O375 O 0.10201 0.43338 0.05305 0.0
O376 O 0.09164 0.56563 0.06547 0.0
C377 C 0.5249 0.50969 0.05314 0.0
O378 O 0.5351 0.5153 0.04144 0.0
O379 O 0.46231 0.56098 0.03927 0.0
Zn380 Zn 0.44594 0.49761 0.04293 0.0
O381 O 0.45396 0.47095 0.02758 0.0
C382 C 0.36883 0.48364 0.05537 0.0
O383 O 0.3987 0.51882 0.06123 0.0
O384 O 0.48572 0.49856 0.05631 0.0
C385 C 0.43416 0.47273 0.01804 0.0
O386 O 0.40889 0.49064 0.0188 0.0
C387 C 0.48074 0.59208 0.04707 0.0
O388 O 0.4918 0.58369 0.05782 0.0
O389 O 0.38152 0.46548 0.04753 0.0
C390 C 0.00974 0.58433 0.55909 0.0
O391 O 0.0012 0.58338 0.54735 0.0
O392 O 0.14067 0.65693 0.54971 0.0
Zn393 Zn 0.0906 0.59387 0.5497 0.0
O394 O 0.06444 0.58288 0.53294 0.0
C395 C 0.14439 0.55987 0.55993 0.0
O396 O 0.15693 0.59297 0.56762 0.0
O397 O 0.04571 0.58668 0.56242 0.0
C398 C 0.04352 0.54411 0.52847 0.0
O399 O 0.03851 0.5103 0.53507 0.0
C400 C 0.15522 0.68176 0.55908 0.0
O401 O 0.13716 0.66629 0.56983 0.0
O402 O 0.11489 0.55284 0.55206 0.0
C403 C 0.41357 0.4339 0.55676 0.0
O404 O 0.39701 0.42562 0.54566 0.0
O405 O 0.3707 0.51981 0.55582 0.0
Zn406 Zn 0.4245 0.51784 0.55042 0.0
O407 O 0.41924 0.4995 0.53281 0.0
C408 C 0.47372 0.60344 0.5609 0.0
O409 O 0.44555 0.5827 0.56983 0.0
O410 O 0.42988 0.47306 0.56098 0.0
C411 C 0.43301 0.52672 0.52393 0.0
O412 O 0.44976 0.56924 0.52613 0.0
C413 C 0.33127 0.49624 0.55207 0.0
O414 O 0.32221 0.46585 0.54369 0.0
O415 O 0.47472 0.58083 0.55191 0.0
C416 C 0.57052 0.98596 0.56776 0.0
O417 O 0.57717 0.97984 0.55626 0.0
O418 O 0.49299 0.86168 0.56274 0.0
Zn419 Zn 0.48644 0.91581 0.56137 0.0
O420 O 0.49549 0.94089 0.54429 0.0
C421 C 0.39448 0.89217 0.55991 0.0
O422 O 0.40612 0.91018 0.54899 0.0
O423 O 0.53213 0.96243 0.57231 0.0
C424 C 0.48535 0.91976 0.53425 0.0
O425 O 0.4672 0.87638 0.53437 0.0
C426 C 0.51713 0.84949 0.55722 0.0
O427 O 0.54392 0.87433 0.54847 0.0
O428 O 0.42408 0.89459 0.56714 0.0
C429 C 0.23785 0.34917 0.25304 0.0
O430 O 0.227 0.33469 0.26432 0.0
O431 O 0.31253 0.48309 0.2627 0.0
Zn432 Zn 0.25108 0.43036 0.26373 0.0
O433 O 0.23936 0.39989 0.2801 0.0
C434 C 0.17565 0.44377 0.26768 0.0
O435 O 0.16147 0.41004 0.27526 0.0
O436 O 0.24624 0.38823 0.25043 0.0
C437 C 0.23904 0.41769 0.2902 0.0
O438 O 0.24901 0.45943 0.29033 0.0
C439 C 0.34517 0.49306 0.26971 0.0
O440 O 0.34062 0.46705 0.27899 0.0
O441 O 0.2103 0.45503 0.26137 0.0
C442 C 0.61534 0.91057 0.26764 0.0
O443 O 0.59586 0.91162 0.27782 0.0
O444 O 0.4929 0.81919 0.26577 0.0
Zn445 Zn 0.54954 0.82143 0.27032 0.0
O446 O 0.559 0.82705 0.28847 0.0
C447 C 0.51965 0.74333 0.25589 0.0
O448 O 0.51242 0.76739 0.24795 0.0
O449 O 0.60127 0.87364 0.26219 0.0
C450 C 0.59061 0.82176 0.29204 0.0
O451 O 0.61257 0.81272 0.28386 0.0
C452 C 0.47464 0.83822 0.27111 0.0
O453 O 0.49442 0.86428 0.28048 0.0
O454 O 0.54049 0.76161 0.26566 0.0
C455 C 0.09485 0.73643 0.26383 0.0
O456 O 0.13495 0.75773 0.25923 0.0
O457 O 0.13008 0.65508 0.28159 0.0
Zn458 Zn 0.13537 0.71471 0.28407 0.0
O459 O 0.12886 0.72647 0.30171 0.0
C460 C 0.21851 0.7536 0.27093 0.0
O461 O 0.19809 0.71713 0.2644 0.0
O462 O 0.08853 0.71736 0.27416 0.0
C463 C 0.14318 0.76723 0.30394 0.0
O464 O 0.15805 0.79567 0.29481 0.0
C465 C 0.10782 0.62019 0.28794 0.0
O466 O 0.08505 0.62109 0.29739 0.0
O467 O 0.1972 0.76061 0.2792 0.0
H468 H 0.349 0.1057 0.14178 0.0
H469 H 0.21704 0.01255 0.15416 0.0
H470 H 0.23691 0.0414 0.175 0.0
H471 H 0.29139 0.09482 0.18954 0.0
H472 H 0.42282 0.18817 0.1767 0.0
H473 H 0.40333 0.15739 0.1562 0.0
C474 C 0.32455 0.09149 0.14903 0.0
C475 C 0.2816 0.05715 0.14641 0.0
C476 C 0.33603 0.1084 0.1609 0.0
C477 C 0.25038 0.0391 0.15593 0.0
C478 C 0.26168 0.05562 0.16784 0.0
C479 C 0.31577 0.10833 0.18226 0.0
C480 C 0.3584 0.14386 0.18466 0.0
C481 C 0.30434 0.09056 0.17041 0.0
C482 C 0.38966 0.16095 0.17512 0.0
C483 C 0.37861 0.14336 0.16337 0.0
H484 H 0.89432 0.18649 0.1872 0.0
H485 H 0.76474 0.16304 0.17734 0.0
H486 H 0.77459 0.14393 0.15658 0.0
H487 H 0.8197 0.13396 0.14124 0.0
H488 H 0.94902 0.15647 0.15094 0.0
H489 H 0.93939 0.17564 0.17179 0.0
C490 C 0.8683 0.17732 0.1805 0.0
C491 C 0.82892 0.17629 0.18382 0.0
C492 C 0.87402 0.16604 0.16858 0.0
C493 C 0.7954 0.16408 0.17504 0.0
C494 C 0.80096 0.15312 0.16316 0.0
C495 C 0.8458 0.14297 0.1479 0.0
C496 C 0.88501 0.14381 0.14454 0.0
C497 C 0.84008 0.15395 0.15984 0.0
C498 C 0.91844 0.15547 0.15331 0.0
C499 C 0.91302 0.16654 0.16522 0.0
H500 H 0.87007 0.69067 0.17586 0.0
H501 H 0.7277 0.6211 0.17442 0.0
H502 H 0.73048 0.64933 0.15373 0.0
H503 H 0.7736 0.69043 0.13561 0.0
H504 H 0.91595 0.76327 0.13753 0.0
H505 H 0.91303 0.73752 0.15851 0.0
C506 C 0.83971 0.68195 0.17102 0.0
C507 C 0.79877 0.65354 0.17656 0.0
C508 C 0.84157 0.69887 0.15923 0.0
C509 C 0.75961 0.64297 0.17031 0.0
C510 C 0.76118 0.65896 0.15848 0.0
C511 C 0.8039 0.70094 0.14069 0.0
C512 C 0.84488 0.72842 0.13504 0.0
C513 C 0.80197 0.68643 0.15279 0.0
C514 C 0.88397 0.74227 0.14172 0.0
C515 C 0.88235 0.72736 0.15368 0.0
H516 H 0.15076 0.27085 0.33112 0.0
H517 H 0.15125 0.37975 0.35014 0.0
H518 H 0.18921 0.42891 0.33294 0.0
H519 H 0.21989 0.44056 0.3122 0.0
H520 H 0.2189 0.33167 0.29305 0.0
H521 H 0.184 0.28326 0.31064 0.0
C522 C 0.15921 0.30534 0.33151 0.0
C523 C 0.14793 0.32144 0.34188 0.0
C524 C 0.18111 0.33358 0.32157 0.0
C525 C 0.15942 0.36635 0.34226 0.0
C526 C 0.18118 0.39459 0.33243 0.0
C527 C 0.21246 0.40637 0.31191 0.0
C528 C 0.22187 0.3898 0.30131 0.0
C529 C 0.19192 0.3785 0.322 0.0
C530 C 0.2119 0.34533 0.30109 0.0
C531 C 0.19182 0.31752 0.31113 0.0
H532 H 0.63368 0.86291 0.34821 0.0
H533 H 0.73161 0.82671 0.33884 0.0
H534 H 0.70434 0.81124 0.31792 0.0
H535 H 0.65467 0.81015 0.30212 0.0
H536 H 0.55685 0.84675 0.31109 0.0
H537 H 0.58203 0.85966 0.33236 0.0
C538 C 0.6489 0.85145 0.34161 0.0
C539 C 0.68475 0.8462 0.34509 0.0
C540 C 0.63319 0.84274 0.32952 0.0
C541 C 0.70407 0.83123 0.33642 0.0
C542 C 0.68853 0.82235 0.32443 0.0
C543 C 0.63869 0.82082 0.30872 0.0
C544 C 0.60409 0.82766 0.30502 0.0
C545 C 0.65342 0.82836 0.32086 0.0
C546 C 0.58364 0.84129 0.31371 0.0
C547 C 0.59805 0.84874 0.32586 0.0
H548 H 0.1306 0.80783 0.35965 0.0
H549 H 0.21216 0.94186 0.3464 0.0
H550 H 0.2115 0.91401 0.32592 0.0
H551 H 0.18579 0.85227 0.31163 0.0
H552 H 0.10474 0.71792 0.32459 0.0
H553 H 0.10716 0.74535 0.34536 0.0
C554 C 0.14851 0.83093 0.3523 0.0
C555 C 0.1712 0.87687 0.35455 0.0
C556 C 0.14783 0.81471 0.34049 0.0
C557 C 0.19431 0.90634 0.34493 0.0
C558 C 0.19388 0.89047 0.33319 0.0
C559 C 0.16856 0.82889 0.31898 0.0
C560 C 0.1448 0.78316 0.31656 0.0
C561 C 0.17032 0.84482 0.33085 0.0
C562 C 0.12314 0.75333 0.32622 0.0
C563 C 0.12453 0.76899 0.33809 0.0
H564 H 0.65619 0.83371 0.81558 0.0
H565 H 0.52766 0.73894 0.82984 0.0
H566 H 0.55656 0.75577 0.8507 0.0
H567 H 0.61819 0.79798 0.86487 0.0
H568 H 0.74605 0.89403 0.85049 0.0
H569 H 0.71744 0.87593 0.82966 0.0
C570 C 0.63445 0.81663 0.82324 0.0
C571 C 0.58985 0.7851 0.82116 0.0
C572 C 0.65116 0.82667 0.83518 0.0
C573 C 0.56212 0.76344 0.83119 0.0
C574 C 0.57863 0.77299 0.84312 0.0
C575 C 0.63985 0.8148 0.85717 0.0
C576 C 0.68418 0.84723 0.85922 0.0
C577 C 0.62307 0.8046 0.84522 0.0
C578 C 0.71175 0.86898 0.84916 0.0
C579 C 0.69544 0.85866 0.83725 0.0
H580 H 0.14743 0.90328 0.84588 0.0
H581 H 0.17805 0.81629 0.86654 0.0
H582 H 0.21635 0.80859 0.84884 0.0
H583 H 0.24016 0.82563 0.82739 0.0
H584 H 0.20903 0.91242 0.8068 0.0
H585 H 0.17207 0.92113 0.8246 0.0
C586 C 0.1625 0.88266 0.84653 0.0
C587 C 0.15977 0.86035 0.85751 0.0
C588 C 0.18442 0.87831 0.83633 0.0
C589 C 0.1796 0.83382 0.85819 0.0
C590 C 0.20153 0.82938 0.84807 0.0
C591 C 0.22545 0.84658 0.82681 0.0
C592 C 0.22732 0.86824 0.81577 0.0
C593 C 0.20402 0.85136 0.83708 0.0
C594 C 0.20803 0.89525 0.81517 0.0
C595 C 0.18683 0.90028 0.82535 0.0
H596 H 0.13991 0.35924 0.85428 0.0
H597 H 0.15606 0.25095 0.84146 0.0
H598 H 0.16547 0.27905 0.82052 0.0
H599 H 0.16965 0.33469 0.80591 0.0
H600 H 0.15452 0.44344 0.8189 0.0
H601 H 0.14411 0.41468 0.83974 0.0
C602 C 0.14541 0.34169 0.84691 0.0
C603 C 0.14725 0.30306 0.84943 0.0
C604 C 0.151 0.3581 0.83493 0.0
C605 C 0.15454 0.28082 0.83977 0.0
C606 C 0.1599 0.29684 0.8278 0.0
C607 C 0.16397 0.35205 0.81329 0.0
C608 C 0.16287 0.39114 0.81085 0.0
C609 C 0.15826 0.33549 0.82528 0.0
C610 C 0.15562 0.41332 0.82053 0.0
C611 C 0.14964 0.3969 0.83246 0.0
H612 H 0.82106 0.70734 0.68503 0.0
H613 H 0.77158 0.57517 0.6708 0.0
H614 H 0.79525 0.60546 0.65022 0.0
H615 H 0.83018 0.66932 0.63634 0.0
H616 H 0.88045 0.80155 0.65063 0.0
H617 H 0.8565 0.77122 0.67119 0.0
C618 C 0.81521 0.68507 0.67743 0.0
C619 C 0.79442 0.63902 0.67945 0.0
C620 C 0.82929 0.70271 0.66566 0.0
C621 C 0.78745 0.61073 0.6695 0.0
C622 C 0.80104 0.62802 0.65773 0.0
C623 C 0.83603 0.69159 0.64395 0.0
C624 C 0.85708 0.73767 0.64194 0.0
C625 C 0.8221 0.67395 0.65572 0.0
C626 C 0.86441 0.76598 0.65191 0.0
C627 C 0.85061 0.74866 0.66367 0.0
H628 H 0.36212 0.1437 0.67844 0.0
H629 H 0.46833 0.25445 0.65933 0.0
H630 H 0.42621 0.23039 0.64028 0.0
H631 H 0.35801 0.17995 0.62933 0.0
H632 H 0.2515 0.07002 0.64862 0.0
H633 H 0.29528 0.09181 0.66737 0.0
C634 C 0.37623 0.16257 0.67011 0.0
C635 C 0.41821 0.20103 0.67033 0.0
C636 C 0.35178 0.14878 0.65924 0.0
C637 C 0.43604 0.22483 0.65942 0.0
C638 C 0.41196 0.21112 0.64853 0.0
C639 C 0.34441 0.16055 0.63761 0.0
C640 C 0.30142 0.12352 0.63759 0.0
C641 C 0.3696 0.17346 0.64838 0.0
C642 C 0.28441 0.09874 0.64839 0.0
C643 C 0.30941 0.1112 0.65912 0.0
H644 H 0.84285 0.18823 0.68376 0.0
H645 H 0.88627 0.31879 0.66901 0.0
H646 H 0.89694 0.29453 0.64893 0.0
H647 H 0.89316 0.23589 0.63557 0.0
H648 H 0.84902 0.1054 0.65054 0.0
H649 H 0.8395 0.13019 0.67057 0.0
C650 C 0.8547 0.21149 0.67617 0.0
C651 C 0.8637 0.25522 0.67787 0.0
C652 C 0.86064 0.19735 0.6647 0.0
C653 C 0.87904 0.28489 0.66793 0.0
C654 C 0.88515 0.27105 0.65645 0.0
C655 C 0.88157 0.21291 0.64322 0.0
C656 C 0.87182 0.16887 0.64155 0.0
C657 C 0.87596 0.22731 0.65473 0.0
C658 C 0.85675 0.13948 0.65156 0.0
C659 C 0.85127 0.1536 0.66303 0.0
H660 H 0.00052 0.46675 0.51581 0.0
H661 H 0.04594 0.60686 0.51303 0.0
H662 H 0.01705 0.59659 0.49227 0.0
H663 H 0.97942 0.54818 0.47488 0.0
H664 H 0.93393 0.40808 0.47753 0.0
H665 H 0.96241 0.41812 0.49838 0.0
C666 C 0.00404 0.49503 0.51067 0.0
C667 C 0.02539 0.53747 0.51596 0.0
C668 C 0.98743 0.48896 0.49872 0.0
C669 C 0.0297 0.57379 0.50918 0.0
C670 C 0.0132 0.56799 0.4973 0.0
C671 C 0.97573 0.51981 0.48001 0.0
C672 C 0.95466 0.4775 0.47466 0.0
C673 C 0.99212 0.52577 0.49197 0.0
C674 C 0.95007 0.44107 0.48144 0.0
C675 C 0.96632 0.44675 0.49336 0.0
H676 H 0.47701 0.5768 0.50414 0.0
H677 H 0.39559 0.44111 0.51606 0.0
H678 H 0.40812 0.41477 0.49661 0.0
H679 H 0.44747 0.43032 0.47701 0.0
H680 H 0.5311 0.56614 0.46547 0.0
H681 H 0.51218 0.59224 0.48394 0.0
C682 C 0.46148 0.54146 0.50243 0.0
C683 C 0.43576 0.51102 0.51158 0.0
C684 C 0.46953 0.52651 0.49133 0.0
C685 C 0.41586 0.4653 0.5092 0.0
C686 C 0.42306 0.45017 0.49809 0.0
C687 C 0.46119 0.46561 0.47847 0.0
C688 C 0.491 0.49619 0.46993 0.0
C689 C 0.45071 0.48049 0.48921 0.0
C690 C 0.50837 0.54183 0.47195 0.0
C691 C 0.49758 0.55685 0.48252 0.0
H692 H 0.5209 0.05064 0.49016 0.0
H693 H 0.47646 0.93003 0.46954 0.0
H694 H 0.46589 0.88858 0.48851 0.0
H695 H 0.46971 0.88672 0.51099 0.0
H696 H 0.5157 0.00813 0.5314 0.0
H697 H 0.52529 0.04897 0.51248 0.0
C698 C 0.5087 0.01525 0.48981 0.0
C699 C 0.49937 0.99348 0.47845 0.0
C700 C 0.50312 0.99171 0.50072 0.0
C701 C 0.48392 0.94764 0.47816 0.0
C702 C 0.47788 0.92389 0.48901 0.0
C703 C 0.48186 0.9221 0.5113 0.0
C704 C 0.4919 0.94421 0.52262 0.0
C705 C 0.48749 0.9456 0.50034 0.0
C706 C 0.50772 0.99016 0.52283 0.0
C707 C 0.51318 0.01363 0.51201 0.0
H708 H 0.46616 0.94698 0.02008 0.0
H709 H 0.36391 0.82504 0.00423 0.0
H710 H 0.38161 0.859 0.98392 0.0
H711 H 0.42698 0.92276 0.97065 0.0
H712 H 0.52916 0.04466 0.98654 0.0
H713 H 0.51043 0.01116 0.00689 0.0
C714 C 0.4477 0.92779 0.01219 0.0
C715 C 0.41391 0.88348 0.01367 0.0
C716 C 0.45801 0.94748 0.00056 0.0
C717 C 0.39015 0.8592 0.00335 0.0
C718 C 0.40025 0.87857 0.99173 0.0
C719 C 0.44509 0.94207 0.97856 0.0
C720 C 0.47949 0.98609 0.97707 0.0
C721 C 0.43424 0.92261 0.99023 0.0
C722 C 0.50255 0.01068 0.98743 0.0
C723 C 0.49191 0.99155 -0.00093 0.0
H724 H 0.91786 0.48407 0.98896 0.0
H725 H 0.02936 0.47507 0.97554 0.0
H726 H 0.05703 0.48183 -0.00361 0.0
H727 H 0.0494 0.48988 0.01837 0.0
H728 H 0.93757 0.49815 0.03185 0.0
H729 H 0.91018 0.49202 0.01098 0.0
C730 C 0.94826 0.48364 0.99058 0.0
C731 C 0.97151 0.47907 0.9807 0.0
C732 C 0.96388 0.48735 0.00259 0.0
C733 C 0.01078 0.4785 0.98297 0.0
C734 C 0.02665 0.48237 0.99489 0.0
C735 C 0.01903 0.49039 0.01676 0.0
C736 C 0.99557 0.49448 0.02666 0.0
C737 C 0.00342 0.48673 0.00476 0.0
C738 C 0.95625 0.49498 0.0244 0.0
C739 C 0.94057 0.49151 0.01247 0.0
H740 H 0.45463 0.42764 0.96349 0.0
H741 H 0.53817 0.3851 0.98083 0.0
H742 H 0.5206 0.40328 0.0009 0.0
H743 H 0.48395 0.43422 0.0134 0.0
H744 H 0.40068 0.47679 0.99586 0.0
H745 H 0.41572 0.45545 0.97597 0.0
C746 C 0.46892 0.42216 0.97165 0.0
C747 C 0.49791 0.40531 0.97065 0.0
C748 C 0.45883 0.4328 0.98312 0.0
C749 C 0.51581 0.3981 0.98134 0.0
C750 C 0.50585 0.40857 0.99282 0.0
C751 C 0.4689 0.43862 0.00524 0.0
C752 C 0.44143 0.45732 0.00612 0.0
C753 C 0.47778 0.4264 0.9938 0.0
C754 C 0.42206 0.46261 0.99545 0.0
C755 C 0.43066 0.45046 0.98406 0.0
H756 H 0.32675 0.02113 0.08783 0.0
H757 H 0.32026 0.93101 0.11604 0.0
H758 H 0.37143 0.91651 0.10457 0.0
H759 H 0.4098 0.92164 0.08541 0.0
H760 H 0.41454 0.00965 0.05681 0.0
H761 H 0.37343 0.03364 0.06971 0.0
C762 C 0.33698 0.99875 0.09154 0.0
C763 C 0.31898 0.97651 0.10265 0.0
C764 C 0.36612 0.99012 0.08483 0.0
C765 C 0.33309 0.94813 0.10742 0.0
C766 C 0.36241 0.93979 0.10087 0.0
C767 C 0.40271 0.94679 0.08207 0.0
C768 C 0.41446 0.96311 0.07006 0.0
C769 C 0.37797 0.95948 0.08939 0.0
C770 C 0.40548 0.99611 0.06597 0.0
C771 C 0.38166 0.00965 0.07331 0.0
H772 H 0.01653 0.40673 0.08766 0.0
H773 H 0.94973 0.33285 0.05524 0.0
H774 H 0.92553 0.26326 0.06618 0.0
H775 H 0.92943 0.22363 0.08434 0.0
H776 H -0.0018 0.29805 0.11651 0.0
H777 H 0.01539 0.36703 0.10627 0.0
C778 C 0.99606 0.37543 0.08304 0.0
C779 C 0.98535 0.37502 0.07062 0.0
C780 C 0.98306 0.33556 0.08929 0.0
C781 C 0.95874 0.33413 0.06478 0.0
C782 C 0.94501 0.29428 0.07101 0.0
C783 C 0.94787 0.2549 0.08914 0.0
C784 C 0.96297 0.25566 0.10111 0.0
C785 C 0.95803 0.29462 0.08316 0.0
C786 C 0.98651 0.29646 0.10724 0.0
C787 C 0.99636 0.33601 0.10141 0.0
H788 H 0.61176 0.53883 0.04915 0.0
H789 H 0.51762 0.51445 0.07797 0.0
H790 H 0.57781 0.55113 0.09267 0.0
H791 H 0.65714 0.59774 0.09676 0.0
H792 H 0.75106 0.6243 0.06769 0.0
H793 H 0.69087 0.57879 0.05371 0.0
C794 C 0.60429 0.54091 0.05868 0.0
C795 C 0.56029 0.52448 0.06241 0.0
C796 C 0.63905 0.56284 0.06703 0.0
C797 C 0.55122 0.52706 0.07483 0.0
C798 C 0.58564 0.54823 0.08324 0.0
C799 C 0.66452 0.5931 0.08741 0.0
C800 C 0.70851 0.61497 0.08323 0.0
C801 C 0.62971 0.56747 0.07935 0.0
C802 C 0.71748 0.60823 0.07112 0.0
C803 C 0.68306 0.58226 0.0631 0.0
H804 H 0.9647 0.42957 0.40667 0.0
H805 H 0.0546 0.4449 0.43584 0.0
H806 H 0.0895 0.41443 0.42279 0.0
H807 H 0.08799 0.37455 0.4041 0.0
H808 H 0.99769 0.3588 0.37503 0.0
H809 H 0.96959 0.39838 0.38705 0.0
C810 C 0.99247 0.42704 0.41011 0.0
C811 C 0.0064 0.43868 0.42229 0.0
C812 C 0.01189 0.40874 0.40265 0.0
C813 C 0.04284 0.43576 0.42654 0.0
C814 C 0.0627 0.41807 0.41911 0.0
C815 C 0.06247 0.38018 0.40036 0.0
C816 C 0.04438 0.36307 0.3888 0.0
C817 C 0.04637 0.4029 0.40732 0.0
C818 C 0.01191 0.37129 0.38396 0.0
C819 C 0.99576 0.39389 0.39083 0.0
H820 H 0.61825 0.65984 0.43082 0.0
H821 H 0.58798 0.56285 0.40236 0.0
H822 H 0.61907 0.62195 0.38702 0.0
H823 H 0.66027 0.70126 0.38198 0.0
H824 H 0.69199 0.79822 0.41055 0.0
H825 H 0.65448 0.73877 0.42557 0.0
C826 C 0.61806 0.6515 0.42125 0.0
C827 C 0.60126 0.607 0.41776 0.0
C828 C 0.63645 0.68563 0.41251 0.0
C829 C 0.60087 0.59682 0.4053 0.0
C830 C 0.61878 0.63061 0.39653 0.0
C831 C 0.65869 0.70947 0.39148 0.0
C832 C 0.67937 0.75417 0.39516 0.0
C833 C 0.63753 0.67517 0.40008 0.0
C834 C 0.67658 0.76413 0.40747 0.0
C835 C 0.65522 0.73015 0.41607 0.0
H836 H 0.35724 0.99619 0.44347 0.0
H837 H 0.46045 0.02947 0.41677 0.0
H838 H 0.40628 0.00522 0.4003 0.0
H839 H 0.33119 0.98147 0.39339 0.0
H840 H 0.22824 0.95064 0.41998 0.0
H841 H 0.28079 0.96661 0.43659 0.0
C842 C 0.36784 0.99762 0.43406 0.0
C843 C 0.41288 0.01512 0.43135 0.0
C844 C 0.33665 0.98435 0.42461 0.0
C845 C 0.42602 0.0165 0.41911 0.0
C846 C 0.39508 0.00271 0.40968 0.0
C847 C 0.32006 0.97775 0.40282 0.0
C848 C 0.276 0.96543 0.40544 0.0
C849 C 0.35054 0.98768 0.4123 0.0
C850 C 0.26207 0.96039 0.4177 0.0
C851 C 0.29212 0.96962 0.42721 0.0
H852 H 0.6755 0.91929 0.92074 0.0
H853 H 0.63328 0.95014 0.88683 0.0
H854 H 0.5895 0.97499 0.89812 0.0
H855 H 0.56929 0.99502 0.91757 0.0
H856 H 0.61318 0.96636 0.95152 0.0
H857 H 0.64975 0.93328 0.94027 0.0
C858 C 0.65616 0.93078 0.91582 0.0
C859 C 0.6581 0.93335 0.90298 0.0
C860 C 0.63162 0.94583 0.92238 0.0
C861 C 0.63277 0.94825 0.89673 0.0
C862 C 0.60773 0.96255 0.90317 0.0
C863 C 0.58637 0.98105 0.92252 0.0
C864 C 0.58895 0.98371 0.93535 0.0
C865 C 0.6079 0.96264 0.916 0.0
C866 C 0.611 0.96516 0.94163 0.0
C867 C 0.632 0.94625 0.9352 0.0
H868 H 0.01651 0.63833 0.94685 0.0
H869 H 0.98811 0.54503 0.91747 0.0
H870 H 0.02776 0.60627 0.90309 0.0
H871 H 0.06279 0.68569 0.8985 0.0
H872 H 0.08828 0.77872 0.92777 0.0
H873 H 0.05778 0.71803 0.94259 0.0
C874 C 0.01946 0.63131 0.93733 0.0
C875 C -0.00119 0.58717 0.9332 0.0
C876 C 0.04146 0.66661 0.92908 0.0
C877 C 0.00339 0.5787 0.92087 0.0
C878 C 0.02593 0.61371 0.91263 0.0
C879 C 0.06222 0.69282 0.90814 0.0
C880 C 0.0772 0.73661 0.912 0.0
C881 C 0.04388 0.65772 0.91658 0.0
C882 C 0.07663 0.74528 0.92454 0.0
C883 C 0.05908 0.71058 0.93302 0.0
H884 H 0.3663 0.40287 0.92845 0.0
H885 H 0.45192 0.41883 0.898 0.0
H886 H 0.38919 0.39086 0.88402 0.0
H887 H 0.30915 0.35246 0.88097 0.0
H888 H 0.22291 0.33149 0.91168 0.0
H889 H 0.28695 0.37133 0.92502 0.0
C890 C 0.37147 0.40113 0.91872 0.0
C891 C 0.41362 0.41237 0.91429 0.0
C892 C 0.33505 0.38358 0.91081 0.0
C893 C 0.41971 0.40997 0.90166 0.0
C894 C 0.38384 0.39383 0.89366 0.0
C895 C 0.3043 0.35718 0.89054 0.0
C896 C 0.2613 0.33845 0.89536 0.0
C897 C 0.34116 0.37899 0.89822 0.0
C898 C 0.25566 0.34516 0.90776 0.0
C899 C 0.29226 0.36787 0.9154 0.0
H900 H 0.93116 0.64049 0.60251 0.0
H901 H 0.85985 0.65713 0.57264 0.0
H902 H 0.88854 0.62298 0.55861 0.0
H903 H 0.94099 0.5975 0.55441 0.0
H904 H 0.0162 0.58572 0.58405 0.0
H905 H 0.97829 0.60837 0.59864 0.0
C906 C 0.92126 0.636 0.59297 0.0
C907 C 0.89388 0.65187 0.58859 0.0
C908 C 0.93887 0.61758 0.5849 0.0
C909 C 0.88124 0.64559 0.57622 0.0
C910 C 0.89771 0.62617 0.56819 0.0
C911 C 0.94863 0.59915 0.56408 0.0
C912 C 0.98181 0.59053 0.56812 0.0
C913 C 0.92769 0.61344 0.57236 0.0
C914 C 0.99109 0.59261 0.58069 0.0
C915 C 0.96951 0.60567 0.58903 0.0
H916 H 0.3712 0.29289 0.59816 0.0
H917 H 0.31398 0.2041 0.56747 0.0
H918 H 0.3439 0.26741 0.55348 0.0
H919 H 0.37894 0.34765 0.55029 0.0
H920 H 0.43343 0.4364 0.5811 0.0
H921 H 0.41229 0.37319 0.59472 0.0
C922 C 0.36569 0.28727 0.58839 0.0
C923 C 0.33985 0.24383 0.58388 0.0
C924 C 0.38222 0.32379 0.58045 0.0
C925 C 0.33348 0.23719 0.57119 0.0
C926 C 0.35045 0.27338 0.56319 0.0
C927 C 0.38672 0.3533 0.55996 0.0
C928 C 0.40717 0.39668 0.5647 0.0
C929 C 0.37373 0.31681 0.56777 0.0
C930 C 0.41745 0.40336 0.57723 0.0
C931 C 0.40523 0.36721 0.58503 0.0
H932 H 0.7127 0.07448 0.609 0.0
H933 H 0.79987 0.10298 0.57805 0.0
H934 H 0.73697 0.07586 0.56413 0.0
H935 H 0.65673 0.03462 0.56107 0.0
H936 H 0.56956 0.00254 0.59218 0.0
H937 H 0.63317 0.0409 0.60573 0.0
C938 C 0.71814 0.0755 0.5992 0.0
C939 C 0.76083 0.09 0.59458 0.0
C940 C 0.68176 0.05869 0.59129 0.0
C941 C 0.7673 0.09162 0.58185 0.0
C942 C 0.73131 0.07589 0.57389 0.0
C943 C 0.65157 0.03654 0.57079 0.0
C944 C 0.60845 0.01506 0.57563 0.0
C945 C 0.68827 0.0578 0.57855 0.0
C946 C 0.60239 0.01834 0.58823 0.0
C947 C 0.63876 0.04021 0.59599 0.0
H948 H 0.76972 0.70887 0.74877 0.0
H949 H 0.71288 0.73634 0.71721 0.0
H950 H 0.68129 0.76998 0.73031 0.0
H951 H 0.66256 0.7836 0.75086 0.0
H952 H 0.71778 0.75445 0.78248 0.0
H953 H 0.75765 0.73012 0.7692 0.0
C954 C 0.751 0.72282 0.74473 0.0
C955 C 0.74311 0.71942 0.73205 0.0
C956 C 0.7323 0.74156 0.75234 0.0
C957 C 0.71909 0.73804 0.72697 0.0
C958 C 0.70089 0.75724 0.73445 0.0
C959 C 0.68384 0.77258 0.75485 0.0
C960 C 0.68658 0.7702 0.76765 0.0
C961 C 0.70614 0.75793 0.74718 0.0
C962 C 0.71467 0.75623 0.77266 0.0
C963 C 0.73743 0.74216 0.76507 0.0
H964 H 0.37281 0.13422 0.74153 0.0
H965 H 0.33464 0.04348 0.71108 0.0
H966 H 0.29706 0.98065 0.72498 0.0
H967 H 0.28162 0.95127 0.74587 0.0
H968 H 0.3213 0.04164 0.77644 0.0
H969 H 0.35112 0.10462 0.7624 0.0
C970 C 0.35571 0.10074 0.73792 0.0
C971 C 0.35708 0.09358 0.72531 0.0
C972 C 0.33467 0.06458 0.74599 0.0
C973 C 0.33457 0.04996 0.72077 0.0
C974 C 0.31306 0.01393 0.72871 0.0
C975 C 0.29627 0.98469 0.74947 0.0
C976 C 0.29976 0.99171 0.76218 0.0
C977 C 0.31396 0.02082 0.74136 0.0
C978 C 0.31852 0.03526 0.76668 0.0
C979 C 0.3357 0.07137 0.75866 0.0
H980 H 0.92548 0.30854 0.74107 0.0
H981 H 0.01956 0.35605 0.71131 0.0
H982 H 0.08011 0.37902 0.7258 0.0
H983 H 0.10677 0.39444 0.74696 0.0
H984 H 0.01279 0.34926 0.77674 0.0
H985 H 0.95187 0.31604 0.76219 0.0
C986 C 0.95916 0.32325 0.73773 0.0
C987 C 0.96802 0.33131 0.72515 0.0
C988 C 0.99393 0.33719 0.74613 0.0
C989 C 0.01182 0.34996 0.72097 0.0
C990 C 0.04653 0.36323 0.72925 0.0
C991 C 0.07299 0.37671 0.75028 0.0
C992 C 0.06436 0.37508 0.7629 0.0
C993 C 0.03806 0.35841 0.74187 0.0
C994 C 0.02039 0.35153 0.76706 0.0
C995 C 0.98548 0.33258 0.75875 0.0
H996 H 0.32436 0.29083 0.21233 0.0
H997 H 0.33008 0.21357 0.24249 0.0
H998 H 0.28541 0.23444 0.25499 0.0
H999 H 0.25272 0.28156 0.25809 0.0
H1000 H 0.25184 0.36313 0.22842 0.0
H1001 H 0.28596 0.33292 0.21489 0.0
C1002 C 0.31533 0.27802 0.22158 0.0
C1003 C 0.33098 0.25115 0.22653 0.0
C1004 C 0.29065 0.29105 0.22881 0.0
C1005 C 0.31883 0.23469 0.23851 0.0
C1006 C 0.29331 0.24662 0.24566 0.0
C1007 C 0.25912 0.29207 0.2486 0.0
C1008 C 0.25015 0.32484 0.24429 0.0
C1009 C 0.28016 0.2758 0.24102 0.0
C1010 C 0.25875 0.33817 0.23198 0.0
C1011 C 0.27842 0.32106 0.22425 0.0
H1012 H 0.66431 0.92102 0.24715 0.0
H1013 H 0.64582 0.99442 0.27613 0.0
H1014 H 0.69794 0.06407 0.26628 0.0
H1015 H 0.74213 0.10388 0.24835 0.0
H1016 H 0.75953 0.03076 0.21909 0.0
H1017 H 0.71542 0.96157 0.23028 0.0
C1018 C 0.67203 0.95225 0.25137 0.0
C1019 C 0.65059 0.95241 0.26225 0.0
C1020 C 0.7019 0.99236 0.24561 0.0
C1021 C 0.66144 0.99322 0.26769 0.0
C1022 C 0.6913 0.03318 0.26207 0.0
C1023 C 0.73712 0.07297 0.24453 0.0
C1024 C 0.75359 0.07249 0.23282 0.0
C1025 C 0.71083 0.03313 0.25087 0.0
C1026 C 0.74688 0.03208 0.22804 0.0
C1027 C 0.72143 0.9924 0.2344 0.0
H1028 H 0.94898 0.69318 0.22418 0.0
H1029 H 0.86445 0.63185 0.25551 0.0
H1030 H 0.929 0.66213 0.26886 0.0
H1031 H 0.00937 0.69852 0.27123 0.0
H1032 H 0.09393 0.75818 0.23981 0.0
H1033 H 0.02925 0.73637 0.22693 0.0
C1034 C 0.94457 0.68689 0.23395 0.0
C1035 C 0.90198 0.65969 0.23881 0.0
C1036 C 0.98182 0.70378 0.24154 0.0
C1037 C 0.89686 0.6524 0.25151 0.0
C1038 C 0.93378 0.66956 0.25915 0.0
C1039 C 0.01373 0.70724 0.26159 0.0
C1040 C 0.0564 0.7293 0.25645 0.0
C1041 C 0.97643 0.69409 0.2542 0.0
C1042 C 0.06147 0.74091 0.24399 0.0
C1043 C 0.02448 0.72833 0.2366 0.0
H1044 H 0.11207 0.188 0.11338 0.0
H1045 H 0.00781 0.06723 0.09753 0.0
H1046 H 0.05849 0.03901 0.09507 0.0
H1047 H 0.12999 0.04532 0.09913 0.0
H1048 H 0.23411 0.16442 0.11567 0.0
H1049 H 0.18617 0.19681 0.1159 0.0
C1050 C 0.1006 0.15574 0.10926 0.0
C1051 C 0.05604 0.12959 0.10581 0.0
C1052 C 0.12985 0.13929 0.108 0.0
C1053 C 0.04178 0.08791 0.10042 0.0
C1054 C 0.07076 0.07168 0.09898 0.0
C1055 C 0.14253 0.07863 0.10263 0.0
C1056 C 0.18544 0.10214 0.10751 0.0
C1057 C 0.11453 0.09662 0.10301 0.0
C1058 C 0.20113 0.14542 0.11192 0.0
C1059 C 0.17365 0.16391 0.11211 0.0
H1060 H 0.88474 0.99123 0.08022 0.0
H1061 H 0.81003 0.9919 0.11163 0.0
H1062 H 0.77582 0.91146 0.11339 0.0
H1063 H 0.77564 0.84287 0.10787 0.0
H1064 H 0.85333 0.84356 0.07703 0.0
H1065 H 0.87751 0.92133 0.07317 0.0
C1066 C 0.86029 0.97376 0.0873 0.0
C1067 C 0.8506 0.99771 0.0959 0.0
C1068 C 0.84172 0.9277 0.08849 0.0
C1069 C 0.8185 0.97437 0.10495 0.0
C1070 C 0.79906 0.92835 0.10601 0.0
C1071 C 0.79724 0.85981 0.10018 0.0
C1072 C 0.81324 0.83759 0.0929 0.0
C1073 C 0.81179 0.90493 0.09814 0.0
C1074 C 0.84098 0.85999 0.0829 0.0
C1075 C 0.85488 0.90454 0.08068 0.0
H1076 H 0.96366 0.73252 0.11916 0.0
H1077 H 0.96683 0.77424 0.08177 0.0
H1078 H 0.04396 0.83199 0.08416 0.0
H1079 H 0.10649 0.87676 0.09764 0.0
H1080 H 0.10245 0.83769 0.13535 0.0
H1081 H 0.02972 0.77253 0.13204 0.0
C1082 C 0.98159 0.75341 0.11143 0.0
C1083 C 0.95951 0.74933 0.10032 0.0
C1084 C 0.02549 0.78754 0.113 0.0
C1085 C 0.98308 0.77692 0.09043 0.0
C1086 C 0.02709 0.81011 0.09181 0.0
C1087 C 0.08998 0.85374 0.10511 0.0
C1088 C 0.10955 0.86251 0.11678 0.0
C1089 C 0.04799 0.8168 0.10319 0.0
C1090 C 0.08798 0.83196 0.1263 0.0
C1091 C 0.04634 0.79471 0.12442 0.0
H1092 H 0.20459 0.22268 0.37075 0.0
H1093 H 0.13322 0.20931 0.40422 0.0
H1094 H 0.14084 0.14587 0.41023 0.0
H1095 H 0.15952 0.08895 0.40477 0.0
H1096 H 0.22659 0.09956 0.37065 0.0
H1097 H 0.22914 0.1695 0.36615 0.0
C1098 C 0.19155 0.20654 0.37948 0.0
C1099 C 0.16808 0.22049 0.38698 0.0
C1100 C 0.19472 0.16916 0.38268 0.0
C1101 C 0.15119 0.19902 0.39825 0.0
C1102 C 0.15536 0.16263 0.40166 0.0
C1103 C 0.17528 0.10684 0.39643 0.0
C1104 C 0.19235 0.08874 0.38799 0.0
C1105 C 0.17572 0.14651 0.39376 0.0
C1106 C 0.21279 0.1125 0.37725 0.0
C1107 C 0.21425 0.15251 0.37466 0.0
H1108 H 0.95773 0.15609 0.3833 0.0
H1109 H 0.95609 0.17006 0.34405 0.0
H1110 H 0.89243 0.09523 0.34257 0.0
H1111 H 0.84174 0.02375 0.3522 0.0
H1112 H 0.84333 0.00955 0.39143 0.0
H1113 H 0.90208 0.0869 0.39315 0.0
C1114 C 0.94324 0.14292 0.37442 0.0
C1115 C 0.96205 0.16843 0.36378 0.0
C1116 C 0.90668 0.09984 0.37363 0.0
C1117 C 0.94243 0.1511 0.35238 0.0
C1118 C 0.90608 0.10825 0.35152 0.0
C1119 C 0.85451 0.0377 0.36115 0.0
C1120 C 0.8385 0.01072 0.37166 0.0
C1121 C 0.88858 0.08201 0.36205 0.0
C1122 C 0.85507 0.0295 0.38319 0.0
C1123 C 0.88888 0.07368 0.38417 0.0
H1124 H 0.02971 0.89671 0.3575 0.0
H1125 H 0.03353 0.90692 0.3969 0.0
H1126 H 0.95496 0.88389 0.39726 0.0
H1127 H 0.88727 0.86751 0.3862 0.0
H1128 H 0.88435 0.85838 0.34674 0.0
H1129 H 0.96053 0.87392 0.34661 0.0
C1130 C 0.0133 0.89358 0.36618 0.0
C1131 C 0.03749 0.90408 0.37714 0.0
C1132 C 0.96838 0.88069 0.3663 0.0
C1133 C 0.01564 0.89919 0.38833 0.0
C1134 C 0.97078 0.88618 0.38853 0.0
C1135 C 0.90311 0.86841 0.37757 0.0
C1136 C 0.8803 0.86238 0.36648 0.0
C1137 C 0.94711 0.87785 0.37755 0.0
C1138 C 0.90119 0.86322 0.3554 0.0
C1139 C 0.94482 0.87223 0.35531 0.0
H1140 H 0.85511 0.845 0.8738 0.0
H1141 H 0.82874 0.85181 0.9121 0.0
H1142 H 0.8877 0.83668 0.91767 0.0
H1143 H 0.95191 0.82996 0.9116 0.0
H1144 H 0.97912 0.82546 0.87321 0.0
H1145 H 0.91438 0.83095 0.86776 0.0
C1146 C 0.86182 0.84262 0.88338 0.0
C1147 C 0.83794 0.85014 0.89252 0.0
C1148 C 0.8962 0.83473 0.8865 0.0
C1149 C 0.84672 0.84635 0.90488 0.0
C1150 C 0.88061 0.83793 0.90807 0.0
C1151 C 0.94339 0.82959 0.90204 0.0
C1152 C 0.97075 0.82791 0.89283 0.0
C1153 C 0.9064 0.83339 0.89895 0.0
C1154 C 0.95892 0.82707 0.88049 0.0
C1155 C 0.92192 0.83031 0.87736 0.0
H1156 H 0.11276 0.97625 0.89868 0.0
H1157 H 0.24908 0.01998 0.89012 0.0
H1158 H 0.26369 0.09599 0.88745 0.0
H1159 H 0.2361 0.14888 0.88612 0.0
H1160 H 0.09839 0.10244 0.89363 0.0
H1161 H 0.08606 0.02863 0.89806 0.0
C1162 C 0.14589 0.00241 0.89639 0.0
C1163 C 0.17976 0.99236 0.89458 0.0
C1164 C 0.15368 0.04554 0.89452 0.0
C1165 C 0.22238 0.02678 0.89156 0.0
C1166 C 0.23071 0.07022 0.88998 0.0
C1167 C 0.20349 0.12263 0.88879 0.0
C1168 C 0.16819 0.13115 0.88944 0.0
C1169 C 0.19635 0.07981 0.89118 0.0
C1170 C 0.12609 0.09677 0.89292 0.0
C1171 C 0.11897 0.05451 0.89551 0.0
H1172 H -0.00186 0.18346 0.87977 0.0
H1173 H 0.01438 0.14379 0.91598 0.0
H1174 H 0.93835 0.0824 0.91564 0.0
H1175 H 0.87132 0.03447 0.904 0.0
H1176 H 0.85591 0.07219 0.86746 0.0
H1177 H 0.92762 0.14007 0.86903 0.0
C1178 C 0.98483 0.16199 0.8877 0.0
C1179 C 0.0122 0.16781 0.89781 0.0
C1180 C 0.94149 0.12598 0.8873 0.0
C1181 C 0.99422 0.13983 0.90804 0.0
C1182 C 0.9508 0.10454 0.90782 0.0
C1183 C 0.88341 0.05773 0.89641 0.0
C1184 C 0.85869 0.04788 0.88554 0.0
C1185 C 0.9248 0.09633 0.89732 0.0
C1186 C 0.87446 0.07875 0.87589 0.0
C1187 C 0.9155 0.11755 0.87677 0.0
H1188 H 0.81743 0.95556 0.59823 0.0
H1189 H 0.77699 0.9347 0.63612 0.0
H1190 H 0.76009 0.85766 0.63478 0.0
H1191 H 0.7668 0.80007 0.62364 0.0
H1192 H 0.80933 0.8222 0.58588 0.0
H1193 H 0.81415 0.8945 0.58629 0.0
C1194 C 0.80449 0.93402 0.60616 0.0
C1195 C 0.79937 0.95101 0.61733 0.0
C1196 C 0.79512 0.88998 0.60534 0.0
C1197 C 0.78164 0.9225 0.62745 0.0
C1198 C 0.77202 0.87847 0.6267 0.0
C1199 C 0.77596 0.82013 0.61539 0.0
C1200 C 0.78847 0.80604 0.60481 0.0
C1201 C 0.77997 0.8623 0.61579 0.0
C1202 C 0.80002 0.83244 0.59419 0.0
C1203 C 0.8031 0.87396 0.59444 0.0
H1204 H 0.1004 0.00789 0.58465 0.0
H1205 H 0.19469 0.97561 0.59991 0.0
H1206 H 0.13532 0.89951 0.60379 0.0
H1207 H 0.05556 0.84369 0.60413 0.0
H1208 H 0.96216 0.87921 0.58986 0.0
H1209 H 0.02224 0.95246 0.58441 0.0
C1210 C 0.10822 0.98412 0.58865 0.0
C1211 C 0.15196 0.99746 0.59197 0.0
C1212 C 0.07389 0.94106 0.59121 0.0
C1213 C 0.16128 0.9662 0.59726 0.0
C1214 C 0.1273 0.92274 0.59953 0.0
C1215 C 0.04843 0.86741 0.59978 0.0
C1216 C 0.00432 0.85593 0.5975 0.0
C1217 C 0.0833 0.91004 0.59678 0.0
C1218 C 0.99569 0.88714 0.59185 0.0
C1219 C 0.03006 0.9291 0.58867 0.0
H1220 H 0.14722 0.18338 0.58268 0.0
H1221 H 0.14269 0.13551 0.61946 0.0
H1222 H 0.07048 0.12866 0.62263 0.0
H1223 H 0.0065 0.13068 0.6145 0.0
H1224 H 0.00922 0.17618 0.57755 0.0
H1225 H 0.08458 0.18992 0.57496 0.0
C1226 C 0.13071 0.17197 0.59145 0.0
C1227 C 0.15025 0.15965 0.60079 0.0
C1228 C 0.08877 0.16739 0.59315 0.0
C1229 C 0.12836 0.14498 0.61209 0.0
C1230 C 0.08699 0.14096 0.61391 0.0
C1231 C 0.02358 0.14392 0.60589 0.0
C1232 C 0.00199 0.15193 0.59619 0.0
C1233 C 0.06653 0.15115 0.60442 0.0
C1234 C 0.02491 0.16947 0.58515 0.0
C1235 C 0.06799 0.17726 0.58366 0.0
H1236 H 0.70251 0.52253 0.43799 0.0
H1237 H 0.65844 0.46576 0.47398 0.0
H1238 H 0.72024 0.45212 0.47552 0.0
H1239 H 0.7817 0.44909 0.46583 0.0
H1240 H 0.82457 0.50321 0.42957 0.0
H1241 H 0.76842 0.52553 0.42901 0.0
C1242 C 0.7068 0.50786 0.44627 0.0
C1243 C 0.67558 0.49476 0.45581 0.0
C1244 C 0.74189 0.49923 0.44699 0.0
C1245 C 0.68178 0.47591 0.46647 0.0
C1246 C 0.71703 0.46793 0.46734 0.0
C1247 C 0.77911 0.46615 0.45783 0.0
C1248 C 0.80687 0.47392 0.44768 0.0
C1249 C 0.74646 0.47826 0.45752 0.0
C1250 C 0.80343 0.49659 0.43747 0.0
C1251 C 0.77126 0.50924 0.43714 0.0
H1252 H 0.45929 0.20074 0.44006 0.0
H1253 H 0.58881 0.23481 0.45336 0.0
H1254 H 0.61482 0.31308 0.44976 0.0
H1255 H 0.60202 0.37171 0.44217 0.0
H1256 H 0.47214 0.33997 0.43005 0.0
H1257 H 0.44499 0.26084 0.43379 0.0
C1258 C 0.49308 0.22535 0.44226 0.0
C1259 C 0.52207 0.21178 0.44691 0.0
C1260 C 0.50788 0.27062 0.44025 0.0
C1261 C 0.56568 0.24417 0.44981 0.0
C1262 C 0.58073 0.28901 0.44769 0.0
C1263 C 0.56781 0.34742 0.44026 0.0
C1264 C 0.53927 0.36137 0.43561 0.0
C1265 C 0.55234 0.30251 0.44276 0.0
C1266 C 0.49476 0.32981 0.43352 0.0
C1267 C 0.47929 0.28468 0.43568 0.0
H1268 H 0.81993 0.2575 0.45698 0.0
H1269 H 0.78297 0.30419 0.42495 0.0
H1270 H 0.71221 0.2354 0.42418 0.0
H1271 H 0.65724 0.16747 0.43424 0.0
H1272 H 0.69151 0.12269 0.46714 0.0
H1273 H 0.76725 0.1846 0.46572 0.0
C1274 C 0.79672 0.25224 0.4497 0.0
C1275 C 0.80637 0.28617 0.44116 0.0
C1276 C 0.75549 0.21302 0.4495 0.0
C1277 C 0.77604 0.27884 0.43176 0.0
C1278 C 0.73556 0.2395 0.43129 0.0
C1279 C 0.68143 0.1706 0.44097 0.0
C1280 C 0.66848 0.14093 0.4509 0.0
C1281 C 0.72434 0.20712 0.44037 0.0
C1282 C 0.70045 0.14536 0.45947 0.0
C1283 C 0.74373 0.18091 0.45871 0.0
H1284 H 0.83486 0.55129 0.72936 0.0
H1285 H 0.92859 0.6346 0.70185 0.0
H1286 H 0.949 0.57791 0.69812 0.0
H1287 H 0.93306 0.50071 0.70086 0.0
H1288 H 0.83508 0.41682 0.72746 0.0
H1289 H 0.82345 0.47759 0.73328 0.0
C1290 C 0.86039 0.55757 0.7227 0.0
C1291 C 0.87974 0.59698 0.7158 0.0
C1292 C 0.87064 0.52425 0.72027 0.0
C1293 C 0.91294 0.60446 0.70726 0.0
C1294 C 0.9244 0.57189 0.70505 0.0
C1295 C 0.90958 0.49598 0.70803 0.0
C1296 C 0.88455 0.45411 0.71358 0.0
C1297 C 0.9023 0.53098 0.71119 0.0
C1298 C 0.85431 0.44849 0.72288 0.0
C1299 C 0.84771 0.48329 0.72626 0.0
H1300 H 0.56532 0.35533 0.7334 0.0
H1301 H 0.48296 0.35506 0.70394 0.0
H1302 H 0.53271 0.43448 0.70079 0.0
H1303 H 0.60351 0.50246 0.70514 0.0
H1304 H 0.68634 0.5008 0.73423 0.0
H1305 H 0.63251 0.42385 0.73873 0.0
C1306 C 0.55779 0.37267 0.7264 0.0
C1307 C 0.52063 0.34909 0.71885 0.0
C1308 C 0.587 0.41804 0.72445 0.0
C1309 C 0.51142 0.3723 0.70986 0.0
C1310 C 0.53999 0.41772 0.70801 0.0
C1311 C 0.60955 0.4854 0.71254 0.0
C1312 C 0.64921 0.50737 0.71922 0.0
C1313 C 0.57854 0.4407 0.71504 0.0
C1314 C 0.65637 0.48472 0.72883 0.0
C1315 C 0.62555 0.44062 0.73144 0.0
H1316 H 0.7115 0.22114 0.70428 0.0
H1317 H 0.71454 0.28422 0.73857 0.0
H1318 H 0.63602 0.25924 0.73662 0.0
H1319 H 0.56902 0.22692 0.72414 0.0
H1320 H 0.56596 0.16539 0.68959 0.0
H1321 H 0.64205 0.18217 0.69274 0.0
C1322 C 0.69488 0.22881 0.71144 0.0
C1323 C 0.71909 0.25507 0.72148 0.0
C1324 C 0.64988 0.21511 0.71014 0.0
C1325 C 0.69686 0.26439 0.7307 0.0
C1326 C 0.65197 0.25028 0.72957 0.0
C1327 C 0.58482 0.2168 0.71733 0.0
C1328 C 0.56208 0.19554 0.70655 0.0
C1329 C 0.62857 0.22688 0.71915 0.0
C1330 C 0.58281 0.18206 0.69793 0.0
C1331 C 0.62635 0.19173 0.69971 0.0
H1332 H 0.65189 0.18996 0.22865 0.0
H1333 H 0.60131 0.08066 0.20323 0.0
H1334 H 0.52872 0.07502 0.20385 0.0
H1335 H 0.48225 0.10624 0.20999 0.0
H1336 H 0.53381 0.21636 0.23521 0.0
H1337 H 0.60315 0.21585 0.23649 0.0
C1338 C 0.62492 0.1647 0.2233 0.0
C1339 C 0.63213 0.13629 0.21573 0.0
C1340 C 0.58345 0.16173 0.22368 0.0
C1341 C 0.59667 0.10318 0.20905 0.0
C1342 C 0.55518 0.09996 0.20939 0.0
C1343 C 0.50831 0.1296 0.21595 0.0
C1344 C 0.50302 0.16172 0.22235 0.0
C1345 C 0.54851 0.12975 0.21646 0.0
C1346 C 0.53707 0.19151 0.2301 0.0
C1347 C 0.57688 0.19143 0.23079 0.0
H1348 H 0.82546 0.343 0.19487 0.0
H1349 H 0.83506 0.32777 0.23378 0.0
H1350 H 0.85027 0.40361 0.2371 0.0
H1351 H 0.85287 0.47102 0.22912 0.0
H1352 H 0.84129 0.48487 0.19021 0.0
H1353 H 0.83509 0.41279 0.18674 0.0
C1354 C 0.83141 0.35639 0.20408 0.0
C1355 C 0.82854 0.32953 0.21408 0.0
C1356 C 0.83939 0.39964 0.20593 0.0
C1357 C 0.83691 0.34765 0.22592 0.0
C1358 C 0.84538 0.39094 0.22783 0.0
C1359 C 0.84951 0.45854 0.21986 0.0
C1360 C 0.84698 0.48314 0.20996 0.0
C1361 C 0.84543 0.41676 0.21793 0.0
C1362 C 0.84305 0.46659 0.19801 0.0
C1363 C 0.8394 0.42529 0.19602 0.0
H1364 H 0.66557 0.47737 0.19309 0.0
H1365 H 0.70545 0.51153 0.23072 0.0
H1366 H 0.63389 0.45093 0.23763 0.0
H1367 H 0.56302 0.38384 0.23288 0.0
H1368 H 0.52434 0.35018 0.1951 0.0
H1369 H 0.59229 0.41528 0.18838 0.0
C1370 C 0.65847 0.47185 0.20281 0.0
C1371 C 0.69091 0.49846 0.21138 0.0
C1372 C 0.61757 0.43688 0.20669 0.0
C1373 C 0.68101 0.49138 0.22393 0.0
C1374 C 0.64019 0.45661 0.22789 0.0
C1375 C 0.56918 0.39106 0.22318 0.0
C1376 C 0.53887 0.36176 0.21451 0.0
C1377 C 0.60865 0.42846 0.21934 0.0
C1378 C 0.54722 0.37187 0.20198 0.0
C1379 C 0.58616 0.40908 0.19811 0.0
H1380 H 0.50072 0.14562 0.92703 0.0
H1381 H 0.39837 0.09125 0.95457 0.0
H1382 H 0.38697 0.15463 0.9522 0.0
H1383 H 0.41394 0.23049 0.94455 0.0
H1384 H 0.52039 0.28658 0.9182 0.0
H1385 H 0.52226 0.21756 0.91786 0.0
C1386 C 0.47509 0.14695 0.9323 0.0
C1387 C 0.45073 0.11393 0.94106 0.0
C1388 C 0.47007 0.18434 0.93127 0.0
C1389 C 0.41778 0.11638 0.94782 0.0
C1390 C 0.41146 0.15278 0.94653 0.0
C1391 C 0.43703 0.22733 0.93858 0.0
C1392 C 0.46739 0.26384 0.93155 0.0
C1393 C 0.43869 0.18783 0.93865 0.0
C1394 C 0.49706 0.25919 0.92384 0.0
C1395 C 0.49812 0.21969 0.92362 0.0
H1396 H 0.74721 0.34567 0.93424 0.0
H1397 H 0.85452 0.32249 0.94267 0.0
H1398 H 0.80199 0.24304 0.94516 0.0
H1399 H 0.72485 0.18078 0.94587 0.0
H1400 H 0.61837 0.20689 0.93883 0.0
H1401 H 0.67132 0.28461 0.93497 0.0
C1402 C 0.75926 0.3232 0.93645 0.0
C1403 C 0.80468 0.33982 0.93817 0.0
C1404 C 0.72891 0.27814 0.93829 0.0
C1405 C 0.81965 0.31037 0.94125 0.0
C1406 C 0.78964 0.26503 0.94273 0.0
C1407 C 0.71333 0.20353 0.94348 0.0
C1408 C 0.66771 0.18802 0.94269 0.0
C1409 C 0.74408 0.24863 0.94144 0.0
C1410 C 0.65326 0.21793 0.93962 0.0
C1411 C 0.68352 0.26242 0.93735 0.0
H1412 H 0.79426 0.4914 0.93463 0.0
H1413 H 0.80007 0.5353 0.97187 0.0
H1414 H 0.73028 0.53446 0.96898 0.0
H1415 H 0.66377 0.5129 0.95663 0.0
H1416 H 0.65742 0.46634 0.91965 0.0
H1417 H 0.73172 0.47733 0.92165 0.0
C1418 C 0.78055 0.50123 0.9421 0.0
C1419 C 0.80199 0.5127 0.95351 0.0
C1420 C 0.74026 0.5001 0.94043 0.0
C1421 C 0.78408 0.52599 0.96302 0.0
C1422 C 0.74411 0.52543 0.96138 0.0
C1423 C 0.67897 0.50604 0.94891 0.0
C1424 C 0.65484 0.48831 0.93805 0.0
C1425 C 0.72134 0.51137 0.95023 0.0
C1426 C 0.67509 0.47964 0.92815 0.0
C1427 C 0.71753 0.48574 0.9293 0.0
H1428 H 0.39319 0.87262 0.77097 0.0
H1429 H 0.42448 0.93606 0.80636 0.0
H1430 H 0.49023 0.92839 0.80755 0.0
H1431 H 0.53457 0.89727 0.79937 0.0
H1432 H 0.50183 0.83267 0.76411 0.0
H1433 H 0.44124 0.84787 0.76198 0.0
C1434 C 0.41453 0.88509 0.77892 0.0
C1435 C 0.40359 0.90431 0.78865 0.0
C1436 C 0.452 0.88033 0.77957 0.0
C1437 C 0.432 0.92091 0.79878 0.0
C1438 C 0.46955 0.91645 0.79947 0.0
C1439 C 0.51467 0.88715 0.79113 0.0
C1440 C 0.52248 0.86338 0.78199 0.0
C1441 C 0.47931 0.89531 0.79004 0.0
C1442 C 0.49643 0.85072 0.77134 0.0
C1443 C 0.46162 0.85923 0.77013 0.0
H1444 H 0.14313 0.70672 0.79237 0.0
H1445 H 0.22539 0.74205 0.76009 0.0
H1446 H 0.21331 0.66685 0.75891 0.0
H1447 H 0.18622 0.59386 0.76828 0.0
H1448 H 0.10561 0.5587 0.80088 0.0
H1449 H 0.11008 0.63102 0.80064 0.0
C1450 C 0.15776 0.69779 0.78494 0.0
C1451 C 0.18555 0.73019 0.77641 0.0
C1452 C 0.15148 0.65469 0.78447 0.0
C1453 C 0.20414 0.71792 0.76683 0.0
C1454 C 0.19741 0.67495 0.76618 0.0
C1455 C 0.1693 0.60182 0.77529 0.0
C1456 C 0.14617 0.57114 0.78469 0.0
C1457 C 0.17232 0.64353 0.77516 0.0
C1458 C 0.12393 0.5818 0.79359 0.0
C1459 C 0.12651 0.62319 0.79347 0.0
H1460 H 0.46195 0.6576 0.76855 0.0
H1461 H 0.49695 0.61191 0.80111 0.0
H1462 H 0.42342 0.54593 0.80162 0.0
H1463 H 0.34674 0.50635 0.79424 0.0
H1464 H 0.31203 0.553 0.76176 0.0
H1465 H 0.38819 0.61303 0.75969 0.0
C1466 C 0.45366 0.63292 0.77568 0.0
C1467 C 0.48453 0.63996 0.7849 0.0
C1468 C 0.41134 0.59535 0.77596 0.0
C1469 C 0.47366 0.60737 0.79394 0.0
C1470 C 0.43157 0.56973 0.79427 0.0
C1471 C 0.35595 0.52918 0.78658 0.0
C1472 C 0.32349 0.52562 0.77831 0.0
C1473 C 0.39974 0.5641 0.78553 0.0
C1474 C 0.33618 0.55515 0.76835 0.0
C1475 C 0.37973 0.58967 0.76717 0.0
H1476 H 0.46674 0.75621 0.0292 0.0
H1477 H 0.48071 0.78396 0.06796 0.0
H1478 H 0.4933 0.72175 0.07144 0.0
H1479 H 0.49329 0.65545 0.06368 0.0
H1480 H 0.47456 0.62557 0.02506 0.0
H1481 H 0.47116 0.69293 0.02132 0.0
C1482 C 0.47312 0.74912 0.03841 0.0
C1483 C 0.47247 0.77456 0.04832 0.0
C1484 C 0.47914 0.71268 0.04037 0.0
C1485 C 0.48081 0.76479 0.06017 0.0
C1486 C 0.48789 0.72914 0.06217 0.0
C1487 C 0.48912 0.66401 0.05442 0.0
C1488 C 0.48395 0.63541 0.04467 0.0
C1489 C 0.48607 0.70223 0.05237 0.0
C1490 C 0.47834 0.64687 0.03274 0.0
C1491 C 0.47635 0.68536 0.03059 0.0
H1492 H 0.12306 0.67437 0.04606 0.0
H1493 H 0.15819 0.62227 0.07728 0.0
H1494 H 0.22982 0.68994 0.07841 0.0
H1495 H 0.28645 0.75853 0.06857 0.0
H1496 H 0.25159 0.81142 0.03755 0.0
H1497 H 0.17587 0.74879 0.03828 0.0
C1498 C 0.14596 0.67824 0.05329 0.0
C1499 C 0.13559 0.64288 0.06139 0.0
C1500 C 0.18749 0.71698 0.05377 0.0
C1501 C 0.16535 0.64874 0.07085 0.0
C1502 C 0.20657 0.68731 0.07143 0.0
C1503 C 0.26206 0.75652 0.06207 0.0
C1504 C 0.27458 0.78885 0.05286 0.0
C1505 C 0.21867 0.7207 0.06261 0.0
C1506 C 0.24265 0.78663 0.04466 0.0
C1507 C 0.19943 0.75082 0.04506 0.0
H1508 H 0.3354 0.53196 0.06505 0.0
H1509 H 0.29683 0.40797 0.04685 0.0
H1510 H 0.22037 0.39233 0.04582 0.0
H1511 H 0.1655 0.41639 0.049 0.0
H1512 H 0.20675 0.54287 0.06616 0.0
H1513 H 0.28112 0.55503 0.06861 0.0
C1514 C 0.31021 0.50117 0.06102 0.0
C1515 C 0.32176 0.47114 0.05606 0.0
C1516 C 0.26684 0.4931 0.06012 0.0
C1517 C 0.28875 0.43163 0.05074 0.0
C1518 C 0.24508 0.42277 0.0501 0.0
C1519 C 0.19075 0.44649 0.05332 0.0
C1520 C 0.18055 0.47872 0.05732 0.0
C1521 C 0.2339 0.45368 0.05456 0.0
C1522 C 0.21368 0.51763 0.06289 0.0
C1523 C 0.25627 0.52461 0.06434 0.0
H1524 H 0.21832 0.57683 0.57241 0.0
H1525 H 0.12752 0.4903 0.54492 0.0
H1526 H 0.17565 0.45972 0.54082 0.0
H1527 H 0.24727 0.46329 0.54351 0.0
H1528 H 0.33886 0.55213 0.57052 0.0
H1529 H 0.28658 0.57575 0.57634 0.0
C1530 C 0.20866 0.55079 0.56565 0.0
C1531 C 0.16964 0.5363 0.5589 0.0
C1532 C 0.23691 0.53404 0.56314 0.0
C1533 C 0.15758 0.50236 0.55021 0.0
C1534 C 0.18516 0.48492 0.54782 0.0
C1535 C 0.25555 0.48738 0.55077 0.0
C1536 C 0.29715 0.50627 0.55645 0.0
C1537 C 0.22553 0.50143 0.55398 0.0
C1538 C 0.30726 0.53735 0.56589 0.0
C1539 C 0.27738 0.55093 0.56924 0.0
H1540 H 0.4655 0.65942 0.57646 0.0
H1541 H 0.52882 0.65735 0.54273 0.0
H1542 H 0.55155 0.73519 0.53907 0.0
H1543 H 0.54604 0.80133 0.54435 0.0
H1544 H 0.4789 0.80052 0.57764 0.0
H1545 H 0.46514 0.72651 0.58251 0.0
C1546 C 0.48495 0.67609 0.5684 0.0
C1547 C 0.49505 0.65236 0.55984 0.0
C1548 C 0.4967 0.72033 0.56616 0.0
C1549 C 0.52041 0.67472 0.54947 0.0
C1550 C 0.5332 0.71921 0.54732 0.0
C1551 C 0.5289 0.78514 0.55273 0.0
C1552 C 0.51307 0.80631 0.56052 0.0
C1553 C 0.52033 0.74197 0.55542 0.0
C1554 C 0.49096 0.78485 0.57138 0.0
C1555 C 0.48312 0.74248 0.57421 0.0
H1556 H 0.32681 0.85701 0.54375 0.0
H1557 H 0.35691 0.85464 0.58195 0.0
H1558 H 0.28271 0.79167 0.5854 0.0
H1559 H 0.21282 0.73178 0.57697 0.0
H1560 H 0.18606 0.73149 0.53839 0.0
H1561 H 0.25534 0.80105 0.53569 0.0
C1562 C 0.31692 0.84338 0.55289 0.0
C1563 C 0.34747 0.86032 0.56256 0.0
C1564 C 0.27495 0.80622 0.5547 0.0
C1565 C 0.33407 0.84206 0.57434 0.0
C1566 C 0.29173 0.80591 0.5763 0.0
C1567 C 0.22187 0.74735 0.56802 0.0
C1568 C 0.19458 0.72634 0.55788 0.0
C1569 C 0.26242 0.7868 0.56646 0.0
C1570 C 0.20677 0.74677 0.54632 0.0
C1571 C 0.24635 0.78658 0.54476 0.0
H1572 H 0.12153 0.44661 0.28517 0.0
H1573 H 0.19069 0.51035 0.25181 0.0
H1574 H 0.17267 0.56892 0.25475 0.0
H1575 H 0.14403 0.60583 0.26776 0.0
H1576 H 0.07667 0.5439 0.30146 0.0
H1577 H 0.08706 0.48067 0.29737 0.0
C1578 C 0.1319 0.47282 0.27841 0.0
C1579 C 0.15774 0.47426 0.26833 0.0
C1580 C 0.12229 0.50703 0.2803 0.0
C1581 C 0.17102 0.50858 0.25969 0.0
C1582 C 0.16089 0.54221 0.26138 0.0
C1583 C 0.13129 0.57838 0.27419 0.0
C1584 C 0.11012 0.5799 0.28499 0.0
C1585 C 0.1377 0.54243 0.27183 0.0
C1586 C 0.09333 0.54374 0.29312 0.0
C1587 C 0.09931 0.50758 0.29079 0.0
H1588 H 0.51254 0.68338 0.27314 0.0
H1589 H 0.46735 0.69294 0.23708 0.0
H1590 H 0.41178 0.61438 0.23775 0.0
H1591 H 0.36978 0.54604 0.24964 0.0
H1592 H 0.41324 0.53659 0.28592 0.0
H1593 H 0.47592 0.61201 0.28405 0.0
C1594 C 0.4912 0.66813 0.26531 0.0
C1595 C 0.49369 0.69429 0.25516 0.0
C1596 C 0.45853 0.6231 0.26588 0.0
C1597 C 0.46593 0.67378 0.24507 0.0
C1598 C 0.43393 0.62886 0.24547 0.0
C1599 C 0.39322 0.56027 0.2571 0.0
C1600 C 0.38639 0.53602 0.26799 0.0
C1601 C 0.42885 0.6037 0.25601 0.0
C1602 C 0.41752 0.55465 0.27747 0.0
C1603 C 0.45332 0.59783 0.27642 0.0
H1604 H 0.42179 0.86559 0.28179 0.0
H1605 H 0.42432 0.78239 0.25287 0.0
H1606 H 0.34583 0.75282 0.24923 0.0
H1607 H 0.27496 0.74401 0.25583 0.0
H1608 H 0.27167 0.82581 0.28501 0.0
H1609 H 0.3519 0.8629 0.28679 0.0
C1610 C 0.40533 0.84148 0.27457 0.0
C1611 C 0.42883 0.82575 0.26777 0.0
C1612 C 0.35989 0.82409 0.2726 0.0
C1613 C 0.40701 0.79479 0.25836 0.0
C1614 C 0.36203 0.77774 0.25627 0.0
C1615 C 0.2918 0.77045 0.26244 0.0
C1616 C 0.26722 0.78154 0.2704 0.0
C1617 C 0.33788 0.79114 0.26357 0.0
C1618 C 0.28969 0.81625 0.27883 0.0
C1619 C 0.33562 0.83741 0.2799 0.0
loop_
_geom_bond_atom_site_label_1
_geom_bond_atom_site_label_2
_geom_bond_distance
_geom_bond_site_symmetry_2
_ccdc_geom_bond_type
C0 O1 1.160 . S
C0 O7 1.185 . S
O1 C0 1.160 . S
O2 Zn3 1.899 . S
O2 C10 1.284 . S
Zn3 O2 1.899 . S
Zn3 O4 2.032 . S
Zn3 O7 2.086 . S
Zn3 O12 1.977 . S
O4 Zn3 2.032 . S
O4 C8 1.278 . S
C5 O6 1.203 . S
C5 O12 1.267 . S
O6 C5 1.203 . S
O7 C0 1.185 . S
O7 Zn3 2.086 . S
C8 O4 1.278 . S
C8 O9 1.211 . S
O9 C8 1.211 . S
C10 O2 1.284 . S
C10 O11 1.273 . S
O11 C10 1.273 . S
O12 Zn3 1.977 . S
O12 C5 1.267 . S
C13 O14 1.160 . S
C13 O20 1.185 . S
O14 C13 1.160 . S
O15 Zn16 1.899 . S
O15 C23 1.284 . S
Zn16 O15 1.899 . S
Zn16 O17 2.032 . S
Zn16 O20 2.086 . S
Zn16 O25 1.977 . S
O17 Zn16 2.032 . S
O17 C21 1.278 . S
C18 O19 1.203 . S
C18 O25 1.267 . S
O19 C18 1.203 . S
O20 C13 1.185 . S
O20 Zn16 2.086 . S
C21 O17 1.278 . S
C21 O22 1.211 . S
O22 C21 1.211 . S
C23 O15 1.284 . S
C23 O24 1.273 . S
O24 C23 1.273 . S
O25 Zn16 1.977 . S
O25 C18 1.267 . S
C26 O27 1.160 . S
C26 O33 1.185 . S
O27 C26 1.160 . S
O28 Zn29 1.899 . S
O28 C36 1.284 . S
Zn29 O28 1.899 . S
Zn29 O30 2.032 . S
Zn29 O33 2.086 . S
Zn29 O38 1.977 . S
O30 Zn29 2.032 . S
O30 C34 1.278 . S
C31 O32 1.203 . S
C31 O38 1.267 . S
O32 C31 1.203 . S
O33 C26 1.185 . S
O33 Zn29 2.086 . S
C34 O30 1.278 . S
C34 O35 1.211 . S
O35 C34 1.211 . S
C36 O28 1.284 . S
C36 O37 1.273 . S
O37 C36 1.273 . S
O38 Zn29 1.977 . S
O38 C31 1.267 . S
C39 O40 1.160 . S
C39 O46 1.185 . S
O40 C39 1.160 . S
O41 Zn42 1.899 . S
O41 C49 1.284 . S
Zn42 O41 1.899 . S
Zn42 O43 2.032 . S
Zn42 O46 2.086 . S
Zn42 O51 1.977 . S
O43 Zn42 2.032 . S
O43 C47 1.278 . S
C44 O45 1.203 . S
C44 O51 1.267 . S
O45 C44 1.203 . S
O46 C39 1.185 . S
O46 Zn42 2.086 . S
C47 O43 1.278 . S
C47 O48 1.211 . S
O48 C47 1.211 . S
C49 O41 1.284 . S
C49 O50 1.273 . S
O50 C49 1.273 . S
O51 Zn42 1.977 . S
O51 C44 1.267 . S
C52 O53 1.160 . S
C52 O59 1.185 . S
O53 C52 1.160 . S
O54 Zn55 1.899 . S
O54 C62 1.284 . S
Zn55 O54 1.899 . S
Zn55 O56 2.032 . S
Zn55 O59 2.086 . S
Zn55 O64 1.977 . S
O56 Zn55 2.032 . S
O56 C60 1.278 . S
C57 O58 1.203 . S
C57 O64 1.267 . S
O58 C57 1.203 . S
O59 C52 1.185 . S
O59 Zn55 2.086 . S
C60 O56 1.278 . S
C60 O61 1.211 . S
O61 C60 1.211 . S
C62 O54 1.284 . S
C62 O63 1.273 . S
O63 C62 1.273 . S
O64 Zn55 1.977 . S
O64 C57 1.267 . S
C65 O66 1.160 . S
C65 O72 1.185 . S
O66 C65 1.160 . S
O67 Zn68 1.899 . S
O67 C75 1.284 . S
Zn68 O67 1.899 . S
Zn68 O69 2.032 . S
Zn68 O72 2.086 . S
Zn68 O77 1.977 . S
O69 Zn68 2.032 . S
O69 C73 1.278 . S
C70 O71 1.203 . S
C70 O77 1.267 . S
O71 C70 1.203 . S
O72 C65 1.185 . S
O72 Zn68 2.086 . S
C73 O69 1.278 . S
C73 O74 1.211 . S
O74 C73 1.211 . S
C75 O67 1.284 . S
C75 O76 1.273 . S
O76 C75 1.273 . S
O77 Zn68 1.977 . S
O77 C70 1.267 . S
C78 O79 1.160 . S
C78 O85 1.185 . S
O79 C78 1.160 . S
O80 Zn81 1.899 . S
O80 C88 1.284 . S
Zn81 O80 1.899 . S
Zn81 O82 2.032 . S
Zn81 O85 2.086 . S
Zn81 O90 1.977 . S
O82 Zn81 2.032 . S
O82 C86 1.278 . S
C83 O84 1.203 . S
C83 O90 1.267 . S
O84 C83 1.203 . S
O85 C78 1.185 . S
O85 Zn81 2.086 . S
C86 O82 1.278 . S
C86 O87 1.211 . S
O87 C86 1.211 . S
C88 O80 1.284 . S
C88 O89 1.273 . S
O89 C88 1.273 . S
O90 Zn81 1.977 . S
O90 C83 1.267 . S
C91 O92 1.160 . S
C91 O98 1.185 . S
O92 C91 1.160 . S
O93 Zn94 1.899 . S
O93 C101 1.284 . S
Zn94 O93 1.899 . S
Zn94 O95 2.032 . S
Zn94 O98 2.086 . S
Zn94 O103 1.977 . S
O95 Zn94 2.032 . S
O95 C99 1.278 . S
C96 O97 1.203 . S
C96 O103 1.267 . S
O97 C96 1.203 . S
O98 C91 1.185 . S
O98 Zn94 2.086 . S
C99 O95 1.278 . S
C99 O100 1.211 . S
O100 C99 1.211 . S
C101 O93 1.284 . S
C101 O102 1.273 . S
O102 C101 1.273 . S
O103 Zn94 1.977 . S
O103 C96 1.267 . S
C104 O105 1.160 . S
C104 O111 1.185 . S
O105 C104 1.160 . S
O106 Zn107 1.899 . S
O106 C114 1.284 . S
Zn107 O106 1.899 . S
Zn107 O108 2.032 . S
Zn107 O111 2.086 . S
Zn107 O116 1.977 . S
O108 Zn107 2.032 . S
O108 C112 1.278 . S
C109 O110 1.203 . S
C109 O116 1.267 . S
O110 C109 1.203 . S
O111 C104 1.185 . S
O111 Zn107 2.086 . S
C112 O108 1.278 . S
C112 O113 1.211 . S
O113 C112 1.211 . S
C114 O106 1.284 . S
C114 O115 1.273 . S
O115 C114 1.273 . S
O116 Zn107 1.977 . S
O116 C109 1.267 . S
C117 O118 1.160 . S
C117 O124 1.185 . S
O118 C117 1.160 . S
O119 Zn120 1.899 . S
O119 C127 1.284 . S
Zn120 O119 1.899 . S
Zn120 O121 2.032 . S
Zn120 O124 2.086 . S
Zn120 O129 1.977 . S
O121 Zn120 2.032 . S
O121 C125 1.278 . S
C122 O123 1.203 . S
C122 O129 1.267 . S
O123 C122 1.203 . S
O124 C117 1.185 . S
O124 Zn120 2.086 . S
C125 O121 1.278 . S
C125 O126 1.211 . S
O126 C125 1.211 . S
C127 O119 1.284 . S
C127 O128 1.273 . S
O128 C127 1.273 . S
O129 Zn120 1.977 . S
O129 C122 1.267 . S
C130 O131 1.160 . S
C130 O137 1.185 . S
O131 C130 1.160 . S
O132 Zn133 1.899 . S
O132 C140 1.284 . S
Zn133 O132 1.899 . S
Zn133 O134 2.032 . S
Zn133 O137 2.086 . S
Zn133 O142 1.977 . S
O134 Zn133 2.032 . S
O134 C138 1.278 . S
C135 O136 1.203 . S
C135 O142 1.267 . S
O136 C135 1.203 . S
O137 C130 1.185 . S
O137 Zn133 2.086 . S
C138 O134 1.278 . S
C138 O139 1.211 . S
O139 C138 1.211 . S
C140 O132 1.284 . S
C140 O141 1.273 . S
O141 C140 1.273 . S
O142 Zn133 1.977 . S
O142 C135 1.267 . S
C143 O144 1.160 . S
C143 O150 1.185 . S
O144 C143 1.160 . S
O145 Zn146 1.899 . S
O145 C153 1.284 . S
Zn146 O145 1.899 . S
Zn146 O147 2.032 . S
Zn146 O150 2.086 . S
Zn146 O155 1.977 . S
O147 Zn146 2.032 . S
O147 C151 1.278 . S
C148 O149 1.203 . S
C148 O155 1.267 . S
O149 C148 1.203 . S
O150 C143 1.185 . S
O150 Zn146 2.086 . S
C151 O147 1.278 . S
C151 O152 1.211 . S
O152 C151 1.211 . S
C153 O145 1.284 . S
C153 O154 1.273 . S
O154 C153 1.273 . S
O155 Zn146 1.977 . S
O155 C148 1.267 . S
C156 O157 1.160 . S
C156 O163 1.185 . S
O157 C156 1.160 . S
O158 Zn159 1.899 . S
O158 C166 1.284 . S
Zn159 O158 1.899 . S
Zn159 O160 2.032 . S
Zn159 O163 2.086 . S
Zn159 O168 1.977 . S
O160 Zn159 2.032 . S
O160 C164 1.278 . S
C161 O162 1.203 . S
C161 O168 1.267 . S
O162 C161 1.203 . S
O163 C156 1.185 . S
O163 Zn159 2.086 . S
C164 O160 1.278 . S
C164 O165 1.211 . S
O165 C164 1.211 . S
C166 O158 1.284 . S
C166 O167 1.273 . S
O167 C166 1.273 . S
O168 Zn159 1.977 . S
O168 C161 1.267 . S
C169 O170 1.160 . S
C169 O176 1.185 . S
O170 C169 1.160 . S
O171 Zn172 1.899 . S
O171 C179 1.284 . S
Zn172 O171 1.899 . S
Zn172 O173 2.032 . S
Zn172 O176 2.086 . S
Zn172 O181 1.977 . S
O173 Zn172 2.032 . S
O173 C177 1.278 . S
C174 O175 1.203 . S
C174 O181 1.267 . S
O175 C174 1.203 . S
O176 C169 1.185 . S
O176 Zn172 2.086 . S
C177 O173 1.278 . S
C177 O178 1.211 . S
O178 C177 1.211 . S
C179 O171 1.284 . S
C179 O180 1.273 . S
O180 C179 1.273 . S
O181 Zn172 1.977 . S
O181 C174 1.267 . S
C182 O183 1.160 . S
C182 O189 1.185 . S
O183 C182 1.160 . S
O184 Zn185 1.899 . S
O184 C192 1.284 . S
Zn185 O184 1.899 . S
Zn185 O186 2.032 . S
Zn185 O189 2.086 . S
Zn185 O194 1.977 . S
O186 Zn185 2.032 . S
O186 C190 1.278 . S
C187 O188 1.203 . S
C187 O194 1.267 . S
O188 C187 1.203 . S
O189 C182 1.185 . S
O189 Zn185 2.086 . S
C190 O186 1.278 . S
C190 O191 1.211 . S
O191 C190 1.211 . S
C192 O184 1.284 . S
C192 O193 1.273 . S
O193 C192 1.273 . S
O194 Zn185 1.977 . S
O194 C187 1.267 . S
C195 O196 1.160 . S
C195 O202 1.185 . S
O196 C195 1.160 . S
O197 Zn198 1.899 . S
O197 C205 1.284 . S
Zn198 O197 1.899 . S
Zn198 O199 2.032 . S
Zn198 O202 2.086 . S
Zn198 O207 1.977 . S
O199 Zn198 2.032 . S
O199 C203 1.278 . S
C200 O201 1.203 . S
C200 O207 1.267 . S
O201 C200 1.203 . S
O202 C195 1.185 . S
O202 Zn198 2.086 . S
C203 O199 1.278 . S
C203 O204 1.211 . S
O204 C203 1.211 . S
C205 O197 1.284 . S
C205 O206 1.273 . S
O206 C205 1.273 . S
O207 Zn198 1.977 . S
O207 C200 1.267 . S
C208 O209 1.160 . S
C208 O215 1.185 . S
O209 C208 1.160 . S
O210 Zn211 1.899 . S
O210 C218 1.284 . S
Zn211 O210 1.899 . S
Zn211 O212 2.032 . S
Zn211 O215 2.086 . S
Zn211 O220 1.977 . S
O212 Zn211 2.032 . S
O212 C216 1.278 . S
C213 O214 1.203 . S
C213 O220 1.267 . S
O214 C213 1.203 . S
O215 C208 1.185 . S
O215 Zn211 2.086 . S
C216 O212 1.278 . S
C216 O217 1.211 . S
O217 C216 1.211 . S
C218 O210 1.284 . S
C218 O219 1.273 . S
O219 C218 1.273 . S
O220 Zn211 1.977 . S
O220 C213 1.267 . S
C221 O222 1.160 . S
C221 O228 1.185 . S
O222 C221 1.160 . S
O223 Zn224 1.899 . S
O223 C231 1.284 . S
Zn224 O223 1.899 . S
Zn224 O225 2.032 . S
Zn224 O228 2.086 . S
Zn224 O233 1.977 . S
O225 Zn224 2.032 . S
O225 C229 1.278 . S
C226 O227 1.203 . S
C226 O233 1.267 . S
O227 C226 1.203 . S
O228 C221 1.185 . S
O228 Zn224 2.086 . S
C229 O225 1.278 . S
C229 O230 1.211 . S
O230 C229 1.211 . S
C231 O223 1.284 . S
C231 O232 1.273 . S
O232 C231 1.273 . S
O233 Zn224 1.977 . S
O233 C226 1.267 . S
C234 O235 1.160 . S
C234 O241 1.185 . S
O235 C234 1.160 . S
O236 Zn237 1.899 . S
O236 C244 1.284 . S
Zn237 O236 1.899 . S
Zn237 O238 2.032 . S
Zn237 O241 2.086 . S
Zn237 O246 1.977 . S
O238 Zn237 2.032 . S
O238 C242 1.278 . S
C239 O240 1.203 . S
C239 O246 1.267 . S
O240 C239 1.203 . S
O241 C234 1.185 . S
O241 Zn237 2.086 . S
C242 O238 1.278 . S
C242 O243 1.211 . S
O243 C242 1.211 . S
C244 O236 1.284 . S
C244 O245 1.273 . S
O245 C244 1.273 . S
O246 Zn237 1.977 . S
O246 C239 1.267 . S
C247 O248 1.160 . S
C247 O254 1.185 . S
O248 C247 1.160 . S
O249 Zn250 1.899 . S
O249 C257 1.284 . S
Zn250 O249 1.899 . S
Zn250 O251 2.032 . S
Zn250 O254 2.086 . S
Zn250 O259 1.977 . S
O251 Zn250 2.032 . S
O251 C255 1.278 . S
C252 O253 1.203 . S
C252 O259 1.267 . S
O253 C252 1.203 . S
O254 C247 1.185 . S
O254 Zn250 2.086 . S
C255 O251 1.278 . S
C255 O256 1.211 . S
O256 C255 1.211 . S
C257 O249 1.284 . S
C257 O258 1.273 . S
O258 C257 1.273 . S
O259 Zn250 1.977 . S
O259 C252 1.267 . S
C260 O261 1.160 . S
C260 O267 1.185 . S
O261 C260 1.160 . S
O262 Zn263 1.899 . S
O262 C270 1.284 . S
Zn263 O262 1.899 . S
Zn263 O264 2.032 . S
Zn263 O267 2.086 . S
Zn263 O272 1.977 . S
O264 Zn263 2.032 . S
O264 C268 1.278 . S
C265 O266 1.203 . S
C265 O272 1.267 . S
O266 C265 1.203 . S
O267 C260 1.185 . S
O267 Zn263 2.086 . S
C268 O264 1.278 . S
C268 O269 1.211 . S
O269 C268 1.211 . S
C270 O262 1.284 . S
C270 O271 1.273 . S
O271 C270 1.273 . S
O272 Zn263 1.977 . S
O272 C265 1.267 . S
C273 O274 1.160 . S
C273 O280 1.185 . S
O274 C273 1.160 . S
O275 Zn276 1.899 . S
O275 C283 1.284 . S
Zn276 O275 1.899 . S
Zn276 O277 2.032 . S
Zn276 O280 2.086 . S
Zn276 O285 1.977 . S
O277 Zn276 2.032 . S
O277 C281 1.278 . S
C278 O279 1.203 . S
C278 O285 1.267 . S
O279 C278 1.203 . S
O280 C273 1.185 . S
O280 Zn276 2.086 . S
C281 O277 1.278 . S
C281 O282 1.211 . S
O282 C281 1.211 . S
C283 O275 1.284 . S
C283 O284 1.273 . S
O284 C283 1.273 . S
O285 Zn276 1.977 . S
O285 C278 1.267 . S
C286 O287 1.160 . S
C286 O293 1.185 . S
O287 C286 1.160 . S
O288 Zn289 1.899 . S
O288 C296 1.284 . S
Zn289 O288 1.899 . S
Zn289 O290 2.032 . S
Zn289 O293 2.086 . S
Zn289 O298 1.977 . S
O290 Zn289 2.032 . S
O290 C294 1.278 . S
C291 O292 1.203 . S
C291 O298 1.267 . S
O292 C291 1.203 . S
O293 C286 1.185 . S
O293 Zn289 2.086 . S
C294 O290 1.278 . S
C294 O295 1.211 . S
O295 C294 1.211 . S
C296 O288 1.284 . S
C296 O297 1.273 . S
O297 C296 1.273 . S
O298 Zn289 1.977 . S
O298 C291 1.267 . S
C299 O300 1.160 . S
C299 O306 1.185 . S
O300 C299 1.160 . S
O301 Zn302 1.899 . S
O301 C309 1.284 . S
Zn302 O301 1.899 . S
Zn302 O303 2.032 . S
Zn302 O306 2.086 . S
Zn302 O311 1.977 . S
O303 Zn302 2.032 . S
O303 C307 1.278 . S
C304 O305 1.203 . S
C304 O311 1.267 . S
O305 C304 1.203 . S
O306 C299 1.185 . S
O306 Zn302 2.086 . S
C307 O303 1.278 . S
C307 O308 1.211 . S
O308 C307 1.211 . S
C309 O301 1.284 . S
C309 O310 1.273 . S
O310 C309 1.273 . S
O311 Zn302 1.977 . S
O311 C304 1.267 . S
C312 O313 1.160 . S
C312 O319 1.185 . S
O313 C312 1.160 . S
O314 Zn315 1.899 . S
O314 C322 1.284 . S
Zn315 O314 1.899 . S
Zn315 O316 2.032 . S
Zn315 O319 2.086 . S
Zn315 O324 1.977 . S
O316 Zn315 2.032 . S
O316 C320 1.278 . S
C317 O318 1.203 . S
C317 O324 1.267 . S
O318 C317 1.203 . S
O319 C312 1.185 . S
O319 Zn315 2.086 . S
C320 O316 1.278 . S
C320 O321 1.211 . S
O321 C320 1.211 . S
C322 O314 1.284 . S
C322 O323 1.273 . S
O323 C322 1.273 . S
O324 Zn315 1.977 . S
O324 C317 1.267 . S
C325 O326 1.160 . S
C325 O332 1.185 . S
O326 C325 1.160 . S
O327 Zn328 1.899 . S
O327 C335 1.284 . S
Zn328 O327 1.899 . S
Zn328 O329 2.032 . S
Zn328 O332 2.086 . S
Zn328 O337 1.977 . S
O329 Zn328 2.032 . S
O329 C333 1.278 . S
C330 O331 1.203 . S
C330 O337 1.267 . S
O331 C330 1.203 . S
O332 C325 1.185 . S
O332 Zn328 2.086 . S
C333 O329 1.278 . S
C333 O334 1.211 . S
O334 C333 1.211 . S
C335 O327 1.284 . S
C335 O336 1.273 . S
O336 C335 1.273 . S
O337 Zn328 1.977 . S
O337 C330 1.267 . S
C338 O339 1.160 . S
C338 O345 1.185 . S
O339 C338 1.160 . S
O340 Zn341 1.899 . S
O340 C348 1.284 . S
Zn341 O340 1.899 . S
Zn341 O342 2.032 . S
Zn341 O345 2.086 . S
Zn341 O350 1.977 . S
O342 Zn341 2.032 . S
O342 C346 1.278 . S
C343 O344 1.203 . S
C343 O350 1.267 . S
O344 C343 1.203 . S
O345 C338 1.185 . S
O345 Zn341 2.086 . S
C346 O342 1.278 . S
C346 O347 1.211 . S
O347 C346 1.211 . S
C348 O340 1.284 . S
C348 O349 1.273 . S
O349 C348 1.273 . S
O350 Zn341 1.977 . S
O350 C343 1.267 . S
C351 O352 1.160 . S
C351 O358 1.185 . S
O352 C351 1.160 . S
O353 Zn354 1.899 . S
O353 C361 1.284 . S
Zn354 O353 1.899 . S
Zn354 O355 2.032 . S
Zn354 O358 2.086 . S
Zn354 O363 1.977 . S
O355 Zn354 2.032 . S
O355 C359 1.278 . S
C356 O357 1.203 . S
C356 O363 1.267 . S
O357 C356 1.203 . S
O358 C351 1.185 . S
O358 Zn354 2.086 . S
C359 O355 1.278 . S
C359 O360 1.211 . S
O360 C359 1.211 . S
C361 O353 1.284 . S
C361 O362 1.273 . S
O362 C361 1.273 . S
O363 Zn354 1.977 . S
O363 C356 1.267 . S
C364 O365 1.160 . S
C364 O371 1.185 . S
O365 C364 1.160 . S
O366 Zn367 1.899 . S
O366 C374 1.284 . S
Zn367 O366 1.899 . S
Zn367 O368 2.032 . S
Zn367 O371 2.086 . S
Zn367 O376 1.977 . S
O368 Zn367 2.032 . S
O368 C372 1.278 . S
C369 O370 1.203 . S
C369 O376 1.267 . S
O370 C369 1.203 . S
O371 C364 1.185 . S
O371 Zn367 2.086 . S
C372 O368 1.278 . S
C372 O373 1.211 . S
O373 C372 1.211 . S
C374 O366 1.284 . S
C374 O375 1.273 . S
O375 C374 1.273 . S
O376 Zn367 1.977 . S
O376 C369 1.267 . S
C377 O378 1.160 . S
C377 O384 1.185 . S
O378 C377 1.160 . S
O379 Zn380 1.899 . S
O379 C387 1.284 . S
Zn380 O379 1.899 . S
Zn380 O381 2.032 . S
Zn380 O384 2.086 . S
Zn380 O389 1.977 . S
O381 Zn380 2.032 . S
O381 C385 1.278 . S
C382 O383 1.203 . S
C382 O389 1.267 . S
O383 C382 1.203 . S
O384 C377 1.185 . S
O384 Zn380 2.086 . S
C385 O381 1.278 . S
C385 O386 1.211 . S
O386 C385 1.211 . S
C387 O379 1.284 . S
C387 O388 1.273 . S
O388 C387 1.273 . S
O389 Zn380 1.977 . S
O389 C382 1.267 . S
C390 O391 1.160 . S
C390 O397 1.185 . S
O391 C390 1.160 . S
O392 Zn393 1.899 . S
O392 C400 1.284 . S
Zn393 O392 1.899 . S
Zn393 O394 2.032 . S
Zn393 O397 2.086 . S
Zn393 O402 1.977 . S
O394 Zn393 2.032 . S
O394 C398 1.278 . S
C395 O396 1.203 . S
C395 O402 1.267 . S
O396 C395 1.203 . S
O397 C390 1.185 . S
O397 Zn393 2.086 . S
C398 O394 1.278 . S
C398 O399 1.211 . S
O399 C398 1.211 . S
C400 O392 1.284 . S
C400 O401 1.273 . S
O401 C400 1.273 . S
O402 Zn393 1.977 . S
O402 C395 1.267 . S
C403 O404 1.160 . S
C403 O410 1.185 . S
O404 C403 1.160 . S
O405 Zn406 1.899 . S
O405 C413 1.284 . S
Zn406 O405 1.899 . S
Zn406 O407 2.032 . S
Zn406 O410 2.086 . S
Zn406 O415 1.977 . S
O407 Zn406 2.032 . S
O407 C411 1.278 . S
C408 O409 1.203 . S
C408 O415 1.267 . S
O409 C408 1.203 . S
O410 C403 1.185 . S
O410 Zn406 2.086 . S
C411 O407 1.278 . S
C411 O412 1.211 . S
O412 C411 1.211 . S
C413 O405 1.284 . S
C413 O414 1.273 . S
O414 C413 1.273 . S
O415 Zn406 1.977 . S
O415 C408 1.267 . S
C416 O417 1.160 . S
C416 O423 1.185 . S
O417 C416 1.160 . S
O418 Zn419 1.899 . S
O418 C426 1.284 . S
Zn419 O418 1.899 . S
Zn419 O420 2.032 . S
Zn419 O423 2.086 . S
Zn419 O428 1.977 . S
O420 Zn419 2.032 . S
O420 C424 1.278 . S
C421 O422 1.203 . S
C421 O428 1.267 . S
O422 C421 1.203 . S
O423 C416 1.185 . S
O423 Zn419 2.086 . S
C424 O420 1.278 . S
C424 O425 1.211 . S
O425 C424 1.211 . S
C426 O418 1.284 . S
C426 O427 1.273 . S
O427 C426 1.273 . S
O428 Zn419 1.977 . S
O428 C421 1.267 . S
C429 O430 1.160 . S
C429 O436 1.185 . S
O430 C429 1.160 . S
O431 Zn432 1.899 . S
O431 C439 1.284 . S
Zn432 O431 1.899 . S
Zn432 O433 2.032 . S
Zn432 O436 2.086 . S
Zn432 O441 1.977 . S
O433 Zn432 2.032 . S
O433 C437 1.278 . S
C434 O435 1.203 . S
C434 O441 1.267 . S
O435 C434 1.203 . S
O436 C429 1.185 . S
O436 Zn432 2.086 . S
C437 O433 1.278 . S
C437 O438 1.211 . S
O438 C437 1.211 . S
C439 O431 1.284 . S
C439 O440 1.273 . S
O440 C439 1.273 . S
O441 Zn432 1.977 . S
O441 C434 1.267 . S
C442 O443 1.160 . S
C442 O449 1.185 . S
O443 C442 1.160 . S
O444 Zn445 1.899 . S
O444 C452 1.284 . S
Zn445 O444 1.899 . S
Zn445 O446 2.032 . S
Zn445 O449 2.086 . S
Zn445 O454 1.977 . S
O446 Zn445 2.032 . S
O446 C450 1.278 . S
C447 O448 1.203 . S
C447 O454 1.267 . S
O448 C447 1.203 . S
O449 C442 1.185 . S
O449 Zn445 2.086 . S
C450 O446 1.278 . S
C450 O451 1.211 . S
O451 C450 1.211 . S
C452 O444 1.284 . S
C452 O453 1.273 . S
O453 C452 1.273 . S
O454 Zn445 1.977 . S
O454 C447 1.267 . S
C455 O456 1.160 . S
C455 O462 1.185 . S
O456 C455 1.160 . S
O457 Zn458 1.899 . S
O457 C465 1.284 . S
Zn458 O457 1.899 . S
Zn458 O459 2.032 . S
Zn458 O462 2.086 . S
Zn458 O467 1.977 . S
O459 Zn458 2.032 . S
O459 C463 1.278 . S
C460 O461 1.203 . S
C460 O467 1.267 . S
O461 C460 1.203 . S
O462 C455 1.185 . S
O462 Zn458 2.086 . S
C463 O459 1.278 . S
C463 O464 1.211 . S
O464 C463 1.211 . S
C465 O457 1.284 . S
C465 O466 1.273 . S
O466 C465 1.273 . S
O467 Zn458 1.977 . S
O467 C460 1.267 . S
H468 C474 0.930 . S
H469 C477 0.930 . S
H470 C478 0.930 . S
H471 C479 0.930 . S
H472 C482 0.930 . S
H473 C483 0.930 . S
C474 H468 0.930 . S
C474 C475 1.355 . S
C474 C476 1.415 . S
C475 C474 1.355 . S
C475 C477 1.419 . S
C476 C474 1.415 . S
C476 C481 1.425 . S
C476 C483 1.409 . S
C477 H469 0.930 . S
C477 C475 1.419 . S
C477 C478 1.362 . S
C478 H470 0.930 . S
C478 C477 1.362 . S
C478 C481 1.409 . S
C479 H471 0.930 . S
C479 C480 1.355 . S
C479 C481 1.415 . S
C480 C479 1.355 . S
C480 C482 1.419 . S
C481 C476 1.425 . S
C481 C478 1.409 . S
C481 C479 1.415 . S
C482 H472 0.930 . S
C482 C480 1.419 . S
C482 C483 1.362 . S
C483 H473 0.930 . S
C483 C476 1.409 . S
C483 C482 1.362 . S
H484 C490 0.930 . S
H485 C493 0.930 . S
H486 C494 0.930 . S
H487 C495 0.930 . S
H488 C498 0.930 . S
H489 C499 0.930 . S
C490 H484 0.930 . S
C490 C491 1.355 . S
C490 C492 1.415 . S
C491 C490 1.355 . S
C491 C493 1.419 . S
C492 C490 1.415 . S
C492 C497 1.425 . S
C492 C499 1.409 . S
C493 H485 0.930 . S
C493 C491 1.419 . S
C493 C494 1.362 . S
C494 H486 0.930 . S
C494 C493 1.362 . S
C494 C497 1.409 . S
C495 H487 0.930 . S
C495 C496 1.355 . S
C495 C497 1.415 . S
C496 C495 1.355 . S
C496 C498 1.419 . S
C497 C492 1.425 . S
C497 C494 1.409 . S
C497 C495 1.415 . S
C498 H488 0.930 . S
C498 C496 1.419 . S
C498 C499 1.362 . S
C499 H489 0.930 . S
C499 C492 1.409 . S
C499 C498 1.362 . S
H500 C506 0.930 . S
H501 C509 0.930 . S
H502 C510 0.930 . S
H503 C511 0.930 . S
H504 C514 0.930 . S
H505 C515 0.930 . S
C506 H500 0.930 . S
C506 C507 1.355 . S
C506 C508 1.415 . S
C507 C506 1.355 . S
C507 C509 1.419 . S
C508 C506 1.415 . S
C508 C513 1.425 . S
C508 C515 1.409 . S
C509 H501 0.930 . S
C509 C507 1.419 . S
C509 C510 1.362 . S
C510 H502 0.930 . S
C510 C509 1.362 . S
C510 C513 1.409 . S
C511 H503 0.930 . S
C511 C512 1.355 . S
C511 C513 1.415 . S
C512 C511 1.355 . S
C512 C514 1.419 . S
C513 C508 1.425 . S
C513 C510 1.409 . S
C513 C511 1.415 . S
C514 H504 0.930 . S
C514 C512 1.419 . S
C514 C515 1.362 . S
C515 H505 0.930 . S
C515 C508 1.409 . S
C515 C514 1.362 . S
H516 C522 0.930 . S
H517 C525 0.930 . S
H518 C526 0.930 . S
H519 C527 0.930 . S
H520 C530 0.930 . S
H521 C531 0.930 . S
C522 H516 0.930 . S
C522 C523 1.355 . S
C522 C524 1.415 . S
C523 C522 1.355 . S
C523 C525 1.419 . S
C524 C522 1.415 . S
C524 C529 1.425 . S
C524 C531 1.409 . S
C525 H517 0.930 . S
C525 C523 1.419 . S
C525 C526 1.362 . S
C526 H518 0.930 . S
C526 C525 1.362 . S
C526 C529 1.409 . S
C527 H519 0.930 . S
C527 C528 1.355 . S
C527 C529 1.415 . S
C528 C527 1.355 . S
C528 C530 1.419 . S
C529 C524 1.425 . S
C529 C526 1.409 . S
C529 C527 1.415 . S
C530 H520 0.930 . S
C530 C528 1.419 . S
C530 C531 1.362 . S
C531 H521 0.930 . S
C531 C524 1.409 . S
C531 C530 1.362 . S
H532 C538 0.930 . S
H533 C541 0.930 . S
H534 C542 0.930 . S
H535 C543 0.930 . S
H536 C546 0.930 . S
H537 C547 0.930 . S
C538 H532 0.930 . S
C538 C539 1.355 . S
C538 C540 1.415 . S
C539 C538 1.355 . S
C539 C541 1.419 . S
C540 C538 1.415 . S
C540 C545 1.425 . S
C540 C547 1.409 . S
C541 H533 0.930 . S
C541 C539 1.419 . S
C541 C542 1.362 . S
C542 H534 0.930 . S
C542 C541 1.362 . S
C542 C545 1.409 . S
C543 H535 0.930 . S
C543 C544 1.355 . S
C543 C545 1.415 . S
C544 C543 1.355 . S
C544 C546 1.419 . S
C545 C540 1.425 . S
C545 C542 1.409 . S
C545 C543 1.415 . S
C546 H536 0.930 . S
C546 C544 1.419 . S
C546 C547 1.362 . S
C547 H537 0.930 . S
C547 C540 1.409 . S
C547 C546 1.362 . S
H548 C554 0.930 . S
H549 C557 0.930 . S
H550 C558 0.930 . S
H551 C559 0.930 . S
H552 C562 0.930 . S
H553 C563 0.930 . S
C554 H548 0.930 . S
C554 C555 1.355 . S
C554 C556 1.415 . S
C555 C554 1.355 . S
C555 C557 1.419 . S
C556 C554 1.415 . S
C556 C561 1.425 . S
C556 C563 1.409 . S
C557 H549 0.930 . S
C557 C555 1.419 . S
C557 C558 1.362 . S
C558 H550 0.930 . S
C558 C557 1.362 . S
C558 C561 1.409 . S
C559 H551 0.930 . S
C559 C560 1.355 . S
C559 C561 1.415 . S
C560 C559 1.355 . S
C560 C562 1.419 . S
C561 C556 1.425 . S
C561 C558 1.409 . S
C561 C559 1.415 . S
C562 H552 0.930 . S
C562 C560 1.419 . S
C562 C563 1.362 . S
C563 H553 0.930 . S
C563 C556 1.409 . S
C563 C562 1.362 . S
H564 C570 0.930 . S
H565 C573 0.930 . S
H566 C574 0.930 . S
H567 C575 0.930 . S
H568 C578 0.930 . S
H569 C579 0.930 . S
C570 H564 0.930 . S
C570 C571 1.355 . S
C570 C572 1.415 . S
C571 C570 1.355 . S
C571 C573 1.419 . S
C572 C570 1.415 . S
C572 C577 1.425 . S
C572 C579 1.409 . S
C573 H565 0.930 . S
C573 C571 1.419 . S
C573 C574 1.362 . S
C574 H566 0.930 . S
C574 C573 1.362 . S
C574 C577 1.409 . S
C575 H567 0.930 . S
C575 C576 1.355 . S
C575 C577 1.415 . S
C576 C575 1.355 . S
C576 C578 1.419 . S
C577 C572 1.425 . S
C577 C574 1.409 . S
C577 C575 1.415 . S
C578 H568 0.930 . S
C578 C576 1.419 . S
C578 C579 1.362 . S
C579 H569 0.930 . S
C579 C572 1.409 . S
C579 C578 1.362 . S
H580 C586 0.930 . S
H581 C589 0.930 . S
H582 C590 0.930 . S
H583 C591 0.930 . S
H584 C594 0.930 . S
H585 C595 0.930 . S
C586 H580 0.930 . S
C586 C587 1.355 . S
C586 C588 1.415 . S
C587 C586 1.355 . S
C587 C589 1.419 . S
C588 C586 1.415 . S
C588 C593 1.425 . S
C588 C595 1.409 . S
C589 H581 0.930 . S
C589 C587 1.419 . S
C589 C590 1.362 . S
C590 H582 0.930 . S
C590 C589 1.362 . S
C590 C593 1.409 . S
C591 H583 0.930 . S
C591 C592 1.355 . S
C591 C593 1.415 . S
C592 C591 1.355 . S
C592 C594 1.419 . S
C593 C588 1.425 . S
C593 C590 1.409 . S
C593 C591 1.415 . S
C594 H584 0.930 . S
C594 C592 1.419 . S
C594 C595 1.362 . S
C595 H585 0.930 . S
C595 C588 1.409 . S
C595 C594 1.362 . S
H596 C602 0.930 . S
H597 C605 0.930 . S
H598 C606 0.930 . S
H599 C607 0.930 . S
H600 C610 0.930 . S
H601 C611 0.930 . S
C602 H596 0.930 . S
C602 C603 1.355 . S
C602 C604 1.415 . S
C603 C602 1.355 . S
C603 C605 1.419 . S
C604 C602 1.415 . S
C604 C609 1.425 . S
C604 C611 1.409 . S
C605 H597 0.930 . S
C605 C603 1.419 . S
C605 C606 1.362 . S
C606 H598 0.930 . S
C606 C605 1.362 . S
C606 C609 1.409 . S
C607 H599 0.930 . S
C607 C608 1.355 . S
C607 C609 1.415 . S
C608 C607 1.355 . S
C608 C610 1.419 . S
C609 C604 1.425 . S
C609 C606 1.409 . S
C609 C607 1.415 . S
C610 H600 0.930 . S
C610 C608 1.419 . S
C610 C611 1.362 . S
C611 H601 0.930 . S
C611 C604 1.409 . S
C611 C610 1.362 . S
H612 C618 0.930 . S
H613 C621 0.930 . S
H614 C622 0.930 . S
H615 C623 0.930 . S
H616 C626 0.930 . S
H617 C627 0.930 . S
C618 H612 0.930 . S
C618 C619 1.355 . S
C618 C620 1.415 . S
C619 C618 1.355 . S
C619 C621 1.419 . S
C620 C618 1.415 . S
C620 C625 1.425 . S
C620 C627 1.409 . S
C621 H613 0.930 . S
C621 C619 1.419 . S
C621 C622 1.362 . S
C622 H614 0.930 . S
C622 C621 1.362 . S
C622 C625 1.409 . S
C623 H615 0.930 . S
C623 C624 1.355 . S
C623 C625 1.415 . S
C624 C623 1.355 . S
C624 C626 1.419 . S
C625 C620 1.425 . S
C625 C622 1.409 . S
C625 C623 1.415 . S
C626 H616 0.930 . S
C626 C624 1.419 . S
C626 C627 1.362 . S
C627 H617 0.930 . S
C627 C620 1.409 . S
C627 C626 1.362 . S
H628 C634 0.930 . S
H629 C637 0.930 . S
H630 C638 0.930 . S
H631 C639 0.930 . S
H632 C642 0.930 . S
H633 C643 0.930 . S
C634 H628 0.930 . S
C634 C635 1.355 . S
C634 C636 1.415 . S
C635 C634 1.355 . S
C635 C637 1.419 . S
C636 C634 1.415 . S
C636 C641 1.425 . S
C636 C643 1.409 . S
C637 H629 0.930 . S
C637 C635 1.419 . S
C637 C638 1.362 . S
C638 H630 0.930 . S
C638 C637 1.362 . S
C638 C641 1.409 . S
C639 H631 0.930 . S
C639 C640 1.355 . S
C639 C641 1.415 . S
C640 C639 1.355 . S
C640 C642 1.419 . S
C641 C636 1.425 . S
C641 C638 1.409 . S
C641 C639 1.415 . S
C642 H632 0.930 . S
C642 C640 1.419 . S
C642 C643 1.362 . S
C643 H633 0.930 . S
C643 C636 1.409 . S
C643 C642 1.362 . S
H644 C650 0.930 . S
H645 C653 0.930 . S
H646 C654 0.930 . S
H647 C655 0.930 . S
H648 C658 0.930 . S
H649 C659 0.930 . S
C650 H644 0.930 . S
C650 C651 1.355 . S
C650 C652 1.415 . S
C651 C650 1.355 . S
C651 C653 1.419 . S
C652 C650 1.415 . S
C652 C657 1.425 . S
C652 C659 1.409 . S
C653 H645 0.930 . S
C653 C651 1.419 . S
C653 C654 1.362 . S
C654 H646 0.930 . S
C654 C653 1.362 . S
C654 C657 1.409 . S
C655 H647 0.930 . S
C655 C656 1.355 . S
C655 C657 1.415 . S
C656 C655 1.355 . S
C656 C658 1.419 . S
C657 C652 1.425 . S
C657 C654 1.409 . S
C657 C655 1.415 . S
C658 H648 0.930 . S
C658 C656 1.419 . S
C658 C659 1.362 . S
C659 H649 0.930 . S
C659 C652 1.409 . S
C659 C658 1.362 . S
H660 C666 0.930 . S
H661 C669 0.930 . S
H662 C670 0.930 . S
H663 C671 0.930 . S
H664 C674 0.930 . S
H665 C675 0.930 . S
C666 H660 0.930 . S
C666 C667 1.355 . S
C666 C668 1.415 . S
C667 C666 1.355 . S
C667 C669 1.419 1_455 S
C668 C666 1.415 . S
C668 C673 1.425 1_455 S
C668 C675 1.409 . S
C669 H661 0.930 . S
C669 C667 1.419 1_655 S
C669 C670 1.362 . S
C670 H662 0.930 . S
C670 C669 1.362 . S
C670 C673 1.409 . S
C671 H663 0.930 . S
C671 C672 1.355 . S
C671 C673 1.415 . S
C672 C671 1.355 . S
C672 C674 1.419 1_655 S
C673 C668 1.425 1_655 S
C673 C670 1.409 . S
C673 C671 1.415 . S
C674 H664 0.930 . S
C674 C672 1.419 1_455 S
C674 C675 1.362 . S
C675 H665 0.930 . S
C675 C668 1.409 . S
C675 C674 1.362 . S
H676 C682 0.930 . S
H677 C685 0.930 . S
H678 C686 0.930 . S
H679 C687 0.930 . S
H680 C690 0.930 . S
H681 C691 0.930 . S
C682 H676 0.930 . S
C682 C683 1.355 . S
C682 C684 1.415 . S
C683 C682 1.355 . S
C683 C685 1.419 . S
C684 C682 1.415 . S
C684 C689 1.425 . S
C684 C691 1.409 . S
C685 H677 0.930 . S
C685 C683 1.419 . S
C685 C686 1.362 . S
C686 H678 0.930 . S
C686 C685 1.362 . S
C686 C689 1.409 . S
C687 H679 0.930 . S
C687 C688 1.355 . S
C687 C689 1.415 . S
C688 C687 1.355 . S
C688 C690 1.419 . S
C689 C684 1.425 . S
C689 C686 1.409 . S
C689 C687 1.415 . S
C690 H680 0.930 . S
C690 C688 1.419 . S
C690 C691 1.362 . S
C691 H681 0.930 . S
C691 C684 1.409 . S
C691 C690 1.362 . S
H692 C698 0.930 . S
H693 C701 0.930 . S
H694 C702 0.930 . S
H695 C703 0.930 . S
H696 C706 0.930 . S
H697 C707 0.930 . S
C698 H692 0.930 . S
C698 C699 1.355 . S
C698 C700 1.415 . S
C699 C698 1.355 . S
C699 C701 1.419 . S
C700 C698 1.415 . S
C700 C705 1.425 1_545 S
C700 C707 1.409 1_545 S
C701 H693 0.930 . S
C701 C699 1.419 . S
C701 C702 1.362 . S
C702 H694 0.930 . S
C702 C701 1.362 . S
C702 C705 1.409 1_545 S
C703 H695 0.930 . S
C703 C704 1.355 . S
C703 C705 1.415 . S
C704 C703 1.355 . S
C704 C706 1.419 . S
C705 C700 1.425 1_565 S
C705 C702 1.409 1_565 S
C705 C703 1.415 . S
C706 H696 0.930 . S
C706 C704 1.419 . S
C706 C707 1.362 . S
C707 H697 0.930 . S
C707 C700 1.409 1_565 S
C707 C706 1.362 . S
H708 C714 0.930 . S
H709 C717 0.930 . S
H710 C718 0.930 1_556 S
H711 C719 0.930 . S
H712 C722 0.930 . S
H713 C723 0.930 1_554 S
C714 H708 0.930 . S
C714 C715 1.355 . S
C714 C716 1.415 . S
C715 C714 1.355 . S
C715 C717 1.419 . S
C716 C714 1.415 . S
C716 C721 1.425 1_564 S
C716 C723 1.409 1_564 S
C717 H709 0.930 . S
C717 C715 1.419 . S
C717 C718 1.362 . S
C718 H710 0.930 1_554 S
C718 C717 1.362 . S
C718 C721 1.409 1_564 S
C719 H711 0.930 . S
C719 C720 1.355 . S
C719 C721 1.415 . S
C720 C719 1.355 . S
C720 C722 1.419 . S
C721 C716 1.425 1_546 S
C721 C718 1.409 1_546 S
C721 C719 1.415 . S
C722 H712 0.930 . S
C722 C720 1.419 . S
C722 C723 1.362 . S
C723 H713 0.930 1_556 S
C723 C716 1.409 1_546 S
C723 C722 1.362 . S
H724 C730 0.930 1_455 S
H725 C733 0.930 . S
H726 C734 0.930 1_554 S
H727 C735 0.930 1_655 S
H728 C738 0.930 . S
H729 C739 0.930 1_556 S
C730 H724 0.930 1_655 S
C730 C731 1.355 . S
C730 C732 1.415 1_655 S
C731 C730 1.355 . S
C731 C733 1.419 . S
C732 C730 1.415 1_455 S
C732 C737 1.425 1_456 S
C732 C739 1.409 1_556 S
C733 H725 0.930 . S
C733 C731 1.419 . S
C733 C734 1.362 . S
C734 H726 0.930 1_556 S
C734 C733 1.362 . S
C734 C737 1.409 1_556 S
C735 H727 0.930 1_455 S
C735 C736 1.355 . S
C735 C737 1.415 1_455 S
C736 C735 1.355 . S
C736 C738 1.419 . S
C737 C732 1.425 1_654 S
C737 C734 1.409 1_554 S
C737 C735 1.415 1_655 S
C738 H728 0.930 . S
C738 C736 1.419 . S
C738 C739 1.362 . S
C739 H729 0.930 1_554 S
C739 C732 1.409 1_554 S
C739 C738 1.362 . S
H740 C746 0.930 . S
H741 C749 0.930 . S
H742 C750 0.887 1_554 S
H743 C751 0.930 . S
H744 C754 0.930 . S
H745 C755 0.887 1_556 S
C746 H740 0.930 . S
C746 C747 1.355 . S
C746 C748 1.415 . S
C747 C746 1.355 . S
C747 C749 1.419 . S
C748 C746 1.415 . S
C748 C753 1.425 1_556 S
C748 C755 1.381 1_556 S
C749 H741 0.930 . S
C749 C747 1.419 . S
C749 C750 1.438 . S
C750 H742 0.887 1_556 S
C750 C749 1.438 . S
C750 C753 1.381 1_556 S
C751 H743 0.930 . S
C751 C752 1.355 . S
C751 C753 1.415 . S
C752 C751 1.355 . S
C752 C754 1.419 . S
C753 C748 1.425 1_554 S
C753 C750 1.381 1_554 S
C753 C751 1.415 . S
C754 H744 0.930 . S
C754 C752 1.419 . S
C754 C755 1.438 . S
C755 H745 0.887 1_554 S
C755 C748 1.381 1_554 S
C755 C754 1.438 . S
H756 C762 0.930 . S
H757 C765 0.930 . S
H758 C766 0.930 1_565 S
H759 C767 0.930 . S
H760 C770 0.931 1_565 S
H761 C771 0.930 . S
C762 H756 0.930 . S
C762 C763 1.355 . S
C762 C764 1.415 . S
C763 C762 1.355 . S
C763 C765 1.419 . S
C764 C762 1.415 . S
C764 C769 1.425 . S
C764 C771 1.409 . S
C765 H757 0.930 . S
C765 C763 1.419 . S
C765 C766 1.362 . S
C766 H758 0.930 1_545 S
C766 C765 1.362 . S
C766 C769 1.409 . S
C767 H759 0.930 . S
C767 C768 1.355 . S
C767 C769 1.415 1_565 S
C768 C767 1.355 . S
C768 C770 1.421 1_565 S
C769 C764 1.425 . S
C769 C766 1.409 . S
C769 C767 1.415 1_545 S
C770 H760 0.931 1_545 S
C770 C768 1.421 1_545 S
C770 C771 1.360 . S
C771 H761 0.930 . S
C771 C764 1.409 . S
C771 C770 1.360 . S
H772 C778 0.930 . S
H773 C781 0.930 . S
H774 C782 0.930 . S
H775 C783 0.930 . S
H776 C786 0.930 . S
H777 C787 0.930 . S
C778 H772 0.930 . S
C778 C779 1.355 . S
C778 C780 1.415 . S
C779 C778 1.355 . S
C779 C781 1.419 1_455 S
C780 C778 1.415 . S
C780 C785 1.425 1_455 S
C780 C787 1.409 . S
C781 H773 0.930 . S
C781 C779 1.419 1_655 S
C781 C782 1.362 . S
C782 H774 0.930 . S
C782 C781 1.362 . S
C782 C785 1.409 . S
C783 H775 0.930 . S
C783 C784 1.355 . S
C783 C785 1.415 . S
C784 C783 1.355 . S
C784 C786 1.419 . S
C785 C780 1.425 1_655 S
C785 C782 1.409 . S
C785 C783 1.415 . S
C786 H776 0.930 . S
C786 C784 1.419 . S
C786 C787 1.362 1_655 S
C787 H777 0.930 . S
C787 C780 1.409 . S
C787 C786 1.362 1_455 S
H788 C794 0.930 . S
H789 C797 0.930 . S
H790 C798 0.930 . S
H791 C799 0.930 . S
H792 C802 0.930 . S
H793 C803 0.930 . S
C794 H788 0.930 . S
C794 C795 1.355 . S
C794 C796 1.415 . S
C795 C794 1.355 . S
C795 C797 1.419 . S
C796 C794 1.415 . S
C796 C801 1.425 . S
C796 C803 1.409 . S
C797 H789 0.930 . S
C797 C795 1.419 . S
C797 C798 1.362 . S
C798 H790 0.930 . S
C798 C797 1.362 . S
C798 C801 1.409 . S
C799 H791 0.930 . S
C799 C800 1.355 . S
C799 C801 1.415 . S
C800 C799 1.355 . S
C800 C802 1.419 . S
C801 C796 1.425 . S
C801 C798 1.409 . S
C801 C799 1.415 . S
C802 H792 0.930 . S
C802 C800 1.419 . S
C802 C803 1.362 . S
C803 H793 0.930 . S
C803 C796 1.409 . S
C803 C802 1.362 . S
H804 C810 0.930 . S
H805 C813 0.930 . S
H806 C814 0.930 . S
H807 C815 0.930 . S
H808 C818 0.930 1_655 S
H809 C819 0.930 . S
C810 H804 0.930 . S
C810 C811 1.355 . S
C810 C812 1.415 . S
C811 C810 1.355 . S
C811 C813 1.419 1_655 S
C812 C810 1.415 . S
C812 C817 1.425 1_655 S
C812 C819 1.409 . S
C813 H805 0.930 . S
C813 C811 1.419 1_455 S
C813 C814 1.362 . S
C814 H806 0.930 . S
C814 C813 1.362 . S
C814 C817 1.409 . S
C815 H807 0.930 . S
C815 C816 1.355 . S
C815 C817 1.415 . S
C816 C815 1.355 . S
C816 C818 1.419 . S
C817 C812 1.425 1_455 S
C817 C814 1.409 . S
C817 C815 1.415 . S
C818 H808 0.930 1_455 S
C818 C816 1.419 . S
C818 C819 1.362 1_455 S
C819 H809 0.930 . S
C819 C812 1.409 . S
C819 C818 1.362 1_655 S
H820 C826 0.930 . S
H821 C829 0.930 . S
H822 C830 0.930 . S
H823 C831 0.930 . S
H824 C834 0.930 . S
H825 C835 0.930 . S
C826 H820 0.930 . S
C826 C827 1.355 . S
C826 C828 1.415 . S
C827 C826 1.355 . S
C827 C829 1.419 . S
C828 C826 1.415 . S
C828 C833 1.425 . S
C828 C835 1.409 . S
C829 H821 0.930 . S
C829 C827 1.419 . S
C829 C830 1.362 . S
C830 H822 0.930 . S
C830 C829 1.362 . S
C830 C833 1.409 . S
C831 H823 0.930 . S
C831 C832 1.355 . S
C831 C833 1.415 . S
C832 C831 1.355 . S
C832 C834 1.419 . S
C833 C828 1.425 . S
C833 C830 1.409 . S
C833 C831 1.415 . S
C834 H824 0.930 . S
C834 C832 1.419 . S
C834 C835 1.362 . S
C835 H825 0.930 . S
C835 C828 1.409 . S
C835 C834 1.362 . S
H836 C842 0.930 . S
H837 C845 0.930 . S
H838 C846 0.930 . S
H839 C847 0.915 1_545 S
H840 C850 0.930 . S
H841 C851 0.930 . S
C842 H836 0.930 . S
C842 C843 1.355 1_565 S
C842 C844 1.415 . S
C843 C842 1.355 1_545 S
C843 C845 1.419 . S
C844 C842 1.415 . S
C844 C849 1.425 . S
C844 C851 1.409 . S
C845 H837 0.930 . S
C845 C843 1.419 . S
C845 C846 1.362 . S
C846 H838 0.930 . S
C846 C845 1.362 . S
C846 C849 1.409 1_545 S
C847 H839 0.915 1_565 S
C847 C848 1.355 . S
C847 C849 1.415 . S
C848 C847 1.355 . S
C848 C850 1.419 . S
C849 C844 1.425 . S
C849 C846 1.409 1_565 S
C849 C847 1.415 . S
C850 H840 0.930 . S
C850 C848 1.419 . S
C850 C851 1.362 . S
C851 H841 0.930 . S
C851 C844 1.409 . S
C851 C850 1.362 . S
H852 C858 0.930 . S
H853 C861 0.930 . S
H854 C862 0.930 . S
H855 C863 0.930 . S
H856 C866 0.930 . S
H857 C867 0.930 . S
C858 H852 0.930 . S
C858 C859 1.355 . S
C858 C860 1.415 . S
C859 C858 1.355 . S
C859 C861 1.419 . S
C860 C858 1.415 . S
C860 C865 1.425 . S
C860 C867 1.409 1_565 S
C861 H853 0.930 . S
C861 C859 1.419 . S
C861 C862 1.362 . S
C862 H854 0.930 . S
C862 C861 1.362 . S
C862 C865 1.409 . S
C863 H855 0.930 . S
C863 C864 1.355 1_565 S
C863 C865 1.415 . S
C864 C863 1.355 1_545 S
C864 C866 1.419 . S
C865 C860 1.425 . S
C865 C862 1.409 . S
C865 C863 1.415 . S
C866 H856 0.930 . S
C866 C864 1.419 . S
C866 C867 1.362 . S
C867 H857 0.930 . S
C867 C860 1.409 1_545 S
C867 C866 1.362 . S
H868 C874 0.930 . S
H869 C877 0.930 . S
H870 C878 0.930 . S
H871 C879 0.930 1_655 S
H872 C882 0.930 . S
H873 C883 0.930 . S
C874 H868 0.930 . S
C874 C875 1.355 1_455 S
C874 C876 1.415 . S
C875 C874 1.355 1_655 S
C875 C877 1.419 . S
C876 C874 1.415 . S
C876 C881 1.407 1_455 S
C876 C883 1.409 . S
C877 H869 0.930 . S
C877 C875 1.419 . S
C877 C878 1.362 . S
C878 H870 0.930 . S
C878 C877 1.362 . S
C878 C881 1.424 . S
C879 H871 0.930 1_455 S
C879 C880 1.355 . S
C879 C881 1.418 1_455 S
C880 C879 1.355 . S
C880 C882 1.419 . S
C881 C876 1.407 1_655 S
C881 C878 1.424 . S
C881 C879 1.418 1_655 S
C882 H872 0.930 . S
C882 C880 1.419 . S
C882 C883 1.362 . S
C883 H873 0.930 . S
C883 C876 1.409 . S
C883 C882 1.362 . S
H884 C890 0.930 . S
H885 C893 0.930 . S
H886 C894 0.930 . S
H887 C895 0.930 . S
H888 C898 0.930 . S
H889 C899 0.930 . S
C890 H884 0.930 . S
C890 C891 1.355 . S
C890 C892 1.415 . S
C891 C890 1.355 . S
C891 C893 1.419 . S
C892 C890 1.415 . S
C892 C897 1.425 . S
C892 C899 1.409 . S
C893 H885 0.930 . S
C893 C891 1.419 . S
C893 C894 1.362 . S
C894 H886 0.930 . S
C894 C893 1.362 . S
C894 C897 1.409 . S
C895 H887 0.930 . S
C895 C896 1.355 . S
C895 C897 1.415 . S
C896 C895 1.355 . S
C896 C898 1.419 . S
C897 C892 1.425 . S
C897 C894 1.409 . S
C897 C895 1.415 . S
C898 H888 0.930 . S
C898 C896 1.419 . S
C898 C899 1.362 . S
C899 H889 0.930 . S
C899 C892 1.409 . S
C899 C898 1.362 . S
H900 C906 0.930 . S
H901 C909 0.930 . S
H902 C910 0.930 . S
H903 C911 0.930 . S
H904 C914 0.930 . S
H905 C915 0.930 . S
C906 H900 0.930 . S
C906 C907 1.355 . S
C906 C908 1.415 . S
C907 C906 1.355 . S
C907 C909 1.419 . S
C908 C906 1.415 . S
C908 C913 1.425 . S
C908 C915 1.409 1_655 S
C909 H901 0.930 . S
C909 C907 1.419 . S
C909 C910 1.362 . S
C910 H902 0.930 . S
C910 C909 1.362 . S
C910 C913 1.409 . S
C911 H903 0.930 . S
C911 C912 1.355 1_655 S
C911 C913 1.415 . S
C912 C911 1.355 1_455 S
C912 C914 1.419 . S
C913 C908 1.425 . S
C913 C910 1.409 . S
C913 C911 1.415 . S
C914 H904 0.930 . S
C914 C912 1.419 . S
C914 C915 1.362 . S
C915 H905 0.930 . S
C915 C908 1.409 1_455 S
C915 C914 1.362 . S
H916 C922 0.930 . S
H917 C925 0.930 . S
H918 C926 0.930 . S
H919 C927 0.930 . S
H920 C930 0.930 . S
H921 C931 0.930 . S
C922 H916 0.930 . S
C922 C923 1.355 . S
C922 C924 1.415 . S
C923 C922 1.355 . S
C923 C925 1.419 . S
C924 C922 1.415 . S
C924 C929 1.425 . S
C924 C931 1.409 . S
C925 H917 0.930 . S
C925 C923 1.419 . S
C925 C926 1.362 . S
C926 H918 0.930 . S
C926 C925 1.362 . S
C926 C929 1.409 . S
C927 H919 0.930 . S
C927 C928 1.355 . S
C927 C929 1.415 . S
C928 C927 1.355 . S
C928 C930 1.419 . S
C929 C924 1.425 . S
C929 C926 1.409 . S
C929 C927 1.415 . S
C930 H920 0.930 . S
C930 C928 1.419 . S
C930 C931 1.362 . S
C931 H921 0.930 . S
C931 C924 1.409 . S
C931 C930 1.362 . S
H932 C938 0.930 . S
H933 C941 0.930 . S
H934 C942 0.930 . S
H935 C943 0.930 . S
H936 C946 0.930 . S
H937 C947 0.930 . S
C938 H932 0.930 . S
C938 C939 1.355 . S
C938 C940 1.415 . S
C939 C938 1.355 . S
C939 C941 1.419 . S
C940 C938 1.415 . S
C940 C945 1.425 . S
C940 C947 1.409 1_545 S
C941 H933 0.930 . S
C941 C939 1.419 . S
C941 C942 1.362 . S
C942 H934 0.930 . S
C942 C941 1.362 . S
C942 C945 1.409 . S
C943 H935 0.930 . S
C943 C944 1.355 1_545 S
C943 C945 1.415 . S
C944 C943 1.355 1_565 S
C944 C946 1.419 . S
C945 C940 1.425 . S
C945 C942 1.409 . S
C945 C943 1.415 . S
C946 H936 0.930 . S
C946 C944 1.419 . S
C946 C947 1.362 . S
C947 H937 0.930 . S
C947 C940 1.409 1_565 S
C947 C946 1.362 . S
H948 C954 0.930 . S
H949 C957 0.930 . S
H950 C958 0.930 . S
H951 C959 0.930 . S
H952 C962 0.930 . S
H953 C963 0.930 . S
C954 H948 0.930 . S
C954 C955 1.355 . S
C954 C956 1.415 . S
C955 C954 1.355 . S
C955 C957 1.419 . S
C956 C954 1.415 . S
C956 C961 1.425 . S
C956 C963 1.409 . S
C957 H949 0.930 . S
C957 C955 1.419 . S
C957 C958 1.362 . S
C958 H950 0.930 . S
C958 C957 1.362 . S
C958 C961 1.409 . S
C959 H951 0.930 . S
C959 C960 1.355 . S
C959 C961 1.415 . S
C960 C959 1.355 . S
C960 C962 1.419 . S
C961 C956 1.425 . S
C961 C958 1.409 . S
C961 C959 1.415 . S
C962 H952 0.930 . S
C962 C960 1.419 . S
C962 C963 1.362 . S
C963 H953 0.930 . S
C963 C956 1.409 . S
C963 C962 1.362 . S
H964 C970 0.930 . S
H965 C973 0.930 . S
H966 C974 0.930 . S
H967 C975 0.930 . S
H968 C978 0.930 . S
H969 C979 0.930 . S
C970 H964 0.930 . S
C970 C971 1.355 . S
C970 C972 1.415 . S
C971 C970 1.355 . S
C971 C973 1.419 . S
C972 C970 1.415 . S
C972 C977 1.425 1_545 S
C972 C979 1.409 1_545 S
C973 H965 0.930 . S
C973 C971 1.419 . S
C973 C974 1.362 . S
C974 H966 0.930 . S
C974 C973 1.362 . S
C974 C977 1.409 1_545 S
C975 H967 0.930 . S
C975 C976 1.355 . S
C975 C977 1.415 . S
C976 C975 1.355 . S
C976 C978 1.419 . S
C977 C972 1.425 1_565 S
C977 C974 1.409 1_565 S
C977 C975 1.415 . S
C978 H968 0.930 . S
C978 C976 1.419 . S
C978 C979 1.362 . S
C979 H969 0.930 . S
C979 C972 1.409 1_565 S
C979 C978 1.362 . S
H980 C986 0.930 . S
H981 C989 0.930 . S
H982 C990 0.930 . S
H983 C991 0.930 . S
H984 C994 0.930 . S
H985 C995 0.930 . S
C986 H980 0.930 . S
C986 C987 1.355 . S
C986 C988 1.415 . S
C987 C986 1.355 . S
C987 C989 1.419 . S
C988 C986 1.415 . S
C988 C993 1.425 1_655 S
C988 C995 1.409 1_655 S
C989 H981 0.930 . S
C989 C987 1.419 . S
C989 C990 1.362 . S
C990 H982 0.930 . S
C990 C989 1.362 . S
C990 C993 1.409 1_655 S
C991 H983 0.930 . S
C991 C992 1.355 . S
C991 C993 1.415 . S
C992 C991 1.355 . S
C992 C994 1.419 . S
C993 C988 1.425 1_455 S
C993 C990 1.409 1_455 S
C993 C991 1.415 . S
C994 H984 0.930 . S
C994 C992 1.419 . S
C994 C995 1.362 . S
C995 H985 0.930 . S
C995 C988 1.409 1_455 S
C995 C994 1.362 . S
H996 C1002 0.930 . S
H997 C1005 0.930 . S
H998 C1006 0.930 . S
H999 C1007 0.930 . S
H1000 C1010 0.930 . S
H1001 C1011 0.930 . S
C1002 H996 0.930 . S
C1002 C1003 1.355 . S
C1002 C1004 1.415 . S
C1003 C1002 1.355 . S
C1003 C1005 1.419 . S
C1004 C1002 1.415 . S
C1004 C1009 1.425 . S
C1004 C1011 1.409 . S
C1005 H997 0.930 . S
C1005 C1003 1.419 . S
C1005 C1006 1.362 . S
C1006 H998 0.930 . S
C1006 C1005 1.362 . S
C1006 C1009 1.409 . S
C1007 H999 0.930 . S
C1007 C1008 1.355 . S
C1007 C1009 1.415 . S
C1008 C1007 1.355 . S
C1008 C1010 1.419 . S
C1009 C1004 1.425 . S
C1009 C1006 1.409 . S
C1009 C1007 1.415 . S
C1010 H1000 0.930 . S
C1010 C1008 1.419 . S
C1010 C1011 1.362 . S
C1011 H1001 0.930 . S
C1011 C1004 1.409 . S
C1011 C1010 1.362 . S
H1012 C1018 0.930 . S
H1013 C1021 0.930 . S
H1014 C1022 0.928 1_545 S
H1015 C1023 0.930 . S
H1016 C1026 0.930 . S
H1017 C1027 0.929 1_565 S
C1018 H1012 0.930 . S
C1018 C1019 1.355 . S
C1018 C1020 1.415 . S
C1019 C1018 1.355 . S
C1019 C1021 1.419 . S
C1020 C1018 1.415 . S
C1020 C1025 1.425 1_565 S
C1020 C1027 1.408 1_565 S
C1021 H1013 0.930 . S
C1021 C1019 1.419 . S
C1021 C1022 1.366 . S
C1022 H1014 0.928 1_565 S
C1022 C1021 1.366 . S
C1022 C1025 1.407 1_565 S
C1023 H1015 0.930 . S
C1023 C1024 1.355 . S
C1023 C1025 1.415 . S
C1024 C1023 1.355 . S
C1024 C1026 1.419 . S
C1025 C1020 1.425 1_545 S
C1025 C1022 1.407 1_545 S
C1025 C1023 1.415 . S
C1026 H1016 0.930 . S
C1026 C1024 1.419 . S
C1026 C1027 1.365 . S
C1027 H1017 0.929 1_545 S
C1027 C1020 1.408 1_545 S
C1027 C1026 1.365 . S
H1028 C1034 0.930 . S
H1029 C1037 0.930 . S
H1030 C1038 0.930 1_455 S
H1031 C1039 0.930 . S
H1032 C1042 0.930 . S
H1033 C1043 0.930 1_655 S
C1034 H1028 0.930 . S
C1034 C1035 1.355 . S
C1034 C1036 1.415 . S
C1035 C1034 1.355 . S
C1035 C1037 1.419 . S
C1036 C1034 1.415 . S
C1036 C1041 1.425 1_655 S
C1036 C1043 1.409 1_655 S
C1037 H1029 0.930 . S
C1037 C1035 1.419 . S
C1037 C1038 1.362 . S
C1038 H1030 0.930 1_655 S
C1038 C1037 1.362 . S
C1038 C1041 1.409 1_655 S
C1039 H1031 0.930 . S
C1039 C1040 1.355 . S
C1039 C1041 1.415 . S
C1040 C1039 1.355 . S
C1040 C1042 1.419 . S
C1041 C1036 1.425 1_455 S
C1041 C1038 1.409 1_455 S
C1041 C1039 1.415 . S
C1042 H1032 0.930 . S
C1042 C1040 1.419 . S
C1042 C1043 1.362 . S
C1043 H1033 0.930 1_455 S
C1043 C1036 1.409 1_455 S
C1043 C1042 1.362 . S
H1044 C1050 0.930 . S
H1045 C1053 0.930 1_655 S
H1046 C1054 0.930 . S
H1047 C1055 0.930 . S
H1048 C1058 0.930 . S
H1049 C1059 0.930 . S
C1050 H1044 0.930 . S
C1050 C1051 1.355 . S
C1050 C1052 1.415 . S
C1051 C1050 1.355 . S
C1051 C1053 1.419 . S
C1052 C1050 1.415 . S
C1052 C1057 1.425 . S
C1052 C1059 1.409 . S
C1053 H1045 0.930 1_455 S
C1053 C1051 1.419 . S
C1053 C1054 1.362 . S
C1054 H1046 0.930 . S
C1054 C1053 1.362 . S
C1054 C1057 1.409 . S
C1055 H1047 0.930 . S
C1055 C1056 1.355 . S
C1055 C1057 1.415 . S
C1056 C1055 1.355 . S
C1056 C1058 1.419 . S
C1057 C1052 1.425 . S
C1057 C1054 1.409 . S
C1057 C1055 1.415 . S
C1058 H1048 0.930 . S
C1058 C1056 1.419 . S
C1058 C1059 1.362 . S
C1059 H1049 0.930 . S
C1059 C1052 1.409 . S
C1059 C1058 1.362 . S
H1060 C1066 0.930 . S
H1061 C1069 0.930 . S
H1062 C1070 0.930 . S
H1063 C1071 0.930 . S
H1064 C1074 0.930 . S
H1065 C1075 0.930 . S
C1066 H1060 0.930 . S
C1066 C1067 1.355 1_565 S
C1066 C1068 1.415 . S
C1067 C1066 1.355 1_545 S
C1067 C1069 1.419 . S
C1068 C1066 1.415 . S
C1068 C1073 1.425 . S
C1068 C1075 1.409 . S
C1069 H1061 0.930 . S
C1069 C1067 1.419 . S
C1069 C1070 1.362 1_545 S
C1070 H1062 0.930 . S
C1070 C1069 1.362 1_565 S
C1070 C1073 1.409 . S
C1071 H1063 0.930 . S
C1071 C1072 1.355 . S
C1071 C1073 1.415 . S
C1072 C1071 1.355 . S
C1072 C1074 1.419 . S
C1073 C1068 1.425 . S
C1073 C1070 1.409 . S
C1073 C1071 1.415 . S
C1074 H1064 0.930 . S
C1074 C1072 1.419 . S
C1074 C1075 1.362 . S
C1075 H1065 0.930 . S
C1075 C1068 1.409 . S
C1075 C1074 1.362 . S
H1076 C1082 0.930 . S
H1077 C1085 0.930 . S
H1078 C1086 0.930 1_655 S
H1079 C1087 0.930 . S
H1080 C1090 0.930 . S
H1081 C1091 0.930 . S
C1082 H1076 0.930 . S
C1082 C1083 1.355 1_455 S
C1082 C1084 1.415 . S
C1083 C1082 1.355 1_655 S
C1083 C1085 1.419 . S
C1084 C1082 1.415 . S
C1084 C1089 1.425 . S
C1084 C1091 1.409 . S
C1085 H1077 0.930 . S
C1085 C1083 1.419 . S
C1085 C1086 1.362 1_655 S
C1086 H1078 0.930 1_455 S
C1086 C1085 1.362 1_455 S
C1086 C1089 1.409 . S
C1087 H1079 0.930 . S
C1087 C1088 1.355 . S
C1087 C1089 1.415 . S
C1088 C1087 1.355 . S
C1088 C1090 1.419 . S
C1089 C1084 1.425 . S
C1089 C1086 1.409 . S
C1089 C1087 1.415 . S
C1090 H1080 0.930 . S
C1090 C1088 1.419 . S
C1090 C1091 1.362 . S
C1091 H1081 0.930 . S
C1091 C1084 1.409 . S
C1091 C1090 1.362 . S
H1092 C1098 0.930 . S
H1093 C1101 0.930 . S
H1094 C1102 0.930 . S
H1095 C1103 0.930 . S
H1096 C1106 0.930 . S
H1097 C1107 0.930 . S
C1098 H1092 0.930 . S
C1098 C1099 1.355 . S
C1098 C1100 1.415 . S
C1099 C1098 1.355 . S
C1099 C1101 1.419 . S
C1100 C1098 1.415 . S
C1100 C1105 1.425 . S
C1100 C1107 1.409 . S
C1101 H1093 0.930 . S
C1101 C1099 1.419 . S
C1101 C1102 1.362 . S
C1102 H1094 0.930 . S
C1102 C1101 1.362 . S
C1102 C1105 1.409 . S
C1103 H1095 0.930 . S
C1103 C1104 1.355 . S
C1103 C1105 1.415 . S
C1104 C1103 1.355 . S
C1104 C1106 1.419 . S
C1105 C1100 1.425 . S
C1105 C1102 1.409 . S
C1105 C1103 1.415 . S
C1106 H1096 0.930 . S
C1106 C1104 1.419 . S
C1106 C1107 1.362 . S
C1107 H1097 0.930 . S
C1107 C1100 1.409 . S
C1107 C1106 1.362 . S
H1108 C1114 0.930 . S
H1109 C1117 0.930 . S
H1110 C1118 0.930 . S
H1111 C1119 0.930 . S
H1112 C1122 0.930 . S
H1113 C1123 0.930 . S
C1114 H1108 0.930 . S
C1114 C1115 1.355 . S
C1114 C1116 1.415 . S
C1115 C1114 1.355 . S
C1115 C1117 1.419 . S
C1116 C1114 1.415 . S
C1116 C1121 1.425 . S
C1116 C1123 1.409 . S
C1117 H1109 0.930 . S
C1117 C1115 1.419 . S
C1117 C1118 1.362 . S
C1118 H1110 0.930 . S
C1118 C1117 1.362 . S
C1118 C1121 1.409 . S
C1119 H1111 0.930 . S
C1119 C1120 1.355 1_545 S
C1119 C1121 1.415 . S
C1120 C1119 1.355 1_565 S
C1120 C1122 1.419 . S
C1121 C1116 1.425 . S
C1121 C1118 1.409 . S
C1121 C1119 1.415 . S
C1122 H1112 0.930 . S
C1122 C1120 1.419 . S
C1122 C1123 1.362 1_565 S
C1123 H1113 0.930 . S
C1123 C1116 1.409 . S
C1123 C1122 1.362 1_545 S
H1124 C1130 0.930 . S
H1125 C1133 0.930 . S
H1126 C1134 0.930 . S
H1127 C1135 0.930 . S
H1128 C1138 0.930 . S
H1129 C1139 0.930 . S
C1130 H1124 0.930 . S
C1130 C1131 1.355 1_655 S
C1130 C1132 1.415 . S
C1131 C1130 1.355 1_455 S
C1131 C1133 1.419 . S
C1132 C1130 1.415 . S
C1132 C1137 1.425 . S
C1132 C1139 1.409 . S
C1133 H1125 0.930 . S
C1133 C1131 1.419 . S
C1133 C1134 1.362 1_455 S
C1134 H1126 0.930 . S
C1134 C1133 1.362 1_655 S
C1134 C1137 1.409 . S
C1135 H1127 0.930 . S
C1135 C1136 1.355 . S
C1135 C1137 1.415 . S
C1136 C1135 1.355 . S
C1136 C1138 1.419 . S
C1137 C1132 1.425 . S
C1137 C1134 1.409 . S
C1137 C1135 1.415 . S
C1138 H1128 0.930 . S
C1138 C1136 1.419 . S
C1138 C1139 1.362 . S
C1139 H1129 0.930 . S
C1139 C1132 1.409 . S
C1139 C1138 1.362 . S
H1140 C1146 0.930 . S
H1141 C1149 0.930 . S
H1142 C1150 0.930 . S
H1143 C1151 0.930 . S
H1144 C1154 0.930 . S
H1145 C1155 0.930 . S
C1146 H1140 0.930 . S
C1146 C1147 1.355 . S
C1146 C1148 1.415 . S
C1147 C1146 1.355 . S
C1147 C1149 1.419 . S
C1148 C1146 1.415 . S
C1148 C1153 1.425 . S
C1148 C1155 1.409 . S
C1149 H1141 0.930 . S
C1149 C1147 1.419 . S
C1149 C1150 1.362 . S
C1150 H1142 0.930 . S
C1150 C1149 1.362 . S
C1150 C1153 1.409 . S
C1151 H1143 0.930 . S
C1151 C1152 1.355 . S
C1151 C1153 1.415 . S
C1152 C1151 1.355 . S
C1152 C1154 1.419 . S
C1153 C1148 1.425 . S
C1153 C1150 1.409 . S
C1153 C1151 1.415 . S
C1154 H1144 0.930 . S
C1154 C1152 1.419 . S
C1154 C1155 1.362 . S
C1155 H1145 0.930 . S
C1155 C1148 1.409 . S
C1155 C1154 1.362 . S
H1156 C1162 0.934 . S
H1157 C1165 0.930 1_565 S
H1158 C1166 0.930 . S
H1159 C1167 0.930 . S
H1160 C1170 0.930 . S
H1161 C1171 0.930 . S
C1162 H1156 0.934 . S
C1162 C1163 1.375 . S
C1162 C1164 1.390 1_565 S
C1163 C1162 1.375 . S
C1163 C1165 1.419 1_565 S
C1164 C1162 1.390 1_545 S
C1164 C1169 1.425 . S
C1164 C1171 1.409 . S
C1165 H1157 0.930 1_545 S
C1165 C1163 1.419 1_545 S
C1165 C1166 1.362 . S
C1166 H1158 0.930 . S
C1166 C1165 1.362 . S
C1166 C1169 1.409 . S
C1167 H1159 0.930 . S
C1167 C1168 1.355 . S
C1167 C1169 1.415 . S
C1168 C1167 1.355 . S
C1168 C1170 1.419 . S
C1169 C1164 1.425 . S
C1169 C1166 1.409 . S
C1169 C1167 1.415 . S
C1170 H1160 0.930 . S
C1170 C1168 1.419 . S
C1170 C1171 1.362 . S
C1171 H1161 0.930 . S
C1171 C1164 1.409 . S
C1171 C1170 1.362 . S
H1172 C1178 0.930 . S
H1173 C1181 0.930 . S
H1174 C1182 0.930 . S
H1175 C1183 0.930 . S
H1176 C1186 0.930 . S
H1177 C1187 0.930 . S
C1178 H1172 0.930 . S
C1178 C1179 1.355 . S
C1178 C1180 1.415 1_455 S
C1179 C1178 1.355 . S
C1179 C1181 1.419 1_455 S
C1180 C1178 1.415 1_655 S
C1180 C1185 1.425 . S
C1180 C1187 1.409 . S
C1181 H1173 0.930 . S
C1181 C1179 1.419 1_655 S
C1181 C1182 1.362 . S
C1182 H1174 0.930 . S
C1182 C1181 1.362 . S
C1182 C1185 1.409 . S
C1183 H1175 0.930 . S
C1183 C1184 1.355 . S
C1183 C1185 1.415 . S
C1184 C1183 1.355 . S
C1184 C1186 1.419 . S
C1185 C1180 1.425 . S
C1185 C1182 1.409 . S
C1185 C1183 1.415 . S
C1186 H1176 0.930 . S
C1186 C1184 1.419 . S
C1186 C1187 1.362 . S
C1187 H1177 0.930 . S
C1187 C1180 1.409 . S
C1187 C1186 1.362 . S
H1188 C1194 0.930 . S
H1189 C1197 0.930 . S
H1190 C1198 0.930 . S
H1191 C1199 0.930 . S
H1192 C1202 0.930 . S
H1193 C1203 0.930 . S
C1194 H1188 0.930 . S
C1194 C1195 1.355 . S
C1194 C1196 1.415 . S
C1195 C1194 1.355 . S
C1195 C1197 1.419 . S
C1196 C1194 1.415 . S
C1196 C1201 1.425 . S
C1196 C1203 1.409 . S
C1197 H1189 0.930 . S
C1197 C1195 1.419 . S
C1197 C1198 1.362 . S
C1198 H1190 0.930 . S
C1198 C1197 1.362 . S
C1198 C1201 1.409 . S
C1199 H1191 0.930 . S
C1199 C1200 1.355 . S
C1199 C1201 1.415 . S
C1200 C1199 1.355 . S
C1200 C1202 1.419 . S
C1201 C1196 1.425 . S
C1201 C1198 1.409 . S
C1201 C1199 1.415 . S
C1202 H1192 0.930 . S
C1202 C1200 1.419 . S
C1202 C1203 1.362 . S
C1203 H1193 0.930 . S
C1203 C1196 1.409 . S
C1203 C1202 1.362 . S
H1204 C1210 0.930 . S
H1205 C1213 0.930 . S
H1206 C1214 0.930 . S
H1207 C1215 0.930 . S
H1208 C1218 0.930 . S
H1209 C1219 0.930 . S
C1210 H1204 0.930 . S
C1210 C1211 1.355 1_565 S
C1210 C1212 1.415 . S
C1211 C1210 1.355 1_545 S
C1211 C1213 1.419 . S
C1212 C1210 1.415 . S
C1212 C1217 1.425 . S
C1212 C1219 1.409 . S
C1213 H1205 0.930 . S
C1213 C1211 1.419 . S
C1213 C1214 1.362 1_545 S
C1214 H1206 0.930 . S
C1214 C1213 1.362 1_565 S
C1214 C1217 1.409 . S
C1215 H1207 0.930 . S
C1215 C1216 1.355 . S
C1215 C1217 1.415 . S
C1216 C1215 1.355 . S
C1216 C1218 1.419 . S
C1217 C1212 1.425 . S
C1217 C1214 1.409 . S
C1217 C1215 1.415 . S
C1218 H1208 0.930 . S
C1218 C1216 1.419 . S
C1218 C1219 1.362 . S
C1219 H1209 0.930 . S
C1219 C1212 1.409 . S
C1219 C1218 1.362 . S
H1220 C1226 0.930 . S
H1221 C1229 0.930 . S
H1222 C1230 0.930 . S
H1223 C1231 0.930 1_655 S
H1224 C1234 0.930 . S
H1225 C1235 0.930 . S
C1226 H1220 0.930 . S
C1226 C1227 1.355 . S
C1226 C1228 1.415 . S
C1227 C1226 1.355 . S
C1227 C1229 1.419 . S
C1228 C1226 1.415 . S
C1228 C1233 1.425 . S
C1228 C1235 1.409 . S
C1229 H1221 0.930 . S
C1229 C1227 1.419 . S
C1229 C1230 1.362 . S
C1230 H1222 0.930 . S
C1230 C1229 1.362 . S
C1230 C1233 1.409 . S
C1231 H1223 0.930 1_455 S
C1231 C1232 1.355 1_455 S
C1231 C1233 1.415 . S
C1232 C1231 1.355 1_655 S
C1232 C1234 1.419 . S
C1233 C1228 1.425 . S
C1233 C1230 1.409 . S
C1233 C1231 1.415 . S
C1234 H1224 0.930 . S
C1234 C1232 1.419 . S
C1234 C1235 1.362 1_655 S
C1235 H1225 0.930 . S
C1235 C1228 1.409 . S
C1235 C1234 1.362 1_455 S
H1236 C1242 0.930 . S
H1237 C1245 0.930 . S
H1238 C1246 0.930 . S
H1239 C1247 0.930 . S
H1240 C1250 0.930 . S
H1241 C1251 0.930 . S
C1242 H1236 0.930 . S
C1242 C1243 1.355 . S
C1242 C1244 1.415 . S
C1243 C1242 1.355 . S
C1243 C1245 1.419 . S
C1244 C1242 1.415 . S
C1244 C1249 1.425 . S
C1244 C1251 1.409 . S
C1245 H1237 0.930 . S
C1245 C1243 1.419 . S
C1245 C1246 1.362 . S
C1246 H1238 0.930 . S
C1246 C1245 1.362 . S
C1246 C1249 1.409 . S
C1247 H1239 0.930 . S
C1247 C1248 1.355 . S
C1247 C1249 1.415 . S
C1248 C1247 1.355 . S
C1248 C1250 1.419 . S
C1249 C1244 1.425 . S
C1249 C1246 1.409 . S
C1249 C1247 1.415 . S
C1250 H1240 0.930 . S
C1250 C1248 1.419 . S
C1250 C1251 1.362 . S
C1251 H1241 0.930 . S
C1251 C1244 1.409 . S
C1251 C1250 1.362 . S
H1252 C1258 0.930 . S
H1253 C1261 0.930 . S
H1254 C1262 0.930 . S
H1255 C1263 0.930 . S
H1256 C1266 0.930 . S
H1257 C1267 0.930 . S
C1258 H1252 0.930 . S
C1258 C1259 1.355 . S
C1258 C1260 1.415 . S
C1259 C1258 1.355 . S
C1259 C1261 1.419 . S
C1260 C1258 1.415 . S
C1260 C1265 1.425 . S
C1260 C1267 1.409 . S
C1261 H1253 0.930 . S
C1261 C1259 1.419 . S
C1261 C1262 1.362 . S
C1262 H1254 0.930 . S
C1262 C1261 1.362 . S
C1262 C1265 1.409 . S
C1263 H1255 0.930 . S
C1263 C1264 1.355 . S
C1263 C1265 1.415 . S
C1264 C1263 1.355 . S
C1264 C1266 1.419 . S
C1265 C1260 1.425 . S
C1265 C1262 1.409 . S
C1265 C1263 1.415 . S
C1266 H1256 0.930 . S
C1266 C1264 1.419 . S
C1266 C1267 1.362 . S
C1267 H1257 0.930 . S
C1267 C1260 1.409 . S
C1267 C1266 1.362 . S
H1268 C1274 0.930 . S
H1269 C1277 0.930 . S
H1270 C1278 0.930 . S
H1271 C1279 0.930 . S
H1272 C1282 0.930 . S
H1273 C1283 0.930 . S
C1274 H1268 0.930 . S
C1274 C1275 1.355 . S
C1274 C1276 1.415 . S
C1275 C1274 1.355 . S
C1275 C1277 1.419 . S
C1276 C1274 1.415 . S
C1276 C1281 1.425 . S
C1276 C1283 1.409 . S
C1277 H1269 0.930 . S
C1277 C1275 1.419 . S
C1277 C1278 1.362 . S
C1278 H1270 0.930 . S
C1278 C1277 1.362 . S
C1278 C1281 1.409 . S
C1279 H1271 0.930 . S
C1279 C1280 1.355 . S
C1279 C1281 1.415 . S
C1280 C1279 1.355 . S
C1280 C1282 1.419 . S
C1281 C1276 1.425 . S
C1281 C1278 1.409 . S
C1281 C1279 1.415 . S
C1282 H1272 0.930 . S
C1282 C1280 1.419 . S
C1282 C1283 1.362 . S
C1283 H1273 0.930 . S
C1283 C1276 1.409 . S
C1283 C1282 1.362 . S
H1284 C1290 0.930 . S
H1285 C1293 0.930 . S
H1286 C1294 0.930 . S
H1287 C1295 0.930 . S
H1288 C1298 0.930 . S
H1289 C1299 0.930 . S
C1290 H1284 0.930 . S
C1290 C1291 1.355 . S
C1290 C1292 1.415 . S
C1291 C1290 1.355 . S
C1291 C1293 1.419 . S
C1292 C1290 1.415 . S
C1292 C1297 1.425 . S
C1292 C1299 1.409 . S
C1293 H1285 0.930 . S
C1293 C1291 1.419 . S
C1293 C1294 1.362 . S
C1294 H1286 0.930 . S
C1294 C1293 1.362 . S
C1294 C1297 1.409 . S
C1295 H1287 0.930 . S
C1295 C1296 1.355 . S
C1295 C1297 1.415 . S
C1296 C1295 1.355 . S
C1296 C1298 1.419 . S
C1297 C1292 1.425 . S
C1297 C1294 1.409 . S
C1297 C1295 1.415 . S
C1298 H1288 0.930 . S
C1298 C1296 1.419 . S
C1298 C1299 1.362 . S
C1299 H1289 0.930 . S
C1299 C1292 1.409 . S
C1299 C1298 1.362 . S
H1300 C1306 0.930 . S
H1301 C1309 0.930 . S
H1302 C1310 0.930 . S
H1303 C1311 0.930 . S
H1304 C1314 0.930 . S
H1305 C1315 0.930 . S
C1306 H1300 0.930 . S
C1306 C1307 1.355 . S
C1306 C1308 1.415 . S
C1307 C1306 1.355 . S
C1307 C1309 1.419 . S
C1308 C1306 1.415 . S
C1308 C1313 1.425 . S
C1308 C1315 1.409 . S
C1309 H1301 0.930 . S
C1309 C1307 1.419 . S
C1309 C1310 1.362 . S
C1310 H1302 0.930 . S
C1310 C1309 1.362 . S
C1310 C1313 1.409 . S
C1311 H1303 0.930 . S
C1311 C1312 1.355 . S
C1311 C1313 1.415 . S
C1312 C1311 1.355 . S
C1312 C1314 1.419 . S
C1313 C1308 1.425 . S
C1313 C1310 1.409 . S
C1313 C1311 1.415 . S
C1314 H1304 0.930 . S
C1314 C1312 1.419 . S
C1314 C1315 1.362 . S
C1315 H1305 0.930 . S
C1315 C1308 1.409 . S
C1315 C1314 1.362 . S
H1316 C1322 0.930 . S
H1317 C1325 0.930 . S
H1318 C1326 0.930 . S
H1319 C1327 0.930 . S
H1320 C1330 0.930 . S
H1321 C1331 0.930 . S
C1322 H1316 0.930 . S
C1322 C1323 1.355 . S
C1322 C1324 1.415 . S
C1323 C1322 1.355 . S
C1323 C1325 1.419 . S
C1324 C1322 1.415 . S
C1324 C1329 1.425 . S
C1324 C1331 1.409 . S
C1325 H1317 0.930 . S
C1325 C1323 1.419 . S
C1325 C1326 1.362 . S
C1326 H1318 0.930 . S
C1326 C1325 1.362 . S
C1326 C1329 1.409 . S
C1327 H1319 0.930 . S
C1327 C1328 1.355 . S
C1327 C1329 1.415 . S
C1328 C1327 1.355 . S
C1328 C1330 1.419 . S
C1329 C1324 1.425 . S
C1329 C1326 1.409 . S
C1329 C1327 1.415 . S
C1330 H1320 0.930 . S
C1330 C1328 1.419 . S
C1330 C1331 1.362 . S
C1331 H1321 0.930 . S
C1331 C1324 1.409 . S
C1331 C1330 1.362 . S
H1332 C1338 0.930 . S
H1333 C1341 0.930 . S
H1334 C1342 0.930 . S
H1335 C1343 0.930 . S
H1336 C1346 0.930 . S
H1337 C1347 0.930 . S
C1338 H1332 0.930 . S
C1338 C1339 1.355 . S
C1338 C1340 1.415 . S
C1339 C1338 1.355 . S
C1339 C1341 1.419 . S
C1340 C1338 1.415 . S
C1340 C1345 1.425 . S
C1340 C1347 1.409 . S
C1341 H1333 0.930 . S
C1341 C1339 1.419 . S
C1341 C1342 1.362 . S
C1342 H1334 0.930 . S
C1342 C1341 1.362 . S
C1342 C1345 1.409 . S
C1343 H1335 0.930 . S
C1343 C1344 1.355 . S
C1343 C1345 1.415 . S
C1344 C1343 1.355 . S
C1344 C1346 1.419 . S
C1345 C1340 1.425 . S
C1345 C1342 1.409 . S
C1345 C1343 1.415 . S
C1346 H1336 0.930 . S
C1346 C1344 1.419 . S
C1346 C1347 1.362 . S
C1347 H1337 0.930 . S
C1347 C1340 1.409 . S
C1347 C1346 1.362 . S
H1348 C1354 0.930 . S
H1349 C1357 0.930 . S
H1350 C1358 0.930 . S
H1351 C1359 0.930 . S
H1352 C1362 0.930 . S
H1353 C1363 0.930 . S
C1354 H1348 0.930 . S
C1354 C1355 1.355 . S
C1354 C1356 1.415 . S
C1355 C1354 1.355 . S
C1355 C1357 1.419 . S
C1356 C1354 1.415 . S
C1356 C1361 1.425 . S
C1356 C1363 1.409 . S
C1357 H1349 0.930 . S
C1357 C1355 1.419 . S
C1357 C1358 1.362 . S
C1358 H1350 0.930 . S
C1358 C1357 1.362 . S
C1358 C1361 1.409 . S
C1359 H1351 0.930 . S
C1359 C1360 1.355 . S
C1359 C1361 1.415 . S
C1360 C1359 1.355 . S
C1360 C1362 1.419 . S
C1361 C1356 1.425 . S
C1361 C1358 1.409 . S
C1361 C1359 1.415 . S
C1362 H1352 0.930 . S
C1362 C1360 1.419 . S
C1362 C1363 1.362 . S
C1363 H1353 0.930 . S
C1363 C1356 1.409 . S
C1363 C1362 1.362 . S
H1364 C1370 0.930 . S
H1365 C1373 0.930 . S
H1366 C1374 0.930 . S
H1367 C1375 0.930 . S
H1368 C1378 0.930 . S
H1369 C1379 0.930 . S
C1370 H1364 0.930 . S
C1370 C1371 1.355 . S
C1370 C1372 1.415 . S
C1371 C1370 1.355 . S
C1371 C1373 1.419 . S
C1372 C1370 1.415 . S
C1372 C1377 1.425 . S
C1372 C1379 1.409 . S
C1373 H1365 0.930 . S
C1373 C1371 1.419 . S
C1373 C1374 1.362 . S
C1374 H1366 0.930 . S
C1374 C1373 1.362 . S
C1374 C1377 1.409 . S
C1375 H1367 0.930 . S
C1375 C1376 1.355 . S
C1375 C1377 1.415 . S
C1376 C1375 1.355 . S
C1376 C1378 1.419 . S
C1377 C1372 1.425 . S
C1377 C1374 1.409 . S
C1377 C1375 1.415 . S
C1378 H1368 0.930 . S
C1378 C1376 1.419 . S
C1378 C1379 1.362 . S
C1379 H1369 0.930 . S
C1379 C1372 1.409 . S
C1379 C1378 1.362 . S
H1380 C1386 0.930 . S
H1381 C1389 0.930 . S
H1382 C1390 0.930 . S
H1383 C1391 0.930 . S
H1384 C1394 0.930 . S
H1385 C1395 0.930 . S
C1386 H1380 0.930 . S
C1386 C1387 1.355 . S
C1386 C1388 1.415 . S
C1387 C1386 1.355 . S
C1387 C1389 1.419 . S
C1388 C1386 1.415 . S
C1388 C1393 1.425 . S
C1388 C1395 1.409 . S
C1389 H1381 0.930 . S
C1389 C1387 1.419 . S
C1389 C1390 1.362 . S
C1390 H1382 0.930 . S
C1390 C1389 1.362 . S
C1390 C1393 1.409 . S
C1391 H1383 0.930 . S
C1391 C1392 1.355 . S
C1391 C1393 1.415 . S
C1392 C1391 1.355 . S
C1392 C1394 1.419 . S
C1393 C1388 1.425 . S
C1393 C1390 1.409 . S
C1393 C1391 1.415 . S
C1394 H1384 0.930 . S
C1394 C1392 1.419 . S
C1394 C1395 1.362 . S
C1395 H1385 0.930 . S
C1395 C1388 1.409 . S
C1395 C1394 1.362 . S
H1396 C1402 0.930 . S
H1397 C1405 0.930 . S
H1398 C1406 0.930 . S
H1399 C1407 0.930 . S
H1400 C1410 0.930 . S
H1401 C1411 0.930 . S
C1402 H1396 0.930 . S
C1402 C1403 1.355 . S
C1402 C1404 1.415 . S
C1403 C1402 1.355 . S
C1403 C1405 1.419 . S
C1404 C1402 1.415 . S
C1404 C1409 1.425 . S
C1404 C1411 1.409 . S
C1405 H1397 0.930 . S
C1405 C1403 1.419 . S
C1405 C1406 1.362 . S
C1406 H1398 0.930 . S
C1406 C1405 1.362 . S
C1406 C1409 1.409 . S
C1407 H1399 0.930 . S
C1407 C1408 1.355 . S
C1407 C1409 1.415 . S
C1408 C1407 1.355 . S
C1408 C1410 1.419 . S
C1409 C1404 1.425 . S
C1409 C1406 1.409 . S
C1409 C1407 1.415 . S
C1410 H1400 0.930 . S
C1410 C1408 1.419 . S
C1410 C1411 1.362 . S
C1411 H1401 0.930 . S
C1411 C1404 1.409 . S
C1411 C1410 1.362 . S
H1412 C1418 0.930 . S
H1413 C1421 0.930 . S
H1414 C1422 0.930 . S
H1415 C1423 0.930 . S
H1416 C1426 0.930 . S
H1417 C1427 0.930 . S
C1418 H1412 0.930 . S
C1418 C1419 1.355 . S
C1418 C1420 1.415 . S
C1419 C1418 1.355 . S
C1419 C1421 1.419 . S
C1420 C1418 1.415 . S
C1420 C1425 1.425 . S
C1420 C1427 1.409 . S
C1421 H1413 0.930 . S
C1421 C1419 1.419 . S
C1421 C1422 1.362 . S
C1422 H1414 0.930 . S
C1422 C1421 1.362 . S
C1422 C1425 1.409 . S
C1423 H1415 0.930 . S
C1423 C1424 1.355 . S
C1423 C1425 1.415 . S
C1424 C1423 1.355 . S
C1424 C1426 1.419 . S
C1425 C1420 1.425 . S
C1425 C1422 1.409 . S
C1425 C1423 1.415 . S
C1426 H1416 0.930 . S
C1426 C1424 1.419 . S
C1426 C1427 1.362 . S
C1427 H1417 0.930 . S
C1427 C1420 1.409 . S
C1427 C1426 1.362 . S
H1428 C1434 0.930 . S
H1429 C1437 0.930 . S
H1430 C1438 0.930 . S
H1431 C1439 0.930 . S
H1432 C1442 0.930 . S
H1433 C1443 0.930 . S
C1434 H1428 0.930 . S
C1434 C1435 1.355 . S
C1434 C1436 1.415 . S
C1435 C1434 1.355 . S
C1435 C1437 1.419 . S
C1436 C1434 1.415 . S
C1436 C1441 1.425 . S
C1436 C1443 1.409 . S
C1437 H1429 0.930 . S
C1437 C1435 1.419 . S
C1437 C1438 1.362 . S
C1438 H1430 0.930 . S
C1438 C1437 1.362 . S
C1438 C1441 1.409 . S
C1439 H1431 0.930 . S
C1439 C1440 1.355 . S
C1439 C1441 1.415 . S
C1440 C1439 1.355 . S
C1440 C1442 1.419 . S
C1441 C1436 1.425 . S
C1441 C1438 1.409 . S
C1441 C1439 1.415 . S
C1442 H1432 0.930 . S
C1442 C1440 1.419 . S
C1442 C1443 1.362 . S
C1443 H1433 0.930 . S
C1443 C1436 1.409 . S
C1443 C1442 1.362 . S
H1444 C1450 0.930 . S
H1445 C1453 0.930 . S
H1446 C1454 0.930 . S
H1447 C1455 0.930 . S
H1448 C1458 0.930 . S
H1449 C1459 0.930 . S
C1450 H1444 0.930 . S
C1450 C1451 1.355 . S
C1450 C1452 1.415 . S
C1451 C1450 1.355 . S
C1451 C1453 1.419 . S
C1452 C1450 1.415 . S
C1452 C1457 1.425 . S
C1452 C1459 1.409 . S
C1453 H1445 0.930 . S
C1453 C1451 1.419 . S
C1453 C1454 1.362 . S
C1454 H1446 0.930 . S
C1454 C1453 1.362 . S
C1454 C1457 1.409 . S
C1455 H1447 0.930 . S
C1455 C1456 1.355 . S
C1455 C1457 1.415 . S
C1456 C1455 1.355 . S
C1456 C1458 1.419 . S
C1457 C1452 1.425 . S
C1457 C1454 1.409 . S
C1457 C1455 1.415 . S
C1458 H1448 0.930 . S
C1458 C1456 1.419 . S
C1458 C1459 1.362 . S
C1459 H1449 0.930 . S
C1459 C1452 1.409 . S
C1459 C1458 1.362 . S
H1460 C1466 0.930 . S
H1461 C1469 0.930 . S
H1462 C1470 0.930 . S
H1463 C1471 0.930 . S
H1464 C1474 0.930 . S
H1465 C1475 0.930 . S
C1466 H1460 0.930 . S
C1466 C1467 1.355 . S
C1466 C1468 1.415 . S
C1467 C1466 1.355 . S
C1467 C1469 1.419 . S
C1468 C1466 1.415 . S
C1468 C1473 1.425 . S
C1468 C1475 1.409 . S
C1469 H1461 0.930 . S
C1469 C1467 1.419 . S
C1469 C1470 1.362 . S
C1470 H1462 0.930 . S
C1470 C1469 1.362 . S
C1470 C1473 1.409 . S
C1471 H1463 0.930 . S
C1471 C1472 1.355 . S
C1471 C1473 1.415 . S
C1472 C1471 1.355 . S
C1472 C1474 1.419 . S
C1473 C1468 1.425 . S
C1473 C1470 1.409 . S
C1473 C1471 1.415 . S
C1474 H1464 0.930 . S
C1474 C1472 1.419 . S
C1474 C1475 1.362 . S
C1475 H1465 0.930 . S
C1475 C1468 1.409 . S
C1475 C1474 1.362 . S
H1476 C1482 0.930 . S
H1477 C1485 0.930 . S
H1478 C1486 0.930 . S
H1479 C1487 0.930 . S
H1480 C1490 0.930 . S
H1481 C1491 0.930 . S
C1482 H1476 0.930 . S
C1482 C1483 1.355 . S
C1482 C1484 1.415 . S
C1483 C1482 1.355 . S
C1483 C1485 1.419 . S
C1484 C1482 1.415 . S
C1484 C1489 1.425 . S
C1484 C1491 1.409 . S
C1485 H1477 0.930 . S
C1485 C1483 1.419 . S
C1485 C1486 1.362 . S
C1486 H1478 0.930 . S
C1486 C1485 1.362 . S
C1486 C1489 1.409 . S
C1487 H1479 0.930 . S
C1487 C1488 1.355 . S
C1487 C1489 1.415 . S
C1488 C1487 1.355 . S
C1488 C1490 1.419 . S
C1489 C1484 1.425 . S
C1489 C1486 1.409 . S
C1489 C1487 1.415 . S
C1490 H1480 0.930 . S
C1490 C1488 1.419 . S
C1490 C1491 1.362 . S
C1491 H1481 0.930 . S
C1491 C1484 1.409 . S
C1491 C1490 1.362 . S
H1492 C1498 0.930 . S
H1493 C1501 0.930 . S
H1494 C1502 0.930 . S
H1495 C1503 0.930 . S
H1496 C1506 0.930 . S
H1497 C1507 0.930 . S
C1498 H1492 0.930 . S
C1498 C1499 1.355 . S
C1498 C1500 1.415 . S
C1499 C1498 1.355 . S
C1499 C1501 1.419 . S
C1500 C1498 1.415 . S
C1500 C1505 1.425 . S
C1500 C1507 1.409 . S
C1501 H1493 0.930 . S
C1501 C1499 1.419 . S
C1501 C1502 1.362 . S
C1502 H1494 0.930 . S
C1502 C1501 1.362 . S
C1502 C1505 1.409 . S
C1503 H1495 0.930 . S
C1503 C1504 1.355 . S
C1503 C1505 1.415 . S
C1504 C1503 1.355 . S
C1504 C1506 1.419 . S
C1505 C1500 1.425 . S
C1505 C1502 1.409 . S
C1505 C1503 1.415 . S
C1506 H1496 0.930 . S
C1506 C1504 1.419 . S
C1506 C1507 1.362 . S
C1507 H1497 0.930 . S
C1507 C1500 1.409 . S
C1507 C1506 1.362 . S
H1508 C1514 0.930 . S
H1509 C1517 0.930 . S
H1510 C1518 0.930 . S
H1511 C1519 0.930 . S
H1512 C1522 0.930 . S
H1513 C1523 0.930 . S
C1514 H1508 0.930 . S
C1514 C1515 1.355 . S
C1514 C1516 1.415 . S
C1515 C1514 1.355 . S
C1515 C1517 1.419 . S
C1516 C1514 1.415 . S
C1516 C1521 1.425 . S
C1516 C1523 1.409 . S
C1517 H1509 0.930 . S
C1517 C1515 1.419 . S
C1517 C1518 1.362 . S
C1518 H1510 0.930 . S
C1518 C1517 1.362 . S
C1518 C1521 1.409 . S
C1519 H1511 0.930 . S
C1519 C1520 1.355 . S
C1519 C1521 1.415 . S
C1520 C1519 1.355 . S
C1520 C1522 1.419 . S
C1521 C1516 1.425 . S
C1521 C1518 1.409 . S
C1521 C1519 1.415 . S
C1522 H1512 0.930 . S
C1522 C1520 1.419 . S
C1522 C1523 1.362 . S
C1523 H1513 0.930 . S
C1523 C1516 1.409 . S
C1523 C1522 1.362 . S
H1524 C1530 0.930 . S
H1525 C1533 0.930 . S
H1526 C1534 0.930 . S
H1527 C1535 0.930 . S
H1528 C1538 0.930 . S
H1529 C1539 0.930 . S
C1530 H1524 0.930 . S
C1530 C1531 1.355 . S
C1530 C1532 1.415 . S
C1531 C1530 1.355 . S
C1531 C1533 1.419 . S
C1532 C1530 1.415 . S
C1532 C1537 1.425 . S
C1532 C1539 1.409 . S
C1533 H1525 0.930 . S
C1533 C1531 1.419 . S
C1533 C1534 1.362 . S
C1534 H1526 0.930 . S
C1534 C1533 1.362 . S
C1534 C1537 1.409 . S
C1535 H1527 0.930 . S
C1535 C1536 1.355 . S
C1535 C1537 1.415 . S
C1536 C1535 1.355 . S
C1536 C1538 1.419 . S
C1537 C1532 1.425 . S
C1537 C1534 1.409 . S
C1537 C1535 1.415 . S
C1538 H1528 0.930 . S
C1538 C1536 1.419 . S
C1538 C1539 1.362 . S
C1539 H1529 0.930 . S
C1539 C1532 1.409 . S
C1539 C1538 1.362 . S
H1540 C1546 0.930 . S
H1541 C1549 0.930 . S
H1542 C1550 0.930 . S
H1543 C1551 0.930 . S
H1544 C1554 0.930 . S
H1545 C1555 0.930 . S
C1546 H1540 0.930 . S
C1546 C1547 1.355 . S
C1546 C1548 1.415 . S
C1547 C1546 1.355 . S
C1547 C1549 1.419 . S
C1548 C1546 1.415 . S
C1548 C1553 1.425 . S
C1548 C1555 1.409 . S
C1549 H1541 0.930 . S
C1549 C1547 1.419 . S
C1549 C1550 1.362 . S
C1550 H1542 0.930 . S
C1550 C1549 1.362 . S
C1550 C1553 1.409 . S
C1551 H1543 0.930 . S
C1551 C1552 1.355 . S
C1551 C1553 1.415 . S
C1552 C1551 1.355 . S
C1552 C1554 1.419 . S
C1553 C1548 1.425 . S
C1553 C1550 1.409 . S
C1553 C1551 1.415 . S
C1554 H1544 0.930 . S
C1554 C1552 1.419 . S
C1554 C1555 1.362 . S
C1555 H1545 0.930 . S
C1555 C1548 1.409 . S
C1555 C1554 1.362 . S
H1556 C1562 0.930 . S
H1557 C1565 0.930 . S
H1558 C1566 0.930 . S
H1559 C1567 0.930 . S
H1560 C1570 0.930 . S
H1561 C1571 0.930 . S
C1562 H1556 0.930 . S
C1562 C1563 1.355 . S
C1562 C1564 1.415 . S
C1563 C1562 1.355 . S
C1563 C1565 1.419 . S
C1564 C1562 1.415 . S
C1564 C1569 1.425 . S
C1564 C1571 1.409 . S
C1565 H1557 0.930 . S
C1565 C1563 1.419 . S
C1565 C1566 1.362 . S
C1566 H1558 0.930 . S
C1566 C1565 1.362 . S
C1566 C1569 1.409 . S
C1567 H1559 0.930 . S
C1567 C1568 1.355 . S
C1567 C1569 1.415 . S
C1568 C1567 1.355 . S
C1568 C1570 1.419 . S
C1569 C1564 1.425 . S
C1569 C1566 1.409 . S
C1569 C1567 1.415 . S
C1570 H1560 0.930 . S
C1570 C1568 1.419 . S
C1570 C1571 1.362 . S
C1571 H1561 0.930 . S
C1571 C1564 1.409 . S
C1571 C1570 1.362 . S
H1572 C1578 0.930 . S
H1573 C1581 0.930 . S
H1574 C1582 0.930 . S
H1575 C1583 0.930 . S
H1576 C1586 0.930 . S
H1577 C1587 0.930 . S
C1578 H1572 0.930 . S
C1578 C1579 1.355 . S
C1578 C1580 1.415 . S
C1579 C1578 1.355 . S
C1579 C1581 1.419 . S
C1580 C1578 1.415 . S
C1580 C1585 1.425 . S
C1580 C1587 1.409 . S
C1581 H1573 0.930 . S
C1581 C1579 1.419 . S
C1581 C1582 1.362 . S
C1582 H1574 0.930 . S
C1582 C1581 1.362 . S
C1582 C1585 1.409 . S
C1583 H1575 0.930 . S
C1583 C1584 1.355 . S
C1583 C1585 1.415 . S
C1584 C1583 1.355 . S
C1584 C1586 1.419 . S
C1585 C1580 1.425 . S
C1585 C1582 1.409 . S
C1585 C1583 1.415 . S
C1586 H1576 0.930 . S
C1586 C1584 1.419 . S
C1586 C1587 1.362 . S
C1587 H1577 0.930 . S
C1587 C1580 1.409 . S
C1587 C1586 1.362 . S
H1588 C1594 0.930 . S
H1589 C1597 0.930 . S
H1590 C1598 0.930 . S
H1591 C1599 0.930 . S
H1592 C1602 0.930 . S
H1593 C1603 0.930 . S
C1594 H1588 0.930 . S
C1594 C1595 1.355 . S
C1594 C1596 1.415 . S
C1595 C1594 1.355 . S
C1595 C1597 1.419 . S
C1596 C1594 1.415 . S
C1596 C1601 1.425 . S
C1596 C1603 1.409 . S
C1597 H1589 0.930 . S
C1597 C1595 1.419 . S
C1597 C1598 1.362 . S
C1598 H1590 0.930 . S
C1598 C1597 1.362 . S
C1598 C1601 1.409 . S
C1599 H1591 0.930 . S
C1599 C1600 1.355 . S
C1599 C1601 1.415 . S
C1600 C1599 1.355 . S
C1600 C1602 1.419 . S
C1601 C1596 1.425 . S
C1601 C1598 1.409 . S
C1601 C1599 1.415 . S
C1602 H1592 0.930 . S
C1602 C1600 1.419 . S
C1602 C1603 1.362 . S
C1603 H1593 0.930 . S
C1603 C1596 1.409 . S
C1603 C1602 1.362 . S
H1604 C1610 0.930 . S
H1605 C1613 0.930 . S
H1606 C1614 0.930 . S
H1607 C1615 0.930 . S
H1608 C1618 0.930 . S
H1609 C1619 0.930 . S
C1610 H1604 0.930 . S
C1610 C1611 1.355 . S
C1610 C1612 1.415 . S
C1611 C1610 1.355 . S
C1611 C1613 1.419 . S
C1612 C1610 1.415 . S
C1612 C1617 1.425 . S
C1612 C1619 1.409 . S
C1613 H1605 0.930 . S
C1613 C1611 1.419 . S
C1613 C1614 1.362 . S
C1614 H1606 0.930 . S
C1614 C1613 1.362 . S
C1614 C1617 1.409 . S
C1615 H1607 0.930 . S
C1615 C1616 1.355 . S
C1615 C1617 1.415 . S
C1616 C1615 1.355 . S
C1616 C1618 1.419 . S
C1617 C1612 1.425 . S
C1617 C1614 1.409 . S
C1617 C1615 1.415 . S
C1618 H1608 0.930 . S
C1618 C1616 1.419 . S
C1618 C1619 1.362 . S
C1619 H1609 0.930 . S
C1619 C1612 1.409 . S
C1619 C1618 1.362 . S
C475 C8 1.389 . S
C480 C242 1.389 . S
C491 C255 1.393 . S
C496 C21 1.393 . S
C507 C268 1.326 . S
C512 C34 1.326 . S
C523 C47 1.327 . S
C528 C437 1.327 . S
C539 C60 1.386 . S
C544 C450 1.386 . S
C555 C73 1.390 . S
C560 C463 1.390 . S
C571 C320 1.368 . S
C576 C86 1.368 . S
C587 C99 1.366 . S
C592 C333 1.366 . S
C603 C112 1.392 . S
C608 C346 1.392 . S
C619 C203 1.373 . S
C624 C125 1.373 . S
C635 C216 1.356 . S
C640 C138 1.356 . S
C651 C229 1.383 . S
C656 C151 1.383 . S
C667 C398 1.393 . S
C672 C164 1.393 . S
C683 C411 1.360 . S
C688 C177 1.360 . S
C699 C190 1.320 . S
C704 C424 1.320 . S
C715 C359 1.392 . S
C720 C281 1.392 . S
C731 C294 1.319 . S
C736 C372 1.319 . S
C747 C307 1.320 . S
C752 C385 1.320 . S
C763 C0 1.376 . S
C768 C351 1.417 . S
C779 C364 1.406 . S
C784 C13 1.383 . S
C795 C377 1.413 . S
C800 C26 1.461 . S
C811 C156 1.423 . S
C816 C39 1.372 . S
C827 C169 1.464 . S
C832 C52 1.377 . S
C843 C182 1.375 . S
C848 C65 1.463 . S
C859 C78 1.460 . S
C864 C273 1.372 . S
C875 C286 1.373 . S
C880 C91 1.461 . S
C891 C299 1.371 . S
C896 C104 1.459 . S
C907 C117 1.441 . S
C912 C390 1.440 . S
C923 C130 1.457 . S
C928 C403 1.419 . S
C939 C143 1.436 . S
C944 C416 1.445 . S
C955 C195 1.370 . S
C960 C312 1.457 . S
C971 C208 1.376 . S
C976 C325 1.463 . S
C987 C221 1.375 . S
C992 C338 1.462 . S
C1003 C234 1.423 . S
C1008 C429 1.454 . S
C1019 C442 1.420 . S
C1024 C247 1.374 . S
C1035 C260 1.439 . S
C1040 C455 1.367 . S
C1051 C23 1.200 1_455 S
C1056 C5 1.014 . S
C1067 C18 0.953 . S
C1072 C36 1.198 . S
C1083 C31 0.931 . S
C1088 C10 1.212 1_565 S
C1099 C44 0.926 . S
C1104 C75 1.203 1_545 S
C1115 C49 1.224 1_655 S
C1120 C57 0.985 . S
C1131 C70 0.963 . S
C1136 C62 1.220 . S
C1147 C83 1.101 . S
C1152 C101 1.216 1_655 S
C1163 C96 1.002 . S
C1168 C114 1.199 . S
C1179 C109 1.108 . S
C1184 C88 1.220 1_545 S
C1195 C153 1.228 1_565 S
C1200 C122 1.102 . S
C1211 C135 0.924 . S
C1216 C127 1.204 1_455 S
C1227 C140 1.202 . S
C1232 C148 1.031 . S
C1243 C179 1.230 . S
C1248 C161 1.051 . S
C1259 C192 1.199 . S
C1264 C174 0.939 . S
C1275 C166 1.199 . S
C1280 C187 0.994 . S
C1291 C200 1.049 . S
C1296 C231 1.204 . S
C1307 C213 1.041 . S
C1312 C205 1.203 . S
C1323 C226 1.090 . S
C1328 C218 1.230 . S
C1339 C257 1.228 . S
C1344 C239 1.022 . S
C1355 C252 0.951 . S
C1360 C270 1.198 . S
C1371 C265 1.064 . S
C1376 C244 1.206 . S
C1387 C278 1.004 . S
C1392 C309 1.199 . S
C1403 C291 0.987 . S
C1408 C283 1.198 . S
C1419 C296 1.229 . S
C1424 C304 1.032 . S
C1435 C335 1.230 . S
C1440 C317 1.071 . S
C1451 C330 0.933 . S
C1456 C348 1.212 . S
C1467 C322 1.214 . S
C1472 C343 1.097 . S
C1483 C356 0.923 . S
C1488 C387 1.205 . S
C1499 C369 1.020 . S
C1504 C361 1.228 . S
C1515 C382 1.062 . S
C1520 C374 1.206 . S
C1531 C395 0.950 . S
C1536 C413 1.198 . S
C1547 C408 0.964 . S
C1552 C426 1.198 . S
C1563 C421 0.937 . S
C1568 C400 1.214 . S
C1579 C434 0.951 . S
C1584 C465 1.217 . S
C1595 C447 1.109 . S
C1600 C439 1.221 . S
C1611 C452 1.199 . S
C1616 C460 1.006 . S
