# Generated by pormake.
# Topology wjy, (5)-cn, num edge types: 1
# Building blocks:
#     Node 0, Type 0, BuildingBlock: XOMCOT_clean_sbu_1, # of connection points: 5
#     Node 1, Type 0, BuildingBlock: XOMCOT_clean_sbu_1, # of connection points: 5
#     Node 2, Type 0, BuildingBlock: XOMCOT_clean_sbu_1, # of connection points: 5
#     Node 3, Type 0, BuildingBlock: XOMCOT_clean_sbu_1, # of connection points: 5
#     Node 4, Type 0, BuildingBlock: XOMCOT_clean_sbu_1, # of connection points: 5
#     Node 5, Type 0, BuildingBlock: XOMCOT_clean_sbu_1, # of connection points: 5
#     Node 6, Type 0, BuildingBlock: XOMCOT_clean_sbu_1, # of connection points: 5
#     Node 7, Type 0, BuildingBlock: XOMCOT_clean_sbu_1, # of connection points: 5
#     Node 8, Type 0, BuildingBlock: XOMCOT_clean_sbu_1, # of connection points: 5
#     Node 9, Type 0, BuildingBlock: XOMCOT_clean_sbu_1, # of connection points: 5
#     Node 10, Type 0, BuildingBlock: XOMCOT_clean_sbu_1, # of connection points: 5
#     Node 11, Type 0, BuildingBlock: XOMCOT_clean_sbu_1, # of connection points: 5
#     Edge 12, Type (0, 0), BuildingBlock: ZUJKAS_clean_linker_0, # of connection points: 2
#     Edge 13, Type (0, 0), BuildingBlock: ZUJKAS_clean_linker_0, # of connection points: 2
#     Edge 14, Type (0, 0), BuildingBlock: ZUJKAS_clean_linker_0, # of connection points: 2
#     Edge 15, Type (0, 0), BuildingBlock: ZUJKAS_clean_linker_0, # of connection points: 2
#     Edge 16, Type (0, 0), BuildingBlock: ZUJKAS_clean_linker_0, # of connection points: 2
#     Edge 17, Type (0, 0), BuildingBlock: ZUJKAS_clean_linker_0, # of connection points: 2
#     Edge 18, Type (0, 0), BuildingBlock: ZUJKAS_clean_linker_0, # of connection points: 2
#     Edge 19, Type (0, 0), BuildingBlock: ZUJKAS_clean_linker_0, # of connection points: 2
#     Edge 20, Type (0, 0), BuildingBlock: ZUJKAS_clean_linker_0, # of connection points: 2
#     Edge 21, Type (0, 0), BuildingBlock: ZUJKAS_clean_linker_0, # of connection points: 2
#     Edge 22, Type (0, 0), BuildingBlock: ZUJKAS_clean_linker_0, # of connection points: 2
#     Edge 23, Type (0, 0), BuildingBlock: ZUJKAS_clean_linker_0, # of connection points: 2
#     Edge 24, Type (0, 0), BuildingBlock: ZUJKAS_clean_linker_0, # of connection points: 2
#     Edge 25, Type (0, 0), BuildingBlock: ZUJKAS_clean_linker_0, # of connection points: 2
#     Edge 26, Type (0, 0), BuildingBlock: ZUJKAS_clean_linker_0, # of connection points: 2
#     Edge 27, Type (0, 0), BuildingBlock: ZUJKAS_clean_linker_0, # of connection points: 2
#     Edge 28, Type (0, 0), BuildingBlock: ZUJKAS_clean_linker_0, # of connection points: 2
#     Edge 29, Type (0, 0), BuildingBlock: ZUJKAS_clean_linker_0, # of connection points: 2
#     Edge 30, Type (0, 0), BuildingBlock: ZUJKAS_clean_linker_0, # of connection points: 2
#     Edge 31, Type (0, 0), BuildingBlock: ZUJKAS_clean_linker_0, # of connection points: 2
#     Edge 32, Type (0, 0), BuildingBlock: ZUJKAS_clean_linker_0, # of connection points: 2
#     Edge 33, Type (0, 0), BuildingBlock: ZUJKAS_clean_linker_0, # of connection points: 2
#     Edge 34, Type (0, 0), BuildingBlock: ZUJKAS_clean_linker_0, # of connection points: 2
#     Edge 35, Type (0, 0), BuildingBlock: ZUJKAS_clean_linker_0, # of connection points: 2
#     Edge 36, Type (0, 0), BuildingBlock: ZUJKAS_clean_linker_0, # of connection points: 2
#     Edge 37, Type (0, 0), BuildingBlock: ZUJKAS_clean_linker_0, # of connection points: 2
#     Edge 38, Type (0, 0), BuildingBlock: ZUJKAS_clean_linker_0, # of connection points: 2
#     Edge 39, Type (0, 0), BuildingBlock: ZUJKAS_clean_linker_0, # of connection points: 2
#     Edge 40, Type (0, 0), BuildingBlock: ZUJKAS_clean_linker_0, # of connection points: 2
#     Edge 41, Type (0, 0), BuildingBlock: ZUJKAS_clean_linker_0, # of connection points: 2
# Relax obj value: 0.189
# Max RMSD: 0.172
# Mean RMSD: 0.172
data_MOF--net-wjy--node1-XOMCOT_clean_sbu_1--edge1-ZUJKAS_clean_linker_0
_symmetry_space_group_name_H-M    P1
_symmetry_Int_Tables_number       1
_symmetry_cell_setting            triclinic
loop_
_symmetry_equiv_pos_as_xyz
'x, y, z'
_cell_length_a     92.023507
_cell_length_b     92.057071
_cell_length_c     21.931528
_cell_angle_alpha  89.993204
_cell_angle_beta   89.999183
_cell_angle_gamma 120.0578
loop_
_atom_site_label
_atom_site_type_symbol
_atom_site_fract_x
_atom_site_fract_y
_atom_site_fract_z
_atom_type_partial_charge
C0 C 0.44721 0.09582 0.16479 0.0
C1 C 0.44489 0.09225 0.22595 0.0
N2 N 0.44015 0.10246 0.25224 0.0
N3 N 0.44397 0.10824 0.15214 0.0
C4 C 0.4394 0.11186 0.2062 0.0
H5 H 0.45166 0.09021 0.13187 0.0
Co6 Co 0.44773 0.11796 0.07476 0.0
C7 C 0.45228 0.15146 0.12008 0.0
O8 O 0.46866 0.15873 0.12398 0.0
N9 N 0.4512 0.12739 0.99566 0.0
C10 C 0.46096 0.14553 0.91846 0.0
C11 C 0.4612 0.14369 0.98048 0.0
C12 C 0.44498 0.11959 0.94158 0.0
N13 N 0.45076 0.13036 0.89391 0.0
O14 O 0.4241 0.10397 0.05851 0.0
H15 H 0.46874 0.15364 0.01194 0.0
H16 H 0.43678 0.10621 0.93674 0.0
O17 O 0.44354 0.13607 0.10338 0.0
C18 C 0.42088 0.08946 0.04072 0.0
O19 O 0.43344 0.08677 0.03125 0.0
N20 N 0.47136 0.12987 0.09087 0.0
C21 C 0.50483 0.13911 0.11643 0.0
C22 C 0.49479 0.14088 0.1605 0.0
C23 C 0.47808 0.13592 0.14725 0.0
C24 C 0.48102 0.12804 0.04761 0.0
C25 C 0.49778 0.13284 0.05899 0.0
H26 H 0.47044 0.13651 0.18339 0.0
H27 H 0.47554 0.12198 1.00475 0.0
H28 H 0.43668 0.12192 0.21244 0.0
H29 H 0.44698 0.08312 0.24948 0.0
H30 H 0.46785 0.15717 0.89336 0.0
H31 H 0.49949 0.14519 0.2061 0.0
H32 H 0.50497 0.1311 0.02357 0.0
C33 C 0.33691 0.42259 0.34357 0.0
C34 C 0.33394 0.41901 0.40462 0.0
N35 N 0.32618 0.42702 0.42672 0.0
N36 N 0.3309 0.43267 0.32664 0.0
C37 C 0.32443 0.43517 0.37843 0.0
H38 H 0.34368 0.41864 0.31402 0.0
Co39 Co 0.33401 0.44221 0.24913 0.0
C40 C 0.30571 0.4484 0.22722 0.0
O41 O 0.31624 0.46218 0.19811 0.0
N42 N 0.33758 0.45178 0.16943 0.0
C43 C 0.34823 0.46855 0.08861 0.0
C44 C 0.34961 0.46713 0.15038 0.0
C45 C 0.32911 0.44412 0.11766 0.0
N46 N 0.33537 0.45403 0.06787 0.0
O47 O 0.32547 0.42013 0.21389 0.0
H48 H 0.35908 0.47682 0.17868 0.0
H49 H 0.31857 0.43143 0.11644 0.0
O50 O 0.31113 0.43934 0.25162 0.0
C51 C 0.33731 0.41865 0.18973 0.0
O52 O 0.35238 0.43197 0.18698 0.0
N53 N 0.34437 0.46357 0.28579 0.0
C54 C 0.366 0.49391 0.34431 0.0
C55 C 0.34863 0.48793 0.34139 0.0
C56 C 0.33795 0.47258 0.31249 0.0
C57 C 0.36106 0.46892 0.29025 0.0
C58 C 0.37209 0.48411 0.31799 0.0
H59 H 0.32462 0.46783 0.31396 0.0
H60 H 0.36586 0.46135 0.27088 0.0
H61 H 0.31893 0.44313 0.38111 0.0
H62 H 0.33802 0.41183 0.43138 0.0
H63 H 0.3565 0.47925 0.06078 0.0
H64 H 0.34327 0.49478 0.36268 0.0
H65 H 0.38535 0.48816 0.31818 0.0
C66 C 0.91672 0.33252 0.50419 0.0
C67 C 0.91668 0.32912 0.56511 0.0
N68 N 0.90107 0.32335 0.58694 0.0
N69 N 0.90115 0.32875 0.48687 0.0
C70 C 0.89186 0.3232 0.53855 0.0
H71 H 0.92769 0.33814 0.4753 0.0
Co72 Co 0.89561 0.33319 0.40935 0.0
C73 C 0.86205 0.30391 0.37693 0.0
O74 O 0.85887 0.3138 0.3433 0.0
N75 N 0.8906 0.33818 0.3305 0.0
C76 C 0.88618 0.35105 0.25275 0.0
C77 C 0.88792 0.35085 0.31486 0.0
C78 C 0.89049 0.33093 0.27647 0.0
N79 N 0.88788 0.33856 0.22841 0.0
O80 O 0.90998 0.32579 0.37285 0.0
H81 H 0.88753 0.35973 0.34596 0.0
H82 H 0.89275 0.32051 0.27239 0.0
O83 O 0.87594 0.31009 0.4064 0.0
C84 C 0.92351 0.33848 0.3536 0.0
O85 O 0.92483 0.35335 0.35698 0.0
N86 N 0.8837 0.34248 0.44679 0.0
C87 C 0.87314 0.36326 0.49976 0.0
C88 C 0.86154 0.34637 0.48661 0.0
C89 C 0.86712 0.33606 0.46071 0.0
C90 C 0.89513 0.35861 0.46167 0.0
C91 C 0.89016 0.36922 0.48757 0.0
H92 H 0.85808 0.32306 0.45287 0.0
H93 H 0.90826 0.36341 0.45133 0.0
H94 H 0.87873 0.31959 0.54109 0.0
H95 H 0.92756 0.33165 0.59203 0.0
H96 H 0.88395 0.35986 0.22753 0.0
H97 H 0.84833 0.34114 0.49665 0.0
H98 H 0.89959 0.38216 0.49621 0.0
C99 C 0.5665 0.9144 0.67358 0.0
C100 C 0.5687 0.91798 0.73475 0.0
N101 N 0.57377 0.90805 0.76124 0.0
N102 N 0.57019 0.90229 0.66101 0.0
C103 C 0.57495 0.8989 0.71515 0.0
H104 H 0.56164 0.91966 0.64082 0.0
Co105 Co 0.56621 0.89211 0.58421 0.0
C106 C 0.5645 0.86001 0.63064 0.0
O107 O 0.54813 0.85199 0.63644 0.0
N108 N 0.56254 0.88214 0.50563 0.0
C109 C 0.55366 0.86335 0.43044 0.0
C110 C 0.55332 0.86563 0.49217 0.0
C111 C 0.56827 0.88961 0.45069 0.0
N112 N 0.56311 0.87846 0.40419 0.0
O113 O 0.5894 0.90753 0.56396 0.0
H114 H 0.54627 0.85578 0.52463 0.0
H115 H 0.57615 0.90296 0.4445 0.0
O116 O 0.57239 0.87533 0.61259 0.0
C117 C 0.59031 0.92098 0.5437 0.0
O118 O 0.57622 0.92113 0.5359 0.0
N119 N 0.5428 0.87886 0.60382 0.0
C120 C 0.50938 0.86846 0.63468 0.0
C121 C 0.52033 0.86785 0.67755 0.0
C122 C 0.53696 0.87326 0.66152 0.0
C123 C 0.53216 0.87941 0.56154 0.0
C124 C 0.51536 0.87394 0.57556 0.0
H125 H 0.54521 0.87335 0.69658 0.0
H126 H 0.53686 0.88514 0.51755 0.0
H127 H 0.57782 0.88895 0.72156 0.0
H128 H 0.56611 0.92678 0.75818 0.0
H129 H 0.54702 0.85147 0.40667 0.0
H130 H 0.51624 0.86379 0.72391 0.0
H131 H 0.50746 0.87509 0.54156 0.0
C132 C 0.67656 0.58648 0.83222 0.0
C133 C 0.67866 0.58957 0.89367 0.0
N134 N 0.68509 0.58054 0.91794 0.0
N135 N 0.68189 0.57576 0.81676 0.0
C136 C 0.68712 0.5724 0.87004 0.0
H137 H 0.67062 0.59108 0.80147 0.0
Co138 Co 0.67831 0.56585 0.73944 0.0
C139 C 0.7071 0.56046 0.71332 0.0
O140 O 0.69702 0.54722 0.68073 0.0
N141 N 0.67403 0.55583 0.66043 0.0
C142 C 0.66166 0.53848 0.58233 0.0
C143 C 0.66137 0.54051 0.64422 0.0
C144 C 0.6818 0.56286 0.60685 0.0
N145 N 0.67444 0.55258 0.55851 0.0
O146 O 0.68675 0.58779 0.70259 0.0
H147 H 0.65218 0.5313 0.67473 0.0
H148 H 0.69236 0.57548 0.6032 0.0
O149 O 0.70122 0.56874 0.74063 0.0
C150 C 0.675 0.58928 0.67771 0.0
O151 O 0.6598 0.57613 0.67613 0.0
N152 N 0.66818 0.54465 0.77736 0.0
C153 C 0.64698 0.51428 0.8361 0.0
C154 C 0.66393 0.51933 0.82546 0.0
C155 C 0.67445 0.53475 0.79677 0.0
C156 C 0.65189 0.54007 0.78887 0.0
C157 C 0.64108 0.52496 0.81764 0.0
H158 H 0.68754 0.53871 0.79205 0.0
H159 H 0.64722 0.54823 0.77455 0.0
H160 H 0.6913 0.56336 0.87418 0.0
H161 H 0.67514 0.59746 0.91869 0.0
H162 H 0.65297 0.52742 0.55691 0.0
H163 H 0.66908 0.51162 0.84037 0.0
H164 H 0.6281 0.52157 0.82446 0.0
C165 C 0.09666 0.67298 0.99646 0.0
C166 C 0.09564 0.67503 0.0579 0.0
N167 N 0.11121 0.68207 0.08176 0.0
N168 N 0.11281 0.67892 0.9807 0.0
C169 C 0.12145 0.68448 0.03372 0.0
H170 H 0.08609 0.66671 0.96588 0.0
Co171 Co 0.11936 0.67586 0.90324 0.0
C172 C 0.15304 0.70558 0.87719 0.0
O173 O 0.15671 0.69598 0.844 0.0
N174 N 0.12534 0.6721 0.824 0.0
C175 C 0.13089 0.66036 0.74532 0.0
C176 C 0.12855 0.65986 0.8072 0.0
C177 C 0.12578 0.67986 0.77076 0.0
N178 N 0.12904 0.67287 0.72214 0.0
O179 O 0.1052 0.68365 0.86752 0.0
H180 H 0.12893 0.65078 0.83727 0.0
H181 H 0.12324 0.69011 0.76754 0.0
O182 O 0.13885 0.69911 0.90483 0.0
C183 C 0.09206 0.67178 0.84246 0.0
O184 O 0.09074 0.65692 0.83808 0.0
N185 N 0.13109 0.66631 0.9402 0.0
C186 C 0.1415 0.64547 0.99383 0.0
C187 C 0.15293 0.66262 0.9845 0.0
C188 C 0.14741 0.67294 0.95836 0.0
C189 C 0.11977 0.64986 0.95118 0.0
C190 C 0.12469 0.63922 0.9773 0.0
H191 H 0.15624 0.68614 0.95409 0.0
H192 H 0.10681 0.64489 0.93785 0.0
H193 H 0.13479 0.68919 0.03759 0.0
H194 H 0.08417 0.67108 0.08324 0.0
H195 H 0.13361 0.652 0.71941 0.0
H196 H 0.16594 0.66805 0.99807 0.0
H197 H 0.11541 0.62609 0.98308 0.0
C198 C 0.91662 0.58292 0.67011 0.0
C199 C 0.91697 0.58626 0.60894 0.0
N200 N 0.90107 0.57847 0.58803 0.0
N201 N 0.90057 0.57325 0.68827 0.0
C202 C 0.89134 0.57067 0.63714 0.0
H203 H 0.92746 0.58665 0.69887 0.0
Co204 Co 0.89438 0.56401 0.76606 0.0
C205 C 0.8602 0.55877 0.79041 0.0
O206 O 0.85681 0.54539 0.82252 0.0
N207 N 0.88862 0.55465 0.84597 0.0
C208 C 0.882 0.5375 0.92581 0.0
C209 C 0.88497 0.53914 0.8642 0.0
C210 C 0.88798 0.56224 0.89819 0.0
N211 N 0.88393 0.55204 0.94727 0.0
O212 O 0.90816 0.58622 0.80017 0.0
H213 H 0.88454 0.52946 0.83532 0.0
H214 H 0.89035 0.57499 0.90018 0.0
O215 O 0.87451 0.5671 0.76397 0.0
C216 C 0.92148 0.58794 0.82508 0.0
O217 O 0.92331 0.57471 0.82979 0.0
N218 N 0.88307 0.54254 0.73038 0.0
C219 C 0.8734 0.51129 0.67798 0.0
C220 C 0.86189 0.51704 0.68351 0.0
C221 C 0.86706 0.53289 0.70903 0.0
C222 C 0.89451 0.53742 0.72284 0.0
C223 C 0.88994 0.52184 0.69763 0.0
H224 H 0.85824 0.53733 0.71007 0.0
H225 H 0.90728 0.54544 0.73825 0.0
H226 H 0.87783 0.5628 0.63555 0.0
H227 H 0.92813 0.59307 0.58126 0.0
H228 H 0.87914 0.52658 0.95308 0.0
H229 H 0.84912 0.5095 0.66729 0.0
H230 H 0.89927 0.51799 0.6948 0.0
C231 C 0.33724 0.9181 0.84338 0.0
C232 C 0.33552 0.91949 0.78187 0.0
N233 N 0.32835 0.90404 0.75694 0.0
N234 N 0.33101 0.90183 0.85805 0.0
C235 C 0.32553 0.89352 0.8044 0.0
H236 H 0.34344 0.92846 0.87484 0.0
Co237 Co 0.33358 0.89472 0.93525 0.0
C238 C 0.3049 0.86024 0.9543 0.0
O239 O 0.3152 0.85668 0.98347 0.0
N240 N 0.3367 0.88809 0.01456 0.0
C241 C 0.34673 0.88075 0.09402 0.0
C242 C 0.34833 0.8841 0.03265 0.0
C243 C 0.32828 0.88716 0.06664 0.0
N244 N 0.33416 0.88273 0.11554 0.0
O245 O 0.32506 0.90818 0.97134 0.0
H246 H 0.35763 0.88371 1.00392 0.0
H247 H 0.31802 0.88972 0.06875 0.0
O248 O 0.31058 0.87485 0.93064 0.0
C249 C 0.33669 0.92127 0.99752 0.0
O250 O 0.35164 0.92284 1.00239 0.0
N251 N 0.34392 0.8838 0.89792 0.0
C252 C 0.36556 0.87519 0.83918 0.0
C253 C 0.34818 0.86382 0.84165 0.0
C254 C 0.3375 0.86843 0.8707 0.0
C255 C 0.36063 0.89512 0.89404 0.0
C256 C 0.37167 0.89101 0.86613 0.0
H257 H 0.32416 0.85987 0.86884 0.0
H258 H 0.36544 0.90744 0.91399 0.0
H259 H 0.32053 0.88016 0.79966 0.0
H260 H 0.33978 0.93112 0.75728 0.0
H261 H 0.35464 0.87765 0.12113 0.0
H262 H 0.34281 0.85165 0.8199 0.0
H263 H 0.38494 0.9002 0.86631 0.0
C264 C 0.44618 0.35258 1.00537 0.0
C265 C 0.44312 0.35305 0.94434 0.0
N266 N 0.4373 0.33757 0.92093 0.0
N267 N 0.44234 0.33688 0.02071 0.0
C268 C 0.43676 0.32794 0.96851 0.0
H269 H 0.45157 0.36317 0.0362 0.0
Co270 Co 0.4461 0.33111 0.09829 0.0
C271 C 0.45004 0.30178 0.05345 0.0
O272 O 0.46641 0.31071 0.04897 0.0
N273 N 0.4495 0.32524 0.17732 0.0
C274 C 0.45827 0.31593 0.25455 0.0
C275 C 0.45908 0.3185 0.19274 0.0
C276 C 0.44311 0.32675 0.23099 0.0
N277 N 0.44818 0.32109 0.27873 0.0
O278 O 0.42254 0.32192 0.11513 0.0
H279 H 0.46663 0.31601 0.16157 0.0
H280 H 0.43481 0.33183 0.23513 0.0
O281 O 0.44149 0.30859 0.07058 0.0
C282 C 0.41983 0.33374 0.13021 0.0
O283 O 0.43273 0.34893 0.13711 0.0
N284 N 0.4697 0.34244 0.08163 0.0
C285 C 0.50324 0.36632 0.05507 0.0
C286 C 0.49296 0.35459 0.01117 0.0
C287 C 0.47622 0.343 0.02495 0.0
C288 C 0.4796 0.35384 0.12475 0.0
C289 C 0.4964 0.36561 0.11288 0.0
H290 H 0.46839 0.33483 0.98896 0.0
H291 H 0.47431 0.35454 0.16787 0.0
H292 H 0.43297 0.31479 0.96499 0.0
H293 H 0.44589 0.36418 0.91861 0.0
H294 H 0.46501 0.31106 0.27984 0.0
H295 H 0.49748 0.35492 0.96533 0.0
H296 H 0.50378 0.37448 0.14821 0.0
C297 C 0.09748 0.42427 0.16687 0.0
C298 C 0.09762 0.42117 0.10571 0.0
N299 N 0.11336 0.43086 0.08467 0.0
N300 N 0.1131 0.43575 0.185 0.0
C301 C 0.12252 0.43952 0.13373 0.0
H302 H 0.08643 0.41902 0.19539 0.0
Co303 Co 0.11864 0.44555 0.26265 0.0
C304 C 0.15224 0.44988 0.2944 0.0
O305 O 0.15547 0.46303 0.32765 0.0
N306 N 0.1237 0.45539 0.34168 0.0
C307 C 0.12922 0.47287 0.41973 0.0
C308 C 0.12673 0.47084 0.35788 0.0
C309 C 0.12414 0.44821 0.39519 0.0
N310 N 0.12759 0.45864 0.44328 0.0
O311 O 0.10427 0.42369 0.29859 0.0
H312 H 0.12695 0.48013 0.32734 0.0
H313 H 0.12216 0.43562 0.39869 0.0
O314 O 0.13831 0.4421 0.26516 0.0
C315 C 0.09074 0.42278 0.31812 0.0
O316 O 0.08942 0.43633 0.31547 0.0
N317 N 0.13059 0.46685 0.22566 0.0
C318 C 0.14135 0.49825 0.17261 0.0
C319 C 0.15282 0.49277 0.18501 0.0
C320 C 0.14715 0.47687 0.21089 0.0
C321 C 0.11927 0.47174 0.21159 0.0
C322 C 0.12434 0.48736 0.18563 0.0
H323 H 0.15609 0.47274 0.21779 0.0
H324 H 0.10615 0.46353 0.22244 0.0
H325 H 0.13573 0.44884 0.13194 0.0
H326 H 0.08674 0.41316 0.07814 0.0
H327 H 0.13158 0.48386 0.44559 0.0
H328 H 0.16601 0.50061 0.17423 0.0
H329 H 0.11502 0.49103 0.17745 0.0
C330 C 0.68114 0.09372 0.32746 0.0
C331 C 0.68412 0.0937 0.26611 0.0
N332 N 0.68979 0.10931 0.24432 0.0
N333 N 0.68504 0.10931 0.34496 0.0
C334 C 0.69036 0.11856 0.29319 0.0
H335 H 0.67561 0.08278 0.35653 0.0
Co336 Co 0.68057 0.11498 0.4221 0.0
C337 C 0.70931 0.14906 0.45215 0.0
O338 O 0.6991 0.1521 0.48444 0.0
N339 N 0.67561 0.12018 0.50055 0.0
C340 C 0.66324 0.12526 0.57835 0.0
C341 C 0.66289 0.12276 0.51648 0.0
C342 C 0.68334 0.12094 0.55413 0.0
N343 N 0.67609 0.12408 0.60212 0.0
O344 O 0.68844 0.10111 0.45961 0.0
H345 H 0.65366 0.1226 0.48571 0.0
H346 H 0.69416 0.11931 0.55779 0.0
O347 O 0.70351 0.135 0.42403 0.0
C348 C 0.6758 0.08761 0.47934 0.0
O349 O 0.66082 0.086 0.47425 0.0
N350 N 0.67079 0.12633 0.38378 0.0
C351 C 0.64986 0.13573 0.32452 0.0
C352 C 0.66659 0.14771 0.33817 0.0
C353 C 0.67699 0.14271 0.36715 0.0
C354 C 0.65471 0.11457 0.36953 0.0
C355 C 0.64404 0.11896 0.3403 0.0
H356 H 0.68995 0.15198 0.37439 0.0
H357 H 0.65008 0.10161 0.38192 0.0
H358 H 0.69398 0.13168 0.29091 0.0
H359 H 0.68127 0.08277 0.23896 0.0
H360 H 0.65435 0.12726 0.60407 0.0
H361 H 0.67167 0.16074 0.32552 0.0
H362 H 0.63121 0.1093 0.33117 0.0
C363 C 0.56709 0.65772 0.51363 0.0
C364 C 0.57018 0.65707 0.45271 0.0
N365 N 0.57532 0.6723 0.42802 0.0
N366 N 0.57023 0.67327 0.52766 0.0
C367 C 0.5755 0.68198 0.4748 0.0
H368 H 0.56207 0.6473 0.5452 0.0
Co369 Co 0.56581 0.6789 0.60458 0.0
C370 C 0.56349 0.70908 0.55942 0.0
O371 O 0.54713 0.70058 0.55334 0.0
N372 N 0.5617 0.68462 0.68349 0.0
C373 C 0.55179 0.69331 0.75935 0.0
C374 C 0.55209 0.69147 0.6973 0.0
C375 C 0.56711 0.68249 0.73848 0.0
N376 N 0.56126 0.68766 0.7853 0.0
O377 O 0.58902 0.68718 0.62489 0.0
H378 H 0.54522 0.69448 0.6648 0.0
H379 H 0.57482 0.67684 0.74474 0.0
O380 O 0.57152 0.7018 0.57736 0.0
C381 C 0.59062 0.67508 0.64544 0.0
O382 O 0.577 0.6605 0.65453 0.0
N383 N 0.54244 0.66833 0.58421 0.0
C384 C 0.50923 0.64505 0.55165 0.0
C385 C 0.52021 0.65689 0.50951 0.0
C386 C 0.53674 0.66826 0.52641 0.0
C387 C 0.53177 0.65683 0.62571 0.0
C388 C 0.51507 0.64537 0.61086 0.0
H389 H 0.54506 0.67666 0.49194 0.0
H390 H 0.53639 0.65571 0.66971 0.0
H391 H 0.57861 0.69492 0.47004 0.0
H392 H 0.5678 0.64593 0.42785 0.0
H393 H 0.54507 0.69841 0.78342 0.0
H394 H 0.51623 0.65699 0.4631 0.0
H395 H 0.50714 0.6361 0.64427 0.0
H396 H 0.45538 0.28406 0.96695 0.0
H397 H 0.44903 0.25496 0.974 0.0
H398 H 0.42306 0.24939 0.14389 0.0
H399 H 0.42872 0.27832 0.135 0.0
H400 H 0.46203 0.24554 0.05739 0.0
H401 H 0.39325 0.20382 0.07393 0.0
H402 H 0.40265 0.22535 0.04889 0.0
H403 H 0.40101 0.22045 0.12898 0.0
C404 C 0.4477 0.27637 1.00444 0.0
C405 C 0.44238 0.28335 0.05005 0.0
C406 C 0.44416 0.25976 0.00873 0.0
C407 C 0.43552 0.24983 0.05947 0.0
C408 C 0.42938 0.25653 0.10352 0.0
H409 H 0.46083 0.17745 0.19731 0.0
H410 H 0.45425 0.19996 0.18637 0.0
C411 C 0.43262 0.27311 0.09848 0.0
C412 C 0.43525 0.23364 0.07011 0.0
H413 H 0.41021 0.19211 0.10655 0.0
C414 C 0.45062 0.23386 0.06749 0.0
C415 C 0.42042 0.21828 0.08312 0.0
C416 C 0.40338 0.21689 0.08329 0.0
C417 C 0.45164 0.21937 0.07804 0.0
C418 C 0.43697 0.2042 0.09395 0.0
C419 C 0.4215 0.20379 0.0954 0.0
C420 C 0.43778 0.18882 0.10885 0.0
C421 C 0.4685 0.22046 0.07113 0.0
C422 C 0.42971 0.17442 0.07192 0.0
C423 C 0.43317 0.16128 0.07912 0.0
C424 C 0.44485 0.16246 0.12304 0.0
C425 C 0.45183 0.17625 0.16295 0.0
C426 C 0.44817 0.18918 0.15643 0.0
H427 H 0.47718 0.23131 0.04233 0.0
H428 H 0.47436 0.22217 0.11673 0.0
H429 H 0.46716 0.20884 0.05051 0.0
H430 H 0.42158 0.17382 0.03509 0.0
H431 H 0.42774 0.15088 0.04732 0.0
H432 H 0.18349 0.46589 0.34444 0.0
H433 H 0.20612 0.45983 0.3315 0.0
H434 H 0.1743 0.4174 0.21775 0.0
H435 H 0.15145 0.42373 0.22918 0.0
H436 H 0.20914 0.43314 0.36104 0.0
H437 H 0.21506 0.44273 0.10987 0.0
H438 H 0.20239 0.44838 0.15576 0.0
H439 H 0.19484 0.42678 0.13664 0.0
C440 C 0.18119 0.45524 0.31651 0.0
C441 C 0.16561 0.44538 0.28744 0.0
C442 C 0.1942 0.45175 0.30937 0.0
C443 C 0.19207 0.43827 0.27309 0.0
C444 C 0.1764 0.42808 0.24502 0.0
H445 H 0.27888 0.42046 0.27971 0.0
H446 H 0.24983 0.4147 0.28992 0.0
C447 C 0.1633 0.43165 0.25186 0.0
C448 C 0.20657 0.43545 0.26451 0.0
H449 H 0.23449 0.43715 0.15794 0.0
C450 C 0.21458 0.4338 0.31654 0.0
C451 C 0.21374 0.4364 0.20648 0.0
C452 C 0.20619 0.4388 0.14894 0.0
C453 C 0.22988 0.43387 0.31249 0.0
C454 C 0.23725 0.43522 0.25456 0.0
C455 C 0.22883 0.43605 0.20232 0.0
C456 C 0.25458 0.43793 0.24742 0.0
C457 C 0.2385 0.43352 0.37056 0.0
C458 C 0.26685 0.45264 0.21894 0.0
C459 C 0.28327 0.45584 0.21249 0.0
C460 C 0.288 0.44442 0.23447 0.0
C461 C 0.2757 0.42957 0.26264 0.0
C462 C 0.25911 0.42631 0.26876 0.0
H463 H 0.23286 0.43588 0.41148 0.0
H464 H 0.23732 0.42099 0.37573 0.0
H465 H 0.25207 0.44306 0.36916 0.0
H466 H 0.26375 0.46184 0.20219 0.0
H467 H 0.29232 0.46742 0.19051 0.0
H468 H 0.73521 0.14862 0.38953 0.0
H469 H 0.7643 0.17184 0.37858 0.0
H470 H 0.75226 0.20364 0.48594 0.0
H471 H 0.7237 0.1807 0.49836 0.0
H472 H 0.77658 0.20199 0.32655 0.0
H473 H 0.79449 0.21227 0.56902 0.0
H474 H 0.77583 0.19372 0.54279 0.0
H475 H 0.7755 0.21282 0.55777 0.0
C476 C 0.73885 0.16051 0.41133 0.0
C477 C 0.72709 0.16269 0.44521 0.0
C478 C 0.75548 0.17378 0.40504 0.0
C479 C 0.76066 0.18943 0.43274 0.0
C480 C 0.74884 0.1916 0.46585 0.0
H481 H 0.83055 0.28871 0.32884 0.0
H482 H 0.80808 0.25992 0.3412 0.0
C483 C 0.73237 0.17842 0.47241 0.0
C484 C 0.77801 0.20395 0.42448 0.0
H485 H 0.81003 0.23634 0.50248 0.0
C486 C 0.78403 0.20931 0.3651 0.0
C487 C 0.78806 0.21339 0.47455 0.0
C488 C 0.7832 0.20762 0.53955 0.0
C489 C 0.79914 0.22439 0.35449 0.0
C490 C 0.8083 0.23467 0.40452 0.0
C491 C 0.80292 0.22871 0.46393 0.0
C492 C 0.82255 0.25217 0.39615 0.0
C493 C 0.805 0.22921 0.28954 0.0
C494 C 0.83817 0.2578 0.4248 0.0
C495 C 0.85115 0.27455 0.41858 0.0
C496 C 0.84872 0.28601 0.38376 0.0
C497 C 0.83303 0.28029 0.35553 0.0
C498 C 0.82013 0.26369 0.36206 0.0
H499 H 0.80071 0.21789 0.2605 0.0
H500 H 0.79951 0.23657 0.27055 0.0
H501 H 0.81889 0.2369 0.28668 0.0
H502 H 0.84031 0.24923 0.45201 0.0
H503 H 0.86303 0.27853 0.44115 0.0
H504 H 0.55833 0.72733 0.47464 0.0
H505 H 0.5657 0.7567 0.48247 0.0
H506 H 0.59278 0.76155 0.6489 0.0
H507 H 0.58599 0.73225 0.63944 0.0
H508 H 0.55382 0.76649 0.57061 0.0
H509 H 0.62299 0.80693 0.57511 0.0
H510 H 0.61274 0.78538 0.54966 0.0
H511 H 0.6154 0.79021 0.62982 0.0
C512 C 0.56643 0.73487 0.51154 0.0
C513 C 0.5717 0.72758 0.55615 0.0
C514 C 0.57057 0.75165 0.51622 0.0
C515 C 0.57982 0.76147 0.56628 0.0
C516 C 0.58596 0.75446 0.60911 0.0
H517 H 0.55906 0.83598 0.71314 0.0
H518 H 0.56575 0.81357 0.70117 0.0
C519 C 0.58207 0.73768 0.60373 0.0
C520 C 0.5807 0.77789 0.57783 0.0
H521 H 0.60704 0.8195 0.60993 0.0
C522 C 0.56552 0.77807 0.57861 0.0
C523 C 0.59592 0.79311 0.5882 0.0
C524 C 0.6127 0.79398 0.58508 0.0
C525 C 0.56506 0.79282 0.58991 0.0
C526 C 0.58017 0.80789 0.60277 0.0
C527 C 0.59544 0.8079 0.60096 0.0
C528 C 0.57996 0.82355 0.61797 0.0
C529 C 0.54833 0.79214 0.58728 0.0
C530 C 0.58678 0.83729 0.57769 0.0
C531 C 0.58325 0.85037 0.58528 0.0
C532 C 0.57275 0.84976 0.63298 0.0
C533 C 0.56719 0.83675 0.67602 0.0
C534 C 0.57092 0.82389 0.66899 0.0
H535 H 0.53886 0.78103 0.56142 0.0
H536 H 0.54351 0.79125 0.63432 0.0
H537 H 0.54957 0.80362 0.56569 0.0
H538 H 0.59381 0.8373 0.53805 0.0
H539 H 0.5875 0.86012 0.55097 0.0
H540 H 0.72151 0.54305 0.66913 0.0
H541 H 0.74998 0.54858 0.68339 0.0
H542 H 0.76191 0.59279 0.78835 0.0
H543 H 0.73293 0.58702 0.7756 0.0
H544 H 0.77984 0.57442 0.6499 0.0
H545 H 0.77698 0.56842 0.90259 0.0
H546 H 0.75854 0.56247 0.85689 0.0
H547 H 0.77306 0.58424 0.87205 0.0
C548 C 0.73009 0.55398 0.69543 0.0
C549 C 0.72481 0.56453 0.72159 0.0
C550 C 0.74648 0.55715 0.70333 0.0
C551 C 0.75814 0.571 0.73746 0.0
C552 C 0.75308 0.58183 0.76279 0.0
H553 H 0.86178 0.5862 0.73211 0.0
H554 H 0.83893 0.59251 0.71989 0.0
C555 C 0.73653 0.57858 0.7552 0.0
C556 C 0.77536 0.57357 0.74651 0.0
H557 H 0.80162 0.57271 0.85484 0.0
C558 C 0.78472 0.57426 0.69477 0.0
C559 C 0.7817 0.57329 0.80503 0.0
C560 C 0.77204 0.57193 0.86241 0.0
C561 C 0.79976 0.57385 0.69972 0.0
C562 C 0.8059 0.57316 0.7582 0.0
C563 C 0.79696 0.5733 0.81002 0.0
C564 C 0.82029 0.57017 0.76675 0.0
C565 C 0.80836 0.57313 0.64214 0.0
C566 C 0.81763 0.55579 0.79839 0.0
C567 C 0.83063 0.5523 0.80601 0.0
C568 C 0.84673 0.56306 0.78205 0.0
C569 C 0.84951 0.57759 0.75076 0.0
C570 C 0.83643 0.58116 0.74349 0.0
H571 H 0.8002 0.57029 0.60139 0.0
H572 H 0.81986 0.58546 0.63473 0.0
H573 H 0.81214 0.56344 0.64591 0.0
H574 H 0.80534 0.54708 0.81668 0.0
H575 H 0.82793 0.541 0.83042 0.0
H576 H 0.27873 0.86152 0.89685 0.0
H577 H 0.24951 0.83849 0.88611 0.0
H578 H 0.262 0.80536 0.98237 0.0
H579 H 0.29069 0.82803 0.99433 0.0
H580 H 0.23675 0.80846 0.82935 0.0
H581 H 0.22049 0.79659 0.07298 0.0
H582 H 0.2389 0.81536 0.04657 0.0
H583 H 0.23947 0.79626 0.05812 0.0
C584 C 0.27517 0.84935 0.91615 0.0
C585 C 0.28709 0.84672 0.94682 0.0
C586 C 0.25847 0.8362 0.91003 0.0
C587 C 0.25339 0.82025 0.93483 0.0
C588 C 0.26537 0.81763 0.96459 0.0
H589 H 0.1844 0.72166 0.82805 0.0
H590 H 0.20638 0.75062 0.84122 0.0
C591 C 0.28191 0.83066 0.97086 0.0
C592 C 0.23594 0.80589 0.92708 0.0
H593 H 0.20457 0.7729 1.00506 0.0
C594 C 0.22956 0.80089 0.8679 0.0
C595 C 0.22625 0.79612 0.97724 0.0
C596 C 0.23156 0.80149 0.04228 0.0
C597 C 0.21446 0.78579 0.85736 0.0
C598 C 0.20569 0.77517 0.9072 0.0
C599 C 0.21139 0.78081 0.96663 0.0
C600 C 0.19168 0.75759 0.8983 0.0
C601 C 0.20824 0.78127 0.79267 0.0
C602 C 0.1761 0.75149 0.92781 0.0
C603 C 0.16338 0.73464 0.92101 0.0
C604 C 0.16607 0.72357 0.88489 0.0
C605 C 0.18173 0.72976 0.85587 0.0
C606 C 0.19435 0.74646 0.86283 0.0
H607 H 0.21223 0.79271 0.76465 0.0
H608 H 0.21375 0.77413 0.77179 0.0
H609 H 0.19435 0.77344 0.79081 0.0
H610 H 0.17378 0.75977 0.95611 0.0
H611 H 0.15151 0.73029 0.94421 0.0
H612 H 0.47181 0.14634 0.79994 0.0
H613 H 0.4661 0.14049 0.69147 0.0
H614 H 0.41634 0.09996 0.73312 0.0
H615 H 0.42215 0.10565 0.84246 0.0
H616 H 0.43071 0.09076 0.64774 0.0
H617 H 0.4386 0.15219 0.58176 0.0
H618 H 0.45684 0.15473 0.62083 0.0
H619 H 0.43703 0.14576 0.66036 0.0
C620 C 0.45958 0.1363 0.78609 0.0
C621 C 0.44736 0.12657 0.82985 0.0
C622 C 0.45629 0.13301 0.72393 0.0
C623 C 0.44062 0.12009 0.70385 0.0
C624 C 0.42847 0.11012 0.74743 0.0
H625 H 0.42035 0.1126 0.30813 0.0
H626 H 0.41789 0.11569 0.41839 0.0
C627 C 0.43182 0.11332 0.80988 0.0
C628 C 0.43733 0.11663 0.63746 0.0
H629 H 0.44079 0.13576 0.50034 0.0
C630 C 0.43268 0.10055 0.61562 0.0
C631 C 0.43949 0.12925 0.59537 0.0
C632 C 0.44308 0.14638 0.61587 0.0
C633 C 0.43107 0.09701 0.55285 0.0
C634 C 0.43462 0.11002 0.5106 0.0
C635 C 0.43833 0.12584 0.53254 0.0
C636 C 0.43561 0.10777 0.4438 0.0
C637 C 0.42562 0.07935 0.53257 0.0
C638 C 0.44659 0.10263 0.42132 0.0
C639 C 0.44794 0.1008 0.35876 0.0
C640 C 0.43851 0.1043 0.31686 0.0
C641 C 0.42776 0.1098 0.33923 0.0
C642 C 0.42632 0.11152 0.40217 0.0
H643 H 0.41787 0.07005 0.56805 0.0
H644 H 0.41829 0.07614 0.48956 0.0
H645 H 0.4369 0.07816 0.52485 0.0
H646 H 0.45436 0.10026 0.45218 0.0
H647 H 0.45669 0.097 0.3432 0.0
H648 H 0.31728 0.40305 0.51283 0.0
H649 H 0.3149 0.40606 0.62258 0.0
H650 H 0.32562 0.45688 0.59497 0.0
H651 H 0.32781 0.45382 0.48492 0.0
H652 H 0.33983 0.42768 0.6954 0.0
H653 H 0.28671 0.43973 0.7127 0.0
H654 H 0.29102 0.4317 0.64415 0.0
H655 H 0.30284 0.45376 0.66133 0.0
C656 C 0.31891 0.41479 0.5301 0.0
C657 C 0.32275 0.4282 0.49019 0.0
C658 C 0.31751 0.41649 0.59283 0.0
C659 C 0.31992 0.43164 0.61722 0.0
C660 C 0.3233 0.44493 0.57729 0.0
H661 H 0.33818 0.47522 0.97709 0.0
H662 H 0.33308 0.46873 0.86836 0.0
C663 C 0.32458 0.44318 0.51432 0.0
C664 C 0.32033 0.43392 0.68456 0.0
H665 H 0.30361 0.44527 0.80197 0.0
C666 C 0.33176 0.43135 0.71872 0.0
C667 C 0.30987 0.43878 0.71509 0.0
C668 C 0.2968 0.441 0.68155 0.0
C669 C 0.33331 0.43385 0.78209 0.0
C670 C 0.32299 0.43887 0.8125 0.0
C671 C 0.31147 0.44137 0.77858 0.0
C672 C 0.32458 0.44232 0.8791 0.0
C673 C 0.34637 0.43162 0.81575 0.0
C674 C 0.32107 0.42953 0.92153 0.0
C675 C 0.32403 0.43322 0.98384 0.0
C676 C 0.33058 0.44979 1.00482 0.0
C677 C 0.3334 0.4624 0.96235 0.0
C678 C 0.33038 0.45869 0.90022 0.0
H679 H 0.35561 0.43121 0.7842 0.0
H680 H 0.35325 0.44197 0.84893 0.0
H681 H 0.34008 0.41964 0.84149 0.0
H682 H 0.31637 0.41675 0.90628 0.0
H683 H 0.32179 0.42323 0.01519 0.0
H684 H 0.9133 0.31135 0.67285 0.0
H685 H 0.90861 0.31034 0.78283 0.0
H686 H 0.87387 0.3283 0.7558 0.0
H687 H 0.87849 0.32924 0.6454 0.0
H688 H 0.91644 0.33771 0.85186 0.0
H689 H 0.84893 0.2908 0.87962 0.0
H690 H 0.86038 0.2926 0.81048 0.0
H691 H 0.85291 0.30696 0.82517 0.0
C692 C 0.90448 0.31485 0.69027 0.0
C693 C 0.89632 0.32044 0.65043 0.0
C694 C 0.90178 0.31423 0.75314 0.0
C695 C 0.89081 0.31914 0.77773 0.0
C696 C 0.88213 0.32412 0.73792 0.0
H697 H 0.89621 0.36046 0.13439 0.0
H698 H 0.89636 0.35464 0.02611 0.0
C699 C 0.88478 0.32466 0.67477 0.0
C700 C 0.88982 0.32059 0.84502 0.0
H701 H 0.86279 0.30804 0.96615 0.0
C702 C 0.90471 0.33111 0.87682 0.0
C703 C 0.87456 0.31187 0.87781 0.0
C704 C 0.8583 0.29979 0.8467 0.0
C705 C 0.90472 0.33346 0.94005 0.0
C706 C 0.88938 0.32528 0.97246 0.0
C707 C 0.87453 0.3144 0.94113 0.0
C708 C 0.88855 0.32843 0.03847 0.0
C709 C 0.92119 0.34469 0.9717 0.0
C710 C 0.88374 0.31552 0.08152 0.0
C711 C 0.88354 0.31879 0.14391 0.0
C712 C 0.88797 0.335 0.16424 0.0
C713 C 0.89254 0.34779 0.12062 0.0
C714 C 0.89279 0.34453 0.05856 0.0
H715 H 0.93206 0.34639 0.9441 0.0
H716 H 0.92254 0.35724 0.97891 0.0
H717 H 0.92166 0.33952 0.01693 0.0
H718 H 0.88035 0.30297 0.06691 0.0
H719 H 0.87977 0.30861 0.17611 0.0
H720 H 0.5568 0.91349 0.85102 0.0
H721 H 0.55755 0.90877 0.95983 0.0
H722 H 0.59286 0.89175 0.92879 0.0
H723 H 0.59245 0.8968 0.81889 0.0
H724 H 0.54885 0.8774 0.01492 0.0
H725 H 0.61421 0.92724 0.06871 0.0
H726 H 0.60347 0.9276 1.00027 0.0
H727 H 0.61158 0.91353 0.00595 0.0
C728 C 0.56501 0.90906 0.86707 0.0
C729 C 0.57472 0.9057 0.82599 0.0
C730 C 0.5653 0.90623 0.92944 0.0
C731 C 0.57537 0.90007 0.95251 0.0
C732 C 0.58517 0.89673 0.91199 0.0
H733 H 0.5627 0.85727 0.31722 0.0
H734 H 0.5665 0.86234 0.20753 0.0
C735 C 0.58483 0.8995 0.84921 0.0
C736 C 0.57491 0.89655 0.01875 0.0
H737 H 0.5981 0.90961 0.14977 0.0
C738 C 0.55965 0.88435 0.04438 0.0
C739 C 0.58896 0.90579 0.05707 0.0
C740 C 0.60549 0.91938 0.032 0.0
C741 C 0.55801 0.88119 0.10735 0.0
C742 C 0.57208 0.89035 0.14571 0.0
C743 C 0.58738 0.90254 0.12015 0.0
C744 C 0.57091 0.88769 0.2127 0.0
C745 C 0.54111 0.86837 0.13259 0.0
C746 C 0.57258 0.90042 0.25224 0.0
C747 C 0.57032 0.89754 0.31515 0.0
C748 C 0.56641 0.88186 0.33976 0.0
C749 C 0.56531 0.86934 0.29994 0.0
C750 C 0.56755 0.87224 0.23715 0.0
H751 H 0.53085 0.86506 0.09916 0.0
H752 H 0.54133 0.85675 0.14427 0.0
H753 H 0.53823 0.8731 0.17482 0.0
H754 H 0.57518 0.91245 0.23424 0.0
H755 H 0.57115 0.90744 0.34413 0.0
H756 H 0.66878 0.58527 0.01228 0.0
H757 H 0.67201 0.58198 0.1203 0.0
H758 H 0.70863 0.56719 0.0804 0.0
H759 H 0.70559 0.57065 0.9708 0.0
H760 H 0.68464 0.54631 0.16473 0.0
H761 H 0.71053 0.61256 0.23267 0.0
H762 H 0.69159 0.60496 0.18913 0.0
H763 H 0.70995 0.6063 0.15426 0.0
C764 C 0.67781 0.58165 0.02597 0.0
C765 C 0.68714 0.5785 0.98232 0.0
C766 C 0.67963 0.57976 0.08816 0.0
C767 C 0.69086 0.57474 0.10875 0.0
C768 C 0.70002 0.57127 0.06559 0.0
H769 H 0.70465 0.57476 0.50795 0.0
H770 H 0.71111 0.58032 0.39887 0.0
C771 C 0.69822 0.57318 1.00294 0.0
C772 C 0.69224 0.57242 0.17529 0.0
H773 H 0.69771 0.59202 0.31275 0.0
C774 C 0.68777 0.55637 0.19706 0.0
C775 C 0.69661 0.58559 0.21765 0.0
C776 C 0.70262 0.60336 0.19723 0.0
C777 C 0.68656 0.55293 0.25993 0.0
C778 C 0.68963 0.5658 0.30221 0.0
C779 C 0.69512 0.58208 0.28049 0.0
C780 C 0.68603 0.56234 0.36851 0.0
C781 C 0.68178 0.53545 0.28043 0.0
C782 C 0.66974 0.55069 0.38785 0.0
C783 C 0.66601 0.54756 0.44985 0.0
C784 C 0.67846 0.55609 0.49443 0.0
C785 C 0.69475 0.568 0.47505 0.0
C786 C 0.69848 0.57113 0.41267 0.0
H787 H 0.6853 0.52894 0.24583 0.0
H788 H 0.68788 0.53567 0.32438 0.0
H789 H 0.66796 0.52799 0.28669 0.0
H790 H 0.65977 0.54414 0.35488 0.0
H791 H 0.65323 0.53864 0.46274 0.0
H792 H 0.14114 0.70427 0.13395 0.0
H793 H 0.14784 0.70764 0.2434 0.0
H794 H 0.09751 0.66817 0.28403 0.0
H795 H 0.09081 0.66469 0.17607 0.0
H796 H 0.10807 0.69617 0.35842 0.0
H797 H 0.15523 0.6752 0.35012 0.0
H798 H 0.15896 0.69237 0.30101 0.0
H799 H 0.1412 0.67192 0.28746 0.0
C800 C 0.13155 0.69628 0.16625 0.0
C801 C 0.1154 0.6843 0.14595 0.0
C802 C 0.13539 0.69821 0.22877 0.0
C803 C 0.12319 0.6881 0.27195 0.0
C804 C 0.1071 0.67621 0.25169 0.0
H805 H 0.12155 0.65172 0.62638 0.0
H806 H 0.12213 0.65824 0.51862 0.0
C807 C 0.10327 0.67429 0.18965 0.0
C808 C 0.12688 0.6895 0.33841 0.0
H809 H 0.14847 0.68122 0.44656 0.0
C810 C 0.11708 0.69314 0.37778 0.0
C811 C 0.13854 0.68541 0.36351 0.0
C812 C 0.14904 0.68088 0.3236 0.0
C813 C 0.11815 0.6922 0.44147 0.0
C814 C 0.12955 0.68774 0.46656 0.0
C815 C 0.1398 0.68472 0.42723 0.0
C816 C 0.12974 0.68435 0.53279 0.0
C817 C 0.10644 0.69507 0.48121 0.0
C818 C 0.13389 0.69688 0.577 0.0
C819 C 0.13358 0.69317 0.63924 0.0
C820 C 0.12927 0.67689 0.65827 0.0
C821 C 0.12522 0.66445 0.61363 0.0
C822 C 0.12548 0.66815 0.55179 0.0
H823 H 0.09632 0.69531 0.45434 0.0
H824 H 0.10057 0.68513 0.5165 0.0
H825 H 0.11367 0.70731 0.50485 0.0
H826 H 0.13746 0.70955 0.56339 0.0
H827 H 0.13696 0.70308 0.67233 0.0
H828 H 0.90258 0.58189 1.00487 0.0
H829 H 0.90301 0.58715 0.11489 0.0
H830 H 0.8633 0.53608 0.14208 0.0
H831 H 0.86301 0.53076 0.03276 0.0
H832 H 0.87905 0.58445 0.19942 0.0
H833 H 0.90015 0.53897 0.25215 0.0
H834 H 0.90012 0.54616 0.17568 0.0
H835 H 0.88097 0.53001 0.20935 0.0
C836 C 0.8938 0.57189 0.0343 0.0
C837 C 0.88292 0.55585 0.01038 0.0
C838 C 0.89408 0.57487 0.09712 0.0
C839 C 0.88346 0.56189 0.13693 0.0
C840 C 0.87194 0.54616 0.11254 0.0
H841 H 0.87499 0.55173 0.53275 0.0
H842 H 0.86901 0.54813 0.42306 0.0
C843 C 0.87176 0.54314 0.05006 0.0
C844 C 0.88481 0.56451 0.20408 0.0
H845 H 0.89277 0.55007 0.33626 0.0
C846 C 0.88208 0.57696 0.22935 0.0
C847 C 0.88882 0.55476 0.24318 0.0
C848 C 0.89285 0.54184 0.21878 0.0
C849 C 0.883 0.57974 0.29271 0.0
C850 C 0.88691 0.56992 0.33165 0.0
C851 C 0.88959 0.55746 0.30639 0.0
C852 C 0.88917 0.57285 0.39848 0.0
C853 C 0.8796 0.59302 0.31757 0.0
C854 C 0.90236 0.58799 0.42111 0.0
C855 C 0.90579 0.59005 0.48361 0.0
C856 C 0.89613 0.57702 0.52486 0.0
C857 C 0.88253 0.56207 0.50233 0.0
C858 C 0.87916 0.55997 0.43964 0.0
H859 H 0.87257 0.59631 0.28443 0.0
H860 H 0.87235 0.58881 0.36075 0.0
H861 H 0.89172 0.60456 0.32733 0.0
H862 H 0.91042 0.59799 0.39021 0.0
H863 H 0.91627 0.60174 0.49962 0.0
H864 H 0.30666 0.87423 0.70278 0.0
H865 H 0.30464 0.86762 0.59342 0.0
H866 H 0.34356 0.91836 0.55566 0.0
H867 H 0.34599 0.92492 0.66376 0.0
H868 H 0.29823 0.88355 0.48972 0.0
H869 H 0.36091 0.88884 0.47915 0.0
H870 H 0.35004 0.8866 0.55014 0.0
H871 H 0.36112 0.9067 0.51307 0.0
C872 C 0.31482 0.88395 0.67121 0.0
C873 C 0.32649 0.90012 0.69248 0.0
C874 C 0.31358 0.88019 0.60871 0.0
C875 C 0.32408 0.89246 0.56651 0.0
C876 C 0.33546 0.90864 0.58745 0.0
H877 H 0.32302 0.90138 0.1734 0.0
H878 H 0.31844 0.90197 0.28332 0.0
C879 C 0.3367 0.91241 0.64953 0.0
C880 C 0.32356 0.88851 0.50057 0.0
H881 H 0.34821 0.8885 0.38427 0.0
C882 C 0.30908 0.88445 0.46662 0.0
C883 C 0.33765 0.88951 0.47065 0.0
C884 C 0.35327 0.89299 0.50513 0.0
C885 C 0.30853 0.88192 0.40311 0.0
C886 C 0.32293 0.88372 0.37279 0.0
C887 C 0.3372 0.88725 0.40725 0.0
C888 C 0.3237 0.88214 0.30542 0.0
C889 C 0.29252 0.87725 0.36922 0.0
C890 C 0.32819 0.87083 0.28101 0.0
C891 C 0.33096 0.8706 0.21846 0.0
C892 C 0.3293 0.88168 0.1787 0.0
C893 C 0.32417 0.89256 0.20273 0.0
C894 C 0.32152 0.89287 0.26559 0.0
H895 H 0.28147 0.8716 0.40016 0.0
H896 H 0.29344 0.88873 0.34895 0.0
H897 H 0.29036 0.86826 0.33181 0.0
H898 H 0.32995 0.86242 0.31067 0.0
H899 H 0.3347 0.86195 0.20124 0.0
H900 H 0.44806 0.30021 0.36613 0.0
H901 H 0.44332 0.30115 0.47515 0.0
H902 H 0.4344 0.34235 0.4461 0.0
H903 H 0.43932 0.34163 0.33671 0.0
H904 H 0.46225 0.32896 0.55093 0.0
H905 H 0.39465 0.30993 0.55472 0.0
H906 H 0.40446 0.30625 0.48979 0.0
H907 H 0.4074 0.3268 0.50338 0.0
C908 C 0.4451 0.30949 0.38274 0.0
C909 C 0.44419 0.32093 0.34251 0.0
C910 C 0.44228 0.30993 0.4451 0.0
C911 C 0.43835 0.3217 0.46867 0.0
C912 C 0.4371 0.33294 0.4287 0.0
H913 H 0.42882 0.3524 0.83198 0.0
H914 H 0.42828 0.34755 0.72225 0.0
C915 C 0.43993 0.33252 0.36614 0.0
C916 C 0.43672 0.32289 0.53552 0.0
H917 H 0.40958 0.31972 0.64796 0.0
C918 C 0.45071 0.32683 0.57224 0.0
C919 C 0.42167 0.32019 0.56304 0.0
C920 C 0.40612 0.31542 0.5259 0.0
C921 C 0.45017 0.32847 0.63568 0.0
C922 C 0.4351 0.3257 0.66338 0.0
C923 C 0.42109 0.32174 0.62666 0.0
C924 C 0.43391 0.32746 0.73019 0.0
C925 C 0.46593 0.33365 0.67223 0.0
C926 C 0.4367 0.31741 0.77125 0.0
C927 C 0.43719 0.32026 0.83407 0.0
C928 C 0.43477 0.33317 0.85706 0.0
C929 C 0.43107 0.34259 0.81583 0.0
C930 C 0.43063 0.33976 0.75308 0.0
H931 H 0.47732 0.33934 0.64296 0.0
H932 H 0.46752 0.3428 0.70828 0.0
H933 H 0.46504 0.32242 0.69461 0.0
H934 H 0.43893 0.30761 0.75459 0.0
H935 H 0.44013 0.3128 0.86426 0.0
H936 H 0.11088 0.42864 0.50187 0.0
H937 H 0.11104 0.42375 0.61184 0.0
H938 H 0.14698 0.47617 0.63869 0.0
H939 H 0.1468 0.48114 0.52934 0.0
H940 H 0.13661 0.42929 0.69459 0.0
H941 H 0.10866 0.46884 0.75125 0.0
H942 H 0.10919 0.46209 0.67448 0.0
H943 H 0.1276 0.47951 0.70719 0.0
C944 C 0.11895 0.43907 0.53116 0.0
C945 C 0.12866 0.45533 0.50698 0.0
C946 C 0.11899 0.43627 0.59399 0.0
C947 C 0.12874 0.44967 0.63368 0.0
C948 C 0.13902 0.46573 0.60922 0.0
H949 H 0.13697 0.45947 0.02977 0.0
H950 H 0.14261 0.46396 0.92007 0.0
C951 C 0.13891 0.46855 0.54667 0.0
C952 C 0.12788 0.447 0.70076 0.0
H953 H 0.11793 0.45914 0.83422 0.0
C954 C 0.1325 0.43578 0.72514 0.0
C955 C 0.1225 0.45548 0.74064 0.0
C956 C 0.11655 0.46703 0.71716 0.0
C957 C 0.13209 0.43299 0.78837 0.0
C958 C 0.12673 0.44149 0.82813 0.0
C959 C 0.12219 0.45275 0.80374 0.0
C960 C 0.12487 0.43832 0.8949 0.0
C961 C 0.1376 0.42114 0.81217 0.0
C962 C 0.11318 0.42238 0.91726 0.0
C963 C 0.10997 0.4198 0.9798 0.0
C964 C 0.11833 0.4331 0.02138 0.0
C965 C 0.13048 0.44892 0.9991 0.0
C966 C 0.13363 0.45153 0.93639 0.0
H967 H 0.14562 0.41933 0.77869 0.0
H968 H 0.14465 0.42581 0.8556 0.0
H969 H 0.12635 0.40872 0.82105 0.0
H970 H 0.10606 0.41207 0.88615 0.0
H971 H 0.10063 0.40745 0.99557 0.0
H972 H 0.67149 0.14217 0.68945 0.0
H973 H 0.67682 0.14236 0.79867 0.0
H974 H 0.6955 0.1083 0.76953 0.0
H975 H 0.69027 0.10815 0.65996 0.0
H976 H 0.66249 0.11578 0.87546 0.0
H977 H 0.73159 0.1432 0.87904 0.0
H978 H 0.72049 0.14413 0.81262 0.0
H979 H 0.72097 0.12527 0.82996 0.0
C980 C 0.67681 0.13478 0.7062 0.0
C981 C 0.68043 0.12512 0.66591 0.0
C982 C 0.67992 0.13496 0.76867 0.0
C983 C 0.68675 0.12551 0.79241 0.0
C984 C 0.69061 0.11602 0.75224 0.0
H985 H 0.69949 0.0961 0.15354 0.0
H986 H 0.69962 0.10136 0.04413 0.0
C987 C 0.68758 0.11591 0.68955 0.0
C988 C 0.68872 0.12475 0.85953 0.0
H989 H 0.71704 0.13092 0.97183 0.0
C990 C 0.67446 0.11925 0.89655 0.0
C991 C 0.70433 0.12922 0.8871 0.0
C992 C 0.72026 0.13594 0.85024 0.0
C993 C 0.67526 0.11772 0.96001 0.0
C994 C 0.69083 0.12206 0.98754 0.0
C995 C 0.70513 0.12765 0.95068 0.0
C996 C 0.69227 0.12017 0.05422 0.0
C997 C 0.65932 0.11098 0.99689 0.0
C998 C 0.6886 0.12937 0.09643 0.0
C999 C 0.68846 0.12634 0.1591 0.0
C1000 C 0.69201 0.11405 0.18072 0.0
C1001 C 0.69645 0.10545 0.13836 0.0
C1002 C 0.69662 0.10851 0.07582 0.0
H1003 H 0.64794 0.10477 0.96767 0.0
H1004 H 0.65858 0.10182 0.03148 0.0
H1005 H 0.65923 0.1215 0.02121 0.0
H1006 H 0.68545 0.13861 0.0808 0.0
H1007 H 0.6849 0.13312 0.1903 0.0
H1008 H 0.56997 0.69521 0.36902 0.0
H1009 H 0.56991 0.69911 0.25863 0.0
H1010 H 0.58463 0.66195 0.23013 0.0
H1011 H 0.58494 0.65812 0.34039 0.0
H1012 H 0.59537 0.70722 0.16458 0.0
H1013 H 0.53921 0.64379 0.13769 0.0
H1014 H 0.54575 0.65416 0.21067 0.0
H1015 H 0.55662 0.64446 0.17743 0.0
C1016 C 0.57355 0.68812 0.33946 0.0
C1017 C 0.5773 0.67621 0.36369 0.0
C1018 C 0.57342 0.69031 0.27629 0.0
C1019 C 0.57698 0.68061 0.23623 0.0
C1020 C 0.58154 0.66934 0.26025 0.0
H1021 H 0.58861 0.68931 0.8394 0.0
H1022 H 0.59315 0.68796 0.949 0.0
C1023 C 0.58169 0.66715 0.32329 0.0
C1024 C 0.57511 0.68166 0.16941 0.0
H1025 H 0.55153 0.65904 0.04743 0.0
C1026 C 0.58583 0.6967 0.13886 0.0
C1027 C 0.56252 0.66794 0.13615 0.0
C1028 C 0.55025 0.6517 0.16702 0.0
C1029 C 0.58437 0.69832 0.07568 0.0
C1030 C 0.57193 0.68452 0.04237 0.0
C1031 C 0.56115 0.66954 0.07305 0.0
C1032 C 0.56943 0.68554 0.976 0.0
C1033 C 0.59589 0.71487 0.04515 0.0
C1034 C 0.55448 0.68435 0.95486 0.0
C1035 C 0.55185 0.68508 0.89245 0.0
C1036 C 0.56404 0.68684 0.84972 0.0
C1037 C 0.57894 0.68785 0.87103 0.0
C1038 C 0.58162 0.68723 0.93365 0.0
H1039 H 0.60265 0.72513 0.07878 0.0
H1040 H 0.60534 0.71365 0.01761 0.0
H1041 H 0.5887 0.71842 0.01385 0.0
H1042 H 0.54486 0.6829 0.98678 0.0
H1043 H 0.54013 0.68401 0.87764 0.0
H1044 H 0.51941 0.12058 0.08416 0.0
H1045 H 0.5467 0.12475 0.11531 0.0
H1046 H 0.55641 0.16889 0.21633 0.0
H1047 H 0.52907 0.16488 0.185 0.0
H1048 H 0.5795 0.15197 0.09942 0.0
H1049 H 0.56223 0.1398 0.34481 0.0
H1050 H 0.54681 0.13491 0.28569 0.0
H1051 H 0.5599 0.15623 0.31035 0.0
C1052 C 0.52742 0.13136 0.11216 0.0
C1053 C 0.52199 0.14239 0.13211 0.0
C1054 C 0.54301 0.13366 0.13021 0.0
C1055 C 0.5535 0.14699 0.16884 0.0
C1056 C 0.54838 0.15833 0.18749 0.0
H1057 H 0.64526 0.16227 0.35121 0.0
H1058 H 0.6237 0.16781 0.30984 0.0
C1059 C 0.53275 0.15602 0.1695 0.0
C1060 C 0.56956 0.14863 0.19047 0.0
H1061 H 0.58939 0.14575 0.31776 0.0
C1062 C 0.58172 0.15074 0.14721 0.0
C1063 C 0.57248 0.14708 0.25288 0.0
C1064 C 0.55965 0.14425 0.30124 0.0
C1065 C 0.59659 0.15107 0.16454 0.0
C1066 C 0.59924 0.14895 0.22668 0.0
C1067 C 0.58736 0.14742 0.27017 0.0
C1068 C 0.6135 0.14686 0.24705 0.0
C1069 C 0.60928 0.15361 0.11608 0.0
C1070 C 0.61501 0.13336 0.22517 0.0
C1071 C 0.62728 0.13021 0.24856 0.0
C1072 C 0.63826 0.14042 0.29473 0.0
C1073 C 0.6371 0.15428 0.31529 0.0
C1074 C 0.62473 0.15739 0.29195 0.0
H1075 H 0.60814 0.16031 0.07583 0.0
H1076 H 0.6223 0.16083 0.13398 0.0
H1077 H 0.60704 0.14119 0.10043 0.0
H1078 H 0.60631 0.12487 0.19142 0.0
H1079 H 0.62794 0.11951 0.23141 0.0
H1080 H 0.36521 0.52348 0.34535 0.0
H1081 H 0.38619 0.55053 0.38823 0.0
H1082 H 0.41505 0.52832 0.45156 0.0
H1083 H 0.3937 0.50116 0.41301 0.0
H1084 H 0.41575 0.54927 0.53336 0.0
H1085 H 0.43013 0.58092 0.30778 0.0
H1086 H 0.4088 0.57264 0.33201 0.0
H1087 H 0.41658 0.55858 0.31597 0.0
C1088 C 0.37587 0.52428 0.36937 0.0
C1089 C 0.37788 0.51014 0.37451 0.0
C1090 C 0.388 0.53985 0.3931 0.0
C1091 C 0.4025 0.54163 0.42158 0.0
C1092 C 0.40411 0.52737 0.42918 0.0
H1093 H 0.50175 0.62538 0.45073 0.0
H1094 H 0.47475 0.60132 0.42223 0.0
C1095 C 0.39193 0.51183 0.40636 0.0
C1096 C 0.41633 0.55828 0.44231 0.0
H1097 H 0.44541 0.59735 0.39178 0.0
C1098 C 0.42217 0.55983 0.50249 0.0
C1099 C 0.42485 0.57203 0.40187 0.0
C1100 C 0.4199 0.57098 0.33568 0.0
C1101 C 0.43657 0.57443 0.52278 0.0
C1102 C 0.44505 0.58819 0.4824 0.0
C1103 C 0.43887 0.58686 0.42285 0.0
C1104 C 0.46116 0.60348 0.49903 0.0
C1105 C 0.443 0.57455 0.5862 0.0
C1106 C 0.46254 0.61299 0.55113 0.0
C1107 C 0.47809 0.62666 0.56802 0.0
C1108 C 0.49244 0.63133 0.53223 0.0
C1109 C 0.49088 0.6222 0.47888 0.0
C1110 C 0.47544 0.60841 0.46262 0.0
H1111 H 0.43771 0.56165 0.60492 0.0
H1112 H 0.45691 0.58066 0.58666 0.0
H1113 H 0.43926 0.58165 0.61706 0.0
H1114 H 0.45164 0.60978 0.57906 0.0
H1115 H 0.47891 0.63359 0.60905 0.0
H1116 H 0.8456 0.36578 0.46731 0.0
H1117 H 0.83917 0.38755 0.4982 0.0
H1118 H 0.88259 0.40942 0.6157 0.0
H1119 H 0.88861 0.38737 0.5874 0.0
H1120 H 0.85638 0.41021 0.66795 0.0
H1121 H 0.86567 0.43476 0.43086 0.0
H1122 H 0.8494 0.4133 0.4403 0.0
H1123 H 0.87092 0.41912 0.45357 0.0
C1124 C 0.85356 0.37501 0.50073 0.0
C1125 C 0.86779 0.37498 0.5241 0.0
C1126 C 0.84999 0.38759 0.51775 0.0
C1127 C 0.86065 0.4004 0.55806 0.0
C1128 C 0.87427 0.39979 0.58405 0.0
H1129 H 0.89131 0.50291 0.60047 0.0
H1130 H 0.88519 0.4749 0.57061 0.0
C1131 C 0.87778 0.38723 0.56742 0.0
C1132 C 0.85835 0.41497 0.5714 0.0
H1133 H 0.86034 0.44963 0.50598 0.0
C1134 C 0.85702 0.41873 0.63251 0.0
C1135 C 0.85936 0.42618 0.5251 0.0
C1136 C 0.86155 0.42328 0.45881 0.0
C1137 C 0.85734 0.43366 0.64882 0.0
C1138 C 0.85859 0.44497 0.60257 0.0
C1139 C 0.85925 0.44089 0.54132 0.0
C1140 C 0.86123 0.46193 0.61702 0.0
C1141 C 0.8573 0.4376 0.71561 0.0
C1142 C 0.84957 0.46406 0.65158 0.0
C1143 C 0.85316 0.48015 0.66952 0.0
C1144 C 0.86844 0.49439 0.65287 0.0
C1145 C 0.87961 0.49221 0.61533 0.0
C1146 C 0.87606 0.47619 0.59776 0.0
H1147 H 0.85981 0.42931 0.74522 0.0
H1148 H 0.86688 0.45084 0.72539 0.0
H1149 H 0.84481 0.43577 0.7281 0.0
H1150 H 0.83787 0.45327 0.66581 0.0
H1151 H 0.84428 0.48137 0.69836 0.0
H1152 H 0.36467 0.84478 0.83719 0.0
H1153 H 0.38565 0.83876 0.79415 0.0
H1154 H 0.41469 0.89 0.73226 0.0
H1155 H 0.39335 0.89578 0.77104 0.0
H1156 H 0.41541 0.86978 0.6499 0.0
H1157 H 0.42947 0.85227 0.87559 0.0
H1158 H 0.40817 0.83926 0.85086 0.0
H1159 H 0.41597 0.86109 0.86731 0.0
C1160 C 0.37536 0.85469 0.81344 0.0
C1161 C 0.37744 0.87088 0.8088 0.0
C1162 C 0.38749 0.85128 0.7896 0.0
C1163 C 0.40204 0.86405 0.76151 0.0
C1164 C 0.4037 0.87997 0.75434 0.0
H1165 H 0.50146 0.88052 0.73484 0.0
H1166 H 0.47427 0.87722 0.76229 0.0
C1167 C 0.39153 0.88331 0.77729 0.0
C1168 C 0.41589 0.86128 0.74091 0.0
H1169 H 0.44499 0.85143 0.79194 0.0
C1170 C 0.42181 0.86566 0.68085 0.0
C1171 C 0.42436 0.85604 0.78146 0.0
C1172 C 0.4193 0.85204 0.84753 0.0
C1173 C 0.43627 0.86555 0.66083 0.0
C1174 C 0.44474 0.86032 0.70138 0.0
C1175 C 0.43846 0.85535 0.76076 0.0
C1176 C 0.46098 0.86138 0.68526 0.0
C1177 C 0.4428 0.87195 0.59753 0.0
C1178 C 0.46259 0.85333 0.63334 0.0
C1179 C 0.47825 0.85541 0.61707 0.0
C1180 C 0.49249 0.86522 0.65329 0.0
C1181 C 0.49069 0.87273 0.70638 0.0
C1182 C 0.47514 0.87087 0.72205 0.0
H1183 H 0.4374 0.87941 0.57851 0.0
H1184 H 0.45669 0.87989 0.59746 0.0
H1185 H 0.43925 0.86112 0.56671 0.0
H1186 H 0.45179 0.84555 0.60512 0.0
H1187 H 0.47926 0.84936 0.57622 0.0
H1188 H 0.527 0.36466 0.98386 0.0
H1189 H 0.55435 0.38791 0.95187 0.0
H1190 H 0.54549 0.4224 0.05634 0.0
H1191 H 0.51822 0.3994 0.08797 0.0
H1192 H 0.56023 0.41595 0.88645 0.0
H1193 H 0.59281 0.43523 0.10889 0.0
H1194 H 0.57389 0.41527 0.09775 0.0
H1195 H 0.57273 0.434 0.11014 0.0
C1196 C 0.53092 0.37719 1.00032 0.0
C1197 C 0.52042 0.38011 0.03892 0.0
C1198 C 0.54659 0.39044 0.98219 0.0
C1199 C 0.55212 0.40686 1.0026 0.0
C1200 C 0.54172 0.40978 0.0414 0.0
H1201 H 0.6238 0.50834 0.92468 0.0
H1202 H 0.60233 0.48125 0.96498 0.0
C1203 C 0.5261 0.39657 0.05951 0.0
C1204 C 0.56816 0.42118 0.98012 0.0
H1205 H 0.6045 0.45548 0.02788 0.0
C1206 C 0.57007 0.42444 0.91721 0.0
C1207 C 0.58098 0.43223 0.02033 0.0
C1208 C 0.5801 0.42893 0.08798 0.0
C1209 C 0.58401 0.43893 0.89375 0.0
C1210 C 0.5965 0.45033 0.93425 0.0
C1211 C 0.5949 0.44674 0.99692 0.0
C1212 C 0.61054 0.4667 0.91299 0.0
C1213 C 0.58482 0.44236 0.82617 0.0
C1214 C 0.62261 0.46757 0.87161 0.0
C1215 C 0.6349 0.48309 0.84823 0.0
C1216 C 0.6353 0.49798 0.86582 0.0
C1217 C 0.62365 0.49708 0.90937 0.0
C1218 C 0.61143 0.48161 0.93275 0.0
H1219 H 0.57272 0.43397 0.80299 0.0
H1220 H 0.58823 0.45559 0.81761 0.0
H1221 H 0.59464 0.44034 0.80525 0.0
H1222 H 0.62231 0.45622 0.85651 0.0
H1223 H 0.64369 0.48337 0.81471 0.0
H1224 H 0.12595 0.50694 0.085 0.0
H1225 H 0.13252 0.53506 0.05481 0.0
H1226 H 0.17588 0.55647 0.17259 0.0
H1227 H 0.16896 0.52821 0.20499 0.0
H1228 H 0.15719 0.57086 0.19114 0.0
H1229 H 0.16706 0.56976 0.94356 0.0
H1230 H 0.14739 0.55207 0.96568 0.0
H1231 H 0.1667 0.55419 0.99456 0.0
C1232 C 0.13697 0.51761 0.10422 0.0
C1233 C 0.14685 0.5153 0.14779 0.0
C1234 C 0.14085 0.53371 0.08624 0.0
C1235 C 0.15485 0.54793 0.11068 0.0
C1236 C 0.16509 0.54569 0.15274 0.0
H1237 H 0.16984 0.64391 0.96693 0.0
H1238 H 0.17667 0.62259 1.00042 0.0
C1239 C 0.16118 0.52953 0.17091 0.0
C1240 C 0.15772 0.56497 0.09634 0.0
H1241 H 0.15867 0.58954 0.97796 0.0
C1242 C 0.15784 0.57509 0.14452 0.0
C1243 C 0.15892 0.57073 0.03567 0.0
C1244 C 0.1602 0.56118 0.98203 0.0
C1245 C 0.15801 0.59021 0.13354 0.0
C1246 C 0.15765 0.59518 0.07271 0.0
C1247 C 0.15868 0.58565 0.02464 0.0
C1248 C 0.15473 0.60929 0.05783 0.0
C1249 C 0.1583 0.60057 0.18734 0.0
C1250 C 0.14024 0.60903 0.07937 0.0
C1251 C 0.1364 0.62123 0.06077 0.0
C1252 C 0.14684 0.63388 0.01943 0.0
C1253 C 0.16163 0.63444 0.99924 0.0
C1254 C 0.16548 0.6222 0.01803 0.0
H1255 H 0.16464 0.59867 0.22714 0.0
H1256 H 0.16482 0.61415 0.17612 0.0
H1257 H 0.14522 0.59655 0.20106 0.0
H1258 H 0.13153 0.59903 0.10897 0.0
H1259 H 0.12501 0.62052 0.07773 0.0
H1260 H 0.39841 0.07729 0.9472 0.0
H1261 H 0.3744 0.0486 0.93946 0.0
H1262 H 0.38289 0.0391 0.12508 0.0
H1263 H 0.40629 0.06781 0.13313 0.0
H1264 H 0.37798 0.02266 0.94262 0.0
H1265 H 0.33327 0.01307 0.12607 0.0
H1266 H 0.34936 0.03378 0.10285 0.0
H1267 H 0.35394 0.02196 0.1575 0.0
C1268 C 0.3945 0.06929 0.98716 0.0
C1269 C 0.40382 0.07481 0.04129 0.0
C1270 C 0.3809 0.05285 0.98264 0.0
C1271 C 0.37656 0.04161 0.03194 0.0
C1272 C 0.38546 0.04753 0.08698 0.0
H1273 H 0.35108 0.94284 0.09125 0.0
H1274 H 0.35607 0.97148 0.09778 0.0
C1275 C 0.3989 0.06397 0.09162 0.0
C1276 C 0.36488 0.02322 0.02325 0.0
H1277 H 0.33454 0.98807 0.09539 0.0
C1278 C 0.36813 0.01518 0.97503 0.0
C1279 C 0.35198 0.0133 0.0654 0.0
C1280 C 0.34684 0.02104 0.1154 0.0
C1281 C 0.35976 0.99759 0.97037 0.0
C1282 C 0.34774 0.9877 0.01497 0.0
C1283 C 0.34379 0.99567 0.06129 0.0
C1284 C 0.34113 0.96931 0.01857 0.0
C1285 C 0.36465 0.98968 0.92004 0.0
C1286 C 0.33031 0.95826 0.97373 0.0
C1287 C 0.32721 0.94171 0.97045 0.0
C1288 C 0.33511 0.93613 0.01152 0.0
C1289 C 0.3448 0.94681 0.05914 0.0
C1290 C 0.34769 0.96319 0.06287 0.0
H1291 H 0.37529 0.99915 0.89227 0.0
H1292 H 0.36822 0.98077 0.93952 0.0
H1293 H 0.35375 0.98247 0.8894 0.0
H1294 H 0.32509 0.96274 0.93917 0.0
H1295 H 0.31987 0.93382 0.93284 0.0
H1296 H 0.39541 0.32004 0.21767 0.0
H1297 H 0.3714 0.32472 0.22751 0.0
H1298 H 0.38399 0.35008 0.05363 0.0
H1299 H 0.4075 0.34507 0.04357 0.0
H1300 H 0.37528 0.35489 0.23785 0.0
H1301 H 0.33418 0.32579 0.03957 0.0
H1302 H 0.34965 0.32026 0.06245 0.0
H1303 H 0.35546 0.33826 0.01435 0.0
C1304 C 0.39245 0.32585 0.18042 0.0
C1305 C 0.40298 0.33186 0.12921 0.0
C1306 C 0.37885 0.32867 0.18621 0.0
C1307 C 0.37563 0.33754 0.14087 0.0
C1308 C 0.38574 0.34274 0.08837 0.0
H1309 H 0.35214 0.41209 0.09608 0.0
H1310 H 0.35652 0.38812 0.08651 0.0
C1311 C 0.39925 0.33992 0.08265 0.0
C1312 C 0.36371 0.34381 0.15194 0.0
H1313 H 0.33513 0.3512 0.07937 0.0
C1314 C 0.36611 0.35363 0.20412 0.0
C1315 C 0.35168 0.34222 0.10808 0.0
C1316 C 0.34748 0.33089 0.05336 0.0
C1317 C 0.35792 0.36296 0.21108 0.0
C1318 C 0.34689 0.36237 0.16489 0.0
C1319 C 0.34362 0.3517 0.11469 0.0
C1320 C 0.34091 0.37468 0.16365 0.0
C1321 C 0.3621 0.37438 0.26562 0.0
C1322 C 0.32993 0.37469 0.20828 0.0
C1323 C 0.32721 0.38837 0.21333 0.0
C1324 C 0.3356 0.40224 0.17415 0.0
C1325 C 0.34549 0.40154 0.12675 0.0
C1326 C 0.34803 0.38785 0.1213 0.0
H1327 H 0.37223 0.37468 0.29409 0.0
H1328 H 0.36609 0.38738 0.2506 0.0
H1329 H 0.35075 0.36999 0.29446 0.0
H1330 H 0.32421 0.36459 0.2412 0.0
H1331 H 0.3197 0.3887 0.25077 0.0
H1332 H 0.06587 0.41874 0.39356 0.0
H1333 H 0.03783 0.39457 0.40116 0.0
H1334 H 0.05246 0.3662 0.28525 0.0
H1335 H 0.08081 0.39087 0.27626 0.0
H1336 H 0.02502 0.36464 0.24278 0.0
H1337 H 0.01417 0.35086 0.48716 0.0
H1338 H 0.02233 0.37289 0.47708 0.0
H1339 H 0.03504 0.36375 0.4566 0.0
C1340 C 0.06332 0.40721 0.37112 0.0
C1341 C 0.07556 0.40671 0.33434 0.0
C1342 C 0.04724 0.39327 0.37594 0.0
C1343 C 0.04296 0.37836 0.34458 0.0
C1344 C 0.05546 0.37749 0.31038 0.0
H1345 H 0.93364 0.31663 0.39498 0.0
H1346 H 0.96207 0.32057 0.38573 0.0
C1347 C 0.0717 0.39154 0.30564 0.0
C1348 C 0.02493 0.36496 0.34111 0.0
H1349 H 0.98939 0.34664 0.42821 0.0
C1350 C 0.01729 0.36029 0.28346 0.0
C1351 C 0.0147 0.35875 0.39377 0.0
C1352 C 0.02208 0.3617 0.45702 0.0
C1353 C 0.99972 0.35119 0.27722 0.0
C1354 C 0.98947 0.34706 0.32989 0.0
C1355 C 0.99712 0.3501 0.38753 0.0
C1356 C 0.9714 0.34225 0.32643 0.0
C1357 C 0.99235 0.3467 0.21397 0.0
C1358 C 0.96699 0.35278 0.29513 0.0
C1359 C 0.95087 0.35049 0.30011 0.0
C1360 C 0.93871 0.33769 0.33697 0.0
C1361 C 0.94269 0.32645 0.36554 0.0
C1362 C 0.95897 0.32879 0.36065 0.0
H1363 H 1.00032 0.34388 0.18383 0.0
H1364 H 0.97943 0.3357 0.21439 0.0
H1365 H 0.99197 0.35758 0.19392 0.0
H1366 H 0.97633 0.36353 0.26988 0.0
H1367 H 0.94822 0.35941 0.27778 0.0
H1368 H 0.59466 0.94621 0.46953 0.0
H1369 H 0.61898 0.97402 0.46086 0.0
H1370 H 0.64691 0.95965 0.58019 0.0
H1371 H 0.62201 0.93143 0.59041 0.0
H1372 H 0.64964 0.98843 0.61691 0.0
H1373 H 0.66227 0.99482 0.37115 0.0
H1374 H 0.64036 0.98729 0.3819 0.0
H1375 H 0.6492 0.9746 0.40626 0.0
C1376 C 0.60605 0.94877 0.49308 0.0
C1377 C 0.60637 0.93658 0.53077 0.0
C1378 C 0.62009 0.96472 0.48749 0.0
C1379 C 0.63499 0.96897 0.51882 0.0
C1380 C 0.63562 0.95664 0.55496 0.0
H1381 H 0.69736 0.07671 0.44192 0.0
H1382 H 0.69352 0.04856 0.45948 0.0
C1383 C 0.62144 0.9405 0.56053 0.0
C1384 C 0.64881 0.98685 0.51878 0.0
H1385 H 0.66731 0.02074 0.42373 0.0
C1386 C 0.65393 0.99543 0.57462 0.0
C1387 C 0.65496 0.99611 0.46397 0.0
C1388 C 0.65154 0.98763 0.40258 0.0
C1389 C 0.66337 0.01307 0.57682 0.0
C1390 C 0.66739 0.02239 0.52184 0.0
C1391 C 0.66395 0.01374 0.46615 0.0
C1392 C 0.67238 0.04053 0.52074 0.0
C1393 C 0.66835 0.0215 0.63829 0.0
C1394 C 0.66214 0.04562 0.55037 0.0
C1395 C 0.66438 0.06158 0.54066 0.0
C1396 C 0.67683 0.07289 0.50062 0.0
C1397 C 0.68783 0.06833 0.47372 0.0
C1398 C 0.68554 0.0522 0.48339 0.0
H1399 H 0.6713 0.01399 0.67036 0.0
H1400 H 0.67942 0.03434 0.6351 0.0
H1401 H 0.65766 0.02232 0.6579 0.0
H1402 H 0.6516 0.03685 0.57791 0.0
H1403 H 0.65566 0.06471 0.5618 0.0
H1404 H 0.617 0.68738 0.56544 0.0
H1405 H 0.63918 0.67983 0.56476 0.0
H1406 H 0.62254 0.65637 0.74065 0.0
H1407 H 0.60031 0.66355 0.7409 0.0
H1408 H 0.66612 0.68096 0.65992 0.0
H1409 H 0.61112 0.61878 0.60326 0.0
H1410 H 0.61082 0.63812 0.59459 0.0
H1411 H 0.60863 0.62903 0.66888 0.0
C1412 C 0.61863 0.68132 0.60512 0.0
C1413 C 0.60701 0.67606 0.65331 0.0
C1414 C 0.63124 0.67695 0.60459 0.0
C1415 C 0.63241 0.66743 0.65249 0.0
C1416 C 0.62185 0.66371 0.70328 0.0
H1417 H 0.68778 0.61805 0.74534 0.0
H1418 H 0.68059 0.6401 0.73127 0.0
C1419 C 0.60919 0.66785 0.70344 0.0
C1420 C 0.64219 0.6587 0.64526 0.0
H1421 H 0.63643 0.61941 0.62637 0.0
C1422 C 0.65973 0.66754 0.6519 0.0
C1423 C 0.63384 0.64124 0.63401 0.0
C1424 C 0.61508 0.6312 0.62425 0.0
C1425 C 0.66907 0.65918 0.64939 0.0
C1426 C 0.66056 0.64153 0.64091 0.0
C1427 C 0.64306 0.63291 0.63267 0.0
C1428 C 0.66906 0.63132 0.64265 0.0
C1429 C 0.68789 0.66932 0.65552 0.0
C1430 C 0.66558 0.61933 0.59686 0.0
C1431 C 0.6693 0.60651 0.60568 0.0
C1432 C 0.67694 0.60562 0.65979 0.0
C1433 C 0.68212 0.6186 0.70277 0.0
C1434 C 0.67801 0.63126 0.69462 0.0
H1435 H 0.69279 0.68253 0.64095 0.0
H1436 H 0.69135 0.66949 0.70409 0.0
H1437 H 0.69412 0.66384 0.62813 0.0
H1438 H 0.65875 0.61908 0.55626 0.0
H1439 H 0.66505 0.59655 0.57213 0.0
H1440 H 0.07899 0.68761 0.91028 0.0
H1441 H 0.04939 0.68042 0.90929 0.0
H1442 H 0.04101 0.65063 0.7476 0.0
H1443 H 0.07028 0.65736 0.74938 0.0
H1444 H 0.02311 0.67853 0.81556 0.0
H1445 H 0.01537 0.61774 0.89489 0.0
H1446 H 0.03539 0.63694 0.89555 0.0
H1447 H 0.02716 0.6256 0.82553 0.0
C1448 C 0.071 0.68013 0.87307 0.0
C1449 C 0.07686 0.67291 0.83016 0.0
C1450 C 0.05407 0.67599 0.87266 0.0
C1451 C 0.04296 0.66478 0.82886 0.0
C1452 C 0.04934 0.65919 0.78203 0.0
H1453 H 0.93717 0.61499 0.74918 0.0
H1454 H 0.96672 0.6369 0.75677 0.0
C1455 C 0.06609 0.6631 0.78297 0.0
C1456 C 0.02448 0.65647 0.83769 0.0
H1457 H 0.99068 0.61808 0.86887 0.0
C1458 C 0.01596 0.66536 0.8278 0.0
C1459 C 0.01522 0.63937 0.8547 0.0
C1460 C 0.02372 0.62935 0.86886 0.0
C1461 C 0.9983 0.65736 0.83256 0.0
C1462 C 0.98898 0.64 0.84671 0.0
C1463 C 0.99768 0.63137 0.85816 0.0
C1464 C 0.97023 0.63006 0.84788 0.0
C1465 C 0.98986 0.6676 0.8228 0.0
C1466 C 0.96204 0.6192 0.89712 0.0
C1467 C 0.94531 0.60643 0.89206 0.0
C1468 C 0.93625 0.60448 0.83829 0.0
C1469 C 0.94379 0.6164 0.79155 0.0
C1470 C 0.96073 0.62898 0.79597 0.0
H1471 H 0.9985 0.68106 0.83332 0.0
H1472 H 0.98612 0.6667 0.77423 0.0
H1473 H 0.97843 0.66296 0.85144 0.0
H1474 H 0.969 0.61975 0.93777 0.0
H1475 H 0.93982 0.59729 0.92847 0.0
loop_
_geom_bond_atom_site_label_1
_geom_bond_atom_site_label_2
_geom_bond_distance
_geom_bond_site_symmetry_2
_ccdc_geom_bond_type
C0 C1 1.351 . S
C0 N3 1.368 . S
C0 H5 0.931 . S
C1 C0 1.351 . S
C1 N2 1.373 . S
C1 H29 0.930 . S
N2 C1 1.373 . S
N2 C4 1.340 . S
N3 C0 1.368 . S
N3 C4 1.321 . S
N3 Co6 2.135 . S
C4 N2 1.340 . S
C4 N3 1.321 . S
C4 H28 0.930 . S
H5 C0 0.931 . S
Co6 N3 2.135 . S
Co6 N9 2.121 . S
Co6 O14 2.055 . S
Co6 O17 2.039 . S
Co6 N20 2.140 . S
C7 O8 1.227 . S
C7 O17 1.265 . S
O8 C7 1.227 . S
N9 Co6 2.121 . S
N9 C11 1.375 1_554 S
N9 C12 1.313 1_554 S
C10 C11 1.338 . S
C10 N13 1.377 . S
C10 H30 0.930 . S
C11 N9 1.375 1_556 S
C11 C10 1.338 . S
C11 H15 0.931 1_556 S
C12 N9 1.313 1_556 S
C12 N13 1.344 . S
C12 H16 0.930 . S
N13 C10 1.377 . S
N13 C12 1.344 . S
O14 Co6 2.055 . S
O14 C18 1.253 . S
H15 C11 0.931 1_554 S
H16 C12 0.930 . S
O17 Co6 2.039 . S
O17 C7 1.265 . S
C18 O14 1.253 . S
C18 O19 1.227 . S
O19 C18 1.227 . S
N20 Co6 2.140 . S
N20 C23 1.346 . S
N20 C24 1.345 . S
C21 C22 1.387 . S
C21 C25 1.391 . S
C22 C21 1.387 . S
C22 C23 1.369 . S
C22 H31 0.929 . S
C23 N20 1.346 . S
C23 C22 1.369 . S
C23 H26 0.928 . S
C24 N20 1.345 . S
C24 C25 1.371 . S
C24 H27 0.931 . S
C25 C21 1.391 . S
C25 C24 1.371 . S
C25 H32 0.930 . S
H26 C23 0.928 . S
H27 C24 0.931 . S
H28 C4 0.930 . S
H29 C1 0.930 . S
H30 C10 0.930 . S
H31 C22 0.929 . S
H32 C25 0.930 . S
C33 C34 1.351 . S
C33 N36 1.368 . S
C33 H38 0.931 . S
C34 C33 1.351 . S
C34 N35 1.373 . S
C34 H62 0.930 . S
N35 C34 1.373 . S
N35 C37 1.340 . S
N36 C33 1.368 . S
N36 C37 1.321 . S
N36 Co39 2.135 . S
C37 N35 1.340 . S
C37 N36 1.321 . S
C37 H61 0.930 . S
H38 C33 0.931 . S
Co39 N36 2.135 . S
Co39 N42 2.121 . S
Co39 O47 2.055 . S
Co39 O50 2.039 . S
Co39 N53 2.140 . S
C40 O41 1.227 . S
C40 O50 1.265 . S
O41 C40 1.227 . S
N42 Co39 2.121 . S
N42 C44 1.375 . S
N42 C45 1.313 . S
C43 C44 1.338 . S
C43 N46 1.377 . S
C43 H63 0.930 . S
C44 N42 1.375 . S
C44 C43 1.338 . S
C44 H48 0.931 . S
C45 N42 1.313 . S
C45 N46 1.344 . S
C45 H49 0.930 . S
N46 C43 1.377 . S
N46 C45 1.344 . S
O47 Co39 2.055 . S
O47 C51 1.253 . S
H48 C44 0.931 . S
H49 C45 0.930 . S
O50 Co39 2.039 . S
O50 C40 1.265 . S
C51 O47 1.253 . S
C51 O52 1.227 . S
O52 C51 1.227 . S
N53 Co39 2.140 . S
N53 C56 1.346 . S
N53 C57 1.345 . S
C54 C55 1.387 . S
C54 C58 1.391 . S
C55 C54 1.387 . S
C55 C56 1.369 . S
C55 H64 0.929 . S
C56 N53 1.346 . S
C56 C55 1.369 . S
C56 H59 0.928 . S
C57 N53 1.345 . S
C57 C58 1.371 . S
C57 H60 0.931 . S
C58 C54 1.391 . S
C58 C57 1.371 . S
C58 H65 0.930 . S
H59 C56 0.928 . S
H60 C57 0.931 . S
H61 C37 0.930 . S
H62 C34 0.930 . S
H63 C43 0.930 . S
H64 C55 0.929 . S
H65 C58 0.930 . S
C66 C67 1.351 . S
C66 N69 1.368 . S
C66 H71 0.931 . S
C67 C66 1.351 . S
C67 N68 1.373 . S
C67 H95 0.930 . S
N68 C67 1.373 . S
N68 C70 1.340 . S
N69 C66 1.368 . S
N69 C70 1.321 . S
N69 Co72 2.135 . S
C70 N68 1.340 . S
C70 N69 1.321 . S
C70 H94 0.930 . S
H71 C66 0.931 . S
Co72 N69 2.135 . S
Co72 N75 2.121 . S
Co72 O80 2.055 . S
Co72 O83 2.039 . S
Co72 N86 2.140 . S
C73 O74 1.227 . S
C73 O83 1.265 . S
O74 C73 1.227 . S
N75 Co72 2.121 . S
N75 C77 1.375 . S
N75 C78 1.313 . S
C76 C77 1.338 . S
C76 N79 1.377 . S
C76 H96 0.930 . S
C77 N75 1.375 . S
C77 C76 1.338 . S
C77 H81 0.931 . S
C78 N75 1.313 . S
C78 N79 1.344 . S
C78 H82 0.930 . S
N79 C76 1.377 . S
N79 C78 1.344 . S
O80 Co72 2.055 . S
O80 C84 1.253 . S
H81 C77 0.931 . S
H82 C78 0.930 . S
O83 Co72 2.039 . S
O83 C73 1.265 . S
C84 O80 1.253 . S
C84 O85 1.227 . S
O85 C84 1.227 . S
N86 Co72 2.140 . S
N86 C89 1.346 . S
N86 C90 1.345 . S
C87 C88 1.387 . S
C87 C91 1.391 . S
C88 C87 1.387 . S
C88 C89 1.369 . S
C88 H97 0.929 . S
C89 N86 1.346 . S
C89 C88 1.369 . S
C89 H92 0.928 . S
C90 N86 1.345 . S
C90 C91 1.371 . S
C90 H93 0.931 . S
C91 C87 1.391 . S
C91 C90 1.371 . S
C91 H98 0.930 . S
H92 C89 0.928 . S
H93 C90 0.931 . S
H94 C70 0.930 . S
H95 C67 0.930 . S
H96 C76 0.930 . S
H97 C88 0.929 . S
H98 C91 0.930 . S
C99 C100 1.351 . S
C99 N102 1.368 . S
C99 H104 0.931 . S
C100 C99 1.351 . S
C100 N101 1.373 . S
C100 H128 0.930 . S
N101 C100 1.373 . S
N101 C103 1.340 . S
N102 C99 1.368 . S
N102 C103 1.321 . S
N102 Co105 2.135 . S
C103 N101 1.340 . S
C103 N102 1.321 . S
C103 H127 0.930 . S
H104 C99 0.931 . S
Co105 N102 2.135 . S
Co105 N108 2.121 . S
Co105 O113 2.055 . S
Co105 O116 2.039 . S
Co105 N119 2.140 . S
C106 O107 1.227 . S
C106 O116 1.265 . S
O107 C106 1.227 . S
N108 Co105 2.121 . S
N108 C110 1.375 . S
N108 C111 1.313 . S
C109 C110 1.338 . S
C109 N112 1.377 . S
C109 H129 0.930 . S
C110 N108 1.375 . S
C110 C109 1.338 . S
C110 H114 0.931 . S
C111 N108 1.313 . S
C111 N112 1.344 . S
C111 H115 0.930 . S
N112 C109 1.377 . S
N112 C111 1.344 . S
O113 Co105 2.055 . S
O113 C117 1.253 . S
H114 C110 0.931 . S
H115 C111 0.930 . S
O116 Co105 2.039 . S
O116 C106 1.265 . S
C117 O113 1.253 . S
C117 O118 1.227 . S
O118 C117 1.227 . S
N119 Co105 2.140 . S
N119 C122 1.346 . S
N119 C123 1.345 . S
C120 C121 1.387 . S
C120 C124 1.391 . S
C121 C120 1.387 . S
C121 C122 1.369 . S
C121 H130 0.929 . S
C122 N119 1.346 . S
C122 C121 1.369 . S
C122 H125 0.928 . S
C123 N119 1.345 . S
C123 C124 1.371 . S
C123 H126 0.931 . S
C124 C120 1.391 . S
C124 C123 1.371 . S
C124 H131 0.930 . S
H125 C122 0.928 . S
H126 C123 0.931 . S
H127 C103 0.930 . S
H128 C100 0.930 . S
H129 C109 0.930 . S
H130 C121 0.929 . S
H131 C124 0.930 . S
C132 C133 1.351 . S
C132 N135 1.368 . S
C132 H137 0.931 . S
C133 C132 1.351 . S
C133 N134 1.373 . S
C133 H161 0.930 . S
N134 C133 1.373 . S
N134 C136 1.340 . S
N135 C132 1.368 . S
N135 C136 1.321 . S
N135 Co138 2.135 . S
C136 N134 1.340 . S
C136 N135 1.321 . S
C136 H160 0.930 . S
H137 C132 0.931 . S
Co138 N135 2.135 . S
Co138 N141 2.121 . S
Co138 O146 2.055 . S
Co138 O149 2.039 . S
Co138 N152 2.140 . S
C139 O140 1.227 . S
C139 O149 1.265 . S
O140 C139 1.227 . S
N141 Co138 2.121 . S
N141 C143 1.375 . S
N141 C144 1.313 . S
C142 C143 1.338 . S
C142 N145 1.377 . S
C142 H162 0.930 . S
C143 N141 1.375 . S
C143 C142 1.338 . S
C143 H147 0.931 . S
C144 N141 1.313 . S
C144 N145 1.344 . S
C144 H148 0.930 . S
N145 C142 1.377 . S
N145 C144 1.344 . S
O146 Co138 2.055 . S
O146 C150 1.253 . S
H147 C143 0.931 . S
H148 C144 0.930 . S
O149 Co138 2.039 . S
O149 C139 1.265 . S
C150 O146 1.253 . S
C150 O151 1.227 . S
O151 C150 1.227 . S
N152 Co138 2.140 . S
N152 C155 1.346 . S
N152 C156 1.345 . S
C153 C154 1.387 . S
C153 C157 1.391 . S
C154 C153 1.387 . S
C154 C155 1.369 . S
C154 H163 0.929 . S
C155 N152 1.346 . S
C155 C154 1.369 . S
C155 H158 0.928 . S
C156 N152 1.345 . S
C156 C157 1.371 . S
C156 H159 0.931 . S
C157 C153 1.391 . S
C157 C156 1.371 . S
C157 H164 0.930 . S
H158 C155 0.928 . S
H159 C156 0.931 . S
H160 C136 0.930 . S
H161 C133 0.930 . S
H162 C142 0.930 . S
H163 C154 0.929 . S
H164 C157 0.930 . S
C165 C166 1.351 . S
C165 N168 1.368 . S
C165 H170 0.931 . S
C166 C165 1.351 . S
C166 N167 1.373 . S
C166 H194 0.930 . S
N167 C166 1.373 . S
N167 C169 1.340 . S
N168 C165 1.368 . S
N168 C169 1.321 . S
N168 Co171 2.135 1_554 S
C169 N167 1.340 . S
C169 N168 1.321 . S
C169 H193 0.930 . S
H170 C165 0.931 . S
Co171 N168 2.135 1_556 S
Co171 N174 2.121 . S
Co171 O179 2.055 . S
Co171 O182 2.039 . S
Co171 N185 2.140 . S
C172 O173 1.227 . S
C172 O182 1.265 . S
O173 C172 1.227 . S
N174 Co171 2.121 . S
N174 C176 1.375 . S
N174 C177 1.313 . S
C175 C176 1.338 . S
C175 N178 1.377 . S
C175 H195 0.930 . S
C176 N174 1.375 . S
C176 C175 1.338 . S
C176 H180 0.931 . S
C177 N174 1.313 . S
C177 N178 1.344 . S
C177 H181 0.930 . S
N178 C175 1.377 . S
N178 C177 1.344 . S
O179 Co171 2.055 . S
O179 C183 1.253 . S
H180 C176 0.931 . S
H181 C177 0.930 . S
O182 Co171 2.039 . S
O182 C172 1.265 . S
C183 O179 1.253 . S
C183 O184 1.227 . S
O184 C183 1.227 . S
N185 Co171 2.140 . S
N185 C188 1.346 1_556 S
N185 C189 1.345 . S
C186 C187 1.387 1_556 S
C186 C190 1.391 . S
C187 C186 1.387 1_554 S
C187 C188 1.369 . S
C187 H196 0.929 . S
C188 N185 1.346 1_554 S
C188 C187 1.369 . S
C188 H191 0.928 . S
C189 N185 1.345 . S
C189 C190 1.371 . S
C189 H192 0.931 . S
C190 C186 1.391 . S
C190 C189 1.371 . S
C190 H197 0.930 . S
H191 C188 0.928 . S
H192 C189 0.931 . S
H193 C169 0.930 . S
H194 C166 0.930 . S
H195 C175 0.930 . S
H196 C187 0.929 . S
H197 C190 0.930 . S
C198 C199 1.351 . S
C198 N201 1.368 . S
C198 H203 0.931 . S
C199 C198 1.351 . S
C199 N200 1.373 . S
C199 H227 0.930 . S
N200 C199 1.373 . S
N200 C202 1.340 . S
N201 C198 1.368 . S
N201 C202 1.321 . S
N201 Co204 2.135 . S
C202 N200 1.340 . S
C202 N201 1.321 . S
C202 H226 0.930 . S
H203 C198 0.931 . S
Co204 N201 2.135 . S
Co204 N207 2.121 . S
Co204 O212 2.055 . S
Co204 O215 2.039 . S
Co204 N218 2.140 . S
C205 O206 1.227 . S
C205 O215 1.265 . S
O206 C205 1.227 . S
N207 Co204 2.121 . S
N207 C209 1.375 . S
N207 C210 1.313 . S
C208 C209 1.338 . S
C208 N211 1.377 . S
C208 H228 0.930 . S
C209 N207 1.375 . S
C209 C208 1.338 . S
C209 H213 0.931 . S
C210 N207 1.313 . S
C210 N211 1.344 . S
C210 H214 0.930 . S
N211 C208 1.377 . S
N211 C210 1.344 . S
O212 Co204 2.055 . S
O212 C216 1.253 . S
H213 C209 0.931 . S
H214 C210 0.930 . S
O215 Co204 2.039 . S
O215 C205 1.265 . S
C216 O212 1.253 . S
C216 O217 1.227 . S
O217 C216 1.227 . S
N218 Co204 2.140 . S
N218 C221 1.346 . S
N218 C222 1.345 . S
C219 C220 1.387 . S
C219 C223 1.391 . S
C220 C219 1.387 . S
C220 C221 1.369 . S
C220 H229 0.929 . S
C221 N218 1.346 . S
C221 C220 1.369 . S
C221 H224 0.928 . S
C222 N218 1.345 . S
C222 C223 1.371 . S
C222 H225 0.931 . S
C223 C219 1.391 . S
C223 C222 1.371 . S
C223 H230 0.930 . S
H224 C221 0.928 . S
H225 C222 0.931 . S
H226 C202 0.930 . S
H227 C199 0.930 . S
H228 C208 0.930 . S
H229 C220 0.929 . S
H230 C223 0.930 . S
C231 C232 1.351 . S
C231 N234 1.368 . S
C231 H236 0.931 . S
C232 C231 1.351 . S
C232 N233 1.373 . S
C232 H260 0.930 . S
N233 C232 1.373 . S
N233 C235 1.340 . S
N234 C231 1.368 . S
N234 C235 1.321 . S
N234 Co237 2.135 . S
C235 N233 1.340 . S
C235 N234 1.321 . S
C235 H259 0.930 . S
H236 C231 0.931 . S
Co237 N234 2.135 . S
Co237 N240 2.121 . S
Co237 O245 2.055 . S
Co237 O248 2.039 . S
Co237 N251 2.140 . S
C238 O239 1.227 . S
C238 O248 1.265 . S
O239 C238 1.227 . S
N240 Co237 2.121 . S
N240 C242 1.380 . S
N240 C243 1.313 1_556 S
C241 C242 1.326 1_554 S
C241 N244 1.377 . S
C241 H261 0.930 . S
C242 N240 1.380 . S
C242 C241 1.326 1_556 S
C242 H246 0.937 . S
C243 N240 1.313 1_554 S
C243 N244 1.344 . S
C243 H247 0.930 . S
N244 C241 1.377 . S
N244 C243 1.344 . S
O245 Co237 2.055 . S
O245 C249 1.253 . S
H246 C242 0.937 . S
H247 C243 0.930 . S
O248 Co237 2.039 . S
O248 C238 1.265 . S
C249 O245 1.253 . S
C249 O250 1.227 . S
O250 C249 1.227 . S
N251 Co237 2.140 . S
N251 C254 1.346 . S
N251 C255 1.345 . S
C252 C253 1.387 . S
C252 C256 1.391 . S
C253 C252 1.387 . S
C253 C254 1.369 . S
C253 H262 0.929 . S
C254 N251 1.346 . S
C254 C253 1.369 . S
C254 H257 0.928 . S
C255 N251 1.345 . S
C255 C256 1.371 . S
C255 H258 0.931 . S
C256 C252 1.391 . S
C256 C255 1.371 . S
C256 H263 0.930 . S
H257 C254 0.928 . S
H258 C255 0.931 . S
H259 C235 0.930 . S
H260 C232 0.930 . S
H261 C241 0.930 . S
H262 C253 0.929 . S
H263 C256 0.930 . S
C264 C265 1.351 . S
C264 N267 1.368 . S
C264 H269 0.931 . S
C265 C264 1.351 . S
C265 N266 1.373 . S
C265 H293 0.930 . S
N266 C265 1.373 . S
N266 C268 1.340 . S
N267 C264 1.368 . S
N267 C268 1.321 . S
N267 Co270 2.135 1_556 S
C268 N266 1.340 . S
C268 N267 1.321 . S
C268 H292 0.930 . S
H269 C264 0.931 . S
Co270 N267 2.135 1_554 S
Co270 N273 2.121 . S
Co270 O278 2.055 . S
Co270 O281 2.039 . S
Co270 N284 2.140 . S
C271 O272 1.227 . S
C271 O281 1.265 . S
O272 C271 1.227 . S
N273 Co270 2.121 . S
N273 C275 1.375 . S
N273 C276 1.313 . S
C274 C275 1.338 . S
C274 N277 1.377 . S
C274 H294 0.930 . S
C275 N273 1.375 . S
C275 C274 1.338 . S
C275 H279 0.931 . S
C276 N273 1.313 . S
C276 N277 1.344 . S
C276 H280 0.930 . S
N277 C274 1.377 . S
N277 C276 1.344 . S
O278 Co270 2.055 . S
O278 C282 1.253 . S
H279 C275 0.931 . S
H280 C276 0.930 . S
O281 Co270 2.039 . S
O281 C271 1.265 . S
C282 O278 1.253 . S
C282 O283 1.227 . S
O283 C282 1.227 . S
N284 Co270 2.140 . S
N284 C287 1.346 1_554 S
N284 C288 1.345 . S
C285 C286 1.387 1_554 S
C285 C289 1.391 . S
C286 C285 1.387 1_556 S
C286 C287 1.369 . S
C286 H295 0.929 . S
C287 N284 1.346 1_556 S
C287 C286 1.369 . S
C287 H290 0.928 . S
C288 N284 1.345 . S
C288 C289 1.371 . S
C288 H291 0.931 . S
C289 C285 1.391 . S
C289 C288 1.371 . S
C289 H296 0.930 . S
H290 C287 0.928 . S
H291 C288 0.931 . S
H292 C268 0.930 . S
H293 C265 0.930 . S
H294 C274 0.930 . S
H295 C286 0.929 . S
H296 C289 0.930 . S
C297 C298 1.351 . S
C297 N300 1.368 . S
C297 H302 0.931 . S
C298 C297 1.351 . S
C298 N299 1.373 . S
C298 H326 0.930 . S
N299 C298 1.373 . S
N299 C301 1.340 . S
N300 C297 1.368 . S
N300 C301 1.321 . S
N300 Co303 2.135 . S
C301 N299 1.340 . S
C301 N300 1.321 . S
C301 H325 0.930 . S
H302 C297 0.931 . S
Co303 N300 2.135 . S
Co303 N306 2.121 . S
Co303 O311 2.055 . S
Co303 O314 2.039 . S
Co303 N317 2.140 . S
C304 O305 1.227 . S
C304 O314 1.265 . S
O305 C304 1.227 . S
N306 Co303 2.121 . S
N306 C308 1.375 . S
N306 C309 1.313 . S
C307 C308 1.338 . S
C307 N310 1.377 . S
C307 H327 0.930 . S
C308 N306 1.375 . S
C308 C307 1.338 . S
C308 H312 0.931 . S
C309 N306 1.313 . S
C309 N310 1.344 . S
C309 H313 0.930 . S
N310 C307 1.377 . S
N310 C309 1.344 . S
O311 Co303 2.055 . S
O311 C315 1.253 . S
H312 C308 0.931 . S
H313 C309 0.930 . S
O314 Co303 2.039 . S
O314 C304 1.265 . S
C315 O311 1.253 . S
C315 O316 1.227 . S
O316 C315 1.227 . S
N317 Co303 2.140 . S
N317 C320 1.346 . S
N317 C321 1.345 . S
C318 C319 1.387 . S
C318 C322 1.391 . S
C319 C318 1.387 . S
C319 C320 1.369 . S
C319 H328 0.929 . S
C320 N317 1.346 . S
C320 C319 1.369 . S
C320 H323 0.928 . S
C321 N317 1.345 . S
C321 C322 1.371 . S
C321 H324 0.931 . S
C322 C318 1.391 . S
C322 C321 1.371 . S
C322 H329 0.930 . S
H323 C320 0.928 . S
H324 C321 0.931 . S
H325 C301 0.930 . S
H326 C298 0.930 . S
H327 C307 0.930 . S
H328 C319 0.929 . S
H329 C322 0.930 . S
C330 C331 1.351 . S
C330 N333 1.368 . S
C330 H335 0.931 . S
C331 C330 1.351 . S
C331 N332 1.373 . S
C331 H359 0.930 . S
N332 C331 1.373 . S
N332 C334 1.340 . S
N333 C330 1.368 . S
N333 C334 1.321 . S
N333 Co336 2.135 . S
C334 N332 1.340 . S
C334 N333 1.321 . S
C334 H358 0.930 . S
H335 C330 0.931 . S
Co336 N333 2.135 . S
Co336 N339 2.121 . S
Co336 O344 2.055 . S
Co336 O347 2.039 . S
Co336 N350 2.140 . S
C337 O338 1.227 . S
C337 O347 1.265 . S
O338 C337 1.227 . S
N339 Co336 2.121 . S
N339 C341 1.375 . S
N339 C342 1.313 . S
C340 C341 1.338 . S
C340 N343 1.377 . S
C340 H360 0.930 . S
C341 N339 1.375 . S
C341 C340 1.338 . S
C341 H345 0.931 . S
C342 N339 1.313 . S
C342 N343 1.344 . S
C342 H346 0.930 . S
N343 C340 1.377 . S
N343 C342 1.344 . S
O344 Co336 2.055 . S
O344 C348 1.253 . S
H345 C341 0.931 . S
H346 C342 0.930 . S
O347 Co336 2.039 . S
O347 C337 1.265 . S
C348 O344 1.253 . S
C348 O349 1.227 . S
O349 C348 1.227 . S
N350 Co336 2.140 . S
N350 C353 1.346 . S
N350 C354 1.345 . S
C351 C352 1.387 . S
C351 C355 1.391 . S
C352 C351 1.387 . S
C352 C353 1.369 . S
C352 H361 0.929 . S
C353 N350 1.346 . S
C353 C352 1.369 . S
C353 H356 0.928 . S
C354 N350 1.345 . S
C354 C355 1.371 . S
C354 H357 0.931 . S
C355 C351 1.391 . S
C355 C354 1.371 . S
C355 H362 0.930 . S
H356 C353 0.928 . S
H357 C354 0.931 . S
H358 C334 0.930 . S
H359 C331 0.930 . S
H360 C340 0.930 . S
H361 C352 0.929 . S
H362 C355 0.930 . S
C363 C364 1.351 . S
C363 N366 1.368 . S
C363 H368 0.931 . S
C364 C363 1.351 . S
C364 N365 1.373 . S
C364 H392 0.930 . S
N365 C364 1.373 . S
N365 C367 1.340 . S
N366 C363 1.368 . S
N366 C367 1.321 . S
N366 Co369 2.135 . S
C367 N365 1.340 . S
C367 N366 1.321 . S
C367 H391 0.930 . S
H368 C363 0.931 . S
Co369 N366 2.135 . S
Co369 N372 2.121 . S
Co369 O377 2.055 . S
Co369 O380 2.039 . S
Co369 N383 2.140 . S
C370 O371 1.227 . S
C370 O380 1.265 . S
O371 C370 1.227 . S
N372 Co369 2.121 . S
N372 C374 1.375 . S
N372 C375 1.313 . S
C373 C374 1.338 . S
C373 N376 1.377 . S
C373 H393 0.930 . S
C374 N372 1.375 . S
C374 C373 1.338 . S
C374 H378 0.931 . S
C375 N372 1.313 . S
C375 N376 1.344 . S
C375 H379 0.930 . S
N376 C373 1.377 . S
N376 C375 1.344 . S
O377 Co369 2.055 . S
O377 C381 1.253 . S
H378 C374 0.931 . S
H379 C375 0.930 . S
O380 Co369 2.039 . S
O380 C370 1.265 . S
C381 O377 1.253 . S
C381 O382 1.227 . S
O382 C381 1.227 . S
N383 Co369 2.140 . S
N383 C386 1.346 . S
N383 C387 1.345 . S
C384 C385 1.387 . S
C384 C388 1.391 . S
C385 C384 1.387 . S
C385 C386 1.369 . S
C385 H394 0.929 . S
C386 N383 1.346 . S
C386 C385 1.369 . S
C386 H389 0.928 . S
C387 N383 1.345 . S
C387 C388 1.371 . S
C387 H390 0.931 . S
C388 C384 1.391 . S
C388 C387 1.371 . S
C388 H395 0.930 . S
H389 C386 0.928 . S
H390 C387 0.931 . S
H391 C367 0.930 . S
H392 C364 0.930 . S
H393 C373 0.930 . S
H394 C385 0.929 . S
H395 C388 0.930 . S
H396 C404 0.929 . S
H397 C406 0.922 1_556 S
H398 C408 0.930 . S
H399 C411 0.929 . S
H400 C414 0.930 . S
H401 C416 0.960 . S
H402 C416 0.960 . S
H403 C416 0.960 . S
C404 H396 0.929 . S
C404 C405 1.377 1_556 S
C404 C406 1.382 1_556 S
C405 C404 1.377 1_554 S
C405 C411 1.390 . S
C406 H397 0.922 1_554 S
C406 C404 1.382 1_554 S
C406 C407 1.382 . S
C407 C406 1.382 . S
C407 C408 1.400 . S
C407 C412 1.490 . S
C408 H398 0.930 . S
C408 C407 1.400 . S
C408 C411 1.386 . S
H409 C425 0.930 . S
H410 C426 0.931 . S
C411 H399 0.929 . S
C411 C405 1.390 . S
C411 C408 1.386 . S
C412 C407 1.490 . S
C412 C414 1.395 . S
C412 C415 1.403 . S
H413 C419 0.930 . S
C414 H400 0.930 . S
C414 C412 1.395 . S
C414 C417 1.403 . S
C415 C412 1.403 . S
C415 C416 1.524 . S
C415 C419 1.400 . S
C416 H401 0.960 . S
C416 H402 0.960 . S
C416 H403 0.960 . S
C416 C415 1.524 . S
C417 C414 1.403 . S
C417 C418 1.392 . S
C417 C421 1.495 . S
C418 C417 1.392 . S
C418 C419 1.385 . S
C418 C420 1.478 . S
C419 H413 0.930 . S
C419 C415 1.400 . S
C419 C418 1.385 . S
C420 C418 1.478 . S
C420 C422 1.381 . S
C420 C426 1.383 . S
C421 C417 1.495 . S
C421 H427 0.959 . S
C421 H428 0.961 . S
C421 H429 0.960 . S
C422 C420 1.381 . S
C422 C423 1.394 . S
C422 H430 0.930 . S
C423 C422 1.394 . S
C423 C424 1.383 . S
C423 H431 0.929 . S
C424 C423 1.383 . S
C424 C425 1.377 . S
C425 H409 0.930 . S
C425 C424 1.377 . S
C425 C426 1.379 . S
C426 H410 0.931 . S
C426 C420 1.383 . S
C426 C425 1.379 . S
H427 C421 0.959 . S
H428 C421 0.961 . S
H429 C421 0.960 . S
H430 C422 0.930 . S
H431 C423 0.929 . S
H432 C440 0.929 . S
H433 C442 0.930 . S
H434 C444 0.930 . S
H435 C447 0.929 . S
H436 C450 0.930 . S
H437 C452 0.960 . S
H438 C452 0.960 . S
H439 C452 0.960 . S
C440 H432 0.929 . S
C440 C441 1.377 . S
C440 C442 1.384 . S
C441 C440 1.377 . S
C441 C447 1.390 . S
C442 H433 0.930 . S
C442 C440 1.384 . S
C442 C443 1.372 . S
C443 C442 1.372 . S
C443 C444 1.400 . S
C443 C448 1.490 . S
C444 H434 0.930 . S
C444 C443 1.400 . S
C444 C447 1.386 . S
H445 C461 0.930 . S
H446 C462 0.931 . S
C447 H435 0.929 . S
C447 C441 1.390 . S
C447 C444 1.386 . S
C448 C443 1.490 . S
C448 C450 1.395 . S
C448 C451 1.403 . S
H449 C455 0.930 . S
C450 H436 0.930 . S
C450 C448 1.395 . S
C450 C453 1.403 . S
C451 C448 1.403 . S
C451 C452 1.524 . S
C451 C455 1.400 . S
C452 H437 0.960 . S
C452 H438 0.960 . S
C452 H439 0.960 . S
C452 C451 1.524 . S
C453 C450 1.403 . S
C453 C454 1.392 . S
C453 C457 1.495 . S
C454 C453 1.392 . S
C454 C455 1.385 . S
C454 C456 1.478 . S
C455 H449 0.930 . S
C455 C451 1.400 . S
C455 C454 1.385 . S
C456 C454 1.478 . S
C456 C458 1.381 . S
C456 C462 1.383 . S
C457 C453 1.495 . S
C457 H463 0.959 . S
C457 H464 0.961 . S
C457 H465 0.960 . S
C458 C456 1.381 . S
C458 C459 1.394 . S
C458 H466 0.930 . S
C459 C458 1.394 . S
C459 C460 1.383 . S
C459 H467 0.929 . S
C460 C459 1.383 . S
C460 C461 1.377 . S
C461 H445 0.930 . S
C461 C460 1.377 . S
C461 C462 1.379 . S
C462 H446 0.931 . S
C462 C456 1.383 . S
C462 C461 1.379 . S
H463 C457 0.959 . S
H464 C457 0.961 . S
H465 C457 0.960 . S
H466 C458 0.930 . S
H467 C459 0.929 . S
H468 C476 0.929 . S
H469 C478 0.930 . S
H470 C480 0.930 . S
H471 C483 0.929 . S
H472 C486 0.930 . S
H473 C488 0.960 . S
H474 C488 0.960 . S
H475 C488 0.960 . S
C476 H468 0.929 . S
C476 C477 1.377 . S
C476 C478 1.384 . S
C477 C476 1.377 . S
C477 C483 1.390 . S
C478 H469 0.930 . S
C478 C476 1.384 . S
C478 C479 1.372 . S
C479 C478 1.372 . S
C479 C480 1.400 . S
C479 C484 1.490 . S
C480 H470 0.930 . S
C480 C479 1.400 . S
C480 C483 1.386 . S
H481 C497 0.930 . S
H482 C498 0.931 . S
C483 H471 0.929 . S
C483 C477 1.390 . S
C483 C480 1.386 . S
C484 C479 1.490 . S
C484 C486 1.395 . S
C484 C487 1.403 . S
H485 C491 0.930 . S
C486 H472 0.930 . S
C486 C484 1.395 . S
C486 C489 1.403 . S
C487 C484 1.403 . S
C487 C488 1.524 . S
C487 C491 1.400 . S
C488 H473 0.960 . S
C488 H474 0.960 . S
C488 H475 0.960 . S
C488 C487 1.524 . S
C489 C486 1.403 . S
C489 C490 1.392 . S
C489 C493 1.495 . S
C490 C489 1.392 . S
C490 C491 1.385 . S
C490 C492 1.478 . S
C491 H485 0.930 . S
C491 C487 1.400 . S
C491 C490 1.385 . S
C492 C490 1.478 . S
C492 C494 1.381 . S
C492 C498 1.383 . S
C493 C489 1.495 . S
C493 H499 0.959 . S
C493 H500 0.961 . S
C493 H501 0.960 . S
C494 C492 1.381 . S
C494 C495 1.394 . S
C494 H502 0.930 . S
C495 C494 1.394 . S
C495 C496 1.383 . S
C495 H503 0.929 . S
C496 C495 1.383 . S
C496 C497 1.377 . S
C497 H481 0.930 . S
C497 C496 1.377 . S
C497 C498 1.379 . S
C498 H482 0.931 . S
C498 C492 1.383 . S
C498 C497 1.379 . S
H499 C493 0.959 . S
H500 C493 0.961 . S
H501 C493 0.960 . S
H502 C494 0.930 . S
H503 C495 0.929 . S
H504 C512 0.929 . S
H505 C514 0.930 . S
H506 C516 0.930 . S
H507 C519 0.929 . S
H508 C522 0.930 . S
H509 C524 0.960 . S
H510 C524 0.960 . S
H511 C524 0.960 . S
C512 H504 0.929 . S
C512 C513 1.377 . S
C512 C514 1.384 . S
C513 C512 1.377 . S
C513 C519 1.390 . S
C514 H505 0.930 . S
C514 C512 1.384 . S
C514 C515 1.372 . S
C515 C514 1.372 . S
C515 C516 1.400 . S
C515 C520 1.490 . S
C516 H506 0.930 . S
C516 C515 1.400 . S
C516 C519 1.386 . S
H517 C533 0.930 . S
H518 C534 0.931 . S
C519 H507 0.929 . S
C519 C513 1.390 . S
C519 C516 1.386 . S
C520 C515 1.490 . S
C520 C522 1.395 . S
C520 C523 1.403 . S
H521 C527 0.930 . S
C522 H508 0.930 . S
C522 C520 1.395 . S
C522 C525 1.403 . S
C523 C520 1.403 . S
C523 C524 1.524 . S
C523 C527 1.400 . S
C524 H509 0.960 . S
C524 H510 0.960 . S
C524 H511 0.960 . S
C524 C523 1.524 . S
C525 C522 1.403 . S
C525 C526 1.392 . S
C525 C529 1.495 . S
C526 C525 1.392 . S
C526 C527 1.385 . S
C526 C528 1.478 . S
C527 H521 0.930 . S
C527 C523 1.400 . S
C527 C526 1.385 . S
C528 C526 1.478 . S
C528 C530 1.381 . S
C528 C534 1.383 . S
C529 C525 1.495 . S
C529 H535 0.959 . S
C529 H536 0.961 . S
C529 H537 0.960 . S
C530 C528 1.381 . S
C530 C531 1.394 . S
C530 H538 0.930 . S
C531 C530 1.394 . S
C531 C532 1.383 . S
C531 H539 0.929 . S
C532 C531 1.383 . S
C532 C533 1.377 . S
C533 H517 0.930 . S
C533 C532 1.377 . S
C533 C534 1.379 . S
C534 H518 0.931 . S
C534 C528 1.383 . S
C534 C533 1.379 . S
H535 C529 0.959 . S
H536 C529 0.961 . S
H537 C529 0.960 . S
H538 C530 0.930 . S
H539 C531 0.929 . S
H540 C548 0.929 . S
H541 C550 0.930 . S
H542 C552 0.930 . S
H543 C555 0.929 . S
H544 C558 0.930 . S
H545 C560 0.960 . S
H546 C560 0.960 . S
H547 C560 0.960 . S
C548 H540 0.929 . S
C548 C549 1.377 . S
C548 C550 1.384 . S
C549 C548 1.377 . S
C549 C555 1.390 . S
C550 H541 0.930 . S
C550 C548 1.384 . S
C550 C551 1.372 . S
C551 C550 1.372 . S
C551 C552 1.400 . S
C551 C556 1.490 . S
C552 H542 0.930 . S
C552 C551 1.400 . S
C552 C555 1.386 . S
H553 C569 0.930 . S
H554 C570 0.931 . S
C555 H543 0.929 . S
C555 C549 1.390 . S
C555 C552 1.386 . S
C556 C551 1.490 . S
C556 C558 1.395 . S
C556 C559 1.403 . S
H557 C563 0.930 . S
C558 H544 0.930 . S
C558 C556 1.395 . S
C558 C561 1.403 . S
C559 C556 1.403 . S
C559 C560 1.524 . S
C559 C563 1.400 . S
C560 H545 0.960 . S
C560 H546 0.960 . S
C560 H547 0.960 . S
C560 C559 1.524 . S
C561 C558 1.403 . S
C561 C562 1.392 . S
C561 C565 1.495 . S
C562 C561 1.392 . S
C562 C563 1.385 . S
C562 C564 1.478 . S
C563 H557 0.930 . S
C563 C559 1.400 . S
C563 C562 1.385 . S
C564 C562 1.478 . S
C564 C566 1.381 . S
C564 C570 1.383 . S
C565 C561 1.495 . S
C565 H571 0.959 . S
C565 H572 0.961 . S
C565 H573 0.960 . S
C566 C564 1.381 . S
C566 C567 1.394 . S
C566 H574 0.930 . S
C567 C566 1.394 . S
C567 C568 1.383 . S
C567 H575 0.929 . S
C568 C567 1.383 . S
C568 C569 1.377 . S
C569 H553 0.930 . S
C569 C568 1.377 . S
C569 C570 1.379 . S
C570 H554 0.931 . S
C570 C564 1.383 . S
C570 C569 1.379 . S
H571 C565 0.959 . S
H572 C565 0.961 . S
H573 C565 0.960 . S
H574 C566 0.930 . S
H575 C567 0.929 . S
H576 C584 0.929 . S
H577 C586 0.930 . S
H578 C588 0.930 . S
H579 C591 0.929 . S
H580 C594 0.930 . S
H581 C596 0.960 . S
H582 C596 0.960 . S
H583 C596 0.960 . S
C584 H576 0.929 . S
C584 C585 1.377 . S
C584 C586 1.384 . S
C585 C584 1.377 . S
C585 C591 1.390 . S
C586 H577 0.930 . S
C586 C584 1.384 . S
C586 C587 1.372 . S
C587 C586 1.372 . S
C587 C588 1.400 . S
C587 C592 1.490 . S
C588 H578 0.930 . S
C588 C587 1.400 . S
C588 C591 1.386 . S
H589 C605 0.930 . S
H590 C606 0.931 . S
C591 H579 0.929 . S
C591 C585 1.390 . S
C591 C588 1.386 . S
C592 C587 1.490 . S
C592 C594 1.395 . S
C592 C595 1.403 . S
H593 C599 0.930 . S
C594 H580 0.930 . S
C594 C592 1.395 . S
C594 C597 1.403 . S
C595 C592 1.403 . S
C595 C596 1.524 . S
C595 C599 1.400 . S
C596 H581 0.960 . S
C596 H582 0.960 . S
C596 H583 0.960 . S
C596 C595 1.524 . S
C597 C594 1.403 . S
C597 C598 1.392 . S
C597 C601 1.495 . S
C598 C597 1.392 . S
C598 C599 1.385 . S
C598 C600 1.478 . S
C599 H593 0.930 . S
C599 C595 1.400 . S
C599 C598 1.385 . S
C600 C598 1.478 . S
C600 C602 1.381 . S
C600 C606 1.383 . S
C601 C597 1.495 . S
C601 H607 0.959 . S
C601 H608 0.961 . S
C601 H609 0.960 . S
C602 C600 1.381 . S
C602 C603 1.394 1_556 S
C602 H610 0.930 1_556 S
C603 C602 1.394 1_554 S
C603 C604 1.383 1_554 S
C603 H611 0.929 . S
C604 C603 1.383 1_556 S
C604 C605 1.377 . S
C605 H589 0.930 . S
C605 C604 1.377 . S
C605 C606 1.379 . S
C606 H590 0.931 . S
C606 C600 1.383 . S
C606 C605 1.379 . S
H607 C601 0.959 . S
H608 C601 0.961 . S
H609 C601 0.960 . S
H610 C602 0.930 1_554 S
H611 C603 0.929 . S
H612 C620 0.929 . S
H613 C622 0.930 . S
H614 C624 0.930 . S
H615 C627 0.929 . S
H616 C630 0.930 . S
H617 C632 0.960 . S
H618 C632 0.960 . S
H619 C632 0.960 . S
C620 H612 0.929 . S
C620 C621 1.377 . S
C620 C622 1.384 . S
C621 C620 1.377 . S
C621 C627 1.390 . S
C622 H613 0.930 . S
C622 C620 1.384 . S
C622 C623 1.372 . S
C623 C622 1.372 . S
C623 C624 1.400 . S
C623 C628 1.490 . S
C624 H614 0.930 . S
C624 C623 1.400 . S
C624 C627 1.386 . S
H625 C641 0.930 . S
H626 C642 0.931 . S
C627 H615 0.929 . S
C627 C621 1.390 . S
C627 C624 1.386 . S
C628 C623 1.490 . S
C628 C630 1.395 . S
C628 C631 1.403 . S
H629 C635 0.930 . S
C630 H616 0.930 . S
C630 C628 1.395 . S
C630 C633 1.403 . S
C631 C628 1.403 . S
C631 C632 1.524 . S
C631 C635 1.400 . S
C632 H617 0.960 . S
C632 H618 0.960 . S
C632 H619 0.960 . S
C632 C631 1.524 . S
C633 C630 1.403 . S
C633 C634 1.392 . S
C633 C637 1.495 . S
C634 C633 1.392 . S
C634 C635 1.385 . S
C634 C636 1.478 . S
C635 H629 0.930 . S
C635 C631 1.400 . S
C635 C634 1.385 . S
C636 C634 1.478 . S
C636 C638 1.381 . S
C636 C642 1.383 . S
C637 C633 1.495 . S
C637 H643 0.959 . S
C637 H644 0.961 . S
C637 H645 0.960 . S
C638 C636 1.381 . S
C638 C639 1.394 . S
C638 H646 0.930 . S
C639 C638 1.394 . S
C639 C640 1.383 . S
C639 H647 0.929 . S
C640 C639 1.383 . S
C640 C641 1.377 . S
C641 H625 0.930 . S
C641 C640 1.377 . S
C641 C642 1.379 . S
C642 H626 0.931 . S
C642 C636 1.383 . S
C642 C641 1.379 . S
H643 C637 0.959 . S
H644 C637 0.961 . S
H645 C637 0.960 . S
H646 C638 0.930 . S
H647 C639 0.929 . S
H648 C656 0.929 . S
H649 C658 0.930 . S
H650 C660 0.930 . S
H651 C663 0.929 . S
H652 C666 0.930 . S
H653 C668 0.960 . S
H654 C668 0.960 . S
H655 C668 0.960 . S
C656 H648 0.929 . S
C656 C657 1.377 . S
C656 C658 1.384 . S
C657 C656 1.377 . S
C657 C663 1.390 . S
C658 H649 0.930 . S
C658 C656 1.384 . S
C658 C659 1.372 . S
C659 C658 1.372 . S
C659 C660 1.400 . S
C659 C664 1.490 . S
C660 H650 0.930 . S
C660 C659 1.400 . S
C660 C663 1.386 . S
H661 C677 0.930 1_554 S
H662 C678 0.931 . S
C663 H651 0.929 . S
C663 C657 1.390 . S
C663 C660 1.386 . S
C664 C659 1.490 . S
C664 C666 1.395 . S
C664 C667 1.403 . S
H665 C671 0.930 . S
C666 H652 0.930 . S
C666 C664 1.395 . S
C666 C669 1.403 . S
C667 C664 1.403 . S
C667 C668 1.524 . S
C667 C671 1.400 . S
C668 H653 0.960 . S
C668 H654 0.960 . S
C668 H655 0.960 . S
C668 C667 1.524 . S
C669 C666 1.403 . S
C669 C670 1.392 . S
C669 C673 1.495 . S
C670 C669 1.392 . S
C670 C671 1.385 . S
C670 C672 1.478 . S
C671 H665 0.930 . S
C671 C667 1.400 . S
C671 C670 1.385 . S
C672 C670 1.478 . S
C672 C674 1.381 . S
C672 C678 1.383 . S
C673 C669 1.495 . S
C673 H679 0.959 . S
C673 H680 0.961 . S
C673 H681 0.960 . S
C674 C672 1.381 . S
C674 C675 1.394 1_556 S
C674 H682 0.930 . S
C675 C674 1.394 1_554 S
C675 C676 1.383 . S
C675 H683 0.929 . S
C676 C675 1.383 . S
C676 C677 1.377 1_554 S
C677 H661 0.930 1_556 S
C677 C676 1.377 1_556 S
C677 C678 1.379 . S
C678 H662 0.931 . S
C678 C672 1.383 . S
C678 C677 1.379 . S
H679 C673 0.959 . S
H680 C673 0.961 . S
H681 C673 0.960 . S
H682 C674 0.930 . S
H683 C675 0.929 . S
H684 C692 0.929 . S
H685 C694 0.930 . S
H686 C696 0.930 . S
H687 C699 0.929 . S
H688 C702 0.930 . S
H689 C704 0.960 . S
H690 C704 0.960 . S
H691 C704 0.960 . S
C692 H684 0.929 . S
C692 C693 1.377 . S
C692 C694 1.384 . S
C693 C692 1.377 . S
C693 C699 1.390 . S
C694 H685 0.930 . S
C694 C692 1.384 . S
C694 C695 1.372 . S
C695 C694 1.372 . S
C695 C696 1.400 . S
C695 C700 1.490 . S
C696 H686 0.930 . S
C696 C695 1.400 . S
C696 C699 1.386 . S
H697 C713 0.930 . S
H698 C714 0.931 . S
C699 H687 0.929 . S
C699 C693 1.390 . S
C699 C696 1.386 . S
C700 C695 1.490 . S
C700 C702 1.395 . S
C700 C703 1.403 . S
H701 C707 0.930 1_554 S
C702 H688 0.930 . S
C702 C700 1.395 . S
C702 C705 1.403 . S
C703 C700 1.403 . S
C703 C704 1.524 . S
C703 C707 1.400 . S
C704 H689 0.960 . S
C704 H690 0.960 . S
C704 H691 0.960 . S
C704 C703 1.524 . S
C705 C702 1.403 . S
C705 C706 1.392 1_556 S
C705 C709 1.495 . S
C706 C705 1.392 1_554 S
C706 C707 1.385 1_554 S
C706 C708 1.478 . S
C707 H701 0.930 1_556 S
C707 C703 1.400 . S
C707 C706 1.385 1_556 S
C708 C706 1.478 . S
C708 C710 1.381 . S
C708 C714 1.383 . S
C709 C705 1.495 . S
C709 H715 0.959 . S
C709 H716 0.961 1_556 S
C709 H717 0.960 1_556 S
C710 C708 1.381 . S
C710 C711 1.394 . S
C710 H718 0.930 . S
C711 C710 1.394 . S
C711 C712 1.383 . S
C711 H719 0.929 . S
C712 C711 1.383 . S
C712 C713 1.377 . S
C713 H697 0.930 . S
C713 C712 1.377 . S
C713 C714 1.379 . S
C714 H698 0.931 . S
C714 C708 1.383 . S
C714 C713 1.379 . S
H715 C709 0.959 . S
H716 C709 0.961 1_554 S
H717 C709 0.960 1_554 S
H718 C710 0.930 . S
H719 C711 0.929 . S
H720 C728 0.929 . S
H721 C730 0.930 . S
H722 C732 0.930 . S
H723 C735 0.929 . S
H724 C738 0.930 . S
H725 C740 0.960 . S
H726 C740 0.960 . S
H727 C740 0.960 . S
C728 H720 0.929 . S
C728 C729 1.377 . S
C728 C730 1.384 . S
C729 C728 1.377 . S
C729 C735 1.390 . S
C730 H721 0.930 . S
C730 C728 1.384 . S
C730 C731 1.372 . S
C731 C730 1.372 . S
C731 C732 1.400 . S
C731 C736 1.490 1_556 S
C732 H722 0.930 . S
C732 C731 1.400 . S
C732 C735 1.386 . S
H733 C749 0.930 . S
H734 C750 0.931 . S
C735 H723 0.929 . S
C735 C729 1.390 . S
C735 C732 1.386 . S
C736 C731 1.490 1_554 S
C736 C738 1.395 . S
C736 C739 1.403 . S
H737 C743 0.930 . S
C738 H724 0.930 . S
C738 C736 1.395 . S
C738 C741 1.403 . S
C739 C736 1.403 . S
C739 C740 1.524 . S
C739 C743 1.400 . S
C740 H725 0.960 . S
C740 H726 0.960 . S
C740 H727 0.960 . S
C740 C739 1.524 . S
C741 C738 1.403 . S
C741 C742 1.392 . S
C741 C745 1.495 . S
C742 C741 1.392 . S
C742 C743 1.385 . S
C742 C744 1.478 . S
C743 H737 0.930 . S
C743 C739 1.400 . S
C743 C742 1.385 . S
C744 C742 1.478 . S
C744 C746 1.381 . S
C744 C750 1.383 . S
C745 C741 1.495 . S
C745 H751 0.959 . S
C745 H752 0.961 . S
C745 H753 0.960 . S
C746 C744 1.381 . S
C746 C747 1.394 . S
C746 H754 0.930 . S
C747 C746 1.394 . S
C747 C748 1.383 . S
C747 H755 0.929 . S
C748 C747 1.383 . S
C748 C749 1.377 . S
C749 H733 0.930 . S
C749 C748 1.377 . S
C749 C750 1.379 . S
C750 H734 0.931 . S
C750 C744 1.383 . S
C750 C749 1.379 . S
H751 C745 0.959 . S
H752 C745 0.961 . S
H753 C745 0.960 . S
H754 C746 0.930 . S
H755 C747 0.929 . S
H756 C764 0.929 . S
H757 C766 0.930 . S
H758 C768 0.930 . S
H759 C771 0.929 . S
H760 C774 0.930 . S
H761 C776 0.960 . S
H762 C776 0.960 . S
H763 C776 0.960 . S
C764 H756 0.929 . S
C764 C765 1.377 . S
C764 C766 1.384 . S
C765 C764 1.377 . S
C765 C771 1.390 . S
C766 H757 0.930 . S
C766 C764 1.384 . S
C766 C767 1.372 . S
C767 C766 1.372 . S
C767 C768 1.400 . S
C767 C772 1.490 . S
C768 H758 0.930 . S
C768 C767 1.400 . S
C768 C771 1.386 . S
H769 C785 0.930 . S
H770 C786 0.931 . S
C771 H759 0.929 . S
C771 C765 1.390 . S
C771 C768 1.386 . S
C772 C767 1.490 . S
C772 C774 1.395 . S
C772 C775 1.403 . S
H773 C779 0.930 . S
C774 H760 0.930 . S
C774 C772 1.395 . S
C774 C777 1.403 . S
C775 C772 1.403 . S
C775 C776 1.524 . S
C775 C779 1.400 . S
C776 H761 0.960 . S
C776 H762 0.960 . S
C776 H763 0.960 . S
C776 C775 1.524 . S
C777 C774 1.403 . S
C777 C778 1.392 . S
C777 C781 1.495 . S
C778 C777 1.392 . S
C778 C779 1.385 . S
C778 C780 1.478 . S
C779 H773 0.930 . S
C779 C775 1.400 . S
C779 C778 1.385 . S
C780 C778 1.478 . S
C780 C782 1.381 . S
C780 C786 1.383 . S
C781 C777 1.495 . S
C781 H787 0.959 . S
C781 H788 0.961 . S
C781 H789 0.960 . S
C782 C780 1.381 . S
C782 C783 1.394 . S
C782 H790 0.930 . S
C783 C782 1.394 . S
C783 C784 1.383 . S
C783 H791 0.929 . S
C784 C783 1.383 . S
C784 C785 1.377 . S
C785 H769 0.930 . S
C785 C784 1.377 . S
C785 C786 1.379 . S
C786 H770 0.931 . S
C786 C780 1.383 . S
C786 C785 1.379 . S
H787 C781 0.959 . S
H788 C781 0.961 . S
H789 C781 0.960 . S
H790 C782 0.930 . S
H791 C783 0.929 . S
H792 C800 0.929 . S
H793 C802 0.930 . S
H794 C804 0.930 . S
H795 C807 0.929 . S
H796 C810 0.930 . S
H797 C812 0.960 . S
H798 C812 0.960 . S
H799 C812 0.960 . S
C800 H792 0.929 . S
C800 C801 1.377 . S
C800 C802 1.384 . S
C801 C800 1.377 . S
C801 C807 1.390 . S
C802 H793 0.930 . S
C802 C800 1.384 . S
C802 C803 1.372 . S
C803 C802 1.372 . S
C803 C804 1.400 . S
C803 C808 1.490 . S
C804 H794 0.930 . S
C804 C803 1.400 . S
C804 C807 1.386 . S
H805 C821 0.930 . S
H806 C822 0.931 . S
C807 H795 0.929 . S
C807 C801 1.390 . S
C807 C804 1.386 . S
C808 C803 1.490 . S
C808 C810 1.395 . S
C808 C811 1.403 . S
H809 C815 0.930 . S
C810 H796 0.930 . S
C810 C808 1.395 . S
C810 C813 1.403 . S
C811 C808 1.403 . S
C811 C812 1.524 . S
C811 C815 1.400 . S
C812 H797 0.960 . S
C812 H798 0.960 . S
C812 H799 0.960 . S
C812 C811 1.524 . S
C813 C810 1.403 . S
C813 C814 1.392 . S
C813 C817 1.495 . S
C814 C813 1.392 . S
C814 C815 1.385 . S
C814 C816 1.478 . S
C815 H809 0.930 . S
C815 C811 1.400 . S
C815 C814 1.385 . S
C816 C814 1.478 . S
C816 C818 1.381 . S
C816 C822 1.383 . S
C817 C813 1.495 . S
C817 H823 0.959 . S
C817 H824 0.961 . S
C817 H825 0.960 . S
C818 C816 1.381 . S
C818 C819 1.394 . S
C818 H826 0.930 . S
C819 C818 1.394 . S
C819 C820 1.383 . S
C819 H827 0.929 . S
C820 C819 1.383 . S
C820 C821 1.377 . S
C821 H805 0.930 . S
C821 C820 1.377 . S
C821 C822 1.379 . S
C822 H806 0.931 . S
C822 C816 1.383 . S
C822 C821 1.379 . S
H823 C817 0.959 . S
H824 C817 0.961 . S
H825 C817 0.960 . S
H826 C818 0.930 . S
H827 C819 0.929 . S
H828 C836 0.929 . S
H829 C838 0.930 . S
H830 C840 0.930 . S
H831 C843 0.929 . S
H832 C846 0.930 . S
H833 C848 0.960 . S
H834 C848 0.960 . S
H835 C848 0.960 . S
C836 H828 0.929 . S
C836 C837 1.377 . S
C836 C838 1.384 1_556 S
C837 C836 1.377 . S
C837 C843 1.390 . S
C838 H829 0.930 . S
C838 C836 1.384 1_554 S
C838 C839 1.372 . S
C839 C838 1.372 . S
C839 C840 1.400 . S
C839 C844 1.490 . S
C840 H830 0.930 . S
C840 C839 1.400 . S
C840 C843 1.386 1_554 S
H841 C857 0.930 . S
H842 C858 0.931 . S
C843 H831 0.929 . S
C843 C837 1.390 . S
C843 C840 1.386 1_556 S
C844 C839 1.490 . S
C844 C846 1.395 . S
C844 C847 1.403 . S
H845 C851 0.930 . S
C846 H832 0.930 . S
C846 C844 1.395 . S
C846 C849 1.403 . S
C847 C844 1.403 . S
C847 C848 1.524 . S
C847 C851 1.400 . S
C848 H833 0.960 . S
C848 H834 0.960 . S
C848 H835 0.960 . S
C848 C847 1.524 . S
C849 C846 1.403 . S
C849 C850 1.392 . S
C849 C853 1.495 . S
C850 C849 1.392 . S
C850 C851 1.385 . S
C850 C852 1.478 . S
C851 H845 0.930 . S
C851 C847 1.400 . S
C851 C850 1.385 . S
C852 C850 1.478 . S
C852 C854 1.381 . S
C852 C858 1.383 . S
C853 C849 1.495 . S
C853 H859 0.959 . S
C853 H860 0.961 . S
C853 H861 0.960 . S
C854 C852 1.381 . S
C854 C855 1.394 . S
C854 H862 0.930 . S
C855 C854 1.394 . S
C855 C856 1.383 . S
C855 H863 0.929 . S
C856 C855 1.383 . S
C856 C857 1.377 . S
C857 H841 0.930 . S
C857 C856 1.377 . S
C857 C858 1.379 . S
C858 H842 0.931 . S
C858 C852 1.383 . S
C858 C857 1.379 . S
H859 C853 0.959 . S
H860 C853 0.961 . S
H861 C853 0.960 . S
H862 C854 0.930 . S
H863 C855 0.929 . S
H864 C872 0.929 . S
H865 C874 0.930 . S
H866 C876 0.930 . S
H867 C879 0.929 . S
H868 C882 0.930 . S
H869 C884 0.960 . S
H870 C884 0.960 . S
H871 C884 0.960 . S
C872 H864 0.929 . S
C872 C873 1.377 . S
C872 C874 1.384 . S
C873 C872 1.377 . S
C873 C879 1.390 . S
C874 H865 0.930 . S
C874 C872 1.384 . S
C874 C875 1.372 . S
C875 C874 1.372 . S
C875 C876 1.400 . S
C875 C880 1.490 . S
C876 H866 0.930 . S
C876 C875 1.400 . S
C876 C879 1.386 . S
H877 C893 0.930 . S
H878 C894 0.931 . S
C879 H867 0.929 . S
C879 C873 1.390 . S
C879 C876 1.386 . S
C880 C875 1.490 . S
C880 C882 1.395 . S
C880 C883 1.403 . S
H881 C887 0.930 . S
C882 H868 0.930 . S
C882 C880 1.395 . S
C882 C885 1.403 . S
C883 C880 1.403 . S
C883 C884 1.524 . S
C883 C887 1.400 . S
C884 H869 0.960 . S
C884 H870 0.960 . S
C884 H871 0.960 . S
C884 C883 1.524 . S
C885 C882 1.403 . S
C885 C886 1.392 . S
C885 C889 1.495 . S
C886 C885 1.392 . S
C886 C887 1.385 . S
C886 C888 1.478 . S
C887 H881 0.930 . S
C887 C883 1.400 . S
C887 C886 1.385 . S
C888 C886 1.478 . S
C888 C890 1.381 . S
C888 C894 1.383 . S
C889 C885 1.495 . S
C889 H895 0.959 . S
C889 H896 0.961 . S
C889 H897 0.960 . S
C890 C888 1.381 . S
C890 C891 1.394 . S
C890 H898 0.930 . S
C891 C890 1.394 . S
C891 C892 1.383 . S
C891 H899 0.929 . S
C892 C891 1.383 . S
C892 C893 1.377 . S
C893 H877 0.930 . S
C893 C892 1.377 . S
C893 C894 1.379 . S
C894 H878 0.931 . S
C894 C888 1.383 . S
C894 C893 1.379 . S
H895 C889 0.959 . S
H896 C889 0.961 . S
H897 C889 0.960 . S
H898 C890 0.930 . S
H899 C891 0.929 . S
H900 C908 0.929 . S
H901 C910 0.930 . S
H902 C912 0.930 . S
H903 C915 0.929 . S
H904 C918 0.930 . S
H905 C920 0.960 . S
H906 C920 0.960 . S
H907 C920 0.960 . S
C908 H900 0.929 . S
C908 C909 1.377 . S
C908 C910 1.384 . S
C909 C908 1.377 . S
C909 C915 1.390 . S
C910 H901 0.930 . S
C910 C908 1.384 . S
C910 C911 1.372 . S
C911 C910 1.372 . S
C911 C912 1.400 . S
C911 C916 1.490 . S
C912 H902 0.930 . S
C912 C911 1.400 . S
C912 C915 1.386 . S
H913 C929 0.930 . S
H914 C930 0.931 . S
C915 H903 0.929 . S
C915 C909 1.390 . S
C915 C912 1.386 . S
C916 C911 1.490 . S
C916 C918 1.395 . S
C916 C919 1.403 . S
H917 C923 0.930 . S
C918 H904 0.930 . S
C918 C916 1.395 . S
C918 C921 1.403 . S
C919 C916 1.403 . S
C919 C920 1.524 . S
C919 C923 1.400 . S
C920 H905 0.960 . S
C920 H906 0.960 . S
C920 H907 0.960 . S
C920 C919 1.524 . S
C921 C918 1.403 . S
C921 C922 1.392 . S
C921 C925 1.495 . S
C922 C921 1.392 . S
C922 C923 1.385 . S
C922 C924 1.478 . S
C923 H917 0.930 . S
C923 C919 1.400 . S
C923 C922 1.385 . S
C924 C922 1.478 . S
C924 C926 1.381 . S
C924 C930 1.383 . S
C925 C921 1.495 . S
C925 H931 0.959 . S
C925 H932 0.961 . S
C925 H933 0.960 . S
C926 C924 1.381 . S
C926 C927 1.394 . S
C926 H934 0.930 . S
C927 C926 1.394 . S
C927 C928 1.383 . S
C927 H935 0.929 . S
C928 C927 1.383 . S
C928 C929 1.377 . S
C929 H913 0.930 . S
C929 C928 1.377 . S
C929 C930 1.379 . S
C930 H914 0.931 . S
C930 C924 1.383 . S
C930 C929 1.379 . S
H931 C925 0.959 . S
H932 C925 0.961 . S
H933 C925 0.960 . S
H934 C926 0.930 . S
H935 C927 0.929 . S
H936 C944 0.929 . S
H937 C946 0.930 . S
H938 C948 0.930 . S
H939 C951 0.929 . S
H940 C954 0.930 . S
H941 C956 0.960 . S
H942 C956 0.960 . S
H943 C956 0.960 . S
C944 H936 0.929 . S
C944 C945 1.377 . S
C944 C946 1.384 . S
C945 C944 1.377 . S
C945 C951 1.390 . S
C946 H937 0.930 . S
C946 C944 1.384 . S
C946 C947 1.372 . S
C947 C946 1.372 . S
C947 C948 1.400 . S
C947 C952 1.490 . S
C948 H938 0.930 . S
C948 C947 1.400 . S
C948 C951 1.386 . S
H949 C965 0.930 . S
H950 C966 0.931 . S
C951 H939 0.929 . S
C951 C945 1.390 . S
C951 C948 1.386 . S
C952 C947 1.490 . S
C952 C954 1.395 . S
C952 C955 1.403 . S
H953 C959 0.930 . S
C954 H940 0.930 . S
C954 C952 1.395 . S
C954 C957 1.403 . S
C955 C952 1.403 . S
C955 C956 1.524 . S
C955 C959 1.400 . S
C956 H941 0.960 . S
C956 H942 0.960 . S
C956 H943 0.960 . S
C956 C955 1.524 . S
C957 C954 1.403 . S
C957 C958 1.392 . S
C957 C961 1.495 . S
C958 C957 1.392 . S
C958 C959 1.385 . S
C958 C960 1.478 . S
C959 H953 0.930 . S
C959 C955 1.400 . S
C959 C958 1.385 . S
C960 C958 1.478 . S
C960 C962 1.381 . S
C960 C966 1.383 . S
C961 C957 1.495 . S
C961 H967 0.959 . S
C961 H968 0.961 . S
C961 H969 0.960 . S
C962 C960 1.381 . S
C962 C963 1.394 . S
C962 H970 0.930 . S
C963 C962 1.394 . S
C963 C964 1.383 . S
C963 H971 0.929 . S
C964 C963 1.383 . S
C964 C965 1.377 . S
C965 H949 0.930 . S
C965 C964 1.377 . S
C965 C966 1.379 . S
C966 H950 0.931 . S
C966 C960 1.383 . S
C966 C965 1.379 . S
H967 C961 0.959 . S
H968 C961 0.961 . S
H969 C961 0.960 . S
H970 C962 0.930 . S
H971 C963 0.929 . S
H972 C980 0.929 . S
H973 C982 0.930 . S
H974 C984 0.930 . S
H975 C987 0.929 . S
H976 C990 0.930 . S
H977 C992 0.960 . S
H978 C992 0.960 . S
H979 C992 0.960 . S
C980 H972 0.929 . S
C980 C981 1.377 . S
C980 C982 1.384 . S
C981 C980 1.377 . S
C981 C987 1.390 . S
C982 H973 0.930 . S
C982 C980 1.384 . S
C982 C983 1.372 . S
C983 C982 1.372 . S
C983 C984 1.400 . S
C983 C988 1.490 . S
C984 H974 0.930 . S
C984 C983 1.400 . S
C984 C987 1.386 . S
H985 C1001 0.930 . S
H986 C1002 0.931 . S
C987 H975 0.929 . S
C987 C981 1.390 . S
C987 C984 1.386 . S
C988 C983 1.490 . S
C988 C990 1.395 . S
C988 C991 1.403 . S
H989 C995 0.930 . S
C990 H976 0.930 . S
C990 C988 1.395 . S
C990 C993 1.403 . S
C991 C988 1.403 . S
C991 C992 1.524 . S
C991 C995 1.400 . S
C992 H977 0.960 . S
C992 H978 0.960 . S
C992 H979 0.960 . S
C992 C991 1.524 . S
C993 C990 1.403 . S
C993 C994 1.392 . S
C993 C997 1.495 . S
C994 C993 1.392 . S
C994 C995 1.385 . S
C994 C996 1.478 1_556 S
C995 H989 0.930 . S
C995 C991 1.400 . S
C995 C994 1.385 . S
C996 C994 1.478 1_554 S
C996 C998 1.381 . S
C996 C1002 1.383 . S
C997 C993 1.495 . S
C997 H1003 0.959 . S
C997 H1004 0.961 . S
C997 H1005 0.960 . S
C998 C996 1.381 . S
C998 C999 1.394 . S
C998 H1006 0.930 . S
C999 C998 1.394 . S
C999 C1000 1.383 . S
C999 H1007 0.929 . S
C1000 C999 1.383 . S
C1000 C1001 1.377 . S
C1001 H985 0.930 . S
C1001 C1000 1.377 . S
C1001 C1002 1.379 . S
C1002 H986 0.931 . S
C1002 C996 1.383 . S
C1002 C1001 1.379 . S
H1003 C997 0.959 . S
H1004 C997 0.961 . S
H1005 C997 0.960 . S
H1006 C998 0.930 . S
H1007 C999 0.929 . S
H1008 C1016 0.929 . S
H1009 C1018 0.930 . S
H1010 C1020 0.930 . S
H1011 C1023 0.929 . S
H1012 C1026 0.930 . S
H1013 C1028 0.960 . S
H1014 C1028 0.960 . S
H1015 C1028 0.960 . S
C1016 H1008 0.929 . S
C1016 C1017 1.377 . S
C1016 C1018 1.384 . S
C1017 C1016 1.377 . S
C1017 C1023 1.390 . S
C1018 H1009 0.930 . S
C1018 C1016 1.384 . S
C1018 C1019 1.372 . S
C1019 C1018 1.372 . S
C1019 C1020 1.400 . S
C1019 C1024 1.490 . S
C1020 H1010 0.930 . S
C1020 C1019 1.400 . S
C1020 C1023 1.386 . S
H1021 C1037 0.930 . S
H1022 C1038 0.931 . S
C1023 H1011 0.929 . S
C1023 C1017 1.390 . S
C1023 C1020 1.386 . S
C1024 C1019 1.490 . S
C1024 C1026 1.395 . S
C1024 C1027 1.403 . S
H1025 C1031 0.930 1_556 S
C1026 H1012 0.930 . S
C1026 C1024 1.395 . S
C1026 C1029 1.403 . S
C1027 C1024 1.403 . S
C1027 C1028 1.524 . S
C1027 C1031 1.400 . S
C1028 H1013 0.960 . S
C1028 H1014 0.960 . S
C1028 H1015 0.960 . S
C1028 C1027 1.524 . S
C1029 C1026 1.403 . S
C1029 C1030 1.392 1_554 S
C1029 C1033 1.495 1_554 S
C1030 C1029 1.392 1_556 S
C1030 C1031 1.385 1_556 S
C1030 C1032 1.478 . S
C1031 H1025 0.930 1_554 S
C1031 C1027 1.400 . S
C1031 C1030 1.385 1_554 S
C1032 C1030 1.478 . S
C1032 C1034 1.381 . S
C1032 C1038 1.383 . S
C1033 C1029 1.495 1_556 S
C1033 H1039 0.959 1_556 S
C1033 H1040 0.961 . S
C1033 H1041 0.960 . S
C1034 C1032 1.381 . S
C1034 C1035 1.394 . S
C1034 H1042 0.930 . S
C1035 C1034 1.394 . S
C1035 C1036 1.383 . S
C1035 H1043 0.929 . S
C1036 C1035 1.383 . S
C1036 C1037 1.377 . S
C1037 H1021 0.930 . S
C1037 C1036 1.377 . S
C1037 C1038 1.379 . S
C1038 H1022 0.931 . S
C1038 C1032 1.383 . S
C1038 C1037 1.379 . S
H1039 C1033 0.959 1_554 S
H1040 C1033 0.961 . S
H1041 C1033 0.960 . S
H1042 C1034 0.930 . S
H1043 C1035 0.929 . S
H1044 C1052 0.929 . S
H1045 C1054 0.930 . S
H1046 C1056 0.930 . S
H1047 C1059 0.929 . S
H1048 C1062 0.930 . S
H1049 C1064 0.960 . S
H1050 C1064 0.960 . S
H1051 C1064 0.960 . S
C1052 H1044 0.929 . S
C1052 C1053 1.377 . S
C1052 C1054 1.384 . S
C1053 C1052 1.377 . S
C1053 C1059 1.390 . S
C1054 H1045 0.930 . S
C1054 C1052 1.384 . S
C1054 C1055 1.372 . S
C1055 C1054 1.372 . S
C1055 C1056 1.400 . S
C1055 C1060 1.490 . S
C1056 H1046 0.930 . S
C1056 C1055 1.400 . S
C1056 C1059 1.386 . S
H1057 C1073 0.930 . S
H1058 C1074 0.931 . S
C1059 H1047 0.929 . S
C1059 C1053 1.390 . S
C1059 C1056 1.386 . S
C1060 C1055 1.490 . S
C1060 C1062 1.395 . S
C1060 C1063 1.403 . S
H1061 C1067 0.930 . S
C1062 H1048 0.930 . S
C1062 C1060 1.395 . S
C1062 C1065 1.403 . S
C1063 C1060 1.403 . S
C1063 C1064 1.524 . S
C1063 C1067 1.400 . S
C1064 H1049 0.960 . S
C1064 H1050 0.960 . S
C1064 H1051 0.960 . S
C1064 C1063 1.524 . S
C1065 C1062 1.403 . S
C1065 C1066 1.392 . S
C1065 C1069 1.495 . S
C1066 C1065 1.392 . S
C1066 C1067 1.385 . S
C1066 C1068 1.478 . S
C1067 H1061 0.930 . S
C1067 C1063 1.400 . S
C1067 C1066 1.385 . S
C1068 C1066 1.478 . S
C1068 C1070 1.381 . S
C1068 C1074 1.383 . S
C1069 C1065 1.495 . S
C1069 H1075 0.959 . S
C1069 H1076 0.961 . S
C1069 H1077 0.960 . S
C1070 C1068 1.381 . S
C1070 C1071 1.394 . S
C1070 H1078 0.930 . S
C1071 C1070 1.394 . S
C1071 C1072 1.383 . S
C1071 H1079 0.929 . S
C1072 C1071 1.383 . S
C1072 C1073 1.377 . S
C1073 H1057 0.930 . S
C1073 C1072 1.377 . S
C1073 C1074 1.379 . S
C1074 H1058 0.931 . S
C1074 C1068 1.383 . S
C1074 C1073 1.379 . S
H1075 C1069 0.959 . S
H1076 C1069 0.961 . S
H1077 C1069 0.960 . S
H1078 C1070 0.930 . S
H1079 C1071 0.929 . S
H1080 C1088 0.929 . S
H1081 C1090 0.930 . S
H1082 C1092 0.930 . S
H1083 C1095 0.929 . S
H1084 C1098 0.930 . S
H1085 C1100 0.960 . S
H1086 C1100 0.960 . S
H1087 C1100 0.960 . S
C1088 H1080 0.929 . S
C1088 C1089 1.377 . S
C1088 C1090 1.384 . S
C1089 C1088 1.377 . S
C1089 C1095 1.390 . S
C1090 H1081 0.930 . S
C1090 C1088 1.384 . S
C1090 C1091 1.372 . S
C1091 C1090 1.372 . S
C1091 C1092 1.400 . S
C1091 C1096 1.490 . S
C1092 H1082 0.930 . S
C1092 C1091 1.400 . S
C1092 C1095 1.386 . S
H1093 C1109 0.930 . S
H1094 C1110 0.931 . S
C1095 H1083 0.929 . S
C1095 C1089 1.390 . S
C1095 C1092 1.386 . S
C1096 C1091 1.490 . S
C1096 C1098 1.395 . S
C1096 C1099 1.403 . S
H1097 C1103 0.930 . S
C1098 H1084 0.930 . S
C1098 C1096 1.395 . S
C1098 C1101 1.403 . S
C1099 C1096 1.403 . S
C1099 C1100 1.524 . S
C1099 C1103 1.400 . S
C1100 H1085 0.960 . S
C1100 H1086 0.960 . S
C1100 H1087 0.960 . S
C1100 C1099 1.524 . S
C1101 C1098 1.403 . S
C1101 C1102 1.392 . S
C1101 C1105 1.495 . S
C1102 C1101 1.392 . S
C1102 C1103 1.385 . S
C1102 C1104 1.478 . S
C1103 H1097 0.930 . S
C1103 C1099 1.400 . S
C1103 C1102 1.385 . S
C1104 C1102 1.478 . S
C1104 C1106 1.381 . S
C1104 C1110 1.383 . S
C1105 C1101 1.495 . S
C1105 H1111 0.959 . S
C1105 H1112 0.961 . S
C1105 H1113 0.960 . S
C1106 C1104 1.381 . S
C1106 C1107 1.394 . S
C1106 H1114 0.930 . S
C1107 C1106 1.394 . S
C1107 C1108 1.383 . S
C1107 H1115 0.929 . S
C1108 C1107 1.383 . S
C1108 C1109 1.377 . S
C1109 H1093 0.930 . S
C1109 C1108 1.377 . S
C1109 C1110 1.379 . S
C1110 H1094 0.931 . S
C1110 C1104 1.383 . S
C1110 C1109 1.379 . S
H1111 C1105 0.959 . S
H1112 C1105 0.961 . S
H1113 C1105 0.960 . S
H1114 C1106 0.930 . S
H1115 C1107 0.929 . S
H1116 C1124 0.929 . S
H1117 C1126 0.930 . S
H1118 C1128 0.930 . S
H1119 C1131 0.929 . S
H1120 C1134 0.930 . S
H1121 C1136 0.960 . S
H1122 C1136 0.960 . S
H1123 C1136 0.960 . S
C1124 H1116 0.929 . S
C1124 C1125 1.377 . S
C1124 C1126 1.384 . S
C1125 C1124 1.377 . S
C1125 C1131 1.390 . S
C1126 H1117 0.930 . S
C1126 C1124 1.384 . S
C1126 C1127 1.372 . S
C1127 C1126 1.372 . S
C1127 C1128 1.400 . S
C1127 C1132 1.490 . S
C1128 H1118 0.930 . S
C1128 C1127 1.400 . S
C1128 C1131 1.386 . S
H1129 C1145 0.930 . S
H1130 C1146 0.931 . S
C1131 H1119 0.929 . S
C1131 C1125 1.390 . S
C1131 C1128 1.386 . S
C1132 C1127 1.490 . S
C1132 C1134 1.395 . S
C1132 C1135 1.403 . S
H1133 C1139 0.930 . S
C1134 H1120 0.930 . S
C1134 C1132 1.395 . S
C1134 C1137 1.403 . S
C1135 C1132 1.403 . S
C1135 C1136 1.524 . S
C1135 C1139 1.400 . S
C1136 H1121 0.960 . S
C1136 H1122 0.960 . S
C1136 H1123 0.960 . S
C1136 C1135 1.524 . S
C1137 C1134 1.403 . S
C1137 C1138 1.392 . S
C1137 C1141 1.495 . S
C1138 C1137 1.392 . S
C1138 C1139 1.385 . S
C1138 C1140 1.478 . S
C1139 H1133 0.930 . S
C1139 C1135 1.400 . S
C1139 C1138 1.385 . S
C1140 C1138 1.478 . S
C1140 C1142 1.381 . S
C1140 C1146 1.383 . S
C1141 C1137 1.495 . S
C1141 H1147 0.959 . S
C1141 H1148 0.961 . S
C1141 H1149 0.960 . S
C1142 C1140 1.381 . S
C1142 C1143 1.394 . S
C1142 H1150 0.930 . S
C1143 C1142 1.394 . S
C1143 C1144 1.383 . S
C1143 H1151 0.929 . S
C1144 C1143 1.383 . S
C1144 C1145 1.377 . S
C1145 H1129 0.930 . S
C1145 C1144 1.377 . S
C1145 C1146 1.379 . S
C1146 H1130 0.931 . S
C1146 C1140 1.383 . S
C1146 C1145 1.379 . S
H1147 C1141 0.959 . S
H1148 C1141 0.961 . S
H1149 C1141 0.960 . S
H1150 C1142 0.930 . S
H1151 C1143 0.929 . S
H1152 C1160 0.929 . S
H1153 C1162 0.930 . S
H1154 C1164 0.930 . S
H1155 C1167 0.929 . S
H1156 C1170 0.930 . S
H1157 C1172 0.960 . S
H1158 C1172 0.960 . S
H1159 C1172 0.960 . S
C1160 H1152 0.929 . S
C1160 C1161 1.377 . S
C1160 C1162 1.384 . S
C1161 C1160 1.377 . S
C1161 C1167 1.390 . S
C1162 H1153 0.930 . S
C1162 C1160 1.384 . S
C1162 C1163 1.372 . S
C1163 C1162 1.372 . S
C1163 C1164 1.400 . S
C1163 C1168 1.490 . S
C1164 H1154 0.930 . S
C1164 C1163 1.400 . S
C1164 C1167 1.386 . S
H1165 C1181 0.930 . S
H1166 C1182 0.931 . S
C1167 H1155 0.929 . S
C1167 C1161 1.390 . S
C1167 C1164 1.386 . S
C1168 C1163 1.490 . S
C1168 C1170 1.395 . S
C1168 C1171 1.403 . S
H1169 C1175 0.930 . S
C1170 H1156 0.930 . S
C1170 C1168 1.395 . S
C1170 C1173 1.403 . S
C1171 C1168 1.403 . S
C1171 C1172 1.524 . S
C1171 C1175 1.400 . S
C1172 H1157 0.960 . S
C1172 H1158 0.960 . S
C1172 H1159 0.960 . S
C1172 C1171 1.524 . S
C1173 C1170 1.403 . S
C1173 C1174 1.392 . S
C1173 C1177 1.495 . S
C1174 C1173 1.392 . S
C1174 C1175 1.385 . S
C1174 C1176 1.478 . S
C1175 H1169 0.930 . S
C1175 C1171 1.400 . S
C1175 C1174 1.385 . S
C1176 C1174 1.478 . S
C1176 C1178 1.381 . S
C1176 C1182 1.383 . S
C1177 C1173 1.495 . S
C1177 H1183 0.959 . S
C1177 H1184 0.961 . S
C1177 H1185 0.960 . S
C1178 C1176 1.381 . S
C1178 C1179 1.394 . S
C1178 H1186 0.930 . S
C1179 C1178 1.394 . S
C1179 C1180 1.383 . S
C1179 H1187 0.929 . S
C1180 C1179 1.383 . S
C1180 C1181 1.377 . S
C1181 H1165 0.930 . S
C1181 C1180 1.377 . S
C1181 C1182 1.379 . S
C1182 H1166 0.931 . S
C1182 C1176 1.383 . S
C1182 C1181 1.379 . S
H1183 C1177 0.959 . S
H1184 C1177 0.961 . S
H1185 C1177 0.960 . S
H1186 C1178 0.930 . S
H1187 C1179 0.929 . S
H1188 C1196 0.929 . S
H1189 C1198 0.930 . S
H1190 C1200 0.930 . S
H1191 C1203 0.929 . S
H1192 C1206 0.930 . S
H1193 C1208 0.960 . S
H1194 C1208 0.960 . S
H1195 C1208 0.960 . S
C1196 H1188 0.929 . S
C1196 C1197 1.377 . S
C1196 C1198 1.384 . S
C1197 C1196 1.377 . S
C1197 C1203 1.390 1_556 S
C1198 H1189 0.930 . S
C1198 C1196 1.384 . S
C1198 C1199 1.372 . S
C1199 C1198 1.372 . S
C1199 C1200 1.400 . S
C1199 C1204 1.490 . S
C1200 H1190 0.930 . S
C1200 C1199 1.400 . S
C1200 C1203 1.386 1_556 S
H1201 C1217 0.930 . S
H1202 C1218 0.931 . S
C1203 H1191 0.929 . S
C1203 C1197 1.390 1_554 S
C1203 C1200 1.386 1_554 S
C1204 C1199 1.490 . S
C1204 C1206 1.395 . S
C1204 C1207 1.403 . S
H1205 C1211 0.930 . S
C1206 H1192 0.930 . S
C1206 C1204 1.395 . S
C1206 C1209 1.403 . S
C1207 C1204 1.403 . S
C1207 C1208 1.524 1_556 S
C1207 C1211 1.400 . S
C1208 H1193 0.960 . S
C1208 H1194 0.960 . S
C1208 H1195 0.960 . S
C1208 C1207 1.524 1_554 S
C1209 C1206 1.403 . S
C1209 C1210 1.392 . S
C1209 C1213 1.495 . S
C1210 C1209 1.392 . S
C1210 C1211 1.385 . S
C1210 C1212 1.478 . S
C1211 H1205 0.930 . S
C1211 C1207 1.400 . S
C1211 C1210 1.385 . S
C1212 C1210 1.478 . S
C1212 C1214 1.381 . S
C1212 C1218 1.383 . S
C1213 C1209 1.495 . S
C1213 H1219 0.959 . S
C1213 H1220 0.961 . S
C1213 H1221 0.960 . S
C1214 C1212 1.381 . S
C1214 C1215 1.394 . S
C1214 H1222 0.930 . S
C1215 C1214 1.394 . S
C1215 C1216 1.383 . S
C1215 H1223 0.929 . S
C1216 C1215 1.383 . S
C1216 C1217 1.377 . S
C1217 H1201 0.930 . S
C1217 C1216 1.377 . S
C1217 C1218 1.379 . S
C1218 H1202 0.931 . S
C1218 C1212 1.383 . S
C1218 C1217 1.379 . S
H1219 C1213 0.959 . S
H1220 C1213 0.961 . S
H1221 C1213 0.960 . S
H1222 C1214 0.930 . S
H1223 C1215 0.929 . S
H1224 C1232 0.929 . S
H1225 C1234 0.930 . S
H1226 C1236 0.930 . S
H1227 C1239 0.929 . S
H1228 C1242 0.930 . S
H1229 C1244 0.960 . S
H1230 C1244 0.960 . S
H1231 C1244 0.960 1_554 S
C1232 H1224 0.929 . S
C1232 C1233 1.377 . S
C1232 C1234 1.384 . S
C1233 C1232 1.377 . S
C1233 C1239 1.390 . S
C1234 H1225 0.930 . S
C1234 C1232 1.384 . S
C1234 C1235 1.372 . S
C1235 C1234 1.372 . S
C1235 C1236 1.400 . S
C1235 C1240 1.490 . S
C1236 H1226 0.930 . S
C1236 C1235 1.400 . S
C1236 C1239 1.386 . S
H1237 C1253 0.929 . S
H1238 C1254 0.931 . S
C1239 H1227 0.929 . S
C1239 C1233 1.390 . S
C1239 C1236 1.386 . S
C1240 C1235 1.490 . S
C1240 C1242 1.395 . S
C1240 C1243 1.403 . S
H1241 C1247 0.930 1_556 S
C1242 H1228 0.930 . S
C1242 C1240 1.395 . S
C1242 C1245 1.403 . S
C1243 C1240 1.403 . S
C1243 C1244 1.524 1_554 S
C1243 C1247 1.400 . S
C1244 H1229 0.960 . S
C1244 H1230 0.960 . S
C1244 H1231 0.960 1_556 S
C1244 C1243 1.524 1_556 S
C1245 C1242 1.403 . S
C1245 C1246 1.392 . S
C1245 C1249 1.495 . S
C1246 C1245 1.392 . S
C1246 C1247 1.385 . S
C1246 C1248 1.478 . S
C1247 H1241 0.930 1_554 S
C1247 C1243 1.400 . S
C1247 C1246 1.385 . S
C1248 C1246 1.478 . S
C1248 C1250 1.381 . S
C1248 C1254 1.383 . S
C1249 C1245 1.495 . S
C1249 H1255 0.959 . S
C1249 H1256 0.961 . S
C1249 H1257 0.960 . S
C1250 C1248 1.381 . S
C1250 C1251 1.394 . S
C1250 H1258 0.930 . S
C1251 C1250 1.394 . S
C1251 C1252 1.383 . S
C1251 H1259 0.929 . S
C1252 C1251 1.383 . S
C1252 C1253 1.377 . S
C1253 H1237 0.929 . S
C1253 C1252 1.377 . S
C1253 C1254 1.379 . S
C1254 H1238 0.931 . S
C1254 C1248 1.383 . S
C1254 C1253 1.379 . S
H1255 C1249 0.959 . S
H1256 C1249 0.961 . S
H1257 C1249 0.960 . S
H1258 C1250 0.930 . S
H1259 C1251 0.929 . S
H1260 C1268 0.929 1_556 S
H1261 C1270 0.930 . S
H1262 C1272 0.930 . S
H1263 C1275 0.929 . S
H1264 C1278 0.930 . S
H1265 C1280 0.960 1_565 S
H1266 C1280 0.960 . S
H1267 C1280 0.960 . S
C1268 H1260 0.929 1_554 S
C1268 C1269 1.377 . S
C1268 C1270 1.384 1_554 S
C1269 C1268 1.377 . S
C1269 C1275 1.390 . S
C1270 H1261 0.930 . S
C1270 C1268 1.384 1_556 S
C1270 C1271 1.372 1_556 S
C1271 C1270 1.372 1_554 S
C1271 C1272 1.400 . S
C1271 C1276 1.490 . S
C1272 H1262 0.930 . S
C1272 C1271 1.400 . S
C1272 C1275 1.386 . S
H1273 C1289 0.930 . S
H1274 C1290 0.931 1_554 S
C1275 H1263 0.929 . S
C1275 C1269 1.390 . S
C1275 C1272 1.386 . S
C1276 C1271 1.490 . S
C1276 C1278 1.395 1_554 S
C1276 C1279 1.403 . S
H1277 C1283 0.930 . S
C1278 H1264 0.930 . S
C1278 C1276 1.395 1_556 S
C1278 C1281 1.403 1_545 S
C1279 C1276 1.403 . S
C1279 C1280 1.524 . S
C1279 C1283 1.400 1_545 S
C1280 H1265 0.960 1_545 S
C1280 H1266 0.960 . S
C1280 H1267 0.960 . S
C1280 C1279 1.524 . S
C1281 C1278 1.403 1_565 S
C1281 C1282 1.392 . S
C1281 C1285 1.495 . S
C1282 C1281 1.392 . S
C1282 C1283 1.385 1_556 S
C1282 C1284 1.478 . S
C1283 H1277 0.930 . S
C1283 C1279 1.400 1_565 S
C1283 C1282 1.385 1_554 S
C1284 C1282 1.478 . S
C1284 C1286 1.381 . S
C1284 C1290 1.383 . S
C1285 C1281 1.495 . S
C1285 H1291 0.959 1_565 S
C1285 H1292 0.961 . S
C1285 H1293 0.960 . S
C1286 C1284 1.381 . S
C1286 C1287 1.394 . S
C1286 H1294 0.930 . S
C1287 C1286 1.394 . S
C1287 C1288 1.383 . S
C1287 H1295 0.929 . S
C1288 C1287 1.383 . S
C1288 C1289 1.377 . S
C1289 H1273 0.930 . S
C1289 C1288 1.377 . S
C1289 C1290 1.379 . S
C1290 H1274 0.931 1_556 S
C1290 C1284 1.383 . S
C1290 C1289 1.379 . S
H1291 C1285 0.959 1_545 S
H1292 C1285 0.961 . S
H1293 C1285 0.960 . S
H1294 C1286 0.930 . S
H1295 C1287 0.929 . S
H1296 C1304 0.929 . S
H1297 C1306 0.930 . S
H1298 C1308 0.930 . S
H1299 C1311 0.929 . S
H1300 C1314 0.930 . S
H1301 C1316 0.960 . S
H1302 C1316 0.960 . S
H1303 C1316 0.960 . S
C1304 H1296 0.929 . S
C1304 C1305 1.377 . S
C1304 C1306 1.384 . S
C1305 C1304 1.377 . S
C1305 C1311 1.390 . S
C1306 H1297 0.930 . S
C1306 C1304 1.384 . S
C1306 C1307 1.372 . S
C1307 C1306 1.372 . S
C1307 C1308 1.400 . S
C1307 C1312 1.490 . S
C1308 H1298 0.930 . S
C1308 C1307 1.400 . S
C1308 C1311 1.386 . S
H1309 C1325 0.930 . S
H1310 C1326 0.931 . S
C1311 H1299 0.929 . S
C1311 C1305 1.390 . S
C1311 C1308 1.386 . S
C1312 C1307 1.490 . S
C1312 C1314 1.395 . S
C1312 C1315 1.403 . S
H1313 C1319 0.930 . S
C1314 H1300 0.930 . S
C1314 C1312 1.395 . S
C1314 C1317 1.403 . S
C1315 C1312 1.403 . S
C1315 C1316 1.524 . S
C1315 C1319 1.400 . S
C1316 H1301 0.960 . S
C1316 H1302 0.960 . S
C1316 H1303 0.960 . S
C1316 C1315 1.524 . S
C1317 C1314 1.403 . S
C1317 C1318 1.392 . S
C1317 C1321 1.495 . S
C1318 C1317 1.392 . S
C1318 C1319 1.385 . S
C1318 C1320 1.478 . S
C1319 H1313 0.930 . S
C1319 C1315 1.400 . S
C1319 C1318 1.385 . S
C1320 C1318 1.478 . S
C1320 C1322 1.381 . S
C1320 C1326 1.383 . S
C1321 C1317 1.495 . S
C1321 H1327 0.959 . S
C1321 H1328 0.961 . S
C1321 H1329 0.960 . S
C1322 C1320 1.381 . S
C1322 C1323 1.394 . S
C1322 H1330 0.930 . S
C1323 C1322 1.394 . S
C1323 C1324 1.383 . S
C1323 H1331 0.929 . S
C1324 C1323 1.383 . S
C1324 C1325 1.377 . S
C1325 H1309 0.930 . S
C1325 C1324 1.377 . S
C1325 C1326 1.379 . S
C1326 H1310 0.931 . S
C1326 C1320 1.383 . S
C1326 C1325 1.379 . S
H1327 C1321 0.959 . S
H1328 C1321 0.961 . S
H1329 C1321 0.960 . S
H1330 C1322 0.930 . S
H1331 C1323 0.929 . S
H1332 C1340 0.929 . S
H1333 C1342 0.930 . S
H1334 C1344 0.930 . S
H1335 C1347 0.929 . S
H1336 C1350 0.930 . S
H1337 C1352 0.960 . S
H1338 C1352 0.960 . S
H1339 C1352 0.960 . S
C1340 H1332 0.929 . S
C1340 C1341 1.377 . S
C1340 C1342 1.384 . S
C1341 C1340 1.377 . S
C1341 C1347 1.390 . S
C1342 H1333 0.930 . S
C1342 C1340 1.384 . S
C1342 C1343 1.372 . S
C1343 C1342 1.372 . S
C1343 C1344 1.400 . S
C1343 C1348 1.490 . S
C1344 H1334 0.930 . S
C1344 C1343 1.400 . S
C1344 C1347 1.386 . S
H1345 C1361 0.930 . S
H1346 C1362 0.931 . S
C1347 H1335 0.929 . S
C1347 C1341 1.390 . S
C1347 C1344 1.386 . S
C1348 C1343 1.490 . S
C1348 C1350 1.395 . S
C1348 C1351 1.403 . S
H1349 C1355 0.930 . S
C1350 H1336 0.930 . S
C1350 C1348 1.395 . S
C1350 C1353 1.403 1_455 S
C1351 C1348 1.403 . S
C1351 C1352 1.524 . S
C1351 C1355 1.400 1_455 S
C1352 H1337 0.960 . S
C1352 H1338 0.960 . S
C1352 H1339 0.960 . S
C1352 C1351 1.524 . S
C1353 C1350 1.403 1_655 S
C1353 C1354 1.392 . S
C1353 C1357 1.495 . S
C1354 C1353 1.392 . S
C1354 C1355 1.385 . S
C1354 C1356 1.478 . S
C1355 H1349 0.930 . S
C1355 C1351 1.400 1_655 S
C1355 C1354 1.385 . S
C1356 C1354 1.478 . S
C1356 C1358 1.381 . S
C1356 C1362 1.383 . S
C1357 C1353 1.495 . S
C1357 H1363 0.959 . S
C1357 H1364 0.961 . S
C1357 H1365 0.960 . S
C1358 C1356 1.381 . S
C1358 C1359 1.394 . S
C1358 H1366 0.930 . S
C1359 C1358 1.394 . S
C1359 C1360 1.383 . S
C1359 H1367 0.929 . S
C1360 C1359 1.383 . S
C1360 C1361 1.377 . S
C1361 H1345 0.930 . S
C1361 C1360 1.377 . S
C1361 C1362 1.379 . S
C1362 H1346 0.931 . S
C1362 C1356 1.383 . S
C1362 C1361 1.379 . S
H1363 C1357 0.959 . S
H1364 C1357 0.961 . S
H1365 C1357 0.960 . S
H1366 C1358 0.930 . S
H1367 C1359 0.929 . S
H1368 C1376 0.929 . S
H1369 C1378 0.930 . S
H1370 C1380 0.930 . S
H1371 C1383 0.929 . S
H1372 C1386 0.930 . S
H1373 C1388 0.960 . S
H1374 C1388 0.960 . S
H1375 C1388 0.960 . S
C1376 H1368 0.929 . S
C1376 C1377 1.377 . S
C1376 C1378 1.384 . S
C1377 C1376 1.377 . S
C1377 C1383 1.390 . S
C1378 H1369 0.930 . S
C1378 C1376 1.384 . S
C1378 C1379 1.372 . S
C1379 C1378 1.372 . S
C1379 C1380 1.400 . S
C1379 C1384 1.490 . S
C1380 H1370 0.930 . S
C1380 C1379 1.400 . S
C1380 C1383 1.386 . S
H1381 C1397 0.930 . S
H1382 C1398 0.931 . S
C1383 H1371 0.929 . S
C1383 C1377 1.390 . S
C1383 C1380 1.386 . S
C1384 C1379 1.490 . S
C1384 C1386 1.395 . S
C1384 C1387 1.403 . S
H1385 C1391 0.930 . S
C1386 H1372 0.930 . S
C1386 C1384 1.395 . S
C1386 C1389 1.403 1_565 S
C1387 C1384 1.403 . S
C1387 C1388 1.524 . S
C1387 C1391 1.400 1_565 S
C1388 H1373 0.960 . S
C1388 H1374 0.960 . S
C1388 H1375 0.960 . S
C1388 C1387 1.524 . S
C1389 C1386 1.403 1_545 S
C1389 C1390 1.392 . S
C1389 C1393 1.495 . S
C1390 C1389 1.392 . S
C1390 C1391 1.385 . S
C1390 C1392 1.478 . S
C1391 H1385 0.930 . S
C1391 C1387 1.400 1_545 S
C1391 C1390 1.385 . S
C1392 C1390 1.478 . S
C1392 C1394 1.381 . S
C1392 C1398 1.383 . S
C1393 C1389 1.495 . S
C1393 H1399 0.959 . S
C1393 H1400 0.961 . S
C1393 H1401 0.960 . S
C1394 C1392 1.381 . S
C1394 C1395 1.394 . S
C1394 H1402 0.930 . S
C1395 C1394 1.394 . S
C1395 C1396 1.383 . S
C1395 H1403 0.929 . S
C1396 C1395 1.383 . S
C1396 C1397 1.377 . S
C1397 H1381 0.930 . S
C1397 C1396 1.377 . S
C1397 C1398 1.379 . S
C1398 H1382 0.931 . S
C1398 C1392 1.383 . S
C1398 C1397 1.379 . S
H1399 C1393 0.959 . S
H1400 C1393 0.961 . S
H1401 C1393 0.960 . S
H1402 C1394 0.930 . S
H1403 C1395 0.929 . S
H1404 C1412 0.929 . S
H1405 C1414 0.930 . S
H1406 C1416 0.930 . S
H1407 C1419 0.929 . S
H1408 C1422 0.930 . S
H1409 C1424 0.960 . S
H1410 C1424 0.960 . S
H1411 C1424 0.960 . S
C1412 H1404 0.929 . S
C1412 C1413 1.377 . S
C1412 C1414 1.384 . S
C1413 C1412 1.377 . S
C1413 C1419 1.390 . S
C1414 H1405 0.930 . S
C1414 C1412 1.384 . S
C1414 C1415 1.372 . S
C1415 C1414 1.372 . S
C1415 C1416 1.400 . S
C1415 C1420 1.490 . S
C1416 H1406 0.930 . S
C1416 C1415 1.400 . S
C1416 C1419 1.386 . S
H1417 C1433 0.930 . S
H1418 C1434 0.931 . S
C1419 H1407 0.929 . S
C1419 C1413 1.390 . S
C1419 C1416 1.386 . S
C1420 C1415 1.490 . S
C1420 C1422 1.395 . S
C1420 C1423 1.403 . S
H1421 C1427 0.930 . S
C1422 H1408 0.930 . S
C1422 C1420 1.395 . S
C1422 C1425 1.403 . S
C1423 C1420 1.403 . S
C1423 C1424 1.524 . S
C1423 C1427 1.400 . S
C1424 H1409 0.960 . S
C1424 H1410 0.960 . S
C1424 H1411 0.960 . S
C1424 C1423 1.524 . S
C1425 C1422 1.403 . S
C1425 C1426 1.392 . S
C1425 C1429 1.495 . S
C1426 C1425 1.392 . S
C1426 C1427 1.385 . S
C1426 C1428 1.478 . S
C1427 H1421 0.930 . S
C1427 C1423 1.400 . S
C1427 C1426 1.385 . S
C1428 C1426 1.478 . S
C1428 C1430 1.381 . S
C1428 C1434 1.383 . S
C1429 C1425 1.495 . S
C1429 H1435 0.959 . S
C1429 H1436 0.961 . S
C1429 H1437 0.960 . S
C1430 C1428 1.381 . S
C1430 C1431 1.394 . S
C1430 H1438 0.930 . S
C1431 C1430 1.394 . S
C1431 C1432 1.383 . S
C1431 H1439 0.929 . S
C1432 C1431 1.383 . S
C1432 C1433 1.377 . S
C1433 H1417 0.930 . S
C1433 C1432 1.377 . S
C1433 C1434 1.379 . S
C1434 H1418 0.931 . S
C1434 C1428 1.383 . S
C1434 C1433 1.379 . S
H1435 C1429 0.959 . S
H1436 C1429 0.961 . S
H1437 C1429 0.960 . S
H1438 C1430 0.930 . S
H1439 C1431 0.929 . S
H1440 C1448 0.929 . S
H1441 C1450 0.930 . S
H1442 C1452 0.930 . S
H1443 C1455 0.929 . S
H1444 C1458 0.930 . S
H1445 C1460 0.960 . S
H1446 C1460 0.960 . S
H1447 C1460 0.960 . S
C1448 H1440 0.929 . S
C1448 C1449 1.377 . S
C1448 C1450 1.384 . S
C1449 C1448 1.377 . S
C1449 C1455 1.390 . S
C1450 H1441 0.930 . S
C1450 C1448 1.384 . S
C1450 C1451 1.372 . S
C1451 C1450 1.372 . S
C1451 C1452 1.400 . S
C1451 C1456 1.490 . S
C1452 H1442 0.930 . S
C1452 C1451 1.400 . S
C1452 C1455 1.386 . S
H1453 C1469 0.930 . S
H1454 C1470 0.931 . S
C1455 H1443 0.929 . S
C1455 C1449 1.390 . S
C1455 C1452 1.386 . S
C1456 C1451 1.490 . S
C1456 C1458 1.395 . S
C1456 C1459 1.403 . S
H1457 C1463 0.930 . S
C1458 H1444 0.930 . S
C1458 C1456 1.395 . S
C1458 C1461 1.403 1_455 S
C1459 C1456 1.403 . S
C1459 C1460 1.524 . S
C1459 C1463 1.400 1_455 S
C1460 H1445 0.960 . S
C1460 H1446 0.960 . S
C1460 H1447 0.960 . S
C1460 C1459 1.524 . S
C1461 C1458 1.403 1_655 S
C1461 C1462 1.392 . S
C1461 C1465 1.495 . S
C1462 C1461 1.392 . S
C1462 C1463 1.385 . S
C1462 C1464 1.478 . S
C1463 H1457 0.930 . S
C1463 C1459 1.400 1_655 S
C1463 C1462 1.385 . S
C1464 C1462 1.478 . S
C1464 C1466 1.381 . S
C1464 C1470 1.383 . S
C1465 C1461 1.495 . S
C1465 H1471 0.959 . S
C1465 H1472 0.961 . S
C1465 H1473 0.960 . S
C1466 C1464 1.381 . S
C1466 C1467 1.394 . S
C1466 H1474 0.930 . S
C1467 C1466 1.394 . S
C1467 C1468 1.383 . S
C1467 H1475 0.929 . S
C1468 C1467 1.383 . S
C1468 C1469 1.377 . S
C1469 H1453 0.930 . S
C1469 C1468 1.377 . S
C1469 C1470 1.379 . S
C1470 H1454 0.931 . S
C1470 C1464 1.383 . S
C1470 C1469 1.379 . S
H1471 C1465 0.959 . S
H1472 C1465 0.961 . S
H1473 C1465 0.960 . S
H1474 C1466 0.930 . S
H1475 C1467 0.929 . S
C405 C271 1.074 . S
C424 C7 1.057 . S
C441 C304 1.070 . S
C460 C40 1.070 . S
C477 C337 1.069 . S
C496 C73 1.083 . S
C513 C370 1.074 . S
C532 C106 1.057 . S
C549 C139 1.069 . S
C568 C205 1.076 . S
C585 C238 1.070 . S
C604 C172 1.082 . S
C621 N13 1.243 . S
C640 N2 1.213 . S
C657 N35 1.247 . S
C676 N46 1.271 . S
C693 N68 1.245 . S
C712 N79 1.269 . S
C729 N101 1.238 . S
C748 N112 1.240 . S
C765 N134 1.238 1_554 S
C784 N145 1.225 . S
C801 N167 1.250 . S
C820 N178 1.261 . S
C837 N211 1.247 . S
C856 N200 1.219 . S
C873 N233 1.250 . S
C892 N244 1.248 . S
C909 N277 1.242 . S
C928 N266 1.251 . S
C945 N310 1.252 . S
C964 N299 1.251 1_556 S
C981 N343 1.240 . S
C1000 N332 1.234 . S
C1017 N365 1.239 . S
C1036 N376 1.218 . S
C1053 C21 1.559 . S
C1072 C351 1.549 . S
C1089 C54 1.563 . S
C1108 C384 1.561 . S
C1125 C87 1.564 . S
C1144 C219 1.566 . S
C1161 C252 1.564 . S
C1180 C120 1.564 . S
C1197 C285 1.564 1_556 S
C1216 C153 1.567 . S
C1233 C318 1.559 . S
C1252 C186 1.548 1_554 S
C1269 C18 1.257 . S
C1288 C249 1.242 . S
C1305 C282 1.257 . S
C1324 C51 1.240 . S
C1341 C315 1.250 . S
C1360 C84 1.236 . S
C1377 C117 1.250 . S
C1396 C348 1.262 . S
C1413 C381 1.254 . S
C1432 C150 1.273 . S
C1449 C183 1.250 . S
C1468 C216 1.263 . S
