# Generated by pormake.
# Topology uot, (4)-cn, num edge types: 1
# Building blocks:
#     Node 0, Type 0, BuildingBlock: AZAVOO_clean_sbu_0, # of connection points: 4
#     Node 1, Type 0, BuildingBlock: AZAVOO_clean_sbu_0, # of connection points: 4
#     Node 2, Type 0, BuildingBlock: AZAVOO_clean_sbu_0, # of connection points: 4
#     Node 3, Type 0, BuildingBlock: AZAVOO_clean_sbu_0, # of connection points: 4
#     Node 4, Type 0, BuildingBlock: AZAVOO_clean_sbu_0, # of connection points: 4
#     Node 5, Type 0, BuildingBlock: AZAVOO_clean_sbu_0, # of connection points: 4
#     Node 6, Type 0, BuildingBlock: AZAVOO_clean_sbu_0, # of connection points: 4
#     Node 7, Type 0, BuildingBlock: AZAVOO_clean_sbu_0, # of connection points: 4
#     Node 8, Type 0, BuildingBlock: AZAVOO_clean_sbu_0, # of connection points: 4
#     Node 9, Type 0, BuildingBlock: AZAVOO_clean_sbu_0, # of connection points: 4
#     Node 10, Type 0, BuildingBlock: AZAVOO_clean_sbu_0, # of connection points: 4
#     Node 11, Type 0, BuildingBlock: AZAVOO_clean_sbu_0, # of connection points: 4
#     Node 12, Type 0, BuildingBlock: AZAVOO_clean_sbu_0, # of connection points: 4
#     Node 13, Type 0, BuildingBlock: AZAVOO_clean_sbu_0, # of connection points: 4
#     Node 14, Type 0, BuildingBlock: AZAVOO_clean_sbu_0, # of connection points: 4
#     Node 15, Type 0, BuildingBlock: AZAVOO_clean_sbu_0, # of connection points: 4
#     Edge 16, Type (0, 0), BuildingBlock: XUDNAN_clean_linker_2, # of connection points: 2
#     Edge 17, Type (0, 0), BuildingBlock: XUDNAN_clean_linker_2, # of connection points: 2
#     Edge 18, Type (0, 0), BuildingBlock: XUDNAN_clean_linker_2, # of connection points: 2
#     Edge 19, Type (0, 0), BuildingBlock: XUDNAN_clean_linker_2, # of connection points: 2
#     Edge 20, Type (0, 0), BuildingBlock: XUDNAN_clean_linker_2, # of connection points: 2
#     Edge 21, Type (0, 0), BuildingBlock: XUDNAN_clean_linker_2, # of connection points: 2
#     Edge 22, Type (0, 0), BuildingBlock: XUDNAN_clean_linker_2, # of connection points: 2
#     Edge 23, Type (0, 0), BuildingBlock: XUDNAN_clean_linker_2, # of connection points: 2
#     Edge 24, Type (0, 0), BuildingBlock: XUDNAN_clean_linker_2, # of connection points: 2
#     Edge 25, Type (0, 0), BuildingBlock: XUDNAN_clean_linker_2, # of connection points: 2
#     Edge 26, Type (0, 0), BuildingBlock: XUDNAN_clean_linker_2, # of connection points: 2
#     Edge 27, Type (0, 0), BuildingBlock: XUDNAN_clean_linker_2, # of connection points: 2
#     Edge 28, Type (0, 0), BuildingBlock: XUDNAN_clean_linker_2, # of connection points: 2
#     Edge 29, Type (0, 0), BuildingBlock: XUDNAN_clean_linker_2, # of connection points: 2
#     Edge 30, Type (0, 0), BuildingBlock: XUDNAN_clean_linker_2, # of connection points: 2
#     Edge 31, Type (0, 0), BuildingBlock: XUDNAN_clean_linker_2, # of connection points: 2
#     Edge 32, Type (0, 0), BuildingBlock: XUDNAN_clean_linker_2, # of connection points: 2
#     Edge 33, Type (0, 0), BuildingBlock: XUDNAN_clean_linker_2, # of connection points: 2
#     Edge 34, Type (0, 0), BuildingBlock: XUDNAN_clean_linker_2, # of connection points: 2
#     Edge 35, Type (0, 0), BuildingBlock: XUDNAN_clean_linker_2, # of connection points: 2
#     Edge 36, Type (0, 0), BuildingBlock: XUDNAN_clean_linker_2, # of connection points: 2
#     Edge 37, Type (0, 0), BuildingBlock: XUDNAN_clean_linker_2, # of connection points: 2
#     Edge 38, Type (0, 0), BuildingBlock: XUDNAN_clean_linker_2, # of connection points: 2
#     Edge 39, Type (0, 0), BuildingBlock: XUDNAN_clean_linker_2, # of connection points: 2
#     Edge 40, Type (0, 0), BuildingBlock: XUDNAN_clean_linker_2, # of connection points: 2
#     Edge 41, Type (0, 0), BuildingBlock: XUDNAN_clean_linker_2, # of connection points: 2
#     Edge 42, Type (0, 0), BuildingBlock: XUDNAN_clean_linker_2, # of connection points: 2
#     Edge 43, Type (0, 0), BuildingBlock: XUDNAN_clean_linker_2, # of connection points: 2
#     Edge 44, Type (0, 0), BuildingBlock: XUDNAN_clean_linker_2, # of connection points: 2
#     Edge 45, Type (0, 0), BuildingBlock: XUDNAN_clean_linker_2, # of connection points: 2
#     Edge 46, Type (0, 0), BuildingBlock: XUDNAN_clean_linker_2, # of connection points: 2
#     Edge 47, Type (0, 0), BuildingBlock: XUDNAN_clean_linker_2, # of connection points: 2
# Relax obj value: 0.217
# Max RMSD: 0.317
# Mean RMSD: 0.231
data_MOF--net-uot--node1-AZAVOO_clean_sbu_0--edge1-XUDNAN_clean_linker_2
_symmetry_space_group_name_H-M    P1
_symmetry_Int_Tables_number       1
_symmetry_cell_setting            triclinic
loop_
_symmetry_equiv_pos_as_xyz
'x, y, z'
_cell_length_a     50.068383
_cell_length_b     35.353444
_cell_length_c     40.98876
_cell_angle_alpha  89.852256
_cell_angle_beta   89.963423
_cell_angle_gamma 90.157808
loop_
_atom_site_label
_atom_site_type_symbol
_atom_site_fract_x
_atom_site_fract_y
_atom_site_fract_z
_atom_type_partial_charge
Mg0 Mg 0.18138 0.40779 0.31952 0.0
O1 O 0.16301 0.45908 0.29443 0.0
O2 O 0.18806 0.51031 0.30172 0.0
Mg3 Mg 0.22321 0.49056 0.33355 0.0
C4 C 0.16751 0.49413 0.28979 0.0
C5 C 0.14267 0.34184 0.30685 0.0
O6 O 0.15672 0.32715 0.33074 0.0
O7 O 0.21345 0.40191 0.28042 0.0
O8 O 0.23919 0.45173 0.29315 0.0
O9 O 0.16082 0.42132 0.36581 0.0
O10 O 0.20169 0.44065 0.35337 0.0
C11 C 0.23445 0.42205 0.27633 0.0
C12 C 0.18244 0.43896 0.37416 0.0
O13 O 0.15022 0.37272 0.29392 0.0
Mg14 Mg 0.43876 0.74639 0.65939 0.0
O15 O 0.41866 0.80448 0.66757 0.0
O16 O 0.44563 0.84851 0.64641 0.0
Mg17 Mg 0.48387 0.82049 0.62806 0.0
C18 C 0.42402 0.83897 0.66078 0.0
C19 C 0.39995 0.69283 0.6956 0.0
O20 O 0.42276 0.68619 0.71034 0.0
O21 O 0.43116 0.74626 0.60369 0.0
O22 O 0.46152 0.78939 0.58801 0.0
O23 O 0.46218 0.75132 0.70666 0.0
O24 O 0.47626 0.77077 0.65863 0.0
C25 C 0.44379 0.76456 0.58142 0.0
C26 C 0.48087 0.76647 0.68908 0.0
O27 O 0.39944 0.71675 0.67236 0.0
Mg28 Mg 0.81423 0.60762 0.33769 0.0
O29 O 0.82335 0.54992 0.31332 0.0
O30 O 0.78839 0.51251 0.32397 0.0
Mg31 Mg 0.75828 0.54343 0.35618 0.0
C32 C 0.81112 0.51826 0.31069 0.0
C33 C 0.86552 0.65222 0.33122 0.0
O34 O 0.86033 0.65104 0.36261 0.0
O35 O 0.78282 0.62301 0.2986 0.0
O36 O 0.7494 0.58505 0.31518 0.0
O37 O 0.83172 0.58808 0.38566 0.0
O38 O 0.78944 0.58249 0.3718 0.0
C39 C 0.75877 0.61079 0.2965 0.0
C40 C 0.80772 0.57766 0.39321 0.0
O41 O 0.84933 0.63623 0.31161 0.0
Mg42 Mg 0.51303 0.24054 0.70384 0.0
O43 O 0.53803 0.18605 0.70257 0.0
O44 O 0.51176 0.13827 0.68694 0.0
Mg45 Mg 0.46945 0.16125 0.68009 0.0
C46 C 0.53445 0.15118 0.69579 0.0
C47 C 0.56875 0.26646 0.72845 0.0
O48 O 0.56383 0.23767 0.74789 0.0
O49 O 0.51083 0.24467 0.64754 0.0
O50 O 0.48247 0.19725 0.63675 0.0
O51 O 0.50099 0.22886 0.75615 0.0
O52 O 0.47923 0.20841 0.71281 0.0
C53 C 0.49674 0.22526 0.62753 0.0
C54 C 0.48161 0.20915 0.74397 0.0
O55 O 0.55148 0.27552 0.70704 0.0
Mg56 Mg 0.18145 0.55305 0.64803 0.0
O57 O 0.16242 0.51171 0.68434 0.0
O58 O 0.18667 0.45926 0.68836 0.0
Mg59 Mg 0.22306 0.46894 0.65505 0.0
C60 C 0.16624 0.47876 0.69608 0.0
C61 C 0.12736 0.58769 0.66173 0.0
O62 O 0.12168 0.55243 0.65443 0.0
O63 O 0.21336 0.57111 0.68428 0.0
O64 O 0.23907 0.51935 0.68521 0.0
O65 O 0.16065 0.52536 0.60711 0.0
O66 O 0.20111 0.50953 0.62385 0.0
C67 C 0.23423 0.55347 0.6937 0.0
C68 C 0.18167 0.50452 0.60372 0.0
O69 O 0.15166 0.59812 0.66294 0.0
Mg70 Mg 0.52477 0.71791 0.2854 0.0
O71 O 0.53946 0.77935 0.28149 0.0
O72 O 0.50485 0.81864 0.28563 0.0
Mg73 Mg 0.46739 0.78227 0.2929 0.0
C74 C 0.52978 0.81269 0.28179 0.0
C75 C 0.57742 0.68216 0.26303 0.0
O76 O 0.56047 0.67277 0.23997 0.0
O77 O 0.51859 0.72253 0.34139 0.0
O78 O 0.48309 0.7611 0.34162 0.0
O79 O 0.51599 0.71919 0.23157 0.0
O80 O 0.4868 0.73355 0.26987 0.0
C81 C 0.50037 0.74099 0.35651 0.0
C82 C 0.49248 0.73112 0.23944 0.0
O83 O 0.56875 0.69993 0.28785 0.0
Mg84 Mg 0.78494 0.42597 0.65898 0.0
O85 O 0.79936 0.47305 0.69352 0.0
O86 O 0.76917 0.51929 0.69036 0.0
Mg87 Mg 0.73777 0.50379 0.65171 0.0
C88 C 0.79069 0.50548 0.70211 0.0
C89 C 0.83804 0.39216 0.68183 0.0
O90 O 0.84572 0.42614 0.67271 0.0
O91 O 0.75089 0.40917 0.69307 0.0
O92 O 0.72095 0.45432 0.68229 0.0
O93 O 0.80863 0.45082 0.61844 0.0
O94 O 0.76657 0.46516 0.62901 0.0
C95 C 0.72749 0.42312 0.69592 0.0
C96 C 0.7876 0.47043 0.61145 0.0
O97 O 0.81338 0.38375 0.6812 0.0
Mg98 Mg 0.45327 0.2814 0.32195 0.0
O99 O 0.43829 0.22235 0.30696 0.0
O100 O 0.46875 0.17962 0.32129 0.0
Mg101 Mg 0.50341 0.21097 0.34585 0.0
C102 C 0.44643 0.18821 0.30827 0.0
C103 C 0.41119 0.32857 0.28632 0.0
O104 O 0.43374 0.34036 0.2734 0.0
O105 O 0.44434 0.27132 0.37668 0.0
O106 O 0.47693 0.2299 0.38791 0.0
O107 O 0.47634 0.28564 0.27485 0.0
O108 O 0.4927 0.26395 0.32123 0.0
C109 C 0.4573 0.25043 0.39677 0.0
C110 C 0.49617 0.27145 0.29093 0.0
O111 O 0.41196 0.30429 0.30927 0.0
Mg112 Mg 0.6772 0.90312 0.83346 0.0
O113 O 0.66301 0.95206 0.80146 0.0
O114 O 0.68008 0.00635 0.81957 0.0
Mg115 Mg 0.70628 0.9911 0.86375 0.0
C116 C 0.66553 0.98789 0.79958 0.0
C117 C 0.64165 0.84087 0.80751 0.0
O118 O 0.63713 0.8399 0.83907 0.0
O119 O 0.71863 0.90392 0.81021 0.0
O120 O 0.73558 0.95625 0.83284 0.0
O121 O 0.64313 0.91306 0.86751 0.0
O122 O 0.68321 0.93891 0.87245 0.0
C123 C 0.73809 0.92669 0.81517 0.0
C124 C 0.65922 0.93516 0.88321 0.0
O125 O 0.65975 0.86277 0.79659 0.0
Mg126 Mg 0.94344 0.23775 0.18613 0.0
O127 O 0.92056 0.2914 0.20178 0.0
O128 O 0.94926 0.3397 0.20489 0.0
Mg129 Mg -0.00969 0.31768 0.18944 0.0
C130 C 0.92574 0.32612 0.20789 0.0
C131 C 0.90478 0.17221 0.19131 0.0
O132 O 0.9276 0.15889 0.20214 0.0
O133 O 0.94541 0.25782 0.13265 0.0
O134 O 0.97483 0.30532 0.13806 0.0
O135 O 0.95442 0.22667 0.23841 0.0
O136 O 0.9787 0.26021 0.20356 0.0
C137 C 0.95967 0.28452 0.12055 0.0
C138 C 0.97519 0.24742 0.23255 0.0
O139 O 0.90408 0.20593 0.18046 0.0
Mg140 Mg 0.28313 0.10396 0.7935 0.0
O141 O 0.30287 0.05304 0.76903 0.0
O142 O 0.29511 0.00138 0.79882 0.0
Mg143 Mg 0.27219 0.02068 0.84471 0.0
C144 C 0.30532 0.01756 0.77385 0.0
C145 C 0.30569 0.15282 0.73452 0.0
O146 O 0.30481 0.16881 0.7056 0.0
O147 O 0.24132 0.08417 0.78105 0.0
O148 O 0.23407 0.03708 0.81652 0.0
O149 O 0.32039 0.11548 0.82304 0.0
O150 O 0.28675 0.07946 0.83884 0.0
C151 C 0.22588 0.05992 0.79448 0.0
C152 C 0.3095 0.09439 0.84525 0.0
O153 O 0.28518 0.13605 0.7455 0.0
Mg154 Mg 0.0504 0.77405 0.16855 0.0
O155 O 0.06307 0.71295 0.18023 0.0
O156 O 0.02699 0.67625 0.17446 0.0
Mg157 Mg -0.00893 0.71311 0.16084 0.0
C158 C 0.05173 0.68054 0.18113 0.0
C159 C 0.10066 0.82691 0.16492 0.0
O160 O 0.08139 0.85207 0.16496 0.0
O161 O 0.04807 0.76075 0.11346 0.0
O162 O 0.00947 0.72855 0.11171 0.0
O163 O 0.03859 0.78122 0.22132 0.0
O164 O 0.01128 0.76181 0.18268 0.0
C165 C 0.02928 0.74442 0.0976 0.0
C166 C 0.01538 0.76812 0.21308 0.0
O167 O 0.09454 0.79194 0.16568 0.0
Mg168 Mg 0.66964 0.07756 0.15075 0.0
O169 O 0.6525 0.03043 0.18345 0.0
O170 O 0.67104 0.97582 0.16858 0.0
Mg171 Mg 0.70021 0.98838 0.12678 0.0
C172 C 0.65497 0.99464 0.18643 0.0
C173 C 0.63559 0.14447 0.17087 0.0
O174 O 0.63023 0.14132 0.13962 0.0
O175 O 0.70952 0.07793 0.17722 0.0
O176 O 0.72782 0.02401 0.15963 0.0
O177 O 0.63747 0.06643 0.11449 0.0
O178 O 0.67735 0.03951 0.11408 0.0
C179 C 0.72902 0.05476 0.17592 0.0
C180 C 0.65403 0.043 0.10123 0.0
O181 O 0.65215 0.12185 0.18387 0.0
Mg182 Mg 0.01167 0.234 0.81935 0.0
O183 O 0.03367 0.28955 0.80443 0.0
O184 O 0.00284 0.33522 0.80505 0.0
Mg185 Mg 0.96225 0.31066 0.81875 0.0
C186 C 0.02684 0.32419 0.8007 0.0
C187 C 0.04911 0.16674 0.82357 0.0
O188 O 0.02525 0.15119 0.82418 0.0
O189 O 0.00997 0.25278 0.87328 0.0
O190 O 0.97874 0.29795 0.86939 0.0
O191 O 0.00056 0.22328 0.7671 0.0
O192 O 0.97621 0.25564 0.80238 0.0
C193 C -0.00501 0.27802 0.8861 0.0
C194 C 0.97984 0.24385 0.77315 0.0
O195 O 0.05102 0.20262 0.82396 0.0
Mg196 Mg 0.33314 0.96291 0.10565 0.0
O197 O 0.3454 -5e-05 0.14907 0.0
O198 O 0.31831 0.0499 0.15031 0.0
Mg199 Mg 0.28862 0.04372 0.10771 0.0
C200 C 0.33796 0.03114 0.16176 0.0
C201 C 0.35656 0.89024 0.14399 0.0
O202 O 0.33433 0.88958 0.16102 0.0
O203 O 0.29637 0.94048 0.13236 0.0
O204 O 0.26868 0.98982 0.12948 0.0
O205 O 0.36029 0.99524 0.07342 0.0
O206 O 0.31758 0.0089 0.08034 0.0
C207 C 0.27349 0.95538 0.13718 0.0
C208 C 0.34012 0.01659 0.06648 0.0
O209 O 0.36025 0.9158 0.12269 0.0
Mg210 Mg 0.9596 0.74813 0.80116 0.0
O211 O 0.93104 0.69727 0.79808 0.0
O212 O 0.95473 0.64395 0.79582 0.0
Mg213 Mg -0.00081 0.6607 0.79693 0.0
C214 C 0.93239 0.66129 0.79603 0.0
C215 C 0.90387 0.78492 0.7953 0.0
O216 O 0.90229 0.75823 0.77315 0.0
O217 O 0.96954 0.73548 0.85503 0.0
O218 O -0.00274 0.68648 0.84813 0.0
O219 O 0.96297 0.75146 0.74635 0.0
O220 O -0.01131 0.71672 0.77831 0.0
C221 C 0.98647 0.71162 0.86616 0.0
C222 C 0.98204 0.72714 0.74947 0.0
O223 O 0.9249 0.78769 0.81256 0.0
H224 H 0.25435 0.35217 0.28454 0.0
H225 H 0.26779 0.45782 0.23358 0.0
H226 H 0.31424 0.43869 0.22198 0.0
H227 H 0.30941 0.35631 0.32735 0.0
H228 H 0.31776 0.30675 0.32836 0.0
H229 H 0.28368 0.32093 0.32277 0.0
H230 H 0.28067 0.28305 0.26895 0.0
H231 H 0.31463 0.26759 0.27477 0.0
H232 H 0.30515 0.29083 0.23736 0.0
H233 H 0.36076 0.41532 0.22669 0.0
H234 H 0.40352 0.38913 0.24595 0.0
H235 H 0.36077 0.30099 0.29839 0.0
C236 C 0.26659 0.37 0.26901 0.0
C237 C 0.25738 0.40585 0.25892 0.0
C238 C 0.27435 0.42976 0.24055 0.0
C239 C 0.30078 0.41915 0.23403 0.0
C240 C 0.30993 0.38474 0.24643 0.0
C241 C 0.29324 0.36024 0.26326 0.0
C242 C 0.30896 0.32871 0.27941 0.0
C243 C 0.30469 0.3282 0.31666 0.0
C244 C 0.30194 0.29027 0.26421 0.0
C245 C 0.33715 0.34055 0.27071 0.0
C246 C 0.33723 0.37225 0.25089 0.0
C247 C 0.36092 0.39004 0.24163 0.0
C248 C 0.38512 0.37508 0.2529 0.0
C249 C 0.38547 0.34308 0.27376 0.0
C250 C 0.36113 0.32545 0.28244 0.0
H251 H 0.34826 0.70448 0.67519 0.0
H252 H 0.39661 0.63308 0.73787 0.0
H253 H 0.3568 0.59508 0.75167 0.0
H254 H 0.28657 0.70058 0.72652 0.0
H255 H 0.2651 0.69958 0.69125 0.0
H256 H 0.29669 0.72411 0.68944 0.0
H257 H 0.31047 0.6842 0.63921 0.0
H258 H 0.27892 0.65994 0.64073 0.0
H259 H 0.30955 0.63331 0.64197 0.0
H260 H 0.31372 0.5592 0.75196 0.0
H261 H 0.27059 0.52871 0.73863 0.0
H262 H 0.24917 0.6254 0.67907 0.0
C263 C 0.35038 0.68126 0.69226 0.0
C264 C 0.37558 0.67177 0.70541 0.0
C265 C 0.37753 0.64101 0.72752 0.0
C266 C 0.35498 0.61932 0.73565 0.0
C267 C 0.3305 0.6291 0.72195 0.0
C268 C 0.328 0.65956 0.70095 0.0
C269 C 0.29983 0.66238 0.6877 0.0
C270 C 0.28625 0.69883 0.69944 0.0
C271 C 0.2997 0.65978 0.6502 0.0
C272 C 0.28723 0.62775 0.70332 0.0
C273 C 0.30518 0.60914 0.72329 0.0
C274 C 0.29922 0.57404 0.73717 0.0
C275 C 0.27468 0.55695 0.72956 0.0
C276 C 0.25631 0.57515 0.70856 0.0
C277 C 0.26237 0.61156 0.69626 0.0
H278 H 0.6195 0.70475 0.30173 0.0
H279 H 0.60048 0.64021 0.21481 0.0
H280 H 0.64814 0.62526 0.20754 0.0
H281 H 0.68503 0.74175 0.27231 0.0
H282 H 0.70001 0.73755 0.31213 0.0
H283 H 0.66479 0.74721 0.30837 0.0
H284 H 0.65369 0.68845 0.344 0.0
H285 H 0.68877 0.67926 0.34835 0.0
H286 H 0.66697 0.643 0.3326 0.0
H287 H 0.6965 0.60972 0.21397 0.0
H288 H 0.74088 0.59229 0.23589 0.0
H289 H 0.7295 0.66955 0.31626 0.0
C290 C 0.62541 0.68786 0.28095 0.0
C291 C 0.60621 0.67366 0.25888 0.0
C292 C 0.61478 0.65149 0.23208 0.0
C293 C 0.64187 0.64306 0.22756 0.0
C294 C 0.6603 0.65743 0.24976 0.0
C295 C 0.65244 0.67941 0.27592 0.0
C296 C 0.6759 0.68863 0.2978 0.0
C297 C 0.68177 0.73133 0.29763 0.0
C298 C 0.67104 0.67393 0.33273 0.0
C299 C 0.6979 0.66686 0.28076 0.0
C300 C 0.68862 0.6496 0.25272 0.0
C301 C 0.7043 0.62406 0.23523 0.0
C302 C 0.72959 0.61458 0.24758 0.0
C303 C 0.73891 0.63092 0.27684 0.0
C304 C 0.72329 0.65834 0.29287 0.0
H305 H 0.58181 0.33508 0.70116 0.0
H306 H 0.61362 0.2448 0.76155 0.0
H307 H 0.65688 0.27832 0.76454 0.0
H308 H 0.63965 0.3512 0.65464 0.0
H309 H 0.6357 0.40182 0.65264 0.0
H310 H 0.60684 0.37188 0.65728 0.0
H311 H 0.59345 0.40857 0.70945 0.0
H312 H 0.62244 0.4385 0.70506 0.0
H313 H 0.617 0.41277 0.74251 0.0
H314 H 0.69797 0.31886 0.75655 0.0
H315 H 0.73321 0.36348 0.73854 0.0
H316 H 0.67375 0.4286 0.68591 0.0
C317 C 0.5978 0.32252 0.71527 0.0
C318 C 0.59433 0.28734 0.73113 0.0
C319 C 0.61576 0.27184 0.74932 0.0
C320 C 0.64041 0.29069 0.75121 0.0
C321 C 0.64321 0.32527 0.73517 0.0
C322 C 0.62241 0.34117 0.71774 0.0
C323 C 0.63087 0.37791 0.70171 0.0
C324 C 0.62811 0.37554 0.66436 0.0
C325 C 0.61499 0.41142 0.71552 0.0
C326 C 0.65987 0.37967 0.71206 0.0
C327 C 0.66662 0.34916 0.73147 0.0
C328 C 0.69282 0.34323 0.74184 0.0
C329 C 0.7127 0.36871 0.73151 0.0
C330 C 0.70622 0.39984 0.7112 0.0
C331 C 0.67931 0.40567 0.70208 0.0
H332 H 0.75424 0.85981 0.78707 0.0
H333 H 0.78417 0.96764 0.82243 0.0
H334 H 0.83017 0.94395 0.81837 0.0
H335 H 0.79704 0.80318 0.82998 0.0
H336 H 0.80242 0.76842 0.79858 0.0
H337 H 0.77189 0.79509 0.7993 0.0
H338 H 0.78026 0.81824 0.74015 0.0
H339 H 0.81058 0.79092 0.73893 0.0
H340 H 0.81151 0.84087 0.73005 0.0
H341 H 0.87194 0.9055 0.81965 0.0
H342 H 0.9077 0.85747 0.81773 0.0
H343 H 0.85131 0.77566 0.7791 0.0
C344 C 0.77047 0.87893 0.7929 0.0
C345 C 0.76545 0.91558 0.80521 0.0
C346 C 0.78737 0.93944 0.81298 0.0
C347 C 0.81365 0.92623 0.81083 0.0
C348 C 0.81779 0.88931 0.80034 0.0
C349 C 0.79689 0.86628 0.79068 0.0
C350 C 0.80674 0.82709 0.78194 0.0
C351 C 0.79374 0.79667 0.80376 0.0
C352 C 0.802 0.81881 0.7456 0.0
C353 C 0.83623 0.83138 0.78932 0.0
C354 C 0.84217 0.86747 0.79997 0.0
C355 C 0.86768 0.87738 0.81064 0.0
C356 C 0.88778 0.84986 0.80977 0.0
C357 C 0.88227 0.81304 0.79804 0.0
C358 C 0.85615 0.80379 0.78773 0.0
H359 H 0.74899 0.12646 0.17933 0.0
H360 H 0.76894 0.00921 0.19854 0.0
H361 H 0.81582 0.0277 0.2088 0.0
H362 H 0.80488 0.14604 0.13371 0.0
H363 H 0.80966 0.19389 0.14767 0.0
H364 H 0.7768 0.17321 0.14801 0.0
H365 H 0.77212 0.18712 0.20975 0.0
H366 H 0.80482 0.2086 0.20954 0.0
H367 H 0.79743 0.17063 0.23759 0.0
H368 H 0.86107 0.05761 0.21081 0.0
H369 H 0.9016 0.09694 0.20577 0.0
H370 H 0.85263 0.19447 0.18232 0.0
C371 C 0.763 0.10492 0.18701 0.0
C372 C 0.7553 0.06648 0.18875 0.0
C373 C 0.77442 0.03885 0.19751 0.0
C374 C 0.80107 0.0491 0.20333 0.0
C375 C 0.80826 0.08704 0.20005 0.0
C376 C 0.78977 0.11459 0.1923 0.0
C377 C 0.80316 0.15262 0.1869 0.0
C378 C 0.79833 0.16727 0.152 0.0
C379 C 0.79383 0.18144 0.21248 0.0
C380 C 0.83212 0.14195 0.19202 0.0
C381 C 0.83457 0.10411 0.20002 0.0
C382 C 0.85938 0.08736 0.20492 0.0
C383 C 0.8823 0.10994 0.20186 0.0
C384 C 0.8803 0.14878 0.1936 0.0
C385 C 0.85482 0.16487 0.18859 0.0
H386 H 0.09823 0.18881 0.80093 0.0
H387 H 0.0536 0.09063 0.83421 0.0
H388 H 0.09281 0.05015 0.82349 0.0
H389 H 0.13392 0.14062 0.73543 0.0
H390 H 0.16423 0.1672 0.74185 0.0
H391 H 0.13234 0.18821 0.751 0.0
H392 H 0.14774 0.20179 0.81023 0.0
H393 H 0.17976 0.18154 0.80103 0.0
H394 H 0.16047 0.16355 0.83485 0.0
H395 H 0.13817 0.02151 0.81342 0.0
H396 H 0.18628 0.00781 0.80663 0.0
H397 H 0.19979 0.1239 0.77609 0.0
C398 C 0.09671 0.15881 0.80602 0.0
C399 C 0.07295 0.14287 0.8186 0.0
C400 C 0.07166 0.10343 0.82462 0.0
C401 C 0.09375 0.08018 0.81843 0.0
C402 C 0.11681 0.09673 0.80568 0.0
C403 C 0.11838 0.13514 0.79947 0.0
C404 C 0.14567 0.14616 0.78675 0.0
C405 C 0.14392 0.16145 0.75167 0.0
C406 C 0.1592 0.17494 0.80959 0.0
C407 C 0.15951 0.10817 0.78774 0.0
C408 C 0.14251 0.07991 0.79851 0.0
C409 C 0.15155 0.04323 0.80436 0.0
C410 C 0.17887 0.03564 0.80031 0.0
C411 C 0.19673 0.06457 0.79031 0.0
C412 C 0.18659 0.10083 0.7828 0.0
H413 H 0.22046 0.97438 0.14354 0.0
H414 H 0.27533 0.88034 0.1549 0.0
H415 H 0.23725 0.8377 0.16586 0.0
H416 H 0.17204 0.94359 0.20633 0.0
H417 H 0.14391 0.95973 0.18273 0.0
H418 H 0.1757 0.98338 0.17907 0.0
H419 H 0.17488 0.97242 0.11661 0.0
H420 H 0.14328 0.94838 0.12008 0.0
H421 H 0.1712 0.925 0.10113 0.0
H422 H 0.19272 0.80402 0.17045 0.0
H423 H 0.14558 0.78298 0.17135 0.0
H424 H 0.12003 0.89912 0.15727 0.0
C425 C 0.22461 0.94502 0.14904 0.0
C426 C 0.25104 0.93088 0.14842 0.0
C427 C 0.25537 0.89204 0.15534 0.0
C428 C 0.23382 0.8675 0.16156 0.0
C429 C 0.20801 0.88219 0.16099 0.0
C430 C 0.20336 0.92014 0.15528 0.0
C431 C 0.17369 0.92851 0.15449 0.0
C432 C 0.16588 0.95539 0.18232 0.0
C433 C 0.16528 0.94451 0.12109 0.0
C434 C 0.16236 0.88922 0.15996 0.0
C435 C 0.18246 0.86288 0.16378 0.0
C436 C 0.17682 0.82449 0.16785 0.0
C437 C 0.14997 0.81278 0.16819 0.0
C438 C 0.12904 0.83935 0.16448 0.0
C439 C 0.13549 0.87807 0.16041 0.0
H440 H 0.16781 0.5709 0.27638 0.0
H441 H 0.12302 0.46754 0.25853 0.0
H442 H 0.09016 0.50355 0.22657 0.0
H443 H 0.11121 0.63077 0.2866 0.0
H444 H 0.12611 0.67103 0.26649 0.0
H445 H 0.14697 0.63696 0.28686 0.0
H446 H 0.17369 0.62698 0.23342 0.0
H447 H 0.15284 0.66098 0.21287 0.0
H448 H 0.15624 0.61388 0.19667 0.0
H449 H 0.06109 0.55058 0.19841 0.0
H450 H 0.03737 0.60602 0.17638 0.0
H451 H 0.10079 0.67929 0.21171 0.0
C452 C 0.1512 0.55576 0.26557 0.0
C453 C 0.14813 0.51625 0.27002 0.0
C454 C 0.12595 0.4977 0.25557 0.0
C455 C 0.10714 0.51791 0.23725 0.0
C456 C 0.11071 0.55672 0.23345 0.0
C457 C 0.13216 0.57554 0.24715 0.0
C458 C 0.13076 0.61765 0.24009 0.0
C459 C 0.12863 0.64044 0.2719 0.0
C460 C 0.15481 0.63062 0.21954 0.0
C461 C 0.10505 0.61952 0.22059 0.0
C462 C 0.0939 0.584 0.21697 0.0
C463 C 0.06971 0.57853 0.20089 0.0
C464 C 0.05636 0.61026 0.18847 0.0
C465 C 0.06721 0.64709 0.19213 0.0
C466 C 0.09208 0.65154 0.20812 0.0
H467 H 0.4974 0.76963 0.7535 0.0
H468 H 0.52457 0.78577 0.65369 0.0
H469 H 0.56963 0.80021 0.67334 0.0
H470 H 0.53557 0.84561 0.78724 0.0
H471 H 0.54312 0.8213 0.82481 0.0
H472 H 0.513 0.81012 0.80289 0.0
H473 H 0.52695 0.73957 0.80133 0.0
H474 H 0.55732 0.75069 0.82291 0.0
H475 H 0.55883 0.72682 0.78415 0.0
H476 H 0.61119 0.81497 0.70274 0.0
H477 H 0.64631 0.83453 0.74134 0.0
H478 H 0.59324 0.80896 0.8224 0.0
C479 C 0.51287 0.77618 0.73588 0.0
C480 C 0.50736 0.77678 0.70211 0.0
C481 C 0.52812 0.78555 0.67974 0.0
C482 C 0.55394 0.79344 0.69059 0.0
C483 C 0.5588 0.79243 0.7239 0.0
C484 C 0.53891 0.78437 0.74632 0.0
C485 C 0.54945 0.78727 0.78086 0.0
C486 C 0.5344 0.8179 0.80007 0.0
C487 C 0.54805 0.74879 0.79833 0.0
C488 C 0.57813 0.79884 0.77416 0.0
C489 C 0.58312 0.80114 0.7411 0.0
C490 C 0.60767 0.81303 0.72875 0.0
C491 C 0.6275 0.82402 0.75084 0.0
C492 C 0.62255 0.82314 0.78483 0.0
C493 C 0.59776 0.80944 0.79656 0.0
H494 H 0.92974 0.39996 0.22887 0.0
H495 H 0.87254 0.30882 0.21485 0.0
H496 H 0.83692 0.34922 0.23729 0.0
H497 H 0.90412 0.4318 0.30465 0.0
H498 H 0.90993 0.48127 0.29648 0.0
H499 H 0.93073 0.44608 0.27761 0.0
H500 H 0.91916 0.47314 0.22057 0.0
H501 H 0.89833 0.50848 0.23927 0.0
H502 H 0.88465 0.47751 0.20863 0.0
H503 H 0.80794 0.3981 0.26353 0.0
H504 H 0.78738 0.45219 0.29157 0.0
H505 H 0.86318 0.51221 0.28856 0.0
C506 C 0.9097 0.38855 0.23016 0.0
C507 C 0.90403 0.3511 0.21994 0.0
C508 C 0.87748 0.33734 0.22241 0.0
C509 C 0.85706 0.3601 0.23511 0.0
C510 C 0.86342 0.39666 0.2452 0.0
C511 C 0.88905 0.41087 0.2428 0.0
C512 C 0.89069 0.45073 0.25638 0.0
C513 C 0.91001 0.45255 0.28551 0.0
C514 C 0.89868 0.47914 0.22961 0.0
C515 C 0.86201 0.45654 0.26713 0.0
C516 C 0.84663 0.425 0.26033 0.0
C517 C 0.81974 0.42304 0.2688 0.0
C518 C 0.80826 0.45397 0.28483 0.0
C519 C 0.82359 0.48665 0.29231 0.0
C520 C 0.85082 0.48789 0.283 0.0
H521 H 0.45855 0.14095 0.73438 0.0
H522 H 0.45658 0.23917 0.79684 0.0
H523 H 0.41079 0.2225 0.814 0.0
H524 H 0.40367 0.1551 0.6993 0.0
H525 H 0.39104 0.10751 0.69526 0.0
H526 H 0.42617 0.11531 0.69925 0.0
H527 H 0.42806 0.07135 0.74968 0.0
H528 H 0.39274 0.06239 0.74542 0.0
H529 H 0.40589 0.07937 0.78361 0.0
H530 H 0.36255 0.20959 0.80896 0.0
H531 H 0.31771 0.19898 0.78519 0.0
H532 H 0.34969 0.11108 0.72354 0.0
C533 C 0.44883 0.15773 0.7529 0.0
C534 C 0.46077 0.19135 0.76416 0.0
C535 C 0.44783 0.21292 0.78837 0.0
C536 C 0.42172 0.20366 0.79812 0.0
C537 C 0.40923 0.17245 0.78379 0.0
C538 C 0.4227 0.14904 0.76231 0.0
C539 C 0.4037 0.12236 0.74498 0.0
C540 C 0.4063 0.12534 0.70753 0.0
C541 C 0.40785 0.08144 0.75664 0.0
C542 C 0.37727 0.13752 0.75693 0.0
C543 C 0.38081 0.16518 0.78044 0.0
C544 C 0.35948 0.18701 0.79158 0.0
C545 C 0.33415 0.18103 0.77787 0.0
C546 C 0.33056 0.15375 0.75319 0.0
C547 C 0.35211 0.13121 0.74318 0.0
H548 H 0.15902 0.40382 0.71344 0.0
H549 H 0.12547 0.51599 0.72636 0.0
H550 H 0.08819 0.48855 0.75771 0.0
H551 H 0.09777 0.35723 0.7004 0.0
H552 H 0.10652 0.31451 0.72193 0.0
H553 H 0.13223 0.34293 0.70326 0.0
H554 H 0.1567 0.34799 0.75875 0.0
H555 H 0.13108 0.31939 0.77756 0.0
H556 H 0.13893 0.36539 0.79389 0.0
H557 H 0.053 0.44943 0.78382 0.0
H558 H 0.02171 0.40085 0.80356 0.0
H559 H 0.07715 0.31295 0.77412 0.0
C560 C 0.14414 0.42269 0.72346 0.0
C561 C 0.14535 0.46217 0.71757 0.0
C562 C 0.12511 0.48573 0.73057 0.0
C563 C 0.10384 0.47041 0.7485 0.0
C564 C 0.10299 0.43143 0.75333 0.0
C565 C 0.12259 0.4078 0.74134 0.0
C566 C 0.11589 0.36663 0.74843 0.0
C567 C 0.11292 0.34401 0.71661 0.0
C568 C 0.1369 0.3488 0.77101 0.0
C569 C 0.08925 0.37087 0.76573 0.0
C570 C 0.08237 0.40856 0.76844 0.0
C571 C 0.05826 0.41983 0.78214 0.0
C572 C 0.04056 0.3919 0.7932 0.0
C573 C 0.04691 0.35294 0.79052 0.0
C574 C 0.0718 0.34242 0.77688 0.0
H575 H 0.36023 0.83855 0.19379 0.0
H576 H 0.40105 0.87861 0.10678 0.0
H577 H 0.4381 0.83469 0.11766 0.0
H578 H 0.41622 0.83411 0.2426 0.0
H579 H 0.40642 0.79209 0.26459 0.0
H580 H 0.38135 0.8224 0.24733 0.0
H581 H 0.36167 0.76557 0.21534 0.0
H582 H 0.38682 0.73505 0.23251 0.0
H583 H 0.38305 0.73846 0.18887 0.0
H584 H 0.473 0.79188 0.14116 0.0
H585 H 0.50343 0.75564 0.17713 0.0
H586 H 0.43964 0.74349 0.24809 0.0
C587 C 0.37667 0.83748 0.17665 0.0
C588 C 0.3777 0.86191 0.14945 0.0
C589 C 0.39982 0.86014 0.12785 0.0
C590 C 0.42091 0.8351 0.13366 0.0
C591 C 0.41953 0.81185 0.16103 0.0
C592 C 0.39795 0.81275 0.18214 0.0
C593 C 0.40248 0.78755 0.21143 0.0
C594 C 0.40157 0.81041 0.24335 0.0
C595 C 0.38231 0.7547 0.21206 0.0
C596 C 0.43037 0.77361 0.20412 0.0
C597 C 0.43972 0.7873 0.17467 0.0
C598 C 0.46576 0.78043 0.16404 0.0
C599 C 0.48288 0.75982 0.18453 0.0
C600 C 0.47384 0.74694 0.21531 0.0
C601 C 0.44706 0.75301 0.22463 0.0
H602 H 0.84391 0.4975 0.71753 0.0
H603 H 0.77487 0.56848 0.7356 0.0
H604 H 0.80311 0.61255 0.76697 0.0
H605 H 0.878 0.51425 0.79685 0.0
H606 H 0.9106 0.51521 0.77817 0.0
H607 H 0.88441 0.48655 0.76082 0.0
H608 H 0.89079 0.52025 0.70522 0.0
H609 H 0.9169 0.54905 0.72232 0.0
H610 H 0.88853 0.57109 0.7031 0.0
H611 H 0.83936 0.65246 0.79101 0.0
H612 H 0.88107 0.68532 0.80603 0.0
H613 H 0.92689 0.58876 0.77258 0.0
C614 C 0.83457 0.52176 0.72882 0.0
C615 C 0.80706 0.52932 0.72425 0.0
C616 C 0.79583 0.56195 0.7388 0.0
C617 C 0.81171 0.58713 0.75677 0.0
C618 C 0.83883 0.57935 0.76012 0.0
C619 C 0.85019 0.54737 0.74669 0.0
C620 C 0.88024 0.54729 0.75157 0.0
C621 C 0.88881 0.51384 0.77315 0.0
C622 C 0.89497 0.54691 0.71859 0.0
C623 C 0.88405 0.58468 0.76907 0.0
C624 C 0.85987 0.60252 0.77404 0.0
C625 C 0.85838 0.63851 0.78772 0.0
C626 C 0.88222 0.657 0.79612 0.0
C627 C 0.90731 0.63957 0.79079 0.0
C628 C 0.90806 0.60261 0.77759 0.0
H629 H 0.58857 0.17948 0.15609 0.0
H630 H 0.64876 0.16925 0.23175 0.0
H631 H 0.62153 0.20922 0.268 0.0
H632 H 0.56642 0.278 0.17608 0.0
H633 H 0.53195 0.26671 0.16785 0.0
H634 H 0.55816 0.24307 0.14572 0.0
H635 H 0.53902 0.17815 0.16386 0.0
H636 H 0.51291 0.2015 0.18611 0.0
H637 H 0.53453 0.16853 0.20674 0.0
H638 H 0.58604 0.24188 0.29811 0.0
H639 H 0.54384 0.26516 0.32115 0.0
H640 H 0.5058 0.25438 0.22651 0.0
C641 C 0.59636 0.18661 0.17994 0.0
C642 C 0.62082 0.1716 0.19112 0.0
C643 C 0.63009 0.18061 0.22275 0.0
C644 C 0.61485 0.20345 0.2434 0.0
C645 C 0.59049 0.21701 0.23197 0.0
C646 C 0.58127 0.20907 0.20096 0.0
C647 C 0.55308 0.22352 0.19606 0.0
C648 C 0.55237 0.25469 0.16987 0.0
C649 C 0.53376 0.19098 0.18772 0.0
C650 C 0.54751 0.23946 0.22961 0.0
C651 C 0.56958 0.23592 0.24968 0.0
C652 C 0.56879 0.24548 0.28253 0.0
C653 C 0.54469 0.25844 0.2954 0.0
C654 C 0.5217 0.26162 0.2755 0.0
C655 C 0.52326 0.25284 0.24203 0.0
H656 H 0.65512 0.06434 0.79648 0.0
H657 H 0.63847 0.95796 0.7477 0.0
H658 H 0.60708 0.99049 0.71097 0.0
H659 H 0.59015 0.09646 0.79763 0.0
H660 H 0.59784 0.14561 0.7904 0.0
H661 H 0.62211 0.11551 0.80961 0.0
H662 H 0.65675 0.13313 0.76505 0.0
H663 H 0.6325 0.16344 0.74576 0.0
H664 H 0.64842 0.12649 0.72266 0.0
H665 H 0.57326 0.03206 0.68464 0.0
H666 H 0.53973 0.08025 0.67009 0.0
H667 H 0.57846 0.16023 0.73495 0.0
C668 C 0.64546 0.04808 0.77748 0.0
C669 C 0.64941 0.00856 0.77494 0.0
C670 C 0.63587 0.98823 0.75016 0.0
C671 C 0.61805 0.00649 0.72905 0.0
C672 C 0.61405 0.0452 0.73278 0.0
C673 C 0.62751 0.06589 0.75618 0.0
C674 C 0.61779 0.1065 0.75693 0.0
C675 C 0.60628 0.11658 0.79064 0.0
C676 C 0.6402 0.13401 0.747 0.0
C677 C 0.59611 0.10496 0.73115 0.0
C678 C 0.59451 0.06945 0.71726 0.0
C679 C 0.57463 0.06019 0.69486 0.0
C680 C 0.55561 0.08772 0.68683 0.0
C681 C 0.55659 0.12413 0.70113 0.0
C682 C 0.5775 0.13296 0.72305 0.0
H683 H 0.12265 0.27214 0.29049 0.0
H684 H 0.09992 0.38684 0.31484 0.0
H685 H 0.05232 0.36956 0.3098 0.0
H686 H 0.07607 0.26265 0.22795 0.0
H687 H 0.06922 0.21321 0.23502 0.0
H688 H 0.10098 0.23281 0.24651 0.0
H689 H 0.09362 0.20852 0.30563 0.0
H690 H 0.06149 0.18951 0.29429 0.0
H691 H 0.06407 0.22243 0.32766 0.0
H692 H 0.00818 0.34271 0.29688 0.0
H693 H 0.97088 0.31074 0.26857 0.0
H694 H 0.02151 0.21426 0.24974 0.0
C695 C 0.10751 0.29324 0.29524 0.0
C696 C 0.11464 0.33065 0.30316 0.0
C697 C 0.0946 0.35801 0.30861 0.0
C698 C 0.06758 0.34836 0.30624 0.0
C699 C 0.061 0.31127 0.29817 0.0
C700 C 0.08035 0.28424 0.2922 0.0
C701 C 0.06801 0.24819 0.27915 0.0
C702 C 0.07922 0.23869 0.24515 0.0
C703 C 0.07204 0.21521 0.30312 0.0
C704 C 0.03891 0.25975 0.27755 0.0
C705 C 0.03521 0.29583 0.28968 0.0
C706 C 0.01061 0.31412 0.28802 0.0
C707 C -0.0105 0.29575 0.27218 0.0
C708 C -0.00664 0.25978 0.25817 0.0
C709 C 0.018 0.24111 0.26165 0.0
H710 H 0.31637 0.94087 0.77525 0.0
H711 H 0.33237 0.04367 0.72022 0.0
H712 H 0.36231 0.00827 0.68385 0.0
H713 H 0.38213 0.90447 0.77208 0.0
H714 H 0.37214 0.85574 0.76754 0.0
H715 H 0.35056 0.88848 0.78828 0.0
H716 H 0.31209 0.87182 0.74855 0.0
H717 H 0.33358 0.83896 0.72769 0.0
H718 H 0.31737 0.87627 0.70519 0.0
H719 H 0.3927 0.96314 0.65552 0.0
H720 H 0.42114 0.91084 0.63652 0.0
H721 H 0.38511 0.83629 0.70859 0.0
C722 C 0.32587 0.95587 0.7553 0.0
C723 C 0.32184 0.99519 0.75067 0.0
C724 C 0.33494 0.01365 0.72435 0.0
C725 C 0.35202 0.99375 0.70347 0.0
C726 C 0.35573 0.95522 0.70891 0.0
C727 C 0.34294 0.93635 0.73403 0.0
C728 C 0.35119 0.89504 0.73508 0.0
C729 C 0.36481 0.88538 0.76768 0.0
C730 C 0.32712 0.86899 0.72875 0.0
C731 C 0.3709 0.89385 0.70695 0.0
C732 C 0.37313 0.9289 0.69219 0.0
C733 C 0.39093 0.93547 0.66666 0.0
C734 C 0.40707 0.90555 0.65609 0.0
C735 C 0.4053 0.86933 0.67088 0.0
C736 C 0.38668 0.86343 0.69643 0.0
H737 H 0.87819 0.67367 0.26847 0.0
H738 H 0.90813 0.67479 0.36783 0.0
H739 H 0.94908 0.7072 0.34918 0.0
H740 H 0.94058 0.65652 0.2291 0.0
H741 H 0.93373 0.6871 0.19489 0.0
H742 H 0.90662 0.66434 0.21619 0.0
H743 H 0.88469 0.72963 0.22635 0.0
H744 H 0.91178 0.75258 0.20512 0.0
H745 H 0.90364 0.76636 0.24624 0.0
H746 H -0.01214 0.73739 0.31916 0.0
H747 H 0.02089 0.76315 0.27983 0.0
H748 H 0.9641 0.74576 0.2013 0.0
C749 C 0.89335 0.68073 0.28628 0.0
C750 C 0.88997 0.67163 0.31957 0.0
C751 C 0.91023 0.68156 0.34217 0.0
C752 C 0.93359 0.69999 0.33185 0.0
C753 C 0.9363 0.70868 0.29888 0.0
C754 C 0.91667 0.69956 0.27647 0.0
C755 C 0.9245 0.71205 0.24246 0.0
C756 C 0.92648 0.67797 0.21931 0.0
C757 C 0.90499 0.74193 0.22928 0.0
C758 C 0.95171 0.72906 0.24921 0.0
C759 C 0.95824 0.72687 0.28185 0.0
C760 C 0.98288 0.73951 0.29353 0.0
C761 C 0.00149 0.75419 0.27108 0.0
C762 C -0.00477 0.7561 0.23744 0.0
C763 C 0.96976 0.74412 0.22672 0.0
H764 H 0.65261 0.91792 0.19784 0.0
H765 H 0.61548 0.02409 0.22526 0.0
H766 H 0.58164 0.989 0.25701 0.0
H767 H 0.59406 0.86771 0.18505 0.0
H768 H 0.60592 0.82341 0.2013 0.0
H769 H 0.62921 0.85678 0.18413 0.0
H770 H 0.65615 0.85688 0.23809 0.0
H771 H 0.63298 0.82325 0.25539 0.0
H772 H 0.63941 0.86736 0.27593 0.0
H773 H 0.54867 0.94231 0.28005 0.0
H774 H 0.52033 0.88754 0.29469 0.0
H775 H 0.57948 0.81183 0.25352 0.0
C776 C 0.63776 0.93393 0.2111 0.0
C777 C 0.63683 0.97388 0.20901 0.0
C778 C 0.61677 0.99355 0.22651 0.0
C779 C 0.59742 0.97385 0.24466 0.0
C780 C 0.59851 0.93447 0.24543 0.0
C781 C 0.61836 0.91472 0.22944 0.0
C782 C 0.61408 0.87238 0.23249 0.0
C783 C 0.6106 0.85401 0.19874 0.0
C784 C 0.63702 0.85388 0.25162 0.0
C785 C 0.58829 0.87143 0.25182 0.0
C786 C 0.57971 0.90752 0.25922 0.0
C787 C 0.55543 0.9139 0.2749 0.0
C788 C 0.53941 0.8826 0.28301 0.0
C789 C 0.54776 0.84534 0.27554 0.0
C790 C 0.57273 0.83986 0.26014 0.0
H791 H 0.88954 0.40334 0.70131 0.0
H792 H 0.83145 0.31543 0.68029 0.0
H793 H 0.86531 0.26667 0.69227 0.0
H794 H 0.94922 0.35377 0.67047 0.0
H795 H 0.96998 0.371 0.70316 0.0
H796 H 0.94239 0.39908 0.68869 0.0
H797 H 0.9229 0.40201 0.74731 0.0
H798 H 0.95064 0.37461 0.76189 0.0
H799 H 0.91698 0.35856 0.76934 0.0
H800 H 0.90422 0.22766 0.71039 0.0
H801 H 0.94301 0.20201 0.74073 0.0
H802 H 0.9749 0.3152 0.75114 0.0
C803 C 0.88409 0.37382 0.69878 0.0
C804 C 0.85802 0.36307 0.68969 0.0
C805 C 0.85138 0.32421 0.68728 0.0
C806 C 0.87054 0.29635 0.69366 0.0
C807 C 0.89615 0.30787 0.70247 0.0
C808 C 0.90285 0.34569 0.70545 0.0
C809 C 0.93072 0.35063 0.71894 0.0
C810 C 0.94917 0.36975 0.6938 0.0
C811 C 0.93026 0.37273 0.75128 0.0
C812 C 0.93831 0.3097 0.72412 0.0
C813 C 0.91843 0.28538 0.71364 0.0
C814 C 0.92014 0.24632 0.71817 0.0
C815 C 0.94224 0.23195 0.73514 0.0
C816 C 0.96186 0.25677 0.7475 0.0
C817 C 0.96031 0.29581 0.74111 0.0
H818 H 0.40146 0.19603 0.27001 0.0
H819 H 0.45531 0.1117 0.30999 0.0
H820 H 0.43104 0.06184 0.28019 0.0
H821 H 0.34084 0.13651 0.27051 0.0
H822 H 0.32892 0.15572 0.23245 0.0
H823 H 0.34897 0.1845 0.25922 0.0
H824 H 0.38248 0.1969 0.21224 0.0
H825 H 0.36262 0.16817 0.18534 0.0
H826 H 0.39743 0.15736 0.19146 0.0
H827 H 0.40352 0.02178 0.24257 0.0
H828 H 0.37439 0.99436 0.20021 0.0
H829 H 0.33796 0.1043 0.18486 0.0
C830 C 0.40788 0.16702 0.27301 0.0
C831 C 0.43032 0.15791 0.29253 0.0
C832 C 0.43821 0.11954 0.2953 0.0
C833 C 0.4245 0.09093 0.2785 0.0
C834 C 0.40282 0.10097 0.25907 0.0
C835 C 0.39444 0.13806 0.25636 0.0
C836 C 0.37145 0.1415 0.23243 0.0
C837 C 0.34604 0.15537 0.2497 0.0
C838 C 0.37896 0.16751 0.20367 0.0
C839 C 0.3686 0.10068 0.22162 0.0
C840 C 0.38678 0.07775 0.23745 0.0
C841 C 0.38898 0.03937 0.2303 0.0
C842 C 0.37236 0.02406 0.20611 0.0
C843 C 0.35372 0.04704 0.18927 0.0
C844 C 0.35167 0.08578 0.19758 0.0
H845 H 0.07808 0.5722 0.68584 0.0
H846 H 0.12771 0.66394 0.64988 0.0
H847 H 0.09025 0.70862 0.65783 0.0
H848 H 0.01291 0.60638 0.65475 0.0
H849 H -0.00438 0.59168 0.69125 0.0
H850 H 0.02453 0.56593 0.67749 0.0
H851 H 0.04741 0.57582 0.73367 0.0
H852 H 0.01836 0.6007 0.74762 0.0
H853 H 0.0507 0.6231 0.74961 0.0
H854 H 0.04879 0.7438 0.67375 0.0
H855 H 0.01074 0.76825 0.70593 0.0
H856 H -0.01048 0.65396 0.73387 0.0
C857 C 0.08086 0.60159 0.67907 0.0
C858 C 0.10554 0.61473 0.66694 0.0
C859 C 0.10883 0.65347 0.6592 0.0
C860 C 0.0876 0.67887 0.66322 0.0
C861 C 0.06337 0.66498 0.67516 0.0
C862 C 0.0601 0.62731 0.68351 0.0
C863 C 0.03365 0.62039 0.7003 0.0
C864 C 0.01561 0.59457 0.6797 0.0
C865 C 0.03779 0.60408 0.73483 0.0
C866 C 0.02294 0.66029 0.70126 0.0
C867 C 0.03989 0.68545 0.6856 0.0
C868 C 0.03515 0.72433 0.6856 0.0
C869 C 0.01339 0.73797 0.70361 0.0
C870 C -0.00275 0.71275 0.72175 0.0
C871 C 0.00139 0.67351 0.71948 0.0
H872 H 0.14412 0.48594 0.55801 0.0
H873 H 0.22859 0.47646 0.58045 0.0
H874 H 0.23758 0.45759 0.52373 0.0
H875 H 0.1425 0.405 0.49805 0.0
H876 H 0.11857 0.42926 0.47274 0.0
H877 H 0.11844 0.43639 0.51627 0.0
H878 H 0.12258 0.5086 0.50662 0.0
H879 H 0.12367 0.50172 0.46317 0.0
H880 H 0.15034 0.52682 0.48328 0.0
H881 H 0.23857 0.45251 0.46337 0.0
H882 H 0.23042 0.44585 0.40441 0.0
H883 H 0.14501 0.45443 0.42117 0.0
C884 C 0.16436 0.47852 0.55129 0.0
C885 C 0.18568 0.48285 0.57352 0.0
C886 C 0.21193 0.47318 0.56384 0.0
C887 C 0.21728 0.46271 0.53161 0.0
C888 C 0.19606 0.46121 0.50974 0.0
C889 C 0.16999 0.46749 0.51933 0.0
C890 C 0.15101 0.46532 0.49062 0.0
C891 C 0.13148 0.432 0.49466 0.0
C892 C 0.13603 0.50285 0.48565 0.0
C893 C 0.17066 0.45832 0.46325 0.0
C894 C 0.19654 0.45642 0.47483 0.0
C895 C 0.21836 0.45298 0.45405 0.0
C896 C 0.21353 0.44977 0.42057 0.0
C897 C 0.18707 0.44949 0.40836 0.0
C898 C 0.16541 0.45433 0.42995 0.0
H899 H 0.48683 0.79606 0.39903 0.0
H900 H 0.5026 0.67584 0.39306 0.0
H901 H 0.48415 0.66726 0.4489 0.0
H902 H 0.50381 0.8064 0.48507 0.0
H903 H 0.47831 0.84154 0.49129 0.0
H904 H 0.49381 0.83681 0.45191 0.0
H905 H 0.44684 0.82823 0.42621 0.0
H906 H 0.43132 0.83134 0.46576 0.0
H907 H 0.42546 0.79053 0.44046 0.0
H908 H 0.46073 0.67226 0.50456 0.0
H909 H 0.44444 0.69191 0.55902 0.0
H910 H 0.44501 0.80889 0.52739 0.0
C911 C 0.487 0.76804 0.4098 0.0
C912 C 0.4963 0.73663 0.39197 0.0
C913 C 0.49602 0.70035 0.40665 0.0
C914 C 0.48516 0.69518 0.43807 0.0
C915 C 0.47493 0.72666 0.45439 0.0
C916 C 0.47651 0.76251 0.44101 0.0
C917 C 0.46496 0.792 0.46358 0.0
C918 C 0.48651 0.82087 0.47357 0.0
C919 C 0.44071 0.81167 0.44806 0.0
C920 C 0.4566 0.76729 0.49195 0.0
C921 C 0.462 0.72957 0.48608 0.0
C922 C 0.45645 0.70171 0.50934 0.0
C923 C 0.44674 0.71304 0.54003 0.0
C924 C 0.44313 0.75186 0.54718 0.0
C925 C 0.44711 0.77898 0.52233 0.0
H926 H 0.84081 0.54833 0.44078 0.0
H927 H 0.7582 0.57647 0.41963 0.0
H928 H 0.74536 0.55832 0.47536 0.0
H929 H 0.82533 0.4655 0.48796 0.0
H930 H 0.85218 0.47233 0.51665 0.0
H931 H 0.85534 0.48995 0.47558 0.0
H932 H 0.86495 0.55703 0.49819 0.0
H933 H 0.86141 0.53967 0.53936 0.0
H934 H 0.84128 0.57872 0.52548 0.0
H935 H 0.74099 0.53764 0.53253 0.0
H936 H 0.74419 0.5063 0.58606 0.0
H937 H 0.82904 0.48839 0.57039 0.0
C938 C 0.82007 0.55065 0.44799 0.0
C939 C 0.80053 0.56387 0.42597 0.0
C940 C 0.77351 0.5662 0.43606 0.0
C941 C 0.76601 0.55634 0.46777 0.0
C942 C 0.78572 0.54385 0.48903 0.0
C943 C 0.8121 0.54027 0.47954 0.0
C944 C 0.82879 0.52339 0.50671 0.0
C945 C 0.84113 0.48554 0.49609 0.0
C946 C 0.85038 0.55138 0.5181 0.0
C947 C 0.80755 0.51773 0.53264 0.0
C948 C 0.78299 0.53048 0.52208 0.0
C949 C 0.7601 0.52756 0.54121 0.0
C950 C 0.76215 0.50987 0.57165 0.0
C951 C 0.78684 0.49492 0.58236 0.0
C952 C 0.80993 0.49975 0.56291 0.0
H953 H 0.45776 0.1944 0.44194 0.0
H954 H 0.4521 0.316 0.43126 0.0
H955 H 0.46256 0.32369 0.48998 0.0
H956 H 0.42982 0.18952 0.52691 0.0
H957 H 0.45208 0.15139 0.53736 0.0
H958 H 0.44027 0.15642 0.49608 0.0
H959 H 0.48938 0.1572 0.47606 0.0
H960 H 0.5014 0.15376 0.5173 0.0
H961 H 0.51208 0.19245 0.49166 0.0
H962 H 0.48108 0.31758 0.54814 0.0
H963 H 0.49622 0.29781 0.60325 0.0
H964 H 0.48839 0.18026 0.57489 0.0
C965 C 0.45752 0.22254 0.45234 0.0
C966 C 0.45375 0.25459 0.4323 0.0
C967 C 0.45426 0.29107 0.44644 0.0
C968 C 0.46061 0.29569 0.47964 0.0
C969 C 0.4659 0.26347 0.49831 0.0
C970 C 0.4635 0.22755 0.48534 0.0
C971 C 0.47104 0.19748 0.50995 0.0
C972 C 0.44686 0.17222 0.51806 0.0
C973 C 0.49489 0.17385 0.49801 0.0
C974 C 0.47876 0.222 0.53858 0.0
C975 C 0.47593 0.26001 0.53149 0.0
C976 C 0.48296 0.28785 0.55406 0.0
C977 C 0.49193 0.27642 0.58511 0.0
C978 C 0.49353 0.23754 0.59325 0.0
C979 C 0.48736 0.2102 0.56935 0.0
H980 H 0.68963 0.01498 0.0584 0.0
H981 H 0.6046 0.02963 0.07402 0.0
H982 H 0.59569 0.00293 0.01907 0.0
H983 H 0.68932 0.04537 0.97683 0.0
H984 H 0.71502 0.01301 0.96404 0.0
H985 H 0.71419 0.02949 0.00553 0.0
H986 H 0.71263 0.96028 0.02672 0.0
H987 H 0.71394 0.94356 0.98531 0.0
H988 H 0.68714 0.92863 0.01182 0.0
H989 H 0.59704 0.97427 0.96145 0.0
H990 H 0.60856 0.9487 0.90681 0.0
H991 H 0.69274 0.95999 0.92987 0.0
C992 C 0.66906 0.01188 0.05064 0.0
C993 C 0.64776 0.02374 0.07048 0.0
C994 C 0.62117 0.02026 0.05911 0.0
C995 C 0.61596 0.00525 0.02802 0.0
C996 C 0.63763 0.99458 0.00872 0.0
C997 C 0.66363 0.99797 0.0197 0.0
C998 C 0.68363 0.98701 -0.00602 0.0
C999 C 0.70158 0.02074 0.98455 0.0
C1000 C 0.7003 0.95284 0.00512 0.0
C1001 C 0.66492 0.97668 0.96668 0.0
C1002 C 0.63843 0.98074 0.97551 0.0
C1003 C 0.61772 0.9713 0.95423 0.0
C1004 C 0.6244 0.95694 0.92333 0.0
C1005 C 0.6515 0.95296 0.91411 0.0
C1006 C 0.67184 0.96341 0.936 0.0
H1007 H -0.01097 0.22582 0.93547 0.0
H1008 H -0.00134 0.34563 0.91579 0.0
H1009 H -0.01103 0.35996 0.97345 0.0
H1010 H 0.93387 0.23515 0.98824 0.0
H1011 H 0.94339 0.19821 0.01626 0.0
H1012 H 0.95395 0.19615 0.97428 0.0
H1013 H 0.00345 0.19174 -0.00785 0.0
H1014 H -0.007 0.19277 0.03421 0.0
H1015 H 0.01694 0.22689 0.01938 0.0
H1016 H 0.97583 0.36208 0.03138 0.0
H1017 H 0.96405 0.35154 0.08909 0.0
H1018 H 0.96078 0.23051 0.07223 0.0
C1019 C -0.01001 0.25487 0.94372 0.0
C1020 C -0.00492 0.28468 0.92152 0.0
C1021 C -0.00481 0.3225 0.93268 0.0
C1022 C -0.01047 0.3309 0.96526 0.0
C1023 C 0.98353 0.30113 0.98632 0.0
C1024 C 0.98401 0.26383 0.97628 0.0
C1025 C 0.97572 0.23754 0.00389 0.0
C1026 C 0.95022 0.21546 -0.00487 0.0
C1027 C -0.00135 0.21065 0.01295 0.0
C1028 C 0.97043 0.26598 0.03083 0.0
C1029 C 0.97507 0.30246 0.01997 0.0
C1030 C 0.97215 0.33368 0.04024 0.0
C1031 C 0.96529 0.32744 0.07289 0.0
C1032 C 0.9612 0.29032 0.08494 0.0
C1033 C 0.96319 0.25923 0.06344 0.0
H1034 H 0.28147 0.0813 0.90007 0.0
H1035 H 0.36219 0.09986 0.86506 0.0
H1036 H 0.37917 0.09185 0.92172 0.0
H1037 H 0.28979 0.13066 0.97857 0.0
H1038 H 0.26818 0.0976 -0.00065 0.0
H1039 H 0.26278 0.10824 0.95683 0.0
H1040 H 0.26582 0.03687 0.94266 0.0
H1041 H 0.27079 0.02608 0.98504 0.0
H1042 H 0.29482 0.01046 0.95523 0.0
H1043 H 0.38693 0.07286 0.98111 0.0
H1044 H 0.38497 0.04453 0.0363 0.0
H1045 H 0.29847 0.04436 0.03174 0.0
C1046 C 0.30275 0.08391 0.90426 0.0
C1047 C 0.32064 0.09061 0.87831 0.0
C1048 C 0.34825 0.09447 0.88476 0.0
C1049 C 0.35797 0.09022 0.91681 0.0
C1050 C 0.33964 0.08331 0.94191 0.0
C1051 C 0.31256 0.08067 0.93586 0.0
C1052 C 0.2969 0.07117 0.96627 0.0
C1053 C 0.27832 0.10388 0.97581 0.0
C1054 C 0.28119 0.03394 0.96204 0.0
C1055 C 0.31945 0.06694 -0.00963 0.0
C1056 C 0.34398 0.07441 0.97609 0.0
C1057 C 0.36782 0.06787 -0.00729 0.0
C1058 C 0.36651 0.05185 0.02408 0.0
C1059 C 0.34153 0.04266 0.03838 0.0
C1060 C 0.31781 0.05197 0.02182 0.0
H1061 H 0.96064 0.73509 0.92232 0.0
H1062 H 0.03756 0.69929 0.88476 0.0
H1063 H 0.05782 0.70922 0.93878 0.0
H1064 H 0.98516 0.80615 0.97921 0.0
H1065 H 0.96131 0.79414 0.01055 0.0
H1066 H 0.95296 0.78711 0.96823 0.0
H1067 H 0.94253 0.71648 0.97981 0.0
H1068 H 0.9506 0.72342 0.02216 0.0
H1069 H 0.96752 0.68737 -0.00094 0.0
H1070 H 0.07018 0.72368 -0.00318 0.0
H1071 H 0.07193 0.73283 0.05681 0.0
H1072 H 0.98669 0.75407 0.05762 0.0
C1073 C 0.98173 0.72953 0.92554 0.0
C1074 C -0.00249 0.71647 0.89936 0.0
C1075 C 0.02502 0.70904 0.90456 0.0
C1076 C 0.03681 0.71492 0.93508 0.0
C1077 C 0.02081 0.7278 0.96042 0.0
C1078 C -0.00623 0.7344 0.95619 0.0
C1079 C 0.98075 0.74526 0.98816 0.0
C1080 C 0.96938 0.78557 0.98642 0.0
C1081 C 0.95908 0.71641 -0.00213 0.0
C1082 C 0.00461 0.74334 0.01088 0.0
C1083 C 0.02766 0.73409 -0.00571 0.0
C1084 C 0.05225 0.73084 0.01015 0.0
C1085 C 0.05313 0.73625 0.0441 0.0
C1086 C 0.02947 0.74392 0.06165 0.0
C1087 C 0.00506 0.74801 0.04469 0.0
loop_
_geom_bond_atom_site_label_1
_geom_bond_atom_site_label_2
_geom_bond_distance
_geom_bond_site_symmetry_2
_ccdc_geom_bond_type
Mg0 O1 2.028 . S
Mg0 O7 1.986 . S
Mg0 O9 2.114 . S
Mg0 O10 2.251 . S
Mg0 O13 2.010 . S
O1 Mg0 2.028 . S
O1 C4 1.250 . S
O2 Mg3 2.028 . S
O2 C4 1.248 . S
Mg3 O2 2.028 . S
Mg3 O8 2.032 . S
Mg3 O10 2.079 . S
C4 O1 1.250 . S
C4 O2 1.248 . S
C5 O6 1.264 . S
C5 O13 1.249 . S
O6 C5 1.264 . S
O7 Mg0 1.986 . S
O7 C11 1.246 . S
O8 Mg3 2.032 . S
O8 C11 1.259 . S
O9 Mg0 2.114 . S
O9 C12 1.252 . S
O10 Mg0 2.251 . S
O10 Mg3 2.079 . S
O10 C12 1.273 . S
C11 O7 1.246 . S
C11 O8 1.259 . S
C12 O9 1.252 . S
C12 O10 1.273 . S
O13 Mg0 2.010 . S
O13 C5 1.249 . S
Mg14 O15 2.028 . S
Mg14 O21 1.986 . S
Mg14 O23 2.114 . S
Mg14 O24 2.251 . S
Mg14 O27 2.010 . S
O15 Mg14 2.028 . S
O15 C18 1.250 . S
O16 Mg17 2.028 . S
O16 C18 1.248 . S
Mg17 O16 2.028 . S
Mg17 O22 2.032 . S
Mg17 O24 2.079 . S
C18 O15 1.250 . S
C18 O16 1.248 . S
C19 O20 1.264 . S
C19 O27 1.249 . S
O20 C19 1.264 . S
O21 Mg14 1.986 . S
O21 C25 1.246 . S
O22 Mg17 2.032 . S
O22 C25 1.259 . S
O23 Mg14 2.114 . S
O23 C26 1.252 . S
O24 Mg14 2.251 . S
O24 Mg17 2.079 . S
O24 C26 1.273 . S
C25 O21 1.246 . S
C25 O22 1.259 . S
C26 O23 1.252 . S
C26 O24 1.273 . S
O27 Mg14 2.010 . S
O27 C19 1.249 . S
Mg28 O29 2.028 . S
Mg28 O35 1.986 . S
Mg28 O37 2.114 . S
Mg28 O38 2.251 . S
Mg28 O41 2.010 . S
O29 Mg28 2.028 . S
O29 C32 1.250 . S
O30 Mg31 2.028 . S
O30 C32 1.248 . S
Mg31 O30 2.028 . S
Mg31 O36 2.032 . S
Mg31 O38 2.079 . S
C32 O29 1.250 . S
C32 O30 1.248 . S
C33 O34 1.264 . S
C33 O41 1.249 . S
O34 C33 1.264 . S
O35 Mg28 1.986 . S
O35 C39 1.246 . S
O36 Mg31 2.032 . S
O36 C39 1.259 . S
O37 Mg28 2.114 . S
O37 C40 1.252 . S
O38 Mg28 2.251 . S
O38 Mg31 2.079 . S
O38 C40 1.273 . S
C39 O35 1.246 . S
C39 O36 1.259 . S
C40 O37 1.252 . S
C40 O38 1.273 . S
O41 Mg28 2.010 . S
O41 C33 1.249 . S
Mg42 O43 2.028 . S
Mg42 O49 1.986 . S
Mg42 O51 2.114 . S
Mg42 O52 2.251 . S
Mg42 O55 2.010 . S
O43 Mg42 2.028 . S
O43 C46 1.250 . S
O44 Mg45 2.028 . S
O44 C46 1.248 . S
Mg45 O44 2.028 . S
Mg45 O50 2.032 . S
Mg45 O52 2.079 . S
C46 O43 1.250 . S
C46 O44 1.248 . S
C47 O48 1.264 . S
C47 O55 1.249 . S
O48 C47 1.264 . S
O49 Mg42 1.986 . S
O49 C53 1.246 . S
O50 Mg45 2.032 . S
O50 C53 1.259 . S
O51 Mg42 2.114 . S
O51 C54 1.252 . S
O52 Mg42 2.251 . S
O52 Mg45 2.079 . S
O52 C54 1.273 . S
C53 O49 1.246 . S
C53 O50 1.259 . S
C54 O51 1.252 . S
C54 O52 1.273 . S
O55 Mg42 2.010 . S
O55 C47 1.249 . S
Mg56 O57 2.028 . S
Mg56 O63 1.986 . S
Mg56 O65 2.114 . S
Mg56 O66 2.251 . S
Mg56 O69 2.010 . S
O57 Mg56 2.028 . S
O57 C60 1.250 . S
O58 Mg59 2.028 . S
O58 C60 1.248 . S
Mg59 O58 2.028 . S
Mg59 O64 2.032 . S
Mg59 O66 2.079 . S
C60 O57 1.250 . S
C60 O58 1.248 . S
C61 O62 1.264 . S
C61 O69 1.249 . S
O62 C61 1.264 . S
O63 Mg56 1.986 . S
O63 C67 1.246 . S
O64 Mg59 2.032 . S
O64 C67 1.259 . S
O65 Mg56 2.114 . S
O65 C68 1.252 . S
O66 Mg56 2.251 . S
O66 Mg59 2.079 . S
O66 C68 1.273 . S
C67 O63 1.246 . S
C67 O64 1.259 . S
C68 O65 1.252 . S
C68 O66 1.273 . S
O69 Mg56 2.010 . S
O69 C61 1.249 . S
Mg70 O71 2.028 . S
Mg70 O77 1.986 . S
Mg70 O79 2.114 . S
Mg70 O80 2.251 . S
Mg70 O83 2.010 . S
O71 Mg70 2.028 . S
O71 C74 1.250 . S
O72 Mg73 2.028 . S
O72 C74 1.248 . S
Mg73 O72 2.028 . S
Mg73 O78 2.032 . S
Mg73 O80 2.079 . S
C74 O71 1.250 . S
C74 O72 1.248 . S
C75 O76 1.264 . S
C75 O83 1.249 . S
O76 C75 1.264 . S
O77 Mg70 1.986 . S
O77 C81 1.246 . S
O78 Mg73 2.032 . S
O78 C81 1.259 . S
O79 Mg70 2.114 . S
O79 C82 1.252 . S
O80 Mg70 2.251 . S
O80 Mg73 2.079 . S
O80 C82 1.273 . S
C81 O77 1.246 . S
C81 O78 1.259 . S
C82 O79 1.252 . S
C82 O80 1.273 . S
O83 Mg70 2.010 . S
O83 C75 1.249 . S
Mg84 O85 2.028 . S
Mg84 O91 1.986 . S
Mg84 O93 2.114 . S
Mg84 O94 2.251 . S
Mg84 O97 2.010 . S
O85 Mg84 2.028 . S
O85 C88 1.250 . S
O86 Mg87 2.028 . S
O86 C88 1.248 . S
Mg87 O86 2.028 . S
Mg87 O92 2.032 . S
Mg87 O94 2.079 . S
C88 O85 1.250 . S
C88 O86 1.248 . S
C89 O90 1.264 . S
C89 O97 1.249 . S
O90 C89 1.264 . S
O91 Mg84 1.986 . S
O91 C95 1.246 . S
O92 Mg87 2.032 . S
O92 C95 1.259 . S
O93 Mg84 2.114 . S
O93 C96 1.252 . S
O94 Mg84 2.251 . S
O94 Mg87 2.079 . S
O94 C96 1.273 . S
C95 O91 1.246 . S
C95 O92 1.259 . S
C96 O93 1.252 . S
C96 O94 1.273 . S
O97 Mg84 2.010 . S
O97 C89 1.249 . S
Mg98 O99 2.028 . S
Mg98 O105 1.986 . S
Mg98 O107 2.114 . S
Mg98 O108 2.251 . S
Mg98 O111 2.010 . S
O99 Mg98 2.028 . S
O99 C102 1.250 . S
O100 Mg101 2.028 . S
O100 C102 1.248 . S
Mg101 O100 2.028 . S
Mg101 O106 2.032 . S
Mg101 O108 2.079 . S
C102 O99 1.250 . S
C102 O100 1.248 . S
C103 O104 1.264 . S
C103 O111 1.249 . S
O104 C103 1.264 . S
O105 Mg98 1.986 . S
O105 C109 1.246 . S
O106 Mg101 2.032 . S
O106 C109 1.259 . S
O107 Mg98 2.114 . S
O107 C110 1.252 . S
O108 Mg98 2.251 . S
O108 Mg101 2.079 . S
O108 C110 1.273 . S
C109 O105 1.246 . S
C109 O106 1.259 . S
C110 O107 1.252 . S
C110 O108 1.273 . S
O111 Mg98 2.010 . S
O111 C103 1.249 . S
Mg112 O113 2.028 . S
Mg112 O119 1.986 . S
Mg112 O121 2.114 . S
Mg112 O122 2.251 . S
Mg112 O125 2.010 . S
O113 Mg112 2.028 . S
O113 C116 1.250 . S
O114 Mg115 2.028 1_545 S
O114 C116 1.248 1_545 S
Mg115 O114 2.028 1_565 S
Mg115 O120 2.032 . S
Mg115 O122 2.079 . S
C116 O113 1.250 . S
C116 O114 1.248 1_565 S
C117 O118 1.264 . S
C117 O125 1.249 . S
O118 C117 1.264 . S
O119 Mg112 1.986 . S
O119 C123 1.246 . S
O120 Mg115 2.032 . S
O120 C123 1.259 . S
O121 Mg112 2.114 . S
O121 C124 1.252 . S
O122 Mg112 2.251 . S
O122 Mg115 2.079 . S
O122 C124 1.273 . S
C123 O119 1.246 . S
C123 O120 1.259 . S
C124 O121 1.252 . S
C124 O122 1.273 . S
O125 Mg112 2.010 . S
O125 C117 1.249 . S
Mg126 O127 2.028 . S
Mg126 O133 1.986 . S
Mg126 O135 2.114 . S
Mg126 O136 2.251 . S
Mg126 O139 2.010 . S
O127 Mg126 2.028 . S
O127 C130 1.250 . S
O128 Mg129 2.028 . S
O128 C130 1.248 . S
Mg129 O128 2.028 . S
Mg129 O134 2.032 . S
Mg129 O136 2.079 . S
C130 O127 1.250 . S
C130 O128 1.248 . S
C131 O132 1.264 . S
C131 O139 1.249 . S
O132 C131 1.264 . S
O133 Mg126 1.986 . S
O133 C137 1.246 . S
O134 Mg129 2.032 . S
O134 C137 1.259 . S
O135 Mg126 2.114 . S
O135 C138 1.252 . S
O136 Mg126 2.251 . S
O136 Mg129 2.079 . S
O136 C138 1.273 . S
C137 O133 1.246 . S
C137 O134 1.259 . S
C138 O135 1.252 . S
C138 O136 1.273 . S
O139 Mg126 2.010 . S
O139 C131 1.249 . S
Mg140 O141 2.028 . S
Mg140 O147 1.986 . S
Mg140 O149 2.114 . S
Mg140 O150 2.251 . S
Mg140 O153 2.010 . S
O141 Mg140 2.028 . S
O141 C144 1.250 . S
O142 Mg143 2.028 1_565 S
O142 C144 1.248 1_565 S
Mg143 O142 2.028 1_545 S
Mg143 O148 2.032 . S
Mg143 O150 2.079 . S
C144 O141 1.250 . S
C144 O142 1.248 1_545 S
C145 O146 1.264 . S
C145 O153 1.249 . S
O146 C145 1.264 . S
O147 Mg140 1.986 . S
O147 C151 1.246 . S
O148 Mg143 2.032 . S
O148 C151 1.259 . S
O149 Mg140 2.114 . S
O149 C152 1.252 . S
O150 Mg140 2.251 . S
O150 Mg143 2.079 . S
O150 C152 1.273 . S
C151 O147 1.246 . S
C151 O148 1.259 . S
C152 O149 1.252 . S
C152 O150 1.273 . S
O153 Mg140 2.010 . S
O153 C145 1.249 . S
Mg154 O155 2.028 . S
Mg154 O161 1.986 . S
Mg154 O163 2.114 . S
Mg154 O164 2.251 . S
Mg154 O167 2.010 . S
O155 Mg154 2.028 . S
O155 C158 1.250 . S
O156 Mg157 2.028 . S
O156 C158 1.248 . S
Mg157 O156 2.028 . S
Mg157 O162 2.032 . S
Mg157 O164 2.079 . S
C158 O155 1.250 . S
C158 O156 1.248 . S
C159 O160 1.264 . S
C159 O167 1.249 . S
O160 C159 1.264 . S
O161 Mg154 1.986 . S
O161 C165 1.246 . S
O162 Mg157 2.032 . S
O162 C165 1.259 . S
O163 Mg154 2.114 . S
O163 C166 1.252 . S
O164 Mg154 2.251 . S
O164 Mg157 2.079 . S
O164 C166 1.273 . S
C165 O161 1.246 . S
C165 O162 1.259 . S
C166 O163 1.252 . S
C166 O164 1.273 . S
O167 Mg154 2.010 . S
O167 C159 1.249 . S
Mg168 O169 2.028 . S
Mg168 O175 1.986 . S
Mg168 O177 2.114 . S
Mg168 O178 2.251 . S
Mg168 O181 2.010 . S
O169 Mg168 2.028 . S
O169 C172 1.250 . S
O170 Mg171 2.028 1_565 S
O170 C172 1.248 1_565 S
Mg171 O170 2.028 1_545 S
Mg171 O176 2.032 . S
Mg171 O178 2.079 . S
C172 O169 1.250 . S
C172 O170 1.248 1_545 S
C173 O174 1.264 . S
C173 O181 1.249 . S
O174 C173 1.264 . S
O175 Mg168 1.986 . S
O175 C179 1.246 . S
O176 Mg171 2.032 . S
O176 C179 1.259 . S
O177 Mg168 2.114 . S
O177 C180 1.252 . S
O178 Mg168 2.251 . S
O178 Mg171 2.079 . S
O178 C180 1.273 . S
C179 O175 1.246 . S
C179 O176 1.259 . S
C180 O177 1.252 . S
C180 O178 1.273 . S
O181 Mg168 2.010 . S
O181 C173 1.249 . S
Mg182 O183 2.028 . S
Mg182 O189 1.986 . S
Mg182 O191 2.114 . S
Mg182 O192 2.251 . S
Mg182 O195 2.010 . S
O183 Mg182 2.028 . S
O183 C186 1.250 . S
O184 Mg185 2.028 . S
O184 C186 1.248 . S
Mg185 O184 2.028 . S
Mg185 O190 2.032 . S
Mg185 O192 2.079 . S
C186 O183 1.250 . S
C186 O184 1.248 . S
C187 O188 1.264 . S
C187 O195 1.249 . S
O188 C187 1.264 . S
O189 Mg182 1.986 . S
O189 C193 1.246 . S
O190 Mg185 2.032 . S
O190 C193 1.259 . S
O191 Mg182 2.114 . S
O191 C194 1.252 . S
O192 Mg182 2.251 . S
O192 Mg185 2.079 . S
O192 C194 1.273 . S
C193 O189 1.246 . S
C193 O190 1.259 . S
C194 O191 1.252 . S
C194 O192 1.273 . S
O195 Mg182 2.010 . S
O195 C187 1.249 . S
Mg196 O197 2.028 . S
Mg196 O203 1.986 . S
Mg196 O205 2.114 . S
Mg196 O206 2.251 . S
Mg196 O209 2.010 . S
O197 Mg196 2.028 . S
O197 C200 1.250 . S
O198 Mg199 2.028 1_545 S
O198 C200 1.248 1_545 S
Mg199 O198 2.028 1_565 S
Mg199 O204 2.032 . S
Mg199 O206 2.079 . S
C200 O197 1.250 . S
C200 O198 1.248 1_565 S
C201 O202 1.264 . S
C201 O209 1.249 . S
O202 C201 1.264 . S
O203 Mg196 1.986 . S
O203 C207 1.246 . S
O204 Mg199 2.032 . S
O204 C207 1.259 . S
O205 Mg196 2.114 . S
O205 C208 1.252 . S
O206 Mg196 2.251 . S
O206 Mg199 2.079 . S
O206 C208 1.273 . S
C207 O203 1.246 . S
C207 O204 1.259 . S
C208 O205 1.252 . S
C208 O206 1.273 . S
O209 Mg196 2.010 . S
O209 C201 1.249 . S
Mg210 O211 2.028 . S
Mg210 O217 1.986 . S
Mg210 O219 2.114 . S
Mg210 O220 2.251 . S
Mg210 O223 2.010 . S
O211 Mg210 2.028 . S
O211 C214 1.250 . S
O212 Mg213 2.028 . S
O212 C214 1.248 . S
Mg213 O212 2.028 . S
Mg213 O218 2.032 . S
Mg213 O220 2.079 . S
C214 O211 1.250 . S
C214 O212 1.248 . S
C215 O216 1.264 . S
C215 O223 1.249 . S
O216 C215 1.264 . S
O217 Mg210 1.986 . S
O217 C221 1.246 . S
O218 Mg213 2.032 . S
O218 C221 1.259 . S
O219 Mg210 2.114 . S
O219 C222 1.252 . S
O220 Mg210 2.251 . S
O220 Mg213 2.079 . S
O220 C222 1.273 . S
C221 O217 1.246 . S
C221 O218 1.259 . S
C222 O219 1.252 . S
C222 O220 1.273 . S
O223 Mg210 2.010 . S
O223 C215 1.249 . S
H224 C236 0.930 . S
H225 C238 0.930 . S
H226 C239 0.930 . S
H227 C243 0.959 . S
H228 C243 0.959 . S
H229 C243 0.961 . S
H230 C244 0.960 . S
H231 C244 0.961 . S
H232 C244 0.959 . S
H233 C247 0.929 . S
H234 C248 0.931 . S
H235 C250 0.930 . S
C236 H224 0.930 . S
C236 C237 1.399 . S
C236 C241 1.399 . S
C237 C236 1.399 . S
C237 C238 1.376 . S
C238 H225 0.930 . S
C238 C237 1.376 . S
C238 C239 1.388 . S
C239 H226 0.930 . S
C239 C238 1.388 . S
C239 C240 1.390 . S
C240 C239 1.390 . S
C240 C241 1.394 . S
C240 C246 1.465 . S
C241 C236 1.399 . S
C241 C240 1.394 . S
C241 C242 1.516 . S
C242 C241 1.516 . S
C242 C243 1.502 . S
C242 C244 1.561 . S
C242 C245 1.526 . S
C243 H227 0.959 . S
C243 H228 0.959 . S
C243 H229 0.961 . S
C243 C242 1.502 . S
C244 H230 0.960 . S
C244 H231 0.961 . S
C244 H232 0.959 . S
C244 C242 1.561 . S
C245 C242 1.526 . S
C245 C246 1.396 . S
C245 C250 1.390 . S
C246 C240 1.465 . S
C246 C245 1.396 . S
C246 C247 1.399 . S
C247 H233 0.929 . S
C247 C246 1.399 . S
C247 C248 1.385 . S
C248 H234 0.931 . S
C248 C247 1.385 . S
C248 C249 1.389 . S
C249 C248 1.389 . S
C249 C250 1.387 . S
C250 H235 0.930 . S
C250 C245 1.390 . S
C250 C249 1.387 . S
H251 C263 0.930 . S
H252 C265 0.930 . S
H253 C266 0.930 . S
H254 C270 0.959 . S
H255 C270 0.959 . S
H256 C270 0.961 . S
H257 C271 0.960 . S
H258 C271 0.961 . S
H259 C271 0.959 . S
H260 C274 0.929 . S
H261 C275 0.931 . S
H262 C277 0.930 . S
C263 H251 0.930 . S
C263 C264 1.399 . S
C263 C268 1.399 . S
C264 C263 1.399 . S
C264 C265 1.376 . S
C265 H252 0.930 . S
C265 C264 1.376 . S
C265 C266 1.388 . S
C266 H253 0.930 . S
C266 C265 1.388 . S
C266 C267 1.390 . S
C267 C266 1.390 . S
C267 C268 1.394 . S
C267 C273 1.465 . S
C268 C263 1.399 . S
C268 C267 1.394 . S
C268 C269 1.516 . S
C269 C268 1.516 . S
C269 C270 1.502 . S
C269 C271 1.561 . S
C269 C272 1.526 . S
C270 H254 0.959 . S
C270 H255 0.959 . S
C270 H256 0.961 . S
C270 C269 1.502 . S
C271 H257 0.960 . S
C271 H258 0.961 . S
C271 H259 0.959 . S
C271 C269 1.561 . S
C272 C269 1.526 . S
C272 C273 1.396 . S
C272 C277 1.390 . S
C273 C267 1.465 . S
C273 C272 1.396 . S
C273 C274 1.399 . S
C274 H260 0.929 . S
C274 C273 1.399 . S
C274 C275 1.385 . S
C275 H261 0.931 . S
C275 C274 1.385 . S
C275 C276 1.389 . S
C276 C275 1.389 . S
C276 C277 1.387 . S
C277 H262 0.930 . S
C277 C272 1.390 . S
C277 C276 1.387 . S
H278 C290 0.930 . S
H279 C292 0.930 . S
H280 C293 0.930 . S
H281 C297 0.959 . S
H282 C297 0.959 . S
H283 C297 0.961 . S
H284 C298 0.960 . S
H285 C298 0.961 . S
H286 C298 0.959 . S
H287 C301 0.929 . S
H288 C302 0.931 . S
H289 C304 0.930 . S
C290 H278 0.930 . S
C290 C291 1.399 . S
C290 C295 1.399 . S
C291 C290 1.399 . S
C291 C292 1.376 . S
C292 H279 0.930 . S
C292 C291 1.376 . S
C292 C293 1.388 . S
C293 H280 0.930 . S
C293 C292 1.388 . S
C293 C294 1.390 . S
C294 C293 1.390 . S
C294 C295 1.394 . S
C294 C300 1.465 . S
C295 C290 1.399 . S
C295 C294 1.394 . S
C295 C296 1.516 . S
C296 C295 1.516 . S
C296 C297 1.502 . S
C296 C298 1.561 . S
C296 C299 1.526 . S
C297 H281 0.959 . S
C297 H282 0.959 . S
C297 H283 0.961 . S
C297 C296 1.502 . S
C298 H284 0.960 . S
C298 H285 0.961 . S
C298 H286 0.959 . S
C298 C296 1.561 . S
C299 C296 1.526 . S
C299 C300 1.396 . S
C299 C304 1.390 . S
C300 C294 1.465 . S
C300 C299 1.396 . S
C300 C301 1.399 . S
C301 H287 0.929 . S
C301 C300 1.399 . S
C301 C302 1.385 . S
C302 H288 0.931 . S
C302 C301 1.385 . S
C302 C303 1.389 . S
C303 C302 1.389 . S
C303 C304 1.387 . S
C304 H289 0.930 . S
C304 C299 1.390 . S
C304 C303 1.387 . S
H305 C317 0.930 . S
H306 C319 0.930 . S
H307 C320 0.930 . S
H308 C324 0.959 . S
H309 C324 0.959 . S
H310 C324 0.961 . S
H311 C325 0.960 . S
H312 C325 0.961 . S
H313 C325 0.959 . S
H314 C328 0.929 . S
H315 C329 0.931 . S
H316 C331 0.930 . S
C317 H305 0.930 . S
C317 C318 1.399 . S
C317 C322 1.399 . S
C318 C317 1.399 . S
C318 C319 1.376 . S
C319 H306 0.930 . S
C319 C318 1.376 . S
C319 C320 1.388 . S
C320 H307 0.930 . S
C320 C319 1.388 . S
C320 C321 1.390 . S
C321 C320 1.390 . S
C321 C322 1.394 . S
C321 C327 1.465 . S
C322 C317 1.399 . S
C322 C321 1.394 . S
C322 C323 1.516 . S
C323 C322 1.516 . S
C323 C324 1.502 . S
C323 C325 1.561 . S
C323 C326 1.526 . S
C324 H308 0.959 . S
C324 H309 0.959 . S
C324 H310 0.961 . S
C324 C323 1.502 . S
C325 H311 0.960 . S
C325 H312 0.961 . S
C325 H313 0.959 . S
C325 C323 1.561 . S
C326 C323 1.526 . S
C326 C327 1.396 . S
C326 C331 1.390 . S
C327 C321 1.465 . S
C327 C326 1.396 . S
C327 C328 1.399 . S
C328 H314 0.929 . S
C328 C327 1.399 . S
C328 C329 1.385 . S
C329 H315 0.931 . S
C329 C328 1.385 . S
C329 C330 1.389 . S
C330 C329 1.389 . S
C330 C331 1.387 . S
C331 H316 0.930 . S
C331 C326 1.390 . S
C331 C330 1.387 . S
H332 C344 0.930 . S
H333 C346 0.930 . S
H334 C347 0.930 . S
H335 C351 0.959 . S
H336 C351 0.959 . S
H337 C351 0.961 . S
H338 C352 0.960 . S
H339 C352 0.961 . S
H340 C352 0.959 . S
H341 C355 0.929 . S
H342 C356 0.931 . S
H343 C358 0.930 . S
C344 H332 0.930 . S
C344 C345 1.399 . S
C344 C349 1.399 . S
C345 C344 1.399 . S
C345 C346 1.376 . S
C346 H333 0.930 . S
C346 C345 1.376 . S
C346 C347 1.388 . S
C347 H334 0.930 . S
C347 C346 1.388 . S
C347 C348 1.390 . S
C348 C347 1.390 . S
C348 C349 1.394 . S
C348 C354 1.465 . S
C349 C344 1.399 . S
C349 C348 1.394 . S
C349 C350 1.516 . S
C350 C349 1.516 . S
C350 C351 1.502 . S
C350 C352 1.561 . S
C350 C353 1.526 . S
C351 H335 0.959 . S
C351 H336 0.959 . S
C351 H337 0.961 . S
C351 C350 1.502 . S
C352 H338 0.960 . S
C352 H339 0.961 . S
C352 H340 0.959 . S
C352 C350 1.561 . S
C353 C350 1.526 . S
C353 C354 1.396 . S
C353 C358 1.390 . S
C354 C348 1.465 . S
C354 C353 1.396 . S
C354 C355 1.399 . S
C355 H341 0.929 . S
C355 C354 1.399 . S
C355 C356 1.385 . S
C356 H342 0.931 . S
C356 C355 1.385 . S
C356 C357 1.389 . S
C357 C356 1.389 . S
C357 C358 1.387 . S
C358 H343 0.930 . S
C358 C353 1.390 . S
C358 C357 1.387 . S
H359 C371 0.930 . S
H360 C373 0.930 . S
H361 C374 0.930 . S
H362 C378 0.959 . S
H363 C378 0.959 . S
H364 C378 0.961 . S
H365 C379 0.960 . S
H366 C379 0.961 . S
H367 C379 0.959 . S
H368 C382 0.929 . S
H369 C383 0.931 . S
H370 C385 0.930 . S
C371 H359 0.930 . S
C371 C372 1.399 . S
C371 C376 1.399 . S
C372 C371 1.399 . S
C372 C373 1.376 . S
C373 H360 0.930 . S
C373 C372 1.376 . S
C373 C374 1.388 . S
C374 H361 0.930 . S
C374 C373 1.388 . S
C374 C375 1.390 . S
C375 C374 1.390 . S
C375 C376 1.394 . S
C375 C381 1.465 . S
C376 C371 1.399 . S
C376 C375 1.394 . S
C376 C377 1.516 . S
C377 C376 1.516 . S
C377 C378 1.502 . S
C377 C379 1.561 . S
C377 C380 1.526 . S
C378 H362 0.959 . S
C378 H363 0.959 . S
C378 H364 0.961 . S
C378 C377 1.502 . S
C379 H365 0.960 . S
C379 H366 0.961 . S
C379 H367 0.959 . S
C379 C377 1.561 . S
C380 C377 1.526 . S
C380 C381 1.396 . S
C380 C385 1.390 . S
C381 C375 1.465 . S
C381 C380 1.396 . S
C381 C382 1.399 . S
C382 H368 0.929 . S
C382 C381 1.399 . S
C382 C383 1.385 . S
C383 H369 0.931 . S
C383 C382 1.385 . S
C383 C384 1.389 . S
C384 C383 1.389 . S
C384 C385 1.387 . S
C385 H370 0.930 . S
C385 C380 1.390 . S
C385 C384 1.387 . S
H386 C398 0.930 . S
H387 C400 0.930 . S
H388 C401 0.930 . S
H389 C405 0.959 . S
H390 C405 0.959 . S
H391 C405 0.961 . S
H392 C406 0.960 . S
H393 C406 0.961 . S
H394 C406 0.959 . S
H395 C409 0.929 . S
H396 C410 0.931 . S
H397 C412 0.930 . S
C398 H386 0.930 . S
C398 C399 1.399 . S
C398 C403 1.399 . S
C399 C398 1.399 . S
C399 C400 1.376 . S
C400 H387 0.930 . S
C400 C399 1.376 . S
C400 C401 1.388 . S
C401 H388 0.930 . S
C401 C400 1.388 . S
C401 C402 1.390 . S
C402 C401 1.390 . S
C402 C403 1.394 . S
C402 C408 1.465 . S
C403 C398 1.399 . S
C403 C402 1.394 . S
C403 C404 1.516 . S
C404 C403 1.516 . S
C404 C405 1.502 . S
C404 C406 1.561 . S
C404 C407 1.526 . S
C405 H389 0.959 . S
C405 H390 0.959 . S
C405 H391 0.961 . S
C405 C404 1.502 . S
C406 H392 0.960 . S
C406 H393 0.961 . S
C406 H394 0.959 . S
C406 C404 1.561 . S
C407 C404 1.526 . S
C407 C408 1.396 . S
C407 C412 1.390 . S
C408 C402 1.465 . S
C408 C407 1.396 . S
C408 C409 1.399 . S
C409 H395 0.929 . S
C409 C408 1.399 . S
C409 C410 1.385 . S
C410 H396 0.931 . S
C410 C409 1.385 . S
C410 C411 1.389 . S
C411 C410 1.389 . S
C411 C412 1.387 . S
C412 H397 0.930 . S
C412 C407 1.390 . S
C412 C411 1.387 . S
H413 C425 0.930 . S
H414 C427 0.930 . S
H415 C428 0.930 . S
H416 C432 0.959 . S
H417 C432 0.959 . S
H418 C432 0.961 . S
H419 C433 0.960 . S
H420 C433 0.961 . S
H421 C433 0.959 . S
H422 C436 0.929 . S
H423 C437 0.931 . S
H424 C439 0.930 . S
C425 H413 0.930 . S
C425 C426 1.399 . S
C425 C430 1.399 . S
C426 C425 1.399 . S
C426 C427 1.376 . S
C427 H414 0.930 . S
C427 C426 1.376 . S
C427 C428 1.388 . S
C428 H415 0.930 . S
C428 C427 1.388 . S
C428 C429 1.390 . S
C429 C428 1.390 . S
C429 C430 1.394 . S
C429 C435 1.465 . S
C430 C425 1.399 . S
C430 C429 1.394 . S
C430 C431 1.516 . S
C431 C430 1.516 . S
C431 C432 1.502 . S
C431 C433 1.561 . S
C431 C434 1.526 . S
C432 H416 0.959 . S
C432 H417 0.959 . S
C432 H418 0.961 . S
C432 C431 1.502 . S
C433 H419 0.960 . S
C433 H420 0.961 . S
C433 H421 0.959 . S
C433 C431 1.561 . S
C434 C431 1.526 . S
C434 C435 1.396 . S
C434 C439 1.390 . S
C435 C429 1.465 . S
C435 C434 1.396 . S
C435 C436 1.399 . S
C436 H422 0.929 . S
C436 C435 1.399 . S
C436 C437 1.385 . S
C437 H423 0.931 . S
C437 C436 1.385 . S
C437 C438 1.389 . S
C438 C437 1.389 . S
C438 C439 1.387 . S
C439 H424 0.930 . S
C439 C434 1.390 . S
C439 C438 1.387 . S
H440 C452 0.930 . S
H441 C454 0.930 . S
H442 C455 0.930 . S
H443 C459 0.959 . S
H444 C459 0.959 . S
H445 C459 0.961 . S
H446 C460 0.960 . S
H447 C460 0.961 . S
H448 C460 0.959 . S
H449 C463 0.929 . S
H450 C464 0.931 . S
H451 C466 0.930 . S
C452 H440 0.930 . S
C452 C453 1.399 . S
C452 C457 1.399 . S
C453 C452 1.399 . S
C453 C454 1.376 . S
C454 H441 0.930 . S
C454 C453 1.376 . S
C454 C455 1.388 . S
C455 H442 0.930 . S
C455 C454 1.388 . S
C455 C456 1.390 . S
C456 C455 1.390 . S
C456 C457 1.394 . S
C456 C462 1.465 . S
C457 C452 1.399 . S
C457 C456 1.394 . S
C457 C458 1.516 . S
C458 C457 1.516 . S
C458 C459 1.502 . S
C458 C460 1.561 . S
C458 C461 1.526 . S
C459 H443 0.959 . S
C459 H444 0.959 . S
C459 H445 0.961 . S
C459 C458 1.502 . S
C460 H446 0.960 . S
C460 H447 0.961 . S
C460 H448 0.959 . S
C460 C458 1.561 . S
C461 C458 1.526 . S
C461 C462 1.396 . S
C461 C466 1.390 . S
C462 C456 1.465 . S
C462 C461 1.396 . S
C462 C463 1.399 . S
C463 H449 0.929 . S
C463 C462 1.399 . S
C463 C464 1.385 . S
C464 H450 0.931 . S
C464 C463 1.385 . S
C464 C465 1.389 . S
C465 C464 1.389 . S
C465 C466 1.387 . S
C466 H451 0.930 . S
C466 C461 1.390 . S
C466 C465 1.387 . S
H467 C479 0.930 . S
H468 C481 0.930 . S
H469 C482 0.930 . S
H470 C486 0.959 . S
H471 C486 0.959 . S
H472 C486 0.961 . S
H473 C487 0.960 . S
H474 C487 0.961 . S
H475 C487 0.959 . S
H476 C490 0.929 . S
H477 C491 0.931 . S
H478 C493 0.930 . S
C479 H467 0.930 . S
C479 C480 1.399 . S
C479 C484 1.399 . S
C480 C479 1.399 . S
C480 C481 1.376 . S
C481 H468 0.930 . S
C481 C480 1.376 . S
C481 C482 1.388 . S
C482 H469 0.930 . S
C482 C481 1.388 . S
C482 C483 1.390 . S
C483 C482 1.390 . S
C483 C484 1.394 . S
C483 C489 1.465 . S
C484 C479 1.399 . S
C484 C483 1.394 . S
C484 C485 1.516 . S
C485 C484 1.516 . S
C485 C486 1.502 . S
C485 C487 1.561 . S
C485 C488 1.526 . S
C486 H470 0.959 . S
C486 H471 0.959 . S
C486 H472 0.961 . S
C486 C485 1.502 . S
C487 H473 0.960 . S
C487 H474 0.961 . S
C487 H475 0.959 . S
C487 C485 1.561 . S
C488 C485 1.526 . S
C488 C489 1.396 . S
C488 C493 1.390 . S
C489 C483 1.465 . S
C489 C488 1.396 . S
C489 C490 1.399 . S
C490 H476 0.929 . S
C490 C489 1.399 . S
C490 C491 1.385 . S
C491 H477 0.931 . S
C491 C490 1.385 . S
C491 C492 1.389 . S
C492 C491 1.389 . S
C492 C493 1.387 . S
C493 H478 0.930 . S
C493 C488 1.390 . S
C493 C492 1.387 . S
H494 C506 0.930 . S
H495 C508 0.930 . S
H496 C509 0.930 . S
H497 C513 0.959 . S
H498 C513 0.959 . S
H499 C513 0.961 . S
H500 C514 0.960 . S
H501 C514 0.961 . S
H502 C514 0.959 . S
H503 C517 0.929 . S
H504 C518 0.931 . S
H505 C520 0.930 . S
C506 H494 0.930 . S
C506 C507 1.399 . S
C506 C511 1.399 . S
C507 C506 1.399 . S
C507 C508 1.376 . S
C508 H495 0.930 . S
C508 C507 1.376 . S
C508 C509 1.388 . S
C509 H496 0.930 . S
C509 C508 1.388 . S
C509 C510 1.390 . S
C510 C509 1.390 . S
C510 C511 1.394 . S
C510 C516 1.465 . S
C511 C506 1.399 . S
C511 C510 1.394 . S
C511 C512 1.516 . S
C512 C511 1.516 . S
C512 C513 1.502 . S
C512 C514 1.561 . S
C512 C515 1.526 . S
C513 H497 0.959 . S
C513 H498 0.959 . S
C513 H499 0.961 . S
C513 C512 1.502 . S
C514 H500 0.960 . S
C514 H501 0.961 . S
C514 H502 0.959 . S
C514 C512 1.561 . S
C515 C512 1.526 . S
C515 C516 1.396 . S
C515 C520 1.390 . S
C516 C510 1.465 . S
C516 C515 1.396 . S
C516 C517 1.399 . S
C517 H503 0.929 . S
C517 C516 1.399 . S
C517 C518 1.385 . S
C518 H504 0.931 . S
C518 C517 1.385 . S
C518 C519 1.389 . S
C519 C518 1.389 . S
C519 C520 1.387 . S
C520 H505 0.930 . S
C520 C515 1.390 . S
C520 C519 1.387 . S
H521 C533 0.930 . S
H522 C535 0.930 . S
H523 C536 0.930 . S
H524 C540 0.959 . S
H525 C540 0.959 . S
H526 C540 0.961 . S
H527 C541 0.960 . S
H528 C541 0.961 . S
H529 C541 0.959 . S
H530 C544 0.929 . S
H531 C545 0.931 . S
H532 C547 0.930 . S
C533 H521 0.930 . S
C533 C534 1.399 . S
C533 C538 1.399 . S
C534 C533 1.399 . S
C534 C535 1.376 . S
C535 H522 0.930 . S
C535 C534 1.376 . S
C535 C536 1.388 . S
C536 H523 0.930 . S
C536 C535 1.388 . S
C536 C537 1.390 . S
C537 C536 1.390 . S
C537 C538 1.394 . S
C537 C543 1.465 . S
C538 C533 1.399 . S
C538 C537 1.394 . S
C538 C539 1.516 . S
C539 C538 1.516 . S
C539 C540 1.502 . S
C539 C541 1.561 . S
C539 C542 1.526 . S
C540 H524 0.959 . S
C540 H525 0.959 . S
C540 H526 0.961 . S
C540 C539 1.502 . S
C541 H527 0.960 . S
C541 H528 0.961 . S
C541 H529 0.959 . S
C541 C539 1.561 . S
C542 C539 1.526 . S
C542 C543 1.396 . S
C542 C547 1.390 . S
C543 C537 1.465 . S
C543 C542 1.396 . S
C543 C544 1.399 . S
C544 H530 0.929 . S
C544 C543 1.399 . S
C544 C545 1.385 . S
C545 H531 0.931 . S
C545 C544 1.385 . S
C545 C546 1.389 . S
C546 C545 1.389 . S
C546 C547 1.387 . S
C547 H532 0.930 . S
C547 C542 1.390 . S
C547 C546 1.387 . S
H548 C560 0.930 . S
H549 C562 0.930 . S
H550 C563 0.930 . S
H551 C567 0.959 . S
H552 C567 0.959 . S
H553 C567 0.961 . S
H554 C568 0.960 . S
H555 C568 0.961 . S
H556 C568 0.959 . S
H557 C571 0.929 . S
H558 C572 0.931 . S
H559 C574 0.930 . S
C560 H548 0.930 . S
C560 C561 1.399 . S
C560 C565 1.399 . S
C561 C560 1.399 . S
C561 C562 1.376 . S
C562 H549 0.930 . S
C562 C561 1.376 . S
C562 C563 1.388 . S
C563 H550 0.930 . S
C563 C562 1.388 . S
C563 C564 1.390 . S
C564 C563 1.390 . S
C564 C565 1.394 . S
C564 C570 1.465 . S
C565 C560 1.399 . S
C565 C564 1.394 . S
C565 C566 1.516 . S
C566 C565 1.516 . S
C566 C567 1.502 . S
C566 C568 1.561 . S
C566 C569 1.526 . S
C567 H551 0.959 . S
C567 H552 0.959 . S
C567 H553 0.961 . S
C567 C566 1.502 . S
C568 H554 0.960 . S
C568 H555 0.961 . S
C568 H556 0.959 . S
C568 C566 1.561 . S
C569 C566 1.526 . S
C569 C570 1.396 . S
C569 C574 1.390 . S
C570 C564 1.465 . S
C570 C569 1.396 . S
C570 C571 1.399 . S
C571 H557 0.929 . S
C571 C570 1.399 . S
C571 C572 1.385 . S
C572 H558 0.931 . S
C572 C571 1.385 . S
C572 C573 1.389 . S
C573 C572 1.389 . S
C573 C574 1.387 . S
C574 H559 0.930 . S
C574 C569 1.390 . S
C574 C573 1.387 . S
H575 C587 0.930 . S
H576 C589 0.930 . S
H577 C590 0.930 . S
H578 C594 0.959 . S
H579 C594 0.959 . S
H580 C594 0.961 . S
H581 C595 0.960 . S
H582 C595 0.961 . S
H583 C595 0.959 . S
H584 C598 0.929 . S
H585 C599 0.931 . S
H586 C601 0.930 . S
C587 H575 0.930 . S
C587 C588 1.399 . S
C587 C592 1.399 . S
C588 C587 1.399 . S
C588 C589 1.376 . S
C589 H576 0.930 . S
C589 C588 1.376 . S
C589 C590 1.388 . S
C590 H577 0.930 . S
C590 C589 1.388 . S
C590 C591 1.390 . S
C591 C590 1.390 . S
C591 C592 1.394 . S
C591 C597 1.465 . S
C592 C587 1.399 . S
C592 C591 1.394 . S
C592 C593 1.516 . S
C593 C592 1.516 . S
C593 C594 1.502 . S
C593 C595 1.561 . S
C593 C596 1.526 . S
C594 H578 0.959 . S
C594 H579 0.959 . S
C594 H580 0.961 . S
C594 C593 1.502 . S
C595 H581 0.960 . S
C595 H582 0.961 . S
C595 H583 0.959 . S
C595 C593 1.561 . S
C596 C593 1.526 . S
C596 C597 1.396 . S
C596 C601 1.390 . S
C597 C591 1.465 . S
C597 C596 1.396 . S
C597 C598 1.399 . S
C598 H584 0.929 . S
C598 C597 1.399 . S
C598 C599 1.385 . S
C599 H585 0.931 . S
C599 C598 1.385 . S
C599 C600 1.389 . S
C600 C599 1.389 . S
C600 C601 1.387 . S
C601 H586 0.930 . S
C601 C596 1.390 . S
C601 C600 1.387 . S
H602 C614 0.930 . S
H603 C616 0.930 . S
H604 C617 0.930 . S
H605 C621 0.959 . S
H606 C621 0.959 . S
H607 C621 0.961 . S
H608 C622 0.960 . S
H609 C622 0.961 . S
H610 C622 0.959 . S
H611 C625 0.929 . S
H612 C626 0.931 . S
H613 C628 0.930 . S
C614 H602 0.930 . S
C614 C615 1.399 . S
C614 C619 1.399 . S
C615 C614 1.399 . S
C615 C616 1.376 . S
C616 H603 0.930 . S
C616 C615 1.376 . S
C616 C617 1.388 . S
C617 H604 0.930 . S
C617 C616 1.388 . S
C617 C618 1.390 . S
C618 C617 1.390 . S
C618 C619 1.394 . S
C618 C624 1.465 . S
C619 C614 1.399 . S
C619 C618 1.394 . S
C619 C620 1.516 . S
C620 C619 1.516 . S
C620 C621 1.502 . S
C620 C622 1.561 . S
C620 C623 1.526 . S
C621 H605 0.959 . S
C621 H606 0.959 . S
C621 H607 0.961 . S
C621 C620 1.502 . S
C622 H608 0.960 . S
C622 H609 0.961 . S
C622 H610 0.959 . S
C622 C620 1.561 . S
C623 C620 1.526 . S
C623 C624 1.396 . S
C623 C628 1.390 . S
C624 C618 1.465 . S
C624 C623 1.396 . S
C624 C625 1.399 . S
C625 H611 0.929 . S
C625 C624 1.399 . S
C625 C626 1.385 . S
C626 H612 0.931 . S
C626 C625 1.385 . S
C626 C627 1.389 . S
C627 C626 1.389 . S
C627 C628 1.387 . S
C628 H613 0.930 . S
C628 C623 1.390 . S
C628 C627 1.387 . S
H629 C641 0.930 . S
H630 C643 0.930 . S
H631 C644 0.930 . S
H632 C648 0.959 . S
H633 C648 0.959 . S
H634 C648 0.961 . S
H635 C649 0.960 . S
H636 C649 0.961 . S
H637 C649 0.959 . S
H638 C652 0.929 . S
H639 C653 0.931 . S
H640 C655 0.930 . S
C641 H629 0.930 . S
C641 C642 1.399 . S
C641 C646 1.399 . S
C642 C641 1.399 . S
C642 C643 1.376 . S
C643 H630 0.930 . S
C643 C642 1.376 . S
C643 C644 1.388 . S
C644 H631 0.930 . S
C644 C643 1.388 . S
C644 C645 1.390 . S
C645 C644 1.390 . S
C645 C646 1.394 . S
C645 C651 1.465 . S
C646 C641 1.399 . S
C646 C645 1.394 . S
C646 C647 1.516 . S
C647 C646 1.516 . S
C647 C648 1.502 . S
C647 C649 1.561 . S
C647 C650 1.526 . S
C648 H632 0.959 . S
C648 H633 0.959 . S
C648 H634 0.961 . S
C648 C647 1.502 . S
C649 H635 0.960 . S
C649 H636 0.961 . S
C649 H637 0.959 . S
C649 C647 1.561 . S
C650 C647 1.526 . S
C650 C651 1.396 . S
C650 C655 1.390 . S
C651 C645 1.465 . S
C651 C650 1.396 . S
C651 C652 1.399 . S
C652 H638 0.929 . S
C652 C651 1.399 . S
C652 C653 1.385 . S
C653 H639 0.931 . S
C653 C652 1.385 . S
C653 C654 1.389 . S
C654 C653 1.389 . S
C654 C655 1.387 . S
C655 H640 0.930 . S
C655 C650 1.390 . S
C655 C654 1.387 . S
H656 C668 0.930 . S
H657 C670 0.930 . S
H658 C671 0.930 . S
H659 C675 0.959 . S
H660 C675 0.959 . S
H661 C675 0.961 . S
H662 C676 0.960 . S
H663 C676 0.961 . S
H664 C676 0.959 . S
H665 C679 0.929 . S
H666 C680 0.931 . S
H667 C682 0.930 . S
C668 H656 0.930 . S
C668 C669 1.399 . S
C668 C673 1.399 . S
C669 C668 1.399 . S
C669 C670 1.376 . S
C670 H657 0.930 . S
C670 C669 1.376 . S
C670 C671 1.388 . S
C671 H658 0.930 . S
C671 C670 1.388 . S
C671 C672 1.390 . S
C672 C671 1.390 . S
C672 C673 1.394 . S
C672 C678 1.465 . S
C673 C668 1.399 . S
C673 C672 1.394 . S
C673 C674 1.516 . S
C674 C673 1.516 . S
C674 C675 1.502 . S
C674 C676 1.561 . S
C674 C677 1.526 . S
C675 H659 0.959 . S
C675 H660 0.959 . S
C675 H661 0.961 . S
C675 C674 1.502 . S
C676 H662 0.960 . S
C676 H663 0.961 . S
C676 H664 0.959 . S
C676 C674 1.561 . S
C677 C674 1.526 . S
C677 C678 1.396 . S
C677 C682 1.390 . S
C678 C672 1.465 . S
C678 C677 1.396 . S
C678 C679 1.399 . S
C679 H665 0.929 . S
C679 C678 1.399 . S
C679 C680 1.385 . S
C680 H666 0.931 . S
C680 C679 1.385 . S
C680 C681 1.389 . S
C681 C680 1.389 . S
C681 C682 1.387 . S
C682 H667 0.930 . S
C682 C677 1.390 . S
C682 C681 1.387 . S
H683 C695 0.930 . S
H684 C697 0.930 . S
H685 C698 0.930 . S
H686 C702 0.959 . S
H687 C702 0.959 . S
H688 C702 0.961 . S
H689 C703 0.960 . S
H690 C703 0.961 . S
H691 C703 0.959 . S
H692 C706 0.929 . S
H693 C707 0.931 . S
H694 C709 0.930 . S
C695 H683 0.930 . S
C695 C696 1.399 . S
C695 C700 1.399 . S
C696 C695 1.399 . S
C696 C697 1.376 . S
C697 H684 0.930 . S
C697 C696 1.376 . S
C697 C698 1.388 . S
C698 H685 0.930 . S
C698 C697 1.388 . S
C698 C699 1.390 . S
C699 C698 1.390 . S
C699 C700 1.394 . S
C699 C705 1.465 . S
C700 C695 1.399 . S
C700 C699 1.394 . S
C700 C701 1.516 . S
C701 C700 1.516 . S
C701 C702 1.502 . S
C701 C703 1.561 . S
C701 C704 1.526 . S
C702 H686 0.959 . S
C702 H687 0.959 . S
C702 H688 0.961 . S
C702 C701 1.502 . S
C703 H689 0.960 . S
C703 H690 0.961 . S
C703 H691 0.959 . S
C703 C701 1.561 . S
C704 C701 1.526 . S
C704 C705 1.396 . S
C704 C709 1.390 . S
C705 C699 1.465 . S
C705 C704 1.396 . S
C705 C706 1.399 . S
C706 H692 0.929 . S
C706 C705 1.399 . S
C706 C707 1.385 1_455 S
C707 H693 0.931 . S
C707 C706 1.385 1_655 S
C707 C708 1.389 . S
C708 C707 1.389 . S
C708 C709 1.387 1_655 S
C709 H694 0.930 . S
C709 C704 1.390 . S
C709 C708 1.387 1_455 S
H710 C722 0.930 . S
H711 C724 0.930 1_545 S
H712 C725 0.930 . S
H713 C729 0.959 . S
H714 C729 0.959 . S
H715 C729 0.961 . S
H716 C730 0.960 . S
H717 C730 0.961 . S
H718 C730 0.959 . S
H719 C733 0.929 . S
H720 C734 0.931 . S
H721 C736 0.930 . S
C722 H710 0.930 . S
C722 C723 1.399 . S
C722 C727 1.399 . S
C723 C722 1.399 . S
C723 C724 1.376 . S
C724 H711 0.930 1_565 S
C724 C723 1.376 . S
C724 C725 1.388 . S
C725 H712 0.930 . S
C725 C724 1.388 . S
C725 C726 1.390 . S
C726 C725 1.390 . S
C726 C727 1.394 . S
C726 C732 1.465 . S
C727 C722 1.399 . S
C727 C726 1.394 . S
C727 C728 1.516 . S
C728 C727 1.516 . S
C728 C729 1.502 . S
C728 C730 1.561 . S
C728 C731 1.526 . S
C729 H713 0.959 . S
C729 H714 0.959 . S
C729 H715 0.961 . S
C729 C728 1.502 . S
C730 H716 0.960 . S
C730 H717 0.961 . S
C730 H718 0.959 . S
C730 C728 1.561 . S
C731 C728 1.526 . S
C731 C732 1.396 . S
C731 C736 1.390 . S
C732 C726 1.465 . S
C732 C731 1.396 . S
C732 C733 1.399 . S
C733 H719 0.929 . S
C733 C732 1.399 . S
C733 C734 1.385 . S
C734 H720 0.931 . S
C734 C733 1.385 . S
C734 C735 1.389 . S
C735 C734 1.389 . S
C735 C736 1.387 . S
C736 H721 0.930 . S
C736 C731 1.390 . S
C736 C735 1.387 . S
H737 C749 0.930 . S
H738 C751 0.930 . S
H739 C752 0.930 . S
H740 C756 0.959 . S
H741 C756 0.959 . S
H742 C756 0.961 . S
H743 C757 0.960 . S
H744 C757 0.961 . S
H745 C757 0.959 . S
H746 C760 0.929 . S
H747 C761 0.931 1_455 S
H748 C763 0.930 . S
C749 H737 0.930 . S
C749 C750 1.399 . S
C749 C754 1.399 . S
C750 C749 1.399 . S
C750 C751 1.376 . S
C751 H738 0.930 . S
C751 C750 1.376 . S
C751 C752 1.388 . S
C752 H739 0.930 . S
C752 C751 1.388 . S
C752 C753 1.390 . S
C753 C752 1.390 . S
C753 C754 1.394 . S
C753 C759 1.465 . S
C754 C749 1.399 . S
C754 C753 1.394 . S
C754 C755 1.516 . S
C755 C754 1.516 . S
C755 C756 1.502 . S
C755 C757 1.561 . S
C755 C758 1.526 . S
C756 H740 0.959 . S
C756 H741 0.959 . S
C756 H742 0.961 . S
C756 C755 1.502 . S
C757 H743 0.960 . S
C757 H744 0.961 . S
C757 H745 0.959 . S
C757 C755 1.561 . S
C758 C755 1.526 . S
C758 C759 1.396 . S
C758 C763 1.390 . S
C759 C753 1.465 . S
C759 C758 1.396 . S
C759 C760 1.399 . S
C760 H746 0.929 . S
C760 C759 1.399 . S
C760 C761 1.385 . S
C761 H747 0.931 1_655 S
C761 C760 1.385 . S
C761 C762 1.389 1_655 S
C762 C761 1.389 1_455 S
C762 C763 1.387 1_455 S
C763 H748 0.930 . S
C763 C758 1.390 . S
C763 C762 1.387 1_655 S
H764 C776 0.930 . S
H765 C778 0.930 1_545 S
H766 C779 0.930 . S
H767 C783 0.959 . S
H768 C783 0.959 . S
H769 C783 0.961 . S
H770 C784 0.960 . S
H771 C784 0.961 . S
H772 C784 0.959 . S
H773 C787 0.929 . S
H774 C788 0.931 . S
H775 C790 0.930 . S
C776 H764 0.930 . S
C776 C777 1.399 . S
C776 C781 1.399 . S
C777 C776 1.399 . S
C777 C778 1.376 . S
C778 H765 0.930 1_565 S
C778 C777 1.376 . S
C778 C779 1.388 . S
C779 H766 0.930 . S
C779 C778 1.388 . S
C779 C780 1.390 . S
C780 C779 1.390 . S
C780 C781 1.394 . S
C780 C786 1.465 . S
C781 C776 1.399 . S
C781 C780 1.394 . S
C781 C782 1.516 . S
C782 C781 1.516 . S
C782 C783 1.502 . S
C782 C784 1.561 . S
C782 C785 1.526 . S
C783 H767 0.959 . S
C783 H768 0.959 . S
C783 H769 0.961 . S
C783 C782 1.502 . S
C784 H770 0.960 . S
C784 H771 0.961 . S
C784 H772 0.959 . S
C784 C782 1.561 . S
C785 C782 1.526 . S
C785 C786 1.396 . S
C785 C790 1.390 . S
C786 C780 1.465 . S
C786 C785 1.396 . S
C786 C787 1.399 . S
C787 H773 0.929 . S
C787 C786 1.399 . S
C787 C788 1.385 . S
C788 H774 0.931 . S
C788 C787 1.385 . S
C788 C789 1.389 . S
C789 C788 1.389 . S
C789 C790 1.387 . S
C790 H775 0.930 . S
C790 C785 1.390 . S
C790 C789 1.387 . S
H791 C803 0.930 . S
H792 C805 0.930 . S
H793 C806 0.930 . S
H794 C810 0.959 . S
H795 C810 0.959 1_455 S
H796 C810 0.961 . S
H797 C811 0.960 . S
H798 C811 0.961 . S
H799 C811 0.959 . S
H800 C814 0.929 . S
H801 C815 0.931 . S
H802 C817 0.930 . S
C803 H791 0.930 . S
C803 C804 1.399 . S
C803 C808 1.399 . S
C804 C803 1.399 . S
C804 C805 1.376 . S
C805 H792 0.930 . S
C805 C804 1.376 . S
C805 C806 1.388 . S
C806 H793 0.930 . S
C806 C805 1.388 . S
C806 C807 1.390 . S
C807 C806 1.390 . S
C807 C808 1.394 . S
C807 C813 1.465 . S
C808 C803 1.399 . S
C808 C807 1.394 . S
C808 C809 1.516 . S
C809 C808 1.516 . S
C809 C810 1.502 . S
C809 C811 1.561 . S
C809 C812 1.526 . S
C810 H794 0.959 . S
C810 H795 0.959 1_655 S
C810 H796 0.961 . S
C810 C809 1.502 . S
C811 H797 0.960 . S
C811 H798 0.961 . S
C811 H799 0.959 . S
C811 C809 1.561 . S
C812 C809 1.526 . S
C812 C813 1.396 . S
C812 C817 1.390 1_655 S
C813 C807 1.465 . S
C813 C812 1.396 . S
C813 C814 1.399 . S
C814 H800 0.929 . S
C814 C813 1.399 . S
C814 C815 1.385 . S
C815 H801 0.931 . S
C815 C814 1.385 . S
C815 C816 1.380 1_655 S
C816 C815 1.380 1_455 S
C816 C817 1.387 . S
C817 H802 0.930 . S
C817 C812 1.390 1_455 S
C817 C816 1.387 . S
H818 C830 0.930 . S
H819 C832 0.930 . S
H820 C833 0.930 . S
H821 C837 0.959 . S
H822 C837 0.959 . S
H823 C837 0.961 . S
H824 C838 0.960 . S
H825 C838 0.961 . S
H826 C838 0.959 . S
H827 C841 0.929 . S
H828 C842 0.931 1_565 S
H829 C844 0.930 . S
C830 H818 0.930 . S
C830 C831 1.399 . S
C830 C835 1.399 . S
C831 C830 1.399 . S
C831 C832 1.376 . S
C832 H819 0.930 . S
C832 C831 1.376 . S
C832 C833 1.388 . S
C833 H820 0.930 . S
C833 C832 1.388 . S
C833 C834 1.390 . S
C834 C833 1.390 . S
C834 C835 1.394 . S
C834 C840 1.465 . S
C835 C830 1.399 . S
C835 C834 1.394 . S
C835 C836 1.516 . S
C836 C835 1.516 . S
C836 C837 1.502 . S
C836 C838 1.561 . S
C836 C839 1.526 . S
C837 H821 0.959 . S
C837 H822 0.959 . S
C837 H823 0.961 . S
C837 C836 1.502 . S
C838 H824 0.960 . S
C838 H825 0.961 . S
C838 H826 0.959 . S
C838 C836 1.561 . S
C839 C836 1.526 . S
C839 C840 1.396 . S
C839 C844 1.390 . S
C840 C834 1.465 . S
C840 C839 1.396 . S
C840 C841 1.399 . S
C841 H827 0.929 . S
C841 C840 1.399 . S
C841 C842 1.385 . S
C842 H828 0.931 1_545 S
C842 C841 1.385 . S
C842 C843 1.389 . S
C843 C842 1.389 . S
C843 C844 1.387 . S
C844 H829 0.930 . S
C844 C839 1.390 . S
C844 C843 1.387 . S
H845 C857 0.930 . S
H846 C859 0.930 . S
H847 C860 0.930 . S
H848 C864 0.959 . S
H849 C864 0.959 . S
H850 C864 0.961 . S
H851 C865 0.960 . S
H852 C865 0.961 1_655 S
H853 C865 0.959 . S
H854 C868 0.929 . S
H855 C869 0.931 . S
H856 C871 0.930 1_655 S
C857 H845 0.930 . S
C857 C858 1.399 . S
C857 C862 1.399 . S
C858 C857 1.399 . S
C858 C859 1.376 . S
C859 H846 0.930 . S
C859 C858 1.376 . S
C859 C860 1.388 . S
C860 H847 0.930 . S
C860 C859 1.388 . S
C860 C861 1.390 . S
C861 C860 1.390 . S
C861 C862 1.394 . S
C861 C867 1.465 . S
C862 C857 1.399 . S
C862 C861 1.394 . S
C862 C863 1.516 . S
C863 C862 1.516 . S
C863 C864 1.502 . S
C863 C865 1.561 . S
C863 C866 1.526 . S
C864 H848 0.959 . S
C864 H849 0.959 . S
C864 H850 0.961 . S
C864 C863 1.502 . S
C865 H851 0.960 . S
C865 H852 0.961 1_455 S
C865 H853 0.959 . S
C865 C863 1.561 . S
C866 C863 1.526 . S
C866 C867 1.396 . S
C866 C871 1.390 . S
C867 C861 1.465 . S
C867 C866 1.396 . S
C867 C868 1.399 . S
C868 H854 0.929 . S
C868 C867 1.399 . S
C868 C869 1.385 . S
C869 H855 0.931 . S
C869 C868 1.385 . S
C869 C870 1.389 1_455 S
C870 C869 1.389 1_655 S
C870 C871 1.387 1_655 S
C871 H856 0.930 1_455 S
C871 C866 1.390 . S
C871 C870 1.387 1_455 S
H872 C884 0.930 . S
H873 C886 0.930 . S
H874 C887 0.930 . S
H875 C891 0.959 . S
H876 C891 0.959 . S
H877 C891 0.961 . S
H878 C892 0.960 . S
H879 C892 0.961 . S
H880 C892 0.959 . S
H881 C895 0.929 . S
H882 C896 0.931 . S
H883 C898 0.930 . S
C884 H872 0.930 . S
C884 C885 1.399 . S
C884 C889 1.399 . S
C885 C884 1.399 . S
C885 C886 1.376 . S
C886 H873 0.930 . S
C886 C885 1.376 . S
C886 C887 1.388 . S
C887 H874 0.930 . S
C887 C886 1.388 . S
C887 C888 1.390 . S
C888 C887 1.390 . S
C888 C889 1.394 . S
C888 C894 1.465 . S
C889 C884 1.399 . S
C889 C888 1.394 . S
C889 C890 1.516 . S
C890 C889 1.516 . S
C890 C891 1.502 . S
C890 C892 1.561 . S
C890 C893 1.526 . S
C891 H875 0.959 . S
C891 H876 0.959 . S
C891 H877 0.961 . S
C891 C890 1.502 . S
C892 H878 0.960 . S
C892 H879 0.961 . S
C892 H880 0.959 . S
C892 C890 1.561 . S
C893 C890 1.526 . S
C893 C894 1.396 . S
C893 C898 1.390 . S
C894 C888 1.465 . S
C894 C893 1.396 . S
C894 C895 1.399 . S
C895 H881 0.929 . S
C895 C894 1.399 . S
C895 C896 1.385 . S
C896 H882 0.931 . S
C896 C895 1.385 . S
C896 C897 1.389 . S
C897 C896 1.389 . S
C897 C898 1.387 . S
C898 H883 0.930 . S
C898 C893 1.390 . S
C898 C897 1.387 . S
H899 C911 0.930 . S
H900 C913 0.930 . S
H901 C914 0.930 . S
H902 C918 0.959 . S
H903 C918 0.959 . S
H904 C918 0.961 . S
H905 C919 0.960 . S
H906 C919 0.961 . S
H907 C919 0.959 . S
H908 C922 0.929 . S
H909 C923 0.931 . S
H910 C925 0.930 . S
C911 H899 0.930 . S
C911 C912 1.399 . S
C911 C916 1.399 . S
C912 C911 1.399 . S
C912 C913 1.376 . S
C913 H900 0.930 . S
C913 C912 1.376 . S
C913 C914 1.388 . S
C914 H901 0.930 . S
C914 C913 1.388 . S
C914 C915 1.390 . S
C915 C914 1.390 . S
C915 C916 1.394 . S
C915 C921 1.465 . S
C916 C911 1.399 . S
C916 C915 1.394 . S
C916 C917 1.516 . S
C917 C916 1.516 . S
C917 C918 1.502 . S
C917 C919 1.561 . S
C917 C920 1.526 . S
C918 H902 0.959 . S
C918 H903 0.959 . S
C918 H904 0.961 . S
C918 C917 1.502 . S
C919 H905 0.960 . S
C919 H906 0.961 . S
C919 H907 0.959 . S
C919 C917 1.561 . S
C920 C917 1.526 . S
C920 C921 1.396 . S
C920 C925 1.390 . S
C921 C915 1.465 . S
C921 C920 1.396 . S
C921 C922 1.399 . S
C922 H908 0.929 . S
C922 C921 1.399 . S
C922 C923 1.385 . S
C923 H909 0.931 . S
C923 C922 1.385 . S
C923 C924 1.389 . S
C924 C923 1.389 . S
C924 C925 1.387 . S
C925 H910 0.930 . S
C925 C920 1.390 . S
C925 C924 1.387 . S
H926 C938 0.930 . S
H927 C940 0.930 . S
H928 C941 0.930 . S
H929 C945 0.959 . S
H930 C945 0.959 . S
H931 C945 0.961 . S
H932 C946 0.960 . S
H933 C946 0.961 . S
H934 C946 0.959 . S
H935 C949 0.929 . S
H936 C950 0.931 . S
H937 C952 0.930 . S
C938 H926 0.930 . S
C938 C939 1.399 . S
C938 C943 1.399 . S
C939 C938 1.399 . S
C939 C940 1.376 . S
C940 H927 0.930 . S
C940 C939 1.376 . S
C940 C941 1.388 . S
C941 H928 0.930 . S
C941 C940 1.388 . S
C941 C942 1.390 . S
C942 C941 1.390 . S
C942 C943 1.394 . S
C942 C948 1.465 . S
C943 C938 1.399 . S
C943 C942 1.394 . S
C943 C944 1.516 . S
C944 C943 1.516 . S
C944 C945 1.502 . S
C944 C946 1.561 . S
C944 C947 1.526 . S
C945 H929 0.959 . S
C945 H930 0.959 . S
C945 H931 0.961 . S
C945 C944 1.502 . S
C946 H932 0.960 . S
C946 H933 0.961 . S
C946 H934 0.959 . S
C946 C944 1.561 . S
C947 C944 1.526 . S
C947 C948 1.396 . S
C947 C952 1.390 . S
C948 C942 1.465 . S
C948 C947 1.396 . S
C948 C949 1.399 . S
C949 H935 0.929 . S
C949 C948 1.399 . S
C949 C950 1.385 . S
C950 H936 0.931 . S
C950 C949 1.385 . S
C950 C951 1.389 . S
C951 C950 1.389 . S
C951 C952 1.387 . S
C952 H937 0.930 . S
C952 C947 1.390 . S
C952 C951 1.387 . S
H953 C965 0.930 . S
H954 C967 0.930 . S
H955 C968 0.930 . S
H956 C972 0.959 . S
H957 C972 0.959 . S
H958 C972 0.961 . S
H959 C973 0.960 . S
H960 C973 0.961 . S
H961 C973 0.959 . S
H962 C976 0.929 . S
H963 C977 0.931 . S
H964 C979 0.930 . S
C965 H953 0.930 . S
C965 C966 1.399 . S
C965 C970 1.399 . S
C966 C965 1.399 . S
C966 C967 1.376 . S
C967 H954 0.930 . S
C967 C966 1.376 . S
C967 C968 1.388 . S
C968 H955 0.930 . S
C968 C967 1.388 . S
C968 C969 1.390 . S
C969 C968 1.390 . S
C969 C970 1.394 . S
C969 C975 1.465 . S
C970 C965 1.399 . S
C970 C969 1.394 . S
C970 C971 1.516 . S
C971 C970 1.516 . S
C971 C972 1.502 . S
C971 C973 1.561 . S
C971 C974 1.526 . S
C972 H956 0.959 . S
C972 H957 0.959 . S
C972 H958 0.961 . S
C972 C971 1.502 . S
C973 H959 0.960 . S
C973 H960 0.961 . S
C973 H961 0.959 . S
C973 C971 1.561 . S
C974 C971 1.526 . S
C974 C975 1.396 . S
C974 C979 1.390 . S
C975 C969 1.465 . S
C975 C974 1.396 . S
C975 C976 1.399 . S
C976 H962 0.929 . S
C976 C975 1.399 . S
C976 C977 1.385 . S
C977 H963 0.931 . S
C977 C976 1.385 . S
C977 C978 1.389 . S
C978 C977 1.389 . S
C978 C979 1.387 . S
C979 H964 0.930 . S
C979 C974 1.390 . S
C979 C978 1.387 . S
H980 C992 0.930 . S
H981 C994 0.930 . S
H982 C995 0.930 . S
H983 C999 0.959 . S
H984 C999 0.959 . S
H985 C999 0.961 . S
H986 C1000 0.960 . S
H987 C1000 0.961 . S
H988 C1000 0.959 . S
H989 C1003 0.929 . S
H990 C1004 0.931 . S
H991 C1006 0.931 1_545 S
C992 H980 0.930 . S
C992 C993 1.399 . S
C992 C997 1.399 . S
C993 C992 1.399 . S
C993 C994 1.376 1_545 S
C994 H981 0.930 . S
C994 C993 1.376 1_565 S
C994 C995 1.388 . S
C995 H982 0.930 . S
C995 C994 1.388 . S
C995 C996 1.390 . S
C996 C995 1.390 . S
C996 C997 1.394 1_565 S
C996 C1002 1.465 1_554 S
C997 C992 1.399 . S
C997 C996 1.394 1_545 S
C997 C998 1.516 1_554 S
C998 C997 1.516 1_556 S
C998 C999 1.502 . S
C998 C1000 1.561 . S
C998 C1001 1.526 . S
C999 H983 0.959 . S
C999 H984 0.959 . S
C999 H985 0.961 . S
C999 C998 1.502 . S
C1000 H986 0.960 . S
C1000 H987 0.961 . S
C1000 H988 0.959 . S
C1000 C998 1.561 . S
C1001 C998 1.526 . S
C1001 C1002 1.396 1_545 S
C1001 C1006 1.390 1_545 S
C1002 C996 1.465 1_556 S
C1002 C1001 1.396 1_565 S
C1002 C1003 1.399 . S
C1003 H989 0.929 . S
C1003 C1002 1.399 . S
C1003 C1004 1.385 . S
C1004 H990 0.931 . S
C1004 C1003 1.385 . S
C1004 C1005 1.389 . S
C1005 C1004 1.389 . S
C1005 C1006 1.386 . S
C1006 H991 0.931 1_565 S
C1006 C1001 1.390 1_565 S
C1006 C1005 1.386 . S
H1007 C1019 0.930 . S
H1008 C1021 0.930 . S
H1009 C1022 0.930 . S
H1010 C1026 0.959 . S
H1011 C1026 0.959 1_554 S
H1012 C1026 0.961 . S
H1013 C1027 0.960 1_556 S
H1014 C1027 0.961 . S
H1015 C1027 0.959 . S
H1016 C1030 0.929 . S
H1017 C1031 0.931 . S
H1018 C1033 0.930 . S
C1019 H1007 0.930 . S
C1019 C1020 1.399 . S
C1019 C1024 1.399 . S
C1020 C1019 1.399 . S
C1020 C1021 1.376 . S
C1021 H1008 0.930 . S
C1021 C1020 1.376 . S
C1021 C1022 1.388 . S
C1022 H1009 0.930 . S
C1022 C1021 1.388 . S
C1022 C1023 1.390 . S
C1023 C1022 1.390 . S
C1023 C1024 1.394 . S
C1023 C1029 1.465 1_456 S
C1024 C1019 1.399 . S
C1024 C1023 1.394 . S
C1024 C1025 1.535 1_455 S
C1025 C1024 1.535 1_655 S
C1025 C1026 1.512 . S
C1025 C1027 1.551 1_656 S
C1025 C1028 1.505 1_556 S
C1026 H1010 0.959 . S
C1026 H1011 0.959 1_556 S
C1026 H1012 0.961 . S
C1026 C1025 1.512 . S
C1027 H1013 0.960 1_554 S
C1027 H1014 0.961 . S
C1027 H1015 0.959 . S
C1027 C1025 1.551 1_454 S
C1028 C1025 1.505 1_554 S
C1028 C1029 1.396 . S
C1028 C1033 1.390 . S
C1029 C1023 1.465 1_654 S
C1029 C1028 1.396 . S
C1029 C1030 1.399 . S
C1030 H1016 0.929 . S
C1030 C1029 1.399 . S
C1030 C1031 1.385 . S
C1031 H1017 0.931 . S
C1031 C1030 1.385 . S
C1031 C1032 1.389 . S
C1032 C1031 1.389 . S
C1032 C1033 1.387 . S
C1033 H1018 0.930 . S
C1033 C1028 1.390 . S
C1033 C1032 1.387 . S
H1034 C1046 0.930 . S
H1035 C1048 0.930 1_565 S
H1036 C1049 0.930 . S
H1037 C1053 0.959 . S
H1038 C1053 0.959 . S
H1039 C1053 0.961 1_556 S
H1040 C1054 0.960 . S
H1041 C1054 0.961 . S
H1042 C1054 0.959 . S
H1043 C1057 0.929 . S
H1044 C1058 0.931 . S
H1045 C1060 0.930 1_545 S
C1046 H1034 0.930 . S
C1046 C1047 1.399 . S
C1046 C1051 1.399 . S
C1047 C1046 1.399 . S
C1047 C1048 1.376 . S
C1048 H1035 0.930 1_545 S
C1048 C1047 1.376 . S
C1048 C1049 1.388 1_545 S
C1049 H1036 0.930 . S
C1049 C1048 1.388 1_565 S
C1049 C1050 1.390 . S
C1050 C1049 1.390 . S
C1050 C1051 1.394 1_565 S
C1050 C1056 1.465 1_556 S
C1051 C1046 1.399 . S
C1051 C1050 1.394 1_545 S
C1051 C1052 1.516 1_556 S
C1052 C1051 1.516 1_554 S
C1052 C1053 1.502 . S
C1052 C1054 1.561 . S
C1052 C1055 1.526 . S
C1053 H1037 0.959 . S
C1053 H1038 0.959 . S
C1053 H1039 0.961 1_554 S
C1053 C1052 1.502 . S
C1054 H1040 0.960 . S
C1054 H1041 0.961 . S
C1054 H1042 0.959 . S
C1054 C1052 1.561 . S
C1055 C1052 1.526 . S
C1055 C1056 1.396 1_545 S
C1055 C1060 1.390 1_545 S
C1056 C1050 1.465 1_554 S
C1056 C1055 1.396 1_565 S
C1056 C1057 1.399 . S
C1057 H1043 0.929 . S
C1057 C1056 1.399 . S
C1057 C1058 1.385 . S
C1058 H1044 0.931 . S
C1058 C1057 1.385 . S
C1058 C1059 1.389 . S
C1059 C1058 1.389 . S
C1059 C1060 1.387 . S
C1060 H1045 0.930 1_565 S
C1060 C1055 1.390 1_565 S
C1060 C1059 1.387 . S
H1061 C1073 0.930 . S
H1062 C1075 0.930 . S
H1063 C1076 0.930 . S
H1064 C1080 0.959 . S
H1065 C1080 0.959 . S
H1066 C1080 0.961 . S
H1067 C1081 0.954 1_655 S
H1068 C1081 0.961 1_554 S
H1069 C1081 0.959 1_654 S
H1070 C1084 0.929 . S
H1071 C1085 0.931 . S
H1072 C1087 0.930 . S
C1073 H1061 0.930 . S
C1073 C1074 1.399 . S
C1073 C1078 1.399 . S
C1074 C1073 1.399 . S
C1074 C1075 1.376 . S
C1075 H1062 0.930 . S
C1075 C1074 1.376 . S
C1075 C1076 1.388 . S
C1076 H1063 0.930 . S
C1076 C1075 1.388 . S
C1076 C1077 1.390 . S
C1077 C1076 1.390 . S
C1077 C1078 1.394 . S
C1077 C1083 1.465 1_556 S
C1078 C1073 1.399 . S
C1078 C1077 1.394 . S
C1078 C1079 1.516 1_655 S
C1079 C1078 1.516 1_455 S
C1079 C1080 1.502 . S
C1079 C1081 1.561 . S
C1079 C1082 1.526 1_556 S
C1080 H1064 0.959 . S
C1080 H1065 0.959 . S
C1080 H1066 0.961 . S
C1080 C1079 1.502 . S
C1081 H1067 0.954 1_455 S
C1081 H1068 0.961 1_556 S
C1081 H1069 0.959 1_456 S
C1081 C1079 1.561 . S
C1082 C1079 1.526 1_554 S
C1082 C1083 1.396 1_455 S
C1082 C1087 1.390 . S
C1083 C1077 1.465 1_554 S
C1083 C1082 1.396 1_655 S
C1083 C1084 1.399 . S
C1084 H1070 0.929 . S
C1084 C1083 1.399 . S
C1084 C1085 1.385 1_655 S
C1085 H1071 0.931 . S
C1085 C1084 1.385 1_455 S
C1085 C1086 1.389 . S
C1086 C1085 1.389 . S
C1086 C1087 1.387 . S
C1087 H1072 0.930 . S
C1087 C1082 1.390 . S
C1087 C1086 1.387 . S
C237 C11 1.290 . S
C249 C103 1.218 . S
C264 C19 1.214 . S
C276 C67 1.280 . S
C291 C75 1.230 . S
C303 C39 1.304 . S
C318 C47 1.267 . S
C330 C95 1.332 . S
C345 C123 1.280 . S
C357 C215 1.230 . S
C372 C179 1.347 . S
C384 C131 1.293 . S
C399 C187 1.256 . S
C411 C151 1.325 . S
C426 C207 1.286 . S
C438 C159 1.246 . S
C453 C4 1.272 . S
C465 C158 1.254 . S
C480 C26 1.009 . S
C492 C117 0.989 . S
C507 C130 1.268 . S
C519 C32 1.229 . S
C534 C54 1.029 . S
C546 C145 0.864 . S
C561 C60 1.285 . S
C573 C186 1.223 . S
C588 C201 1.025 . S
C600 C82 0.945 . S
C615 C88 1.242 . S
C627 C214 1.223 . S
C642 C173 1.031 . S
C654 C110 0.953 . S
C669 C116 1.262 1_545 S
C681 C46 1.265 . S
C696 C5 1.020 . S
C708 C138 0.945 . S
C723 C144 1.278 1_565 S
C735 C18 1.241 . S
C750 C33 0.806 . S
C762 C166 1.083 . S
C777 C172 1.270 1_565 S
C789 C74 1.256 . S
C804 C89 0.869 . S
C816 C194 1.090 . S
C831 C102 1.194 . S
C843 C200 1.267 1_545 S
C858 C61 1.008 . S
C870 C222 0.991 . S
C885 C68 1.402 . S
C897 C12 1.410 . S
C912 C81 1.682 . S
C924 C25 1.702 . S
C939 C40 1.414 . S
C951 C96 1.402 . S
C966 C109 1.690 . S
C978 C53 1.696 . S
C993 C180 1.402 . S
C1005 C124 1.414 . S
C1020 C193 1.680 . S
C1032 C137 1.658 . S
C1047 C152 1.403 . S
C1059 C208 1.409 . S
C1074 C221 1.693 . S
C1086 C165 1.652 . S
