# Generated by pormake.
# Topology qtz-x, (6)-cn, num edge types: 1
# Building blocks:
#     Node 0, Type 0, BuildingBlock: CUWYAW_clean_sbu_0, # of connection points: 6
#     Node 1, Type 0, BuildingBlock: CUWYAW_clean_sbu_0, # of connection points: 6
#     Node 2, Type 0, BuildingBlock: CUWYAW_clean_sbu_0, # of connection points: 6
#     Edge 3, Type (0, 0), BuildingBlock: ZUJKAS_clean_linker_0, # of connection points: 2
#     Edge 4, Type (0, 0), BuildingBlock: ZUJKAS_clean_linker_0, # of connection points: 2
#     Edge 5, Type (0, 0), BuildingBlock: ZUJKAS_clean_linker_0, # of connection points: 2
#     Edge 6, Type (0, 0), BuildingBlock: ZUJKAS_clean_linker_0, # of connection points: 2
#     Edge 7, Type (0, 0), BuildingBlock: ZUJKAS_clean_linker_0, # of connection points: 2
#     Edge 8, Type (0, 0), BuildingBlock: ZUJKAS_clean_linker_0, # of connection points: 2
#     Edge 9, Type (0, 0), BuildingBlock: ZUJKAS_clean_linker_0, # of connection points: 2
#     Edge 10, Type (0, 0), BuildingBlock: ZUJKAS_clean_linker_0, # of connection points: 2
#     Edge 11, Type (0, 0), BuildingBlock: ZUJKAS_clean_linker_0, # of connection points: 2
# Relax obj value: 0.198
# Max RMSD: 0.244
# Mean RMSD: 0.232
data_MOF--net-qtz-x--node1-CUWYAW_clean_sbu_0--edge1-ZUJKAS_clean_linker_0
_symmetry_space_group_name_H-M    P1
_symmetry_Int_Tables_number       1
_symmetry_cell_setting            triclinic
loop_
_symmetry_equiv_pos_as_xyz
'x, y, z'
_cell_length_a     19.052619
_cell_length_b     19.080894
_cell_length_c     65.690711
_cell_angle_alpha  73.213889
_cell_angle_beta   109.30335
_cell_angle_gamma 120.76238
loop_
_atom_site_label
_atom_site_type_symbol
_atom_site_fract_x
_atom_site_fract_y
_atom_site_fract_z
_atom_type_partial_charge
C0 C 0.2885 0.82178 0.1621 0.0
Eu1 Eu 0.16023 0.70758 0.17817 0.0
C2 C 0.31194 0.82794 0.14226 0.0
C3 C 0.26992 0.7595 0.13121 0.0
C4 C 0.28867 0.76495 0.11184 0.0
C5 C 0.35025 0.83891 0.10319 0.0
C6 C 0.39307 0.90724 0.11446 0.0
C7 C 0.37372 0.90184 0.13384 0.0
C8 C 0.12358 0.54599 0.18586 0.0
C9 C 1.0018 0.64414 0.13644 0.0
C10 C 0.86338 0.47372 0.20215 0.0
Eu11 Eu 0.98982 0.59323 0.18596 0.0
C12 C 0.84728 0.44009 0.22434 0.0
C13 C 0.77095 0.42202 0.22805 0.0
C14 C 0.75613 0.39383 0.24914 0.0
C15 C 0.81754 0.38324 0.26699 0.0
C16 C 0.89378 0.40079 0.26315 0.0
C17 C 0.90848 0.42886 0.24207 0.0
C18 C 0.02506 0.75436 0.17733 0.0
C19 C 0.14924 0.66325 0.22695 0.0
O20 O 0.21989 0.82746 0.1588 0.0
O21 O 0.29157 0.76127 0.17744 0.0
O22 O 0.19593 0.6044 0.19321 0.0
O23 O 0.07475 0.5755 0.17415 0.0
O24 O 0.07881 0.69917 0.14394 0.0
O25 O 0.95369 0.58779 0.14981 0.0
O26 O 0.9189 0.46281 0.19768 0.0
O27 O 0.87058 0.5478 0.19449 0.0
O28 O 0.95301 0.69516 0.16998 0.0
O29 O 0.07438 0.72586 0.18949 0.0
O30 O 0.07576 0.60146 0.22013 0.0
O31 O 0.19043 0.72342 0.2129 0.0
H32 H 0.22205 0.70181 0.13752 0.0
H33 H 0.25544 0.71093 0.10373 0.0
H34 H 0.44043 0.96517 0.1081 0.0
H35 H 0.40643 0.95533 0.14214 0.0
H36 H 0.72308 0.43073 0.21465 0.0
H37 H 0.69716 0.38196 0.2515 0.0
H38 H 0.94207 0.39236 0.27643 0.0
H39 H 0.968 0.4423 0.23969 0.0
C40 C 0.65071 0.82523 0.51703 0.0
Eu41 Eu 0.6857 0.95644 0.53095 0.0
C42 C 0.60548 0.80049 0.49529 0.0
C43 C 0.5533 0.8349 0.48148 0.0
C44 C 0.51469 0.81711 0.46023 0.0
C45 C 0.52781 0.76487 0.45223 0.0
C46 C 0.57946 0.72964 0.46621 0.0
C47 C 0.61819 0.74755 0.48757 0.0
C48 C 0.56499 -0.01132 0.53286 0.0
C49 C 0.70187 0.09931 0.48763 0.0
C50 C 0.78313 0.26523 0.5473 0.0
Eu51 Eu 0.74853 0.12871 0.53601 0.0
C52 C 0.79861 0.29378 0.56759 0.0
C53 C 0.85274 0.37681 0.56989 0.0
C54 C 0.87174 0.40446 0.58946 0.0
C55 C 0.83699 0.34933 0.6071 0.0
C56 C 0.78217 0.26607 0.60466 0.0
C57 C 0.7632 0.23854 0.58506 0.0
C58 C 0.86742 0.09542 0.53321 0.0
C59 C 0.73206 -0.01283 0.57892 0.0
O60 O 0.72308 0.89139 0.51758 0.0
O61 O 0.60604 0.82581 0.52834 0.0
O62 O 0.56958 0.92074 0.54183 0.0
O63 O 0.62191 0.03561 0.52236 0.0
O64 O 0.69652 0.02568 0.49656 0.0
O65 O 0.71205 0.15012 0.49952 0.0
O66 O 0.7069 0.2102 0.54002 0.0
O67 O 0.84001 0.24887 0.54598 0.0
O68 O 0.86097 0.16218 0.52368 0.0
O69 O 0.81243 0.04965 0.54434 0.0
O70 O 0.72659 0.05596 0.56946 0.0
O71 O 0.73291 0.9413 0.56742 0.0
H72 H 0.54321 0.87657 0.48706 0.0
H73 H 0.4744 0.84432 0.45008 0.0
H74 H 0.59159 0.68987 0.46048 0.0
H75 H 0.65911 0.72127 0.49791 0.0
H76 H 0.88081 0.42021 0.55657 0.0
H77 H 0.91322 0.46916 0.59071 0.0
H78 H 0.75509 0.22189 0.61801 0.0
H79 H 0.72152 0.1741 0.58361 0.0
C80 C 0.98145 0.72717 0.85628 0.0
Eu81 Eu 0.86045 0.745 0.8601 0.0
C82 C 0.98156 0.69438 0.83865 0.0
C83 C 0.9048 0.64813 0.82526 0.0
C84 C 0.9028 0.62278 0.80714 0.0
C85 C 0.97757 0.64343 0.80193 0.0
C86 C 0.05461 0.68825 0.81564 0.0
C87 C 0.05655 0.71396 0.83386 0.0
C88 C 0.70446 0.61908 0.86052 0.0
C89 C 0.76557 0.7911 0.80994 0.0
C90 C 0.60491 0.81362 0.85534 0.0
Eu91 Eu 0.72993 0.79825 0.85287 0.0
C92 C 0.57325 0.80959 0.8735 0.0
C93 C 0.5505 0.86952 0.87286 0.0
C94 C 0.5278 0.87139 0.89079 0.0
C95 C 0.52749 0.81325 0.90973 0.0
C96 C 0.54846 0.75202 0.91012 0.0
C97 C 0.5712 0.75026 0.89218 0.0
C98 C 0.88579 0.92337 0.85159 0.0
C99 C 0.82544 0.75265 0.90249 0.0
O100 O 0.97846 0.7974 0.85027 0.0
O101 O 0.92897 0.67395 0.86864 0.0
O102 O 0.77183 0.61639 0.87315 0.0
O103 O 0.72235 0.68563 0.84746 0.0
O104 O 0.82959 0.77982 0.82319 0.0
O105 O 0.7102 0.79227 0.81756 0.0
O106 O 0.59752 0.74471 0.85256 0.0
O107 O 0.67787 0.87619 0.85335 0.0
O108 O 0.81815 0.92473 0.83862 0.0
O109 O 0.86831 0.85813 0.86519 0.0
O110 O 0.75528 0.75207 0.88946 0.0
O111 O 0.88621 0.76463 0.89441 0.0
H112 H 0.84613 0.63296 0.82859 0.0
H113 H 0.8425 0.58729 0.79712 0.0
H114 H 0.11321 0.70541 0.81193 0.0
H115 H 0.11632 0.75042 0.84389 0.0
H116 H 0.55191 0.91595 0.85862 0.0
H117 H 0.51094 0.91866 0.88988 0.0
H118 H 0.54981 0.70696 0.92454 0.0
H119 H 0.58893 0.70359 0.89313 0.0
H120 H 0.9161 0.81796 0.15598 0.0
H121 H 0.9334 0.95345 0.15685 0.0
H122 H 0.17948 0.01483 0.19855 0.0
H123 H 0.16291 0.87964 0.19752 0.0
H124 H 0.95941 0.01655 0.19341 0.0
H125 H 0.22198 0.21656 0.15123 0.0
H126 H 0.16078 0.1071 0.15034 0.0
H127 H 0.2419 0.14475 0.17395 0.0
C128 C 0.97427 0.86069 0.16515 0.0
C129 C 0.0382 0.83831 0.17668 0.0
C130 C 0.98397 0.93799 0.16567 0.0
C131 C 0.058 -0.00537 0.17759 0.0
C132 C 0.12242 0.97275 0.18892 0.0
H133 H 0.23102 0.48038 0.20662 0.0
H134 H 0.21183 0.3448 0.20511 0.0
C135 C 0.11275 0.89538 0.1884 0.0
C136 C 0.06617 0.07505 0.1789 0.0
H137 H 0.18482 0.28355 0.16816 0.0
C138 C 1.00841 0.07498 0.18779 0.0
C139 C 0.13019 0.1512 0.17159 0.0
C140 C 0.19185 0.15531 0.16105 0.0
C141 C 1.01395 0.14893 0.18996 0.0
C142 C 0.07816 0.22508 0.18271 0.0
C143 C 0.13574 0.22514 0.17376 0.0
C144 C 0.08731 0.30554 0.18437 0.0
C145 C 0.95228 0.14483 0.20048 0.0
C146 C 0.02355 0.32854 0.17325 0.0
C147 C 0.0343 0.406 0.17414 0.0
C148 C 0.10928 0.462 0.18603 0.0
C149 C 0.17255 0.43849 0.19734 0.0
C150 C 0.16176 0.36114 0.19645 0.0
H151 H 0.92146 0.08332 0.21012 0.0
H152 H 0.98356 0.19249 0.21137 0.0
H153 H 0.90276 0.15633 0.1876 0.0
H154 H 0.96617 0.28729 0.1635 0.0
H155 H 0.98465 0.42266 0.16518 0.0
H156 H 0.43842 0.88851 0.55403 0.0
H157 H 0.32077 0.90792 0.55367 0.0
H158 H 0.41652 0.14064 0.51176 0.0
H159 H 0.53437 0.12082 0.51181 0.0
H160 H 0.31943 0.03181 0.56706 0.0
H161 H 0.17367 0.02138 0.47879 0.0
H162 H 0.25392 -0.01073 0.49266 0.0
H163 H 0.28165 0.09704 0.48478 0.0
C164 C 0.43439 0.94378 0.54466 0.0
C165 C 0.49531 0.00286 0.53279 0.0
C166 C 0.3671 0.95485 0.54451 0.0
C167 C 0.35885 0.02507 0.53242 0.0
C168 C 0.42049 0.08508 0.52084 0.0
H169 H 0.99259 0.19509 0.51151 0.0
H170 H 0.11065 0.17636 0.51184 0.0
C171 C 0.48808 0.074 0.52098 0.0
C172 C 0.28605 0.03519 0.53225 0.0
H173 H 0.11375 0.05371 0.49884 0.0
C174 C 0.27434 0.03641 0.55215 0.0
C175 C 0.227 0.04095 0.51281 0.0
C176 C 0.23394 0.03639 0.49105 0.0
C177 C 0.20625 0.04471 0.5531 0.0
C178 C 0.14712 0.05037 0.53366 0.0
C179 C 0.15888 0.04919 0.51375 0.0
C180 C 0.07407 0.06011 0.53349 0.0
C181 C 0.19947 0.04942 0.57486 0.0
C182 C 1.01308 0.00034 0.54529 0.0
C183 C 0.94532 0.01107 0.54517 0.0
C184 C 0.93718 0.08156 0.53315 0.0
C185 C 0.99733 0.14032 0.52103 0.0
C186 C 0.06486 0.12964 0.52117 0.0
H187 H 0.26004 0.0653 0.58703 0.0
H188 H 0.17872 0.09597 0.57323 0.0
H189 H 0.1525 -0.01146 0.58128 0.0
H190 H 1.01768 0.94522 0.55453 0.0
H191 H 0.89955 0.96444 0.55451 0.0
H192 H 0.92972 0.06996 0.82459 0.0
H193 H 0.06914 0.18828 0.82589 0.0
H194 H 0.17244 0.0536 0.88077 0.0
H195 H 0.03258 0.93503 0.87969 0.0
H196 H 0.22271 0.21513 0.88646 0.0
H197 H 0.26667 0.21236 0.80731 0.0
H198 H 0.17083 0.21278 0.80559 0.0
H199 H 0.18747 0.12546 0.82057 0.0
C200 C 0.98224 0.06541 0.83686 0.0
C201 C 0.9705 -0.00658 0.85204 0.0
C202 C 0.06188 0.13286 0.8375 0.0
C203 C 0.13127 0.1293 0.85324 0.0
C204 C 0.11971 0.05739 0.86843 0.0
H205 H 0.65921 0.47216 0.88732 0.0
H206 H 0.51932 0.35456 0.88581 0.0
C207 C 0.03996 -0.0102 0.86779 0.0
C208 C 0.21535 0.20171 0.85428 0.0
H209 H 0.36641 0.32898 0.8251 0.0
C210 C 0.25441 0.23981 0.87311 0.0
C211 C 0.25624 0.23397 0.83677 0.0
C212 C 0.21864 0.19372 0.81648 0.0
C213 C 0.33282 0.31019 0.87478 0.0
C214 C 0.37379 0.34234 0.85729 0.0
C215 C 0.33468 0.30432 0.83844 0.0
C216 C 0.45817 0.41431 0.85841 0.0
C217 C 0.37037 0.35052 0.89506 0.0
C218 C 0.47048 0.48635 0.84323 0.0
C219 C 0.55053 0.55352 0.84398 0.0
C220 C 0.61951 0.54933 0.85984 0.0
C221 C 0.60706 0.47714 0.87497 0.0
C222 C 0.52713 0.41012 0.87422 0.0
H223 H 0.3222 0.33226 0.90414 0.0
H224 H 0.4178 0.33109 0.90602 0.0
H225 H 0.40195 0.41877 0.89097 0.0
H226 H 0.41809 0.49059 0.83082 0.0
H227 H 0.5585 0.60835 0.83206 0.0
H228 H 0.58064 0.95116 0.92701 0.0
H229 H 0.55167 0.9589 0.95968 0.0
H230 H 0.40234 0.69462 0.96938 0.0
H231 H 0.43075 0.68629 0.93666 0.0
H232 H 0.39822 0.90741 0.96919 0.0
H233 H 0.5691 0.7411 0.02831 0.0
H234 H 0.58168 0.78071 1.00056 0.0
H235 H 0.49147 0.686 1.00649 0.0
C236 C 0.541 0.89471 0.93598 0.0
C237 C 0.5081 0.81805 0.92927 0.0
C238 C 0.52488 0.89924 0.9547 0.0
C239 C 0.47592 0.82726 0.96711 0.0
C240 C 0.44182 0.75075 0.96029 0.0
H241 H 0.23963 0.78039 0.06582 0.0
H242 H 0.27154 0.78131 0.03258 0.0
C243 C 0.45804 0.74611 0.94159 0.0
C244 C 0.45989 0.83253 0.98707 0.0
H245 H 0.48767 0.77026 0.0421 0.0
C246 C 0.41795 0.87765 0.98515 0.0
C247 C 0.48671 0.79451 1.00789 0.0
C248 C 0.53543 0.74846 1.01106 0.0
C249 C 0.40067 0.88449 1.00347 0.0
C250 C 0.42523 0.84438 0.02418 0.0
C251 C 0.4685 0.80051 0.02616 0.0
C252 C 0.40601 0.84648 0.044 0.0
C253 C 0.35713 0.93531 1.00057 0.0
C254 C 0.4711 0.88198 0.06153 0.0
C255 C 0.45309 0.88115 0.0806 0.0
C256 C 0.36962 0.84394 0.08255 0.0
C257 C 0.30458 0.80891 0.06488 0.0
C258 C 0.32265 0.81006 0.0458 0.0
H259 H 0.36142 0.97831 0.98494 0.0
H260 H 0.28984 0.89357 1.00049 0.0
H261 H 0.38432 0.97157 1.0142 0.0
H262 H 0.53587 0.90992 0.06048 0.0
H263 H 0.50449 0.90776 0.09402 0.0
H264 H 0.67014 0.00728 0.4575 0.0
H265 H 0.68404 0.05531 0.41963 0.0
H266 H 0.75018 0.30113 0.42651 0.0
H267 H 0.73516 0.25344 0.46436 0.0
H268 H 0.64005 0.25337 0.38698 0.0
H269 H 0.91136 0.19435 0.40274 0.0
H270 H 0.81983 0.10587 0.41042 0.0
H271 H 0.87258 0.19393 0.42441 0.0
C272 C 0.68707 0.0715 0.45096 0.0
C273 C 0.70223 0.12668 0.46407 0.0
C274 C 0.69549 0.09894 0.42932 0.0
C275 C 0.71997 0.1822 0.42038 0.0
C276 C 0.73182 0.23673 0.43312 0.0
H277 H 0.92818 0.43722 0.30503 0.0
H278 H 0.9033 0.38973 0.34197 0.0
C279 C 0.72311 0.2093 0.45477 0.0
C280 C 0.73492 0.21282 0.39792 0.0
H281 H 0.855 0.23252 0.36581 0.0
C282 C 0.68706 0.2489 0.38234 0.0
C283 C 0.79728 0.20819 0.39198 0.0
C284 C 0.85384 0.17424 0.40829 0.0
C285 C 0.69885 0.27913 0.36088 0.0
C286 C 0.75931 0.27201 0.35477 0.0
C287 C 0.80812 0.2372 0.37045 0.0
C288 C 0.77363 0.30102 0.33224 0.0
C289 C 0.64755 0.31978 0.34505 0.0
C290 C 0.70931 0.26624 0.3145 0.0
C291 C 0.72344 0.29292 0.29336 0.0
C292 C 0.80242 0.35467 0.28952 0.0
C293 C 0.8669 0.38891 0.30739 0.0
C294 C 0.85268 0.36216 0.32851 0.0
H295 H 0.62054 0.33952 0.35361 0.0
H296 H 0.68601 0.37442 0.33459 0.0
H297 H 0.59498 0.27523 0.33432 0.0
H298 H 0.64838 0.21764 0.31704 0.0
H299 H 0.6728 0.26414 0.28007 0.0
H300 H 0.66563 0.84835 0.77699 0.0
H301 H 0.65906 0.87515 0.73771 0.0
H302 H 0.84022 0.78849 0.74955 0.0
H303 H 0.84801 0.76236 0.78872 0.0
H304 H 0.81341 0.98383 0.7182 0.0
H305 H 0.63505 0.66135 0.70007 0.0
H306 H 0.62911 0.6893 0.72328 0.0
H307 H 0.72075 0.68388 0.72364 0.0
C308 C 0.7035 0.83427 0.77123 0.0
C309 C 0.7573 0.80317 0.78604 0.0
C310 C 0.69978 0.84977 0.7488 0.0
C311 C 0.74869 0.83323 0.74074 0.0
C312 C 0.80136 0.80094 0.75541 0.0
H313 H 0.79072 0.88177 0.60776 0.0
H314 H 0.79856 0.84513 0.64724 0.0
C315 C 0.80586 0.78631 0.77783 0.0
C316 C 0.74774 0.85341 0.71709 0.0
H317 H 0.68351 0.7671 0.67118 0.0
C318 C 0.78486 0.93657 0.70787 0.0
C319 C 0.71188 0.79155 0.70381 0.0
C320 C 0.67143 0.70134 0.71305 0.0
C321 C 0.78726 0.95972 0.68567 0.0
C322 C 0.74873 0.89792 0.6721 0.0
C323 C 0.71266 0.81455 0.68147 0.0
C324 C 0.74315 0.91874 0.6481 0.0
C325 C 0.83298 0.05027 0.67718 0.0
C326 C 0.70766 0.97059 0.63531 0.0
C327 C 0.7043 -0.00762 0.61293 0.0
C328 C 0.73464 0.96145 0.60263 0.0
C329 C 0.76724 0.90693 0.61523 0.0
C330 C 0.77171 0.88599 0.63779 0.0
H331 H 0.88178 0.08547 0.69041 0.0
H332 H 0.86334 0.06038 0.66407 0.0
H333 H 0.78776 0.0759 0.67049 0.0
H334 H 0.68223 -0.00574 0.64262 0.0
H335 H 0.67686 0.03286 0.60364 0.0
H336 H 0.96673 0.7692 0.9343 0.0
H337 H 0.98199 0.74462 0.97386 0.0
H338 H 0.72217 0.67918 0.96474 0.0
H339 H 0.70616 0.70388 0.92514 0.0
H340 H 0.93502 0.82605 0.99774 0.0
H341 H 0.7657 0.48256 1.00893 0.0
H342 H 0.8135 0.54235 0.98591 0.0
H343 H 0.71933 0.53924 0.98711 0.0
C344 C 0.91271 0.74948 0.94066 0.0
C345 C 0.83519 0.73859 0.92649 0.0
C346 C 0.92159 0.73545 0.96328 0.0
C347 C 0.85302 0.70935 0.97218 0.0
C348 C 0.7756 0.69848 0.95816 0.0
H349 H 0.8396 0.57726 0.11186 0.0
H350 H 0.79537 0.59207 0.07176 0.0
C351 C 0.76677 0.7131 0.93552 0.0
C352 C 0.86362 0.69597 0.99617 0.0
H353 H 0.82415 0.54587 0.04051 0.0
C354 C 0.91044 0.76487 1.0071 0.0
C355 C 0.83031 0.61615 1.00825 0.0
C356 C 0.77955 0.54042 0.9971 0.0
C357 C 0.92621 0.75613 0.0299 0.0
C358 C 0.89659 0.67605 0.04218 0.0
C359 C 0.84721 0.60713 0.03115 0.0
C360 C 0.92157 0.66314 0.06642 0.0
C361 C 0.97437 0.83306 0.04057 0.0
C362 C 1.0068 0.69568 0.07671 0.0
C363 C 0.03185 0.68824 0.09937 0.0
C364 C 0.97242 0.64638 0.11244 0.0
C365 C 0.88684 0.61014 0.10223 0.0
C366 C 0.86159 0.61864 0.07936 0.0
H367 H 0.96684 0.8859 0.02925 0.0
H368 H 0.95373 0.82349 0.05553 0.0
H369 H 0.04208 0.85008 0.0451 0.0
H370 H 0.05434 0.72771 0.06718 0.0
H371 H 0.09828 0.71575 0.10662 0.0
H372 H 0.30508 0.7712 0.24644 0.0
H373 H 0.36489 0.77719 0.28536 0.0
H374 H 0.13602 0.56882 0.30009 0.0
H375 H 0.07513 0.56257 0.26105 0.0
H376 H 0.20003 0.70545 0.32231 0.0
H377 H 0.44361 0.61506 0.3305 0.0
H378 H 0.44318 0.69751 0.30871 0.0
H379 H 0.3548 0.59663 0.3076 0.0
C380 C 0.26735 0.72635 0.25791 0.0
C381 C 0.18533 0.66608 0.25061 0.0
C382 C 0.30194 0.7296 0.28017 0.0
C383 C 0.25538 0.67267 0.29559 0.0
C384 C 0.17321 0.61289 0.28842 0.0
H385 H 0.4561 0.61841 0.43663 0.0
H386 H 0.38742 0.59166 0.39893 0.0
C387 C 0.1386 0.60931 0.26611 0.0
C388 C 0.29189 0.67778 0.31915 0.0
H389 H 0.45564 0.67133 0.36025 0.0
C390 C 0.25546 0.69729 0.33068 0.0
C391 C 0.36376 0.66636 0.33004 0.0
C392 C 0.40335 0.64198 0.31867 0.0
C393 C 0.29073 0.70843 0.35266 0.0
C394 C 0.36459 0.70038 0.36329 0.0
C395 C 0.3994 0.67812 0.35198 0.0
C396 C 0.40768 0.71683 0.38599 0.0
C397 C 0.24886 0.72893 0.36435 0.0
C398 C 0.44335 0.79643 0.39105 0.0
C399 C 0.48325 0.81211 0.41247 0.0
C400 C 0.48823 0.74839 0.4293 0.0
C401 C 0.45389 0.66897 0.42406 0.0
C402 C 0.41422 0.65344 0.40257 0.0
H403 H 0.18285 0.71334 0.35572 0.0
H404 H 0.24992 0.69551 0.38128 0.0
H405 H 0.2833 0.79606 0.36519 0.0
H406 H 0.44055 0.84658 0.37838 0.0
H407 H 0.5107 0.87441 0.4158 0.0
H408 H 0.87774 0.65387 0.76158 0.0
H409 H 0.86357 0.60441 0.72935 0.0
H410 H 0.05676 0.5312 0.7645 0.0
H411 H 0.06965 0.57851 0.79715 0.0
H412 H 0.98112 0.6501 0.70555 0.0
H413 H 0.85886 0.31929 0.74202 0.0
H414 H 0.86475 0.39608 0.75425 0.0
H415 H 0.95749 0.38794 0.7571 0.0
C416 C 0.91687 0.62673 0.76251 0.0
C417 C 0.97404 0.61899 0.78199 0.0
C418 C 0.90908 0.59904 0.74405 0.0
C419 C 0.95812 0.56294 0.74467 0.0
C420 C 1.01727 0.55755 0.76383 0.0
H421 H 0.99035 0.45562 0.62842 0.0
H422 H 0.0237 0.50761 0.66214 0.0
C423 C 0.02517 0.58533 0.78238 0.0
C424 C 0.94618 0.53047 0.72522 0.0
H425 H 0.88037 0.35284 0.7063 0.0
C426 C 0.95953 0.5852 0.70571 0.0
C427 C 0.91686 0.44557 0.72547 0.0
C428 C 0.89787 0.38348 0.74575 0.0
C429 C 0.9441 0.55728 0.68637 0.0
C430 C 0.91585 0.47258 0.68669 0.0
C431 C 0.90268 0.41784 0.7062 0.0
C432 C 0.89659 0.43915 0.66671 0.0
C433 C 0.95575 0.61823 0.66563 0.0
C434 C 0.81452 0.38177 0.65848 0.0
C435 C 0.79524 0.35195 0.63924 0.0
C436 C 0.85785 0.37885 0.62793 0.0
C437 C 0.94042 0.435 0.63652 0.0
C438 C 0.95963 0.46468 0.65578 0.0
H439 H 0.95883 0.67636 0.6671 0.0
H440 H 1.01529 0.6338 0.66191 0.0
H441 H 0.90385 0.59148 0.65168 0.0
H442 H 0.76504 0.36124 0.66674 0.0
H443 H 0.73096 0.30925 0.63296 0.0
loop_
_geom_bond_atom_site_label_1
_geom_bond_atom_site_label_2
_geom_bond_distance
_geom_bond_site_symmetry_2
_ccdc_geom_bond_type
C0 Eu1 2.835 . S
C0 C2 1.500 . S
C0 O20 1.257 . S
C0 O21 1.260 . S
Eu1 C0 2.835 . S
Eu1 O20 2.473 . S
Eu1 O21 2.480 . S
Eu1 O22 2.430 . S
Eu1 O23 2.670 1_455 S
Eu1 O24 2.394 1_455 S
Eu1 O29 2.355 . S
Eu1 O31 2.374 . S
C2 C0 1.500 . S
C2 C3 1.377 . S
C2 C7 1.377 . S
C3 C2 1.377 . S
C3 C4 1.395 . S
C3 H32 0.931 . S
C4 C3 1.395 . S
C4 C5 1.383 . S
C4 H33 0.931 . S
C5 C4 1.383 . S
C5 C6 1.394 . S
C6 C5 1.394 . S
C6 C7 1.378 . S
C6 H34 0.931 . S
C7 C2 1.377 . S
C7 C6 1.378 . S
C7 H35 0.931 . S
C8 O22 1.259 . S
C8 O23 1.270 1_455 S
C9 O24 1.251 . S
C9 O25 1.251 . S
C10 Eu11 2.835 . S
C10 C12 1.500 . S
C10 O26 1.257 . S
C10 O27 1.260 . S
Eu11 C10 2.835 . S
Eu11 O23 2.355 . S
Eu11 O25 2.374 . S
Eu11 O26 2.473 . S
Eu11 O27 2.480 . S
Eu11 O28 2.430 . S
Eu11 O29 2.670 1_655 S
Eu11 O30 2.394 1_655 S
C12 C10 1.500 . S
C12 C13 1.377 . S
C12 C17 1.377 . S
C13 C12 1.377 . S
C13 C14 1.395 . S
C13 H36 0.931 . S
C14 C13 1.395 . S
C14 C15 1.383 . S
C14 H37 0.931 . S
C15 C14 1.383 . S
C15 C16 1.394 . S
C16 C15 1.394 . S
C16 C17 1.378 . S
C16 H38 0.931 . S
C17 C12 1.377 . S
C17 C16 1.378 . S
C17 H39 0.931 . S
C18 O28 1.259 . S
C18 O29 1.270 1_655 S
C19 O30 1.251 . S
C19 O31 1.251 . S
O20 C0 1.257 . S
O20 Eu1 2.473 . S
O21 C0 1.260 . S
O21 Eu1 2.480 . S
O22 Eu1 2.430 . S
O22 C8 1.259 . S
O23 Eu1 2.670 1_655 S
O23 C8 1.270 1_655 S
O23 Eu11 2.355 . S
O24 Eu1 2.394 1_655 S
O24 C9 1.251 . S
O25 C9 1.251 . S
O25 Eu11 2.374 . S
O26 C10 1.257 . S
O26 Eu11 2.473 . S
O27 C10 1.260 . S
O27 Eu11 2.480 . S
O28 Eu11 2.430 . S
O28 C18 1.259 . S
O29 Eu1 2.355 . S
O29 Eu11 2.670 1_455 S
O29 C18 1.270 1_455 S
O30 Eu11 2.394 1_455 S
O30 C19 1.251 . S
O31 Eu1 2.374 . S
O31 C19 1.251 . S
H32 C3 0.931 . S
H33 C4 0.931 . S
H34 C6 0.931 . S
H35 C7 0.931 . S
H36 C13 0.931 . S
H37 C14 0.931 . S
H38 C16 0.931 . S
H39 C17 0.931 . S
C40 Eu41 2.835 . S
C40 C42 1.500 . S
C40 O60 1.257 . S
C40 O61 1.260 . S
Eu41 C40 2.835 . S
Eu41 O60 2.473 . S
Eu41 O61 2.480 . S
Eu41 O62 2.430 . S
Eu41 O63 2.670 1_565 S
Eu41 O64 2.394 1_565 S
Eu41 O69 2.355 . S
Eu41 O71 2.374 . S
C42 C40 1.500 . S
C42 C43 1.377 . S
C42 C47 1.377 . S
C43 C42 1.377 . S
C43 C44 1.395 . S
C43 H72 0.931 . S
C44 C43 1.395 . S
C44 C45 1.383 . S
C44 H73 0.931 . S
C45 C44 1.383 . S
C45 C46 1.394 . S
C46 C45 1.394 . S
C46 C47 1.378 . S
C46 H74 0.931 . S
C47 C42 1.377 . S
C47 C46 1.378 . S
C47 H75 0.931 . S
C48 O62 1.259 . S
C48 O63 1.270 1_565 S
C49 O64 1.251 . S
C49 O65 1.251 . S
C50 Eu51 2.835 . S
C50 C52 1.500 . S
C50 O66 1.257 . S
C50 O67 1.260 . S
Eu51 C50 2.835 . S
Eu51 O63 2.355 . S
Eu51 O65 2.374 . S
Eu51 O66 2.473 . S
Eu51 O67 2.480 . S
Eu51 O68 2.430 . S
Eu51 O69 2.670 1_545 S
Eu51 O70 2.394 . S
C52 C50 1.500 . S
C52 C53 1.377 . S
C52 C57 1.377 . S
C53 C52 1.377 . S
C53 C54 1.395 . S
C53 H76 0.931 . S
C54 C53 1.395 . S
C54 C55 1.383 . S
C54 H77 0.931 . S
C55 C54 1.383 . S
C55 C56 1.394 . S
C56 C55 1.394 . S
C56 C57 1.378 . S
C56 H78 0.931 . S
C57 C52 1.377 . S
C57 C56 1.378 . S
C57 H79 0.931 . S
C58 O68 1.259 . S
C58 O69 1.270 1_545 S
C59 O70 1.251 1_565 S
C59 O71 1.251 . S
O60 C40 1.257 . S
O60 Eu41 2.473 . S
O61 C40 1.260 . S
O61 Eu41 2.480 . S
O62 Eu41 2.430 . S
O62 C48 1.259 . S
O63 Eu41 2.670 1_545 S
O63 C48 1.270 1_545 S
O63 Eu51 2.355 . S
O64 Eu41 2.394 1_545 S
O64 C49 1.251 . S
O65 C49 1.251 . S
O65 Eu51 2.374 . S
O66 C50 1.257 . S
O66 Eu51 2.473 . S
O67 C50 1.260 . S
O67 Eu51 2.480 . S
O68 Eu51 2.430 . S
O68 C58 1.259 . S
O69 Eu41 2.355 . S
O69 Eu51 2.670 1_565 S
O69 C58 1.270 1_565 S
O70 Eu51 2.394 . S
O70 C59 1.251 1_545 S
O71 Eu41 2.374 . S
O71 C59 1.251 . S
H72 C43 0.931 . S
H73 C44 0.931 . S
H74 C46 0.931 . S
H75 C47 0.931 . S
H76 C53 0.931 . S
H77 C54 0.931 . S
H78 C56 0.931 . S
H79 C57 0.931 . S
C80 Eu81 2.835 . S
C80 C82 1.500 . S
C80 O100 1.257 . S
C80 O101 1.260 . S
Eu81 C80 2.835 . S
Eu81 O100 2.473 . S
Eu81 O101 2.480 . S
Eu81 O102 2.430 . S
Eu81 O103 2.670 . S
Eu81 O104 2.394 . S
Eu81 O109 2.355 . S
Eu81 O111 2.374 . S
C82 C80 1.500 . S
C82 C83 1.377 . S
C82 C87 1.377 . S
C83 C82 1.377 . S
C83 C84 1.395 . S
C83 H112 0.931 . S
C84 C83 1.395 . S
C84 C85 1.383 . S
C84 H113 0.931 . S
C85 C84 1.383 . S
C85 C86 1.394 1_655 S
C86 C85 1.394 1_455 S
C86 C87 1.378 1_455 S
C86 H114 0.931 . S
C87 C82 1.377 . S
C87 C86 1.378 1_655 S
C87 H115 0.931 1_655 S
C88 O102 1.259 . S
C88 O103 1.270 . S
C89 O104 1.251 . S
C89 O105 1.251 . S
C90 Eu91 2.835 . S
C90 C92 1.500 . S
C90 O106 1.257 . S
C90 O107 1.260 . S
Eu91 C90 2.835 . S
Eu91 O103 2.355 . S
Eu91 O105 2.374 . S
Eu91 O106 2.473 . S
Eu91 O107 2.480 . S
Eu91 O108 2.430 1_565 S
Eu91 O109 2.670 . S
Eu91 O110 2.394 . S
C92 C90 1.500 . S
C92 C93 1.382 . S
C92 C97 1.377 . S
C93 C92 1.382 . S
C93 C94 1.392 1_565 S
C93 H116 0.929 1_565 S
C94 C93 1.392 1_545 S
C94 C95 1.383 1_545 S
C94 H117 0.931 . S
C95 C94 1.383 1_565 S
C95 C96 1.394 . S
C96 C95 1.394 . S
C96 C97 1.378 . S
C96 H118 0.931 . S
C97 C92 1.377 . S
C97 C96 1.378 . S
C97 H119 0.931 . S
C98 O108 1.259 1_565 S
C98 O109 1.270 . S
C99 O110 1.251 . S
C99 O111 1.251 . S
O100 C80 1.257 . S
O100 Eu81 2.473 . S
O101 C80 1.260 . S
O101 Eu81 2.480 . S
O102 Eu81 2.430 . S
O102 C88 1.259 . S
O103 Eu81 2.670 . S
O103 C88 1.270 . S
O103 Eu91 2.355 . S
O104 Eu81 2.394 . S
O104 C89 1.251 . S
O105 C89 1.251 . S
O105 Eu91 2.374 . S
O106 C90 1.257 . S
O106 Eu91 2.473 . S
O107 C90 1.260 . S
O107 Eu91 2.480 . S
O108 Eu91 2.430 1_545 S
O108 C98 1.259 1_545 S
O109 Eu81 2.355 . S
O109 Eu91 2.670 . S
O109 C98 1.270 . S
O110 Eu91 2.394 . S
O110 C99 1.251 . S
O111 Eu81 2.374 . S
O111 C99 1.251 . S
H112 C83 0.931 . S
H113 C84 0.931 . S
H114 C86 0.931 . S
H115 C87 0.931 1_455 S
H116 C93 0.929 1_545 S
H117 C94 0.931 . S
H118 C96 0.931 . S
H119 C97 0.931 . S
H120 C128 0.929 . S
H121 C130 0.930 . S
H122 C132 0.930 . S
H123 C135 0.929 . S
H124 C138 0.930 . S
H125 C140 0.960 . S
H126 C140 0.960 . S
H127 C140 0.960 . S
C128 H120 0.929 . S
C128 C129 1.377 1_655 S
C128 C130 1.384 . S
C129 C128 1.377 1_455 S
C129 C135 1.390 . S
C130 H121 0.930 . S
C130 C128 1.384 . S
C130 C131 1.372 1_655 S
C131 C130 1.372 1_455 S
C131 C132 1.400 . S
C131 C136 1.490 1_465 S
C132 H122 0.930 . S
C132 C131 1.400 . S
C132 C135 1.386 . S
H133 C149 0.930 . S
H134 C150 0.931 . S
C135 H123 0.929 . S
C135 C129 1.390 . S
C135 C132 1.386 . S
C136 C131 1.490 1_645 S
C136 C138 1.395 . S
C136 C139 1.403 1_655 S
H137 C143 0.930 . S
C138 H124 0.930 . S
C138 C136 1.395 . S
C138 C141 1.403 . S
C139 C136 1.403 1_455 S
C139 C140 1.524 . S
C139 C143 1.400 . S
C140 H125 0.960 . S
C140 H126 0.960 . S
C140 H127 0.960 . S
C140 C139 1.524 . S
C141 C138 1.403 . S
C141 C142 1.392 . S
C141 C145 1.495 . S
C142 C141 1.392 . S
C142 C143 1.385 1_655 S
C142 C144 1.478 . S
C143 H137 0.930 . S
C143 C139 1.400 . S
C143 C142 1.385 1_455 S
C144 C142 1.478 . S
C144 C146 1.381 . S
C144 C150 1.383 1_655 S
C145 C141 1.495 . S
C145 H151 0.959 . S
C145 H152 0.961 . S
C145 H153 0.960 . S
C146 C144 1.381 . S
C146 C147 1.394 . S
C146 H154 0.930 . S
C147 C146 1.394 . S
C147 C148 1.383 . S
C147 H155 0.929 . S
C148 C147 1.383 . S
C148 C149 1.377 1_655 S
C149 H133 0.930 . S
C149 C148 1.377 1_455 S
C149 C150 1.379 . S
C150 H134 0.931 . S
C150 C144 1.383 1_455 S
C150 C149 1.379 . S
H151 C145 0.959 . S
H152 C145 0.961 . S
H153 C145 0.960 . S
H154 C146 0.930 . S
H155 C147 0.929 . S
H156 C164 0.929 . S
H157 C166 0.930 . S
H158 C168 0.930 . S
H159 C171 0.929 . S
H160 C174 0.930 . S
H161 C176 0.960 . S
H162 C176 0.960 . S
H163 C176 0.960 . S
C164 H156 0.929 . S
C164 C165 1.377 1_565 S
C164 C166 1.384 . S
C165 C164 1.377 1_545 S
C165 C171 1.390 . S
C166 H157 0.930 . S
C166 C164 1.384 . S
C166 C167 1.372 1_565 S
C167 C166 1.372 1_545 S
C167 C168 1.400 . S
C167 C172 1.490 . S
C168 H158 0.930 . S
C168 C167 1.400 . S
C168 C171 1.386 . S
H169 C185 0.930 . S
H170 C186 0.931 . S
C171 H159 0.929 . S
C171 C165 1.390 . S
C171 C168 1.386 . S
C172 C167 1.490 . S
C172 C174 1.395 . S
C172 C175 1.403 1_545 S
H173 C179 0.930 . S
C174 H160 0.930 . S
C174 C172 1.395 . S
C174 C177 1.403 . S
C175 C172 1.403 1_565 S
C175 C176 1.524 . S
C175 C179 1.400 . S
C176 H161 0.960 . S
C176 H162 0.960 . S
C176 H163 0.960 . S
C176 C175 1.524 . S
C177 C174 1.403 . S
C177 C178 1.392 . S
C177 C181 1.495 . S
C178 C177 1.392 . S
C178 C179 1.385 1_545 S
C178 C180 1.478 . S
C179 H173 0.930 . S
C179 C175 1.400 . S
C179 C178 1.385 1_565 S
C180 C178 1.478 . S
C180 C182 1.381 1_545 S
C180 C186 1.383 . S
C181 C177 1.495 . S
C181 H187 0.959 . S
C181 H188 0.961 . S
C181 H189 0.960 . S
C182 C180 1.381 1_565 S
C182 C183 1.394 1_455 S
C182 H190 0.930 . S
C183 C182 1.394 1_655 S
C183 C184 1.383 1_565 S
C183 H191 0.929 . S
C184 C183 1.383 1_545 S
C184 C185 1.377 . S
C185 H169 0.930 . S
C185 C184 1.377 . S
C185 C186 1.379 1_655 S
C186 H170 0.931 . S
C186 C180 1.383 . S
C186 C185 1.379 1_455 S
H187 C181 0.959 . S
H188 C181 0.961 . S
H189 C181 0.960 . S
H190 C182 0.930 . S
H191 C183 0.929 . S
H192 C200 0.929 1_655 S
H193 C202 0.930 . S
H194 C204 0.930 . S
H195 C207 0.929 1_565 S
H196 C210 0.930 . S
H197 C212 0.960 . S
H198 C212 0.960 . S
H199 C212 0.960 . S
C200 H192 0.929 1_455 S
C200 C201 1.377 . S
C200 C202 1.384 . S
C201 C200 1.377 . S
C201 C207 1.390 . S
C202 H193 0.930 . S
C202 C200 1.384 . S
C202 C203 1.372 . S
C203 C202 1.372 . S
C203 C204 1.400 . S
C203 C208 1.490 . S
C204 H194 0.930 . S
C204 C203 1.400 . S
C204 C207 1.386 . S
H205 C221 0.930 . S
H206 C222 0.931 . S
C207 H195 0.929 1_545 S
C207 C201 1.390 . S
C207 C204 1.386 . S
C208 C203 1.490 . S
C208 C210 1.395 . S
C208 C211 1.403 . S
H209 C215 0.930 . S
C210 H196 0.930 . S
C210 C208 1.395 . S
C210 C213 1.403 . S
C211 C208 1.403 . S
C211 C212 1.524 . S
C211 C215 1.400 . S
C212 H197 0.960 . S
C212 H198 0.960 . S
C212 H199 0.960 . S
C212 C211 1.524 . S
C213 C210 1.403 . S
C213 C214 1.392 . S
C213 C217 1.495 . S
C214 C213 1.392 . S
C214 C215 1.385 . S
C214 C216 1.478 . S
C215 H209 0.930 . S
C215 C211 1.400 . S
C215 C214 1.385 . S
C216 C214 1.478 . S
C216 C218 1.381 . S
C216 C222 1.383 . S
C217 C213 1.495 . S
C217 H223 0.959 . S
C217 H224 0.961 . S
C217 H225 0.960 . S
C218 C216 1.381 . S
C218 C219 1.394 . S
C218 H226 0.930 . S
C219 C218 1.394 . S
C219 C220 1.383 . S
C219 H227 0.929 . S
C220 C219 1.383 . S
C220 C221 1.377 . S
C221 H205 0.930 . S
C221 C220 1.377 . S
C221 C222 1.379 . S
C222 H206 0.931 . S
C222 C216 1.383 . S
C222 C221 1.379 . S
H223 C217 0.959 . S
H224 C217 0.961 . S
H225 C217 0.960 . S
H226 C218 0.930 . S
H227 C219 0.929 . S
H228 C236 0.929 . S
H229 C238 0.930 1_545 S
H230 C240 0.930 . S
H231 C243 0.929 . S
H232 C246 0.930 . S
H233 C248 0.960 . S
H234 C248 0.960 . S
H235 C248 0.960 . S
C236 H228 0.929 . S
C236 C237 1.377 1_545 S
C236 C238 1.384 1_545 S
C237 C236 1.377 1_565 S
C237 C243 1.390 . S
C238 H229 0.930 1_565 S
C238 C236 1.384 1_565 S
C238 C239 1.372 . S
C239 C238 1.372 . S
C239 C240 1.400 . S
C239 C244 1.490 . S
C240 H230 0.930 . S
C240 C239 1.400 . S
C240 C243 1.386 . S
H241 C257 0.930 . S
H242 C258 0.971 . S
C243 H231 0.929 . S
C243 C237 1.390 . S
C243 C240 1.386 . S
C244 C239 1.490 . S
C244 C246 1.395 1_565 S
C244 C247 1.403 . S
H245 C251 0.930 1_554 S
C246 H232 0.930 . S
C246 C244 1.395 1_545 S
C246 C249 1.401 . S
C247 C244 1.403 . S
C247 C248 1.524 . S
C247 C251 1.400 . S
C248 H233 0.960 . S
C248 H234 0.960 . S
C248 H235 0.960 . S
C248 C247 1.524 . S
C249 C246 1.401 . S
C249 C250 1.389 1_545 S
C249 C253 1.501 . S
C250 C249 1.389 1_565 S
C250 C251 1.385 . S
C250 C252 1.478 1_556 S
C251 H245 0.930 1_556 S
C251 C247 1.400 . S
C251 C250 1.385 . S
C252 C250 1.478 1_554 S
C252 C254 1.381 . S
C252 C258 1.383 . S
C253 C249 1.501 . S
C253 H259 0.959 . S
C253 H260 0.961 . S
C253 H261 0.960 . S
C254 C252 1.381 . S
C254 C255 1.394 . S
C254 H262 0.930 1_565 S
C255 C254 1.394 . S
C255 C256 1.383 . S
C255 H263 0.929 . S
C256 C255 1.383 . S
C256 C257 1.377 . S
C257 H241 0.930 . S
C257 C256 1.377 . S
C257 C258 1.379 . S
C258 H242 0.971 . S
C258 C252 1.383 . S
C258 C257 1.379 . S
H259 C253 0.959 . S
H260 C253 0.961 . S
H261 C253 0.960 . S
H262 C254 0.930 1_545 S
H263 C255 0.929 . S
H264 C272 0.929 . S
H265 C274 0.930 . S
H266 C276 0.930 . S
H267 C279 0.929 . S
H268 C282 0.930 . S
H269 C284 0.960 . S
H270 C284 0.960 . S
H271 C284 0.960 . S
C272 H264 0.929 . S
C272 C273 1.377 . S
C272 C274 1.384 . S
C273 C272 1.377 . S
C273 C279 1.390 . S
C274 H265 0.930 . S
C274 C272 1.384 . S
C274 C275 1.372 . S
C275 C274 1.372 . S
C275 C276 1.400 . S
C275 C280 1.490 . S
C276 H266 0.930 . S
C276 C275 1.400 . S
C276 C279 1.386 . S
H277 C293 0.930 . S
H278 C294 0.931 . S
C279 H267 0.929 . S
C279 C273 1.390 . S
C279 C276 1.386 . S
C280 C275 1.490 . S
C280 C282 1.395 . S
C280 C283 1.403 . S
H281 C287 0.930 . S
C282 H268 0.930 . S
C282 C280 1.395 . S
C282 C285 1.403 . S
C283 C280 1.403 . S
C283 C284 1.524 . S
C283 C287 1.400 . S
C284 H269 0.960 . S
C284 H270 0.960 . S
C284 H271 0.960 . S
C284 C283 1.524 . S
C285 C282 1.403 . S
C285 C286 1.392 . S
C285 C289 1.495 . S
C286 C285 1.392 . S
C286 C287 1.385 . S
C286 C288 1.478 . S
C287 H281 0.930 . S
C287 C283 1.400 . S
C287 C286 1.385 . S
C288 C286 1.478 . S
C288 C290 1.381 . S
C288 C294 1.383 . S
C289 C285 1.495 . S
C289 H295 0.959 . S
C289 H296 0.961 . S
C289 H297 0.960 . S
C290 C288 1.381 . S
C290 C291 1.394 . S
C290 H298 0.930 . S
C291 C290 1.394 . S
C291 C292 1.383 . S
C291 H299 0.929 . S
C292 C291 1.383 . S
C292 C293 1.377 . S
C293 H277 0.930 . S
C293 C292 1.377 . S
C293 C294 1.379 . S
C294 H278 0.931 . S
C294 C288 1.383 . S
C294 C293 1.379 . S
H295 C289 0.959 . S
H296 C289 0.961 . S
H297 C289 0.960 . S
H298 C290 0.930 . S
H299 C291 0.929 . S
H300 C308 0.929 . S
H301 C310 0.930 . S
H302 C312 0.930 . S
H303 C315 0.929 . S
H304 C318 0.930 1_545 S
H305 C320 0.960 . S
H306 C320 0.960 . S
H307 C320 0.960 . S
C308 H300 0.929 . S
C308 C309 1.377 . S
C308 C310 1.384 . S
C309 C308 1.377 . S
C309 C315 1.390 . S
C310 H301 0.930 . S
C310 C308 1.384 . S
C310 C311 1.372 . S
C311 C310 1.372 . S
C311 C312 1.400 . S
C311 C316 1.490 . S
C312 H302 0.930 . S
C312 C311 1.400 . S
C312 C315 1.386 . S
H313 C329 0.930 . S
H314 C330 0.931 . S
C315 H303 0.929 . S
C315 C309 1.390 . S
C315 C312 1.386 . S
C316 C311 1.490 . S
C316 C318 1.395 . S
C316 C319 1.403 . S
H317 C323 0.930 . S
C318 H304 0.930 1_565 S
C318 C316 1.395 . S
C318 C321 1.403 . S
C319 C316 1.403 . S
C319 C320 1.524 . S
C319 C323 1.400 . S
C320 H305 0.960 . S
C320 H306 0.960 . S
C320 H307 0.960 . S
C320 C319 1.524 . S
C321 C318 1.403 . S
C321 C322 1.392 . S
C321 C325 1.495 1_565 S
C322 C321 1.392 . S
C322 C323 1.385 . S
C322 C324 1.478 . S
C323 H317 0.930 . S
C323 C319 1.400 . S
C323 C322 1.385 . S
C324 C322 1.478 . S
C324 C326 1.381 . S
C324 C330 1.383 . S
C325 C321 1.495 1_545 S
C325 H331 0.959 . S
C325 H332 0.961 . S
C325 H333 0.960 . S
C326 C324 1.381 . S
C326 C327 1.394 . S
C326 H334 0.930 1_565 S
C327 C326 1.394 . S
C327 C328 1.383 . S
C327 H335 0.929 . S
C328 C327 1.383 . S
C328 C329 1.377 . S
C329 H313 0.930 . S
C329 C328 1.377 . S
C329 C330 1.379 . S
C330 H314 0.931 . S
C330 C324 1.383 . S
C330 C329 1.379 . S
H331 C325 0.959 . S
H332 C325 0.961 . S
H333 C325 0.960 . S
H334 C326 0.930 1_545 S
H335 C327 0.929 . S
H336 C344 0.929 . S
H337 C346 0.930 . S
H338 C348 0.930 . S
H339 C351 0.929 . S
H340 C354 0.930 . S
H341 C356 0.960 . S
H342 C356 0.960 . S
H343 C356 0.960 . S
C344 H336 0.929 . S
C344 C345 1.377 . S
C344 C346 1.384 . S
C345 C344 1.377 . S
C345 C351 1.390 . S
C346 H337 0.930 . S
C346 C344 1.384 . S
C346 C347 1.372 . S
C347 C346 1.372 . S
C347 C348 1.400 . S
C347 C352 1.490 . S
C348 H338 0.930 . S
C348 C347 1.400 . S
C348 C351 1.386 . S
H349 C365 0.930 . S
H350 C366 0.931 . S
C351 H339 0.929 . S
C351 C345 1.390 . S
C351 C348 1.386 . S
C352 C347 1.490 . S
C352 C354 1.395 . S
C352 C355 1.403 . S
H353 C359 0.930 . S
C354 H340 0.930 . S
C354 C352 1.395 . S
C354 C357 1.403 1_556 S
C355 C352 1.403 . S
C355 C356 1.524 . S
C355 C359 1.400 1_556 S
C356 H341 0.960 . S
C356 H342 0.960 . S
C356 H343 0.960 . S
C356 C355 1.524 . S
C357 C354 1.403 1_554 S
C357 C358 1.392 . S
C357 C361 1.495 . S
C358 C357 1.392 . S
C358 C359 1.385 . S
C358 C360 1.478 . S
C359 H353 0.930 . S
C359 C355 1.400 1_554 S
C359 C358 1.385 . S
C360 C358 1.478 . S
C360 C362 1.381 . S
C360 C366 1.383 . S
C361 C357 1.495 . S
C361 H367 0.959 . S
C361 H368 0.961 . S
C361 H369 0.960 . S
C362 C360 1.381 . S
C362 C363 1.394 . S
C362 H370 0.930 1_655 S
C363 C362 1.394 . S
C363 C364 1.383 . S
C363 H371 0.929 1_655 S
C364 C363 1.383 . S
C364 C365 1.377 . S
C365 H349 0.930 . S
C365 C364 1.377 . S
C365 C366 1.379 . S
C366 H350 0.931 . S
C366 C360 1.383 . S
C366 C365 1.379 . S
H367 C361 0.959 . S
H368 C361 0.961 . S
H369 C361 0.960 . S
H370 C362 0.930 1_455 S
H371 C363 0.929 1_455 S
H372 C380 0.929 . S
H373 C382 0.930 . S
H374 C384 0.930 . S
H375 C387 0.929 . S
H376 C390 0.930 . S
H377 C392 0.960 . S
H378 C392 0.960 . S
H379 C392 0.960 . S
C380 H372 0.929 . S
C380 C381 1.377 . S
C380 C382 1.384 . S
C381 C380 1.377 . S
C381 C387 1.390 . S
C382 H373 0.930 . S
C382 C380 1.384 . S
C382 C383 1.372 . S
C383 C382 1.372 . S
C383 C384 1.400 . S
C383 C388 1.490 . S
C384 H374 0.930 . S
C384 C383 1.400 . S
C384 C387 1.386 . S
H385 C401 0.930 . S
H386 C402 0.931 . S
C387 H375 0.929 . S
C387 C381 1.390 . S
C387 C384 1.386 . S
C388 C383 1.490 . S
C388 C390 1.395 . S
C388 C391 1.403 . S
H389 C395 0.930 . S
C390 H376 0.930 . S
C390 C388 1.395 . S
C390 C393 1.403 . S
C391 C388 1.403 . S
C391 C392 1.524 . S
C391 C395 1.400 . S
C392 H377 0.960 . S
C392 H378 0.960 . S
C392 H379 0.960 . S
C392 C391 1.524 . S
C393 C390 1.403 . S
C393 C394 1.392 . S
C393 C397 1.495 . S
C394 C393 1.392 . S
C394 C395 1.385 . S
C394 C396 1.478 . S
C395 H389 0.930 . S
C395 C391 1.400 . S
C395 C394 1.385 . S
C396 C394 1.478 . S
C396 C398 1.381 . S
C396 C402 1.383 . S
C397 C393 1.495 . S
C397 H403 0.959 . S
C397 H404 0.961 . S
C397 H405 0.960 . S
C398 C396 1.381 . S
C398 C399 1.394 . S
C398 H406 0.930 . S
C399 C398 1.394 . S
C399 C400 1.383 . S
C399 H407 0.929 . S
C400 C399 1.383 . S
C400 C401 1.377 . S
C401 H385 0.930 . S
C401 C400 1.377 . S
C401 C402 1.379 . S
C402 H386 0.931 . S
C402 C396 1.383 . S
C402 C401 1.379 . S
H403 C397 0.959 . S
H404 C397 0.961 . S
H405 C397 0.960 . S
H406 C398 0.930 . S
H407 C399 0.929 . S
H408 C416 0.929 . S
H409 C418 0.930 . S
H410 C420 0.930 . S
H411 C423 0.929 . S
H412 C426 0.930 . S
H413 C428 0.960 . S
H414 C428 0.960 . S
H415 C428 0.960 . S
C416 H408 0.929 . S
C416 C417 1.377 . S
C416 C418 1.384 . S
C417 C416 1.377 . S
C417 C423 1.390 1_655 S
C418 H409 0.930 . S
C418 C416 1.384 . S
C418 C419 1.372 . S
C419 C418 1.372 . S
C419 C420 1.400 1_655 S
C419 C424 1.490 . S
C420 H410 0.930 . S
C420 C419 1.400 1_455 S
C420 C423 1.386 . S
H421 C437 0.930 . S
H422 C438 0.931 1_455 S
C423 H411 0.929 . S
C423 C417 1.390 1_455 S
C423 C420 1.386 . S
C424 C419 1.490 . S
C424 C426 1.395 . S
C424 C427 1.403 . S
H425 C431 0.930 . S
C426 H412 0.930 . S
C426 C424 1.395 . S
C426 C429 1.403 . S
C427 C424 1.403 . S
C427 C428 1.524 . S
C427 C431 1.400 . S
C428 H413 0.960 . S
C428 H414 0.960 . S
C428 H415 0.960 . S
C428 C427 1.524 . S
C429 C426 1.403 . S
C429 C430 1.392 . S
C429 C433 1.495 . S
C430 C429 1.392 . S
C430 C431 1.385 . S
C430 C432 1.478 . S
C431 H425 0.930 . S
C431 C427 1.400 . S
C431 C430 1.385 . S
C432 C430 1.478 . S
C432 C434 1.381 . S
C432 C438 1.383 . S
C433 C429 1.495 . S
C433 H439 0.959 . S
C433 H440 0.961 . S
C433 H441 0.960 . S
C434 C432 1.381 . S
C434 C435 1.394 . S
C434 H442 0.930 . S
C435 C434 1.394 . S
C435 C436 1.383 . S
C435 H443 0.929 . S
C436 C435 1.383 . S
C436 C437 1.377 . S
C437 H421 0.930 . S
C437 C436 1.377 . S
C437 C438 1.379 . S
C438 H422 0.931 1_655 S
C438 C432 1.383 . S
C438 C437 1.379 . S
H439 C433 0.959 . S
H440 C433 0.961 . S
H441 C433 0.960 . S
H442 C434 0.930 . S
H443 C435 0.929 . S
C129 C18 1.393 1_455 S
C148 C8 1.416 1_655 S
C165 C48 1.444 1_545 S
C184 C58 1.434 . S
C201 C98 1.238 1_445 S
C220 C88 1.238 . S
C237 C95 0.869 . S
C256 C5 0.897 . S
C273 C49 1.690 . S
C292 C15 1.660 . S
C309 C89 2.188 . S
C328 C59 2.168 . S
C345 C99 2.143 . S
C364 C9 2.114 . S
C381 C19 1.588 . S
C400 C45 1.486 . S
C417 C85 0.879 . S
C436 C55 0.898 . S
