# Generated by pormake.
# Topology ukn, (4)-cn, num edge types: 1
# Building blocks:
#     Node 0, Type 0, BuildingBlock: AZAVOO_clean_sbu_0, # of connection points: 4
#     Node 1, Type 0, BuildingBlock: AZAVOO_clean_sbu_0, # of connection points: 4
#     Node 2, Type 0, BuildingBlock: AZAVOO_clean_sbu_0, # of connection points: 4
#     Node 3, Type 0, BuildingBlock: AZAVOO_clean_sbu_0, # of connection points: 4
#     Node 4, Type 0, BuildingBlock: AZAVOO_clean_sbu_0, # of connection points: 4
#     Node 5, Type 0, BuildingBlock: AZAVOO_clean_sbu_0, # of connection points: 4
#     Node 6, Type 0, BuildingBlock: AZAVOO_clean_sbu_0, # of connection points: 4
#     Node 7, Type 0, BuildingBlock: AZAVOO_clean_sbu_0, # of connection points: 4
#     Node 8, Type 0, BuildingBlock: AZAVOO_clean_sbu_0, # of connection points: 4
#     Node 9, Type 0, BuildingBlock: AZAVOO_clean_sbu_0, # of connection points: 4
#     Node 10, Type 0, BuildingBlock: AZAVOO_clean_sbu_0, # of connection points: 4
#     Node 11, Type 0, BuildingBlock: AZAVOO_clean_sbu_0, # of connection points: 4
#     Node 12, Type 0, BuildingBlock: AZAVOO_clean_sbu_0, # of connection points: 4
#     Node 13, Type 0, BuildingBlock: AZAVOO_clean_sbu_0, # of connection points: 4
#     Node 14, Type 0, BuildingBlock: AZAVOO_clean_sbu_0, # of connection points: 4
#     Node 15, Type 0, BuildingBlock: AZAVOO_clean_sbu_0, # of connection points: 4
#     Node 16, Type 0, BuildingBlock: AZAVOO_clean_sbu_0, # of connection points: 4
#     Node 17, Type 0, BuildingBlock: AZAVOO_clean_sbu_0, # of connection points: 4
#     Node 18, Type 0, BuildingBlock: AZAVOO_clean_sbu_0, # of connection points: 4
#     Node 19, Type 0, BuildingBlock: AZAVOO_clean_sbu_0, # of connection points: 4
#     Node 20, Type 0, BuildingBlock: AZAVOO_clean_sbu_0, # of connection points: 4
#     Node 21, Type 0, BuildingBlock: AZAVOO_clean_sbu_0, # of connection points: 4
#     Node 22, Type 0, BuildingBlock: AZAVOO_clean_sbu_0, # of connection points: 4
#     Node 23, Type 0, BuildingBlock: AZAVOO_clean_sbu_0, # of connection points: 4
#     Node 24, Type 0, BuildingBlock: AZAVOO_clean_sbu_0, # of connection points: 4
#     Node 25, Type 0, BuildingBlock: AZAVOO_clean_sbu_0, # of connection points: 4
#     Node 26, Type 0, BuildingBlock: AZAVOO_clean_sbu_0, # of connection points: 4
#     Node 27, Type 0, BuildingBlock: AZAVOO_clean_sbu_0, # of connection points: 4
#     Node 28, Type 0, BuildingBlock: AZAVOO_clean_sbu_0, # of connection points: 4
#     Node 29, Type 0, BuildingBlock: AZAVOO_clean_sbu_0, # of connection points: 4
#     Node 30, Type 0, BuildingBlock: AZAVOO_clean_sbu_0, # of connection points: 4
#     Node 31, Type 0, BuildingBlock: AZAVOO_clean_sbu_0, # of connection points: 4
#     Node 32, Type 0, BuildingBlock: AZAVOO_clean_sbu_0, # of connection points: 4
#     Node 33, Type 0, BuildingBlock: AZAVOO_clean_sbu_0, # of connection points: 4
#     Node 34, Type 0, BuildingBlock: AZAVOO_clean_sbu_0, # of connection points: 4
#     Node 35, Type 0, BuildingBlock: AZAVOO_clean_sbu_0, # of connection points: 4
#     Edge 36, Type (0, 0), BuildingBlock: UVAHIK_clean_linker_0, # of connection points: 2
#     Edge 37, Type (0, 0), BuildingBlock: UVAHIK_clean_linker_0, # of connection points: 2
#     Edge 38, Type (0, 0), BuildingBlock: UVAHIK_clean_linker_0, # of connection points: 2
#     Edge 39, Type (0, 0), BuildingBlock: UVAHIK_clean_linker_0, # of connection points: 2
#     Edge 40, Type (0, 0), BuildingBlock: UVAHIK_clean_linker_0, # of connection points: 2
#     Edge 41, Type (0, 0), BuildingBlock: UVAHIK_clean_linker_0, # of connection points: 2
#     Edge 42, Type (0, 0), BuildingBlock: UVAHIK_clean_linker_0, # of connection points: 2
#     Edge 43, Type (0, 0), BuildingBlock: UVAHIK_clean_linker_0, # of connection points: 2
#     Edge 44, Type (0, 0), BuildingBlock: UVAHIK_clean_linker_0, # of connection points: 2
#     Edge 45, Type (0, 0), BuildingBlock: UVAHIK_clean_linker_0, # of connection points: 2
#     Edge 46, Type (0, 0), BuildingBlock: UVAHIK_clean_linker_0, # of connection points: 2
#     Edge 47, Type (0, 0), BuildingBlock: UVAHIK_clean_linker_0, # of connection points: 2
#     Edge 48, Type (0, 0), BuildingBlock: UVAHIK_clean_linker_0, # of connection points: 2
#     Edge 49, Type (0, 0), BuildingBlock: UVAHIK_clean_linker_0, # of connection points: 2
#     Edge 50, Type (0, 0), BuildingBlock: UVAHIK_clean_linker_0, # of connection points: 2
#     Edge 51, Type (0, 0), BuildingBlock: UVAHIK_clean_linker_0, # of connection points: 2
#     Edge 52, Type (0, 0), BuildingBlock: UVAHIK_clean_linker_0, # of connection points: 2
#     Edge 53, Type (0, 0), BuildingBlock: UVAHIK_clean_linker_0, # of connection points: 2
#     Edge 54, Type (0, 0), BuildingBlock: UVAHIK_clean_linker_0, # of connection points: 2
#     Edge 55, Type (0, 0), BuildingBlock: UVAHIK_clean_linker_0, # of connection points: 2
#     Edge 56, Type (0, 0), BuildingBlock: UVAHIK_clean_linker_0, # of connection points: 2
#     Edge 57, Type (0, 0), BuildingBlock: UVAHIK_clean_linker_0, # of connection points: 2
#     Edge 58, Type (0, 0), BuildingBlock: UVAHIK_clean_linker_0, # of connection points: 2
#     Edge 59, Type (0, 0), BuildingBlock: UVAHIK_clean_linker_0, # of connection points: 2
#     Edge 60, Type (0, 0), BuildingBlock: UVAHIK_clean_linker_0, # of connection points: 2
#     Edge 61, Type (0, 0), BuildingBlock: UVAHIK_clean_linker_0, # of connection points: 2
#     Edge 62, Type (0, 0), BuildingBlock: UVAHIK_clean_linker_0, # of connection points: 2
#     Edge 63, Type (0, 0), BuildingBlock: UVAHIK_clean_linker_0, # of connection points: 2
#     Edge 64, Type (0, 0), BuildingBlock: UVAHIK_clean_linker_0, # of connection points: 2
#     Edge 65, Type (0, 0), BuildingBlock: UVAHIK_clean_linker_0, # of connection points: 2
#     Edge 66, Type (0, 0), BuildingBlock: UVAHIK_clean_linker_0, # of connection points: 2
#     Edge 67, Type (0, 0), BuildingBlock: UVAHIK_clean_linker_0, # of connection points: 2
#     Edge 68, Type (0, 0), BuildingBlock: UVAHIK_clean_linker_0, # of connection points: 2
#     Edge 69, Type (0, 0), BuildingBlock: UVAHIK_clean_linker_0, # of connection points: 2
#     Edge 70, Type (0, 0), BuildingBlock: UVAHIK_clean_linker_0, # of connection points: 2
#     Edge 71, Type (0, 0), BuildingBlock: UVAHIK_clean_linker_0, # of connection points: 2
#     Edge 72, Type (0, 0), BuildingBlock: UVAHIK_clean_linker_0, # of connection points: 2
#     Edge 73, Type (0, 0), BuildingBlock: UVAHIK_clean_linker_0, # of connection points: 2
#     Edge 74, Type (0, 0), BuildingBlock: UVAHIK_clean_linker_0, # of connection points: 2
#     Edge 75, Type (0, 0), BuildingBlock: UVAHIK_clean_linker_0, # of connection points: 2
#     Edge 76, Type (0, 0), BuildingBlock: UVAHIK_clean_linker_0, # of connection points: 2
#     Edge 77, Type (0, 0), BuildingBlock: UVAHIK_clean_linker_0, # of connection points: 2
#     Edge 78, Type (0, 0), BuildingBlock: UVAHIK_clean_linker_0, # of connection points: 2
#     Edge 79, Type (0, 0), BuildingBlock: UVAHIK_clean_linker_0, # of connection points: 2
#     Edge 80, Type (0, 0), BuildingBlock: UVAHIK_clean_linker_0, # of connection points: 2
#     Edge 81, Type (0, 0), BuildingBlock: UVAHIK_clean_linker_0, # of connection points: 2
#     Edge 82, Type (0, 0), BuildingBlock: UVAHIK_clean_linker_0, # of connection points: 2
#     Edge 83, Type (0, 0), BuildingBlock: UVAHIK_clean_linker_0, # of connection points: 2
#     Edge 84, Type (0, 0), BuildingBlock: UVAHIK_clean_linker_0, # of connection points: 2
#     Edge 85, Type (0, 0), BuildingBlock: UVAHIK_clean_linker_0, # of connection points: 2
#     Edge 86, Type (0, 0), BuildingBlock: UVAHIK_clean_linker_0, # of connection points: 2
#     Edge 87, Type (0, 0), BuildingBlock: UVAHIK_clean_linker_0, # of connection points: 2
#     Edge 88, Type (0, 0), BuildingBlock: UVAHIK_clean_linker_0, # of connection points: 2
#     Edge 89, Type (0, 0), BuildingBlock: UVAHIK_clean_linker_0, # of connection points: 2
#     Edge 90, Type (0, 0), BuildingBlock: UVAHIK_clean_linker_0, # of connection points: 2
#     Edge 91, Type (0, 0), BuildingBlock: UVAHIK_clean_linker_0, # of connection points: 2
#     Edge 92, Type (0, 0), BuildingBlock: UVAHIK_clean_linker_0, # of connection points: 2
#     Edge 93, Type (0, 0), BuildingBlock: UVAHIK_clean_linker_0, # of connection points: 2
#     Edge 94, Type (0, 0), BuildingBlock: UVAHIK_clean_linker_0, # of connection points: 2
#     Edge 95, Type (0, 0), BuildingBlock: UVAHIK_clean_linker_0, # of connection points: 2
#     Edge 96, Type (0, 0), BuildingBlock: UVAHIK_clean_linker_0, # of connection points: 2
#     Edge 97, Type (0, 0), BuildingBlock: UVAHIK_clean_linker_0, # of connection points: 2
#     Edge 98, Type (0, 0), BuildingBlock: UVAHIK_clean_linker_0, # of connection points: 2
#     Edge 99, Type (0, 0), BuildingBlock: UVAHIK_clean_linker_0, # of connection points: 2
#     Edge 100, Type (0, 0), BuildingBlock: UVAHIK_clean_linker_0, # of connection points: 2
#     Edge 101, Type (0, 0), BuildingBlock: UVAHIK_clean_linker_0, # of connection points: 2
#     Edge 102, Type (0, 0), BuildingBlock: UVAHIK_clean_linker_0, # of connection points: 2
#     Edge 103, Type (0, 0), BuildingBlock: UVAHIK_clean_linker_0, # of connection points: 2
#     Edge 104, Type (0, 0), BuildingBlock: UVAHIK_clean_linker_0, # of connection points: 2
#     Edge 105, Type (0, 0), BuildingBlock: UVAHIK_clean_linker_0, # of connection points: 2
#     Edge 106, Type (0, 0), BuildingBlock: UVAHIK_clean_linker_0, # of connection points: 2
#     Edge 107, Type (0, 0), BuildingBlock: UVAHIK_clean_linker_0, # of connection points: 2
# Relax obj value: 0.162
# Max RMSD: 0.146
# Mean RMSD: 0.146
data_MOF--net-ukn--node1-AZAVOO_clean_sbu_0--edge1-UVAHIK_clean_linker_0
_symmetry_space_group_name_H-M    P1
_symmetry_Int_Tables_number       1
_symmetry_cell_setting            triclinic
loop_
_symmetry_equiv_pos_as_xyz
'x, y, z'
_cell_length_a     140.05209
_cell_length_b     140.0411
_cell_length_c     30.83974
_cell_angle_alpha  90.003664
_cell_angle_beta   90.006619
_cell_angle_gamma 119.98459
loop_
_atom_site_label
_atom_site_type_symbol
_atom_site_fract_x
_atom_site_fract_y
_atom_site_fract_z
_atom_type_partial_charge
Mg0 Mg 0.07272 0.28044 0.09051 0.0
O1 O 0.07706 0.29334 0.03685 0.0
O2 O 0.09394 0.30749 0.05131 0.0
Mg3 Mg 0.10055 0.30333 0.11149 0.0
C4 C 0.08519 0.30289 0.02829 0.0
C5 C 0.05011 0.26161 0.06267 0.0
O6 O 0.05564 0.25637 0.06741 0.0
O7 O 0.07 0.29149 0.13703 0.0
O8 O 0.08732 0.30488 0.14894 0.0
O9 O 0.0799 0.27219 0.0513 0.0
O10 O 0.08931 0.28584 0.09754 0.0
C11 C 0.07695 0.30051 0.15516 0.0
C12 C 0.08927 0.27936 0.06779 0.0
O13 O 0.05488 0.27187 0.07045 0.0
Mg14 Mg 0.7219 0.79544 0.09801 0.0
O15 O 0.70998 0.79199 0.04088 0.0
O16 O 0.70099 0.80117 0.05357 0.0
Mg17 Mg 0.70704 0.81039 0.11762 0.0
C18 C 0.70292 0.79482 0.03004 0.0
C19 C 0.7349 0.78489 0.06767 0.0
O20 O 0.7424 0.79507 0.07728 0.0
O21 O 0.70743 0.78364 0.14078 0.0
O22 O 0.69923 0.79364 0.15132 0.0
O23 O 0.73489 0.81024 0.06322 0.0
O24 O 0.7226 0.81048 0.10756 0.0
C25 C 0.69978 0.7849 0.15731 0.0
C26 C 0.73037 0.81552 0.07955 0.0
O27 O 0.72484 0.78178 0.07477 0.0
Mg28 Mg 0.19902 0.92781 0.10931 0.0
O29 O 0.20108 0.91764 0.0559 0.0
O30 O 0.19005 0.89969 0.06878 0.0
Mg31 Mg 0.18161 0.89844 0.13354 0.0
C32 C 0.19719 0.90755 0.04547 0.0
C33 C 0.21207 0.95005 0.06372 0.0
O34 O 0.20206 0.94862 0.06499 0.0
O35 O 0.20984 0.9243 0.1544 0.0
O36 O 0.19867 0.9062 0.16533 0.0
O37 O 0.18466 0.92653 0.07276 0.0
O38 O 0.18336 0.91479 0.12355 0.0
C39 C 0.20783 0.91511 0.17084 0.0
C40 C 0.17868 0.91748 0.09388 0.0
O41 O 0.21387 0.94291 0.08141 0.0
Mg42 Mg 0.27627 0.07505 0.91493 0.0
O43 O 0.29024 0.08347 0.96497 0.0
O44 O 0.29723 0.1017 0.95893 0.0
Mg45 Mg 0.28753 0.10485 0.90704 0.0
C46 C 0.2971 0.09336 0.97633 0.0
C47 C 0.2762 0.05306 0.89253 0.0
O48 O 0.27608 0.05619 0.85246 0.0
O49 O 0.28891 0.08044 0.86074 0.0
O50 O 0.29513 0.09855 0.85666 0.0
O51 O 0.26414 0.07409 0.96405 0.0
O52 O 0.27356 0.08822 0.91976 0.0
C53 C 0.29509 0.08987 0.8437 0.0
C54 C 0.26702 0.08405 0.95246 0.0
O55 O 0.27644 0.0591 0.92374 0.0
Mg56 Mg 0.91457 0.19896 0.90165 0.0
O57 O 0.91096 0.20734 0.95845 0.0
O58 O 0.89308 0.20229 0.95421 0.0
Mg59 Mg 0.88534 0.19045 0.89771 0.0
C60 C 0.90253 0.20768 0.97215 0.0
C61 C 0.93862 0.20549 0.90802 0.0
O62 O 0.93376 0.19498 0.89788 0.0
O63 O 0.91382 0.21102 0.85433 0.0
O64 O 0.89575 0.20499 0.85248 0.0
O65 O 0.91071 0.18472 0.94414 0.0
O66 O 0.8984 0.18612 0.90378 0.0
C67 C 0.9056 0.21166 0.84023 0.0
C68 C 0.90051 0.18086 0.93313 0.0
O69 O 0.93281 0.2101 0.91127 0.0
Mg70 Mg 0.79452 0.71303 0.90214 0.0
O71 O 0.78633 0.70265 0.96304 0.0
O72 O 0.79349 0.6916 0.97243 0.0
Mg73 Mg 0.80679 0.69565 0.92182 0.0
C74 C 0.78689 0.69498 0.98329 0.0
C75 C 0.78442 0.72766 0.88821 0.0
O76 O 0.79478 0.7342 0.87744 0.0
O77 O 0.78454 0.69799 0.85933 0.0
O78 O 0.7929 0.68818 0.87145 0.0
O79 O 0.80767 0.72619 0.94291 0.0
O80 O 0.80846 0.71201 0.91514 0.0
C81 C 0.78555 0.68955 0.85256 0.0
C82 C 0.81266 0.72054 0.94001 0.0
O83 O 0.78132 0.71779 0.89891 0.0
Mg84 Mg 0.9198 0.72351 0.91533 0.0
O85 O 0.91231 0.71009 0.96796 0.0
O86 O 0.89439 0.70477 0.9732 0.0
Mg87 Mg 0.89018 0.71331 0.91983 0.0
C88 C 0.90287 0.70435 0.9857 0.0
C89 C 0.94315 0.72929 0.89116 0.0
O90 O 0.94074 0.73456 0.86181 0.0
O91 O 0.91288 0.71028 0.8628 0.0
O92 O 0.89486 0.70443 0.86861 0.0
O93 O 0.92177 0.73596 0.96538 0.0
O94 O 0.90718 0.72698 0.92285 0.0
C95 C 0.90289 0.70394 0.85117 0.0
C96 C 0.9119 0.73361 0.95473 0.0
O97 O 0.93582 0.72327 0.91853 0.0
Mg98 Mg 0.27127 0.19105 0.92212 0.0
O99 O 0.28633 0.19835 0.96757 0.0
O100 O 0.29435 0.18807 0.9591 0.0
Mg101 Mg 0.28413 0.17399 0.91223 0.0
C102 C 0.29399 0.19619 0.97619 0.0
C103 C 0.26208 0.20631 0.90773 0.0
O104 O 0.25588 0.19787 0.88257 0.0
O105 O 0.28263 0.19822 0.86382 0.0
O106 O 0.28944 0.18686 0.858 0.0
O107 O 0.26054 0.18011 0.97519 0.0
O108 O 0.2699 0.17579 0.92899 0.0
C109 C 0.28863 0.19505 0.84453 0.0
C110 C 0.26384 0.17338 0.96319 0.0
O111 O 0.26989 0.20633 0.92861 0.0
Mg112 Mg 0.78843 0.07158 0.90622 0.0
O113 O 0.78077 0.07835 0.95447 0.0
O114 O 0.78847 0.09649 0.94336 0.0
Mg115 Mg 0.80061 0.10116 0.88765 0.0
C116 C 0.78178 0.08771 0.96362 0.0
C117 C 0.77089 0.04712 0.89194 0.0
O118 O 0.77468 0.04986 0.85221 0.0
O119 O 0.77817 0.07269 0.85169 0.0
O120 O 0.78597 0.09092 0.84258 0.0
O121 O 0.80182 0.07523 0.95368 0.0
O122 O 0.80256 0.08685 0.90335 0.0
C123 C 0.77872 0.08104 0.83288 0.0
C124 C 0.80694 0.085 0.93673 0.0
O125 O 0.77495 0.05431 0.92178 0.0
Mg126 Mg 0.71151 0.91588 0.08471 0.0
O127 O 0.69918 0.90652 0.02961 0.0
O128 O 0.69162 0.88851 0.04394 0.0
Mg129 Mg 0.69908 0.88639 0.10628 0.0
C130 C 0.69255 0.89641 0.02021 0.0
C131 C 0.72254 0.93997 0.06639 0.0
O132 O 0.73021 0.93833 0.0833 0.0
O133 O 0.69738 0.9122 0.13047 0.0
O134 O 0.6905 0.89423 0.14345 0.0
O135 O 0.72493 0.91551 0.04769 0.0
O136 O 0.71374 0.90248 0.09335 0.0
C137 C 0.69048 0.90326 0.14919 0.0
C138 C 0.72145 0.90588 0.06462 0.0
O139 O 0.71281 0.93187 0.0633 0.0
Mg140 Mg 0.07585 0.79443 0.06188 0.0
O141 O 0.08454 0.79148 0.00414 0.0
O142 O 0.10264 0.80046 0.01804 0.0
Mg143 Mg 0.10553 0.80886 0.08375 0.0
C144 C 0.09446 0.79436 0.99364 0.0
C145 C 0.05621 0.78183 -0.00018 0.0
O146 O 0.06289 0.79035 0.97592 0.0
O147 O 0.07818 0.7822 0.10296 0.0
O148 O 0.09639 0.79168 0.1147 0.0
O149 O 0.07788 0.80974 0.03081 0.0
O150 O 0.09018 0.80926 0.07439 0.0
C151 C 0.08695 0.78306 0.11929 0.0
C152 C 0.08754 0.81481 0.04858 0.0
O153 O 0.05925 0.7809 0.03764 0.0
Mg154 Mg 0.20892 0.28486 0.10776 0.0
O155 O 0.21645 0.29528 0.04649 0.0
O156 O 0.21431 0.31007 0.05074 0.0
Mg157 Mg 0.20532 0.30901 0.1134 0.0
C158 C 0.21778 0.30434 0.03123 0.0
C159 C 0.21285 0.26691 0.06805 0.0
O160 O 0.20271 0.26353 0.05532 0.0
O161 O 0.22362 0.2973 0.14725 0.0
O162 O 0.22084 0.31171 0.14884 0.0
O163 O 0.19276 0.2756 0.07444 0.0
O164 O 0.19806 0.29094 0.11175 0.0
C165 C 0.2265 0.30715 0.15833 0.0
C166 C 0.19096 0.28341 0.08636 0.0
O167 O 0.21771 0.27542 0.09189 0.0
Mg168 Mg 0.74118 0.60589 0.39994 0.0
O169 O 0.74705 0.62055 0.35356 0.0
O170 O 0.76552 0.62998 0.35607 0.0
Mg171 Mg 0.77134 0.62048 0.39839 0.0
C172 C 0.75634 0.62873 0.3426 0.0
C173 C 0.71672 0.59585 0.42236 0.0
O174 O 0.71943 0.58958 0.44476 0.0
O175 O 0.74622 0.61761 0.45766 0.0
O176 O 0.76456 0.62528 0.45683 0.0
O177 O 0.74099 0.59508 0.34593 0.0
O178 O 0.75542 0.60547 0.38744 0.0
C179 C 0.7557 0.62402 0.47396 0.0
C180 C 0.75133 0.599 0.3546 0.0
O181 O 0.72407 0.60371 0.40012 0.0
Mg182 Mg 0.38538 0.13431 0.41782 0.0
O183 O 0.37287 0.12906 0.36204 0.0
O184 O 0.36445 0.13903 0.36689 0.0
Mg185 Mg 0.37198 0.15096 0.42366 0.0
C186 C 0.36579 0.1316 0.34861 0.0
C187 C 0.38687 0.11321 0.438 0.0
O188 O 0.3863 0.116 0.47818 0.0
O189 O 0.37135 0.12522 0.4655 0.0
O190 O 0.36384 0.13601 0.46942 0.0
O191 O 0.39848 0.14708 0.37575 0.0
O192 O 0.38699 0.14975 0.41661 0.0
C193 C 0.36424 0.12745 0.48085 0.0
C194 C 0.39462 0.15337 0.38752 0.0
O195 O 0.38665 0.11907 0.40704 0.0
Mg196 Mg 0.86521 0.25542 0.41327 0.0
O197 O 0.87172 0.24826 0.36186 0.0
O198 O 0.86359 0.23003 0.37301 0.0
Mg199 Mg 0.85133 0.22556 0.42856 0.0
C200 C 0.87034 0.23876 0.35256 0.0
C201 C 0.8763 0.27973 0.39122 0.0
O202 O 0.8659 0.27697 0.39586 0.0
O203 O 0.87557 0.25308 0.46436 0.0
O204 O 0.86631 0.23479 0.47314 0.0
O205 O 0.85185 0.25335 0.36859 0.0
O206 O 0.85055 0.24055 0.41436 0.0
C207 C 0.87432 0.24434 0.48257 0.0
C208 C 0.84638 0.24333 0.38281 0.0
O209 O 0.87907 0.27251 0.39789 0.0
Mg210 Mg 0.94978 0.41478 0.27058 0.0
O211 O 0.96343 0.42076 0.32186 0.0
O212 O 0.97492 0.43876 0.31031 0.0
Mg213 Mg 0.96794 0.44437 0.25548 0.0
C214 C 0.97216 0.42983 0.33078 0.0
C215 C 0.94249 0.39033 0.25323 0.0
O216 O 0.94259 0.39368 0.21335 0.0
O217 O 0.9619 0.4161 0.21921 0.0
O218 O 0.97246 0.43429 0.20945 0.0
O219 O 0.93924 0.41804 0.31462 0.0
O220 O 0.95133 0.43027 0.2688 0.0
C221 C 0.9698 0.42436 0.20035 0.0
C222 C 0.94418 0.42798 0.29924 0.0
O223 O 0.94515 0.39716 0.28422 0.0
Mg224 Mg 0.58193 0.53153 0.27281 0.0
O225 O 0.57376 0.53601 0.32811 0.0
O226 O 0.5555 0.52615 0.31792 0.0
Mg227 Mg 0.55205 0.51629 0.25543 0.0
C228 C 0.56389 0.53303 0.33976 0.0
C229 C 0.60552 0.54248 0.30304 0.0
O230 O 0.60242 0.53197 0.3001 0.0
O231 O 0.57903 0.54243 0.2261 0.0
O232 O 0.56077 0.53251 0.21716 0.0
O233 O 0.58029 0.51734 0.31164 0.0
O234 O 0.56755 0.51635 0.2665 0.0
C235 C 0.5701 0.54102 0.20922 0.0
C236 C 0.57047 0.51174 0.29575 0.0
O237 O 0.59878 0.54561 0.29214 0.0
Mg238 Mg 0.45236 0.04784 0.24096 0.0
O239 O 0.44526 0.03345 0.2892 0.0
O240 O 0.45207 0.02241 0.27431 0.0
Mg241 Mg 0.46288 0.02936 0.21443 0.0
C242 C 0.44606 0.02493 0.29715 0.0
C243 C 0.44353 0.06174 0.28214 0.0
O244 O 0.45421 0.06862 0.28276 0.0
O245 O 0.44056 0.03668 0.18907 0.0
O246 O 0.44736 0.02552 0.17568 0.0
O247 O 0.46678 0.05709 0.28437 0.0
O248 O 0.46604 0.046 0.23169 0.0
C249 C 0.44025 0.02854 0.16924 0.0
C250 C 0.47121 0.05212 0.26454 0.0
O251 O 0.4399 0.05231 0.26507 0.0
Mg252 Mg 0.58536 0.05069 0.251 0.0
O253 O 0.57814 0.03572 0.29613 0.0
O254 O 0.56081 0.02381 0.27642 0.0
Mg255 Mg 0.55704 0.03139 0.21821 0.0
C256 C 0.56913 0.02664 0.30099 0.0
C257 C 0.60732 0.06406 0.30029 0.0
O258 O 0.60312 0.07052 0.30579 0.0
O259 O 0.5873 0.04069 0.19731 0.0
O260 O 0.56972 0.02906 0.17956 0.0
O261 O 0.57905 0.05878 0.29513 0.0
O262 O 0.56962 0.04811 0.23989 0.0
C263 C 0.58004 0.03271 0.17493 0.0
C264 C 0.5699 0.05369 0.27366 0.0
O265 O 0.60212 0.0554 0.27756 0.0
Mg266 Mg 0.93093 0.53279 0.23392 0.0
O267 O 0.94507 0.53664 0.28072 0.0
O268 O 0.95275 0.52643 0.26485 0.0
Mg269 Mg 0.94398 0.51671 0.20388 0.0
C270 C 0.95209 0.53359 0.28831 0.0
C271 C 0.929 0.54788 0.30149 0.0
O272 O 0.92801 0.53976 0.32595 0.0
O273 O 0.9433 0.54334 0.18215 0.0
O274 O 0.95106 0.53312 0.16696 0.0
O275 O 0.91985 0.51892 0.27715 0.0
O276 O 0.92907 0.51735 0.22182 0.0
C277 C 0.95029 0.54176 0.16157 0.0
C278 C 0.92297 0.51303 0.2555 0.0
O279 O 0.93033 0.54753 0.26088 0.0
Mg280 Mg 0.46009 0.40363 0.23227 0.0
O281 O 0.45356 0.4109 0.28323 0.0
O282 O 0.4624 0.42923 0.27421 0.0
Mg283 Mg 0.47526 0.43366 0.22102 0.0
C284 C 0.45522 0.42046 0.29322 0.0
C285 C 0.44022 0.38005 0.21358 0.0
O286 O 0.44384 0.38261 0.17357 0.0
O287 O 0.45095 0.40716 0.17962 0.0
O288 O 0.46085 0.42553 0.17307 0.0
O289 O 0.47267 0.40469 0.27912 0.0
O290 O 0.47508 0.41807 0.23411 0.0
C291 C 0.4528 0.41616 0.16212 0.0
C292 C 0.47863 0.41479 0.26618 0.0
O293 O 0.44523 0.38689 0.24387 0.0
Mg294 Mg 0.37957 0.25239 0.42416 0.0
O295 O 0.36815 0.24381 0.36567 0.0
O296 O 0.36152 0.22569 0.37318 0.0
Mg297 Mg 0.36837 0.22266 0.4352 0.0
C298 C 0.3622 0.23389 0.35239 0.0
C299 C 0.38974 0.27663 0.40957 0.0
O300 O 0.39766 0.2753 0.42603 0.0
O301 O 0.36457 0.24699 0.46754 0.0
O302 O 0.35833 0.22886 0.47212 0.0
O303 O 0.39381 0.25354 0.38751 0.0
O304 O 0.38259 0.23935 0.42863 0.0
C305 C 0.35761 0.23738 0.48117 0.0
C306 C 0.39055 0.24363 0.40094 0.0
O307 O 0.38015 0.26829 0.40649 0.0
Mg308 Mg 0.74052 0.12988 0.41508 0.0
O309 O 0.74593 0.12289 0.35869 0.0
O310 O 0.76432 0.1309 0.36114 0.0
Mg311 Mg 0.77052 0.14269 0.41843 0.0
C312 C 0.75504 0.1242 0.34394 0.0
C313 C 0.71688 0.11106 0.43851 0.0
O314 O 0.72083 0.11374 0.47804 0.0
O315 O 0.74371 0.11938 0.46192 0.0
O316 O 0.7621 0.12738 0.46223 0.0
O317 O 0.74197 0.14336 0.37275 0.0
O318 O 0.75562 0.14418 0.41217 0.0
C319 C 0.75258 0.11985 0.47464 0.0
C320 C 0.75232 0.14852 0.38309 0.0
O321 O 0.72298 0.11622 0.40646 0.0
Mg322 Mg 0.86199 0.61336 0.41563 0.0
O323 O 0.8685 0.62615 0.36037 0.0
O324 O 0.85696 0.63281 0.35455 0.0
Mg325 Mg 0.84395 0.6252 0.40765 0.0
C326 C 0.8654 0.63234 0.34203 0.0
C327 C 0.87984 0.60763 0.44342 0.0
O328 O 0.8728 0.60302 0.47542 0.0
O329 O 0.86899 0.62717 0.4655 0.0
O330 O 0.85748 0.6338 0.45926 0.0
O331 O 0.851 0.60021 0.36877 0.0
O332 O 0.84627 0.61083 0.40526 0.0
C333 C 0.86581 0.63391 0.47673 0.0
C334 C 0.844 0.60352 0.37562 0.0
O335 O 0.87786 0.61282 0.41435 0.0
Mg336 Mg 0.40289 0.9438 0.75722 0.0
O337 O 0.40849 0.95634 0.70119 0.0
O338 O 0.42625 0.96876 0.71218 0.0
Mg339 Mg 0.43179 0.96456 0.77492 0.0
C340 C 0.41741 0.96498 0.68992 0.0
C341 C 0.37994 0.92745 0.72139 0.0
O342 O 0.38506 0.9218 0.71711 0.0
O343 O 0.40205 0.9562 0.80223 0.0
O344 O 0.41993 0.96866 0.81073 0.0
O345 O 0.40846 0.93385 0.71994 0.0
O346 O 0.419 0.94717 0.76559 0.0
C347 C 0.40974 0.9652 0.81786 0.0
C348 C 0.41807 0.94005 0.73697 0.0
O349 O 0.3851 0.93708 0.73744 0.0
Mg350 Mg 0.05442 0.46483 0.78181 0.0
O351 O 0.04262 0.45611 0.72466 0.0
O352 O 0.02895 0.45999 0.72916 0.0
Mg353 Mg 0.03217 0.47124 0.78689 0.0
C354 C 0.0336 0.4552 0.71085 0.0
C355 C 0.07272 0.4592 0.76753 0.0
O356 O 0.07856 0.46993 0.77273 0.0
O357 O 0.04216 0.45217 0.82893 0.0
O358 O 0.02887 0.45661 0.83021 0.0
O359 O 0.064 0.47948 0.74011 0.0
O360 O 0.04994 0.47687 0.78129 0.0
C361 C 0.03286 0.4506 0.84212 0.0
C362 C 0.05714 0.48263 0.75203 0.0
O363 O 0.0623 0.45444 0.77049 0.0
Mg364 Mg 0.5336 0.5913 0.77462 0.0
O365 O 0.53692 0.58054 0.72766 0.0
O366 O 0.52399 0.56296 0.73825 0.0
Mg367 Mg 0.51347 0.56247 0.79563 0.0
C368 C 0.53243 0.57032 0.71806 0.0
C369 C 0.54919 0.61475 0.75253 0.0
O370 O 0.53979 0.61422 0.76212 0.0
O371 O 0.54138 0.58678 0.82954 0.0
O372 O 0.52878 0.56904 0.83965 0.0
O373 O 0.522 0.5915 0.72608 0.0
O374 O 0.51715 0.57923 0.77901 0.0
C375 C 0.53798 0.57759 0.84894 0.0
C376 C 0.51455 0.5825 0.7442 0.0
O377 O 0.54987 0.60608 0.75601 0.0
Mg378 Mg 0.61598 0.74134 0.59183 0.0
O379 O 0.63069 0.75128 0.63672 0.0
O380 O 0.63789 0.76908 0.61932 0.0
Mg381 Mg 0.62717 0.77051 0.56645 0.0
C382 C 0.63791 0.76144 0.64189 0.0
C383 C 0.61479 0.71877 0.57918 0.0
O384 O 0.6139 0.7211 0.53864 0.0
O385 O 0.62768 0.74459 0.53558 0.0
O386 O 0.63285 0.76197 0.51754 0.0
O387 O 0.60461 0.7423 0.64017 0.0
O388 O 0.61347 0.75466 0.5888 0.0
C389 C 0.63278 0.75293 0.51082 0.0
C390 C 0.60728 0.75172 0.62274 0.0
O391 O 0.61599 0.72562 0.60868 0.0
Mg392 Mg 0.24191 0.8632 0.60548 0.0
O393 O 0.23541 0.87065 0.65594 0.0
O394 O 0.21709 0.86202 0.64711 0.0
Mg395 Mg 0.21196 0.84891 0.59453 0.0
C396 C 0.22591 0.86919 0.66599 0.0
C397 C 0.26624 0.87463 0.59651 0.0
O398 O 0.26234 0.86541 0.57431 0.0
O399 O 0.239 0.87253 0.55153 0.0
O400 O 0.22071 0.86267 0.54416 0.0
O401 O 0.24042 0.85055 0.65292 0.0
O402 O 0.22711 0.8485 0.60861 0.0
C403 C 0.23012 0.87057 0.53246 0.0
C404 C 0.23031 0.84471 0.64011 0.0
O405 O 0.25947 0.87693 0.61439 0.0
Mg406 Mg 0.11983 0.37694 0.55632 0.0
O407 O 0.11191 0.36548 0.61461 0.0
O408 O 0.11489 0.35127 0.60746 0.0
Mg409 Mg 0.12468 0.35372 0.5456 0.0
C410 C 0.11084 0.35636 0.6279 0.0
C411 C 0.11691 0.39651 0.57519 0.0
O412 O 0.12732 0.4011 0.56379 0.0
O413 O 0.1056 0.36485 0.51393 0.0
O414 O 0.10943 0.35121 0.50843 0.0
O415 O 0.13543 0.38589 0.59327 0.0
O416 O 0.13115 0.37155 0.55091 0.0
C417 C 0.10336 0.35539 0.49983 0.0
C418 C 0.13772 0.37858 0.57905 0.0
O419 O 0.11096 0.38609 0.57398 0.0
Mg420 Mg 0.25464 0.38129 0.5807 0.0
O421 O 0.25041 0.36707 0.62797 0.0
O422 O 0.23396 0.35285 0.60944 0.0
Mg423 Mg 0.22773 0.35804 0.55102 0.0
C424 C 0.24252 0.35721 0.63349 0.0
C425 C 0.27595 0.39921 0.62332 0.0
O426 O 0.26956 0.40355 0.62725 0.0
O427 O 0.25871 0.3724 0.52863 0.0
O428 O 0.24193 0.35838 0.51276 0.0
O429 O 0.24619 0.38739 0.62395 0.0
O430 O 0.23795 0.37541 0.57082 0.0
C431 C 0.25238 0.36364 0.50757 0.0
C432 C 0.23721 0.38073 0.60358 0.0
O433 O 0.27222 0.38994 0.6047 0.0
Mg434 Mg 0.60435 0.86029 0.57995 0.0
O435 O 0.61823 0.86413 0.62845 0.0
O436 O 0.62538 0.8534 0.61309 0.0
Mg437 Mg 0.61628 0.84304 0.55381 0.0
C438 C 0.62507 0.86082 0.63608 0.0
C439 C 0.603 0.88167 0.57449 0.0
O440 O 0.60261 0.87934 0.53304 0.0
O441 O 0.61699 0.86997 0.52785 0.0
O442 O 0.62391 0.85898 0.51334 0.0
O443 O 0.5926 0.84696 0.62385 0.0
O444 O 0.60183 0.84459 0.57056 0.0
C445 C 0.62356 0.86782 0.50707 0.0
C446 C 0.59531 0.84059 0.60334 0.0
O447 O 0.60399 0.87549 0.60206 0.0
Mg448 Mg 0.12529 0.73646 0.56084 0.0
O449 O 0.12152 0.74735 0.60507 0.0
O450 O 0.13405 0.76495 0.59198 0.0
Mg451 Mg 0.14556 0.76525 0.53879 0.0
C452 C 0.12561 0.75765 0.61238 0.0
C453 C 0.11009 0.71333 0.5875 0.0
O454 O 0.11985 0.71428 0.58274 0.0
O455 O 0.11788 0.74063 0.50295 0.0
O456 O 0.13099 0.75809 0.49136 0.0
O457 O 0.13669 0.73662 0.61167 0.0
O458 O 0.14177 0.74862 0.55778 0.0
C459 C 0.12179 0.74962 0.48151 0.0
C460 C 0.14423 0.74551 0.59327 0.0
O461 O 0.10898 0.72159 0.57886 0.0
Mg462 Mg 0.03685 0.58396 0.7415 0.0
O463 O 0.02431 0.5754 0.68656 0.0
O464 O 0.01522 0.55731 0.70056 0.0
Mg465 Mg 0.02185 0.55437 0.76345 0.0
C466 C 0.01703 0.56552 0.67686 0.0
C467 C 0.04046 0.60754 0.74853 0.0
O468 O 0.0398 0.60492 0.78975 0.0
O469 O 0.0231 0.58159 0.78715 0.0
O470 O 0.01452 0.56348 0.8001 0.0
O471 O 0.04924 0.58172 0.70428 0.0
O472 O 0.03754 0.56973 0.75172 0.0
C473 C 0.01555 0.57298 0.80571 0.0
C474 C 0.04501 0.57213 0.72261 0.0
O475 O 0.0394 0.60052 0.72008 0.0
Mg476 Mg 0.41386 0.46546 0.73606 0.0
O477 O 0.41711 0.45639 0.68098 0.0
O478 O 0.43515 0.46199 0.6829 0.0
Mg479 Mg 0.44333 0.475 0.73552 0.0
C480 C 0.42553 0.45606 0.66694 0.0
C481 C 0.3895 0.45716 0.74733 0.0
O482 O 0.39418 0.46701 0.76511 0.0
O483 O 0.41584 0.45473 0.78607 0.0
O484 O 0.43403 0.46125 0.78561 0.0
O485 O 0.4166 0.47888 0.69089 0.0
O486 O 0.42975 0.4786 0.72974 0.0
C487 C 0.42437 0.45466 0.80003 0.0
C488 C 0.42695 0.48335 0.70055 0.0
O489 O 0.39558 0.45366 0.73186 0.0
Mg490 Mg 0.53691 0.94816 0.76806 0.0
O491 O 0.54261 0.9593 0.70782 0.0
O492 O 0.53683 0.97152 0.71431 0.0
Mg493 Mg 0.52739 0.96806 0.77763 0.0
C494 C 0.54189 0.96748 0.69367 0.0
C495 C 0.54504 0.93227 0.74066 0.0
O496 O 0.53437 0.92541 0.74284 0.0
O497 O 0.55005 0.96194 0.80901 0.0
O498 O 0.54379 0.97381 0.81304 0.0
O499 O 0.52138 0.93677 0.73368 0.0
O500 O 0.52364 0.95074 0.77464 0.0
C501 C 0.55098 0.97103 0.82163 0.0
C502 C 0.51758 0.94291 0.74804 0.0
O503 O 0.54878 0.94232 0.75028 0.0
C504 C 0.1004 0.27103 0.04256 0.0
C505 C 0.09964 0.28043 0.05185 0.0
C506 C 0.11064 0.27204 0.03344 0.0
C507 C 0.1394 0.29082 0.06106 0.0
H508 H 0.14536 0.27201 0.98714 0.0
C509 C 0.18142 0.29385 0.06682 0.0
C510 C 0.18129 0.2838 0.06995 0.0
C511 C 0.17201 0.2941 0.0539 0.0
C512 C 0.14379 0.2773 0.00797 0.0
H513 H 0.10859 0.29828 0.05347 0.0
H514 H 0.12641 0.30009 0.03713 0.0
H515 H 0.12751 0.27122 0.98232 0.0
H516 H 0.17142 0.26616 0.05979 0.0
H517 H 0.15479 0.26651 0.03886 0.0
H518 H 0.15534 0.29661 0.08806 0.0
C519 C 0.11923 0.29191 0.03857 0.0
C520 C 0.1336 0.27686 0.00516 0.0
C521 C 0.10904 0.29088 0.04822 0.0
C522 C 0.17172 0.27403 0.05793 0.0
C523 C 0.16223 0.27425 0.04558 0.0
C524 C 0.1495 0.29124 0.06394 0.0
C525 C 0.12022 0.28249 0.03296 0.0
C526 C 0.13128 0.28354 0.03207 0.0
C527 C 0.16221 0.28427 0.04448 0.0
C528 C 0.15179 0.28441 0.03785 0.0
H529 H 0.09319 0.26288 0.04483 0.0
H530 H 0.11114 0.26462 0.02937 0.0
H531 H 0.13778 0.29588 0.08303 0.0
H532 H 0.18874 0.30155 0.07445 0.0
H533 H 0.17235 0.30199 0.05225 0.0
C534 C 0.72432 0.82831 0.05252 0.0
C535 C 0.73292 0.82629 0.06199 0.0
C536 C 0.72654 0.83847 0.03632 0.0
C537 C 0.74598 0.86701 0.04471 0.0
H538 H 0.72615 0.86864 0.96105 0.0
C539 C 0.73683 0.90303 0.04012 0.0
C540 C 0.72557 0.89871 0.04891 0.0
C541 C 0.74077 0.89601 0.02762 0.0
C542 C 0.73193 0.86841 0.98378 0.0
H543 H 0.75062 0.83311 0.06074 0.0
H544 H 0.75461 0.85131 0.03372 0.0
H545 H 0.728 0.85222 0.96386 0.0
H546 H 0.7095 0.88396 0.04859 0.0
H547 H 0.71628 0.87176 0.02652 0.0
H548 H 0.74921 0.88285 0.06696 0.0
C549 C 0.74613 0.84489 0.03843 0.0
C550 C 0.73299 0.85904 0.98539 0.0
C551 C 0.74386 0.83455 0.05392 0.0
C552 C 0.71824 0.88744 0.04301 0.0
C553 C 0.72211 0.8805 0.02966 0.0
C554 C 0.74495 0.87643 0.043 0.0
C555 C 0.73745 0.84691 0.02959 0.0
C556 C 0.73946 0.85798 0.01775 0.0
C557 C 0.73342 0.88468 0.02252 0.0
C558 C 0.73737 0.87685 0.01437 0.0
H559 H 0.71583 0.82203 0.0572 0.0
H560 H 0.71969 0.83984 0.03043 0.0
H561 H 0.75101 0.86638 0.06999 0.0
H562 H 0.74261 0.91174 0.04435 0.0
H563 H 0.74953 0.89939 0.02251 0.0
C564 C 0.10672 0.83026 0.0372 0.0
C565 C 0.09537 0.82645 0.03861 0.0
C566 C 0.11422 0.84143 0.03115 0.0
C567 C 0.11768 0.86793 0.05713 0.0
H568 H 0.14444 0.87864 0.98931 0.0
C569 C 0.16386 0.90898 0.03758 0.0
C570 C 0.16728 0.90962 0.08084 0.0
C571 C 0.15354 0.9004 0.02444 0.0
C572 C 0.13691 0.87586 0.00771 0.0
H573 H 0.08288 0.83118 0.03298 0.0
H574 H 0.0961 0.85091 0.02356 0.0
H575 H 0.12909 0.85996 0.97738 0.0
H576 H 0.16244 0.90236 0.14476 0.0
H577 H 0.14438 0.88758 0.12214 0.0
H578 H 0.1258 0.88357 0.08949 0.0
C579 C 0.09914 0.84519 0.02685 0.0
C580 C 0.12818 0.86516 0.00111 0.0
C581 C 0.09161 0.83395 0.03216 0.0
C582 C 0.16 0.90201 0.1112 0.0
C583 C 0.14964 0.89361 0.09831 0.0
C584 C 0.12647 0.87859 0.0641 0.0
C585 C 0.11053 0.84904 0.02686 0.0
C586 C 0.11865 0.86097 0.02688 0.0
C587 C 0.14643 0.89254 0.05463 0.0
C588 C 0.13631 0.88248 0.04054 0.0
H589 H 0.10985 0.82465 0.04099 0.0
H590 H 0.12296 0.84417 0.03166 0.0
H591 H 0.11045 0.86489 0.07759 0.0
H592 H 0.16937 0.91473 0.01353 0.0
H593 H 0.15124 0.89972 0.99056 0.0
C594 C 0.27183 0.10172 0.98842 0.0
C595 C 0.26389 0.09083 0.97856 0.0
C596 C 0.26887 0.10854 0.01022 0.0
C597 C 0.24649 0.11369 0.01426 0.0
H598 H 0.26711 0.13754 0.0881 0.0
C599 C 0.25072 0.1564 0.00382 0.0
C600 C 0.26147 0.16369 0.98934 0.0
C601 C 0.24828 0.14639 0.0232 0.0
C602 C 0.2611 0.13083 0.0683 0.0
H603 H 0.24675 0.07824 0.98554 0.0
H604 H 0.24138 0.09043 0.02256 0.0
H605 H 0.26764 0.1204 0.08494 0.0
H606 H 0.27826 0.16691 0.98735 0.0
H607 H 0.27411 0.14961 0.02122 0.0
H608 H 0.24065 0.1245 0.9945 0.0
C609 C 0.24994 0.0936 0.01384 0.0
C610 C 0.2614 0.12104 0.06647 0.0
C611 C 0.25299 0.08667 0.99265 0.0
C612 C 0.26988 0.1613 0.99745 0.0
C613 C 0.26751 0.15146 0.01753 0.0
C614 C 0.24618 0.1235 0.01611 0.0
C615 C 0.25785 0.10466 0.02219 0.0
C616 C 0.25466 0.11272 0.03701 0.0
C617 C 0.25664 0.14374 0.0293 0.0
C618 C 0.25404 0.13243 0.04071 0.0
H619 H 0.28033 0.10503 0.97888 0.0
H620 H 0.27513 0.11706 0.01557 0.0
H621 H 0.24119 0.10741 0.9913 0.0
H622 H 0.24413 0.15816 -0.00208 0.0
H623 H 0.23983 0.14054 0.03185 0.0
C624 C 0.8221 0.10452 0.93776 0.0
C625 C 0.81699 0.09401 0.95675 0.0
C626 C 0.83135 0.11322 0.95669 0.0
C627 C 0.85614 0.12156 0.00432 0.0
H628 H 0.85497 0.14807 0.02983 0.0
C629 C 0.89404 0.16515 0.98564 0.0
C630 C 0.8916 0.17114 0.95527 0.0
C631 C 0.88555 0.15567 0.0051 0.0
C632 C 0.85546 0.14071 0.02382 0.0
H633 H 0.81785 0.08429 0.00986 0.0
H634 H 0.83456 0.09967 0.04223 0.0
H635 H 0.838 0.13021 0.02981 0.0
H636 H 0.87834 0.1719 0.92206 0.0
H637 H 0.86367 0.15562 0.95624 0.0
H638 H 0.87343 0.13218 0.99359 0.0
C639 C 0.83105 0.10108 0.01329 0.0
C640 C 0.84579 0.13051 0.02413 0.0
C641 C 0.82156 0.09233 0.99469 0.0
C642 C 0.88054 0.16762 0.94564 0.0
C643 C 0.87211 0.1583 0.96551 0.0
C644 C 0.86585 0.13179 0.00386 0.0
C645 C 0.83587 0.11159 0.99455 0.0
C646 C 0.846 0.12099 0.01171 0.0
C647 C 0.87451 0.15216 0.99505 0.0
C648 C 0.86543 0.14149 0.01071 0.0
H649 H 0.81903 0.10608 0.908 0.0
H650 H 0.83514 0.12125 0.94122 0.0
H651 H 0.85643 0.11429 0.99424 0.0
H652 H 0.9025 0.16765 0.9937 0.0
H653 H 0.88761 0.151 0.02748 0.0
C654 C 0.82334 0.71544 0.98982 0.0
C655 C 0.82259 0.72348 0.9655 0.0
C656 C 0.83322 0.71793 0.0102 0.0
C657 C 0.86243 0.741 0.02856 0.0
H658 H 0.86851 0.71705 0.01472 0.0
C659 C 0.9021 0.74395 0.96598 0.0
C660 C 0.9053 0.73662 0.98212 0.0
C661 C 0.8931 0.74422 0.98403 0.0
C662 C 0.86692 0.72378 0.01996 0.0
H663 H 0.83119 0.74049 0.94474 0.0
H664 H 0.8487 0.7447 0.97725 0.0
H665 H 0.84985 0.7134 0.00749 0.0
H666 H 0.90224 0.72433 0.03097 0.0
H667 H 0.88625 0.72457 0.06204 0.0
H668 H 0.87991 0.75153 0.03637 0.0
C669 C 0.84165 0.73659 0.98253 0.0
C670 C 0.85614 0.72169 0.0159 0.0
C671 C 0.83165 0.73418 0.9634 0.0
C672 C 0.89998 0.73018 0.01862 0.0
C673 C 0.89084 0.73029 0.03622 0.0
C674 C 0.87329 0.74313 0.0316 0.0
C675 C 0.84268 0.7284 0.0052 0.0
C676 C 0.85377 0.73034 0.01849 0.0
C677 C 0.88702 0.73694 0.0177 0.0
C678 C 0.87565 0.73458 0.02589 0.0
H679 H 0.81633 0.70719 0.99259 0.0
H680 H 0.8335 0.7115 0.02862 0.0
H681 H 0.86093 0.74783 0.03212 0.0
H682 H 0.90601 0.74882 0.93729 0.0
H683 H 0.89025 0.7493 0.96875 0.0
C684 C 0.82724 0.58864 0.33859 0.0
C685 C 0.83424 0.59985 0.34786 0.0
C686 C 0.81724 0.58518 0.31691 0.0
C687 C 0.80123 0.59566 0.25652 0.0
H688 H 0.77728 0.57633 0.33264 0.0
C689 C 0.76899 0.60485 0.31665 0.0
C690 C 0.75838 0.59643 0.32757 0.0
C691 C 0.77652 0.60232 0.29806 0.0
C692 C 0.78374 0.58146 0.30998 0.0
H693 H 0.83692 0.61631 0.33808 0.0
H694 H 0.81966 0.61042 0.30077 0.0
H695 H 0.79494 0.57706 0.33832 0.0
H696 H 0.74694 0.57887 0.32508 0.0
H697 H 0.76032 0.57434 0.29358 0.0
H698 H 0.79029 0.60081 0.2311 0.0
C699 C 0.82172 0.60422 0.31019 0.0
C700 C 0.79389 0.58188 0.31324 0.0
C701 C 0.83155 0.60761 0.33237 0.0
C702 C 0.75512 0.58548 0.31685 0.0
C703 C 0.76275 0.5829 0.29895 0.0
C704 C 0.79109 0.59527 0.25336 0.0
C705 C 0.81428 0.59295 0.30338 0.0
C706 C 0.80294 0.58956 0.28867 0.0
C707 C 0.77363 0.59129 0.29067 0.0
C708 C 0.78251 0.58872 0.28216 0.0
H709 H 0.82922 0.58252 0.35007 0.0
H710 H 0.81166 0.57645 0.31209 0.0
H711 H 0.80801 0.60148 0.23651 0.0
H712 H 0.77161 0.61337 0.32401 0.0
H713 H 0.78486 0.60897 0.29254 0.0
C714 C 0.39021 0.16665 0.35308 0.0
C715 C 0.39815 0.16395 0.366 0.0
C716 C 0.39341 0.17712 0.33713 0.0
C717 C 0.41408 0.20483 0.35729 0.0
H718 H 0.3962 0.21009 0.27533 0.0
C719 C 0.40619 0.24146 0.37385 0.0
C720 C 0.39484 0.23701 0.38098 0.0
C721 C 0.41018 0.23487 0.35658 0.0
C722 C 0.40148 0.20887 0.29761 0.0
H723 H 0.41562 0.16969 0.37036 0.0
H724 H 0.42131 0.18836 0.34374 0.0
H725 H 0.39707 0.19314 0.27043 0.0
H726 H 0.37873 0.22258 0.37273 0.0
H727 H 0.38557 0.21115 0.34253 0.0
H728 H 0.41768 0.22011 0.38686 0.0
C729 C 0.41262 0.18229 0.34543 0.0
C730 C 0.40197 0.19919 0.29484 0.0
C731 C 0.40938 0.17167 0.36063 0.0
C732 C 0.38751 0.22612 0.36863 0.0
C733 C 0.39144 0.21965 0.35056 0.0
C734 C 0.41361 0.21455 0.35999 0.0
C735 C 0.40464 0.18515 0.33436 0.0
C736 C 0.40762 0.19674 0.32659 0.0
C737 C 0.4028 0.22388 0.34497 0.0
C738 C 0.40667 0.21624 0.33206 0.0
H739 H 0.38151 0.16075 0.35612 0.0
H740 H 0.38706 0.17911 0.32947 0.0
H741 H 0.41849 0.20315 0.3822 0.0
H742 H 0.41198 0.2499 0.38295 0.0
H743 H 0.41898 0.23826 0.35287 0.0
C744 C 0.83377 0.2243 0.35655 0.0
C745 C 0.83612 0.2352 0.36151 0.0
C746 C 0.82378 0.2164 0.33864 0.0
C747 C 0.79556 0.20933 0.33674 0.0
H748 H 0.79286 0.185 0.26734 0.0
C749 C 0.75707 0.16642 0.3478 0.0
C750 C 0.76016 0.15871 0.36053 0.0
C751 C 0.7649 0.17657 0.33019 0.0
C752 C 0.79343 0.1918 0.28618 0.0
H753 H 0.83021 0.24663 0.34994 0.0
H754 H 0.81242 0.23261 0.31975 0.0
H755 H 0.81029 0.20243 0.26832 0.0
H756 H 0.77347 0.15506 0.36097 0.0
H757 H 0.78709 0.17266 0.33107 0.0
H758 H 0.77904 0.19842 0.35759 0.0
C759 C 0.81838 0.23025 0.32937 0.0
C760 C 0.80338 0.20176 0.28669 0.0
C761 C 0.82851 0.23822 0.34664 0.0
C762 C 0.77095 0.16097 0.35274 0.0
C763 C 0.77869 0.17099 0.33471 0.0
C764 C 0.78561 0.19934 0.33637 0.0
C765 C 0.8159 0.21924 0.32574 0.0
C766 C 0.80472 0.21036 0.31403 0.0
C767 C 0.77584 0.17902 0.32428 0.0
C768 C 0.78471 0.19028 0.31322 0.0
H769 H 0.8396 0.22183 0.36662 0.0
H770 H 0.82204 0.20796 0.33675 0.0
H771 H 0.79639 0.21583 0.35815 0.0
H772 H 0.74875 0.1648 0.35321 0.0
H773 H 0.76249 0.18261 0.32237 0.0
C774 C 0.92113 0.5007 0.31734 0.0
C775 C 0.92128 0.50249 0.27246 0.0
C776 C 0.92136 0.49145 0.33311 0.0
C777 C 0.93279 0.47747 0.34395 0.0
H778 H 0.91475 0.44797 0.29777 0.0
C779 C 0.9481 0.44741 0.30536 0.0
C780 C 0.94122 0.43616 0.31426 0.0
C781 C 0.94458 0.45493 0.31431 0.0
C782 C 0.91972 0.4561 0.31171 0.0
H783 H 0.92111 0.49582 0.20892 0.0
H784 H 0.92114 0.47949 0.23642 0.0
H785 H 0.9093 0.46185 0.28578 0.0
H786 H 0.92548 0.42401 0.34151 0.0
H787 H 0.91922 0.43718 0.35598 0.0
H788 H 0.94366 0.47195 0.367 0.0
C789 C 0.92094 0.48525 0.25937 0.0
C790 C 0.91663 0.46402 0.30469 0.0
C791 C 0.92098 0.4946 0.24366 0.0
C792 C 0.93097 0.43265 0.33428 0.0
C793 C 0.92737 0.44015 0.34251 0.0
C794 C 0.93599 0.46959 0.35035 0.0
C795 C 0.92144 0.48376 0.30415 0.0
C796 C 0.92332 0.47485 0.31959 0.0
C797 C 0.93405 0.45131 0.3317 0.0
C798 C 0.92965 0.45894 0.3331 0.0
H799 H 0.92147 0.50675 0.34015 0.0
H800 H 0.9218 0.49046 0.36776 0.0
H801 H 0.93813 0.48581 0.3554 0.0
H802 H 0.95605 0.45038 0.29023 0.0
H803 H 0.94986 0.46349 0.30529 0.0
C804 C 0.55155 0.4977 0.3185 0.0
C805 C 0.56265 0.50078 0.31299 0.0
C806 C 0.54396 0.48713 0.33249 0.0
C807 C 0.53843 0.45937 0.32262 0.0
H808 H 0.51306 0.45372 0.39219 0.0
C809 C 0.4964 0.41966 0.30282 0.0
C810 C 0.48859 0.42259 0.28995 0.0
C811 C 0.50633 0.42752 0.32193 0.0
C812 C 0.52017 0.4551 0.37335 0.0
H813 H 0.57471 0.49549 0.31967 0.0
H814 H 0.56125 0.47669 0.34304 0.0
H815 H 0.52996 0.47157 0.39715 0.0
H816 H 0.48448 0.43557 0.29019 0.0
H817 H 0.50165 0.44922 0.32342 0.0
H818 H 0.52834 0.44321 0.29629 0.0
C819 C 0.55848 0.48254 0.33679 0.0
C820 C 0.52982 0.4653 0.37613 0.0
C821 C 0.56614 0.49324 0.32342 0.0
C822 C 0.49049 0.4332 0.29881 0.0
C823 C 0.50025 0.44095 0.31857 0.0
C824 C 0.52876 0.44915 0.31986 0.0
C825 C 0.54729 0.47936 0.34094 0.0
C826 C 0.53877 0.46776 0.34877 0.0
C827 C 0.50838 0.43828 0.32944 0.0
C828 C 0.51935 0.44721 0.34319 0.0
H829 H 0.54869 0.50343 0.31194 0.0
H830 H 0.53537 0.48489 0.33485 0.0
H831 H 0.54521 0.46105 0.30114 0.0
H832 H 0.49503 0.41146 0.29642 0.0
H833 H 0.51249 0.42528 0.32991 0.0
C834 C 0.56027 0.0599 0.32547 0.0
C835 C 0.5599 0.05364 0.28909 0.0
C836 C 0.55074 0.05986 0.33954 0.0
C837 C 0.52063 0.04355 0.33359 0.0
H838 H 0.52057 0.07117 0.32615 0.0
C839 C 0.48567 0.04676 0.26019 0.0
C840 C 0.48134 0.05263 0.28124 0.0
C841 C 0.495 0.04688 0.2763 0.0
C842 C 0.5205 0.06344 0.32967 0.0
H843 H 0.5493 0.04263 0.23871 0.0
H844 H 0.53277 0.04231 0.26385 0.0
H845 H 0.53814 0.07133 0.3281 0.0
H846 H 0.48361 0.06357 0.33509 0.0
H847 H 0.50034 0.06408 0.36247 0.0
H848 H 0.50304 0.03562 0.33174 0.0
C849 C 0.54037 0.04715 0.28175 0.0
C850 C 0.53052 0.06353 0.33078 0.0
C851 C 0.54987 0.04735 0.26729 0.0
C852 C 0.48673 0.05889 0.31833 0.0
C853 C 0.49624 0.05917 0.33408 0.0
C854 C 0.51066 0.04347 0.33246 0.0
C855 C 0.54071 0.05339 0.31791 0.0
C856 C 0.53062 0.05355 0.33025 0.0
C857 C 0.50035 0.05304 0.31339 0.0
C858 C 0.51053 0.05338 0.32801 0.0
H859 H 0.56791 0.0649 0.3428 0.0
H860 H 0.55119 0.06482 0.36724 0.0
H861 H 0.52053 0.03577 0.33375 0.0
H862 H 0.48194 0.04209 0.23101 0.0
H863 H 0.4982 0.04232 0.25911 0.0
C864 C 0.42672 0.93148 0.6917 0.0
C865 C 0.42779 0.93946 0.72211 0.0
C866 C 0.43599 0.93091 0.67843 0.0
C867 C 0.46609 0.94743 0.67225 0.0
H868 H 0.46689 0.92097 0.70285 0.0
C869 C 0.5034 0.94871 0.74624 0.0
C870 C 0.50706 0.94159 0.73176 0.0
C871 C 0.49365 0.94772 0.73046 0.0
C872 C 0.46673 0.92831 0.69292 0.0
H873 H 0.4394 0.95293 0.76279 0.0
H874 H 0.45544 0.95216 0.73874 0.0
H875 H 0.44918 0.92053 0.70027 0.0
H876 H 0.50319 0.92762 0.69003 0.0
H877 H 0.48578 0.92567 0.66341 0.0
H878 H 0.48366 0.95543 0.66797 0.0
C879 C 0.44749 0.94643 0.72485 0.0
C880 C 0.45662 0.92805 0.69143 0.0
C881 C 0.43827 0.94686 0.73868 0.0
C882 C 0.50061 0.93328 0.70162 0.0
C883 C 0.49069 0.93216 0.6863 0.0
C884 C 0.47615 0.94768 0.67371 0.0
C885 C 0.44645 0.93845 0.69473 0.0
C886 C 0.45633 0.93778 0.68344 0.0
C887 C 0.48721 0.93947 0.70035 0.0
C888 C 0.4766 0.93829 0.68643 0.0
H889 H 0.41873 0.92561 0.67855 0.0
H890 H 0.43501 0.92462 0.65548 0.0
H891 H 0.46603 0.95499 0.66547 0.0
H892 H 0.50799 0.95502 0.77011 0.0
H893 H 0.49099 0.95327 0.74268 0.0
C894 C 0.04293 0.55347 0.72836 0.0
C895 C 0.0479 0.56384 0.70823 0.0
C896 C 0.04516 0.54537 0.71418 0.0
C897 C 0.06518 0.5398 0.6774 0.0
H898 H 0.03998 0.51105 0.65247 0.0
C899 C 0.06519 0.49853 0.69992 0.0
C900 C 0.05708 0.49203 0.73065 0.0
C901 C 0.06516 0.50755 0.68042 0.0
C902 C 0.04716 0.51906 0.65837 0.0
H903 H 0.0595 0.57401 0.65842 0.0
H904 H 0.06376 0.55975 0.63465 0.0
H905 H 0.03813 0.52746 0.64776 0.0
H906 H 0.04268 0.49001 0.76508 0.0
H907 H 0.04245 0.5054 0.73046 0.0
H908 H 0.0739 0.53124 0.69217 0.0
C909 C 0.05788 0.55794 0.66062 0.0
C910 C 0.04611 0.52842 0.65551 0.0
C911 C 0.05547 0.56605 0.67433 0.0
C912 C 0.04891 0.49465 0.74106 0.0
C913 C 0.04876 0.50347 0.72107 0.0
C914 C 0.06623 0.5304 0.68034 0.0
C915 C 0.05258 0.5475 0.68014 0.0
C916 C 0.05492 0.53874 0.66754 0.0
C917 C 0.05688 0.51003 0.69074 0.0
C918 C 0.05701 0.51991 0.67349 0.0
H919 H 0.03732 0.55155 0.75529 0.0
H920 H 0.04119 0.53744 0.73038 0.0
H921 H 0.07204 0.54771 0.68709 0.0
H922 H 0.07164 0.49675 0.69138 0.0
H923 H 0.07158 0.51258 0.65746 0.0
C924 C 0.43175 0.5003 0.65762 0.0
C925 C 0.43517 0.4938 0.68014 0.0
C926 C 0.43946 0.51097 0.64432 0.0
C927 C 0.46934 0.53073 0.63206 0.0
H928 H 0.46286 0.55115 0.69233 0.0
C929 C 0.49481 0.56812 0.74726 0.0
C930 C 0.50404 0.57525 0.72242 0.0
C931 C 0.48525 0.56007 0.72714 0.0
C932 C 0.4647 0.54561 0.67438 0.0
H933 H 0.4494 0.49303 0.70313 0.0
H934 H 0.4628 0.51151 0.67972 0.0
H935 H 0.44815 0.53224 0.67974 0.0
H936 H 0.51048 0.57991 0.65719 0.0
H937 H 0.49376 0.56544 0.62184 0.0
H938 H 0.48608 0.54391 0.62973 0.0
C939 C 0.45418 0.5084 0.67232 0.0
C940 C 0.45628 0.53481 0.66696 0.0
C941 C 0.44648 0.49783 0.68615 0.0
C942 C 0.50341 0.57453 0.67696 0.0
C943 C 0.4939 0.56628 0.65679 0.0
C944 C 0.47773 0.54157 0.63906 0.0
C945 C 0.45072 0.51522 0.65269 0.0
C946 C 0.45867 0.52712 0.64795 0.0
C947 C 0.48483 0.55886 0.68185 0.0
C948 C 0.47558 0.5489 0.66244 0.0
H949 H 0.42308 0.4974 0.65234 0.0
H950 H 0.43659 0.51606 0.6292 0.0
H951 H 0.47135 0.52496 0.61703 0.0
H952 H 0.49512 0.56853 0.78236 0.0
H953 H 0.47844 0.55435 0.74724 0.0
C954 C 0.59136 0.82151 0.58976 0.0
C955 C 0.592 0.82945 0.61912 0.0
C956 C 0.58935 0.81127 0.60453 0.0
C957 C 0.58127 0.78865 0.64379 0.0
H958 H 0.60527 0.79227 0.71761 0.0
C959 C 0.59294 0.75485 0.65706 0.0
C960 C 0.60377 0.75907 0.64194 0.0
C961 C 0.58923 0.76204 0.66981 0.0
C962 C 0.59837 0.79106 0.6978 0.0
H963 H 0.59074 0.83291 0.68673 0.0
H964 H 0.58763 0.815 0.71294 0.0
H965 H 0.60165 0.80752 0.70899 0.0
H966 H 0.6195 0.7739 0.63216 0.0
H967 H 0.61311 0.78641 0.65457 0.0
H968 H 0.57849 0.77249 0.63007 0.0
C969 C 0.58846 0.81667 0.67844 0.0
C970 C 0.59625 0.79976 0.69307 0.0
C971 C 0.59023 0.82687 0.66348 0.0
C972 C 0.61105 0.77047 0.64272 0.0
C973 C 0.60743 0.77762 0.65624 0.0
C974 C 0.5833 0.77992 0.6489 0.0
C975 C 0.58816 0.80886 0.64905 0.0
C976 C 0.58808 0.79881 0.66418 0.0
C977 C 0.5964 0.7735 0.66865 0.0
C978 C 0.59225 0.78128 0.67407 0.0
H979 H 0.59266 0.8233 0.55539 0.0
H980 H 0.58933 0.80547 0.58125 0.0
H981 H 0.57488 0.78774 0.6215 0.0
H982 H 0.5872 0.74606 0.65682 0.0
H983 H 0.58069 0.75867 0.6792 0.0
C984 C 0.16393 0.76002 0.58963 0.0
C985 C 0.15484 0.7527 0.61469 0.0
C986 C 0.17363 0.76786 0.60956 0.0
C987 C 0.19456 0.78206 0.65985 0.0
H988 H 0.18832 0.8016 0.7279 0.0
C989 C 0.22694 0.82755 0.67807 0.0
C990 C 0.22278 0.83398 0.66018 0.0
C991 C 0.21974 0.81668 0.69088 0.0
C992 C 0.19024 0.79614 0.70979 0.0
H993 H 0.14883 0.74746 0.6801 0.0
H994 H 0.16581 0.76155 0.71523 0.0
H995 H 0.17365 0.78274 0.71381 0.0
H996 H 0.20792 0.8345 0.6458 0.0
H997 H 0.1954 0.81564 0.66794 0.0
H998 H 0.2109 0.79571 0.65273 0.0
C999 C 0.16544 0.76104 0.68017 0.0
C1000 C 0.18187 0.78533 0.70198 0.0
C1001 C 0.15577 0.75301 0.66011 0.0
C1002 C 0.21135 0.82968 0.65857 0.0
C1003 C 0.20418 0.81891 0.67194 0.0
C1004 C 0.20295 0.79284 0.66792 0.0
C1005 C 0.17437 0.76866 0.65498 0.0
C1006 C 0.18381 0.77843 0.67477 0.0
C1007 C 0.20829 0.81217 0.68676 0.0
C1008 C 0.20067 0.80016 0.69075 0.0
H1009 H 0.16343 0.7599 0.55456 0.0
H1010 H 0.18032 0.77374 0.58933 0.0
H1011 H 0.19626 0.77685 0.63908 0.0
H1012 H 0.23574 0.8307 0.67983 0.0
H1013 H 0.22312 0.81166 0.70226 0.0
C1014 C 0.22581 0.3853 0.65266 0.0
C1015 C 0.22645 0.37908 0.61813 0.0
C1016 C 0.2157 0.38431 0.66416 0.0
C1017 C 0.18555 0.36685 0.64938 0.0
H1018 H 0.18561 0.39454 0.64383 0.0
C1019 C 0.14985 0.37026 0.57951 0.0
C1020 C 0.14709 0.37782 0.5969 0.0
C1021 C 0.15883 0.36966 0.59565 0.0
C1022 C 0.18543 0.38674 0.64661 0.0
H1023 H 0.21694 0.36676 0.56946 0.0
H1024 H 0.1994 0.36496 0.58972 0.0
H1025 H 0.20302 0.39467 0.64944 0.0
H1026 H 0.15145 0.39057 0.64543 0.0
H1027 H 0.16727 0.38959 0.67338 0.0
H1028 H 0.16799 0.35892 0.64434 0.0
C1029 C 0.20666 0.37051 0.60823 0.0
C1030 C 0.19541 0.38682 0.64985 0.0
C1031 C 0.21675 0.37158 0.59644 0.0
C1032 C 0.15341 0.38469 0.63122 0.0
C1033 C 0.16245 0.38412 0.64728 0.0
C1034 C 0.17558 0.36677 0.64626 0.0
C1035 C 0.20606 0.377 0.64166 0.0
C1036 C 0.19557 0.37687 0.64922 0.0
C1037 C 0.16528 0.37665 0.62942 0.0
C1038 C 0.17547 0.37671 0.64278 0.0
H1039 H 0.23315 0.39114 0.67006 0.0
H1040 H 0.21544 0.38941 0.69005 0.0
H1041 H 0.18546 0.35907 0.64961 0.0
H1042 H 0.14525 0.36495 0.55274 0.0
H1043 H 0.16096 0.36399 0.58051 0.0
C1044 C 0.03271 0.26137 0.04268 0.0
C1045 C 0.03862 0.25575 0.04707 0.0
C1046 C 0.02195 0.25594 0.02682 0.0
C1047 C 0.00285 0.23216 0.96118 0.0
H1048 H 0.98048 0.23662 0.01624 0.0
C1049 C 0.95655 0.20613 0.92042 0.0
C1050 C 0.95044 0.21159 0.91906 0.0
C1051 C 0.96751 0.21168 0.93412 0.0
C1052 C 0.98667 0.23541 0.00015 0.0
H1053 H 0.03785 0.23999 0.03868 0.0
H1054 H 0.019 0.23048 0.01114 0.0
H1055 H -0.00084 0.24584 0.04523 0.0
H1056 H 0.95112 0.22725 0.92942 0.0
H1057 H 0.9703 0.23698 0.95274 0.0
H1058 H 0.99035 0.22173 0.91605 0.0
C1059 C 0.02276 0.23913 0.01959 0.0
C1060 C -0.00265 0.24067 0.01682 0.0
C1061 C 0.03352 0.24456 0.03559 0.0
C1062 C 0.95559 0.2228 0.9304 0.0
C1063 C 0.96655 0.22835 0.94401 0.0
C1064 C 0.99216 0.22692 0.94444 0.0
C1065 C 0.01689 0.24478 0.01494 0.0
C1066 C 0.00554 0.2391 0.99749 0.0
C1067 C 0.97257 0.2228 0.94663 0.0
C1068 C 0.98397 0.2285 0.96375 0.0
H1069 H 0.03642 0.27001 0.05119 0.0
H1070 H 0.01766 0.26053 0.02313 0.0
H1071 H 0.00904 0.23093 0.9453 0.0
H1072 H 0.9528 0.1975 0.91191 0.0
H1073 H 0.97191 0.20716 0.93617 0.0
C1074 C 0.76586 0.72521 0.90579 0.0
C1075 C 0.77691 0.73213 0.89364 0.0
C1076 C 0.7592 0.72967 0.91647 0.0
C1077 C 0.75076 0.74192 0.97079 0.0
H1078 H 0.75455 0.76888 0.91951 0.0
C1079 C 0.73049 0.76641 0.03824 0.0
C1080 C 0.73811 0.77764 0.04507 0.0
C1081 C 0.73355 0.75978 0.01502 0.0
C1082 C 0.75338 0.76132 0.93398 0.0
H1083 H 0.78947 0.74907 0.88094 0.0
H1084 H 0.77799 0.75685 0.90046 0.0
H1085 H 0.76253 0.75894 0.88389 0.0
H1086 H 0.75491 0.79069 0.03306 0.0
H1087 H 0.76018 0.77916 0.99245 0.0
H1088 H 0.74174 0.74446 0.02123 0.0
C1089 C 0.77437 0.74797 0.90114 0.0
C1090 C 0.75797 0.75565 0.91372 0.0
C1091 C 0.78099 0.74351 0.89022 0.0
C1092 C 0.74884 0.78208 0.02844 0.0
C1093 C 0.75184 0.77551 0.00483 0.0
C1094 C 0.74607 0.74755 0.9908 0.0
C1095 C 0.76347 0.74113 0.91539 0.0
C1096 C 0.75703 0.74609 0.93266 0.0
C1097 C 0.74422 0.76433 0.99773 0.0
C1098 C 0.74765 0.75748 0.97328 0.0
H1099 H 0.76245 0.71638 0.90833 0.0
H1100 H 0.75078 0.72416 0.9266 0.0
H1101 H 0.74998 0.73466 0.98655 0.0
H1102 H 0.72216 0.76277 0.05069 0.0
H1103 H 0.72755 0.75116 0.01001 0.0
C1104 C 0.21858 0.96702 0.01914 0.0
C1105 C 0.22089 0.95949 0.03995 0.0
C1106 C 0.22674 0.97583 0.99573 0.0
C1107 C 0.25651 0.99362 0.98813 0.0
H1108 H 0.24828 0.00365 0.88502 0.0
C1109 C 0.27451 0.03875 0.94494 0.0
C1110 C 0.27446 0.04196 0.90184 0.0
C1111 C 0.2709 0.02776 0.95499 0.0
C1112 C 0.25088 0.00088 0.91307 0.0
H1113 H 0.23358 0.95526 0.05242 0.0
H1114 H 0.24792 0.97078 0.01145 0.0
H1115 H 0.23567 0.98559 0.9147 0.0
H1116 H 0.27165 0.03639 0.83499 0.0
H1117 H 0.2654 0.01715 0.85259 0.0
H1118 H 0.27162 0.00907 0.98708 0.0
C1119 C 0.23977 0.96982 0.01341 0.0
C1120 C 0.24356 0.99058 0.93045 0.0
C1121 C 0.23156 0.96096 0.03685 0.0
C1122 C 0.27164 0.03414 0.86859 0.0
C1123 C 0.26803 0.02311 0.87867 0.0
C1124 C 0.26387 0.00394 0.9706 0.0
C1125 C 0.23741 0.97732 0.9925 0.0
C1126 C 0.24608 0.98707 0.96928 0.0
C1127 C 0.26718 0.01974 0.92215 0.0
C1128 C 0.2609 0.00789 0.93407 0.0
H1129 H 0.21046 0.96615 0.02093 0.0
H1130 H 0.22472 0.98161 0.98084 0.0
H1131 H 0.25871 0.99112 0.018 0.0
H1132 H 0.27676 0.0446 0.9713 0.0
H1133 H 0.27028 0.02548 0.98885 0.0
C1134 C 0.96299 0.73937 0.86925 0.0
C1135 C 0.95459 0.73152 0.89588 0.0
C1136 C 0.974 0.74257 0.87718 0.0
C1137 C 0.99186 0.74462 0.96735 0.0
H1138 H 0.01392 0.75294 0.87719 0.0
C1139 C 0.03794 0.76463 0.00903 0.0
C1140 C 0.04499 0.77395 0.98427 0.0
C1141 C 0.02705 0.75767 0.99595 0.0
C1142 C 0.00786 0.75068 0.90272 0.0
H1143 H 0.95109 0.72036 0.95004 0.0
H1144 H 0.97033 0.72587 0.96358 0.0
H1145 H 0.99442 0.74365 0.8577 0.0
H1146 H 0.04628 0.78309 0.92565 0.0
H1147 H 0.02726 0.7711 0.90332 0.0
H1148 H 0.00525 0.75195 0.01225 0.0
C1149 C 0.9684 0.72969 0.93706 0.0
C1150 C -0.00331 0.74535 0.89156 0.0
C1151 C 0.95738 0.7265 0.92916 0.0
C1152 C 0.04105 0.77597 0.94545 0.0
C1153 C 0.03016 0.76904 0.93248 0.0
C1154 C 0.00301 0.74996 0.97849 0.0
C1155 C 0.97685 0.73796 0.91183 0.0
C1156 C 0.98859 0.74244 0.9237 0.0
C1157 C 0.02298 0.75991 0.95792 0.0
C1158 C 0.01114 0.75323 0.94625 0.0
H1159 H 0.96112 0.74339 0.84328 0.0
H1160 H 0.98031 0.74903 0.8574 0.0
H1161 H 0.98584 0.74266 0.99284 0.0
H1162 H 0.04076 0.7628 0.03894 0.0
H1163 H 0.02177 0.75061 0.01592 0.0
C1164 C 0.2491 0.21355 0.9004 0.0
C1165 C 0.25906 0.21482 0.91635 0.0
C1166 C 0.24547 0.22074 0.91337 0.0
C1167 C 0.24831 0.2387 0.00472 0.0
H1168 H 0.23115 0.24691 0.93093 0.0
C1169 C 0.22982 0.26526 0.06384 0.0
C1170 C 0.21881 0.26145 0.05175 0.0
C1171 C 0.23563 0.26049 0.04618 0.0
C1172 C 0.23589 0.24463 0.95191 0.0
H1173 H 0.27341 0.22506 0.95602 0.0
H1174 H 0.26716 0.23776 0.97801 0.0
H1175 H 0.24029 0.2376 0.89946 0.0
H1176 H 0.20521 0.24951 0.01242 0.0
H1177 H 0.21534 0.24116 0.9819 0.0
H1178 H 0.2438 0.24565 0.05723 0.0
C1179 C 0.26203 0.23103 0.95633 0.0
C1180 C 0.24113 0.23932 0.93392 0.0
C1181 C 0.26563 0.2238 0.94354 0.0
C1182 C 0.21368 0.25266 0.02228 0.0
C1183 C 0.21951 0.24793 0.00452 0.0
C1184 C 0.24312 0.24407 0.02265 0.0
C1185 C 0.25177 0.2294 0.94231 0.0
C1186 C 0.24723 0.23612 0.96027 0.0
C1187 C 0.23055 0.25187 0.016 0.0
C1188 C 0.2367 0.2469 0.99654 0.0
H1189 H 0.24385 0.20671 0.87938 0.0
H1190 H 0.23748 0.21918 0.9023 0.0
H1191 H 0.2528 0.2362 0.02605 0.0
H1192 H 0.234 0.27203 0.08646 0.0
H1193 H 0.24415 0.26369 0.05546 0.0
C1194 C 0.7597 0.02718 0.87216 0.0
C1195 C 0.76266 0.03564 0.90272 0.0
C1196 C 0.7529 0.01618 0.88413 0.0
C1197 C 0.73421 -0.00216 0.96993 0.0
H1198 H 0.74757 0.98005 0.94319 0.0
C1199 C 0.7174 0.95267 0.02902 0.0
C1200 C 0.7255 0.95075 0.04722 0.0
C1201 C 0.72042 0.96261 0.00792 0.0
C1202 C 0.74372 0.98491 0.9507 0.0
H1203 H 0.76021 0.0393 0.96883 0.0
H1204 H 0.74844 0.02013 0.98972 0.0
H1205 H 0.75491 -0.00183 0.91022 0.0
H1206 H 0.74305 0.95784 0.0587 0.0
H1207 H 0.74827 0.97512 0.02189 0.0
H1208 H 0.72329 0.98464 0.01182 0.0
C1209 C 0.75133 0.02198 0.95653 0.0
C1210 C 0.74783 0.99522 0.93146 0.0
C1211 C 0.75816 0.03295 0.94466 0.0
C1212 C 0.73662 0.95904 0.04487 0.0
C1213 C 0.73962 0.9689 0.02353 0.0
C1214 C 0.73004 0.98745 0.98898 0.0
C1215 C 0.74889 0.01347 0.92674 0.0
C1216 C 0.74331 0.0019 0.94174 0.0
C1217 C 0.73158 0.97072 0.00435 0.0
C1218 C 0.73499 0.98106 0.98043 0.0
H1219 H 0.76296 0.029 0.83948 0.0
H1220 H 0.75105 0.00977 0.86044 0.0
H1221 H 0.73054 0.00281 0.97815 0.0
H1222 H 0.70876 0.94642 0.03042 0.0
H1223 H 0.71408 0.96386 0.99341 0.0
C1224 C 0.62224 0.54624 0.34462 0.0
C1225 C 0.61647 0.55029 0.32086 0.0
C1226 C 0.6326 0.55343 0.36168 0.0
C1227 C 0.65708 0.57923 0.34184 0.0
H1228 H 0.66464 0.5754 0.4591 0.0
C1229 C 0.70228 0.60021 0.39773 0.0
C1230 C 0.70512 0.59319 0.41977 0.0
C1231 C 0.69123 0.59715 0.39174 0.0
C1232 C 0.66268 0.57657 0.42626 0.0
H1233 H 0.61698 0.56505 0.29632 0.0
H1234 H 0.63542 0.57771 0.32534 0.0
H1235 H 0.64538 0.56585 0.43635 0.0
H1236 H 0.69863 0.57769 0.45429 0.0
H1237 H 0.67942 0.57221 0.44292 0.0
H1238 H 0.67437 0.58934 0.33063 0.0
C1239 C 0.63177 0.56894 0.33108 0.0
C1240 C 0.65166 0.57116 0.41339 0.0
C1241 C 0.62126 0.56172 0.31456 0.0
C1242 C 0.69672 0.58328 0.43719 0.0
C1243 C 0.68568 0.58018 0.43094 0.0
C1244 C 0.66813 0.58455 0.35455 0.0
C1245 C 0.63749 0.56483 0.35488 0.0
C1246 C 0.6488 0.57217 0.3707 0.0
C1247 C 0.68279 0.58698 0.40748 0.0
C1248 C 0.67107 0.58298 0.39648 0.0
H1249 H 0.61875 0.53748 0.35019 0.0
H1250 H 0.63692 0.55005 0.37936 0.0
H1251 H 0.65507 0.58006 0.30864 0.0
H1252 H 0.70859 0.60797 0.38428 0.0
H1253 H 0.68928 0.60265 0.37409 0.0
C1254 C 0.42459 0.05698 0.3062 0.0
C1255 C 0.43591 0.06471 0.30311 0.0
C1256 C 0.41745 0.05974 0.32703 0.0
C1257 C 0.41717 0.08005 0.40312 0.0
H1258 H 0.3899 0.07311 0.34503 0.0
C1259 C 0.39135 0.09879 0.46197 0.0
C1260 C 0.38889 0.10404 0.42854 0.0
C1261 C 0.39472 0.09118 0.45214 0.0
C1262 C 0.39745 0.07504 0.3618 0.0
H1263 H 0.4486 0.08137 0.31929 0.0
H1264 H 0.43613 0.08625 0.35476 0.0
H1265 H 0.40111 0.06565 0.31702 0.0
H1266 H 0.38724 0.10484 0.35883 0.0
H1267 H 0.39326 0.09179 0.34176 0.0
H1268 H 0.41391 0.09001 0.44618 0.0
C1269 C 0.4328 0.07799 0.34194 0.0
C1270 C 0.40382 0.07069 0.34599 0.0
C1271 C 0.43993 0.07523 0.32122 0.0
C1272 C 0.38918 0.10102 0.38534 0.0
C1273 C 0.39252 0.09343 0.37555 0.0
C1274 C 0.41083 0.08442 0.41883 0.0
C1275 C 0.42149 0.07027 0.34514 0.0
C1276 C 0.41393 0.07347 0.36563 0.0
C1277 C 0.39565 0.08868 0.40874 0.0
C1278 C 0.40109 0.08226 0.39745 0.0
H1279 H 0.42125 0.04878 0.29277 0.0
H1280 H 0.40878 0.05361 0.32922 0.0
H1281 H 0.42483 0.08215 0.41943 0.0
H1282 H 0.3911 0.10089 0.49561 0.0
H1283 H 0.39694 0.08754 0.4784 0.0
C1284 C 0.89546 0.29363 0.36838 0.0
C1285 C 0.88444 0.2908 0.37542 0.0
C1286 C 0.903 0.30393 0.35135 0.0
C1287 C 0.90427 0.32689 0.28859 0.0
H1288 H 0.93313 0.34431 0.34093 0.0
C1289 C 0.93412 0.3707 0.22914 0.0
C1290 C 0.93838 0.37858 0.26252 0.0
C1291 C 0.92913 0.35948 0.23879 0.0
C1292 C 0.92512 0.33951 0.32587 0.0
H1293 H 0.87271 0.2966 0.37083 0.0
H1294 H 0.88588 0.31459 0.34162 0.0
H1295 H 0.92082 0.32559 0.36677 0.0
H1296 H 0.94134 0.38092 0.33184 0.0
H1297 H 0.93252 0.36138 0.34864 0.0
H1298 H 0.90832 0.34094 0.24908 0.0
C1299 C 0.88865 0.30878 0.34857 0.0
C1300 C 0.91811 0.32878 0.34043 0.0
C1301 C 0.88113 0.29851 0.36564 0.0
C1302 C 0.93807 0.37505 0.3054 0.0
C1303 C 0.9331 0.36385 0.31501 0.0
C1304 C 0.91127 0.3376 0.27403 0.0
C1305 C 0.89963 0.31156 0.34093 0.0
C1306 C 0.90752 0.32248 0.32263 0.0
C1307 C 0.92834 0.35594 0.28195 0.0
C1308 C 0.92166 0.34411 0.2932 0.0
H1309 H 0.89825 0.28784 0.37553 0.0
H1310 H 0.91141 0.30585 0.34563 0.0
H1311 H 0.89621 0.32215 0.27382 0.0
H1312 H 0.93432 0.37317 0.19572 0.0
H1313 H 0.92565 0.35356 0.2126 0.0
C1314 C 0.70122 0.09991 0.38851 0.0
C1315 C 0.70523 0.10272 0.43107 0.0
C1316 C 0.69003 0.09291 0.38089 0.0
C1317 C 0.66352 0.08492 0.43057 0.0
H1318 H 0.65268 0.06618 0.32895 0.0
C1319 C 0.62432 0.0768 0.34162 0.0
C1320 C 0.61774 0.06656 0.32155 0.0
C1321 C 0.63423 0.07919 0.36137 0.0
C1322 C 0.65549 0.0712 0.35795 0.0
H1323 H 0.70077 0.09987 0.49914 0.0
H1324 H 0.68112 0.08753 0.48572 0.0
H1325 H 0.67155 0.07305 0.35289 0.0
H1326 H 0.61616 0.05064 0.30757 0.0
H1327 H 0.63339 0.05476 0.34266 0.0
H1328 H 0.64748 0.08313 0.43545 0.0
C1329 C 0.68666 0.0909 0.45831 0.0
C1330 C 0.66634 0.07523 0.37139 0.0
C1331 C 0.6979 0.09793 0.46596 0.0
C1332 C 0.62114 0.05867 0.32236 0.0
C1333 C 0.631 0.06102 0.34243 0.0
C1334 C 0.65264 0.08083 0.41731 0.0
C1335 C 0.68259 0.08852 0.41565 0.0
C1336 C 0.67059 0.08247 0.40684 0.0
C1337 C 0.63771 0.07135 0.3618 0.0
C1338 C 0.64863 0.07425 0.37993 0.0
H1339 H 0.70666 0.1034 0.36089 0.0
H1340 H 0.68716 0.09139 0.34763 0.0
H1341 H 0.66655 0.09052 0.45792 0.0
H1342 H 0.62192 0.08305 0.34147 0.0
H1343 H 0.63931 0.08731 0.37526 0.0
C1344 C 0.89643 0.6103 0.40282 0.0
C1345 C 0.88901 0.6054 0.43739 0.0
C1346 C 0.90393 0.60685 0.39244 0.0
C1347 C 0.91607 0.58996 0.42896 0.0
H1348 H 0.91369 0.5822 0.30717 0.0
C1349 C 0.92387 0.55602 0.36308 0.0
C1350 C 0.92783 0.55691 0.32058 0.0
C1351 C 0.92175 0.56404 0.37977 0.0
C1352 C 0.91471 0.58452 0.34107 0.0
H1353 H 0.88423 0.59369 0.49032 0.0
H1354 H 0.89723 0.58756 0.47178 0.0
H1355 H 0.90559 0.59288 0.33323 0.0
H1356 H 0.93341 0.56725 0.26325 0.0
H1357 H 0.92995 0.58139 0.29272 0.0
H1358 H 0.92496 0.5813 0.43684 0.0
C1359 C 0.89729 0.59411 0.45287 0.0
C1360 C 0.91004 0.59066 0.35605 0.0
C1361 C 0.8898 0.59758 0.46333 0.0
C1362 C 0.93019 0.56626 0.29591 0.0
C1363 C 0.92818 0.57435 0.31276 0.0
C1364 C 0.92081 0.58385 0.4139 0.0
C1365 C 0.90415 0.59843 0.41636 0.0
C1366 C 0.91046 0.59325 0.40027 0.0
C1367 C 0.92365 0.57318 0.35445 0.0
C1368 C 0.91996 0.58086 0.36991 0.0
H1369 H 0.89615 0.61647 0.38257 0.0
H1370 H 0.90926 0.61047 0.3646 0.0
H1371 H 0.91661 0.59193 0.46316 0.0
H1372 H 0.922 0.54892 0.38294 0.0
H1373 H 0.91815 0.5628 0.41179 0.0
C1374 C 0.42741 0.36027 0.19458 0.0
C1375 C 0.43103 0.36899 0.22436 0.0
C1376 C 0.41984 0.34951 0.20738 0.0
C1377 C 0.40078 0.33261 0.29563 0.0
H1378 H 0.41315 0.31365 0.27513 0.0
C1379 C 0.38409 0.28859 0.36934 0.0
C1380 C 0.39239 0.28714 0.3887 0.0
C1381 C 0.38687 0.29807 0.34513 0.0
C1382 C 0.40955 0.31883 0.28079 0.0
H1383 H 0.42889 0.37347 0.28953 0.0
H1384 H 0.41582 0.35476 0.31183 0.0
H1385 H 0.42063 0.33112 0.23669 0.0
H1386 H 0.41002 0.29469 0.3994 0.0
H1387 H 0.41481 0.31114 0.35711 0.0
H1388 H 0.39003 0.32043 0.34141 0.0
C1389 C 0.41876 0.35618 0.27867 0.0
C1390 C 0.41373 0.32875 0.25843 0.0
C1391 C 0.42636 0.36689 0.26602 0.0
C1392 C 0.40344 0.29552 0.38476 0.0
C1393 C 0.4062 0.30489 0.36027 0.0
C1394 C 0.39652 0.3226 0.31781 0.0
C1395 C 0.41572 0.34734 0.24998 0.0
C1396 C 0.40965 0.33592 0.2667 0.0
C1397 C 0.39797 0.30615 0.33955 0.0
C1398 C 0.40116 0.31584 0.31166 0.0
H1399 H 0.4308 0.36166 0.16213 0.0
H1400 H 0.41755 0.34284 0.18453 0.0
H1401 H 0.39745 0.33796 0.30235 0.0
H1402 H 0.3755 0.28227 0.37192 0.0
H1403 H 0.3804 0.29891 0.32956 0.0
C1404 C 0.28531 0.87769 0.59036 0.0
C1405 C 0.27819 0.8814 0.60461 0.0
C1406 C 0.29642 0.88336 0.60178 0.0
C1407 C 0.31914 0.90974 0.63908 0.0
H1408 H 0.33024 0.8916 0.68752 0.0
C1409 C 0.36246 0.92815 0.7163 0.0
C1410 C 0.36834 0.92265 0.70776 0.0
C1411 C 0.35144 0.9235 0.70374 0.0
C1412 C 0.32733 0.89677 0.67356 0.0
H1413 H 0.27724 0.89427 0.64022 0.0
H1414 H 0.29679 0.90427 0.65988 0.0
H1415 H 0.31115 0.88303 0.66377 0.0
H1416 H 0.36737 0.90808 0.67874 0.0
H1417 H 0.34826 0.90009 0.6561 0.0
H1418 H 0.33539 0.92347 0.64822 0.0
C1419 C 0.2937 0.89693 0.64004 0.0
C1420 C 0.31639 0.89186 0.66007 0.0
C1421 C 0.28252 0.89119 0.6289 0.0
C1422 C 0.36304 0.91248 0.68609 0.0
C1423 C 0.35206 0.90787 0.67333 0.0
C1424 C 0.33014 0.91466 0.65227 0.0
C1425 C 0.30067 0.8929 0.62738 0.0
C1426 C 0.31222 0.89828 0.64241 0.0
C1427 C 0.34611 0.91328 0.68224 0.0
C1428 C 0.33437 0.9082 0.66935 0.0
H1429 H 0.28225 0.87021 0.57141 0.0
H1430 H 0.30167 0.88019 0.59107 0.0
H1431 H 0.31611 0.91484 0.62537 0.0
H1432 H 0.36632 0.936 0.73306 0.0
H1433 H 0.34705 0.92781 0.71152 0.0
C1434 C 0.07171 0.44138 0.74868 0.0
C1435 C 0.07805 0.45286 0.75433 0.0
C1436 C 0.07652 0.43548 0.73241 0.0
C1437 C 0.09939 0.43917 0.66409 0.0
H1438 H 0.09183 0.4102 0.70701 0.0
C1439 C 0.11946 0.41469 0.59906 0.0
C1440 C 0.11252 0.40329 0.5933 0.0
C1441 C 0.11556 0.42096 0.6194 0.0
C1442 C 0.09393 0.41824 0.69442 0.0
H1443 H 0.09448 0.46709 0.74902 0.0
H1444 H 0.10288 0.45673 0.72069 0.0
H1445 H 0.08479 0.4208 0.74416 0.0
H1446 H 0.09594 0.38958 0.60307 0.0
H1447 H 0.08909 0.40058 0.63795 0.0
H1448 H 0.10841 0.43656 0.61401 0.0
C1449 C 0.09417 0.45235 0.7284 0.0
C1450 C 0.08993 0.42431 0.71576 0.0
C1451 C 0.08937 0.45826 0.74483 0.0
C1452 C 0.10151 0.39834 0.60722 0.0
C1453 C 0.09761 0.40462 0.62751 0.0
C1454 C 0.10338 0.43309 0.6427 0.0
C1455 C 0.08775 0.44094 0.7214 0.0
C1456 C 0.09256 0.4348 0.7006 0.0
C1457 C 0.10463 0.41597 0.6343 0.0
C1458 C 0.1006 0.42253 0.65744 0.0
H1459 H 0.06297 0.43697 0.7558 0.0
H1460 H 0.07134 0.42671 0.72698 0.0
H1461 H 0.10141 0.44717 0.6513 0.0
H1462 H 0.12799 0.41874 0.58875 0.0
H1463 H 0.12118 0.42968 0.62447 0.0
C1464 C 0.56852 0.62577 0.72414 0.0
C1465 C 0.55831 0.62493 0.73385 0.0
C1466 C 0.5768 0.63519 0.70354 0.0
C1467 C 0.58016 0.65727 0.63158 0.0
H1468 H 0.60948 0.67494 0.67991 0.0
C1469 C 0.60916 0.69932 0.55973 0.0
C1470 C 0.61268 0.70768 0.59115 0.0
C1471 C 0.60517 0.68839 0.57222 0.0
C1472 C 0.60137 0.67001 0.66576 0.0
H1473 H 0.54887 0.63337 0.73065 0.0
H1474 H 0.56324 0.64966 0.69458 0.0
H1475 H 0.59662 0.65708 0.71267 0.0
H1476 H 0.61585 0.71132 0.65979 0.0
H1477 H 0.60876 0.69226 0.68155 0.0
H1478 H 0.58456 0.6703 0.58617 0.0
C1479 C 0.56481 0.64303 0.70257 0.0
C1480 C 0.59406 0.6598 0.68435 0.0
C1481 C 0.55662 0.63373 0.72349 0.0
C1482 C 0.61306 0.70504 0.63484 0.0
C1483 C 0.60909 0.69412 0.6473 0.0
C1484 C 0.58746 0.66739 0.61286 0.0
C1485 C 0.5749 0.64378 0.69188 0.0
C1486 C 0.58327 0.65357 0.66831 0.0
C1487 C 0.60467 0.68564 0.6163 0.0
C1488 C 0.598 0.67403 0.63064 0.0
H1489 H 0.57006 0.61912 0.73187 0.0
H1490 H 0.58455 0.63563 0.6957 0.0
H1491 H 0.57191 0.65253 0.61839 0.0
H1492 H 0.6089 0.70111 0.52572 0.0
H1493 H 0.60195 0.68202 0.54759 0.0
C1494 C 0.37242 0.44012 0.72361 0.0
C1495 C 0.37742 0.45065 0.74257 0.0
C1496 C 0.36107 0.43429 0.71624 0.0
C1497 C 0.33797 0.43894 0.69742 0.0
H1498 H 0.32017 0.40737 0.71513 0.0
C1499 C 0.29417 0.40044 0.63565 0.0
C1500 C 0.28728 0.40499 0.64069 0.0
C1501 C 0.30489 0.40591 0.65196 0.0
C1502 C 0.32506 0.41618 0.70973 0.0
H1503 H 0.3744 0.46317 0.77009 0.0
H1504 H 0.35457 0.45296 0.75724 0.0
H1505 H 0.33945 0.41704 0.7379 0.0
H1506 H 0.28618 0.41876 0.66718 0.0
H1507 H 0.30489 0.42826 0.69599 0.0
H1508 H 0.32369 0.43807 0.66844 0.0
C1509 C 0.35946 0.44928 0.74768 0.0
C1510 C 0.33607 0.4217 0.72283 0.0
C1511 C 0.3708 0.45509 0.75521 0.0
C1512 C 0.29131 0.41507 0.66259 0.0
C1513 C 0.30203 0.42054 0.67896 0.0
C1514 C 0.32697 0.43341 0.68422 0.0
C1515 C 0.35451 0.4389 0.72759 0.0
C1516 C 0.34266 0.43312 0.71642 0.0
C1517 C 0.30894 0.41602 0.6737 0.0
C1518 C 0.32044 0.42196 0.68984 0.0
H1519 H 0.37729 0.43646 0.71359 0.0
H1520 H 0.35749 0.42635 0.70032 0.0
H1521 H 0.3429 0.44772 0.69148 0.0
H1522 H 0.29131 0.39269 0.61886 0.0
H1523 H 0.31008 0.40231 0.64682 0.0
C1524 C 0.59797 0.89615 0.55933 0.0
C1525 C 0.60073 0.89036 0.5893 0.0
C1526 C 0.59411 0.90306 0.5737 0.0
C1527 C 0.59052 0.91665 0.67075 0.0
H1528 H 0.56305 0.90984 0.61455 0.0
C1529 C 0.56394 0.93592 0.72172 0.0
C1530 C 0.55253 0.92853 0.72438 0.0
C1531 C 0.57095 0.93253 0.70409 0.0
C1532 C 0.5707 0.91182 0.63057 0.0
H1533 H 0.60248 0.88798 0.65778 0.0
H1534 H 0.59564 0.89992 0.68275 0.0
H1535 H 0.57416 0.9025 0.58486 0.0
H1536 H 0.53956 0.91176 0.71154 0.0
H1537 H 0.5518 0.90585 0.68104 0.0
H1538 H 0.58678 0.92562 0.71748 0.0
C1539 C 0.59648 0.89916 0.64819 0.0
C1540 C 0.57715 0.90775 0.61322 0.0
C1541 C 0.60032 0.89224 0.63385 0.0
C1542 C 0.5483 0.91766 0.70979 0.0
C1543 C 0.5553 0.9143 0.69204 0.0
C1544 C 0.58407 0.92076 0.68806 0.0
C1545 C 0.59298 0.90434 0.61827 0.0
C1546 C 0.58702 0.90995 0.63358 0.0
C1547 C 0.56667 0.92173 0.68861 0.0
C1548 C 0.57398 0.91817 0.66862 0.0
H1549 H 0.59831 0.89497 0.52477 0.0
H1550 H 0.59165 0.90711 0.54992 0.0
H1551 H 0.59813 0.91853 0.68693 0.0
H1552 H 0.56746 0.94436 0.73273 0.0
H1553 H 0.57968 0.93844 0.70167 0.0
C1554 C 0.04652 0.62716 0.76691 0.0
C1555 C 0.04372 0.61891 0.73547 0.0
C1556 C 0.05114 0.63818 0.75455 0.0
C1557 C 0.0574 0.65692 0.66011 0.0
H1558 H 0.08495 0.67494 0.72093 0.0
C1559 C 0.09022 0.70162 0.60901 0.0
C1560 C 0.1009 0.70312 0.60574 0.0
C1561 C 0.08173 0.69205 0.62801 0.0
C1562 C 0.07723 0.67003 0.70388 0.0
H1563 H 0.04274 0.61563 0.66635 0.0
H1564 H 0.05092 0.63485 0.64489 0.0
H1565 H 0.0719 0.65675 0.74881 0.0
H1566 H 0.11104 0.69577 0.61939 0.0
H1567 H 0.09631 0.67921 0.65244 0.0
H1568 H 0.0631 0.6701 0.61391 0.0
C1569 C 0.0495 0.63282 0.67904 0.0
C1570 C 0.0697 0.65967 0.72008 0.0
C1571 C 0.0449 0.62181 0.69138 0.0
C1572 C 0.10292 0.69488 0.62145 0.0
C1573 C 0.0945 0.68543 0.64073 0.0
C1574 C 0.06494 0.66735 0.644 0.0
C1575 C 0.05301 0.64115 0.71055 0.0
C1576 C 0.05986 0.65285 0.69763 0.0
C1577 C 0.08386 0.68395 0.64448 0.0
C1578 C 0.07508 0.67382 0.66498 0.0
H1579 H 0.04559 0.62517 0.80115 0.0
H1580 H 0.05363 0.64443 0.7795 0.0
H1581 H 0.04983 0.65187 0.64239 0.0
H1582 H 0.08843 0.70784 0.59713 0.0
H1583 H 0.07357 0.69107 0.63048 0.0
C1584 C 0.09995 0.34015 0.67589 0.0
C1585 C 0.10491 0.35155 0.66875 0.0
C1586 C 0.09511 0.33563 0.71576 0.0
C1587 C 0.09935 0.34241 0.82784 0.0
H1588 H 0.07143 0.3155 0.84483 0.0
C1589 C 0.0896 0.32044 0.9916 0.0
C1590 C 0.08457 0.30892 0.99032 0.0
C1591 C 0.08981 0.32631 0.95475 0.0
C1592 C 0.07929 0.32297 0.84065 0.0
H1593 H 0.10835 0.36714 0.69701 0.0
H1594 H 0.10018 0.35922 0.76759 0.0
H1595 H 0.07582 0.32459 0.77414 0.0
H1596 H 0.0755 0.2944 0.95033 0.0
H1597 H 0.07642 0.30463 0.88507 0.0
H1598 H 0.10333 0.34048 0.89262 0.0
C1599 C 0.09993 0.35382 0.74196 0.0
C1600 C 0.08173 0.32821 0.8003 0.0
C1601 C 0.10459 0.35832 0.7017 0.0
C1602 C 0.07942 0.3033 0.95204 0.0
C1603 C 0.07988 0.30919 0.91476 0.0
C1604 C 0.09702 0.33708 0.86783 0.0
C1605 C 0.09531 0.34246 0.74945 0.0
C1606 C 0.09187 0.33785 0.79341 0.0
C1607 C 0.08529 0.3208 0.9154 0.0
C1608 C 0.08706 0.32715 0.87455 0.0
H1609 H 0.09999 0.33473 0.65091 0.0
H1610 H 0.0917 0.32687 0.72096 0.0
H1611 H 0.1073 0.34975 0.82308 0.0
H1612 H 0.09346 0.32494 0.02108 0.0
H1613 H 0.09375 0.3352 0.95697 0.0
C1614 C 0.68825 0.79285 0.97855 0.0
C1615 C 0.6969 0.79085 0.98847 0.0
C1616 C 0.68278 0.78954 0.9389 0.0
C1617 C 0.67721 0.78807 0.84411 0.0
H1618 H 0.66907 0.75965 0.79364 0.0
C1619 C 0.65518 0.77532 0.6796 0.0
C1620 C 0.64622 0.76451 0.67672 0.0
C1621 C 0.66252 0.77846 0.71444 0.0
C1622 C 0.67126 0.7676 0.80739 0.0
H1623 H 0.70646 0.78365 0.96448 0.0
H1624 H 0.69695 0.77798 0.89475 0.0
H1625 H 0.67929 0.76514 0.86183 0.0
H1626 H 0.63816 0.74842 0.70753 0.0
H1627 H 0.65077 0.75397 0.76878 0.0
H1628 H 0.66881 0.79038 0.79098 0.0
C1629 C 0.69436 0.78202 0.91802 0.0
C1630 C 0.67722 0.7708 0.84622 0.0
C1631 C 0.69983 0.7853 0.95792 0.0
C1632 C 0.64498 0.75681 0.7087 0.0
C1633 C 0.65227 0.75998 0.74374 0.0
C1634 C 0.67123 0.78487 0.80551 0.0
C1635 C 0.68583 0.7842 0.90793 0.0
C1636 C 0.68012 0.78101 0.86534 0.0
C1637 C 0.66101 0.7709 0.74744 0.0
C1638 C 0.66807 0.77455 0.78687 0.0
H1639 H 0.68569 0.79701 0.0014 0.0
H1640 H 0.67608 0.79113 0.93263 0.0
H1641 H 0.67948 0.79608 0.85754 0.0
H1642 H 0.65646 0.78142 0.65526 0.0
H1643 H 0.66929 0.78687 0.71579 0.0
C1644 C 0.20757 0.9132 0.97514 0.0
C1645 C 0.20128 0.90491 0.00554 0.0
C1646 C 0.21153 0.91072 0.93772 0.0
C1647 C 0.21846 0.89066 0.89283 0.0
H1648 H 0.21367 0.90016 0.7808 0.0
C1649 C 0.23327 0.88073 0.73318 0.0
C1650 C 0.22491 0.87564 0.70186 0.0
C1651 C 0.23176 0.88589 0.76926 0.0
C1652 C 0.21512 0.89752 0.81191 0.0
H1653 H 0.19429 0.88754 0.02051 0.0
H1654 H 0.20127 0.88325 0.95532 0.0
H1655 H 0.20821 0.90584 0.84692 0.0
H1656 H 0.20867 0.87248 0.68268 0.0
H1657 H 0.20611 0.88155 0.74528 0.0
H1658 H 0.22513 0.88212 0.85783 0.0
C1659 C 0.20315 0.89167 0.96059 0.0
C1660 C 0.21205 0.90081 0.84968 0.0
C1661 C 0.19908 0.89411 0.99775 0.0
C1662 C 0.21524 0.87625 0.70637 0.0
C1663 C 0.2138 0.88152 0.74206 0.0
C1664 C 0.22163 0.88746 0.8551 0.0
C1665 C 0.20941 0.89994 0.93022 0.0
C1666 C 0.21349 0.89723 0.89045 0.0
C1667 C 0.22194 0.8862 0.77428 0.0
C1668 C 0.21979 0.89068 0.81424 0.0
H1669 H 0.2094 0.92161 0.98012 0.0
H1670 H 0.21637 0.91726 0.91489 0.0
H1671 H 0.21976 0.88788 0.92389 0.0
H1672 H 0.24081 0.8804 0.73062 0.0
H1673 H 0.23819 0.8895 0.79354 0.0
C1674 C 0.31433 0.10578 0.01727 0.0
C1675 C 0.30497 0.0953 0.0118 0.0
C1676 C 0.3214 0.10791 0.05237 0.0
C1677 C 0.32108 0.09964 0.16364 0.0
H1678 H 0.35292 0.1172 0.15426 0.0
C1679 C 0.3491 0.12601 0.3028 0.0
C1680 C 0.35884 0.12573 0.31074 0.0
C1681 C 0.34256 0.12064 0.26683 0.0
C1682 C 0.34405 0.11217 0.15734 0.0
H1683 H 0.29585 0.07876 0.03829 0.0
H1684 H 0.30816 0.08259 0.10031 0.0
H1685 H 0.34168 0.11065 0.08847 0.0
H1686 H 0.36933 0.11955 0.28723 0.0
H1687 H 0.35795 0.11033 0.2236 0.0
H1688 H 0.32341 0.10151 0.23243 0.0
C1689 C 0.31 0.0891 0.07715 0.0
C1690 C 0.33763 0.10849 0.11977 0.0
C1691 C 0.30299 0.08691 0.04162 0.0
C1692 C 0.36186 0.1199 0.28201 0.0
C1693 C 0.35539 0.11466 0.24558 0.0
C1694 C 0.32748 0.10343 0.20116 0.0
C1695 C 0.3192 0.09965 0.08306 0.0
C1696 C 0.32608 0.10237 0.12258 0.0
C1697 C 0.34568 0.11499 0.2377 0.0
C1698 C 0.33901 0.10991 0.19832 0.0
H1699 H 0.31612 0.1124 0.99473 0.0
H1700 H 0.32837 0.11614 0.05638 0.0
H1701 H 0.31218 0.095 0.16673 0.0
H1702 H 0.3465 0.13038 0.3244 0.0
H1703 H 0.33518 0.12114 0.26123 0.0
C1704 C 0.8807 0.23032 0.32056 0.0
C1705 C 0.87681 0.23777 0.31708 0.0
C1706 C 0.88646 0.22899 0.28636 0.0
C1707 C 0.89915 0.24062 0.17769 0.0
H1708 H 0.89308 0.21071 0.15885 0.0
C1709 C 0.89733 0.21952 0.01429 0.0
C1710 C 0.90347 0.21413 0.01118 0.0
C1711 C 0.89701 0.22446 0.05312 0.0
C1712 C 0.895 0.21914 0.16416 0.0
H1713 H 0.87597 0.24981 0.27576 0.0
H1714 H 0.88534 0.247 0.21477 0.0
H1715 H 0.88645 0.21508 0.22438 0.0
H1716 H 0.9144 0.20995 0.04536 0.0
H1717 H 0.91343 0.21821 0.11434 0.0
H1718 H 0.90686 0.24427 0.115 0.0
C1719 C 0.88441 0.24248 0.24438 0.0
C1720 C 0.89125 0.2217 0.20187 0.0
C1721 C 0.87893 0.24403 0.27917 0.0
C1722 C 0.90966 0.21412 0.047 0.0
C1723 C 0.9091 0.21881 0.08629 0.0
C1724 C 0.90265 0.23796 0.13941 0.0
C1725 C 0.88815 0.23483 0.24729 0.0
C1726 C 0.89311 0.23244 0.20895 0.0
C1727 C 0.90262 0.22385 0.08971 0.0
C1728 C 0.90047 0.22717 0.13225 0.0
H1729 H 0.87932 0.22553 0.34987 0.0
H1730 H 0.88948 0.22329 0.29057 0.0
H1731 H 0.901 0.24903 0.18227 0.0
H1732 H 0.89252 0.21966 0.987 0.0
H1733 H 0.89188 0.22821 0.05528 0.0
C1734 C 0.7639 0.64825 0.31992 0.0
C1735 C 0.75655 0.63702 0.31278 0.0
C1736 C 0.7647 0.65611 0.29006 0.0
C1737 C 0.75236 0.65937 0.1862 0.0
H1738 H 0.78235 0.68304 0.1678 0.0
C1739 C 0.77398 0.67831 0.02464 0.0
C1740 C 0.77982 0.68983 0.02114 0.0
C1741 C 0.76859 0.67328 0.06312 0.0
C1742 C 0.77389 0.67662 0.17314 0.0
H1743 H 0.74405 0.62511 0.26989 0.0
H1744 H 0.74597 0.63863 0.21601 0.0
H1745 H 0.77808 0.67142 0.23127 0.0
H1746 H 0.78437 0.7052 0.05386 0.0
H1747 H 0.77536 0.69634 0.12259 0.0
H1748 H 0.74863 0.66406 0.12496 0.0
C1749 C 0.75081 0.64157 0.24538 0.0
C1750 C 0.77138 0.66994 0.20971 0.0
C1751 C 0.74977 0.63376 0.27602 0.0
C1752 C 0.77982 0.69628 0.05594 0.0
C1753 C 0.77469 0.69125 0.09501 0.0
C1754 C 0.75497 0.6659 0.14894 0.0
C1755 C 0.75845 0.65286 0.25153 0.0
C1756 C 0.76064 0.661 0.21623 0.0
C1757 C 0.76924 0.67972 0.09902 0.0
C1758 C 0.76581 0.6744 0.14177 0.0
H1759 H 0.76908 0.65095 0.34855 0.0
H1760 H 0.77041 0.6647 0.29689 0.0
H1761 H 0.74394 0.65281 0.19053 0.0
H1762 H 0.77391 0.6732 -0.00193 0.0
H1763 H 0.76456 0.66439 0.06578 0.0
C1764 C 0.89349 0.6947 0.054 0.0
C1765 C 0.90167 0.69712 0.02263 0.0
C1766 C 0.8921 0.6877 0.08857 0.0
C1767 C 0.88988 0.66358 0.11864 0.0
H1768 H 0.89799 0.67399 0.23695 0.0
C1769 C 0.86573 0.64064 0.27042 0.0
C1770 C 0.87149 0.63893 0.30394 0.0
C1771 C 0.87136 0.6471 0.23467 0.0
C1772 C 0.89588 0.67098 0.20399 0.0
H1773 H 0.91484 0.69417 0.00292 0.0
H1774 H 0.91209 0.68153 0.06321 0.0
H1775 H 0.90471 0.68725 0.17668 0.0
H1776 H 0.88762 0.64252 0.32645 0.0
H1777 H 0.89759 0.65434 0.26419 0.0
H1778 H 0.88033 0.64742 0.14606 0.0
C1779 C 0.90695 0.68527 0.06103 0.0
C1780 C 0.89969 0.67853 0.16972 0.0
C1781 C 0.9085 0.69246 0.02674 0.0
C1782 C 0.883 0.64372 0.30091 0.0
C1783 C 0.88868 0.65045 0.26552 0.0
C1784 C 0.88591 0.65605 0.15291 0.0
C1785 C 0.89874 0.68287 0.09205 0.0
C1786 C 0.89652 0.67488 0.127 0.0
C1787 C 0.88287 0.65217 0.23218 0.0
C1788 C 0.88868 0.65974 0.19588 0.0
H1789 H 0.88818 0.69825 0.0519 0.0
H1790 H 0.88569 0.68588 0.11221 0.0
H1791 H 0.88727 0.66065 0.08585 0.0
H1792 H 0.85685 0.63697 0.27182 0.0
H1793 H 0.86673 0.6484 0.20947 0.0
C1794 C 0.31276 0.2034 0.00763 0.0
C1795 C 0.30254 0.20299 0.00831 0.0
C1796 C 0.32045 0.20877 0.0405 0.0
C1797 C 0.32711 0.22717 0.13688 0.0
H1798 H 0.34062 0.21043 0.17694 0.0
C1799 C 0.34832 0.22075 0.29967 0.0
C1800 C 0.35588 0.23167 0.31152 0.0
C1801 C 0.34253 0.21845 0.2608 0.0
C1802 C 0.33688 0.21519 0.16632 0.0
H1803 H 0.29255 0.20834 0.04278 0.0
H1804 H 0.30583 0.21741 0.10125 0.0
H1805 H 0.32936 0.20462 0.11213 0.0
H1806 H 0.3631 0.24879 0.29193 0.0
H1807 H 0.35301 0.24472 0.22331 0.0
H1808 H 0.33429 0.23742 0.1928 0.0
C1809 C 0.30802 0.21377 0.07482 0.0
C1810 C 0.33055 0.21196 0.12866 0.0
C1811 C 0.30037 0.20853 0.04145 0.0
C1812 C 0.35735 0.24028 0.28375 0.0
C1813 C 0.35155 0.23796 0.24455 0.0
C1814 C 0.33343 0.23039 0.17489 0.0
C1815 C 0.31803 0.2137 0.07532 0.0
C1816 C 0.32547 0.21782 0.11365 0.0
C1817 C 0.34417 0.22699 0.23247 0.0
C1818 C 0.33822 0.22429 0.19041 0.0
H1819 H 0.31475 0.19937 0.98205 0.0
H1820 H 0.3282 0.20882 0.03915 0.0
H1821 H 0.32341 0.23194 0.12597 0.0
H1822 H 0.34686 0.21391 0.32041 0.0
H1823 H 0.33671 0.20993 0.25301 0.0
C1824 C 0.77503 0.09836 0.00613 0.0
C1825 C 0.77532 0.08857 -0.00017 0.0
C1826 C 0.76974 0.0996 0.04216 0.0
C1827 C 0.76333 0.09044 0.15377 0.0
H1828 H 0.74829 0.10736 0.15141 0.0
C1829 C 0.76446 0.11726 0.2952 0.0
C1830 C 0.75495 0.11771 0.30596 0.0
C1831 C 0.76459 0.11137 0.259 0.0
C1832 C 0.7523 0.10246 0.15262 0.0
H1833 H 0.76987 0.07221 0.02557 0.0
H1834 H 0.76068 0.07446 0.08894 0.0
H1835 H 0.75216 0.10098 0.08347 0.0
H1836 H 0.73802 0.11217 0.28739 0.0
H1837 H 0.73833 0.10197 0.2234 0.0
H1838 H 0.7638 0.09224 0.22278 0.0
C1839 C 0.7646 0.08116 0.06589 0.0
C1840 C 0.75459 0.09889 0.11375 0.0
C1841 C 0.76983 0.07988 0.02957 0.0
C1842 C 0.74549 0.11199 0.27993 0.0
C1843 C 0.74566 0.10618 0.24331 0.0
C1844 C 0.76108 0.09405 0.19258 0.0
C1845 C 0.76466 0.09111 0.07289 0.0
C1846 C 0.76045 0.09315 0.11389 0.0
C1847 C 0.75524 0.10585 0.23247 0.0
C1848 C 0.75586 0.1004 0.19228 0.0
H1849 H 0.7791 0.10519 0.98372 0.0
H1850 H 0.77006 0.10742 0.04692 0.0
H1851 H 0.7679 0.08608 0.15494 0.0
H1852 H 0.77188 0.12151 0.31462 0.0
H1853 H 0.77215 0.11142 0.25109 0.0
C1854 C 0.64158 0.86358 0.67807 0.0
C1855 C 0.63276 0.8656 0.67315 0.0
C1856 C 0.64863 0.86776 0.71374 0.0
C1857 C 0.65729 0.88813 0.80371 0.0
H1858 H 0.6663 0.86879 0.85682 0.0
C1859 C 0.67716 0.88277 0.97354 0.0
C1860 C 0.68578 0.89362 0.9803 0.0
C1861 C 0.67096 0.87992 0.93549 0.0
C1862 C 0.66379 0.87428 0.84265 0.0
H1863 H 0.62455 0.87375 0.70169 0.0
H1864 H 0.63668 0.88079 0.7645 0.0
H1865 H 0.655 0.86285 0.79193 0.0
H1866 H 0.69454 0.91003 0.95243 0.0
H1867 H 0.68381 0.90498 0.88539 0.0
H1868 H 0.66578 0.89939 0.85565 0.0
C1869 C 0.63828 0.87616 0.74033 0.0
C1870 C 0.65744 0.87093 0.80497 0.0
C1871 C 0.63128 0.87205 0.70441 0.0
C1872 C 0.68794 0.9016 0.94828 0.0
C1873 C 0.68176 0.89872 0.90993 0.0
C1874 C 0.66362 0.89147 0.84165 0.0
C1875 C 0.64698 0.87397 0.74565 0.0
C1876 C 0.65406 0.87778 0.78507 0.0
C1877 C 0.67326 0.88781 0.90294 0.0
C1878 C 0.66687 0.88453 0.86177 0.0
H1879 H 0.64305 0.85875 0.65437 0.0
H1880 H 0.65538 0.8661 0.71631 0.0
H1881 H 0.65494 0.89368 0.78897 0.0
H1882 H 0.67516 0.87643 0.99769 0.0
H1883 H 0.66431 0.8715 0.9317 0.0
C1884 C 0.12342 0.77234 0.64959 0.0
C1885 C 0.12072 0.76125 0.64675 0.0
C1886 C 0.11942 0.77592 0.68364 0.0
C1887 C 0.09897 0.76614 0.77401 0.0
H1888 H 0.11995 0.79433 0.82426 0.0
C1889 C 0.1072 0.79212 0.94338 0.0
C1890 C 0.09664 0.79049 0.95207 0.0
C1891 C 0.10942 0.78859 0.90437 0.0
C1892 C 0.114 0.7864 0.81084 0.0
H1893 H 0.11144 0.74516 0.67694 0.0
H1894 H 0.10472 0.75146 0.73705 0.0
H1895 H 0.12493 0.78793 0.75972 0.0
H1896 H 0.08008 0.7838 0.92639 0.0
H1897 H 0.08404 0.7778 0.85763 0.0
H1898 H 0.08824 0.76443 0.82663 0.0
C1899 C 0.10975 0.75736 0.71247 0.0
C1900 C 0.1168 0.7828 0.77332 0.0
C1901 C 0.11366 0.75376 0.6781 0.0
C1902 C 0.08831 0.78517 0.92076 0.0
C1903 C 0.09056 0.78169 0.88144 0.0
C1904 C 0.09619 0.76972 0.81183 0.0
C1905 C 0.11271 0.76853 0.71604 0.0
C1906 C 0.10937 0.77257 0.75458 0.0
C1907 C 0.10117 0.78341 0.87272 0.0
C1908 C 0.10374 0.77984 0.83102 0.0
H1909 H 0.12873 0.7783 0.62567 0.0
H1910 H 0.12167 0.78452 0.68476 0.0
H1911 H 0.09299 0.75828 0.76016 0.0
H1912 H 0.1138 0.79608 0.96688 0.0
H1913 H 0.11762 0.78983 0.89925 0.0
C1914 C 0.22277 0.30104 0.957 0.0
C1915 C 0.22345 0.30841 0.98938 0.0
C1916 C 0.22725 0.30497 0.9159 0.0
C1917 C 0.24648 0.32959 0.85428 0.0
H1918 H 0.2239 0.31875 0.76544 0.0
C1919 C 0.24884 0.3558 0.70771 0.0
C1920 C 0.24312 0.35063 0.66958 0.0
C1921 C 0.24842 0.34949 0.74351 0.0
C1922 C 0.23046 0.32172 0.7892 0.0
H1923 H 0.22991 0.32564 0.00537 0.0
H1924 H 0.23789 0.33249 0.934 0.0
H1925 H 0.21998 0.30946 0.83502 0.0
H1926 H 0.23322 0.3349 0.63757 0.0
H1927 H 0.23289 0.32389 0.69923 0.0
H1928 H 0.25695 0.34194 0.80885 0.0
C1929 C 0.23384 0.3237 0.94019 0.0
C1930 C 0.22816 0.31638 0.8292 0.0
C1931 C 0.22918 0.31978 0.98083 0.0
C1932 C 0.23754 0.33908 0.66693 0.0
C1933 C 0.23732 0.33278 0.70236 0.0
C1934 C 0.24886 0.33483 0.81396 0.0
C1935 C 0.23269 0.31632 0.9071 0.0
C1936 C 0.23601 0.32051 0.86253 0.0
C1937 C 0.24246 0.33789 0.74161 0.0
C1938 C 0.24073 0.33122 0.78147 0.0
H1939 H 0.21839 0.29223 0.96283 0.0
H1940 H 0.22624 0.29914 0.89072 0.0
H1941 H 0.25269 0.33286 0.87955 0.0
H1942 H 0.25319 0.3647 0.7106 0.0
H1943 H 0.25234 0.35376 0.77325 0.0
C1944 C 0.03502 0.44952 0.63541 0.0
C1945 C 0.0285 0.44885 0.67114 0.0
C1946 C 0.03007 0.44509 0.5954 0.0
C1947 C 0.00435 0.42633 0.53945 0.0
H1948 H 0.01241 0.45014 0.45752 0.0
C1949 C 0.97511 0.42352 0.40274 0.0
C1950 C 0.97947 0.42999 0.36543 0.0
C1951 C 0.98207 0.42424 0.43663 0.0
C1952 C 0.0102 0.44326 0.47913 0.0
H1953 H 0.01178 0.44233 0.69442 0.0
H1954 H 0.00314 0.43429 0.6249 0.0
H1955 H 0.02318 0.45343 0.52305 0.0
H1956 H 0.9945 0.44169 0.33267 0.0
H1957 H 0.0067 0.4425 0.39042 0.0
H1958 H 0.99138 0.4161 0.49574 0.0
C1959 C 0.01203 0.43833 0.62761 0.0
C1960 C 0.01639 0.4452 0.51686 0.0
C1961 C 0.01697 0.44299 0.66721 0.0
C1962 C 0.99092 0.43678 0.36158 0.0
C1963 C -0.00209 0.43727 0.39486 0.0
C1964 C -0.00171 0.4243 0.50115 0.0
C1965 C 0.01855 0.43968 0.59106 0.0
C1966 C 0.01332 0.43685 0.54787 0.0
C1967 C 0.99357 0.43123 0.4334 0.0
C1968 C 0.0009 0.43285 0.47111 0.0
H1969 H 0.04393 0.45405 0.63769 0.0
H1970 H 0.03524 0.44625 0.56748 0.0
H1971 H 0.00186 0.41978 0.56303 0.0
H1972 H 0.96629 0.41822 0.40642 0.0
H1973 H 0.97834 0.41959 0.46589 0.0
C1974 C 0.57039 0.54708 0.3997 0.0
C1975 C 0.56199 0.5374 0.38051 0.0
C1976 C 0.5684 0.55113 0.43813 0.0
C1977 C 0.55056 0.54237 0.53382 0.0
H1978 H 0.55656 0.57253 0.53998 0.0
C1979 C 0.54724 0.57427 0.66329 0.0
C1980 C 0.53696 0.56688 0.68173 0.0
C1981 C 0.55138 0.571 0.62856 0.0
C1982 C 0.55501 0.56414 0.5392 0.0
H1983 H 0.54497 0.5243 0.38699 0.0
H1984 H 0.5416 0.53127 0.4541 0.0
H1985 H 0.56213 0.56628 0.47581 0.0
H1986 H 0.52293 0.55029 0.67776 0.0
H1987 H 0.52997 0.54472 0.61681 0.0
H1988 H 0.54351 0.54016 0.597 0.0
C1989 C 0.54969 0.53575 0.43938 0.0
C1990 C 0.55818 0.56058 0.50238 0.0
C1991 C 0.55162 0.53181 0.40076 0.0
C1992 C 0.53093 0.55617 0.66466 0.0
C1993 C 0.53501 0.55294 0.62978 0.0
C1994 C 0.54751 0.54596 0.57077 0.0
C1995 C 0.55804 0.54545 0.45841 0.0
C1996 C 0.55577 0.54959 0.49902 0.0
C1997 C 0.5453 0.5603 0.61128 0.0
C1998 C 0.54947 0.55682 0.57356 0.0
H1999 H 0.57846 0.55159 0.38481 0.0
H2000 H 0.57498 0.55862 0.45228 0.0
H2001 H 0.54875 0.5339 0.53228 0.0
H2002 H 0.55213 0.58257 0.67578 0.0
H2003 H 0.55939 0.57684 0.61548 0.0
C2004 C 0.40892 0.96618 0.61969 0.0
C2005 C 0.41763 0.97087 0.64977 0.0
C2006 C 0.40949 0.97169 0.58105 0.0
C2007 C 0.42422 -0.00086 0.52876 0.0
H2008 H 0.41874 0.98268 0.4217 0.0
C2009 C 0.4339 0.02073 0.3625 0.0
C2010 C 0.44003 0.01787 0.33466 0.0
C2011 C 0.42876 0.01439 0.39927 0.0
C2012 C 0.42026 0.98738 0.45134 0.0
H2013 H 0.43361 0.98519 0.66332 0.0
H2014 H 0.4346 0.99469 0.59631 0.0
H2015 H 0.41425 0.97296 0.491 0.0
H2016 H 0.44523 0.00587 0.32297 0.0
H2017 H 0.43644 0.99493 0.38716 0.0
H2018 H 0.43075 0.01362 0.4894 0.0
C2019 C 0.4273 0.98681 0.60258 0.0
C2020 C 0.41757 0.9818 0.49097 0.0
C2021 C 0.42677 0.98129 0.64087 0.0
C2022 C 0.44062 0.00834 0.34368 0.0
C2023 C 0.43547 0.002 0.38035 0.0
C2024 C 0.42688 0.00472 0.48919 0.0
C2025 C 0.41872 0.98204 0.57208 0.0
C2026 C 0.41985 0.98767 0.53012 0.0
C2027 C 0.42963 0.00503 0.40889 0.0
C2028 C 0.42523 -0.00107 0.45012 0.0
H2029 H 0.40175 0.95816 0.6256 0.0
H2030 H 0.40274 0.96784 0.55816 0.0
H2031 H 0.42593 0.00387 0.55844 0.0
H2032 H 0.43321 0.02799 0.35638 0.0
H2033 H 0.42423 0.01687 0.42045 0.0
C2034 C 0.54695 0.96586 0.61732 0.0
C2035 C 0.54694 0.97244 0.65171 0.0
C2036 C 0.55084 0.97052 0.57642 0.0
C2037 C 0.56893 0.99517 0.51785 0.0
H2038 H 0.54577 0.98754 0.43309 0.0
C2039 C 0.57432 0.02371 0.37514 0.0
C2040 C 0.56818 0.01931 0.33707 0.0
C2041 C 0.57287 0.0169 0.41053 0.0
C2042 C 0.55245 0.9896 0.45565 0.0
H2043 H 0.55145 0.98905 0.67124 0.0
H2044 H 0.5586 -0.00278 0.60009 0.0
H2045 H 0.54161 0.97732 0.50084 0.0
H2046 H 0.55619 0.00428 0.30504 0.0
H2047 H 0.55403 0.99228 0.3659 0.0
H2048 H 0.57985 0.00737 0.47302 0.0
C2049 C 0.55546 0.98848 0.60469 0.0
C2050 C 0.55001 0.98375 0.49455 0.0
C2051 C 0.55132 0.9838 0.64515 0.0
C2052 C 0.56091 0.00791 0.33431 0.0
C2053 C 0.55964 0.00104 0.36934 0.0
C2054 C 0.57145 0.00086 0.47851 0.0
C2055 C 0.55506 0.98184 0.56991 0.0
C2056 C 0.55816 0.9867 0.52632 0.0
C2057 C 0.56542 0.00548 0.40833 0.0
C2058 C 0.56316 -0.0016 0.44743 0.0
H2059 H 0.54356 0.95708 0.62161 0.0
H2060 H 0.55041 0.96528 0.54976 0.0
H2061 H 0.57532 -0.00246 0.5421 0.0
H2062 H 0.57995 0.0325 0.37821 0.0
H2063 H 0.57731 0.02071 0.4401 0.0
C2064 C 0.96826 0.5363 0.33291 0.0
C2065 C 0.95947 0.53829 0.32628 0.0
C2066 C 0.97495 0.54044 0.36964 0.0
C2067 C 0.97425 0.5486 0.48133 0.0
H2068 H 0.00608 0.56205 0.4763 0.0
C2069 C 0.00083 0.55322 0.63054 0.0
C2070 C 0.01051 0.56341 0.63666 0.0
C2071 C 0.99475 0.55104 0.59237 0.0
C2072 C -0.00279 0.55839 0.47809 0.0
H2073 H 0.95096 0.54638 0.35281 0.0
H2074 H 0.96258 0.55347 0.41699 0.0
H2075 H -0.00466 0.55676 0.40902 0.0
H2076 H 0.02139 0.57933 0.6074 0.0
H2077 H 0.01076 0.57543 0.54022 0.0
H2078 H 0.97607 0.55005 0.55033 0.0
C2079 C 0.96425 0.54869 0.39377 0.0
C2080 C 0.99107 0.55529 0.43971 0.0
C2081 C 0.95763 0.54465 0.35689 0.0
C2082 C 0.01395 0.5714 0.60373 0.0
C2083 C 0.00792 0.56917 0.56522 0.0
C2084 C 0.98036 0.55159 0.51965 0.0
C2085 C 0.97292 0.54656 0.40066 0.0
C2086 C 0.97953 0.5503 0.44101 0.0
C2087 C -0.00174 0.55896 0.55925 0.0
C2088 C 0.99189 0.55643 0.51843 0.0
H2089 H 0.96993 0.53147 0.30992 0.0
H2090 H 0.98152 0.53859 0.37436 0.0
H2091 H 0.96535 0.54469 0.4833 0.0
H2092 H -0.00207 0.54688 0.65527 0.0
H2093 H 0.98739 0.54307 0.58843 0.0
C2094 C 0.44449 0.42867 0.32346 0.0
C2095 C 0.44868 0.4215 0.3282 0.0
C2096 C 0.43885 0.43023 0.35751 0.0
C2097 C 0.42745 0.42007 0.46932 0.0
H2098 H 0.43297 0.44998 0.48138 0.0
C2099 C 0.43083 0.44393 0.62732 0.0
C2100 C 0.42432 0.44896 0.62974 0.0
C2101 C 0.43081 0.43835 0.58983 0.0
C2102 C 0.4312 0.44154 0.47801 0.0
H2103 H 0.45015 0.41015 0.37147 0.0
H2104 H 0.44103 0.41341 0.43219 0.0
H2105 H 0.43903 0.4448 0.4164 0.0
H2106 H 0.41242 0.4518 0.59584 0.0
H2107 H 0.41281 0.44242 0.5291 0.0
H2108 H 0.42051 0.41731 0.53336 0.0
C2109 C 0.44161 0.41752 0.40179 0.0
C2110 C 0.43462 0.43851 0.4406 0.0
C2111 C 0.44694 0.4157 0.36714 0.0
C2112 C 0.41746 0.44794 0.59475 0.0
C2113 C 0.41767 0.4426 0.55673 0.0
C2114 C 0.4243 0.42322 0.50731 0.0
C2115 C 0.43762 0.42494 0.3977 0.0
C2116 C 0.43295 0.42777 0.43588 0.0
C2117 C 0.4245 0.43794 0.55386 0.0
C2118 C 0.42627 0.43402 0.51199 0.0
H2119 H 0.4456 0.43309 0.29334 0.0
H2120 H 0.43561 0.43572 0.35236 0.0
H2121 H 0.42576 0.41166 0.46668 0.0
H2122 H 0.43615 0.44458 0.65401 0.0
H2123 H 0.43622 0.43491 0.58804 0.0
C2124 C 0.06261 0.30071 0.20379 0.0
C2125 C 0.07311 0.30623 0.18451 0.0
C2126 C 0.05972 0.30598 0.23551 0.0
C2127 C 0.07008 0.33329 0.29099 0.0
H2128 H 0.06206 0.31555 0.3953 0.0
C2129 C 0.08814 0.35402 0.45215 0.0
C2130 C 0.09365 0.34906 0.47166 0.0
C2131 C 0.07991 0.34827 0.42113 0.0
C2132 C 0.06419 0.32063 0.36646 0.0
H2133 H 0.0884 0.32188 0.18044 0.0
H2134 H 0.08354 0.33088 0.2356 0.0
H2135 H 0.05817 0.30659 0.32501 0.0
H2136 H 0.09414 0.33385 0.47698 0.0
H2137 H 0.08023 0.32405 0.42279 0.0
H2138 H 0.07739 0.34737 0.33231 0.0
C2139 C 0.07743 0.32256 0.22644 0.0
C2140 C 0.06182 0.31547 0.32601 0.0
C2141 C 0.08031 0.31732 0.19516 0.0
C2142 C 0.0902 0.338 0.46207 0.0
C2143 C 0.08203 0.33229 0.43132 0.0
C2144 C 0.07265 0.33845 0.33142 0.0
C2145 C 0.06724 0.31688 0.24806 0.0
C2146 C 0.06557 0.3218 0.28796 0.0
C2147 C 0.07704 0.33745 0.40928 0.0
C2148 C 0.07053 0.33218 0.36947 0.0
H2149 H 0.05685 0.29218 0.19588 0.0
H2150 H 0.05179 0.3014 0.25138 0.0
H2151 H 0.07271 0.33838 0.26213 0.0
H2152 H 0.09052 0.3625 0.45927 0.0
H2153 H 0.07615 0.35245 0.4051 0.0
C2154 C 0.63977 0.75856 0.43559 0.0
C2155 C 0.63846 0.75203 0.47208 0.0
C2156 C 0.64499 0.75774 0.39855 0.0
C2157 C 0.66662 0.75373 0.36251 0.0
H2158 H 0.65339 0.75086 0.24927 0.0
C2159 C 0.69337 0.76884 0.20846 0.0
C2160 C 0.6913 0.77625 0.18521 0.0
C2161 C 0.68577 0.76178 0.23936 0.0
C2162 C 0.65718 0.75158 0.28061 0.0
H2163 H 0.64159 0.7395 0.49856 0.0
H2164 H 0.65125 0.73843 0.43375 0.0
H2165 H 0.64197 0.74631 0.31426 0.0
H2166 H 0.67933 0.78148 0.17355 0.0
H2167 H 0.66626 0.76939 0.22698 0.0
H2168 H 0.68202 0.75998 0.32934 0.0
C2169 C 0.64799 0.744 0.43392 0.0
C2170 C 0.65064 0.74893 0.31768 0.0
C2171 C 0.64249 0.74463 0.47081 0.0
C2172 C 0.68123 0.77596 0.19129 0.0
C2173 C 0.67365 0.7689 0.22165 0.0
C2174 C 0.67321 0.75654 0.32539 0.0
C2175 C 0.6492 0.75051 0.39748 0.0
C2176 C 0.65541 0.75047 0.35893 0.0
C2177 C 0.67594 0.76193 0.24692 0.0
C2178 C 0.66865 0.75603 0.28422 0.0
H2179 H 0.63667 0.76427 0.43549 0.0
H2180 H 0.64598 0.76295 0.37097 0.0
H2181 H 0.67045 0.75501 0.39411 0.0
H2182 H 0.70107 0.76887 0.20432 0.0
H2183 H 0.68773 0.75646 0.25821 0.0
C2184 C 0.21872 0.90631 0.19076 0.0
C2185 C 0.21602 0.91453 0.19862 0.0
C2186 C 0.22416 0.90368 0.22229 0.0
C2187 C 0.23645 0.91053 0.33366 0.0
H2188 H 0.22007 0.8787 0.34539 0.0
C2189 C 0.22085 0.87513 0.47347 0.0
C2190 C 0.23063 0.8773 0.49452 0.0
C2191 C 0.22119 0.8808 0.43593 0.0
C2192 C 0.22475 0.8876 0.34253 0.0
H2193 H 0.2175 0.92703 0.24368 0.0
H2194 H 0.22659 0.92212 0.29999 0.0
H2195 H 0.21793 0.88713 0.28046 0.0
H2196 H 0.24846 0.88751 0.49337 0.0
H2197 H 0.24902 0.89749 0.42724 0.0
H2198 H 0.24278 0.91083 0.39746 0.0
C2199 C 0.22482 0.91789 0.26911 0.0
C2200 C 0.22366 0.89246 0.30494 0.0
C2201 C 0.2196 0.9207 0.23698 0.0
C2202 C 0.24078 0.8856 0.47786 0.0
C2203 C 0.24111 0.89134 0.44013 0.0
C2204 C 0.23755 0.90562 0.37154 0.0
C2205 C 0.22665 0.90896 0.26289 0.0
C2206 C 0.2293 0.904 0.30031 0.0
C2207 C 0.23131 0.8888 0.41838 0.0
C2208 C 0.23143 0.89412 0.37672 0.0
H2209 H 0.21609 0.90151 0.16113 0.0
H2210 H 0.22574 0.89698 0.21593 0.0
H2211 H 0.24098 0.91943 0.33097 0.0
H2212 H 0.21287 0.86888 0.48552 0.0
H2213 H 0.21349 0.87884 0.42034 0.0
C2214 C 0.34661 0.12031 0.52197 0.0
C2215 C 0.35637 0.12008 0.51389 0.0
C2216 C 0.33955 0.114 0.55534 0.0
C2217 C 0.32388 0.09613 0.61794 0.0
H2218 H 0.33828 0.10258 0.73023 0.0
C2219 C 0.29994 0.08185 0.78044 0.0
C2220 C 0.30245 0.09087 0.80764 0.0
C2221 C 0.30659 0.08313 0.74458 0.0
C2222 C 0.33417 0.10058 0.69902 0.0
H2223 H 0.3662 0.11279 0.53346 0.0
H2224 H 0.35393 0.10194 0.59274 0.0
H2225 H 0.34943 0.10857 0.66422 0.0
H2226 H 0.31414 0.10812 0.81989 0.0
H2227 H 0.32584 0.11027 0.75792 0.0
H2228 H 0.30862 0.08852 0.65295 0.0
C2229 C 0.35175 0.10695 0.57287 0.0
C2230 C 0.34053 0.10394 0.66133 0.0
C2231 C 0.35874 0.11314 0.53897 0.0
C2232 C 0.31195 0.10105 0.79933 0.0
C2233 C 0.3187 0.10226 0.76411 0.0
C2234 C 0.31751 0.09263 0.65566 0.0
C2235 C 0.34217 0.10745 0.58166 0.0
C2236 C 0.33544 0.10207 0.62055 0.0
C2237 C 0.316 0.09337 0.73607 0.0
C2238 C 0.32262 0.09516 0.69651 0.0
H2239 H 0.34452 0.12551 0.50298 0.0
H2240 H 0.33227 0.11462 0.56175 0.0
H2241 H 0.31978 0.09456 0.58681 0.0
H2242 H 0.29265 0.07391 0.78609 0.0
H2243 H 0.30436 0.07617 0.7233 0.0
C2244 C 0.91687 0.22517 0.78198 0.0
C2245 C 0.90732 0.22015 0.80782 0.0
C2246 C 0.91774 0.23216 0.74788 0.0
C2247 C 0.90448 0.24704 0.69929 0.0
H2248 H 0.90931 0.23634 0.59027 0.0
C2249 C 0.88926 0.2551 0.53709 0.0
C2250 C 0.88236 0.24514 0.51544 0.0
C2251 C 0.89622 0.25546 0.57041 0.0
C2252 C 0.9081 0.23955 0.62044 0.0
H2253 H 0.89162 0.21917 0.82039 0.0
H2254 H 0.89309 0.23122 0.76123 0.0
H2255 H 0.91459 0.23126 0.65795 0.0
H2256 H 0.87782 0.22793 0.51 0.0
H2257 H 0.88985 0.22855 0.56774 0.0
H2258 H 0.89715 0.25457 0.6619 0.0
C2259 C 0.89993 0.22984 0.76711 0.0
C2260 C 0.91122 0.23674 0.65921 0.0
C2261 C 0.89902 0.22281 0.80074 0.0
C2262 C 0.88294 0.23571 0.52632 0.0
C2263 C 0.88996 0.2361 0.55908 0.0
C2264 C 0.90136 0.24986 0.66049 0.0
C2265 C 0.90915 0.23436 0.73952 0.0
C2266 C 0.90888 0.23996 0.69913 0.0
C2267 C 0.89653 0.24591 0.58204 0.0
C2268 C 0.9026 0.24563 0.62092 0.0
H2269 H 0.92343 0.22332 0.78682 0.0
H2270 H 0.92495 0.23557 0.72721 0.0
H2271 H 0.90275 0.24979 0.7296 0.0
H2272 H 0.88901 0.26252 0.52929 0.0
H2273 H 0.90121 0.26313 0.58763 0.0
C2274 C 0.7763 0.67037 0.82401 0.0
C2275 C 0.77842 0.68124 0.82037 0.0
C2276 C 0.77103 0.66284 0.79059 0.0
C2277 C 0.77009 0.65304 0.70361 0.0
H2278 H 0.74831 0.65216 0.62355 0.0
C2279 C 0.76708 0.63754 0.5312 0.0
C2280 C 0.75662 0.63019 0.51423 0.0
C2281 C 0.76815 0.64305 0.57002 0.0
C2282 C 0.7543 0.65223 0.64595 0.0
H2283 H 0.77602 0.6926 0.78037 0.0
H2284 H 0.76716 0.67954 0.72097 0.0
H2285 H 0.75209 0.66255 0.69147 0.0
H2286 H 0.73904 0.62315 0.52431 0.0
H2287 H 0.74092 0.63281 0.5928 0.0
H2288 H 0.77239 0.64283 0.65841 0.0
C2289 C 0.76938 0.67675 0.75001 0.0
C2290 C 0.75653 0.65824 0.68459 0.0
C2291 C 0.77451 0.68426 0.78391 0.0
C2292 C 0.7472 0.6287 0.53656 0.0
C2293 C 0.74829 0.63427 0.57564 0.0
C2294 C 0.76787 0.64707 0.66525 0.0
C2295 C 0.76796 0.66608 0.75237 0.0
C2296 C 0.76458 0.65884 0.71353 0.0
C2297 C 0.75878 0.64134 0.59303 0.0
C2298 C 0.76015 0.6468 0.63555 0.0
H2299 H 0.77904 0.66777 0.85219 0.0
H2300 H 0.76978 0.65459 0.79397 0.0
H2301 H 0.77647 0.65344 0.72468 0.0
H2302 H 0.77455 0.63901 0.5147 0.0
H2303 H 0.77634 0.64864 0.58214 0.0
C2304 C 0.8701 0.65096 0.51786 0.0
C2305 C 0.87158 0.64182 0.5123 0.0
C2306 C 0.87467 0.65793 0.55346 0.0
C2307 C 0.89478 0.66564 0.64386 0.0
H2308 H 0.8756 0.67484 0.69709 0.0
C2309 C 0.88963 0.68707 0.81049 0.0
C2310 C 0.90038 0.696 0.81537 0.0
C2311 C 0.88683 0.6801 0.7747 0.0
C2312 C 0.88103 0.67226 0.68303 0.0
H2313 H 0.87937 0.63308 0.53893 0.0
H2314 H 0.88714 0.64512 0.60193 0.0
H2315 H 0.86962 0.66365 0.63212 0.0
H2316 H 0.91678 0.70436 0.7874 0.0
H2317 H 0.91181 0.69232 0.72398 0.0
H2318 H 0.90604 0.67403 0.696 0.0
C2319 C 0.88258 0.64698 0.57833 0.0
C2320 C 0.87767 0.66598 0.64522 0.0
C2321 C 0.87809 0.64005 0.54232 0.0
C2322 C 0.90841 0.69754 0.7845 0.0
C2323 C 0.90558 0.69062 0.74826 0.0
C2324 C 0.89813 0.67191 0.68202 0.0
C2325 C 0.88072 0.65587 0.58478 0.0
C2326 C 0.8845 0.66262 0.625 0.0
C2327 C 0.89468 0.68196 0.74249 0.0
C2328 C 0.89127 0.67526 0.7021 0.0
H2329 H 0.86527 0.65266 0.49496 0.0
H2330 H 0.87332 0.66487 0.55675 0.0
H2331 H 0.90027 0.66326 0.62896 0.0
H2332 H 0.88328 0.68553 0.83409 0.0
H2333 H 0.87844 0.67333 0.77196 0.0
C2334 C 0.2933 0.20911 0.78537 0.0
C2335 C 0.29483 0.20091 0.80513 0.0
C2336 C 0.29891 0.21422 0.74705 0.0
C2337 C 0.31686 0.22743 0.67844 0.0
H2338 H 0.31962 0.20819 0.59534 0.0
C2339 C 0.35059 0.24247 0.5464 0.0
C2340 C 0.34854 0.23585 0.50956 0.0
C2341 C 0.34244 0.23943 0.57819 0.0
C2342 C 0.31877 0.21371 0.61751 0.0
H2343 H 0.30378 0.19198 0.80096 0.0
H2344 H 0.31355 0.2009 0.73504 0.0
H2345 H 0.30848 0.20038 0.65944 0.0
H2346 H 0.3362 0.22167 0.47429 0.0
H2347 H 0.32179 0.21672 0.52826 0.0
H2348 H 0.3272 0.2408 0.63605 0.0
C2349 C 0.30785 0.20323 0.74842 0.0
C2350 C 0.31251 0.20922 0.65476 0.0
C2351 C 0.30227 0.19814 0.78642 0.0
C2352 C 0.33798 0.22679 0.50287 0.0
C2353 C 0.32977 0.22393 0.53395 0.0
C2354 C 0.32312 0.23197 0.6408 0.0
C2355 C 0.30611 0.21118 0.72789 0.0
C2356 C 0.31173 0.21603 0.68622 0.0
C2357 C 0.33208 0.22984 0.57309 0.0
C2358 C 0.32433 0.22516 0.6103 0.0
H2359 H 0.28765 0.21146 0.79904 0.0
H2360 H 0.29741 0.22032 0.73189 0.0
H2361 H 0.31638 0.23289 0.70216 0.0
H2362 H 0.35871 0.24948 0.55215 0.0
H2363 H 0.34454 0.24417 0.60793 0.0
C2364 C 0.76932 0.07168 0.76424 0.0
C2365 C 0.77119 0.0794 0.79691 0.0
C2366 C 0.76402 0.0717 0.72586 0.0
C2367 C 0.74669 0.08002 0.67025 0.0
H2368 H 0.77029 0.09534 0.58713 0.0
C2369 C 0.74504 0.10858 0.54141 0.0
C2370 C 0.75186 0.11144 0.50489 0.0
C2371 C 0.74515 0.10135 0.5723 0.0
C2372 C 0.76343 0.09075 0.60887 0.0
H2373 H 0.76823 0.0925 0.81731 0.0
H2374 H 0.75858 0.09224 0.75084 0.0
H2375 H 0.77348 0.08742 0.65138 0.0
H2376 H 0.76342 0.10841 0.46956 0.0
H2377 H 0.76306 0.09515 0.52157 0.0
H2378 H 0.73656 0.08327 0.62805 0.0
C2379 C 0.76132 0.0863 0.75466 0.0
C2380 C 0.76532 0.08625 0.6459 0.0
C2381 C 0.76689 0.0865 0.79239 0.0
C2382 C 0.75826 0.10645 0.49809 0.0
C2383 C 0.75809 0.09892 0.52814 0.0
C2384 C 0.74467 0.08424 0.63249 0.0
C2385 C 0.76023 0.0792 0.72056 0.0
C2386 C 0.75712 0.08123 0.67752 0.0
C2387 C 0.75185 0.09656 0.56652 0.0
C2388 C 0.75317 0.09011 0.60218 0.0
H2389 H 0.77265 0.06619 0.76707 0.0
H2390 H 0.76336 0.06628 0.69956 0.0
H2391 H 0.74028 0.07619 0.69453 0.0
H2392 H 0.74003 0.11236 0.54714 0.0
H2393 H 0.74036 0.09997 0.60153 0.0
C2394 C 0.67264 0.89356 0.18903 0.0
C2395 C 0.68253 0.90334 0.18036 0.0
C2396 C 0.6657 0.89317 0.22222 0.0
C2397 C 0.6677 0.90443 0.32789 0.0
H2398 H 0.63576 0.88747 0.32389 0.0
C2399 C 0.64072 0.87591 0.46278 0.0
C2400 C 0.63086 0.87563 0.47378 0.0
C2401 C 0.64725 0.88258 0.429 0.0
C2402 C 0.64466 0.89243 0.32548 0.0
H2403 H 0.6927 0.92054 0.19822 0.0
H2404 H 0.68065 0.91975 0.25746 0.0
H2405 H 0.64629 0.89325 0.25626 0.0
H2406 H 0.62024 0.88235 0.45903 0.0
H2407 H 0.63157 0.89381 0.3986 0.0
H2408 H 0.6661 0.90291 0.39701 0.0
C2409 C 0.67825 0.91244 0.23807 0.0
C2410 C 0.65067 0.89568 0.28686 0.0
C2411 C 0.68511 0.91289 0.20421 0.0
C2412 C 0.62781 0.88242 0.45121 0.0
C2413 C 0.63426 0.88896 0.4167 0.0
C2414 C 0.6617 0.90105 0.36647 0.0
C2415 C 0.6686 0.90252 0.24787 0.0
C2416 C 0.66225 0.90136 0.28775 0.0
C2417 C 0.64397 0.88898 0.40506 0.0
C2418 C 0.65015 0.89468 0.3655 0.0
H2419 H 0.67041 0.8861 0.17095 0.0
H2420 H 0.65837 0.88538 0.22939 0.0
H2421 H 0.67662 0.90873 0.32948 0.0
H2422 H 0.6433 0.87082 0.47982 0.0
H2423 H 0.65463 0.88235 0.42032 0.0
C2424 C 0.10648 0.74099 0.4262 0.0
C2425 C 0.11579 0.75034 0.44321 0.0
C2426 C 0.10146 0.74178 0.38805 0.0
C2427 C 0.08977 0.74844 0.31804 0.0
H2428 H 0.11048 0.76681 0.22953 0.0
C2429 C 0.07981 0.77091 0.18416 0.0
C2430 C 0.08633 0.77419 0.14665 0.0
C2431 C 0.0814 0.7647 0.21593 0.0
C2432 C 0.1045 0.76143 0.25319 0.0
H2433 H 0.12673 0.76795 0.43461 0.0
H2434 H 0.11801 0.76929 0.36897 0.0
H2435 H 0.11723 0.76251 0.29442 0.0
H2436 H 0.0987 0.77268 0.11021 0.0
H2437 H 0.10101 0.76126 0.1641 0.0
H2438 H 0.07702 0.74748 0.27655 0.0
C2439 C 0.11472 0.76131 0.38439 0.0
C2440 C 0.10842 0.75912 0.29084 0.0
C2441 C 0.1197 0.76053 0.42222 0.0
C2442 C 0.09365 0.7703 0.1392 0.0
C2443 C 0.09503 0.76385 0.17029 0.0
C2444 C 0.0858 0.75074 0.28 0.0
C2445 C 0.10572 0.75193 0.36633 0.0
C2446 C 0.10116 0.75291 0.32427 0.0
C2447 C 0.08942 0.76154 0.21019 0.0
C2448 C 0.09317 0.75751 0.24756 0.0
H2449 H 0.10324 0.73302 0.44171 0.0
H2450 H 0.0945 0.73443 0.37484 0.0
H2451 H 0.08399 0.7436 0.34329 0.0
H2452 H 0.07416 0.77392 0.19056 0.0
H2453 H 0.07696 0.76314 0.24622 0.0
C2454 C 0.24379 0.32447 0.17544 0.0
C2455 C 0.23634 0.31342 0.1853 0.0
C2456 C 0.25182 0.33118 0.20545 0.0
C2457 C 0.2619 0.33125 0.31908 0.0
H2458 H 0.26095 0.35841 0.32545 0.0
C2459 C 0.25217 0.34804 0.46864 0.0
C2460 C 0.25707 0.35945 0.47514 0.0
C2461 C 0.25527 0.34394 0.43357 0.0
C2462 C 0.26162 0.35104 0.32381 0.0
H2463 H 0.23178 0.3004 0.23231 0.0
H2464 H 0.2452 0.31216 0.28608 0.0
H2465 H 0.25591 0.34804 0.25878 0.0
H2466 H 0.26954 0.37553 0.45217 0.0
H2467 H 0.27467 0.36831 0.38924 0.0
H2468 H 0.26644 0.33383 0.38631 0.0
C2469 C 0.24529 0.3157 0.25479 0.0
C2470 C 0.25874 0.34503 0.28531 0.0
C2471 C 0.2375 0.30892 0.22412 0.0
C2472 C 0.26565 0.36669 0.4477 0.0
C2473 C 0.26859 0.36258 0.41188 0.0
C2474 C 0.26458 0.33718 0.35795 0.0
C2475 C 0.25222 0.32706 0.24665 0.0
C2476 C 0.25826 0.33475 0.28306 0.0
C2477 C 0.26317 0.35117 0.40385 0.0
C2478 C 0.26393 0.34684 0.36111 0.0
H2479 H 0.2431 0.32804 0.14525 0.0
H2480 H 0.25725 0.33975 0.19727 0.0
H2481 H 0.26199 0.32357 0.31824 0.0
H2482 H 0.2456 0.3423 0.48967 0.0
H2483 H 0.25085 0.33512 0.42785 0.0
C2484 C 0.03125 0.44273 0.91546 0.0
C2485 C 0.02668 0.44204 0.87444 0.0
C2486 C 0.02457 0.43629 0.94955 0.0
C2487 C 0.99504 0.42276 0.97926 0.0
H2488 H 0.00652 0.4191 0.08855 0.0
C2489 C 0.97072 0.41303 0.13961 0.0
C2490 C 0.97599 0.4224 0.16629 0.0
C2491 C 0.97635 0.41176 0.1047 0.0
C2492 C 0.00317 0.41989 0.05798 0.0
H2493 H 0.01202 0.43347 0.83499 0.0
H2494 H 0.0005 0.42156 0.89344 0.0
H2495 H 0.01737 0.42252 0.02243 0.0
H2496 H 0.9914 0.43739 0.17938 0.0
H2497 H 0.00132 0.43499 0.11901 0.0
H2498 H 0.98087 0.42017 0.01523 0.0
C2499 C 0.00904 0.42744 0.90038 0.0
C2500 C 0.0094 0.42198 0.02016 0.0
C2501 C 0.01564 0.43415 0.8667 0.0
C2502 C 0.98713 0.43015 0.15904 0.0
C2503 C 0.99283 0.42872 0.12489 0.0
C2504 C 0.98871 0.42039 0.0168 0.0
C2505 C 0.01325 0.42887 0.94287 0.0
C2506 C 0.00566 0.42399 0.98064 0.0
C2507 C 0.98741 0.41966 0.09691 0.0
C2508 C 0.99293 0.41942 0.05666 0.0
H2509 H 0.03976 0.44886 0.922 0.0
H2510 H 0.02817 0.43779 0.98161 0.0
H2511 H 0.99185 0.4244 0.94999 0.0
H2512 H 0.96212 0.40695 0.14456 0.0
H2513 H 0.97202 0.40477 0.08316 0.0
C2514 C 0.56108 0.55011 0.1711 0.0
C2515 C 0.57045 0.54908 0.17747 0.0
C2516 C 0.56074 0.55656 0.13737 0.0
C2517 C 0.57044 0.56394 0.02836 0.0
H2518 H 0.55653 0.58189 0.03525 0.0
C2519 C 0.54351 0.56644 0.89444 0.0
C2520 C 0.54477 0.57675 0.88371 0.0
C2521 C 0.54945 0.56544 0.9287 0.0
C2522 C 0.56061 0.57707 0.03284 0.0
H2523 H 0.58701 0.55436 0.15479 0.0
H2524 H 0.58628 0.56545 0.0947 0.0
H2525 H 0.56214 0.57651 0.10184 0.0
H2526 H 0.55339 0.59416 0.89991 0.0
H2527 H 0.56357 0.59231 0.96099 0.0
H2528 H 0.56829 0.56393 0.95955 0.0
C2529 C 0.57927 0.56134 0.11626 0.0
C2530 C 0.56376 0.57395 0.07086 0.0
C2531 C 0.57969 0.55503 0.15065 0.0
C2532 C 0.55227 0.5861 0.90744 0.0
C2533 C 0.55807 0.58506 0.94235 0.0
C2534 C 0.56715 0.56693 0.9904 0.0
C2535 C 0.56969 0.56197 0.10887 0.0
C2536 C 0.56841 0.5671 0.069 0.0
C2537 C 0.55665 0.5747 0.95338 0.0
C2538 C 0.56192 0.57324 0.99243 0.0
H2539 H 0.55387 0.54566 0.19146 0.0
H2540 H 0.55321 0.5568 0.13214 0.0
H2541 H 0.57392 0.55857 0.02602 0.0
H2542 H 0.53785 0.5591 0.87658 0.0
H2543 H 0.5481 0.55733 0.93688 0.0
C2544 C 0.42888 0.02836 0.10649 0.0
C2545 C 0.43173 0.02259 0.13622 0.0
C2546 C 0.42232 0.02289 0.07053 0.0
C2547 C 0.40361 0.99603 0.02152 0.0
H2548 H 0.42263 0.00685 0.92082 0.0
C2549 C 0.40199 0.96733 0.88705 0.0
C2550 C 0.40697 0.97171 0.84704 0.0
C2551 C 0.4015 0.9742 0.91875 0.0
C2552 C 0.41693 0.00381 0.9478 0.0
H2553 H 0.42928 0.00657 0.15417 0.0
H2554 H 0.41752 -0.00303 0.09216 0.0
H2555 H 0.42757 0.01797 0.98582 0.0
H2556 H 0.4144 0.98625 0.80659 0.0
H2557 H 0.41283 -0.00186 0.86051 0.0
H2558 H 0.39301 0.98179 0.98393 0.0
C2559 C 0.42044 0.00568 0.09629 0.0
C2560 C 0.41984 0.01023 0.98526 0.0
C2561 C 0.42722 0.01118 0.13148 0.0
C2562 C 0.4106 0.98278 0.83758 0.0
C2563 C 0.4098 0.98958 0.8687 0.0
C2564 C 0.40053 0.9897 0.98362 0.0
C2565 C 0.41826 0.01156 0.06474 0.0
C2566 C 0.41348 0.00617 0.02295 0.0
C2567 C 0.40577 0.98553 0.91055 0.0
C2568 C 0.40746 0.99325 0.94693 0.0
H2569 H 0.43232 0.03719 0.10947 0.0
H2570 H 0.4208 0.02758 0.04631 0.0
H2571 H 0.39857 0.99278 0.05032 0.0
H2572 H 0.39922 0.9588 0.89493 0.0
H2573 H 0.39847 0.97072 0.9505 0.0
C2574 C 0.56223 0.97432 0.88798 0.0
C2575 C 0.56025 0.97836 0.84955 0.0
C2576 C 0.56949 0.98162 0.91894 0.0
C2577 C 0.58051 0.01081 0.95078 0.0
H2578 H 0.59103 0.00131 0.04874 0.0
C2579 C 0.59189 0.03435 0.11173 0.0
C2580 C 0.58351 0.02771 0.14109 0.0
C2581 C 0.59366 0.02966 0.07475 0.0
C2582 C 0.58836 0.00416 0.02116 0.0
H2583 H 0.56498 0.9929 0.8107 0.0
H2584 H 0.57832 0.00564 0.86297 0.0
H2585 H 0.58621 0.99075 0.98131 0.0
H2586 H 0.57108 0.01099 0.15734 0.0
H2587 H 0.57446 0.00274 0.09358 0.0
H2588 H 0.58258 0.02414 0.99107 0.0
C2589 C 0.57387 -0.00305 0.8708 0.0
C2590 C 0.58544 -0.00194 0.9827 0.0
C2591 C 0.56632 0.98966 0.84057 0.0
C2592 C 0.57757 0.01625 0.13498 0.0
C2593 C 0.57956 0.01154 0.09879 0.0
C2594 C 0.58372 0.01705 0.98872 0.0
C2595 C 0.57512 0.9931 0.91145 0.0
C2596 C 0.58089 0.00096 0.94779 0.0
C2597 C 0.58732 0.01825 0.0676 0.0
C2598 C 0.58716 0.01349 0.02482 0.0
H2599 H 0.55756 0.9656 0.89552 0.0
H2600 H 0.57003 0.97825 0.94978 0.0
H2601 H 0.57694 0.01334 0.9253 0.0
H2602 H 0.59651 0.04322 0.11579 0.0
H2603 H 0.59961 0.03497 0.05078 0.0
C2604 C -0.00218 0.56473 0.84638 0.0
C2605 C 0.00804 0.574 0.83648 0.0
C2606 C 0.99122 0.56521 0.87913 0.0
C2607 C 0.99426 0.57814 0.98242 0.0
H2608 H 0.9623 0.56164 0.98032 0.0
C2609 C 0.96785 0.55084 0.11994 0.0
C2610 C 0.95764 0.54997 0.12949 0.0
C2611 C 0.97437 0.55764 0.08644 0.0
C2612 C 0.97121 0.56651 0.9814 0.0
H2613 H 0.01914 0.59123 0.85162 0.0
H2614 H 0.00764 0.59198 0.90997 0.0
H2615 H 0.97256 0.56652 0.9122 0.0
H2616 H 0.94646 0.55588 0.11288 0.0
H2617 H 0.95781 0.5676 0.05297 0.0
H2618 H 0.99291 0.57747 0.05167 0.0
C2619 C 0.00475 0.58438 0.89198 0.0
C2620 C 0.97707 0.56923 0.94245 0.0
C2621 C 0.01129 0.58395 0.8586 0.0
C2622 C 0.9543 0.55641 0.10613 0.0
C2623 C 0.96076 0.56309 0.07192 0.0
C2624 C 0.9884 0.57534 0.02137 0.0
C2625 C 0.99475 0.57494 0.90307 0.0
C2626 C 0.98865 0.57463 0.9427 0.0
C2627 C 0.97077 0.56359 0.06133 0.0
C2628 C 0.97683 0.56907 0.0212 0.0
H2629 H 0.99505 0.55698 0.82964 0.0
H2630 H 0.98363 0.55776 0.88732 0.0
H2631 H 0.00318 0.58226 0.9836 0.0
H2632 H 0.97068 0.54604 0.13768 0.0
H2633 H 0.98197 0.55774 0.07867 0.0
C2634 C 0.44635 0.41253 0.08596 0.0
C2635 C 0.44547 0.41586 0.1278 0.0
C2636 C 0.44059 0.41385 0.0517 0.0
C2637 C 0.42831 0.43106 0.02299 0.0
H2638 H 0.42175 0.41449 0.91573 0.0
C2639 C 0.41503 0.44405 0.86705 0.0
C2640 C 0.42317 0.44699 0.83506 0.0
C2641 C 0.41476 0.43782 0.90292 0.0
C2642 C 0.42341 0.41908 0.94573 0.0
H2643 H 0.43753 0.42249 0.16806 0.0
H2644 H 0.42692 0.42423 0.10884 0.0
H2645 H 0.42619 0.40753 0.98084 0.0
H2646 H 0.43693 0.44517 0.81381 0.0
H2647 H 0.43625 0.43401 0.87593 0.0
H2648 H 0.42553 0.44259 0.98753 0.0
C2649 C 0.43234 0.421 0.10172 0.0
C2650 C 0.42606 0.41519 0.98292 0.0
C2651 C 0.43831 0.41992 0.13573 0.0
C2652 C 0.43063 0.44308 0.83821 0.0
C2653 C 0.43018 0.43663 0.87346 0.0
C2654 C 0.42542 0.43481 0.9861 0.0
C2655 C 0.4337 0.41836 0.05894 0.0
C2656 C 0.42895 0.42135 0.02164 0.0
C2657 C 0.42243 0.43419 0.90658 0.0
C2658 C 0.42331 0.42904 0.94691 0.0
H2659 H 0.45194 0.40946 0.07939 0.0
H2660 H 0.44203 0.41187 0.01931 0.0
H2661 H 0.43065 0.43618 0.05173 0.0
H2662 H 0.40921 0.447 0.86539 0.0
H2663 H 0.40876 0.43605 0.92831 0.0
loop_
_geom_bond_atom_site_label_1
_geom_bond_atom_site_label_2
_geom_bond_distance
_geom_bond_site_symmetry_2
_ccdc_geom_bond_type
Mg0 O1 2.028 . S
Mg0 O7 1.986 . S
Mg0 O9 2.114 . S
Mg0 O10 2.251 . S
Mg0 O13 2.010 . S
O1 Mg0 2.028 . S
O1 C4 1.250 . S
O2 Mg3 2.028 . S
O2 C4 1.248 . S
Mg3 O2 2.028 . S
Mg3 O8 2.032 . S
Mg3 O10 2.079 . S
C4 O1 1.250 . S
C4 O2 1.248 . S
C5 O6 1.264 . S
C5 O13 1.249 . S
O6 C5 1.264 . S
O7 Mg0 1.986 . S
O7 C11 1.246 . S
O8 Mg3 2.032 . S
O8 C11 1.259 . S
O9 Mg0 2.114 . S
O9 C12 1.252 . S
O10 Mg0 2.251 . S
O10 Mg3 2.079 . S
O10 C12 1.273 . S
C11 O7 1.246 . S
C11 O8 1.259 . S
C12 O9 1.252 . S
C12 O10 1.273 . S
O13 Mg0 2.010 . S
O13 C5 1.249 . S
Mg14 O15 2.028 . S
Mg14 O21 1.986 . S
Mg14 O23 2.114 . S
Mg14 O24 2.251 . S
Mg14 O27 2.010 . S
O15 Mg14 2.028 . S
O15 C18 1.250 . S
O16 Mg17 2.028 . S
O16 C18 1.248 . S
Mg17 O16 2.028 . S
Mg17 O22 2.032 . S
Mg17 O24 2.079 . S
C18 O15 1.250 . S
C18 O16 1.248 . S
C19 O20 1.264 . S
C19 O27 1.249 . S
O20 C19 1.264 . S
O21 Mg14 1.986 . S
O21 C25 1.246 . S
O22 Mg17 2.032 . S
O22 C25 1.259 . S
O23 Mg14 2.114 . S
O23 C26 1.252 . S
O24 Mg14 2.251 . S
O24 Mg17 2.079 . S
O24 C26 1.273 . S
C25 O21 1.246 . S
C25 O22 1.259 . S
C26 O23 1.252 . S
C26 O24 1.273 . S
O27 Mg14 2.010 . S
O27 C19 1.249 . S
Mg28 O29 2.028 . S
Mg28 O35 1.986 . S
Mg28 O37 2.114 . S
Mg28 O38 2.251 . S
Mg28 O41 2.010 . S
O29 Mg28 2.028 . S
O29 C32 1.250 . S
O30 Mg31 2.028 . S
O30 C32 1.248 . S
Mg31 O30 2.028 . S
Mg31 O36 2.032 . S
Mg31 O38 2.079 . S
C32 O29 1.250 . S
C32 O30 1.248 . S
C33 O34 1.264 . S
C33 O41 1.249 . S
O34 C33 1.264 . S
O35 Mg28 1.986 . S
O35 C39 1.246 . S
O36 Mg31 2.032 . S
O36 C39 1.259 . S
O37 Mg28 2.114 . S
O37 C40 1.252 . S
O38 Mg28 2.251 . S
O38 Mg31 2.079 . S
O38 C40 1.273 . S
C39 O35 1.246 . S
C39 O36 1.259 . S
C40 O37 1.252 . S
C40 O38 1.273 . S
O41 Mg28 2.010 . S
O41 C33 1.249 . S
Mg42 O43 2.028 . S
Mg42 O49 1.986 . S
Mg42 O51 2.114 . S
Mg42 O52 2.251 . S
Mg42 O55 2.010 . S
O43 Mg42 2.028 . S
O43 C46 1.250 . S
O44 Mg45 2.028 . S
O44 C46 1.248 . S
Mg45 O44 2.028 . S
Mg45 O50 2.032 . S
Mg45 O52 2.079 . S
C46 O43 1.250 . S
C46 O44 1.248 . S
C47 O48 1.264 . S
C47 O55 1.249 . S
O48 C47 1.264 . S
O49 Mg42 1.986 . S
O49 C53 1.246 . S
O50 Mg45 2.032 . S
O50 C53 1.259 . S
O51 Mg42 2.114 . S
O51 C54 1.252 . S
O52 Mg42 2.251 . S
O52 Mg45 2.079 . S
O52 C54 1.273 . S
C53 O49 1.246 . S
C53 O50 1.259 . S
C54 O51 1.252 . S
C54 O52 1.273 . S
O55 Mg42 2.010 . S
O55 C47 1.249 . S
Mg56 O57 2.028 . S
Mg56 O63 1.986 . S
Mg56 O65 2.114 . S
Mg56 O66 2.251 . S
Mg56 O69 2.010 . S
O57 Mg56 2.028 . S
O57 C60 1.250 . S
O58 Mg59 2.028 . S
O58 C60 1.248 . S
Mg59 O58 2.028 . S
Mg59 O64 2.032 . S
Mg59 O66 2.079 . S
C60 O57 1.250 . S
C60 O58 1.248 . S
C61 O62 1.264 . S
C61 O69 1.249 . S
O62 C61 1.264 . S
O63 Mg56 1.986 . S
O63 C67 1.246 . S
O64 Mg59 2.032 . S
O64 C67 1.259 . S
O65 Mg56 2.114 . S
O65 C68 1.252 . S
O66 Mg56 2.251 . S
O66 Mg59 2.079 . S
O66 C68 1.273 . S
C67 O63 1.246 . S
C67 O64 1.259 . S
C68 O65 1.252 . S
C68 O66 1.273 . S
O69 Mg56 2.010 . S
O69 C61 1.249 . S
Mg70 O71 2.028 . S
Mg70 O77 1.986 . S
Mg70 O79 2.114 . S
Mg70 O80 2.251 . S
Mg70 O83 2.010 . S
O71 Mg70 2.028 . S
O71 C74 1.250 . S
O72 Mg73 2.028 . S
O72 C74 1.248 . S
Mg73 O72 2.028 . S
Mg73 O78 2.032 . S
Mg73 O80 2.079 . S
C74 O71 1.250 . S
C74 O72 1.248 . S
C75 O76 1.264 . S
C75 O83 1.249 . S
O76 C75 1.264 . S
O77 Mg70 1.986 . S
O77 C81 1.246 . S
O78 Mg73 2.032 . S
O78 C81 1.259 . S
O79 Mg70 2.114 . S
O79 C82 1.252 . S
O80 Mg70 2.251 . S
O80 Mg73 2.079 . S
O80 C82 1.273 . S
C81 O77 1.246 . S
C81 O78 1.259 . S
C82 O79 1.252 . S
C82 O80 1.273 . S
O83 Mg70 2.010 . S
O83 C75 1.249 . S
Mg84 O85 2.028 . S
Mg84 O91 1.986 . S
Mg84 O93 2.114 . S
Mg84 O94 2.251 . S
Mg84 O97 2.010 . S
O85 Mg84 2.028 . S
O85 C88 1.250 . S
O86 Mg87 2.028 . S
O86 C88 1.248 . S
Mg87 O86 2.028 . S
Mg87 O92 2.032 . S
Mg87 O94 2.079 . S
C88 O85 1.250 . S
C88 O86 1.248 . S
C89 O90 1.264 . S
C89 O97 1.249 . S
O90 C89 1.264 . S
O91 Mg84 1.986 . S
O91 C95 1.246 . S
O92 Mg87 2.032 . S
O92 C95 1.259 . S
O93 Mg84 2.114 . S
O93 C96 1.252 . S
O94 Mg84 2.251 . S
O94 Mg87 2.079 . S
O94 C96 1.273 . S
C95 O91 1.246 . S
C95 O92 1.259 . S
C96 O93 1.252 . S
C96 O94 1.273 . S
O97 Mg84 2.010 . S
O97 C89 1.249 . S
Mg98 O99 2.028 . S
Mg98 O105 1.986 . S
Mg98 O107 2.114 . S
Mg98 O108 2.251 . S
Mg98 O111 2.010 . S
O99 Mg98 2.028 . S
O99 C102 1.250 . S
O100 Mg101 2.028 . S
O100 C102 1.248 . S
Mg101 O100 2.028 . S
Mg101 O106 2.032 . S
Mg101 O108 2.079 . S
C102 O99 1.250 . S
C102 O100 1.248 . S
C103 O104 1.264 . S
C103 O111 1.249 . S
O104 C103 1.264 . S
O105 Mg98 1.986 . S
O105 C109 1.246 . S
O106 Mg101 2.032 . S
O106 C109 1.259 . S
O107 Mg98 2.114 . S
O107 C110 1.252 . S
O108 Mg98 2.251 . S
O108 Mg101 2.079 . S
O108 C110 1.273 . S
C109 O105 1.246 . S
C109 O106 1.259 . S
C110 O107 1.252 . S
C110 O108 1.273 . S
O111 Mg98 2.010 . S
O111 C103 1.249 . S
Mg112 O113 2.028 . S
Mg112 O119 1.986 . S
Mg112 O121 2.114 . S
Mg112 O122 2.251 . S
Mg112 O125 2.010 . S
O113 Mg112 2.028 . S
O113 C116 1.250 . S
O114 Mg115 2.028 . S
O114 C116 1.248 . S
Mg115 O114 2.028 . S
Mg115 O120 2.032 . S
Mg115 O122 2.079 . S
C116 O113 1.250 . S
C116 O114 1.248 . S
C117 O118 1.264 . S
C117 O125 1.249 . S
O118 C117 1.264 . S
O119 Mg112 1.986 . S
O119 C123 1.246 . S
O120 Mg115 2.032 . S
O120 C123 1.259 . S
O121 Mg112 2.114 . S
O121 C124 1.252 . S
O122 Mg112 2.251 . S
O122 Mg115 2.079 . S
O122 C124 1.273 . S
C123 O119 1.246 . S
C123 O120 1.259 . S
C124 O121 1.252 . S
C124 O122 1.273 . S
O125 Mg112 2.010 . S
O125 C117 1.249 . S
Mg126 O127 2.028 . S
Mg126 O133 1.986 . S
Mg126 O135 2.114 . S
Mg126 O136 2.251 . S
Mg126 O139 2.010 . S
O127 Mg126 2.028 . S
O127 C130 1.250 . S
O128 Mg129 2.028 . S
O128 C130 1.248 . S
Mg129 O128 2.028 . S
Mg129 O134 2.032 . S
Mg129 O136 2.079 . S
C130 O127 1.250 . S
C130 O128 1.248 . S
C131 O132 1.264 . S
C131 O139 1.249 . S
O132 C131 1.264 . S
O133 Mg126 1.986 . S
O133 C137 1.246 . S
O134 Mg129 2.032 . S
O134 C137 1.259 . S
O135 Mg126 2.114 . S
O135 C138 1.252 . S
O136 Mg126 2.251 . S
O136 Mg129 2.079 . S
O136 C138 1.273 . S
C137 O133 1.246 . S
C137 O134 1.259 . S
C138 O135 1.252 . S
C138 O136 1.273 . S
O139 Mg126 2.010 . S
O139 C131 1.249 . S
Mg140 O141 2.028 . S
Mg140 O147 1.986 . S
Mg140 O149 2.114 . S
Mg140 O150 2.251 . S
Mg140 O153 2.010 . S
O141 Mg140 2.028 . S
O141 C144 1.250 . S
O142 Mg143 2.028 . S
O142 C144 1.248 . S
Mg143 O142 2.028 . S
Mg143 O148 2.032 . S
Mg143 O150 2.079 . S
C144 O141 1.250 . S
C144 O142 1.248 . S
C145 O146 1.264 . S
C145 O153 1.249 . S
O146 C145 1.264 . S
O147 Mg140 1.986 . S
O147 C151 1.246 . S
O148 Mg143 2.032 . S
O148 C151 1.259 . S
O149 Mg140 2.114 . S
O149 C152 1.252 . S
O150 Mg140 2.251 . S
O150 Mg143 2.079 . S
O150 C152 1.273 . S
C151 O147 1.246 . S
C151 O148 1.259 . S
C152 O149 1.252 . S
C152 O150 1.273 . S
O153 Mg140 2.010 . S
O153 C145 1.249 . S
Mg154 O155 2.028 . S
Mg154 O161 1.986 . S
Mg154 O163 2.114 . S
Mg154 O164 2.251 . S
Mg154 O167 2.010 . S
O155 Mg154 2.028 . S
O155 C158 1.250 . S
O156 Mg157 2.028 . S
O156 C158 1.248 . S
Mg157 O156 2.028 . S
Mg157 O162 2.032 . S
Mg157 O164 2.079 . S
C158 O155 1.250 . S
C158 O156 1.248 . S
C159 O160 1.264 . S
C159 O167 1.249 . S
O160 C159 1.264 . S
O161 Mg154 1.986 . S
O161 C165 1.246 . S
O162 Mg157 2.032 . S
O162 C165 1.259 . S
O163 Mg154 2.114 . S
O163 C166 1.252 . S
O164 Mg154 2.251 . S
O164 Mg157 2.079 . S
O164 C166 1.273 . S
C165 O161 1.246 . S
C165 O162 1.259 . S
C166 O163 1.252 . S
C166 O164 1.273 . S
O167 Mg154 2.010 . S
O167 C159 1.249 . S
Mg168 O169 2.028 . S
Mg168 O175 1.986 . S
Mg168 O177 2.114 . S
Mg168 O178 2.251 . S
Mg168 O181 2.010 . S
O169 Mg168 2.028 . S
O169 C172 1.250 . S
O170 Mg171 2.028 . S
O170 C172 1.248 . S
Mg171 O170 2.028 . S
Mg171 O176 2.032 . S
Mg171 O178 2.079 . S
C172 O169 1.250 . S
C172 O170 1.248 . S
C173 O174 1.264 . S
C173 O181 1.249 . S
O174 C173 1.264 . S
O175 Mg168 1.986 . S
O175 C179 1.246 . S
O176 Mg171 2.032 . S
O176 C179 1.259 . S
O177 Mg168 2.114 . S
O177 C180 1.252 . S
O178 Mg168 2.251 . S
O178 Mg171 2.079 . S
O178 C180 1.273 . S
C179 O175 1.246 . S
C179 O176 1.259 . S
C180 O177 1.252 . S
C180 O178 1.273 . S
O181 Mg168 2.010 . S
O181 C173 1.249 . S
Mg182 O183 2.028 . S
Mg182 O189 1.986 . S
Mg182 O191 2.114 . S
Mg182 O192 2.251 . S
Mg182 O195 2.010 . S
O183 Mg182 2.028 . S
O183 C186 1.250 . S
O184 Mg185 2.028 . S
O184 C186 1.248 . S
Mg185 O184 2.028 . S
Mg185 O190 2.032 . S
Mg185 O192 2.079 . S
C186 O183 1.250 . S
C186 O184 1.248 . S
C187 O188 1.264 . S
C187 O195 1.249 . S
O188 C187 1.264 . S
O189 Mg182 1.986 . S
O189 C193 1.246 . S
O190 Mg185 2.032 . S
O190 C193 1.259 . S
O191 Mg182 2.114 . S
O191 C194 1.252 . S
O192 Mg182 2.251 . S
O192 Mg185 2.079 . S
O192 C194 1.273 . S
C193 O189 1.246 . S
C193 O190 1.259 . S
C194 O191 1.252 . S
C194 O192 1.273 . S
O195 Mg182 2.010 . S
O195 C187 1.249 . S
Mg196 O197 2.028 . S
Mg196 O203 1.986 . S
Mg196 O205 2.114 . S
Mg196 O206 2.251 . S
Mg196 O209 2.010 . S
O197 Mg196 2.028 . S
O197 C200 1.250 . S
O198 Mg199 2.028 . S
O198 C200 1.248 . S
Mg199 O198 2.028 . S
Mg199 O204 2.032 . S
Mg199 O206 2.079 . S
C200 O197 1.250 . S
C200 O198 1.248 . S
C201 O202 1.264 . S
C201 O209 1.249 . S
O202 C201 1.264 . S
O203 Mg196 1.986 . S
O203 C207 1.246 . S
O204 Mg199 2.032 . S
O204 C207 1.259 . S
O205 Mg196 2.114 . S
O205 C208 1.252 . S
O206 Mg196 2.251 . S
O206 Mg199 2.079 . S
O206 C208 1.273 . S
C207 O203 1.246 . S
C207 O204 1.259 . S
C208 O205 1.252 . S
C208 O206 1.273 . S
O209 Mg196 2.010 . S
O209 C201 1.249 . S
Mg210 O211 2.028 . S
Mg210 O217 1.986 . S
Mg210 O219 2.114 . S
Mg210 O220 2.251 . S
Mg210 O223 2.010 . S
O211 Mg210 2.028 . S
O211 C214 1.250 . S
O212 Mg213 2.028 . S
O212 C214 1.248 . S
Mg213 O212 2.028 . S
Mg213 O218 2.032 . S
Mg213 O220 2.079 . S
C214 O211 1.250 . S
C214 O212 1.248 . S
C215 O216 1.264 . S
C215 O223 1.249 . S
O216 C215 1.264 . S
O217 Mg210 1.986 . S
O217 C221 1.246 . S
O218 Mg213 2.032 . S
O218 C221 1.259 . S
O219 Mg210 2.114 . S
O219 C222 1.252 . S
O220 Mg210 2.251 . S
O220 Mg213 2.079 . S
O220 C222 1.273 . S
C221 O217 1.246 . S
C221 O218 1.259 . S
C222 O219 1.252 . S
C222 O220 1.273 . S
O223 Mg210 2.010 . S
O223 C215 1.249 . S
Mg224 O225 2.028 . S
Mg224 O231 1.986 . S
Mg224 O233 2.114 . S
Mg224 O234 2.251 . S
Mg224 O237 2.010 . S
O225 Mg224 2.028 . S
O225 C228 1.250 . S
O226 Mg227 2.028 . S
O226 C228 1.248 . S
Mg227 O226 2.028 . S
Mg227 O232 2.032 . S
Mg227 O234 2.079 . S
C228 O225 1.250 . S
C228 O226 1.248 . S
C229 O230 1.264 . S
C229 O237 1.249 . S
O230 C229 1.264 . S
O231 Mg224 1.986 . S
O231 C235 1.246 . S
O232 Mg227 2.032 . S
O232 C235 1.259 . S
O233 Mg224 2.114 . S
O233 C236 1.252 . S
O234 Mg224 2.251 . S
O234 Mg227 2.079 . S
O234 C236 1.273 . S
C235 O231 1.246 . S
C235 O232 1.259 . S
C236 O233 1.252 . S
C236 O234 1.273 . S
O237 Mg224 2.010 . S
O237 C229 1.249 . S
Mg238 O239 2.028 . S
Mg238 O245 1.986 . S
Mg238 O247 2.114 . S
Mg238 O248 2.251 . S
Mg238 O251 2.010 . S
O239 Mg238 2.028 . S
O239 C242 1.250 . S
O240 Mg241 2.028 . S
O240 C242 1.248 . S
Mg241 O240 2.028 . S
Mg241 O246 2.032 . S
Mg241 O248 2.079 . S
C242 O239 1.250 . S
C242 O240 1.248 . S
C243 O244 1.264 . S
C243 O251 1.249 . S
O244 C243 1.264 . S
O245 Mg238 1.986 . S
O245 C249 1.246 . S
O246 Mg241 2.032 . S
O246 C249 1.259 . S
O247 Mg238 2.114 . S
O247 C250 1.252 . S
O248 Mg238 2.251 . S
O248 Mg241 2.079 . S
O248 C250 1.273 . S
C249 O245 1.246 . S
C249 O246 1.259 . S
C250 O247 1.252 . S
C250 O248 1.273 . S
O251 Mg238 2.010 . S
O251 C243 1.249 . S
Mg252 O253 2.028 . S
Mg252 O259 1.986 . S
Mg252 O261 2.114 . S
Mg252 O262 2.251 . S
Mg252 O265 2.010 . S
O253 Mg252 2.028 . S
O253 C256 1.250 . S
O254 Mg255 2.028 . S
O254 C256 1.248 . S
Mg255 O254 2.028 . S
Mg255 O260 2.032 . S
Mg255 O262 2.079 . S
C256 O253 1.250 . S
C256 O254 1.248 . S
C257 O258 1.264 . S
C257 O265 1.249 . S
O258 C257 1.264 . S
O259 Mg252 1.986 . S
O259 C263 1.246 . S
O260 Mg255 2.032 . S
O260 C263 1.259 . S
O261 Mg252 2.114 . S
O261 C264 1.252 . S
O262 Mg252 2.251 . S
O262 Mg255 2.079 . S
O262 C264 1.273 . S
C263 O259 1.246 . S
C263 O260 1.259 . S
C264 O261 1.252 . S
C264 O262 1.273 . S
O265 Mg252 2.010 . S
O265 C257 1.249 . S
Mg266 O267 2.028 . S
Mg266 O273 1.986 . S
Mg266 O275 2.114 . S
Mg266 O276 2.251 . S
Mg266 O279 2.010 . S
O267 Mg266 2.028 . S
O267 C270 1.250 . S
O268 Mg269 2.028 . S
O268 C270 1.248 . S
Mg269 O268 2.028 . S
Mg269 O274 2.032 . S
Mg269 O276 2.079 . S
C270 O267 1.250 . S
C270 O268 1.248 . S
C271 O272 1.264 . S
C271 O279 1.249 . S
O272 C271 1.264 . S
O273 Mg266 1.986 . S
O273 C277 1.246 . S
O274 Mg269 2.032 . S
O274 C277 1.259 . S
O275 Mg266 2.114 . S
O275 C278 1.252 . S
O276 Mg266 2.251 . S
O276 Mg269 2.079 . S
O276 C278 1.273 . S
C277 O273 1.246 . S
C277 O274 1.259 . S
C278 O275 1.252 . S
C278 O276 1.273 . S
O279 Mg266 2.010 . S
O279 C271 1.249 . S
Mg280 O281 2.028 . S
Mg280 O287 1.986 . S
Mg280 O289 2.114 . S
Mg280 O290 2.251 . S
Mg280 O293 2.010 . S
O281 Mg280 2.028 . S
O281 C284 1.250 . S
O282 Mg283 2.028 . S
O282 C284 1.248 . S
Mg283 O282 2.028 . S
Mg283 O288 2.032 . S
Mg283 O290 2.079 . S
C284 O281 1.250 . S
C284 O282 1.248 . S
C285 O286 1.264 . S
C285 O293 1.249 . S
O286 C285 1.264 . S
O287 Mg280 1.986 . S
O287 C291 1.246 . S
O288 Mg283 2.032 . S
O288 C291 1.259 . S
O289 Mg280 2.114 . S
O289 C292 1.252 . S
O290 Mg280 2.251 . S
O290 Mg283 2.079 . S
O290 C292 1.273 . S
C291 O287 1.246 . S
C291 O288 1.259 . S
C292 O289 1.252 . S
C292 O290 1.273 . S
O293 Mg280 2.010 . S
O293 C285 1.249 . S
Mg294 O295 2.028 . S
Mg294 O301 1.986 . S
Mg294 O303 2.114 . S
Mg294 O304 2.251 . S
Mg294 O307 2.010 . S
O295 Mg294 2.028 . S
O295 C298 1.250 . S
O296 Mg297 2.028 . S
O296 C298 1.248 . S
Mg297 O296 2.028 . S
Mg297 O302 2.032 . S
Mg297 O304 2.079 . S
C298 O295 1.250 . S
C298 O296 1.248 . S
C299 O300 1.264 . S
C299 O307 1.249 . S
O300 C299 1.264 . S
O301 Mg294 1.986 . S
O301 C305 1.246 . S
O302 Mg297 2.032 . S
O302 C305 1.259 . S
O303 Mg294 2.114 . S
O303 C306 1.252 . S
O304 Mg294 2.251 . S
O304 Mg297 2.079 . S
O304 C306 1.273 . S
C305 O301 1.246 . S
C305 O302 1.259 . S
C306 O303 1.252 . S
C306 O304 1.273 . S
O307 Mg294 2.010 . S
O307 C299 1.249 . S
Mg308 O309 2.028 . S
Mg308 O315 1.986 . S
Mg308 O317 2.114 . S
Mg308 O318 2.251 . S
Mg308 O321 2.010 . S
O309 Mg308 2.028 . S
O309 C312 1.250 . S
O310 Mg311 2.028 . S
O310 C312 1.248 . S
Mg311 O310 2.028 . S
Mg311 O316 2.032 . S
Mg311 O318 2.079 . S
C312 O309 1.250 . S
C312 O310 1.248 . S
C313 O314 1.264 . S
C313 O321 1.249 . S
O314 C313 1.264 . S
O315 Mg308 1.986 . S
O315 C319 1.246 . S
O316 Mg311 2.032 . S
O316 C319 1.259 . S
O317 Mg308 2.114 . S
O317 C320 1.252 . S
O318 Mg308 2.251 . S
O318 Mg311 2.079 . S
O318 C320 1.273 . S
C319 O315 1.246 . S
C319 O316 1.259 . S
C320 O317 1.252 . S
C320 O318 1.273 . S
O321 Mg308 2.010 . S
O321 C313 1.249 . S
Mg322 O323 2.028 . S
Mg322 O329 1.986 . S
Mg322 O331 2.114 . S
Mg322 O332 2.251 . S
Mg322 O335 2.010 . S
O323 Mg322 2.028 . S
O323 C326 1.250 . S
O324 Mg325 2.028 . S
O324 C326 1.248 . S
Mg325 O324 2.028 . S
Mg325 O330 2.032 . S
Mg325 O332 2.079 . S
C326 O323 1.250 . S
C326 O324 1.248 . S
C327 O328 1.264 . S
C327 O335 1.249 . S
O328 C327 1.264 . S
O329 Mg322 1.986 . S
O329 C333 1.246 . S
O330 Mg325 2.032 . S
O330 C333 1.259 . S
O331 Mg322 2.114 . S
O331 C334 1.252 . S
O332 Mg322 2.251 . S
O332 Mg325 2.079 . S
O332 C334 1.273 . S
C333 O329 1.246 . S
C333 O330 1.259 . S
C334 O331 1.252 . S
C334 O332 1.273 . S
O335 Mg322 2.010 . S
O335 C327 1.249 . S
Mg336 O337 2.028 . S
Mg336 O343 1.986 . S
Mg336 O345 2.114 . S
Mg336 O346 2.251 . S
Mg336 O349 2.010 . S
O337 Mg336 2.028 . S
O337 C340 1.250 . S
O338 Mg339 2.028 . S
O338 C340 1.248 . S
Mg339 O338 2.028 . S
Mg339 O344 2.032 . S
Mg339 O346 2.079 . S
C340 O337 1.250 . S
C340 O338 1.248 . S
C341 O342 1.264 . S
C341 O349 1.249 . S
O342 C341 1.264 . S
O343 Mg336 1.986 . S
O343 C347 1.246 . S
O344 Mg339 2.032 . S
O344 C347 1.259 . S
O345 Mg336 2.114 . S
O345 C348 1.252 . S
O346 Mg336 2.251 . S
O346 Mg339 2.079 . S
O346 C348 1.273 . S
C347 O343 1.246 . S
C347 O344 1.259 . S
C348 O345 1.252 . S
C348 O346 1.273 . S
O349 Mg336 2.010 . S
O349 C341 1.249 . S
Mg350 O351 2.028 . S
Mg350 O357 1.986 . S
Mg350 O359 2.114 . S
Mg350 O360 2.251 . S
Mg350 O363 2.010 . S
O351 Mg350 2.028 . S
O351 C354 1.250 . S
O352 Mg353 2.028 . S
O352 C354 1.248 . S
Mg353 O352 2.028 . S
Mg353 O358 2.032 . S
Mg353 O360 2.079 . S
C354 O351 1.250 . S
C354 O352 1.248 . S
C355 O356 1.264 . S
C355 O363 1.249 . S
O356 C355 1.264 . S
O357 Mg350 1.986 . S
O357 C361 1.246 . S
O358 Mg353 2.032 . S
O358 C361 1.259 . S
O359 Mg350 2.114 . S
O359 C362 1.252 . S
O360 Mg350 2.251 . S
O360 Mg353 2.079 . S
O360 C362 1.273 . S
C361 O357 1.246 . S
C361 O358 1.259 . S
C362 O359 1.252 . S
C362 O360 1.273 . S
O363 Mg350 2.010 . S
O363 C355 1.249 . S
Mg364 O365 2.028 . S
Mg364 O371 1.986 . S
Mg364 O373 2.114 . S
Mg364 O374 2.251 . S
Mg364 O377 2.010 . S
O365 Mg364 2.028 . S
O365 C368 1.250 . S
O366 Mg367 2.028 . S
O366 C368 1.248 . S
Mg367 O366 2.028 . S
Mg367 O372 2.032 . S
Mg367 O374 2.079 . S
C368 O365 1.250 . S
C368 O366 1.248 . S
C369 O370 1.264 . S
C369 O377 1.249 . S
O370 C369 1.264 . S
O371 Mg364 1.986 . S
O371 C375 1.246 . S
O372 Mg367 2.032 . S
O372 C375 1.259 . S
O373 Mg364 2.114 . S
O373 C376 1.252 . S
O374 Mg364 2.251 . S
O374 Mg367 2.079 . S
O374 C376 1.273 . S
C375 O371 1.246 . S
C375 O372 1.259 . S
C376 O373 1.252 . S
C376 O374 1.273 . S
O377 Mg364 2.010 . S
O377 C369 1.249 . S
Mg378 O379 2.028 . S
Mg378 O385 1.986 . S
Mg378 O387 2.114 . S
Mg378 O388 2.251 . S
Mg378 O391 2.010 . S
O379 Mg378 2.028 . S
O379 C382 1.250 . S
O380 Mg381 2.028 . S
O380 C382 1.248 . S
Mg381 O380 2.028 . S
Mg381 O386 2.032 . S
Mg381 O388 2.079 . S
C382 O379 1.250 . S
C382 O380 1.248 . S
C383 O384 1.264 . S
C383 O391 1.249 . S
O384 C383 1.264 . S
O385 Mg378 1.986 . S
O385 C389 1.246 . S
O386 Mg381 2.032 . S
O386 C389 1.259 . S
O387 Mg378 2.114 . S
O387 C390 1.252 . S
O388 Mg378 2.251 . S
O388 Mg381 2.079 . S
O388 C390 1.273 . S
C389 O385 1.246 . S
C389 O386 1.259 . S
C390 O387 1.252 . S
C390 O388 1.273 . S
O391 Mg378 2.010 . S
O391 C383 1.249 . S
Mg392 O393 2.028 . S
Mg392 O399 1.986 . S
Mg392 O401 2.114 . S
Mg392 O402 2.251 . S
Mg392 O405 2.010 . S
O393 Mg392 2.028 . S
O393 C396 1.250 . S
O394 Mg395 2.028 . S
O394 C396 1.248 . S
Mg395 O394 2.028 . S
Mg395 O400 2.032 . S
Mg395 O402 2.079 . S
C396 O393 1.250 . S
C396 O394 1.248 . S
C397 O398 1.264 . S
C397 O405 1.249 . S
O398 C397 1.264 . S
O399 Mg392 1.986 . S
O399 C403 1.246 . S
O400 Mg395 2.032 . S
O400 C403 1.259 . S
O401 Mg392 2.114 . S
O401 C404 1.252 . S
O402 Mg392 2.251 . S
O402 Mg395 2.079 . S
O402 C404 1.273 . S
C403 O399 1.246 . S
C403 O400 1.259 . S
C404 O401 1.252 . S
C404 O402 1.273 . S
O405 Mg392 2.010 . S
O405 C397 1.249 . S
Mg406 O407 2.028 . S
Mg406 O413 1.986 . S
Mg406 O415 2.114 . S
Mg406 O416 2.251 . S
Mg406 O419 2.010 . S
O407 Mg406 2.028 . S
O407 C410 1.250 . S
O408 Mg409 2.028 . S
O408 C410 1.248 . S
Mg409 O408 2.028 . S
Mg409 O414 2.032 . S
Mg409 O416 2.079 . S
C410 O407 1.250 . S
C410 O408 1.248 . S
C411 O412 1.264 . S
C411 O419 1.249 . S
O412 C411 1.264 . S
O413 Mg406 1.986 . S
O413 C417 1.246 . S
O414 Mg409 2.032 . S
O414 C417 1.259 . S
O415 Mg406 2.114 . S
O415 C418 1.252 . S
O416 Mg406 2.251 . S
O416 Mg409 2.079 . S
O416 C418 1.273 . S
C417 O413 1.246 . S
C417 O414 1.259 . S
C418 O415 1.252 . S
C418 O416 1.273 . S
O419 Mg406 2.010 . S
O419 C411 1.249 . S
Mg420 O421 2.028 . S
Mg420 O427 1.986 . S
Mg420 O429 2.114 . S
Mg420 O430 2.251 . S
Mg420 O433 2.010 . S
O421 Mg420 2.028 . S
O421 C424 1.250 . S
O422 Mg423 2.028 . S
O422 C424 1.248 . S
Mg423 O422 2.028 . S
Mg423 O428 2.032 . S
Mg423 O430 2.079 . S
C424 O421 1.250 . S
C424 O422 1.248 . S
C425 O426 1.264 . S
C425 O433 1.249 . S
O426 C425 1.264 . S
O427 Mg420 1.986 . S
O427 C431 1.246 . S
O428 Mg423 2.032 . S
O428 C431 1.259 . S
O429 Mg420 2.114 . S
O429 C432 1.252 . S
O430 Mg420 2.251 . S
O430 Mg423 2.079 . S
O430 C432 1.273 . S
C431 O427 1.246 . S
C431 O428 1.259 . S
C432 O429 1.252 . S
C432 O430 1.273 . S
O433 Mg420 2.010 . S
O433 C425 1.249 . S
Mg434 O435 2.028 . S
Mg434 O441 1.986 . S
Mg434 O443 2.114 . S
Mg434 O444 2.251 . S
Mg434 O447 2.010 . S
O435 Mg434 2.028 . S
O435 C438 1.250 . S
O436 Mg437 2.028 . S
O436 C438 1.248 . S
Mg437 O436 2.028 . S
Mg437 O442 2.032 . S
Mg437 O444 2.079 . S
C438 O435 1.250 . S
C438 O436 1.248 . S
C439 O440 1.264 . S
C439 O447 1.249 . S
O440 C439 1.264 . S
O441 Mg434 1.986 . S
O441 C445 1.246 . S
O442 Mg437 2.032 . S
O442 C445 1.259 . S
O443 Mg434 2.114 . S
O443 C446 1.252 . S
O444 Mg434 2.251 . S
O444 Mg437 2.079 . S
O444 C446 1.273 . S
C445 O441 1.246 . S
C445 O442 1.259 . S
C446 O443 1.252 . S
C446 O444 1.273 . S
O447 Mg434 2.010 . S
O447 C439 1.249 . S
Mg448 O449 2.028 . S
Mg448 O455 1.986 . S
Mg448 O457 2.114 . S
Mg448 O458 2.251 . S
Mg448 O461 2.010 . S
O449 Mg448 2.028 . S
O449 C452 1.250 . S
O450 Mg451 2.028 . S
O450 C452 1.248 . S
Mg451 O450 2.028 . S
Mg451 O456 2.032 . S
Mg451 O458 2.079 . S
C452 O449 1.250 . S
C452 O450 1.248 . S
C453 O454 1.264 . S
C453 O461 1.249 . S
O454 C453 1.264 . S
O455 Mg448 1.986 . S
O455 C459 1.246 . S
O456 Mg451 2.032 . S
O456 C459 1.259 . S
O457 Mg448 2.114 . S
O457 C460 1.252 . S
O458 Mg448 2.251 . S
O458 Mg451 2.079 . S
O458 C460 1.273 . S
C459 O455 1.246 . S
C459 O456 1.259 . S
C460 O457 1.252 . S
C460 O458 1.273 . S
O461 Mg448 2.010 . S
O461 C453 1.249 . S
Mg462 O463 2.028 . S
Mg462 O469 1.986 . S
Mg462 O471 2.114 . S
Mg462 O472 2.251 . S
Mg462 O475 2.010 . S
O463 Mg462 2.028 . S
O463 C466 1.250 . S
O464 Mg465 2.028 . S
O464 C466 1.248 . S
Mg465 O464 2.028 . S
Mg465 O470 2.032 . S
Mg465 O472 2.079 . S
C466 O463 1.250 . S
C466 O464 1.248 . S
C467 O468 1.264 . S
C467 O475 1.249 . S
O468 C467 1.264 . S
O469 Mg462 1.986 . S
O469 C473 1.246 . S
O470 Mg465 2.032 . S
O470 C473 1.259 . S
O471 Mg462 2.114 . S
O471 C474 1.252 . S
O472 Mg462 2.251 . S
O472 Mg465 2.079 . S
O472 C474 1.273 . S
C473 O469 1.246 . S
C473 O470 1.259 . S
C474 O471 1.252 . S
C474 O472 1.273 . S
O475 Mg462 2.010 . S
O475 C467 1.249 . S
Mg476 O477 2.028 . S
Mg476 O483 1.986 . S
Mg476 O485 2.114 . S
Mg476 O486 2.251 . S
Mg476 O489 2.010 . S
O477 Mg476 2.028 . S
O477 C480 1.250 . S
O478 Mg479 2.028 . S
O478 C480 1.248 . S
Mg479 O478 2.028 . S
Mg479 O484 2.032 . S
Mg479 O486 2.079 . S
C480 O477 1.250 . S
C480 O478 1.248 . S
C481 O482 1.264 . S
C481 O489 1.249 . S
O482 C481 1.264 . S
O483 Mg476 1.986 . S
O483 C487 1.246 . S
O484 Mg479 2.032 . S
O484 C487 1.259 . S
O485 Mg476 2.114 . S
O485 C488 1.252 . S
O486 Mg476 2.251 . S
O486 Mg479 2.079 . S
O486 C488 1.273 . S
C487 O483 1.246 . S
C487 O484 1.259 . S
C488 O485 1.252 . S
C488 O486 1.273 . S
O489 Mg476 2.010 . S
O489 C481 1.249 . S
Mg490 O491 2.028 . S
Mg490 O497 1.986 . S
Mg490 O499 2.114 . S
Mg490 O500 2.251 . S
Mg490 O503 2.010 . S
O491 Mg490 2.028 . S
O491 C494 1.250 . S
O492 Mg493 2.028 . S
O492 C494 1.248 . S
Mg493 O492 2.028 . S
Mg493 O498 2.032 . S
Mg493 O500 2.079 . S
C494 O491 1.250 . S
C494 O492 1.248 . S
C495 O496 1.264 . S
C495 O503 1.249 . S
O496 C495 1.264 . S
O497 Mg490 1.986 . S
O497 C501 1.246 . S
O498 Mg493 2.032 . S
O498 C501 1.259 . S
O499 Mg490 2.114 . S
O499 C502 1.252 . S
O500 Mg490 2.251 . S
O500 Mg493 2.079 . S
O500 C502 1.273 . S
C501 O497 1.246 . S
C501 O498 1.259 . S
C502 O499 1.252 . S
C502 O500 1.273 . S
O503 Mg490 2.010 . S
O503 C495 1.249 . S
C504 C505 1.349 . S
C504 C506 1.327 . S
C504 H529 0.950 . S
C505 C504 1.349 . S
C505 C521 1.349 . S
C506 C504 1.327 . S
C506 C525 1.429 . S
C506 H530 0.950 . S
C507 C524 1.574 . S
C507 C526 1.368 . S
C507 H531 0.949 . S
H508 C512 0.949 . S
C509 C510 1.349 . S
C509 C511 1.327 . S
C509 H532 0.950 . S
C510 C509 1.349 . S
C510 C522 1.349 . S
C511 C509 1.327 . S
C511 C527 1.429 . S
C511 H533 0.950 . S
C512 H508 0.949 . S
C512 C520 1.574 . S
C512 C528 1.368 . S
H513 C521 0.950 . S
H514 C519 0.950 . S
H515 C520 0.949 . S
H516 C522 0.950 . S
H517 C523 0.950 . S
H518 C524 0.949 . S
C519 H514 0.950 . S
C519 C521 1.327 . S
C519 C525 1.429 . S
C520 C512 1.574 . S
C520 H515 0.949 . S
C520 C526 1.368 . S
C521 C505 1.349 . S
C521 H513 0.950 . S
C521 C519 1.327 . S
C522 C510 1.349 . S
C522 H516 0.950 . S
C522 C523 1.327 . S
C523 H517 0.950 . S
C523 C522 1.327 . S
C523 C527 1.429 . S
C524 C507 1.574 . S
C524 H518 0.949 . S
C524 C528 1.368 . S
C525 C506 1.429 . S
C525 C519 1.429 . S
C525 C526 1.523 . S
C526 C507 1.368 . S
C526 C520 1.368 . S
C526 C525 1.523 . S
C527 C511 1.429 . S
C527 C523 1.429 . S
C527 C528 1.523 . S
C528 C512 1.368 . S
C528 C524 1.368 . S
C528 C527 1.523 . S
H529 C504 0.950 . S
H530 C506 0.950 . S
H531 C507 0.949 . S
H532 C509 0.950 . S
H533 C511 0.950 . S
C534 C535 1.349 . S
C534 C536 1.327 . S
C534 H559 0.950 . S
C535 C534 1.349 . S
C535 C551 1.349 . S
C536 C534 1.327 . S
C536 C555 1.429 . S
C536 H560 0.950 . S
C537 C554 1.574 . S
C537 C556 1.368 . S
C537 H561 0.949 . S
H538 C542 0.949 . S
C539 C540 1.349 . S
C539 C541 1.327 . S
C539 H562 0.950 . S
C540 C539 1.349 . S
C540 C552 1.349 . S
C541 C539 1.327 . S
C541 C557 1.429 . S
C541 H563 0.950 . S
C542 H538 0.949 . S
C542 C550 1.574 . S
C542 C558 1.368 . S
H543 C551 0.950 . S
H544 C549 0.950 . S
H545 C550 0.949 . S
H546 C552 0.950 . S
H547 C553 0.950 . S
H548 C554 0.949 . S
C549 H544 0.950 . S
C549 C551 1.327 . S
C549 C555 1.429 . S
C550 C542 1.574 . S
C550 H545 0.949 . S
C550 C556 1.368 . S
C551 C535 1.349 . S
C551 H543 0.950 . S
C551 C549 1.327 . S
C552 C540 1.349 . S
C552 H546 0.950 . S
C552 C553 1.327 . S
C553 H547 0.950 . S
C553 C552 1.327 . S
C553 C557 1.429 . S
C554 C537 1.574 . S
C554 H548 0.949 . S
C554 C558 1.368 . S
C555 C536 1.429 . S
C555 C549 1.429 . S
C555 C556 1.523 . S
C556 C537 1.368 . S
C556 C550 1.368 . S
C556 C555 1.523 . S
C557 C541 1.429 . S
C557 C553 1.429 . S
C557 C558 1.523 . S
C558 C542 1.368 . S
C558 C554 1.368 . S
C558 C557 1.523 . S
H559 C534 0.950 . S
H560 C536 0.950 . S
H561 C537 0.949 . S
H562 C539 0.950 . S
H563 C541 0.950 . S
C564 C565 1.349 . S
C564 C566 1.327 . S
C564 H589 0.950 . S
C565 C564 1.349 . S
C565 C581 1.349 . S
C566 C564 1.327 . S
C566 C585 1.429 . S
C566 H590 0.950 . S
C567 C584 1.574 . S
C567 C586 1.368 . S
C567 H591 0.949 . S
H568 C572 0.949 . S
C569 C570 1.349 . S
C569 C571 1.327 . S
C569 H592 0.950 . S
C570 C569 1.349 . S
C570 C582 1.349 . S
C571 C569 1.327 . S
C571 C587 1.429 . S
C571 H593 0.950 . S
C572 H568 0.949 . S
C572 C580 1.574 . S
C572 C588 1.368 . S
H573 C581 0.950 . S
H574 C579 0.950 . S
H575 C580 0.949 . S
H576 C582 0.950 . S
H577 C583 0.950 . S
H578 C584 0.949 . S
C579 H574 0.950 . S
C579 C581 1.327 . S
C579 C585 1.429 . S
C580 C572 1.574 . S
C580 H575 0.949 . S
C580 C586 1.368 . S
C581 C565 1.349 . S
C581 H573 0.950 . S
C581 C579 1.327 . S
C582 C570 1.349 . S
C582 H576 0.950 . S
C582 C583 1.327 . S
C583 H577 0.950 . S
C583 C582 1.327 . S
C583 C587 1.429 . S
C584 C567 1.574 . S
C584 H578 0.949 . S
C584 C588 1.368 . S
C585 C566 1.429 . S
C585 C579 1.429 . S
C585 C586 1.523 . S
C586 C567 1.368 . S
C586 C580 1.368 . S
C586 C585 1.523 . S
C587 C571 1.429 . S
C587 C583 1.429 . S
C587 C588 1.523 . S
C588 C572 1.368 . S
C588 C584 1.368 . S
C588 C587 1.523 . S
H589 C564 0.950 . S
H590 C566 0.950 . S
H591 C567 0.949 . S
H592 C569 0.950 . S
H593 C571 0.950 . S
C594 C595 1.349 . S
C594 C596 1.327 . S
C594 H619 0.950 . S
C595 C594 1.349 . S
C595 C611 1.349 . S
C596 C594 1.327 . S
C596 C615 1.429 . S
C596 H620 0.950 . S
C597 C614 1.574 . S
C597 C616 1.368 . S
C597 H621 0.949 . S
H598 C602 0.949 . S
C599 C600 1.349 . S
C599 C601 1.327 . S
C599 H622 0.950 . S
C600 C599 1.349 . S
C600 C612 1.349 . S
C601 C599 1.327 . S
C601 C617 1.429 . S
C601 H623 0.950 . S
C602 H598 0.949 . S
C602 C610 1.574 . S
C602 C618 1.368 . S
H603 C611 0.950 . S
H604 C609 0.950 . S
H605 C610 0.949 . S
H606 C612 0.950 . S
H607 C613 0.950 . S
H608 C614 0.949 . S
C609 H604 0.950 . S
C609 C611 1.327 . S
C609 C615 1.429 . S
C610 C602 1.574 . S
C610 H605 0.949 . S
C610 C616 1.368 . S
C611 C595 1.349 . S
C611 H603 0.950 . S
C611 C609 1.327 . S
C612 C600 1.349 . S
C612 H606 0.950 . S
C612 C613 1.327 . S
C613 H607 0.950 . S
C613 C612 1.327 . S
C613 C617 1.429 . S
C614 C597 1.574 . S
C614 H608 0.949 . S
C614 C618 1.368 . S
C615 C596 1.429 . S
C615 C609 1.429 . S
C615 C616 1.523 . S
C616 C597 1.368 . S
C616 C610 1.368 . S
C616 C615 1.523 . S
C617 C601 1.429 . S
C617 C613 1.429 . S
C617 C618 1.523 . S
C618 C602 1.368 . S
C618 C614 1.368 . S
C618 C617 1.523 . S
H619 C594 0.950 . S
H620 C596 0.950 . S
H621 C597 0.949 . S
H622 C599 0.950 . S
H623 C601 0.950 . S
C624 C625 1.349 . S
C624 C626 1.327 . S
C624 H649 0.950 . S
C625 C624 1.349 . S
C625 C641 1.349 . S
C626 C624 1.327 . S
C626 C645 1.429 . S
C626 H650 0.950 . S
C627 C644 1.574 . S
C627 C646 1.368 . S
C627 H651 0.949 . S
H628 C632 0.949 . S
C629 C630 1.349 . S
C629 C631 1.327 . S
C629 H652 0.950 . S
C630 C629 1.349 . S
C630 C642 1.349 . S
C631 C629 1.327 . S
C631 C647 1.429 . S
C631 H653 0.950 . S
C632 H628 0.949 . S
C632 C640 1.574 . S
C632 C648 1.368 . S
H633 C641 0.950 . S
H634 C639 0.950 . S
H635 C640 0.949 . S
H636 C642 0.950 . S
H637 C643 0.950 . S
H638 C644 0.949 . S
C639 H634 0.950 . S
C639 C641 1.327 . S
C639 C645 1.429 . S
C640 C632 1.574 . S
C640 H635 0.949 . S
C640 C646 1.368 . S
C641 C625 1.349 . S
C641 H633 0.950 . S
C641 C639 1.327 . S
C642 C630 1.349 . S
C642 H636 0.950 . S
C642 C643 1.327 . S
C643 H637 0.950 . S
C643 C642 1.327 . S
C643 C647 1.429 . S
C644 C627 1.574 . S
C644 H638 0.949 . S
C644 C648 1.368 . S
C645 C626 1.429 . S
C645 C639 1.429 . S
C645 C646 1.523 . S
C646 C627 1.368 . S
C646 C640 1.368 . S
C646 C645 1.523 . S
C647 C631 1.429 . S
C647 C643 1.429 . S
C647 C648 1.523 . S
C648 C632 1.368 . S
C648 C644 1.368 . S
C648 C647 1.523 . S
H649 C624 0.950 . S
H650 C626 0.950 . S
H651 C627 0.949 . S
H652 C629 0.950 . S
H653 C631 0.950 . S
C654 C655 1.349 . S
C654 C656 1.327 . S
C654 H679 0.950 . S
C655 C654 1.349 . S
C655 C671 1.349 . S
C656 C654 1.327 . S
C656 C675 1.429 . S
C656 H680 0.950 . S
C657 C674 1.574 . S
C657 C676 1.368 . S
C657 H681 0.949 . S
H658 C662 0.949 . S
C659 C660 1.349 . S
C659 C661 1.327 . S
C659 H682 0.950 . S
C660 C659 1.349 . S
C660 C672 1.349 . S
C661 C659 1.327 . S
C661 C677 1.429 . S
C661 H683 0.950 . S
C662 H658 0.949 . S
C662 C670 1.574 . S
C662 C678 1.368 . S
H663 C671 0.950 . S
H664 C669 0.950 . S
H665 C670 0.949 . S
H666 C672 0.950 . S
H667 C673 0.950 . S
H668 C674 0.949 . S
C669 H664 0.950 . S
C669 C671 1.327 . S
C669 C675 1.429 . S
C670 C662 1.574 . S
C670 H665 0.949 . S
C670 C676 1.368 . S
C671 C655 1.349 . S
C671 H663 0.950 . S
C671 C669 1.327 . S
C672 C660 1.349 . S
C672 H666 0.950 . S
C672 C673 1.327 . S
C673 H667 0.950 . S
C673 C672 1.327 . S
C673 C677 1.429 . S
C674 C657 1.574 . S
C674 H668 0.949 . S
C674 C678 1.368 . S
C675 C656 1.429 . S
C675 C669 1.429 . S
C675 C676 1.523 . S
C676 C657 1.368 . S
C676 C670 1.368 . S
C676 C675 1.523 . S
C677 C661 1.429 . S
C677 C673 1.429 . S
C677 C678 1.523 . S
C678 C662 1.368 . S
C678 C674 1.368 . S
C678 C677 1.523 . S
H679 C654 0.950 . S
H680 C656 0.950 . S
H681 C657 0.949 . S
H682 C659 0.950 . S
H683 C661 0.950 . S
C684 C685 1.349 . S
C684 C686 1.327 . S
C684 H709 0.950 . S
C685 C684 1.349 . S
C685 C701 1.349 . S
C686 C684 1.327 . S
C686 C705 1.429 . S
C686 H710 0.950 . S
C687 C704 1.574 . S
C687 C706 1.368 . S
C687 H711 0.949 . S
H688 C692 0.949 . S
C689 C690 1.349 . S
C689 C691 1.327 . S
C689 H712 0.950 . S
C690 C689 1.349 . S
C690 C702 1.349 . S
C691 C689 1.327 . S
C691 C707 1.429 . S
C691 H713 0.950 . S
C692 H688 0.949 . S
C692 C700 1.574 . S
C692 C708 1.368 . S
H693 C701 0.950 . S
H694 C699 0.950 . S
H695 C700 0.949 . S
H696 C702 0.950 . S
H697 C703 0.950 . S
H698 C704 0.949 . S
C699 H694 0.950 . S
C699 C701 1.327 . S
C699 C705 1.429 . S
C700 C692 1.574 . S
C700 H695 0.949 . S
C700 C706 1.368 . S
C701 C685 1.349 . S
C701 H693 0.950 . S
C701 C699 1.327 . S
C702 C690 1.349 . S
C702 H696 0.950 . S
C702 C703 1.327 . S
C703 H697 0.950 . S
C703 C702 1.327 . S
C703 C707 1.429 . S
C704 C687 1.574 . S
C704 H698 0.949 . S
C704 C708 1.368 . S
C705 C686 1.429 . S
C705 C699 1.429 . S
C705 C706 1.523 . S
C706 C687 1.368 . S
C706 C700 1.368 . S
C706 C705 1.523 . S
C707 C691 1.429 . S
C707 C703 1.429 . S
C707 C708 1.523 . S
C708 C692 1.368 . S
C708 C704 1.368 . S
C708 C707 1.523 . S
H709 C684 0.950 . S
H710 C686 0.950 . S
H711 C687 0.949 . S
H712 C689 0.950 . S
H713 C691 0.950 . S
C714 C715 1.349 . S
C714 C716 1.327 . S
C714 H739 0.950 . S
C715 C714 1.349 . S
C715 C731 1.349 . S
C716 C714 1.327 . S
C716 C735 1.429 . S
C716 H740 0.950 . S
C717 C734 1.574 . S
C717 C736 1.368 . S
C717 H741 0.949 . S
H718 C722 0.949 . S
C719 C720 1.349 . S
C719 C721 1.327 . S
C719 H742 0.950 . S
C720 C719 1.349 . S
C720 C732 1.349 . S
C721 C719 1.327 . S
C721 C737 1.429 . S
C721 H743 0.950 . S
C722 H718 0.949 . S
C722 C730 1.574 . S
C722 C738 1.368 . S
H723 C731 0.950 . S
H724 C729 0.950 . S
H725 C730 0.949 . S
H726 C732 0.950 . S
H727 C733 0.950 . S
H728 C734 0.949 . S
C729 H724 0.950 . S
C729 C731 1.327 . S
C729 C735 1.429 . S
C730 C722 1.574 . S
C730 H725 0.949 . S
C730 C736 1.368 . S
C731 C715 1.349 . S
C731 H723 0.950 . S
C731 C729 1.327 . S
C732 C720 1.349 . S
C732 H726 0.950 . S
C732 C733 1.327 . S
C733 H727 0.950 . S
C733 C732 1.327 . S
C733 C737 1.429 . S
C734 C717 1.574 . S
C734 H728 0.949 . S
C734 C738 1.368 . S
C735 C716 1.429 . S
C735 C729 1.429 . S
C735 C736 1.523 . S
C736 C717 1.368 . S
C736 C730 1.368 . S
C736 C735 1.523 . S
C737 C721 1.429 . S
C737 C733 1.429 . S
C737 C738 1.523 . S
C738 C722 1.368 . S
C738 C734 1.368 . S
C738 C737 1.523 . S
H739 C714 0.950 . S
H740 C716 0.950 . S
H741 C717 0.949 . S
H742 C719 0.950 . S
H743 C721 0.950 . S
C744 C745 1.349 . S
C744 C746 1.327 . S
C744 H769 0.950 . S
C745 C744 1.349 . S
C745 C761 1.349 . S
C746 C744 1.327 . S
C746 C765 1.429 . S
C746 H770 0.950 . S
C747 C764 1.574 . S
C747 C766 1.368 . S
C747 H771 0.949 . S
H748 C752 0.949 . S
C749 C750 1.349 . S
C749 C751 1.327 . S
C749 H772 0.950 . S
C750 C749 1.349 . S
C750 C762 1.349 . S
C751 C749 1.327 . S
C751 C767 1.429 . S
C751 H773 0.950 . S
C752 H748 0.949 . S
C752 C760 1.574 . S
C752 C768 1.368 . S
H753 C761 0.950 . S
H754 C759 0.950 . S
H755 C760 0.949 . S
H756 C762 0.950 . S
H757 C763 0.950 . S
H758 C764 0.949 . S
C759 H754 0.950 . S
C759 C761 1.327 . S
C759 C765 1.429 . S
C760 C752 1.574 . S
C760 H755 0.949 . S
C760 C766 1.368 . S
C761 C745 1.349 . S
C761 H753 0.950 . S
C761 C759 1.327 . S
C762 C750 1.349 . S
C762 H756 0.950 . S
C762 C763 1.327 . S
C763 H757 0.950 . S
C763 C762 1.327 . S
C763 C767 1.429 . S
C764 C747 1.574 . S
C764 H758 0.949 . S
C764 C768 1.368 . S
C765 C746 1.429 . S
C765 C759 1.429 . S
C765 C766 1.523 . S
C766 C747 1.368 . S
C766 C760 1.368 . S
C766 C765 1.523 . S
C767 C751 1.429 . S
C767 C763 1.429 . S
C767 C768 1.523 . S
C768 C752 1.368 . S
C768 C764 1.368 . S
C768 C767 1.523 . S
H769 C744 0.950 . S
H770 C746 0.950 . S
H771 C747 0.949 . S
H772 C749 0.950 . S
H773 C751 0.950 . S
C774 C775 1.349 . S
C774 C776 1.327 . S
C774 H799 0.950 . S
C775 C774 1.349 . S
C775 C791 1.349 . S
C776 C774 1.327 . S
C776 C795 1.429 . S
C776 H800 0.950 . S
C777 C794 1.574 . S
C777 C796 1.368 . S
C777 H801 0.949 . S
H778 C782 0.949 . S
C779 C780 1.349 . S
C779 C781 1.327 . S
C779 H802 0.950 . S
C780 C779 1.349 . S
C780 C792 1.349 . S
C781 C779 1.327 . S
C781 C797 1.429 . S
C781 H803 0.950 . S
C782 H778 0.949 . S
C782 C790 1.574 . S
C782 C798 1.368 . S
H783 C791 0.950 . S
H784 C789 0.950 . S
H785 C790 0.949 . S
H786 C792 0.950 . S
H787 C793 0.950 . S
H788 C794 0.949 . S
C789 H784 0.950 . S
C789 C791 1.327 . S
C789 C795 1.429 . S
C790 C782 1.574 . S
C790 H785 0.949 . S
C790 C796 1.368 . S
C791 C775 1.349 . S
C791 H783 0.950 . S
C791 C789 1.327 . S
C792 C780 1.349 . S
C792 H786 0.950 . S
C792 C793 1.327 . S
C793 H787 0.950 . S
C793 C792 1.327 . S
C793 C797 1.429 . S
C794 C777 1.574 . S
C794 H788 0.949 . S
C794 C798 1.368 . S
C795 C776 1.429 . S
C795 C789 1.429 . S
C795 C796 1.523 . S
C796 C777 1.368 . S
C796 C790 1.368 . S
C796 C795 1.523 . S
C797 C781 1.429 . S
C797 C793 1.429 . S
C797 C798 1.523 . S
C798 C782 1.368 . S
C798 C794 1.368 . S
C798 C797 1.523 . S
H799 C774 0.950 . S
H800 C776 0.950 . S
H801 C777 0.949 . S
H802 C779 0.950 . S
H803 C781 0.950 . S
C804 C805 1.349 . S
C804 C806 1.327 . S
C804 H829 0.950 . S
C805 C804 1.349 . S
C805 C821 1.349 . S
C806 C804 1.327 . S
C806 C825 1.429 . S
C806 H830 0.950 . S
C807 C824 1.574 . S
C807 C826 1.368 . S
C807 H831 0.949 . S
H808 C812 0.949 . S
C809 C810 1.349 . S
C809 C811 1.327 . S
C809 H832 0.950 . S
C810 C809 1.349 . S
C810 C822 1.349 . S
C811 C809 1.327 . S
C811 C827 1.429 . S
C811 H833 0.950 . S
C812 H808 0.949 . S
C812 C820 1.574 . S
C812 C828 1.368 . S
H813 C821 0.950 . S
H814 C819 0.950 . S
H815 C820 0.949 . S
H816 C822 0.950 . S
H817 C823 0.950 . S
H818 C824 0.949 . S
C819 H814 0.950 . S
C819 C821 1.327 . S
C819 C825 1.429 . S
C820 C812 1.574 . S
C820 H815 0.949 . S
C820 C826 1.368 . S
C821 C805 1.349 . S
C821 H813 0.950 . S
C821 C819 1.327 . S
C822 C810 1.349 . S
C822 H816 0.950 . S
C822 C823 1.327 . S
C823 H817 0.950 . S
C823 C822 1.327 . S
C823 C827 1.429 . S
C824 C807 1.574 . S
C824 H818 0.949 . S
C824 C828 1.368 . S
C825 C806 1.429 . S
C825 C819 1.429 . S
C825 C826 1.523 . S
C826 C807 1.368 . S
C826 C820 1.368 . S
C826 C825 1.523 . S
C827 C811 1.429 . S
C827 C823 1.429 . S
C827 C828 1.523 . S
C828 C812 1.368 . S
C828 C824 1.368 . S
C828 C827 1.523 . S
H829 C804 0.950 . S
H830 C806 0.950 . S
H831 C807 0.949 . S
H832 C809 0.950 . S
H833 C811 0.950 . S
C834 C835 1.349 . S
C834 C836 1.327 . S
C834 H859 0.950 . S
C835 C834 1.349 . S
C835 C851 1.349 . S
C836 C834 1.327 . S
C836 C855 1.429 . S
C836 H860 0.950 . S
C837 C854 1.574 . S
C837 C856 1.368 . S
C837 H861 0.949 . S
H838 C842 0.949 . S
C839 C840 1.349 . S
C839 C841 1.327 . S
C839 H862 0.950 . S
C840 C839 1.349 . S
C840 C852 1.349 . S
C841 C839 1.327 . S
C841 C857 1.429 . S
C841 H863 0.950 . S
C842 H838 0.949 . S
C842 C850 1.574 . S
C842 C858 1.368 . S
H843 C851 0.950 . S
H844 C849 0.950 . S
H845 C850 0.949 . S
H846 C852 0.950 . S
H847 C853 0.950 . S
H848 C854 0.949 . S
C849 H844 0.950 . S
C849 C851 1.327 . S
C849 C855 1.429 . S
C850 C842 1.574 . S
C850 H845 0.949 . S
C850 C856 1.368 . S
C851 C835 1.349 . S
C851 H843 0.950 . S
C851 C849 1.327 . S
C852 C840 1.349 . S
C852 H846 0.950 . S
C852 C853 1.327 . S
C853 H847 0.950 . S
C853 C852 1.327 . S
C853 C857 1.429 . S
C854 C837 1.574 . S
C854 H848 0.949 . S
C854 C858 1.368 . S
C855 C836 1.429 . S
C855 C849 1.429 . S
C855 C856 1.523 . S
C856 C837 1.368 . S
C856 C850 1.368 . S
C856 C855 1.523 . S
C857 C841 1.429 . S
C857 C853 1.429 . S
C857 C858 1.523 . S
C858 C842 1.368 . S
C858 C854 1.368 . S
C858 C857 1.523 . S
H859 C834 0.950 . S
H860 C836 0.950 . S
H861 C837 0.949 . S
H862 C839 0.950 . S
H863 C841 0.950 . S
C864 C865 1.349 . S
C864 C866 1.327 . S
C864 H889 0.950 . S
C865 C864 1.349 . S
C865 C881 1.349 . S
C866 C864 1.327 . S
C866 C885 1.429 . S
C866 H890 0.950 . S
C867 C884 1.574 . S
C867 C886 1.368 . S
C867 H891 0.949 . S
H868 C872 0.949 . S
C869 C870 1.349 . S
C869 C871 1.327 . S
C869 H892 0.950 . S
C870 C869 1.349 . S
C870 C882 1.349 . S
C871 C869 1.327 . S
C871 C887 1.429 . S
C871 H893 0.950 . S
C872 H868 0.949 . S
C872 C880 1.574 . S
C872 C888 1.368 . S
H873 C881 0.950 . S
H874 C879 0.950 . S
H875 C880 0.949 . S
H876 C882 0.950 . S
H877 C883 0.950 . S
H878 C884 0.949 . S
C879 H874 0.950 . S
C879 C881 1.327 . S
C879 C885 1.429 . S
C880 C872 1.574 . S
C880 H875 0.949 . S
C880 C886 1.368 . S
C881 C865 1.349 . S
C881 H873 0.950 . S
C881 C879 1.327 . S
C882 C870 1.349 . S
C882 H876 0.950 . S
C882 C883 1.327 . S
C883 H877 0.950 . S
C883 C882 1.327 . S
C883 C887 1.429 . S
C884 C867 1.574 . S
C884 H878 0.949 . S
C884 C888 1.368 . S
C885 C866 1.429 . S
C885 C879 1.429 . S
C885 C886 1.523 . S
C886 C867 1.368 . S
C886 C880 1.368 . S
C886 C885 1.523 . S
C887 C871 1.429 . S
C887 C883 1.429 . S
C887 C888 1.523 . S
C888 C872 1.368 . S
C888 C884 1.368 . S
C888 C887 1.523 . S
H889 C864 0.950 . S
H890 C866 0.950 . S
H891 C867 0.949 . S
H892 C869 0.950 . S
H893 C871 0.950 . S
C894 C895 1.349 . S
C894 C896 1.327 . S
C894 H919 0.950 . S
C895 C894 1.349 . S
C895 C911 1.349 . S
C896 C894 1.327 . S
C896 C915 1.429 . S
C896 H920 0.950 . S
C897 C914 1.574 . S
C897 C916 1.368 . S
C897 H921 0.949 . S
H898 C902 0.949 . S
C899 C900 1.349 . S
C899 C901 1.327 . S
C899 H922 0.950 . S
C900 C899 1.349 . S
C900 C912 1.349 . S
C901 C899 1.327 . S
C901 C917 1.429 . S
C901 H923 0.950 . S
C902 H898 0.949 . S
C902 C910 1.574 . S
C902 C918 1.368 . S
H903 C911 0.950 . S
H904 C909 0.950 . S
H905 C910 0.949 . S
H906 C912 0.950 . S
H907 C913 0.950 . S
H908 C914 0.949 . S
C909 H904 0.950 . S
C909 C911 1.327 . S
C909 C915 1.429 . S
C910 C902 1.574 . S
C910 H905 0.949 . S
C910 C916 1.368 . S
C911 C895 1.349 . S
C911 H903 0.950 . S
C911 C909 1.327 . S
C912 C900 1.349 . S
C912 H906 0.950 . S
C912 C913 1.327 . S
C913 H907 0.950 . S
C913 C912 1.327 . S
C913 C917 1.429 . S
C914 C897 1.574 . S
C914 H908 0.949 . S
C914 C918 1.368 . S
C915 C896 1.429 . S
C915 C909 1.429 . S
C915 C916 1.523 . S
C916 C897 1.368 . S
C916 C910 1.368 . S
C916 C915 1.523 . S
C917 C901 1.429 . S
C917 C913 1.429 . S
C917 C918 1.523 . S
C918 C902 1.368 . S
C918 C914 1.368 . S
C918 C917 1.523 . S
H919 C894 0.950 . S
H920 C896 0.950 . S
H921 C897 0.949 . S
H922 C899 0.950 . S
H923 C901 0.950 . S
C924 C925 1.349 . S
C924 C926 1.327 . S
C924 H949 0.950 . S
C925 C924 1.349 . S
C925 C941 1.349 . S
C926 C924 1.327 . S
C926 C945 1.429 . S
C926 H950 0.950 . S
C927 C944 1.574 . S
C927 C946 1.368 . S
C927 H951 0.949 . S
H928 C932 0.949 . S
C929 C930 1.349 . S
C929 C931 1.327 . S
C929 H952 0.950 . S
C930 C929 1.349 . S
C930 C942 1.349 . S
C931 C929 1.327 . S
C931 C947 1.429 . S
C931 H953 0.950 . S
C932 H928 0.949 . S
C932 C940 1.574 . S
C932 C948 1.368 . S
H933 C941 0.950 . S
H934 C939 0.950 . S
H935 C940 0.949 . S
H936 C942 0.950 . S
H937 C943 0.950 . S
H938 C944 0.949 . S
C939 H934 0.950 . S
C939 C941 1.327 . S
C939 C945 1.429 . S
C940 C932 1.574 . S
C940 H935 0.949 . S
C940 C946 1.368 . S
C941 C925 1.349 . S
C941 H933 0.950 . S
C941 C939 1.327 . S
C942 C930 1.349 . S
C942 H936 0.950 . S
C942 C943 1.327 . S
C943 H937 0.950 . S
C943 C942 1.327 . S
C943 C947 1.429 . S
C944 C927 1.574 . S
C944 H938 0.949 . S
C944 C948 1.368 . S
C945 C926 1.429 . S
C945 C939 1.429 . S
C945 C946 1.523 . S
C946 C927 1.368 . S
C946 C940 1.368 . S
C946 C945 1.523 . S
C947 C931 1.429 . S
C947 C943 1.429 . S
C947 C948 1.523 . S
C948 C932 1.368 . S
C948 C944 1.368 . S
C948 C947 1.523 . S
H949 C924 0.950 . S
H950 C926 0.950 . S
H951 C927 0.949 . S
H952 C929 0.950 . S
H953 C931 0.950 . S
C954 C955 1.349 . S
C954 C956 1.327 . S
C954 H979 0.950 . S
C955 C954 1.349 . S
C955 C971 1.349 . S
C956 C954 1.327 . S
C956 C975 1.429 . S
C956 H980 0.950 . S
C957 C974 1.574 . S
C957 C976 1.368 . S
C957 H981 0.949 . S
H958 C962 0.949 . S
C959 C960 1.349 . S
C959 C961 1.327 . S
C959 H982 0.950 . S
C960 C959 1.349 . S
C960 C972 1.349 . S
C961 C959 1.327 . S
C961 C977 1.429 . S
C961 H983 0.950 . S
C962 H958 0.949 . S
C962 C970 1.574 . S
C962 C978 1.368 . S
H963 C971 0.950 . S
H964 C969 0.950 . S
H965 C970 0.949 . S
H966 C972 0.950 . S
H967 C973 0.950 . S
H968 C974 0.949 . S
C969 H964 0.950 . S
C969 C971 1.327 . S
C969 C975 1.429 . S
C970 C962 1.574 . S
C970 H965 0.949 . S
C970 C976 1.368 . S
C971 C955 1.349 . S
C971 H963 0.950 . S
C971 C969 1.327 . S
C972 C960 1.349 . S
C972 H966 0.950 . S
C972 C973 1.327 . S
C973 H967 0.950 . S
C973 C972 1.327 . S
C973 C977 1.429 . S
C974 C957 1.574 . S
C974 H968 0.949 . S
C974 C978 1.368 . S
C975 C956 1.429 . S
C975 C969 1.429 . S
C975 C976 1.523 . S
C976 C957 1.368 . S
C976 C970 1.368 . S
C976 C975 1.523 . S
C977 C961 1.429 . S
C977 C973 1.429 . S
C977 C978 1.523 . S
C978 C962 1.368 . S
C978 C974 1.368 . S
C978 C977 1.523 . S
H979 C954 0.950 . S
H980 C956 0.950 . S
H981 C957 0.949 . S
H982 C959 0.950 . S
H983 C961 0.950 . S
C984 C985 1.349 . S
C984 C986 1.327 . S
C984 H1009 0.950 . S
C985 C984 1.349 . S
C985 C1001 1.349 . S
C986 C984 1.327 . S
C986 C1005 1.429 . S
C986 H1010 0.950 . S
C987 C1004 1.574 . S
C987 C1006 1.368 . S
C987 H1011 0.949 . S
H988 C992 0.949 . S
C989 C990 1.349 . S
C989 C991 1.327 . S
C989 H1012 0.950 . S
C990 C989 1.349 . S
C990 C1002 1.349 . S
C991 C989 1.327 . S
C991 C1007 1.429 . S
C991 H1013 0.950 . S
C992 H988 0.949 . S
C992 C1000 1.574 . S
C992 C1008 1.368 . S
H993 C1001 0.950 . S
H994 C999 0.950 . S
H995 C1000 0.949 . S
H996 C1002 0.950 . S
H997 C1003 0.950 . S
H998 C1004 0.949 . S
C999 H994 0.950 . S
C999 C1001 1.327 . S
C999 C1005 1.429 . S
C1000 C992 1.574 . S
C1000 H995 0.949 . S
C1000 C1006 1.368 . S
C1001 C985 1.349 . S
C1001 H993 0.950 . S
C1001 C999 1.327 . S
C1002 C990 1.349 . S
C1002 H996 0.950 . S
C1002 C1003 1.327 . S
C1003 H997 0.950 . S
C1003 C1002 1.327 . S
C1003 C1007 1.429 . S
C1004 C987 1.574 . S
C1004 H998 0.949 . S
C1004 C1008 1.368 . S
C1005 C986 1.429 . S
C1005 C999 1.429 . S
C1005 C1006 1.523 . S
C1006 C987 1.368 . S
C1006 C1000 1.368 . S
C1006 C1005 1.523 . S
C1007 C991 1.429 . S
C1007 C1003 1.429 . S
C1007 C1008 1.523 . S
C1008 C992 1.368 . S
C1008 C1004 1.368 . S
C1008 C1007 1.523 . S
H1009 C984 0.950 . S
H1010 C986 0.950 . S
H1011 C987 0.949 . S
H1012 C989 0.950 . S
H1013 C991 0.950 . S
C1014 C1015 1.349 . S
C1014 C1016 1.327 . S
C1014 H1039 0.950 . S
C1015 C1014 1.349 . S
C1015 C1031 1.349 . S
C1016 C1014 1.327 . S
C1016 C1035 1.429 . S
C1016 H1040 0.950 . S
C1017 C1034 1.574 . S
C1017 C1036 1.368 . S
C1017 H1041 0.949 . S
H1018 C1022 0.949 . S
C1019 C1020 1.349 . S
C1019 C1021 1.327 . S
C1019 H1042 0.950 . S
C1020 C1019 1.349 . S
C1020 C1032 1.349 . S
C1021 C1019 1.327 . S
C1021 C1037 1.429 . S
C1021 H1043 0.950 . S
C1022 H1018 0.949 . S
C1022 C1030 1.574 . S
C1022 C1038 1.368 . S
H1023 C1031 0.950 . S
H1024 C1029 0.950 . S
H1025 C1030 0.949 . S
H1026 C1032 0.950 . S
H1027 C1033 0.950 . S
H1028 C1034 0.949 . S
C1029 H1024 0.950 . S
C1029 C1031 1.327 . S
C1029 C1035 1.429 . S
C1030 C1022 1.574 . S
C1030 H1025 0.949 . S
C1030 C1036 1.368 . S
C1031 C1015 1.349 . S
C1031 H1023 0.950 . S
C1031 C1029 1.327 . S
C1032 C1020 1.349 . S
C1032 H1026 0.950 . S
C1032 C1033 1.327 . S
C1033 H1027 0.950 . S
C1033 C1032 1.327 . S
C1033 C1037 1.429 . S
C1034 C1017 1.574 . S
C1034 H1028 0.949 . S
C1034 C1038 1.368 . S
C1035 C1016 1.429 . S
C1035 C1029 1.429 . S
C1035 C1036 1.523 . S
C1036 C1017 1.368 . S
C1036 C1030 1.368 . S
C1036 C1035 1.523 . S
C1037 C1021 1.429 . S
C1037 C1033 1.429 . S
C1037 C1038 1.523 . S
C1038 C1022 1.368 . S
C1038 C1034 1.368 . S
C1038 C1037 1.523 . S
H1039 C1014 0.950 . S
H1040 C1016 0.950 . S
H1041 C1017 0.949 . S
H1042 C1019 0.950 . S
H1043 C1021 0.950 . S
C1044 C1045 1.349 . S
C1044 C1046 1.327 . S
C1044 H1069 0.950 . S
C1045 C1044 1.349 . S
C1045 C1061 1.349 . S
C1046 C1044 1.327 . S
C1046 C1065 1.429 . S
C1046 H1070 0.950 . S
C1047 C1064 1.574 1_455 S
C1047 C1066 1.368 1_556 S
C1047 H1071 0.949 . S
H1048 C1052 0.949 . S
C1049 C1050 1.349 . S
C1049 C1051 1.327 . S
C1049 H1072 0.950 . S
C1050 C1049 1.349 . S
C1050 C1062 1.349 . S
C1051 C1049 1.327 . S
C1051 C1067 1.429 . S
C1051 H1073 0.950 . S
C1052 H1048 0.949 . S
C1052 C1060 1.574 1_655 S
C1052 C1068 1.368 1_554 S
H1053 C1061 0.950 1_556 S
H1054 C1059 0.945 1_556 S
H1055 C1060 0.949 . S
H1056 C1062 0.950 1_554 S
H1057 C1063 0.943 1_554 S
H1058 C1064 0.949 . S
C1059 H1054 0.945 1_554 S
C1059 C1061 1.329 . S
C1059 C1065 1.432 . S
C1060 C1052 1.574 1_455 S
C1060 H1055 0.949 . S
C1060 C1066 1.368 . S
C1061 C1045 1.349 . S
C1061 H1053 0.950 1_554 S
C1061 C1059 1.329 . S
C1062 C1050 1.349 . S
C1062 H1056 0.950 1_556 S
C1062 C1063 1.329 . S
C1063 H1057 0.943 1_556 S
C1063 C1062 1.329 . S
C1063 C1067 1.433 . S
C1064 C1047 1.574 1_655 S
C1064 H1058 0.949 . S
C1064 C1068 1.368 . S
C1065 C1046 1.429 . S
C1065 C1059 1.432 . S
C1065 C1066 1.523 . S
C1066 C1047 1.368 1_554 S
C1066 C1060 1.368 . S
C1066 C1065 1.523 . S
C1067 C1051 1.429 . S
C1067 C1063 1.433 . S
C1067 C1068 1.523 . S
C1068 C1052 1.368 1_556 S
C1068 C1064 1.368 . S
C1068 C1067 1.523 . S
H1069 C1044 0.950 . S
H1070 C1046 0.950 . S
H1071 C1047 0.949 . S
H1072 C1049 0.950 . S
H1073 C1051 0.950 . S
C1074 C1075 1.349 . S
C1074 C1076 1.327 . S
C1074 H1099 0.950 . S
C1075 C1074 1.349 . S
C1075 C1091 1.349 . S
C1076 C1074 1.327 . S
C1076 C1095 1.429 . S
C1076 H1100 0.950 . S
C1077 C1094 1.574 . S
C1077 C1096 1.368 1_554 S
C1077 H1101 0.949 . S
H1078 C1082 0.949 . S
C1079 C1080 1.349 . S
C1079 C1081 1.327 . S
C1079 H1102 0.950 . S
C1080 C1079 1.349 . S
C1080 C1092 1.349 . S
C1081 C1079 1.327 . S
C1081 C1097 1.429 . S
C1081 H1103 0.950 . S
C1082 H1078 0.949 . S
C1082 C1090 1.574 . S
C1082 C1098 1.368 1_556 S
H1083 C1091 0.950 1_554 S
H1084 C1089 0.950 . S
H1085 C1090 0.949 . S
H1086 C1092 0.950 1_556 S
H1087 C1093 0.950 . S
H1088 C1094 0.949 . S
C1089 H1084 0.950 . S
C1089 C1091 1.327 1_554 S
C1089 C1095 1.429 1_554 S
C1090 C1082 1.574 . S
C1090 H1085 0.949 . S
C1090 C1096 1.368 . S
C1091 C1075 1.349 . S
C1091 H1083 0.950 1_556 S
C1091 C1089 1.327 1_556 S
C1092 C1080 1.349 . S
C1092 H1086 0.950 1_554 S
C1092 C1093 1.327 1_554 S
C1093 H1087 0.950 . S
C1093 C1092 1.327 1_556 S
C1093 C1097 1.429 1_556 S
C1094 C1077 1.574 . S
C1094 H1088 0.949 . S
C1094 C1098 1.368 . S
C1095 C1076 1.429 . S
C1095 C1089 1.429 1_556 S
C1095 C1096 1.523 . S
C1096 C1077 1.368 1_556 S
C1096 C1090 1.368 . S
C1096 C1095 1.523 . S
C1097 C1081 1.429 . S
C1097 C1093 1.429 1_554 S
C1097 C1098 1.523 . S
C1098 C1082 1.368 1_554 S
C1098 C1094 1.368 . S
C1098 C1097 1.523 . S
H1099 C1074 0.950 . S
H1100 C1076 0.950 . S
H1101 C1077 0.949 . S
H1102 C1079 0.950 . S
H1103 C1081 0.950 . S
C1104 C1105 1.349 . S
C1104 C1106 1.327 1_554 S
C1104 H1129 0.950 1_554 S
C1105 C1104 1.349 . S
C1105 C1121 1.349 . S
C1106 C1104 1.327 1_556 S
C1106 C1125 1.429 1_556 S
C1106 H1130 0.950 . S
C1107 C1124 1.574 1_565 S
C1107 C1126 1.368 . S
C1107 H1131 0.949 . S
H1108 C1112 0.949 . S
C1109 C1110 1.349 . S
C1109 C1111 1.327 1_556 S
C1109 H1132 0.950 1_556 S
C1110 C1109 1.349 . S
C1110 C1122 1.349 . S
C1111 C1109 1.327 1_554 S
C1111 C1127 1.429 1_554 S
C1111 H1133 0.950 . S
C1112 H1108 0.949 . S
C1112 C1120 1.574 1_545 S
C1112 C1128 1.368 . S
H1113 C1121 0.950 . S
H1114 C1119 0.950 . S
H1115 C1120 0.949 . S
H1116 C1122 0.950 . S
H1117 C1123 0.950 . S
H1118 C1124 0.949 . S
C1119 H1114 0.950 . S
C1119 C1121 1.327 . S
C1119 C1125 1.429 . S
C1120 C1112 1.574 1_565 S
C1120 H1115 0.949 . S
C1120 C1126 1.368 1_556 S
C1121 C1105 1.349 . S
C1121 H1113 0.950 . S
C1121 C1119 1.327 . S
C1122 C1110 1.349 . S
C1122 H1116 0.950 . S
C1122 C1123 1.327 . S
C1123 H1117 0.950 . S
C1123 C1122 1.327 . S
C1123 C1127 1.429 . S
C1124 C1107 1.574 1_545 S
C1124 H1118 0.949 . S
C1124 C1128 1.368 1_554 S
C1125 C1106 1.429 1_554 S
C1125 C1119 1.429 . S
C1125 C1126 1.523 . S
C1126 C1107 1.368 . S
C1126 C1120 1.368 1_554 S
C1126 C1125 1.523 . S
C1127 C1111 1.429 1_556 S
C1127 C1123 1.429 . S
C1127 C1128 1.523 . S
C1128 C1112 1.368 . S
C1128 C1124 1.368 1_556 S
C1128 C1127 1.523 . S
H1129 C1104 0.950 1_556 S
H1130 C1106 0.950 . S
H1131 C1107 0.949 . S
H1132 C1109 0.950 1_554 S
H1133 C1111 0.950 . S
C1134 C1135 1.349 . S
C1134 C1136 1.327 . S
C1134 H1159 0.950 . S
C1135 C1134 1.349 . S
C1135 C1151 1.349 . S
C1136 C1134 1.327 . S
C1136 C1155 1.429 . S
C1136 H1160 0.950 . S
C1137 C1154 1.574 1_655 S
C1137 C1156 1.368 1_554 S
C1137 H1161 0.949 . S
H1138 C1142 0.949 . S
C1139 C1140 1.349 . S
C1139 C1141 1.327 . S
C1139 H1162 0.950 . S
C1140 C1139 1.349 . S
C1140 C1152 1.349 . S
C1141 C1139 1.327 . S
C1141 C1157 1.429 . S
C1141 H1163 0.950 . S
C1142 H1138 0.949 . S
C1142 C1150 1.574 1_455 S
C1142 C1158 1.368 1_556 S
H1143 C1151 0.950 . S
H1144 C1149 0.956 . S
H1145 C1150 0.949 . S
H1146 C1152 0.950 . S
H1147 C1153 0.957 . S
H1148 C1154 0.949 . S
C1149 H1144 0.956 . S
C1149 C1151 1.327 . S
C1149 C1155 1.429 . S
C1150 C1142 1.574 1_655 S
C1150 H1145 0.949 . S
C1150 C1156 1.368 . S
C1151 C1135 1.349 . S
C1151 H1143 0.950 . S
C1151 C1149 1.327 . S
C1152 C1140 1.349 . S
C1152 H1146 0.950 . S
C1152 C1153 1.327 . S
C1153 H1147 0.957 . S
C1153 C1152 1.327 . S
C1153 C1157 1.429 . S
C1154 C1137 1.574 1_455 S
C1154 H1148 0.949 . S
C1154 C1158 1.368 . S
C1155 C1136 1.429 . S
C1155 C1149 1.429 . S
C1155 C1156 1.523 . S
C1156 C1137 1.368 1_556 S
C1156 C1150 1.368 . S
C1156 C1155 1.523 . S
C1157 C1141 1.429 . S
C1157 C1153 1.429 . S
C1157 C1158 1.523 . S
C1158 C1142 1.368 1_554 S
C1158 C1154 1.368 . S
C1158 C1157 1.523 . S
H1159 C1134 0.950 . S
H1160 C1136 0.950 . S
H1161 C1137 0.949 . S
H1162 C1139 0.950 . S
H1163 C1141 0.950 . S
C1164 C1165 1.349 . S
C1164 C1166 1.327 . S
C1164 H1189 0.950 . S
C1165 C1164 1.349 . S
C1165 C1181 1.349 . S
C1166 C1164 1.327 . S
C1166 C1185 1.429 . S
C1166 H1190 0.950 . S
C1167 C1184 1.574 . S
C1167 C1186 1.368 1_554 S
C1167 H1191 0.949 . S
H1168 C1172 0.949 . S
C1169 C1170 1.349 . S
C1169 C1171 1.327 . S
C1169 H1192 0.950 . S
C1170 C1169 1.349 . S
C1170 C1182 1.349 . S
C1171 C1169 1.327 . S
C1171 C1187 1.429 . S
C1171 H1193 0.950 . S
C1172 H1168 0.949 . S
C1172 C1180 1.574 . S
C1172 C1188 1.368 1_556 S
H1173 C1181 0.950 1_554 S
H1174 C1179 0.948 1_554 S
H1175 C1180 0.949 . S
H1176 C1182 0.950 1_556 S
H1177 C1183 0.948 1_556 S
H1178 C1184 0.949 . S
C1179 H1174 0.948 1_556 S
C1179 C1181 1.328 . S
C1179 C1185 1.429 . S
C1180 C1172 1.574 . S
C1180 H1175 0.949 . S
C1180 C1186 1.368 . S
C1181 C1165 1.349 . S
C1181 H1173 0.950 1_556 S
C1181 C1179 1.328 . S
C1182 C1170 1.349 . S
C1182 H1176 0.950 1_554 S
C1182 C1183 1.327 . S
C1183 H1177 0.948 1_554 S
C1183 C1182 1.327 . S
C1183 C1187 1.429 . S
C1184 C1167 1.574 . S
C1184 H1178 0.949 . S
C1184 C1188 1.368 . S
C1185 C1166 1.429 . S
C1185 C1179 1.429 . S
C1185 C1186 1.523 . S
C1186 C1167 1.368 1_556 S
C1186 C1180 1.368 . S
C1186 C1185 1.523 . S
C1187 C1171 1.429 . S
C1187 C1183 1.429 . S
C1187 C1188 1.523 . S
C1188 C1172 1.368 1_554 S
C1188 C1184 1.368 . S
C1188 C1187 1.523 . S
H1189 C1164 0.950 . S
H1190 C1166 0.950 . S
H1191 C1167 0.949 . S
H1192 C1169 0.950 . S
H1193 C1171 0.950 . S
C1194 C1195 1.349 . S
C1194 C1196 1.327 . S
C1194 H1219 0.950 . S
C1195 C1194 1.349 . S
C1195 C1211 1.349 . S
C1196 C1194 1.327 . S
C1196 C1215 1.429 . S
C1196 H1220 0.950 . S
C1197 C1214 1.574 1_545 S
C1197 C1216 1.368 1_554 S
C1197 H1221 0.949 . S
H1198 C1202 0.949 . S
C1199 C1200 1.349 . S
C1199 C1201 1.327 . S
C1199 H1222 0.950 . S
C1200 C1199 1.349 . S
C1200 C1212 1.349 . S
C1201 C1199 1.327 . S
C1201 C1217 1.429 . S
C1201 H1223 0.950 . S
C1202 H1198 0.949 . S
C1202 C1210 1.574 1_565 S
C1202 C1218 1.368 1_556 S
H1203 C1211 0.950 1_554 S
H1204 C1209 0.950 . S
H1205 C1210 0.949 . S
H1206 C1212 0.950 1_556 S
H1207 C1213 0.950 . S
H1208 C1214 0.949 . S
C1209 H1204 0.950 . S
C1209 C1211 1.327 1_554 S
C1209 C1215 1.429 1_554 S
C1210 C1202 1.574 1_545 S
C1210 H1205 0.949 . S
C1210 C1216 1.368 . S
C1211 C1195 1.349 . S
C1211 H1203 0.950 1_556 S
C1211 C1209 1.327 1_556 S
C1212 C1200 1.349 . S
C1212 H1206 0.950 1_554 S
C1212 C1213 1.327 1_554 S
C1213 H1207 0.950 . S
C1213 C1212 1.327 1_556 S
C1213 C1217 1.429 1_556 S
C1214 C1197 1.574 1_565 S
C1214 H1208 0.949 . S
C1214 C1218 1.368 . S
C1215 C1196 1.429 . S
C1215 C1209 1.429 1_556 S
C1215 C1216 1.523 . S
C1216 C1197 1.368 1_556 S
C1216 C1210 1.368 . S
C1216 C1215 1.523 . S
C1217 C1201 1.429 . S
C1217 C1213 1.429 1_554 S
C1217 C1218 1.523 . S
C1218 C1202 1.368 1_554 S
C1218 C1214 1.368 . S
C1218 C1217 1.523 . S
H1219 C1194 0.950 . S
H1220 C1196 0.950 . S
H1221 C1197 0.949 . S
H1222 C1199 0.950 . S
H1223 C1201 0.950 . S
C1224 C1225 1.349 . S
C1224 C1226 1.327 . S
C1224 H1249 0.950 . S
C1225 C1224 1.349 . S
C1225 C1241 1.349 . S
C1226 C1224 1.327 . S
C1226 C1245 1.429 . S
C1226 H1250 0.950 . S
C1227 C1244 1.574 . S
C1227 C1246 1.368 . S
C1227 H1251 0.949 . S
H1228 C1232 0.949 . S
C1229 C1230 1.349 . S
C1229 C1231 1.327 . S
C1229 H1252 0.950 . S
C1230 C1229 1.349 . S
C1230 C1242 1.349 . S
C1231 C1229 1.327 . S
C1231 C1247 1.429 . S
C1231 H1253 0.950 . S
C1232 H1228 0.949 . S
C1232 C1240 1.574 . S
C1232 C1248 1.368 . S
H1233 C1241 0.950 . S
H1234 C1239 0.950 . S
H1235 C1240 0.949 . S
H1236 C1242 0.950 . S
H1237 C1243 0.950 . S
H1238 C1244 0.949 . S
C1239 H1234 0.950 . S
C1239 C1241 1.327 . S
C1239 C1245 1.429 . S
C1240 C1232 1.574 . S
C1240 H1235 0.949 . S
C1240 C1246 1.368 . S
C1241 C1225 1.349 . S
C1241 H1233 0.950 . S
C1241 C1239 1.327 . S
C1242 C1230 1.349 . S
C1242 H1236 0.950 . S
C1242 C1243 1.327 . S
C1243 H1237 0.950 . S
C1243 C1242 1.327 . S
C1243 C1247 1.429 . S
C1244 C1227 1.574 . S
C1244 H1238 0.949 . S
C1244 C1248 1.368 . S
C1245 C1226 1.429 . S
C1245 C1239 1.429 . S
C1245 C1246 1.523 . S
C1246 C1227 1.368 . S
C1246 C1240 1.368 . S
C1246 C1245 1.523 . S
C1247 C1231 1.429 . S
C1247 C1243 1.429 . S
C1247 C1248 1.523 . S
C1248 C1232 1.368 . S
C1248 C1244 1.368 . S
C1248 C1247 1.523 . S
H1249 C1224 0.950 . S
H1250 C1226 0.950 . S
H1251 C1227 0.949 . S
H1252 C1229 0.950 . S
H1253 C1231 0.950 . S
C1254 C1255 1.349 . S
C1254 C1256 1.327 . S
C1254 H1279 0.950 . S
C1255 C1254 1.349 . S
C1255 C1271 1.349 . S
C1256 C1254 1.327 . S
C1256 C1275 1.429 . S
C1256 H1280 0.950 . S
C1257 C1274 1.574 . S
C1257 C1276 1.368 . S
C1257 H1281 0.949 . S
H1258 C1262 0.949 . S
C1259 C1260 1.349 . S
C1259 C1261 1.327 . S
C1259 H1282 0.950 . S
C1260 C1259 1.349 . S
C1260 C1272 1.349 . S
C1261 C1259 1.327 . S
C1261 C1277 1.429 . S
C1261 H1283 0.950 . S
C1262 H1258 0.949 . S
C1262 C1270 1.574 . S
C1262 C1278 1.368 . S
H1263 C1271 0.950 . S
H1264 C1269 0.950 . S
H1265 C1270 0.949 . S
H1266 C1272 0.950 . S
H1267 C1273 0.950 . S
H1268 C1274 0.949 . S
C1269 H1264 0.950 . S
C1269 C1271 1.327 . S
C1269 C1275 1.429 . S
C1270 C1262 1.574 . S
C1270 H1265 0.949 . S
C1270 C1276 1.368 . S
C1271 C1255 1.349 . S
C1271 H1263 0.950 . S
C1271 C1269 1.327 . S
C1272 C1260 1.349 . S
C1272 H1266 0.950 . S
C1272 C1273 1.327 . S
C1273 H1267 0.950 . S
C1273 C1272 1.327 . S
C1273 C1277 1.429 . S
C1274 C1257 1.574 . S
C1274 H1268 0.949 . S
C1274 C1278 1.368 . S
C1275 C1256 1.429 . S
C1275 C1269 1.429 . S
C1275 C1276 1.523 . S
C1276 C1257 1.368 . S
C1276 C1270 1.368 . S
C1276 C1275 1.523 . S
C1277 C1261 1.429 . S
C1277 C1273 1.429 . S
C1277 C1278 1.523 . S
C1278 C1262 1.368 . S
C1278 C1274 1.368 . S
C1278 C1277 1.523 . S
H1279 C1254 0.950 . S
H1280 C1256 0.950 . S
H1281 C1257 0.949 . S
H1282 C1259 0.950 . S
H1283 C1261 0.950 . S
C1284 C1285 1.349 . S
C1284 C1286 1.327 . S
C1284 H1309 0.950 . S
C1285 C1284 1.349 . S
C1285 C1301 1.349 . S
C1286 C1284 1.327 . S
C1286 C1305 1.429 . S
C1286 H1310 0.950 . S
C1287 C1304 1.574 . S
C1287 C1306 1.368 . S
C1287 H1311 0.949 . S
H1288 C1292 0.949 . S
C1289 C1290 1.349 . S
C1289 C1291 1.327 . S
C1289 H1312 0.950 . S
C1290 C1289 1.349 . S
C1290 C1302 1.349 . S
C1291 C1289 1.327 . S
C1291 C1307 1.429 . S
C1291 H1313 0.950 . S
C1292 H1288 0.949 . S
C1292 C1300 1.574 . S
C1292 C1308 1.368 . S
H1293 C1301 0.950 . S
H1294 C1299 0.950 . S
H1295 C1300 0.949 . S
H1296 C1302 0.950 . S
H1297 C1303 0.950 . S
H1298 C1304 0.949 . S
C1299 H1294 0.950 . S
C1299 C1301 1.327 . S
C1299 C1305 1.429 . S
C1300 C1292 1.574 . S
C1300 H1295 0.949 . S
C1300 C1306 1.368 . S
C1301 C1285 1.349 . S
C1301 H1293 0.950 . S
C1301 C1299 1.327 . S
C1302 C1290 1.349 . S
C1302 H1296 0.950 . S
C1302 C1303 1.327 . S
C1303 H1297 0.950 . S
C1303 C1302 1.327 . S
C1303 C1307 1.429 . S
C1304 C1287 1.574 . S
C1304 H1298 0.949 . S
C1304 C1308 1.368 . S
C1305 C1286 1.429 . S
C1305 C1299 1.429 . S
C1305 C1306 1.523 . S
C1306 C1287 1.368 . S
C1306 C1300 1.368 . S
C1306 C1305 1.523 . S
C1307 C1291 1.429 . S
C1307 C1303 1.429 . S
C1307 C1308 1.523 . S
C1308 C1292 1.368 . S
C1308 C1304 1.368 . S
C1308 C1307 1.523 . S
H1309 C1284 0.950 . S
H1310 C1286 0.950 . S
H1311 C1287 0.949 . S
H1312 C1289 0.950 . S
H1313 C1291 0.950 . S
C1314 C1315 1.349 . S
C1314 C1316 1.327 . S
C1314 H1339 0.950 . S
C1315 C1314 1.349 . S
C1315 C1331 1.349 . S
C1316 C1314 1.327 . S
C1316 C1335 1.429 . S
C1316 H1340 0.950 . S
C1317 C1334 1.574 . S
C1317 C1336 1.368 . S
C1317 H1341 0.949 . S
H1318 C1322 0.949 . S
C1319 C1320 1.349 . S
C1319 C1321 1.327 . S
C1319 H1342 0.950 . S
C1320 C1319 1.349 . S
C1320 C1332 1.349 . S
C1321 C1319 1.327 . S
C1321 C1337 1.429 . S
C1321 H1343 0.950 . S
C1322 H1318 0.949 . S
C1322 C1330 1.574 . S
C1322 C1338 1.368 . S
H1323 C1331 0.950 . S
H1324 C1329 0.950 . S
H1325 C1330 0.949 . S
H1326 C1332 0.950 . S
H1327 C1333 0.950 . S
H1328 C1334 0.949 . S
C1329 H1324 0.950 . S
C1329 C1331 1.327 . S
C1329 C1335 1.429 . S
C1330 C1322 1.574 . S
C1330 H1325 0.949 . S
C1330 C1336 1.368 . S
C1331 C1315 1.349 . S
C1331 H1323 0.950 . S
C1331 C1329 1.327 . S
C1332 C1320 1.349 . S
C1332 H1326 0.950 . S
C1332 C1333 1.327 . S
C1333 H1327 0.950 . S
C1333 C1332 1.327 . S
C1333 C1337 1.429 . S
C1334 C1317 1.574 . S
C1334 H1328 0.949 . S
C1334 C1338 1.368 . S
C1335 C1316 1.429 . S
C1335 C1329 1.429 . S
C1335 C1336 1.523 . S
C1336 C1317 1.368 . S
C1336 C1330 1.368 . S
C1336 C1335 1.523 . S
C1337 C1321 1.429 . S
C1337 C1333 1.429 . S
C1337 C1338 1.523 . S
C1338 C1322 1.368 . S
C1338 C1334 1.368 . S
C1338 C1337 1.523 . S
H1339 C1314 0.950 . S
H1340 C1316 0.950 . S
H1341 C1317 0.949 . S
H1342 C1319 0.950 . S
H1343 C1321 0.950 . S
C1344 C1345 1.349 . S
C1344 C1346 1.327 . S
C1344 H1369 0.950 . S
C1345 C1344 1.349 . S
C1345 C1361 1.349 . S
C1346 C1344 1.327 . S
C1346 C1365 1.429 . S
C1346 H1370 0.950 . S
C1347 C1364 1.574 . S
C1347 C1366 1.368 . S
C1347 H1371 0.949 . S
H1348 C1352 0.949 . S
C1349 C1350 1.349 . S
C1349 C1351 1.327 . S
C1349 H1372 0.950 . S
C1350 C1349 1.349 . S
C1350 C1362 1.349 . S
C1351 C1349 1.327 . S
C1351 C1367 1.429 . S
C1351 H1373 0.950 . S
C1352 H1348 0.949 . S
C1352 C1360 1.574 . S
C1352 C1368 1.368 . S
H1353 C1361 0.950 . S
H1354 C1359 0.950 . S
H1355 C1360 0.949 . S
H1356 C1362 0.950 . S
H1357 C1363 0.950 . S
H1358 C1364 0.949 . S
C1359 H1354 0.950 . S
C1359 C1361 1.327 . S
C1359 C1365 1.429 . S
C1360 C1352 1.574 . S
C1360 H1355 0.949 . S
C1360 C1366 1.368 . S
C1361 C1345 1.349 . S
C1361 H1353 0.950 . S
C1361 C1359 1.327 . S
C1362 C1350 1.349 . S
C1362 H1356 0.950 . S
C1362 C1363 1.327 . S
C1363 H1357 0.950 . S
C1363 C1362 1.327 . S
C1363 C1367 1.429 . S
C1364 C1347 1.574 . S
C1364 H1358 0.949 . S
C1364 C1368 1.368 . S
C1365 C1346 1.429 . S
C1365 C1359 1.429 . S
C1365 C1366 1.523 . S
C1366 C1347 1.368 . S
C1366 C1360 1.368 . S
C1366 C1365 1.523 . S
C1367 C1351 1.429 . S
C1367 C1363 1.429 . S
C1367 C1368 1.523 . S
C1368 C1352 1.368 . S
C1368 C1364 1.368 . S
C1368 C1367 1.523 . S
H1369 C1344 0.950 . S
H1370 C1346 0.950 . S
H1371 C1347 0.949 . S
H1372 C1349 0.950 . S
H1373 C1351 0.950 . S
C1374 C1375 1.349 . S
C1374 C1376 1.327 . S
C1374 H1399 0.950 . S
C1375 C1374 1.349 . S
C1375 C1391 1.349 . S
C1376 C1374 1.327 . S
C1376 C1395 1.429 . S
C1376 H1400 0.950 . S
C1377 C1394 1.574 . S
C1377 C1396 1.368 . S
C1377 H1401 0.949 . S
H1378 C1382 0.949 . S
C1379 C1380 1.349 . S
C1379 C1381 1.327 . S
C1379 H1402 0.950 . S
C1380 C1379 1.349 . S
C1380 C1392 1.349 . S
C1381 C1379 1.327 . S
C1381 C1397 1.429 . S
C1381 H1403 0.950 . S
C1382 H1378 0.949 . S
C1382 C1390 1.574 . S
C1382 C1398 1.368 . S
H1383 C1391 0.950 . S
H1384 C1389 0.950 . S
H1385 C1390 0.949 . S
H1386 C1392 0.950 . S
H1387 C1393 0.950 . S
H1388 C1394 0.949 . S
C1389 H1384 0.950 . S
C1389 C1391 1.327 . S
C1389 C1395 1.429 . S
C1390 C1382 1.574 . S
C1390 H1385 0.949 . S
C1390 C1396 1.368 . S
C1391 C1375 1.349 . S
C1391 H1383 0.950 . S
C1391 C1389 1.327 . S
C1392 C1380 1.349 . S
C1392 H1386 0.950 . S
C1392 C1393 1.327 . S
C1393 H1387 0.950 . S
C1393 C1392 1.327 . S
C1393 C1397 1.429 . S
C1394 C1377 1.574 . S
C1394 H1388 0.949 . S
C1394 C1398 1.368 . S
C1395 C1376 1.429 . S
C1395 C1389 1.429 . S
C1395 C1396 1.523 . S
C1396 C1377 1.368 . S
C1396 C1390 1.368 . S
C1396 C1395 1.523 . S
C1397 C1381 1.429 . S
C1397 C1393 1.429 . S
C1397 C1398 1.523 . S
C1398 C1382 1.368 . S
C1398 C1394 1.368 . S
C1398 C1397 1.523 . S
H1399 C1374 0.950 . S
H1400 C1376 0.950 . S
H1401 C1377 0.949 . S
H1402 C1379 0.950 . S
H1403 C1381 0.950 . S
C1404 C1405 1.349 . S
C1404 C1406 1.327 . S
C1404 H1429 0.950 . S
C1405 C1404 1.349 . S
C1405 C1421 1.349 . S
C1406 C1404 1.327 . S
C1406 C1425 1.429 . S
C1406 H1430 0.950 . S
C1407 C1424 1.574 . S
C1407 C1426 1.368 . S
C1407 H1431 0.949 . S
H1408 C1412 0.949 . S
C1409 C1410 1.349 . S
C1409 C1411 1.327 . S
C1409 H1432 0.950 . S
C1410 C1409 1.349 . S
C1410 C1422 1.349 . S
C1411 C1409 1.327 . S
C1411 C1427 1.429 . S
C1411 H1433 0.950 . S
C1412 H1408 0.949 . S
C1412 C1420 1.574 . S
C1412 C1428 1.368 . S
H1413 C1421 0.950 . S
H1414 C1419 0.950 . S
H1415 C1420 0.949 . S
H1416 C1422 0.950 . S
H1417 C1423 0.950 . S
H1418 C1424 0.949 . S
C1419 H1414 0.950 . S
C1419 C1421 1.327 . S
C1419 C1425 1.429 . S
C1420 C1412 1.574 . S
C1420 H1415 0.949 . S
C1420 C1426 1.368 . S
C1421 C1405 1.349 . S
C1421 H1413 0.950 . S
C1421 C1419 1.327 . S
C1422 C1410 1.349 . S
C1422 H1416 0.950 . S
C1422 C1423 1.327 . S
C1423 H1417 0.950 . S
C1423 C1422 1.327 . S
C1423 C1427 1.429 . S
C1424 C1407 1.574 . S
C1424 H1418 0.949 . S
C1424 C1428 1.368 . S
C1425 C1406 1.429 . S
C1425 C1419 1.429 . S
C1425 C1426 1.523 . S
C1426 C1407 1.368 . S
C1426 C1420 1.368 . S
C1426 C1425 1.523 . S
C1427 C1411 1.429 . S
C1427 C1423 1.429 . S
C1427 C1428 1.523 . S
C1428 C1412 1.368 . S
C1428 C1424 1.368 . S
C1428 C1427 1.523 . S
H1429 C1404 0.950 . S
H1430 C1406 0.950 . S
H1431 C1407 0.949 . S
H1432 C1409 0.950 . S
H1433 C1411 0.950 . S
C1434 C1435 1.349 . S
C1434 C1436 1.327 . S
C1434 H1459 0.950 . S
C1435 C1434 1.349 . S
C1435 C1451 1.349 . S
C1436 C1434 1.327 . S
C1436 C1455 1.429 . S
C1436 H1460 0.950 . S
C1437 C1454 1.574 . S
C1437 C1456 1.368 . S
C1437 H1461 0.949 . S
H1438 C1442 0.949 . S
C1439 C1440 1.349 . S
C1439 C1441 1.327 . S
C1439 H1462 0.950 . S
C1440 C1439 1.349 . S
C1440 C1452 1.349 . S
C1441 C1439 1.327 . S
C1441 C1457 1.429 . S
C1441 H1463 0.950 . S
C1442 H1438 0.949 . S
C1442 C1450 1.574 . S
C1442 C1458 1.368 . S
H1443 C1451 0.950 . S
H1444 C1449 0.950 . S
H1445 C1450 0.949 . S
H1446 C1452 0.950 . S
H1447 C1453 0.950 . S
H1448 C1454 0.949 . S
C1449 H1444 0.950 . S
C1449 C1451 1.327 . S
C1449 C1455 1.429 . S
C1450 C1442 1.574 . S
C1450 H1445 0.949 . S
C1450 C1456 1.368 . S
C1451 C1435 1.349 . S
C1451 H1443 0.950 . S
C1451 C1449 1.327 . S
C1452 C1440 1.349 . S
C1452 H1446 0.950 . S
C1452 C1453 1.327 . S
C1453 H1447 0.950 . S
C1453 C1452 1.327 . S
C1453 C1457 1.429 . S
C1454 C1437 1.574 . S
C1454 H1448 0.949 . S
C1454 C1458 1.368 . S
C1455 C1436 1.429 . S
C1455 C1449 1.429 . S
C1455 C1456 1.523 . S
C1456 C1437 1.368 . S
C1456 C1450 1.368 . S
C1456 C1455 1.523 . S
C1457 C1441 1.429 . S
C1457 C1453 1.429 . S
C1457 C1458 1.523 . S
C1458 C1442 1.368 . S
C1458 C1454 1.368 . S
C1458 C1457 1.523 . S
H1459 C1434 0.950 . S
H1460 C1436 0.950 . S
H1461 C1437 0.949 . S
H1462 C1439 0.950 . S
H1463 C1441 0.950 . S
C1464 C1465 1.349 . S
C1464 C1466 1.327 . S
C1464 H1489 0.950 . S
C1465 C1464 1.349 . S
C1465 C1481 1.349 . S
C1466 C1464 1.327 . S
C1466 C1485 1.429 . S
C1466 H1490 0.950 . S
C1467 C1484 1.574 . S
C1467 C1486 1.368 . S
C1467 H1491 0.949 . S
H1468 C1472 0.949 . S
C1469 C1470 1.349 . S
C1469 C1471 1.327 . S
C1469 H1492 0.950 . S
C1470 C1469 1.349 . S
C1470 C1482 1.349 . S
C1471 C1469 1.327 . S
C1471 C1487 1.429 . S
C1471 H1493 0.950 . S
C1472 H1468 0.949 . S
C1472 C1480 1.574 . S
C1472 C1488 1.368 . S
H1473 C1481 0.950 . S
H1474 C1479 0.950 . S
H1475 C1480 0.949 . S
H1476 C1482 0.950 . S
H1477 C1483 0.950 . S
H1478 C1484 0.949 . S
C1479 H1474 0.950 . S
C1479 C1481 1.327 . S
C1479 C1485 1.429 . S
C1480 C1472 1.574 . S
C1480 H1475 0.949 . S
C1480 C1486 1.368 . S
C1481 C1465 1.349 . S
C1481 H1473 0.950 . S
C1481 C1479 1.327 . S
C1482 C1470 1.349 . S
C1482 H1476 0.950 . S
C1482 C1483 1.327 . S
C1483 H1477 0.950 . S
C1483 C1482 1.327 . S
C1483 C1487 1.429 . S
C1484 C1467 1.574 . S
C1484 H1478 0.949 . S
C1484 C1488 1.368 . S
C1485 C1466 1.429 . S
C1485 C1479 1.429 . S
C1485 C1486 1.523 . S
C1486 C1467 1.368 . S
C1486 C1480 1.368 . S
C1486 C1485 1.523 . S
C1487 C1471 1.429 . S
C1487 C1483 1.429 . S
C1487 C1488 1.523 . S
C1488 C1472 1.368 . S
C1488 C1484 1.368 . S
C1488 C1487 1.523 . S
H1489 C1464 0.950 . S
H1490 C1466 0.950 . S
H1491 C1467 0.949 . S
H1492 C1469 0.950 . S
H1493 C1471 0.950 . S
C1494 C1495 1.349 . S
C1494 C1496 1.327 . S
C1494 H1519 0.950 . S
C1495 C1494 1.349 . S
C1495 C1511 1.349 . S
C1496 C1494 1.327 . S
C1496 C1515 1.429 . S
C1496 H1520 0.950 . S
C1497 C1514 1.574 . S
C1497 C1516 1.368 . S
C1497 H1521 0.949 . S
H1498 C1502 0.949 . S
C1499 C1500 1.349 . S
C1499 C1501 1.327 . S
C1499 H1522 0.950 . S
C1500 C1499 1.349 . S
C1500 C1512 1.349 . S
C1501 C1499 1.327 . S
C1501 C1517 1.429 . S
C1501 H1523 0.950 . S
C1502 H1498 0.949 . S
C1502 C1510 1.574 . S
C1502 C1518 1.368 . S
H1503 C1511 0.950 . S
H1504 C1509 0.950 . S
H1505 C1510 0.949 . S
H1506 C1512 0.950 . S
H1507 C1513 0.950 . S
H1508 C1514 0.949 . S
C1509 H1504 0.950 . S
C1509 C1511 1.327 . S
C1509 C1515 1.429 . S
C1510 C1502 1.574 . S
C1510 H1505 0.949 . S
C1510 C1516 1.368 . S
C1511 C1495 1.349 . S
C1511 H1503 0.950 . S
C1511 C1509 1.327 . S
C1512 C1500 1.349 . S
C1512 H1506 0.950 . S
C1512 C1513 1.327 . S
C1513 H1507 0.950 . S
C1513 C1512 1.327 . S
C1513 C1517 1.429 . S
C1514 C1497 1.574 . S
C1514 H1508 0.949 . S
C1514 C1518 1.368 . S
C1515 C1496 1.429 . S
C1515 C1509 1.429 . S
C1515 C1516 1.523 . S
C1516 C1497 1.368 . S
C1516 C1510 1.368 . S
C1516 C1515 1.523 . S
C1517 C1501 1.429 . S
C1517 C1513 1.429 . S
C1517 C1518 1.523 . S
C1518 C1502 1.368 . S
C1518 C1514 1.368 . S
C1518 C1517 1.523 . S
H1519 C1494 0.950 . S
H1520 C1496 0.950 . S
H1521 C1497 0.949 . S
H1522 C1499 0.950 . S
H1523 C1501 0.950 . S
C1524 C1525 1.349 . S
C1524 C1526 1.327 . S
C1524 H1549 0.950 . S
C1525 C1524 1.349 . S
C1525 C1541 1.349 . S
C1526 C1524 1.327 . S
C1526 C1545 1.429 . S
C1526 H1550 0.950 . S
C1527 C1544 1.574 . S
C1527 C1546 1.368 . S
C1527 H1551 0.949 . S
H1528 C1532 0.949 . S
C1529 C1530 1.349 . S
C1529 C1531 1.327 . S
C1529 H1552 0.950 . S
C1530 C1529 1.349 . S
C1530 C1542 1.349 . S
C1531 C1529 1.327 . S
C1531 C1547 1.429 . S
C1531 H1553 0.950 . S
C1532 H1528 0.949 . S
C1532 C1540 1.574 . S
C1532 C1548 1.368 . S
H1533 C1541 0.950 . S
H1534 C1539 0.950 . S
H1535 C1540 0.949 . S
H1536 C1542 0.950 . S
H1537 C1543 0.950 . S
H1538 C1544 0.949 . S
C1539 H1534 0.950 . S
C1539 C1541 1.327 . S
C1539 C1545 1.429 . S
C1540 C1532 1.574 . S
C1540 H1535 0.949 . S
C1540 C1546 1.368 . S
C1541 C1525 1.349 . S
C1541 H1533 0.950 . S
C1541 C1539 1.327 . S
C1542 C1530 1.349 . S
C1542 H1536 0.950 . S
C1542 C1543 1.327 . S
C1543 H1537 0.950 . S
C1543 C1542 1.327 . S
C1543 C1547 1.429 . S
C1544 C1527 1.574 . S
C1544 H1538 0.949 . S
C1544 C1548 1.368 . S
C1545 C1526 1.429 . S
C1545 C1539 1.429 . S
C1545 C1546 1.523 . S
C1546 C1527 1.368 . S
C1546 C1540 1.368 . S
C1546 C1545 1.523 . S
C1547 C1531 1.429 . S
C1547 C1543 1.429 . S
C1547 C1548 1.523 . S
C1548 C1532 1.368 . S
C1548 C1544 1.368 . S
C1548 C1547 1.523 . S
H1549 C1524 0.950 . S
H1550 C1526 0.950 . S
H1551 C1527 0.949 . S
H1552 C1529 0.950 . S
H1553 C1531 0.950 . S
C1554 C1555 1.349 . S
C1554 C1556 1.327 . S
C1554 H1579 0.950 . S
C1555 C1554 1.349 . S
C1555 C1571 1.349 . S
C1556 C1554 1.327 . S
C1556 C1575 1.429 . S
C1556 H1580 0.950 . S
C1557 C1574 1.574 . S
C1557 C1576 1.368 . S
C1557 H1581 0.949 . S
H1558 C1562 0.949 . S
C1559 C1560 1.349 . S
C1559 C1561 1.327 . S
C1559 H1582 0.950 . S
C1560 C1559 1.349 . S
C1560 C1572 1.349 . S
C1561 C1559 1.327 . S
C1561 C1577 1.429 . S
C1561 H1583 0.950 . S
C1562 H1558 0.949 . S
C1562 C1570 1.574 . S
C1562 C1578 1.368 . S
H1563 C1571 0.950 . S
H1564 C1569 0.950 . S
H1565 C1570 0.949 . S
H1566 C1572 0.950 . S
H1567 C1573 0.950 . S
H1568 C1574 0.949 . S
C1569 H1564 0.950 . S
C1569 C1571 1.327 . S
C1569 C1575 1.429 . S
C1570 C1562 1.574 . S
C1570 H1565 0.949 . S
C1570 C1576 1.368 . S
C1571 C1555 1.349 . S
C1571 H1563 0.950 . S
C1571 C1569 1.327 . S
C1572 C1560 1.349 . S
C1572 H1566 0.950 . S
C1572 C1573 1.327 . S
C1573 H1567 0.950 . S
C1573 C1572 1.327 . S
C1573 C1577 1.429 . S
C1574 C1557 1.574 . S
C1574 H1568 0.949 . S
C1574 C1578 1.368 . S
C1575 C1556 1.429 . S
C1575 C1569 1.429 . S
C1575 C1576 1.523 . S
C1576 C1557 1.368 . S
C1576 C1570 1.368 . S
C1576 C1575 1.523 . S
C1577 C1561 1.429 . S
C1577 C1573 1.429 . S
C1577 C1578 1.523 . S
C1578 C1562 1.368 . S
C1578 C1574 1.368 . S
C1578 C1577 1.523 . S
H1579 C1554 0.950 . S
H1580 C1556 0.950 . S
H1581 C1557 0.949 . S
H1582 C1559 0.950 . S
H1583 C1561 0.950 . S
C1584 C1585 1.349 . S
C1584 C1586 1.327 . S
C1584 H1609 0.950 . S
C1585 C1584 1.349 . S
C1585 C1601 1.349 . S
C1586 C1584 1.327 . S
C1586 C1605 1.429 . S
C1586 H1610 0.950 . S
C1587 C1604 1.574 . S
C1587 C1606 1.368 . S
C1587 H1611 0.949 . S
H1588 C1592 0.949 . S
C1589 C1590 1.349 . S
C1589 C1591 1.327 . S
C1589 H1612 0.950 1_556 S
C1590 C1589 1.349 . S
C1590 C1602 1.349 . S
C1591 C1589 1.327 . S
C1591 C1607 1.429 . S
C1591 H1613 0.950 . S
C1592 H1588 0.949 . S
C1592 C1600 1.574 . S
C1592 C1608 1.368 . S
H1593 C1601 0.950 . S
H1594 C1599 0.950 . S
H1595 C1600 0.949 . S
H1596 C1602 0.950 . S
H1597 C1603 0.950 . S
H1598 C1604 0.949 . S
C1599 H1594 0.950 . S
C1599 C1601 1.327 . S
C1599 C1605 1.429 . S
C1600 C1592 1.574 . S
C1600 H1595 0.949 . S
C1600 C1606 1.368 . S
C1601 C1585 1.349 . S
C1601 H1593 0.950 . S
C1601 C1599 1.327 . S
C1602 C1590 1.349 . S
C1602 H1596 0.950 . S
C1602 C1603 1.327 . S
C1603 H1597 0.950 . S
C1603 C1602 1.327 . S
C1603 C1607 1.429 . S
C1604 C1587 1.574 . S
C1604 H1598 0.949 . S
C1604 C1608 1.368 . S
C1605 C1586 1.429 . S
C1605 C1599 1.429 . S
C1605 C1606 1.523 . S
C1606 C1587 1.368 . S
C1606 C1600 1.368 . S
C1606 C1605 1.523 . S
C1607 C1591 1.429 . S
C1607 C1603 1.429 . S
C1607 C1608 1.523 . S
C1608 C1592 1.368 . S
C1608 C1604 1.368 . S
C1608 C1607 1.523 . S
H1609 C1584 0.950 . S
H1610 C1586 0.950 . S
H1611 C1587 0.949 . S
H1612 C1589 0.950 1_554 S
H1613 C1591 0.950 . S
C1614 C1615 1.349 . S
C1614 C1616 1.327 . S
C1614 H1639 0.950 1_556 S
C1615 C1614 1.349 . S
C1615 C1631 1.349 . S
C1616 C1614 1.327 . S
C1616 C1635 1.429 . S
C1616 H1640 0.950 . S
C1617 C1634 1.574 . S
C1617 C1636 1.368 . S
C1617 H1641 0.949 . S
H1618 C1622 0.949 . S
C1619 C1620 1.349 . S
C1619 C1621 1.327 . S
C1619 H1642 0.950 . S
C1620 C1619 1.349 . S
C1620 C1632 1.349 . S
C1621 C1619 1.327 . S
C1621 C1637 1.429 . S
C1621 H1643 0.950 . S
C1622 H1618 0.949 . S
C1622 C1630 1.574 . S
C1622 C1638 1.368 . S
H1623 C1631 0.950 . S
H1624 C1629 0.950 . S
H1625 C1630 0.949 . S
H1626 C1632 0.950 . S
H1627 C1633 0.950 . S
H1628 C1634 0.949 . S
C1629 H1624 0.950 . S
C1629 C1631 1.327 . S
C1629 C1635 1.429 . S
C1630 C1622 1.574 . S
C1630 H1625 0.949 . S
C1630 C1636 1.368 . S
C1631 C1615 1.349 . S
C1631 H1623 0.950 . S
C1631 C1629 1.327 . S
C1632 C1620 1.349 . S
C1632 H1626 0.950 . S
C1632 C1633 1.327 . S
C1633 H1627 0.950 . S
C1633 C1632 1.327 . S
C1633 C1637 1.429 . S
C1634 C1617 1.574 . S
C1634 H1628 0.949 . S
C1634 C1638 1.368 . S
C1635 C1616 1.429 . S
C1635 C1629 1.429 . S
C1635 C1636 1.523 . S
C1636 C1617 1.368 . S
C1636 C1630 1.368 . S
C1636 C1635 1.523 . S
C1637 C1621 1.429 . S
C1637 C1633 1.429 . S
C1637 C1638 1.523 . S
C1638 C1622 1.368 . S
C1638 C1634 1.368 . S
C1638 C1637 1.523 . S
H1639 C1614 0.950 1_554 S
H1640 C1616 0.950 . S
H1641 C1617 0.949 . S
H1642 C1619 0.950 . S
H1643 C1621 0.950 . S
C1644 C1645 1.349 . S
C1644 C1646 1.327 . S
C1644 H1669 0.950 . S
C1645 C1644 1.349 . S
C1645 C1661 1.349 . S
C1646 C1644 1.327 . S
C1646 C1665 1.429 . S
C1646 H1670 0.950 . S
C1647 C1664 1.574 . S
C1647 C1666 1.368 . S
C1647 H1671 0.949 . S
H1648 C1652 0.949 . S
C1649 C1650 1.349 . S
C1649 C1651 1.327 . S
C1649 H1672 0.950 . S
C1650 C1649 1.349 . S
C1650 C1662 1.349 . S
C1651 C1649 1.327 . S
C1651 C1667 1.429 . S
C1651 H1673 0.950 . S
C1652 H1648 0.949 . S
C1652 C1660 1.574 . S
C1652 C1668 1.368 . S
H1653 C1661 0.950 . S
H1654 C1659 0.950 . S
H1655 C1660 0.949 . S
H1656 C1662 0.950 . S
H1657 C1663 0.950 . S
H1658 C1664 0.949 . S
C1659 H1654 0.950 . S
C1659 C1661 1.327 . S
C1659 C1665 1.429 . S
C1660 C1652 1.574 . S
C1660 H1655 0.949 . S
C1660 C1666 1.368 . S
C1661 C1645 1.349 . S
C1661 H1653 0.950 . S
C1661 C1659 1.327 . S
C1662 C1650 1.349 . S
C1662 H1656 0.950 . S
C1662 C1663 1.327 . S
C1663 H1657 0.950 . S
C1663 C1662 1.327 . S
C1663 C1667 1.429 . S
C1664 C1647 1.574 . S
C1664 H1658 0.949 . S
C1664 C1668 1.368 . S
C1665 C1646 1.429 . S
C1665 C1659 1.429 . S
C1665 C1666 1.523 . S
C1666 C1647 1.368 . S
C1666 C1660 1.368 . S
C1666 C1665 1.523 . S
C1667 C1651 1.429 . S
C1667 C1663 1.429 . S
C1667 C1668 1.523 . S
C1668 C1652 1.368 . S
C1668 C1664 1.368 . S
C1668 C1667 1.523 . S
H1669 C1644 0.950 . S
H1670 C1646 0.950 . S
H1671 C1647 0.949 . S
H1672 C1649 0.950 . S
H1673 C1651 0.950 . S
C1674 C1675 1.349 . S
C1674 C1676 1.327 . S
C1674 H1699 0.950 . S
C1675 C1674 1.349 . S
C1675 C1691 1.349 . S
C1676 C1674 1.327 . S
C1676 C1695 1.429 . S
C1676 H1700 0.950 . S
C1677 C1694 1.574 . S
C1677 C1696 1.368 . S
C1677 H1701 0.949 . S
H1678 C1682 0.949 . S
C1679 C1680 1.349 . S
C1679 C1681 1.327 . S
C1679 H1702 0.950 . S
C1680 C1679 1.349 . S
C1680 C1692 1.349 . S
C1681 C1679 1.327 . S
C1681 C1697 1.429 . S
C1681 H1703 0.950 . S
C1682 H1678 0.949 . S
C1682 C1690 1.574 . S
C1682 C1698 1.368 . S
H1683 C1691 0.950 . S
H1684 C1689 0.950 . S
H1685 C1690 0.949 . S
H1686 C1692 0.950 . S
H1687 C1693 0.950 . S
H1688 C1694 0.949 . S
C1689 H1684 0.950 . S
C1689 C1691 1.327 . S
C1689 C1695 1.429 . S
C1690 C1682 1.574 . S
C1690 H1685 0.949 . S
C1690 C1696 1.368 . S
C1691 C1675 1.349 . S
C1691 H1683 0.950 . S
C1691 C1689 1.327 . S
C1692 C1680 1.349 . S
C1692 H1686 0.950 . S
C1692 C1693 1.327 . S
C1693 H1687 0.950 . S
C1693 C1692 1.327 . S
C1693 C1697 1.429 . S
C1694 C1677 1.574 . S
C1694 H1688 0.949 . S
C1694 C1698 1.368 . S
C1695 C1676 1.429 . S
C1695 C1689 1.429 . S
C1695 C1696 1.523 . S
C1696 C1677 1.368 . S
C1696 C1690 1.368 . S
C1696 C1695 1.523 . S
C1697 C1681 1.429 . S
C1697 C1693 1.429 . S
C1697 C1698 1.523 . S
C1698 C1682 1.368 . S
C1698 C1694 1.368 . S
C1698 C1697 1.523 . S
H1699 C1674 0.950 . S
H1700 C1676 0.950 . S
H1701 C1677 0.949 . S
H1702 C1679 0.950 . S
H1703 C1681 0.950 . S
C1704 C1705 1.349 . S
C1704 C1706 1.327 . S
C1704 H1729 0.950 . S
C1705 C1704 1.349 . S
C1705 C1721 1.349 . S
C1706 C1704 1.327 . S
C1706 C1725 1.429 . S
C1706 H1730 0.950 . S
C1707 C1724 1.574 . S
C1707 C1726 1.368 . S
C1707 H1731 0.949 . S
H1708 C1712 0.949 . S
C1709 C1710 1.349 . S
C1709 C1711 1.327 . S
C1709 H1732 0.950 . S
C1710 C1709 1.349 . S
C1710 C1722 1.349 . S
C1711 C1709 1.327 . S
C1711 C1727 1.429 . S
C1711 H1733 0.950 . S
C1712 H1708 0.949 . S
C1712 C1720 1.574 . S
C1712 C1728 1.368 . S
H1713 C1721 0.950 . S
H1714 C1719 0.950 . S
H1715 C1720 0.949 . S
H1716 C1722 0.950 . S
H1717 C1723 0.950 . S
H1718 C1724 0.949 . S
C1719 H1714 0.950 . S
C1719 C1721 1.327 . S
C1719 C1725 1.429 . S
C1720 C1712 1.574 . S
C1720 H1715 0.949 . S
C1720 C1726 1.368 . S
C1721 C1705 1.349 . S
C1721 H1713 0.950 . S
C1721 C1719 1.327 . S
C1722 C1710 1.349 . S
C1722 H1716 0.950 . S
C1722 C1723 1.327 . S
C1723 H1717 0.950 . S
C1723 C1722 1.327 . S
C1723 C1727 1.429 . S
C1724 C1707 1.574 . S
C1724 H1718 0.949 . S
C1724 C1728 1.368 . S
C1725 C1706 1.429 . S
C1725 C1719 1.429 . S
C1725 C1726 1.523 . S
C1726 C1707 1.368 . S
C1726 C1720 1.368 . S
C1726 C1725 1.523 . S
C1727 C1711 1.429 . S
C1727 C1723 1.429 . S
C1727 C1728 1.523 . S
C1728 C1712 1.368 . S
C1728 C1724 1.368 . S
C1728 C1727 1.523 . S
H1729 C1704 0.950 . S
H1730 C1706 0.950 . S
H1731 C1707 0.949 . S
H1732 C1709 0.950 . S
H1733 C1711 0.950 . S
C1734 C1735 1.349 . S
C1734 C1736 1.327 . S
C1734 H1759 0.950 . S
C1735 C1734 1.349 . S
C1735 C1751 1.349 . S
C1736 C1734 1.327 . S
C1736 C1755 1.429 . S
C1736 H1760 0.950 . S
C1737 C1754 1.574 . S
C1737 C1756 1.368 . S
C1737 H1761 0.949 . S
H1738 C1742 0.949 . S
C1739 C1740 1.349 . S
C1739 C1741 1.327 . S
C1739 H1762 0.950 1_554 S
C1740 C1739 1.349 . S
C1740 C1752 1.349 . S
C1741 C1739 1.327 . S
C1741 C1757 1.429 . S
C1741 H1763 0.950 . S
C1742 H1738 0.949 . S
C1742 C1750 1.574 . S
C1742 C1758 1.368 . S
H1743 C1751 0.950 . S
H1744 C1749 0.950 . S
H1745 C1750 0.949 . S
H1746 C1752 0.950 . S
H1747 C1753 0.950 . S
H1748 C1754 0.949 . S
C1749 H1744 0.950 . S
C1749 C1751 1.327 . S
C1749 C1755 1.429 . S
C1750 C1742 1.574 . S
C1750 H1745 0.949 . S
C1750 C1756 1.368 . S
C1751 C1735 1.349 . S
C1751 H1743 0.950 . S
C1751 C1749 1.327 . S
C1752 C1740 1.349 . S
C1752 H1746 0.950 . S
C1752 C1753 1.327 . S
C1753 H1747 0.950 . S
C1753 C1752 1.327 . S
C1753 C1757 1.429 . S
C1754 C1737 1.574 . S
C1754 H1748 0.949 . S
C1754 C1758 1.368 . S
C1755 C1736 1.429 . S
C1755 C1749 1.429 . S
C1755 C1756 1.523 . S
C1756 C1737 1.368 . S
C1756 C1750 1.368 . S
C1756 C1755 1.523 . S
C1757 C1741 1.429 . S
C1757 C1753 1.429 . S
C1757 C1758 1.523 . S
C1758 C1742 1.368 . S
C1758 C1754 1.368 . S
C1758 C1757 1.523 . S
H1759 C1734 0.950 . S
H1760 C1736 0.950 . S
H1761 C1737 0.949 . S
H1762 C1739 0.950 1_556 S
H1763 C1741 0.950 . S
C1764 C1765 1.349 . S
C1764 C1766 1.327 . S
C1764 H1789 0.950 . S
C1765 C1764 1.349 . S
C1765 C1781 1.349 . S
C1766 C1764 1.327 . S
C1766 C1785 1.429 . S
C1766 H1790 0.950 . S
C1767 C1784 1.574 . S
C1767 C1786 1.368 . S
C1767 H1791 0.949 . S
H1768 C1772 0.949 . S
C1769 C1770 1.349 . S
C1769 C1771 1.327 . S
C1769 H1792 0.950 . S
C1770 C1769 1.349 . S
C1770 C1782 1.349 . S
C1771 C1769 1.327 . S
C1771 C1787 1.429 . S
C1771 H1793 0.950 . S
C1772 H1768 0.949 . S
C1772 C1780 1.574 . S
C1772 C1788 1.368 . S
H1773 C1781 0.950 1_556 S
H1774 C1779 0.950 . S
H1775 C1780 0.949 . S
H1776 C1782 0.950 . S
H1777 C1783 0.950 . S
H1778 C1784 0.949 . S
C1779 H1774 0.950 . S
C1779 C1781 1.327 . S
C1779 C1785 1.429 . S
C1780 C1772 1.574 . S
C1780 H1775 0.949 . S
C1780 C1786 1.368 . S
C1781 C1765 1.349 . S
C1781 H1773 0.950 1_554 S
C1781 C1779 1.327 . S
C1782 C1770 1.349 . S
C1782 H1776 0.950 . S
C1782 C1783 1.327 . S
C1783 H1777 0.950 . S
C1783 C1782 1.327 . S
C1783 C1787 1.429 . S
C1784 C1767 1.574 . S
C1784 H1778 0.949 . S
C1784 C1788 1.368 . S
C1785 C1766 1.429 . S
C1785 C1779 1.429 . S
C1785 C1786 1.523 . S
C1786 C1767 1.368 . S
C1786 C1780 1.368 . S
C1786 C1785 1.523 . S
C1787 C1771 1.429 . S
C1787 C1783 1.429 . S
C1787 C1788 1.523 . S
C1788 C1772 1.368 . S
C1788 C1784 1.368 . S
C1788 C1787 1.523 . S
H1789 C1764 0.950 . S
H1790 C1766 0.950 . S
H1791 C1767 0.949 . S
H1792 C1769 0.950 . S
H1793 C1771 0.950 . S
C1794 C1795 1.349 . S
C1794 C1796 1.327 . S
C1794 H1819 0.950 . S
C1795 C1794 1.349 . S
C1795 C1811 1.349 . S
C1796 C1794 1.327 . S
C1796 C1815 1.429 . S
C1796 H1820 0.950 . S
C1797 C1814 1.574 . S
C1797 C1816 1.368 . S
C1797 H1821 0.949 . S
H1798 C1802 0.949 . S
C1799 C1800 1.349 . S
C1799 C1801 1.327 . S
C1799 H1822 0.950 . S
C1800 C1799 1.349 . S
C1800 C1812 1.349 . S
C1801 C1799 1.327 . S
C1801 C1817 1.429 . S
C1801 H1823 0.950 . S
C1802 H1798 0.949 . S
C1802 C1810 1.574 . S
C1802 C1818 1.368 . S
H1803 C1811 0.950 . S
H1804 C1809 0.950 . S
H1805 C1810 0.949 . S
H1806 C1812 0.950 . S
H1807 C1813 0.950 . S
H1808 C1814 0.949 . S
C1809 H1804 0.950 . S
C1809 C1811 1.327 . S
C1809 C1815 1.429 . S
C1810 C1802 1.574 . S
C1810 H1805 0.949 . S
C1810 C1816 1.368 . S
C1811 C1795 1.349 . S
C1811 H1803 0.950 . S
C1811 C1809 1.327 . S
C1812 C1800 1.349 . S
C1812 H1806 0.950 . S
C1812 C1813 1.327 . S
C1813 H1807 0.950 . S
C1813 C1812 1.327 . S
C1813 C1817 1.429 . S
C1814 C1797 1.574 . S
C1814 H1808 0.949 . S
C1814 C1818 1.368 . S
C1815 C1796 1.429 . S
C1815 C1809 1.429 . S
C1815 C1816 1.523 . S
C1816 C1797 1.368 . S
C1816 C1810 1.368 . S
C1816 C1815 1.523 . S
C1817 C1801 1.429 . S
C1817 C1813 1.429 . S
C1817 C1818 1.523 . S
C1818 C1802 1.368 . S
C1818 C1814 1.368 . S
C1818 C1817 1.523 . S
H1819 C1794 0.950 . S
H1820 C1796 0.950 . S
H1821 C1797 0.949 . S
H1822 C1799 0.950 . S
H1823 C1801 0.950 . S
C1824 C1825 1.349 . S
C1824 C1826 1.327 . S
C1824 H1849 0.950 . S
C1825 C1824 1.349 . S
C1825 C1841 1.349 . S
C1826 C1824 1.327 . S
C1826 C1845 1.429 . S
C1826 H1850 0.950 . S
C1827 C1844 1.574 . S
C1827 C1846 1.368 . S
C1827 H1851 0.949 . S
H1828 C1832 0.949 . S
C1829 C1830 1.349 . S
C1829 C1831 1.327 . S
C1829 H1852 0.950 . S
C1830 C1829 1.349 . S
C1830 C1842 1.349 . S
C1831 C1829 1.327 . S
C1831 C1847 1.429 . S
C1831 H1853 0.950 . S
C1832 H1828 0.949 . S
C1832 C1840 1.574 . S
C1832 C1848 1.368 . S
H1833 C1841 0.950 . S
H1834 C1839 0.950 . S
H1835 C1840 0.949 . S
H1836 C1842 0.950 . S
H1837 C1843 0.950 . S
H1838 C1844 0.949 . S
C1839 H1834 0.950 . S
C1839 C1841 1.327 . S
C1839 C1845 1.429 . S
C1840 C1832 1.574 . S
C1840 H1835 0.949 . S
C1840 C1846 1.368 . S
C1841 C1825 1.349 . S
C1841 H1833 0.950 . S
C1841 C1839 1.327 . S
C1842 C1830 1.349 . S
C1842 H1836 0.950 . S
C1842 C1843 1.327 . S
C1843 H1837 0.950 . S
C1843 C1842 1.327 . S
C1843 C1847 1.429 . S
C1844 C1827 1.574 . S
C1844 H1838 0.949 . S
C1844 C1848 1.368 . S
C1845 C1826 1.429 . S
C1845 C1839 1.429 . S
C1845 C1846 1.523 . S
C1846 C1827 1.368 . S
C1846 C1840 1.368 . S
C1846 C1845 1.523 . S
C1847 C1831 1.429 . S
C1847 C1843 1.429 . S
C1847 C1848 1.523 . S
C1848 C1832 1.368 . S
C1848 C1844 1.368 . S
C1848 C1847 1.523 . S
H1849 C1824 0.950 . S
H1850 C1826 0.950 . S
H1851 C1827 0.949 . S
H1852 C1829 0.950 . S
H1853 C1831 0.950 . S
C1854 C1855 1.349 . S
C1854 C1856 1.327 . S
C1854 H1879 0.950 . S
C1855 C1854 1.349 . S
C1855 C1871 1.349 . S
C1856 C1854 1.327 . S
C1856 C1875 1.429 . S
C1856 H1880 0.950 . S
C1857 C1874 1.574 . S
C1857 C1876 1.368 . S
C1857 H1881 0.949 . S
H1858 C1862 0.949 . S
C1859 C1860 1.349 . S
C1859 C1861 1.327 . S
C1859 H1882 0.950 . S
C1860 C1859 1.349 . S
C1860 C1872 1.349 . S
C1861 C1859 1.327 . S
C1861 C1877 1.429 . S
C1861 H1883 0.950 . S
C1862 H1858 0.949 . S
C1862 C1870 1.574 . S
C1862 C1878 1.368 . S
H1863 C1871 0.950 . S
H1864 C1869 0.950 . S
H1865 C1870 0.949 . S
H1866 C1872 0.950 . S
H1867 C1873 0.950 . S
H1868 C1874 0.949 . S
C1869 H1864 0.950 . S
C1869 C1871 1.327 . S
C1869 C1875 1.429 . S
C1870 C1862 1.574 . S
C1870 H1865 0.949 . S
C1870 C1876 1.368 . S
C1871 C1855 1.349 . S
C1871 H1863 0.950 . S
C1871 C1869 1.327 . S
C1872 C1860 1.349 . S
C1872 H1866 0.950 . S
C1872 C1873 1.327 . S
C1873 H1867 0.950 . S
C1873 C1872 1.327 . S
C1873 C1877 1.429 . S
C1874 C1857 1.574 . S
C1874 H1868 0.949 . S
C1874 C1878 1.368 . S
C1875 C1856 1.429 . S
C1875 C1869 1.429 . S
C1875 C1876 1.523 . S
C1876 C1857 1.368 . S
C1876 C1870 1.368 . S
C1876 C1875 1.523 . S
C1877 C1861 1.429 . S
C1877 C1873 1.429 . S
C1877 C1878 1.523 . S
C1878 C1862 1.368 . S
C1878 C1874 1.368 . S
C1878 C1877 1.523 . S
H1879 C1854 0.950 . S
H1880 C1856 0.950 . S
H1881 C1857 0.949 . S
H1882 C1859 0.950 . S
H1883 C1861 0.950 . S
C1884 C1885 1.349 . S
C1884 C1886 1.327 . S
C1884 H1909 0.950 . S
C1885 C1884 1.349 . S
C1885 C1901 1.349 . S
C1886 C1884 1.327 . S
C1886 C1905 1.429 . S
C1886 H1910 0.950 . S
C1887 C1904 1.574 . S
C1887 C1906 1.368 . S
C1887 H1911 0.949 . S
H1888 C1892 0.949 . S
C1889 C1890 1.349 . S
C1889 C1891 1.327 . S
C1889 H1912 0.950 1_556 S
C1890 C1889 1.349 . S
C1890 C1902 1.349 . S
C1891 C1889 1.327 . S
C1891 C1907 1.429 . S
C1891 H1913 0.950 . S
C1892 H1888 0.949 . S
C1892 C1900 1.574 . S
C1892 C1908 1.368 . S
H1893 C1901 0.950 . S
H1894 C1899 0.950 . S
H1895 C1900 0.949 . S
H1896 C1902 0.950 . S
H1897 C1903 0.950 . S
H1898 C1904 0.949 . S
C1899 H1894 0.950 . S
C1899 C1901 1.327 . S
C1899 C1905 1.429 . S
C1900 C1892 1.574 . S
C1900 H1895 0.949 . S
C1900 C1906 1.368 . S
C1901 C1885 1.349 . S
C1901 H1893 0.950 . S
C1901 C1899 1.327 . S
C1902 C1890 1.349 . S
C1902 H1896 0.950 . S
C1902 C1903 1.327 . S
C1903 H1897 0.950 . S
C1903 C1902 1.327 . S
C1903 C1907 1.429 . S
C1904 C1887 1.574 . S
C1904 H1898 0.949 . S
C1904 C1908 1.368 . S
C1905 C1886 1.429 . S
C1905 C1899 1.429 . S
C1905 C1906 1.523 . S
C1906 C1887 1.368 . S
C1906 C1900 1.368 . S
C1906 C1905 1.523 . S
C1907 C1891 1.429 . S
C1907 C1903 1.429 . S
C1907 C1908 1.523 . S
C1908 C1892 1.368 . S
C1908 C1904 1.368 . S
C1908 C1907 1.523 . S
H1909 C1884 0.950 . S
H1910 C1886 0.950 . S
H1911 C1887 0.949 . S
H1912 C1889 0.950 1_554 S
H1913 C1891 0.950 . S
C1914 C1915 1.349 . S
C1914 C1916 1.327 . S
C1914 H1939 0.950 . S
C1915 C1914 1.349 . S
C1915 C1931 1.349 . S
C1916 C1914 1.327 . S
C1916 C1935 1.429 . S
C1916 H1940 0.950 . S
C1917 C1934 1.574 . S
C1917 C1936 1.368 . S
C1917 H1941 0.949 . S
H1918 C1922 0.949 . S
C1919 C1920 1.349 . S
C1919 C1921 1.327 . S
C1919 H1942 0.950 . S
C1920 C1919 1.349 . S
C1920 C1932 1.349 . S
C1921 C1919 1.327 . S
C1921 C1937 1.429 . S
C1921 H1943 0.950 . S
C1922 H1918 0.949 . S
C1922 C1930 1.574 . S
C1922 C1938 1.368 . S
H1923 C1931 0.964 . S
H1924 C1929 0.950 . S
H1925 C1930 0.949 . S
H1926 C1932 0.950 . S
H1927 C1933 0.950 . S
H1928 C1934 0.949 . S
C1929 H1924 0.950 . S
C1929 C1931 1.327 . S
C1929 C1935 1.429 . S
C1930 C1922 1.574 . S
C1930 H1925 0.949 . S
C1930 C1936 1.368 . S
C1931 C1915 1.349 . S
C1931 H1923 0.964 . S
C1931 C1929 1.327 . S
C1932 C1920 1.349 . S
C1932 H1926 0.950 . S
C1932 C1933 1.327 . S
C1933 H1927 0.950 . S
C1933 C1932 1.327 . S
C1933 C1937 1.429 . S
C1934 C1917 1.574 . S
C1934 H1928 0.949 . S
C1934 C1938 1.368 . S
C1935 C1916 1.429 . S
C1935 C1929 1.429 . S
C1935 C1936 1.523 . S
C1936 C1917 1.368 . S
C1936 C1930 1.368 . S
C1936 C1935 1.523 . S
C1937 C1921 1.429 . S
C1937 C1933 1.429 . S
C1937 C1938 1.523 . S
C1938 C1922 1.368 . S
C1938 C1934 1.368 . S
C1938 C1937 1.523 . S
H1939 C1914 0.950 . S
H1940 C1916 0.950 . S
H1941 C1917 0.949 . S
H1942 C1919 0.950 . S
H1943 C1921 0.950 . S
C1944 C1945 1.349 . S
C1944 C1946 1.327 . S
C1944 H1969 0.950 . S
C1945 C1944 1.349 . S
C1945 C1961 1.349 . S
C1946 C1944 1.327 . S
C1946 C1965 1.429 . S
C1946 H1970 0.950 . S
C1947 C1964 1.574 . S
C1947 C1966 1.368 1_655 S
C1947 H1971 0.949 . S
H1948 C1952 0.949 . S
C1949 C1950 1.349 . S
C1949 C1951 1.327 . S
C1949 H1972 0.950 . S
C1950 C1949 1.349 . S
C1950 C1962 1.349 . S
C1951 C1949 1.327 . S
C1951 C1967 1.429 . S
C1951 H1973 0.950 . S
C1952 H1948 0.949 . S
C1952 C1960 1.574 . S
C1952 C1968 1.368 1_455 S
H1953 C1961 0.950 . S
H1954 C1959 0.950 . S
H1955 C1960 0.949 . S
H1956 C1962 0.950 . S
H1957 C1963 0.950 . S
H1958 C1964 0.949 . S
C1959 H1954 0.950 . S
C1959 C1961 1.327 . S
C1959 C1965 1.429 . S
C1960 C1952 1.574 . S
C1960 H1955 0.949 . S
C1960 C1966 1.368 . S
C1961 C1945 1.349 . S
C1961 H1953 0.950 . S
C1961 C1959 1.327 . S
C1962 C1950 1.349 . S
C1962 H1956 0.950 . S
C1962 C1963 1.327 . S
C1963 H1957 0.950 . S
C1963 C1962 1.327 . S
C1963 C1967 1.429 . S
C1964 C1947 1.574 . S
C1964 H1958 0.949 . S
C1964 C1968 1.368 . S
C1965 C1946 1.429 . S
C1965 C1959 1.429 . S
C1965 C1966 1.523 . S
C1966 C1947 1.368 1_455 S
C1966 C1960 1.368 . S
C1966 C1965 1.523 . S
C1967 C1951 1.429 . S
C1967 C1963 1.429 . S
C1967 C1968 1.523 . S
C1968 C1952 1.368 1_655 S
C1968 C1964 1.368 . S
C1968 C1967 1.523 . S
H1969 C1944 0.950 . S
H1970 C1946 0.950 . S
H1971 C1947 0.949 . S
H1972 C1949 0.950 . S
H1973 C1951 0.950 . S
C1974 C1975 1.349 . S
C1974 C1976 1.327 . S
C1974 H1999 0.950 . S
C1975 C1974 1.349 . S
C1975 C1991 1.349 . S
C1976 C1974 1.327 . S
C1976 C1995 1.429 . S
C1976 H2000 0.950 . S
C1977 C1994 1.574 . S
C1977 C1996 1.368 . S
C1977 H2001 0.949 . S
H1978 C1982 0.949 . S
C1979 C1980 1.349 . S
C1979 C1981 1.327 . S
C1979 H2002 0.950 . S
C1980 C1979 1.349 . S
C1980 C1992 1.349 . S
C1981 C1979 1.327 . S
C1981 C1997 1.429 . S
C1981 H2003 0.950 . S
C1982 H1978 0.949 . S
C1982 C1990 1.574 . S
C1982 C1998 1.368 . S
H1983 C1991 0.950 . S
H1984 C1989 0.950 . S
H1985 C1990 0.949 . S
H1986 C1992 0.950 . S
H1987 C1993 0.950 . S
H1988 C1994 0.949 . S
C1989 H1984 0.950 . S
C1989 C1991 1.327 . S
C1989 C1995 1.429 . S
C1990 C1982 1.574 . S
C1990 H1985 0.949 . S
C1990 C1996 1.368 . S
C1991 C1975 1.349 . S
C1991 H1983 0.950 . S
C1991 C1989 1.327 . S
C1992 C1980 1.349 . S
C1992 H1986 0.950 . S
C1992 C1993 1.327 . S
C1993 H1987 0.950 . S
C1993 C1992 1.327 . S
C1993 C1997 1.429 . S
C1994 C1977 1.574 . S
C1994 H1988 0.949 . S
C1994 C1998 1.368 . S
C1995 C1976 1.429 . S
C1995 C1989 1.429 . S
C1995 C1996 1.523 . S
C1996 C1977 1.368 . S
C1996 C1990 1.368 . S
C1996 C1995 1.523 . S
C1997 C1981 1.429 . S
C1997 C1993 1.429 . S
C1997 C1998 1.523 . S
C1998 C1982 1.368 . S
C1998 C1994 1.368 . S
C1998 C1997 1.523 . S
H1999 C1974 0.950 . S
H2000 C1976 0.950 . S
H2001 C1977 0.949 . S
H2002 C1979 0.950 . S
H2003 C1981 0.950 . S
C2004 C2005 1.349 . S
C2004 C2006 1.327 . S
C2004 H2029 0.950 . S
C2005 C2004 1.349 . S
C2005 C2021 1.349 . S
C2006 C2004 1.327 . S
C2006 C2025 1.429 . S
C2006 H2030 0.950 . S
C2007 C2024 1.563 1_565 S
C2007 C2026 1.371 . S
C2007 H2031 0.934 . S
H2008 C2012 0.934 . S
C2009 C2010 1.349 . S
C2009 C2011 1.327 . S
C2009 H2032 0.950 . S
C2010 C2009 1.349 . S
C2010 C2022 1.349 . S
C2011 C2009 1.327 . S
C2011 C2027 1.429 . S
C2011 H2033 0.950 . S
C2012 H2008 0.934 . S
C2012 C2020 1.568 1_545 S
C2012 C2028 1.370 . S
H2013 C2021 0.950 . S
H2014 C2019 0.950 . S
H2015 C2020 0.949 . S
H2016 C2022 0.950 . S
H2017 C2023 0.950 . S
H2018 C2024 0.949 . S
C2019 H2014 0.950 . S
C2019 C2021 1.327 . S
C2019 C2025 1.429 . S
C2020 C2012 1.568 1_565 S
C2020 H2015 0.949 . S
C2020 C2026 1.368 . S
C2021 C2005 1.349 . S
C2021 H2013 0.950 . S
C2021 C2019 1.327 . S
C2022 C2010 1.349 . S
C2022 H2016 0.950 . S
C2022 C2023 1.327 . S
C2023 H2017 0.950 . S
C2023 C2022 1.327 . S
C2023 C2027 1.429 . S
C2024 C2007 1.563 1_545 S
C2024 H2018 0.949 . S
C2024 C2028 1.368 . S
C2025 C2006 1.429 . S
C2025 C2019 1.429 . S
C2025 C2026 1.523 . S
C2026 C2007 1.371 . S
C2026 C2020 1.368 . S
C2026 C2025 1.523 . S
C2027 C2011 1.429 . S
C2027 C2023 1.429 . S
C2027 C2028 1.523 . S
C2028 C2012 1.370 . S
C2028 C2024 1.368 . S
C2028 C2027 1.523 . S
H2029 C2004 0.950 . S
H2030 C2006 0.950 . S
H2031 C2007 0.934 . S
H2032 C2009 0.950 . S
H2033 C2011 0.950 . S
C2034 C2035 1.349 . S
C2034 C2036 1.327 . S
C2034 H2059 0.950 . S
C2035 C2034 1.349 . S
C2035 C2051 1.349 . S
C2036 C2034 1.327 . S
C2036 C2055 1.429 . S
C2036 H2060 0.950 . S
C2037 C2054 1.574 . S
C2037 C2056 1.368 1_545 S
C2037 H2061 0.949 . S
H2038 C2042 0.949 . S
C2039 C2040 1.349 . S
C2039 C2041 1.327 . S
C2039 H2062 0.950 . S
C2040 C2039 1.349 . S
C2040 C2052 1.349 . S
C2041 C2039 1.327 . S
C2041 C2057 1.429 . S
C2041 H2063 0.950 . S
C2042 H2038 0.949 . S
C2042 C2050 1.574 . S
C2042 C2058 1.368 1_565 S
H2043 C2051 0.950 . S
H2044 C2049 0.950 . S
H2045 C2050 0.949 . S
H2046 C2052 0.950 . S
H2047 C2053 0.950 . S
H2048 C2054 0.949 . S
C2049 H2044 0.950 . S
C2049 C2051 1.327 . S
C2049 C2055 1.429 . S
C2050 C2042 1.574 . S
C2050 H2045 0.949 . S
C2050 C2056 1.368 . S
C2051 C2035 1.349 . S
C2051 H2043 0.950 . S
C2051 C2049 1.327 . S
C2052 C2040 1.349 . S
C2052 H2046 0.950 . S
C2052 C2053 1.327 . S
C2053 H2047 0.950 . S
C2053 C2052 1.327 . S
C2053 C2057 1.429 . S
C2054 C2037 1.574 . S
C2054 H2048 0.949 . S
C2054 C2058 1.368 . S
C2055 C2036 1.429 . S
C2055 C2049 1.429 . S
C2055 C2056 1.523 . S
C2056 C2037 1.368 1_565 S
C2056 C2050 1.368 . S
C2056 C2055 1.523 . S
C2057 C2041 1.429 . S
C2057 C2053 1.429 . S
C2057 C2058 1.523 . S
C2058 C2042 1.368 1_545 S
C2058 C2054 1.368 . S
C2058 C2057 1.523 . S
H2059 C2034 0.950 . S
H2060 C2036 0.950 . S
H2061 C2037 0.949 . S
H2062 C2039 0.950 . S
H2063 C2041 0.950 . S
C2064 C2065 1.349 . S
C2064 C2066 1.327 . S
C2064 H2089 0.950 . S
C2065 C2064 1.349 . S
C2065 C2081 1.349 . S
C2066 C2064 1.327 . S
C2066 C2085 1.429 . S
C2066 H2090 0.950 . S
C2067 C2084 1.574 1_655 S
C2067 C2086 1.368 . S
C2067 H2091 0.949 . S
H2068 C2072 0.949 . S
C2069 C2070 1.349 . S
C2069 C2071 1.327 . S
C2069 H2092 0.950 . S
C2070 C2069 1.349 . S
C2070 C2082 1.349 . S
C2071 C2069 1.327 . S
C2071 C2087 1.429 . S
C2071 H2093 0.950 . S
C2072 H2068 0.949 . S
C2072 C2080 1.574 1_455 S
C2072 C2088 1.368 . S
H2073 C2081 0.950 . S
H2074 C2079 0.950 . S
H2075 C2080 0.949 . S
H2076 C2082 0.950 . S
H2077 C2083 0.950 . S
H2078 C2084 0.949 . S
C2079 H2074 0.950 . S
C2079 C2081 1.327 . S
C2079 C2085 1.429 . S
C2080 C2072 1.574 1_655 S
C2080 H2075 0.949 . S
C2080 C2086 1.368 . S
C2081 C2065 1.349 . S
C2081 H2073 0.950 . S
C2081 C2079 1.327 . S
C2082 C2070 1.349 . S
C2082 H2076 0.950 . S
C2082 C2083 1.327 . S
C2083 H2077 0.950 . S
C2083 C2082 1.327 . S
C2083 C2087 1.429 . S
C2084 C2067 1.574 1_455 S
C2084 H2078 0.949 . S
C2084 C2088 1.368 . S
C2085 C2066 1.429 . S
C2085 C2079 1.429 . S
C2085 C2086 1.523 . S
C2086 C2067 1.368 . S
C2086 C2080 1.368 . S
C2086 C2085 1.523 . S
C2087 C2071 1.429 . S
C2087 C2083 1.429 . S
C2087 C2088 1.523 . S
C2088 C2072 1.368 . S
C2088 C2084 1.368 . S
C2088 C2087 1.523 . S
H2089 C2064 0.950 . S
H2090 C2066 0.950 . S
H2091 C2067 0.949 . S
H2092 C2069 0.950 . S
H2093 C2071 0.950 . S
C2094 C2095 1.349 . S
C2094 C2096 1.327 . S
C2094 H2119 0.950 . S
C2095 C2094 1.349 . S
C2095 C2111 1.349 . S
C2096 C2094 1.327 . S
C2096 C2115 1.429 . S
C2096 H2120 0.950 . S
C2097 C2114 1.574 . S
C2097 C2116 1.368 . S
C2097 H2121 0.949 . S
H2098 C2102 0.949 . S
C2099 C2100 1.349 . S
C2099 C2101 1.327 . S
C2099 H2122 0.950 . S
C2100 C2099 1.349 . S
C2100 C2112 1.349 . S
C2101 C2099 1.327 . S
C2101 C2117 1.429 . S
C2101 H2123 0.950 . S
C2102 H2098 0.949 . S
C2102 C2110 1.574 . S
C2102 C2118 1.368 . S
H2103 C2111 0.950 . S
H2104 C2109 0.950 . S
H2105 C2110 0.949 . S
H2106 C2112 0.950 . S
H2107 C2113 0.950 . S
H2108 C2114 0.949 . S
C2109 H2104 0.950 . S
C2109 C2111 1.327 . S
C2109 C2115 1.429 . S
C2110 C2102 1.574 . S
C2110 H2105 0.949 . S
C2110 C2116 1.368 . S
C2111 C2095 1.349 . S
C2111 H2103 0.950 . S
C2111 C2109 1.327 . S
C2112 C2100 1.349 . S
C2112 H2106 0.950 . S
C2112 C2113 1.327 . S
C2113 H2107 0.950 . S
C2113 C2112 1.327 . S
C2113 C2117 1.429 . S
C2114 C2097 1.574 . S
C2114 H2108 0.949 . S
C2114 C2118 1.368 . S
C2115 C2096 1.429 . S
C2115 C2109 1.429 . S
C2115 C2116 1.523 . S
C2116 C2097 1.368 . S
C2116 C2110 1.368 . S
C2116 C2115 1.523 . S
C2117 C2101 1.429 . S
C2117 C2113 1.429 . S
C2117 C2118 1.523 . S
C2118 C2102 1.368 . S
C2118 C2114 1.368 . S
C2118 C2117 1.523 . S
H2119 C2094 0.950 . S
H2120 C2096 0.950 . S
H2121 C2097 0.949 . S
H2122 C2099 0.950 . S
H2123 C2101 0.950 . S
C2124 C2125 1.349 . S
C2124 C2126 1.327 . S
C2124 H2149 0.950 . S
C2125 C2124 1.349 . S
C2125 C2141 1.349 . S
C2126 C2124 1.327 . S
C2126 C2145 1.429 . S
C2126 H2150 0.950 . S
C2127 C2144 1.574 . S
C2127 C2146 1.368 . S
C2127 H2151 0.949 . S
H2128 C2132 0.949 . S
C2129 C2130 1.349 . S
C2129 C2131 1.327 . S
C2129 H2152 0.950 . S
C2130 C2129 1.349 . S
C2130 C2142 1.349 . S
C2131 C2129 1.327 . S
C2131 C2147 1.429 . S
C2131 H2153 0.950 . S
C2132 H2128 0.949 . S
C2132 C2140 1.574 . S
C2132 C2148 1.368 . S
H2133 C2141 0.950 . S
H2134 C2139 0.950 . S
H2135 C2140 0.949 . S
H2136 C2142 0.950 . S
H2137 C2143 0.950 . S
H2138 C2144 0.949 . S
C2139 H2134 0.950 . S
C2139 C2141 1.327 . S
C2139 C2145 1.429 . S
C2140 C2132 1.574 . S
C2140 H2135 0.949 . S
C2140 C2146 1.368 . S
C2141 C2125 1.349 . S
C2141 H2133 0.950 . S
C2141 C2139 1.327 . S
C2142 C2130 1.349 . S
C2142 H2136 0.950 . S
C2142 C2143 1.327 . S
C2143 H2137 0.950 . S
C2143 C2142 1.327 . S
C2143 C2147 1.429 . S
C2144 C2127 1.574 . S
C2144 H2138 0.949 . S
C2144 C2148 1.368 . S
C2145 C2126 1.429 . S
C2145 C2139 1.429 . S
C2145 C2146 1.523 . S
C2146 C2127 1.368 . S
C2146 C2140 1.368 . S
C2146 C2145 1.523 . S
C2147 C2131 1.429 . S
C2147 C2143 1.429 . S
C2147 C2148 1.523 . S
C2148 C2132 1.368 . S
C2148 C2144 1.368 . S
C2148 C2147 1.523 . S
H2149 C2124 0.950 . S
H2150 C2126 0.950 . S
H2151 C2127 0.949 . S
H2152 C2129 0.950 . S
H2153 C2131 0.950 . S
C2154 C2155 1.349 . S
C2154 C2156 1.327 . S
C2154 H2179 0.950 . S
C2155 C2154 1.349 . S
C2155 C2171 1.349 . S
C2156 C2154 1.327 . S
C2156 C2175 1.429 . S
C2156 H2180 0.950 . S
C2157 C2174 1.574 . S
C2157 C2176 1.368 . S
C2157 H2181 0.949 . S
H2158 C2162 0.949 . S
C2159 C2160 1.349 . S
C2159 C2161 1.327 . S
C2159 H2182 0.950 . S
C2160 C2159 1.349 . S
C2160 C2172 1.349 . S
C2161 C2159 1.327 . S
C2161 C2177 1.429 . S
C2161 H2183 0.950 . S
C2162 H2158 0.949 . S
C2162 C2170 1.574 . S
C2162 C2178 1.368 . S
H2163 C2171 0.950 . S
H2164 C2169 0.950 . S
H2165 C2170 0.949 . S
H2166 C2172 0.950 . S
H2167 C2173 0.950 . S
H2168 C2174 0.949 . S
C2169 H2164 0.950 . S
C2169 C2171 1.327 . S
C2169 C2175 1.429 . S
C2170 C2162 1.574 . S
C2170 H2165 0.949 . S
C2170 C2176 1.368 . S
C2171 C2155 1.349 . S
C2171 H2163 0.950 . S
C2171 C2169 1.327 . S
C2172 C2160 1.349 . S
C2172 H2166 0.950 . S
C2172 C2173 1.327 . S
C2173 H2167 0.950 . S
C2173 C2172 1.327 . S
C2173 C2177 1.429 . S
C2174 C2157 1.574 . S
C2174 H2168 0.949 . S
C2174 C2178 1.368 . S
C2175 C2156 1.429 . S
C2175 C2169 1.429 . S
C2175 C2176 1.523 . S
C2176 C2157 1.368 . S
C2176 C2170 1.368 . S
C2176 C2175 1.523 . S
C2177 C2161 1.429 . S
C2177 C2173 1.429 . S
C2177 C2178 1.523 . S
C2178 C2162 1.368 . S
C2178 C2174 1.368 . S
C2178 C2177 1.523 . S
H2179 C2154 0.950 . S
H2180 C2156 0.950 . S
H2181 C2157 0.949 . S
H2182 C2159 0.950 . S
H2183 C2161 0.950 . S
C2184 C2185 1.349 . S
C2184 C2186 1.327 . S
C2184 H2209 0.950 . S
C2185 C2184 1.349 . S
C2185 C2201 1.349 . S
C2186 C2184 1.327 . S
C2186 C2205 1.429 . S
C2186 H2210 0.950 . S
C2187 C2204 1.574 . S
C2187 C2206 1.368 . S
C2187 H2211 0.949 . S
H2188 C2192 0.949 . S
C2189 C2190 1.349 . S
C2189 C2191 1.327 . S
C2189 H2212 0.950 . S
C2190 C2189 1.349 . S
C2190 C2202 1.349 . S
C2191 C2189 1.327 . S
C2191 C2207 1.429 . S
C2191 H2213 0.950 . S
C2192 H2188 0.949 . S
C2192 C2200 1.574 . S
C2192 C2208 1.368 . S
H2193 C2201 0.950 . S
H2194 C2199 0.950 . S
H2195 C2200 0.949 . S
H2196 C2202 0.950 . S
H2197 C2203 0.950 . S
H2198 C2204 0.949 . S
C2199 H2194 0.950 . S
C2199 C2201 1.327 . S
C2199 C2205 1.429 . S
C2200 C2192 1.574 . S
C2200 H2195 0.949 . S
C2200 C2206 1.368 . S
C2201 C2185 1.349 . S
C2201 H2193 0.950 . S
C2201 C2199 1.327 . S
C2202 C2190 1.349 . S
C2202 H2196 0.950 . S
C2202 C2203 1.327 . S
C2203 H2197 0.950 . S
C2203 C2202 1.327 . S
C2203 C2207 1.429 . S
C2204 C2187 1.574 . S
C2204 H2198 0.949 . S
C2204 C2208 1.368 . S
C2205 C2186 1.429 . S
C2205 C2199 1.429 . S
C2205 C2206 1.523 . S
C2206 C2187 1.368 . S
C2206 C2200 1.368 . S
C2206 C2205 1.523 . S
C2207 C2191 1.429 . S
C2207 C2203 1.429 . S
C2207 C2208 1.523 . S
C2208 C2192 1.368 . S
C2208 C2204 1.368 . S
C2208 C2207 1.523 . S
H2209 C2184 0.950 . S
H2210 C2186 0.950 . S
H2211 C2187 0.949 . S
H2212 C2189 0.950 . S
H2213 C2191 0.950 . S
C2214 C2215 1.349 . S
C2214 C2216 1.327 . S
C2214 H2239 0.950 . S
C2215 C2214 1.349 . S
C2215 C2231 1.349 . S
C2216 C2214 1.327 . S
C2216 C2235 1.429 . S
C2216 H2240 0.950 . S
C2217 C2234 1.574 . S
C2217 C2236 1.368 . S
C2217 H2241 0.949 . S
H2218 C2222 0.949 . S
C2219 C2220 1.349 . S
C2219 C2221 1.327 . S
C2219 H2242 0.950 . S
C2220 C2219 1.349 . S
C2220 C2232 1.349 . S
C2221 C2219 1.327 . S
C2221 C2237 1.429 . S
C2221 H2243 0.950 . S
C2222 H2218 0.949 . S
C2222 C2230 1.574 . S
C2222 C2238 1.368 . S
H2223 C2231 0.950 . S
H2224 C2229 0.950 . S
H2225 C2230 0.949 . S
H2226 C2232 0.950 . S
H2227 C2233 0.950 . S
H2228 C2234 0.949 . S
C2229 H2224 0.950 . S
C2229 C2231 1.327 . S
C2229 C2235 1.429 . S
C2230 C2222 1.574 . S
C2230 H2225 0.949 . S
C2230 C2236 1.368 . S
C2231 C2215 1.349 . S
C2231 H2223 0.950 . S
C2231 C2229 1.327 . S
C2232 C2220 1.349 . S
C2232 H2226 0.950 . S
C2232 C2233 1.327 . S
C2233 H2227 0.950 . S
C2233 C2232 1.327 . S
C2233 C2237 1.429 . S
C2234 C2217 1.574 . S
C2234 H2228 0.949 . S
C2234 C2238 1.368 . S
C2235 C2216 1.429 . S
C2235 C2229 1.429 . S
C2235 C2236 1.523 . S
C2236 C2217 1.368 . S
C2236 C2230 1.368 . S
C2236 C2235 1.523 . S
C2237 C2221 1.429 . S
C2237 C2233 1.429 . S
C2237 C2238 1.523 . S
C2238 C2222 1.368 . S
C2238 C2234 1.368 . S
C2238 C2237 1.523 . S
H2239 C2214 0.950 . S
H2240 C2216 0.950 . S
H2241 C2217 0.949 . S
H2242 C2219 0.950 . S
H2243 C2221 0.950 . S
C2244 C2245 1.349 . S
C2244 C2246 1.327 . S
C2244 H2269 0.950 . S
C2245 C2244 1.349 . S
C2245 C2261 1.349 . S
C2246 C2244 1.327 . S
C2246 C2265 1.429 . S
C2246 H2270 0.950 . S
C2247 C2264 1.574 . S
C2247 C2266 1.368 . S
C2247 H2271 0.949 . S
H2248 C2252 0.949 . S
C2249 C2250 1.349 . S
C2249 C2251 1.327 . S
C2249 H2272 0.950 . S
C2250 C2249 1.349 . S
C2250 C2262 1.349 . S
C2251 C2249 1.327 . S
C2251 C2267 1.429 . S
C2251 H2273 0.950 . S
C2252 H2248 0.949 . S
C2252 C2260 1.574 . S
C2252 C2268 1.368 . S
H2253 C2261 0.950 . S
H2254 C2259 0.950 . S
H2255 C2260 0.949 . S
H2256 C2262 0.950 . S
H2257 C2263 0.950 . S
H2258 C2264 0.949 . S
C2259 H2254 0.950 . S
C2259 C2261 1.327 . S
C2259 C2265 1.429 . S
C2260 C2252 1.574 . S
C2260 H2255 0.949 . S
C2260 C2266 1.368 . S
C2261 C2245 1.349 . S
C2261 H2253 0.950 . S
C2261 C2259 1.327 . S
C2262 C2250 1.349 . S
C2262 H2256 0.950 . S
C2262 C2263 1.327 . S
C2263 H2257 0.950 . S
C2263 C2262 1.327 . S
C2263 C2267 1.429 . S
C2264 C2247 1.574 . S
C2264 H2258 0.949 . S
C2264 C2268 1.368 . S
C2265 C2246 1.429 . S
C2265 C2259 1.429 . S
C2265 C2266 1.523 . S
C2266 C2247 1.368 . S
C2266 C2260 1.368 . S
C2266 C2265 1.523 . S
C2267 C2251 1.429 . S
C2267 C2263 1.429 . S
C2267 C2268 1.523 . S
C2268 C2252 1.368 . S
C2268 C2264 1.368 . S
C2268 C2267 1.523 . S
H2269 C2244 0.950 . S
H2270 C2246 0.950 . S
H2271 C2247 0.949 . S
H2272 C2249 0.950 . S
H2273 C2251 0.950 . S
C2274 C2275 1.349 . S
C2274 C2276 1.327 . S
C2274 H2299 0.950 . S
C2275 C2274 1.349 . S
C2275 C2291 1.349 . S
C2276 C2274 1.327 . S
C2276 C2295 1.429 . S
C2276 H2300 0.950 . S
C2277 C2294 1.574 . S
C2277 C2296 1.368 . S
C2277 H2301 0.949 . S
H2278 C2282 0.949 . S
C2279 C2280 1.349 . S
C2279 C2281 1.327 . S
C2279 H2302 0.950 . S
C2280 C2279 1.349 . S
C2280 C2292 1.349 . S
C2281 C2279 1.327 . S
C2281 C2297 1.429 . S
C2281 H2303 0.950 . S
C2282 H2278 0.949 . S
C2282 C2290 1.574 . S
C2282 C2298 1.368 . S
H2283 C2291 0.950 . S
H2284 C2289 0.950 . S
H2285 C2290 0.949 . S
H2286 C2292 0.950 . S
H2287 C2293 0.950 . S
H2288 C2294 0.949 . S
C2289 H2284 0.950 . S
C2289 C2291 1.327 . S
C2289 C2295 1.429 . S
C2290 C2282 1.574 . S
C2290 H2285 0.949 . S
C2290 C2296 1.368 . S
C2291 C2275 1.349 . S
C2291 H2283 0.950 . S
C2291 C2289 1.327 . S
C2292 C2280 1.349 . S
C2292 H2286 0.950 . S
C2292 C2293 1.327 . S
C2293 H2287 0.950 . S
C2293 C2292 1.327 . S
C2293 C2297 1.429 . S
C2294 C2277 1.574 . S
C2294 H2288 0.949 . S
C2294 C2298 1.368 . S
C2295 C2276 1.429 . S
C2295 C2289 1.429 . S
C2295 C2296 1.523 . S
C2296 C2277 1.368 . S
C2296 C2290 1.368 . S
C2296 C2295 1.523 . S
C2297 C2281 1.429 . S
C2297 C2293 1.429 . S
C2297 C2298 1.523 . S
C2298 C2282 1.368 . S
C2298 C2294 1.368 . S
C2298 C2297 1.523 . S
H2299 C2274 0.950 . S
H2300 C2276 0.950 . S
H2301 C2277 0.949 . S
H2302 C2279 0.950 . S
H2303 C2281 0.950 . S
C2304 C2305 1.349 . S
C2304 C2306 1.327 . S
C2304 H2329 0.950 . S
C2305 C2304 1.349 . S
C2305 C2321 1.349 . S
C2306 C2304 1.327 . S
C2306 C2325 1.429 . S
C2306 H2330 0.950 . S
C2307 C2324 1.574 . S
C2307 C2326 1.368 . S
C2307 H2331 0.949 . S
H2308 C2312 0.949 . S
C2309 C2310 1.349 . S
C2309 C2311 1.327 . S
C2309 H2332 0.950 . S
C2310 C2309 1.349 . S
C2310 C2322 1.349 . S
C2311 C2309 1.327 . S
C2311 C2327 1.429 . S
C2311 H2333 0.950 . S
C2312 H2308 0.949 . S
C2312 C2320 1.574 . S
C2312 C2328 1.368 . S
H2313 C2321 0.950 . S
H2314 C2319 0.950 . S
H2315 C2320 0.949 . S
H2316 C2322 0.950 . S
H2317 C2323 0.950 . S
H2318 C2324 0.949 . S
C2319 H2314 0.950 . S
C2319 C2321 1.327 . S
C2319 C2325 1.429 . S
C2320 C2312 1.574 . S
C2320 H2315 0.949 . S
C2320 C2326 1.368 . S
C2321 C2305 1.349 . S
C2321 H2313 0.950 . S
C2321 C2319 1.327 . S
C2322 C2310 1.349 . S
C2322 H2316 0.950 . S
C2322 C2323 1.327 . S
C2323 H2317 0.950 . S
C2323 C2322 1.327 . S
C2323 C2327 1.429 . S
C2324 C2307 1.574 . S
C2324 H2318 0.949 . S
C2324 C2328 1.368 . S
C2325 C2306 1.429 . S
C2325 C2319 1.429 . S
C2325 C2326 1.523 . S
C2326 C2307 1.368 . S
C2326 C2320 1.368 . S
C2326 C2325 1.523 . S
C2327 C2311 1.429 . S
C2327 C2323 1.429 . S
C2327 C2328 1.523 . S
C2328 C2312 1.368 . S
C2328 C2324 1.368 . S
C2328 C2327 1.523 . S
H2329 C2304 0.950 . S
H2330 C2306 0.950 . S
H2331 C2307 0.949 . S
H2332 C2309 0.950 . S
H2333 C2311 0.950 . S
C2334 C2335 1.349 . S
C2334 C2336 1.327 . S
C2334 H2359 0.950 . S
C2335 C2334 1.349 . S
C2335 C2351 1.349 . S
C2336 C2334 1.327 . S
C2336 C2355 1.429 . S
C2336 H2360 0.950 . S
C2337 C2354 1.574 . S
C2337 C2356 1.368 . S
C2337 H2361 0.949 . S
H2338 C2342 0.949 . S
C2339 C2340 1.349 . S
C2339 C2341 1.327 . S
C2339 H2362 0.950 . S
C2340 C2339 1.349 . S
C2340 C2352 1.349 . S
C2341 C2339 1.327 . S
C2341 C2357 1.429 . S
C2341 H2363 0.950 . S
C2342 H2338 0.949 . S
C2342 C2350 1.574 . S
C2342 C2358 1.368 . S
H2343 C2351 0.950 . S
H2344 C2349 0.950 . S
H2345 C2350 0.949 . S
H2346 C2352 0.950 . S
H2347 C2353 0.950 . S
H2348 C2354 0.949 . S
C2349 H2344 0.950 . S
C2349 C2351 1.327 . S
C2349 C2355 1.429 . S
C2350 C2342 1.574 . S
C2350 H2345 0.949 . S
C2350 C2356 1.368 . S
C2351 C2335 1.349 . S
C2351 H2343 0.950 . S
C2351 C2349 1.327 . S
C2352 C2340 1.349 . S
C2352 H2346 0.950 . S
C2352 C2353 1.327 . S
C2353 H2347 0.950 . S
C2353 C2352 1.327 . S
C2353 C2357 1.429 . S
C2354 C2337 1.574 . S
C2354 H2348 0.949 . S
C2354 C2358 1.368 . S
C2355 C2336 1.429 . S
C2355 C2349 1.429 . S
C2355 C2356 1.523 . S
C2356 C2337 1.368 . S
C2356 C2350 1.368 . S
C2356 C2355 1.523 . S
C2357 C2341 1.429 . S
C2357 C2353 1.429 . S
C2357 C2358 1.523 . S
C2358 C2342 1.368 . S
C2358 C2354 1.368 . S
C2358 C2357 1.523 . S
H2359 C2334 0.950 . S
H2360 C2336 0.950 . S
H2361 C2337 0.949 . S
H2362 C2339 0.950 . S
H2363 C2341 0.950 . S
C2364 C2365 1.349 . S
C2364 C2366 1.327 . S
C2364 H2389 0.950 . S
C2365 C2364 1.349 . S
C2365 C2381 1.349 . S
C2366 C2364 1.327 . S
C2366 C2385 1.429 . S
C2366 H2390 0.950 . S
C2367 C2384 1.574 . S
C2367 C2386 1.368 . S
C2367 H2391 0.949 . S
H2368 C2372 0.949 . S
C2369 C2370 1.349 . S
C2369 C2371 1.327 . S
C2369 H2392 0.950 . S
C2370 C2369 1.349 . S
C2370 C2382 1.349 . S
C2371 C2369 1.327 . S
C2371 C2387 1.429 . S
C2371 H2393 0.950 . S
C2372 H2368 0.949 . S
C2372 C2380 1.574 . S
C2372 C2388 1.368 . S
H2373 C2381 0.950 . S
H2374 C2379 0.950 . S
H2375 C2380 0.949 . S
H2376 C2382 0.950 . S
H2377 C2383 0.950 . S
H2378 C2384 0.949 . S
C2379 H2374 0.950 . S
C2379 C2381 1.327 . S
C2379 C2385 1.429 . S
C2380 C2372 1.574 . S
C2380 H2375 0.949 . S
C2380 C2386 1.368 . S
C2381 C2365 1.349 . S
C2381 H2373 0.950 . S
C2381 C2379 1.327 . S
C2382 C2370 1.349 . S
C2382 H2376 0.950 . S
C2382 C2383 1.327 . S
C2383 H2377 0.950 . S
C2383 C2382 1.327 . S
C2383 C2387 1.429 . S
C2384 C2367 1.574 . S
C2384 H2378 0.949 . S
C2384 C2388 1.368 . S
C2385 C2366 1.429 . S
C2385 C2379 1.429 . S
C2385 C2386 1.523 . S
C2386 C2367 1.368 . S
C2386 C2380 1.368 . S
C2386 C2385 1.523 . S
C2387 C2371 1.429 . S
C2387 C2383 1.429 . S
C2387 C2388 1.523 . S
C2388 C2372 1.368 . S
C2388 C2384 1.368 . S
C2388 C2387 1.523 . S
H2389 C2364 0.950 . S
H2390 C2366 0.950 . S
H2391 C2367 0.949 . S
H2392 C2369 0.950 . S
H2393 C2371 0.950 . S
C2394 C2395 1.349 . S
C2394 C2396 1.327 . S
C2394 H2419 0.950 . S
C2395 C2394 1.349 . S
C2395 C2411 1.349 . S
C2396 C2394 1.327 . S
C2396 C2415 1.429 . S
C2396 H2420 0.950 . S
C2397 C2414 1.574 . S
C2397 C2416 1.368 . S
C2397 H2421 0.949 . S
H2398 C2402 0.949 . S
C2399 C2400 1.349 . S
C2399 C2401 1.327 . S
C2399 H2422 0.950 . S
C2400 C2399 1.349 . S
C2400 C2412 1.349 . S
C2401 C2399 1.327 . S
C2401 C2417 1.429 . S
C2401 H2423 0.950 . S
C2402 H2398 0.949 . S
C2402 C2410 1.574 . S
C2402 C2418 1.368 . S
H2403 C2411 0.950 . S
H2404 C2409 0.950 . S
H2405 C2410 0.949 . S
H2406 C2412 0.950 . S
H2407 C2413 0.950 . S
H2408 C2414 0.949 . S
C2409 H2404 0.950 . S
C2409 C2411 1.327 . S
C2409 C2415 1.429 . S
C2410 C2402 1.574 . S
C2410 H2405 0.949 . S
C2410 C2416 1.368 . S
C2411 C2395 1.349 . S
C2411 H2403 0.950 . S
C2411 C2409 1.327 . S
C2412 C2400 1.349 . S
C2412 H2406 0.950 . S
C2412 C2413 1.327 . S
C2413 H2407 0.950 . S
C2413 C2412 1.327 . S
C2413 C2417 1.429 . S
C2414 C2397 1.574 . S
C2414 H2408 0.949 . S
C2414 C2418 1.368 . S
C2415 C2396 1.429 . S
C2415 C2409 1.429 . S
C2415 C2416 1.523 . S
C2416 C2397 1.368 . S
C2416 C2410 1.368 . S
C2416 C2415 1.523 . S
C2417 C2401 1.429 . S
C2417 C2413 1.429 . S
C2417 C2418 1.523 . S
C2418 C2402 1.368 . S
C2418 C2414 1.368 . S
C2418 C2417 1.523 . S
H2419 C2394 0.950 . S
H2420 C2396 0.950 . S
H2421 C2397 0.949 . S
H2422 C2399 0.950 . S
H2423 C2401 0.950 . S
C2424 C2425 1.349 . S
C2424 C2426 1.327 . S
C2424 H2449 0.950 . S
C2425 C2424 1.349 . S
C2425 C2441 1.349 . S
C2426 C2424 1.327 . S
C2426 C2445 1.429 . S
C2426 H2450 0.950 . S
C2427 C2444 1.574 . S
C2427 C2446 1.368 . S
C2427 H2451 0.949 . S
H2428 C2432 0.949 . S
C2429 C2430 1.349 . S
C2429 C2431 1.327 . S
C2429 H2452 0.950 . S
C2430 C2429 1.349 . S
C2430 C2442 1.349 . S
C2431 C2429 1.327 . S
C2431 C2447 1.429 . S
C2431 H2453 0.950 . S
C2432 H2428 0.949 . S
C2432 C2440 1.574 . S
C2432 C2448 1.368 . S
H2433 C2441 0.950 . S
H2434 C2439 0.950 . S
H2435 C2440 0.949 . S
H2436 C2442 0.950 . S
H2437 C2443 0.950 . S
H2438 C2444 0.949 . S
C2439 H2434 0.950 . S
C2439 C2441 1.327 . S
C2439 C2445 1.429 . S
C2440 C2432 1.574 . S
C2440 H2435 0.949 . S
C2440 C2446 1.368 . S
C2441 C2425 1.349 . S
C2441 H2433 0.950 . S
C2441 C2439 1.327 . S
C2442 C2430 1.349 . S
C2442 H2436 0.950 . S
C2442 C2443 1.327 . S
C2443 H2437 0.950 . S
C2443 C2442 1.327 . S
C2443 C2447 1.429 . S
C2444 C2427 1.574 . S
C2444 H2438 0.949 . S
C2444 C2448 1.368 . S
C2445 C2426 1.429 . S
C2445 C2439 1.429 . S
C2445 C2446 1.523 . S
C2446 C2427 1.368 . S
C2446 C2440 1.368 . S
C2446 C2445 1.523 . S
C2447 C2431 1.429 . S
C2447 C2443 1.429 . S
C2447 C2448 1.523 . S
C2448 C2432 1.368 . S
C2448 C2444 1.368 . S
C2448 C2447 1.523 . S
H2449 C2424 0.950 . S
H2450 C2426 0.950 . S
H2451 C2427 0.949 . S
H2452 C2429 0.950 . S
H2453 C2431 0.950 . S
C2454 C2455 1.349 . S
C2454 C2456 1.327 . S
C2454 H2479 0.950 . S
C2455 C2454 1.349 . S
C2455 C2471 1.349 . S
C2456 C2454 1.327 . S
C2456 C2475 1.429 . S
C2456 H2480 0.950 . S
C2457 C2474 1.574 . S
C2457 C2476 1.368 . S
C2457 H2481 0.949 . S
H2458 C2462 0.949 . S
C2459 C2460 1.349 . S
C2459 C2461 1.327 . S
C2459 H2482 0.950 . S
C2460 C2459 1.349 . S
C2460 C2472 1.349 . S
C2461 C2459 1.327 . S
C2461 C2477 1.429 . S
C2461 H2483 0.950 . S
C2462 H2458 0.949 . S
C2462 C2470 1.574 . S
C2462 C2478 1.368 . S
H2463 C2471 0.950 . S
H2464 C2469 0.950 . S
H2465 C2470 0.949 . S
H2466 C2472 0.950 . S
H2467 C2473 0.950 . S
H2468 C2474 0.949 . S
C2469 H2464 0.950 . S
C2469 C2471 1.327 . S
C2469 C2475 1.429 . S
C2470 C2462 1.574 . S
C2470 H2465 0.949 . S
C2470 C2476 1.368 . S
C2471 C2455 1.349 . S
C2471 H2463 0.950 . S
C2471 C2469 1.327 . S
C2472 C2460 1.349 . S
C2472 H2466 0.950 . S
C2472 C2473 1.327 . S
C2473 H2467 0.950 . S
C2473 C2472 1.327 . S
C2473 C2477 1.429 . S
C2474 C2457 1.574 . S
C2474 H2468 0.949 . S
C2474 C2478 1.368 . S
C2475 C2456 1.429 . S
C2475 C2469 1.429 . S
C2475 C2476 1.523 . S
C2476 C2457 1.368 . S
C2476 C2470 1.368 . S
C2476 C2475 1.523 . S
C2477 C2461 1.429 . S
C2477 C2473 1.429 . S
C2477 C2478 1.523 . S
C2478 C2462 1.368 . S
C2478 C2474 1.368 . S
C2478 C2477 1.523 . S
H2479 C2454 0.950 . S
H2480 C2456 0.950 . S
H2481 C2457 0.949 . S
H2482 C2459 0.950 . S
H2483 C2461 0.950 . S
C2484 C2485 1.349 . S
C2484 C2486 1.327 . S
C2484 H2509 0.950 . S
C2485 C2484 1.349 . S
C2485 C2501 1.349 . S
C2486 C2484 1.327 . S
C2486 C2505 1.429 . S
C2486 H2510 0.950 . S
C2487 C2504 1.574 1_556 S
C2487 C2506 1.368 1_655 S
C2487 H2511 0.949 . S
H2488 C2492 0.949 . S
C2489 C2490 1.349 . S
C2489 C2491 1.327 . S
C2489 H2512 0.950 . S
C2490 C2489 1.349 . S
C2490 C2502 1.349 . S
C2491 C2489 1.327 . S
C2491 C2507 1.429 . S
C2491 H2513 0.950 . S
C2492 H2488 0.949 . S
C2492 C2500 1.574 1_554 S
C2492 C2508 1.368 1_455 S
H2493 C2501 0.950 . S
H2494 C2499 0.950 . S
H2495 C2500 0.949 . S
H2496 C2502 0.950 . S
H2497 C2503 0.950 . S
H2498 C2504 0.949 . S
C2499 H2494 0.950 . S
C2499 C2501 1.327 . S
C2499 C2505 1.429 . S
C2500 C2492 1.574 1_556 S
C2500 H2495 0.949 . S
C2500 C2506 1.368 . S
C2501 C2485 1.349 . S
C2501 H2493 0.950 . S
C2501 C2499 1.327 . S
C2502 C2490 1.349 . S
C2502 H2496 0.950 . S
C2502 C2503 1.327 . S
C2503 H2497 0.950 . S
C2503 C2502 1.327 . S
C2503 C2507 1.429 . S
C2504 C2487 1.574 1_554 S
C2504 H2498 0.949 . S
C2504 C2508 1.368 . S
C2505 C2486 1.429 . S
C2505 C2499 1.429 . S
C2505 C2506 1.523 . S
C2506 C2487 1.368 1_455 S
C2506 C2500 1.368 . S
C2506 C2505 1.523 . S
C2507 C2491 1.429 . S
C2507 C2503 1.429 . S
C2507 C2508 1.523 . S
C2508 C2492 1.368 1_655 S
C2508 C2504 1.368 . S
C2508 C2507 1.523 . S
H2509 C2484 0.950 . S
H2510 C2486 0.950 . S
H2511 C2487 0.949 . S
H2512 C2489 0.950 . S
H2513 C2491 0.950 . S
C2514 C2515 1.349 . S
C2514 C2516 1.327 . S
C2514 H2539 0.950 . S
C2515 C2514 1.349 . S
C2515 C2531 1.349 . S
C2516 C2514 1.327 . S
C2516 C2535 1.429 . S
C2516 H2540 0.950 . S
C2517 C2534 1.574 1_554 S
C2517 C2536 1.368 . S
C2517 H2541 0.949 . S
H2518 C2522 0.949 . S
C2519 C2520 1.349 . S
C2519 C2521 1.327 . S
C2519 H2542 0.950 . S
C2520 C2519 1.349 . S
C2520 C2532 1.349 . S
C2521 C2519 1.327 . S
C2521 C2537 1.429 . S
C2521 H2543 0.950 . S
C2522 H2518 0.949 . S
C2522 C2530 1.574 1_556 S
C2522 C2538 1.368 . S
H2523 C2531 0.950 . S
H2524 C2529 0.950 . S
H2525 C2530 0.949 . S
H2526 C2532 0.950 . S
H2527 C2533 0.950 . S
H2528 C2534 0.949 . S
C2529 H2524 0.950 . S
C2529 C2531 1.327 . S
C2529 C2535 1.429 . S
C2530 C2522 1.574 1_554 S
C2530 H2525 0.949 . S
C2530 C2536 1.368 . S
C2531 C2515 1.349 . S
C2531 H2523 0.950 . S
C2531 C2529 1.327 . S
C2532 C2520 1.349 . S
C2532 H2526 0.950 . S
C2532 C2533 1.327 . S
C2533 H2527 0.950 . S
C2533 C2532 1.327 . S
C2533 C2537 1.429 . S
C2534 C2517 1.574 1_556 S
C2534 H2528 0.949 . S
C2534 C2538 1.368 . S
C2535 C2516 1.429 . S
C2535 C2529 1.429 . S
C2535 C2536 1.523 . S
C2536 C2517 1.368 . S
C2536 C2530 1.368 . S
C2536 C2535 1.523 . S
C2537 C2521 1.429 . S
C2537 C2533 1.429 . S
C2537 C2538 1.523 . S
C2538 C2522 1.368 . S
C2538 C2534 1.368 . S
C2538 C2537 1.523 . S
H2539 C2514 0.950 . S
H2540 C2516 0.950 . S
H2541 C2517 0.949 . S
H2542 C2519 0.950 . S
H2543 C2521 0.950 . S
C2544 C2545 1.349 . S
C2544 C2546 1.327 . S
C2544 H2569 0.950 . S
C2545 C2544 1.349 . S
C2545 C2561 1.349 . S
C2546 C2544 1.327 . S
C2546 C2565 1.429 . S
C2546 H2570 0.950 . S
C2547 C2564 1.574 . S
C2547 C2566 1.368 1_565 S
C2547 H2571 0.949 . S
H2548 C2552 0.949 . S
C2549 C2550 1.349 . S
C2549 C2551 1.327 . S
C2549 H2572 0.950 . S
C2550 C2549 1.349 . S
C2550 C2562 1.349 . S
C2551 C2549 1.327 . S
C2551 C2567 1.429 . S
C2551 H2573 0.950 . S
C2552 H2548 0.949 . S
C2552 C2560 1.574 . S
C2552 C2568 1.368 1_545 S
H2553 C2561 0.950 . S
H2554 C2559 0.950 . S
H2555 C2560 0.949 . S
H2556 C2562 0.950 . S
H2557 C2563 0.950 . S
H2558 C2564 0.949 . S
C2559 H2554 0.950 . S
C2559 C2561 1.327 . S
C2559 C2565 1.429 . S
C2560 C2552 1.574 . S
C2560 H2555 0.949 . S
C2560 C2566 1.368 1_556 S
C2561 C2545 1.349 . S
C2561 H2553 0.950 . S
C2561 C2559 1.327 . S
C2562 C2550 1.349 . S
C2562 H2556 0.950 . S
C2562 C2563 1.327 . S
C2563 H2557 0.950 . S
C2563 C2562 1.327 . S
C2563 C2567 1.429 . S
C2564 C2547 1.574 . S
C2564 H2558 0.949 . S
C2564 C2568 1.368 1_554 S
C2565 C2546 1.429 . S
C2565 C2559 1.429 . S
C2565 C2566 1.523 . S
C2566 C2547 1.368 1_545 S
C2566 C2560 1.368 1_554 S
C2566 C2565 1.523 . S
C2567 C2551 1.429 . S
C2567 C2563 1.429 . S
C2567 C2568 1.523 . S
C2568 C2552 1.368 1_565 S
C2568 C2564 1.368 1_556 S
C2568 C2567 1.523 . S
H2569 C2544 0.950 . S
H2570 C2546 0.950 . S
H2571 C2547 0.949 . S
H2572 C2549 0.950 . S
H2573 C2551 0.950 . S
C2574 C2575 1.349 . S
C2574 C2576 1.327 . S
C2574 H2599 0.950 . S
C2575 C2574 1.349 . S
C2575 C2591 1.349 . S
C2576 C2574 1.327 . S
C2576 C2595 1.429 . S
C2576 H2600 0.950 . S
C2577 C2594 1.595 . S
C2577 C2596 1.368 1_545 S
C2577 H2601 0.949 . S
H2578 C2582 0.949 . S
C2579 C2580 1.349 . S
C2579 C2581 1.327 . S
C2579 H2602 0.950 . S
C2580 C2579 1.349 . S
C2580 C2592 1.349 . S
C2581 C2579 1.327 . S
C2581 C2597 1.429 . S
C2581 H2603 0.950 . S
C2582 H2578 0.949 . S
C2582 C2590 1.590 . S
C2582 C2598 1.368 1_565 S
H2583 C2591 0.950 . S
H2584 C2589 0.950 . S
H2585 C2590 0.949 . S
H2586 C2592 0.950 . S
H2587 C2593 0.950 . S
H2588 C2594 0.949 . S
C2589 H2584 0.950 . S
C2589 C2591 1.327 . S
C2589 C2595 1.429 . S
C2590 C2582 1.590 . S
C2590 H2585 0.949 . S
C2590 C2596 1.353 1_554 S
C2591 C2575 1.349 . S
C2591 H2583 0.950 . S
C2591 C2589 1.327 . S
C2592 C2580 1.349 . S
C2592 H2586 0.950 . S
C2592 C2593 1.327 . S
C2593 H2587 0.950 . S
C2593 C2592 1.327 . S
C2593 C2597 1.429 . S
C2594 C2577 1.595 . S
C2594 H2588 0.949 . S
C2594 C2598 1.348 1_556 S
C2595 C2576 1.429 . S
C2595 C2589 1.429 . S
C2595 C2596 1.523 . S
C2596 C2577 1.368 1_565 S
C2596 C2590 1.353 1_556 S
C2596 C2595 1.523 . S
C2597 C2581 1.429 . S
C2597 C2593 1.429 . S
C2597 C2598 1.523 . S
C2598 C2582 1.368 1_545 S
C2598 C2594 1.348 1_554 S
C2598 C2597 1.523 . S
H2599 C2574 0.950 . S
H2600 C2576 0.950 . S
H2601 C2577 0.949 . S
H2602 C2579 0.950 . S
H2603 C2581 0.950 . S
C2604 C2605 1.349 . S
C2604 C2606 1.327 . S
C2604 H2629 0.950 . S
C2605 C2604 1.349 . S
C2605 C2621 1.349 . S
C2606 C2604 1.327 . S
C2606 C2625 1.429 . S
C2606 H2630 0.950 . S
C2607 C2624 1.574 1_456 S
C2607 C2626 1.368 . S
C2607 H2631 0.949 . S
H2608 C2612 0.949 . S
C2609 C2610 1.349 . S
C2609 C2611 1.327 . S
C2609 H2632 0.950 . S
C2610 C2609 1.349 . S
C2610 C2622 1.349 . S
C2611 C2609 1.327 . S
C2611 C2627 1.429 . S
C2611 H2633 0.950 . S
C2612 H2608 0.949 . S
C2612 C2620 1.574 1_654 S
C2612 C2628 1.368 . S
H2613 C2621 0.950 . S
H2614 C2619 0.950 . S
H2615 C2620 0.949 . S
H2616 C2622 0.950 . S
H2617 C2623 0.950 . S
H2618 C2624 0.949 . S
C2619 H2614 0.950 . S
C2619 C2621 1.327 . S
C2619 C2625 1.429 . S
C2620 C2612 1.574 1_456 S
C2620 H2615 0.949 . S
C2620 C2626 1.368 . S
C2621 C2605 1.349 . S
C2621 H2613 0.950 . S
C2621 C2619 1.327 . S
C2622 C2610 1.349 . S
C2622 H2616 0.950 . S
C2622 C2623 1.327 . S
C2623 H2617 0.950 . S
C2623 C2622 1.327 . S
C2623 C2627 1.429 . S
C2624 C2607 1.574 1_654 S
C2624 H2618 0.949 . S
C2624 C2628 1.368 . S
C2625 C2606 1.429 . S
C2625 C2619 1.429 . S
C2625 C2626 1.523 . S
C2626 C2607 1.368 . S
C2626 C2620 1.368 . S
C2626 C2625 1.523 . S
C2627 C2611 1.429 . S
C2627 C2623 1.429 . S
C2627 C2628 1.523 . S
C2628 C2612 1.368 . S
C2628 C2624 1.368 . S
C2628 C2627 1.523 . S
H2629 C2604 0.950 . S
H2630 C2606 0.950 . S
H2631 C2607 0.949 . S
H2632 C2609 0.950 . S
H2633 C2611 0.950 . S
C2634 C2635 1.349 . S
C2634 C2636 1.327 . S
C2634 H2659 0.950 . S
C2635 C2634 1.349 . S
C2635 C2651 1.349 . S
C2636 C2634 1.327 . S
C2636 C2655 1.429 . S
C2636 H2660 0.950 . S
C2637 C2654 1.574 . S
C2637 C2656 1.368 . S
C2637 H2661 0.949 . S
H2638 C2642 0.949 . S
C2639 C2640 1.349 . S
C2639 C2641 1.327 . S
C2639 H2662 0.950 . S
C2640 C2639 1.349 . S
C2640 C2652 1.349 . S
C2641 C2639 1.327 . S
C2641 C2657 1.429 . S
C2641 H2663 0.950 . S
C2642 H2638 0.949 . S
C2642 C2650 1.574 . S
C2642 C2658 1.368 . S
H2643 C2651 0.950 . S
H2644 C2649 0.950 . S
H2645 C2650 0.950 . S
H2646 C2652 0.950 . S
H2647 C2653 0.950 . S
H2648 C2654 0.950 . S
C2649 H2644 0.950 . S
C2649 C2651 1.327 . S
C2649 C2655 1.429 . S
C2650 C2642 1.574 . S
C2650 H2645 0.950 . S
C2650 C2656 1.368 1_556 S
C2651 C2635 1.349 . S
C2651 H2643 0.950 . S
C2651 C2649 1.327 . S
C2652 C2640 1.349 . S
C2652 H2646 0.950 . S
C2652 C2653 1.327 . S
C2653 H2647 0.950 . S
C2653 C2652 1.327 . S
C2653 C2657 1.429 . S
C2654 C2637 1.574 . S
C2654 H2648 0.950 . S
C2654 C2658 1.368 1_554 S
C2655 C2636 1.429 . S
C2655 C2649 1.429 . S
C2655 C2656 1.523 . S
C2656 C2637 1.368 . S
C2656 C2650 1.368 1_554 S
C2656 C2655 1.523 . S
C2657 C2641 1.429 . S
C2657 C2653 1.429 . S
C2657 C2658 1.523 . S
C2658 C2642 1.368 . S
C2658 C2654 1.368 1_556 S
C2658 C2657 1.523 . S
H2659 C2634 0.950 . S
H2660 C2636 0.950 . S
H2661 C2637 0.949 . S
H2662 C2639 0.950 . S
H2663 C2641 0.950 . S
C505 C12 0.963 . S
C510 C166 0.963 . S
C535 C26 0.962 . S
C540 C138 0.962 . S
C565 C152 0.963 . S
C570 C40 0.963 . S
C595 C54 0.962 . S
C600 C110 0.962 . S
C625 C124 0.963 . S
C630 C68 0.963 . S
C655 C82 0.963 . S
C660 C96 0.963 . S
C685 C334 0.962 . S
C690 C180 0.962 . S
C715 C194 0.963 . S
C720 C306 0.963 . S
C745 C208 0.963 . S
C750 C320 0.963 . S
C775 C278 0.962 . S
C780 C222 0.962 . S
C805 C236 0.963 . S
C810 C292 0.963 . S
C835 C264 0.962 . S
C840 C250 0.962 . S
C865 C348 0.962 . S
C870 C502 0.962 . S
C895 C474 0.962 . S
C900 C362 0.962 . S
C925 C488 0.963 . S
C930 C376 0.963 . S
C955 C446 0.963 . S
C960 C390 0.962 . S
C985 C460 0.963 . S
C990 C404 0.963 . S
C1015 C432 0.962 . S
C1020 C418 0.962 . S
C1045 C5 0.948 . S
C1050 C61 0.948 . S
C1075 C75 0.947 . S
C1080 C19 0.947 . S
C1105 C33 0.948 . S
C1110 C47 0.948 . S
C1135 C89 0.948 . S
C1140 C145 0.948 . S
C1165 C103 0.947 . S
C1170 C159 0.947 . S
C1195 C117 0.948 . S
C1200 C131 0.948 . S
C1225 C229 0.948 . S
C1230 C173 0.948 . S
C1255 C243 0.947 . S
C1260 C187 0.947 . S
C1285 C201 0.948 . S
C1290 C215 0.948 . S
C1315 C313 0.948 . S
C1320 C257 0.948 . S
C1345 C327 0.947 . S
C1350 C271 0.947 . S
C1375 C285 0.948 . S
C1380 C299 0.948 . S
C1405 C397 0.948 . S
C1410 C341 0.948 . S
C1435 C355 0.947 . S
C1440 C411 0.947 . S
C1465 C369 0.948 . S
C1470 C383 0.948 . S
C1495 C481 0.948 . S
C1500 C425 0.948 . S
C1525 C439 0.947 . S
C1530 C495 0.947 . S
C1555 C467 0.948 . S
C1560 C453 0.948 . S
C1585 C410 1.361 . S
C1590 C4 1.361 1_556 S
C1615 C18 1.361 1_556 S
C1620 C382 1.361 . S
C1645 C32 1.361 1_556 S
C1650 C396 1.361 . S
C1675 C46 1.361 1_554 S
C1680 C186 1.361 . S
C1705 C200 1.361 . S
C1710 C60 1.361 1_554 S
C1735 C172 1.361 . S
C1740 C74 1.361 1_554 S
C1765 C88 1.361 1_554 S
C1770 C326 1.361 . S
C1795 C102 1.361 1_554 S
C1800 C298 1.361 . S
C1825 C116 1.361 1_554 S
C1830 C312 1.361 . S
C1855 C438 1.361 . S
C1860 C130 1.361 1_556 S
C1885 C452 1.361 . S
C1890 C144 1.361 1_556 S
C1915 C158 1.361 1_556 S
C1920 C424 1.361 . S
C1945 C354 1.361 . S
C1950 C214 1.361 . S
C1975 C228 1.360 . S
C1980 C368 1.360 . S
C2005 C340 1.361 . S
C2010 C242 1.361 . S
C2035 C494 1.361 . S
C2040 C256 1.361 . S
C2065 C270 1.361 . S
C2070 C466 1.361 . S
C2095 C284 1.360 . S
C2100 C480 1.360 . S
C2125 C11 1.602 . S
C2130 C417 1.602 . S
C2155 C389 1.602 . S
C2160 C25 1.602 . S
C2185 C39 1.602 . S
C2190 C403 1.602 . S
C2215 C193 1.602 . S
C2220 C53 1.602 . S
C2245 C67 1.602 . S
C2250 C207 1.602 . S
C2275 C81 1.602 . S
C2280 C179 1.602 . S
C2305 C333 1.602 . S
C2310 C95 1.602 . S
C2335 C109 1.602 . S
C2340 C305 1.602 . S
C2365 C123 1.602 . S
C2370 C319 1.602 . S
C2395 C137 1.602 . S
C2400 C445 1.602 . S
C2425 C459 1.602 . S
C2430 C151 1.602 . S
C2455 C165 1.602 . S
C2460 C431 1.602 . S
C2485 C361 1.602 . S
C2490 C221 1.602 . S
C2515 C235 1.603 . S
C2520 C375 1.603 . S
C2545 C249 1.602 . S
C2550 C347 1.602 . S
C2575 C501 1.602 . S
C2580 C263 1.602 . S
C2605 C473 1.602 . S
C2610 C277 1.602 . S
C2635 C291 1.603 . S
C2640 C487 1.603 . S
