# Generated by pormake.
# Topology sma, (6)-cn, num edge types: 1
# Building blocks:
#     Node 0, Type 0, BuildingBlock: BETDEL_clean_sbu_0, # of connection points: 6
#     Node 1, Type 0, BuildingBlock: BETDEL_clean_sbu_0, # of connection points: 6
#     Node 2, Type 0, BuildingBlock: BETDEL_clean_sbu_0, # of connection points: 6
#     Edge 3, Type (0, 0), BuildingBlock: TEMPAE_clean_linker_10, # of connection points: 2
#     Edge 4, Type (0, 0), BuildingBlock: TEMPAE_clean_linker_10, # of connection points: 2
#     Edge 5, Type (0, 0), BuildingBlock: TEMPAE_clean_linker_10, # of connection points: 2
#     Edge 6, Type (0, 0), BuildingBlock: TEMPAE_clean_linker_10, # of connection points: 2
#     Edge 7, Type (0, 0), BuildingBlock: TEMPAE_clean_linker_10, # of connection points: 2
#     Edge 8, Type (0, 0), BuildingBlock: TEMPAE_clean_linker_10, # of connection points: 2
#     Edge 9, Type (0, 0), BuildingBlock: TEMPAE_clean_linker_10, # of connection points: 2
#     Edge 10, Type (0, 0), BuildingBlock: TEMPAE_clean_linker_10, # of connection points: 2
#     Edge 11, Type (0, 0), BuildingBlock: TEMPAE_clean_linker_10, # of connection points: 2
# Relax obj value: 0.131
# Max RMSD: 0.205
# Mean RMSD: 0.205
data_MOF--net-sma--node1-BETDEL_clean_sbu_0--edge1-TEMPAE_clean_linker_10
_symmetry_space_group_name_H-M    P1
_symmetry_Int_Tables_number       1
_symmetry_cell_setting            triclinic
loop_
_symmetry_equiv_pos_as_xyz
'x, y, z'
_cell_length_a     31.892079
_cell_length_b     32.056697
_cell_length_c     13.971802
_cell_angle_alpha  90.451976
_cell_angle_beta   89.90459
_cell_angle_gamma 119.71897
loop_
_atom_site_label
_atom_site_type_symbol
_atom_site_fract_x
_atom_site_fract_y
_atom_site_fract_z
_atom_type_partial_charge
Dy0 Dy 0.08445 0.51879 0.12014 0.0
C1 C 0.9423 0.58426 0.13468 0.0
C2 C 0.14454 0.48765 0.04979 0.0
Dy3 Dy 1.00564 0.54967 0.13755 0.0
O4 O 0.14592 0.50377 0.13603 0.0
O5 O 0.10917 0.48713 0.00246 0.0
O6 O 0.12085 0.55766 0.25577 0.0
O7 O 0.04671 0.53132 0.23436 0.0
C8 C 0.08215 0.55724 0.28714 0.0
C9 C 1.01283 0.5128 -0.03122 0.0
O10 O 0.07464 0.62013 0.15447 0.0
O11 O 0.12554 0.59676 0.08162 0.0
O12 O 0.97881 0.597 0.0779 0.0
O13 O 0.9419 0.55425 0.19758 0.0
O14 O 0.97244 0.50366 0.00785 0.0
O15 O 0.04647 0.54068 0.02303 0.0
O16 O 1.01748 0.44825 0.16039 0.0
O17 O 0.96781 0.47874 0.21046 0.0
C18 C 0.11728 0.63045 0.11809 0.0
C19 C 0.97748 0.44297 0.20274 0.0
Dy20 Dy 0.49646 0.99182 0.44708 0.0
C21 C 0.69273 0.14765 0.4577 0.0
C22 C 0.41161 0.92256 0.36798 0.0
Dy23 Dy 0.60565 0.06573 0.47506 0.0
O24 O 0.42781 0.92047 0.452 0.0
O25 O 0.4416 0.9628 0.32732 0.0
O26 O 0.4769 1.00193 0.59358 0.0
O27 O 0.54692 1.01353 0.56515 0.0
C28 C 0.52015 1.01696 0.62754 0.0
C29 C 0.57593 0.02776 0.30288 0.0
O30 O 0.60878 1.00023 0.51676 0.0
O31 O 0.53384 0.94683 0.44873 0.0
O32 O 0.65381 0.13658 0.40982 0.0
O33 O 0.68402 0.11416 0.52052 0.0
O34 O 0.61718 0.03686 0.33744 0.0
O35 O 0.55432 0.04138 0.3587 0.0
O36 O 0.4926 0.05982 0.46029 0.0
O37 O 0.56964 0.10679 0.52545 0.0
C38 C 0.57576 0.95614 0.48873 0.0
C39 C 0.52612 0.09972 0.50319 0.0
Dy40 Dy 0.55319 0.5743 0.79688 0.0
C41 C 0.49226 0.37095 0.78171 0.0
C42 C 0.5829 0.66632 0.73915 0.0
Dy43 Dy 0.52684 0.46758 0.80325 0.0
O44 O 0.56082 0.64742 0.81875 0.0
O45 O 0.59018 0.63534 0.6922 0.0
O46 O 0.51617 0.5682 0.93473 0.0
O47 O 0.54695 0.52503 0.90876 0.0
C48 C 0.52276 0.53411 -0.03194 0.0
C49 C 0.56608 0.51581 0.64352 0.0
O50 O 0.45538 0.46405 0.82912 0.0
O51 O 0.4748 0.53657 0.75841 0.0
O52 O 0.48248 0.39748 0.7269 0.0
O53 O 0.51928 0.39693 0.85298 0.0
O54 O 0.57525 0.4837 0.6766 0.0
O55 O 0.53456 0.51815 0.69311 0.0
O56 O 0.62579 0.58055 0.83398 0.0
O57 O 0.60093 0.50002 0.86656 0.0
C58 C 0.44263 0.49488 0.7957 0.0
C59 C 0.63483 0.54615 0.86352 0.0
C60 C 0.17933 0.46346 0.91299 0.0
C61 C 0.18231 0.47887 0.00822 0.0
C62 C 0.21769 0.46018 0.87037 0.0
C63 C 0.26025 0.47333 0.92389 0.0
C64 C 0.26266 0.48745 0.02103 0.0
C65 C 0.22359 0.48974 0.06205 0.0
C66 C 0.21331 0.44419 0.76723 0.0
C67 C 0.30739 0.50222 0.08066 0.0
C68 C 0.35718 0.44249 0.85215 0.0
C69 C 0.39288 0.48617 0.81381 0.0
C70 C 0.3126 0.43676 0.88333 0.0
C71 C 0.30373 0.47582 0.87747 0.0
C72 C 0.33869 0.51917 0.83466 0.0
C73 C 0.38255 0.52367 0.8028 0.0
C74 C 0.27594 0.38962 0.92665 0.0
C75 C 0.33103 0.56192 0.82757 0.0
H76 H 0.14747 0.45499 0.87108 0.0
H77 H 0.22615 0.50177 0.13563 0.0
H78 H 0.23872 0.47487 0.7226 0.0
H79 H 0.22329 0.41573 0.75968 0.0
H80 H 0.17619 0.43033 0.73873 0.0
H81 H 0.30278 0.51036 0.1561 0.0
H82 H 0.31692 0.47331 0.08013 0.0
H83 H 0.33831 0.53462 0.04942 0.0
H84 H 0.36457 0.41317 0.86063 0.0
H85 H 0.40971 0.55764 0.77348 0.0
H86 H 0.23957 0.37759 0.89616 0.0
H87 H 0.27376 0.39435 0.0049 0.0
H88 H 0.28539 0.36097 0.91462 0.0
H89 H 0.29591 0.55137 0.79273 0.0
H90 H 0.36012 0.59183 0.78649 0.0
H91 H 0.32993 0.5753 0.90051 0.0
C92 C 0.78284 0.20186 0.48127 0.0
C93 C 0.73998 0.18942 0.43171 0.0
C94 C 0.82716 0.24124 0.45164 0.0
C95 C 0.82838 0.26813 0.37031 0.0
C96 C 0.78517 0.25493 0.31964 0.0
C97 C 0.74177 0.21617 0.35123 0.0
C98 C 0.87246 0.25452 0.50786 0.0
C99 C 0.78446 0.28226 0.23249 0.0
C100 C 0.91679 0.39954 0.32991 0.0
C101 C 0.94433 0.39778 0.25304 0.0
C102 C 0.88172 0.3576 0.37427 0.0
C103 C 0.8734 0.31237 0.34069 0.0
C104 C 0.90325 0.31039 0.2673 0.0
C105 C 0.93863 0.35325 0.22453 0.0
C106 C 0.85126 0.36175 0.45263 0.0
C107 C 0.89571 0.26293 0.22963 0.0
H108 H 0.7817 0.1811 0.54306 0.0
H109 H 0.70894 0.20665 0.31182 0.0
H110 H 0.90103 0.25653 0.45953 0.0
H111 H 0.88632 0.29062 0.54075 0.0
H112 H 0.86617 0.22837 0.56547 0.0
H113 H 0.74826 0.26575 0.19821 0.0
H114 H 0.79527 0.31977 0.25307 0.0
H115 H 0.81081 0.2838 0.17871 0.0
H116 H 0.92183 0.43392 0.35441 0.0
H117 H 0.96018 0.35168 0.16601 0.0
H118 H 0.84722 0.33786 0.51314 0.0
H119 H 0.81459 0.35025 0.42432 0.0
H120 H 0.86689 0.39913 0.48026 0.0
H121 H 0.89073 0.23834 0.28943 0.0
H122 H 0.92647 0.26738 0.18487 0.0
H123 H 0.86242 0.24554 0.18531 0.0
C124 C 0.54523 0.86764 0.50031 0.0
C125 C 0.58309 0.91502 0.51246 0.0
C126 C 0.54929 0.82845 0.53296 0.0
C127 C 0.59244 0.8366 0.57826 0.0
C128 C 0.6316 0.88412 0.58693 0.0
C129 C 0.62641 0.92275 0.55433 0.0
C130 C 0.50654 0.77841 0.52261 0.0
C131 C 0.67838 0.89431 0.63382 0.0
C132 C 0.57788 0.74124 0.75633 0.0
C133 C 0.59097 0.71274 0.70138 0.0
C134 C 0.57968 0.78247 0.71799 0.0
C135 C 0.59505 0.79563 0.62228 0.0
C136 C 0.61004 0.76794 0.5676 0.0
C137 C 0.60772 0.72672 0.60778 0.0
C138 C 0.56328 0.81087 0.77882 0.0
C139 C 0.62691 0.78087 0.46561 0.0
H140 H 0.51156 0.86106 0.4682 0.0
H141 H 0.656 0.95911 0.5638 0.0
H142 H 0.51761 0.75436 0.48696 0.0
H143 H 0.49265 0.76342 0.59451 0.0
H144 H 0.47667 0.77781 0.4807 0.0
H145 H 0.70686 0.93255 0.62698 0.0
H146 H 0.67218 0.88548 0.711 0.0
H147 H 0.69176 0.87135 0.60168 0.0
H148 H 0.56483 0.73052 0.82867 0.0
H149 H 0.61767 0.70464 0.56491 0.0
H150 H 0.5306 0.80898 0.74659 0.0
H151 H 0.59165 0.84927 0.78127 0.0
H152 H 0.55469 0.79732 0.85329 0.0
H153 H 0.59649 0.7766 0.42023 0.0
H154 H 0.64093 0.75801 0.43537 0.0
H155 H 0.65569 0.81906 0.46152 0.0
C156 C 0.70871 0.60133 0.9593 0.0
C157 C 0.68275 0.55936 0.90428 0.0
C158 C 0.75185 0.61123 0.00619 0.0
C159 C 0.76989 0.57893 -0.00405 0.0
C160 C 0.74409 0.537 0.93881 0.0
C161 C 0.70065 0.5275 0.89481 0.0
C162 C 0.77745 0.65559 0.06841 0.0
C163 C 0.76228 0.50196 0.92422 0.0
C164 C 0.90206 0.61572 0.02769 0.0
C165 C 0.90099 0.59165 0.11191 0.0
C166 C 0.86022 0.61434 -0.00794 0.0
C167 C 0.81619 0.58882 0.04254 0.0
C168 C 0.81579 0.56775 0.13173 0.0
C169 C 0.85815 0.56907 0.16502 0.0
C170 C 0.86243 0.63709 0.89658 0.0
C171 C 0.76991 0.54116 0.18901 0.0
H172 H 0.69443 0.62554 -0.03155 0.0
H173 H 0.68059 0.49496 0.85254 0.0
H174 H 0.77802 0.64497 0.14358 0.0
H175 H 0.81553 0.67778 0.04537 0.0
H176 H 0.75974 0.67793 0.06634 0.0
H177 H 0.73853 0.47165 0.87595 0.0
H178 H 0.79914 0.52073 0.89332 0.0
H179 H 0.76469 0.48707 -0.00592 0.0
H180 H 0.93505 0.63331 -0.01379 0.0
H181 H 0.85707 0.55045 0.23022 0.0
H182 H 0.84483 0.65944 0.9009 0.0
H183 H 0.84244 0.6085 0.84234 0.0
H184 H 0.90012 0.65984 0.87136 0.0
H185 H 0.75084 0.56215 0.19327 0.0
H186 H 0.777 0.53347 0.26279 0.0
H187 H 0.7453 0.50654 0.15291 0.0
C188 C 0.33924 0.84077 0.3731 0.0
C189 C 0.36697 0.88381 0.32391 0.0
C190 C 0.29784 0.80264 0.33129 0.0
C191 C 0.2836 0.80775 0.23807 0.0
C192 C 0.31107 0.85152 0.18861 0.0
C193 C 0.35261 0.88903 0.23205 0.0
C194 C 0.26984 0.75649 0.38632 0.0
C195 C 0.29694 0.85849 0.08949 0.0
C196 C 0.20604 0.68885 0.11013 0.0
C197 C 0.1592 0.67953 0.13229 0.0
C198 C 0.24689 0.73166 0.13972 0.0
C199 C 0.24092 0.76636 0.19201 0.0
C200 C 0.19381 0.75875 0.2086 0.0
C201 C 0.15352 0.71537 0.1789 0.0
C202 C 0.29642 0.73821 0.1206 0.0
C203 C 0.18589 0.79518 0.26276 0.0
H204 H 0.3503 0.83659 0.44406 0.0
H205 H 0.37406 0.92231 0.1938 0.0
H206 H 0.23173 0.7477 0.39453 0.0
H207 H 0.26964 0.72641 0.34606 0.0
H208 H 0.28528 0.75856 0.45858 0.0
H209 H 0.32091 0.89534 0.06238 0.0
H210 H 0.29846 0.83238 0.03903 0.0
H211 H 0.25918 0.85143 0.08959 0.0
H212 H 0.21106 0.66165 0.07384 0.0
H213 H 0.11759 0.70879 0.19599 0.0
H214 H 0.31286 0.73609 0.18903 0.0
H215 H 0.32049 0.77414 0.08993 0.0
H216 H 0.29516 0.71041 0.0708 0.0
H217 H 0.19541 0.79547 0.3392 0.0
H218 H 0.14779 0.78707 0.25854 0.0
H219 H 0.20964 0.83179 0.23458 0.0
C220 C 0.46664 0.30613 0.65891 0.0
C221 C 0.48494 0.32338 0.75095 0.0
C222 C 0.46803 0.26652 0.61893 0.0
C223 C 0.4872 0.24269 0.67303 0.0
C224 C 0.50251 0.25778 0.76866 0.0
C225 C 0.50173 0.29835 0.80619 0.0
C226 C 0.45214 0.25242 0.51632 0.0
C227 C 0.52202 0.23259 0.82966 0.0
C228 C 0.46866 0.12248 0.57811 0.0
C229 C 0.51391 0.13619 0.53773 0.0
C230 C 0.45943 0.15655 0.62339 0.0
C231 C 0.49591 0.20558 0.62607 0.0
C232 C 0.54108 0.21964 0.58235 0.0
C233 C 0.54971 0.18473 0.54009 0.0
C234 C 0.41124 0.13991 0.67096 0.0
C235 C 0.58058 0.2716 0.58093 0.0
H236 H 0.45367 0.32533 0.61558 0.0
H237 H 0.51589 0.31148 0.87731 0.0
H238 H 0.48405 0.26071 0.47144 0.0
H239 H 0.42687 0.21324 0.51024 0.0
H240 H 0.43426 0.27174 0.48679 0.0
H241 H 0.52604 0.24418 0.90583 0.0
H242 H 0.49789 0.19309 0.82557 0.0
H243 H 0.55791 0.24051 0.80246 0.0
H244 H 0.44122 0.08483 0.57806 0.0
H245 H 0.58478 0.1954 0.50912 0.0
H246 H 0.39367 0.15949 0.64159 0.0
H247 H 0.4167 0.14818 0.74873 0.0
H248 H 0.38644 0.10073 0.66132 0.0
H249 H 0.56695 0.29402 0.54811 0.0
H250 H 0.61281 0.27683 0.54038 0.0
H251 H 0.59189 0.28493 0.65517 0.0
C252 C 1.0315 0.56977 0.8395 0.0
C253 C 1.01857 0.52313 0.86777 0.0
C254 C 1.04217 0.58331 0.74437 0.0
C255 C 1.03953 0.54908 0.67721 0.0
C256 C 1.02467 0.50127 0.70502 0.0
C257 C 1.01437 0.48877 0.80124 0.0
C258 C 0.05767 0.63438 0.71644 0.0
C259 C 1.02098 0.4639 0.63375 0.0
C260 C 1.03001 0.5599 0.41332 0.0
C261 C 0.07582 0.56892 0.38475 0.0
C262 C 1.01836 0.55662 0.50998 0.0
C263 C 0.05386 0.56339 0.57807 0.0
C264 C 0.10183 0.57834 0.54969 0.0
C265 C 0.11236 0.58096 0.45224 0.0
C266 C 0.96695 0.54107 0.53823 0.0
C267 C 0.1407 0.58692 0.62152 0.0
H268 H 1.03436 0.59595 0.89263 0.0
H269 H 1.0043 0.45285 0.82479 0.0
H270 H 0.0957 0.65251 0.6917 0.0
H271 H 1.03535 0.63476 0.65603 0.0
H272 H 0.05476 0.65554 0.77687 0.0
H273 H 1.00716 0.42803 0.66679 0.0
H274 H 0.99662 0.46057 0.57396 0.0
H275 H 0.05705 0.47516 0.60263 0.0
H276 H 1.00212 0.55159 0.36024 0.0
H277 H 0.14799 0.5887 0.4293 0.0
H278 H 0.96586 0.56141 0.60185 0.0
H279 H 0.94823 0.50245 0.55731 0.0
H280 H 0.94657 0.5459 0.479 0.0
H281 H 0.14042 0.60927 0.68226 0.0
H282 H 0.17722 0.60488 0.5888 0.0
H283 H 0.13366 0.552 0.65107 0.0
C284 C 0.57994 0.98524 0.15842 0.0
C285 C 0.55758 1.00636 0.20986 0.0
C286 C 0.56839 0.97301 0.06226 0.0
C287 C 0.53461 0.98318 0.01865 0.0
C288 C 0.50787 0.99902 0.07365 0.0
C289 C 0.52009 1.01086 0.16925 0.0
C290 C 0.59581 0.95408 0.00549 0.0
C291 C 0.47082 1.00936 0.02928 0.0
C292 C 0.56285 0.04312 0.78045 0.0
C293 C 0.52561 1.00782 0.72595 0.0
C294 C 0.56787 0.03438 0.87601 0.0
C295 C 0.53539 0.98883 0.91509 0.0
C296 C 0.49993 0.95193 0.85759 0.0
C297 C 0.49497 0.9622 0.76309 0.0
C298 C 0.60613 0.07464 0.93617 0.0
C299 C 0.46589 0.90263 0.89647 0.0
H300 H 0.6082 0.98081 0.19155 0.0
H301 H 0.50292 0.02722 0.20981 0.0
H302 H 0.5723 0.92752 0.95072 0.0
H303 H 0.62619 0.98426 -0.03236 0.0
H304 H 0.61099 0.93707 0.05264 0.0
H305 H 0.4487 1.01474 0.08431 0.0
H306 H 0.4895 0.04246 -0.01423 0.0
H307 H 0.44629 0.97961 -0.01897 0.0
H308 H 0.58687 0.07782 0.74914 0.0
H309 H 0.46718 0.93462 0.71815 0.0
H310 H 0.62914 0.06251 -0.02787 0.0
H311 H 0.58868 0.0852 -0.00718 0.0
H312 H 0.62968 0.1069 0.89307 0.0
H313 H 0.48414 0.89143 0.94957 0.0
H314 H 0.45086 0.87524 0.83826 0.0
H315 H 0.43527 0.90323 0.93294 0.0
C316 C 0.56102 0.56439 0.51365 0.0
C317 C 0.58013 0.53662 0.5489 0.0
C318 C 0.56361 0.57448 0.41654 0.0
C319 C 0.58441 0.5548 0.3545 0.0
C320 C 0.60918 0.53209 0.39127 0.0
C321 C 0.60693 0.52338 0.48932 0.0
C322 C 0.53845 0.60053 0.37952 0.0
C323 C 0.6327 0.51175 0.32652 0.0
C324 C 0.50996 0.50286 0.13203 0.0
C325 C 0.53729 0.5386 0.0668 0.0
C326 C 0.52597 0.50721 0.22637 0.0
C327 C 0.57026 0.54812 0.25368 0.0
C328 C 0.59861 0.58351 0.18647 0.0
C329 C 0.58148 0.57837 0.09319 0.0
C330 C 0.49517 0.46855 0.29703 0.0
C331 C 0.64605 0.6272 0.21323 0.0
H332 H 0.54045 0.57476 0.56013 0.0
H333 H 0.62252 0.50268 0.51764 0.0
H334 H 0.55908 0.62492 0.32021 0.0
H335 H 0.50234 0.57388 0.3513 0.0
H336 H 0.53341 0.62185 0.4369 0.0
H337 H 0.65953 0.50582 0.36588 0.0
H338 H 0.60453 0.47666 0.29721 0.0
H339 H 0.65089 0.53575 0.26514 0.0
H340 H 0.47631 0.47194 0.10934 0.0
H341 H 0.60267 0.60535 0.04036 0.0
H342 H 0.48256 0.48394 0.35416 0.0
H343 H 0.51674 0.45436 0.33177 0.0
H344 H 0.46305 0.43814 0.26263 0.0
H345 H 0.63896 0.65248 0.25554 0.0
H346 H 0.66739 0.64634 0.1491 0.0
H347 H 0.66818 0.61718 0.25846 0.0
loop_
_geom_bond_atom_site_label_1
_geom_bond_atom_site_label_2
_geom_bond_distance
_geom_bond_site_symmetry_2
_ccdc_geom_bond_type
Dy0 O4 2.398 . S
Dy0 O5 2.491 . S
Dy0 O6 2.403 . S
Dy0 O7 2.664 1_455 S
Dy0 O11 2.326 . S
Dy0 O15 2.310 . S
Dy0 O16 2.351 1_455 S
C1 O12 1.185 . S
C1 O13 1.355 . S
C2 O4 1.185 . S
C2 O5 1.355 . S
Dy3 O7 2.310 . S
Dy3 O10 2.351 1_655 S
Dy3 O12 2.398 . S
Dy3 O13 2.491 . S
Dy3 O14 2.403 1_554 S
Dy3 O15 2.664 1_655 S
Dy3 O17 2.326 . S
O4 Dy0 2.398 . S
O4 C2 1.185 . S
O5 Dy0 2.491 . S
O5 C2 1.355 . S
O6 Dy0 2.403 . S
O6 C8 1.254 . S
O7 Dy0 2.664 1_655 S
O7 Dy3 2.310 . S
O7 C8 1.268 1_655 S
C8 O6 1.254 . S
C8 O7 1.268 1_455 S
C9 O14 1.246 1_455 S
C9 O15 1.272 1_556 S
O10 Dy3 2.351 1_455 S
O10 C18 1.249 . S
O11 Dy0 2.326 . S
O11 C18 1.267 . S
O12 C1 1.185 . S
O12 Dy3 2.398 . S
O13 C1 1.355 . S
O13 Dy3 2.491 . S
O14 Dy3 2.403 1_556 S
O14 C9 1.246 1_655 S
O15 Dy0 2.310 . S
O15 Dy3 2.664 1_455 S
O15 C9 1.272 1_554 S
O16 Dy0 2.351 1_655 S
O16 C19 1.249 . S
O17 Dy3 2.326 . S
O17 C19 1.267 . S
C18 O10 1.249 . S
C18 O11 1.267 . S
C19 O16 1.249 . S
C19 O17 1.267 . S
Dy20 O24 2.398 . S
Dy20 O25 2.491 . S
Dy20 O26 2.403 . S
Dy20 O27 2.664 1_565 S
Dy20 O31 2.326 . S
Dy20 O35 2.310 . S
Dy20 O36 2.351 1_565 S
C21 O32 1.185 . S
C21 O33 1.355 . S
C22 O24 1.185 . S
C22 O25 1.355 . S
Dy23 O27 2.310 . S
Dy23 O30 2.351 1_545 S
Dy23 O32 2.398 . S
Dy23 O33 2.491 . S
Dy23 O34 2.403 . S
Dy23 O35 2.664 1_545 S
Dy23 O37 2.326 . S
O24 Dy20 2.398 . S
O24 C22 1.185 . S
O25 Dy20 2.491 . S
O25 C22 1.355 . S
O26 Dy20 2.403 . S
O26 C28 1.254 . S
O27 Dy20 2.664 1_545 S
O27 Dy23 2.310 . S
O27 C28 1.268 1_545 S
C28 O26 1.254 . S
C28 O27 1.268 1_565 S
C29 O34 1.254 . S
C29 O35 1.268 1_545 S
O30 Dy23 2.351 1_565 S
O30 C38 1.249 . S
O31 Dy20 2.326 . S
O31 C38 1.267 . S
O32 C21 1.185 . S
O32 Dy23 2.398 . S
O33 C21 1.355 . S
O33 Dy23 2.491 . S
O34 Dy23 2.403 . S
O34 C29 1.254 . S
O35 Dy20 2.310 . S
O35 Dy23 2.664 1_565 S
O35 C29 1.268 1_565 S
O36 Dy20 2.351 1_545 S
O36 C39 1.249 . S
O37 Dy23 2.326 . S
O37 C39 1.267 . S
C38 O30 1.249 . S
C38 O31 1.267 . S
C39 O36 1.249 . S
C39 O37 1.267 . S
Dy40 O44 2.398 . S
Dy40 O45 2.491 . S
Dy40 O46 2.403 1_556 S
Dy40 O47 2.664 . S
Dy40 O51 2.326 . S
Dy40 O55 2.310 . S
Dy40 O56 2.351 . S
C41 O52 1.185 . S
C41 O53 1.355 . S
C42 O44 1.185 . S
C42 O45 1.355 . S
Dy43 O47 2.310 . S
Dy43 O50 2.351 . S
Dy43 O52 2.398 . S
Dy43 O53 2.491 . S
Dy43 O54 2.403 . S
Dy43 O55 2.664 . S
Dy43 O57 2.326 . S
O44 Dy40 2.398 . S
O44 C42 1.185 . S
O45 Dy40 2.491 . S
O45 C42 1.355 . S
O46 Dy40 2.403 1_554 S
O46 C48 1.254 . S
O47 Dy40 2.664 . S
O47 Dy43 2.310 . S
O47 C48 1.268 1_556 S
C48 O46 1.254 . S
C48 O47 1.268 1_554 S
C49 O54 1.254 . S
C49 O55 1.268 . S
O50 Dy43 2.351 . S
O50 C58 1.249 . S
O51 Dy40 2.326 . S
O51 C58 1.267 . S
O52 C41 1.185 . S
O52 Dy43 2.398 . S
O53 C41 1.355 . S
O53 Dy43 2.491 . S
O54 Dy43 2.403 . S
O54 C49 1.254 . S
O55 Dy40 2.310 . S
O55 Dy43 2.664 . S
O55 C49 1.268 . S
O56 Dy40 2.351 . S
O56 C59 1.249 . S
O57 Dy43 2.326 . S
O57 C59 1.267 . S
C58 O50 1.249 . S
C58 O51 1.267 . S
C59 O56 1.249 . S
C59 O57 1.267 . S
C60 C61 1.391 . S
C60 C62 1.394 1_554 S
C60 H76 0.931 1_554 S
C61 C60 1.391 . S
C61 C65 1.376 . S
C62 C60 1.394 1_556 S
C62 C63 1.369 1_556 S
C62 C66 1.531 . S
C63 C62 1.369 1_554 S
C63 C64 1.410 . S
C63 C71 1.503 1_554 S
C64 C63 1.410 . S
C64 C65 1.392 . S
C64 C67 1.511 . S
C65 C61 1.376 . S
C65 C64 1.392 . S
C65 H77 0.929 . S
C66 C62 1.531 . S
C66 H78 0.960 . S
C66 H79 0.962 . S
C66 H80 0.960 . S
C67 C64 1.511 . S
C67 H81 0.961 . S
C67 H82 0.961 . S
C67 H83 0.961 . S
C68 C69 1.370 . S
C68 C70 1.363 . S
C68 H84 0.931 . S
C69 C68 1.370 . S
C69 C73 1.408 . S
C70 C68 1.363 . S
C70 C71 1.370 . S
C70 C74 1.524 1_556 S
C71 C63 1.503 1_556 S
C71 C70 1.370 . S
C71 C72 1.403 . S
C72 C71 1.403 . S
C72 C73 1.404 . S
C72 C75 1.539 . S
C73 C69 1.408 . S
C73 C72 1.404 . S
C73 H85 0.930 . S
C74 C70 1.524 1_554 S
C74 H86 0.956 . S
C74 H87 0.961 . S
C74 H88 0.961 . S
C75 C72 1.539 . S
C75 H89 0.958 . S
C75 H90 0.961 . S
C75 H91 0.960 . S
H76 C60 0.931 1_556 S
H77 C65 0.929 . S
H78 C66 0.960 . S
H79 C66 0.962 . S
H80 C66 0.960 . S
H81 C67 0.961 . S
H82 C67 0.961 . S
H83 C67 0.961 . S
H84 C68 0.931 . S
H85 C73 0.930 . S
H86 C74 0.956 . S
H87 C74 0.961 . S
H88 C74 0.961 . S
H89 C75 0.958 . S
H90 C75 0.961 . S
H91 C75 0.960 . S
C92 C93 1.391 . S
C92 C94 1.394 . S
C92 H108 0.931 . S
C93 C92 1.391 . S
C93 C97 1.376 . S
C94 C92 1.394 . S
C94 C95 1.369 . S
C94 C98 1.531 . S
C95 C94 1.369 . S
C95 C96 1.410 . S
C95 C103 1.503 . S
C96 C95 1.410 . S
C96 C97 1.392 . S
C96 C99 1.511 . S
C97 C93 1.376 . S
C97 C96 1.392 . S
C97 H109 0.929 . S
C98 C94 1.531 . S
C98 H110 0.960 . S
C98 H111 0.962 . S
C98 H112 0.960 . S
C99 C96 1.511 . S
C99 H113 0.961 . S
C99 H114 0.961 . S
C99 H115 0.961 . S
C100 C101 1.370 . S
C100 C102 1.363 . S
C100 H116 0.931 . S
C101 C100 1.370 . S
C101 C105 1.408 . S
C102 C100 1.363 . S
C102 C103 1.370 . S
C102 C106 1.524 . S
C103 C95 1.503 . S
C103 C102 1.370 . S
C103 C104 1.403 . S
C104 C103 1.403 . S
C104 C105 1.404 . S
C104 C107 1.539 . S
C105 C101 1.408 . S
C105 C104 1.404 . S
C105 H117 0.930 . S
C106 C102 1.524 . S
C106 H118 0.956 . S
C106 H119 0.961 . S
C106 H120 0.961 . S
C107 C104 1.539 . S
C107 H121 0.958 . S
C107 H122 0.961 . S
C107 H123 0.960 . S
H108 C92 0.931 . S
H109 C97 0.929 . S
H110 C98 0.960 . S
H111 C98 0.962 . S
H112 C98 0.960 . S
H113 C99 0.961 . S
H114 C99 0.961 . S
H115 C99 0.961 . S
H116 C100 0.931 . S
H117 C105 0.930 . S
H118 C106 0.956 . S
H119 C106 0.961 . S
H120 C106 0.961 . S
H121 C107 0.958 . S
H122 C107 0.961 . S
H123 C107 0.960 . S
C124 C125 1.391 . S
C124 C126 1.394 . S
C124 H140 0.931 . S
C125 C124 1.391 . S
C125 C129 1.376 . S
C126 C124 1.394 . S
C126 C127 1.369 . S
C126 C130 1.531 . S
C127 C126 1.369 . S
C127 C128 1.410 . S
C127 C135 1.503 . S
C128 C127 1.410 . S
C128 C129 1.392 . S
C128 C131 1.511 . S
C129 C125 1.376 . S
C129 C128 1.392 . S
C129 H141 0.929 . S
C130 C126 1.531 . S
C130 H142 0.960 . S
C130 H143 0.962 . S
C130 H144 0.960 . S
C131 C128 1.511 . S
C131 H145 0.961 . S
C131 H146 0.961 . S
C131 H147 0.961 . S
C132 C133 1.370 . S
C132 C134 1.363 . S
C132 H148 0.931 . S
C133 C132 1.370 . S
C133 C137 1.408 . S
C134 C132 1.363 . S
C134 C135 1.370 . S
C134 C138 1.524 . S
C135 C127 1.503 . S
C135 C134 1.370 . S
C135 C136 1.403 . S
C136 C135 1.403 . S
C136 C137 1.404 . S
C136 C139 1.539 . S
C137 C133 1.408 . S
C137 C136 1.404 . S
C137 H149 0.930 . S
C138 C134 1.524 . S
C138 H150 0.956 . S
C138 H151 0.961 . S
C138 H152 0.961 . S
C139 C136 1.539 . S
C139 H153 0.958 . S
C139 H154 0.961 . S
C139 H155 0.960 . S
H140 C124 0.931 . S
H141 C129 0.929 . S
H142 C130 0.960 . S
H143 C130 0.962 . S
H144 C130 0.960 . S
H145 C131 0.961 . S
H146 C131 0.961 . S
H147 C131 0.961 . S
H148 C132 0.931 . S
H149 C137 0.930 . S
H150 C138 0.956 . S
H151 C138 0.961 . S
H152 C138 0.961 . S
H153 C139 0.958 . S
H154 C139 0.961 . S
H155 C139 0.960 . S
C156 C157 1.391 . S
C156 C158 1.394 . S
C156 H172 0.931 . S
C157 C156 1.391 . S
C157 C161 1.376 . S
C158 C156 1.394 . S
C158 C159 1.369 . S
C158 C162 1.531 . S
C159 C158 1.369 . S
C159 C160 1.410 1_556 S
C159 C167 1.503 1_556 S
C160 C159 1.410 1_554 S
C160 C161 1.392 1_554 S
C160 C163 1.511 . S
C161 C157 1.376 . S
C161 C160 1.392 1_556 S
C161 H173 0.930 . S
C162 C158 1.531 . S
C162 H174 0.960 . S
C162 H175 0.962 . S
C162 H176 0.960 . S
C163 C160 1.511 . S
C163 H177 0.961 . S
C163 H178 0.961 . S
C163 H179 0.961 . S
C164 C165 1.370 . S
C164 C166 1.363 . S
C164 H180 0.931 . S
C165 C164 1.370 . S
C165 C169 1.408 . S
C166 C164 1.363 . S
C166 C167 1.370 . S
C166 C170 1.524 1_554 S
C167 C159 1.503 1_554 S
C167 C166 1.370 . S
C167 C168 1.403 . S
C168 C167 1.403 . S
C168 C169 1.404 . S
C168 C171 1.539 . S
C169 C165 1.408 . S
C169 C168 1.404 . S
C169 H181 0.930 . S
C170 C166 1.524 1_556 S
C170 H182 0.956 . S
C170 H183 0.961 . S
C170 H184 0.961 . S
C171 C168 1.539 . S
C171 H185 0.958 . S
C171 H186 0.961 . S
C171 H187 0.960 . S
H172 C156 0.931 . S
H173 C161 0.930 . S
H174 C162 0.960 . S
H175 C162 0.962 . S
H176 C162 0.960 . S
H177 C163 0.961 . S
H178 C163 0.961 . S
H179 C163 0.961 . S
H180 C164 0.931 . S
H181 C169 0.930 . S
H182 C170 0.956 . S
H183 C170 0.961 . S
H184 C170 0.961 . S
H185 C171 0.958 . S
H186 C171 0.961 . S
H187 C171 0.960 . S
C188 C189 1.391 . S
C188 C190 1.394 . S
C188 H204 0.931 . S
C189 C188 1.391 . S
C189 C193 1.376 . S
C190 C188 1.394 . S
C190 C191 1.369 . S
C190 C194 1.531 . S
C191 C190 1.369 . S
C191 C192 1.410 . S
C191 C199 1.503 . S
C192 C191 1.410 . S
C192 C193 1.392 . S
C192 C195 1.511 . S
C193 C189 1.376 . S
C193 C192 1.392 . S
C193 H205 0.929 . S
C194 C190 1.531 . S
C194 H206 0.960 . S
C194 H207 0.962 . S
C194 H208 0.960 . S
C195 C192 1.511 . S
C195 H209 0.961 . S
C195 H210 0.961 . S
C195 H211 0.961 . S
C196 C197 1.370 . S
C196 C198 1.363 . S
C196 H212 0.931 . S
C197 C196 1.370 . S
C197 C201 1.408 . S
C198 C196 1.363 . S
C198 C199 1.370 . S
C198 C202 1.524 . S
C199 C191 1.503 . S
C199 C198 1.370 . S
C199 C200 1.403 . S
C200 C199 1.403 . S
C200 C201 1.404 . S
C200 C203 1.539 . S
C201 C197 1.408 . S
C201 C200 1.404 . S
C201 H213 0.930 . S
C202 C198 1.524 . S
C202 H214 0.956 . S
C202 H215 0.961 . S
C202 H216 0.961 . S
C203 C200 1.539 . S
C203 H217 0.958 . S
C203 H218 0.961 . S
C203 H219 0.960 . S
H204 C188 0.931 . S
H205 C193 0.929 . S
H206 C194 0.960 . S
H207 C194 0.962 . S
H208 C194 0.960 . S
H209 C195 0.961 . S
H210 C195 0.961 . S
H211 C195 0.961 . S
H212 C196 0.931 . S
H213 C201 0.930 . S
H214 C202 0.956 . S
H215 C202 0.961 . S
H216 C202 0.961 . S
H217 C203 0.958 . S
H218 C203 0.961 . S
H219 C203 0.960 . S
C220 C221 1.391 . S
C220 C222 1.394 . S
C220 H236 0.931 . S
C221 C220 1.391 . S
C221 C225 1.376 . S
C222 C220 1.394 . S
C222 C223 1.369 . S
C222 C226 1.531 . S
C223 C222 1.369 . S
C223 C224 1.410 . S
C223 C231 1.503 . S
C224 C223 1.410 . S
C224 C225 1.392 . S
C224 C227 1.511 . S
C225 C221 1.376 . S
C225 C224 1.392 . S
C225 H237 0.929 . S
C226 C222 1.531 . S
C226 H238 0.960 . S
C226 H239 0.962 . S
C226 H240 0.960 . S
C227 C224 1.511 . S
C227 H241 0.961 . S
C227 H242 0.961 . S
C227 H243 0.961 . S
C228 C229 1.370 . S
C228 C230 1.363 . S
C228 H244 0.931 . S
C229 C228 1.370 . S
C229 C233 1.408 . S
C230 C228 1.363 . S
C230 C231 1.370 . S
C230 C234 1.524 . S
C231 C223 1.503 . S
C231 C230 1.370 . S
C231 C232 1.403 . S
C232 C231 1.403 . S
C232 C233 1.404 . S
C232 C235 1.539 . S
C233 C229 1.408 . S
C233 C232 1.404 . S
C233 H245 0.930 . S
C234 C230 1.524 . S
C234 H246 0.956 . S
C234 H247 0.961 . S
C234 H248 0.961 . S
C235 C232 1.539 . S
C235 H249 0.958 . S
C235 H250 0.961 . S
C235 H251 0.960 . S
H236 C220 0.931 . S
H237 C225 0.929 . S
H238 C226 0.960 . S
H239 C226 0.962 . S
H240 C226 0.960 . S
H241 C227 0.961 . S
H242 C227 0.961 . S
H243 C227 0.961 . S
H244 C228 0.931 . S
H245 C233 0.930 . S
H246 C234 0.956 . S
H247 C234 0.961 . S
H248 C234 0.961 . S
H249 C235 0.958 . S
H250 C235 0.961 . S
H251 C235 0.960 . S
C252 C253 1.391 1_655 S
C252 C254 1.394 . S
C252 H268 0.931 . S
C253 C252 1.391 1_455 S
C253 C257 1.376 . S
C254 C252 1.394 . S
C254 C255 1.369 1_655 S
C254 C258 1.531 . S
C255 C254 1.369 1_455 S
C255 C256 1.410 . S
C255 C263 1.503 . S
C256 C255 1.410 . S
C256 C257 1.392 . S
C256 C259 1.511 . S
C257 C253 1.376 . S
C257 C256 1.392 . S
C257 H269 0.929 . S
C258 C254 1.531 . S
C258 H270 0.960 . S
C258 H271 0.962 . S
C258 H272 0.960 . S
C259 C256 1.511 . S
C259 H273 0.961 . S
C259 H274 0.961 . S
C259 H275 0.961 . S
C260 C261 1.370 . S
C260 C262 1.363 . S
C260 H276 0.931 . S
C261 C260 1.370 . S
C261 C265 1.408 1_655 S
C262 C260 1.363 . S
C262 C263 1.370 1_655 S
C262 C266 1.524 . S
C263 C255 1.503 . S
C263 C262 1.370 1_455 S
C263 C264 1.403 . S
C264 C263 1.403 . S
C264 C265 1.404 . S
C264 C267 1.539 . S
C265 C261 1.408 1_455 S
C265 C264 1.404 . S
C265 H277 0.930 . S
C266 C262 1.524 . S
C266 H278 0.956 . S
C266 H279 0.961 . S
C266 H280 0.961 . S
C267 C264 1.539 . S
C267 H281 0.958 . S
C267 H282 0.961 . S
C267 H283 0.960 . S
H268 C252 0.931 . S
H269 C257 0.929 . S
H270 C258 0.960 . S
H271 C258 0.962 . S
H272 C258 0.960 . S
H273 C259 0.961 . S
H274 C259 0.961 . S
H275 C259 0.961 . S
H276 C260 0.931 . S
H277 C265 0.930 . S
H278 C266 0.956 . S
H279 C266 0.961 . S
H280 C266 0.961 . S
H281 C267 0.958 . S
H282 C267 0.961 . S
H283 C267 0.960 . S
C284 C285 1.391 . S
C284 C286 1.394 . S
C284 H300 0.931 . S
C285 C284 1.391 . S
C285 C289 1.376 1_565 S
C286 C284 1.394 . S
C286 C287 1.369 . S
C286 C290 1.531 . S
C287 C286 1.369 . S
C287 C288 1.410 1_565 S
C287 C295 1.503 1_554 S
C288 C287 1.410 1_545 S
C288 C289 1.392 . S
C288 C291 1.511 . S
C289 C285 1.376 1_545 S
C289 C288 1.392 . S
C289 H301 0.929 . S
C290 C286 1.531 . S
C290 H302 0.960 1_554 S
C290 H303 0.962 . S
C290 H304 0.960 . S
C291 C288 1.511 . S
C291 H305 0.961 . S
C291 H306 0.961 1_554 S
C291 H307 0.961 . S
C292 C293 1.370 . S
C292 C294 1.363 . S
C292 H308 0.931 . S
C293 C292 1.370 . S
C293 C297 1.408 1_545 S
C294 C292 1.363 . S
C294 C295 1.370 1_545 S
C294 C298 1.524 . S
C295 C287 1.503 1_556 S
C295 C294 1.370 1_565 S
C295 C296 1.403 . S
C296 C295 1.403 . S
C296 C297 1.404 . S
C296 C299 1.539 . S
C297 C293 1.408 1_565 S
C297 C296 1.404 . S
C297 H309 0.930 . S
C298 C294 1.524 . S
C298 H310 0.956 . S
C298 H311 0.961 1_556 S
C298 H312 0.961 . S
C299 C296 1.539 . S
C299 H313 0.958 . S
C299 H314 0.961 . S
C299 H315 0.960 . S
H300 C284 0.931 . S
H301 C289 0.929 . S
H302 C290 0.960 1_556 S
H303 C290 0.962 . S
H304 C290 0.960 . S
H305 C291 0.961 . S
H306 C291 0.961 1_556 S
H307 C291 0.961 . S
H308 C292 0.931 . S
H309 C297 0.930 . S
H310 C298 0.956 . S
H311 C298 0.961 1_554 S
H312 C298 0.961 . S
H313 C299 0.958 . S
H314 C299 0.961 . S
H315 C299 0.960 . S
C316 C317 1.391 . S
C316 C318 1.394 . S
C316 H332 0.931 . S
C317 C316 1.391 . S
C317 C321 1.376 . S
C318 C316 1.394 . S
C318 C319 1.369 . S
C318 C322 1.531 . S
C319 C318 1.369 . S
C319 C320 1.410 . S
C319 C327 1.503 . S
C320 C319 1.410 . S
C320 C321 1.392 . S
C320 C323 1.511 . S
C321 C317 1.376 . S
C321 C320 1.392 . S
C321 H333 0.929 . S
C322 C318 1.531 . S
C322 H334 0.960 . S
C322 H335 0.962 . S
C322 H336 0.960 . S
C323 C320 1.511 . S
C323 H337 0.961 . S
C323 H338 0.961 . S
C323 H339 0.961 . S
C324 C325 1.370 . S
C324 C326 1.363 . S
C324 H340 0.931 . S
C325 C324 1.370 . S
C325 C329 1.408 . S
C326 C324 1.363 . S
C326 C327 1.370 . S
C326 C330 1.524 . S
C327 C319 1.503 . S
C327 C326 1.370 . S
C327 C328 1.403 . S
C328 C327 1.403 . S
C328 C329 1.404 . S
C328 C331 1.539 . S
C329 C325 1.408 . S
C329 C328 1.404 . S
C329 H341 0.930 . S
C330 C326 1.524 . S
C330 H342 0.956 . S
C330 H343 0.961 . S
C330 H344 0.961 . S
C331 C328 1.539 . S
C331 H345 0.958 . S
C331 H346 0.961 . S
C331 H347 0.960 . S
H332 C316 0.931 . S
H333 C321 0.929 . S
H334 C322 0.960 . S
H335 C322 0.962 . S
H336 C322 0.960 . S
H337 C323 0.961 . S
H338 C323 0.961 . S
H339 C323 0.961 . S
H340 C324 0.931 . S
H341 C329 0.930 . S
H342 C330 0.956 . S
H343 C330 0.961 . S
H344 C330 0.961 . S
H345 C331 0.958 . S
H346 C331 0.961 . S
H347 C331 0.960 . S
C61 C2 1.874 . S
C69 C58 1.816 . S
C93 C21 1.879 . S
C101 C19 1.948 . S
C125 C38 1.834 . S
C133 C42 1.870 . S
C157 C59 1.937 . S
C165 C1 1.873 . S
C189 C22 1.853 . S
C197 C18 1.812 . S
C221 C41 1.842 . S
C229 C39 1.958 . S
C253 C9 0.572 . S
C261 C8 0.544 1_655 S
C285 C29 0.633 1_565 S
C293 C28 0.518 1_545 S
C317 C49 0.629 . S
C325 C48 0.523 . S
