# Generated by pormake.
# Topology yfm, (5)-cn, num edge types: 1
# Building blocks:
#     Node 0, Type 0, BuildingBlock: BEQFEK_clean_sbu_0, # of connection points: 5
#     Node 1, Type 0, BuildingBlock: BEQFEK_clean_sbu_0, # of connection points: 5
#     Node 2, Type 0, BuildingBlock: BEQFEK_clean_sbu_0, # of connection points: 5
#     Node 3, Type 0, BuildingBlock: BEQFEK_clean_sbu_0, # of connection points: 5
#     Node 4, Type 0, BuildingBlock: BEQFEK_clean_sbu_0, # of connection points: 5
#     Node 5, Type 0, BuildingBlock: BEQFEK_clean_sbu_0, # of connection points: 5
#     Node 6, Type 0, BuildingBlock: BEQFEK_clean_sbu_0, # of connection points: 5
#     Node 7, Type 0, BuildingBlock: BEQFEK_clean_sbu_0, # of connection points: 5
#     Node 8, Type 0, BuildingBlock: BEQFEK_clean_sbu_0, # of connection points: 5
#     Node 9, Type 0, BuildingBlock: BEQFEK_clean_sbu_0, # of connection points: 5
#     Node 10, Type 0, BuildingBlock: BEQFEK_clean_sbu_0, # of connection points: 5
#     Node 11, Type 0, BuildingBlock: BEQFEK_clean_sbu_0, # of connection points: 5
#     Node 12, Type 0, BuildingBlock: BEQFEK_clean_sbu_0, # of connection points: 5
#     Node 13, Type 0, BuildingBlock: BEQFEK_clean_sbu_0, # of connection points: 5
#     Node 14, Type 0, BuildingBlock: BEQFEK_clean_sbu_0, # of connection points: 5
#     Node 15, Type 0, BuildingBlock: BEQFEK_clean_sbu_0, # of connection points: 5
#     Node 16, Type 0, BuildingBlock: BEQFEK_clean_sbu_0, # of connection points: 5
#     Node 17, Type 0, BuildingBlock: BEQFEK_clean_sbu_0, # of connection points: 5
#     Node 18, Type 0, BuildingBlock: BEQFEK_clean_sbu_0, # of connection points: 5
#     Node 19, Type 0, BuildingBlock: BEQFEK_clean_sbu_0, # of connection points: 5
#     Node 20, Type 0, BuildingBlock: BEQFEK_clean_sbu_0, # of connection points: 5
#     Node 21, Type 0, BuildingBlock: BEQFEK_clean_sbu_0, # of connection points: 5
#     Node 22, Type 0, BuildingBlock: BEQFEK_clean_sbu_0, # of connection points: 5
#     Node 23, Type 0, BuildingBlock: BEQFEK_clean_sbu_0, # of connection points: 5
#     Node 24, Type 0, BuildingBlock: BEQFEK_clean_sbu_0, # of connection points: 5
#     Node 25, Type 0, BuildingBlock: BEQFEK_clean_sbu_0, # of connection points: 5
#     Node 26, Type 0, BuildingBlock: BEQFEK_clean_sbu_0, # of connection points: 5
#     Node 27, Type 0, BuildingBlock: BEQFEK_clean_sbu_0, # of connection points: 5
#     Node 28, Type 0, BuildingBlock: BEQFEK_clean_sbu_0, # of connection points: 5
#     Node 29, Type 0, BuildingBlock: BEQFEK_clean_sbu_0, # of connection points: 5
#     Node 30, Type 0, BuildingBlock: BEQFEK_clean_sbu_0, # of connection points: 5
#     Node 31, Type 0, BuildingBlock: BEQFEK_clean_sbu_0, # of connection points: 5
#     Edge 32, Type (0, 0), BuildingBlock: EZIPEK_clean_linker_0, # of connection points: 2
#     Edge 33, Type (0, 0), BuildingBlock: EZIPEK_clean_linker_0, # of connection points: 2
#     Edge 34, Type (0, 0), BuildingBlock: EZIPEK_clean_linker_0, # of connection points: 2
#     Edge 35, Type (0, 0), BuildingBlock: EZIPEK_clean_linker_0, # of connection points: 2
#     Edge 36, Type (0, 0), BuildingBlock: EZIPEK_clean_linker_0, # of connection points: 2
#     Edge 37, Type (0, 0), BuildingBlock: EZIPEK_clean_linker_0, # of connection points: 2
#     Edge 38, Type (0, 0), BuildingBlock: EZIPEK_clean_linker_0, # of connection points: 2
#     Edge 39, Type (0, 0), BuildingBlock: EZIPEK_clean_linker_0, # of connection points: 2
#     Edge 40, Type (0, 0), BuildingBlock: EZIPEK_clean_linker_0, # of connection points: 2
#     Edge 41, Type (0, 0), BuildingBlock: EZIPEK_clean_linker_0, # of connection points: 2
#     Edge 42, Type (0, 0), BuildingBlock: EZIPEK_clean_linker_0, # of connection points: 2
#     Edge 43, Type (0, 0), BuildingBlock: EZIPEK_clean_linker_0, # of connection points: 2
#     Edge 44, Type (0, 0), BuildingBlock: EZIPEK_clean_linker_0, # of connection points: 2
#     Edge 45, Type (0, 0), BuildingBlock: EZIPEK_clean_linker_0, # of connection points: 2
#     Edge 46, Type (0, 0), BuildingBlock: EZIPEK_clean_linker_0, # of connection points: 2
#     Edge 47, Type (0, 0), BuildingBlock: EZIPEK_clean_linker_0, # of connection points: 2
#     Edge 48, Type (0, 0), BuildingBlock: EZIPEK_clean_linker_0, # of connection points: 2
#     Edge 49, Type (0, 0), BuildingBlock: EZIPEK_clean_linker_0, # of connection points: 2
#     Edge 50, Type (0, 0), BuildingBlock: EZIPEK_clean_linker_0, # of connection points: 2
#     Edge 51, Type (0, 0), BuildingBlock: EZIPEK_clean_linker_0, # of connection points: 2
#     Edge 52, Type (0, 0), BuildingBlock: EZIPEK_clean_linker_0, # of connection points: 2
#     Edge 53, Type (0, 0), BuildingBlock: EZIPEK_clean_linker_0, # of connection points: 2
#     Edge 54, Type (0, 0), BuildingBlock: EZIPEK_clean_linker_0, # of connection points: 2
#     Edge 55, Type (0, 0), BuildingBlock: EZIPEK_clean_linker_0, # of connection points: 2
#     Edge 56, Type (0, 0), BuildingBlock: EZIPEK_clean_linker_0, # of connection points: 2
#     Edge 57, Type (0, 0), BuildingBlock: EZIPEK_clean_linker_0, # of connection points: 2
#     Edge 58, Type (0, 0), BuildingBlock: EZIPEK_clean_linker_0, # of connection points: 2
#     Edge 59, Type (0, 0), BuildingBlock: EZIPEK_clean_linker_0, # of connection points: 2
#     Edge 60, Type (0, 0), BuildingBlock: EZIPEK_clean_linker_0, # of connection points: 2
#     Edge 61, Type (0, 0), BuildingBlock: EZIPEK_clean_linker_0, # of connection points: 2
#     Edge 62, Type (0, 0), BuildingBlock: EZIPEK_clean_linker_0, # of connection points: 2
#     Edge 63, Type (0, 0), BuildingBlock: EZIPEK_clean_linker_0, # of connection points: 2
#     Edge 64, Type (0, 0), BuildingBlock: EZIPEK_clean_linker_0, # of connection points: 2
#     Edge 65, Type (0, 0), BuildingBlock: EZIPEK_clean_linker_0, # of connection points: 2
#     Edge 66, Type (0, 0), BuildingBlock: EZIPEK_clean_linker_0, # of connection points: 2
#     Edge 67, Type (0, 0), BuildingBlock: EZIPEK_clean_linker_0, # of connection points: 2
#     Edge 68, Type (0, 0), BuildingBlock: EZIPEK_clean_linker_0, # of connection points: 2
#     Edge 69, Type (0, 0), BuildingBlock: EZIPEK_clean_linker_0, # of connection points: 2
#     Edge 70, Type (0, 0), BuildingBlock: EZIPEK_clean_linker_0, # of connection points: 2
#     Edge 71, Type (0, 0), BuildingBlock: EZIPEK_clean_linker_0, # of connection points: 2
#     Edge 72, Type (0, 0), BuildingBlock: EZIPEK_clean_linker_0, # of connection points: 2
#     Edge 73, Type (0, 0), BuildingBlock: EZIPEK_clean_linker_0, # of connection points: 2
#     Edge 74, Type (0, 0), BuildingBlock: EZIPEK_clean_linker_0, # of connection points: 2
#     Edge 75, Type (0, 0), BuildingBlock: EZIPEK_clean_linker_0, # of connection points: 2
#     Edge 76, Type (0, 0), BuildingBlock: EZIPEK_clean_linker_0, # of connection points: 2
#     Edge 77, Type (0, 0), BuildingBlock: EZIPEK_clean_linker_0, # of connection points: 2
#     Edge 78, Type (0, 0), BuildingBlock: EZIPEK_clean_linker_0, # of connection points: 2
#     Edge 79, Type (0, 0), BuildingBlock: EZIPEK_clean_linker_0, # of connection points: 2
#     Edge 80, Type (0, 0), BuildingBlock: EZIPEK_clean_linker_0, # of connection points: 2
#     Edge 81, Type (0, 0), BuildingBlock: EZIPEK_clean_linker_0, # of connection points: 2
#     Edge 82, Type (0, 0), BuildingBlock: EZIPEK_clean_linker_0, # of connection points: 2
#     Edge 83, Type (0, 0), BuildingBlock: EZIPEK_clean_linker_0, # of connection points: 2
#     Edge 84, Type (0, 0), BuildingBlock: EZIPEK_clean_linker_0, # of connection points: 2
#     Edge 85, Type (0, 0), BuildingBlock: EZIPEK_clean_linker_0, # of connection points: 2
#     Edge 86, Type (0, 0), BuildingBlock: EZIPEK_clean_linker_0, # of connection points: 2
#     Edge 87, Type (0, 0), BuildingBlock: EZIPEK_clean_linker_0, # of connection points: 2
#     Edge 88, Type (0, 0), BuildingBlock: EZIPEK_clean_linker_0, # of connection points: 2
#     Edge 89, Type (0, 0), BuildingBlock: EZIPEK_clean_linker_0, # of connection points: 2
#     Edge 90, Type (0, 0), BuildingBlock: EZIPEK_clean_linker_0, # of connection points: 2
#     Edge 91, Type (0, 0), BuildingBlock: EZIPEK_clean_linker_0, # of connection points: 2
#     Edge 92, Type (0, 0), BuildingBlock: EZIPEK_clean_linker_0, # of connection points: 2
#     Edge 93, Type (0, 0), BuildingBlock: EZIPEK_clean_linker_0, # of connection points: 2
#     Edge 94, Type (0, 0), BuildingBlock: EZIPEK_clean_linker_0, # of connection points: 2
#     Edge 95, Type (0, 0), BuildingBlock: EZIPEK_clean_linker_0, # of connection points: 2
#     Edge 96, Type (0, 0), BuildingBlock: EZIPEK_clean_linker_0, # of connection points: 2
#     Edge 97, Type (0, 0), BuildingBlock: EZIPEK_clean_linker_0, # of connection points: 2
#     Edge 98, Type (0, 0), BuildingBlock: EZIPEK_clean_linker_0, # of connection points: 2
#     Edge 99, Type (0, 0), BuildingBlock: EZIPEK_clean_linker_0, # of connection points: 2
#     Edge 100, Type (0, 0), BuildingBlock: EZIPEK_clean_linker_0, # of connection points: 2
#     Edge 101, Type (0, 0), BuildingBlock: EZIPEK_clean_linker_0, # of connection points: 2
#     Edge 102, Type (0, 0), BuildingBlock: EZIPEK_clean_linker_0, # of connection points: 2
#     Edge 103, Type (0, 0), BuildingBlock: EZIPEK_clean_linker_0, # of connection points: 2
#     Edge 104, Type (0, 0), BuildingBlock: EZIPEK_clean_linker_0, # of connection points: 2
#     Edge 105, Type (0, 0), BuildingBlock: EZIPEK_clean_linker_0, # of connection points: 2
#     Edge 106, Type (0, 0), BuildingBlock: EZIPEK_clean_linker_0, # of connection points: 2
#     Edge 107, Type (0, 0), BuildingBlock: EZIPEK_clean_linker_0, # of connection points: 2
#     Edge 108, Type (0, 0), BuildingBlock: EZIPEK_clean_linker_0, # of connection points: 2
#     Edge 109, Type (0, 0), BuildingBlock: EZIPEK_clean_linker_0, # of connection points: 2
#     Edge 110, Type (0, 0), BuildingBlock: EZIPEK_clean_linker_0, # of connection points: 2
#     Edge 111, Type (0, 0), BuildingBlock: EZIPEK_clean_linker_0, # of connection points: 2
# Relax obj value: 0.539
# Max RMSD: 0.236
# Mean RMSD: 0.236
data_MOF--net-yfm--node1-BEQFEK_clean_sbu_0--edge1-EZIPEK_clean_linker_0
_symmetry_space_group_name_H-M    P1
_symmetry_Int_Tables_number       1
_symmetry_cell_setting            triclinic
loop_
_symmetry_equiv_pos_as_xyz
'x, y, z'
_cell_length_a     48.72734
_cell_length_b     48.705726
_cell_length_c     39.241267
_cell_angle_alpha  89.984935
_cell_angle_beta   90.023501
_cell_angle_gamma 90.000263
loop_
_atom_site_label
_atom_site_type_symbol
_atom_site_fract_x
_atom_site_fract_y
_atom_site_fract_z
_atom_type_partial_charge
Co0 Co 0.23362 0.14245 0.13269 0.0
Co1 Co 0.24103 0.1127 0.06168 0.0
C2 C 0.28656 0.11712 0.11292 0.0
O3 O 0.27247 0.13313 0.13136 0.0
O4 O 0.27716 0.10751 0.08503 0.0
C5 C 0.24873 0.1799 0.18519 0.0
O6 O 0.26712 0.18824 0.16302 0.0
C7 C 0.26624 0.0965 0.99556 0.0
C8 C 0.22984 0.08819 0.96372 0.0
C9 C 0.25826 0.08856 0.96307 0.0
N10 N 0.24365 0.10075 0.01466 0.0
N11 N 0.22197 0.09569 0.99535 0.0
C12 C 0.29493 0.09996 1.00824 0.0
H13 H 0.29845 0.08585 0.03 0.0
H14 H 0.29753 0.12132 0.01742 0.0
H15 H 0.3103 0.09563 0.9881 0.0
C16 C 0.21802 0.18852 0.08893 0.0
N17 N 0.22409 0.16184 0.09319 0.0
N18 N 0.22922 0.15058 0.06333 0.0
C19 C 0.22729 0.17031 0.03916 0.0
C20 C 0.22032 0.19501 0.05477 0.0
C21 C 0.21262 0.20827 0.11731 0.0
H22 H 0.23212 0.21834 0.12484 0.0
H23 H 0.19818 0.22449 0.10879 0.0
H24 H 0.20374 0.19744 0.13954 0.0
O25 O 0.21326 0.10768 0.13777 0.0
O26 O 0.2157 0.08705 0.08721 0.0
H27 H 0.2352 0.18625 0.98865 0.0
H28 H 0.25571 0.15685 1.00116 0.0
C29 C 0.2351 0.16643 1.00264 0.0
H30 H 0.2202 0.15237 0.99035 0.0
H31 H 0.20172 0.09747 1.00374 0.0
O32 O 0.23031 0.16294 0.17602 0.0
C33 C 0.20773 0.0876 0.11824 0.0
Co34 Co 0.11663 0.97744 0.37966 0.0
Co35 Co 0.14163 0.98593 0.30623 0.0
C36 C 0.14099 0.03089 0.35545 0.0
O37 O 0.13194 0.01504 0.37856 0.0
O38 O 0.14237 0.02326 0.32459 0.0
C39 C 0.08119 0.99418 0.43392 0.0
O40 O 0.07571 0.015 0.41378 0.0
C41 C 0.15766 0.01107 0.2402 0.0
C42 C 0.16787 0.97503 0.20863 0.0
C43 C 0.16711 0.00348 0.20823 0.0
N44 N 0.15312 0.98825 0.25889 0.0
N45 N 0.15916 0.96677 0.23966 0.0
C46 C 0.15391 0.03978 0.25295 0.0
H47 H 0.16934 0.04401 0.27303 0.0
H48 H 0.13315 0.04195 0.26422 0.0
H49 H 0.15646 0.05513 0.23232 0.0
C50 C 0.068 0.96329 0.33872 0.0
N51 N 0.09495 0.96882 0.34115 0.0
N52 N 0.10504 0.97258 0.31035 0.0
C53 C 0.08442 0.97059 0.28749 0.0
C54 C 0.06028 0.9647 0.30486 0.0
C55 C 0.04907 0.96022 0.36846 0.0
H56 H 0.05963 0.94955 0.38968 0.0
H57 H 0.0425 0.98088 0.37708 0.0
H58 H 0.03044 0.94848 0.36119 0.0
O59 O 0.14881 0.95385 0.38294 0.0
O60 O 0.17 0.96455 0.33442 0.0
H61 H 0.10138 0.9641 0.238 0.0
H62 H 0.0668 0.97757 0.23761 0.0
C63 C 0.08695 0.97838 0.25077 0.0
H64 H 0.09559 0.9994 0.24877 0.0
H65 H 0.1577 0.94645 0.24788 0.0
O66 O 0.09681 0.97504 0.42352 0.0
C67 C 0.16976 0.95289 0.36372 0.0
Co68 Co 0.27644 0.87038 0.6286 0.0
Co69 Co 0.2702 0.89561 0.5548 0.0
C70 C 0.22457 0.89755 0.60359 0.0
O71 O 0.23957 0.88785 0.62729 0.0
O72 O 0.23257 0.89784 0.5728 0.0
C73 C 0.26124 0.84398 0.69171 0.0
O74 O 0.23607 0.85043 0.68285 0.0
C75 C 0.24672 0.90994 0.48735 0.0
C76 C 0.28348 0.91927 0.45666 0.0
C77 C 0.25509 0.91809 0.45516 0.0
N78 N 0.26904 0.9064 0.50721 0.0
N79 N 0.29097 0.91189 0.48852 0.0
C80 C 0.21776 0.90589 0.49894 0.0
H81 H 0.21588 0.88576 0.51196 0.0
H82 H 0.20315 0.90667 0.47726 0.0
H83 H 0.21231 0.92226 0.51736 0.0
C84 C 0.28841 0.82129 0.58811 0.0
N85 N 0.28406 0.84846 0.59014 0.0
N86 N 0.28213 0.85872 0.55921 0.0
C87 C 0.28476 0.8381 0.53642 0.0
C88 C 0.28888 0.81375 0.5541 0.0
C89 C 0.28883 0.80252 0.61827 0.0
H90 H 0.30448 0.80973 0.63674 0.0
H91 H 0.26852 0.80309 0.63105 0.0
H92 H 0.29357 0.78112 0.61077 0.0
O93 O 0.30146 0.90149 0.63184 0.0
O94 O 0.29251 0.92317 0.58308 0.0
H95 H 0.29496 0.8553 0.48801 0.0
H96 H 0.28117 0.82089 0.48578 0.0
C97 C 0.27966 0.84097 0.49902 0.0
H98 H 0.25896 0.84981 0.49481 0.0
H99 H 0.31107 0.91083 0.4976 0.0
O100 O 0.28097 0.84921 0.67157 0.0
C101 C 0.30369 0.92238 0.61266 0.0
Co102 Co 0.39228 0.02437 0.87776 0.0
Co103 Co 0.36137 0.0212 0.80687 0.0
C104 C 0.36211 0.9747 0.85769 0.0
O105 O 0.38026 0.98621 0.87587 0.0
O106 O 0.35323 0.98573 0.83033 0.0
C107 C 0.42954 0.00659 0.92898 0.0
O108 O 0.4365 0.98807 0.90626 0.0
C109 C 0.34343 0.99734 0.74053 0.0
C110 C 0.34036 0.034 0.70774 0.0
C111 C 0.33767 0.00569 0.70746 0.0
N112 N 0.34933 0.01959 0.75963 0.0
N113 N 0.34727 0.04145 0.73976 0.0
C114 C 0.34407 0.96854 0.75348 0.0
H115 H 0.36497 0.96408 0.76317 0.0
H116 H 0.33868 0.9535 0.73332 0.0
H117 H 0.32937 0.96648 0.7749 0.0
C118 C 0.43847 0.03928 0.83406 0.0
N119 N 0.41167 0.03392 0.83844 0.0
N120 N 0.3999 0.03033 0.80854 0.0
C121 C 0.41944 0.03233 0.78418 0.0
C122 C 0.44443 0.03808 0.7997 0.0
C123 C 0.45876 0.04287 0.86234 0.0
H124 H 0.44873 0.05211 0.88492 0.0
H125 H 0.46744 0.02258 0.86931 0.0
H126 H 0.47594 0.05624 0.85404 0.0
O127 O 0.35874 0.04622 0.88393 0.0
O128 O 0.3377 0.04771 0.8335 0.0
H129 H 0.40295 0.04232 0.73538 0.0
H130 H 0.43489 0.02371 0.73364 0.0
C131 C 0.41508 0.02568 0.74739 0.0
H132 H 0.40338 0.00624 0.74512 0.0
H133 H 0.35111 0.06148 0.74791 0.0
O134 O 0.41343 0.02598 0.92059 0.0
C135 C 0.33892 0.05392 0.86515 0.0
Co136 Co 0.24516 0.85777 0.88714 0.0
Co137 Co 0.23704 0.8897 0.9553 0.0
C138 C 0.28804 0.89258 0.90925 0.0
O139 O 0.28252 0.87043 0.89389 0.0
O140 O 0.27202 0.90206 0.93219 0.0
C141 C 0.26552 0.82247 0.83365 0.0
O142 O 0.28418 0.81466 0.85578 0.0
C143 C 0.2573 0.90598 0.02383 0.0
C144 C 0.22316 0.93119 0.04317 0.0
C145 C 0.24967 0.92283 0.05071 0.0
N146 N 0.23656 0.90468 1.00113 0.0
N147 N 0.216 0.91945 0.0133 0.0
C148 C 0.28448 0.8924 0.01932 0.0
H149 H 0.2847 0.87979 0.99577 0.0
H150 H 0.28872 0.87903 0.04161 0.0
H151 H 0.30081 0.90826 0.01861 0.0
C152 C 0.22876 0.8109 0.92973 0.0
N153 N 0.23349 0.83781 0.92535 0.0
N154 N 0.23199 0.85045 0.95498 0.0
C155 C 0.22661 0.83155 0.97934 0.0
C156 C 0.22444 0.80587 0.964 0.0
C157 C 0.2294 0.7901 0.90177 0.0
H158 H 0.22238 0.7994 0.87754 0.0
H159 H 0.2507 0.78248 0.89856 0.0
H160 H 0.21598 0.77248 0.90811 0.0
O161 O 0.22195 0.89046 0.87852 0.0
O162 O 0.2077 0.90799 0.92746 0.0
H163 H 0.21714 0.81975 0.03108 0.0
H164 H 0.24542 0.84346 0.02613 0.0
C165 C 0.22477 0.83776 0.01656 0.0
H166 H 0.21095 0.85556 0.02063 0.0
H167 H 0.19753 0.92263 1.00042 0.0
O168 O 0.24579 0.83766 0.84329 0.0
C169 C 0.20753 0.90779 0.89494 0.0
Co170 Co 0.38588 0.99247 0.13274 0.0
Co171 Co 0.35543 0.99704 0.20417 0.0
C172 C 0.36584 0.04667 0.15837 0.0
O173 O 0.37769 0.03226 0.13566 0.0
O174 O 0.35644 0.03546 0.18549 0.0
C175 C 0.41813 0.00426 0.0735 0.0
O176 O 0.41953 0.02894 0.08664 0.0
C177 C 0.33246 0.01781 0.27017 0.0
C178 C 0.33369 0.98088 0.30254 0.0
C179 C 0.32734 0.00859 0.30295 0.0
N180 N 0.34194 0.99683 0.25109 0.0
N181 N 0.3421 0.97468 0.27065 0.0
C182 C 0.32853 0.04638 0.25771 0.0
H183 H 0.34859 0.05699 0.25917 0.0
H184 H 0.31363 0.05773 0.27381 0.0
H185 H 0.32112 0.04608 0.23102 0.0
C186 C 0.43064 0.97444 0.17613 0.0
N187 N 0.40392 0.98036 0.17228 0.0
N188 N 0.39232 0.98298 0.20244 0.0
C189 C 0.41189 0.97941 0.22656 0.0
C190 C 0.43673 0.97382 0.21052 0.0
C191 C 0.45074 0.97345 0.14735 0.0
H192 H 0.45264 0.99421 0.13594 0.0
H193 H 0.47124 0.96653 0.15605 0.0
H194 H 0.44317 0.9592 0.12743 0.0
O195 O 0.35094 0.97352 0.12546 0.0
O196 O 0.3286 0.97534 0.17476 0.0
H197 H 0.42813 0.98863 0.27658 0.0
H198 H 0.39529 0.00418 0.26678 0.0
C199 C 0.40812 0.98555 0.26361 0.0
H200 H 0.39754 0.96801 0.27591 0.0
H201 H 0.34855 0.95535 0.26242 0.0
O202 O 0.40739 0.985 0.09076 0.0
C203 C 0.33001 0.96812 0.14348 0.0
Co204 Co 0.25946 0.14257 0.39223 0.0
Co205 Co 0.25756 0.10846 0.46011 0.0
C206 C 0.21008 0.11468 0.41008 0.0
O207 O 0.22002 0.13551 0.39533 0.0
O208 O 0.22298 0.10267 0.43398 0.0
C209 C 0.24649 0.16953 0.32942 0.0
O210 O 0.22118 0.16359 0.3381 0.0
C211 C 0.22903 0.10019 0.52491 0.0
C212 C 0.25125 0.06531 0.54795 0.0
C213 C 0.22873 0.08234 0.55264 0.0
N214 N 0.25049 0.09386 0.50481 0.0
N215 N 0.26382 0.07311 0.51888 0.0
C216 C 0.20871 0.12231 0.51679 0.0
H217 H 0.21838 0.13849 0.50095 0.0
H218 H 0.20018 0.13128 0.54053 0.0
H219 H 0.19159 0.11356 0.5017 0.0
C220 C 0.27771 0.18582 0.43803 0.0
N221 N 0.27112 0.1595 0.43235 0.0
N222 N 0.2695 0.14624 0.46154 0.0
C223 C 0.27531 0.16413 0.48693 0.0
C224 C 0.28008 0.1899 0.47278 0.0
C225 C 0.27934 0.20713 0.41066 0.0
H226 H 0.25828 0.21266 0.40233 0.0
H227 H 0.29012 0.22577 0.41973 0.0
H228 H 0.29057 0.19879 0.38841 0.0
O229 O 0.27887 0.10696 0.38461 0.0
O230 O 0.28374 0.0848 0.43395 0.0
H231 H 0.28937 0.17111 0.53813 0.0
H232 H 0.2543 0.16029 0.53453 0.0
C233 C 0.27522 0.15729 0.52408 0.0
H234 H 0.28139 0.13562 0.52805 0.0
H235 H 0.28094 0.06364 0.50806 0.0
O236 O 0.26598 0.16485 0.35026 0.0
C237 C 0.28773 0.08662 0.40182 0.0
Co238 Co 0.10122 0.01079 0.63949 0.0
Co239 Co 0.13408 0.01357 0.70823 0.0
C240 C 0.13885 0.96666 0.65684 0.0
O241 O 0.1199 0.97539 0.63754 0.0
O242 O 0.14592 0.97971 0.68354 0.0
C243 C 0.07295 0.99369 0.58004 0.0
O244 O 0.07554 0.96918 0.59357 0.0
C245 C 0.14615 0.9873 0.77346 0.0
C246 C 0.18008 0.01262 0.79349 0.0
C247 C 0.16556 0.98859 0.79951 0.0
N248 N 0.14941 0.00923 0.75296 0.0
N249 N 0.1695 0.02448 0.76537 0.0
C250 C 0.12598 0.96473 0.76662 0.0
H251 H 0.10673 0.97329 0.75603 0.0
H252 H 0.12158 0.95289 0.79016 0.0
H253 H 0.13442 0.95067 0.74703 0.0
C254 C 0.05463 0.01831 0.68504 0.0
N255 N 0.08168 0.01551 0.67997 0.0
N256 N 0.0948 0.0179 0.70917 0.0
C257 C 0.07612 0.02297 0.7339 0.0
C258 C 0.05012 0.02316 0.71928 0.0
C259 C 0.03364 0.01662 0.65726 0.0
H260 H 0.03639 0.03424 0.63966 0.0
H261 H 0.03686 0.99752 0.64239 0.0
H262 H 0.01243 0.01691 0.66747 0.0
O263 O 0.12988 0.03891 0.63468 0.0
O264 O 0.15258 0.04446 0.68277 0.0
H265 H 0.10404 0.03598 0.7732 0.0
H266 H 0.06808 0.04305 0.78164 0.0
C267 C 0.08279 0.02813 0.77053 0.0
H268 H 0.08085 0.00866 0.785 0.0
H269 H 0.17699 0.04218 0.75361 0.0
O270 O 0.07896 0.01471 0.59766 0.0
C271 C 0.14852 0.05105 0.65168 0.0
Co272 Co 0.76382 0.85829 0.88817 0.0
Co273 Co 0.75844 0.88829 0.95937 0.0
C274 C 0.7134 0.88628 0.90557 0.0
O275 O 0.72462 0.86704 0.88886 0.0
O276 O 0.72438 0.89616 0.93242 0.0
C277 C 0.75305 0.83168 0.82483 0.0
O278 O 0.72751 0.83249 0.83535 0.0
C279 C 0.73023 0.90456 0.02405 0.0
C280 C 0.76495 0.90558 0.06019 0.0
C281 C 0.73671 0.90872 0.05828 0.0
N282 N 0.75352 0.89905 1.0067 0.0
N283 N 0.77416 0.89997 0.02856 0.0
C284 C 0.70242 0.90583 1.008 0.0
H285 H 0.70263 0.92114 0.98707 0.0
H286 H 0.6975 0.88555 0.99664 0.0
H287 H 0.68635 0.91151 0.02673 0.0
C288 C 0.77735 0.81178 0.93064 0.0
N289 N 0.77261 0.83874 0.9272 0.0
N290 N 0.76897 0.85003 0.95735 0.0
C291 C 0.77126 0.83005 0.98119 0.0
C292 C 0.77663 0.80529 0.96488 0.0
C293 C 0.77892 0.7922 0.90133 0.0
H294 H 0.79481 0.7993 0.88312 0.0
H295 H 0.75894 0.792 0.88777 0.0
H296 H 0.78391 0.77108 0.90988 0.0
O297 O 0.78411 0.89329 0.88496 0.0
O298 O 0.78577 0.91323 0.93593 0.0
H299 H 0.78238 0.84541 0.03016 0.0
H300 H 0.76359 0.81362 0.0315 0.0
C301 C 0.76539 0.8337 0.0183 0.0
H302 H 0.74607 0.84541 0.02162 0.0
H303 H 0.79457 0.8962 0.02199 0.0
O304 O 0.77226 0.83867 0.84497 0.0
C305 C 0.79176 0.91283 0.90417 0.0
Co306 Co 0.88533 0.02358 0.64096 0.0
Co307 Co 0.8544 0.01687 0.71171 0.0
C308 C 0.85695 0.97229 0.65826 0.0
O309 O 0.87468 0.9849 0.64053 0.0
O310 O 0.84726 0.98244 0.68565 0.0
C311 C 0.91964 0.01044 0.58363 0.0
O312 O 0.92555 0.98834 0.60133 0.0
C313 C 0.83637 0.98856 0.77539 0.0
C314 C 0.83141 0.02327 0.81101 0.0
C315 C 0.82943 0.99493 0.80888 0.0
N316 N 0.8422 0.01201 0.75852 0.0
N317 N 0.83904 0.03265 0.78007 0.0
C318 C 0.83727 0.96063 0.75957 0.0
H319 H 0.82155 0.9594 0.73917 0.0
H320 H 0.85765 0.95738 0.74763 0.0
H321 H 0.8333 0.94422 0.77856 0.0
C322 C 0.93169 0.0356 0.68567 0.0
N323 N 0.90475 0.03123 0.68098 0.0
N324 N 0.89279 0.02699 0.71066 0.0
C325 C 0.91222 0.02819 0.73525 0.0
C326 C 0.93746 0.0335 0.72008 0.0
C327 C 0.95206 0.03831 0.65735 0.0
H328 H 0.94301 0.05012 0.63599 0.0
H329 H 0.95762 0.01754 0.64802 0.0
H330 H 0.97101 0.04872 0.66619 0.0
O331 O 0.85117 0.04524 0.63717 0.0
O332 O 0.82998 0.0442 0.6874 0.0
H333 H 0.89441 0.03754 0.78351 0.0
H334 H 0.92701 0.02016 0.78628 0.0
C335 C 0.90742 0.02139 0.77192 0.0
H336 H 0.89641 0.00153 0.77387 0.0
H337 H 0.84238 0.05319 0.77374 0.0
O338 O 0.90535 0.02931 0.59732 0.0
C339 C 0.83107 0.05173 0.65618 0.0
Co340 Co 0.72419 0.13698 0.38738 0.0
Co341 Co 0.72989 0.10964 0.46046 0.0
C342 C 0.77512 0.10828 0.40852 0.0
O343 O 0.76182 0.12356 0.38826 0.0
O344 O 0.76518 0.10086 0.43708 0.0
C345 C 0.74121 0.1676 0.32949 0.0
O346 O 0.76303 0.17223 0.34828 0.0
C347 C 0.75671 0.09479 0.52612 0.0
C348 C 0.72134 0.08995 0.56071 0.0
C349 C 0.74974 0.0886 0.55962 0.0
N350 N 0.73355 0.09956 0.5082 0.0
N351 N 0.7125 0.09661 0.52916 0.0
C352 C 0.78496 0.09568 0.51125 0.0
H353 H 0.78733 0.07852 0.4929 0.0
H354 H 0.78776 0.11521 0.4971 0.0
H355 H 0.801 0.09382 0.53118 0.0
C356 C 0.71358 0.18599 0.42835 0.0
N357 N 0.71747 0.15877 0.42575 0.0
N358 N 0.72099 0.14817 0.45637 0.0
C359 C 0.71976 0.16877 0.47945 0.0
C360 C 0.71503 0.19331 0.46233 0.0
C361 C 0.71138 0.20505 0.39857 0.0
H362 H 0.69882 0.1955 0.3782 0.0
H363 H 0.73221 0.20906 0.38832 0.0
H364 H 0.70209 0.22493 0.40618 0.0
O365 O 0.70054 0.10429 0.38538 0.0
O366 O 0.70206 0.0849 0.43669 0.0
H367 H 0.70957 0.15284 0.52849 0.0
H368 H 0.72662 0.18575 0.52967 0.0
C369 C 0.72581 0.16556 0.51658 0.0
H370 H 0.74571 0.15482 0.51985 0.0
H371 H 0.69205 0.09922 0.52196 0.0
O372 O 0.72066 0.15551 0.34261 0.0
C373 C 0.69383 0.08508 0.40567 0.0
Co374 Co 0.60737 0.98031 0.13683 0.0
Co375 Co 0.63528 0.98405 0.20981 0.0
C376 C 0.64034 0.02838 0.15603 0.0
O377 O 0.62254 0.01753 0.13666 0.0
O378 O 0.64722 0.01746 0.18427 0.0
C379 C 0.57667 0.99639 0.07811 0.0
O380 O 0.57266 0.01905 0.09553 0.0
C381 C 0.65155 0.0113 0.27501 0.0
C382 C 0.65265 0.97643 0.31089 0.0
C383 C 0.6562 0.00464 0.30908 0.0
N384 N 0.64552 0.98816 0.25759 0.0
N385 N 0.64638 0.96741 0.27931 0.0
C386 C 0.65298 0.0392 0.25913 0.0
H387 H 0.66987 0.03955 0.24019 0.0
H388 H 0.63354 0.04344 0.24536 0.0
H389 H 0.65671 0.05545 0.27837 0.0
C390 C 0.55829 0.97095 0.17799 0.0
N391 N 0.58551 0.97458 0.17531 0.0
N392 N 0.59626 0.97768 0.2059 0.0
C393 C 0.57569 0.97671 0.22904 0.0
C394 C 0.55107 0.97229 0.212 0.0
C395 C 0.53921 0.96841 0.14831 0.0
H396 H 0.53466 0.98918 0.13814 0.0
H397 H 0.51967 0.95857 0.15605 0.0
H398 H 0.54891 0.95607 0.12787 0.0
O399 O 0.63891 0.95525 0.1354 0.0
O400 O 0.6577 0.95402 0.18709 0.0
H401 H 0.55892 0.98438 0.27915 0.0
H402 H 0.59131 0.00112 0.26999 0.0
C403 C 0.57908 0.98216 0.26628 0.0
H404 H 0.59034 0.96481 0.27807 0.0
H405 H 0.6423 0.94707 0.27268 0.0
O406 O 0.58859 0.9762 0.09233 0.0
C407 C 0.65731 0.94669 0.15573 0.0
Co408 Co 0.77239 0.13153 0.12585 0.0
Co409 Co 0.76763 0.10746 0.05084 0.0
C410 C 0.72281 0.10111 0.10227 0.0
O411 O 0.73645 0.11344 0.12514 0.0
O412 O 0.73186 0.09856 0.07201 0.0
C413 C 0.75198 0.16033 0.18318 0.0
O414 O 0.72982 0.16203 0.16426 0.0
C415 C 0.74242 0.09259 0.98431 0.0
C416 C 0.77825 0.08968 0.95017 0.0
C417 C 0.74994 0.08711 0.95091 0.0
N418 N 0.76513 0.09839 1.00263 0.0
N419 N 0.78647 0.09665 0.9819 0.0
C420 C 0.71397 0.09183 0.99856 0.0
H421 H 0.70996 0.111 0.01301 0.0
H422 H 0.69837 0.08957 0.97813 0.0
H423 H 0.71217 0.07425 0.0164 0.0
C424 C 0.78092 0.18251 0.0871 0.0
N425 N 0.77755 0.15515 0.08827 0.0
N426 N 0.77517 0.14559 0.05698 0.0
C427 C 0.77635 0.16689 0.03497 0.0
C428 C 0.78018 0.19088 0.05343 0.0
C429 C 0.78246 0.20065 0.1178 0.0
H430 H 0.79575 0.1911 0.13743 0.0
H431 H 0.76157 0.20313 0.12857 0.0
H432 H 0.79061 0.22124 0.11114 0.0
O433 O 0.79918 0.10143 0.12642 0.0
O434 O 0.79585 0.08303 0.07467 0.0
H435 H 0.78836 0.15306 0.98561 0.0
H436 H 0.77004 0.18528 0.98539 0.0
C437 C 0.77133 0.16471 0.99749 0.0
H438 H 0.75197 0.15331 0.99286 0.0
H439 H 0.80673 0.10004 0.98945 0.0
O440 O 0.77385 0.15033 0.17055 0.0
C441 C 0.80575 0.08299 0.10493 0.0
Co442 Co 0.61452 0.01973 0.87438 0.0
Co443 Co 0.64041 0.01384 0.80068 0.0
C444 C 0.64158 0.96807 0.84982 0.0
O445 O 0.63127 0.98293 0.87311 0.0
O446 O 0.6431 0.97636 0.81918 0.0
C447 C 0.58307 0.00122 0.93133 0.0
O448 O 0.58035 0.97875 0.91318 0.0
C449 C 0.65643 0.9895 0.73393 0.0
C450 C 0.66329 0.02597 0.70174 0.0
C451 C 0.66389 0.99752 0.70131 0.0
N452 N 0.65141 0.01206 0.75294 0.0
N453 N 0.65549 0.03379 0.73332 0.0
C454 C 0.65468 0.96065 0.74678 0.0
H455 H 0.63431 0.95725 0.75868 0.0
H456 H 0.65767 0.94552 0.72596 0.0
H457 H 0.6707 0.95736 0.76645 0.0
C458 C 0.5657 0.0328 0.8335 0.0
N459 N 0.5927 0.0276 0.83589 0.0
N460 N 0.60324 0.02573 0.80505 0.0
C461 C 0.58292 0.0293 0.78202 0.0
C462 C 0.55854 0.03392 0.79941 0.0
C463 C 0.54663 0.03413 0.86333 0.0
H464 H 0.55583 0.0469 0.88374 0.0
H465 H 0.54352 0.01311 0.87351 0.0
H466 H 0.52641 0.04277 0.85599 0.0
O467 O 0.64585 0.04451 0.87789 0.0
O468 O 0.66778 0.03654 0.82904 0.0
H469 H 0.59963 0.04157 0.73414 0.0
H470 H 0.566 0.02617 0.73118 0.0
C471 C 0.5861 0.02527 0.74446 0.0
H472 H 0.59596 0.00514 0.73947 0.0
H473 H 0.65318 0.05403 0.74157 0.0
O474 O 0.59472 0.02209 0.9183 0.0
C475 C 0.66673 0.04735 0.85884 0.0
Co476 Co 0.73383 0.86317 0.62499 0.0
Co477 Co 0.73903 0.88858 0.55113 0.0
C478 C 0.78427 0.89246 0.5996 0.0
O479 O 0.76948 0.88202 0.62284 0.0
O480 O 0.77662 0.8926 0.56869 0.0
C481 C 0.7551 0.83011 0.67903 0.0
O482 O 0.7755 0.82577 0.65784 0.0
C483 C 0.7625 0.90396 0.48367 0.0
C484 C 0.72574 0.91344 0.45308 0.0
C485 C 0.75417 0.91271 0.45163 0.0
N486 N 0.74014 0.89964 0.50332 0.0
N487 N 0.71823 0.90521 0.48462 0.0
C488 C 0.79148 0.90082 0.49562 0.0
H489 H 0.79612 0.91714 0.51449 0.0
H490 H 0.79399 0.88058 0.50822 0.0
H491 H 0.80627 0.90248 0.47423 0.0
C492 C 0.72193 0.81357 0.58481 0.0
N493 N 0.72662 0.8407 0.58687 0.0
N494 N 0.72853 0.85098 0.55589 0.0
C495 C 0.72576 0.83034 0.53314 0.0
C496 C 0.72156 0.80599 0.55087 0.0
C497 C 0.71982 0.79478 0.61484 0.0
H498 H 0.7091 0.80524 0.63608 0.0
H499 H 0.74077 0.78906 0.62333 0.0
H500 H 0.70859 0.77573 0.6081 0.0
O501 O 0.70748 0.89317 0.62877 0.0
O502 O 0.71569 0.91535 0.58012 0.0
H503 H 0.71407 0.84752 0.48524 0.0
H504 H 0.72837 0.81331 0.48234 0.0
C505 C 0.72986 0.83339 0.49558 0.0
H506 H 0.75029 0.84265 0.49065 0.0
H507 H 0.6981 0.9038 0.49354 0.0
O508 O 0.73425 0.84361 0.66913 0.0
C509 C 0.7046 0.91413 0.60978 0.0
Co510 Co 0.88561 0.98529 0.37818 0.0
Co511 Co 0.86272 0.99064 0.30301 0.0
C512 C 0.85552 0.03514 0.35196 0.0
O513 O 0.86521 0.02025 0.37567 0.0
O514 O 0.85741 0.02808 0.32092 0.0
C515 C 0.91462 0.00595 0.43658 0.0
O516 O 0.91684 0.02853 0.41851 0.0
C517 C 0.84852 0.01361 0.23448 0.0
C518 C 0.84905 0.97672 0.20194 0.0
C519 C 0.84526 0.00494 0.2009 0.0
N520 N 0.85388 0.9916 0.25442 0.0
N521 N 0.85396 0.96962 0.23464 0.0
C522 C 0.8468 0.04254 0.24722 0.0
H523 H 0.86658 0.04829 0.25928 0.0
H524 H 0.84196 0.05731 0.22661 0.0
H525 H 0.83049 0.04404 0.26669 0.0
C526 C 0.93669 0.97429 0.34059 0.0
N527 N 0.90954 0.97913 0.34119 0.0
N528 N 0.90028 0.98079 0.30969 0.0
C529 C 0.92162 0.97758 0.28806 0.0
C530 C 0.94525 0.97319 0.30702 0.0
C531 C 0.95443 0.97249 0.37164 0.0
H532 H 0.9444 0.95931 0.39103 0.0
H533 H 0.95691 0.99333 0.38261 0.0
H534 H 0.97503 0.96412 0.36548 0.0
O535 O 0.85647 0.95795 0.37973 0.0
O536 O 0.83565 0.96615 0.33012 0.0
H537 H 0.9093 0.96333 0.23901 0.0
H538 H 0.94083 0.98265 0.23877 0.0
C539 C 0.92007 0.9812 0.25027 0.0
H540 H 0.90826 3e-05 0.24414 0.0
H541 H 0.85788 0.94976 0.24337 0.0
O542 O 0.90407 0.98464 0.4232 0.0
C543 C 0.83629 0.95468 0.35964 0.0
Co544 Co 0.73112 0.63476 0.62921 0.0
Co545 Co 0.73421 0.60774 0.55572 0.0
C546 C 0.77985 0.60338 0.60781 0.0
O547 O 0.7677 0.61786 0.63004 0.0
O548 O 0.76929 0.59888 0.57864 0.0
C549 C 0.74749 0.66324 0.68913 0.0
O550 O 0.77174 0.663 0.67457 0.0
C551 C 0.76143 0.59244 0.49073 0.0
C552 C 0.72665 0.58013 0.45818 0.0
C553 C 0.75503 0.58206 0.45875 0.0
N554 N 0.73801 0.59645 0.5084 0.0
N555 N 0.71728 0.58924 0.48853 0.0
C556 C 0.78955 0.59717 0.5048 0.0
H557 H 0.78982 0.61638 0.51999 0.0
H558 H 0.80505 0.59844 0.48414 0.0
H559 H 0.79504 0.57984 0.52186 0.0
C560 C 0.72223 0.68417 0.58776 0.0
N561 N 0.72552 0.65687 0.59034 0.0
N562 N 0.72693 0.64612 0.55958 0.0
C563 C 0.72486 0.66652 0.5364 0.0
C564 C 0.72171 0.69125 0.5536 0.0
C565 C 0.72177 0.70332 0.61756 0.0
H566 H 0.70644 0.6961 0.63643 0.0
H567 H 0.74221 0.70319 0.63004 0.0
H568 H 0.71672 0.72461 0.60972 0.0
O569 O 0.70534 0.60373 0.63138 0.0
O570 O 0.70541 0.58456 0.58005 0.0
H571 H 0.71244 0.64784 0.48965 0.0
H572 H 0.72569 0.6824 0.48494 0.0
C573 C 0.72804 0.66268 0.49883 0.0
H574 H 0.7486 0.6539 0.49344 0.0
H575 H 0.69674 0.58989 0.49599 0.0
O576 O 0.72667 0.65483 0.67265 0.0
C577 C 0.69717 0.58511 0.61104 0.0
Co578 Co 0.61057 0.47515 0.87838 0.0
Co579 Co 0.63894 0.48206 0.80585 0.0
C580 C 0.64016 0.52588 0.86052 0.0
O581 O 0.62326 0.51339 0.87965 0.0
O582 O 0.64788 0.51593 0.83207 0.0
C583 C 0.57794 0.48823 0.93703 0.0
O584 O 0.57262 0.51088 0.92015 0.0
C585 C 0.65653 0.5105 0.74174 0.0
C586 C 0.65201 0.47736 0.70384 0.0
C587 C 0.65832 0.50502 0.70688 0.0
N588 N 0.64921 0.48728 0.75827 0.0
N589 N 0.64706 0.4675 0.73536 0.0
C590 C 0.66163 0.53738 0.75909 0.0
H591 H 0.67656 0.53438 0.78012 0.0
H592 H 0.64217 0.5449 0.77041 0.0
H593 H 0.66979 0.55299 0.74117 0.0
C594 C 0.56253 0.46361 0.83581 0.0
N595 N 0.58951 0.46863 0.83914 0.0
N596 N 0.60035 0.47314 0.80886 0.0
C597 C 0.58004 0.47181 0.78536 0.0
C598 C 0.55556 0.46569 0.80176 0.0
C599 C 0.54333 0.45929 0.86504 0.0
H600 H 0.55371 0.44762 0.88558 0.0
H601 H 0.53692 0.47954 0.87525 0.0
H602 H 0.52477 0.4479 0.85679 0.0
O603 O 0.64389 0.4522 0.87984 0.0
O604 O 0.66318 0.45338 0.82841 0.0
H605 H 0.59254 0.46135 0.73495 0.0
H606 H 0.56292 0.48319 0.7365 0.0
C607 C 0.58311 0.47894 0.74849 0.0
H608 H 0.59649 0.49719 0.74564 0.0
H609 H 0.64135 0.44738 0.74111 0.0
O610 O 0.59144 0.46915 0.92255 0.0
C611 C 0.66298 0.44531 0.85949 0.0
Co612 Co 0.76556 0.36187 0.12947 0.0
Co613 Co 0.76013 0.38887 0.0564 0.0
C614 C 0.71455 0.3911 0.10509 0.0
O615 O 0.72937 0.3796 0.12748 0.0
O616 O 0.72282 0.39411 0.07466 0.0
C617 C 0.74447 0.3312 0.18523 0.0
O618 O 0.72291 0.32861 0.1654 0.0
C619 C 0.73606 0.40418 0.98914 0.0
C620 C 0.77231 0.40562 0.9556 0.0
C621 C 0.74397 0.4082 0.9555 0.0
N622 N 0.75857 0.3992 1.00832 0.0
N623 N 0.78018 0.40025 0.98795 0.0
C624 C 0.70738 0.40527 1.00268 0.0
H625 H 0.70605 0.42131 0.02268 0.0
H626 H 0.70212 0.38518 0.01433 0.0
H627 H 0.69226 0.41006 0.98239 0.0
C628 C 0.77692 0.31296 0.08899 0.0
N629 N 0.77236 0.34006 0.09135 0.0
N630 N 0.77008 0.3507 0.0606 0.0
C631 C 0.7726 0.33017 0.03759 0.0
C632 C 0.77708 0.30573 0.05497 0.0
C633 C 0.77872 0.29397 0.11888 0.0
H634 H 0.7911 0.30356 0.13939 0.0
H635 H 0.75777 0.29015 0.12885 0.0
H636 H 0.78802 0.27402 0.11159 0.0
O637 O 0.7922 0.39152 0.13317 0.0
O638 O 0.7839 0.41534 0.08578 0.0
H639 H 0.78528 0.34487 0.98889 0.0
H640 H 0.76666 0.31292 0.98735 0.0
C641 C 0.76798 0.33321 1.00012 0.0
H642 H 0.74876 0.34483 0.99554 0.0
H643 H 0.8003 0.3968 0.996 0.0
O644 O 0.76608 0.34238 0.17363 0.0
C645 C 0.79493 0.41319 0.11545 0.0
Co646 Co 0.88874 0.5046 0.38165 0.0
Co647 Co 0.86203 0.5089 0.30751 0.0
C648 C 0.85932 0.45731 0.3513 0.0
O649 O 0.87376 0.46742 0.3752 0.0
O650 O 0.85363 0.47162 0.32506 0.0
C651 C 0.92068 0.48297 0.4369 0.0
O652 O 0.9237 0.46199 0.41622 0.0
C653 C 0.85156 0.48861 0.23684 0.0
C654 C 0.82951 0.52333 0.21363 0.0
C655 C 0.8376 0.49646 0.20756 0.0
N656 N 0.85134 0.5095 0.2595 0.0
N657 N 0.83859 0.53043 0.24494 0.0
C658 C 0.86493 0.46139 0.24253 0.0
H659 H 0.87469 0.46027 0.26799 0.0
H660 H 0.88092 0.45825 0.22277 0.0
H661 H 0.84964 0.44474 0.23916 0.0
C662 C 0.93791 0.52029 0.34257 0.0
N663 N 0.9108 0.51543 0.34427 0.0
N664 N 0.90021 0.51702 0.31339 0.0
C665 C 0.92058 0.52272 0.29109 0.0
C666 C 0.9451 0.52492 0.30896 0.0
C667 C 0.95682 0.51932 0.37251 0.0
H668 H 0.95925 0.4977 0.38083 0.0
H669 H 0.9773 0.52782 0.36621 0.0
H670 H 0.94775 0.53121 0.3938 0.0
O671 O 0.85656 0.52865 0.38711 0.0
O672 O 0.83747 0.53385 0.33587 0.0
H673 H 0.93592 0.53167 0.24065 0.0
H674 H 0.91188 0.50349 0.24347 0.0
C675 C 0.91697 0.52422 0.25332 0.0
H676 H 0.89962 0.5381 0.24716 0.0
H677 H 0.83484 0.54913 0.25704 0.0
O678 O 0.90821 0.50432 0.42649 0.0
C679 C 0.83795 0.53857 0.36798 0.0
Co680 Co 0.72281 0.36513 0.39061 0.0
Co681 Co 0.73398 0.39146 0.46333 0.0
C682 C 0.77633 0.39147 0.40866 0.0
O683 O 0.7607 0.37759 0.38939 0.0
O684 O 0.76915 0.39846 0.43864 0.0
C685 C 0.73734 0.33481 0.33187 0.0
O686 O 0.76038 0.33129 0.34869 0.0
C687 C 0.76184 0.40508 0.52903 0.0
C688 C 0.72692 0.40613 0.56483 0.0
C689 C 0.75523 0.40868 0.56324 0.0
N690 N 0.73857 0.40042 0.51126 0.0
N691 N 0.71781 0.40117 0.53295 0.0
C692 C 0.78982 0.40616 0.51346 0.0
H693 H 0.79036 0.42254 0.49381 0.0
H694 H 0.79415 0.38633 0.50064 0.0
H695 H 0.80592 0.41028 0.53281 0.0
C696 C 0.71155 0.31656 0.43149 0.0
N697 N 0.71669 0.34358 0.42914 0.0
N698 N 0.723 0.3534 0.45942 0.0
C699 C 0.72263 0.33237 0.48198 0.0
C700 C 0.71523 0.30846 0.46492 0.0
C701 C 0.70669 0.29818 0.40155 0.0
H702 H 0.69289 0.30843 0.38302 0.0
H703 H 0.72657 0.29397 0.38881 0.0
H704 H 0.69752 0.27835 0.40958 0.0
O705 O 0.70074 0.39868 0.3898 0.0
O706 O 0.70704 0.41801 0.44065 0.0
H707 H 0.71682 0.34546 0.53333 0.0
H708 H 0.73536 0.31362 0.52939 0.0
C709 C 0.73234 0.33428 0.51804 0.0
H710 H 0.75189 0.34589 0.51907 0.0
H711 H 0.69738 0.39792 0.52605 0.0
O712 O 0.71701 0.34605 0.34664 0.0
C713 C 0.69688 0.41836 0.4105 0.0
Co714 Co 0.88811 0.47488 0.64186 0.0
Co715 Co 0.85919 0.48222 0.71403 0.0
C716 C 0.859 0.526 0.65879 0.0
O717 O 0.87554 0.5132 0.63939 0.0
O718 O 0.85122 0.51615 0.68732 0.0
C719 C 0.92151 0.48346 0.5814 0.0
O720 O 0.92242 0.50904 0.592 0.0
C721 C 0.84176 0.5106 0.77833 0.0
C722 C 0.84532 0.477 0.81578 0.0
C723 C 0.83964 0.50482 0.8131 0.0
N724 N 0.84861 0.48738 0.76152 0.0
N725 N 0.85021 0.46734 0.78416 0.0
C726 C 0.83755 0.53777 0.7613 0.0
H727 H 0.82285 0.53535 0.73992 0.0
H728 H 0.85734 0.54489 0.75045 0.0
H729 H 0.82959 0.55339 0.77933 0.0
C730 C 0.93561 0.46403 0.68514 0.0
N731 N 0.9086 0.46867 0.68158 0.0
N732 N 0.89756 0.47311 0.71173 0.0
C733 C 0.91773 0.47208 0.73542 0.0
C734 C 0.94235 0.46621 0.71924 0.0
C735 C 0.95507 0.46041 0.65602 0.0
H736 H 0.94637 0.44567 0.63741 0.0
H737 H 0.95803 0.48043 0.64305 0.0
H738 H 0.97525 0.4527 0.66487 0.0
O739 O 0.85484 0.45217 0.64021 0.0
O740 O 0.8351 0.4535 0.69133 0.0
H741 H 0.90469 0.46229 0.78584 0.0
H742 H 0.93456 0.48381 0.7843 0.0
C743 C 0.91443 0.47962 0.77213 0.0
H744 H 0.90121 0.49803 0.77447 0.0
H745 H 0.85557 0.44717 0.77817 0.0
O746 O 0.90852 0.46614 0.59943 0.0
C747 C 0.83558 0.44533 0.66031 0.0
Co748 Co 0.7683 0.63377 0.8909 0.0
Co749 Co 0.76429 0.60776 0.96503 0.0
C750 C 0.71916 0.60268 0.91343 0.0
O751 O 0.7322 0.61606 0.89096 0.0
O752 O 0.72878 0.59924 0.94326 0.0
C753 C 0.74937 0.66657 0.83562 0.0
O754 O 0.72837 0.67112 0.85581 0.0
C755 C 0.73761 0.59276 0.03059 0.0
C756 C 0.77268 0.5861 0.0651 0.0
C757 C 0.74427 0.58561 0.06382 0.0
N758 N 0.7609 0.59758 0.01294 0.0
N759 N 0.78179 0.59368 0.03395 0.0
C760 C 0.70935 0.59434 0.01586 0.0
H761 H 0.7062 0.57677 0.99829 0.0
H762 H 0.70712 0.61365 1.00109 0.0
H763 H 0.69345 0.5936 0.03609 0.0
C764 C 0.77827 0.68356 0.93174 0.0
N765 N 0.77415 0.65635 0.92939 0.0
N766 N 0.77182 0.64598 0.96029 0.0
C767 C 0.77361 0.6666 0.98319 0.0
C768 C 0.77784 0.691 0.96574 0.0
C769 C 0.78093 0.7025 0.90193 0.0
H770 H 0.7922 0.69224 0.88099 0.0
H771 H 0.76016 0.70819 0.89276 0.0
H772 H 0.79193 0.72155 0.90927 0.0
O773 O 0.79459 0.60342 0.8889 0.0
O774 O 0.79268 0.58398 0.94014 0.0
H775 H 0.78545 0.65032 0.03149 0.0
H776 H 0.76914 0.68358 0.03382 0.0
C777 C 0.76901 0.66342 0.02064 0.0
H778 H 0.74907 0.65305 0.02511 0.0
H779 H 0.80233 0.59584 0.02692 0.0
O780 O 0.76986 0.65312 0.8467 0.0
C781 C 0.80188 0.58461 0.90951 0.0
Co782 Co 0.60779 0.51428 0.14117 0.0
Co783 Co 0.63548 0.51144 0.21439 0.0
C784 C 0.63795 0.46455 0.16711 0.0
O785 O 0.62597 0.47831 0.14401 0.0
O786 O 0.64051 0.47369 0.19724 0.0
C787 C 0.57734 0.49308 0.08422 0.0
O788 O 0.57585 0.47063 0.10265 0.0
C789 C 0.65307 0.48941 0.2819 0.0
C790 C 0.65631 0.52674 0.31342 0.0
C791 C 0.65898 0.49842 0.3147 0.0
N792 N 0.64708 0.5113 0.26206 0.0
N793 N 0.64925 0.53356 0.2812 0.0
C794 C 0.65348 0.46032 0.26966 0.0
H795 H 0.66888 0.45825 0.249 0.0
H796 H 0.63303 0.45492 0.25917 0.0
H797 H 0.6588 0.44575 0.29037 0.0
C798 C 0.55925 0.52663 0.18237 0.0
N799 N 0.58635 0.52214 0.17972 0.0
N800 N 0.59739 0.52139 0.21038 0.0
C801 C 0.57722 0.52512 0.23361 0.0
C802 C 0.55245 0.52855 0.21652 0.0
C803 C 0.53995 0.52681 0.15273 0.0
H804 H 0.53739 0.50552 0.1432 0.0
H805 H 0.51959 0.53504 0.16002 0.0
H806 H 0.54865 0.53942 0.13183 0.0
O807 O 0.63789 0.54049 0.13597 0.0
O808 O 0.66137 0.53455 0.18417 0.0
H809 H 0.59345 0.54051 0.28034 0.0
H810 H 0.56106 0.52293 0.28487 0.0
C811 C 0.58104 0.52287 0.27131 0.0
H812 H 0.59234 0.50372 0.27738 0.0
H813 H 0.64556 0.55344 0.27239 0.0
O814 O 0.58774 0.51466 0.09711 0.0
C815 C 0.65929 0.54433 0.15388 0.0
Co816 Co 0.25489 0.35567 0.3994 0.0
Co817 Co 0.264 0.38617 0.46885 0.0
C818 C 0.21312 0.39225 0.42304 0.0
O819 O 0.21949 0.37369 0.4019 0.0
O820 O 0.22835 0.39762 0.44856 0.0
C821 C 0.23341 0.32327 0.34485 0.0
O822 O 0.21134 0.32151 0.36394 0.0
C823 C 0.24048 0.39693 0.53555 0.0
C824 C 0.26497 0.43209 0.5538 0.0
C825 C 0.24156 0.41689 0.56091 0.0
N826 N 0.26183 0.40057 0.51425 0.0
N827 N 0.27667 0.42134 0.52566 0.0
C828 C 0.21822 0.37622 0.52976 0.0
H829 H 0.22697 0.35701 0.5193 0.0
H830 H 0.20697 0.37186 0.55376 0.0
H831 H 0.20354 0.38414 0.51053 0.0
C832 C 0.26647 0.30768 0.44256 0.0
N833 N 0.26351 0.33488 0.43857 0.0
N834 N 0.2686 0.34727 0.46774 0.0
C835 C 0.27559 0.3281 0.49111 0.0
C836 C 0.27424 0.30242 0.47585 0.0
C837 C 0.26141 0.28712 0.41499 0.0
H838 H 0.24011 0.28939 0.40555 0.0
H839 H 0.26428 0.26585 0.42423 0.0
H840 H 0.27558 0.2911 0.39342 0.0
O841 O 0.28109 0.38593 0.39204 0.0
O842 O 0.29282 0.40558 0.44079 0.0
H843 H 0.29922 0.3192 0.53602 0.0
H844 H 0.26518 0.33165 0.54377 0.0
C845 C 0.28345 0.33404 0.52718 0.0
H846 H 0.29134 0.3553 0.52962 0.0
H847 H 0.29364 0.42943 0.51292 0.0
O848 O 0.25493 0.33447 0.35666 0.0
C849 C 0.29476 0.40391 0.40839 0.0
Co850 Co 0.3887 0.5055 0.13871 0.0
Co851 Co 0.3583 0.50163 0.20951 0.0
C852 C 0.36792 0.45206 0.16407 0.0
O853 O 0.3801 0.46605 0.14139 0.0
O854 O 0.35879 0.46373 0.19084 0.0
C855 C 0.42883 0.4921 0.08796 0.0
O856 O 0.43268 0.4707 0.10772 0.0
C857 C 0.3497 0.47908 0.27875 0.0
C858 C 0.31142 0.49976 0.29433 0.0
C859 C 0.32981 0.47957 0.30425 0.0
N860 N 0.34316 0.49788 0.25483 0.0
N861 N 0.3204 0.51036 0.26461 0.0
C862 C 0.37458 0.46109 0.27721 0.0
H863 H 0.38688 0.46557 0.25407 0.0
H864 H 0.38721 0.4645 0.30035 0.0
H865 H 0.36874 0.43916 0.27721 0.0
C866 C 0.4329 0.52642 0.18252 0.0
N867 N 0.40674 0.5183 0.1785 0.0
N868 N 0.3948 0.51672 0.20861 0.0
C869 C 0.4135 0.52364 0.23269 0.0
C870 C 0.43833 0.52943 0.21684 0.0
C871 C 0.45327 0.52912 0.15424 0.0
H872 H 0.44351 0.53911 0.132 0.0
H873 H 0.46068 0.50845 0.14682 0.0
H874 H 0.47112 0.54166 0.16228 0.0
O875 O 0.35387 0.52497 0.13057 0.0
O876 O 0.33178 0.52349 0.1802 0.0
H877 H 0.38669 0.52536 0.27621 0.0
H878 H 0.42062 0.53959 0.28282 0.0
C879 C 0.40876 0.52295 0.27028 0.0
H880 H 0.41636 0.50319 0.28062 0.0
H881 H 0.31021 0.52519 0.25016 0.0
O882 O 0.41131 0.51 0.09719 0.0
C883 C 0.33307 0.53057 0.14885 0.0
Co884 Co 0.23051 0.63665 0.89291 0.0
Co885 Co 0.23419 0.60931 0.96584 0.0
C886 C 0.28111 0.60813 0.91791 0.0
O887 O 0.26726 0.61929 0.89418 0.0
O888 O 0.27175 0.60617 0.94801 0.0
C889 C 0.24792 0.66627 0.8333 0.0
O890 O 0.27263 0.66328 0.84611 0.0
C891 C 0.25785 0.59217 0.03203 0.0
C892 C 0.22219 0.57443 0.05869 0.0
C893 C 0.25027 0.57837 0.06145 0.0
N894 N 0.23539 0.59617 0.01251 0.0
N895 N 0.21407 0.58582 0.02895 0.0
C896 C 0.28644 0.59966 0.02179 0.0
H897 H 0.28645 0.61995 1.00892 0.0
H898 H 0.30029 0.60033 0.04423 0.0
H899 H 0.29433 0.58401 1.00373 0.0
C900 C 0.21897 0.68506 0.93469 0.0
N901 N 0.22264 0.65784 0.93197 0.0
N902 N 0.22345 0.64687 0.96263 0.0
C903 C 0.22062 0.66709 0.98594 0.0
C904 C 0.21785 0.69202 0.96887 0.0
C905 C 0.21913 0.70433 0.90503 0.0
H906 H 0.23996 0.70471 0.89362 0.0
H907 H 0.21333 0.72537 0.9128 0.0
H908 H 0.20451 0.69698 0.88539 0.0
O909 O 0.2054 0.60571 0.88783 0.0
O910 O 0.21135 0.58305 0.93651 0.0
H911 H 0.21976 0.68236 0.03764 0.0
H912 H 0.2446 0.65552 0.02917 0.0
C913 C 0.22357 0.66299 0.02351 0.0
H914 H 0.20893 0.64698 0.0321 0.0
H915 H 0.19415 0.58544 0.01921 0.0
O916 O 0.2272 0.65824 0.85024 0.0
C917 C 0.20141 0.58471 0.90636 0.0
Co918 Co 0.10828 0.49571 0.6458 0.0
Co919 Co 0.1391 0.48687 0.71419 0.0
C920 C 0.14167 0.5385 0.66964 0.0
O921 O 0.11926 0.53312 0.65497 0.0
O922 O 0.15169 0.52211 0.69178 0.0
C923 C 0.07324 0.51886 0.59504 0.0
O924 O 0.06536 0.53535 0.61961 0.0
C925 C 0.15043 0.50767 0.78353 0.0
C926 C 0.17552 0.47468 0.80599 0.0
C927 C 0.16532 0.50078 0.8124 0.0
N928 N 0.15196 0.48695 0.76087 0.0
N929 N 0.1666 0.46704 0.77482 0.0
C930 C 0.13568 0.53407 0.77747 0.0
H931 H 0.12561 0.53406 0.75211 0.0
H932 H 0.11986 0.53694 0.79747 0.0
H933 H 0.15034 0.55141 0.77982 0.0
C934 C 0.0611 0.47747 0.6862 0.0
N935 N 0.08796 0.48267 0.68261 0.0
N936 N 0.10018 0.4808 0.71246 0.0
C937 C 0.0811 0.47445 0.73617 0.0
C938 C 0.05577 0.47234 0.72017 0.0
C939 C 0.04056 0.47878 0.65794 0.0
H940 H 0.05003 0.47199 0.63371 0.0
H941 H 0.03328 0.50023 0.65507 0.0
H942 H 0.0226 0.46561 0.66368 0.0
O943 O 0.14173 0.47318 0.63744 0.0
O944 O 0.15847 0.45818 0.68665 0.0
H945 H 0.10518 0.45881 0.7775 0.0
H946 H 0.06889 0.46241 0.78689 0.0
C947 C 0.08667 0.47166 0.77346 0.0
H948 H 0.09072 0.49227 0.78435 0.0
H949 H 0.17148 0.44868 0.76253 0.0
O950 O 0.08849 0.4984 0.60194 0.0
C951 C 0.15892 0.45865 0.6541 0.0
Co952 Co 0.26574 0.64868 0.63552 0.0
Co953 Co 0.26719 0.61666 0.5657 0.0
C954 C 0.21934 0.61636 0.61626 0.0
O955 O 0.22798 0.63685 0.63293 0.0
O956 O 0.23262 0.60667 0.59095 0.0
C957 C 0.24896 0.68471 0.68946 0.0
O958 O 0.22985 0.69275 0.66805 0.0
C959 C 0.24152 0.59821 0.50058 0.0
C960 C 0.27721 0.59355 0.46659 0.0
C961 C 0.24882 0.59162 0.46732 0.0
N962 N 0.26438 0.60389 0.51868 0.0
N963 N 0.28566 0.60083 0.4981 0.0
C964 C 0.2132 0.59923 0.51494 0.0
H965 H 0.21172 0.58452 0.53642 0.0
H966 H 0.20936 0.6202 0.52486 0.0
H967 H 0.19738 0.59393 0.49571 0.0
C968 C 0.28088 0.69487 0.59179 0.0
N969 N 0.27549 0.66811 0.59638 0.0
N970 N 0.2744 0.65566 0.56659 0.0
C971 C 0.27853 0.67465 0.54194 0.0
C972 C 0.28271 0.70001 0.55728 0.0
C973 C 0.28304 0.71551 0.61986 0.0
H974 H 0.29132 0.7058 0.64323 0.0
H975 H 0.26239 0.724 0.62533 0.0
H976 H 0.29668 0.73265 0.61225 0.0
O977 O 0.28809 0.61541 0.64123 0.0
O978 O 0.29653 0.59576 0.59144 0.0
H979 H 0.29466 0.65626 0.49691 0.0
H980 H 0.27731 0.68846 0.48961 0.0
C981 C 0.27692 0.66911 0.50455 0.0
H982 H 0.25783 0.65765 0.49878 0.0
H983 H 0.30598 0.60417 0.5054 0.0
O984 O 0.26798 0.66892 0.67914 0.0
C985 C 0.29966 0.59668 0.62378 0.0
Co986 Co 0.11237 0.52713 0.38845 0.0
Co987 Co 0.14242 0.51903 0.31757 0.0
C988 C 0.13961 0.47486 0.37182 0.0
O989 O 0.12332 0.48834 0.39071 0.0
O990 O 0.14864 0.48456 0.34381 0.0
C991 C 0.09717 0.52263 0.45661 0.0
O992 O 0.11919 0.50712 0.45648 0.0
C993 C 0.16022 0.49039 0.25426 0.0
C994 C 0.16859 0.52511 0.2196 0.0
C995 C 0.16899 0.4967 0.22146 0.0
N996 N 0.15489 0.51396 0.27106 0.0
N997 N 0.15994 0.5346 0.25005 0.0
C998 C 0.15758 0.46243 0.26968 0.0
H999 H 0.17368 0.4598 0.28943 0.0
H1000 H 0.13732 0.46052 0.28237 0.0
H1001 H 0.1599 0.44603 0.25027 0.0
C1002 C 0.06574 0.53762 0.34402 0.0
N1003 N 0.09283 0.53382 0.34814 0.0
N1004 N 0.10434 0.52922 0.31834 0.0
C1005 C 0.08452 0.52963 0.2942 0.0
C1006 C 0.05941 0.53492 0.30982 0.0
C1007 C 0.04586 0.54011 0.37292 0.0
H1008 H 0.04566 0.52063 0.38761 0.0
H1009 H 0.02481 0.54464 0.3638 0.0
H1010 H 0.05261 0.55678 0.39026 0.0
O1011 O 0.14658 0.54884 0.39217 0.0
O1012 O 0.16697 0.54647 0.3415 0.0
H1013 H 0.06928 0.5213 0.24346 0.0
H1014 H 0.09885 0.50131 0.25658 0.0
C1015 C 0.08892 0.52179 0.25778 0.0
H1016 H 0.10293 0.53684 0.24568 0.0
H1017 H 0.15754 0.55523 0.25655 0.0
O1018 O 0.08976 0.53467 0.42943 0.0
C1019 C 0.16653 0.5546 0.37249 0.0
Co1020 Co 0.23271 0.35871 0.13878 0.0
Co1021 Co 0.24191 0.39097 0.0698 0.0
C1022 C 0.28681 0.38247 0.12201 0.0
O1023 O 0.27224 0.36617 0.13957 0.0
O1024 O 0.27768 0.39341 0.0947 0.0
C1025 C 0.24191 0.3275 0.19922 0.0
O1026 O 0.26741 0.32676 0.18848 0.0
C1027 C 0.26887 0.41207 1.0066 0.0
C1028 C 0.23387 0.41423 0.97099 0.0
C1029 C 0.26195 0.41827 0.97312 0.0
N1030 N 0.24602 0.40443 0.02351 0.0
N1031 N 0.22515 0.40607 1.00201 0.0
C1032 C 0.2969 0.41309 0.02199 0.0
H1033 H 0.29615 0.42418 0.04665 0.0
H1034 H 0.30386 0.39179 0.02682 0.0
H1035 H 0.3118 0.42339 1.00486 0.0
C1036 C 0.2177 0.31471 0.09275 0.0
N1037 N 0.22335 0.34133 0.09805 0.0
N1038 N 0.22891 0.35343 0.06884 0.0
C1039 C 0.22748 0.33428 0.04388 0.0
C1040 C 0.2202 0.30919 0.05832 0.0
C1041 C 0.21444 0.29413 0.12077 0.0
H1042 H 0.2344 0.29148 0.13403 0.0
H1043 H 0.20757 0.27397 0.11082 0.0
H1044 H 0.19928 0.30176 0.13958 0.0
O1045 O 0.21394 0.39406 0.14502 0.0
O1046 O 0.21687 0.41664 0.09591 0.0
H1047 H 0.24012 0.31897 0.99459 0.0
H1048 H 0.25619 0.35076 1.00793 0.0
C1049 C 0.23685 0.33875 1.00803 0.0
H1050 H 0.22099 0.35058 0.99409 0.0
H1051 H 0.20496 0.4011 1.00837 0.0
O1052 O 0.22329 0.3372 0.17999 0.0
C1053 C 0.20892 0.41506 0.12689 0.0
Co1054 Co 0.3956 0.48883 0.88359 0.0
Co1055 Co 0.36079 0.48946 0.81635 0.0
C1056 C 0.36529 0.53714 0.86705 0.0
O1057 O 0.38579 0.52757 0.8829 0.0
O1058 O 0.35431 0.52412 0.84244 0.0
C1059 C 0.41113 0.47808 0.9517 0.0
O1060 O 0.38529 0.47082 0.95425 0.0
C1061 C 0.3515 0.51641 0.75049 0.0
C1062 C 0.31483 0.49494 0.73095 0.0
C1063 C 0.33244 0.51663 0.72397 0.0
N1064 N 0.34523 0.4958 0.77201 0.0
N1065 N 0.32344 0.48289 0.75998 0.0
C1066 C 0.37462 0.53614 0.75636 0.0
H1067 H 0.39191 0.52576 0.76939 0.0
H1068 H 0.38163 0.54532 0.73197 0.0
H1069 H 0.36771 0.55278 0.7736 0.0
C1070 C 0.43917 0.47407 0.83695 0.0
N1071 N 0.41262 0.47928 0.84288 0.0
N1072 N 0.39884 0.47896 0.81402 0.0
C1073 C 0.41656 0.47264 0.78862 0.0
C1074 C 0.44268 0.46975 0.80246 0.0
C1075 C 0.461 0.47533 0.86376 0.0
H1076 H 0.4599 0.4954 0.87706 0.0
H1077 H 0.4818 0.47267 0.85288 0.0
H1078 H 0.45727 0.45896 0.88288 0.0
O1079 O 0.36142 0.4672 0.89182 0.0
O1080 O 0.33852 0.46244 0.84301 0.0
H1081 H 0.38694 0.46489 0.74905 0.0
H1082 H 0.42159 0.45337 0.73984 0.0
C1083 C 0.40905 0.46976 0.75184 0.0
H1084 H 0.41359 0.48921 0.73828 0.0
H1085 H 0.31377 0.46655 0.77229 0.0
O1086 O 0.42073 0.48524 0.92301 0.0
C1087 C 0.34107 0.45798 0.87496 0.0
C1088 C 0.15802 0.0386 0.16237 0.0
C1089 C 0.17705 0.02202 0.18055 0.0
C1090 C 0.215 0.04326 0.14882 0.0
C1091 C 0.19636 0.0625 0.13454 0.0
N1092 N 0.15035 0.07954 0.12815 0.0
N1093 N 0.22401 0.01023 0.19367 0.0
C1094 C 0.16785 0.06031 0.1412 0.0
C1095 C 0.20564 0.02449 0.17412 0.0
N1096 N 0.13055 0.03334 0.16516 0.0
N1097 N 0.2418 0.04318 0.13845 0.0
H1098 H 0.21816 0.99642 0.21261 0.0
H1099 H 0.2451 0.01362 0.19312 0.0
H1100 H 0.24953 0.05698 0.12054 0.0
H1101 H 0.2558 0.028 0.14526 0.0
H1102 H 0.11566 0.04294 0.15033 0.0
H1103 H 0.12277 0.01764 0.18047 0.0
H1104 H 0.12983 0.08122 0.13518 0.0
H1105 H 0.15684 0.09482 0.11131 0.0
C1106 C 0.20496 0.9173 0.37995 0.0
C1107 C 0.19596 0.94493 0.38057 0.0
C1108 C 0.23066 0.95588 0.42415 0.0
C1109 C 0.23715 0.92757 0.42671 0.0
N1110 N 0.23098 0.88097 0.4078 0.0
N1111 N 0.19901 0.99063 0.404 0.0
C1112 C 0.22466 0.90818 0.40449 0.0
C1113 C 0.20881 0.96434 0.4025 0.0
N1114 N 0.19454 0.89991 0.35589 0.0
N1115 N 0.24525 0.97467 0.4427 0.0
H1116 H 0.18404 0.99805 0.38747 0.0
H1117 H 0.20453 0.00479 0.42265 0.0
H1118 H 0.2607 0.96925 0.45979 0.0
H1119 H 0.2435 0.99581 0.43963 0.0
H1120 H 0.20153 0.87998 0.35197 0.0
H1121 H 0.18009 0.9063 0.3379 0.0
H1122 H 0.22067 0.86528 0.39516 0.0
H1123 H 0.246 0.87386 0.42459 0.0
C1124 C 0.29327 0.96524 0.64548 0.0
C1125 C 0.31313 0.94806 0.6296 0.0
C1126 C 0.34979 0.97114 0.66177 0.0
C1127 C 0.32981 0.98803 0.6779 0.0
N1128 N 0.28352 0.00556 0.6796 0.0
N1129 N 0.36021 0.93759 0.61749 0.0
C1130 C 0.30192 0.98666 0.66768 0.0
C1131 C 0.34144 0.95206 0.63609 0.0
N1132 N 0.26594 0.95974 0.64141 0.0
N1133 N 0.37663 0.97296 0.67168 0.0
H1134 H 0.35437 0.92369 0.59857 0.0
H1135 H 0.3813 0.94075 0.61871 0.0
H1136 H 0.3836 0.98775 0.68884 0.0
H1137 H 0.39185 0.95932 0.66404 0.0
H1138 H 0.25047 0.96901 0.65563 0.0
H1139 H 0.25869 0.94433 0.62544 0.0
H1140 H 0.26373 0.00773 0.66993 0.0
H1141 H 0.28857 0.02063 0.69737 0.0
C1142 C 0.31342 0.09238 0.89404 0.0
C1143 C 0.31435 0.06467 0.88316 0.0
C1144 C 0.27754 0.05279 0.92332 0.0
C1145 C 0.27622 0.08065 0.93388 0.0
N1146 N 0.28842 0.12799 0.92434 0.0
N1147 N 0.29359 0.01974 0.88162 0.0
C1148 C 0.29277 0.1008 0.9176 0.0
C1149 C 0.29499 0.04537 0.89574 0.0
N1150 N 0.33285 0.11039 0.88264 0.0
N1151 N 0.26351 0.03309 0.94105 0.0
H1152 H 0.30641 0.01336 0.86188 0.0
H1153 H 0.27818 0.00563 0.88723 0.0
H1154 H 0.2508 0.03748 0.96169 0.0
H1155 H 0.26618 0.0121 0.93725 0.0
H1156 H 0.3355 0.13003 0.89258 0.0
H1157 H 0.34727 0.10507 0.86412 0.0
H1158 H 0.29801 0.14384 0.91111 0.0
H1159 H 0.27343 0.13479 0.94132 0.0
C1160 C 0.18144 0.91987 0.84209 0.0
C1161 C 0.19148 0.92827 0.87445 0.0
C1162 C 0.17691 0.97529 0.86029 0.0
C1163 C 0.17281 0.96748 0.82576 0.0
N1164 N 0.18043 0.93254 0.78292 0.0
N1165 N 0.20309 0.96669 0.91141 0.0
C1166 C 0.17742 0.93977 0.81631 0.0
C1167 C 0.19018 0.95672 0.8831 0.0
N1168 N 0.17587 0.89288 0.83575 0.0
N1169 N 0.16803 0.00029 0.87151 0.0
H1170 H 0.21442 0.95469 0.92819 0.0
H1171 H 0.20492 0.98765 0.9163 0.0
H1172 H 0.15749 0.01404 0.85588 0.0
H1173 H 0.16849 0.00594 0.89713 0.0
H1174 H 0.16701 0.8863 0.81296 0.0
H1175 H 0.17696 0.87787 0.85469 0.0
H1176 H 0.1858 0.91271 0.77543 0.0
H1177 H 0.18123 0.94694 0.7633 0.0
C1178 C 0.27735 0.91864 0.10509 0.0
C1179 C 0.26803 0.93491 0.0773 0.0
C1180 C 0.29317 0.9745 0.10027 0.0
C1181 C 0.30555 0.95733 0.12509 0.0
N1182 N 0.31081 0.91275 0.15061 0.0
N1183 N 0.27054 0.97736 0.04552 0.0
C1184 C 0.29781 0.92933 0.12763 0.0
C1185 C 0.27666 0.96268 0.07426 0.0
N1186 N 0.26633 0.89317 0.11018 0.0
N1187 N 0.29713 0.00227 0.10173 0.0
H1188 H 0.25918 0.96942 0.02528 0.0
H1189 H 0.27891 0.99657 0.04021 0.0
H1190 H 0.30893 0.01162 0.12067 0.0
H1191 H 0.28652 0.0162 0.08649 0.0
H1192 H 0.27022 0.88128 0.13169 0.0
H1193 H 0.25155 0.88476 0.09402 0.0
H1194 H 0.30855 0.8915 0.1512 0.0
H1195 H 0.32512 0.92024 0.16808 0.0
C1196 C 0.2828 0.04119 0.37245 0.0
C1197 C 0.29996 0.06337 0.38249 0.0
C1198 C 0.33696 0.04543 0.34626 0.0
C1199 C 0.31864 0.02549 0.33283 0.0
N1200 N 0.27385 0.00453 0.3318 0.0
N1201 N 0.34275 0.08776 0.37823 0.0
C1202 C 0.29157 0.02312 0.34594 0.0
C1203 C 0.32697 0.06568 0.36937 0.0
N1204 N 0.2579 0.03776 0.38794 0.0
N1205 N 0.36409 0.04459 0.33742 0.0
H1206 H 0.33661 0.1021 0.39645 0.0
H1207 H 0.36122 0.09268 0.36639 0.0
H1208 H 0.37211 0.02985 0.32092 0.0
H1209 H 0.37909 0.05683 0.34863 0.0
H1210 H 0.24525 0.02088 0.384 0.0
H1211 H 0.25052 0.05095 0.40674 0.0
H1212 H 0.25306 0.00333 0.33759 0.0
H1213 H 0.27956 0.99097 0.31253 0.0
C1214 C 0.15989 0.07616 0.59813 0.0
C1215 C 0.16801 0.06905 0.6317 0.0
C1216 C 0.21559 0.0802 0.61514 0.0
C1217 C 0.20769 0.07955 0.5802 0.0
N1218 N 0.17174 0.07058 0.53912 0.0
N1219 N 0.2043 0.06953 0.67389 0.0
C1220 C 0.17963 0.07616 0.57178 0.0
C1221 C 0.19609 0.07282 0.64091 0.0
N1222 N 0.13318 0.08255 0.59136 0.0
N1223 N 0.24136 0.08884 0.62376 0.0
H1224 H 0.19071 0.07005 0.69432 0.0
H1225 H 0.22476 0.06708 0.68098 0.0
H1226 H 0.25571 0.09522 0.60571 0.0
H1227 H 0.24767 0.09219 0.64877 0.0
H1228 H 0.12665 0.08934 0.56748 0.0
H1229 H 0.11861 0.08424 0.61076 0.0
H1230 H 0.1515 0.06596 0.53267 0.0
H1231 H 0.18573 0.06727 0.51945 0.0
C1232 C 0.79358 0.97702 0.84985 0.0
C1233 C 0.82083 0.97589 0.83688 0.0
C1234 C 0.83074 0.9362 0.87378 0.0
C1235 C 0.80361 0.93732 0.8868 0.0
N1236 N 0.76035 0.9609 0.89167 0.0
N1237 N 0.86709 0.95888 0.84215 0.0
C1238 C 0.78554 0.95872 0.87652 0.0
C1239 C 0.83995 0.95681 0.85061 0.0
N1240 N 0.77506 0.9947 0.83546 0.0
N1241 N 0.84741 0.91484 0.88282 0.0
H1242 H 0.87458 0.97381 0.82552 0.0
H1243 H 0.88252 0.94742 0.85373 0.0
H1244 H 0.84182 0.90039 0.90121 0.0
H1245 H 0.86609 0.91066 0.87105 0.0
H1246 H 0.75449 0.99597 0.84216 0.0
H1247 H 0.77976 0.00746 0.81496 0.0
H1248 H 0.74655 0.97674 0.88715 0.0
H1249 H 0.75368 0.94764 0.9108 0.0
C1250 C 0.78704 0.09975 0.60227 0.0
C1251 C 0.76835 0.08041 0.58822 0.0
C1252 C 0.78523 0.04549 0.62844 0.0
C1253 C 0.80659 0.06358 0.63875 0.0
N1254 N 0.82876 0.10756 0.63486 0.0
N1255 N 0.7513 0.03396 0.58547 0.0
C1256 C 0.80761 0.09071 0.62564 0.0
C1257 C 0.76762 0.05311 0.60098 0.0
N1258 N 0.78475 0.12686 0.59373 0.0
N1259 N 0.78215 0.02073 0.64442 0.0
H1260 H 0.73866 0.03839 0.56476 0.0
H1261 H 0.75179 0.0131 0.59111 0.0
H1262 H 0.79495 0.01407 0.66402 0.0
H1263 H 0.76567 0.0076 0.64019 0.0
H1264 H 0.79596 0.14242 0.60543 0.0
H1265 H 0.76989 0.13415 0.57684 0.0
H1266 H 0.8328 0.12631 0.62315 0.0
H1267 H 0.84313 0.10207 0.65339 0.0
C1268 C 0.69535 0.03652 0.38418 0.0
C1269 C 0.67989 0.06082 0.38992 0.0
C1270 C 0.64549 0.04442 0.34859 0.0
C1271 C 0.6637 0.02323 0.33813 0.0
N1272 N 0.7078 0.00103 0.34386 0.0
N1273 N 0.63987 0.08802 0.37785 0.0
C1274 C 0.68896 0.01952 0.3557 0.0
C1275 C 0.65469 0.06464 0.37234 0.0
N1276 N 0.71643 0.02976 0.40555 0.0
N1277 N 0.61921 0.04485 0.33645 0.0
H1278 H 0.64507 0.10216 0.39678 0.0
H1279 H 0.62323 0.0939 0.36286 0.0
H1280 H 0.6117 0.03013 0.31954 0.0
H1281 H 0.60418 0.0582 0.34543 0.0
H1282 H 0.72652 0.01093 0.40455 0.0
H1283 H 0.72204 0.04163 0.42646 0.0
H1284 H 0.72776 0.99967 0.35323 0.0
H1285 H 0.70454 0.98883 0.32242 0.0
C1286 C 0.72239 0.94118 0.10526 0.0
C1287 C 0.71812 0.91622 0.08727 0.0
C1288 C 0.6767 0.90756 0.12155 0.0
C1289 C 0.68111 0.93245 0.13957 0.0
N1290 N 0.71213 0.96906 0.15486 0.0
N1291 N 0.69554 0.87223 0.08464 0.0
C1292 C 0.70549 0.94774 0.13377 0.0
C1293 C 0.69659 0.8983 0.09742 0.0
N1294 N 0.74133 0.95965 0.09368 0.0
N1295 N 0.65304 0.89316 0.12693 0.0
H1296 H 0.71 0.86468 0.06744 0.0
H1297 H 0.6819 0.85735 0.09333 0.0
H1298 H 0.63907 0.89847 0.14599 0.0
H1299 H 0.64677 0.87681 0.11169 0.0
H1300 H 0.74364 0.97917 0.10386 0.0
H1301 H 0.75305 0.95669 0.0718 0.0
H1302 H 0.73089 0.97924 0.15404 0.0
H1303 H 0.70014 0.975 0.1755 0.0
C1304 C 0.84621 0.06471 0.13778 0.0
C1305 C 0.82219 0.05938 0.11841 0.0
C1306 C 0.81542 0.01635 0.14966 0.0
C1307 C 0.83889 0.02203 0.17003 0.0
N1308 N 0.88176 0.04646 0.17484 0.0
N1309 N 0.79227 0.02435 0.096 0.0
C1310 C 0.85603 0.04456 0.16121 0.0
C1311 C 0.80964 0.03322 0.12092 0.0
N1312 N 0.85923 0.08938 0.13429 0.0
N1313 N 0.79743 0.99617 0.15886 0.0
H1314 H 0.78858 0.0355 0.07384 0.0
H1315 H 0.78473 0.00436 0.09516 0.0
H1316 H 0.79982 0.98406 0.18053 0.0
H1317 H 0.77863 0.99333 0.14673 0.0
H1318 H 0.87475 0.09604 0.15056 0.0
H1319 H 0.8536 0.10356 0.11559 0.0
H1320 H 0.89603 0.06118 0.16734 0.0
H1321 H 0.88972 0.03163 0.19129 0.0
C1322 C 0.69938 0.08511 0.87596 0.0
C1323 C 0.69222 0.05692 0.87619 0.0
C1324 C 0.72731 0.04807 0.9201 0.0
C1325 C 0.73196 0.07671 0.92294 0.0
N1326 N 0.72252 0.12294 0.90464 0.0
N1327 N 0.69796 0.01146 0.89965 0.0
C1328 C 0.71823 0.09537 0.90087 0.0
C1329 C 0.70611 0.03831 0.89827 0.0
N1330 N 0.68802 0.10194 0.85193 0.0
N1331 N 0.74319 0.03018 0.93838 0.0
H1332 H 0.68341 0.00318 0.88317 0.0
H1333 H 0.70431 0.99767 0.91832 0.0
H1334 H 0.75841 0.03655 0.9553 0.0
H1335 H 0.74279 0.00899 0.93514 0.0
H1336 H 0.69376 0.1223 0.84826 0.0
H1337 H 0.67416 0.09474 0.83371 0.0
H1338 H 0.7112 0.13795 0.89207 0.0
H1339 H 0.73673 0.13097 0.92188 0.0
C1340 C 0.70329 0.97436 0.67179 0.0
C1341 C 0.67469 0.97959 0.67348 0.0
C1342 C 0.66685 0.9472 0.62608 0.0
C1343 C 0.6949 0.93961 0.62723 0.0
N1344 N 0.74001 0.94493 0.65177 0.0
N1345 N 0.62881 0.97116 0.65327 0.0
C1346 C 0.71323 0.95323 0.64995 0.0
C1347 C 0.65635 0.96626 0.65062 0.0
N1348 N 0.72093 0.9895 0.69141 0.0
N1349 N 0.65038 0.9361 0.6015 0.0
H1350 H 0.62067 0.98559 0.67012 0.0
H1351 H 0.61388 0.96019 0.6401 0.0
H1352 H 0.65774 0.9221 0.58356 0.0
H1353 H 0.6302 0.94212 0.59715 0.0
H1354 H 0.74218 0.98858 0.68954 0.0
H1355 H 0.7144 0.00452 0.70849 0.0
H1356 H 0.75382 0.95127 0.67038 0.0
H1357 H 0.74829 0.93032 0.63544 0.0
C1358 C 0.77501 0.95183 0.41847 0.0
C1359 C 0.77196 0.92312 0.42336 0.0
C1360 C 0.80805 0.91454 0.38059 0.0
C1361 C 0.81087 0.94324 0.37551 0.0
N1362 N 0.79359 0.98901 0.38458 0.0
N1363 N 0.78156 0.87697 0.40496 0.0
C1364 C 0.79297 0.96173 0.39261 0.0
C1365 C 0.7872 0.9044 0.40298 0.0
N1366 N 0.76218 0.96975 0.44009 0.0
N1367 N 0.82599 0.8971 0.36488 0.0
H1368 H 0.76664 0.869 0.42128 0.0
H1369 H 0.79005 0.86234 0.38877 0.0
H1370 H 0.84043 0.90394 0.34716 0.0
H1371 H 0.8274 0.87624 0.37036 0.0
H1372 H 0.76638 0.99069 0.44088 0.0
H1373 H 0.74879 0.96352 0.4593 0.0
H1374 H 0.77913 0.00318 0.39303 0.0
H1375 H 0.80744 0.99713 0.36714 0.0
C1376 C 0.64951 0.54869 0.67313 0.0
C1377 C 0.66493 0.52422 0.67802 0.0
C1378 C 0.69089 0.53504 0.62588 0.0
C1379 C 0.68057 0.56227 0.62643 0.0
N1380 N 0.64783 0.59454 0.64888 0.0
N1381 N 0.70241 0.49525 0.65977 0.0
C1382 C 0.65902 0.56884 0.64946 0.0
C1383 C 0.68592 0.51748 0.65427 0.0
N1384 N 0.6253 0.55225 0.69011 0.0
N1385 N 0.70526 0.5257 0.59838 0.0
H1386 H 0.70115 0.48289 0.68138 0.0
H1387 H 0.71925 0.49071 0.64454 0.0
H1388 H 0.70845 0.53734 0.57653 0.0
H1389 H 0.7106 0.50515 0.59533 0.0
H1390 H 0.61195 0.56851 0.68544 0.0
H1391 H 0.61719 0.53744 0.70645 0.0
H1392 H 0.63474 0.60194 0.66774 0.0
H1393 H 0.65252 0.60877 0.62985 0.0
C1394 C 0.7102 0.44972 0.88384 0.0
C1395 C 0.6877 0.43247 0.87538 0.0
C1396 C 0.70639 0.3967 0.91324 0.0
C1397 C 0.72612 0.41567 0.92579 0.0
N1398 N 0.74519 0.46124 0.92538 0.0
N1399 N 0.66379 0.38966 0.88208 0.0
C1400 C 0.72791 0.4423 0.9113 0.0
C1401 C 0.68581 0.40584 0.88989 0.0
N1402 N 0.71421 0.47361 0.86623 0.0
N1403 N 0.70758 0.36989 0.92341 0.0
H1404 H 0.6494 0.39521 0.86361 0.0
H1405 H 0.65917 0.37146 0.89477 0.0
H1406 H 0.72245 0.36263 0.94029 0.0
H1407 H 0.69542 0.35443 0.91303 0.0
H1408 H 0.73132 0.48611 0.86922 0.0
H1409 H 0.70148 0.48011 0.8465 0.0
H1410 H 0.74498 0.48184 0.91881 0.0
H1411 H 0.75819 0.45711 0.94583 0.0
C1412 C 0.84166 0.46918 0.15254 0.0
C1413 C 0.82581 0.47758 0.18117 0.0
C1414 C 0.78857 0.44663 0.16351 0.0
C1415 C 0.80435 0.43806 0.13476 0.0
N1416 N 0.84384 0.44378 0.09892 0.0
N1417 N 0.78261 0.47749 0.21132 0.0
C1418 C 0.83023 0.45032 0.12824 0.0
C1419 C 0.79876 0.46737 0.18569 0.0
N1420 N 0.8679 0.47872 0.14919 0.0
N1421 N 0.76417 0.43396 0.17063 0.0
H1422 H 0.78973 0.49059 0.23033 0.0
H1423 H 0.76153 0.47425 0.21283 0.0
H1424 H 0.75466 0.42032 0.15404 0.0
H1425 H 0.75378 0.43579 0.19368 0.0
H1426 H 0.88176 0.47162 0.13108 0.0
H1427 H 0.8764 0.49308 0.16587 0.0
H1428 H 0.86176 0.45337 0.09083 0.0
H1429 H 0.83606 0.42978 0.08127 0.0
C1430 C 0.78921 0.5895 0.41109 0.0
C1431 C 0.77439 0.57114 0.43246 0.0
C1432 C 0.79635 0.53195 0.40392 0.0
C1433 C 0.81355 0.5503 0.3856 0.0
N1434 N 0.82779 0.59634 0.37255 0.0
N1435 N 0.76597 0.52495 0.45211 0.0
C1436 C 0.8102 0.57907 0.38915 0.0
C1437 C 0.77836 0.54234 0.42945 0.0
N1438 N 0.78293 0.61685 0.41153 0.0
N1439 N 0.79732 0.50446 0.39672 0.0
H1440 H 0.7527 0.53165 0.47121 0.0
H1441 H 0.77041 0.5041 0.45387 0.0
H1442 H 0.8099 0.49627 0.37777 0.0
H1443 H 0.78421 0.48996 0.40734 0.0
H1444 H 0.79099 0.63103 0.3944 0.0
H1445 H 0.768 0.62512 0.42758 0.0
H1446 H 0.82873 0.61739 0.37692 0.0
H1447 H 0.84257 0.58924 0.35544 0.0
C1448 C 0.6934 0.48343 0.35938 0.0
C1449 C 0.6667 0.48139 0.34505 0.0
C1450 C 0.65697 0.44175 0.38206 0.0
C1451 C 0.68383 0.44352 0.39592 0.0
N1452 N 0.72432 0.47102 0.40521 0.0
N1453 N 0.6207 0.4636 0.34928 0.0
C1454 C 0.70082 0.46616 0.38725 0.0
C1455 C 0.64768 0.46214 0.3586 0.0
N1456 N 0.71246 0.50041 0.34487 0.0
N1457 N 0.64069 0.41999 0.39063 0.0
H1458 H 0.61327 0.47846 0.33249 0.0
H1459 H 0.60531 0.45178 0.36038 0.0
H1460 H 0.64628 0.40585 0.40939 0.0
H1461 H 0.62232 0.41536 0.37834 0.0
H1462 H 0.73317 0.50022 0.35145 0.0
H1463 H 0.70819 0.51311 0.32417 0.0
H1464 H 0.7356 0.48905 0.40266 0.0
H1465 H 0.73092 0.45865 0.42524 0.0
C1466 C 0.81408 0.40619 0.62804 0.0
C1467 C 0.81121 0.43217 0.64408 0.0
C1468 C 0.77128 0.44221 0.60791 0.0
C1469 C 0.7738 0.4161 0.5922 0.0
N1470 N 0.7936 0.37078 0.59249 0.0
N1471 N 0.783 0.47181 0.65541 0.0
C1472 C 0.79397 0.39727 0.60395 0.0
C1473 C 0.78824 0.44896 0.63628 0.0
N1474 N 0.83654 0.39043 0.63519 0.0
N1475 N 0.75405 0.46139 0.5942 0.0
H1476 H 0.79502 0.4778 0.67603 0.0
H1477 H 0.76539 0.48366 0.65277 0.0
H1478 H 0.74181 0.45784 0.57287 0.0
H1479 H 0.75389 0.48178 0.6018 0.0
H1480 H 0.84185 0.37293 0.62146 0.0
H1481 H 0.85056 0.39568 0.65423 0.0
H1482 H 0.8061 0.35536 0.60233 0.0
H1483 H 0.77915 0.36366 0.57498 0.0
C1484 C 0.81221 0.51727 0.86585 0.0
C1485 C 0.83338 0.52384 0.84227 0.0
C1486 C 0.84027 0.5679 0.87179 0.0
C1487 C 0.81843 0.56157 0.89451 0.0
N1488 N 0.7932 0.52516 0.92198 0.0
N1489 N 0.87371 0.55108 0.83093 0.0
C1490 C 0.80761 0.53456 0.89457 0.0
C1491 C 0.84937 0.54787 0.84774 0.0
N1492 N 0.7952 0.4955 0.8599 0.0
N1493 N 0.85207 0.59331 0.87302 0.0
H1494 H 0.88151 0.5363 0.81433 0.0
H1495 H 0.88743 0.56696 0.83599 0.0
H1496 H 0.84758 0.60736 0.89233 0.0
H1497 H 0.86548 0.60065 0.85447 0.0
H1498 H 0.77822 0.49123 0.875 0.0
H1499 H 0.79621 0.48339 0.83807 0.0
H1500 H 0.78756 0.50465 0.92466 0.0
H1501 H 0.79047 0.53657 0.94412 0.0
C1502 C 0.69502 0.58066 0.14016 0.0
C1503 C 0.68418 0.55396 0.13497 0.0
C1504 C 0.71705 0.54656 0.08805 0.0
C1505 C 0.72533 0.57436 0.09033 0.0
N1506 N 0.72197 0.61859 0.11732 0.0
N1507 N 0.68341 0.51194 0.102 0.0
C1508 C 0.71446 0.59157 0.11631 0.0
C1509 C 0.69496 0.53699 0.10851 0.0
N1510 N 0.68658 0.59557 0.16771 0.0
N1511 N 0.73065 0.52909 0.06659 0.0
H1512 H 0.66842 0.50313 0.11736 0.0
H1513 H 0.6875 0.50043 0.08023 0.0
H1514 H 0.74663 0.53538 0.05074 0.0
H1515 H 0.72783 0.5079 0.06657 0.0
H1516 H 0.69529 0.61419 0.17492 0.0
H1517 H 0.67201 0.58824 0.18494 0.0
H1518 H 0.71282 0.63311 0.1331 0.0
H1519 H 0.73655 0.62693 0.10081 0.0
C1520 C 0.32162 0.47052 0.36698 0.0
C1521 C 0.32571 0.46024 0.33347 0.0
C1522 C 0.32175 0.41369 0.35599 0.0
C1523 C 0.31125 0.42374 0.38733 0.0
N1524 N 0.29906 0.46381 0.42118 0.0
N1525 N 0.32095 0.42139 0.29555 0.0
C1526 C 0.31094 0.45276 0.39281 0.0
C1527 C 0.32371 0.4316 0.32775 0.0
N1528 N 0.328 0.49718 0.37425 0.0
N1529 N 0.32919 0.3868 0.35288 0.0
H1530 H 0.31944 0.43392 0.27408 0.0
H1531 H 0.31692 0.4007 0.29083 0.0
H1532 H 0.32904 0.37335 0.37362 0.0
H1533 H 0.33837 0.37905 0.33087 0.0
H1534 H 0.3278 0.50509 0.39892 0.0
H1535 H 0.33623 0.51053 0.35613 0.0
H1536 H 0.2952 0.48476 0.42368 0.0
H1537 H 0.29136 0.45236 0.44133 0.0
C1538 C 0.29464 0.52523 0.10728 0.0
C1539 C 0.3086 0.54208 0.13118 0.0
C1540 C 0.28027 0.58146 0.11376 0.0
C1541 C 0.26897 0.56544 0.08694 0.0
N1542 N 0.26733 0.52276 0.05573 0.0
N1543 N 0.31602 0.58637 0.15667 0.0
C1544 C 0.27649 0.53742 0.08321 0.0
C1545 C 0.30156 0.57021 0.13458 0.0
N1546 N 0.29851 0.49741 0.10799 0.0
N1547 N 0.27045 0.60735 0.11939 0.0
H1548 H 0.33108 0.57854 0.17289 0.0
H1549 H 0.31423 0.60764 0.15772 0.0
H1550 H 0.25523 0.61624 0.10426 0.0
H1551 H 0.27579 0.61925 0.14039 0.0
H1552 H 0.28699 0.48364 0.09359 0.0
H1553 H 0.31146 0.48779 0.1255 0.0
H1554 H 0.27469 0.50337 0.04931 0.0
H1555 H 0.25383 0.53074 0.03765 0.0
C1556 C 0.21174 0.54702 0.86562 0.0
C1557 C 0.19251 0.55949 0.88797 0.0
C1558 C 0.15629 0.52958 0.86498 0.0
C1559 C 0.17482 0.51996 0.83964 0.0
N1560 N 0.21914 0.52342 0.81228 0.0
N1561 N 0.14623 0.56403 0.90824 0.0
C1562 C 0.20235 0.52949 0.8392 0.0
C1563 C 0.16469 0.551 0.88767 0.0
N1564 N 0.23914 0.55215 0.86952 0.0
N1565 N 0.13087 0.51795 0.8676 0.0
H1566 H 0.15214 0.57895 0.92587 0.0
H1567 H 0.12511 0.56112 0.90668 0.0
H1568 H 0.12418 0.5024 0.85129 0.0
H1569 H 0.11723 0.52218 0.88732 0.0
H1570 H 0.2544 0.5414 0.85657 0.0
H1571 H 0.24676 0.5654 0.88804 0.0
H1572 H 0.23829 0.53247 0.80866 0.0
H1573 H 0.21305 0.51149 0.79158 0.0
C1574 C 0.17218 0.43294 0.6014 0.0
C1575 C 0.17995 0.44308 0.63394 0.0
C1576 C 0.22739 0.4291 0.62111 0.0
C1577 C 0.22012 0.42454 0.58651 0.0
N1578 N 0.18589 0.43148 0.5426 0.0
N1579 N 0.21751 0.45529 0.67189 0.0
C1580 C 0.19256 0.42887 0.57624 0.0
C1581 C 0.20824 0.44217 0.64335 0.0
N1582 N 0.14536 0.42716 0.59434 0.0
N1583 N 0.25244 0.42089 0.63292 0.0
H1584 H 0.20502 0.46655 0.68819 0.0
H1585 H 0.23832 0.4574 0.67744 0.0
H1586 H 0.26671 0.41075 0.61762 0.0
H1587 H 0.25775 0.42157 0.65865 0.0
H1588 H 0.13924 0.41814 0.57145 0.0
H1589 H 0.13 0.42824 0.61282 0.0
H1590 H 0.16619 0.4367 0.53447 0.0
H1591 H 0.2006 0.43204 0.52333 0.0
C1592 C 0.3282 0.56554 0.70257 0.0
C1593 C 0.32878 0.53699 0.6957 0.0
C1594 C 0.31392 0.54672 0.63689 0.0
C1595 C 0.31554 0.57551 0.64356 0.0
N1596 N 0.33618 0.61048 0.67892 0.0
N1597 N 0.33014 0.5014 0.65293 0.0
C1598 C 0.32706 0.58418 0.67501 0.0
C1599 C 0.32427 0.52788 0.66172 0.0
N1600 N 0.32597 0.5751 0.73513 0.0
N1601 N 0.3013 0.5369 0.60832 0.0
H1602 H 0.33861 0.48738 0.67006 0.0
H1603 H 0.32948 0.49438 0.62785 0.0
H1604 H 0.29377 0.54916 0.58881 0.0
H1605 H 0.29669 0.51616 0.60505 0.0
H1606 H 0.32353 0.59591 0.74067 0.0
H1607 H 0.32277 0.56218 0.75593 0.0
H1608 H 0.34602 0.61712 0.70106 0.0
H1609 H 0.33672 0.62435 0.65862 0.0
C1610 C 0.23244 0.55773 0.42275 0.0
C1611 C 0.23033 0.58401 0.43826 0.0
C1612 C 0.18898 0.59357 0.4042 0.0
C1613 C 0.19121 0.56738 0.3886 0.0
N1614 N 0.21968 0.52806 0.37583 0.0
N1615 N 0.21135 0.62969 0.43656 0.0
C1616 C 0.21461 0.55077 0.39527 0.0
C1617 C 0.21007 0.60283 0.42666 0.0
N1618 N 0.2501 0.53858 0.43576 0.0
N1619 N 0.16634 0.60936 0.39806 0.0
H1620 H 0.22683 0.63723 0.45235 0.0
H1621 H 0.1987 0.64496 0.42663 0.0
H1622 H 0.15153 0.60399 0.38002 0.0
H1623 H 0.16166 0.62702 0.41185 0.0
H1624 H 0.25022 0.5181 0.42811 0.0
H1625 H 0.26295 0.54232 0.45646 0.0
H1626 H 0.23791 0.51694 0.37722 0.0
H1627 H 0.2069 0.52164 0.35613 0.0
C1628 C 0.15946 0.46008 0.17743 0.0
C1629 C 0.17854 0.47755 0.19418 0.0
C1630 C 0.21561 0.45923 0.15823 0.0
C1631 C 0.19726 0.43932 0.14482 0.0
N1632 N 0.15212 0.41941 0.14269 0.0
N1633 N 0.2254 0.49167 0.20353 0.0
C1634 C 0.16923 0.43947 0.15459 0.0
C1635 C 0.20676 0.47681 0.1851 0.0
N1636 N 0.13197 0.4636 0.18284 0.0
N1637 N 0.24169 0.46109 0.14557 0.0
H1638 H 0.21992 0.50443 0.22373 0.0
H1639 H 0.24656 0.48963 0.20087 0.0
H1640 H 0.24917 0.44813 0.12659 0.0
H1641 H 0.25516 0.47692 0.1517 0.0
H1642 H 0.11685 0.45343 0.16899 0.0
H1643 H 0.12415 0.47841 0.19939 0.0
H1644 H 0.13237 0.41616 0.15196 0.0
H1645 H 0.15829 0.40504 0.12451 0.0
C1646 C 0.30121 0.40919 0.93273 0.0
C1647 C 0.28049 0.42723 0.9449 0.0
C1648 C 0.29529 0.4622 0.90355 0.0
C1649 C 0.31821 0.44556 0.89478 0.0
N1650 N 0.34433 0.40406 0.90236 0.0
N1651 N 0.25911 0.4719 0.94434 0.0
C1652 C 0.32148 0.41923 0.90968 0.0
C1653 C 0.27763 0.4539 0.93064 0.0
N1654 N 0.30101 0.38223 0.94241 0.0
N1655 N 0.29071 0.48623 0.88639 0.0
H1656 H 0.24645 0.46702 0.96485 0.0
H1657 H 0.25755 0.49242 0.93729 0.0
H1658 H 0.30378 0.49369 0.86753 0.0
H1659 H 0.27287 0.4978 0.88885 0.0
H1660 H 0.31387 0.3674 0.93194 0.0
H1661 H 0.28623 0.37406 0.95876 0.0
H1662 H 0.34977 0.38632 0.91553 0.0
H1663 H 0.35873 0.4101 0.88416 0.0
C1664 C 0.27034 0.16089 0.27348 0.0
C1665 C 0.25214 0.17706 0.29349 0.0
C1666 C 0.23498 0.19954 0.24171 0.0
C1667 C 0.25345 0.18364 0.2221 0.0
N1668 N 0.29473 0.15618 0.22028 0.0
N1669 N 0.22267 0.21665 0.29776 0.0
C1670 C 0.27335 0.16695 0.23838 0.0
C1671 C 0.23625 0.19805 0.2779 0.0
N1672 N 0.28274 0.13806 0.28678 0.0
N1673 N 0.21589 0.21552 0.22571 0.0
H1674 H 0.22393 0.21645 0.32432 0.0
H1675 H 0.21251 0.23375 0.28802 0.0
H1676 H 0.21564 0.21823 0.19932 0.0
H1677 H 0.19979 0.22519 0.23837 0.0
H1678 H 0.29349 0.12396 0.27192 0.0
H1679 H 0.28006 0.13129 0.3117 0.0
H1680 H 0.31132 0.14643 0.23189 0.0
H1681 H 0.29741 0.15929 0.19425 0.0
C1682 C 0.05245 0.98825 0.48666 0.0
C1683 C 0.07712 0.99713 0.47096 0.0
C1684 C 0.09864 0.00387 0.52655 0.0
C1685 C 0.07362 0.99617 0.54255 0.0
N1686 N 0.02562 0.98484 0.5388 0.0
N1687 N 0.12107 0.01969 0.47521 0.0
C1688 C 0.05012 0.98951 0.52285 0.0
C1689 C 0.09933 0.00703 0.49072 0.0
N1690 N 0.03166 0.97806 0.46701 0.0
N1691 N 0.12222 0.0065 0.54526 0.0
H1692 H 0.1225 0.02224 0.44888 0.0
H1693 H 0.13644 0.02996 0.48855 0.0
H1694 H 0.12315 0.00357 0.57154 0.0
H1695 H 0.14155 0.00897 0.53437 0.0
H1696 H 0.01425 0.96855 0.47684 0.0
H1697 H 0.03246 0.97797 0.44045 0.0
H1698 H 0.00713 0.9821 0.52599 0.0
H1699 H 0.02345 0.98561 0.56525 0.0
C1700 C 0.2857 0.8481 0.74802 0.0
C1701 C 0.26679 0.83391 0.72675 0.0
C1702 C 0.25195 0.80609 0.77553 0.0
C1703 C 0.27065 0.82054 0.79654 0.0
N1704 N 0.31208 0.8476 0.80014 0.0
N1705 N 0.23797 0.79429 0.71795 0.0
C1706 C 0.28998 0.83872 0.78179 0.0
C1707 C 0.25181 0.81119 0.73979 0.0
N1708 N 0.2978 0.87194 0.73732 0.0
N1709 N 0.23395 0.788 0.78995 0.0
H1710 H 0.23807 0.79723 0.6916 0.0
H1711 H 0.22868 0.77603 0.72552 0.0
H1712 H 0.23491 0.78269 0.81571 0.0
H1713 H 0.21767 0.7791 0.77679 0.0
H1714 H 0.30944 0.88444 0.75329 0.0
H1715 H 0.29403 0.88101 0.71376 0.0
H1716 H 0.32817 0.85865 0.7893 0.0
H1717 H 0.31587 0.84161 0.82516 0.0
C1718 C 0.45033 0.01528 0.9865 0.0
C1719 C 0.43202 0.0003 0.96561 0.0
C1720 C 0.40547 0.98645 0.01529 0.0
C1721 C 0.42445 0.00032 0.03684 0.0
N1722 N 0.46896 0.02151 0.04331 0.0
N1723 N 0.39833 0.96412 0.96119 0.0
C1724 C 0.44825 0.01271 0.02254 0.0
C1725 C 0.41194 0.98308 0.98045 0.0
N1726 N 0.4692 0.03236 0.97195 0.0
N1727 N 0.38004 0.97894 0.02676 0.0
H1728 H 0.40198 0.96128 0.93529 0.0
H1729 H 0.38557 0.94926 0.9719 0.0
H1730 H 0.37256 0.98358 0.05091 0.0
H1731 H 0.36483 0.97122 0.01071 0.0
H1732 H 0.48111 0.04614 0.98587 0.0
H1733 H 0.47202 0.0335 0.94561 0.0
H1734 H 0.48764 0.02885 0.03416 0.0
H1735 H 0.46854 0.0188 0.06968 0.0
C1736 C 0.7478 0.80509 0.73425 0.0
C1737 C 0.75956 0.82729 0.71607 0.0
C1738 C 0.76976 0.85121 0.76937 0.0
C1739 C 0.75846 0.82876 0.78787 0.0
N1740 N 0.74199 0.78215 0.78881 0.0
N1741 N 0.78773 0.86806 0.71585 0.0
C1742 C 0.74914 0.80495 0.77052 0.0
C1743 C 0.77274 0.84907 0.73355 0.0
N1744 N 0.73477 0.78458 0.71683 0.0
N1745 N 0.77553 0.87552 0.78536 0.0
H1746 H 0.78951 0.86798 0.6894 0.0
H1747 H 0.80042 0.88247 0.72757 0.0
H1748 H 0.77312 0.87876 0.81138 0.0
H1749 H 0.78037 0.89352 0.77236 0.0
H1750 H 0.723 0.76942 0.72847 0.0
H1751 H 0.73475 0.7835 0.69028 0.0
H1752 H 0.737 0.76337 0.7778 0.0
H1753 H 0.74329 0.78139 0.81535 0.0
C1754 C 0.9422 0.01327 0.49038 0.0
C1755 C 0.91677 0.00743 0.47417 0.0
C1756 C 0.89511 0.00013 0.52954 0.0
C1757 C 0.9196 0.00859 0.54599 0.0
N1758 N 0.96588 0.0256 0.54288 0.0
N1759 N 0.8675 0.00256 0.47864 0.0
C1760 C 0.94306 0.01587 0.52664 0.0
C1761 C 0.89279 0.00287 0.49382 0.0
N1762 N 0.96551 0.01553 0.47124 0.0
N1763 N 0.87423 0.98869 0.54792 0.0
H1764 H 0.86452 0.00578 0.45263 0.0
H1765 H 0.8492 0.00219 0.49238 0.0
H1766 H 0.87524 0.98584 0.57418 0.0
H1767 H 0.85721 0.9794 0.53669 0.0
H1768 H 0.98509 0.0173 0.4816 0.0
H1769 H 0.96544 0.01376 0.44474 0.0
H1770 H 0.98274 0.03386 0.53023 0.0
H1771 H 0.96724 0.0269 0.56938 0.0
C1772 C 0.7547 0.14221 0.27704 0.0
C1773 C 0.74435 0.1666 0.29208 0.0
C1774 C 0.74094 0.18802 0.23566 0.0
C1775 C 0.74944 0.16289 0.22062 0.0
N1776 N 0.75681 0.114 0.22657 0.0
N1777 N 0.72392 0.21133 0.28625 0.0
C1778 C 0.75433 0.13941 0.24116 0.0
C1779 C 0.73634 0.18915 0.27153 0.0
N1780 N 0.76509 0.12165 0.29699 0.0
N1781 N 0.73805 0.2109 0.21581 0.0
H1782 H 0.72112 0.21304 0.31253 0.0
H1783 H 0.71472 0.22707 0.2724 0.0
H1784 H 0.7415 0.21078 0.18958 0.0
H1785 H 0.7341 0.23037 0.22552 0.0
H1786 H 0.77591 0.10496 0.28723 0.0
H1787 H 0.76496 0.12228 0.32349 0.0
H1788 H 0.75737 0.09585 0.2406 0.0
H1789 H 0.75522 0.11055 0.20043 0.0
C1790 C 0.60495 0.00166 0.98867 0.0
C1791 C 0.58069 0.99959 0.96883 0.0
C1792 C 0.55348 0.99293 0.02089 0.0
C1793 C 0.5774 0.99793 0.04053 0.0
N1794 N 0.6249 0.01207 0.04345 0.0
N1795 N 0.53155 0.99515 0.96522 0.0
C1796 C 0.60283 0.0038 0.0245 0.0
C1797 C 0.5548 0.99564 0.9847 0.0
N1798 N 0.63018 9e-05 0.97344 0.0
N1799 N 0.52979 0.98518 0.03685 0.0
H1800 H 0.53194 0.99703 0.93874 0.0
H1801 H 0.51181 0.9945 0.97525 0.0
H1802 H 0.52815 0.98381 0.06331 0.0
H1803 H 0.51232 0.97851 0.02403 0.0
H1804 H 0.64846 0.99843 0.98707 0.0
H1805 H 0.63288 0.99744 0.94729 0.0
H1806 H 0.64292 0.01969 0.03275 0.0
H1807 H 0.62443 0.01375 0.0699 0.0
C1808 C 0.75422 0.69014 0.74322 0.0
C1809 C 0.74573 0.66566 0.72663 0.0
C1810 C 0.73386 0.64516 0.78159 0.0
C1811 C 0.74556 0.66811 0.79838 0.0
N1812 N 0.76837 0.71189 0.7962 0.0
N1813 N 0.73339 0.61757 0.73061 0.0
C1814 C 0.75611 0.69055 0.77949 0.0
C1815 C 0.73689 0.6426 0.7459 0.0
N1816 N 0.75989 0.71303 0.72434 0.0
N1817 N 0.71995 0.62564 0.79976 0.0
H1818 H 0.73693 0.61401 0.7048 0.0
H1819 H 0.72992 0.59951 0.74418 0.0
H1820 H 0.71769 0.62634 0.82614 0.0
H1821 H 0.70842 0.61015 0.78833 0.0
H1822 H 0.76401 0.73219 0.7349 0.0
H1823 H 0.75844 0.71334 0.69781 0.0
H1824 H 0.77918 0.72746 0.78396 0.0
H1825 H 0.76889 0.71324 0.82274 0.0
C1826 C 0.55171 0.48682 0.99245 0.0
C1827 C 0.57704 0.48883 0.97474 0.0
C1828 C 0.60202 0.49006 0.02885 0.0
C1829 C 0.57669 0.49073 0.04664 0.0
N1830 N 0.5273 0.49189 0.04623 0.0
N1831 N 0.62575 0.49828 0.97584 0.0
C1832 C 0.55142 0.48961 0.02869 0.0
C1833 C 0.60205 0.49204 0.99287 0.0
N1834 N 0.52814 0.48167 0.97465 0.0
N1835 N 0.62613 0.48665 0.04629 0.0
H1836 H 0.62676 0.50048 0.94946 0.0
H1837 H 0.64387 0.50396 0.98805 0.0
H1838 H 0.62716 0.48487 0.07273 0.0
H1839 H 0.64485 0.4829 0.03436 0.0
H1840 H 0.50936 0.47735 0.98608 0.0
H1841 H 0.52779 0.47992 0.94814 0.0
H1842 H 0.50821 0.49401 0.0346 0.0
H1843 H 0.52655 0.49335 0.07275 0.0
C1844 C 0.7333 0.35714 0.27475 0.0
C1845 C 0.73769 0.33295 0.29425 0.0
C1846 C 0.74787 0.30731 0.24188 0.0
C1847 C 0.74068 0.33081 0.22253 0.0
N1848 N 0.72177 0.37666 0.22002 0.0
N1849 N 0.74621 0.28425 0.29676 0.0
C1850 C 0.73174 0.3552 0.23883 0.0
C1851 C 0.74419 0.30776 0.27792 0.0
N1852 N 0.73266 0.38232 0.29024 0.0
N1853 N 0.75874 0.2849 0.22589 0.0
H1854 H 0.74332 0.28388 0.32311 0.0
H1855 H 0.74876 0.26485 0.28614 0.0
H1856 H 0.76068 0.28363 0.19945 0.0
H1857 H 0.76748 0.26841 0.23882 0.0
H1858 H 0.73264 0.40077 0.27679 0.0
H1859 H 0.73527 0.38515 0.31635 0.0
H1860 H 0.7121 0.39363 0.23086 0.0
H1861 H 0.72093 0.37654 0.1935 0.0
C1862 C 0.94746 0.49457 0.52717 0.0
C1863 C 0.92973 0.4767 0.54551 0.0
C1864 C 0.90993 0.46 0.49239 0.0
C1865 C 0.92577 0.47938 0.47389 0.0
N1866 N 0.96473 0.50972 0.47199 0.0
N1867 N 0.90788 0.43219 0.54316 0.0
C1868 C 0.94626 0.49504 0.49079 0.0
C1869 C 0.91533 0.45605 0.52746 0.0
N1870 N 0.96564 0.51056 0.54471 0.0
N1871 N 0.88871 0.44636 0.47716 0.0
H1872 H 0.91497 0.42692 0.56736 0.0
H1873 H 0.89868 0.41592 0.53021 0.0
H1874 H 0.88305 0.44948 0.45184 0.0
H1875 H 0.87501 0.43406 0.49071 0.0
H1876 H 0.97716 0.52627 0.53386 0.0
H1877 H 0.96941 0.50761 0.57065 0.0
H1878 H 0.98138 0.52023 0.48224 0.0
H1879 H 0.96449 0.50976 0.44544 0.0
C1880 C 0.24327 0.29984 0.25324 0.0
C1881 C 0.23644 0.32459 0.2361 0.0
C1882 C 0.22077 0.34477 0.28978 0.0
C1883 C 0.23091 0.32152 0.30748 0.0
N1884 N 0.2533 0.27749 0.30728 0.0
N1885 N 0.22474 0.3729 0.23952 0.0
C1886 C 0.24251 0.2991 0.28954 0.0
C1887 C 0.22648 0.34761 0.25462 0.0
N1888 N 0.25008 0.27706 0.23476 0.0
N1889 N 0.2062 0.36456 0.30666 0.0
H1890 H 0.23036 0.37676 0.21437 0.0
H1891 H 0.22065 0.39088 0.25297 0.0
H1892 H 0.20243 0.36406 0.33278 0.0
H1893 H 0.19569 0.38026 0.29418 0.0
H1894 H 0.25346 0.25783 0.24552 0.0
H1895 H 0.25037 0.27692 0.20817 0.0
H1896 H 0.26489 0.26196 0.29613 0.0
H1897 H 0.25169 0.27581 0.33372 0.0
C1898 C 0.43896 0.46264 1.00166 0.0
C1899 C 0.42647 0.48424 0.9831 0.0
C1900 C 0.43296 0.51526 0.03132 0.0
C1901 C 0.43859 0.49214 0.05189 0.0
N1902 N 0.46301 0.4493 0.05337 0.0
N1903 N 0.41439 0.53218 0.97803 0.0
C1904 C 0.4468 0.46737 0.03605 0.0
C1905 C 0.42509 0.51115 0.99691 0.0
N1906 N 0.44203 0.43744 0.98689 0.0
N1907 N 0.43567 0.54092 0.04487 0.0
H1908 H 0.40905 0.53005 0.95243 0.0
H1909 H 0.40969 0.5514 0.98803 0.0
H1910 H 0.443 0.54383 0.06961 0.0
H1911 H 0.43371 0.55894 0.03082 0.0
H1912 H 0.44806 0.41997 1.00022 0.0
H1913 H 0.43752 0.43393 0.96125 0.0
H1914 H 0.47107 0.4315 0.04263 0.0
H1915 H 0.47133 0.45416 0.07712 0.0
C1916 C 0.25847 0.70262 0.74837 0.0
C1917 C 0.24347 0.68504 0.72647 0.0
C1918 C 0.23044 0.6561 0.77455 0.0
C1919 C 0.24468 0.67401 0.797 0.0
N1920 N 0.2667 0.71771 0.8065 0.0
N1921 N 0.20793 0.65087 0.7202 0.0
C1922 C 0.257 0.69842 0.78428 0.0
C1923 C 0.22686 0.6639 0.74014 0.0
N1924 N 0.27442 0.7229 0.73476 0.0
N1925 N 0.22239 0.63053 0.78501 0.0
H1926 H 0.20492 0.6555 0.69456 0.0
H1927 H 0.19328 0.63749 0.73012 0.0
H1928 H 0.22633 0.62265 0.8092 0.0
H1929 H 0.2146 0.6158 0.76837 0.0
H1930 H 0.28817 0.73459 0.74899 0.0
H1931 H 0.27465 0.7272 0.70869 0.0
H1932 H 0.27368 0.73698 0.79892 0.0
H1933 H 0.26542 0.71538 0.83288 0.0
C1934 C 0.09368 0.54858 0.51107 0.0
C1935 C 0.08322 0.52796 0.48926 0.0
C1936 C 0.05713 0.5078 0.53624 0.0
C1937 C 0.06994 0.52659 0.55876 0.0
N1938 N 0.09224 0.57054 0.56638 0.0
N1939 N 0.04942 0.49331 0.4776 0.0
C1940 C 0.08532 0.54905 0.54571 0.0
C1941 C 0.06285 0.50943 0.50073 0.0
N1942 N 0.11285 0.56667 0.49904 0.0
N1943 N 0.04032 0.48794 0.54923 0.0
H1944 H 0.05346 0.49442 0.45151 0.0
H1945 H 0.03301 0.48056 0.48365 0.0
H1946 H 0.0346 0.48764 0.57486 0.0
H1947 H 0.03238 0.47171 0.53508 0.0
H1948 H 0.12417 0.5798 0.51454 0.0
H1949 H 0.1184 0.56766 0.47338 0.0
H1950 H 0.10116 0.58858 0.5575 0.0
H1951 H 0.08682 0.57166 0.59196 0.0
C1952 C 0.3578 0.08559 0.11628 0.0
C1953 C 0.35734 0.0755 0.15014 0.0
C1954 C 0.3152 0.09934 0.16193 0.0
C1955 C 0.31286 0.10658 0.12678 0.0
N1956 N 0.33708 0.11638 0.07463 0.0
N1957 N 0.34811 0.09082 0.20672 0.0
C1958 C 0.33588 0.10278 0.105 0.0
C1959 C 0.34035 0.08883 0.17357 0.0
N1960 N 0.37949 0.07947 0.09582 0.0
N1961 N 0.29324 0.09943 0.18357 0.0
H1962 H 0.3673 0.08367 0.21465 0.0
H1963 H 0.33679 0.10188 0.22463 0.0
H1964 H 0.2731 0.10303 0.17599 0.0
H1965 H 0.29479 0.09248 0.20866 0.0
H1966 H 0.37997 0.08316 0.0697 0.0
H1967 H 0.39754 0.07158 0.10617 0.0
H1968 H 0.35367 0.11538 0.058 0.0
H1969 H 0.3223 0.13082 0.06768 0.0
C1970 C 0.1454 0.07401 0.39052 0.0
C1971 C 0.15638 0.05569 0.36587 0.0
C1972 C 0.19802 0.0834 0.36272 0.0
C1973 C 0.18926 0.09852 0.39165 0.0
N1974 N 0.15523 0.10768 0.43456 0.0
N1975 N 0.19705 0.0391 0.33628 0.0
C1976 C 0.16303 0.09374 0.40598 0.0
C1977 C 0.1836 0.05944 0.35366 0.0
N1978 N 0.11818 0.07286 0.39862 0.0
N1979 N 0.22069 0.09101 0.34448 0.0
H1980 H 0.18907 0.01962 0.33185 0.0
H1981 H 0.21778 0.04024 0.32995 0.0
H1982 H 0.23282 0.10791 0.35019 0.0
H1983 H 0.2258 0.08205 0.3212 0.0
H1984 H 0.10857 0.08702 0.41451 0.0
H1985 H 0.10466 0.05926 0.38678 0.0
H1986 H 0.13772 0.10284 0.44854 0.0
H1987 H 0.16719 0.12329 0.44515 0.0
C1988 C 0.17958 0.9022 0.63473 0.0
C1989 C 0.20005 0.91386 0.61323 0.0
C1990 C 0.17954 0.95945 0.62032 0.0
C1991 C 0.15906 0.94783 0.64155 0.0
N1992 N 0.13684 0.90857 0.66615 0.0
N1993 N 0.21656 0.95325 0.58073 0.0
C1994 C 0.15823 0.91925 0.64791 0.0
C1995 C 0.19895 0.94223 0.60425 0.0
N1996 N 0.1807 0.87485 0.64244 0.0
N1997 N 0.18158 0.9874 0.61712 0.0
H1998 H 0.23431 0.94391 0.57182 0.0
H1999 H 0.21294 0.97194 0.56862 0.0
H2000 H 0.16737 0.00104 0.62729 0.0
H2001 H 0.19849 0.9974 0.6067 0.0
H2002 H 0.16851 0.8654 0.66076 0.0
H2003 H 0.19447 0.86142 0.63076 0.0
H2004 H 0.13346 0.88768 0.66966 0.0
H2005 H 0.12137 0.92083 0.67648 0.0
C2006 C 0.33896 0.95042 0.90687 0.0
C2007 C 0.34733 0.95073 0.87206 0.0
C2008 C 0.31627 0.91273 0.86082 0.0
C2009 C 0.31094 0.90995 0.89644 0.0
N2010 N 0.32604 0.92077 0.95334 0.0
N2011 N 0.35065 0.92544 0.81947 0.0
C2012 C 0.32534 0.92694 0.91951 0.0
C2013 C 0.33834 0.92953 0.85023 0.0
N2014 N 0.34153 0.97299 0.92729 0.0
N2015 N 0.2991 0.90196 0.83678 0.0
H2016 H 0.36806 0.93644 0.81218 0.0
H2017 H 0.34549 0.90908 0.80355 0.0
H2018 H 0.28059 0.8923 0.84231 0.0
H2019 H 0.30156 0.90606 0.81087 0.0
H2020 H 0.33353 0.97359 0.95194 0.0
H2021 H 0.3483 0.99205 0.91873 0.0
H2022 H 0.33738 0.93216 0.97091 0.0
H2023 H 0.31835 0.90223 0.9625 0.0
C2024 C 0.68597 0.94229 0.84959 0.0
C2025 C 0.65813 0.944 0.86021 0.0
C2026 C 0.66581 0.90602 0.90025 0.0
C2027 C 0.69288 0.90324 0.8876 0.0
N2028 N 0.72602 0.91413 0.84323 0.0
N2029 N 0.61997 0.92386 0.89026 0.0
C2030 C 0.70185 0.91951 0.85965 0.0
C2031 C 0.64752 0.9247 0.88395 0.0
N2032 N 0.69843 0.96355 0.83274 0.0
N2033 N 0.65774 0.89109 0.92796 0.0
H2034 H 0.60607 0.93662 0.87766 0.0
H2035 H 0.61069 0.90888 0.90526 0.0
H2036 H 0.67028 0.87629 0.93925 0.0
H2037 H 0.63932 0.89445 0.94075 0.0
H2038 H 0.71938 0.96404 0.82759 0.0
H2039 H 0.68919 0.98231 0.82746 0.0
H2040 H 0.73124 0.92325 0.82007 0.0
H2041 H 0.73987 0.89909 0.85052 0.0
C2042 C 0.82289 0.95886 0.61431 0.0
C2043 C 0.84098 0.95074 0.64087 0.0
C2044 C 0.82652 0.90293 0.63374 0.0
C2045 C 0.80607 0.91168 0.61034 0.0
N2046 N 0.78105 0.94956 0.58429 0.0
N2047 N 0.85886 0.91584 0.67816 0.0
C2048 C 0.80348 0.93996 0.60172 0.0
C2049 C 0.84252 0.92294 0.65127 0.0
N2050 N 0.82351 0.98499 0.60152 0.0
N2051 N 0.8309 0.8755 0.6386 0.0
H2052 H 0.87152 0.92994 0.69055 0.0
H2053 H 0.85862 0.89649 0.68946 0.0
H2054 H 0.81976 0.8605 0.62558 0.0
H2055 H 0.84693 0.86763 0.65316 0.0
H2056 H 0.81391 0.99057 0.5788 0.0
H2057 H 0.83506 0.00082 0.61186 0.0
H2058 H 0.77653 0.97033 0.58165 0.0
H2059 H 0.76493 0.9375 0.57562 0.0
C2060 C 0.8085 0.05591 0.35124 0.0
C2061 C 0.83645 0.0575 0.36176 0.0
C2062 C 0.82482 0.09528 0.40098 0.0
C2063 C 0.79679 0.09133 0.39299 0.0
N2064 N 0.76126 0.06531 0.36468 0.0
N2065 N 0.87181 0.07903 0.39537 0.0
C2066 C 0.78853 0.07128 0.3689 0.0
C2067 C 0.84479 0.07742 0.38625 0.0
N2068 N 0.8004 0.03916 0.32509 0.0
N2069 N 0.83218 0.11634 0.4221 0.0
H2070 H 0.88715 0.06815 0.38267 0.0
H2071 H 0.8791 0.09064 0.4157 0.0
H2072 H 0.81777 0.12922 0.43356 0.0
H2073 H 0.85237 0.12205 0.42699 0.0
H2074 H 0.78187 0.04178 0.31221 0.0
H2075 H 0.81187 0.02313 0.31511 0.0
H2076 H 0.75404 0.04837 0.35119 0.0
H2077 H 0.7456 0.07561 0.37728 0.0
C2078 C 0.67951 0.03785 0.11738 0.0
C2079 C 0.65944 0.04816 0.14029 0.0
C2080 C 0.67778 0.09462 0.13285 0.0
C2081 C 0.69974 0.08358 0.11338 0.0
N2082 N 0.72521 0.0434 0.09546 0.0
N2083 N 0.64052 0.08562 0.17259 0.0
C2084 C 0.70151 0.0549 0.10757 0.0
C2085 C 0.65885 0.0764 0.14889 0.0
N2086 N 0.67804 0.01155 0.10532 0.0
N2087 N 0.6747 0.12243 0.13522 0.0
H2088 H 0.62592 0.07282 0.18382 0.0
H2089 H 0.6409 0.1054 0.18264 0.0
H2090 H 0.68792 0.13616 0.12308 0.0
H2091 H 0.65785 0.13184 0.14661 0.0
H2092 H 0.69004 0.00444 0.08519 0.0
H2093 H 0.66345 0.99738 0.11322 0.0
H2094 H 0.72831 0.02234 0.0938 0.0
H2095 H 0.74314 0.05439 0.09085 0.0
C2096 C 0.7973 0.55615 0.61628 0.0
C2097 C 0.80186 0.58475 0.61942 0.0
C2098 C 0.84481 0.57543 0.65008 0.0
C2099 C 0.84142 0.54709 0.643 0.0
N2100 N 0.81769 0.51152 0.61138 0.0
N2101 N 0.83122 0.62221 0.63614 0.0
C2102 C 0.81888 0.53786 0.62328 0.0
C2103 C 0.82604 0.59467 0.63547 0.0
N2104 N 0.77165 0.54611 0.60955 0.0
N2105 N 0.86559 0.58379 0.67098 0.0
H2106 H 0.81786 0.63657 0.62545 0.0
H2107 H 0.84957 0.6306 0.64489 0.0
H2108 H 0.88002 0.57013 0.68096 0.0
H2109 H 0.86758 0.60382 0.67991 0.0
H2110 H 0.76699 0.52532 0.61091 0.0
H2111 H 0.75424 0.55838 0.60734 0.0
H2112 H 0.80298 0.50508 0.59379 0.0
H2113 H 0.83258 0.49677 0.6164 0.0
C2114 C 0.67435 0.59414 0.88264 0.0
C2115 C 0.69698 0.58421 0.90186 0.0
C2116 C 0.67859 0.5377 0.89916 0.0
C2117 C 0.65779 0.54685 0.87652 0.0
N2118 N 0.63709 0.58307 0.84365 0.0
N2119 N 0.72481 0.54516 0.9181 0.0
C2120 C 0.65599 0.57493 0.86729 0.0
C2121 C 0.70016 0.55567 0.90762 0.0
N2122 N 0.67017 0.62177 0.87969 0.0
N2123 N 0.6784 0.51161 0.91205 0.0
H2124 H 0.74261 0.55678 0.92084 0.0
H2125 H 0.72868 0.52425 0.91967 0.0
H2126 H 0.66428 0.49666 0.90505 0.0
H2127 H 0.69121 0.50543 0.93192 0.0
H2128 H 0.6528 0.63032 0.86845 0.0
H2129 H 0.68311 0.63618 0.89105 0.0
H2130 H 0.63661 0.6027 0.83315 0.0
H2131 H 0.62284 0.56954 0.83304 0.0
C2132 C 0.64784 0.41736 0.14381 0.0
C2133 C 0.65724 0.44328 0.15542 0.0
C2134 C 0.70062 0.43663 0.12591 0.0
C2135 C 0.69284 0.40941 0.11777 0.0
N2136 N 0.66043 0.37229 0.1221 0.0
N2137 N 0.69582 0.47374 0.16564 0.0
C2138 C 0.66682 0.39919 0.12775 0.0
C2139 C 0.68467 0.45162 0.14923 0.0
N2140 N 0.62093 0.41032 0.14789 0.0
N2141 N 0.72303 0.44856 0.11104 0.0
H2142 H 0.68525 0.48579 0.18308 0.0
H2143 H 0.71665 0.47853 0.1644 0.0
H2144 H 0.73553 0.43863 0.09346 0.0
H2145 H 0.72773 0.46932 0.11378 0.0
H2146 H 0.61221 0.39289 0.13697 0.0
H2147 H 0.60705 0.42281 0.16093 0.0
H2148 H 0.64285 0.36293 0.13175 0.0
H2149 H 0.6736 0.35901 0.10913 0.0
C2150 C 0.84915 0.41542 0.38747 0.0
C2151 C 0.84323 0.43174 0.35833 0.0
C2152 C 0.79507 0.41997 0.3618 0.0
C2153 C 0.80003 0.40488 0.39216 0.0
N2154 N 0.832 0.38408 0.43122 0.0
N2155 N 0.81459 0.4339 0.30836 0.0
C2156 C 0.82727 0.40117 0.40423 0.0
C2157 C 0.8175 0.42888 0.34232 0.0
N2158 N 0.87574 0.4131 0.39801 0.0
N2159 N 0.76905 0.42732 0.35241 0.0
H2160 H 0.83157 0.43719 0.29283 0.0
H2161 H 0.79627 0.43051 0.29525 0.0
H2162 H 0.75177 0.42325 0.36722 0.0
H2163 H 0.76512 0.44032 0.33185 0.0
H2164 H 0.88198 0.40302 0.42004 0.0
H2165 H 0.89191 0.42084 0.38343 0.0
H2166 H 0.85129 0.37988 0.44124 0.0
H2167 H 0.8163 0.37319 0.44321 0.0
C2168 C 0.1663 0.40468 0.39972 0.0
C2169 C 0.19235 0.41278 0.41267 0.0
C2170 C 0.17967 0.46083 0.406 0.0
C2171 C 0.15571 0.45294 0.38816 0.0
N2172 N 0.12664 0.41749 0.36545 0.0
N2173 N 0.22661 0.449 0.41618 0.0
C2174 C 0.14905 0.42483 0.38423 0.0
C2175 C 0.19982 0.44097 0.41284 0.0
N2176 N 0.15788 0.37806 0.4029 0.0
N2177 N 0.18354 0.48737 0.41617 0.0
H2178 H 0.24304 0.43536 0.41686 0.0
H2179 H 0.23288 0.46934 0.41332 0.0
H2180 H 0.16942 0.50295 0.41151 0.0
H2181 H 0.19956 0.49317 0.43228 0.0
H2182 H 0.13824 0.37142 0.39644 0.0
H2183 H 0.16978 0.3631 0.41489 0.0
H2184 H 0.12225 0.39728 0.35873 0.0
H2185 H 0.11336 0.43198 0.35483 0.0
C2186 C 0.33617 0.39534 0.11283 0.0
C2187 C 0.31381 0.39153 0.1356 0.0
C2188 C 0.34224 0.4104 0.18102 0.0
C2189 C 0.35862 0.42341 0.15641 0.0
N2190 N 0.37842 0.41997 0.10034 0.0
N2191 N 0.29601 0.39732 0.19351 0.0
C2192 C 0.35811 0.41304 0.12263 0.0
C2193 C 0.31713 0.3987 0.17065 0.0
N2194 N 0.33664 0.3814 0.08267 0.0
N2195 N 0.35033 0.41025 0.21421 0.0
H2196 H 0.27599 0.39194 0.18737 0.0
H2197 H 0.29781 0.40469 0.21837 0.0
H2198 H 0.3693 0.41837 0.22142 0.0
H2199 H 0.34002 0.39906 0.23289 0.0
H2200 H 0.35299 0.38197 0.06564 0.0
H2201 H 0.32151 0.36711 0.0763 0.0
H2202 H 0.37742 0.41631 0.07424 0.0
H2203 H 0.3967 0.42888 0.10861 0.0
C2204 C 0.34481 0.58452 0.87023 0.0
C2205 C 0.34845 0.55805 0.88439 0.0
C2206 C 0.30863 0.56458 0.921 0.0
C2207 C 0.30586 0.592 0.90879 0.0
N2208 N 0.32574 0.63008 0.87816 0.0
N2209 N 0.33896 0.52649 0.93081 0.0
C2210 C 0.32536 0.60265 0.8853 0.0
C2211 C 0.33238 0.54952 0.9126 0.0
N2212 N 0.3596 0.59216 0.84225 0.0
N2213 N 0.28767 0.5516 0.93779 0.0
H2214 H 0.35552 0.51383 0.92529 0.0
H2215 H 0.32947 0.52149 0.9538 0.0
H2216 H 0.26831 0.55993 0.94181 0.0
H2217 H 0.2882 0.53083 0.94403 0.0
H2218 H 0.35565 0.61002 0.82849 0.0
H2219 H 0.37488 0.57973 0.83179 0.0
H2220 H 0.3408 0.63932 0.86321 0.0
H2221 H 0.31267 0.644 0.89018 0.0
C2222 C 0.1754 0.59047 0.61002 0.0
C2223 C 0.19675 0.60008 0.63111 0.0
C2224 C 0.17584 0.57618 0.6792 0.0
C2225 C 0.15851 0.56167 0.65659 0.0
N2226 N 0.14852 0.55062 0.59711 0.0
N2227 N 0.22079 0.59583 0.68523 0.0
C2228 C 0.15976 0.56769 0.62097 0.0
C2229 C 0.19798 0.59142 0.66572 0.0
N2230 N 0.17002 0.60302 0.57971 0.0
N2231 N 0.17103 0.57577 0.71339 0.0
H2232 H 0.23862 0.60505 0.67615 0.0
H2233 H 0.22298 0.58753 0.70959 0.0
H2234 H 0.1534 0.56686 0.72343 0.0
H2235 H 0.18243 0.5873 0.73073 0.0
H2236 H 0.15338 0.59758 0.56441 0.0
H2237 H 0.18027 0.62084 0.57225 0.0
H2238 H 0.15115 0.55378 0.57102 0.0
H2239 H 0.14003 0.53155 0.6027 0.0
C2240 C 0.19803 0.2381 0.03368 0.0
C2241 C 0.22239 0.22351 0.04147 0.0
C2242 C 0.24772 0.26662 0.04781 0.0
C2243 C 0.22271 0.28115 0.0437 0.0
N2244 N 0.17625 0.28239 0.02355 0.0
N2245 N 0.27163 0.22287 0.04602 0.0
C2246 C 0.19859 0.26734 0.03319 0.0
C2247 C 0.24773 0.23753 0.04483 0.0
N2248 N 0.17422 0.22386 0.02866 0.0
N2249 N 0.27097 0.28057 0.05681 0.0
H2250 H 0.27211 0.20151 0.04445 0.0
H2251 H 0.29105 0.23173 0.04567 0.0
H2252 H 0.27187 0.30195 0.05767 0.0
H2253 H 0.28908 0.27115 0.06458 0.0
H2254 H 0.15499 0.23297 0.02649 0.0
H2255 H 0.17377 0.20245 0.02744 0.0
H2256 H 0.15835 0.27393 0.01362 0.0
H2257 H 0.17657 0.30382 0.02305 0.0
C2258 C 0.9866 0.94625 0.28901 0.0
C2259 C 0.97411 0.97204 0.29522 0.0
C2260 C 0.01895 0.99449 0.29681 0.0
C2261 C 0.03155 0.96837 0.29324 0.0
N2262 N 0.02861 0.92098 0.27698 0.0
N2263 N 0.97697 0.02134 0.29531 0.0
C2264 C 0.01567 0.94476 0.28606 0.0
C2265 C 0.9899 0.99643 0.29565 0.0
N2266 N 0.97071 0.92315 0.28765 0.0
N2267 N 0.03473 0.01708 0.30343 0.0
H2268 H 0.95565 0.02325 0.29478 0.0
H2269 H 0.98717 0.03998 0.29256 0.0
H2270 H 0.05611 0.01666 0.30298 0.0
H2271 H 0.02678 0.036 0.31079 0.0
H2272 H 0.97855 0.90329 0.28701 0.0
H2273 H 0.94931 0.92389 0.28835 0.0
H2274 H 0.01841 0.90333 0.26907 0.0
H2275 H 0.04992 0.91973 0.27468 0.0
C2276 C 0.30992 0.74072 0.53849 0.0
C2277 C 0.28408 0.72773 0.54186 0.0
C2278 C 0.26071 0.7721 0.54102 0.0
C2279 C 0.28672 0.78518 0.54136 0.0
N2280 N 0.33519 0.78339 0.53071 0.0
N2281 N 0.23506 0.72951 0.5358 0.0
C2282 C 0.31108 0.76987 0.53649 0.0
C2283 C 0.25948 0.74301 0.5392 0.0
N2284 N 0.33323 0.72515 0.53921 0.0
N2285 N 0.2374 0.78744 0.54469 0.0
H2286 H 0.23383 0.70815 0.53468 0.0
H2287 H 0.21644 0.73926 0.53111 0.0
H2288 H 0.23755 0.80884 0.54475 0.0
H2289 H 0.21803 0.77912 0.54895 0.0
H2290 H 0.35296 0.73321 0.54068 0.0
H2291 H 0.33261 0.70372 0.53914 0.0
H2292 H 0.35359 0.77366 0.52484 0.0
H2293 H 0.33619 0.80477 0.52916 0.0
C2294 C 0.48612 0.00987 0.78763 0.0
C2295 C 0.47257 0.03559 0.78571 0.0
C2296 C 0.51657 0.05941 0.78066 0.0
C2297 C 0.53007 0.03403 0.78611 0.0
N2298 N 0.52909 0.98468 0.7846 0.0
N2299 N 0.47339 0.08335 0.77088 0.0
C2300 C 0.51522 0.00905 0.78585 0.0
C2301 C 0.48741 0.05989 0.77866 0.0
N2302 N 0.47122 0.98656 0.79348 0.0
N2303 N 0.53165 0.08303 0.77927 0.0
H2304 H 0.452 0.08377 0.76929 0.0
H2305 H 0.48271 0.10159 0.76339 0.0
H2306 H 0.55307 0.08292 0.77923 0.0
H2307 H 0.52317 0.10263 0.77905 0.0
H2308 H 0.47987 0.96766 0.79961 0.0
H2309 H 0.44982 0.98632 0.79343 0.0
H2310 H 0.51961 0.96569 0.78155 0.0
H2311 H 0.55045 0.98363 0.7837 0.0
C2312 C 0.19665 0.76562 0.98328 0.0
C2313 C 0.2227 0.77813 0.97967 0.0
C2314 C 0.2452 0.73335 0.98549 0.0
C2315 C 0.21918 0.72058 0.98222 0.0
N2316 N 0.17 0.7233 0.9825 0.0
N2317 N 0.27189 0.77548 0.9817 0.0
C2318 C 0.19479 0.73641 0.98333 0.0
C2319 C 0.24706 0.76245 0.98299 0.0
N2320 N 0.17386 0.78184 0.98575 0.0
N2321 N 0.26804 0.71747 0.99003 0.0
H2322 H 0.27363 0.79683 0.98162 0.0
H2323 H 0.2907 0.76548 0.98003 0.0
H2324 H 0.26717 0.69612 0.9914 0.0
H2325 H 0.28754 0.72522 0.99484 0.0
H2326 H 0.15416 0.77446 0.9902 0.0
H2327 H 0.17509 0.80323 0.98573 0.0
H2328 H 0.15122 0.73319 0.97979 0.0
H2329 H 0.16836 0.70196 0.98407 0.0
C2330 C 0.50817 0.94991 0.23289 0.0
C2331 C 0.52255 0.97433 0.22499 0.0
C2332 C 0.47938 4e-05 0.22383 0.0
C2333 C 0.46497 0.97478 0.2247 0.0
N2334 N 0.46429 0.92602 0.23373 0.0
N2335 N 0.5231 0.0232 0.21609 0.0
C2336 C 0.47898 0.94983 0.23116 0.0
C2337 C 0.50852 0.99973 0.22225 0.0
N2338 N 0.52262 0.92685 0.24131 0.0
N2339 N 0.46504 0.02416 0.22372 0.0
H2340 H 0.5445 0.02373 0.21645 0.0
H2341 H 0.51426 0.04192 0.20959 0.0
H2342 H 0.44366 0.02483 0.22439 0.0
H2343 H 0.47408 0.04344 0.2257 0.0
H2344 H 0.51366 0.9086 0.24943 0.0
H2345 H 0.54402 0.92675 0.24267 0.0
H2346 H 0.47306 0.90657 0.23476 0.0
H2347 H 0.44287 0.92583 0.23405 0.0
C2348 C 0.30502 0.23239 0.48936 0.0
C2349 C 0.28023 0.21727 0.48941 0.0
C2350 C 0.25437 0.25959 0.49949 0.0
C2351 C 0.27809 0.27477 0.49094 0.0
N2352 N 0.32673 0.27688 0.48136 0.0
N2353 N 0.2311 0.21568 0.4968 0.0
C2354 C 0.30385 0.26156 0.48788 0.0
C2355 C 0.25488 0.23055 0.49624 0.0
N2356 N 0.32942 0.21861 0.4895 0.0
N2357 N 0.23125 0.27319 0.50955 0.0
H2358 H 0.23074 0.19434 0.49526 0.0
H2359 H 0.21165 0.22448 0.4973 0.0
H2360 H 0.23066 0.29455 0.51174 0.0
H2361 H 0.21374 0.26341 0.51868 0.0
H2362 H 0.34844 0.22817 0.49152 0.0
H2363 H 0.33029 0.1972 0.4905 0.0
H2364 H 0.34571 0.26855 0.47502 0.0
H2365 H 0.32635 0.29831 0.4814 0.0
C2366 C 0.01057 0.05296 0.7359 0.0
C2367 C 0.02283 0.02662 0.7353 0.0
C2368 C 0.97784 0.00464 0.73737 0.0
C2369 C 0.96547 0.03094 0.73462 0.0
N2370 N 0.96872 0.07975 0.74201 0.0
N2371 N 0.01958 0.97843 0.74712 0.0
C2372 C 0.9815 0.05502 0.73794 0.0
C2373 C 0.00682 0.00281 0.74047 0.0
N2374 N 0.02665 0.07573 0.73224 0.0
N2375 N 0.96218 0.98149 0.73432 0.0
H2376 H 0.0409 0.97694 0.74921 0.0
H2377 H 0.00918 0.96053 0.75371 0.0
H2378 H 0.94085 0.98198 0.73262 0.0
H2379 H 0.97034 0.96185 0.73183 0.0
H2380 H 0.01893 0.09542 0.72844 0.0
H2381 H 0.04804 0.07463 0.73191 0.0
H2382 H 0.97907 0.09803 0.74684 0.0
H2383 H 0.94738 0.0814 0.74348 0.0
C2384 C 0.80069 0.76296 0.98474 0.0
C2385 C 0.77571 0.77702 0.97874 0.0
C2386 C 0.75065 0.73358 0.97634 0.0
C2387 C 0.77606 0.71952 0.97858 0.0
N2388 N 0.82369 0.71923 0.99419 0.0
N2389 N 0.72635 0.77712 0.97845 0.0
C2390 C 0.80059 0.73378 0.98623 0.0
C2391 C 0.75042 0.76271 0.97812 0.0
N2392 N 0.82454 0.77761 0.98712 0.0
N2393 N 0.7271 0.71906 0.97048 0.0
H2394 H 0.72575 0.79851 0.97928 0.0
H2395 H 0.70707 0.76812 0.98064 0.0
H2396 H 0.72652 0.69765 0.97072 0.0
H2397 H 0.70834 0.72797 0.96437 0.0
H2398 H 0.84398 0.76881 0.9878 0.0
H2399 H 0.82478 0.79904 0.98765 0.0
H2400 H 0.84202 0.72812 1.00212 0.0
H2401 H 0.82379 0.69781 0.99535 0.0
C2402 C 0.74231 0.23591 0.47211 0.0
C2403 C 0.71697 0.22188 0.47521 0.0
C2404 C 0.69343 0.26541 0.48629 0.0
C2405 C 0.71754 0.27952 0.47642 0.0
N2406 N 0.76555 0.2792 0.46188 0.0
N2407 N 0.66874 0.22203 0.48799 0.0
C2408 C 0.74238 0.26506 0.47068 0.0
C2409 C 0.69268 0.23626 0.48387 0.0
N2410 N 0.76614 0.22119 0.47003 0.0
N2411 N 0.67128 0.2801 0.49739 0.0
H2412 H 0.66803 0.20061 0.4878 0.0
H2413 H 0.64959 0.23122 0.49055 0.0
H2414 H 0.67164 0.30147 0.49931 0.0
H2415 H 0.65353 0.27125 0.50722 0.0
H2416 H 0.78559 0.23 0.47053 0.0
H2417 H 0.76651 0.19979 0.47076 0.0
H2418 H 0.78344 0.26995 0.45309 0.0
H2419 H 0.76657 0.30059 0.46211 0.0
C2420 C 0.8023 0.23439 0.03419 0.0
C2421 C 0.77799 0.21969 0.04169 0.0
C2422 C 0.75172 0.2625 0.04259 0.0
C2423 C 0.77677 0.27721 0.04192 0.0
N2424 N 0.82565 0.27852 0.03402 0.0
N2425 N 0.7291 0.21852 0.0504 0.0
C2426 C 0.80198 0.26355 0.03602 0.0
C2427 C 0.7524 0.23338 0.04433 0.0
N2428 N 0.82561 0.22028 0.02594 0.0
N2429 N 0.72743 0.27654 0.04213 0.0
H2430 H 0.72879 0.19711 0.05014 0.0
H2431 H 0.71029 0.22719 0.05683 0.0
H2432 H 0.72652 0.29792 0.04112 0.0
H2433 H 0.70831 0.26722 0.03991 0.0
H2434 H 0.84372 0.22955 0.01792 0.0
H2435 H 0.82608 0.19888 0.02455 0.0
H2436 H 0.8452 0.26996 0.03357 0.0
H2437 H 0.82565 0.29996 0.03375 0.0
C2438 C 0.74774 0.76322 0.53806 0.0
C2439 C 0.72228 0.77727 0.53834 0.0
C2440 C 0.69771 0.73355 0.53349 0.0
C2441 C 0.72268 0.71967 0.54005 0.0
N2442 N 0.77185 0.71996 0.54555 0.0
N2443 N 0.67318 0.77707 0.53289 0.0
C2444 C 0.74794 0.73411 0.54061 0.0
C2445 C 0.69729 0.76277 0.53422 0.0
N2446 N 0.7716 0.7779 0.53602 0.0
N2447 N 0.67452 0.71863 0.52721 0.0
H2448 H 0.67261 0.79848 0.53183 0.0
H2449 H 0.65386 0.76801 0.53367 0.0
H2450 H 0.67461 0.6972 0.52662 0.0
H2451 H 0.65583 0.72718 0.52005 0.0
H2452 H 0.79089 0.76907 0.53311 0.0
H2453 H 0.77191 0.79927 0.53451 0.0
H2454 H 0.79069 0.72918 0.55042 0.0
H2455 H 0.77267 0.69855 0.54579 0.0
C2456 C 0.51254 0.44176 0.78409 0.0
C2457 C 0.52717 0.46668 0.78811 0.0
C2458 C 0.48455 0.49261 0.78108 0.0
C2459 C 0.46972 0.46792 0.78542 0.0
N2460 N 0.46831 0.41873 0.78716 0.0
N2461 N 0.52784 0.51623 0.78893 0.0
C2462 C 0.48336 0.4423 0.7848 0.0
C2463 C 0.51349 0.49231 0.78518 0.0
N2464 N 0.5267 0.41774 0.78047 0.0
N2465 N 0.47065 0.51637 0.77449 0.0
H2466 H 0.54912 0.51686 0.79148 0.0
H2467 H 0.51863 0.53542 0.79125 0.0
H2468 H 0.44934 0.51682 0.77193 0.0
H2469 H 0.4802 0.53485 0.76845 0.0
H2470 H 0.51746 0.39895 0.77524 0.0
H2471 H 0.54811 0.41714 0.77994 0.0
H2472 H 0.4768 0.39935 0.79082 0.0
H2473 H 0.44689 0.41891 0.7863 0.0
C2474 C 0.01875 0.50506 0.29694 0.0
C2475 C 0.03115 0.53142 0.2962 0.0
C2476 C 0.98597 0.55326 0.29222 0.0
C2477 C 0.97363 0.52709 0.29588 0.0
N2478 N 0.97707 0.47805 0.29102 0.0
N2479 N 0.02791 0.57951 0.28353 0.0
C2480 C 0.98973 0.50294 0.29435 0.0
C2481 C 0.01509 0.55517 0.29028 0.0
N2482 N 0.03455 0.48229 0.30245 0.0
N2483 N 0.96986 0.57621 0.29255 0.0
H2484 H 0.04925 0.58106 0.28199 0.0
H2485 H 0.01764 0.5974 0.27666 0.0
H2486 H 0.94847 0.57518 0.29259 0.0
H2487 H 0.97751 0.59612 0.29389 0.0
H2488 H 0.02655 0.46293 0.30765 0.0
H2489 H 0.05592 0.48298 0.30333 0.0
H2490 H 0.98754 0.45972 0.28696 0.0
H2491 H 0.95579 0.47616 0.28917 0.0
C2492 C 0.01485 0.44472 0.73714 0.0
C2493 C 0.02799 0.47056 0.73516 0.0
C2494 C 0.98381 0.49414 0.73416 0.0
C2495 C 0.97062 0.46819 0.73289 0.0
N2496 N 0.97197 0.41958 0.7431 0.0
N2497 N 0.02619 0.51936 0.74329 0.0
C2498 C 0.9857 0.44369 0.73809 0.0
C2499 C 0.01274 0.49513 0.73798 0.0
N2500 N 0.03029 0.42134 0.736 0.0
N2501 N 0.96897 0.51763 0.72927 0.0
H2502 H 0.04748 0.52031 0.74597 0.0
H2503 H 0.01629 0.53787 0.74822 0.0
H2504 H 0.94764 0.51776 0.72715 0.0
H2505 H 0.97779 0.53687 0.72564 0.0
H2506 H 0.02211 0.40172 0.73341 0.0
H2507 H 0.0517 0.42183 0.73671 0.0
H2508 H 0.98155 0.40114 0.74928 0.0
H2509 H 0.95057 0.41864 0.74384 0.0
C2510 C 0.48075 0.50382 0.23334 0.0
C2511 C 0.46644 0.52917 0.23152 0.0
C2512 C 0.50985 0.55445 0.23227 0.0
C2513 C 0.52407 0.5291 0.23032 0.0
N2514 N 0.52445 0.48021 0.23895 0.0
N2515 N 0.46603 0.57801 0.23875 0.0
C2516 C 0.50991 0.50394 0.23456 0.0
C2517 C 0.48067 0.55435 0.23458 0.0
N2518 N 0.46648 0.4797 0.23134 0.0
N2519 N 0.52429 0.57843 0.23007 0.0
H2520 H 0.44464 0.57798 0.24047 0.0
H2521 H 0.47484 0.59714 0.24311 0.0
H2522 H 0.54571 0.57887 0.22987 0.0
H2523 H 0.51531 0.5977 0.22769 0.0
H2524 H 0.4756 0.46059 0.22789 0.0
H2525 H 0.44512 0.47884 0.23192 0.0
H2526 H 0.51557 0.46143 0.24512 0.0
H2527 H 0.54584 0.47971 0.23922 0.0
loop_
_geom_bond_atom_site_label_1
_geom_bond_atom_site_label_2
_geom_bond_distance
_geom_bond_site_symmetry_2
_ccdc_geom_bond_type
Co0 O3 1.970 . S
Co0 N17 1.989 . S
Co0 O25 1.967 . S
Co0 O32 1.920 . S
Co1 O4 1.966 . S
Co1 N10 2.022 . S
Co1 N18 1.993 . S
Co1 O26 1.941 . S
C2 O3 1.258 . S
C2 O4 1.263 . S
O3 Co0 1.970 . S
O3 C2 1.258 . S
O4 Co1 1.966 . S
O4 C2 1.263 . S
C5 O6 1.235 . S
C5 O32 1.289 . S
O6 C5 1.235 . S
C7 C9 1.400 . S
C7 N10 1.351 1_556 S
C7 C12 1.501 . S
C8 C9 1.387 . S
C8 N11 1.341 . S
C9 C7 1.400 . S
C9 C8 1.387 . S
N10 Co1 2.022 . S
N10 C7 1.351 1_554 S
N10 N11 1.365 1_554 S
N11 C8 1.341 . S
N11 N10 1.365 1_556 S
N11 H31 0.862 . S
C12 C7 1.501 . S
C12 H13 0.961 1_556 S
C12 H14 0.961 . S
C12 H15 0.960 . S
H13 C12 0.961 1_554 S
H14 C12 0.961 . S
H15 C12 0.960 . S
C16 N17 1.342 . S
C16 C20 1.401 . S
C16 C21 1.499 . S
N17 Co0 1.989 . S
N17 C16 1.342 . S
N17 N18 1.388 . S
N18 Co1 1.993 . S
N18 N17 1.388 . S
N18 C19 1.346 . S
C19 N18 1.346 . S
C19 C20 1.396 . S
C19 C29 1.510 . S
C20 C16 1.401 . S
C20 C19 1.396 . S
C21 C16 1.499 . S
C21 H22 0.959 . S
C21 H23 0.960 . S
C21 H24 0.961 . S
H22 C21 0.959 . S
H23 C21 0.960 . S
H24 C21 0.961 . S
O25 Co0 1.967 . S
O25 C33 1.258 . S
O26 Co1 1.941 . S
O26 C33 1.266 . S
H27 C29 0.952 1_556 S
H28 C29 0.951 1_556 S
C29 C19 1.510 . S
C29 H27 0.952 1_554 S
C29 H28 0.951 1_554 S
C29 H30 0.957 1_554 S
H30 C29 0.957 1_556 S
H31 N11 0.862 . S
O32 Co0 1.920 . S
O32 C5 1.289 . S
C33 O25 1.258 . S
C33 O26 1.266 . S
Co34 O37 1.970 1_565 S
Co34 N51 1.989 . S
Co34 O59 1.967 . S
Co34 O66 1.920 . S
Co35 O38 1.966 1_565 S
Co35 N44 2.022 . S
Co35 N52 1.993 . S
Co35 O60 1.941 . S
C36 O37 1.258 . S
C36 O38 1.263 . S
O37 Co34 1.970 1_545 S
O37 C36 1.258 . S
O38 Co35 1.966 1_545 S
O38 C36 1.263 . S
C39 O40 1.235 1_565 S
C39 O66 1.289 . S
O40 C39 1.235 1_545 S
C41 C43 1.400 . S
C41 N44 1.351 . S
C41 C46 1.501 1_565 S
C42 C43 1.387 . S
C42 N45 1.341 . S
C43 C41 1.400 . S
C43 C42 1.387 . S
N44 Co35 2.022 . S
N44 C41 1.351 . S
N44 N45 1.365 . S
N45 C42 1.341 . S
N45 N44 1.365 . S
N45 H65 0.862 . S
C46 C41 1.501 1_545 S
C46 H47 0.961 . S
C46 H48 0.961 . S
C46 H49 0.960 . S
H47 C46 0.961 . S
H48 C46 0.961 . S
H49 C46 0.960 . S
C50 N51 1.342 . S
C50 C54 1.401 . S
C50 C55 1.499 . S
N51 Co34 1.989 . S
N51 C50 1.342 . S
N51 N52 1.388 . S
N52 Co35 1.993 . S
N52 N51 1.388 . S
N52 C53 1.346 . S
C53 N52 1.346 . S
C53 C54 1.396 . S
C53 C63 1.510 . S
C54 C50 1.401 . S
C54 C53 1.396 . S
C55 C50 1.499 . S
C55 H56 0.959 . S
C55 H57 0.960 . S
C55 H58 0.961 . S
H56 C55 0.959 . S
H57 C55 0.960 . S
H58 C55 0.961 . S
O59 Co34 1.967 . S
O59 C67 1.258 . S
O60 Co35 1.941 . S
O60 C67 1.266 . S
H61 C63 0.959 . S
H62 C63 0.961 . S
C63 C53 1.510 . S
C63 H61 0.959 . S
C63 H62 0.961 . S
C63 H64 0.960 . S
H64 C63 0.960 . S
H65 N45 0.862 . S
O66 Co34 1.920 . S
O66 C39 1.289 . S
C67 O59 1.258 . S
C67 O60 1.266 . S
Co68 O71 1.970 . S
Co68 N85 1.989 . S
Co68 O93 1.967 . S
Co68 O100 1.920 . S
Co69 O72 1.966 . S
Co69 N78 2.022 . S
Co69 N86 1.993 . S
Co69 O94 1.941 . S
C70 O71 1.258 . S
C70 O72 1.263 . S
O71 Co68 1.970 . S
O71 C70 1.258 . S
O72 Co69 1.966 . S
O72 C70 1.263 . S
C73 O74 1.235 . S
C73 O100 1.289 . S
O74 C73 1.235 . S
C75 C77 1.400 . S
C75 N78 1.351 . S
C75 C80 1.501 . S
C76 C77 1.387 . S
C76 N79 1.341 . S
C77 C75 1.400 . S
C77 C76 1.387 . S
N78 Co69 2.022 . S
N78 C75 1.351 . S
N78 N79 1.365 . S
N79 C76 1.341 . S
N79 N78 1.365 . S
N79 H99 0.862 . S
C80 C75 1.501 . S
C80 H81 0.961 . S
C80 H82 0.961 . S
C80 H83 0.960 . S
H81 C80 0.961 . S
H82 C80 0.961 . S
H83 C80 0.960 . S
C84 N85 1.342 . S
C84 C88 1.401 . S
C84 C89 1.499 . S
N85 Co68 1.989 . S
N85 C84 1.342 . S
N85 N86 1.388 . S
N86 Co69 1.993 . S
N86 N85 1.388 . S
N86 C87 1.346 . S
C87 N86 1.346 . S
C87 C88 1.396 . S
C87 C97 1.510 . S
C88 C84 1.401 . S
C88 C87 1.396 . S
C89 C84 1.499 . S
C89 H90 0.959 . S
C89 H91 0.960 . S
C89 H92 0.961 . S
H90 C89 0.959 . S
H91 C89 0.960 . S
H92 C89 0.961 . S
O93 Co68 1.967 . S
O93 C101 1.258 . S
O94 Co69 1.941 . S
O94 C101 1.266 . S
H95 C97 0.959 . S
H96 C97 0.961 . S
C97 C87 1.510 . S
C97 H95 0.959 . S
C97 H96 0.961 . S
C97 H98 0.960 . S
H98 C97 0.960 . S
H99 N79 0.862 . S
O100 Co68 1.920 . S
O100 C73 1.289 . S
C101 O93 1.258 . S
C101 O94 1.266 . S
Co102 O105 1.970 1_545 S
Co102 N119 1.989 . S
Co102 O127 1.967 . S
Co102 O134 1.920 . S
Co103 O106 1.966 1_545 S
Co103 N112 2.022 . S
Co103 N120 1.993 . S
Co103 O128 1.941 . S
C104 O105 1.258 . S
C104 O106 1.263 . S
O105 Co102 1.970 1_565 S
O105 C104 1.258 . S
O106 Co103 1.966 1_565 S
O106 C104 1.263 . S
C107 O108 1.235 1_545 S
C107 O134 1.289 . S
O108 C107 1.235 1_565 S
C109 C111 1.400 . S
C109 N112 1.351 . S
C109 C114 1.501 1_545 S
C110 C111 1.387 . S
C110 N113 1.341 . S
C111 C109 1.400 . S
C111 C110 1.387 . S
N112 Co103 2.022 . S
N112 C109 1.351 . S
N112 N113 1.365 . S
N113 C110 1.341 . S
N113 N112 1.365 . S
N113 H133 0.862 . S
C114 C109 1.501 1_565 S
C114 H115 0.961 . S
C114 H116 0.961 . S
C114 H117 0.960 . S
H115 C114 0.961 . S
H116 C114 0.961 . S
H117 C114 0.960 . S
C118 N119 1.342 . S
C118 C122 1.401 . S
C118 C123 1.499 . S
N119 Co102 1.989 . S
N119 C118 1.342 . S
N119 N120 1.388 . S
N120 Co103 1.993 . S
N120 N119 1.388 . S
N120 C121 1.346 . S
C121 N120 1.346 . S
C121 C122 1.396 . S
C121 C131 1.510 . S
C122 C118 1.401 . S
C122 C121 1.396 . S
C123 C118 1.499 . S
C123 H124 0.959 . S
C123 H125 0.960 . S
C123 H126 0.961 . S
H124 C123 0.959 . S
H125 C123 0.960 . S
H126 C123 0.961 . S
O127 Co102 1.967 . S
O127 C135 1.258 . S
O128 Co103 1.941 . S
O128 C135 1.266 . S
H129 C131 0.959 . S
H130 C131 0.961 . S
C131 C121 1.510 . S
C131 H129 0.959 . S
C131 H130 0.961 . S
C131 H132 0.960 . S
H132 C131 0.960 . S
H133 N113 0.862 . S
O134 Co102 1.920 . S
O134 C107 1.289 . S
C135 O127 1.258 . S
C135 O128 1.266 . S
Co136 O139 1.970 . S
Co136 N153 1.989 . S
Co136 O161 1.967 . S
Co136 O168 1.920 . S
Co137 O140 1.966 . S
Co137 N146 2.022 . S
Co137 N154 1.993 . S
Co137 O162 1.941 . S
C138 O139 1.258 . S
C138 O140 1.263 . S
O139 Co136 1.970 . S
O139 C138 1.258 . S
O140 Co137 1.966 . S
O140 C138 1.263 . S
C141 O142 1.235 . S
C141 O168 1.289 . S
O142 C141 1.235 . S
C143 C145 1.400 . S
C143 N146 1.351 1_554 S
C143 C148 1.501 . S
C144 C145 1.387 . S
C144 N147 1.341 . S
C145 C143 1.400 . S
C145 C144 1.387 . S
N146 Co137 2.022 . S
N146 C143 1.351 1_556 S
N146 N147 1.365 1_556 S
N147 C144 1.341 . S
N147 N146 1.365 1_554 S
N147 H167 0.862 . S
C148 C143 1.501 . S
C148 H149 0.961 1_554 S
C148 H150 0.961 . S
C148 H151 0.960 . S
H149 C148 0.961 1_556 S
H150 C148 0.961 . S
H151 C148 0.960 . S
C152 N153 1.342 . S
C152 C156 1.401 . S
C152 C157 1.499 . S
N153 Co136 1.989 . S
N153 C152 1.342 . S
N153 N154 1.388 . S
N154 Co137 1.993 . S
N154 N153 1.388 . S
N154 C155 1.346 . S
C155 N154 1.346 . S
C155 C156 1.396 . S
C155 C165 1.510 . S
C156 C152 1.401 . S
C156 C155 1.396 . S
C157 C152 1.499 . S
C157 H158 0.959 . S
C157 H159 0.960 . S
C157 H160 0.961 . S
H158 C157 0.959 . S
H159 C157 0.960 . S
H160 C157 0.961 . S
O161 Co136 1.967 . S
O161 C169 1.258 . S
O162 Co137 1.941 . S
O162 C169 1.266 . S
H163 C165 0.952 1_554 S
H164 C165 0.951 1_554 S
C165 C155 1.510 . S
C165 H163 0.952 1_556 S
C165 H164 0.951 1_556 S
C165 H166 0.957 1_556 S
H166 C165 0.957 1_554 S
H167 N147 0.862 . S
O168 Co136 1.920 . S
O168 C141 1.289 . S
C169 O161 1.258 . S
C169 O162 1.266 . S
Co170 O173 1.970 1_565 S
Co170 N187 1.989 . S
Co170 O195 1.967 . S
Co170 O202 1.920 . S
Co171 O174 1.966 1_565 S
Co171 N180 2.022 . S
Co171 N188 1.993 . S
Co171 O196 1.941 . S
C172 O173 1.258 . S
C172 O174 1.263 . S
O173 Co170 1.970 1_545 S
O173 C172 1.258 . S
O174 Co171 1.966 1_545 S
O174 C172 1.263 . S
C175 O176 1.235 1_565 S
C175 O202 1.289 . S
O176 C175 1.235 1_545 S
C177 C179 1.400 . S
C177 N180 1.351 . S
C177 C182 1.501 1_565 S
C178 C179 1.387 . S
C178 N181 1.341 . S
C179 C177 1.400 . S
C179 C178 1.387 . S
N180 Co171 2.022 . S
N180 C177 1.351 . S
N180 N181 1.365 . S
N181 C178 1.341 . S
N181 N180 1.365 . S
N181 H201 0.862 . S
C182 C177 1.501 1_545 S
C182 H183 0.961 . S
C182 H184 0.961 . S
C182 H185 0.960 . S
H183 C182 0.961 . S
H184 C182 0.961 . S
H185 C182 0.960 . S
C186 N187 1.342 . S
C186 C190 1.401 . S
C186 C191 1.499 . S
N187 Co170 1.989 . S
N187 C186 1.342 . S
N187 N188 1.388 . S
N188 Co171 1.993 . S
N188 N187 1.388 . S
N188 C189 1.346 . S
C189 N188 1.346 . S
C189 C190 1.396 . S
C189 C199 1.510 . S
C190 C186 1.401 . S
C190 C189 1.396 . S
C191 C186 1.499 . S
C191 H192 0.959 . S
C191 H193 0.960 . S
C191 H194 0.961 . S
H192 C191 0.959 . S
H193 C191 0.960 . S
H194 C191 0.961 . S
O195 Co170 1.967 . S
O195 C203 1.258 . S
O196 Co171 1.941 . S
O196 C203 1.266 . S
H197 C199 0.959 . S
H198 C199 0.961 . S
C199 C189 1.510 . S
C199 H197 0.959 . S
C199 H198 0.961 . S
C199 H200 0.960 . S
H200 C199 0.960 . S
H201 N181 0.862 . S
O202 Co170 1.920 . S
O202 C175 1.289 . S
C203 O195 1.258 . S
C203 O196 1.266 . S
Co204 O207 1.970 . S
Co204 N221 1.989 . S
Co204 O229 1.967 . S
Co204 O236 1.920 . S
Co205 O208 1.966 . S
Co205 N214 2.022 . S
Co205 N222 1.993 . S
Co205 O230 1.941 . S
C206 O207 1.258 . S
C206 O208 1.263 . S
O207 Co204 1.970 . S
O207 C206 1.258 . S
O208 Co205 1.966 . S
O208 C206 1.263 . S
C209 O210 1.235 . S
C209 O236 1.289 . S
O210 C209 1.235 . S
C211 C213 1.400 . S
C211 N214 1.351 . S
C211 C216 1.501 . S
C212 C213 1.387 . S
C212 N215 1.341 . S
C213 C211 1.400 . S
C213 C212 1.387 . S
N214 Co205 2.022 . S
N214 C211 1.351 . S
N214 N215 1.365 . S
N215 C212 1.341 . S
N215 N214 1.365 . S
N215 H235 0.862 . S
C216 C211 1.501 . S
C216 H217 0.961 . S
C216 H218 0.961 . S
C216 H219 0.960 . S
H217 C216 0.961 . S
H218 C216 0.961 . S
H219 C216 0.960 . S
C220 N221 1.342 . S
C220 C224 1.401 . S
C220 C225 1.499 . S
N221 Co204 1.989 . S
N221 C220 1.342 . S
N221 N222 1.388 . S
N222 Co205 1.993 . S
N222 N221 1.388 . S
N222 C223 1.346 . S
C223 N222 1.346 . S
C223 C224 1.396 . S
C223 C233 1.510 . S
C224 C220 1.401 . S
C224 C223 1.396 . S
C225 C220 1.499 . S
C225 H226 0.959 . S
C225 H227 0.960 . S
C225 H228 0.961 . S
H226 C225 0.959 . S
H227 C225 0.960 . S
H228 C225 0.961 . S
O229 Co204 1.967 . S
O229 C237 1.258 . S
O230 Co205 1.941 . S
O230 C237 1.266 . S
H231 C233 0.959 . S
H232 C233 0.961 . S
C233 C223 1.510 . S
C233 H231 0.959 . S
C233 H232 0.961 . S
C233 H234 0.960 . S
H234 C233 0.960 . S
H235 N215 0.862 . S
O236 Co204 1.920 . S
O236 C209 1.289 . S
C237 O229 1.258 . S
C237 O230 1.266 . S
Co238 O241 1.970 1_545 S
Co238 N255 1.989 . S
Co238 O263 1.967 . S
Co238 O270 1.920 . S
Co239 O242 1.966 1_545 S
Co239 N248 2.022 . S
Co239 N256 1.993 . S
Co239 O264 1.941 . S
C240 O241 1.258 . S
C240 O242 1.263 . S
O241 Co238 1.970 1_565 S
O241 C240 1.258 . S
O242 Co239 1.966 1_565 S
O242 C240 1.263 . S
C243 O244 1.235 1_545 S
C243 O270 1.289 . S
O244 C243 1.235 1_565 S
C245 C247 1.400 . S
C245 N248 1.351 . S
C245 C250 1.501 1_545 S
C246 C247 1.387 . S
C246 N249 1.341 . S
C247 C245 1.400 . S
C247 C246 1.387 . S
N248 Co239 2.022 . S
N248 C245 1.351 . S
N248 N249 1.365 . S
N249 C246 1.341 . S
N249 N248 1.365 . S
N249 H269 0.862 . S
C250 C245 1.501 1_565 S
C250 H251 0.961 . S
C250 H252 0.961 . S
C250 H253 0.960 . S
H251 C250 0.961 . S
H252 C250 0.961 . S
H253 C250 0.960 . S
C254 N255 1.342 . S
C254 C258 1.401 . S
C254 C259 1.499 . S
N255 Co238 1.989 . S
N255 C254 1.342 . S
N255 N256 1.388 . S
N256 Co239 1.993 . S
N256 N255 1.388 . S
N256 C257 1.346 . S
C257 N256 1.346 . S
C257 C258 1.396 . S
C257 C267 1.510 . S
C258 C254 1.401 . S
C258 C257 1.396 . S
C259 C254 1.499 . S
C259 H260 0.959 . S
C259 H261 0.960 . S
C259 H262 0.961 . S
H260 C259 0.959 . S
H261 C259 0.960 . S
H262 C259 0.961 . S
O263 Co238 1.967 . S
O263 C271 1.258 . S
O264 Co239 1.941 . S
O264 C271 1.266 . S
H265 C267 0.959 . S
H266 C267 0.961 . S
C267 C257 1.510 . S
C267 H265 0.959 . S
C267 H266 0.961 . S
C267 H268 0.960 . S
H268 C267 0.960 . S
H269 N249 0.862 . S
O270 Co238 1.920 . S
O270 C243 1.289 . S
C271 O263 1.258 . S
C271 O264 1.266 . S
Co272 O275 1.970 . S
Co272 N289 1.989 . S
Co272 O297 1.967 . S
Co272 O304 1.920 . S
Co273 O276 1.966 . S
Co273 N282 2.022 . S
Co273 N290 1.993 . S
Co273 O298 1.941 . S
C274 O275 1.258 . S
C274 O276 1.263 . S
O275 Co272 1.970 . S
O275 C274 1.258 . S
O276 Co273 1.966 . S
O276 C274 1.263 . S
C277 O278 1.235 . S
C277 O304 1.289 . S
O278 C277 1.235 . S
C279 C281 1.400 . S
C279 N282 1.351 1_554 S
C279 C284 1.501 . S
C280 C281 1.387 . S
C280 N283 1.341 . S
C281 C279 1.400 . S
C281 C280 1.387 . S
N282 Co273 2.022 . S
N282 C279 1.351 1_556 S
N282 N283 1.365 1_556 S
N283 C280 1.341 . S
N283 N282 1.365 1_554 S
N283 H303 0.862 . S
C284 C279 1.501 . S
C284 H285 0.961 1_554 S
C284 H286 0.961 . S
C284 H287 0.960 . S
H285 C284 0.961 1_556 S
H286 C284 0.961 . S
H287 C284 0.960 . S
C288 N289 1.342 . S
C288 C292 1.401 . S
C288 C293 1.499 . S
N289 Co272 1.989 . S
N289 C288 1.342 . S
N289 N290 1.388 . S
N290 Co273 1.993 . S
N290 N289 1.388 . S
N290 C291 1.346 . S
C291 N290 1.346 . S
C291 C292 1.396 . S
C291 C301 1.510 . S
C292 C288 1.401 . S
C292 C291 1.396 . S
C293 C288 1.499 . S
C293 H294 0.959 . S
C293 H295 0.960 . S
C293 H296 0.961 . S
H294 C293 0.959 . S
H295 C293 0.960 . S
H296 C293 0.961 . S
O297 Co272 1.967 . S
O297 C305 1.258 . S
O298 Co273 1.941 . S
O298 C305 1.266 . S
H299 C301 0.952 1_554 S
H300 C301 0.951 1_554 S
C301 C291 1.510 . S
C301 H299 0.952 1_556 S
C301 H300 0.951 1_556 S
C301 H302 0.957 1_556 S
H302 C301 0.957 1_554 S
H303 N283 0.862 . S
O304 Co272 1.920 . S
O304 C277 1.289 . S
C305 O297 1.258 . S
C305 O298 1.266 . S
Co306 O309 1.970 1_545 S
Co306 N323 1.989 . S
Co306 O331 1.967 . S
Co306 O338 1.920 . S
Co307 O310 1.966 1_545 S
Co307 N316 2.022 . S
Co307 N324 1.993 . S
Co307 O332 1.941 . S
C308 O309 1.258 . S
C308 O310 1.263 . S
O309 Co306 1.970 1_565 S
O309 C308 1.258 . S
O310 Co307 1.966 1_565 S
O310 C308 1.263 . S
C311 O312 1.235 1_545 S
C311 O338 1.289 . S
O312 C311 1.235 1_565 S
C313 C315 1.400 . S
C313 N316 1.351 . S
C313 C318 1.501 1_545 S
C314 C315 1.387 . S
C314 N317 1.341 . S
C315 C313 1.400 . S
C315 C314 1.387 . S
N316 Co307 2.022 . S
N316 C313 1.351 . S
N316 N317 1.365 . S
N317 C314 1.341 . S
N317 N316 1.365 . S
N317 H337 0.862 . S
C318 C313 1.501 1_565 S
C318 H319 0.961 . S
C318 H320 0.961 . S
C318 H321 0.960 . S
H319 C318 0.961 . S
H320 C318 0.961 . S
H321 C318 0.960 . S
C322 N323 1.342 . S
C322 C326 1.401 . S
C322 C327 1.499 . S
N323 Co306 1.989 . S
N323 C322 1.342 . S
N323 N324 1.388 . S
N324 Co307 1.993 . S
N324 N323 1.388 . S
N324 C325 1.346 . S
C325 N324 1.346 . S
C325 C326 1.396 . S
C325 C335 1.510 . S
C326 C322 1.401 . S
C326 C325 1.396 . S
C327 C322 1.499 . S
C327 H328 0.959 . S
C327 H329 0.960 . S
C327 H330 0.961 . S
H328 C327 0.959 . S
H329 C327 0.960 . S
H330 C327 0.961 . S
O331 Co306 1.967 . S
O331 C339 1.258 . S
O332 Co307 1.941 . S
O332 C339 1.266 . S
H333 C335 0.959 . S
H334 C335 0.961 . S
C335 C325 1.510 . S
C335 H333 0.959 . S
C335 H334 0.961 . S
C335 H336 0.960 . S
H336 C335 0.960 . S
H337 N317 0.862 . S
O338 Co306 1.920 . S
O338 C311 1.289 . S
C339 O331 1.258 . S
C339 O332 1.266 . S
Co340 O343 1.970 . S
Co340 N357 1.989 . S
Co340 O365 1.967 . S
Co340 O372 1.920 . S
Co341 O344 1.966 . S
Co341 N350 2.022 . S
Co341 N358 1.993 . S
Co341 O366 1.941 . S
C342 O343 1.258 . S
C342 O344 1.263 . S
O343 Co340 1.970 . S
O343 C342 1.258 . S
O344 Co341 1.966 . S
O344 C342 1.263 . S
C345 O346 1.235 . S
C345 O372 1.289 . S
O346 C345 1.235 . S
C347 C349 1.400 . S
C347 N350 1.351 . S
C347 C352 1.501 . S
C348 C349 1.387 . S
C348 N351 1.341 . S
C349 C347 1.400 . S
C349 C348 1.387 . S
N350 Co341 2.022 . S
N350 C347 1.351 . S
N350 N351 1.365 . S
N351 C348 1.341 . S
N351 N350 1.365 . S
N351 H371 0.862 . S
C352 C347 1.501 . S
C352 H353 0.961 . S
C352 H354 0.961 . S
C352 H355 0.960 . S
H353 C352 0.961 . S
H354 C352 0.961 . S
H355 C352 0.960 . S
C356 N357 1.342 . S
C356 C360 1.401 . S
C356 C361 1.499 . S
N357 Co340 1.989 . S
N357 C356 1.342 . S
N357 N358 1.388 . S
N358 Co341 1.993 . S
N358 N357 1.388 . S
N358 C359 1.346 . S
C359 N358 1.346 . S
C359 C360 1.396 . S
C359 C369 1.510 . S
C360 C356 1.401 . S
C360 C359 1.396 . S
C361 C356 1.499 . S
C361 H362 0.959 . S
C361 H363 0.960 . S
C361 H364 0.961 . S
H362 C361 0.959 . S
H363 C361 0.960 . S
H364 C361 0.961 . S
O365 Co340 1.967 . S
O365 C373 1.258 . S
O366 Co341 1.941 . S
O366 C373 1.266 . S
H367 C369 0.959 . S
H368 C369 0.961 . S
C369 C359 1.510 . S
C369 H367 0.959 . S
C369 H368 0.961 . S
C369 H370 0.960 . S
H370 C369 0.960 . S
H371 N351 0.862 . S
O372 Co340 1.920 . S
O372 C345 1.289 . S
C373 O365 1.258 . S
C373 O366 1.266 . S
Co374 O377 1.970 1_565 S
Co374 N391 1.989 . S
Co374 O399 1.967 . S
Co374 O406 1.920 . S
Co375 O378 1.966 1_565 S
Co375 N384 2.022 . S
Co375 N392 1.993 . S
Co375 O400 1.941 . S
C376 O377 1.258 . S
C376 O378 1.263 . S
O377 Co374 1.970 1_545 S
O377 C376 1.258 . S
O378 Co375 1.966 1_545 S
O378 C376 1.263 . S
C379 O380 1.235 1_565 S
C379 O406 1.289 . S
O380 C379 1.235 1_545 S
C381 C383 1.400 . S
C381 N384 1.351 . S
C381 C386 1.501 1_565 S
C382 C383 1.387 . S
C382 N385 1.341 . S
C383 C381 1.400 . S
C383 C382 1.387 . S
N384 Co375 2.022 . S
N384 C381 1.351 . S
N384 N385 1.365 . S
N385 C382 1.341 . S
N385 N384 1.365 . S
N385 H405 0.862 . S
C386 C381 1.501 1_545 S
C386 H387 0.961 . S
C386 H388 0.961 . S
C386 H389 0.960 . S
H387 C386 0.961 . S
H388 C386 0.961 . S
H389 C386 0.960 . S
C390 N391 1.342 . S
C390 C394 1.401 . S
C390 C395 1.499 . S
N391 Co374 1.989 . S
N391 C390 1.342 . S
N391 N392 1.388 . S
N392 Co375 1.993 . S
N392 N391 1.388 . S
N392 C393 1.346 . S
C393 N392 1.346 . S
C393 C394 1.396 . S
C393 C403 1.510 . S
C394 C390 1.401 . S
C394 C393 1.396 . S
C395 C390 1.499 . S
C395 H396 0.959 . S
C395 H397 0.960 . S
C395 H398 0.961 . S
H396 C395 0.959 . S
H397 C395 0.960 . S
H398 C395 0.961 . S
O399 Co374 1.967 . S
O399 C407 1.258 . S
O400 Co375 1.941 . S
O400 C407 1.266 . S
H401 C403 0.959 . S
H402 C403 0.961 . S
C403 C393 1.510 . S
C403 H401 0.959 . S
C403 H402 0.961 . S
C403 H404 0.960 . S
H404 C403 0.960 . S
H405 N385 0.862 . S
O406 Co374 1.920 . S
O406 C379 1.289 . S
C407 O399 1.258 . S
C407 O400 1.266 . S
Co408 O411 1.970 . S
Co408 N425 1.989 . S
Co408 O433 1.967 . S
Co408 O440 1.920 . S
Co409 O412 1.966 . S
Co409 N418 2.022 . S
Co409 N426 1.993 . S
Co409 O434 1.941 . S
C410 O411 1.258 . S
C410 O412 1.263 . S
O411 Co408 1.970 . S
O411 C410 1.258 . S
O412 Co409 1.966 . S
O412 C410 1.263 . S
C413 O414 1.235 . S
C413 O440 1.289 . S
O414 C413 1.235 . S
C415 C417 1.400 . S
C415 N418 1.351 1_556 S
C415 C420 1.501 . S
C416 C417 1.387 . S
C416 N419 1.341 . S
C417 C415 1.400 . S
C417 C416 1.387 . S
N418 Co409 2.022 . S
N418 C415 1.351 1_554 S
N418 N419 1.365 1_554 S
N419 C416 1.341 . S
N419 N418 1.365 1_556 S
N419 H439 0.862 . S
C420 C415 1.501 . S
C420 H421 0.961 1_556 S
C420 H422 0.961 . S
C420 H423 0.960 . S
H421 C420 0.961 1_554 S
H422 C420 0.961 . S
H423 C420 0.960 . S
C424 N425 1.342 . S
C424 C428 1.401 . S
C424 C429 1.499 . S
N425 Co408 1.989 . S
N425 C424 1.342 . S
N425 N426 1.388 . S
N426 Co409 1.993 . S
N426 N425 1.388 . S
N426 C427 1.346 . S
C427 N426 1.346 . S
C427 C428 1.396 . S
C427 C437 1.510 . S
C428 C424 1.401 . S
C428 C427 1.396 . S
C429 C424 1.499 . S
C429 H430 0.959 . S
C429 H431 0.960 . S
C429 H432 0.961 . S
H430 C429 0.959 . S
H431 C429 0.960 . S
H432 C429 0.961 . S
O433 Co408 1.967 . S
O433 C441 1.258 . S
O434 Co409 1.941 . S
O434 C441 1.266 . S
H435 C437 0.952 1_556 S
H436 C437 0.951 1_556 S
C437 C427 1.510 . S
C437 H435 0.952 1_554 S
C437 H436 0.951 1_554 S
C437 H438 0.957 1_554 S
H438 C437 0.957 1_556 S
H439 N419 0.862 . S
O440 Co408 1.920 . S
O440 C413 1.289 . S
C441 O433 1.258 . S
C441 O434 1.266 . S
Co442 O445 1.970 1_545 S
Co442 N459 1.989 . S
Co442 O467 1.967 . S
Co442 O474 1.920 . S
Co443 O446 1.966 1_545 S
Co443 N452 2.022 . S
Co443 N460 1.993 . S
Co443 O468 1.941 . S
C444 O445 1.258 . S
C444 O446 1.263 . S
O445 Co442 1.970 1_565 S
O445 C444 1.258 . S
O446 Co443 1.966 1_565 S
O446 C444 1.263 . S
C447 O448 1.235 1_545 S
C447 O474 1.289 . S
O448 C447 1.235 1_565 S
C449 C451 1.400 . S
C449 N452 1.351 . S
C449 C454 1.501 1_545 S
C450 C451 1.387 . S
C450 N453 1.341 . S
C451 C449 1.400 . S
C451 C450 1.387 . S
N452 Co443 2.022 . S
N452 C449 1.351 . S
N452 N453 1.365 . S
N453 C450 1.341 . S
N453 N452 1.365 . S
N453 H473 0.862 . S
C454 C449 1.501 1_565 S
C454 H455 0.961 . S
C454 H456 0.961 . S
C454 H457 0.960 . S
H455 C454 0.961 . S
H456 C454 0.961 . S
H457 C454 0.960 . S
C458 N459 1.342 . S
C458 C462 1.401 . S
C458 C463 1.499 . S
N459 Co442 1.989 . S
N459 C458 1.342 . S
N459 N460 1.388 . S
N460 Co443 1.993 . S
N460 N459 1.388 . S
N460 C461 1.346 . S
C461 N460 1.346 . S
C461 C462 1.396 . S
C461 C471 1.510 . S
C462 C458 1.401 . S
C462 C461 1.396 . S
C463 C458 1.499 . S
C463 H464 0.959 . S
C463 H465 0.960 . S
C463 H466 0.961 . S
H464 C463 0.959 . S
H465 C463 0.960 . S
H466 C463 0.961 . S
O467 Co442 1.967 . S
O467 C475 1.258 . S
O468 Co443 1.941 . S
O468 C475 1.266 . S
H469 C471 0.959 . S
H470 C471 0.961 . S
C471 C461 1.510 . S
C471 H469 0.959 . S
C471 H470 0.961 . S
C471 H472 0.960 . S
H472 C471 0.960 . S
H473 N453 0.862 . S
O474 Co442 1.920 . S
O474 C447 1.289 . S
C475 O467 1.258 . S
C475 O468 1.266 . S
Co476 O479 1.970 . S
Co476 N493 1.989 . S
Co476 O501 1.967 . S
Co476 O508 1.920 . S
Co477 O480 1.966 . S
Co477 N486 2.022 . S
Co477 N494 1.993 . S
Co477 O502 1.941 . S
C478 O479 1.258 . S
C478 O480 1.263 . S
O479 Co476 1.970 . S
O479 C478 1.258 . S
O480 Co477 1.966 . S
O480 C478 1.263 . S
C481 O482 1.235 . S
C481 O508 1.289 . S
O482 C481 1.235 . S
C483 C485 1.400 . S
C483 N486 1.351 . S
C483 C488 1.501 . S
C484 C485 1.387 . S
C484 N487 1.341 . S
C485 C483 1.400 . S
C485 C484 1.387 . S
N486 Co477 2.022 . S
N486 C483 1.351 . S
N486 N487 1.365 . S
N487 C484 1.341 . S
N487 N486 1.365 . S
N487 H507 0.862 . S
C488 C483 1.501 . S
C488 H489 0.961 . S
C488 H490 0.961 . S
C488 H491 0.960 . S
H489 C488 0.961 . S
H490 C488 0.961 . S
H491 C488 0.960 . S
C492 N493 1.342 . S
C492 C496 1.401 . S
C492 C497 1.499 . S
N493 Co476 1.989 . S
N493 C492 1.342 . S
N493 N494 1.388 . S
N494 Co477 1.993 . S
N494 N493 1.388 . S
N494 C495 1.346 . S
C495 N494 1.346 . S
C495 C496 1.396 . S
C495 C505 1.510 . S
C496 C492 1.401 . S
C496 C495 1.396 . S
C497 C492 1.499 . S
C497 H498 0.959 . S
C497 H499 0.960 . S
C497 H500 0.961 . S
H498 C497 0.959 . S
H499 C497 0.960 . S
H500 C497 0.961 . S
O501 Co476 1.967 . S
O501 C509 1.258 . S
O502 Co477 1.941 . S
O502 C509 1.266 . S
H503 C505 0.959 . S
H504 C505 0.961 . S
C505 C495 1.510 . S
C505 H503 0.959 . S
C505 H504 0.961 . S
C505 H506 0.960 . S
H506 C505 0.960 . S
H507 N487 0.862 . S
O508 Co476 1.920 . S
O508 C481 1.289 . S
C509 O501 1.258 . S
C509 O502 1.266 . S
Co510 O513 1.970 1_565 S
Co510 N527 1.989 . S
Co510 O535 1.967 . S
Co510 O542 1.920 . S
Co511 O514 1.966 1_565 S
Co511 N520 2.022 . S
Co511 N528 1.993 . S
Co511 O536 1.941 . S
C512 O513 1.258 . S
C512 O514 1.263 . S
O513 Co510 1.970 1_545 S
O513 C512 1.258 . S
O514 Co511 1.966 1_545 S
O514 C512 1.263 . S
C515 O516 1.235 1_565 S
C515 O542 1.289 . S
O516 C515 1.235 1_545 S
C517 C519 1.400 . S
C517 N520 1.351 . S
C517 C522 1.501 1_565 S
C518 C519 1.387 . S
C518 N521 1.341 . S
C519 C517 1.400 . S
C519 C518 1.387 . S
N520 Co511 2.022 . S
N520 C517 1.351 . S
N520 N521 1.365 . S
N521 C518 1.341 . S
N521 N520 1.365 . S
N521 H541 0.862 . S
C522 C517 1.501 1_545 S
C522 H523 0.961 . S
C522 H524 0.961 . S
C522 H525 0.960 . S
H523 C522 0.961 . S
H524 C522 0.961 . S
H525 C522 0.960 . S
C526 N527 1.342 . S
C526 C530 1.401 . S
C526 C531 1.499 . S
N527 Co510 1.989 . S
N527 C526 1.342 . S
N527 N528 1.388 . S
N528 Co511 1.993 . S
N528 N527 1.388 . S
N528 C529 1.346 . S
C529 N528 1.346 . S
C529 C530 1.396 . S
C529 C539 1.510 . S
C530 C526 1.401 . S
C530 C529 1.396 . S
C531 C526 1.499 . S
C531 H532 0.959 . S
C531 H533 0.960 . S
C531 H534 0.961 . S
H532 C531 0.959 . S
H533 C531 0.960 . S
H534 C531 0.961 . S
O535 Co510 1.967 . S
O535 C543 1.258 . S
O536 Co511 1.941 . S
O536 C543 1.266 . S
H537 C539 0.959 . S
H538 C539 0.961 . S
C539 C529 1.510 . S
C539 H537 0.959 . S
C539 H538 0.961 . S
C539 H540 0.960 . S
H540 C539 0.960 . S
H541 N521 0.862 . S
O542 Co510 1.920 . S
O542 C515 1.289 . S
C543 O535 1.258 . S
C543 O536 1.266 . S
Co544 O547 1.970 . S
Co544 N561 1.989 . S
Co544 O569 1.967 . S
Co544 O576 1.920 . S
Co545 O548 1.966 . S
Co545 N554 2.022 . S
Co545 N562 1.993 . S
Co545 O570 1.941 . S
C546 O547 1.258 . S
C546 O548 1.263 . S
O547 Co544 1.970 . S
O547 C546 1.258 . S
O548 Co545 1.966 . S
O548 C546 1.263 . S
C549 O550 1.235 . S
C549 O576 1.289 . S
O550 C549 1.235 . S
C551 C553 1.400 . S
C551 N554 1.351 . S
C551 C556 1.501 . S
C552 C553 1.387 . S
C552 N555 1.341 . S
C553 C551 1.400 . S
C553 C552 1.387 . S
N554 Co545 2.022 . S
N554 C551 1.351 . S
N554 N555 1.365 . S
N555 C552 1.341 . S
N555 N554 1.365 . S
N555 H575 0.862 . S
C556 C551 1.501 . S
C556 H557 0.961 . S
C556 H558 0.961 . S
C556 H559 0.960 . S
H557 C556 0.961 . S
H558 C556 0.961 . S
H559 C556 0.960 . S
C560 N561 1.342 . S
C560 C564 1.401 . S
C560 C565 1.499 . S
N561 Co544 1.989 . S
N561 C560 1.342 . S
N561 N562 1.388 . S
N562 Co545 1.993 . S
N562 N561 1.388 . S
N562 C563 1.346 . S
C563 N562 1.346 . S
C563 C564 1.396 . S
C563 C573 1.510 . S
C564 C560 1.401 . S
C564 C563 1.396 . S
C565 C560 1.499 . S
C565 H566 0.959 . S
C565 H567 0.960 . S
C565 H568 0.961 . S
H566 C565 0.959 . S
H567 C565 0.960 . S
H568 C565 0.961 . S
O569 Co544 1.967 . S
O569 C577 1.258 . S
O570 Co545 1.941 . S
O570 C577 1.266 . S
H571 C573 0.959 . S
H572 C573 0.961 . S
C573 C563 1.510 . S
C573 H571 0.959 . S
C573 H572 0.961 . S
C573 H574 0.960 . S
H574 C573 0.960 . S
H575 N555 0.862 . S
O576 Co544 1.920 . S
O576 C549 1.289 . S
C577 O569 1.258 . S
C577 O570 1.266 . S
Co578 O581 1.970 . S
Co578 N595 1.989 . S
Co578 O603 1.967 . S
Co578 O610 1.920 . S
Co579 O582 1.966 . S
Co579 N588 2.022 . S
Co579 N596 1.993 . S
Co579 O604 1.941 . S
C580 O581 1.258 . S
C580 O582 1.263 . S
O581 Co578 1.970 . S
O581 C580 1.258 . S
O582 Co579 1.966 . S
O582 C580 1.263 . S
C583 O584 1.235 . S
C583 O610 1.289 . S
O584 C583 1.235 . S
C585 C587 1.400 . S
C585 N588 1.351 . S
C585 C590 1.501 . S
C586 C587 1.387 . S
C586 N589 1.341 . S
C587 C585 1.400 . S
C587 C586 1.387 . S
N588 Co579 2.022 . S
N588 C585 1.351 . S
N588 N589 1.365 . S
N589 C586 1.341 . S
N589 N588 1.365 . S
N589 H609 0.862 . S
C590 C585 1.501 . S
C590 H591 0.961 . S
C590 H592 0.961 . S
C590 H593 0.960 . S
H591 C590 0.961 . S
H592 C590 0.961 . S
H593 C590 0.960 . S
C594 N595 1.342 . S
C594 C598 1.401 . S
C594 C599 1.499 . S
N595 Co578 1.989 . S
N595 C594 1.342 . S
N595 N596 1.388 . S
N596 Co579 1.993 . S
N596 N595 1.388 . S
N596 C597 1.346 . S
C597 N596 1.346 . S
C597 C598 1.396 . S
C597 C607 1.510 . S
C598 C594 1.401 . S
C598 C597 1.396 . S
C599 C594 1.499 . S
C599 H600 0.959 . S
C599 H601 0.960 . S
C599 H602 0.961 . S
H600 C599 0.959 . S
H601 C599 0.960 . S
H602 C599 0.961 . S
O603 Co578 1.967 . S
O603 C611 1.258 . S
O604 Co579 1.941 . S
O604 C611 1.266 . S
H605 C607 0.959 . S
H606 C607 0.961 . S
C607 C597 1.510 . S
C607 H605 0.959 . S
C607 H606 0.961 . S
C607 H608 0.960 . S
H608 C607 0.960 . S
H609 N589 0.862 . S
O610 Co578 1.920 . S
O610 C583 1.289 . S
C611 O603 1.258 . S
C611 O604 1.266 . S
Co612 O615 1.970 . S
Co612 N629 1.989 . S
Co612 O637 1.967 . S
Co612 O644 1.920 . S
Co613 O616 1.966 . S
Co613 N622 2.022 . S
Co613 N630 1.993 . S
Co613 O638 1.941 . S
C614 O615 1.258 . S
C614 O616 1.263 . S
O615 Co612 1.970 . S
O615 C614 1.258 . S
O616 Co613 1.966 . S
O616 C614 1.263 . S
C617 O618 1.235 . S
C617 O644 1.289 . S
O618 C617 1.235 . S
C619 C621 1.400 . S
C619 N622 1.351 1_556 S
C619 C624 1.501 . S
C620 C621 1.387 . S
C620 N623 1.341 . S
C621 C619 1.400 . S
C621 C620 1.387 . S
N622 Co613 2.022 . S
N622 C619 1.351 1_554 S
N622 N623 1.365 1_554 S
N623 C620 1.341 . S
N623 N622 1.365 1_556 S
N623 H643 0.862 . S
C624 C619 1.501 . S
C624 H625 0.961 1_556 S
C624 H626 0.961 . S
C624 H627 0.960 . S
H625 C624 0.961 1_554 S
H626 C624 0.961 . S
H627 C624 0.960 . S
C628 N629 1.342 . S
C628 C632 1.401 . S
C628 C633 1.499 . S
N629 Co612 1.989 . S
N629 C628 1.342 . S
N629 N630 1.388 . S
N630 Co613 1.993 . S
N630 N629 1.388 . S
N630 C631 1.346 . S
C631 N630 1.346 . S
C631 C632 1.396 . S
C631 C641 1.510 . S
C632 C628 1.401 . S
C632 C631 1.396 . S
C633 C628 1.499 . S
C633 H634 0.959 . S
C633 H635 0.960 . S
C633 H636 0.961 . S
H634 C633 0.959 . S
H635 C633 0.960 . S
H636 C633 0.961 . S
O637 Co612 1.967 . S
O637 C645 1.258 . S
O638 Co613 1.941 . S
O638 C645 1.266 . S
H639 C641 0.952 1_556 S
H640 C641 0.951 1_556 S
C641 C631 1.510 . S
C641 H639 0.952 1_554 S
C641 H640 0.951 1_554 S
C641 H642 0.957 1_554 S
H642 C641 0.957 1_556 S
H643 N623 0.862 . S
O644 Co612 1.920 . S
O644 C617 1.289 . S
C645 O637 1.258 . S
C645 O638 1.266 . S
Co646 O649 1.970 . S
Co646 N663 1.989 . S
Co646 O671 1.967 . S
Co646 O678 1.920 . S
Co647 O650 1.966 . S
Co647 N656 2.022 . S
Co647 N664 1.993 . S
Co647 O672 1.941 . S
C648 O649 1.258 . S
C648 O650 1.263 . S
O649 Co646 1.970 . S
O649 C648 1.258 . S
O650 Co647 1.966 . S
O650 C648 1.263 . S
C651 O652 1.235 . S
C651 O678 1.289 . S
O652 C651 1.235 . S
C653 C655 1.400 . S
C653 N656 1.351 . S
C653 C658 1.501 . S
C654 C655 1.387 . S
C654 N657 1.341 . S
C655 C653 1.400 . S
C655 C654 1.387 . S
N656 Co647 2.022 . S
N656 C653 1.351 . S
N656 N657 1.365 . S
N657 C654 1.341 . S
N657 N656 1.365 . S
N657 H677 0.862 . S
C658 C653 1.501 . S
C658 H659 0.961 . S
C658 H660 0.961 . S
C658 H661 0.960 . S
H659 C658 0.961 . S
H660 C658 0.961 . S
H661 C658 0.960 . S
C662 N663 1.342 . S
C662 C666 1.401 . S
C662 C667 1.499 . S
N663 Co646 1.989 . S
N663 C662 1.342 . S
N663 N664 1.388 . S
N664 Co647 1.993 . S
N664 N663 1.388 . S
N664 C665 1.346 . S
C665 N664 1.346 . S
C665 C666 1.396 . S
C665 C675 1.510 . S
C666 C662 1.401 . S
C666 C665 1.396 . S
C667 C662 1.499 . S
C667 H668 0.959 . S
C667 H669 0.960 . S
C667 H670 0.961 . S
H668 C667 0.959 . S
H669 C667 0.960 . S
H670 C667 0.961 . S
O671 Co646 1.967 . S
O671 C679 1.258 . S
O672 Co647 1.941 . S
O672 C679 1.266 . S
H673 C675 0.959 . S
H674 C675 0.961 . S
C675 C665 1.510 . S
C675 H673 0.959 . S
C675 H674 0.961 . S
C675 H676 0.960 . S
H676 C675 0.960 . S
H677 N657 0.862 . S
O678 Co646 1.920 . S
O678 C651 1.289 . S
C679 O671 1.258 . S
C679 O672 1.266 . S
Co680 O683 1.970 . S
Co680 N697 1.989 . S
Co680 O705 1.967 . S
Co680 O712 1.920 . S
Co681 O684 1.966 . S
Co681 N690 2.022 . S
Co681 N698 1.993 . S
Co681 O706 1.941 . S
C682 O683 1.258 . S
C682 O684 1.263 . S
O683 Co680 1.970 . S
O683 C682 1.258 . S
O684 Co681 1.966 . S
O684 C682 1.263 . S
C685 O686 1.235 . S
C685 O712 1.289 . S
O686 C685 1.235 . S
C687 C689 1.400 . S
C687 N690 1.351 . S
C687 C692 1.501 . S
C688 C689 1.387 . S
C688 N691 1.341 . S
C689 C687 1.400 . S
C689 C688 1.387 . S
N690 Co681 2.022 . S
N690 C687 1.351 . S
N690 N691 1.365 . S
N691 C688 1.341 . S
N691 N690 1.365 . S
N691 H711 0.862 . S
C692 C687 1.501 . S
C692 H693 0.961 . S
C692 H694 0.961 . S
C692 H695 0.960 . S
H693 C692 0.961 . S
H694 C692 0.961 . S
H695 C692 0.960 . S
C696 N697 1.342 . S
C696 C700 1.401 . S
C696 C701 1.499 . S
N697 Co680 1.989 . S
N697 C696 1.342 . S
N697 N698 1.388 . S
N698 Co681 1.993 . S
N698 N697 1.388 . S
N698 C699 1.346 . S
C699 N698 1.346 . S
C699 C700 1.396 . S
C699 C709 1.510 . S
C700 C696 1.401 . S
C700 C699 1.396 . S
C701 C696 1.499 . S
C701 H702 0.959 . S
C701 H703 0.960 . S
C701 H704 0.961 . S
H702 C701 0.959 . S
H703 C701 0.960 . S
H704 C701 0.961 . S
O705 Co680 1.967 . S
O705 C713 1.258 . S
O706 Co681 1.941 . S
O706 C713 1.266 . S
H707 C709 0.959 . S
H708 C709 0.961 . S
C709 C699 1.510 . S
C709 H707 0.959 . S
C709 H708 0.961 . S
C709 H710 0.960 . S
H710 C709 0.960 . S
H711 N691 0.862 . S
O712 Co680 1.920 . S
O712 C685 1.289 . S
C713 O705 1.258 . S
C713 O706 1.266 . S
Co714 O717 1.970 . S
Co714 N731 1.989 . S
Co714 O739 1.967 . S
Co714 O746 1.920 . S
Co715 O718 1.966 . S
Co715 N724 2.022 . S
Co715 N732 1.993 . S
Co715 O740 1.941 . S
C716 O717 1.258 . S
C716 O718 1.263 . S
O717 Co714 1.970 . S
O717 C716 1.258 . S
O718 Co715 1.966 . S
O718 C716 1.263 . S
C719 O720 1.235 . S
C719 O746 1.289 . S
O720 C719 1.235 . S
C721 C723 1.400 . S
C721 N724 1.351 . S
C721 C726 1.501 . S
C722 C723 1.387 . S
C722 N725 1.341 . S
C723 C721 1.400 . S
C723 C722 1.387 . S
N724 Co715 2.022 . S
N724 C721 1.351 . S
N724 N725 1.365 . S
N725 C722 1.341 . S
N725 N724 1.365 . S
N725 H745 0.862 . S
C726 C721 1.501 . S
C726 H727 0.961 . S
C726 H728 0.961 . S
C726 H729 0.960 . S
H727 C726 0.961 . S
H728 C726 0.961 . S
H729 C726 0.960 . S
C730 N731 1.342 . S
C730 C734 1.401 . S
C730 C735 1.499 . S
N731 Co714 1.989 . S
N731 C730 1.342 . S
N731 N732 1.388 . S
N732 Co715 1.993 . S
N732 N731 1.388 . S
N732 C733 1.346 . S
C733 N732 1.346 . S
C733 C734 1.396 . S
C733 C743 1.510 . S
C734 C730 1.401 . S
C734 C733 1.396 . S
C735 C730 1.499 . S
C735 H736 0.959 . S
C735 H737 0.960 . S
C735 H738 0.961 . S
H736 C735 0.959 . S
H737 C735 0.960 . S
H738 C735 0.961 . S
O739 Co714 1.967 . S
O739 C747 1.258 . S
O740 Co715 1.941 . S
O740 C747 1.266 . S
H741 C743 0.959 . S
H742 C743 0.961 . S
C743 C733 1.510 . S
C743 H741 0.959 . S
C743 H742 0.961 . S
C743 H744 0.960 . S
H744 C743 0.960 . S
H745 N725 0.862 . S
O746 Co714 1.920 . S
O746 C719 1.289 . S
C747 O739 1.258 . S
C747 O740 1.266 . S
Co748 O751 1.970 . S
Co748 N765 1.989 . S
Co748 O773 1.967 . S
Co748 O780 1.920 . S
Co749 O752 1.966 . S
Co749 N758 2.022 . S
Co749 N766 1.993 . S
Co749 O774 1.941 . S
C750 O751 1.258 . S
C750 O752 1.263 . S
O751 Co748 1.970 . S
O751 C750 1.258 . S
O752 Co749 1.966 . S
O752 C750 1.263 . S
C753 O754 1.235 . S
C753 O780 1.289 . S
O754 C753 1.235 . S
C755 C757 1.400 . S
C755 N758 1.351 1_554 S
C755 C760 1.501 . S
C756 C757 1.387 . S
C756 N759 1.341 . S
C757 C755 1.400 . S
C757 C756 1.387 . S
N758 Co749 2.022 . S
N758 C755 1.351 1_556 S
N758 N759 1.365 1_556 S
N759 C756 1.341 . S
N759 N758 1.365 1_554 S
N759 H779 0.862 . S
C760 C755 1.501 . S
C760 H761 0.961 1_554 S
C760 H762 0.961 . S
C760 H763 0.960 . S
H761 C760 0.961 1_556 S
H762 C760 0.961 . S
H763 C760 0.960 . S
C764 N765 1.342 . S
C764 C768 1.401 . S
C764 C769 1.499 . S
N765 Co748 1.989 . S
N765 C764 1.342 . S
N765 N766 1.388 . S
N766 Co749 1.993 . S
N766 N765 1.388 . S
N766 C767 1.346 . S
C767 N766 1.346 . S
C767 C768 1.396 . S
C767 C777 1.510 . S
C768 C764 1.401 . S
C768 C767 1.396 . S
C769 C764 1.499 . S
C769 H770 0.959 . S
C769 H771 0.960 . S
C769 H772 0.961 . S
H770 C769 0.959 . S
H771 C769 0.960 . S
H772 C769 0.961 . S
O773 Co748 1.967 . S
O773 C781 1.258 . S
O774 Co749 1.941 . S
O774 C781 1.266 . S
H775 C777 0.952 1_554 S
H776 C777 0.951 1_554 S
C777 C767 1.510 . S
C777 H775 0.952 1_556 S
C777 H776 0.951 1_556 S
C777 H778 0.957 1_556 S
H778 C777 0.957 1_554 S
H779 N759 0.862 . S
O780 Co748 1.920 . S
O780 C753 1.289 . S
C781 O773 1.258 . S
C781 O774 1.266 . S
Co782 O785 1.970 . S
Co782 N799 1.989 . S
Co782 O807 1.967 . S
Co782 O814 1.920 . S
Co783 O786 1.966 . S
Co783 N792 2.022 . S
Co783 N800 1.993 . S
Co783 O808 1.941 . S
C784 O785 1.258 . S
C784 O786 1.263 . S
O785 Co782 1.970 . S
O785 C784 1.258 . S
O786 Co783 1.966 . S
O786 C784 1.263 . S
C787 O788 1.235 . S
C787 O814 1.289 . S
O788 C787 1.235 . S
C789 C791 1.400 . S
C789 N792 1.351 . S
C789 C794 1.501 . S
C790 C791 1.387 . S
C790 N793 1.341 . S
C791 C789 1.400 . S
C791 C790 1.387 . S
N792 Co783 2.022 . S
N792 C789 1.351 . S
N792 N793 1.365 . S
N793 C790 1.341 . S
N793 N792 1.365 . S
N793 H813 0.862 . S
C794 C789 1.501 . S
C794 H795 0.961 . S
C794 H796 0.961 . S
C794 H797 0.960 . S
H795 C794 0.961 . S
H796 C794 0.961 . S
H797 C794 0.960 . S
C798 N799 1.342 . S
C798 C802 1.401 . S
C798 C803 1.499 . S
N799 Co782 1.989 . S
N799 C798 1.342 . S
N799 N800 1.388 . S
N800 Co783 1.993 . S
N800 N799 1.388 . S
N800 C801 1.346 . S
C801 N800 1.346 . S
C801 C802 1.396 . S
C801 C811 1.510 . S
C802 C798 1.401 . S
C802 C801 1.396 . S
C803 C798 1.499 . S
C803 H804 0.959 . S
C803 H805 0.960 . S
C803 H806 0.961 . S
H804 C803 0.959 . S
H805 C803 0.960 . S
H806 C803 0.961 . S
O807 Co782 1.967 . S
O807 C815 1.258 . S
O808 Co783 1.941 . S
O808 C815 1.266 . S
H809 C811 0.959 . S
H810 C811 0.961 . S
C811 C801 1.510 . S
C811 H809 0.959 . S
C811 H810 0.961 . S
C811 H812 0.960 . S
H812 C811 0.960 . S
H813 N793 0.862 . S
O814 Co782 1.920 . S
O814 C787 1.289 . S
C815 O807 1.258 . S
C815 O808 1.266 . S
Co816 O819 1.970 . S
Co816 N833 1.989 . S
Co816 O841 1.967 . S
Co816 O848 1.920 . S
Co817 O820 1.966 . S
Co817 N826 2.022 . S
Co817 N834 1.993 . S
Co817 O842 1.941 . S
C818 O819 1.258 . S
C818 O820 1.263 . S
O819 Co816 1.970 . S
O819 C818 1.258 . S
O820 Co817 1.966 . S
O820 C818 1.263 . S
C821 O822 1.235 . S
C821 O848 1.289 . S
O822 C821 1.235 . S
C823 C825 1.400 . S
C823 N826 1.351 . S
C823 C828 1.501 . S
C824 C825 1.387 . S
C824 N827 1.341 . S
C825 C823 1.400 . S
C825 C824 1.387 . S
N826 Co817 2.022 . S
N826 C823 1.351 . S
N826 N827 1.365 . S
N827 C824 1.341 . S
N827 N826 1.365 . S
N827 H847 0.862 . S
C828 C823 1.501 . S
C828 H829 0.961 . S
C828 H830 0.961 . S
C828 H831 0.960 . S
H829 C828 0.961 . S
H830 C828 0.961 . S
H831 C828 0.960 . S
C832 N833 1.342 . S
C832 C836 1.401 . S
C832 C837 1.499 . S
N833 Co816 1.989 . S
N833 C832 1.342 . S
N833 N834 1.388 . S
N834 Co817 1.993 . S
N834 N833 1.388 . S
N834 C835 1.346 . S
C835 N834 1.346 . S
C835 C836 1.396 . S
C835 C845 1.510 . S
C836 C832 1.401 . S
C836 C835 1.396 . S
C837 C832 1.499 . S
C837 H838 0.959 . S
C837 H839 0.960 . S
C837 H840 0.961 . S
H838 C837 0.959 . S
H839 C837 0.960 . S
H840 C837 0.961 . S
O841 Co816 1.967 . S
O841 C849 1.258 . S
O842 Co817 1.941 . S
O842 C849 1.266 . S
H843 C845 0.959 . S
H844 C845 0.961 . S
C845 C835 1.510 . S
C845 H843 0.959 . S
C845 H844 0.961 . S
C845 H846 0.960 . S
H846 C845 0.960 . S
H847 N827 0.862 . S
O848 Co816 1.920 . S
O848 C821 1.289 . S
C849 O841 1.258 . S
C849 O842 1.266 . S
Co850 O853 1.970 . S
Co850 N867 1.989 . S
Co850 O875 1.967 . S
Co850 O882 1.920 . S
Co851 O854 1.966 . S
Co851 N860 2.022 . S
Co851 N868 1.993 . S
Co851 O876 1.941 . S
C852 O853 1.258 . S
C852 O854 1.263 . S
O853 Co850 1.970 . S
O853 C852 1.258 . S
O854 Co851 1.966 . S
O854 C852 1.263 . S
C855 O856 1.235 . S
C855 O882 1.289 . S
O856 C855 1.235 . S
C857 C859 1.400 . S
C857 N860 1.351 . S
C857 C862 1.501 . S
C858 C859 1.387 . S
C858 N861 1.341 . S
C859 C857 1.400 . S
C859 C858 1.387 . S
N860 Co851 2.022 . S
N860 C857 1.351 . S
N860 N861 1.365 . S
N861 C858 1.341 . S
N861 N860 1.365 . S
N861 H881 0.862 . S
C862 C857 1.501 . S
C862 H863 0.961 . S
C862 H864 0.961 . S
C862 H865 0.960 . S
H863 C862 0.961 . S
H864 C862 0.961 . S
H865 C862 0.960 . S
C866 N867 1.342 . S
C866 C870 1.401 . S
C866 C871 1.499 . S
N867 Co850 1.989 . S
N867 C866 1.342 . S
N867 N868 1.388 . S
N868 Co851 1.993 . S
N868 N867 1.388 . S
N868 C869 1.346 . S
C869 N868 1.346 . S
C869 C870 1.396 . S
C869 C879 1.510 . S
C870 C866 1.401 . S
C870 C869 1.396 . S
C871 C866 1.499 . S
C871 H872 0.959 . S
C871 H873 0.960 . S
C871 H874 0.961 . S
H872 C871 0.959 . S
H873 C871 0.960 . S
H874 C871 0.961 . S
O875 Co850 1.967 . S
O875 C883 1.258 . S
O876 Co851 1.941 . S
O876 C883 1.266 . S
H877 C879 0.959 . S
H878 C879 0.961 . S
C879 C869 1.510 . S
C879 H877 0.959 . S
C879 H878 0.961 . S
C879 H880 0.960 . S
H880 C879 0.960 . S
H881 N861 0.862 . S
O882 Co850 1.920 . S
O882 C855 1.289 . S
C883 O875 1.258 . S
C883 O876 1.266 . S
Co884 O887 1.970 . S
Co884 N901 1.989 . S
Co884 O909 1.967 . S
Co884 O916 1.920 . S
Co885 O888 1.966 . S
Co885 N894 2.022 . S
Co885 N902 1.993 . S
Co885 O910 1.941 . S
C886 O887 1.258 . S
C886 O888 1.263 . S
O887 Co884 1.970 . S
O887 C886 1.258 . S
O888 Co885 1.966 . S
O888 C886 1.263 . S
C889 O890 1.235 . S
C889 O916 1.289 . S
O890 C889 1.235 . S
C891 C893 1.400 . S
C891 N894 1.351 1_554 S
C891 C896 1.501 . S
C892 C893 1.387 . S
C892 N895 1.341 . S
C893 C891 1.400 . S
C893 C892 1.387 . S
N894 Co885 2.022 . S
N894 C891 1.351 1_556 S
N894 N895 1.365 1_556 S
N895 C892 1.341 . S
N895 N894 1.365 1_554 S
N895 H915 0.862 . S
C896 C891 1.501 . S
C896 H897 0.961 1_554 S
C896 H898 0.961 . S
C896 H899 0.960 . S
H897 C896 0.961 1_556 S
H898 C896 0.961 . S
H899 C896 0.960 . S
C900 N901 1.342 . S
C900 C904 1.401 . S
C900 C905 1.499 . S
N901 Co884 1.989 . S
N901 C900 1.342 . S
N901 N902 1.388 . S
N902 Co885 1.993 . S
N902 N901 1.388 . S
N902 C903 1.346 . S
C903 N902 1.346 . S
C903 C904 1.396 . S
C903 C913 1.510 . S
C904 C900 1.401 . S
C904 C903 1.396 . S
C905 C900 1.499 . S
C905 H906 0.959 . S
C905 H907 0.960 . S
C905 H908 0.961 . S
H906 C905 0.959 . S
H907 C905 0.960 . S
H908 C905 0.961 . S
O909 Co884 1.967 . S
O909 C917 1.258 . S
O910 Co885 1.941 . S
O910 C917 1.266 . S
H911 C913 0.952 1_554 S
H912 C913 0.951 1_554 S
C913 C903 1.510 . S
C913 H911 0.952 1_556 S
C913 H912 0.951 1_556 S
C913 H914 0.957 1_556 S
H914 C913 0.957 1_554 S
H915 N895 0.862 . S
O916 Co884 1.920 . S
O916 C889 1.289 . S
C917 O909 1.258 . S
C917 O910 1.266 . S
Co918 O921 1.970 . S
Co918 N935 1.989 . S
Co918 O943 1.967 . S
Co918 O950 1.920 . S
Co919 O922 1.966 . S
Co919 N928 2.022 . S
Co919 N936 1.993 . S
Co919 O944 1.941 . S
C920 O921 1.258 . S
C920 O922 1.263 . S
O921 Co918 1.970 . S
O921 C920 1.258 . S
O922 Co919 1.966 . S
O922 C920 1.263 . S
C923 O924 1.235 . S
C923 O950 1.289 . S
O924 C923 1.235 . S
C925 C927 1.400 . S
C925 N928 1.351 . S
C925 C930 1.501 . S
C926 C927 1.387 . S
C926 N929 1.341 . S
C927 C925 1.400 . S
C927 C926 1.387 . S
N928 Co919 2.022 . S
N928 C925 1.351 . S
N928 N929 1.365 . S
N929 C926 1.341 . S
N929 N928 1.365 . S
N929 H949 0.862 . S
C930 C925 1.501 . S
C930 H931 0.961 . S
C930 H932 0.961 . S
C930 H933 0.960 . S
H931 C930 0.961 . S
H932 C930 0.961 . S
H933 C930 0.960 . S
C934 N935 1.342 . S
C934 C938 1.401 . S
C934 C939 1.499 . S
N935 Co918 1.989 . S
N935 C934 1.342 . S
N935 N936 1.388 . S
N936 Co919 1.993 . S
N936 N935 1.388 . S
N936 C937 1.346 . S
C937 N936 1.346 . S
C937 C938 1.396 . S
C937 C947 1.510 . S
C938 C934 1.401 . S
C938 C937 1.396 . S
C939 C934 1.499 . S
C939 H940 0.959 . S
C939 H941 0.960 . S
C939 H942 0.961 . S
H940 C939 0.959 . S
H941 C939 0.960 . S
H942 C939 0.961 . S
O943 Co918 1.967 . S
O943 C951 1.258 . S
O944 Co919 1.941 . S
O944 C951 1.266 . S
H945 C947 0.959 . S
H946 C947 0.961 . S
C947 C937 1.510 . S
C947 H945 0.959 . S
C947 H946 0.961 . S
C947 H948 0.960 . S
H948 C947 0.960 . S
H949 N929 0.862 . S
O950 Co918 1.920 . S
O950 C923 1.289 . S
C951 O943 1.258 . S
C951 O944 1.266 . S
Co952 O955 1.970 . S
Co952 N969 1.989 . S
Co952 O977 1.967 . S
Co952 O984 1.920 . S
Co953 O956 1.966 . S
Co953 N962 2.022 . S
Co953 N970 1.993 . S
Co953 O978 1.941 . S
C954 O955 1.258 . S
C954 O956 1.263 . S
O955 Co952 1.970 . S
O955 C954 1.258 . S
O956 Co953 1.966 . S
O956 C954 1.263 . S
C957 O958 1.235 . S
C957 O984 1.289 . S
O958 C957 1.235 . S
C959 C961 1.400 . S
C959 N962 1.351 . S
C959 C964 1.501 . S
C960 C961 1.387 . S
C960 N963 1.341 . S
C961 C959 1.400 . S
C961 C960 1.387 . S
N962 Co953 2.022 . S
N962 C959 1.351 . S
N962 N963 1.365 . S
N963 C960 1.341 . S
N963 N962 1.365 . S
N963 H983 0.862 . S
C964 C959 1.501 . S
C964 H965 0.961 . S
C964 H966 0.961 . S
C964 H967 0.960 . S
H965 C964 0.961 . S
H966 C964 0.961 . S
H967 C964 0.960 . S
C968 N969 1.342 . S
C968 C972 1.401 . S
C968 C973 1.499 . S
N969 Co952 1.989 . S
N969 C968 1.342 . S
N969 N970 1.388 . S
N970 Co953 1.993 . S
N970 N969 1.388 . S
N970 C971 1.346 . S
C971 N970 1.346 . S
C971 C972 1.396 . S
C971 C981 1.510 . S
C972 C968 1.401 . S
C972 C971 1.396 . S
C973 C968 1.499 . S
C973 H974 0.959 . S
C973 H975 0.960 . S
C973 H976 0.961 . S
H974 C973 0.959 . S
H975 C973 0.960 . S
H976 C973 0.961 . S
O977 Co952 1.967 . S
O977 C985 1.258 . S
O978 Co953 1.941 . S
O978 C985 1.266 . S
H979 C981 0.959 . S
H980 C981 0.961 . S
C981 C971 1.510 . S
C981 H979 0.959 . S
C981 H980 0.961 . S
C981 H982 0.960 . S
H982 C981 0.960 . S
H983 N963 0.862 . S
O984 Co952 1.920 . S
O984 C957 1.289 . S
C985 O977 1.258 . S
C985 O978 1.266 . S
Co986 O989 1.970 . S
Co986 N1003 1.989 . S
Co986 O1011 1.967 . S
Co986 O1018 1.920 . S
Co987 O990 1.966 . S
Co987 N996 2.022 . S
Co987 N1004 1.993 . S
Co987 O1012 1.941 . S
C988 O989 1.258 . S
C988 O990 1.263 . S
O989 Co986 1.970 . S
O989 C988 1.258 . S
O990 Co987 1.966 . S
O990 C988 1.263 . S
C991 O992 1.235 . S
C991 O1018 1.289 . S
O992 C991 1.235 . S
C993 C995 1.400 . S
C993 N996 1.351 . S
C993 C998 1.501 . S
C994 C995 1.387 . S
C994 N997 1.341 . S
C995 C993 1.400 . S
C995 C994 1.387 . S
N996 Co987 2.022 . S
N996 C993 1.351 . S
N996 N997 1.365 . S
N997 C994 1.341 . S
N997 N996 1.365 . S
N997 H1017 0.862 . S
C998 C993 1.501 . S
C998 H999 0.961 . S
C998 H1000 0.961 . S
C998 H1001 0.960 . S
H999 C998 0.961 . S
H1000 C998 0.961 . S
H1001 C998 0.960 . S
C1002 N1003 1.342 . S
C1002 C1006 1.401 . S
C1002 C1007 1.499 . S
N1003 Co986 1.989 . S
N1003 C1002 1.342 . S
N1003 N1004 1.388 . S
N1004 Co987 1.993 . S
N1004 N1003 1.388 . S
N1004 C1005 1.346 . S
C1005 N1004 1.346 . S
C1005 C1006 1.396 . S
C1005 C1015 1.510 . S
C1006 C1002 1.401 . S
C1006 C1005 1.396 . S
C1007 C1002 1.499 . S
C1007 H1008 0.959 . S
C1007 H1009 0.960 . S
C1007 H1010 0.961 . S
H1008 C1007 0.959 . S
H1009 C1007 0.960 . S
H1010 C1007 0.961 . S
O1011 Co986 1.967 . S
O1011 C1019 1.258 . S
O1012 Co987 1.941 . S
O1012 C1019 1.266 . S
H1013 C1015 0.959 . S
H1014 C1015 0.961 . S
C1015 C1005 1.510 . S
C1015 H1013 0.959 . S
C1015 H1014 0.961 . S
C1015 H1016 0.960 . S
H1016 C1015 0.960 . S
H1017 N997 0.862 . S
O1018 Co986 1.920 . S
O1018 C991 1.289 . S
C1019 O1011 1.258 . S
C1019 O1012 1.266 . S
Co1020 O1023 1.970 . S
Co1020 N1037 1.989 . S
Co1020 O1045 1.967 . S
Co1020 O1052 1.920 . S
Co1021 O1024 1.966 . S
Co1021 N1030 2.022 . S
Co1021 N1038 1.993 . S
Co1021 O1046 1.941 . S
C1022 O1023 1.258 . S
C1022 O1024 1.263 . S
O1023 Co1020 1.970 . S
O1023 C1022 1.258 . S
O1024 Co1021 1.966 . S
O1024 C1022 1.263 . S
C1025 O1026 1.235 . S
C1025 O1052 1.289 . S
O1026 C1025 1.235 . S
C1027 C1029 1.400 . S
C1027 N1030 1.351 1_556 S
C1027 C1032 1.501 . S
C1028 C1029 1.387 . S
C1028 N1031 1.341 . S
C1029 C1027 1.400 . S
C1029 C1028 1.387 . S
N1030 Co1021 2.022 . S
N1030 C1027 1.351 1_554 S
N1030 N1031 1.365 1_554 S
N1031 C1028 1.341 . S
N1031 N1030 1.365 1_556 S
N1031 H1051 0.862 . S
C1032 C1027 1.501 . S
C1032 H1033 0.961 1_556 S
C1032 H1034 0.961 . S
C1032 H1035 0.960 . S
H1033 C1032 0.961 1_554 S
H1034 C1032 0.961 . S
H1035 C1032 0.960 . S
C1036 N1037 1.342 . S
C1036 C1040 1.401 . S
C1036 C1041 1.499 . S
N1037 Co1020 1.989 . S
N1037 C1036 1.342 . S
N1037 N1038 1.388 . S
N1038 Co1021 1.993 . S
N1038 N1037 1.388 . S
N1038 C1039 1.346 . S
C1039 N1038 1.346 . S
C1039 C1040 1.396 . S
C1039 C1049 1.510 . S
C1040 C1036 1.401 . S
C1040 C1039 1.396 . S
C1041 C1036 1.499 . S
C1041 H1042 0.959 . S
C1041 H1043 0.960 . S
C1041 H1044 0.961 . S
H1042 C1041 0.959 . S
H1043 C1041 0.960 . S
H1044 C1041 0.961 . S
O1045 Co1020 1.967 . S
O1045 C1053 1.258 . S
O1046 Co1021 1.941 . S
O1046 C1053 1.266 . S
H1047 C1049 0.952 1_556 S
H1048 C1049 0.951 1_556 S
C1049 C1039 1.510 . S
C1049 H1047 0.952 1_554 S
C1049 H1048 0.951 1_554 S
C1049 H1050 0.957 1_554 S
H1050 C1049 0.957 1_556 S
H1051 N1031 0.862 . S
O1052 Co1020 1.920 . S
O1052 C1025 1.289 . S
C1053 O1045 1.258 . S
C1053 O1046 1.266 . S
Co1054 O1057 1.970 . S
Co1054 N1071 1.989 . S
Co1054 O1079 1.967 . S
Co1054 O1086 1.920 . S
Co1055 O1058 1.966 . S
Co1055 N1064 2.022 . S
Co1055 N1072 1.993 . S
Co1055 O1080 1.941 . S
C1056 O1057 1.258 . S
C1056 O1058 1.263 . S
O1057 Co1054 1.970 . S
O1057 C1056 1.258 . S
O1058 Co1055 1.966 . S
O1058 C1056 1.263 . S
C1059 O1060 1.235 . S
C1059 O1086 1.289 . S
O1060 C1059 1.235 . S
C1061 C1063 1.400 . S
C1061 N1064 1.351 . S
C1061 C1066 1.501 . S
C1062 C1063 1.387 . S
C1062 N1065 1.341 . S
C1063 C1061 1.400 . S
C1063 C1062 1.387 . S
N1064 Co1055 2.022 . S
N1064 C1061 1.351 . S
N1064 N1065 1.365 . S
N1065 C1062 1.341 . S
N1065 N1064 1.365 . S
N1065 H1085 0.862 . S
C1066 C1061 1.501 . S
C1066 H1067 0.961 . S
C1066 H1068 0.961 . S
C1066 H1069 0.960 . S
H1067 C1066 0.961 . S
H1068 C1066 0.961 . S
H1069 C1066 0.960 . S
C1070 N1071 1.342 . S
C1070 C1074 1.401 . S
C1070 C1075 1.499 . S
N1071 Co1054 1.989 . S
N1071 C1070 1.342 . S
N1071 N1072 1.388 . S
N1072 Co1055 1.993 . S
N1072 N1071 1.388 . S
N1072 C1073 1.346 . S
C1073 N1072 1.346 . S
C1073 C1074 1.396 . S
C1073 C1083 1.510 . S
C1074 C1070 1.401 . S
C1074 C1073 1.396 . S
C1075 C1070 1.499 . S
C1075 H1076 0.959 . S
C1075 H1077 0.960 . S
C1075 H1078 0.961 . S
H1076 C1075 0.959 . S
H1077 C1075 0.960 . S
H1078 C1075 0.961 . S
O1079 Co1054 1.967 . S
O1079 C1087 1.258 . S
O1080 Co1055 1.941 . S
O1080 C1087 1.266 . S
H1081 C1083 0.959 . S
H1082 C1083 0.961 . S
C1083 C1073 1.510 . S
C1083 H1081 0.959 . S
C1083 H1082 0.961 . S
C1083 H1084 0.960 . S
H1084 C1083 0.960 . S
H1085 N1065 0.862 . S
O1086 Co1054 1.920 . S
O1086 C1059 1.289 . S
C1087 O1079 1.258 . S
C1087 O1080 1.266 . S
C1088 C1089 1.363 . S
C1088 C1094 1.379 . S
C1088 N1096 1.356 . S
C1089 C1088 1.363 . S
C1089 C1095 1.363 . S
C1090 C1091 1.363 . S
C1090 C1095 1.379 . S
C1090 N1097 1.356 . S
C1091 C1090 1.363 . S
C1091 C1094 1.363 . S
N1092 C1094 1.356 . S
N1092 H1104 0.984 . S
N1092 H1105 0.985 . S
N1093 C1095 1.356 1_565 S
N1093 H1098 0.984 . S
N1093 H1099 0.985 . S
C1094 C1088 1.379 . S
C1094 C1091 1.363 . S
C1094 N1092 1.356 . S
C1095 C1089 1.363 . S
C1095 C1090 1.379 . S
C1095 N1093 1.356 1_545 S
N1096 C1088 1.356 . S
N1096 H1102 0.984 . S
N1096 H1103 0.984 . S
N1097 C1090 1.356 . S
N1097 H1100 0.984 . S
N1097 H1101 0.985 . S
H1098 N1093 0.984 . S
H1099 N1093 0.985 . S
H1100 N1097 0.984 . S
H1101 N1097 0.985 . S
H1102 N1096 0.984 . S
H1103 N1096 0.984 . S
H1104 N1092 0.984 . S
H1105 N1092 0.985 . S
C1106 C1107 1.363 . S
C1106 C1112 1.379 . S
C1106 N1114 1.356 . S
C1107 C1106 1.363 . S
C1107 C1113 1.363 . S
C1108 C1109 1.363 . S
C1108 C1113 1.379 . S
C1108 N1115 1.356 . S
C1109 C1108 1.363 . S
C1109 C1112 1.363 . S
N1110 C1112 1.356 . S
N1110 H1122 0.984 . S
N1110 H1123 0.985 . S
N1111 C1113 1.356 . S
N1111 H1116 0.984 . S
N1111 H1117 0.985 . S
C1112 C1106 1.379 . S
C1112 C1109 1.363 . S
C1112 N1110 1.356 . S
C1113 C1107 1.363 . S
C1113 C1108 1.379 . S
C1113 N1111 1.356 . S
N1114 C1106 1.356 . S
N1114 H1120 0.984 . S
N1114 H1121 0.984 . S
N1115 C1108 1.356 . S
N1115 H1118 0.984 . S
N1115 H1119 0.985 . S
H1116 N1111 0.984 . S
H1117 N1111 0.985 . S
H1118 N1115 0.984 . S
H1119 N1115 0.985 . S
H1120 N1114 0.984 . S
H1121 N1114 0.984 . S
H1122 N1110 0.984 . S
H1123 N1110 0.985 . S
C1124 C1125 1.363 . S
C1124 C1130 1.379 . S
C1124 N1132 1.356 . S
C1125 C1124 1.363 . S
C1125 C1131 1.363 . S
C1126 C1127 1.363 . S
C1126 C1131 1.379 . S
C1126 N1133 1.356 1_565 S
C1127 C1126 1.363 . S
C1127 C1130 1.363 . S
N1128 C1130 1.356 . S
N1128 H1140 0.984 . S
N1128 H1141 0.985 . S
N1129 C1131 1.356 . S
N1129 H1134 0.984 . S
N1129 H1135 0.985 . S
C1130 C1124 1.379 . S
C1130 C1127 1.363 . S
C1130 N1128 1.356 . S
C1131 C1125 1.363 . S
C1131 C1126 1.379 . S
C1131 N1129 1.356 . S
N1132 C1124 1.356 . S
N1132 H1138 0.984 . S
N1132 H1139 0.984 . S
N1133 C1126 1.356 1_545 S
N1133 H1136 0.984 . S
N1133 H1137 0.985 . S
H1134 N1129 0.984 . S
H1135 N1129 0.985 . S
H1136 N1133 0.984 . S
H1137 N1133 0.985 . S
H1138 N1132 0.984 . S
H1139 N1132 0.984 . S
H1140 N1128 0.984 . S
H1141 N1128 0.985 . S
C1142 C1143 1.363 . S
C1142 C1148 1.379 . S
C1142 N1150 1.356 . S
C1143 C1142 1.363 . S
C1143 C1149 1.363 . S
C1144 C1145 1.363 . S
C1144 C1149 1.379 . S
C1144 N1151 1.356 . S
C1145 C1144 1.363 . S
C1145 C1148 1.363 . S
N1146 C1148 1.356 . S
N1146 H1158 0.984 . S
N1146 H1159 0.985 . S
N1147 C1149 1.356 . S
N1147 H1152 0.984 . S
N1147 H1153 0.985 . S
C1148 C1142 1.379 . S
C1148 C1145 1.363 . S
C1148 N1146 1.356 . S
C1149 C1143 1.363 . S
C1149 C1144 1.379 . S
C1149 N1147 1.356 . S
N1150 C1142 1.356 . S
N1150 H1156 0.984 . S
N1150 H1157 0.984 . S
N1151 C1144 1.356 . S
N1151 H1154 0.984 . S
N1151 H1155 0.985 . S
H1152 N1147 0.984 . S
H1153 N1147 0.985 . S
H1154 N1151 0.984 . S
H1155 N1151 0.985 . S
H1156 N1150 0.984 . S
H1157 N1150 0.984 . S
H1158 N1146 0.984 . S
H1159 N1146 0.985 . S
C1160 C1161 1.363 . S
C1160 C1166 1.379 . S
C1160 N1168 1.356 . S
C1161 C1160 1.363 . S
C1161 C1167 1.363 . S
C1162 C1163 1.363 . S
C1162 C1167 1.379 . S
C1162 N1169 1.356 1_565 S
C1163 C1162 1.363 . S
C1163 C1166 1.363 . S
N1164 C1166 1.356 . S
N1164 H1176 0.984 . S
N1164 H1177 0.985 . S
N1165 C1167 1.356 . S
N1165 H1170 0.984 . S
N1165 H1171 0.985 . S
C1166 C1160 1.379 . S
C1166 C1163 1.363 . S
C1166 N1164 1.356 . S
C1167 C1161 1.363 . S
C1167 C1162 1.379 . S
C1167 N1165 1.356 . S
N1168 C1160 1.356 . S
N1168 H1174 0.984 . S
N1168 H1175 0.984 . S
N1169 C1162 1.356 1_545 S
N1169 H1172 0.984 . S
N1169 H1173 0.985 . S
H1170 N1165 0.984 . S
H1171 N1165 0.985 . S
H1172 N1169 0.984 . S
H1173 N1169 0.985 . S
H1174 N1168 0.984 . S
H1175 N1168 0.984 . S
H1176 N1164 0.984 . S
H1177 N1164 0.985 . S
C1178 C1179 1.363 . S
C1178 C1184 1.379 . S
C1178 N1186 1.356 . S
C1179 C1178 1.363 . S
C1179 C1185 1.363 . S
C1180 C1181 1.363 . S
C1180 C1185 1.379 . S
C1180 N1187 1.356 . S
C1181 C1180 1.363 . S
C1181 C1184 1.363 . S
N1182 C1184 1.356 . S
N1182 H1194 0.984 . S
N1182 H1195 0.985 . S
N1183 C1185 1.356 . S
N1183 H1188 0.984 . S
N1183 H1189 0.985 . S
C1184 C1178 1.379 . S
C1184 C1181 1.363 . S
C1184 N1182 1.356 . S
C1185 C1179 1.363 . S
C1185 C1180 1.379 . S
C1185 N1183 1.356 . S
N1186 C1178 1.356 . S
N1186 H1192 0.984 . S
N1186 H1193 0.984 . S
N1187 C1180 1.356 . S
N1187 H1190 0.984 . S
N1187 H1191 0.985 . S
H1188 N1183 0.984 . S
H1189 N1183 0.985 . S
H1190 N1187 0.984 . S
H1191 N1187 0.985 . S
H1192 N1186 0.984 . S
H1193 N1186 0.984 . S
H1194 N1182 0.984 . S
H1195 N1182 0.985 . S
C1196 C1197 1.363 . S
C1196 C1202 1.379 . S
C1196 N1204 1.356 . S
C1197 C1196 1.363 . S
C1197 C1203 1.363 . S
C1198 C1199 1.363 . S
C1198 C1203 1.379 . S
C1198 N1205 1.356 . S
C1199 C1198 1.363 . S
C1199 C1202 1.363 . S
N1200 C1202 1.356 1_565 S
N1200 H1212 0.984 . S
N1200 H1213 0.985 . S
N1201 C1203 1.356 . S
N1201 H1206 0.984 . S
N1201 H1207 0.985 . S
C1202 C1196 1.379 . S
C1202 C1199 1.363 . S
C1202 N1200 1.356 1_545 S
C1203 C1197 1.363 . S
C1203 C1198 1.379 . S
C1203 N1201 1.356 . S
N1204 C1196 1.356 . S
N1204 H1210 0.984 . S
N1204 H1211 0.984 . S
N1205 C1198 1.356 . S
N1205 H1208 0.984 . S
N1205 H1209 0.985 . S
H1206 N1201 0.984 . S
H1207 N1201 0.985 . S
H1208 N1205 0.984 . S
H1209 N1205 0.985 . S
H1210 N1204 0.984 . S
H1211 N1204 0.984 . S
H1212 N1200 0.984 . S
H1213 N1200 0.985 . S
C1214 C1215 1.363 . S
C1214 C1220 1.379 . S
C1214 N1222 1.356 . S
C1215 C1214 1.363 . S
C1215 C1221 1.363 . S
C1216 C1217 1.363 . S
C1216 C1221 1.379 . S
C1216 N1223 1.356 . S
C1217 C1216 1.363 . S
C1217 C1220 1.363 . S
N1218 C1220 1.356 . S
N1218 H1230 0.984 . S
N1218 H1231 0.985 . S
N1219 C1221 1.356 . S
N1219 H1224 0.984 . S
N1219 H1225 0.985 . S
C1220 C1214 1.379 . S
C1220 C1217 1.363 . S
C1220 N1218 1.356 . S
C1221 C1215 1.363 . S
C1221 C1216 1.379 . S
C1221 N1219 1.356 . S
N1222 C1214 1.356 . S
N1222 H1228 0.984 . S
N1222 H1229 0.984 . S
N1223 C1216 1.356 . S
N1223 H1226 0.984 . S
N1223 H1227 0.985 . S
H1224 N1219 0.984 . S
H1225 N1219 0.985 . S
H1226 N1223 0.984 . S
H1227 N1223 0.985 . S
H1228 N1222 0.984 . S
H1229 N1222 0.984 . S
H1230 N1218 0.984 . S
H1231 N1218 0.985 . S
C1232 C1233 1.363 . S
C1232 C1238 1.379 . S
C1232 N1240 1.356 1_565 S
C1233 C1232 1.363 . S
C1233 C1239 1.363 . S
C1234 C1235 1.363 . S
C1234 C1239 1.379 . S
C1234 N1241 1.356 . S
C1235 C1234 1.363 . S
C1235 C1238 1.363 . S
N1236 C1238 1.356 . S
N1236 H1248 0.984 . S
N1236 H1249 0.985 . S
N1237 C1239 1.356 . S
N1237 H1242 0.984 . S
N1237 H1243 0.985 . S
C1238 C1232 1.379 . S
C1238 C1235 1.363 . S
C1238 N1236 1.356 . S
C1239 C1233 1.363 . S
C1239 C1234 1.379 . S
C1239 N1237 1.356 . S
N1240 C1232 1.356 1_545 S
N1240 H1246 0.984 . S
N1240 H1247 0.984 . S
N1241 C1234 1.356 . S
N1241 H1244 0.984 . S
N1241 H1245 0.985 . S
H1242 N1237 0.984 . S
H1243 N1237 0.985 . S
H1244 N1241 0.984 . S
H1245 N1241 0.985 . S
H1246 N1240 0.984 . S
H1247 N1240 0.984 . S
H1248 N1236 0.984 . S
H1249 N1236 0.985 . S
C1250 C1251 1.363 . S
C1250 C1256 1.379 . S
C1250 N1258 1.356 . S
C1251 C1250 1.363 . S
C1251 C1257 1.363 . S
C1252 C1253 1.363 . S
C1252 C1257 1.379 . S
C1252 N1259 1.356 . S
C1253 C1252 1.363 . S
C1253 C1256 1.363 . S
N1254 C1256 1.356 . S
N1254 H1266 0.984 . S
N1254 H1267 0.985 . S
N1255 C1257 1.356 . S
N1255 H1260 0.984 . S
N1255 H1261 0.985 . S
C1256 C1250 1.379 . S
C1256 C1253 1.363 . S
C1256 N1254 1.356 . S
C1257 C1251 1.363 . S
C1257 C1252 1.379 . S
C1257 N1255 1.356 . S
N1258 C1250 1.356 . S
N1258 H1264 0.984 . S
N1258 H1265 0.984 . S
N1259 C1252 1.356 . S
N1259 H1262 0.984 . S
N1259 H1263 0.985 . S
H1260 N1255 0.984 . S
H1261 N1255 0.985 . S
H1262 N1259 0.984 . S
H1263 N1259 0.985 . S
H1264 N1258 0.984 . S
H1265 N1258 0.984 . S
H1266 N1254 0.984 . S
H1267 N1254 0.985 . S
C1268 C1269 1.363 . S
C1268 C1274 1.379 . S
C1268 N1276 1.356 . S
C1269 C1268 1.363 . S
C1269 C1275 1.363 . S
C1270 C1271 1.363 . S
C1270 C1275 1.379 . S
C1270 N1277 1.356 . S
C1271 C1270 1.363 . S
C1271 C1274 1.363 . S
N1272 C1274 1.356 1_565 S
N1272 H1284 0.984 . S
N1272 H1285 0.985 . S
N1273 C1275 1.356 . S
N1273 H1278 0.984 . S
N1273 H1279 0.985 . S
C1274 C1268 1.379 . S
C1274 C1271 1.363 . S
C1274 N1272 1.356 1_545 S
C1275 C1269 1.363 . S
C1275 C1270 1.379 . S
C1275 N1273 1.356 . S
N1276 C1268 1.356 . S
N1276 H1282 0.984 . S
N1276 H1283 0.984 . S
N1277 C1270 1.356 . S
N1277 H1280 0.984 . S
N1277 H1281 0.985 . S
H1278 N1273 0.984 . S
H1279 N1273 0.985 . S
H1280 N1277 0.984 . S
H1281 N1277 0.985 . S
H1282 N1276 0.984 . S
H1283 N1276 0.984 . S
H1284 N1272 0.984 . S
H1285 N1272 0.985 . S
C1286 C1287 1.363 . S
C1286 C1292 1.379 . S
C1286 N1294 1.356 . S
C1287 C1286 1.363 . S
C1287 C1293 1.363 . S
C1288 C1289 1.363 . S
C1288 C1293 1.379 . S
C1288 N1295 1.356 . S
C1289 C1288 1.363 . S
C1289 C1292 1.363 . S
N1290 C1292 1.356 . S
N1290 H1302 0.984 . S
N1290 H1303 0.985 . S
N1291 C1293 1.356 . S
N1291 H1296 0.984 . S
N1291 H1297 0.985 . S
C1292 C1286 1.379 . S
C1292 C1289 1.363 . S
C1292 N1290 1.356 . S
C1293 C1287 1.363 . S
C1293 C1288 1.379 . S
C1293 N1291 1.356 . S
N1294 C1286 1.356 . S
N1294 H1300 0.984 . S
N1294 H1301 0.984 . S
N1295 C1288 1.356 . S
N1295 H1298 0.984 . S
N1295 H1299 0.985 . S
H1296 N1291 0.984 . S
H1297 N1291 0.985 . S
H1298 N1295 0.984 . S
H1299 N1295 0.985 . S
H1300 N1294 0.984 . S
H1301 N1294 0.984 . S
H1302 N1290 0.984 . S
H1303 N1290 0.985 . S
C1304 C1305 1.363 . S
C1304 C1310 1.379 . S
C1304 N1312 1.356 . S
C1305 C1304 1.363 . S
C1305 C1311 1.363 . S
C1306 C1307 1.363 . S
C1306 C1311 1.379 . S
C1306 N1313 1.356 1_545 S
C1307 C1306 1.363 . S
C1307 C1310 1.363 . S
N1308 C1310 1.356 . S
N1308 H1320 0.984 . S
N1308 H1321 0.985 . S
N1309 C1311 1.356 . S
N1309 H1314 0.984 . S
N1309 H1315 0.985 . S
C1310 C1304 1.379 . S
C1310 C1307 1.363 . S
C1310 N1308 1.356 . S
C1311 C1305 1.363 . S
C1311 C1306 1.379 . S
C1311 N1309 1.356 . S
N1312 C1304 1.356 . S
N1312 H1318 0.984 . S
N1312 H1319 0.984 . S
N1313 C1306 1.356 1_565 S
N1313 H1316 0.984 . S
N1313 H1317 0.985 . S
H1314 N1309 0.984 . S
H1315 N1309 0.985 . S
H1316 N1313 0.984 . S
H1317 N1313 0.985 . S
H1318 N1312 0.984 . S
H1319 N1312 0.984 . S
H1320 N1308 0.984 . S
H1321 N1308 0.985 . S
C1322 C1323 1.363 . S
C1322 C1328 1.379 . S
C1322 N1330 1.356 . S
C1323 C1322 1.363 . S
C1323 C1329 1.363 . S
C1324 C1325 1.363 . S
C1324 C1329 1.379 . S
C1324 N1331 1.356 . S
C1325 C1324 1.363 . S
C1325 C1328 1.363 . S
N1326 C1328 1.356 . S
N1326 H1338 0.984 . S
N1326 H1339 0.985 . S
N1327 C1329 1.356 . S
N1327 H1332 0.984 . S
N1327 H1333 0.985 . S
C1328 C1322 1.379 . S
C1328 C1325 1.363 . S
C1328 N1326 1.356 . S
C1329 C1323 1.363 . S
C1329 C1324 1.379 . S
C1329 N1327 1.356 . S
N1330 C1322 1.356 . S
N1330 H1336 0.984 . S
N1330 H1337 0.984 . S
N1331 C1324 1.356 . S
N1331 H1334 0.984 . S
N1331 H1335 0.985 . S
H1332 N1327 0.984 . S
H1333 N1327 0.985 . S
H1334 N1331 0.984 . S
H1335 N1331 0.985 . S
H1336 N1330 0.984 . S
H1337 N1330 0.984 . S
H1338 N1326 0.984 . S
H1339 N1326 0.985 . S
C1340 C1341 1.363 . S
C1340 C1346 1.379 . S
C1340 N1348 1.356 . S
C1341 C1340 1.363 . S
C1341 C1347 1.363 . S
C1342 C1343 1.363 . S
C1342 C1347 1.379 . S
C1342 N1349 1.356 . S
C1343 C1342 1.363 . S
C1343 C1346 1.363 . S
N1344 C1346 1.356 . S
N1344 H1356 0.984 . S
N1344 H1357 0.985 . S
N1345 C1347 1.356 1_545 S
N1345 H1350 0.984 . S
N1345 H1351 0.985 . S
C1346 C1340 1.379 . S
C1346 C1343 1.363 . S
C1346 N1344 1.356 . S
C1347 C1341 1.363 . S
C1347 C1342 1.379 . S
C1347 N1345 1.356 1_565 S
N1348 C1340 1.356 . S
N1348 H1354 0.984 . S
N1348 H1355 0.984 . S
N1349 C1342 1.356 . S
N1349 H1352 0.984 . S
N1349 H1353 0.985 . S
H1350 N1345 0.984 . S
H1351 N1345 0.985 . S
H1352 N1349 0.984 . S
H1353 N1349 0.985 . S
H1354 N1348 0.984 . S
H1355 N1348 0.984 . S
H1356 N1344 0.984 . S
H1357 N1344 0.985 . S
C1358 C1359 1.363 . S
C1358 C1364 1.379 . S
C1358 N1366 1.356 . S
C1359 C1358 1.363 . S
C1359 C1365 1.363 . S
C1360 C1361 1.363 . S
C1360 C1365 1.379 . S
C1360 N1367 1.356 . S
C1361 C1360 1.363 . S
C1361 C1364 1.363 . S
N1362 C1364 1.356 . S
N1362 H1374 0.984 . S
N1362 H1375 0.985 . S
N1363 C1365 1.356 . S
N1363 H1368 0.984 . S
N1363 H1369 0.985 . S
C1364 C1358 1.379 . S
C1364 C1361 1.363 . S
C1364 N1362 1.356 . S
C1365 C1359 1.363 . S
C1365 C1360 1.379 . S
C1365 N1363 1.356 . S
N1366 C1358 1.356 . S
N1366 H1372 0.984 . S
N1366 H1373 0.984 . S
N1367 C1360 1.356 . S
N1367 H1370 0.984 . S
N1367 H1371 0.985 . S
H1368 N1363 0.984 . S
H1369 N1363 0.985 . S
H1370 N1367 0.984 . S
H1371 N1367 0.985 . S
H1372 N1366 0.984 . S
H1373 N1366 0.984 . S
H1374 N1362 0.984 . S
H1375 N1362 0.985 . S
C1376 C1377 1.363 . S
C1376 C1382 1.379 . S
C1376 N1384 1.356 . S
C1377 C1376 1.363 . S
C1377 C1383 1.363 . S
C1378 C1379 1.363 . S
C1378 C1383 1.379 . S
C1378 N1385 1.356 . S
C1379 C1378 1.363 . S
C1379 C1382 1.363 . S
N1380 C1382 1.356 . S
N1380 H1392 0.984 . S
N1380 H1393 0.985 . S
N1381 C1383 1.356 . S
N1381 H1386 0.984 . S
N1381 H1387 0.985 . S
C1382 C1376 1.379 . S
C1382 C1379 1.363 . S
C1382 N1380 1.356 . S
C1383 C1377 1.363 . S
C1383 C1378 1.379 . S
C1383 N1381 1.356 . S
N1384 C1376 1.356 . S
N1384 H1390 0.984 . S
N1384 H1391 0.984 . S
N1385 C1378 1.356 . S
N1385 H1388 0.984 . S
N1385 H1389 0.985 . S
H1386 N1381 0.984 . S
H1387 N1381 0.985 . S
H1388 N1385 0.984 . S
H1389 N1385 0.985 . S
H1390 N1384 0.984 . S
H1391 N1384 0.984 . S
H1392 N1380 0.984 . S
H1393 N1380 0.985 . S
C1394 C1395 1.363 . S
C1394 C1400 1.379 . S
C1394 N1402 1.356 . S
C1395 C1394 1.363 . S
C1395 C1401 1.363 . S
C1396 C1397 1.363 . S
C1396 C1401 1.379 . S
C1396 N1403 1.356 . S
C1397 C1396 1.363 . S
C1397 C1400 1.363 . S
N1398 C1400 1.356 . S
N1398 H1410 0.984 . S
N1398 H1411 0.985 . S
N1399 C1401 1.356 . S
N1399 H1404 0.984 . S
N1399 H1405 0.985 . S
C1400 C1394 1.379 . S
C1400 C1397 1.363 . S
C1400 N1398 1.356 . S
C1401 C1395 1.363 . S
C1401 C1396 1.379 . S
C1401 N1399 1.356 . S
N1402 C1394 1.356 . S
N1402 H1408 0.984 . S
N1402 H1409 0.984 . S
N1403 C1396 1.356 . S
N1403 H1406 0.984 . S
N1403 H1407 0.985 . S
H1404 N1399 0.984 . S
H1405 N1399 0.985 . S
H1406 N1403 0.984 . S
H1407 N1403 0.985 . S
H1408 N1402 0.984 . S
H1409 N1402 0.984 . S
H1410 N1398 0.984 . S
H1411 N1398 0.985 . S
C1412 C1413 1.363 . S
C1412 C1418 1.379 . S
C1412 N1420 1.356 . S
C1413 C1412 1.363 . S
C1413 C1419 1.363 . S
C1414 C1415 1.363 . S
C1414 C1419 1.379 . S
C1414 N1421 1.356 . S
C1415 C1414 1.363 . S
C1415 C1418 1.363 . S
N1416 C1418 1.356 . S
N1416 H1428 0.984 . S
N1416 H1429 0.985 . S
N1417 C1419 1.356 . S
N1417 H1422 0.984 . S
N1417 H1423 0.985 . S
C1418 C1412 1.379 . S
C1418 C1415 1.363 . S
C1418 N1416 1.356 . S
C1419 C1413 1.363 . S
C1419 C1414 1.379 . S
C1419 N1417 1.356 . S
N1420 C1412 1.356 . S
N1420 H1426 0.984 . S
N1420 H1427 0.984 . S
N1421 C1414 1.356 . S
N1421 H1424 0.984 . S
N1421 H1425 0.985 . S
H1422 N1417 0.984 . S
H1423 N1417 0.985 . S
H1424 N1421 0.984 . S
H1425 N1421 0.985 . S
H1426 N1420 0.984 . S
H1427 N1420 0.984 . S
H1428 N1416 0.984 . S
H1429 N1416 0.985 . S
C1430 C1431 1.363 . S
C1430 C1436 1.379 . S
C1430 N1438 1.356 . S
C1431 C1430 1.363 . S
C1431 C1437 1.363 . S
C1432 C1433 1.363 . S
C1432 C1437 1.379 . S
C1432 N1439 1.356 . S
C1433 C1432 1.363 . S
C1433 C1436 1.363 . S
N1434 C1436 1.356 . S
N1434 H1446 0.984 . S
N1434 H1447 0.985 . S
N1435 C1437 1.356 . S
N1435 H1440 0.984 . S
N1435 H1441 0.985 . S
C1436 C1430 1.379 . S
C1436 C1433 1.363 . S
C1436 N1434 1.356 . S
C1437 C1431 1.363 . S
C1437 C1432 1.379 . S
C1437 N1435 1.356 . S
N1438 C1430 1.356 . S
N1438 H1444 0.984 . S
N1438 H1445 0.984 . S
N1439 C1432 1.356 . S
N1439 H1442 0.984 . S
N1439 H1443 0.985 . S
H1440 N1435 0.984 . S
H1441 N1435 0.985 . S
H1442 N1439 0.984 . S
H1443 N1439 0.985 . S
H1444 N1438 0.984 . S
H1445 N1438 0.984 . S
H1446 N1434 0.984 . S
H1447 N1434 0.985 . S
C1448 C1449 1.363 . S
C1448 C1454 1.379 . S
C1448 N1456 1.356 . S
C1449 C1448 1.363 . S
C1449 C1455 1.363 . S
C1450 C1451 1.363 . S
C1450 C1455 1.379 . S
C1450 N1457 1.356 . S
C1451 C1450 1.363 . S
C1451 C1454 1.363 . S
N1452 C1454 1.356 . S
N1452 H1464 0.984 . S
N1452 H1465 0.985 . S
N1453 C1455 1.356 . S
N1453 H1458 0.984 . S
N1453 H1459 0.985 . S
C1454 C1448 1.379 . S
C1454 C1451 1.363 . S
C1454 N1452 1.356 . S
C1455 C1449 1.363 . S
C1455 C1450 1.379 . S
C1455 N1453 1.356 . S
N1456 C1448 1.356 . S
N1456 H1462 0.984 . S
N1456 H1463 0.984 . S
N1457 C1450 1.356 . S
N1457 H1460 0.984 . S
N1457 H1461 0.985 . S
H1458 N1453 0.984 . S
H1459 N1453 0.985 . S
H1460 N1457 0.984 . S
H1461 N1457 0.985 . S
H1462 N1456 0.984 . S
H1463 N1456 0.984 . S
H1464 N1452 0.984 . S
H1465 N1452 0.985 . S
C1466 C1467 1.363 . S
C1466 C1472 1.379 . S
C1466 N1474 1.356 . S
C1467 C1466 1.363 . S
C1467 C1473 1.363 . S
C1468 C1469 1.363 . S
C1468 C1473 1.379 . S
C1468 N1475 1.356 . S
C1469 C1468 1.363 . S
C1469 C1472 1.363 . S
N1470 C1472 1.356 . S
N1470 H1482 0.984 . S
N1470 H1483 0.985 . S
N1471 C1473 1.356 . S
N1471 H1476 0.984 . S
N1471 H1477 0.985 . S
C1472 C1466 1.379 . S
C1472 C1469 1.363 . S
C1472 N1470 1.356 . S
C1473 C1467 1.363 . S
C1473 C1468 1.379 . S
C1473 N1471 1.356 . S
N1474 C1466 1.356 . S
N1474 H1480 0.984 . S
N1474 H1481 0.984 . S
N1475 C1468 1.356 . S
N1475 H1478 0.984 . S
N1475 H1479 0.985 . S
H1476 N1471 0.984 . S
H1477 N1471 0.985 . S
H1478 N1475 0.984 . S
H1479 N1475 0.985 . S
H1480 N1474 0.984 . S
H1481 N1474 0.984 . S
H1482 N1470 0.984 . S
H1483 N1470 0.985 . S
C1484 C1485 1.363 . S
C1484 C1490 1.379 . S
C1484 N1492 1.356 . S
C1485 C1484 1.363 . S
C1485 C1491 1.363 . S
C1486 C1487 1.363 . S
C1486 C1491 1.379 . S
C1486 N1493 1.356 . S
C1487 C1486 1.363 . S
C1487 C1490 1.363 . S
N1488 C1490 1.356 . S
N1488 H1500 0.984 . S
N1488 H1501 0.985 . S
N1489 C1491 1.356 . S
N1489 H1494 0.984 . S
N1489 H1495 0.985 . S
C1490 C1484 1.379 . S
C1490 C1487 1.363 . S
C1490 N1488 1.356 . S
C1491 C1485 1.363 . S
C1491 C1486 1.379 . S
C1491 N1489 1.356 . S
N1492 C1484 1.356 . S
N1492 H1498 0.984 . S
N1492 H1499 0.984 . S
N1493 C1486 1.356 . S
N1493 H1496 0.984 . S
N1493 H1497 0.985 . S
H1494 N1489 0.984 . S
H1495 N1489 0.985 . S
H1496 N1493 0.984 . S
H1497 N1493 0.985 . S
H1498 N1492 0.984 . S
H1499 N1492 0.984 . S
H1500 N1488 0.984 . S
H1501 N1488 0.985 . S
C1502 C1503 1.363 . S
C1502 C1508 1.379 . S
C1502 N1510 1.356 . S
C1503 C1502 1.363 . S
C1503 C1509 1.363 . S
C1504 C1505 1.363 . S
C1504 C1509 1.379 . S
C1504 N1511 1.356 . S
C1505 C1504 1.363 . S
C1505 C1508 1.363 . S
N1506 C1508 1.356 . S
N1506 H1518 0.984 . S
N1506 H1519 0.985 . S
N1507 C1509 1.356 . S
N1507 H1512 0.984 . S
N1507 H1513 0.985 . S
C1508 C1502 1.379 . S
C1508 C1505 1.363 . S
C1508 N1506 1.356 . S
C1509 C1503 1.363 . S
C1509 C1504 1.379 . S
C1509 N1507 1.356 . S
N1510 C1502 1.356 . S
N1510 H1516 0.984 . S
N1510 H1517 0.984 . S
N1511 C1504 1.356 . S
N1511 H1514 0.984 . S
N1511 H1515 0.985 . S
H1512 N1507 0.984 . S
H1513 N1507 0.985 . S
H1514 N1511 0.984 . S
H1515 N1511 0.985 . S
H1516 N1510 0.984 . S
H1517 N1510 0.984 . S
H1518 N1506 0.984 . S
H1519 N1506 0.985 . S
C1520 C1521 1.363 . S
C1520 C1526 1.379 . S
C1520 N1528 1.356 . S
C1521 C1520 1.363 . S
C1521 C1527 1.363 . S
C1522 C1523 1.363 . S
C1522 C1527 1.379 . S
C1522 N1529 1.356 . S
C1523 C1522 1.363 . S
C1523 C1526 1.363 . S
N1524 C1526 1.356 . S
N1524 H1536 0.984 . S
N1524 H1537 0.985 . S
N1525 C1527 1.356 . S
N1525 H1530 0.984 . S
N1525 H1531 0.985 . S
C1526 C1520 1.379 . S
C1526 C1523 1.363 . S
C1526 N1524 1.356 . S
C1527 C1521 1.363 . S
C1527 C1522 1.379 . S
C1527 N1525 1.356 . S
N1528 C1520 1.356 . S
N1528 H1534 0.984 . S
N1528 H1535 0.984 . S
N1529 C1522 1.356 . S
N1529 H1532 0.984 . S
N1529 H1533 0.985 . S
H1530 N1525 0.984 . S
H1531 N1525 0.985 . S
H1532 N1529 0.984 . S
H1533 N1529 0.985 . S
H1534 N1528 0.984 . S
H1535 N1528 0.984 . S
H1536 N1524 0.984 . S
H1537 N1524 0.985 . S
C1538 C1539 1.363 . S
C1538 C1544 1.379 . S
C1538 N1546 1.356 . S
C1539 C1538 1.363 . S
C1539 C1545 1.363 . S
C1540 C1541 1.363 . S
C1540 C1545 1.379 . S
C1540 N1547 1.356 . S
C1541 C1540 1.363 . S
C1541 C1544 1.363 . S
N1542 C1544 1.356 . S
N1542 H1554 0.984 . S
N1542 H1555 0.985 . S
N1543 C1545 1.356 . S
N1543 H1548 0.984 . S
N1543 H1549 0.985 . S
C1544 C1538 1.379 . S
C1544 C1541 1.363 . S
C1544 N1542 1.356 . S
C1545 C1539 1.363 . S
C1545 C1540 1.379 . S
C1545 N1543 1.356 . S
N1546 C1538 1.356 . S
N1546 H1552 0.984 . S
N1546 H1553 0.984 . S
N1547 C1540 1.356 . S
N1547 H1550 0.984 . S
N1547 H1551 0.985 . S
H1548 N1543 0.984 . S
H1549 N1543 0.985 . S
H1550 N1547 0.984 . S
H1551 N1547 0.985 . S
H1552 N1546 0.984 . S
H1553 N1546 0.984 . S
H1554 N1542 0.984 . S
H1555 N1542 0.985 . S
C1556 C1557 1.363 . S
C1556 C1562 1.379 . S
C1556 N1564 1.356 . S
C1557 C1556 1.363 . S
C1557 C1563 1.363 . S
C1558 C1559 1.363 . S
C1558 C1563 1.379 . S
C1558 N1565 1.356 . S
C1559 C1558 1.363 . S
C1559 C1562 1.363 . S
N1560 C1562 1.356 . S
N1560 H1572 0.984 . S
N1560 H1573 0.985 . S
N1561 C1563 1.356 . S
N1561 H1566 0.984 . S
N1561 H1567 0.985 . S
C1562 C1556 1.379 . S
C1562 C1559 1.363 . S
C1562 N1560 1.356 . S
C1563 C1557 1.363 . S
C1563 C1558 1.379 . S
C1563 N1561 1.356 . S
N1564 C1556 1.356 . S
N1564 H1570 0.984 . S
N1564 H1571 0.984 . S
N1565 C1558 1.356 . S
N1565 H1568 0.984 . S
N1565 H1569 0.985 . S
H1566 N1561 0.984 . S
H1567 N1561 0.985 . S
H1568 N1565 0.984 . S
H1569 N1565 0.985 . S
H1570 N1564 0.984 . S
H1571 N1564 0.984 . S
H1572 N1560 0.984 . S
H1573 N1560 0.985 . S
C1574 C1575 1.363 . S
C1574 C1580 1.379 . S
C1574 N1582 1.356 . S
C1575 C1574 1.363 . S
C1575 C1581 1.363 . S
C1576 C1577 1.363 . S
C1576 C1581 1.379 . S
C1576 N1583 1.356 . S
C1577 C1576 1.363 . S
C1577 C1580 1.363 . S
N1578 C1580 1.356 . S
N1578 H1590 0.984 . S
N1578 H1591 0.985 . S
N1579 C1581 1.356 . S
N1579 H1584 0.984 . S
N1579 H1585 0.985 . S
C1580 C1574 1.379 . S
C1580 C1577 1.363 . S
C1580 N1578 1.356 . S
C1581 C1575 1.363 . S
C1581 C1576 1.379 . S
C1581 N1579 1.356 . S
N1582 C1574 1.356 . S
N1582 H1588 0.984 . S
N1582 H1589 0.984 . S
N1583 C1576 1.356 . S
N1583 H1586 0.984 . S
N1583 H1587 0.985 . S
H1584 N1579 0.984 . S
H1585 N1579 0.985 . S
H1586 N1583 0.984 . S
H1587 N1583 0.985 . S
H1588 N1582 0.984 . S
H1589 N1582 0.984 . S
H1590 N1578 0.984 . S
H1591 N1578 0.985 . S
C1592 C1593 1.363 . S
C1592 C1598 1.379 . S
C1592 N1600 1.356 . S
C1593 C1592 1.363 . S
C1593 C1599 1.363 . S
C1594 C1595 1.363 . S
C1594 C1599 1.379 . S
C1594 N1601 1.356 . S
C1595 C1594 1.363 . S
C1595 C1598 1.363 . S
N1596 C1598 1.356 . S
N1596 H1608 0.984 . S
N1596 H1609 0.985 . S
N1597 C1599 1.356 . S
N1597 H1602 0.984 . S
N1597 H1603 0.985 . S
C1598 C1592 1.379 . S
C1598 C1595 1.363 . S
C1598 N1596 1.356 . S
C1599 C1593 1.363 . S
C1599 C1594 1.379 . S
C1599 N1597 1.356 . S
N1600 C1592 1.356 . S
N1600 H1606 0.984 . S
N1600 H1607 0.984 . S
N1601 C1594 1.356 . S
N1601 H1604 0.984 . S
N1601 H1605 0.985 . S
H1602 N1597 0.984 . S
H1603 N1597 0.985 . S
H1604 N1601 0.984 . S
H1605 N1601 0.985 . S
H1606 N1600 0.984 . S
H1607 N1600 0.984 . S
H1608 N1596 0.984 . S
H1609 N1596 0.985 . S
C1610 C1611 1.363 . S
C1610 C1616 1.379 . S
C1610 N1618 1.356 . S
C1611 C1610 1.363 . S
C1611 C1617 1.363 . S
C1612 C1613 1.363 . S
C1612 C1617 1.379 . S
C1612 N1619 1.356 . S
C1613 C1612 1.363 . S
C1613 C1616 1.363 . S
N1614 C1616 1.356 . S
N1614 H1626 0.984 . S
N1614 H1627 0.985 . S
N1615 C1617 1.356 . S
N1615 H1620 0.984 . S
N1615 H1621 0.985 . S
C1616 C1610 1.379 . S
C1616 C1613 1.363 . S
C1616 N1614 1.356 . S
C1617 C1611 1.363 . S
C1617 C1612 1.379 . S
C1617 N1615 1.356 . S
N1618 C1610 1.356 . S
N1618 H1624 0.984 . S
N1618 H1625 0.984 . S
N1619 C1612 1.356 . S
N1619 H1622 0.984 . S
N1619 H1623 0.985 . S
H1620 N1615 0.984 . S
H1621 N1615 0.985 . S
H1622 N1619 0.984 . S
H1623 N1619 0.985 . S
H1624 N1618 0.984 . S
H1625 N1618 0.984 . S
H1626 N1614 0.984 . S
H1627 N1614 0.985 . S
C1628 C1629 1.363 . S
C1628 C1634 1.379 . S
C1628 N1636 1.356 . S
C1629 C1628 1.363 . S
C1629 C1635 1.363 . S
C1630 C1631 1.363 . S
C1630 C1635 1.379 . S
C1630 N1637 1.356 . S
C1631 C1630 1.363 . S
C1631 C1634 1.363 . S
N1632 C1634 1.356 . S
N1632 H1644 0.984 . S
N1632 H1645 0.985 . S
N1633 C1635 1.356 . S
N1633 H1638 0.984 . S
N1633 H1639 0.985 . S
C1634 C1628 1.379 . S
C1634 C1631 1.363 . S
C1634 N1632 1.356 . S
C1635 C1629 1.363 . S
C1635 C1630 1.379 . S
C1635 N1633 1.356 . S
N1636 C1628 1.356 . S
N1636 H1642 0.984 . S
N1636 H1643 0.984 . S
N1637 C1630 1.356 . S
N1637 H1640 0.984 . S
N1637 H1641 0.985 . S
H1638 N1633 0.984 . S
H1639 N1633 0.985 . S
H1640 N1637 0.984 . S
H1641 N1637 0.985 . S
H1642 N1636 0.984 . S
H1643 N1636 0.984 . S
H1644 N1632 0.984 . S
H1645 N1632 0.985 . S
C1646 C1647 1.363 . S
C1646 C1652 1.379 . S
C1646 N1654 1.356 . S
C1647 C1646 1.363 . S
C1647 C1653 1.363 . S
C1648 C1649 1.363 . S
C1648 C1653 1.379 . S
C1648 N1655 1.356 . S
C1649 C1648 1.363 . S
C1649 C1652 1.363 . S
N1650 C1652 1.356 . S
N1650 H1662 0.984 . S
N1650 H1663 0.985 . S
N1651 C1653 1.356 . S
N1651 H1656 0.984 . S
N1651 H1657 0.985 . S
C1652 C1646 1.379 . S
C1652 C1649 1.363 . S
C1652 N1650 1.356 . S
C1653 C1647 1.363 . S
C1653 C1648 1.379 . S
C1653 N1651 1.356 . S
N1654 C1646 1.356 . S
N1654 H1660 0.984 . S
N1654 H1661 0.984 . S
N1655 C1648 1.356 . S
N1655 H1658 0.984 . S
N1655 H1659 0.985 . S
H1656 N1651 0.984 . S
H1657 N1651 0.985 . S
H1658 N1655 0.984 . S
H1659 N1655 0.985 . S
H1660 N1654 0.984 . S
H1661 N1654 0.984 . S
H1662 N1650 0.984 . S
H1663 N1650 0.985 . S
C1664 C1665 1.363 . S
C1664 C1670 1.379 . S
C1664 N1672 1.356 . S
C1665 C1664 1.363 . S
C1665 C1671 1.363 . S
C1666 C1667 1.363 . S
C1666 C1671 1.379 . S
C1666 N1673 1.356 . S
C1667 C1666 1.363 . S
C1667 C1670 1.363 . S
N1668 C1670 1.356 . S
N1668 H1680 0.984 . S
N1668 H1681 0.985 . S
N1669 C1671 1.356 . S
N1669 H1674 0.984 . S
N1669 H1675 0.985 . S
C1670 C1664 1.379 . S
C1670 C1667 1.363 . S
C1670 N1668 1.356 . S
C1671 C1665 1.363 . S
C1671 C1666 1.379 . S
C1671 N1669 1.356 . S
N1672 C1664 1.356 . S
N1672 H1678 0.984 . S
N1672 H1679 0.984 . S
N1673 C1666 1.356 . S
N1673 H1676 0.984 . S
N1673 H1677 0.985 . S
H1674 N1669 0.984 . S
H1675 N1669 0.985 . S
H1676 N1673 0.984 . S
H1677 N1673 0.985 . S
H1678 N1672 0.984 . S
H1679 N1672 0.984 . S
H1680 N1668 0.984 . S
H1681 N1668 0.985 . S
C1682 C1683 1.363 1_545 S
C1682 C1688 1.379 . S
C1682 N1690 1.356 . S
C1683 C1682 1.363 1_565 S
C1683 C1689 1.363 . S
C1684 C1685 1.363 1_565 S
C1684 C1689 1.379 . S
C1684 N1691 1.356 . S
C1685 C1684 1.363 1_545 S
C1685 C1688 1.363 . S
N1686 C1688 1.356 . S
N1686 H1698 0.984 . S
N1686 H1699 0.985 . S
N1687 C1689 1.356 . S
N1687 H1692 0.984 . S
N1687 H1693 0.985 . S
C1688 C1682 1.379 . S
C1688 C1685 1.363 . S
C1688 N1686 1.356 . S
C1689 C1683 1.363 . S
C1689 C1684 1.379 . S
C1689 N1687 1.356 . S
N1690 C1682 1.356 . S
N1690 H1696 0.984 . S
N1690 H1697 0.982 1_545 S
N1691 C1684 1.356 . S
N1691 H1694 0.982 1_565 S
N1691 H1695 0.985 . S
H1692 N1687 0.984 . S
H1693 N1687 0.985 . S
H1694 N1691 0.982 1_545 S
H1695 N1691 0.985 . S
H1696 N1690 0.984 . S
H1697 N1690 0.982 1_565 S
H1698 N1686 0.984 . S
H1699 N1686 0.985 . S
C1700 C1701 1.363 . S
C1700 C1706 1.379 . S
C1700 N1708 1.356 . S
C1701 C1700 1.363 . S
C1701 C1707 1.363 . S
C1702 C1703 1.363 . S
C1702 C1707 1.379 . S
C1702 N1709 1.356 . S
C1703 C1702 1.363 . S
C1703 C1706 1.363 . S
N1704 C1706 1.356 . S
N1704 H1716 0.984 . S
N1704 H1717 0.985 . S
N1705 C1707 1.356 . S
N1705 H1710 0.984 . S
N1705 H1711 0.985 . S
C1706 C1700 1.379 . S
C1706 C1703 1.363 . S
C1706 N1704 1.356 . S
C1707 C1701 1.363 . S
C1707 C1702 1.379 . S
C1707 N1705 1.356 . S
N1708 C1700 1.356 . S
N1708 H1714 0.984 . S
N1708 H1715 0.984 . S
N1709 C1702 1.356 . S
N1709 H1712 0.984 . S
N1709 H1713 0.985 . S
H1710 N1705 0.984 . S
H1711 N1705 0.985 . S
H1712 N1709 0.984 . S
H1713 N1709 0.985 . S
H1714 N1708 0.984 . S
H1715 N1708 0.984 . S
H1716 N1704 0.984 . S
H1717 N1704 0.985 . S
C1718 C1719 1.363 . S
C1718 C1724 1.379 1_556 S
C1718 N1726 1.356 . S
C1719 C1718 1.363 . S
C1719 C1725 1.363 1_545 S
C1720 C1721 1.363 . S
C1720 C1725 1.379 1_554 S
C1720 N1727 1.356 . S
C1721 C1720 1.363 . S
C1721 C1724 1.363 1_565 S
N1722 C1724 1.356 . S
N1722 H1734 0.984 . S
N1722 H1735 0.985 . S
N1723 C1725 1.356 . S
N1723 H1728 0.984 . S
N1723 H1729 0.985 . S
C1724 C1718 1.379 1_554 S
C1724 C1721 1.363 1_545 S
C1724 N1722 1.356 . S
C1725 C1719 1.363 1_565 S
C1725 C1720 1.379 1_556 S
C1725 N1723 1.356 . S
N1726 C1718 1.356 . S
N1726 H1732 0.984 . S
N1726 H1733 0.984 . S
N1727 C1720 1.356 . S
N1727 H1730 0.984 . S
N1727 H1731 0.985 . S
H1728 N1723 0.984 . S
H1729 N1723 0.985 . S
H1730 N1727 0.984 . S
H1731 N1727 0.985 . S
H1732 N1726 0.984 . S
H1733 N1726 0.984 . S
H1734 N1722 0.984 . S
H1735 N1722 0.985 . S
C1736 C1737 1.363 . S
C1736 C1742 1.379 . S
C1736 N1744 1.356 . S
C1737 C1736 1.363 . S
C1737 C1743 1.363 . S
C1738 C1739 1.363 . S
C1738 C1743 1.379 . S
C1738 N1745 1.356 . S
C1739 C1738 1.363 . S
C1739 C1742 1.363 . S
N1740 C1742 1.356 . S
N1740 H1752 0.984 . S
N1740 H1753 0.985 . S
N1741 C1743 1.356 . S
N1741 H1746 0.984 . S
N1741 H1747 0.985 . S
C1742 C1736 1.379 . S
C1742 C1739 1.363 . S
C1742 N1740 1.356 . S
C1743 C1737 1.363 . S
C1743 C1738 1.379 . S
C1743 N1741 1.356 . S
N1744 C1736 1.356 . S
N1744 H1750 0.984 . S
N1744 H1751 0.984 . S
N1745 C1738 1.356 . S
N1745 H1748 0.984 . S
N1745 H1749 0.985 . S
H1746 N1741 0.984 . S
H1747 N1741 0.985 . S
H1748 N1745 0.984 . S
H1749 N1745 0.985 . S
H1750 N1744 0.984 . S
H1751 N1744 0.984 . S
H1752 N1740 0.984 . S
H1753 N1740 0.985 . S
C1754 C1755 1.363 1_545 S
C1754 C1760 1.379 . S
C1754 N1762 1.356 . S
C1755 C1754 1.363 1_565 S
C1755 C1761 1.363 . S
C1756 C1757 1.363 1_565 S
C1756 C1761 1.379 . S
C1756 N1763 1.356 . S
C1757 C1756 1.363 1_545 S
C1757 C1760 1.363 . S
N1758 C1760 1.356 . S
N1758 H1770 0.984 . S
N1758 H1771 0.985 . S
N1759 C1761 1.356 . S
N1759 H1764 0.984 . S
N1759 H1765 0.985 . S
C1760 C1754 1.379 . S
C1760 C1757 1.363 . S
C1760 N1758 1.356 . S
C1761 C1755 1.363 . S
C1761 C1756 1.379 . S
C1761 N1759 1.356 . S
N1762 C1754 1.356 . S
N1762 H1768 0.984 . S
N1762 H1769 0.984 . S
N1763 C1756 1.356 . S
N1763 H1766 0.984 . S
N1763 H1767 0.985 . S
H1764 N1759 0.984 . S
H1765 N1759 0.985 . S
H1766 N1763 0.984 . S
H1767 N1763 0.985 . S
H1768 N1762 0.984 . S
H1769 N1762 0.984 . S
H1770 N1758 0.984 . S
H1771 N1758 0.985 . S
C1772 C1773 1.363 . S
C1772 C1778 1.379 . S
C1772 N1780 1.356 . S
C1773 C1772 1.363 . S
C1773 C1779 1.363 . S
C1774 C1775 1.363 . S
C1774 C1779 1.379 . S
C1774 N1781 1.356 . S
C1775 C1774 1.363 . S
C1775 C1778 1.363 . S
N1776 C1778 1.356 . S
N1776 H1788 0.984 . S
N1776 H1789 0.985 . S
N1777 C1779 1.356 . S
N1777 H1782 0.984 . S
N1777 H1783 0.985 . S
C1778 C1772 1.379 . S
C1778 C1775 1.363 . S
C1778 N1776 1.356 . S
C1779 C1773 1.363 . S
C1779 C1774 1.379 . S
C1779 N1777 1.356 . S
N1780 C1772 1.356 . S
N1780 H1786 0.984 . S
N1780 H1787 0.984 . S
N1781 C1774 1.356 . S
N1781 H1784 0.984 . S
N1781 H1785 0.985 . S
H1782 N1777 0.984 . S
H1783 N1777 0.985 . S
H1784 N1781 0.984 . S
H1785 N1781 0.985 . S
H1786 N1780 0.984 . S
H1787 N1780 0.984 . S
H1788 N1776 0.984 . S
H1789 N1776 0.985 . S
C1790 C1791 1.363 . S
C1790 C1796 1.379 1_556 S
C1790 N1798 1.356 . S
C1791 C1790 1.363 . S
C1791 C1797 1.363 1_545 S
C1792 C1793 1.363 . S
C1792 C1797 1.379 1_554 S
C1792 N1799 1.356 . S
C1793 C1792 1.363 . S
C1793 C1796 1.363 1_565 S
N1794 C1796 1.356 . S
N1794 H1806 0.984 . S
N1794 H1807 0.985 . S
N1795 C1797 1.356 . S
N1795 H1800 0.984 . S
N1795 H1801 0.985 . S
C1796 C1790 1.379 1_554 S
C1796 C1793 1.363 1_545 S
C1796 N1794 1.356 . S
C1797 C1791 1.363 1_565 S
C1797 C1792 1.379 1_556 S
C1797 N1795 1.356 . S
N1798 C1790 1.356 . S
N1798 H1804 0.984 . S
N1798 H1805 0.984 . S
N1799 C1792 1.356 . S
N1799 H1802 0.984 . S
N1799 H1803 0.985 . S
H1800 N1795 0.984 . S
H1801 N1795 0.985 . S
H1802 N1799 0.984 . S
H1803 N1799 0.985 . S
H1804 N1798 0.984 . S
H1805 N1798 0.984 . S
H1806 N1794 0.984 . S
H1807 N1794 0.985 . S
C1808 C1809 1.363 . S
C1808 C1814 1.379 . S
C1808 N1816 1.356 . S
C1809 C1808 1.363 . S
C1809 C1815 1.363 . S
C1810 C1811 1.363 . S
C1810 C1815 1.379 . S
C1810 N1817 1.356 . S
C1811 C1810 1.363 . S
C1811 C1814 1.363 . S
N1812 C1814 1.356 . S
N1812 H1824 0.984 . S
N1812 H1825 0.985 . S
N1813 C1815 1.356 . S
N1813 H1818 0.984 . S
N1813 H1819 0.985 . S
C1814 C1808 1.379 . S
C1814 C1811 1.363 . S
C1814 N1812 1.356 . S
C1815 C1809 1.363 . S
C1815 C1810 1.379 . S
C1815 N1813 1.356 . S
N1816 C1808 1.356 . S
N1816 H1822 0.984 . S
N1816 H1823 0.984 . S
N1817 C1810 1.356 . S
N1817 H1820 0.984 . S
N1817 H1821 0.985 . S
H1818 N1813 0.984 . S
H1819 N1813 0.985 . S
H1820 N1817 0.984 . S
H1821 N1817 0.985 . S
H1822 N1816 0.984 . S
H1823 N1816 0.984 . S
H1824 N1812 0.984 . S
H1825 N1812 0.985 . S
C1826 C1827 1.363 . S
C1826 C1832 1.379 1_556 S
C1826 N1834 1.356 . S
C1827 C1826 1.363 . S
C1827 C1833 1.363 . S
C1828 C1829 1.363 . S
C1828 C1833 1.379 1_554 S
C1828 N1835 1.356 . S
C1829 C1828 1.363 . S
C1829 C1832 1.363 . S
N1830 C1832 1.356 . S
N1830 H1842 0.984 . S
N1830 H1843 0.985 . S
N1831 C1833 1.356 . S
N1831 H1836 0.984 . S
N1831 H1837 0.985 . S
C1832 C1826 1.379 1_554 S
C1832 C1829 1.363 . S
C1832 N1830 1.356 . S
C1833 C1827 1.363 . S
C1833 C1828 1.379 1_556 S
C1833 N1831 1.356 . S
N1834 C1826 1.356 . S
N1834 H1840 0.984 . S
N1834 H1841 0.984 . S
N1835 C1828 1.356 . S
N1835 H1838 0.984 . S
N1835 H1839 0.985 . S
H1836 N1831 0.984 . S
H1837 N1831 0.985 . S
H1838 N1835 0.984 . S
H1839 N1835 0.985 . S
H1840 N1834 0.984 . S
H1841 N1834 0.984 . S
H1842 N1830 0.984 . S
H1843 N1830 0.985 . S
C1844 C1845 1.363 . S
C1844 C1850 1.379 . S
C1844 N1852 1.356 . S
C1845 C1844 1.363 . S
C1845 C1851 1.363 . S
C1846 C1847 1.363 . S
C1846 C1851 1.379 . S
C1846 N1853 1.356 . S
C1847 C1846 1.363 . S
C1847 C1850 1.363 . S
N1848 C1850 1.356 . S
N1848 H1860 0.984 . S
N1848 H1861 0.985 . S
N1849 C1851 1.356 . S
N1849 H1854 0.984 . S
N1849 H1855 0.985 . S
C1850 C1844 1.379 . S
C1850 C1847 1.363 . S
C1850 N1848 1.356 . S
C1851 C1845 1.363 . S
C1851 C1846 1.379 . S
C1851 N1849 1.356 . S
N1852 C1844 1.356 . S
N1852 H1858 0.984 . S
N1852 H1859 0.984 . S
N1853 C1846 1.356 . S
N1853 H1856 0.984 . S
N1853 H1857 0.985 . S
H1854 N1849 0.984 . S
H1855 N1849 0.985 . S
H1856 N1853 0.984 . S
H1857 N1853 0.985 . S
H1858 N1852 0.984 . S
H1859 N1852 0.984 . S
H1860 N1848 0.984 . S
H1861 N1848 0.985 . S
C1862 C1863 1.363 . S
C1862 C1868 1.379 . S
C1862 N1870 1.356 . S
C1863 C1862 1.363 . S
C1863 C1869 1.363 . S
C1864 C1865 1.363 . S
C1864 C1869 1.379 . S
C1864 N1871 1.356 . S
C1865 C1864 1.363 . S
C1865 C1868 1.363 . S
N1866 C1868 1.356 . S
N1866 H1878 0.984 . S
N1866 H1879 0.985 . S
N1867 C1869 1.356 . S
N1867 H1872 0.984 . S
N1867 H1873 0.985 . S
C1868 C1862 1.379 . S
C1868 C1865 1.363 . S
C1868 N1866 1.356 . S
C1869 C1863 1.363 . S
C1869 C1864 1.379 . S
C1869 N1867 1.356 . S
N1870 C1862 1.356 . S
N1870 H1876 0.984 . S
N1870 H1877 0.984 . S
N1871 C1864 1.356 . S
N1871 H1874 0.984 . S
N1871 H1875 0.985 . S
H1872 N1867 0.984 . S
H1873 N1867 0.985 . S
H1874 N1871 0.984 . S
H1875 N1871 0.985 . S
H1876 N1870 0.984 . S
H1877 N1870 0.984 . S
H1878 N1866 0.984 . S
H1879 N1866 0.985 . S
C1880 C1881 1.363 . S
C1880 C1886 1.379 . S
C1880 N1888 1.356 . S
C1881 C1880 1.363 . S
C1881 C1887 1.363 . S
C1882 C1883 1.363 . S
C1882 C1887 1.379 . S
C1882 N1889 1.356 . S
C1883 C1882 1.363 . S
C1883 C1886 1.363 . S
N1884 C1886 1.356 . S
N1884 H1896 0.984 . S
N1884 H1897 0.985 . S
N1885 C1887 1.356 . S
N1885 H1890 0.984 . S
N1885 H1891 0.985 . S
C1886 C1880 1.379 . S
C1886 C1883 1.363 . S
C1886 N1884 1.356 . S
C1887 C1881 1.363 . S
C1887 C1882 1.379 . S
C1887 N1885 1.356 . S
N1888 C1880 1.356 . S
N1888 H1894 0.984 . S
N1888 H1895 0.984 . S
N1889 C1882 1.356 . S
N1889 H1892 0.984 . S
N1889 H1893 0.985 . S
H1890 N1885 0.984 . S
H1891 N1885 0.985 . S
H1892 N1889 0.984 . S
H1893 N1889 0.985 . S
H1894 N1888 0.984 . S
H1895 N1888 0.984 . S
H1896 N1884 0.984 . S
H1897 N1884 0.985 . S
C1898 C1899 1.363 . S
C1898 C1904 1.379 1_556 S
C1898 N1906 1.356 . S
C1899 C1898 1.363 . S
C1899 C1905 1.363 . S
C1900 C1901 1.363 . S
C1900 C1905 1.379 1_554 S
C1900 N1907 1.356 . S
C1901 C1900 1.363 . S
C1901 C1904 1.363 . S
N1902 C1904 1.356 . S
N1902 H1914 0.984 . S
N1902 H1915 0.985 . S
N1903 C1905 1.356 . S
N1903 H1908 0.984 . S
N1903 H1909 0.985 . S
C1904 C1898 1.379 1_554 S
C1904 C1901 1.363 . S
C1904 N1902 1.356 . S
C1905 C1899 1.363 . S
C1905 C1900 1.379 1_556 S
C1905 N1903 1.356 . S
N1906 C1898 1.356 . S
N1906 H1912 0.984 . S
N1906 H1913 0.984 . S
N1907 C1900 1.356 . S
N1907 H1910 0.984 . S
N1907 H1911 0.985 . S
H1908 N1903 0.984 . S
H1909 N1903 0.985 . S
H1910 N1907 0.984 . S
H1911 N1907 0.985 . S
H1912 N1906 0.984 . S
H1913 N1906 0.984 . S
H1914 N1902 0.984 . S
H1915 N1902 0.985 . S
C1916 C1917 1.363 . S
C1916 C1922 1.379 . S
C1916 N1924 1.356 . S
C1917 C1916 1.363 . S
C1917 C1923 1.363 . S
C1918 C1919 1.363 . S
C1918 C1923 1.379 . S
C1918 N1925 1.356 . S
C1919 C1918 1.363 . S
C1919 C1922 1.363 . S
N1920 C1922 1.356 . S
N1920 H1932 0.984 . S
N1920 H1933 0.985 . S
N1921 C1923 1.356 . S
N1921 H1926 0.984 . S
N1921 H1927 0.985 . S
C1922 C1916 1.379 . S
C1922 C1919 1.363 . S
C1922 N1920 1.356 . S
C1923 C1917 1.363 . S
C1923 C1918 1.379 . S
C1923 N1921 1.356 . S
N1924 C1916 1.356 . S
N1924 H1930 0.984 . S
N1924 H1931 0.984 . S
N1925 C1918 1.356 . S
N1925 H1928 0.984 . S
N1925 H1929 0.985 . S
H1926 N1921 0.984 . S
H1927 N1921 0.985 . S
H1928 N1925 0.984 . S
H1929 N1925 0.985 . S
H1930 N1924 0.984 . S
H1931 N1924 0.984 . S
H1932 N1920 0.984 . S
H1933 N1920 0.985 . S
C1934 C1935 1.363 . S
C1934 C1940 1.379 . S
C1934 N1942 1.356 . S
C1935 C1934 1.363 . S
C1935 C1941 1.363 . S
C1936 C1937 1.363 . S
C1936 C1941 1.379 . S
C1936 N1943 1.356 . S
C1937 C1936 1.363 . S
C1937 C1940 1.363 . S
N1938 C1940 1.356 . S
N1938 H1950 0.984 . S
N1938 H1951 0.985 . S
N1939 C1941 1.356 . S
N1939 H1944 0.984 . S
N1939 H1945 0.985 . S
C1940 C1934 1.379 . S
C1940 C1937 1.363 . S
C1940 N1938 1.356 . S
C1941 C1935 1.363 . S
C1941 C1936 1.379 . S
C1941 N1939 1.356 . S
N1942 C1934 1.356 . S
N1942 H1948 0.984 . S
N1942 H1949 0.984 . S
N1943 C1936 1.356 . S
N1943 H1946 0.984 . S
N1943 H1947 0.985 . S
H1944 N1939 0.984 . S
H1945 N1939 0.985 . S
H1946 N1943 0.984 . S
H1947 N1943 0.985 . S
H1948 N1942 0.984 . S
H1949 N1942 0.984 . S
H1950 N1938 0.984 . S
H1951 N1938 0.985 . S
C1952 C1953 1.363 . S
C1952 C1958 1.379 . S
C1952 N1960 1.356 . S
C1953 C1952 1.363 . S
C1953 C1959 1.363 . S
C1954 C1955 1.363 . S
C1954 C1959 1.379 . S
C1954 N1961 1.356 . S
C1955 C1954 1.363 . S
C1955 C1958 1.363 . S
N1956 C1958 1.356 . S
N1956 H1968 0.984 . S
N1956 H1969 0.985 . S
N1957 C1959 1.356 . S
N1957 H1962 0.984 . S
N1957 H1963 0.985 . S
C1958 C1952 1.379 . S
C1958 C1955 1.363 . S
C1958 N1956 1.356 . S
C1959 C1953 1.363 . S
C1959 C1954 1.379 . S
C1959 N1957 1.356 . S
N1960 C1952 1.356 . S
N1960 H1966 0.984 . S
N1960 H1967 0.984 . S
N1961 C1954 1.356 . S
N1961 H1964 0.984 . S
N1961 H1965 0.985 . S
H1962 N1957 0.984 . S
H1963 N1957 0.985 . S
H1964 N1961 0.984 . S
H1965 N1961 0.985 . S
H1966 N1960 0.984 . S
H1967 N1960 0.984 . S
H1968 N1956 0.984 . S
H1969 N1956 0.985 . S
C1970 C1971 1.363 . S
C1970 C1976 1.379 . S
C1970 N1978 1.356 . S
C1971 C1970 1.363 . S
C1971 C1977 1.363 . S
C1972 C1973 1.363 . S
C1972 C1977 1.379 . S
C1972 N1979 1.356 . S
C1973 C1972 1.363 . S
C1973 C1976 1.363 . S
N1974 C1976 1.356 . S
N1974 H1986 0.984 . S
N1974 H1987 0.985 . S
N1975 C1977 1.356 . S
N1975 H1980 0.984 . S
N1975 H1981 0.985 . S
C1976 C1970 1.379 . S
C1976 C1973 1.363 . S
C1976 N1974 1.356 . S
C1977 C1971 1.363 . S
C1977 C1972 1.379 . S
C1977 N1975 1.356 . S
N1978 C1970 1.356 . S
N1978 H1984 0.984 . S
N1978 H1985 0.984 . S
N1979 C1972 1.356 . S
N1979 H1982 0.984 . S
N1979 H1983 0.985 . S
H1980 N1975 0.984 . S
H1981 N1975 0.985 . S
H1982 N1979 0.984 . S
H1983 N1979 0.985 . S
H1984 N1978 0.984 . S
H1985 N1978 0.984 . S
H1986 N1974 0.984 . S
H1987 N1974 0.985 . S
C1988 C1989 1.363 . S
C1988 C1994 1.379 . S
C1988 N1996 1.356 . S
C1989 C1988 1.363 . S
C1989 C1995 1.363 . S
C1990 C1991 1.363 . S
C1990 C1995 1.379 . S
C1990 N1997 1.356 1_565 S
C1991 C1990 1.363 . S
C1991 C1994 1.363 . S
N1992 C1994 1.356 . S
N1992 H2004 0.984 . S
N1992 H2005 0.985 . S
N1993 C1995 1.356 . S
N1993 H1998 0.984 . S
N1993 H1999 0.985 . S
C1994 C1988 1.379 . S
C1994 C1991 1.363 . S
C1994 N1992 1.356 . S
C1995 C1989 1.363 . S
C1995 C1990 1.379 . S
C1995 N1993 1.356 . S
N1996 C1988 1.356 . S
N1996 H2002 0.984 . S
N1996 H2003 0.984 . S
N1997 C1990 1.356 1_545 S
N1997 H2000 0.984 . S
N1997 H2001 0.985 . S
H1998 N1993 0.984 . S
H1999 N1993 0.985 . S
H2000 N1997 0.984 . S
H2001 N1997 0.985 . S
H2002 N1996 0.984 . S
H2003 N1996 0.984 . S
H2004 N1992 0.984 . S
H2005 N1992 0.985 . S
C2006 C2007 1.363 . S
C2006 C2012 1.379 . S
C2006 N2014 1.356 . S
C2007 C2006 1.363 . S
C2007 C2013 1.363 . S
C2008 C2009 1.363 . S
C2008 C2013 1.379 . S
C2008 N2015 1.356 . S
C2009 C2008 1.363 . S
C2009 C2012 1.363 . S
N2010 C2012 1.356 . S
N2010 H2022 0.984 . S
N2010 H2023 0.985 . S
N2011 C2013 1.356 . S
N2011 H2016 0.984 . S
N2011 H2017 0.985 . S
C2012 C2006 1.379 . S
C2012 C2009 1.363 . S
C2012 N2010 1.356 . S
C2013 C2007 1.363 . S
C2013 C2008 1.379 . S
C2013 N2011 1.356 . S
N2014 C2006 1.356 . S
N2014 H2020 0.984 . S
N2014 H2021 0.984 . S
N2015 C2008 1.356 . S
N2015 H2018 0.984 . S
N2015 H2019 0.985 . S
H2016 N2011 0.984 . S
H2017 N2011 0.985 . S
H2018 N2015 0.984 . S
H2019 N2015 0.985 . S
H2020 N2014 0.984 . S
H2021 N2014 0.984 . S
H2022 N2010 0.984 . S
H2023 N2010 0.985 . S
C2024 C2025 1.363 . S
C2024 C2030 1.379 . S
C2024 N2032 1.356 . S
C2025 C2024 1.363 . S
C2025 C2031 1.363 . S
C2026 C2027 1.363 . S
C2026 C2031 1.379 . S
C2026 N2033 1.356 . S
C2027 C2026 1.363 . S
C2027 C2030 1.363 . S
N2028 C2030 1.356 . S
N2028 H2040 0.984 . S
N2028 H2041 0.985 . S
N2029 C2031 1.356 . S
N2029 H2034 0.984 . S
N2029 H2035 0.985 . S
C2030 C2024 1.379 . S
C2030 C2027 1.363 . S
C2030 N2028 1.356 . S
C2031 C2025 1.363 . S
C2031 C2026 1.379 . S
C2031 N2029 1.356 . S
N2032 C2024 1.356 . S
N2032 H2038 0.984 . S
N2032 H2039 0.984 . S
N2033 C2026 1.356 . S
N2033 H2036 0.984 . S
N2033 H2037 0.985 . S
H2034 N2029 0.984 . S
H2035 N2029 0.985 . S
H2036 N2033 0.984 . S
H2037 N2033 0.985 . S
H2038 N2032 0.984 . S
H2039 N2032 0.984 . S
H2040 N2028 0.984 . S
H2041 N2028 0.985 . S
C2042 C2043 1.363 . S
C2042 C2048 1.379 . S
C2042 N2050 1.356 1_565 S
C2043 C2042 1.363 . S
C2043 C2049 1.363 . S
C2044 C2045 1.363 . S
C2044 C2049 1.379 . S
C2044 N2051 1.356 . S
C2045 C2044 1.363 . S
C2045 C2048 1.363 . S
N2046 C2048 1.356 . S
N2046 H2058 0.984 . S
N2046 H2059 0.985 . S
N2047 C2049 1.356 . S
N2047 H2052 0.984 . S
N2047 H2053 0.985 . S
C2048 C2042 1.379 . S
C2048 C2045 1.363 . S
C2048 N2046 1.356 . S
C2049 C2043 1.363 . S
C2049 C2044 1.379 . S
C2049 N2047 1.356 . S
N2050 C2042 1.356 1_545 S
N2050 H2056 0.984 . S
N2050 H2057 0.984 . S
N2051 C2044 1.356 . S
N2051 H2054 0.984 . S
N2051 H2055 0.985 . S
H2052 N2047 0.984 . S
H2053 N2047 0.985 . S
H2054 N2051 0.984 . S
H2055 N2051 0.985 . S
H2056 N2050 0.984 . S
H2057 N2050 0.984 . S
H2058 N2046 0.984 . S
H2059 N2046 0.985 . S
C2060 C2061 1.363 . S
C2060 C2066 1.379 . S
C2060 N2068 1.356 . S
C2061 C2060 1.363 . S
C2061 C2067 1.363 . S
C2062 C2063 1.363 . S
C2062 C2067 1.379 . S
C2062 N2069 1.356 . S
C2063 C2062 1.363 . S
C2063 C2066 1.363 . S
N2064 C2066 1.356 . S
N2064 H2076 0.984 . S
N2064 H2077 0.985 . S
N2065 C2067 1.356 . S
N2065 H2070 0.984 . S
N2065 H2071 0.985 . S
C2066 C2060 1.379 . S
C2066 C2063 1.363 . S
C2066 N2064 1.356 . S
C2067 C2061 1.363 . S
C2067 C2062 1.379 . S
C2067 N2065 1.356 . S
N2068 C2060 1.356 . S
N2068 H2074 0.984 . S
N2068 H2075 0.984 . S
N2069 C2062 1.356 . S
N2069 H2072 0.984 . S
N2069 H2073 0.985 . S
H2070 N2065 0.984 . S
H2071 N2065 0.985 . S
H2072 N2069 0.984 . S
H2073 N2069 0.985 . S
H2074 N2068 0.984 . S
H2075 N2068 0.984 . S
H2076 N2064 0.984 . S
H2077 N2064 0.985 . S
C2078 C2079 1.363 . S
C2078 C2084 1.379 . S
C2078 N2086 1.356 . S
C2079 C2078 1.363 . S
C2079 C2085 1.363 . S
C2080 C2081 1.363 . S
C2080 C2085 1.379 . S
C2080 N2087 1.356 . S
C2081 C2080 1.363 . S
C2081 C2084 1.363 . S
N2082 C2084 1.356 . S
N2082 H2094 0.984 . S
N2082 H2095 0.985 . S
N2083 C2085 1.356 . S
N2083 H2088 0.984 . S
N2083 H2089 0.985 . S
C2084 C2078 1.379 . S
C2084 C2081 1.363 . S
C2084 N2082 1.356 . S
C2085 C2079 1.363 . S
C2085 C2080 1.379 . S
C2085 N2083 1.356 . S
N2086 C2078 1.356 . S
N2086 H2092 0.984 1_545 S
N2086 H2093 0.984 1_545 S
N2087 C2080 1.356 . S
N2087 H2090 0.984 . S
N2087 H2091 0.985 . S
H2088 N2083 0.984 . S
H2089 N2083 0.985 . S
H2090 N2087 0.984 . S
H2091 N2087 0.985 . S
H2092 N2086 0.984 1_565 S
H2093 N2086 0.984 1_565 S
H2094 N2082 0.984 . S
H2095 N2082 0.985 . S
C2096 C2097 1.363 . S
C2096 C2102 1.379 . S
C2096 N2104 1.356 . S
C2097 C2096 1.363 . S
C2097 C2103 1.363 . S
C2098 C2099 1.363 . S
C2098 C2103 1.379 . S
C2098 N2105 1.356 . S
C2099 C2098 1.363 . S
C2099 C2102 1.363 . S
N2100 C2102 1.356 . S
N2100 H2112 0.984 . S
N2100 H2113 0.985 . S
N2101 C2103 1.356 . S
N2101 H2106 0.984 . S
N2101 H2107 0.985 . S
C2102 C2096 1.379 . S
C2102 C2099 1.363 . S
C2102 N2100 1.356 . S
C2103 C2097 1.363 . S
C2103 C2098 1.379 . S
C2103 N2101 1.356 . S
N2104 C2096 1.356 . S
N2104 H2110 0.984 . S
N2104 H2111 0.984 . S
N2105 C2098 1.356 . S
N2105 H2108 0.984 . S
N2105 H2109 0.985 . S
H2106 N2101 0.984 . S
H2107 N2101 0.985 . S
H2108 N2105 0.984 . S
H2109 N2105 0.985 . S
H2110 N2104 0.984 . S
H2111 N2104 0.984 . S
H2112 N2100 0.984 . S
H2113 N2100 0.985 . S
C2114 C2115 1.363 . S
C2114 C2120 1.379 . S
C2114 N2122 1.356 . S
C2115 C2114 1.363 . S
C2115 C2121 1.363 . S
C2116 C2117 1.363 . S
C2116 C2121 1.379 . S
C2116 N2123 1.356 . S
C2117 C2116 1.363 . S
C2117 C2120 1.363 . S
N2118 C2120 1.356 . S
N2118 H2130 0.984 . S
N2118 H2131 0.985 . S
N2119 C2121 1.356 . S
N2119 H2124 0.984 . S
N2119 H2125 0.985 . S
C2120 C2114 1.379 . S
C2120 C2117 1.363 . S
C2120 N2118 1.356 . S
C2121 C2115 1.363 . S
C2121 C2116 1.379 . S
C2121 N2119 1.356 . S
N2122 C2114 1.356 . S
N2122 H2128 0.984 . S
N2122 H2129 0.984 . S
N2123 C2116 1.356 . S
N2123 H2126 0.984 . S
N2123 H2127 0.985 . S
H2124 N2119 0.984 . S
H2125 N2119 0.985 . S
H2126 N2123 0.984 . S
H2127 N2123 0.985 . S
H2128 N2122 0.984 . S
H2129 N2122 0.984 . S
H2130 N2118 0.984 . S
H2131 N2118 0.985 . S
C2132 C2133 1.363 . S
C2132 C2138 1.379 . S
C2132 N2140 1.356 . S
C2133 C2132 1.363 . S
C2133 C2139 1.363 . S
C2134 C2135 1.363 . S
C2134 C2139 1.379 . S
C2134 N2141 1.356 . S
C2135 C2134 1.363 . S
C2135 C2138 1.363 . S
N2136 C2138 1.356 . S
N2136 H2148 0.984 . S
N2136 H2149 0.985 . S
N2137 C2139 1.356 . S
N2137 H2142 0.984 . S
N2137 H2143 0.985 . S
C2138 C2132 1.379 . S
C2138 C2135 1.363 . S
C2138 N2136 1.356 . S
C2139 C2133 1.363 . S
C2139 C2134 1.379 . S
C2139 N2137 1.356 . S
N2140 C2132 1.356 . S
N2140 H2146 0.984 . S
N2140 H2147 0.984 . S
N2141 C2134 1.356 . S
N2141 H2144 0.984 . S
N2141 H2145 0.985 . S
H2142 N2137 0.984 . S
H2143 N2137 0.985 . S
H2144 N2141 0.984 . S
H2145 N2141 0.985 . S
H2146 N2140 0.984 . S
H2147 N2140 0.984 . S
H2148 N2136 0.984 . S
H2149 N2136 0.985 . S
C2150 C2151 1.363 . S
C2150 C2156 1.379 . S
C2150 N2158 1.356 . S
C2151 C2150 1.363 . S
C2151 C2157 1.363 . S
C2152 C2153 1.363 . S
C2152 C2157 1.379 . S
C2152 N2159 1.356 . S
C2153 C2152 1.363 . S
C2153 C2156 1.363 . S
N2154 C2156 1.356 . S
N2154 H2166 0.984 . S
N2154 H2167 0.985 . S
N2155 C2157 1.356 . S
N2155 H2160 0.984 . S
N2155 H2161 0.985 . S
C2156 C2150 1.379 . S
C2156 C2153 1.363 . S
C2156 N2154 1.356 . S
C2157 C2151 1.363 . S
C2157 C2152 1.379 . S
C2157 N2155 1.356 . S
N2158 C2150 1.356 . S
N2158 H2164 0.984 . S
N2158 H2165 0.984 . S
N2159 C2152 1.356 . S
N2159 H2162 0.984 . S
N2159 H2163 0.985 . S
H2160 N2155 0.984 . S
H2161 N2155 0.985 . S
H2162 N2159 0.984 . S
H2163 N2159 0.985 . S
H2164 N2158 0.984 . S
H2165 N2158 0.984 . S
H2166 N2154 0.984 . S
H2167 N2154 0.985 . S
C2168 C2169 1.363 . S
C2168 C2174 1.379 . S
C2168 N2176 1.356 . S
C2169 C2168 1.363 . S
C2169 C2175 1.363 . S
C2170 C2171 1.363 . S
C2170 C2175 1.379 . S
C2170 N2177 1.356 . S
C2171 C2170 1.363 . S
C2171 C2174 1.363 . S
N2172 C2174 1.356 . S
N2172 H2184 0.984 . S
N2172 H2185 0.985 . S
N2173 C2175 1.356 . S
N2173 H2178 0.984 . S
N2173 H2179 0.985 . S
C2174 C2168 1.379 . S
C2174 C2171 1.363 . S
C2174 N2172 1.356 . S
C2175 C2169 1.363 . S
C2175 C2170 1.379 . S
C2175 N2173 1.356 . S
N2176 C2168 1.356 . S
N2176 H2182 0.984 . S
N2176 H2183 0.984 . S
N2177 C2170 1.356 . S
N2177 H2180 0.984 . S
N2177 H2181 0.985 . S
H2178 N2173 0.984 . S
H2179 N2173 0.985 . S
H2180 N2177 0.984 . S
H2181 N2177 0.985 . S
H2182 N2176 0.984 . S
H2183 N2176 0.984 . S
H2184 N2172 0.984 . S
H2185 N2172 0.985 . S
C2186 C2187 1.363 . S
C2186 C2192 1.379 . S
C2186 N2194 1.356 . S
C2187 C2186 1.363 . S
C2187 C2193 1.363 . S
C2188 C2189 1.363 . S
C2188 C2193 1.379 . S
C2188 N2195 1.356 . S
C2189 C2188 1.363 . S
C2189 C2192 1.363 . S
N2190 C2192 1.356 . S
N2190 H2202 0.984 . S
N2190 H2203 0.985 . S
N2191 C2193 1.356 . S
N2191 H2196 0.984 . S
N2191 H2197 0.985 . S
C2192 C2186 1.379 . S
C2192 C2189 1.363 . S
C2192 N2190 1.356 . S
C2193 C2187 1.363 . S
C2193 C2188 1.379 . S
C2193 N2191 1.356 . S
N2194 C2186 1.356 . S
N2194 H2200 0.984 . S
N2194 H2201 0.984 . S
N2195 C2188 1.356 . S
N2195 H2198 0.984 . S
N2195 H2199 0.985 . S
H2196 N2191 0.984 . S
H2197 N2191 0.985 . S
H2198 N2195 0.984 . S
H2199 N2195 0.985 . S
H2200 N2194 0.984 . S
H2201 N2194 0.984 . S
H2202 N2190 0.984 . S
H2203 N2190 0.985 . S
C2204 C2205 1.363 . S
C2204 C2210 1.379 . S
C2204 N2212 1.356 . S
C2205 C2204 1.363 . S
C2205 C2211 1.363 . S
C2206 C2207 1.363 . S
C2206 C2211 1.379 . S
C2206 N2213 1.356 . S
C2207 C2206 1.363 . S
C2207 C2210 1.363 . S
N2208 C2210 1.356 . S
N2208 H2220 0.984 . S
N2208 H2221 0.985 . S
N2209 C2211 1.356 . S
N2209 H2214 0.984 . S
N2209 H2215 0.985 . S
C2210 C2204 1.379 . S
C2210 C2207 1.363 . S
C2210 N2208 1.356 . S
C2211 C2205 1.363 . S
C2211 C2206 1.379 . S
C2211 N2209 1.356 . S
N2212 C2204 1.356 . S
N2212 H2218 0.984 . S
N2212 H2219 0.984 . S
N2213 C2206 1.356 . S
N2213 H2216 0.984 . S
N2213 H2217 0.985 . S
H2214 N2209 0.984 . S
H2215 N2209 0.985 . S
H2216 N2213 0.984 . S
H2217 N2213 0.985 . S
H2218 N2212 0.984 . S
H2219 N2212 0.984 . S
H2220 N2208 0.984 . S
H2221 N2208 0.985 . S
C2222 C2223 1.363 . S
C2222 C2228 1.379 . S
C2222 N2230 1.356 . S
C2223 C2222 1.363 . S
C2223 C2229 1.363 . S
C2224 C2225 1.363 . S
C2224 C2229 1.379 . S
C2224 N2231 1.356 . S
C2225 C2224 1.363 . S
C2225 C2228 1.363 . S
N2226 C2228 1.356 . S
N2226 H2238 0.984 . S
N2226 H2239 0.985 . S
N2227 C2229 1.356 . S
N2227 H2232 0.984 . S
N2227 H2233 0.985 . S
C2228 C2222 1.379 . S
C2228 C2225 1.363 . S
C2228 N2226 1.356 . S
C2229 C2223 1.363 . S
C2229 C2224 1.379 . S
C2229 N2227 1.356 . S
N2230 C2222 1.356 . S
N2230 H2236 0.984 . S
N2230 H2237 0.984 . S
N2231 C2224 1.356 . S
N2231 H2234 0.984 . S
N2231 H2235 0.985 . S
H2232 N2227 0.984 . S
H2233 N2227 0.985 . S
H2234 N2231 0.984 . S
H2235 N2231 0.985 . S
H2236 N2230 0.984 . S
H2237 N2230 0.984 . S
H2238 N2226 0.984 . S
H2239 N2226 0.985 . S
C2240 C2241 1.363 . S
C2240 C2246 1.379 . S
C2240 N2248 1.356 . S
C2241 C2240 1.363 . S
C2241 C2247 1.363 . S
C2242 C2243 1.363 . S
C2242 C2247 1.379 . S
C2242 N2249 1.356 . S
C2243 C2242 1.363 . S
C2243 C2246 1.363 . S
N2244 C2246 1.356 . S
N2244 H2256 0.984 . S
N2244 H2257 0.985 . S
N2245 C2247 1.356 . S
N2245 H2250 0.984 . S
N2245 H2251 0.963 1_554 S
C2246 C2240 1.379 . S
C2246 C2243 1.363 . S
C2246 N2244 1.356 . S
C2247 C2241 1.363 . S
C2247 C2242 1.379 . S
C2247 N2245 1.356 . S
N2248 C2240 1.356 . S
N2248 H2254 0.984 . S
N2248 H2255 0.984 . S
N2249 C2242 1.356 . S
N2249 H2252 0.984 . S
N2249 H2253 0.963 1_554 S
H2250 N2245 0.984 . S
H2251 N2245 0.963 1_556 S
H2252 N2249 0.984 . S
H2253 N2249 0.963 1_556 S
H2254 N2248 0.984 . S
H2255 N2248 0.984 . S
H2256 N2244 0.984 . S
H2257 N2244 0.985 . S
C2258 C2259 1.363 . S
C2258 C2264 1.379 1_655 S
C2258 N2266 1.356 . S
C2259 C2258 1.363 . S
C2259 C2265 1.363 . S
C2260 C2261 1.363 . S
C2260 C2265 1.379 1_455 S
C2260 N2267 1.356 . S
C2261 C2260 1.363 . S
C2261 C2264 1.363 . S
N2262 C2264 1.356 . S
N2262 H2274 0.984 . S
N2262 H2275 0.985 . S
N2263 C2265 1.356 . S
N2263 H2268 0.984 . S
N2263 H2269 0.985 . S
C2264 C2258 1.379 1_455 S
C2264 C2261 1.363 . S
C2264 N2262 1.356 . S
C2265 C2259 1.363 . S
C2265 C2260 1.379 1_655 S
C2265 N2263 1.356 . S
N2266 C2258 1.356 . S
N2266 H2272 0.984 . S
N2266 H2273 0.984 . S
N2267 C2260 1.356 . S
N2267 H2270 0.984 . S
N2267 H2271 0.985 . S
H2268 N2263 0.984 . S
H2269 N2263 0.985 . S
H2270 N2267 0.984 . S
H2271 N2267 0.985 . S
H2272 N2266 0.984 . S
H2273 N2266 0.984 . S
H2274 N2262 0.984 . S
H2275 N2262 0.985 . S
C2276 C2277 1.363 . S
C2276 C2282 1.379 . S
C2276 N2284 1.356 . S
C2277 C2276 1.363 . S
C2277 C2283 1.363 . S
C2278 C2279 1.363 . S
C2278 C2283 1.379 . S
C2278 N2285 1.356 . S
C2279 C2278 1.363 . S
C2279 C2282 1.363 . S
N2280 C2282 1.356 . S
N2280 H2292 0.984 . S
N2280 H2293 0.985 . S
N2281 C2283 1.356 . S
N2281 H2286 0.984 . S
N2281 H2287 0.985 . S
C2282 C2276 1.379 . S
C2282 C2279 1.363 . S
C2282 N2280 1.356 . S
C2283 C2277 1.363 . S
C2283 C2278 1.379 . S
C2283 N2281 1.356 . S
N2284 C2276 1.356 . S
N2284 H2290 0.984 . S
N2284 H2291 0.984 . S
N2285 C2278 1.356 . S
N2285 H2288 0.984 . S
N2285 H2289 0.985 . S
H2286 N2281 0.984 . S
H2287 N2281 0.985 . S
H2288 N2285 0.984 . S
H2289 N2285 0.985 . S
H2290 N2284 0.984 . S
H2291 N2284 0.984 . S
H2292 N2280 0.984 . S
H2293 N2280 0.985 . S
C2294 C2295 1.363 . S
C2294 C2300 1.379 . S
C2294 N2302 1.356 1_545 S
C2295 C2294 1.363 . S
C2295 C2301 1.363 . S
C2296 C2297 1.363 . S
C2296 C2301 1.379 . S
C2296 N2303 1.356 . S
C2297 C2296 1.363 . S
C2297 C2300 1.363 . S
N2298 C2300 1.356 1_565 S
N2298 H2310 0.984 . S
N2298 H2311 0.985 . S
N2299 C2301 1.356 . S
N2299 H2304 0.984 . S
N2299 H2305 0.985 . S
C2300 C2294 1.379 . S
C2300 C2297 1.363 . S
C2300 N2298 1.356 1_545 S
C2301 C2295 1.363 . S
C2301 C2296 1.379 . S
C2301 N2299 1.356 . S
N2302 C2294 1.356 1_565 S
N2302 H2308 0.984 . S
N2302 H2309 0.984 . S
N2303 C2296 1.356 . S
N2303 H2306 0.984 . S
N2303 H2307 0.985 . S
H2304 N2299 0.984 . S
H2305 N2299 0.985 . S
H2306 N2303 0.984 . S
H2307 N2303 0.985 . S
H2308 N2302 0.984 . S
H2309 N2302 0.984 . S
H2310 N2298 0.984 . S
H2311 N2298 0.985 . S
C2312 C2313 1.363 . S
C2312 C2318 1.379 . S
C2312 N2320 1.356 . S
C2313 C2312 1.363 . S
C2313 C2319 1.363 . S
C2314 C2315 1.363 . S
C2314 C2319 1.379 . S
C2314 N2321 1.356 . S
C2315 C2314 1.363 . S
C2315 C2318 1.363 . S
N2316 C2318 1.356 . S
N2316 H2328 0.984 . S
N2316 H2329 0.985 . S
N2317 C2319 1.356 . S
N2317 H2322 0.984 . S
N2317 H2323 0.963 1_556 S
C2318 C2312 1.379 . S
C2318 C2315 1.363 . S
C2318 N2316 1.356 . S
C2319 C2313 1.363 . S
C2319 C2314 1.379 . S
C2319 N2317 1.356 . S
N2320 C2312 1.356 . S
N2320 H2326 0.984 . S
N2320 H2327 0.984 . S
N2321 C2314 1.356 . S
N2321 H2324 0.984 . S
N2321 H2325 0.963 1_556 S
H2322 N2317 0.984 . S
H2323 N2317 0.963 1_554 S
H2324 N2321 0.984 . S
H2325 N2321 0.963 1_554 S
H2326 N2320 0.984 . S
H2327 N2320 0.984 . S
H2328 N2316 0.984 . S
H2329 N2316 0.985 . S
C2330 C2331 1.363 . S
C2330 C2336 1.379 . S
C2330 N2338 1.356 . S
C2331 C2330 1.363 . S
C2331 C2337 1.363 . S
C2332 C2333 1.363 . S
C2332 C2337 1.379 . S
C2332 N2339 1.356 . S
C2333 C2332 1.363 . S
C2333 C2336 1.363 . S
N2334 C2336 1.356 . S
N2334 H2346 0.984 . S
N2334 H2347 0.985 . S
N2335 C2337 1.356 . S
N2335 H2340 0.984 . S
N2335 H2341 0.985 . S
C2336 C2330 1.379 . S
C2336 C2333 1.363 . S
C2336 N2334 1.356 . S
C2337 C2331 1.363 . S
C2337 C2332 1.379 . S
C2337 N2335 1.356 . S
N2338 C2330 1.356 . S
N2338 H2344 0.984 . S
N2338 H2345 0.984 . S
N2339 C2332 1.356 . S
N2339 H2342 0.984 . S
N2339 H2343 0.985 . S
H2340 N2335 0.984 . S
H2341 N2335 0.985 . S
H2342 N2339 0.984 . S
H2343 N2339 0.985 . S
H2344 N2338 0.984 . S
H2345 N2338 0.984 . S
H2346 N2334 0.984 . S
H2347 N2334 0.985 . S
C2348 C2349 1.363 . S
C2348 C2354 1.379 . S
C2348 N2356 1.356 . S
C2349 C2348 1.363 . S
C2349 C2355 1.363 . S
C2350 C2351 1.363 . S
C2350 C2355 1.379 . S
C2350 N2357 1.356 . S
C2351 C2350 1.363 . S
C2351 C2354 1.363 . S
N2352 C2354 1.356 . S
N2352 H2364 0.984 . S
N2352 H2365 0.985 . S
N2353 C2355 1.356 . S
N2353 H2358 0.984 . S
N2353 H2359 0.985 . S
C2354 C2348 1.379 . S
C2354 C2351 1.363 . S
C2354 N2352 1.356 . S
C2355 C2349 1.363 . S
C2355 C2350 1.379 . S
C2355 N2353 1.356 . S
N2356 C2348 1.356 . S
N2356 H2362 0.984 . S
N2356 H2363 0.984 . S
N2357 C2350 1.356 . S
N2357 H2360 0.984 . S
N2357 H2361 0.985 . S
H2358 N2353 0.984 . S
H2359 N2353 0.985 . S
H2360 N2357 0.984 . S
H2361 N2357 0.985 . S
H2362 N2356 0.984 . S
H2363 N2356 0.984 . S
H2364 N2352 0.984 . S
H2365 N2352 0.985 . S
C2366 C2367 1.363 . S
C2366 C2372 1.379 1_455 S
C2366 N2374 1.356 . S
C2367 C2366 1.363 . S
C2367 C2373 1.363 . S
C2368 C2369 1.363 . S
C2368 C2373 1.379 1_655 S
C2368 N2375 1.356 1_545 S
C2369 C2368 1.363 . S
C2369 C2372 1.363 . S
N2370 C2372 1.356 . S
N2370 H2382 0.984 . S
N2370 H2383 0.985 . S
N2371 C2373 1.356 1_565 S
N2371 H2376 0.984 . S
N2371 H2377 0.985 . S
C2372 C2366 1.379 1_655 S
C2372 C2369 1.363 . S
C2372 N2370 1.356 . S
C2373 C2367 1.363 . S
C2373 C2368 1.379 1_455 S
C2373 N2371 1.356 1_545 S
N2374 C2366 1.356 . S
N2374 H2380 0.984 . S
N2374 H2381 0.984 . S
N2375 C2368 1.356 1_565 S
N2375 H2378 0.984 . S
N2375 H2379 0.985 . S
H2376 N2371 0.984 . S
H2377 N2371 0.985 . S
H2378 N2375 0.984 . S
H2379 N2375 0.985 . S
H2380 N2374 0.984 . S
H2381 N2374 0.984 . S
H2382 N2370 0.984 . S
H2383 N2370 0.985 . S
C2384 C2385 1.363 . S
C2384 C2390 1.379 . S
C2384 N2392 1.356 . S
C2385 C2384 1.363 . S
C2385 C2391 1.363 . S
C2386 C2387 1.363 . S
C2386 C2391 1.379 . S
C2386 N2393 1.356 . S
C2387 C2386 1.363 . S
C2387 C2390 1.363 . S
N2388 C2390 1.356 . S
N2388 H2400 0.963 1_556 S
N2388 H2401 0.985 . S
N2389 C2391 1.356 . S
N2389 H2394 0.984 . S
N2389 H2395 0.985 . S
C2390 C2384 1.379 . S
C2390 C2387 1.363 . S
C2390 N2388 1.356 . S
C2391 C2385 1.363 . S
C2391 C2386 1.379 . S
C2391 N2389 1.356 . S
N2392 C2384 1.356 . S
N2392 H2398 0.963 1_556 S
N2392 H2399 0.984 . S
N2393 C2386 1.356 . S
N2393 H2396 0.984 . S
N2393 H2397 0.985 . S
H2394 N2389 0.984 . S
H2395 N2389 0.985 . S
H2396 N2393 0.984 . S
H2397 N2393 0.985 . S
H2398 N2392 0.963 1_554 S
H2399 N2392 0.984 . S
H2400 N2388 0.963 1_554 S
H2401 N2388 0.985 . S
C2402 C2403 1.363 . S
C2402 C2408 1.379 . S
C2402 N2410 1.356 . S
C2403 C2402 1.363 . S
C2403 C2409 1.363 . S
C2404 C2405 1.363 . S
C2404 C2409 1.379 . S
C2404 N2411 1.356 . S
C2405 C2404 1.363 . S
C2405 C2408 1.363 . S
N2406 C2408 1.356 . S
N2406 H2418 0.984 . S
N2406 H2419 0.985 . S
N2407 C2409 1.356 . S
N2407 H2412 0.984 . S
N2407 H2413 0.985 . S
C2408 C2402 1.379 . S
C2408 C2405 1.363 . S
C2408 N2406 1.356 . S
C2409 C2403 1.363 . S
C2409 C2404 1.379 . S
C2409 N2407 1.356 . S
N2410 C2402 1.356 . S
N2410 H2416 0.984 . S
N2410 H2417 0.984 . S
N2411 C2404 1.356 . S
N2411 H2414 0.984 . S
N2411 H2415 0.985 . S
H2412 N2407 0.984 . S
H2413 N2407 0.985 . S
H2414 N2411 0.984 . S
H2415 N2411 0.985 . S
H2416 N2410 0.984 . S
H2417 N2410 0.984 . S
H2418 N2406 0.984 . S
H2419 N2406 0.985 . S
C2420 C2421 1.363 . S
C2420 C2426 1.379 . S
C2420 N2428 1.356 . S
C2421 C2420 1.363 . S
C2421 C2427 1.363 . S
C2422 C2423 1.363 . S
C2422 C2427 1.379 . S
C2422 N2429 1.356 . S
C2423 C2422 1.363 . S
C2423 C2426 1.363 . S
N2424 C2426 1.356 . S
N2424 H2436 0.967 1_554 S
N2424 H2437 0.985 . S
N2425 C2427 1.356 . S
N2425 H2430 0.984 . S
N2425 H2431 0.985 . S
C2426 C2420 1.379 . S
C2426 C2423 1.363 . S
C2426 N2424 1.356 . S
C2427 C2421 1.363 . S
C2427 C2422 1.379 . S
C2427 N2425 1.356 . S
N2428 C2420 1.356 . S
N2428 H2434 0.967 1_554 S
N2428 H2435 0.984 . S
N2429 C2422 1.356 . S
N2429 H2432 0.984 . S
N2429 H2433 0.985 . S
H2430 N2425 0.984 . S
H2431 N2425 0.985 . S
H2432 N2429 0.984 . S
H2433 N2429 0.985 . S
H2434 N2428 0.967 1_556 S
H2435 N2428 0.984 . S
H2436 N2424 0.967 1_556 S
H2437 N2424 0.985 . S
C2438 C2439 1.363 . S
C2438 C2444 1.379 . S
C2438 N2446 1.356 . S
C2439 C2438 1.363 . S
C2439 C2445 1.363 . S
C2440 C2441 1.363 . S
C2440 C2445 1.379 . S
C2440 N2447 1.356 . S
C2441 C2440 1.363 . S
C2441 C2444 1.363 . S
N2442 C2444 1.356 . S
N2442 H2454 0.984 . S
N2442 H2455 0.985 . S
N2443 C2445 1.356 . S
N2443 H2448 0.984 . S
N2443 H2449 0.985 . S
C2444 C2438 1.379 . S
C2444 C2441 1.363 . S
C2444 N2442 1.356 . S
C2445 C2439 1.363 . S
C2445 C2440 1.379 . S
C2445 N2443 1.356 . S
N2446 C2438 1.356 . S
N2446 H2452 0.984 . S
N2446 H2453 0.984 . S
N2447 C2440 1.356 . S
N2447 H2450 0.984 . S
N2447 H2451 0.985 . S
H2448 N2443 0.984 . S
H2449 N2443 0.985 . S
H2450 N2447 0.984 . S
H2451 N2447 0.985 . S
H2452 N2446 0.984 . S
H2453 N2446 0.984 . S
H2454 N2442 0.984 . S
H2455 N2442 0.985 . S
C2456 C2457 1.363 . S
C2456 C2462 1.379 . S
C2456 N2464 1.356 . S
C2457 C2456 1.363 . S
C2457 C2463 1.363 . S
C2458 C2459 1.363 . S
C2458 C2463 1.379 . S
C2458 N2465 1.356 . S
C2459 C2458 1.363 . S
C2459 C2462 1.363 . S
N2460 C2462 1.356 . S
N2460 H2472 0.984 . S
N2460 H2473 0.985 . S
N2461 C2463 1.356 . S
N2461 H2466 0.984 . S
N2461 H2467 0.985 . S
C2462 C2456 1.379 . S
C2462 C2459 1.363 . S
C2462 N2460 1.356 . S
C2463 C2457 1.363 . S
C2463 C2458 1.379 . S
C2463 N2461 1.356 . S
N2464 C2456 1.356 . S
N2464 H2470 0.984 . S
N2464 H2471 0.984 . S
N2465 C2458 1.356 . S
N2465 H2468 0.984 . S
N2465 H2469 0.985 . S
H2466 N2461 0.984 . S
H2467 N2461 0.985 . S
H2468 N2465 0.984 . S
H2469 N2465 0.985 . S
H2470 N2464 0.984 . S
H2471 N2464 0.984 . S
H2472 N2460 0.984 . S
H2473 N2460 0.985 . S
C2474 C2475 1.363 . S
C2474 C2480 1.379 1_455 S
C2474 N2482 1.356 . S
C2475 C2474 1.363 . S
C2475 C2481 1.363 . S
C2476 C2477 1.363 . S
C2476 C2481 1.379 1_655 S
C2476 N2483 1.356 . S
C2477 C2476 1.363 . S
C2477 C2480 1.363 . S
N2478 C2480 1.356 . S
N2478 H2490 0.984 . S
N2478 H2491 0.985 . S
N2479 C2481 1.356 . S
N2479 H2484 0.984 . S
N2479 H2485 0.985 . S
C2480 C2474 1.379 1_655 S
C2480 C2477 1.363 . S
C2480 N2478 1.356 . S
C2481 C2475 1.363 . S
C2481 C2476 1.379 1_455 S
C2481 N2479 1.356 . S
N2482 C2474 1.356 . S
N2482 H2488 0.984 . S
N2482 H2489 0.984 . S
N2483 C2476 1.356 . S
N2483 H2486 0.984 . S
N2483 H2487 0.985 . S
H2484 N2479 0.984 . S
H2485 N2479 0.985 . S
H2486 N2483 0.984 . S
H2487 N2483 0.985 . S
H2488 N2482 0.984 . S
H2489 N2482 0.984 . S
H2490 N2478 0.984 . S
H2491 N2478 0.985 . S
C2492 C2493 1.363 . S
C2492 C2498 1.379 1_455 S
C2492 N2500 1.356 . S
C2493 C2492 1.363 . S
C2493 C2499 1.363 . S
C2494 C2495 1.363 . S
C2494 C2499 1.379 1_655 S
C2494 N2501 1.356 . S
C2495 C2494 1.363 . S
C2495 C2498 1.363 . S
N2496 C2498 1.356 . S
N2496 H2508 0.984 . S
N2496 H2509 0.985 . S
N2497 C2499 1.356 . S
N2497 H2502 0.984 . S
N2497 H2503 0.985 . S
C2498 C2492 1.379 1_655 S
C2498 C2495 1.363 . S
C2498 N2496 1.356 . S
C2499 C2493 1.363 . S
C2499 C2494 1.379 1_455 S
C2499 N2497 1.356 . S
N2500 C2492 1.356 . S
N2500 H2506 0.984 . S
N2500 H2507 0.984 . S
N2501 C2494 1.356 . S
N2501 H2504 0.984 . S
N2501 H2505 0.985 . S
H2502 N2497 0.984 . S
H2503 N2497 0.985 . S
H2504 N2501 0.984 . S
H2505 N2501 0.985 . S
H2506 N2500 0.984 . S
H2507 N2500 0.984 . S
H2508 N2496 0.984 . S
H2509 N2496 0.985 . S
C2510 C2511 1.363 . S
C2510 C2516 1.379 . S
C2510 N2518 1.356 . S
C2511 C2510 1.363 . S
C2511 C2517 1.363 . S
C2512 C2513 1.363 . S
C2512 C2517 1.379 . S
C2512 N2519 1.356 . S
C2513 C2512 1.363 . S
C2513 C2516 1.363 . S
N2514 C2516 1.356 . S
N2514 H2526 0.984 . S
N2514 H2527 0.985 . S
N2515 C2517 1.356 . S
N2515 H2520 0.984 . S
N2515 H2521 0.985 . S
C2516 C2510 1.379 . S
C2516 C2513 1.363 . S
C2516 N2514 1.356 . S
C2517 C2511 1.363 . S
C2517 C2512 1.379 . S
C2517 N2515 1.356 . S
N2518 C2510 1.356 . S
N2518 H2524 0.984 . S
N2518 H2525 0.984 . S
N2519 C2512 1.356 . S
N2519 H2522 0.984 . S
N2519 H2523 0.985 . S
H2520 N2515 0.984 . S
H2521 N2515 0.985 . S
H2522 N2519 0.984 . S
H2523 N2519 0.985 . S
H2524 N2518 0.984 . S
H2525 N2518 0.984 . S
H2526 N2514 0.984 . S
H2527 N2514 0.985 . S
C1089 C43 1.909 1_545 S
C1091 C33 1.819 . S
C1107 C67 1.819 . S
C1109 C77 1.909 . S
C1125 C101 1.819 . S
C1127 C111 1.909 1_565 S
C1143 C135 1.820 . S
C1145 C9 1.909 . S
C1161 C169 1.819 . S
C1163 C247 1.909 1_565 S
C1179 C145 1.909 . S
C1181 C203 1.820 . S
C1197 C237 1.819 . S
C1199 C179 1.909 1_545 S
C1215 C271 1.819 . S
C1217 C213 1.909 . S
C1233 C315 1.909 1_565 S
C1235 C305 1.819 . S
C1251 C349 1.909 . S
C1253 C339 1.819 . S
C1269 C373 1.819 . S
C1271 C383 1.909 1_545 S
C1287 C281 1.909 . S
C1289 C407 1.820 . S
C1305 C441 1.819 . S
C1307 C519 1.909 1_545 S
C1323 C475 1.820 . S
C1325 C417 1.909 . S
C1341 C451 1.909 1_565 S
C1343 C509 1.819 . S
C1359 C485 1.909 . S
C1361 C543 1.819 . S
C1377 C587 1.909 . S
C1379 C577 1.819 . S
C1395 C611 1.819 . S
C1397 C621 1.909 . S
C1413 C655 1.909 . S
C1415 C645 1.820 . S
C1431 C553 1.909 . S
C1433 C679 1.819 . S
C1449 C791 1.909 . S
C1451 C713 1.819 . S
C1467 C747 1.819 . S
C1469 C689 1.909 . S
C1485 C723 1.909 . S
C1487 C781 1.820 . S
C1503 C815 1.819 . S
C1505 C757 1.909 . S
C1521 C859 1.909 . S
C1523 C849 1.819 . S
C1539 C883 1.819 . S
C1541 C893 1.909 . S
C1557 C917 1.820 . S
C1559 C927 1.909 . S
C1575 C951 1.819 . S
C1577 C825 1.909 . S
C1593 C1063 1.909 . S
C1595 C985 1.819 . S
C1611 C961 1.909 . S
C1613 C1019 1.819 . S
C1629 C995 1.909 . S
C1631 C1053 1.820 . S
C1647 C1029 1.909 . S
C1649 C1087 1.819 . S
C1665 C209 1.020 . S
C1667 C5 1.020 . S
C1683 C39 1.020 . S
C1685 C243 1.020 . S
C1701 C73 1.020 . S
C1703 C141 1.020 . S
C1719 C107 1.020 . S
C1721 C175 1.020 . S
C1737 C481 1.020 . S
C1739 C277 1.020 . S
C1755 C515 1.020 . S
C1757 C311 1.020 . S
C1773 C345 1.020 . S
C1775 C413 1.020 . S
C1791 C447 1.020 . S
C1793 C379 1.020 . S
C1809 C549 1.020 . S
C1811 C753 1.020 . S
C1827 C583 1.020 . S
C1829 C787 1.020 . S
C1845 C685 1.020 . S
C1847 C617 1.020 . S
C1863 C719 1.020 . S
C1865 C651 1.020 . S
C1881 C1025 1.020 . S
C1883 C821 1.020 . S
C1899 C1059 1.020 . S
C1901 C855 1.020 . S
C1917 C957 1.020 . S
C1919 C889 1.020 . S
C1935 C991 1.020 . S
C1937 C923 1.020 . S
C1953 C172 1.121 . S
C1955 C2 1.121 . S
C1971 C36 1.121 . S
C1973 C206 1.121 . S
C1989 C70 1.121 . S
C1991 C240 1.121 . S
C2007 C104 1.121 . S
C2009 C138 1.121 . S
C2025 C444 1.121 . S
C2027 C274 1.121 . S
C2043 C308 1.121 . S
C2045 C478 1.121 . S
C2061 C512 1.121 . S
C2063 C342 1.121 . S
C2079 C376 1.121 . S
C2081 C410 1.121 . S
C2097 C546 1.121 . S
C2099 C716 1.121 . S
C2115 C750 1.121 . S
C2117 C580 1.121 . S
C2133 C784 1.121 . S
C2135 C614 1.121 . S
C2151 C648 1.121 . S
C2153 C682 1.121 . S
C2169 C818 1.121 . S
C2171 C988 1.121 . S
C2187 C1022 1.121 . S
C2189 C852 1.121 . S
C2205 C1056 1.121 . S
C2207 C886 1.121 . S
C2223 C954 1.121 . S
C2225 C920 1.121 . S
C2241 C20 1.550 . S
C2243 C1040 1.550 . S
C2259 C530 1.550 . S
C2261 C54 1.550 . S
C2277 C972 1.550 . S
C2279 C88 1.550 . S
C2295 C122 1.551 . S
C2297 C462 1.551 . S
C2313 C156 1.550 . S
C2315 C904 1.550 . S
C2331 C394 1.551 . S
C2333 C190 1.551 . S
C2349 C224 1.550 . S
C2351 C836 1.550 . S
C2367 C258 1.550 . S
C2369 C326 1.550 . S
C2385 C292 1.550 . S
C2387 C768 1.550 . S
C2403 C360 1.550 . S
C2405 C700 1.550 . S
C2421 C428 1.550 . S
C2423 C632 1.550 . S
C2439 C496 1.550 . S
C2441 C564 1.550 . S
C2457 C598 1.551 . S
C2459 C1074 1.551 . S
C2475 C1006 1.551 . S
C2477 C666 1.551 . S
C2493 C938 1.551 . S
C2495 C734 1.551 . S
C2511 C870 1.551 . S
C2513 C802 1.551 . S
