# Generated by pormake.
# Topology smk, (6)-cn, num edge types: 1
# Building blocks:
#     Node 0, Type 0, BuildingBlock: JUFBIX_clean_sbu_0, # of connection points: 6
#     Node 1, Type 0, BuildingBlock: JUFBIX_clean_sbu_0, # of connection points: 6
#     Node 2, Type 0, BuildingBlock: JUFBIX_clean_sbu_0, # of connection points: 6
#     Node 3, Type 0, BuildingBlock: JUFBIX_clean_sbu_0, # of connection points: 6
#     Node 4, Type 0, BuildingBlock: JUFBIX_clean_sbu_0, # of connection points: 6
#     Node 5, Type 0, BuildingBlock: JUFBIX_clean_sbu_0, # of connection points: 6
#     Edge 6, Type (0, 0), BuildingBlock: EZIPEK_clean_linker_0, # of connection points: 2
#     Edge 7, Type (0, 0), BuildingBlock: EZIPEK_clean_linker_0, # of connection points: 2
#     Edge 8, Type (0, 0), BuildingBlock: EZIPEK_clean_linker_0, # of connection points: 2
#     Edge 9, Type (0, 0), BuildingBlock: EZIPEK_clean_linker_0, # of connection points: 2
#     Edge 10, Type (0, 0), BuildingBlock: EZIPEK_clean_linker_0, # of connection points: 2
#     Edge 11, Type (0, 0), BuildingBlock: EZIPEK_clean_linker_0, # of connection points: 2
#     Edge 12, Type (0, 0), BuildingBlock: EZIPEK_clean_linker_0, # of connection points: 2
#     Edge 13, Type (0, 0), BuildingBlock: EZIPEK_clean_linker_0, # of connection points: 2
#     Edge 14, Type (0, 0), BuildingBlock: EZIPEK_clean_linker_0, # of connection points: 2
#     Edge 15, Type (0, 0), BuildingBlock: EZIPEK_clean_linker_0, # of connection points: 2
#     Edge 16, Type (0, 0), BuildingBlock: EZIPEK_clean_linker_0, # of connection points: 2
#     Edge 17, Type (0, 0), BuildingBlock: EZIPEK_clean_linker_0, # of connection points: 2
#     Edge 18, Type (0, 0), BuildingBlock: EZIPEK_clean_linker_0, # of connection points: 2
#     Edge 19, Type (0, 0), BuildingBlock: EZIPEK_clean_linker_0, # of connection points: 2
#     Edge 20, Type (0, 0), BuildingBlock: EZIPEK_clean_linker_0, # of connection points: 2
#     Edge 21, Type (0, 0), BuildingBlock: EZIPEK_clean_linker_0, # of connection points: 2
#     Edge 22, Type (0, 0), BuildingBlock: EZIPEK_clean_linker_0, # of connection points: 2
#     Edge 23, Type (0, 0), BuildingBlock: EZIPEK_clean_linker_0, # of connection points: 2
# Relax obj value: 0.391
# Max RMSD: 0.252
# Mean RMSD: 0.252
data_MOF--net-smk--node1-JUFBIX_clean_sbu_0--edge1-EZIPEK_clean_linker_0
_symmetry_space_group_name_H-M    P1
_symmetry_Int_Tables_number       1
_symmetry_cell_setting            triclinic
loop_
_symmetry_equiv_pos_as_xyz
'x, y, z'
_cell_length_a     34.630958
_cell_length_b     34.998147
_cell_length_c     10.830761
_cell_angle_alpha  90.303778
_cell_angle_beta   89.660625
_cell_angle_gamma 120.46616
loop_
_atom_site_label
_atom_site_type_symbol
_atom_site_fract_x
_atom_site_fract_y
_atom_site_fract_z
_atom_type_partial_charge
Co0 Co 0.44254 0.20134 0.54393 0.0
C1 C 0.42433 0.1134 0.53665 0.0
Co2 Co 0.50267 0.19458 0.53787 0.0
C3 C 0.37866 0.23451 0.5446 0.0
C4 C 0.35909 0.17593 0.65027 0.0
N5 N 0.39035 0.20374 0.56884 0.0
N6 N 0.34206 0.22712 0.61067 0.0
C7 C 0.33012 0.19043 0.67713 0.0
H8 H 0.39792 0.263 0.4858 0.0
H9 H 0.35922 0.1485 0.69532 0.0
C10 C 0.52139 0.28258 0.53279 0.0
N11 N 0.55492 0.19197 0.52588 0.0
C12 C 0.5728 0.17848 0.61401 0.0
C13 C 0.58803 0.21287 0.4417 0.0
N14 N 0.6159 0.19137 0.59021 0.0
C15 C 0.62569 0.21274 0.48152 0.0
C16 C 0.468 0.19728 0.30818 0.0
O17 O 0.47902 0.26493 0.54228 0.0
O18 O 0.53739 0.25697 0.53027 0.0
O19 O 0.49751 0.19288 0.36502 0.0
O20 O 0.43874 0.20171 0.36869 0.0
O21 O 0.46678 0.13116 0.54184 0.0
H22 H 0.5863 0.23064 0.36251 0.0
H23 H 0.55632 0.16346 0.70007 0.0
O24 O 0.40722 0.138 0.54049 0.0
O25 O 0.44696 0.20091 0.71898 0.0
O26 O 0.50789 0.19738 0.71231 0.0
C27 C 0.47802 0.19931 0.77505 0.0
H28 H 0.30289 0.17583 0.74341 0.0
H29 H 0.65867 0.23022 0.43967 0.0
Co30 Co 0.2201 0.41828 0.73777 0.0
C31 C 0.13138 0.40277 0.74782 0.0
Co32 Co 0.21473 0.47864 0.74224 0.0
C33 C 0.25144 0.35363 0.74119 0.0
C34 C 0.19505 0.33646 0.62571 0.0
N35 N 0.22114 0.36586 0.71284 0.0
N36 N 0.24571 0.31876 0.67165 0.0
C37 C 0.21029 0.30824 0.59923 0.0
H38 H 0.27886 0.3716 0.80477 0.0
H39 H 0.16921 0.33801 0.57507 0.0
C40 C 0.30286 0.49407 0.75418 0.0
N41 N 0.21407 0.5314 0.75555 0.0
C42 C 0.20424 0.55226 0.667 0.0
C43 C 0.23226 0.56138 0.84796 0.0
N44 N 0.21671 0.59416 0.69961 0.0
C45 C 0.23386 0.59995 0.81376 0.0
C46 C 0.21708 0.44379 -0.02685 0.0
O47 O 0.28434 0.45252 0.73546 0.0
O48 O 0.2786 0.51181 0.75253 0.0
O49 O 0.21254 0.47288 0.91605 0.0
O50 O 0.2215 0.41478 0.91302 0.0
O51 O 0.15066 0.44478 0.73715 0.0
H52 H 0.24647 0.55677 0.93125 0.0
H53 H 0.19125 0.53842 0.5768 0.0
O54 O 0.15545 0.38477 0.74698 0.0
O55 O 0.21899 0.42264 0.56212 0.0
O56 O 0.21698 0.48384 0.56767 0.0
C57 C 0.21829 0.45382 0.50563 0.0
H58 H 0.19745 0.28288 0.52825 0.0
H59 H 0.24896 0.63078 0.8652 0.0
Co60 Co 0.85057 0.23062 0.85565 0.0
C61 C 0.93856 0.30368 0.85056 0.0
Co62 Co 0.85542 0.29654 0.85971 0.0
C63 C 0.81525 0.13782 0.9108 0.0
C64 C 0.87457 0.16404 0.79967 0.0
N65 N 0.84665 0.17536 0.85428 0.0
N66 N 0.82262 0.10375 0.89412 0.0
C67 C 0.85997 0.12012 0.82436 0.0
H68 H 0.78782 0.13557 0.96498 0.0
H69 H 0.9038 0.18632 0.7459 0.0
C70 C 0.76779 0.22491 0.85547 0.0
N71 N 0.85647 0.35081 0.86459 0.0
C72 C 0.86243 0.37753 0.9627 0.0
C73 C 0.84365 0.36777 0.77222 0.0
N74 N 0.85306 0.40955 0.93487 0.0
C75 C 0.84171 0.40378 0.81499 0.0
C76 C 0.85279 0.26423 0.62364 0.0
O77 O 0.78684 0.20204 0.85096 0.0
O78 O 0.79225 0.26681 0.86267 0.0
O79 O 0.85424 0.29609 0.68421 0.0
O80 O 0.8516 0.23195 0.68035 0.0
O81 O 0.91881 0.32603 0.85304 0.0
H82 H 0.83388 0.35368 0.68081 0.0
H83 H 0.87121 0.37252 0.05445 0.0
O84 O 0.91529 0.26139 0.8574 0.0
O85 O 0.84922 0.22922 0.03064 0.0
O86 O 0.85655 0.29532 0.03528 0.0
C87 C 0.85268 0.26183 0.09159 0.0
H88 H 0.87551 0.10156 0.79365 0.0
H89 H 0.83095 0.42319 0.76361 0.0
Co90 Co 0.63158 0.79738 0.11448 0.0
C91 C 0.65205 0.72887 0.11301 0.0
Co92 Co 0.57248 0.72901 0.11023 0.0
C93 C 0.68881 0.89138 0.06074 0.0
C94 C 0.72083 0.86706 0.17909 0.0
N95 N 0.68204 0.85436 0.11947 0.0
N96 N 0.73035 0.92636 0.08064 0.0
C97 C 0.75057 0.91115 0.15506 0.0
H98 H 0.66417 0.8925 0.00232 0.0
H99 H 0.72731 0.84554 0.23542 0.0
C100 C 0.55059 0.79584 0.11888 0.0
N101 N 0.52042 0.67283 0.10062 0.0
C102 C 0.50247 0.64633 0.00016 0.0
C103 C 0.48764 0.6549 0.18687 0.0
N104 N 0.45978 0.61365 0.0201 0.0
C105 C 0.45054 0.61859 0.1378 0.0
C106 C 0.60023 0.7606 0.34657 0.0
O107 O 0.59288 0.82178 0.12218 0.0
O108 O 0.53592 0.75451 0.1122 0.0
O109 O 0.57089 0.72744 0.28592 0.0
O110 O 0.63037 0.79448 0.28993 0.0
O111 O 0.60961 0.70375 0.11155 0.0
H112 H 0.4892 0.66902 0.27701 0.0
H113 H 0.51899 0.65241 0.91133 0.0
O114 O 0.66898 0.77088 0.10913 0.0
O115 O 0.63249 0.80015 0.93922 0.0
O116 O 0.57532 0.7321 0.93496 0.0
C117 C 0.60411 0.76661 0.8784 0.0
H118 H 0.78452 0.9306 0.18905 0.0
H119 H 0.41833 0.59883 0.18263 0.0
Co120 Co 0.81782 0.6142 0.18184 0.0
C121 C 0.74851 0.63377 0.17933 0.0
Co122 Co 0.74942 0.55498 0.18451 0.0
C123 C 0.91232 0.67078 0.23805 0.0
C124 C 0.88807 0.70279 0.11975 0.0
N125 N 0.87517 0.6642 0.17837 0.0
N126 N 0.94757 0.71206 0.22 0.0
C127 C 0.93244 0.73229 0.14562 0.0
H128 H 0.91334 0.64616 0.29582 0.0
H129 H 0.86644 0.70929 0.063 0.0
C130 C 0.81729 0.53461 0.16934 0.0
N131 N 0.69224 0.5041 0.19306 0.0
C132 C 0.67516 0.47546 0.28889 0.0
C133 C 0.65956 0.4869 0.1071 0.0
N134 N 0.63363 0.44123 0.26613 0.0
C135 C 0.62361 0.44811 0.15151 0.0
C136 C 0.78226 0.5836 0.94946 0.0
O137 O 0.84293 0.5762 0.18461 0.0
O138 O 0.77513 0.51854 0.17207 0.0
O139 O 0.74755 0.55559 0.00876 0.0
O140 O 0.81708 0.61165 0.00735 0.0
O141 O 0.72383 0.59199 0.19253 0.0
H142 H 0.66169 0.50135 0.01751 0.0
H143 H 0.69299 0.47878 0.37365 0.0
O144 O 0.79092 0.65074 0.17422 0.0
O145 O 0.81847 0.61687 0.35726 0.0
O146 O 0.75301 0.55568 0.3595 0.0
C147 C 0.78595 0.58637 0.41712 0.0
H148 H 0.95211 0.76609 0.11304 0.0
H149 H 0.59257 0.42663 0.10368 0.0
Co150 Co 0.25443 0.83434 0.457 0.0
C151 C 0.32505 0.92244 0.46122 0.0
Co152 Co 0.32207 0.84195 0.45483 0.0
C153 C 0.16025 0.79659 0.40043 0.0
C154 C 0.18481 0.85425 0.51513 0.0
N155 N 0.19751 0.82783 0.45895 0.0
N156 N 0.12511 0.8028 0.41693 0.0
C157 C 0.14042 0.83906 0.489 0.0
H158 H 0.15904 0.77024 0.34469 0.0
H159 H 0.20655 0.88299 0.57057 0.0
C160 C 0.25299 0.75447 0.46805 0.0
N161 N 0.37857 0.84734 0.44831 0.0
C162 C 0.39489 0.83349 0.35557 0.0
C163 C 0.41199 0.86547 0.53199 0.0
N164 N 0.43681 0.8421 0.37795 0.0
C165 C 0.44778 0.86208 0.48919 0.0
C166 C 0.28895 0.83849 0.68963 0.0
O167 O 0.22815 0.77117 0.45352 0.0
O168 O 0.29526 0.77981 0.46522 0.0
O169 O 0.32332 0.84422 0.63041 0.0
O170 O 0.25461 0.83275 0.63168 0.0
O171 O 0.3489 0.90451 0.44881 0.0
H172 H 0.41059 0.88037 0.61838 0.0
H173 H 0.3764 0.81689 0.27302 0.0
O174 O 0.2825 0.89788 0.46508 0.0
O175 O 0.2544 0.83614 0.28173 0.0
O176 O 0.31928 0.83929 0.27952 0.0
C177 C 0.28671 0.8376 0.22191 0.0
H178 H 0.12085 0.85354 0.51995 0.0
H179 H 0.47948 0.87365 0.53529 0.0
C180 C 0.46939 0.16228 0.10829 0.0
C181 C 0.46914 0.19772 0.17175 0.0
C182 C 0.47711 0.23551 -0.02492 0.0
C183 C 0.47925 0.2008 0.91209 0.0
N184 N 0.48828 0.13661 0.92341 0.0
N185 N 0.48261 0.27248 0.16979 0.0
C186 C 0.47886 0.16596 -0.02003 0.0
C187 C 0.47536 0.23549 0.10639 0.0
N188 N 0.45894 0.12414 0.1698 0.0
N189 N 0.47767 0.26911 0.90957 0.0
H190 H 0.48247 0.27426 0.26585 0.0
H191 H 0.49263 0.30285 0.12808 0.0
H192 H 0.48497 0.27396 0.81546 0.0
H193 H 0.46949 0.29146 0.94783 0.0
H194 H 0.45249 0.095 0.12552 0.0
H195 H 0.45269 0.12003 0.26436 0.0
H196 H 0.4942 0.11441 0.97156 0.0
H197 H 0.49413 0.13655 0.82943 0.0
C198 C 0.25235 0.48699 0.29971 0.0
C199 C 0.21647 0.45315 0.3687 0.0
C200 C 0.18019 0.41317 0.17707 0.0
C201 C 0.21788 0.44516 0.10949 0.0
N202 N 0.29132 0.51066 0.10356 0.0
N203 N 0.14471 0.3859 0.37652 0.0
C204 C 0.25426 0.48171 0.17004 0.0
C205 C 0.18002 0.41663 0.30807 0.0
N206 N 0.28416 0.52459 0.35775 0.0
N207 N 0.14375 0.38087 0.11519 0.0
H208 H 0.14057 0.39117 0.46912 0.0
H209 H 0.11973 0.35541 0.34308 0.0
H210 H 0.14305 0.37698 0.01957 0.0
H211 H 0.11321 0.35907 0.15649 0.0
H212 H 0.30831 0.55272 0.31174 0.0
H213 H 0.28449 0.52933 0.45265 0.0
H214 H 0.32135 0.53465 0.14273 0.0
H215 H 0.29328 0.50881 0.00806 0.0
C216 C 0.81085 0.23937 0.29248 0.0
C217 C 0.85222 0.26089 0.22771 0.0
C218 C 0.89277 0.28952 0.4215 0.0
C219 C 0.85209 0.26447 0.48746 0.0
N220 N 0.77259 0.21216 0.48881 0.0
N221 N 0.93269 0.29671 0.23106 0.0
C222 C 0.8111 0.23825 0.42379 0.0
C223 C 0.89328 0.28326 0.29231 0.0
N224 N 0.77148 0.22093 0.22855 0.0
N225 N 0.9307 0.31992 0.48157 0.0
H226 H 0.9338 0.29008 0.13753 0.0
H227 H 0.96347 0.30973 0.27538 0.0
H228 H 0.93144 0.32594 0.57615 0.0
H229 H 0.96027 0.34196 0.43586 0.0
H230 H 0.74031 0.20916 0.27025 0.0
H231 H 0.77015 0.21996 0.13233 0.0
H232 H 0.74258 0.18872 0.44819 0.0
H233 H 0.77128 0.21209 0.58496 0.0
C234 C 0.57642 0.77883 0.54682 0.0
C235 C 0.59908 0.76038 0.48287 0.0
C236 C 0.63007 0.75266 0.6769 0.0
C237 C 0.60433 0.76723 0.74221 0.0
N238 N 0.54872 0.78928 0.74316 0.0
N239 N 0.63793 0.71961 0.48873 0.0
C240 C 0.57617 0.7789 0.67825 0.0
C241 C 0.62312 0.74427 0.54841 0.0
N242 N 0.55572 0.79677 0.48191 0.0
N243 N 0.66205 0.74805 0.73694 0.0
H244 H 0.63165 0.71132 0.39544 0.0
H245 H 0.65222 0.70363 0.53415 0.0
H246 H 0.66899 0.75541 0.8305 0.0
H247 H 0.68458 0.74132 0.69165 0.0
H248 H 0.54283 0.81504 0.52236 0.0
H249 H 0.55371 0.7956 0.38586 0.0
H250 H 0.52382 0.79327 0.70254 0.0
H251 H 0.54895 0.79125 0.83933 0.0
C252 C 0.7757 0.61533 0.61883 0.0
C253 C 0.78598 0.58641 0.5534 0.0
C254 C 0.7889 0.55236 0.74752 0.0
C255 C 0.7825 0.58389 0.8133 0.0
N256 N 0.7772 0.65009 0.81413 0.0
N257 N 0.81005 0.53281 0.55377 0.0
C258 C 0.77822 0.6169 0.74971 0.0
C259 C 0.79465 0.55631 0.61728 0.0
N260 N 0.76178 0.63996 0.55611 0.0
N261 N 0.78927 0.51859 0.8094 0.0
H262 H 0.81568 0.53591 0.45871 0.0
H263 H 0.82116 0.51349 0.59602 0.0
H264 H 0.78628 0.51531 0.90511 0.0
H265 H 0.78923 0.49202 0.76562 0.0
H266 H 0.74928 0.65815 0.59918 0.0
H267 H 0.75891 0.63904 0.46027 0.0
H268 H 0.77899 0.67766 0.77231 0.0
H269 H 0.77802 0.65191 0.91025 0.0
C270 C 0.27575 0.79831 0.0203 0.0
C271 C 0.28677 0.8377 0.08569 0.0
C272 C 0.29486 0.87628 0.8911 0.0
C273 C 0.28865 0.83836 0.82574 0.0
N274 N 0.27958 0.76527 0.82683 0.0
N275 N 0.31546 0.91645 0.08493 0.0
C276 C 0.28118 0.79996 0.89 0.0
C277 C 0.29871 0.87739 0.02159 0.0
N278 N 0.25852 0.75907 0.08232 0.0
N279 N 0.29647 0.91095 0.82893 0.0
H280 H 0.32 0.91851 0.18028 0.0
H281 H 0.32889 0.9472 0.04212 0.0
H282 H 0.29417 0.91157 0.73312 0.0
H283 H 0.2964 0.93746 0.8729 0.0
H284 H 0.24582 0.72846 0.03865 0.0
H285 H 0.25293 0.7567 0.17739 0.0
H286 H 0.27866 0.73826 0.86978 0.0
H287 H 0.28271 0.76503 0.73112 0.0
C288 C 0.39764 0.0362 0.61107 0.0
C289 C 0.39495 0.0644 0.52303 0.0
C290 C 0.33855 0.99881 0.40842 0.0
C291 C 0.34726 0.97115 0.48505 0.0
N292 N 0.38722 0.9644 0.65918 0.0
N293 N 0.36418 0.07288 0.33218 0.0
C294 C 0.37764 0.99016 0.58579 0.0
C295 C 0.36537 0.04582 0.4208 0.0
N296 N 0.41659 0.05305 0.72327 0.0
N297 N 0.30465 0.98045 0.32398 0.0
H298 H 0.38204 0.10732 0.33806 0.0
H299 H 0.34817 0.06138 0.2476 0.0
H300 H 0.28518 0.94652 0.30791 0.0
H301 H 0.29327 0.99861 0.27643 0.0
H302 H 0.41593 0.03367 0.79682 0.0
H303 H 0.42772 0.08583 0.74764 0.0
H304 H 0.41367 0.97753 0.72168 0.0
H305 H 0.37024 0.93 0.65483 0.0
C306 C 0.27221 0.22937 0.61429 0.0
C307 C 0.3196 0.25242 0.6178 0.0
C308 C 0.31932 0.32176 0.64866 0.0
C309 C 0.27202 0.29728 0.66508 0.0
N310 N 0.20602 0.22588 0.69907 0.0
N311 N 0.38776 0.3199 0.67212 0.0
C312 C 0.24927 0.25041 0.65896 0.0
C313 C 0.34326 0.29857 0.64445 0.0
N314 N 0.24909 0.18772 0.56529 0.0
N315 N 0.34127 0.36647 0.63077 0.0
H316 H 0.40557 0.3034 0.67999 0.0
H317 H 0.4054 0.35284 0.70143 0.0
H318 H 0.32478 0.3843 0.62362 0.0
H319 H 0.37527 0.38481 0.60871 0.0
H320 H 0.21446 0.17085 0.55301 0.0
H321 H 0.26515 0.17253 0.5237 0.0
H322 H 0.18911 0.19138 0.70426 0.0
H323 H 0.18923 0.2403 0.74082 0.0
C324 C 1.01731 0.36376 0.90503 0.0
C325 C 0.98815 0.32703 0.82963 0.0
C326 C 0.05324 0.33622 0.71056 0.0
C327 C 0.08207 0.37575 0.77737 0.0
N328 N 0.09144 0.42637 0.94335 0.0
N329 N 0.97783 0.28271 0.64724 0.0
C330 C 0.06395 0.38931 0.87569 0.0
C331 C 1.00602 0.31414 0.72983 0.0
N332 N 1.00078 0.37301 0.00886 0.0
N333 N 0.0706 0.3192 0.62822 0.0
H334 H 0.9431 0.26582 0.65462 0.0
H335 H 0.98848 0.27639 0.5635 0.0
H336 H 0.10399 0.3354 0.60239 0.0
H337 H 0.05239 0.28729 0.59175 0.0
H338 H 1.02065 0.39511 0.07734 0.0
H339 H 0.96696 0.35625 0.0324 0.0
H340 H 0.07991 0.4426 9e-05 0.0
H341 H 0.12619 0.44181 0.94188 0.0
C342 C 0.76501 1.00719 0.11506 0.0
C343 C 0.75005 0.97091 0.03231 0.0
C344 C 0.77597 1.02277 0.85794 0.0
C345 C 0.79639 0.05903 0.94128 0.0
N346 N 0.81627 0.08556 0.15005 0.0
N347 N 0.74744 0.94435 0.82519 0.0
C348 C 0.7923 0.05123 0.07036 0.0
C349 C 0.75693 0.9787 0.90348 0.0
N350 N 0.7521 0.99943 0.23601 0.0
N351 N 0.77375 1.03053 0.73555 0.0
H352 H 0.7349 0.91197 0.85579 0.0
H353 H 0.75586 0.94866 0.73178 0.0
H354 H 0.78624 0.0624 0.7005 0.0
H355 H 0.7557 1.00541 0.67159 0.0
H356 H 0.75847 1.02456 0.29892 0.0
H357 H 0.73105 0.96757 0.27014 0.0
H358 H 0.81807 0.08127 0.24451 0.0
H359 H 0.83779 0.1179 0.12024 0.0
C360 C 0.69434 0.64822 0.06147 0.0
C361 C 0.72738 0.66135 0.15574 0.0
C362 C 0.71379 0.72159 0.21649 0.0
C363 C 0.68102 0.70855 0.12174 0.0
N364 N 0.64757 0.66595 0.93704 0.0
N365 N 0.77505 0.71646 0.30562 0.0
C366 C 0.67337 0.67361 0.03978 0.0
C367 C 0.73938 0.70009 0.22695 0.0
N368 N 0.68292 0.61141 -0.00875 0.0
N369 N 0.71857 0.75251 0.30227 0.0
H370 H 0.79292 0.70061 0.32403 0.0
H371 H 0.78923 0.74767 0.34653 0.0
H372 H 0.70069 0.76902 0.30028 0.0
H373 H 0.73724 0.75907 0.38269 0.0
H374 H 0.6542 0.59573 0.9371 0.0
H375 H 0.70128 0.59539 -0.01098 0.0
H376 H 0.64528 0.64512 0.86495 0.0
H377 H 0.63137 0.68341 0.9174 0.0
C378 C 0.99901 0.73722 0.40002 0.0
C379 C 0.99221 0.73151 0.27064 0.0
C380 C 0.07361 0.77398 0.23734 0.0
C381 C 0.08043 0.77681 0.36684 0.0
N382 N 1.05004 0.75244 0.57041 0.0
N383 N 1.02274 0.73544 0.06809 0.0
C384 C 1.04315 0.75572 0.44793 0.0
C385 C 1.02953 0.74717 0.18985 0.0
N386 N 0.96368 0.72715 0.47663 0.0
N387 N 0.10884 0.79868 0.16001 0.0
H388 H 0.99085 0.71475 0.03187 0.0
H389 H 1.04869 0.74243 0.00643 0.0
H390 H 0.14123 0.81995 0.19189 0.0
H391 H 0.10519 0.8013 0.06556 0.0
H392 H 0.96728 0.73466 0.57056 0.0
H393 H 0.93122 0.7151 0.44434 0.0
H394 H 1.02416 0.73394 0.63259 0.0
H395 H 0.08197 0.76455 0.60711 0.0
C396 C 0.59834 0.3462 0.48614 0.0
C397 C 0.55201 0.3309 0.50148 0.0
C398 C 0.5639 0.39719 0.38922 0.0
C399 C 0.60622 0.40469 0.34802 0.0
N400 N 0.66167 0.38242 0.34804 0.0
N401 N 0.49347 0.34914 0.49404 0.0
C402 C 0.62309 0.37837 0.39486 0.0
C403 C 0.5355 0.35866 0.46115 0.0
N404 N 0.61905 0.33112 0.56201 0.0
N405 N 0.55212 0.42819 0.365 0.0
H406 H 0.47629 0.32861 0.56824 0.0
H407 H 0.47652 0.36293 0.4514 0.0
H408 H 0.57316 0.45747 0.31772 0.0
H409 H 0.52354 0.42702 0.40032 0.0
H410 H 0.65348 0.34339 0.55957 0.0
H411 H 0.60267 0.31106 0.63807 0.0
H412 H 0.67317 0.36112 0.37224 0.0
H413 H 0.67942 0.40375 0.27553 0.0
C414 C 0.25147 0.64767 0.52812 0.0
C415 C 0.21883 0.62859 0.62275 0.0
C416 C 0.20231 0.68846 0.60432 0.0
C417 C 0.23435 0.70736 0.50612 0.0
N418 N 0.27951 0.69733 0.35315 0.0
N419 N 0.15518 0.62305 0.72736 0.0
C420 C 0.25549 0.68424 0.46069 0.0
C421 C 0.19139 0.64637 0.65193 0.0
N422 N 0.28053 0.63271 0.50781 0.0
N423 N 0.18525 0.71178 0.66096 0.0
H424 H 0.14712 0.59236 0.76428 0.0
H425 H 0.13101 0.63191 0.74285 0.0
H426 H 0.19261 0.74333 0.63578 0.0
H427 H 0.16659 0.70135 0.74234 0.0
H428 H 0.30831 0.64863 0.44967 0.0
H429 H 0.27916 0.60652 0.55693 0.0
H430 H 0.29238 0.67945 0.31002 0.0
H431 H 0.28268 0.72363 0.3006 0.0
C432 C 0.69954 0.23195 0.84903 0.0
C433 C 0.71893 0.20525 0.82885 0.0
C434 C 0.66157 0.16189 0.67443 0.0
C435 C 0.64786 0.19367 0.67854 0.0
N436 N 0.65267 0.259 0.76873 0.0
N437 N 0.70362 0.13217 0.77225 0.0
C438 C 0.66583 0.22822 0.76759 0.0
C439 C 0.69542 0.16609 0.75674 0.0
N440 N 0.71275 0.25981 0.94864 0.0
N441 N 0.64322 0.12878 0.58843 0.0
H442 H 0.7234 0.13197 0.84405 0.0
H443 H 0.68613 0.10184 0.72674 0.0
H444 H 0.61742 0.12451 0.5301 0.0
H445 H 0.65508 0.10731 0.5701 0.0
H446 H 0.69791 0.27809 -0.02523 0.0
H447 H 0.73541 0.26059 0.01323 0.0
H448 H 0.66808 0.28782 0.82173 0.0
H449 H 0.62812 0.25729 0.71 0.0
C450 C 0.40918 0.53711 0.95071 0.0
C451 C 0.42767 0.583 0.93214 0.0
C452 C 0.3754 0.56664 0.76135 0.0
C453 C 0.35041 0.52146 0.79808 0.0
N454 N 0.34276 0.46495 0.94346 0.0
N455 N 0.42573 0.64234 0.82618 0.0
C456 C 0.36754 0.50656 0.895 0.0
C457 C 0.41055 0.59812 0.83787 0.0
N458 N 0.43128 0.52293 0.02424 0.0
N459 N 0.36549 0.57937 0.65291 0.0
H460 H 0.45065 0.66634 0.88226 0.0
H461 H 0.41092 0.65481 0.76787 0.0
H462 H 0.34123 0.55653 0.59305 0.0
H463 H 0.38463 0.61114 0.61644 0.0
H464 H 0.422 0.48969 0.03244 0.0
H465 H 0.46163 0.54503 0.06655 0.0
H466 H 0.35179 0.45512 0.0236 0.0
H467 H 0.31121 0.44124 0.91301 0.0
C468 C 0.86852 0.51827 0.03693 0.0
C469 C 0.83499 0.50513 0.13104 0.0
C470 C 0.81669 0.42781 0.10521 0.0
C471 C 0.85112 0.44148 0.01566 0.0
N472 N 0.91778 0.50008 0.92356 0.0
N473 N 0.78686 0.44909 0.27788 0.0
C474 C 0.8799 0.487 -0.00807 0.0
C475 C 0.8124 0.46043 0.17306 0.0
N476 N 0.88663 0.55875 -0.01902 0.0
N477 N 0.78627 0.38379 0.12004 0.0
H478 H 0.78374 0.47223 0.33137 0.0
H479 H 0.77272 0.41788 0.31837 0.0
H480 H 0.78782 0.35901 0.07042 0.0
H481 H 0.75743 0.37213 0.17383 0.0
H482 H 0.90698 0.56711 0.90282 0.0
H483 H 0.87823 0.58259 0.00213 0.0
H484 H 0.94255 0.53321 0.91238 0.0
H485 H 0.9264 0.47743 0.88928 0.0
C486 C 0.47267 0.77942 0.16957 0.0
C487 C 0.51826 0.81163 0.14731 0.0
C488 C 0.50486 0.86715 0.24825 0.0
C489 C 0.46411 0.83228 0.29755 0.0
N490 N 0.4111 0.75398 0.3135 0.0
N491 N 0.57379 0.88942 0.13471 0.0
C492 C 0.44833 0.78806 0.25975 0.0
C493 C 0.53329 0.85669 0.17736 0.0
N494 N 0.45192 0.74158 0.10034 0.0
N495 N 0.51501 0.91 0.26422 0.0
H496 H 0.5904 0.88418 0.06191 0.0
H497 H 0.59007 0.9218 0.16804 0.0
H498 H 0.49375 0.91821 0.31076 0.0
H499 H 0.54234 0.93716 0.22345 0.0
H500 H 0.41787 0.71833 0.10851 0.0
H501 H 0.46719 0.73698 0.02283 0.0
H502 H 0.40062 0.72079 0.29625 0.0
H503 H 0.39354 0.75882 0.38451 0.0
loop_
_geom_bond_atom_site_label_1
_geom_bond_atom_site_label_2
_geom_bond_distance
_geom_bond_site_symmetry_2
_ccdc_geom_bond_type
Co0 N5 2.057 . S
Co0 O17 2.021 . S
Co0 O20 2.062 . S
Co0 O24 2.117 . S
Co0 O25 2.020 . S
C1 O21 1.259 . S
C1 O24 1.258 . S
Co2 N11 2.057 . S
Co2 O18 2.117 . S
Co2 O19 2.020 . S
Co2 O21 2.021 . S
Co2 O26 2.062 . S
C3 N5 1.316 . S
C3 N6 1.347 . S
C3 H8 0.931 . S
C4 N5 1.375 . S
C4 C7 1.350 . S
C4 H9 0.930 . S
N5 Co0 2.057 . S
N5 C3 1.316 . S
N5 C4 1.375 . S
N6 C3 1.347 . S
N6 C7 1.373 . S
C7 C4 1.350 . S
C7 N6 1.373 . S
C7 H28 0.931 . S
H8 C3 0.931 . S
H9 C4 0.930 . S
C10 O17 1.259 . S
C10 O18 1.258 . S
N11 Co2 2.057 . S
N11 C12 1.316 . S
N11 C13 1.375 . S
C12 N11 1.316 . S
C12 N14 1.347 . S
C12 H23 0.931 . S
C13 N11 1.375 . S
C13 C15 1.350 . S
C13 H22 0.930 . S
N14 C12 1.347 . S
N14 C15 1.373 . S
C15 C13 1.350 . S
C15 N14 1.373 . S
C15 H29 0.931 . S
C16 O19 1.256 . S
C16 O20 1.255 . S
O17 Co0 2.021 . S
O17 C10 1.259 . S
O18 Co2 2.117 . S
O18 C10 1.258 . S
O19 Co2 2.020 . S
O19 C16 1.256 . S
O20 Co0 2.062 . S
O20 C16 1.255 . S
O21 C1 1.259 . S
O21 Co2 2.021 . S
H22 C13 0.930 . S
H23 C12 0.931 . S
O24 Co0 2.117 . S
O24 C1 1.258 . S
O25 Co0 2.020 . S
O25 C27 1.256 . S
O26 Co2 2.062 . S
O26 C27 1.255 . S
C27 O25 1.256 . S
C27 O26 1.255 . S
H28 C7 0.931 . S
H29 C15 0.931 . S
Co30 N35 2.057 . S
Co30 O47 2.021 . S
Co30 O50 2.062 . S
Co30 O54 2.117 . S
Co30 O55 2.020 . S
C31 O51 1.259 . S
C31 O54 1.258 . S
Co32 N41 2.057 . S
Co32 O48 2.117 . S
Co32 O49 2.020 . S
Co32 O51 2.021 . S
Co32 O56 2.062 . S
C33 N35 1.316 . S
C33 N36 1.347 . S
C33 H38 0.931 . S
C34 N35 1.375 . S
C34 C37 1.350 . S
C34 H39 0.930 . S
N35 Co30 2.057 . S
N35 C33 1.316 . S
N35 C34 1.375 . S
N36 C33 1.347 . S
N36 C37 1.373 . S
C37 C34 1.350 . S
C37 N36 1.373 . S
C37 H58 0.931 . S
H38 C33 0.931 . S
H39 C34 0.930 . S
C40 O47 1.259 . S
C40 O48 1.258 . S
N41 Co32 2.057 . S
N41 C42 1.316 . S
N41 C43 1.375 . S
C42 N41 1.316 . S
C42 N44 1.347 . S
C42 H53 0.931 . S
C43 N41 1.375 . S
C43 C45 1.350 . S
C43 H52 0.930 . S
N44 C42 1.347 . S
N44 C45 1.373 . S
C45 C43 1.350 . S
C45 N44 1.373 . S
C45 H59 0.931 . S
C46 O49 1.256 . S
C46 O50 1.255 . S
O47 Co30 2.021 . S
O47 C40 1.259 . S
O48 Co32 2.117 . S
O48 C40 1.258 . S
O49 Co32 2.020 . S
O49 C46 1.256 . S
O50 Co30 2.062 . S
O50 C46 1.255 . S
O51 C31 1.259 . S
O51 Co32 2.021 . S
H52 C43 0.930 . S
H53 C42 0.931 . S
O54 Co30 2.117 . S
O54 C31 1.258 . S
O55 Co30 2.020 . S
O55 C57 1.256 . S
O56 Co32 2.062 . S
O56 C57 1.255 . S
C57 O55 1.256 . S
C57 O56 1.255 . S
H58 C37 0.931 . S
H59 C45 0.931 . S
Co60 N65 2.057 . S
Co60 O77 2.021 . S
Co60 O80 2.062 . S
Co60 O84 2.117 . S
Co60 O85 2.020 1_556 S
C61 O81 1.259 . S
C61 O84 1.258 . S
Co62 N71 2.057 . S
Co62 O78 2.117 . S
Co62 O79 2.020 . S
Co62 O81 2.021 . S
Co62 O86 2.062 1_556 S
C63 N65 1.316 . S
C63 N66 1.347 . S
C63 H68 0.931 . S
C64 N65 1.375 . S
C64 C67 1.350 . S
C64 H69 0.930 . S
N65 Co60 2.057 . S
N65 C63 1.316 . S
N65 C64 1.375 . S
N66 C63 1.347 . S
N66 C67 1.373 . S
C67 C64 1.350 . S
C67 N66 1.373 . S
C67 H88 0.931 . S
H68 C63 0.931 . S
H69 C64 0.930 . S
C70 O77 1.259 . S
C70 O78 1.258 . S
N71 Co62 2.057 . S
N71 C72 1.316 1_556 S
N71 C73 1.375 . S
C72 N71 1.316 1_554 S
C72 N74 1.347 . S
C72 H83 0.931 . S
C73 N71 1.375 . S
C73 C75 1.350 1_556 S
C73 H82 0.930 . S
N74 C72 1.347 . S
N74 C75 1.373 . S
C75 C73 1.350 1_554 S
C75 N74 1.373 . S
C75 H89 0.931 . S
C76 O79 1.256 . S
C76 O80 1.255 . S
O77 Co60 2.021 . S
O77 C70 1.259 . S
O78 Co62 2.117 . S
O78 C70 1.258 . S
O79 Co62 2.020 . S
O79 C76 1.256 . S
O80 Co60 2.062 . S
O80 C76 1.255 . S
O81 C61 1.259 . S
O81 Co62 2.021 . S
H82 C73 0.930 . S
H83 C72 0.931 . S
O84 Co60 2.117 . S
O84 C61 1.258 . S
O85 Co60 2.020 1_554 S
O85 C87 1.256 . S
O86 Co62 2.062 1_554 S
O86 C87 1.255 . S
C87 O85 1.256 . S
C87 O86 1.255 . S
H88 C67 0.931 . S
H89 C75 0.931 . S
Co90 N95 2.057 . S
Co90 O107 2.021 . S
Co90 O110 2.062 . S
Co90 O114 2.117 . S
Co90 O115 2.020 1_554 S
C91 O111 1.259 . S
C91 O114 1.258 . S
Co92 N101 2.057 . S
Co92 O108 2.117 . S
Co92 O109 2.020 . S
Co92 O111 2.021 . S
Co92 O116 2.062 1_554 S
C93 N95 1.316 . S
C93 N96 1.347 . S
C93 H98 0.931 . S
C94 N95 1.375 . S
C94 C97 1.350 . S
C94 H99 0.930 . S
N95 Co90 2.057 . S
N95 C93 1.316 . S
N95 C94 1.375 . S
N96 C93 1.347 . S
N96 C97 1.373 . S
C97 C94 1.350 . S
C97 N96 1.373 . S
C97 H118 0.931 . S
H98 C93 0.931 . S
H99 C94 0.930 . S
C100 O107 1.259 . S
C100 O108 1.258 . S
N101 Co92 2.057 . S
N101 C102 1.316 1_554 S
N101 C103 1.375 . S
C102 N101 1.316 1_556 S
C102 N104 1.347 . S
C102 H113 0.931 . S
C103 N101 1.375 . S
C103 C105 1.350 . S
C103 H112 0.930 . S
N104 C102 1.347 . S
N104 C105 1.373 1_556 S
C105 C103 1.350 . S
C105 N104 1.373 1_554 S
C105 H119 0.931 . S
C106 O109 1.256 . S
C106 O110 1.255 . S
O107 Co90 2.021 . S
O107 C100 1.259 . S
O108 Co92 2.117 . S
O108 C100 1.258 . S
O109 Co92 2.020 . S
O109 C106 1.256 . S
O110 Co90 2.062 . S
O110 C106 1.255 . S
O111 C91 1.259 . S
O111 Co92 2.021 . S
H112 C103 0.930 . S
H113 C102 0.931 . S
O114 Co90 2.117 . S
O114 C91 1.258 . S
O115 Co90 2.020 1_556 S
O115 C117 1.256 . S
O116 Co92 2.062 1_556 S
O116 C117 1.255 . S
C117 O115 1.256 . S
C117 O116 1.255 . S
H118 C97 0.931 . S
H119 C105 0.931 . S
Co120 N125 2.057 . S
Co120 O137 2.021 . S
Co120 O140 2.062 . S
Co120 O144 2.117 . S
Co120 O145 2.020 . S
C121 O141 1.259 . S
C121 O144 1.258 . S
Co122 N131 2.057 . S
Co122 O138 2.117 . S
Co122 O139 2.020 . S
Co122 O141 2.021 . S
Co122 O146 2.062 . S
C123 N125 1.316 . S
C123 N126 1.347 . S
C123 H128 0.931 . S
C124 N125 1.375 . S
C124 C127 1.350 . S
C124 H129 0.930 . S
N125 Co120 2.057 . S
N125 C123 1.316 . S
N125 C124 1.375 . S
N126 C123 1.347 . S
N126 C127 1.373 . S
C127 C124 1.350 . S
C127 N126 1.373 . S
C127 H148 0.931 . S
H128 C123 0.931 . S
H129 C124 0.930 . S
C130 O137 1.259 . S
C130 O138 1.258 . S
N131 Co122 2.057 . S
N131 C132 1.316 . S
N131 C133 1.375 . S
C132 N131 1.316 . S
C132 N134 1.347 . S
C132 H143 0.931 . S
C133 N131 1.375 . S
C133 C135 1.350 . S
C133 H142 0.930 . S
N134 C132 1.347 . S
N134 C135 1.373 . S
C135 C133 1.350 . S
C135 N134 1.373 . S
C135 H149 0.931 . S
C136 O139 1.256 . S
C136 O140 1.255 . S
O137 Co120 2.021 . S
O137 C130 1.259 . S
O138 Co122 2.117 . S
O138 C130 1.258 . S
O139 Co122 2.020 . S
O139 C136 1.256 . S
O140 Co120 2.062 . S
O140 C136 1.255 . S
O141 C121 1.259 . S
O141 Co122 2.021 . S
H142 C133 0.930 . S
H143 C132 0.931 . S
O144 Co120 2.117 . S
O144 C121 1.258 . S
O145 Co120 2.020 . S
O145 C147 1.256 . S
O146 Co122 2.062 . S
O146 C147 1.255 . S
C147 O145 1.256 . S
C147 O146 1.255 . S
H148 C127 0.931 . S
H149 C135 0.931 . S
Co150 N155 2.057 . S
Co150 O167 2.021 . S
Co150 O170 2.062 . S
Co150 O174 2.117 . S
Co150 O175 2.020 . S
C151 O171 1.259 . S
C151 O174 1.258 . S
Co152 N161 2.057 . S
Co152 O168 2.117 . S
Co152 O169 2.020 . S
Co152 O171 2.021 . S
Co152 O176 2.062 . S
C153 N155 1.316 . S
C153 N156 1.347 . S
C153 H158 0.931 . S
C154 N155 1.375 . S
C154 C157 1.350 . S
C154 H159 0.930 . S
N155 Co150 2.057 . S
N155 C153 1.316 . S
N155 C154 1.375 . S
N156 C153 1.347 . S
N156 C157 1.373 . S
C157 C154 1.350 . S
C157 N156 1.373 . S
C157 H178 0.931 . S
H158 C153 0.931 . S
H159 C154 0.930 . S
C160 O167 1.259 . S
C160 O168 1.258 . S
N161 Co152 2.057 . S
N161 C162 1.316 . S
N161 C163 1.375 . S
C162 N161 1.316 . S
C162 N164 1.347 . S
C162 H173 0.931 . S
C163 N161 1.375 . S
C163 C165 1.350 . S
C163 H172 0.930 . S
N164 C162 1.347 . S
N164 C165 1.373 . S
C165 C163 1.350 . S
C165 N164 1.373 . S
C165 H179 0.931 . S
C166 O169 1.256 . S
C166 O170 1.255 . S
O167 Co150 2.021 . S
O167 C160 1.259 . S
O168 Co152 2.117 . S
O168 C160 1.258 . S
O169 Co152 2.020 . S
O169 C166 1.256 . S
O170 Co150 2.062 . S
O170 C166 1.255 . S
O171 C151 1.259 . S
O171 Co152 2.021 . S
H172 C163 0.930 . S
H173 C162 0.931 . S
O174 Co150 2.117 . S
O174 C151 1.258 . S
O175 Co150 2.020 . S
O175 C177 1.256 . S
O176 Co152 2.062 . S
O176 C177 1.255 . S
C177 O175 1.256 . S
C177 O176 1.255 . S
H178 C157 0.931 . S
H179 C165 0.931 . S
C180 C181 1.363 . S
C180 C186 1.379 . S
C180 N188 1.356 . S
C181 C180 1.363 . S
C181 C187 1.363 . S
C182 C183 1.363 . S
C182 C187 1.379 . S
C182 N189 1.356 1_554 S
C183 C182 1.363 . S
C183 C186 1.363 . S
N184 C186 1.356 1_556 S
N184 H196 0.984 1_556 S
N184 H197 0.985 . S
N185 C187 1.356 . S
N185 H190 0.984 . S
N185 H191 0.985 . S
C186 C180 1.379 . S
C186 C183 1.363 . S
C186 N184 1.356 1_554 S
C187 C181 1.363 . S
C187 C182 1.379 . S
C187 N185 1.356 . S
N188 C180 1.356 . S
N188 H194 0.984 . S
N188 H195 0.984 . S
N189 C182 1.356 1_556 S
N189 H192 0.984 . S
N189 H193 0.985 . S
H190 N185 0.984 . S
H191 N185 0.985 . S
H192 N189 0.984 . S
H193 N189 0.985 . S
H194 N188 0.984 . S
H195 N188 0.984 . S
H196 N184 0.984 1_554 S
H197 N184 0.985 . S
C198 C199 1.363 . S
C198 C204 1.379 . S
C198 N206 1.356 . S
C199 C198 1.363 . S
C199 C205 1.363 . S
C200 C201 1.363 . S
C200 C205 1.379 . S
C200 N207 1.356 . S
C201 C200 1.363 . S
C201 C204 1.363 . S
N202 C204 1.356 . S
N202 H214 0.984 . S
N202 H215 0.985 1_554 S
N203 C205 1.356 . S
N203 H208 0.984 . S
N203 H209 0.985 . S
C204 C198 1.379 . S
C204 C201 1.363 . S
C204 N202 1.356 . S
C205 C199 1.363 . S
C205 C200 1.379 . S
C205 N203 1.356 . S
N206 C198 1.356 . S
N206 H212 0.984 . S
N206 H213 0.984 . S
N207 C200 1.356 . S
N207 H210 0.984 1_554 S
N207 H211 0.985 . S
H208 N203 0.984 . S
H209 N203 0.985 . S
H210 N207 0.984 1_556 S
H211 N207 0.985 . S
H212 N206 0.984 . S
H213 N206 0.984 . S
H214 N202 0.984 . S
H215 N202 0.985 1_556 S
C216 C217 1.363 . S
C216 C222 1.379 . S
C216 N224 1.356 . S
C217 C216 1.363 . S
C217 C223 1.363 . S
C218 C219 1.363 . S
C218 C223 1.379 . S
C218 N225 1.356 . S
C219 C218 1.363 . S
C219 C222 1.363 . S
N220 C222 1.356 . S
N220 H232 0.984 . S
N220 H233 0.985 . S
N221 C223 1.356 . S
N221 H226 0.984 . S
N221 H227 0.985 . S
C222 C216 1.379 . S
C222 C219 1.363 . S
C222 N220 1.356 . S
C223 C217 1.363 . S
C223 C218 1.379 . S
C223 N221 1.356 . S
N224 C216 1.356 . S
N224 H230 0.984 . S
N224 H231 0.984 . S
N225 C218 1.356 . S
N225 H228 0.984 . S
N225 H229 0.985 . S
H226 N221 0.984 . S
H227 N221 0.985 . S
H228 N225 0.984 . S
H229 N225 0.985 . S
H230 N224 0.984 . S
H231 N224 0.984 . S
H232 N220 0.984 . S
H233 N220 0.985 . S
C234 C235 1.363 . S
C234 C240 1.379 . S
C234 N242 1.356 . S
C235 C234 1.363 . S
C235 C241 1.363 . S
C236 C237 1.363 . S
C236 C241 1.379 . S
C236 N243 1.356 . S
C237 C236 1.363 . S
C237 C240 1.363 . S
N238 C240 1.356 . S
N238 H250 0.984 . S
N238 H251 0.985 . S
N239 C241 1.356 . S
N239 H244 0.984 . S
N239 H245 0.985 . S
C240 C234 1.379 . S
C240 C237 1.363 . S
C240 N238 1.356 . S
C241 C235 1.363 . S
C241 C236 1.379 . S
C241 N239 1.356 . S
N242 C234 1.356 . S
N242 H248 0.984 . S
N242 H249 0.984 . S
N243 C236 1.356 . S
N243 H246 0.984 . S
N243 H247 0.985 . S
H244 N239 0.984 . S
H245 N239 0.985 . S
H246 N243 0.984 . S
H247 N243 0.985 . S
H248 N242 0.984 . S
H249 N242 0.984 . S
H250 N238 0.984 . S
H251 N238 0.985 . S
C252 C253 1.363 . S
C252 C258 1.379 . S
C252 N260 1.356 . S
C253 C252 1.363 . S
C253 C259 1.363 . S
C254 C255 1.363 . S
C254 C259 1.379 . S
C254 N261 1.356 . S
C255 C254 1.363 . S
C255 C258 1.363 . S
N256 C258 1.356 . S
N256 H268 0.984 . S
N256 H269 0.985 1_556 S
N257 C259 1.356 . S
N257 H262 0.984 . S
N257 H263 0.985 . S
C258 C252 1.379 . S
C258 C255 1.363 . S
C258 N256 1.356 . S
C259 C253 1.363 . S
C259 C254 1.379 . S
C259 N257 1.356 . S
N260 C252 1.356 . S
N260 H266 0.984 . S
N260 H267 0.984 . S
N261 C254 1.356 . S
N261 H264 0.984 1_556 S
N261 H265 0.985 . S
H262 N257 0.984 . S
H263 N257 0.985 . S
H264 N261 0.984 1_554 S
H265 N261 0.985 . S
H266 N260 0.984 . S
H267 N260 0.984 . S
H268 N256 0.984 . S
H269 N256 0.985 1_554 S
C270 C271 1.363 1_556 S
C270 C276 1.379 . S
C270 N278 1.356 1_556 S
C271 C270 1.363 1_554 S
C271 C277 1.363 1_554 S
C272 C273 1.363 . S
C272 C277 1.379 . S
C272 N279 1.356 . S
C273 C272 1.363 . S
C273 C276 1.363 . S
N274 C276 1.356 . S
N274 H286 0.984 . S
N274 H287 0.985 . S
N275 C277 1.356 1_554 S
N275 H280 0.984 . S
N275 H281 0.985 . S
C276 C270 1.379 . S
C276 C273 1.363 . S
C276 N274 1.356 . S
C277 C271 1.363 1_556 S
C277 C272 1.379 . S
C277 N275 1.356 1_556 S
N278 C270 1.356 1_554 S
N278 H284 0.984 . S
N278 H285 0.984 . S
N279 C272 1.356 . S
N279 H282 0.984 . S
N279 H283 0.985 . S
H280 N275 0.984 . S
H281 N275 0.985 . S
H282 N279 0.984 . S
H283 N279 0.985 . S
H284 N278 0.984 . S
H285 N278 0.984 . S
H286 N274 0.984 . S
H287 N274 0.985 . S
C288 C289 1.363 1_565 S
C288 C294 1.379 . S
C288 N296 1.356 1_565 S
C289 C288 1.363 1_545 S
C289 C295 1.363 . S
C290 C291 1.363 . S
C290 C295 1.379 1_565 S
C290 N297 1.356 . S
C291 C290 1.363 . S
C291 C294 1.363 . S
N292 C294 1.356 . S
N292 H304 0.984 . S
N292 H305 0.985 . S
N293 C295 1.356 . S
N293 H298 0.984 . S
N293 H299 0.985 . S
C294 C288 1.379 . S
C294 C291 1.363 . S
C294 N292 1.356 . S
C295 C289 1.363 . S
C295 C290 1.379 1_545 S
C295 N293 1.356 . S
N296 C288 1.356 1_545 S
N296 H302 0.984 1_545 S
N296 H303 0.984 . S
N297 C290 1.356 . S
N297 H300 0.984 . S
N297 H301 0.985 . S
H298 N293 0.984 . S
H299 N293 0.985 . S
H300 N297 0.984 . S
H301 N297 0.985 . S
H302 N296 0.984 1_565 S
H303 N296 0.984 . S
H304 N292 0.984 . S
H305 N292 0.985 . S
C306 C307 1.363 . S
C306 C312 1.379 . S
C306 N314 1.356 . S
C307 C306 1.363 . S
C307 C313 1.363 . S
C308 C309 1.363 . S
C308 C313 1.379 . S
C308 N315 1.356 . S
C309 C308 1.363 . S
C309 C312 1.363 . S
N310 C312 1.356 . S
N310 H322 0.984 . S
N310 H323 0.985 . S
N311 C313 1.356 . S
N311 H316 0.984 . S
N311 H317 0.985 . S
C312 C306 1.379 . S
C312 C309 1.363 . S
C312 N310 1.356 . S
C313 C307 1.363 . S
C313 C308 1.379 . S
C313 N311 1.356 . S
N314 C306 1.356 . S
N314 H320 0.984 . S
N314 H321 0.984 . S
N315 C308 1.356 . S
N315 H318 0.984 . S
N315 H319 0.985 . S
H316 N311 0.984 . S
H317 N311 0.985 . S
H318 N315 0.984 . S
H319 N315 0.985 . S
H320 N314 0.984 . S
H321 N314 0.984 . S
H322 N310 0.984 . S
H323 N310 0.985 . S
C324 C325 1.363 . S
C324 C330 1.379 1_655 S
C324 N332 1.356 1_556 S
C325 C324 1.363 . S
C325 C331 1.363 . S
C326 C327 1.363 1_655 S
C326 C331 1.379 . S
C326 N333 1.356 1_655 S
C327 C326 1.363 1_455 S
C327 C330 1.363 . S
N328 C330 1.356 . S
N328 H340 0.984 . S
N328 H341 0.985 . S
N329 C331 1.356 . S
N329 H334 0.984 . S
N329 H335 0.985 . S
C330 C324 1.379 1_455 S
C330 C327 1.363 . S
C330 N328 1.356 . S
C331 C325 1.363 . S
C331 C326 1.379 . S
C331 N329 1.356 . S
N332 C324 1.356 1_554 S
N332 H338 0.984 . S
N332 H339 0.984 . S
N333 C326 1.356 1_455 S
N333 H336 0.984 . S
N333 H337 0.985 1_455 S
H334 N329 0.984 . S
H335 N329 0.985 . S
H336 N333 0.984 . S
H337 N333 0.985 1_655 S
H338 N332 0.984 . S
H339 N332 0.984 . S
H340 N328 0.984 . S
H341 N328 0.985 . S
C342 C343 1.363 . S
C342 C348 1.379 1_565 S
C342 N350 1.356 . S
C343 C342 1.363 . S
C343 C349 1.363 1_554 S
C344 C345 1.363 1_565 S
C344 C349 1.379 . S
C344 N351 1.356 1_565 S
C345 C344 1.363 1_545 S
C345 C348 1.363 1_556 S
N346 C348 1.356 . S
N346 H358 0.984 . S
N346 H359 0.985 . S
N347 C349 1.356 . S
N347 H352 0.984 . S
N347 H353 0.985 . S
C348 C342 1.379 1_545 S
C348 C345 1.363 1_554 S
C348 N346 1.356 . S
C349 C343 1.363 1_556 S
C349 C344 1.379 . S
C349 N347 1.356 . S
N350 C342 1.356 . S
N350 H356 0.984 . S
N350 H357 0.984 . S
N351 C344 1.356 1_545 S
N351 H354 0.984 . S
N351 H355 0.985 1_545 S
H352 N347 0.984 . S
H353 N347 0.985 . S
H354 N351 0.984 . S
H355 N351 0.985 1_565 S
H356 N350 0.984 . S
H357 N350 0.984 . S
H358 N346 0.984 . S
H359 N346 0.985 . S
C360 C361 1.363 . S
C360 C366 1.379 . S
C360 N368 1.356 . S
C361 C360 1.363 . S
C361 C367 1.363 . S
C362 C363 1.363 . S
C362 C367 1.379 . S
C362 N369 1.356 . S
C363 C362 1.363 . S
C363 C366 1.363 . S
N364 C366 1.356 1_556 S
N364 H376 0.984 . S
N364 H377 0.985 . S
N365 C367 1.356 . S
N365 H370 0.984 . S
N365 H371 0.985 . S
C366 C360 1.379 . S
C366 C363 1.363 . S
C366 N364 1.356 1_554 S
C367 C361 1.363 . S
C367 C362 1.379 . S
C367 N365 1.356 . S
N368 C360 1.356 . S
N368 H374 0.984 . S
N368 H375 0.984 . S
N369 C362 1.356 . S
N369 H372 0.984 . S
N369 H373 0.985 . S
H370 N365 0.984 . S
H371 N365 0.985 . S
H372 N369 0.984 . S
H373 N369 0.985 . S
H374 N368 0.984 . S
H375 N368 0.984 . S
H376 N364 0.984 . S
H377 N364 0.985 . S
C378 C379 1.363 . S
C378 C384 1.379 . S
C378 N386 1.356 . S
C379 C378 1.363 . S
C379 C385 1.363 . S
C380 C381 1.363 . S
C380 C385 1.379 1_455 S
C380 N387 1.356 . S
C381 C380 1.363 . S
C381 C384 1.363 1_455 S
N382 C384 1.356 1_455 S
N382 H394 0.984 1_455 S
N382 H395 0.985 . S
N383 C385 1.356 . S
N383 H388 0.984 . S
N383 H389 0.985 . S
C384 C378 1.379 . S
C384 C381 1.363 1_655 S
C384 N382 1.356 1_655 S
C385 C379 1.363 . S
C385 C380 1.379 1_655 S
C385 N383 1.356 . S
N386 C378 1.356 . S
N386 H392 0.984 . S
N386 H393 0.984 . S
N387 C380 1.356 . S
N387 H390 0.984 . S
N387 H391 0.985 . S
H388 N383 0.984 . S
H389 N383 0.985 . S
H390 N387 0.984 . S
H391 N387 0.985 . S
H392 N386 0.984 . S
H393 N386 0.984 . S
H394 N382 0.984 1_655 S
H395 N382 0.985 . S
C396 C397 1.363 . S
C396 C402 1.379 . S
C396 N404 1.356 . S
C397 C396 1.363 . S
C397 C403 1.363 . S
C398 C399 1.363 . S
C398 C403 1.379 . S
C398 N405 1.356 . S
C399 C398 1.363 . S
C399 C402 1.363 . S
N400 C402 1.356 . S
N400 H412 0.984 . S
N400 H413 0.985 . S
N401 C403 1.356 . S
N401 H406 0.984 . S
N401 H407 0.985 . S
C402 C396 1.379 . S
C402 C399 1.363 . S
C402 N400 1.356 . S
C403 C397 1.363 . S
C403 C398 1.379 . S
C403 N401 1.356 . S
N404 C396 1.356 . S
N404 H410 0.984 . S
N404 H411 0.984 . S
N405 C398 1.356 . S
N405 H408 0.984 . S
N405 H409 0.985 . S
H406 N401 0.984 . S
H407 N401 0.985 . S
H408 N405 0.984 . S
H409 N405 0.985 . S
H410 N404 0.984 . S
H411 N404 0.984 . S
H412 N400 0.984 . S
H413 N400 0.985 . S
C414 C415 1.363 . S
C414 C420 1.379 . S
C414 N422 1.356 . S
C415 C414 1.363 . S
C415 C421 1.363 . S
C416 C417 1.363 . S
C416 C421 1.379 . S
C416 N423 1.356 . S
C417 C416 1.363 . S
C417 C420 1.363 . S
N418 C420 1.356 . S
N418 H430 0.984 . S
N418 H431 0.985 . S
N419 C421 1.356 . S
N419 H424 0.984 . S
N419 H425 0.985 . S
C420 C414 1.379 . S
C420 C417 1.363 . S
C420 N418 1.356 . S
C421 C415 1.363 . S
C421 C416 1.379 . S
C421 N419 1.356 . S
N422 C414 1.356 . S
N422 H428 0.984 . S
N422 H429 0.984 . S
N423 C416 1.356 . S
N423 H426 0.984 . S
N423 H427 0.985 . S
H424 N419 0.984 . S
H425 N419 0.985 . S
H426 N423 0.984 . S
H427 N423 0.985 . S
H428 N422 0.984 . S
H429 N422 0.984 . S
H430 N418 0.984 . S
H431 N418 0.985 . S
C432 C433 1.363 . S
C432 C438 1.379 . S
C432 N440 1.356 . S
C433 C432 1.363 . S
C433 C439 1.363 . S
C434 C435 1.363 . S
C434 C439 1.379 . S
C434 N441 1.356 . S
C435 C434 1.363 . S
C435 C438 1.363 . S
N436 C438 1.356 . S
N436 H448 0.984 . S
N436 H449 0.985 . S
N437 C439 1.356 . S
N437 H442 0.984 . S
N437 H443 0.985 . S
C438 C432 1.379 . S
C438 C435 1.363 . S
C438 N436 1.356 . S
C439 C433 1.363 . S
C439 C434 1.379 . S
C439 N437 1.356 . S
N440 C432 1.356 . S
N440 H446 0.984 . S
N440 H447 0.984 1_556 S
N441 C434 1.356 . S
N441 H444 0.984 . S
N441 H445 0.985 . S
H442 N437 0.984 . S
H443 N437 0.985 . S
H444 N441 0.984 . S
H445 N441 0.985 . S
H446 N440 0.984 . S
H447 N440 0.984 1_554 S
H448 N436 0.984 . S
H449 N436 0.985 . S
C450 C451 1.363 . S
C450 C456 1.379 . S
C450 N458 1.356 . S
C451 C450 1.363 . S
C451 C457 1.363 . S
C452 C453 1.363 . S
C452 C457 1.379 . S
C452 N459 1.356 . S
C453 C452 1.363 . S
C453 C456 1.363 . S
N454 C456 1.356 . S
N454 H466 0.984 . S
N454 H467 0.985 . S
N455 C457 1.356 . S
N455 H460 0.984 . S
N455 H461 0.985 . S
C456 C450 1.379 . S
C456 C453 1.363 . S
C456 N454 1.356 . S
C457 C451 1.363 . S
C457 C452 1.379 . S
C457 N455 1.356 . S
N458 C450 1.356 . S
N458 H464 0.984 1_556 S
N458 H465 0.984 1_556 S
N459 C452 1.356 . S
N459 H462 0.984 . S
N459 H463 0.985 . S
H460 N455 0.984 . S
H461 N455 0.985 . S
H462 N459 0.984 . S
H463 N459 0.985 . S
H464 N458 0.984 1_554 S
H465 N458 0.984 1_554 S
H466 N454 0.984 . S
H467 N454 0.985 . S
C468 C469 1.363 . S
C468 C474 1.379 . S
C468 N476 1.356 . S
C469 C468 1.363 . S
C469 C475 1.363 . S
C470 C471 1.363 . S
C470 C475 1.379 . S
C470 N477 1.356 . S
C471 C470 1.363 . S
C471 C474 1.363 . S
N472 C474 1.356 1_556 S
N472 H484 0.984 . S
N472 H485 0.985 . S
N473 C475 1.356 . S
N473 H478 0.984 . S
N473 H479 0.985 . S
C474 C468 1.379 . S
C474 C471 1.363 . S
C474 N472 1.356 1_554 S
C475 C469 1.363 . S
C475 C470 1.379 . S
C475 N473 1.356 . S
N476 C468 1.356 . S
N476 H482 0.988 . S
N476 H483 0.984 . S
N477 C470 1.356 . S
N477 H480 0.984 . S
N477 H481 0.985 . S
H478 N473 0.984 . S
H479 N473 0.985 . S
H480 N477 0.984 . S
H481 N477 0.985 . S
H482 N476 0.988 . S
H483 N476 0.984 . S
H484 N472 0.984 . S
H485 N472 0.985 . S
C486 C487 1.363 . S
C486 C492 1.379 . S
C486 N494 1.356 . S
C487 C486 1.363 . S
C487 C493 1.363 . S
C488 C489 1.363 . S
C488 C493 1.379 . S
C488 N495 1.356 . S
C489 C488 1.363 . S
C489 C492 1.363 . S
N490 C492 1.356 . S
N490 H502 0.984 . S
N490 H503 0.985 . S
N491 C493 1.356 . S
N491 H496 0.984 1_554 S
N491 H497 0.985 1_554 S
C492 C486 1.379 . S
C492 C489 1.363 . S
C492 N490 1.356 . S
C493 C487 1.363 . S
C493 C488 1.379 . S
C493 N491 1.356 . S
N494 C486 1.356 . S
N494 H500 0.984 . S
N494 H501 0.984 . S
N495 C488 1.356 . S
N495 H498 0.984 . S
N495 H499 0.985 . S
H496 N491 0.984 1_556 S
H497 N491 0.985 1_556 S
H498 N495 0.984 . S
H499 N495 0.985 . S
H500 N494 0.984 . S
H501 N494 0.984 . S
H502 N490 0.984 . S
H503 N490 0.985 . S
C181 C16 1.122 . S
C183 C27 1.122 1_554 S
C199 C57 1.122 . S
C201 C46 1.122 1_554 S
C217 C87 1.122 . S
C219 C76 1.122 . S
C235 C106 1.122 . S
C237 C117 1.122 . S
C253 C147 1.122 . S
C255 C136 1.122 1_556 S
C271 C177 1.122 . S
C273 C166 1.122 . S
C289 C1 2.003 . S
C291 C151 2.003 . S
C307 N6 1.687 . S
C309 N36 1.687 . S
C325 C61 2.003 . S
C327 C31 2.003 . S
C343 N96 1.687 . S
C345 N66 1.687 . S
C361 C121 2.003 . S
C363 C91 2.003 . S
C379 N126 1.687 . S
C381 N156 1.687 . S
C397 C10 1.990 . S
C399 N134 1.782 . S
C415 N44 1.782 . S
C417 C160 1.990 . S
C433 C70 1.991 . S
C435 N14 1.782 . S
C451 N104 1.782 . S
C453 C40 1.991 . S
C469 C130 1.991 . S
C471 N74 1.782 . S
C487 C100 1.991 . S
C489 N164 1.783 . S
