# Generated by pormake.
# Topology can, (4)-cn, num edge types: 1
# Building blocks:
#     Node 0, Type 0, BuildingBlock: TATPOV_clean_sbu_0, # of connection points: 4
#     Node 1, Type 0, BuildingBlock: TATPOV_clean_sbu_0, # of connection points: 4
#     Node 2, Type 0, BuildingBlock: TATPOV_clean_sbu_0, # of connection points: 4
#     Node 3, Type 0, BuildingBlock: TATPOV_clean_sbu_0, # of connection points: 4
#     Node 4, Type 0, BuildingBlock: TATPOV_clean_sbu_0, # of connection points: 4
#     Node 5, Type 0, BuildingBlock: TATPOV_clean_sbu_0, # of connection points: 4
#     Node 6, Type 0, BuildingBlock: TATPOV_clean_sbu_0, # of connection points: 4
#     Node 7, Type 0, BuildingBlock: TATPOV_clean_sbu_0, # of connection points: 4
#     Node 8, Type 0, BuildingBlock: TATPOV_clean_sbu_0, # of connection points: 4
#     Node 9, Type 0, BuildingBlock: TATPOV_clean_sbu_0, # of connection points: 4
#     Node 10, Type 0, BuildingBlock: TATPOV_clean_sbu_0, # of connection points: 4
#     Node 11, Type 0, BuildingBlock: TATPOV_clean_sbu_0, # of connection points: 4
#     Edge 12, Type (0, 0), BuildingBlock: XUDNAN_clean_linker_2, # of connection points: 2
#     Edge 13, Type (0, 0), BuildingBlock: XUDNAN_clean_linker_2, # of connection points: 2
#     Edge 14, Type (0, 0), BuildingBlock: XUDNAN_clean_linker_2, # of connection points: 2
#     Edge 15, Type (0, 0), BuildingBlock: XUDNAN_clean_linker_2, # of connection points: 2
#     Edge 16, Type (0, 0), BuildingBlock: XUDNAN_clean_linker_2, # of connection points: 2
#     Edge 17, Type (0, 0), BuildingBlock: XUDNAN_clean_linker_2, # of connection points: 2
#     Edge 18, Type (0, 0), BuildingBlock: XUDNAN_clean_linker_2, # of connection points: 2
#     Edge 19, Type (0, 0), BuildingBlock: XUDNAN_clean_linker_2, # of connection points: 2
#     Edge 20, Type (0, 0), BuildingBlock: XUDNAN_clean_linker_2, # of connection points: 2
#     Edge 21, Type (0, 0), BuildingBlock: XUDNAN_clean_linker_2, # of connection points: 2
#     Edge 22, Type (0, 0), BuildingBlock: XUDNAN_clean_linker_2, # of connection points: 2
#     Edge 23, Type (0, 0), BuildingBlock: XUDNAN_clean_linker_2, # of connection points: 2
#     Edge 24, Type (0, 0), BuildingBlock: XUDNAN_clean_linker_2, # of connection points: 2
#     Edge 25, Type (0, 0), BuildingBlock: XUDNAN_clean_linker_2, # of connection points: 2
#     Edge 26, Type (0, 0), BuildingBlock: XUDNAN_clean_linker_2, # of connection points: 2
#     Edge 27, Type (0, 0), BuildingBlock: XUDNAN_clean_linker_2, # of connection points: 2
#     Edge 28, Type (0, 0), BuildingBlock: XUDNAN_clean_linker_2, # of connection points: 2
#     Edge 29, Type (0, 0), BuildingBlock: XUDNAN_clean_linker_2, # of connection points: 2
#     Edge 30, Type (0, 0), BuildingBlock: XUDNAN_clean_linker_2, # of connection points: 2
#     Edge 31, Type (0, 0), BuildingBlock: XUDNAN_clean_linker_2, # of connection points: 2
#     Edge 32, Type (0, 0), BuildingBlock: XUDNAN_clean_linker_2, # of connection points: 2
#     Edge 33, Type (0, 0), BuildingBlock: XUDNAN_clean_linker_2, # of connection points: 2
#     Edge 34, Type (0, 0), BuildingBlock: XUDNAN_clean_linker_2, # of connection points: 2
#     Edge 35, Type (0, 0), BuildingBlock: XUDNAN_clean_linker_2, # of connection points: 2
# Relax obj value: 0.056
# Max RMSD: 0.072
# Mean RMSD: 0.072
data_MOF--net-can--node1-TATPOV_clean_sbu_0--edge1-XUDNAN_clean_linker_2
_symmetry_space_group_name_H-M    P1
_symmetry_Int_Tables_number       1
_symmetry_cell_setting            triclinic
loop_
_symmetry_equiv_pos_as_xyz
'x, y, z'
_cell_length_a     57.358523
_cell_length_b     57.322424
_cell_length_c     26.985524
_cell_angle_alpha  89.942142
_cell_angle_beta   90.119603
_cell_angle_gamma 119.93956
loop_
_atom_site_label
_atom_site_type_symbol
_atom_site_fract_x
_atom_site_fract_y
_atom_site_fract_z
_atom_type_partial_charge
Zn0 Zn 0.03855 0.40377 0.24878 0.0
Zn1 Zn 0.08817 0.41225 0.24617 0.0
O2 O 0.07119 0.38868 0.30894 0.0
O3 O 0.02919 0.37984 0.30725 0.0
O4 O 0.12584 0.41718 0.24491 0.0
O5 O 0.03048 0.38718 0.18174 0.0
O6 O 0.0712 0.39244 0.1803 0.0
C7 C 0.04751 0.37692 0.32726 0.0
C8 C 0.07775 0.45982 0.25615 0.0
O9 O 0.09438 0.45139 0.25015 0.0
O10 O 0.05276 0.4432 0.258 0.0
C11 C 0.1429 0.43165 0.27773 0.0
O12 O 0.13576 0.44343 0.31138 0.0
C13 C 0.0482 0.38396 0.16014 0.0
Zn14 Zn 0.64566 0.02452 0.73799 0.0
Zn15 Zn 0.68309 0.07593 0.73329 0.0
O16 O 0.69037 0.06346 0.80137 0.0
O17 O 0.65974 0.02029 0.80224 0.0
O18 O 0.71248 0.11515 0.72623 0.0
O19 O 0.65907 0.01502 0.67841 0.0
O20 O 0.68957 0.05798 0.67153 0.0
C21 C 0.67952 0.04036 0.82208 0.0
C22 C 0.62295 0.05916 0.73154 0.0
O23 O 0.64764 0.07763 0.73122 0.0
O24 O 0.61688 0.0347 0.7339 0.0
C25 C 0.73584 0.12509 0.74536 0.0
O26 O 0.74167 0.10963 0.77245 0.0
C27 C 0.67889 0.03375 0.65599 0.0
Zn28 Zn 0.62633 0.63498 0.22844 0.0
Zn29 Zn 0.61406 0.67374 0.22299 0.0
O30 O 0.63234 0.67988 0.29226 0.0
O31 O 0.64254 0.64749 0.29479 0.0
O32 O 0.60462 0.70344 0.21598 0.0
O33 O 0.65127 0.64953 0.17158 0.0
O34 O 0.64007 0.68096 0.16367 0.0
C35 C 0.64298 0.66774 0.31423 0.0
C36 C 0.56977 0.61381 0.21565 0.0
O37 O 0.57672 0.63872 0.2171 0.0
O38 O 0.58749 0.60688 0.21927 0.0
C39 C 0.61878 0.72716 0.23321 0.0
O40 O 0.64089 0.73334 0.25788 0.0
C41 C 0.65364 0.67004 0.14951 0.0
Zn42 Zn 0.98746 0.61957 0.69731 0.0
Zn43 Zn 0.93629 0.60477 0.7092 0.0
O44 O 0.95532 0.62818 0.77121 0.0
O45 O 0.99825 0.64259 0.75723 0.0
O46 O 0.89755 0.59638 0.71518 0.0
O47 O 0.99004 0.63711 0.63299 0.0
O48 O 0.94729 0.62481 0.64156 0.0
C49 C 0.98002 0.64237 0.78373 0.0
C50 C 0.95337 0.56189 0.70642 0.0
O51 O 0.93454 0.56756 0.70993 0.0
O52 O 0.97748 0.58064 0.70108 0.0
C53 C 0.88045 0.58067 0.68354 0.0
O54 O 0.88825 0.56947 0.64987 0.0
C55 C 0.96914 0.63669 0.61691 0.0
Zn56 Zn 0.38095 0.98621 0.27519 0.0
Zn57 Zn 0.3394 0.93774 0.26123 0.0
O58 O 0.33182 0.95107 0.32798 0.0
O59 O 0.36613 0.99213 0.33653 0.0
O60 O 0.30543 0.90143 0.252 0.0
O61 O 0.37391 1.00017 0.21323 0.0
O62 O 0.33939 0.95961 0.19979 0.0
C63 C 0.34389 0.97323 0.35186 0.0
C64 C 0.39612 0.94538 0.27082 0.0
O65 O 0.37106 0.92958 0.26293 0.0
O66 O 0.405 0.97027 0.27751 0.0
C67 C 0.28332 0.90152 0.25456 0.0
O68 O 0.28412 0.92457 0.26182 0.0
C69 C 0.35402 0.98421 0.18701 0.0
Zn70 Zn 0.39914 0.37797 0.72577 0.0
Zn71 Zn 0.40728 0.33631 0.72319 0.0
O72 O 0.38203 0.32785 0.78397 0.0
O73 O 0.37368 0.3614 0.78171 0.0
O74 O 0.4134 0.30444 0.71524 0.0
O75 O 0.38449 0.37152 0.65717 0.0
O76 O 0.38922 0.33572 0.65639 0.0
C77 C 0.36996 0.33974 0.80121 0.0
C78 C 0.45457 0.39391 0.7396 0.0
O79 O 0.44601 0.36889 0.73274 0.0
O80 O 0.43826 0.40271 0.73926 0.0
C81 C 0.40767 0.28546 0.74597 0.0
O82 O 0.3968 0.28551 0.78873 0.0
C83 C 0.38157 0.35073 0.63537 0.0
Zn84 Zn 0.62104 0.99032 0.24596 0.0
Zn85 Zn 0.61566 0.94196 0.24052 0.0
O86 O 0.63528 0.96089 0.17546 0.0
O87 O 0.63728 1.00022 0.17886 0.0
O88 O 0.6133 0.90538 0.23703 0.0
O89 O 0.64534 1.00018 0.30417 0.0
O90 O 0.63853 0.95885 0.30395 0.0
C91 C 0.64222 0.98384 0.15637 0.0
C92 C 0.56596 0.94858 0.25345 0.0
O93 O 0.57571 0.93316 0.24581 0.0
O94 O 0.58141 0.9738 0.25613 0.0
C95 C 0.59631 0.88656 0.20941 0.0
O96 O 0.57976 0.89088 0.18237 0.0
C97 C 0.64926 0.98229 0.32328 0.0
Zn98 Zn 0.64023 0.61823 0.74353 0.0
Zn99 Zn 0.68111 0.60967 0.73553 0.0
O100 O 0.68187 0.62946 0.67049 0.0
O101 O 0.64606 0.63403 0.67609 0.0
O102 O 0.71294 0.60348 0.72848 0.0
O103 O 0.65717 0.64263 0.80086 0.0
O104 O 0.68991 0.63315 0.79896 0.0
C105 C 0.66646 0.63742 0.65224 0.0
C106 C 0.62341 0.56238 0.75077 0.0
O107 O 0.64824 0.57085 0.74221 0.0
O108 O 0.61502 0.57896 0.75442 0.0
C109 C 0.71158 0.58634 0.69699 0.0
O110 O 0.68969 0.57337 0.66996 0.0
C111 C 0.67871 0.64525 0.8189 0.0
Zn112 Zn 0.02203 0.62912 0.20911 0.0
Zn113 Zn 0.06778 0.67464 0.21789 0.0
O114 O 0.0543 0.67615 0.14718 0.0
O115 O 0.0176 0.63664 0.13916 0.0
O116 O 0.10057 0.71183 0.22597 0.0
O117 O 1.00355 0.63897 0.25995 0.0
O118 O 0.04305 0.67477 0.27404 0.0
C119 C 0.03409 0.65946 0.12154 0.0
C120 C 0.06674 0.6213 0.2328 0.0
O121 O 0.0808 0.64682 0.22774 0.0
O122 O 0.04141 0.60948 0.22817 0.0
C123 C 0.12536 0.71954 0.21958 0.0
O124 O 0.13248 0.70197 0.2061 0.0
C125 C 0.01811 0.66017 0.28436 0.0
Zn126 Zn 0.39364 0.01747 0.76097 0.0
Zn127 Zn 0.40397 0.06759 0.75363 0.0
O128 O 0.37795 0.04764 0.69499 0.0
O129 O 0.36712 1.00533 0.70615 0.0
O130 O 0.40935 0.10537 0.74973 0.0
O131 O 0.37955 0.01357 0.82905 0.0
O132 O 0.38695 0.05502 0.82323 0.0
C133 C 0.36436 0.02286 0.68264 0.0
C134 C 0.44986 0.05484 0.74439 0.0
O135 O 0.44232 0.07236 0.74623 0.0
O136 O 0.43265 0.03008 0.74867 0.0
C137 C 0.41837 0.11984 0.71105 0.0
O138 O 0.42508 0.11031 0.67276 0.0
C139 C 0.37825 0.03313 0.84751 0.0
Zn140 Zn 0.37736 0.38645 0.20449 0.0
Zn141 Zn 0.33915 0.39921 0.21038 0.0
O142 O 0.32898 0.3749 0.14726 0.0
O143 O 0.36025 0.36322 0.1463 0.0
O144 O 0.3088 0.40767 0.21707 0.0
O145 O 0.3681 0.36825 0.26959 0.0
O146 O 0.3366 0.37941 0.27658 0.0
C147 C 0.33911 0.36153 0.12836 0.0
C148 C 0.39856 0.44357 0.19962 0.0
O149 O 0.37382 0.43681 0.20433 0.0
O150 O 0.40519 0.42557 0.19801 0.0
C151 C 0.31015 0.42335 0.25168 0.0
O152 O 0.33135 0.43389 0.28085 0.0
C153 C 0.34911 0.36794 0.29369 0.0
Zn154 Zn 1.00378 0.37917 0.73518 0.0
Zn155 Zn 0.95391 0.33869 0.73764 0.0
O156 O 0.9705 0.3316 0.67461 0.0
O157 O 0.01268 0.36455 0.67657 0.0
O158 O 0.9162 0.30612 0.73972 0.0
O159 O 0.01256 0.36959 0.8001 0.0
O160 O 0.97078 0.33589 0.80433 0.0
C161 C 0.99431 0.34329 0.6569 0.0
C162 C 0.96498 0.39692 0.72883 0.0
O163 O 0.94812 0.37178 0.7325 0.0
O164 O 0.98997 0.40506 0.72875 0.0
C165 C 0.89794 0.30362 0.70975 0.0
O166 O 0.90357 0.32281 0.6773 0.0
C167 C 0.99441 0.34937 0.82262 0.0
H168 H 1.001 0.36404 0.10911 0.0
H169 H 0.08139 0.37493 0.09955 0.0
H170 H 0.07172 0.35707 0.01412 0.0
H171 H 0.96633 0.30241 0.02765 0.0
H172 H 0.94508 0.31399 0.00091 0.0
H173 H 0.9562 0.32209 0.06433 0.0
H174 H 0.97609 0.37286 0.04525 0.0
H175 H 0.96499 0.36493 0.98216 0.0
H176 H 0.99998 0.38791 -0.00454 0.0
H177 H 0.0568 0.34659 0.92692 0.0
H178 H 0.03849 0.34579 0.84378 0.0
H179 H 0.96725 0.34054 0.90957 0.0
C180 C 0.01638 0.36203 0.08961 0.0
C181 C 0.04197 0.37086 0.111 0.0
C182 C 0.06163 0.36822 0.08395 0.0
C183 C 0.05623 0.3579 0.03557 0.0
C184 C 0.03098 0.35002 0.01516 0.0
C185 C 0.01131 0.35181 0.04148 0.0
C186 C 0.98719 0.34542 0.00927 0.0
C187 C 0.96223 0.31943 0.02658 0.0
C188 C 0.98178 0.3692 0.00795 0.0
C189 C 0.99704 0.34142 0.9598 0.0
C190 C 0.02208 0.3435 0.96432 0.0
C191 C 0.0369 0.34411 0.92307 0.0
C192 C 0.02638 0.34368 0.87606 0.0
C193 C 1.00131 0.34256 0.87077 0.0
C194 C 0.98598 0.34036 0.91298 0.0
H195 H 0.67491 0.03059 0.37069 0.0
H196 H 0.6569 0.94777 0.38308 0.0
H197 H 0.67488 0.95681 0.46841 0.0
H198 H 0.73607 0.06173 0.45806 0.0
H199 H 0.72593 0.08466 0.48201 0.0
H200 H 0.7195 0.07418 0.41805 0.0
H201 H 0.66889 0.05793 0.43064 0.0
H202 H 0.6751 0.0682 0.49423 0.0
H203 H 0.65068 0.03389 0.47892 0.0
H204 H 0.68352 0.97097 0.55572 0.0
H205 H 0.68119 0.98852 0.6377 0.0
H206 H 0.69397 0.06251 0.57007 0.0
C207 C 0.67565 0.01458 0.39064 0.0
C208 C 0.66449 0.98846 0.37028 0.0
C209 C 0.66548 0.96797 0.39783 0.0
C210 C 0.67581 0.973 0.44625 0.0
C211 C 0.68541 0.99868 0.46615 0.0
C212 C 0.68572 0.01926 0.43892 0.0
C213 C 0.6927 0.04359 0.47094 0.0
C214 C 0.72019 0.06745 0.4564 0.0
C215 C 0.67051 0.05131 0.46855 0.0
C216 C 0.69397 0.03269 0.5213 0.0
C217 C 0.69062 1.00707 0.51748 0.0
C218 C 0.68703 0.99128 0.55913 0.0
C219 C 0.68563 1.00137 0.60552 0.0
C220 C 0.68775 0.02696 0.60987 0.0
C221 C 0.69321 0.04328 0.56762 0.0
H222 H 0.64501 0.69046 0.06467 0.0
H223 H 0.69951 0.6685 0.13382 0.0
H224 H 0.72106 0.6719 0.05335 0.0
H225 H 0.62929 0.65034 0.97087 0.0
H226 H 0.62715 0.67128 0.92323 0.0
H227 H 0.62258 0.67699 -0.01324 0.0
H228 H 0.66092 0.72656 0.97989 0.0
H229 H 0.66548 0.72108 0.91569 0.0
H230 H 0.69358 0.73399 0.95795 0.0
H231 H 0.72754 0.66461 0.966 0.0
H232 H 0.71863 0.64812 0.87973 0.0
H233 H 0.66039 0.675 0.86538 0.0
C234 C 0.66247 0.68792 0.06306 0.0
C235 C 0.67078 0.67944 0.10514 0.0
C236 C 0.69298 0.67517 0.10179 0.0
C237 C 0.70547 0.67722 0.05627 0.0
C238 C 0.69563 0.68375 0.01447 0.0
C239 C 0.6749 0.68954 0.01753 0.0
C240 C 0.66465 0.69093 0.96652 0.0
C241 C 0.63415 0.6712 0.96161 0.0
C242 C 0.67158 0.71987 0.95429 0.0
C243 C 0.68092 0.68241 0.93499 0.0
C244 C 0.69938 0.67932 0.96299 0.0
C245 C 0.71382 0.66781 0.94326 0.0
C246 C 0.70857 0.65837 0.89425 0.0
C247 C 0.68879 0.66022 0.86592 0.0
C248 C 0.67581 0.67351 0.886 0.0
H249 H 0.04389 0.68738 0.36807 0.0
H250 H 0.96534 0.64449 0.29876 0.0
H251 H 0.944 0.64447 0.37781 0.0
H252 H 0.0282 0.6502 0.46688 0.0
H253 H 0.04784 0.67583 0.51193 0.0
H254 H 0.05759 0.68108 0.4481 0.0
H255 H 0.0558 0.72536 0.44744 0.0
H256 H 0.04621 0.72036 0.51187 0.0
H257 H 0.02561 0.72505 0.46695 0.0
H258 H 0.93072 0.6383 0.46582 0.0
H259 H 0.92709 0.62623 0.55452 0.0
H260 H 0.01397 0.67264 0.56776 0.0
C261 C 0.02233 0.67927 0.36911 0.0
C262 C 1.00626 0.66609 0.32754 0.0
C263 C 0.97801 0.65478 0.33036 0.0
C264 C 0.96571 0.65486 0.37503 0.0
C265 C 0.98195 0.66648 0.41645 0.0
C266 C 1.00976 0.67886 0.41374 0.0
C267 C 0.02232 0.68525 0.46481 0.0
C268 C 0.03998 0.67229 0.47339 0.0
C269 C 0.03843 0.71583 0.47326 0.0
C270 C 0.99724 0.67231 0.49648 0.0
C271 C 0.97415 0.66251 0.46812 0.0
C272 C 0.94862 0.6466 0.48865 0.0
C273 C 0.94672 0.63976 0.53903 0.0
C274 C 0.97026 0.64844 0.56776 0.0
C275 C 0.99563 0.66585 0.54661 0.0
H276 H 0.34947 0.98666 0.89903 0.0
H277 H 0.38335 0.07313 0.91037 0.0
H278 H 0.37126 0.06807 -0.00083 0.0
H279 H 0.2945 0.96709 -0.00423 0.0
H280 H 0.29915 0.93987 0.01708 0.0
H281 H 0.30428 0.94953 0.95266 0.0
H282 H 0.3523 0.95601 0.95728 0.0
H283 H 0.34742 0.94657 0.02142 0.0
H284 H 0.37558 0.97848 0.00313 0.0
H285 H 0.36505 0.05502 0.08769 0.0
H286 H 0.36468 0.03517 0.16892 0.0
H287 H 0.33385 0.95685 0.10039 0.0
C288 C 0.35363 1.00448 0.91981 0.0
C289 C 0.36742 0.03031 0.89802 0.0
C290 C 0.37267 0.05315 0.92638 0.0
C291 C 0.36575 0.05043 0.97673 0.0
C292 C 0.35318 0.02471 -0.00239 0.0
C293 C 0.3468 1.00207 0.96981 0.0
C294 C 0.33667 0.97723 0.00194 0.0
C295 C 0.30688 0.95725 -0.00878 0.0
C296 C 0.35405 0.96382 -0.00444 0.0
C297 C 0.34026 0.98972 0.05265 0.0
C298 C 0.34916 0.01702 0.04928 0.0
C299 C 0.35735 0.03358 0.09087 0.0
C300 C 0.35722 0.02216 0.13676 0.0
C301 C 0.34901 0.99447 0.14064 0.0
C302 C 0.3395 0.9779 0.09842 0.0
H303 H 0.34166 0.38813 0.37968 0.0
H304 H 0.34527 0.32038 0.31757 0.0
H305 H 0.34616 0.30397 0.40167 0.0
H306 H 0.38909 0.40296 0.46531 0.0
H307 H 0.37476 0.41301 0.51451 0.0
H308 H 0.3666 0.41552 0.4512 0.0
H309 H 0.31577 0.38574 0.47002 0.0
H310 H 0.32372 0.38348 0.53391 0.0
H311 H 0.30356 0.35324 0.49856 0.0
H312 H 0.35594 0.30003 0.48959 0.0
H313 H 0.37264 0.30821 0.57582 0.0
H314 H 0.36412 0.37931 0.58112 0.0
C315 C 0.34121 0.36912 0.38412 0.0
C316 C 0.3429 0.35517 0.34266 0.0
C317 C 0.34361 0.33105 0.34926 0.0
C318 C 0.34405 0.32157 0.39681 0.0
C319 C 0.34385 0.33651 0.43724 0.0
C320 C 0.34216 0.35965 0.4315 0.0
C321 C 0.34655 0.37423 0.48034 0.0
C322 C 0.37068 0.40311 0.47764 0.0
C323 C 0.32086 0.37415 0.49667 0.0
C324 C 0.35245 0.35653 0.51363 0.0
C325 C 0.3502 0.33456 0.48838 0.0
C326 C 0.35714 0.31679 0.51018 0.0
C327 C 0.36678 0.32169 0.55904 0.0
C328 C 0.36965 0.34436 0.58522 0.0
C329 C 0.36192 0.36165 0.5623 0.0
H330 H 0.95336 0.62533 0.87116 0.0
H331 H 0.02571 0.6893 0.80428 0.0
H332 H 0.04492 0.70602 0.88723 0.0
H333 H 0.95512 0.6631 -0.00996 0.0
H334 H 0.9437 0.63275 0.02583 0.0
H335 H 0.93257 0.63084 0.96265 0.0
H336 H 0.94985 0.59793 0.94237 0.0
H337 H 0.96152 0.60013 0.00484 0.0
H338 H 0.98463 0.60817 0.95399 0.0
H339 H 0.05996 0.7099 0.97513 0.0
H340 H 0.06883 0.70107 0.06101 0.0
H341 H 0.98737 0.63343 0.06956 0.0
C342 C 0.9726 0.6437 0.87422 0.0
C343 C 0.98793 0.65631 0.83172 0.0
C344 C 0.01358 0.6796 0.83671 0.0
C345 C 0.02463 0.68927 0.88363 0.0
C346 C 1.00972 0.67539 0.92508 0.0
C347 C 0.98407 0.65328 0.92086 0.0
C348 C 0.97408 0.63931 0.97018 0.0
C349 C 0.94994 0.64166 -0.01176 0.0
C350 C 0.96714 0.60966 0.96765 0.0
C351 C 0.99866 0.65595 0.00191 0.0
C352 C 0.01877 0.67711 0.97574 0.0
C353 C 0.04414 0.69377 -0.00361 0.0
C354 C 0.04907 0.68854 0.045 0.0
C355 C 0.02886 0.66651 0.07176 0.0
C356 C 1.00327 0.65043 0.05003 0.0
H357 H 0.35982 0.02057 0.39881 0.0
H358 H 0.30482 0.93472 0.41176 0.0
H359 H 0.29451 0.9414 0.49771 0.0
H360 H 0.39037 0.02847 0.50438 0.0
H361 H 0.39526 0.06112 0.52064 0.0
H362 H 0.39149 0.0512 0.45694 0.0
H363 H 0.35144 0.05984 0.44787 0.0
H364 H 0.35518 0.06996 0.512 0.0
H365 H 0.32321 0.04357 0.48947 0.0
H366 H 0.29962 0.95513 0.5853 0.0
H367 H 0.32003 0.97409 0.66632 0.0
H368 H 0.37181 0.05139 0.59772 0.0
C369 C 0.34484 1.00327 0.41913 0.0
C370 C 0.3332 0.9771 0.39889 0.0
C371 C 0.31386 0.95495 0.42656 0.0
C372 C 0.3078 0.95862 0.4753 0.0
C373 C 0.32088 0.9846 0.49521 0.0
C374 C 0.33874 1.00664 0.46761 0.0
C375 C 0.35376 0.03158 0.49943 0.0
C376 C 0.3845 0.04375 0.4951 0.0
C377 C 0.34538 0.05247 0.48642 0.0
C378 C 0.34354 0.0196 0.55009 0.0
C379 C 0.32382 0.99271 0.54669 0.0
C380 C 0.31435 0.97631 0.58843 0.0
C381 C 0.32617 0.98723 0.63428 0.0
C382 C 0.34734 0.01423 0.63797 0.0
C383 C 0.35513 0.03094 0.59589 0.0
H384 H 0.3435 0.36225 0.84578 0.0
H385 H 0.36004 0.29652 0.86033 0.0
H386 H 0.3398 0.28685 0.9438 0.0
H387 H 0.36614 0.38869 0.95443 0.0
H388 H 0.34212 0.39936 0.96812 0.0
H389 H 0.34897 0.39527 0.90504 0.0
H390 H 0.2983 0.36194 0.89008 0.0
H391 H 0.29126 0.36598 0.95362 0.0
H392 H 0.28066 0.33285 0.92945 0.0
H393 H 0.3295 0.2918 0.03004 0.0
H394 H 0.33282 0.31229 0.11173 0.0
H395 H 0.32344 0.37542 0.04338 0.0
C396 C 0.34195 0.34513 0.86568 0.0
C397 C 0.35336 0.33012 0.84656 0.0
C398 C 0.35131 0.30819 0.8741 0.0
C399 C 0.33965 0.30246 0.92144 0.0
C400 C 0.32991 0.31865 0.94034 0.0
C401 C 0.33073 0.33944 0.91301 0.0
C402 C 0.32395 0.35714 0.94446 0.0
C403 C 0.34666 0.38683 0.94293 0.0
C404 C 0.29693 0.35429 0.92845 0.0
C405 C 0.32169 0.34463 -0.00513 0.0
C406 C 0.32404 0.32175 -0.00868 0.0
C407 C 0.32676 0.3091 0.0332 0.0
C408 C 0.32867 0.3209 0.07945 0.0
C409 C 0.32799 0.34516 0.08346 0.0
C410 C 0.32302 0.35635 0.04112 0.0
H411 H 0.96557 0.3277 0.57118 0.0
H412 H 0.03935 0.34071 0.63979 0.0
H413 H 0.05755 0.33938 0.55797 0.0
H414 H 0.9682 0.28736 0.45606 0.0
H415 H 0.95548 0.3042 0.41745 0.0
H416 H 0.94448 0.2962 0.4809 0.0
H417 H 0.95933 0.34627 0.49657 0.0
H418 H 0.97075 0.35454 0.4339 0.0
H419 H 0.99368 0.37175 0.48426 0.0
H420 H 0.07257 0.34999 0.4715 0.0
H421 H 0.08215 0.36957 0.38738 0.0
H422 H 0.99895 0.34999 0.37329 0.0
C423 C 0.98482 0.32854 0.56887 0.0
C424 C 1.00096 0.33389 0.61136 0.0
C425 C 0.02663 0.33625 0.60738 0.0
C426 C 0.03708 0.33543 0.56107 0.0
C427 C 0.02156 0.33216 0.51913 0.0
C428 C 0.99569 0.32821 0.52259 0.0
C429 C 0.98526 0.33035 0.47221 0.0
C430 C 0.96198 0.30289 0.45568 0.0
C431 C 0.9768 0.35202 0.47177 0.0
C432 C 1.01007 0.33857 0.44102 0.0
C433 C 0.03052 0.33865 0.46829 0.0
C434 C 0.05647 0.34916 0.44921 0.0
C435 C 0.0618 0.3604 0.4015 0.0
C436 C 0.04132 0.36132 0.37379 0.0
C437 C 0.01499 0.34935 0.39332 0.0
H438 H 0.68261 0.06653 0.90769 0.0
H439 H 0.69272 1.00267 0.84523 0.0
H440 H 0.69242 0.98536 0.92905 0.0
H441 H 0.71916 0.07286 0.03236 0.0
H442 H 0.69465 0.0781 0.06456 0.0
H443 H 0.70432 0.0904 0.00215 0.0
H444 H 0.65421 0.06417 0.97588 0.0
H445 H 0.6444 0.05124 0.03752 0.0
H446 H 0.63503 0.0283 -0.01405 0.0
H447 H 0.67969 0.96856 0.0149 0.0
H448 H 0.65898 0.95568 0.09795 0.0
H449 H 0.65619 0.02992 0.10489 0.0
C450 C 0.68648 0.04998 0.91221 0.0
C451 C 0.68836 0.03625 0.87062 0.0
C452 C 0.69186 0.01371 0.8771 0.0
C453 C 0.69166 1.00373 0.92452 0.0
C454 C 0.68792 0.01656 0.96495 0.0
C455 C 0.6859 0.03955 0.95944 0.0
C456 C 0.67755 0.04683 0.00753 0.0
C457 C 0.70028 0.07364 0.02786 0.0
C458 C 0.65124 0.04766 0.0013 0.0
C459 C 0.67345 0.02344 0.03967 0.0
C460 C 0.68008 1.0065 0.01489 0.0
C461 C 0.67516 0.98206 0.03528 0.0
C462 C 0.66317 0.97478 0.08225 0.0
C463 C 0.65604 0.9918 0.10798 0.0
C464 C 0.66169 0.01658 0.0865 0.0
H465 H 0.62057 0.67164 0.4003 0.0
H466 H 0.69363 0.68025 0.33666 0.0
H467 H 0.71156 0.68139 0.42033 0.0
H468 H 0.65228 0.71094 0.52119 0.0
H469 H 0.62311 0.68732 0.55583 0.0
H470 H 0.61948 0.69521 0.49258 0.0
H471 H 0.59546 0.64442 0.4711 0.0
H472 H 0.59948 0.63638 0.53367 0.0
H473 H 0.61236 0.62559 0.48315 0.0
H474 H 0.71688 0.67086 0.50715 0.0
H475 H 0.71042 0.65256 0.59217 0.0
H476 H 0.63369 0.65025 0.59994 0.0
C477 C 0.64095 0.67538 0.40442 0.0
C478 C 0.6561 0.67653 0.36262 0.0
C479 C 0.6821 0.67992 0.36868 0.0
C480 C 0.6924 0.68056 0.41598 0.0
C481 C 0.67639 0.67776 0.45675 0.0
C482 C 0.65136 0.6757 0.45158 0.0
C483 C 0.63649 0.66868 0.50047 0.0
C484 C 0.63262 0.69193 0.51859 0.0
C485 C 0.60937 0.6422 0.49684 0.0
C486 C 0.65629 0.66552 0.53291 0.0
C487 C 0.6794 0.67133 0.50736 0.0
C488 C 0.69923 0.66699 0.52808 0.0
C489 C 0.69531 0.65638 0.5762 0.0
C490 C 0.67165 0.65011 0.60278 0.0
C491 C 0.65221 0.65521 0.58092 0.0
H492 H 0.04478 0.57601 0.28747 0.0
H493 H 0.1156 0.62805 0.20118 0.0
H494 H 0.13063 0.59428 0.20794 0.0
H495 H 0.07668 0.54662 0.36904 0.0
H496 H 0.04626 0.51432 0.36858 0.0
H497 H 0.04442 0.54475 0.36448 0.0
H498 H 0.01657 0.52721 0.2835 0.0
H499 H 0.01848 0.49696 0.28707 0.0
H500 H 0.03011 0.51762 0.23224 0.0
H501 H 0.13341 0.55062 0.21366 0.0
H502 H 0.12377 0.50329 0.21817 0.0
H503 H 0.05107 0.48169 0.30085 0.0
C504 C 0.06387 0.58068 0.27115 0.0
C505 C 0.07906 0.60455 0.24384 0.0
C506 C 0.10384 0.60994 0.22276 0.0
C507 C 0.11245 0.59084 0.22638 0.0
C508 C 0.09629 0.56685 0.25204 0.0
C509 C 0.0727 0.56208 0.27474 0.0
C510 C 0.05737 0.53405 0.29611 0.0
C511 C 0.05613 0.535 0.35293 0.0
C512 C 0.02898 0.51804 0.27334 0.0
C513 C 0.07517 0.52309 0.27976 0.0
C514 C 0.09784 0.54226 0.25522 0.0
C515 C 0.11597 0.53568 0.23365 0.0
C516 C 0.11039 0.50878 0.2364 0.0
C517 C 0.08666 0.48886 0.25978 0.0
C518 C 0.0694 0.49647 0.28276 0.0
H519 H 0.46994 0.02118 0.7315 0.0
H520 H 0.4949 0.10594 0.74439 0.0
H521 H 0.54268 0.11731 0.73902 0.0
H522 H 0.5207 0.02248 0.80626 0.0
H523 H 0.52418 0.99819 0.76939 0.0
H524 H 0.49248 0.99746 0.77123 0.0
H525 H 0.49273 1.00112 0.67539 0.0
H526 H 0.52443 1.00179 0.67323 0.0
H527 H 0.52118 0.02853 0.64494 0.0
H528 H 0.58851 0.11842 0.7359 0.0
H529 H 0.62643 0.10914 0.73517 0.0
H530 H 0.56926 0.02358 0.7247 0.0
C531 C 0.48532 0.04223 0.73285 0.0
C532 C 0.4786 0.06267 0.73843 0.0
C533 C 0.49953 0.08991 0.74 0.0
C534 C 0.52672 0.09654 0.73701 0.0
C535 C 0.53254 0.0757 0.73219 0.0
C536 C 0.51226 0.04911 0.72992 0.0
C537 C 0.5233 0.03015 0.72618 0.0
C538 C 0.51466 0.01095 0.77093 0.0
C539 C 0.51492 0.01449 0.67701 0.0
C540 C 0.55308 0.05009 0.72732 0.0
C541 C 0.55825 0.07631 0.73053 0.0
C542 C 0.58458 0.09793 0.73312 0.0
C543 C 0.606 0.09249 0.73268 0.0
C544 C 0.6009 0.06563 0.72992 0.0
C545 C 0.57401 0.04436 0.72686 0.0
H546 H 0.55065 0.56072 0.19628 0.0
H547 H 0.52413 0.6185 0.22254 0.0
H548 H 0.47662 0.58163 0.21702 0.0
H549 H 0.49827 0.51899 0.1085 0.0
H550 H 0.49606 0.48842 0.13148 0.0
H551 H 0.52748 0.51968 0.13499 0.0
H552 H 0.52945 0.51319 0.22974 0.0
H553 H 0.49807 0.48197 0.22655 0.0
H554 H 0.50158 0.50817 0.26801 0.0
H555 H 0.43139 0.53666 0.21312 0.0
H556 H 0.3941 0.48924 0.21059 0.0
H557 H 0.45213 0.46289 0.18583 0.0
C558 C 0.53495 0.56581 0.2006 0.0
C559 C 0.54116 0.59254 0.21001 0.0
C560 C 0.51987 0.59818 0.21521 0.0
C561 C 0.49284 0.57736 0.21214 0.0
C562 C 0.4875 0.55112 0.20338 0.0
C563 C 0.5081 0.54547 0.19739 0.0
C564 C 0.49751 0.51577 0.18959 0.0
C565 C 0.50529 0.51041 0.13808 0.0
C566 C 0.50722 0.5041 0.23094 0.0
C567 C 0.46764 0.50532 0.19307 0.0
C568 C 0.46205 0.52585 0.20075 0.0
C569 C 0.43563 0.52051 0.20671 0.0
C570 C 0.41457 0.49353 0.20518 0.0
C571 C 0.42011 0.47227 0.19794 0.0
C572 C 0.44705 0.47854 0.19129 0.0
H573 H 0.99001 0.54513 0.69916 0.0
H574 H 0.90463 0.51481 0.72 0.0
H575 H 0.89721 0.46833 0.72615 0.0
H576 H 0.98406 0.49051 0.62491 0.0
H577 H 0.01325 0.49164 0.65253 0.0
H578 H 0.01104 0.52184 0.64851 0.0
H579 H 0.01837 0.52862 0.74347 0.0
H580 H 0.02057 0.49845 0.7478 0.0
H581 H 0.99633 0.50193 0.78474 0.0
H582 H 0.90025 0.42456 0.73154 0.0
H583 H 0.91342 0.38937 0.73631 0.0
H584 H 0.99669 0.45061 0.71218 0.0
C585 C 0.96964 0.52883 0.70481 0.0
C586 C 0.94789 0.5337 0.70907 0.0
C587 C 0.92163 0.5116 0.71656 0.0
C588 C 0.91724 0.48514 0.72007 0.0
C589 C 0.93932 0.48119 0.71594 0.0
C590 C 0.96497 0.50259 0.70841 0.0
C591 C 0.9856 0.49361 0.70605 0.0
C592 C 0.99928 0.49976 0.65496 0.0
C593 C 1.00643 0.50641 0.74802 0.0
C594 C 0.96772 0.46373 0.71378 0.0
C595 C 0.94105 0.4567 0.71924 0.0
C596 C 0.9211 0.42996 0.7272 0.0
C597 C 0.92875 0.4101 0.72984 0.0
C598 C 0.9561 0.41716 0.72476 0.0
C599 C 0.9756 0.44438 0.71639 0.0
H600 H 0.44409 0.969 0.3178 0.0
H601 H 0.39281 0.90051 0.22515 0.0
H602 H 0.42951 0.88951 0.21853 0.0
H603 H 0.50171 0.99079 0.25178 0.0
H604 H 0.524 1.00157 0.30455 0.0
H605 H 0.49239 1.00082 0.30825 0.0
H606 H 0.47926 0.96972 0.38531 0.0
H607 H 0.51101 0.97048 0.38202 0.0
H608 H 0.48 0.93869 0.3818 0.0
H609 H 0.47514 0.89021 0.21427 0.0
H610 H 0.52341 0.90281 0.21233 0.0
H611 H 0.54275 0.97104 0.30732 0.0
C612 C 0.44028 0.95131 0.2969 0.0
C613 C 0.41565 0.93563 0.2719 0.0
C614 C 0.41149 0.91267 0.24494 0.0
C615 C 0.43224 0.90633 0.24098 0.0
C616 C 0.45673 0.92291 0.2649 0.0
C617 C 0.46053 0.94475 0.29283 0.0
C618 C 0.48902 0.96097 0.31171 0.0
C619 C 0.50256 0.99024 0.29291 0.0
C620 C 0.48986 0.95988 0.36858 0.0
C621 C 0.50121 0.94565 0.28836 0.0
C622 C 0.48239 0.92343 0.2622 0.0
C623 C 0.48987 0.90735 0.23528 0.0
C624 C 0.51727 0.91458 0.23442 0.0
C625 C 0.53674 0.93793 0.25956 0.0
C626 C 0.52832 0.95309 0.28767 0.0
H627 H 0.57377 0.54009 0.79166 0.0
H628 H 0.62787 0.51903 0.71806 0.0
H629 H 0.59152 0.47115 0.71602 0.0
H630 H 0.53623 0.47732 0.86512 0.0
H631 H 0.50514 0.47757 0.85732 0.0
H632 H 0.53663 0.50886 0.85947 0.0
H633 H 0.52563 0.52253 0.77472 0.0
H634 H 0.49429 0.49135 0.77217 0.0
H635 H 0.51809 0.50045 0.72221 0.0
H636 H 0.54652 0.42612 0.71349 0.0
H637 H 0.4986 0.38991 0.71007 0.0
H638 H 0.47576 0.44239 0.78484 0.0
C639 C 0.57825 0.52539 0.77595 0.0
C640 C 0.60362 0.53327 0.75493 0.0
C641 C 0.6086 0.51338 0.73469 0.0
C642 C 0.58807 0.48616 0.73339 0.0
C643 C 0.56292 0.47925 0.75316 0.0
C644 C 0.55819 0.49841 0.77454 0.0
C645 C 0.52916 0.48675 0.78966 0.0
C646 C 0.52665 0.48768 0.84625 0.0
C647 C 0.51604 0.50112 0.76308 0.0
C648 C 0.51783 0.45822 0.77157 0.0
C649 C 0.53751 0.45392 0.75141 0.0
C650 C 0.53109 0.42925 0.72984 0.0
C651 C 0.50386 0.40879 0.7281 0.0
C652 C 0.4835 0.4134 0.74705 0.0
C653 C 0.49084 0.43824 0.76996 0.0
H654 H 0.16345 0.40671 0.21892 0.0
H655 H 0.18432 0.46376 0.33979 0.0
H656 H 0.22946 0.46865 0.3442 0.0
H657 H 0.19771 0.37367 0.26657 0.0
H658 H 0.20892 0.36911 0.20688 0.0
H659 H 0.17844 0.37072 0.21169 0.0
H660 H 0.19714 0.40987 0.1483 0.0
H661 H 0.22769 0.40838 0.14328 0.0
H662 H 0.22921 0.43957 0.15977 0.0
H663 H 0.27185 0.46667 0.33737 0.0
H664 H 0.30885 0.45777 0.32005 0.0
H665 H 0.26106 0.4019 0.20359 0.0
C666 C 0.17757 0.42036 0.2461 0.0
C667 C 0.17027 0.43489 0.27898 0.0
C668 C 0.18934 0.4524 0.31419 0.0
C669 C 0.2151 0.45536 0.31697 0.0
C670 C 0.22158 0.44069 0.28429 0.0
C671 C 0.20343 0.42354 0.24948 0.0
C672 C 0.21543 0.40968 0.21954 0.0
C673 C 0.19915 0.37898 0.22662 0.0
C674 C 0.21749 0.41734 0.16446 0.0
C675 C 0.24307 0.4216 0.24324 0.0
C676 C 0.24617 0.4395 0.28039 0.0
C677 C 0.26971 0.45277 0.30825 0.0
C678 C 0.29063 0.44753 0.29811 0.0
C679 C 0.28797 0.42915 0.26041 0.0
C680 C 0.26383 0.41615 0.2325 0.0
H681 H 0.88074 0.2577 0.76588 0.0
H682 H 0.85386 0.29389 0.65463 0.0
H683 H 0.80915 0.25285 0.65367 0.0
H684 H 0.84674 0.19127 0.71602 0.0
H685 H 0.83825 0.17476 0.7755 0.0
H686 H 0.86779 0.20744 0.76915 0.0
H687 H 0.85043 0.22601 0.83866 0.0
H688 H 0.82081 0.19336 0.84524 0.0
H689 H 0.8175 0.2225 0.83313 0.0
H690 H 0.76749 0.20749 0.66357 0.0
H691 H 0.73237 0.16078 0.68225 0.0
H692 H 0.7865 0.15378 0.78607 0.0
C693 C 0.86541 0.2571 0.74155 0.0
C694 C 0.87086 0.27912 0.7104 0.0
C695 C 0.85023 0.27735 0.67888 0.0
C696 C 0.82472 0.25412 0.67811 0.0
C697 C 0.82007 0.23275 0.70905 0.0
C698 C 0.83983 0.234 0.74017 0.0
C699 C 0.82983 0.20794 0.76875 0.0
C700 C 0.84665 0.19457 0.7566 0.0
C701 C 0.82963 0.21275 0.82477 0.0
C702 C 0.80147 0.19173 0.7484 0.0
C703 C 0.79618 0.20649 0.71431 0.0
C704 C 0.77139 0.19576 0.6903 0.0
C705 C 0.75155 0.16919 0.7012 0.0
C706 C 0.75661 0.15353 0.7356 0.0
C707 C 0.78194 0.16514 0.75957 0.0
H708 H 0.64262 0.77884 0.26992 0.0
H709 H 0.57669 0.72223 0.17692 0.0
H710 H 0.5637 0.75667 0.16127 0.0
H711 H 0.6072 0.80971 0.32511 0.0
H712 H 0.63635 0.84297 0.32602 0.0
H713 H 0.64039 0.81381 0.33018 0.0
H714 H 0.67212 0.83047 0.25413 0.0
H715 H 0.66816 0.85965 0.2497 0.0
H716 H 0.66061 0.8377 0.19702 0.0
H717 H 0.55835 0.79756 0.15439 0.0
H718 H 0.56046 0.84158 0.15807 0.0
H719 H 0.62954 0.87153 0.25638 0.0
C720 C 0.62542 0.77363 0.24631 0.0
C721 C 0.6107 0.74776 0.22462 0.0
C722 C 0.58828 0.74184 0.19404 0.0
C723 C 0.58075 0.7613 0.18488 0.0
C724 C 0.59574 0.78658 0.20669 0.0
C725 C 0.61754 0.79278 0.23693 0.0
C726 C 0.63024 0.82147 0.25586 0.0
C727 C 0.62842 0.82201 0.31266 0.0
C728 C 0.65951 0.83831 0.2381 0.0
C729 C 0.61228 0.83051 0.23127 0.0
C730 C 0.59251 0.81008 0.20307 0.0
C731 C 0.5737 0.81368 0.17648 0.0
C732 C 0.57509 0.83881 0.17879 0.0
C733 C 0.59513 0.86008 0.20756 0.0
C734 C 0.61392 0.85572 0.23414 0.0
H735 H 0.85939 0.60688 0.73723 0.0
H736 H 0.83861 0.5447 0.62627 0.0
H737 H 0.79308 0.53869 0.6198 0.0
H738 H 0.79362 0.57593 0.79769 0.0
H739 H 0.79496 0.60764 0.80802 0.0
H740 H 0.82562 0.60621 0.80596 0.0
H741 H 0.84382 0.64235 0.73676 0.0
H742 H 0.81319 0.64381 0.73845 0.0
H743 H 0.82435 0.63669 0.68097 0.0
H744 H 0.75049 0.54046 0.62257 0.0
H745 H 0.71325 0.54958 0.635 0.0
H746 H 0.76111 0.61082 0.74393 0.0
C747 C 0.84516 0.59178 0.71201 0.0
C748 C 0.85262 0.5762 0.68234 0.0
C749 C 0.83345 0.55687 0.64941 0.0
C750 C 0.80748 0.55328 0.64548 0.0
C751 C 0.80089 0.56916 0.6747 0.0
C752 C 0.8191 0.58798 0.70745 0.0
C753 C 0.80701 0.60296 0.73343 0.0
C754 C 0.8052 0.59787 0.78961 0.0
C755 C 0.82305 0.63324 0.72168 0.0
C756 C 0.77929 0.58977 0.70979 0.0
C757 C 0.77621 0.57026 0.67616 0.0
C758 C 0.75261 0.5556 0.64897 0.0
C759 C 0.73155 0.56098 0.65628 0.0
C760 C 0.73415 0.58091 0.69047 0.0
C761 C 0.75841 0.59541 0.71763 0.0
H762 H 0.27311 0.85001 0.23278 0.0
H763 H 0.23368 0.89587 0.26791 0.0
H764 H 0.18957 0.85451 0.26293 0.0
H765 H 0.22314 0.80521 0.14454 0.0
H766 H 0.22539 0.77617 0.16298 0.0
H767 H 0.25419 0.80939 0.16945 0.0
H768 H 0.25715 0.80057 0.26279 0.0
H769 H 0.22834 0.76733 0.25661 0.0
H770 H 0.22813 0.79039 0.30173 0.0
H771 H 0.14979 0.8086 0.25523 0.0
H772 H 0.11639 0.7607 0.24352 0.0
H773 H 0.18075 0.74375 0.21216 0.0
C774 C 0.2552 0.85134 0.23942 0.0
C775 C 0.25695 0.87628 0.25079 0.0
C776 C 0.23297 0.8771 0.25907 0.0
C777 C 0.20775 0.85367 0.25639 0.0
C778 C 0.20671 0.82948 0.2452 0.0
C779 C 0.22972 0.82806 0.23666 0.0
C780 C 0.22274 0.79938 0.22494 0.0
C781 C 0.23191 0.79743 0.17235 0.0
C782 C 0.23481 0.7888 0.26385 0.0
C783 C 0.19226 0.78497 0.22849 0.0
C784 C 0.18353 0.80279 0.24028 0.0
C785 C 0.15635 0.79443 0.24589 0.0
C786 C 0.13752 0.76712 0.23918 0.0
C787 C 0.14585 0.74835 0.22686 0.0
C788 C 0.17367 0.75753 0.2215 0.0
H789 H 0.3964 0.24058 0.80134 0.0
H790 H 0.4302 0.27971 0.66073 0.0
H791 H 0.43768 0.24233 0.63772 0.0
H792 H 0.44156 0.21416 0.82119 0.0
H793 H 0.41585 0.18307 0.84792 0.0
H794 H 0.4138 0.21329 0.85406 0.0
H795 H 0.36623 0.18899 0.81466 0.0
H796 H 0.36814 0.15872 0.80839 0.0
H797 H 0.36146 0.17329 0.7548 0.0
H798 H 0.44043 0.20012 0.62882 0.0
H799 H 0.43826 0.15612 0.63475 0.0
H800 H 0.40281 0.1443 0.78118 0.0
C801 C 0.40551 0.24139 0.76581 0.0
C802 C 0.41272 0.26318 0.73289 0.0
C803 C 0.4245 0.26332 0.68666 0.0
C804 C 0.42886 0.24216 0.67323 0.0
C805 C 0.4214 0.22096 0.7064 0.0
C806 C 0.41001 0.22041 0.75177 0.0
C807 C 0.4034 0.195 0.78021 0.0
C808 C 0.41962 0.2018 0.82871 0.0
C809 C 0.373 0.178 0.79008 0.0
C810 C 0.41264 0.18126 0.74356 0.0
C811 C 0.42302 0.19662 0.70129 0.0
C812 C 0.43243 0.18796 0.66184 0.0
C813 C 0.4311 0.1629 0.66556 0.0
C814 C 0.42042 0.14669 0.70843 0.0
C815 C 0.4112 0.1562 0.74797 0.0
loop_
_geom_bond_atom_site_label_1
_geom_bond_atom_site_label_2
_geom_bond_distance
_geom_bond_site_symmetry_2
_ccdc_geom_bond_type
Zn0 O3 2.031 . S
Zn0 O5 2.049 . S
Zn0 O10 2.067 . S
Zn1 O2 1.962 . S
Zn1 O4 1.986 . S
Zn1 O6 1.996 . S
Zn1 O9 1.943 . S
O2 Zn1 1.962 . S
O2 C7 1.254 . S
O3 Zn0 2.031 . S
O3 C7 1.269 . S
O4 Zn1 1.986 . S
O4 C11 1.262 . S
O5 Zn0 2.049 . S
O5 C13 1.260 . S
O6 Zn1 1.996 . S
O6 C13 1.257 . S
C7 O2 1.254 . S
C7 O3 1.269 . S
C8 O9 1.249 . S
C8 O10 1.270 . S
O9 Zn1 1.943 . S
O9 C8 1.249 . S
O10 Zn0 2.067 . S
O10 C8 1.270 . S
C11 O4 1.262 . S
C11 O12 1.232 . S
O12 C11 1.232 . S
C13 O5 1.260 . S
C13 O6 1.257 . S
Zn14 O17 2.031 . S
Zn14 O19 2.049 . S
Zn14 O24 2.067 . S
Zn15 O16 1.962 . S
Zn15 O18 1.986 . S
Zn15 O20 1.996 . S
Zn15 O23 1.943 . S
O16 Zn15 1.962 . S
O16 C21 1.254 . S
O17 Zn14 2.031 . S
O17 C21 1.269 . S
O18 Zn15 1.986 . S
O18 C25 1.262 . S
O19 Zn14 2.049 . S
O19 C27 1.260 . S
O20 Zn15 1.996 . S
O20 C27 1.257 . S
C21 O16 1.254 . S
C21 O17 1.269 . S
C22 O23 1.249 . S
C22 O24 1.270 . S
O23 Zn15 1.943 . S
O23 C22 1.249 . S
O24 Zn14 2.067 . S
O24 C22 1.270 . S
C25 O18 1.262 . S
C25 O26 1.232 . S
O26 C25 1.232 . S
C27 O19 1.260 . S
C27 O20 1.257 . S
Zn28 O31 2.031 . S
Zn28 O33 2.049 . S
Zn28 O38 2.067 . S
Zn29 O30 1.962 . S
Zn29 O32 1.986 . S
Zn29 O34 1.996 . S
Zn29 O37 1.943 . S
O30 Zn29 1.962 . S
O30 C35 1.254 . S
O31 Zn28 2.031 . S
O31 C35 1.269 . S
O32 Zn29 1.986 . S
O32 C39 1.262 . S
O33 Zn28 2.049 . S
O33 C41 1.260 . S
O34 Zn29 1.996 . S
O34 C41 1.257 . S
C35 O30 1.254 . S
C35 O31 1.269 . S
C36 O37 1.249 . S
C36 O38 1.270 . S
O37 Zn29 1.943 . S
O37 C36 1.249 . S
O38 Zn28 2.067 . S
O38 C36 1.270 . S
C39 O32 1.262 . S
C39 O40 1.232 . S
O40 C39 1.232 . S
C41 O33 1.260 . S
C41 O34 1.257 . S
Zn42 O45 2.031 . S
Zn42 O47 2.049 . S
Zn42 O52 2.067 . S
Zn43 O44 1.962 . S
Zn43 O46 1.986 . S
Zn43 O48 1.996 . S
Zn43 O51 1.943 . S
O44 Zn43 1.962 . S
O44 C49 1.254 . S
O45 Zn42 2.031 . S
O45 C49 1.269 . S
O46 Zn43 1.986 . S
O46 C53 1.262 . S
O47 Zn42 2.049 . S
O47 C55 1.260 . S
O48 Zn43 1.996 . S
O48 C55 1.257 . S
C49 O44 1.254 . S
C49 O45 1.269 . S
C50 O51 1.249 . S
C50 O52 1.270 . S
O51 Zn43 1.943 . S
O51 C50 1.249 . S
O52 Zn42 2.067 . S
O52 C50 1.270 . S
C53 O46 1.262 . S
C53 O54 1.232 . S
O54 C53 1.232 . S
C55 O47 1.260 . S
C55 O48 1.257 . S
Zn56 O59 2.031 . S
Zn56 O61 2.049 . S
Zn56 O66 2.067 . S
Zn57 O58 1.962 . S
Zn57 O60 1.986 . S
Zn57 O62 1.996 . S
Zn57 O65 1.943 . S
O58 Zn57 1.962 . S
O58 C63 1.254 . S
O59 Zn56 2.031 . S
O59 C63 1.269 . S
O60 Zn57 1.986 . S
O60 C67 1.262 . S
O61 Zn56 2.049 . S
O61 C69 1.260 . S
O62 Zn57 1.996 . S
O62 C69 1.257 . S
C63 O58 1.254 . S
C63 O59 1.269 . S
C64 O65 1.249 . S
C64 O66 1.270 . S
O65 Zn57 1.943 . S
O65 C64 1.249 . S
O66 Zn56 2.067 . S
O66 C64 1.270 . S
C67 O60 1.262 . S
C67 O68 1.232 . S
O68 C67 1.232 . S
C69 O61 1.260 . S
C69 O62 1.257 . S
Zn70 O73 2.031 . S
Zn70 O75 2.049 . S
Zn70 O80 2.067 . S
Zn71 O72 1.962 . S
Zn71 O74 1.986 . S
Zn71 O76 1.996 . S
Zn71 O79 1.943 . S
O72 Zn71 1.962 . S
O72 C77 1.254 . S
O73 Zn70 2.031 . S
O73 C77 1.269 . S
O74 Zn71 1.986 . S
O74 C81 1.262 . S
O75 Zn70 2.049 . S
O75 C83 1.260 . S
O76 Zn71 1.996 . S
O76 C83 1.257 . S
C77 O72 1.254 . S
C77 O73 1.269 . S
C78 O79 1.249 . S
C78 O80 1.270 . S
O79 Zn71 1.943 . S
O79 C78 1.249 . S
O80 Zn70 2.067 . S
O80 C78 1.270 . S
C81 O74 1.262 . S
C81 O82 1.232 . S
O82 C81 1.232 . S
C83 O75 1.260 . S
C83 O76 1.257 . S
Zn84 O87 2.031 . S
Zn84 O89 2.049 . S
Zn84 O94 2.067 . S
Zn85 O86 1.962 . S
Zn85 O88 1.986 . S
Zn85 O90 1.996 . S
Zn85 O93 1.943 . S
O86 Zn85 1.962 . S
O86 C91 1.254 . S
O87 Zn84 2.031 . S
O87 C91 1.269 . S
O88 Zn85 1.986 . S
O88 C95 1.262 . S
O89 Zn84 2.049 . S
O89 C97 1.260 . S
O90 Zn85 1.996 . S
O90 C97 1.257 . S
C91 O86 1.254 . S
C91 O87 1.269 . S
C92 O93 1.249 . S
C92 O94 1.270 . S
O93 Zn85 1.943 . S
O93 C92 1.249 . S
O94 Zn84 2.067 . S
O94 C92 1.270 . S
C95 O88 1.262 . S
C95 O96 1.232 . S
O96 C95 1.232 . S
C97 O89 1.260 . S
C97 O90 1.257 . S
Zn98 O101 2.031 . S
Zn98 O103 2.049 . S
Zn98 O108 2.067 . S
Zn99 O100 1.962 . S
Zn99 O102 1.986 . S
Zn99 O104 1.996 . S
Zn99 O107 1.943 . S
O100 Zn99 1.962 . S
O100 C105 1.254 . S
O101 Zn98 2.031 . S
O101 C105 1.269 . S
O102 Zn99 1.986 . S
O102 C109 1.262 . S
O103 Zn98 2.049 . S
O103 C111 1.260 . S
O104 Zn99 1.996 . S
O104 C111 1.257 . S
C105 O100 1.254 . S
C105 O101 1.269 . S
C106 O107 1.249 . S
C106 O108 1.270 . S
O107 Zn99 1.943 . S
O107 C106 1.249 . S
O108 Zn98 2.067 . S
O108 C106 1.270 . S
C109 O102 1.262 . S
C109 O110 1.232 . S
O110 C109 1.232 . S
C111 O103 1.260 . S
C111 O104 1.257 . S
Zn112 O115 2.031 . S
Zn112 O117 2.049 . S
Zn112 O122 2.067 . S
Zn113 O114 1.962 . S
Zn113 O116 1.986 . S
Zn113 O118 1.996 . S
Zn113 O121 1.943 . S
O114 Zn113 1.962 . S
O114 C119 1.254 . S
O115 Zn112 2.031 . S
O115 C119 1.269 . S
O116 Zn113 1.986 . S
O116 C123 1.262 . S
O117 Zn112 2.049 . S
O117 C125 1.260 . S
O118 Zn113 1.996 . S
O118 C125 1.257 . S
C119 O114 1.254 . S
C119 O115 1.269 . S
C120 O121 1.249 . S
C120 O122 1.270 . S
O121 Zn113 1.943 . S
O121 C120 1.249 . S
O122 Zn112 2.067 . S
O122 C120 1.270 . S
C123 O116 1.262 . S
C123 O124 1.232 . S
O124 C123 1.232 . S
C125 O117 1.260 . S
C125 O118 1.257 . S
Zn126 O129 2.031 . S
Zn126 O131 2.049 . S
Zn126 O136 2.067 . S
Zn127 O128 1.962 . S
Zn127 O130 1.986 . S
Zn127 O132 1.996 . S
Zn127 O135 1.943 . S
O128 Zn127 1.962 . S
O128 C133 1.254 . S
O129 Zn126 2.031 . S
O129 C133 1.269 . S
O130 Zn127 1.986 . S
O130 C137 1.262 . S
O131 Zn126 2.049 . S
O131 C139 1.260 . S
O132 Zn127 1.996 . S
O132 C139 1.257 . S
C133 O128 1.254 . S
C133 O129 1.269 . S
C134 O135 1.249 . S
C134 O136 1.270 . S
O135 Zn127 1.943 . S
O135 C134 1.249 . S
O136 Zn126 2.067 . S
O136 C134 1.270 . S
C137 O130 1.262 . S
C137 O138 1.232 . S
O138 C137 1.232 . S
C139 O131 1.260 . S
C139 O132 1.257 . S
Zn140 O143 2.031 . S
Zn140 O145 2.049 . S
Zn140 O150 2.067 . S
Zn141 O142 1.962 . S
Zn141 O144 1.986 . S
Zn141 O146 1.996 . S
Zn141 O149 1.943 . S
O142 Zn141 1.962 . S
O142 C147 1.254 . S
O143 Zn140 2.031 . S
O143 C147 1.269 . S
O144 Zn141 1.986 . S
O144 C151 1.262 . S
O145 Zn140 2.049 . S
O145 C153 1.260 . S
O146 Zn141 1.996 . S
O146 C153 1.257 . S
C147 O142 1.254 . S
C147 O143 1.269 . S
C148 O149 1.249 . S
C148 O150 1.270 . S
O149 Zn141 1.943 . S
O149 C148 1.249 . S
O150 Zn140 2.067 . S
O150 C148 1.270 . S
C151 O144 1.262 . S
C151 O152 1.232 . S
O152 C151 1.232 . S
C153 O145 1.260 . S
C153 O146 1.257 . S
Zn154 O157 2.031 . S
Zn154 O159 2.049 . S
Zn154 O164 2.067 . S
Zn155 O156 1.962 . S
Zn155 O158 1.986 . S
Zn155 O160 1.996 . S
Zn155 O163 1.943 . S
O156 Zn155 1.962 . S
O156 C161 1.254 . S
O157 Zn154 2.031 . S
O157 C161 1.269 . S
O158 Zn155 1.986 . S
O158 C165 1.262 . S
O159 Zn154 2.049 . S
O159 C167 1.260 . S
O160 Zn155 1.996 . S
O160 C167 1.257 . S
C161 O156 1.254 . S
C161 O157 1.269 . S
C162 O163 1.249 . S
C162 O164 1.270 . S
O163 Zn155 1.943 . S
O163 C162 1.249 . S
O164 Zn154 2.067 . S
O164 C162 1.270 . S
C165 O158 1.262 . S
C165 O166 1.232 . S
O166 C165 1.232 . S
C167 O159 1.260 . S
C167 O160 1.257 . S
H168 C180 0.922 1_655 S
H169 C182 0.930 . S
H170 C183 0.930 . S
H171 C187 0.959 . S
H172 C187 0.959 . S
H173 C187 0.961 . S
H174 C188 0.960 . S
H175 C188 0.961 . S
H176 C188 0.959 . S
H177 C191 0.929 . S
H178 C192 0.931 . S
H179 C194 0.930 . S
C180 H168 0.922 1_455 S
C180 C181 1.399 . S
C180 C185 1.404 . S
C181 C180 1.399 . S
C181 C182 1.376 . S
C182 H169 0.930 . S
C182 C181 1.376 . S
C182 C183 1.388 . S
C183 H170 0.930 . S
C183 C182 1.388 . S
C183 C184 1.390 . S
C184 C183 1.390 . S
C184 C185 1.397 . S
C184 C190 1.465 1_554 S
C185 C180 1.404 . S
C185 C184 1.397 . S
C185 C186 1.508 1_455 S
C186 C185 1.508 1_655 S
C186 C187 1.502 . S
C186 C188 1.561 . S
C186 C189 1.526 1_554 S
C187 H171 0.959 . S
C187 H172 0.959 . S
C187 H173 0.961 . S
C187 C186 1.502 . S
C188 H174 0.960 . S
C188 H175 0.961 . S
C188 H176 0.959 . S
C188 C186 1.561 . S
C189 C186 1.526 1_556 S
C189 C190 1.396 1_655 S
C189 C194 1.390 . S
C190 C184 1.465 1_556 S
C190 C189 1.396 1_455 S
C190 C191 1.399 . S
C191 H177 0.929 . S
C191 C190 1.399 . S
C191 C192 1.385 1_455 S
C192 H178 0.931 . S
C192 C191 1.385 1_655 S
C192 C193 1.389 . S
C193 C192 1.389 . S
C193 C194 1.387 . S
C194 H179 0.930 . S
C194 C189 1.390 . S
C194 C193 1.387 . S
H195 C207 0.930 . S
H196 C209 0.930 . S
H197 C210 0.930 . S
H198 C214 0.959 . S
H199 C214 0.959 . S
H200 C214 0.961 . S
H201 C215 0.960 . S
H202 C215 0.961 . S
H203 C215 0.959 . S
H204 C218 0.929 . S
H205 C219 0.931 . S
H206 C221 0.930 . S
C207 H195 0.930 . S
C207 C208 1.399 . S
C207 C212 1.420 . S
C208 C207 1.399 . S
C208 C209 1.376 . S
C209 H196 0.930 . S
C209 C208 1.376 . S
C209 C210 1.388 . S
C210 H197 0.930 . S
C210 C209 1.388 . S
C210 C211 1.390 . S
C211 C210 1.390 . S
C211 C212 1.402 . S
C211 C217 1.465 . S
C212 C207 1.420 . S
C212 C211 1.402 . S
C212 C213 1.488 1_565 S
C213 C212 1.488 1_545 S
C213 C214 1.502 . S
C213 C215 1.561 . S
C213 C216 1.526 . S
C214 H198 0.959 . S
C214 H199 0.959 . S
C214 H200 0.961 . S
C214 C213 1.502 . S
C215 H201 0.960 . S
C215 H202 0.961 . S
C215 H203 0.959 . S
C215 C213 1.561 . S
C216 C213 1.526 . S
C216 C217 1.396 1_545 S
C216 C221 1.390 . S
C217 C211 1.465 . S
C217 C216 1.396 1_565 S
C217 C218 1.399 . S
C218 H204 0.929 . S
C218 C217 1.399 . S
C218 C219 1.385 1_565 S
C219 H205 0.931 . S
C219 C218 1.385 1_545 S
C219 C220 1.389 . S
C220 C219 1.389 . S
C220 C221 1.387 . S
C221 H206 0.930 . S
C221 C216 1.390 . S
C221 C220 1.387 . S
H222 C234 0.930 . S
H223 C236 0.930 . S
H224 C237 0.930 . S
H225 C241 0.959 . S
H226 C241 0.959 . S
H227 C241 0.961 . S
H228 C242 0.960 . S
H229 C242 0.961 . S
H230 C242 0.959 . S
H231 C245 0.929 . S
H232 C246 0.931 . S
H233 C248 0.930 . S
C234 H222 0.930 . S
C234 C235 1.399 . S
C234 C239 1.399 . S
C235 C234 1.399 . S
C235 C236 1.376 . S
C236 H223 0.930 . S
C236 C235 1.376 . S
C236 C237 1.388 . S
C237 H224 0.930 . S
C237 C236 1.388 . S
C237 C238 1.390 . S
C238 C237 1.390 . S
C238 C239 1.394 . S
C238 C244 1.465 1_554 S
C239 C234 1.399 . S
C239 C238 1.394 . S
C239 C240 1.516 1_554 S
C240 C239 1.516 1_556 S
C240 C241 1.502 . S
C240 C242 1.561 . S
C240 C243 1.526 . S
C241 H225 0.959 . S
C241 H226 0.959 . S
C241 H227 0.961 . S
C241 C240 1.502 . S
C242 H228 0.960 . S
C242 H229 0.961 . S
C242 H230 0.959 . S
C242 C240 1.561 . S
C243 C240 1.526 . S
C243 C244 1.396 . S
C243 C248 1.390 . S
C244 C238 1.465 1_556 S
C244 C243 1.396 . S
C244 C245 1.399 . S
C245 H231 0.929 . S
C245 C244 1.399 . S
C245 C246 1.385 . S
C246 H232 0.931 . S
C246 C245 1.385 . S
C246 C247 1.389 . S
C247 C246 1.389 . S
C247 C248 1.387 . S
C248 H233 0.930 . S
C248 C243 1.390 . S
C248 C247 1.387 . S
H249 C261 0.930 . S
H250 C263 0.930 . S
H251 C264 0.930 1_655 S
H252 C268 0.959 . S
H253 C268 0.959 . S
H254 C268 0.961 . S
H255 C269 0.960 . S
H256 C269 0.961 . S
H257 C269 0.959 . S
H258 C272 0.929 . S
H259 C273 0.931 . S
H260 C275 0.930 . S
C261 H249 0.930 . S
C261 C262 1.399 . S
C261 C266 1.399 . S
C262 C261 1.399 . S
C262 C263 1.376 . S
C263 H250 0.930 . S
C263 C262 1.376 . S
C263 C264 1.388 . S
C264 H251 0.930 1_455 S
C264 C263 1.388 . S
C264 C265 1.411 . S
C265 C264 1.411 . S
C265 C266 1.391 . S
C265 C271 1.447 1_455 S
C266 C261 1.399 . S
C266 C265 1.391 . S
C266 C267 1.516 . S
C267 C266 1.516 . S
C267 C268 1.502 . S
C267 C269 1.561 1_455 S
C267 C270 1.526 1_455 S
C268 H252 0.959 . S
C268 H253 0.959 . S
C268 H254 0.961 . S
C268 C267 1.502 . S
C269 H255 0.960 . S
C269 H256 0.961 . S
C269 H257 0.959 . S
C269 C267 1.561 1_655 S
C270 C267 1.526 1_655 S
C270 C271 1.396 . S
C270 C275 1.390 . S
C271 C265 1.447 1_655 S
C271 C270 1.396 . S
C271 C272 1.399 . S
C272 H258 0.929 . S
C272 C271 1.399 . S
C272 C273 1.385 . S
C273 H259 0.931 . S
C273 C272 1.385 . S
C273 C274 1.389 . S
C274 C273 1.389 . S
C274 C275 1.387 . S
C275 H260 0.930 . S
C275 C270 1.390 . S
C275 C274 1.387 . S
H276 C288 0.930 . S
H277 C290 0.930 . S
H278 C291 0.930 . S
H279 C295 0.959 . S
H280 C295 0.959 . S
H281 C295 0.961 . S
H282 C296 0.960 . S
H283 C296 0.961 . S
H284 C296 0.959 . S
H285 C299 0.929 . S
H286 C300 0.931 . S
H287 C302 0.930 . S
C288 H276 0.930 . S
C288 C289 1.399 . S
C288 C293 1.399 . S
C289 C288 1.399 . S
C289 C290 1.376 . S
C290 H277 0.930 . S
C290 C289 1.376 . S
C290 C291 1.388 . S
C291 H278 0.930 . S
C291 C290 1.388 . S
C291 C292 1.390 . S
C292 C291 1.390 . S
C292 C293 1.394 . S
C292 C298 1.465 1_556 S
C293 C288 1.399 . S
C293 C292 1.394 . S
C293 C294 1.516 1_545 S
C294 C293 1.516 1_565 S
C294 C295 1.502 . S
C294 C296 1.561 . S
C294 C297 1.526 1_556 S
C295 H279 0.959 . S
C295 H280 0.959 . S
C295 H281 0.961 . S
C295 C294 1.502 . S
C296 H282 0.960 . S
C296 H283 0.961 . S
C296 H284 0.959 . S
C296 C294 1.561 . S
C297 C294 1.526 1_554 S
C297 C298 1.396 1_565 S
C297 C302 1.390 . S
C298 C292 1.465 1_554 S
C298 C297 1.396 1_545 S
C298 C299 1.399 . S
C299 H285 0.929 . S
C299 C298 1.399 . S
C299 C300 1.385 1_545 S
C300 H286 0.931 . S
C300 C299 1.385 1_565 S
C300 C301 1.389 . S
C301 C300 1.389 . S
C301 C302 1.387 . S
C302 H287 0.930 . S
C302 C297 1.390 . S
C302 C301 1.387 . S
H303 C315 0.930 . S
H304 C317 0.930 . S
H305 C318 0.930 . S
H306 C322 0.959 . S
H307 C322 0.959 . S
H308 C322 0.961 . S
H309 C323 0.960 . S
H310 C323 0.961 . S
H311 C323 0.959 . S
H312 C326 0.929 . S
H313 C327 0.931 . S
H314 C329 0.930 . S
C315 H303 0.930 . S
C315 C316 1.399 . S
C315 C320 1.399 . S
C316 C315 1.399 . S
C316 C317 1.376 . S
C317 H304 0.930 . S
C317 C316 1.376 . S
C317 C318 1.388 . S
C318 H305 0.930 . S
C318 C317 1.388 . S
C318 C319 1.390 . S
C319 C318 1.390 . S
C319 C320 1.394 . S
C319 C325 1.465 . S
C320 C315 1.399 . S
C320 C319 1.394 . S
C320 C321 1.516 . S
C321 C320 1.516 . S
C321 C322 1.502 . S
C321 C323 1.561 . S
C321 C324 1.526 . S
C322 H306 0.959 . S
C322 H307 0.959 . S
C322 H308 0.961 . S
C322 C321 1.502 . S
C323 H309 0.960 . S
C323 H310 0.961 . S
C323 H311 0.959 . S
C323 C321 1.561 . S
C324 C321 1.526 . S
C324 C325 1.396 . S
C324 C329 1.390 . S
C325 C319 1.465 . S
C325 C324 1.396 . S
C325 C326 1.399 . S
C326 H312 0.929 . S
C326 C325 1.399 . S
C326 C327 1.385 . S
C327 H313 0.931 . S
C327 C326 1.385 . S
C327 C328 1.389 . S
C328 C327 1.389 . S
C328 C329 1.387 . S
C329 H314 0.930 . S
C329 C324 1.390 . S
C329 C328 1.387 . S
H330 C342 0.930 . S
H331 C344 0.930 1_455 S
H332 C345 0.930 . S
H333 C349 0.959 . S
H334 C349 0.959 . S
H335 C349 0.961 . S
H336 C350 0.960 . S
H337 C350 0.961 . S
H338 C350 0.959 . S
H339 C353 0.941 . S
H340 C354 0.931 . S
H341 C356 0.930 1_655 S
C342 H330 0.930 . S
C342 C343 1.399 . S
C342 C347 1.399 . S
C343 C342 1.399 . S
C343 C344 1.376 . S
C344 H331 0.930 1_655 S
C344 C343 1.376 . S
C344 C345 1.388 1_655 S
C345 H332 0.930 . S
C345 C344 1.388 1_455 S
C345 C346 1.390 . S
C346 C345 1.390 . S
C346 C347 1.394 1_455 S
C346 C352 1.465 1_556 S
C347 C342 1.399 . S
C347 C346 1.394 1_655 S
C347 C348 1.516 1_556 S
C348 C347 1.516 1_554 S
C348 C349 1.502 . S
C348 C350 1.561 . S
C348 C351 1.526 1_655 S
C349 H333 0.959 . S
C349 H334 0.959 . S
C349 H335 0.961 . S
C349 C348 1.502 . S
C350 H336 0.960 . S
C350 H337 0.961 . S
C350 H338 0.959 . S
C350 C348 1.561 . S
C351 C348 1.526 1_455 S
C351 C352 1.396 . S
C351 C356 1.390 . S
C352 C346 1.465 1_554 S
C352 C351 1.396 . S
C352 C353 1.399 . S
C353 H339 0.941 . S
C353 C352 1.399 . S
C353 C354 1.385 . S
C354 H340 0.931 . S
C354 C353 1.385 . S
C354 C355 1.389 . S
C355 C354 1.389 . S
C355 C356 1.387 . S
C356 H341 0.930 1_455 S
C356 C351 1.390 . S
C356 C355 1.387 . S
H357 C369 0.932 . S
H358 C371 0.930 . S
H359 C372 0.930 . S
H360 C376 0.959 . S
H361 C376 0.959 . S
H362 C376 0.961 . S
H363 C377 0.960 . S
H364 C377 0.961 . S
H365 C377 0.959 . S
H366 C380 0.929 . S
H367 C381 0.931 . S
H368 C383 0.930 . S
C369 H357 0.932 . S
C369 C370 1.399 . S
C369 C374 1.399 . S
C370 C369 1.399 . S
C370 C371 1.376 . S
C371 H358 0.930 . S
C371 C370 1.376 . S
C371 C372 1.388 . S
C372 H359 0.930 . S
C372 C371 1.388 . S
C372 C373 1.390 . S
C373 C372 1.390 . S
C373 C374 1.394 . S
C373 C379 1.465 . S
C374 C369 1.399 . S
C374 C373 1.394 . S
C374 C375 1.516 1_565 S
C375 C374 1.516 1_545 S
C375 C376 1.502 . S
C375 C377 1.561 . S
C375 C378 1.526 . S
C376 H360 0.959 . S
C376 H361 0.959 . S
C376 H362 0.961 . S
C376 C375 1.502 . S
C377 H363 0.960 . S
C377 H364 0.961 . S
C377 H365 0.959 . S
C377 C375 1.561 . S
C378 C375 1.526 . S
C378 C379 1.396 1_545 S
C378 C383 1.390 . S
C379 C373 1.465 . S
C379 C378 1.396 1_565 S
C379 C380 1.399 . S
C380 H366 0.929 . S
C380 C379 1.399 . S
C380 C381 1.385 1_565 S
C381 H367 0.931 . S
C381 C380 1.385 1_545 S
C381 C382 1.389 . S
C382 C381 1.389 . S
C382 C383 1.387 . S
C383 H368 0.930 . S
C383 C378 1.390 . S
C383 C382 1.387 . S
H384 C396 0.930 . S
H385 C398 0.930 . S
H386 C399 0.930 . S
H387 C403 0.959 1_554 S
H388 C403 0.959 1_554 S
H389 C403 0.961 . S
H390 C404 0.960 . S
H391 C404 0.961 . S
H392 C404 0.959 . S
H393 C407 0.929 . S
H394 C408 0.931 . S
H395 C410 0.930 . S
C396 H384 0.930 . S
C396 C397 1.399 . S
C396 C401 1.399 . S
C397 C396 1.399 . S
C397 C398 1.376 . S
C398 H385 0.930 . S
C398 C397 1.376 . S
C398 C399 1.388 . S
C399 H386 0.930 . S
C399 C398 1.388 . S
C399 C400 1.390 . S
C400 C399 1.390 . S
C400 C401 1.394 . S
C400 C406 1.465 1_556 S
C401 C396 1.399 . S
C401 C400 1.394 . S
C401 C402 1.516 . S
C402 C401 1.516 . S
C402 C403 1.502 . S
C402 C404 1.561 . S
C402 C405 1.526 1_556 S
C403 H387 0.959 1_556 S
C403 H388 0.959 1_556 S
C403 H389 0.961 . S
C403 C402 1.502 . S
C404 H390 0.960 . S
C404 H391 0.961 . S
C404 H392 0.959 . S
C404 C402 1.561 . S
C405 C402 1.526 1_554 S
C405 C406 1.396 . S
C405 C410 1.390 . S
C406 C400 1.465 1_554 S
C406 C405 1.396 . S
C406 C407 1.399 . S
C407 H393 0.929 . S
C407 C406 1.399 . S
C407 C408 1.385 . S
C408 H394 0.931 . S
C408 C407 1.385 . S
C408 C409 1.389 . S
C409 C408 1.389 . S
C409 C410 1.387 . S
C410 H395 0.930 . S
C410 C405 1.390 . S
C410 C409 1.387 . S
H411 C423 0.930 . S
H412 C425 0.930 . S
H413 C426 0.930 . S
H414 C430 0.959 . S
H415 C430 0.959 . S
H416 C430 0.961 1_655 S
H417 C431 0.960 . S
H418 C431 0.961 . S
H419 C431 0.959 . S
H420 C434 0.929 . S
H421 C435 0.931 . S
H422 C437 0.930 . S
C423 H411 0.930 . S
C423 C424 1.399 . S
C423 C428 1.399 . S
C424 C423 1.399 . S
C424 C425 1.376 . S
C425 H412 0.930 . S
C425 C424 1.376 . S
C425 C426 1.388 . S
C426 H413 0.930 . S
C426 C425 1.388 . S
C426 C427 1.390 . S
C427 C426 1.390 . S
C427 C428 1.394 . S
C427 C433 1.465 1_655 S
C428 C423 1.399 . S
C428 C427 1.394 . S
C428 C429 1.516 . S
C429 C428 1.516 . S
C429 C430 1.502 1_655 S
C429 C431 1.561 . S
C429 C432 1.526 1_655 S
C430 H414 0.959 . S
C430 H415 0.959 . S
C430 H416 0.961 1_455 S
C430 C429 1.502 1_455 S
C431 H417 0.960 . S
C431 H418 0.961 . S
C431 H419 0.959 . S
C431 C429 1.561 . S
C432 C429 1.526 1_455 S
C432 C433 1.396 . S
C432 C437 1.390 . S
C433 C427 1.465 1_455 S
C433 C432 1.396 . S
C433 C434 1.399 . S
C434 H420 0.929 . S
C434 C433 1.399 . S
C434 C435 1.385 . S
C435 H421 0.931 . S
C435 C434 1.385 . S
C435 C436 1.389 . S
C436 C435 1.389 . S
C436 C437 1.387 . S
C437 H422 0.930 . S
C437 C432 1.390 . S
C437 C436 1.387 . S
H438 C450 0.930 . S
H439 C452 0.930 1_565 S
H440 C453 0.930 . S
H441 C457 0.959 . S
H442 C457 0.959 . S
H443 C457 0.961 . S
H444 C458 0.960 . S
H445 C458 0.961 . S
H446 C458 0.959 . S
H447 C461 0.929 1_556 S
H448 C462 0.931 . S
H449 C464 0.930 1_545 S
C450 H438 0.930 . S
C450 C451 1.399 . S
C450 C455 1.399 . S
C451 C450 1.399 . S
C451 C452 1.376 . S
C452 H439 0.930 1_545 S
C452 C451 1.376 . S
C452 C453 1.388 1_545 S
C453 H440 0.930 . S
C453 C452 1.388 1_565 S
C453 C454 1.390 . S
C454 C453 1.390 . S
C454 C455 1.394 1_565 S
C454 C460 1.465 1_556 S
C455 C450 1.399 . S
C455 C454 1.394 1_545 S
C455 C456 1.516 1_556 S
C456 C455 1.516 1_554 S
C456 C457 1.502 . S
C456 C458 1.561 . S
C456 C459 1.528 1_545 S
C457 H441 0.959 . S
C457 H442 0.959 . S
C457 H443 0.961 . S
C457 C456 1.502 . S
C458 H444 0.960 . S
C458 H445 0.961 . S
C458 H446 0.959 . S
C458 C456 1.561 . S
C459 C456 1.528 1_565 S
C459 C460 1.394 . S
C459 C464 1.389 . S
C460 C454 1.465 1_554 S
C460 C459 1.394 . S
C460 C461 1.399 . S
C461 H447 0.929 1_554 S
C461 C460 1.399 . S
C461 C462 1.385 . S
C462 H448 0.931 . S
C462 C461 1.385 . S
C462 C463 1.389 . S
C463 C462 1.389 . S
C463 C464 1.387 . S
C464 H449 0.930 1_565 S
C464 C459 1.389 . S
C464 C463 1.387 . S
H465 C477 0.930 . S
H466 C479 0.930 . S
H467 C480 0.930 . S
H468 C484 0.959 . S
H469 C484 0.959 . S
H470 C484 0.961 . S
H471 C485 0.960 . S
H472 C485 0.961 . S
H473 C485 0.959 . S
H474 C488 0.929 . S
H475 C489 0.931 . S
H476 C491 0.930 . S
C477 H465 0.930 . S
C477 C478 1.399 . S
C477 C482 1.399 . S
C478 C477 1.399 . S
C478 C479 1.376 . S
C479 H466 0.930 . S
C479 C478 1.376 . S
C479 C480 1.388 . S
C480 H467 0.930 . S
C480 C479 1.388 . S
C480 C481 1.390 . S
C481 C480 1.390 . S
C481 C482 1.394 . S
C481 C487 1.465 . S
C482 C477 1.399 . S
C482 C481 1.394 . S
C482 C483 1.516 . S
C483 C482 1.516 . S
C483 C484 1.502 . S
C483 C485 1.561 . S
C483 C486 1.526 . S
C484 H468 0.959 . S
C484 H469 0.959 . S
C484 H470 0.961 . S
C484 C483 1.502 . S
C485 H471 0.960 . S
C485 H472 0.961 . S
C485 H473 0.959 . S
C485 C483 1.561 . S
C486 C483 1.526 . S
C486 C487 1.396 . S
C486 C491 1.390 . S
C487 C481 1.465 . S
C487 C486 1.396 . S
C487 C488 1.399 . S
C488 H474 0.929 . S
C488 C487 1.399 . S
C488 C489 1.385 . S
C489 H475 0.931 . S
C489 C488 1.385 . S
C489 C490 1.389 . S
C490 C489 1.389 . S
C490 C491 1.387 . S
C491 H476 0.930 . S
C491 C486 1.390 . S
C491 C490 1.387 . S
H492 C504 0.930 . S
H493 C506 0.930 . S
H494 C507 0.930 . S
H495 C511 0.959 . S
H496 C511 0.959 . S
H497 C511 0.961 . S
H498 C512 0.960 . S
H499 C512 0.961 . S
H500 C512 0.959 . S
H501 C515 0.929 . S
H502 C516 0.931 . S
H503 C518 0.930 . S
C504 H492 0.930 . S
C504 C505 1.399 . S
C504 C509 1.399 . S
C505 C504 1.399 . S
C505 C506 1.376 . S
C506 H493 0.930 . S
C506 C505 1.376 . S
C506 C507 1.388 . S
C507 H494 0.930 . S
C507 C506 1.388 . S
C507 C508 1.390 . S
C508 C507 1.390 . S
C508 C509 1.394 . S
C508 C514 1.465 . S
C509 C504 1.399 . S
C509 C508 1.394 . S
C509 C510 1.516 . S
C510 C509 1.516 . S
C510 C511 1.502 . S
C510 C512 1.561 . S
C510 C513 1.526 . S
C511 H495 0.959 . S
C511 H496 0.959 . S
C511 H497 0.961 . S
C511 C510 1.502 . S
C512 H498 0.960 . S
C512 H499 0.961 . S
C512 H500 0.959 . S
C512 C510 1.561 . S
C513 C510 1.526 . S
C513 C514 1.396 . S
C513 C518 1.390 . S
C514 C508 1.465 . S
C514 C513 1.396 . S
C514 C515 1.399 . S
C515 H501 0.929 . S
C515 C514 1.399 . S
C515 C516 1.385 . S
C516 H502 0.931 . S
C516 C515 1.385 . S
C516 C517 1.389 . S
C517 C516 1.389 . S
C517 C518 1.387 . S
C518 H503 0.930 . S
C518 C513 1.390 . S
C518 C517 1.387 . S
H519 C531 0.930 . S
H520 C533 0.930 . S
H521 C534 0.930 . S
H522 C538 0.959 . S
H523 C538 0.959 . S
H524 C538 0.961 . S
H525 C539 0.960 . S
H526 C539 0.961 . S
H527 C539 0.959 . S
H528 C542 0.929 . S
H529 C543 0.931 . S
H530 C545 0.930 . S
C531 H519 0.930 . S
C531 C532 1.399 . S
C531 C536 1.399 . S
C532 C531 1.399 . S
C532 C533 1.376 . S
C533 H520 0.930 . S
C533 C532 1.376 . S
C533 C534 1.388 . S
C534 H521 0.930 . S
C534 C533 1.388 . S
C534 C535 1.390 . S
C535 C534 1.390 . S
C535 C536 1.394 . S
C535 C541 1.465 . S
C536 C531 1.399 . S
C536 C535 1.394 . S
C536 C537 1.516 . S
C537 C536 1.516 . S
C537 C538 1.502 . S
C537 C539 1.561 . S
C537 C540 1.526 . S
C538 H522 0.959 . S
C538 H523 0.959 . S
C538 H524 0.961 . S
C538 C537 1.502 . S
C539 H525 0.960 . S
C539 H526 0.961 . S
C539 H527 0.959 . S
C539 C537 1.561 . S
C540 C537 1.526 . S
C540 C541 1.396 . S
C540 C545 1.390 . S
C541 C535 1.465 . S
C541 C540 1.396 . S
C541 C542 1.399 . S
C542 H528 0.929 . S
C542 C541 1.399 . S
C542 C543 1.385 . S
C543 H529 0.931 . S
C543 C542 1.385 . S
C543 C544 1.389 . S
C544 C543 1.389 . S
C544 C545 1.387 . S
C545 H530 0.930 . S
C545 C540 1.390 . S
C545 C544 1.387 . S
H546 C558 0.930 . S
H547 C560 0.930 . S
H548 C561 0.930 . S
H549 C565 0.959 . S
H550 C565 0.959 . S
H551 C565 0.961 . S
H552 C566 0.960 . S
H553 C566 0.961 . S
H554 C566 0.959 . S
H555 C569 0.929 . S
H556 C570 0.931 . S
H557 C572 0.930 . S
C558 H546 0.930 . S
C558 C559 1.399 . S
C558 C563 1.399 . S
C559 C558 1.399 . S
C559 C560 1.376 . S
C560 H547 0.930 . S
C560 C559 1.376 . S
C560 C561 1.388 . S
C561 H548 0.930 . S
C561 C560 1.388 . S
C561 C562 1.390 . S
C562 C561 1.390 . S
C562 C563 1.394 . S
C562 C568 1.465 . S
C563 C558 1.399 . S
C563 C562 1.394 . S
C563 C564 1.516 . S
C564 C563 1.516 . S
C564 C565 1.502 . S
C564 C566 1.561 . S
C564 C567 1.526 . S
C565 H549 0.959 . S
C565 H550 0.959 . S
C565 H551 0.961 . S
C565 C564 1.502 . S
C566 H552 0.960 . S
C566 H553 0.961 . S
C566 H554 0.959 . S
C566 C564 1.561 . S
C567 C564 1.526 . S
C567 C568 1.396 . S
C567 C572 1.390 . S
C568 C562 1.465 . S
C568 C567 1.396 . S
C568 C569 1.399 . S
C569 H555 0.929 . S
C569 C568 1.399 . S
C569 C570 1.385 . S
C570 H556 0.931 . S
C570 C569 1.385 . S
C570 C571 1.389 . S
C571 C570 1.389 . S
C571 C572 1.387 . S
C572 H557 0.930 . S
C572 C567 1.390 . S
C572 C571 1.387 . S
H573 C585 0.930 . S
H574 C587 0.930 . S
H575 C588 0.930 . S
H576 C592 0.959 . S
H577 C592 0.959 . S
H578 C592 0.961 . S
H579 C593 0.960 . S
H580 C593 0.961 . S
H581 C593 0.959 . S
H582 C596 0.929 . S
H583 C597 0.931 . S
H584 C599 0.930 . S
C585 H573 0.930 . S
C585 C586 1.399 . S
C585 C590 1.399 . S
C586 C585 1.399 . S
C586 C587 1.376 . S
C587 H574 0.930 . S
C587 C586 1.376 . S
C587 C588 1.388 . S
C588 H575 0.930 . S
C588 C587 1.388 . S
C588 C589 1.390 . S
C589 C588 1.390 . S
C589 C590 1.394 . S
C589 C595 1.465 . S
C590 C585 1.399 . S
C590 C589 1.394 . S
C590 C591 1.516 . S
C591 C590 1.516 . S
C591 C592 1.502 . S
C591 C593 1.561 . S
C591 C594 1.526 . S
C592 H576 0.959 . S
C592 H577 0.959 . S
C592 H578 0.961 . S
C592 C591 1.502 . S
C593 H579 0.960 . S
C593 H580 0.961 . S
C593 H581 0.959 . S
C593 C591 1.561 . S
C594 C591 1.526 . S
C594 C595 1.396 . S
C594 C599 1.390 . S
C595 C589 1.465 . S
C595 C594 1.396 . S
C595 C596 1.399 . S
C596 H582 0.929 . S
C596 C595 1.399 . S
C596 C597 1.385 . S
C597 H583 0.931 . S
C597 C596 1.385 . S
C597 C598 1.389 . S
C598 C597 1.389 . S
C598 C599 1.387 . S
C599 H584 0.930 . S
C599 C594 1.390 . S
C599 C598 1.387 . S
H600 C612 0.930 . S
H601 C614 0.930 . S
H602 C615 0.930 . S
H603 C619 0.959 . S
H604 C619 0.959 . S
H605 C619 0.961 . S
H606 C620 0.960 . S
H607 C620 0.961 . S
H608 C620 0.959 . S
H609 C623 0.929 . S
H610 C624 0.931 . S
H611 C626 0.930 . S
C612 H600 0.930 . S
C612 C613 1.399 . S
C612 C617 1.399 . S
C613 C612 1.399 . S
C613 C614 1.376 . S
C614 H601 0.930 . S
C614 C613 1.376 . S
C614 C615 1.388 . S
C615 H602 0.930 . S
C615 C614 1.388 . S
C615 C616 1.390 . S
C616 C615 1.390 . S
C616 C617 1.394 . S
C616 C622 1.465 . S
C617 C612 1.399 . S
C617 C616 1.394 . S
C617 C618 1.516 . S
C618 C617 1.516 . S
C618 C619 1.502 . S
C618 C620 1.561 . S
C618 C621 1.526 . S
C619 H603 0.959 . S
C619 H604 0.959 . S
C619 H605 0.961 . S
C619 C618 1.502 . S
C620 H606 0.960 . S
C620 H607 0.961 . S
C620 H608 0.959 . S
C620 C618 1.561 . S
C621 C618 1.526 . S
C621 C622 1.396 . S
C621 C626 1.390 . S
C622 C616 1.465 . S
C622 C621 1.396 . S
C622 C623 1.399 . S
C623 H609 0.929 . S
C623 C622 1.399 . S
C623 C624 1.385 . S
C624 H610 0.931 . S
C624 C623 1.385 . S
C624 C625 1.389 . S
C625 C624 1.389 . S
C625 C626 1.387 . S
C626 H611 0.930 . S
C626 C621 1.390 . S
C626 C625 1.387 . S
H627 C639 0.930 . S
H628 C641 0.930 . S
H629 C642 0.930 . S
H630 C646 0.959 . S
H631 C646 0.959 . S
H632 C646 0.961 . S
H633 C647 0.960 . S
H634 C647 0.961 . S
H635 C647 0.959 . S
H636 C650 0.929 . S
H637 C651 0.931 . S
H638 C653 0.930 . S
C639 H627 0.930 . S
C639 C640 1.399 . S
C639 C644 1.399 . S
C640 C639 1.399 . S
C640 C641 1.376 . S
C641 H628 0.930 . S
C641 C640 1.376 . S
C641 C642 1.388 . S
C642 H629 0.930 . S
C642 C641 1.388 . S
C642 C643 1.390 . S
C643 C642 1.390 . S
C643 C644 1.394 . S
C643 C649 1.465 . S
C644 C639 1.399 . S
C644 C643 1.394 . S
C644 C645 1.516 . S
C645 C644 1.516 . S
C645 C646 1.502 . S
C645 C647 1.561 . S
C645 C648 1.526 . S
C646 H630 0.959 . S
C646 H631 0.959 . S
C646 H632 0.961 . S
C646 C645 1.502 . S
C647 H633 0.960 . S
C647 H634 0.961 . S
C647 H635 0.959 . S
C647 C645 1.561 . S
C648 C645 1.526 . S
C648 C649 1.396 . S
C648 C653 1.390 . S
C649 C643 1.465 . S
C649 C648 1.396 . S
C649 C650 1.399 . S
C650 H636 0.929 . S
C650 C649 1.399 . S
C650 C651 1.385 . S
C651 H637 0.931 . S
C651 C650 1.385 . S
C651 C652 1.389 . S
C652 C651 1.389 . S
C652 C653 1.387 . S
C653 H638 0.930 . S
C653 C648 1.390 . S
C653 C652 1.387 . S
H654 C666 0.930 . S
H655 C668 0.930 . S
H656 C669 0.930 . S
H657 C673 0.959 . S
H658 C673 0.959 . S
H659 C673 0.961 . S
H660 C674 0.960 . S
H661 C674 0.961 . S
H662 C674 0.959 . S
H663 C677 0.929 . S
H664 C678 0.931 . S
H665 C680 0.930 . S
C666 H654 0.930 . S
C666 C667 1.399 . S
C666 C671 1.399 . S
C667 C666 1.399 . S
C667 C668 1.376 . S
C668 H655 0.930 . S
C668 C667 1.376 . S
C668 C669 1.388 . S
C669 H656 0.930 . S
C669 C668 1.388 . S
C669 C670 1.390 . S
C670 C669 1.390 . S
C670 C671 1.394 . S
C670 C676 1.465 . S
C671 C666 1.399 . S
C671 C670 1.394 . S
C671 C672 1.516 . S
C672 C671 1.516 . S
C672 C673 1.502 . S
C672 C674 1.561 . S
C672 C675 1.526 . S
C673 H657 0.959 . S
C673 H658 0.959 . S
C673 H659 0.961 . S
C673 C672 1.502 . S
C674 H660 0.960 . S
C674 H661 0.961 . S
C674 H662 0.959 . S
C674 C672 1.561 . S
C675 C672 1.526 . S
C675 C676 1.396 . S
C675 C680 1.390 . S
C676 C670 1.465 . S
C676 C675 1.396 . S
C676 C677 1.399 . S
C677 H663 0.929 . S
C677 C676 1.399 . S
C677 C678 1.385 . S
C678 H664 0.931 . S
C678 C677 1.385 . S
C678 C679 1.389 . S
C679 C678 1.389 . S
C679 C680 1.387 . S
C680 H665 0.930 . S
C680 C675 1.390 . S
C680 C679 1.387 . S
H681 C693 0.930 . S
H682 C695 0.930 . S
H683 C696 0.930 . S
H684 C700 0.959 . S
H685 C700 0.959 . S
H686 C700 0.961 . S
H687 C701 0.960 . S
H688 C701 0.961 . S
H689 C701 0.959 . S
H690 C704 0.929 . S
H691 C705 0.931 . S
H692 C707 0.930 . S
C693 H681 0.930 . S
C693 C694 1.399 . S
C693 C698 1.399 . S
C694 C693 1.399 . S
C694 C695 1.376 . S
C695 H682 0.930 . S
C695 C694 1.376 . S
C695 C696 1.388 . S
C696 H683 0.930 . S
C696 C695 1.388 . S
C696 C697 1.390 . S
C697 C696 1.390 . S
C697 C698 1.394 . S
C697 C703 1.465 . S
C698 C693 1.399 . S
C698 C697 1.394 . S
C698 C699 1.516 . S
C699 C698 1.516 . S
C699 C700 1.502 . S
C699 C701 1.561 . S
C699 C702 1.526 . S
C700 H684 0.959 . S
C700 H685 0.959 . S
C700 H686 0.961 . S
C700 C699 1.502 . S
C701 H687 0.960 . S
C701 H688 0.961 . S
C701 H689 0.959 . S
C701 C699 1.561 . S
C702 C699 1.526 . S
C702 C703 1.396 . S
C702 C707 1.390 . S
C703 C697 1.465 . S
C703 C702 1.396 . S
C703 C704 1.399 . S
C704 H690 0.929 . S
C704 C703 1.399 . S
C704 C705 1.385 . S
C705 H691 0.931 . S
C705 C704 1.385 . S
C705 C706 1.389 . S
C706 C705 1.389 . S
C706 C707 1.387 . S
C707 H692 0.930 . S
C707 C702 1.390 . S
C707 C706 1.387 . S
H708 C720 0.930 . S
H709 C722 0.930 . S
H710 C723 0.930 . S
H711 C727 0.959 . S
H712 C727 0.959 . S
H713 C727 0.961 . S
H714 C728 0.960 . S
H715 C728 0.961 . S
H716 C728 0.959 . S
H717 C731 0.929 . S
H718 C732 0.931 . S
H719 C734 0.930 . S
C720 H708 0.930 . S
C720 C721 1.399 . S
C720 C725 1.399 . S
C721 C720 1.399 . S
C721 C722 1.376 . S
C722 H709 0.930 . S
C722 C721 1.376 . S
C722 C723 1.388 . S
C723 H710 0.930 . S
C723 C722 1.388 . S
C723 C724 1.390 . S
C724 C723 1.390 . S
C724 C725 1.394 . S
C724 C730 1.465 . S
C725 C720 1.399 . S
C725 C724 1.394 . S
C725 C726 1.516 . S
C726 C725 1.516 . S
C726 C727 1.502 . S
C726 C728 1.561 . S
C726 C729 1.526 . S
C727 H711 0.959 . S
C727 H712 0.959 . S
C727 H713 0.961 . S
C727 C726 1.502 . S
C728 H714 0.960 . S
C728 H715 0.961 . S
C728 H716 0.959 . S
C728 C726 1.561 . S
C729 C726 1.526 . S
C729 C730 1.396 . S
C729 C734 1.390 . S
C730 C724 1.465 . S
C730 C729 1.396 . S
C730 C731 1.399 . S
C731 H717 0.929 . S
C731 C730 1.399 . S
C731 C732 1.385 . S
C732 H718 0.931 . S
C732 C731 1.385 . S
C732 C733 1.389 . S
C733 C732 1.389 . S
C733 C734 1.387 . S
C734 H719 0.930 . S
C734 C729 1.390 . S
C734 C733 1.387 . S
H735 C747 0.930 . S
H736 C749 0.930 . S
H737 C750 0.930 . S
H738 C754 0.959 . S
H739 C754 0.959 . S
H740 C754 0.961 . S
H741 C755 0.960 . S
H742 C755 0.961 . S
H743 C755 0.959 . S
H744 C758 0.929 . S
H745 C759 0.931 . S
H746 C761 0.930 . S
C747 H735 0.930 . S
C747 C748 1.399 . S
C747 C752 1.399 . S
C748 C747 1.399 . S
C748 C749 1.376 . S
C749 H736 0.930 . S
C749 C748 1.376 . S
C749 C750 1.388 . S
C750 H737 0.930 . S
C750 C749 1.388 . S
C750 C751 1.390 . S
C751 C750 1.390 . S
C751 C752 1.394 . S
C751 C757 1.465 . S
C752 C747 1.399 . S
C752 C751 1.394 . S
C752 C753 1.516 . S
C753 C752 1.516 . S
C753 C754 1.502 . S
C753 C755 1.561 . S
C753 C756 1.526 . S
C754 H738 0.959 . S
C754 H739 0.959 . S
C754 H740 0.961 . S
C754 C753 1.502 . S
C755 H741 0.960 . S
C755 H742 0.961 . S
C755 H743 0.959 . S
C755 C753 1.561 . S
C756 C753 1.526 . S
C756 C757 1.396 . S
C756 C761 1.390 . S
C757 C751 1.465 . S
C757 C756 1.396 . S
C757 C758 1.399 . S
C758 H744 0.929 . S
C758 C757 1.399 . S
C758 C759 1.385 . S
C759 H745 0.931 . S
C759 C758 1.385 . S
C759 C760 1.389 . S
C760 C759 1.389 . S
C760 C761 1.387 . S
C761 H746 0.930 . S
C761 C756 1.390 . S
C761 C760 1.387 . S
H762 C774 0.930 . S
H763 C776 0.930 . S
H764 C777 0.930 . S
H765 C781 0.959 . S
H766 C781 0.959 . S
H767 C781 0.961 . S
H768 C782 0.960 . S
H769 C782 0.961 . S
H770 C782 0.959 . S
H771 C785 0.929 . S
H772 C786 0.931 . S
H773 C788 0.930 . S
C774 H762 0.930 . S
C774 C775 1.399 . S
C774 C779 1.399 . S
C775 C774 1.399 . S
C775 C776 1.376 . S
C776 H763 0.930 . S
C776 C775 1.376 . S
C776 C777 1.388 . S
C777 H764 0.930 . S
C777 C776 1.388 . S
C777 C778 1.390 . S
C778 C777 1.390 . S
C778 C779 1.394 . S
C778 C784 1.465 . S
C779 C774 1.399 . S
C779 C778 1.394 . S
C779 C780 1.516 . S
C780 C779 1.516 . S
C780 C781 1.502 . S
C780 C782 1.561 . S
C780 C783 1.526 . S
C781 H765 0.959 . S
C781 H766 0.959 . S
C781 H767 0.961 . S
C781 C780 1.502 . S
C782 H768 0.960 . S
C782 H769 0.961 . S
C782 H770 0.959 . S
C782 C780 1.561 . S
C783 C780 1.526 . S
C783 C784 1.396 . S
C783 C788 1.390 . S
C784 C778 1.465 . S
C784 C783 1.396 . S
C784 C785 1.399 . S
C785 H771 0.929 . S
C785 C784 1.399 . S
C785 C786 1.385 . S
C786 H772 0.931 . S
C786 C785 1.385 . S
C786 C787 1.389 . S
C787 C786 1.389 . S
C787 C788 1.387 . S
C788 H773 0.930 . S
C788 C783 1.390 . S
C788 C787 1.387 . S
H789 C801 0.930 . S
H790 C803 0.930 . S
H791 C804 0.930 . S
H792 C808 0.959 . S
H793 C808 0.959 . S
H794 C808 0.961 . S
H795 C809 0.960 . S
H796 C809 0.961 . S
H797 C809 0.959 . S
H798 C812 0.929 . S
H799 C813 0.931 . S
H800 C815 0.930 . S
C801 H789 0.930 . S
C801 C802 1.399 . S
C801 C806 1.399 . S
C802 C801 1.399 . S
C802 C803 1.376 . S
C803 H790 0.930 . S
C803 C802 1.376 . S
C803 C804 1.388 . S
C804 H791 0.930 . S
C804 C803 1.388 . S
C804 C805 1.390 . S
C805 C804 1.390 . S
C805 C806 1.394 . S
C805 C811 1.465 . S
C806 C801 1.399 . S
C806 C805 1.394 . S
C806 C807 1.516 . S
C807 C806 1.516 . S
C807 C808 1.502 . S
C807 C809 1.561 . S
C807 C810 1.526 . S
C808 H792 0.959 . S
C808 H793 0.959 . S
C808 H794 0.961 . S
C808 C807 1.502 . S
C809 H795 0.960 . S
C809 H796 0.961 . S
C809 H797 0.959 . S
C809 C807 1.561 . S
C810 C807 1.526 . S
C810 C811 1.396 . S
C810 C815 1.390 . S
C811 C805 1.465 . S
C811 C810 1.396 . S
C811 C812 1.399 . S
C812 H798 0.929 . S
C812 C811 1.399 . S
C812 C813 1.385 . S
C813 H799 0.931 . S
C813 C812 1.385 . S
C813 C814 1.389 . S
C814 C813 1.389 . S
C814 C815 1.387 . S
C815 H800 0.930 . S
C815 C810 1.390 . S
C815 C814 1.387 . S
C181 C13 1.272 . S
C193 C167 1.211 . S
C208 C97 1.263 . S
C220 C27 1.212 . S
C235 C41 1.271 . S
C247 C111 1.333 . S
C262 C125 1.211 . S
C274 C55 1.260 . S
C289 C139 1.261 . S
C301 C69 1.212 . S
C316 C153 1.314 . S
C328 C83 1.320 . S
C343 C49 1.440 . S
C355 C119 1.468 . S
C370 C63 1.463 . S
C382 C133 1.436 . S
C397 C77 1.467 . S
C409 C147 1.462 . S
C424 C161 1.441 . S
C436 C7 1.441 . S
C451 C21 1.436 . S
C463 C91 1.464 . S
C478 C35 1.464 . S
C490 C105 1.466 . S
C505 C120 1.404 . S
C517 C8 1.367 . S
C532 C134 1.362 . S
C544 C22 1.395 . S
C559 C36 1.398 . S
C571 C148 1.364 . S
C586 C50 1.401 . S
C598 C162 1.366 . S
C613 C64 1.360 . S
C625 C92 1.386 . S
C640 C106 1.389 . S
C652 C78 1.361 . S
C667 C11 1.349 . S
C679 C151 1.348 . S
C694 C165 1.333 . S
C706 C25 1.359 . S
C721 C39 1.351 . S
C733 C95 1.329 . S
C748 C53 1.356 . S
C760 C109 1.339 . S
C775 C67 1.329 . S
C787 C123 1.353 . S
C802 C81 1.359 . S
C814 C137 1.330 . S
