# Generated by pormake.
# Topology ure, (4)-cn, num edge types: 1
# Building blocks:
#     Node 0, Type 0, BuildingBlock: GALJAG_clean_sbu_0, # of connection points: 4
#     Node 1, Type 0, BuildingBlock: GALJAG_clean_sbu_0, # of connection points: 4
#     Node 2, Type 0, BuildingBlock: GALJAG_clean_sbu_0, # of connection points: 4
#     Node 3, Type 0, BuildingBlock: GALJAG_clean_sbu_0, # of connection points: 4
#     Node 4, Type 0, BuildingBlock: GALJAG_clean_sbu_0, # of connection points: 4
#     Node 5, Type 0, BuildingBlock: GALJAG_clean_sbu_0, # of connection points: 4
#     Node 6, Type 0, BuildingBlock: GALJAG_clean_sbu_0, # of connection points: 4
#     Node 7, Type 0, BuildingBlock: GALJAG_clean_sbu_0, # of connection points: 4
#     Node 8, Type 0, BuildingBlock: GALJAG_clean_sbu_0, # of connection points: 4
#     Node 9, Type 0, BuildingBlock: GALJAG_clean_sbu_0, # of connection points: 4
#     Node 10, Type 0, BuildingBlock: GALJAG_clean_sbu_0, # of connection points: 4
#     Node 11, Type 0, BuildingBlock: GALJAG_clean_sbu_0, # of connection points: 4
#     Node 12, Type 0, BuildingBlock: GALJAG_clean_sbu_0, # of connection points: 4
#     Node 13, Type 0, BuildingBlock: GALJAG_clean_sbu_0, # of connection points: 4
#     Node 14, Type 0, BuildingBlock: GALJAG_clean_sbu_0, # of connection points: 4
#     Node 15, Type 0, BuildingBlock: GALJAG_clean_sbu_0, # of connection points: 4
#     Edge 16, Type (0, 0), BuildingBlock: MIFKUJ_clean_linker_0, # of connection points: 2
#     Edge 17, Type (0, 0), BuildingBlock: MIFKUJ_clean_linker_0, # of connection points: 2
#     Edge 18, Type (0, 0), BuildingBlock: MIFKUJ_clean_linker_0, # of connection points: 2
#     Edge 19, Type (0, 0), BuildingBlock: MIFKUJ_clean_linker_0, # of connection points: 2
#     Edge 20, Type (0, 0), BuildingBlock: MIFKUJ_clean_linker_0, # of connection points: 2
#     Edge 21, Type (0, 0), BuildingBlock: MIFKUJ_clean_linker_0, # of connection points: 2
#     Edge 22, Type (0, 0), BuildingBlock: MIFKUJ_clean_linker_0, # of connection points: 2
#     Edge 23, Type (0, 0), BuildingBlock: MIFKUJ_clean_linker_0, # of connection points: 2
#     Edge 24, Type (0, 0), BuildingBlock: MIFKUJ_clean_linker_0, # of connection points: 2
#     Edge 25, Type (0, 0), BuildingBlock: MIFKUJ_clean_linker_0, # of connection points: 2
#     Edge 26, Type (0, 0), BuildingBlock: MIFKUJ_clean_linker_0, # of connection points: 2
#     Edge 27, Type (0, 0), BuildingBlock: MIFKUJ_clean_linker_0, # of connection points: 2
#     Edge 28, Type (0, 0), BuildingBlock: MIFKUJ_clean_linker_0, # of connection points: 2
#     Edge 29, Type (0, 0), BuildingBlock: MIFKUJ_clean_linker_0, # of connection points: 2
#     Edge 30, Type (0, 0), BuildingBlock: MIFKUJ_clean_linker_0, # of connection points: 2
#     Edge 31, Type (0, 0), BuildingBlock: MIFKUJ_clean_linker_0, # of connection points: 2
#     Edge 32, Type (0, 0), BuildingBlock: MIFKUJ_clean_linker_0, # of connection points: 2
#     Edge 33, Type (0, 0), BuildingBlock: MIFKUJ_clean_linker_0, # of connection points: 2
#     Edge 34, Type (0, 0), BuildingBlock: MIFKUJ_clean_linker_0, # of connection points: 2
#     Edge 35, Type (0, 0), BuildingBlock: MIFKUJ_clean_linker_0, # of connection points: 2
#     Edge 36, Type (0, 0), BuildingBlock: MIFKUJ_clean_linker_0, # of connection points: 2
#     Edge 37, Type (0, 0), BuildingBlock: MIFKUJ_clean_linker_0, # of connection points: 2
#     Edge 38, Type (0, 0), BuildingBlock: MIFKUJ_clean_linker_0, # of connection points: 2
#     Edge 39, Type (0, 0), BuildingBlock: MIFKUJ_clean_linker_0, # of connection points: 2
#     Edge 40, Type (0, 0), BuildingBlock: MIFKUJ_clean_linker_0, # of connection points: 2
#     Edge 41, Type (0, 0), BuildingBlock: MIFKUJ_clean_linker_0, # of connection points: 2
#     Edge 42, Type (0, 0), BuildingBlock: MIFKUJ_clean_linker_0, # of connection points: 2
#     Edge 43, Type (0, 0), BuildingBlock: MIFKUJ_clean_linker_0, # of connection points: 2
#     Edge 44, Type (0, 0), BuildingBlock: MIFKUJ_clean_linker_0, # of connection points: 2
#     Edge 45, Type (0, 0), BuildingBlock: MIFKUJ_clean_linker_0, # of connection points: 2
#     Edge 46, Type (0, 0), BuildingBlock: MIFKUJ_clean_linker_0, # of connection points: 2
#     Edge 47, Type (0, 0), BuildingBlock: MIFKUJ_clean_linker_0, # of connection points: 2
# Relax obj value: 0.290
# Max RMSD: 0.221
# Mean RMSD: 0.173
data_MOF--net-ure--node1-GALJAG_clean_sbu_0--edge1-MIFKUJ_clean_linker_0
_symmetry_space_group_name_H-M    P1
_symmetry_Int_Tables_number       1
_symmetry_cell_setting            triclinic
loop_
_symmetry_equiv_pos_as_xyz
'x, y, z'
_cell_length_a     35.691781
_cell_length_b     42.022172
_cell_length_c     41.988119
_cell_angle_alpha  100.30787
_cell_angle_beta   96.097381
_cell_angle_gamma 95.981046
loop_
_atom_site_label
_atom_site_type_symbol
_atom_site_fract_x
_atom_site_fract_y
_atom_site_fract_z
_atom_type_partial_charge
In0 In 0.33175 0.31017 0.28344 0.0
O1 O 0.27487 0.27649 0.27193 0.0
O2 O 0.30704 0.28123 0.23312 0.0
C3 C 0.3365 0.30934 0.34803 0.0
C4 C 0.3996 0.29244 0.26984 0.0
C5 C 0.3274 0.37296 0.27844 0.0
O6 O 0.34328 0.28593 0.32712 0.0
O7 O 0.32524 0.33282 0.33632 0.0
O8 O 0.35847 0.36191 0.2841 0.0
O9 O 0.2982 0.35231 0.2754 0.0
C10 C 0.27774 0.2679 0.24203 0.0
O11 O 0.38435 0.31345 0.25662 0.0
O12 O 0.38036 0.28028 0.28916 0.0
In13 In 0.9924 0.02415 0.50132 0.0
O14 O 0.02325 0.04167 0.553 0.0
O15 O 0.0032 0.99136 0.53845 0.0
C16 C 0.9929 0.08497 0.48882 0.0
C17 C 0.03187 0.99361 0.45582 0.0
C18 C 0.91807 0.00689 0.50387 0.0
O19 O 0.01483 0.07813 0.51153 0.0
O20 O 0.97154 0.06085 0.4715 0.0
O21 O 0.93859 0.9875 0.48983 0.0
O22 O 0.93504 0.03483 0.51657 0.0
C23 C 0.01969 0.01407 0.56086 0.0
O24 O 0.99626 0.98839 0.45407 0.0
O25 O 0.04755 0.01455 0.48018 0.0
In26 In 0.33084 0.76078 0.78598 0.0
O27 O 0.26801 0.74013 0.77482 0.0
O28 O 0.28326 0.78547 0.80783 0.0
C29 C 0.35824 0.70333 0.77058 0.0
C30 C 0.34308 0.79372 0.73758 0.0
C31 C 0.35775 0.77821 0.84986 0.0
O32 O 0.32356 0.70553 0.77279 0.0
O33 O 0.37906 0.73033 0.77466 0.0
O34 O 0.35494 0.79916 0.83181 0.0
O35 O 0.34866 0.74908 0.83528 0.0
C36 C 0.25713 0.76347 0.7935 0.0
O37 O 0.36704 0.79673 0.76267 0.0
O38 O 0.31374 0.77411 0.73701 0.0
In39 In 0.48284 0.96486 0.97502 0.0
O40 O 0.45233 0.97401 0.92702 0.0
O41 O 0.45909 0.01171 0.96901 0.0
C42 C 0.48959 0.90062 0.96431 0.0
C43 C 0.55501 0.98687 0.97018 0.0
C44 C 0.45203 0.96858 0.03127 0.0
O45 O 0.46095 0.91132 0.95138 0.0
O46 O 0.51386 0.92214 0.98212 0.0
O47 O 0.48363 0.98417 0.02919 0.0
O48 O 0.43527 0.9517 0.00463 0.0
C49 C 0.4479 0.003 0.93893 0.0
O50 O 0.54083 0.99256 0.99666 0.0
O51 O 0.53244 0.97083 0.94614 0.0
In52 In 0.32729 0.77097 0.24266 0.0
O53 O 0.29711 0.71893 0.23522 0.0
O54 O 0.34505 0.73273 0.27159 0.0
C55 C 0.31692 0.78088 0.18065 0.0
C56 C 0.27823 0.80218 0.27815 0.0
C57 C 0.40284 0.78958 0.25333 0.0
O58 O 0.31503 0.75287 0.1876 0.0
O59 O 0.32292 0.80393 0.20497 0.0
O60 O 0.37937 0.80752 0.26499 0.0
O61 O 0.38823 0.76222 0.23672 0.0
C62 C 0.31968 0.71042 0.25642 0.0
O63 O 0.31375 0.80789 0.28573 0.0
O64 O 0.26745 0.78027 0.25321 0.0
In65 In 0.44429 0.9754 0.42294 0.0
O66 O 0.40865 0.9755 0.46547 0.0
O67 O 0.42159 0.93018 0.44089 0.0
C68 C 0.45186 0.03923 0.42067 0.0
C69 C 0.51601 0.97073 0.44739 0.0
C70 C 0.41579 0.95246 0.35973 0.0
O71 O 0.42496 0.02608 0.43319 0.0
O72 O 0.4743 0.02011 0.40928 0.0
O73 O 0.44619 0.94477 0.37266 0.0
O74 O 0.39875 0.9707 0.379 0.0
C75 C 0.40664 0.94511 0.464 0.0
O76 O 0.49772 0.95039 0.42373 0.0
O77 O 0.49801 0.99342 0.45906 0.0
In78 In 0.39354 0.32282 0.75407 0.0
O79 O 0.4037 0.26953 0.7483 0.0
O80 O 0.42629 0.30101 0.79309 0.0
C81 C 0.40189 0.32678 0.69177 0.0
C82 C 0.31957 0.30891 0.76074 0.0
C83 C 0.41987 0.38517 0.78269 0.0
O84 O 0.42388 0.31251 0.70847 0.0
O85 O 0.37596 0.33859 0.70645 0.0
O86 O 0.3871 0.3717 0.78419 0.0
O87 O 0.44086 0.36654 0.76816 0.0
C88 C 0.42094 0.27231 0.77663 0.0
O89 O 0.34514 0.31723 0.78482 0.0
O90 O 0.33133 0.30716 0.73327 0.0
In91 In 0.02201 0.96535 0.95324 0.0
O92 O 0.97478 0.99736 0.96065 0.0
O93 O 0.96334 0.94746 0.96415 0.0
C94 C 0.03148 0.97685 0.89316 0.0
C95 C 0.06414 0.00766 0.00357 0.0
C96 C 0.0321 0.9022 0.95055 0.0
O97 O 0.00051 0.97812 0.90485 0.0
O98 O 0.05821 0.97003 0.91191 0.0
O99 O 0.05552 0.92514 0.96745 0.0
O100 O 0.00445 0.91122 0.93484 0.0
C101 C 0.95105 0.97464 0.96516 0.0
O102 O 0.03843 0.98636 0.00767 0.0
O103 O 0.06924 0.00705 0.97421 0.0
In104 In 0.84233 0.23962 0.74583 0.0
O105 O 0.83454 0.28779 0.77801 0.0
O106 O 0.7856 0.25324 0.76115 0.0
C107 C 0.91768 0.25937 0.76135 0.0
C108 C 0.82455 0.17844 0.75622 0.0
C109 C 0.83129 0.2382 0.68107 0.0
O110 O 0.8975 0.26788 0.73869 0.0
O111 O 0.89975 0.24146 0.77725 0.0
O112 O 0.8534 0.22125 0.69403 0.0
O113 O 0.81368 0.25549 0.70078 0.0
C114 C 0.79926 0.28089 0.77767 0.0
O115 O 0.82276 0.18543 0.72821 0.0
O116 O 0.83502 0.2024 0.77934 0.0
In117 In 0.97187 0.50001 0.95322 0.0
O118 O 0.0231 0.48273 0.93018 0.0
O119 O 0.02545 0.48919 0.98175 0.0
C120 C 0.93471 0.48626 0.89183 0.0
C121 C 0.933 0.47445 0.99661 0.0
C122 C 0.98782 0.56539 0.96603 0.0
O123 O 0.93597 0.51334 0.91069 0.0
O124 O 0.9508 0.4653 0.90438 0.0
O125 O 0.95428 0.55109 0.9623 0.0
O126 O 0.01327 0.54671 0.96369 0.0
C127 C 0.04208 0.48147 0.95695 0.0
O128 O 0.94438 0.50437 0.00016 0.0
O129 O 0.94 0.45744 0.97055 0.0
In130 In 0.87767 0.84855 0.29185 0.0
O131 O 0.90288 0.80056 0.28818 0.0
O132 O 0.89676 0.82636 0.33544 0.0
C133 C 0.85768 0.84412 0.22723 0.0
C134 C 0.80649 0.85054 0.30796 0.0
C135 C 0.93461 0.89817 0.30838 0.0
O136 O 0.86291 0.87076 0.24733 0.0
O137 O 0.86335 0.81945 0.23952 0.0
O138 O 0.93405 0.87507 0.28447 0.0
O139 O 0.90728 0.89532 0.32492 0.0
C140 C 0.90645 0.80126 0.31857 0.0
O141 O 0.82868 0.87612 0.30863 0.0
O142 O 0.82076 0.82449 0.30049 0.0
In143 In 0.00352 0.48907 0.50682 0.0
O144 O 0.06335 0.50921 0.53204 0.0
O145 O 0.05528 0.49481 0.48037 0.0
C146 C 0.97211 0.49148 0.56268 0.0
C147 C 0.97214 0.53157 0.47397 0.0
C148 C 0.00023 0.42403 0.48807 0.0
O149 O 0.0022 0.50918 0.56057 0.0
O150 O 0.95716 0.47296 0.53634 0.0
O151 O 0.97544 0.43975 0.47645 0.0
O152 O 0.02595 0.44113 0.50888 0.0
C153 C 0.07821 0.50589 0.50588 0.0
O154 O 0.9751 0.50281 0.46032 0.0
O155 O 0.98355 0.53822 0.50409 0.0
In156 In 0.52086 0.50902 0.00825 0.0
O157 O 0.53374 0.46482 0.97278 0.0
O158 O 0.5772 0.50474 0.98701 0.0
C159 C 0.44506 0.49225 0.99857 0.0
C160 C 0.5393 0.49754 0.06916 0.0
C161 C 0.52234 0.56972 0.99446 0.0
O162 O 0.46607 0.48412 0.97686 0.0
O163 O 0.46237 0.50867 0.0252 0.0
O164 O 0.54556 0.56311 0.01646 0.0
O165 O 0.49914 0.54583 0.9794 0.0
C166 C 0.56699 0.47653 0.97033 0.0
O167 O 0.54428 0.52565 0.06245 0.0
O168 O 0.5257 0.47532 0.04516 0.0
In169 In 0.79009 0.79145 0.81931 0.0
O170 O 0.84984 0.79375 0.84574 0.0
O171 O 0.84066 0.77284 0.79541 0.0
C172 C 0.78067 0.8469 0.79766 0.0
C173 C 0.74299 0.74104 0.78108 0.0
C174 C 0.77637 0.80429 0.8819 0.0
O175 O 0.8081 0.83108 0.79141 0.0
O176 O 0.75726 0.83399 0.81361 0.0
O177 O 0.76856 0.77602 0.86453 0.0
O178 O 0.78975 0.82573 0.86735 0.0
C179 C 0.86377 0.78055 0.8212 0.0
O180 O 0.76413 0.73772 0.80601 0.0
O181 O 0.74465 0.76985 0.77619 0.0
In182 In 0.86734 0.26147 0.28956 0.0
O183 O 0.81327 0.27016 0.26033 0.0
O184 O 0.80817 0.23525 0.29093 0.0
C185 C 0.90105 0.20741 0.27414 0.0
C186 C 0.8962 0.30488 0.25569 0.0
C187 C 0.87537 0.27796 0.35553 0.0
O188 O 0.86595 0.20797 0.26634 0.0
O189 O 0.91906 0.2342 0.28937 0.0
O190 O 0.85147 0.28905 0.33754 0.0
O191 O 0.89667 0.26042 0.34024 0.0
C192 C 0.79153 0.25049 0.27147 0.0
O193 O 0.89004 0.27464 0.24487 0.0
O194 O 0.88939 0.31356 0.28467 0.0
In195 In 0.53131 0.45077 0.46147 0.0
O196 O 0.57141 0.45956 0.50977 0.0
O197 O 0.56259 0.49997 0.48739 0.0
C198 C 0.52778 0.38635 0.46042 0.0
C199 C 0.46485 0.47075 0.47592 0.0
C200 C 0.54323 0.4525 0.39909 0.0
O201 O 0.55799 0.40288 0.45627 0.0
O202 O 0.50047 0.40246 0.46554 0.0
O203 O 0.51171 0.4418 0.40661 0.0
O204 O 0.56881 0.46246 0.42297 0.0
C205 C 0.57818 0.4899 0.51135 0.0
O206 O 0.48545 0.4849 0.45868 0.0
O207 O 0.47777 0.44693 0.48561 0.0
H208 H 0.21472 0.2321 0.2558 0.0
H209 H 0.17258 0.18805 0.2184 0.0
H210 H 0.23807 0.20271 0.1404 0.0
H211 H 0.27965 0.24677 0.17727 0.0
H212 H 0.16347 0.19477 0.11984 0.0
H213 H 0.24976 0.14244 0.18547 0.0
H214 H 0.2783 0.12963 0.23706 0.0
H215 H 0.16854 0.08989 0.25521 0.0
H216 H 0.13934 0.10269 0.20382 0.0
H217 H 0.12407 0.05249 0.00097 0.0
H218 H 0.15536 0.09657 0.04468 0.0
H219 H 0.0816 0.06446 0.11084 0.0
H220 H 0.05075 0.01968 0.06728 0.0
H221 H 0.15178 0.08202 0.14117 0.0
H222 H 0.0652 0.13027 0.07623 0.0
H223 H 0.03378 0.14314 0.02572 0.0
H224 H 0.1397 0.19078 0.00776 0.0
H225 H 0.1719 0.17778 0.05793 0.0
C226 C 0.21985 0.22606 0.23059 0.0
C227 C 0.25052 0.24282 0.21946 0.0
C228 C 0.19591 0.20081 0.20932 0.0
C229 C 0.20245 0.19185 0.17669 0.0
C230 C 0.23248 0.20918 0.16545 0.0
C231 C 0.25628 0.23434 0.1866 0.0
C232 C 0.17871 0.16421 0.15396 0.0
C233 C 0.16114 0.17008 0.12442 0.0
C234 C 0.17444 0.13217 0.16047 0.0
C235 C 0.19224 0.12413 0.19113 0.0
C236 C 0.23166 0.13127 0.20062 0.0
C237 C 0.24798 0.12391 0.22977 0.0
C238 C 0.22523 0.10912 0.24949 0.0
C239 C 0.18613 0.10147 0.23999 0.0
C240 C 0.16969 0.10876 0.21085 0.0
C241 C 0.11469 0.05466 0.02489 0.0
C242 C 0.08484 0.03277 0.03067 0.0
C243 C 0.13244 0.07999 0.04981 0.0
C244 C 0.12028 0.08425 0.08087 0.0
C245 C 0.0913 0.06175 0.08702 0.0
C246 C 0.0737 0.03621 0.06212 0.0
C247 C 0.13766 0.11248 0.10663 0.0
C248 C 0.15381 0.10675 0.13673 0.0
C249 C 0.1403 0.14476 0.10086 0.0
C250 C 0.12102 0.15283 0.07074 0.0
C251 C 0.08185 0.1433 0.0614 0.0
C252 C 0.06389 0.15065 0.03284 0.0
C253 C 0.08474 0.16771 0.01351 0.0
C254 C 0.12359 0.17754 0.02275 0.0
C255 C 0.14171 0.17022 0.05127 0.0
H256 H 0.07079 0.17337 0.99141 0.0
H257 H 0.23792 0.10347 0.27206 0.0
H258 H 0.10682 0.00662 0.44956 0.0
H259 H 0.14431 0.97353 0.41429 0.0
H260 H 0.04425 0.90543 0.37496 0.0
H261 H 0.0063 0.9388 0.40977 0.0
H262 H 0.10963 0.87723 0.39939 0.0
H263 H 0.07464 0.94663 0.32654 0.0
H264 H 0.06561 0.99879 0.30973 0.0
H265 H 0.1857 0.02928 0.32998 0.0
H266 H 0.19547 0.97746 0.3476 0.0
H267 H 0.20178 0.78601 0.27541 0.0
H268 H 0.15691 0.81811 0.30303 0.0
H269 H 0.24894 0.89294 0.34736 0.0
H270 H 0.29408 0.86066 0.32037 0.0
H271 H 0.18325 0.91607 0.31689 0.0
H272 H 0.21723 0.84762 0.39239 0.0
H273 H 0.22582 0.79608 0.4108 0.0
H274 H 0.10634 0.7642 0.38654 0.0
H275 H 0.09711 0.81517 0.36693 0.0
C276 C 0.09271 0.98481 0.43312 0.0
C277 C 0.05371 0.97518 0.43252 0.0
C278 C 0.11413 0.96598 0.41297 0.0
C279 C 0.09702 0.93704 0.39214 0.0
C280 C 0.05793 0.92766 0.39098 0.0
C281 C 0.03633 0.94678 0.41077 0.0
C282 C 0.12062 0.91591 0.37296 0.0
C283 C 0.12515 0.88537 0.38085 0.0
C284 C 0.14141 0.92702 0.34937 0.0
C285 C 0.13576 0.95824 0.33873 0.0
C286 C 0.09913 0.96456 0.32775 0.0
C287 C 0.09386 0.99406 0.318 0.0
C288 C 0.12502 0.01738 0.31883 0.0
C289 C 0.16156 0.0112 0.32938 0.0
C290 C 0.167 0.98175 0.33925 0.0
C291 C 0.21245 0.80921 0.29121 0.0
C292 C 0.2514 0.82081 0.29587 0.0
C293 C 0.18682 0.82749 0.30692 0.0
C294 C 0.19966 0.85787 0.32715 0.0
C295 C 0.23851 0.86957 0.33175 0.0
C296 C 0.26425 0.85103 0.31652 0.0
C297 C 0.17251 0.87747 0.34353 0.0
C298 C 0.16739 0.90775 0.33515 0.0
C299 C 0.15108 0.86607 0.36663 0.0
C300 C 0.15659 0.83503 0.37766 0.0
C301 C 0.19285 0.8294 0.39041 0.0
C302 C 0.19782 0.8003 0.40111 0.0
C303 C 0.16666 0.77677 0.39958 0.0
C304 C 0.13046 0.78233 0.38739 0.0
C305 C 0.12536 0.81131 0.37644 0.0
H306 H 0.17054 0.75431 0.40801 0.0
H307 H 0.12086 0.0402 0.31124 0.0
H308 H 0.36716 0.96955 0.51351 0.0
H309 H 0.35236 0.94439 0.5598 0.0
H310 H 0.40383 0.85995 0.52001 0.0
H311 H 0.41678 0.88417 0.47321 0.0
H312 H 0.34711 0.83992 0.54473 0.0
H313 H 0.45123 0.92467 0.58295 0.0
H314 H 0.48458 0.98067 0.59312 0.0
H315 H 0.40049 0.01443 0.65246 0.0
H316 H 0.36639 0.95867 0.64231 0.0
H317 H 0.40814 0.82832 0.72622 0.0
H318 H 0.4168 0.85485 0.67951 0.0
H319 H 0.29822 0.82652 0.64259 0.0
H320 H 0.28981 0.79917 0.68835 0.0
H321 H 0.38961 0.90292 0.65674 0.0
H322 H 0.28551 0.80819 0.5609 0.0
H323 H 0.26186 0.74949 0.55039 0.0
H324 H 0.36285 0.73092 0.60563 0.0
H325 H 0.38732 0.7894 0.61608 0.0
C326 C 0.37464 0.94538 0.51444 0.0
C327 C 0.39318 0.92885 0.48982 0.0
C328 C 0.36653 0.93114 0.54104 0.0
C329 C 0.37774 0.90053 0.54384 0.0
C330 C 0.3949 0.88357 0.51853 0.0
C331 C 0.40231 0.89747 0.49173 0.0
C332 C 0.37278 0.88634 0.57338 0.0
C333 C 0.35629 0.8538 0.5692 0.0
C334 C 0.38558 0.90407 0.60539 0.0
C335 C 0.40606 0.93759 0.6116 0.0
C336 C 0.43973 0.94409 0.59799 0.0
C337 C 0.45878 0.97577 0.60377 0.0
C338 C 0.4446 0.00111 0.62335 0.0
C339 C 0.4114 0.99479 0.63726 0.0
C340 C 0.39221 0.96316 0.63152 0.0
C341 C 0.38399 0.82784 0.70811 0.0
C342 C 0.34844 0.81138 0.71068 0.0
C343 C 0.3889 0.84307 0.68152 0.0
C344 C 0.35829 0.84221 0.65723 0.0
C345 C 0.32246 0.82686 0.66056 0.0
C346 C 0.31768 0.81132 0.68681 0.0
C347 C 0.36382 0.85663 0.62797 0.0
C348 C 0.3803 0.88916 0.63224 0.0
C349 C 0.3524 0.83852 0.59595 0.0
C350 C 0.33802 0.80324 0.58956 0.0
C351 C 0.30271 0.79156 0.57071 0.0
C352 C 0.28916 0.75832 0.56478 0.0
C353 C 0.31077 0.73651 0.57743 0.0
C354 C 0.34606 0.74786 0.59595 0.0
C355 C 0.35976 0.78105 0.60192 0.0
H356 H 0.30022 0.7108 0.57282 0.0
H357 H 0.45939 0.02562 0.6278 0.0
H358 H 0.43982 0.99587 0.87231 0.0
H359 H 0.43204 0.03892 0.84054 0.0
H360 H 0.42343 0.10692 0.92873 0.0
H361 H 0.43091 0.06413 0.96044 0.0
H362 H 0.37493 0.11666 0.8785 0.0
H363 H 0.50698 0.10354 0.89929 0.0
H364 H 0.56286 0.07361 0.8985 0.0
H365 H 0.5438 0.05061 0.79378 0.0
H366 H 0.48743 0.08002 0.79398 0.0
H367 H 0.43604 0.26957 0.84102 0.0
H368 H 0.43834 0.22052 0.86472 0.0
H369 H 0.42543 0.16112 0.76829 0.0
H370 H 0.42227 0.21006 0.74431 0.0
H371 H 0.48222 0.14454 0.81812 0.0
H372 H 0.35112 0.16176 0.7987 0.0
H373 H 0.29757 0.19439 0.80164 0.0
H374 H 0.31729 0.21206 0.90633 0.0
H375 H 0.37135 0.17992 0.90401 0.0
C376 C 0.43539 0.0198 0.88477 0.0
C377 C 0.43619 0.02669 0.91887 0.0
C378 C 0.43123 0.04443 0.86665 0.0
C379 C 0.4278 0.07627 0.88236 0.0
C380 C 0.42617 0.08259 0.9161 0.0
C381 C 0.43048 0.05809 0.9342 0.0
C382 C 0.42839 0.10359 0.86426 0.0
C383 C 0.39846 0.1228 0.86542 0.0
C384 C 0.45892 0.11144 0.84686 0.0
C385 C 0.49271 0.09363 0.84667 0.0
C386 C 0.51449 0.09183 0.87611 0.0
C387 C 0.54629 0.07501 0.87576 0.0
C388 C 0.55681 0.06013 0.84611 0.0
C389 C 0.53557 0.06209 0.81673 0.0
C390 C 0.5037 0.07883 0.81694 0.0
C391 C 0.43443 0.24614 0.82486 0.0
C392 C 0.4289 0.2436 0.79082 0.0
C393 C 0.43554 0.21816 0.83843 0.0
C394 C 0.43169 0.18726 0.81821 0.0
C395 C 0.42838 0.18479 0.78425 0.0
C396 C 0.4266 0.21273 0.77063 0.0
C397 C 0.42893 0.15754 0.83261 0.0
C398 C 0.45849 0.13804 0.83084 0.0
C399 C 0.39825 0.14958 0.84968 0.0
C400 C 0.36555 0.1687 0.85117 0.0
C401 C 0.34427 0.17285 0.82235 0.0
C402 C 0.31378 0.1912 0.8239 0.0
C403 C 0.30412 0.20537 0.85415 0.0
C404 C 0.32485 0.20111 0.88291 0.0
C405 C 0.35539 0.1828 0.88149 0.0
H406 H 0.28053 0.2196 0.85531 0.0
H407 H 0.58148 0.04717 0.8459 0.0
H408 H 0.7245 0.2688 0.78536 0.0
H409 H 0.6865 0.30506 0.81656 0.0
H410 H 0.78306 0.37976 0.84134 0.0
H411 H 0.82149 0.34323 0.81079 0.0
H412 H 0.74977 0.37471 0.89343 0.0
H413 H 0.70725 0.38459 0.78434 0.0
H414 H 0.68217 0.36562 0.72624 0.0
H415 H 0.57981 0.3202 0.75299 0.0
H416 H 0.60451 0.33848 0.81128 0.0
H417 H 0.63959 0.49682 0.96074 0.0
H418 H 0.68063 0.46637 0.92672 0.0
H419 H 0.59179 0.385 0.89983 0.0
H420 H 0.55054 0.41543 0.93332 0.0
H421 H 0.62346 0.39717 0.84764 0.0
H422 H 0.66837 0.38564 0.9571 0.0
H423 H 0.69436 0.40479 0.01499 0.0
H424 H 0.79331 0.4544 0.98691 0.0
H425 H 0.76761 0.43598 0.92883 0.0
C426 C 0.73757 0.29301 0.79732 0.0
C427 C 0.77593 0.3032 0.79561 0.0
C428 C 0.71578 0.31379 0.81502 0.0
C429 C 0.73177 0.34533 0.83096 0.0
C430 C 0.77009 0.35557 0.8292 0.0
C431 C 0.79198 0.3347 0.81169 0.0
C432 C 0.70882 0.36716 0.85036 0.0
C433 C 0.72244 0.38009 0.88324 0.0
C434 C 0.67286 0.37373 0.83726 0.0
C435 C 0.6579 0.36267 0.8022 0.0
C436 C 0.67953 0.37033 0.77784 0.0
C437 C 0.66535 0.35974 0.74487 0.0
C438 C 0.62946 0.34165 0.73593 0.0
C439 C 0.60763 0.33418 0.75995 0.0
C440 C 0.62169 0.34467 0.79296 0.0
C441 C 0.62885 0.47244 0.94755 0.0
C442 C 0.59191 0.45845 0.94975 0.0
C443 C 0.65236 0.45503 0.92824 0.0
C444 C 0.63941 0.42327 0.91099 0.0
C445 C 0.60238 0.40946 0.91292 0.0
C446 C 0.57888 0.42684 0.93215 0.0
C447 C 0.66419 0.40431 0.89076 0.0
C448 C 0.65093 0.39196 0.85771 0.0
C449 C 0.70055 0.39842 0.90368 0.0
C450 C 0.71583 0.40975 0.93862 0.0
C451 C 0.69548 0.40091 0.96327 0.0
C452 C 0.7102 0.41159 0.99612 0.0
C453 C 0.7454 0.43089 0.00462 0.0
C454 C 0.766 0.43952 0.98029 0.0
C455 C 0.75137 0.42897 0.9474 0.0
H456 H 0.75677 0.43909 0.03006 0.0
H457 H 0.61853 0.33349 0.71039 0.0
H458 H 0.91445 0.50658 0.05408 0.0
H459 H 0.9009 0.48314 0.10156 0.0
H460 H 0.9059 0.38684 0.04665 0.0
H461 H 0.91846 0.41002 0.99893 0.0
H462 H 0.85267 0.38515 0.08645 0.0
H463 H 0.98437 0.43234 0.09546 0.0
H464 H 0.0357 0.47706 0.09753 0.0
H465 H 0.99665 0.53223 0.18114 0.0
H466 H 0.94476 0.48797 0.17927 0.0
H467 H 0.91579 0.29038 0.19467 0.0
H468 H 0.91718 0.32557 0.15446 0.0
H469 H 0.89602 0.40637 0.22652 0.0
H470 H 0.89454 0.37105 0.26727 0.0
H471 H 0.95002 0.42244 0.18336 0.0
H472 H 0.82375 0.36963 0.17844 0.0
H473 H 0.77522 0.3228 0.17639 0.0
H474 H 0.80576 0.27658 0.08471 0.0
H475 H 0.85499 0.32287 0.08649 0.0
C476 C 0.91182 0.48035 0.05195 0.0
C477 C 0.91797 0.46011 0.02297 0.0
C478 C 0.90427 0.46702 0.07913 0.0
C479 C 0.9033 0.43334 0.07785 0.0
C480 C 0.90674 0.41293 0.04822 0.0
C481 C 0.91396 0.4262 0.02097 0.0
C482 C 0.90187 0.41942 0.1078 0.0
C483 C 0.87396 0.39329 0.10761 0.0
C484 C 0.92916 0.43056 0.13575 0.0
C485 C 0.96046 0.45705 0.13699 0.0
C486 C 0.98659 0.45411 0.11414 0.0
C487 C 0.01579 0.47935 0.11529 0.0
C488 C 0.01936 0.50751 0.13939 0.0
C489 C 0.9938 0.51044 0.16245 0.0
C490 C 0.9645 0.48529 0.16136 0.0
C491 C 0.91215 0.31579 0.20221 0.0
C492 C 0.90468 0.32793 0.234 0.0
C493 C 0.91279 0.3358 0.17916 0.0
C494 C 0.90588 0.36829 0.18742 0.0
C495 C 0.90112 0.38124 0.21973 0.0
C496 C 0.90041 0.36111 0.24294 0.0
C497 C 0.90149 0.38771 0.16152 0.0
C498 C 0.92826 0.41481 0.16248 0.0
C499 C 0.87331 0.37734 0.13418 0.0
C500 C 0.84325 0.34967 0.13271 0.0
C501 C 0.8203 0.34939 0.15794 0.0
C502 C 0.79264 0.32294 0.15682 0.0
C503 C 0.78744 0.29671 0.13046 0.0
C504 C 0.80983 0.29692 0.10512 0.0
C505 C 0.83759 0.32327 0.10616 0.0
H506 H 0.76603 0.27625 0.12964 0.0
H507 H 0.04199 0.52703 0.14025 0.0
H508 H 0.96171 0.59372 0.4994 0.0
H509 H 0.94873 0.63717 0.46989 0.0
H510 H 0.94306 0.57012 0.37828 0.0
H511 H 0.95649 0.52636 0.40782 0.0
H512 H 0.98781 0.62705 0.37929 0.0
H513 H 0.86296 0.59592 0.40339 0.0
H514 H 0.81418 0.58255 0.43796 0.0
H515 H 0.83894 0.67886 0.49652 0.0
H516 H 0.88827 0.69267 0.46256 0.0
H517 H 0.91721 0.74095 0.28666 0.0
H518 H 0.92779 0.6932 0.31069 0.0
H519 H 0.93069 0.75108 0.40702 0.0
H520 H 0.91927 0.79866 0.38311 0.0
H521 H 0.88482 0.69578 0.40004 0.0
H522 H 0.01069 0.72655 0.37569 0.0
H523 H 0.05831 0.73967 0.34002 0.0
H524 H 0.03192 0.64345 0.2816 0.0
H525 H 0.98317 0.63005 0.31622 0.0
C526 C 0.95721 0.58807 0.47297 0.0
C527 C 0.96002 0.55662 0.4559 0.0
C528 C 0.94973 0.61293 0.45613 0.0
C529 C 0.9447 0.60684 0.42189 0.0
C530 C 0.94683 0.57531 0.40472 0.0
C531 C 0.95425 0.55032 0.4216 0.0
C532 C 0.93872 0.63386 0.40428 0.0
C533 C 0.96491 0.64178 0.38334 0.0
C534 C 0.90931 0.65342 0.41015 0.0
C535 C 0.87954 0.64524 0.43057 0.0
C536 C 0.85822 0.61417 0.42378 0.0
C537 C 0.83043 0.60653 0.44325 0.0
C538 C 0.82352 0.62981 0.46946 0.0
C539 C 0.84434 0.66083 0.47622 0.0
C540 C 0.87219 0.6686 0.45684 0.0
C541 C 0.92064 0.74358 0.31298 0.0
C542 C 0.91739 0.77351 0.33303 0.0
C543 C 0.92672 0.71629 0.32668 0.0
C544 C 0.93016 0.71859 0.36068 0.0
C545 C 0.92798 0.74872 0.38073 0.0
C546 C 0.92165 0.77592 0.36705 0.0
C547 C 0.93427 0.68937 0.37542 0.0
C548 C 0.90764 0.681 0.39581 0.0
C549 C 0.96327 0.66943 0.36898 0.0
C550 C 0.99293 0.6774 0.34838 0.0
C551 C 0.01476 0.70826 0.35507 0.0
C552 C 0.04201 0.71575 0.33507 0.0
C553 C 0.0482 0.6924 0.30862 0.0
C554 C 0.02709 0.66152 0.30209 0.0
C555 C 0.99958 0.65399 0.32185 0.0
H556 H 0.06936 0.69824 0.29321 0.0
H557 H 0.802 0.62385 0.4845 0.0
H558 H 0.60555 0.47606 0.57023 0.0
H559 H 0.63494 0.51524 0.61935 0.0
H560 H 0.62715 0.59385 0.56642 0.0
H561 H 0.59834 0.55503 0.51747 0.0
H562 H 0.69412 0.60123 0.60387 0.0
H563 H 0.56236 0.57465 0.61501 0.0
H564 H 0.50516 0.53745 0.61772 0.0
H565 H 0.55957 0.51096 0.70365 0.0
H566 H 0.61764 0.54721 0.70085 0.0
H567 H 0.70321 0.74231 0.72239 0.0
H568 H 0.67509 0.69576 0.68 0.0
H569 H 0.70585 0.62997 0.74344 0.0
H570 H 0.73445 0.67661 0.78612 0.0
H571 H 0.63066 0.61212 0.70422 0.0
H572 H 0.76218 0.6397 0.69277 0.0
H573 H 0.81893 0.67707 0.68919 0.0
H574 H 0.76271 0.70276 0.60352 0.0
H575 H 0.70535 0.66592 0.60692 0.0
C576 C 0.61063 0.50166 0.56902 0.0
C577 C 0.59957 0.51252 0.54006 0.0
C578 C 0.62717 0.52401 0.59711 0.0
C579 C 0.63278 0.55752 0.59664 0.0
C580 C 0.62304 0.56814 0.56737 0.0
C581 C 0.60652 0.54591 0.53941 0.0
C582 C 0.64777 0.58193 0.62661 0.0
C583 C 0.68009 0.60365 0.62572 0.0
C584 C 0.62986 0.58469 0.65539 0.0
C585 C 0.59466 0.56328 0.6574 0.0
C586 C 0.56237 0.56057 0.63424 0.0
C587 C 0.52979 0.53959 0.63574 0.0
C588 C 0.52883 0.52166 0.6607 0.0
C589 C 0.56043 0.52473 0.68423 0.0
C590 C 0.59323 0.54543 0.68264 0.0
C591 C 0.70347 0.71799 0.72759 0.0
C592 C 0.72131 0.7131 0.7575 0.0
C593 C 0.68742 0.69142 0.70332 0.0
C594 C 0.68874 0.65947 0.70852 0.0
C595 C 0.70456 0.65448 0.739 0.0
C596 C 0.72095 0.68111 0.76328 0.0
C597 C 0.6765 0.63157 0.68106 0.0
C598 C 0.64482 0.60931 0.68245 0.0
C599 C 0.69478 0.6283 0.65257 0.0
C600 C 0.72935 0.65026 0.65028 0.0
C601 C 0.7618 0.65352 0.67333 0.0
C602 C 0.7941 0.67457 0.67131 0.0
C603 C 0.7944 0.69233 0.64618 0.0
C604 C 0.76242 0.68901 0.62299 0.0
C605 C 0.73002 0.66803 0.62494 0.0
H606 H 0.81943 0.70862 0.64465 0.0
H607 H 0.5035 0.5056 0.66196 0.0
H608 H 0.37814 0.2696 0.37744 0.0
H609 H 0.39754 0.27399 0.43562 0.0
H610 H 0.33405 0.35553 0.45679 0.0
H611 H 0.31594 0.35219 0.39826 0.0
H612 H 0.39805 0.3687 0.49302 0.0
H613 H 0.30485 0.27327 0.4652 0.0
H614 H 0.27585 0.21831 0.43685 0.0
H615 H 0.37404 0.17775 0.47211 0.0
H616 H 0.40429 0.2326 0.49968 0.0
H617 H 0.36504 0.36409 0.6554 0.0
H618 H 0.36475 0.36365 0.5972 0.0
H619 H 0.44477 0.29328 0.59182 0.0
H620 H 0.44526 0.29368 0.65041 0.0
H621 H 0.3817 0.27371 0.54753 0.0
H622 H 0.47301 0.36889 0.57775 0.0
H623 H 0.50109 0.42382 0.60709 0.0
H624 H 0.40387 0.46424 0.56952 0.0
H625 H 0.37501 0.4095 0.54032 0.0
C626 C 0.36801 0.2883 0.3945 0.0
C627 C 0.34522 0.31041 0.38337 0.0
C628 C 0.37914 0.29075 0.4278 0.0
C629 C 0.36691 0.31477 0.45074 0.0
C630 C 0.34389 0.33676 0.43961 0.0
C631 C 0.3333 0.33471 0.4062 0.0
C632 C 0.37847 0.31735 0.48627 0.0
C633 C 0.394 0.34796 0.50496 0.0
C634 C 0.37473 0.29004 0.50177 0.0
C635 C 0.35702 0.25716 0.48423 0.0
C636 C 0.32051 0.25271 0.46653 0.0
C637 C 0.30384 0.22155 0.45061 0.0
C638 C 0.32311 0.19456 0.45265 0.0
C639 C 0.35916 0.19867 0.47055 0.0
C640 C 0.37616 0.22981 0.48618 0.0
C641 C 0.38303 0.34887 0.64195 0.0
C642 C 0.40496 0.32871 0.65735 0.0
C643 C 0.38309 0.34887 0.60873 0.0
C644 C 0.40498 0.32865 0.59023 0.0
C645 C 0.42785 0.30921 0.60574 0.0
C646 C 0.42808 0.30943 0.63914 0.0
C647 C 0.40026 0.32511 0.55422 0.0
C648 C 0.38608 0.29431 0.53544 0.0
C649 C 0.40497 0.35221 0.5387 0.0
C650 C 0.42177 0.38505 0.55697 0.0
C651 C 0.45746 0.38944 0.57601 0.0
C652 C 0.47356 0.42056 0.59255 0.0
C653 C 0.45427 0.4475 0.5902 0.0
C654 C 0.4188 0.44336 0.57135 0.0
C655 C 0.40257 0.4123 0.55477 0.0
H656 H 0.46683 0.47157 0.60294 0.0
H657 H 0.31013 0.17046 0.44035 0.0
H658 H 0.97517 0.9834 0.84704 0.0
H659 H 0.98009 0.98895 0.79087 0.0
H660 H 0.10157 0.98892 0.80787 0.0
H661 H 0.09633 0.98144 0.86388 0.0
H662 H 0.01148 0.03374 0.76584 0.0
H663 H 0.13496 0.96016 0.7362 0.0
H664 H 0.16541 0.91462 0.75291 0.0
H665 H 0.06023 0.87538 0.78001 0.0
H666 H 0.02894 0.92055 0.76329 0.0
H667 H 0.05622 0.05931 0.61265 0.0
H668 H 0.06669 0.05327 0.66967 0.0
H669 H 0.01702 0.95263 0.6421 0.0
H670 H 0.00719 0.95833 0.58497 0.0
H671 H 0.07525 0.95942 0.68968 0.0
H672 H 0.96363 0.01158 0.66931 0.0
H673 H 0.92709 0.05332 0.65141 0.0
H674 H 0.99761 0.12797 0.7222 0.0
H675 H 0.03491 0.08668 0.74022 0.0
C676 C 0.00291 0.98441 0.83878 0.0
C677 C 0.03533 0.98179 0.85972 0.0
C678 C 0.00573 0.98772 0.80667 0.0
C679 C 0.04115 0.98905 0.79494 0.0
C680 C 0.07381 0.98726 0.81611 0.0
C681 C 0.07086 0.98325 0.84815 0.0
C682 C 0.04341 0.99268 0.76063 0.0
C683 C 0.02561 0.01753 0.74929 0.0
C684 C 0.06159 0.97144 0.73886 0.0
C685 C 0.07976 0.94394 0.74878 0.0
C686 C 0.11829 0.94177 0.74566 0.0
C687 C 0.13568 0.91605 0.75519 0.0
C688 C 0.11475 0.89222 0.76768 0.0
C689 C 0.07636 0.89399 0.77055 0.0
C690 C 0.0588 0.91966 0.76108 0.0
C691 C 0.04811 0.03575 0.61868 0.0
C692 C 0.03054 0.00936 0.59445 0.0
C693 C 0.05402 0.03237 0.65127 0.0
C694 C 0.04205 0.00265 0.66018 0.0
C695 C 0.02642 0.97579 0.63577 0.0
C696 C 0.0207 0.9791 0.60315 0.0
C697 C 0.043 0.00019 0.69503 0.0
C698 C 0.06148 0.97573 0.70643 0.0
C699 C 0.02459 0.02121 0.71674 0.0
C700 C 0.00233 0.0461 0.70583 0.0
C701 C 0.97155 0.03693 0.68085 0.0
C702 C 0.95066 0.0605 0.67073 0.0
C703 C 0.96009 0.09329 0.68559 0.0
C704 C 0.99039 0.10257 0.71066 0.0
C705 C 0.01141 0.0791 0.72084 0.0
H706 H 0.94386 0.1115 0.67774 0.0
H707 H 0.12823 0.87231 0.77506 0.0
H708 H 0.36965 0.7368 0.89143 0.0
H709 H 0.36468 0.74693 0.94975 0.0
H710 H 0.35446 0.84797 0.94827 0.0
H711 H 0.35891 0.83796 0.88935 0.0
H712 H 0.40386 0.82519 0.00882 0.0
H713 H 0.27902 0.81902 0.94624 0.0
H714 H 0.22921 0.79517 0.90042 0.0
H715 H 0.22694 0.70224 0.92965 0.0
H716 H 0.277 0.72555 0.97557 0.0
H717 H 0.32746 0.83895 0.16008 0.0
H718 H 0.33401 0.84692 0.10446 0.0
H719 H 0.31225 0.74285 0.06968 0.0
H720 H 0.30521 0.73475 0.12499 0.0
H721 H 0.27719 0.77611 0.02755 0.0
H722 H 0.40318 0.77902 0.08606 0.0
H723 H 0.45117 0.80056 0.13397 0.0
H724 H 0.45103 0.89705 0.11358 0.0
H725 H 0.40314 0.8758 0.06522 0.0
C726 C 0.36728 0.76139 0.90358 0.0
C727 C 0.36427 0.78654 0.88581 0.0
C728 C 0.36447 0.7671 0.93688 0.0
C729 C 0.35895 0.79808 0.95304 0.0
C730 C 0.35882 0.82392 0.93604 0.0
C731 C 0.36145 0.81817 0.90249 0.0
C732 C 0.34837 0.80179 0.98636 0.0
C733 C 0.37593 0.81521 0.01305 0.0
C734 C 0.3122 0.78805 0.99162 0.0
C735 C 0.28202 0.77396 0.96411 0.0
C736 C 0.26816 0.79343 0.9427 0.0
C737 C 0.23983 0.78002 0.91675 0.0
C738 C 0.22504 0.74716 0.91199 0.0
C739 C 0.23845 0.72768 0.93331 0.0
C740 C 0.26676 0.74099 0.95935 0.0
C741 C 0.32346 0.81783 0.14047 0.0
C742 C 0.31609 0.78619 0.14684 0.0
C743 C 0.32736 0.82241 0.10878 0.0
C744 C 0.32412 0.79542 0.0831 0.0
C745 C 0.31489 0.76398 0.08919 0.0
C746 C 0.31098 0.75938 0.1208 0.0
C747 C 0.3326 0.79942 0.05021 0.0
C748 C 0.30479 0.78697 0.02349 0.0
C749 C 0.36856 0.81383 0.045 0.0
C750 C 0.39929 0.82604 0.07243 0.0
C751 C 0.41342 0.80483 0.09181 0.0
C752 C 0.44053 0.81695 0.11902 0.0
C753 C 0.45376 0.85023 0.12703 0.0
C754 C 0.44027 0.87139 0.1076 0.0
C755 C 0.4134 0.85929 0.08018 0.0
H756 H 0.47478 0.85955 0.14805 0.0
H757 H 0.20314 0.73682 0.89186 0.0
H758 H 0.43501 0.90301 0.31546 0.0
H759 H 0.42849 0.89846 0.25602 0.0
H760 H 0.36909 0.9832 0.26459 0.0
H761 H 0.37332 0.98658 0.32358 0.0
H762 H 0.34429 0.94599 0.20884 0.0
H763 H 0.47106 0.98566 0.26706 0.0
H764 H 0.52963 0.98137 0.30216 0.0
H765 H 0.54735 0.8954 0.23593 0.0
H766 H 0.48853 0.8989 0.20077 0.0
H767 H 0.48165 0.00522 0.09045 0.0
H768 H 0.46412 0.99898 0.14373 0.0
H769 H 0.37404 0.92297 0.09738 0.0
H770 H 0.39086 0.92987 0.04381 0.0
H771 H 0.4708 0.94967 0.16993 0.0
H772 H 0.3104 0.90992 0.14909 0.0
H773 H 0.25301 0.91818 0.11478 0.0
H774 H 0.30507 0.01311 0.10779 0.0
H775 H 0.36261 0.00552 0.1423 0.0
C776 C 0.41949 0.91998 0.30447 0.0
C777 C 0.40499 0.94534 0.32405 0.0
C778 C 0.41601 0.91748 0.27061 0.0
C779 C 0.39945 0.94106 0.25595 0.0
C780 C 0.38226 0.96481 0.27527 0.0
C781 C 0.38473 0.96677 0.30903 0.0
C782 C 0.40387 0.94343 0.22157 0.0
C783 C 0.37195 0.94672 0.20029 0.0
C784 C 0.43993 0.94444 0.21025 0.0
C785 C 0.47531 0.94242 0.23141 0.0
C786 C 0.48738 0.96577 0.26009 0.0
C787 C 0.52059 0.96346 0.28 0.0
C788 C 0.5422 0.93815 0.27124 0.0
C789 C 0.53062 0.91504 0.24262 0.0
C790 C 0.49733 0.91713 0.22273 0.0
C791 C 0.45765 0.98759 0.09156 0.0
C792 C 0.43786 0.96781 0.06298 0.0
C793 C 0.44771 0.98394 0.12207 0.0
C794 C 0.41793 0.9603 0.12475 0.0
C795 C 0.39685 0.94164 0.0961 0.0
C796 C 0.40663 0.94547 0.06545 0.0
C797 C 0.41151 0.95363 0.15753 0.0
C798 C 0.44308 0.94897 0.17837 0.0
C799 C 0.37533 0.95203 0.16853 0.0
C800 C 0.34084 0.95704 0.14805 0.0
C801 C 0.3095 0.9326 0.14033 0.0
C802 C 0.27699 0.93715 0.12081 0.0
C803 C 0.27543 0.96612 0.10905 0.0
C804 C 0.30636 0.99065 0.11683 0.0
C805 C 0.33895 0.98622 0.13633 0.0
H806 H 0.25024 0.96959 0.09394 0.0
H807 H 0.56801 0.93651 0.28656 0.0
H808 H 0.44709 0.31436 0.22917 0.0
H809 H 0.51234 0.30292 0.22458 0.0
H810 H 0.50374 0.24046 0.29532 0.0
H811 H 0.43865 0.25168 0.29995 0.0
H812 H 0.5666 0.28351 0.31074 0.0
H813 H 0.50443 0.20873 0.21497 0.0
H814 H 0.46329 0.19242 0.16227 0.0
H815 H 0.53465 0.25829 0.12051 0.0
H816 H 0.57597 0.27531 0.17312 0.0
H817 H 0.73863 0.21659 0.29925 0.0
H818 H 0.67026 0.21995 0.29458 0.0
H819 H 0.68212 0.28419 0.22582 0.0
H820 H 0.75038 0.2807 0.2301 0.0
H821 H 0.6178 0.24065 0.20845 0.0
H822 H 0.67979 0.31528 0.30386 0.0
H823 H 0.72042 0.33275 0.35669 0.0
H824 H 0.64841 0.26845 0.39965 0.0
H825 H 0.60774 0.25009 0.34686 0.0
C826 C 0.45905 0.29795 0.24347 0.0
C827 C 0.43789 0.28397 0.26496 0.0
C828 C 0.49632 0.29141 0.24082 0.0
C829 C 0.51294 0.27088 0.25967 0.0
C830 C 0.4915 0.25645 0.28064 0.0
C831 C 0.45428 0.26282 0.28317 0.0
C832 C 0.55324 0.26563 0.25896 0.0
C833 C 0.57766 0.2736 0.28846 0.0
C834 C 0.56783 0.25371 0.22972 0.0
C835 C 0.54307 0.24353 0.19807 0.0
C836 C 0.51117 0.21994 0.19462 0.0
C837 C 0.48785 0.21052 0.16475 0.0
C838 C 0.49629 0.22438 0.13808 0.0
C839 C 0.52812 0.24762 0.14121 0.0
C840 C 0.55152 0.25713 0.17103 0.0
C841 C 0.72655 0.23096 0.28271 0.0
C842 C 0.74982 0.24856 0.26521 0.0
C843 C 0.68756 0.233 0.2802 0.0
C844 C 0.67131 0.25274 0.26024 0.0
C845 C 0.69416 0.26891 0.24142 0.0
C846 C 0.73314 0.26693 0.24395 0.0
C847 C 0.63093 0.25794 0.26034 0.0
C848 C 0.60662 0.25028 0.23075 0.0
C849 C 0.61636 0.27018 0.28954 0.0
C850 C 0.64101 0.28096 0.32125 0.0
C851 C 0.67286 0.30457 0.32445 0.0
C852 C 0.69586 0.31468 0.35441 0.0
C853 C 0.68711 0.30161 0.38147 0.0
C854 C 0.65526 0.27846 0.37864 0.0
C855 C 0.63223 0.26818 0.34869 0.0
H856 H 0.70493 0.30951 0.40466 0.0
H857 H 0.47821 0.21704 0.11497 0.0
H858 H 0.94655 0.38016 0.44617 0.0
H859 H 0.94098 0.32051 0.43842 0.0
H860 H 0.04456 0.32772 0.50368 0.0
H861 H 0.05052 0.38698 0.51138 0.0
H862 H 0.99524 0.2695 0.42178 0.0
H863 H 0.01696 0.2803 0.56208 0.0
H864 H 0.01326 0.32165 0.61095 0.0
H865 H 0.92896 0.36372 0.55687 0.0
H866 H 0.93113 0.32193 0.50809 0.0
H867 H 0.03872 0.13968 0.52097 0.0
H868 H 0.03338 0.19613 0.51571 0.0
H869 H 0.93562 0.16356 0.44319 0.0
H870 H 0.94117 0.10689 0.44775 0.0
H871 H 0.97197 0.23315 0.52506 0.0
H872 H 0.93871 0.195 0.39382 0.0
H873 H 0.95169 0.15015 0.35152 0.0
H874 H 0.06888 0.16353 0.39295 0.0
H875 H 0.05619 0.20797 0.43601 0.0
C876 C 0.96847 0.36895 0.45834 0.0
C877 C 0.99864 0.38821 0.47978 0.0
C878 C 0.9654 0.33488 0.45369 0.0
C879 C 0.9922 0.3198 0.4707 0.0
C880 C 0.02353 0.33897 0.49045 0.0
C881 C 0.02673 0.37284 0.49496 0.0
C882 C 0.98529 0.28469 0.4717 0.0
C883 C 0.98935 0.26154 0.44413 0.0
C884 C 0.97836 0.27438 0.50116 0.0
C885 C 0.9745 0.29809 0.53119 0.0
C886 C 0.99724 0.29807 0.56069 0.0
C887 C 0.99547 0.32165 0.5884 0.0
C888 C 0.97117 0.34548 0.58693 0.0
C889 C 0.94805 0.34542 0.55792 0.0
C890 C 0.94937 0.32166 0.53029 0.0
C891 C 0.01623 0.14451 0.50372 0.0
C892 C 0.99059 0.11886 0.48453 0.0
C893 C 0.01306 0.17677 0.50093 0.0
C894 C 0.98421 0.18396 0.47894 0.0
C895 C 0.95836 0.15844 0.45996 0.0
C896 C 0.96162 0.12612 0.46257 0.0
C897 C 0.98215 0.21818 0.47532 0.0
C898 C 0.9768 0.24117 0.5025 0.0
C899 C 0.98811 0.22841 0.44579 0.0
C900 C 0.99666 0.20502 0.41767 0.0
C901 C 0.96739 0.18888 0.39338 0.0
C902 C 0.97461 0.16327 0.36953 0.0
C903 C 0.01116 0.15407 0.36946 0.0
C904 C 0.04063 0.1707 0.39302 0.0
C905 C 0.03342 0.19602 0.41718 0.0
H906 H 0.01662 0.13386 0.35138 0.0
H907 H 0.97006 0.36387 0.60833 0.0
H908 H 0.92009 0.80339 0.8718 0.0
H909 H 0.98785 0.79813 0.87262 0.0
H910 H 0.96634 0.74094 0.77504 0.0
H911 H 0.89853 0.74634 0.77377 0.0
H912 H 0.01939 0.71725 0.81995 0.0
H913 H 0.99215 0.81816 0.78488 0.0
H914 H 0.96747 0.87129 0.79331 0.0
H915 H 0.04732 0.90451 0.87984 0.0
H916 H 0.07168 0.85124 0.87254 0.0
H917 H 0.19419 0.72667 0.75743 0.0
H918 H 0.12801 0.72872 0.76702 0.0
H919 H 0.16397 0.80415 0.85236 0.0
H920 H 0.22997 0.80326 0.84184 0.0
H921 H 0.10448 0.81886 0.82125 0.0
H922 H 0.13797 0.72366 0.85565 0.0
H923 H 0.16427 0.6714 0.85122 0.0
H924 H 0.07418 0.62695 0.7753 0.0
H925 H 0.04854 0.67948 0.77788 0.0
C926 C 0.92973 0.78943 0.85062 0.0
C927 C 0.90414 0.77551 0.82255 0.0
C928 C 0.96836 0.78639 0.85122 0.0
C929 C 0.98194 0.76924 0.82391 0.0
C930 C 0.95627 0.75419 0.79638 0.0
C931 C 0.91766 0.75748 0.79561 0.0
C932 C 0.02318 0.76911 0.8229 0.0
C933 C 0.0381 0.73931 0.81995 0.0
C934 C 0.04759 0.79825 0.8244 0.0
C935 C 0.03346 0.83055 0.82834 0.0
C936 C 0.00416 0.83665 0.80592 0.0
C937 C 0.99019 0.8668 0.81052 0.0
C938 C 0.00563 0.89118 0.83722 0.0
C939 C 0.03523 0.88556 0.85927 0.0
C940 C 0.04912 0.85538 0.85493 0.0
C941 C 0.1879 0.74371 0.77817 0.0
C942 C 0.21714 0.7647 0.79898 0.0
C943 C 0.15012 0.74477 0.78376 0.0
C944 C 0.141 0.7662 0.81077 0.0
C945 C 0.17025 0.78739 0.83139 0.0
C946 C 0.20794 0.78678 0.82543 0.0
C947 C 0.10093 0.76668 0.81727 0.0
C948 C 0.08614 0.79664 0.82148 0.0
C949 C 0.07687 0.73773 0.81776 0.0
C950 C 0.09161 0.70576 0.81666 0.0
C951 C 0.12405 0.70291 0.83764 0.0
C952 C 0.13898 0.67326 0.83533 0.0
C953 C 0.12097 0.64589 0.81292 0.0
C954 C 0.08815 0.6482 0.79259 0.0
C955 C 0.07355 0.678 0.79432 0.0
H956 H 0.13234 0.62285 0.81143 0.0
H957 H 0.99464 0.9144 0.84078 0.0
H958 H 0.46554 0.59147 0.9589 0.0
H959 H 0.46153 0.64671 0.94961 0.0
H960 H 0.57262 0.67818 0.00442 0.0
H961 H 0.57598 0.62299 0.01488 0.0
H962 H 0.52941 0.72021 0.02253 0.0
H963 H 0.55369 0.66799 0.91795 0.0
H964 H 0.54559 0.62768 0.86648 0.0
H965 H 0.43427 0.6534 0.84187 0.0
H966 H 0.44143 0.69341 0.89334 0.0
H967 H 0.5538 0.87495 0.98114 0.0
H968 H 0.561 0.81786 0.98102 0.0
H969 H 0.44373 0.79009 0.93996 0.0
H970 H 0.43663 0.84758 0.93921 0.0
H971 H 0.48995 0.74653 0.91433 0.0
H972 H 0.47326 0.80411 0.02103 0.0
H973 H 0.49157 0.84915 0.06801 0.0
H974 H 0.59825 0.81379 0.08859 0.0
H975 H 0.5821 0.76998 0.03996 0.0
C976 C 0.48926 0.61009 0.96874 0.0
C977 C 0.52113 0.60291 0.98756 0.0
C978 C 0.48702 0.6417 0.96325 0.0
C979 C 0.51699 0.66668 0.97588 0.0
C980 C 0.54909 0.65939 0.9944 0.0
C981 C 0.55106 0.62784 0.00031 0.0
C982 C 0.51407 0.70069 0.97119 0.0
C983 C 0.52138 0.72594 0.99875 0.0
C984 C 0.50285 0.70828 0.94028 0.0
C985 C 0.49797 0.6835 0.90968 0.0
C986 C 0.5273 0.66476 0.90173 0.0
C987 C 0.52292 0.642 0.8725 0.0
C988 C 0.48947 0.63795 0.85088 0.0
C989 C 0.46021 0.65651 0.85855 0.0
C990 C 0.4644 0.67923 0.88777 0.0
C991 C 0.52957 0.85669 0.97175 0.0
C992 C 0.49436 0.86569 0.96066 0.0
C993 C 0.53375 0.82406 0.97174 0.0
C994 C 0.5026 0.79981 0.96129 0.0
C995 C 0.46795 0.8085 0.94849 0.0
C996 C 0.46386 0.84124 0.94813 0.0
C997 C 0.50572 0.76581 0.96555 0.0
C998 C 0.4981 0.74063 0.93802 0.0
C999 C 0.51763 0.75836 0.99639 0.0
C1000 C 0.52656 0.78387 0.02654 0.0
C1001 C 0.50078 0.80602 0.03535 0.0
C1002 C 0.51079 0.83139 0.06232 0.0
C1003 C 0.54576 0.83411 0.08162 0.0
C1004 C 0.5711 0.81163 0.07369 0.0
C1005 C 0.56169 0.78669 0.04621 0.0
H1006 H 0.55327 0.85371 0.10262 0.0
H1007 H 0.48641 0.62056 0.82814 0.0
H1008 H 0.75632 0.79868 0.31178 0.0
H1009 H 0.68721 0.79538 0.30576 0.0
H1010 H 0.69482 0.89822 0.30457 0.0
H1011 H 0.7644 0.90169 0.31009 0.0
H1012 H 0.6331 0.86917 0.33988 0.0
H1013 H 0.68555 0.85639 0.23776 0.0
H1014 H 0.72941 0.83246 0.20148 0.0
H1015 H 0.67007 0.73701 0.19609 0.0
H1016 H 0.62699 0.76017 0.23372 0.0
H1017 H 0.43967 0.85087 0.27433 0.0
H1018 H 0.50805 0.86804 0.28246 0.0
H1019 H 0.52768 0.76773 0.25452 0.0
H1020 H 0.45914 0.75107 0.24387 0.0
H1021 H 0.57712 0.80275 0.23203 0.0
H1022 H 0.53494 0.81092 0.33958 0.0
H1023 H 0.49072 0.83042 0.37793 0.0
H1024 H 0.52897 0.9295 0.3725 0.0
H1025 H 0.57378 0.91053 0.33483 0.0
C1026 C 0.74339 0.82077 0.31095 0.0
C1027 C 0.7657 0.85038 0.31107 0.0
C1028 C 0.70392 0.81884 0.3076 0.0
C1029 C 0.68608 0.84646 0.30435 0.0
C1030 C 0.70822 0.87667 0.30706 0.0
C1031 C 0.74788 0.87858 0.31016 0.0
C1032 C 0.64471 0.84254 0.294 0.0
C1033 C 0.62079 0.85512 0.31614 0.0
C1034 C 0.62885 0.82377 0.26316 0.0
C1035 C 0.65326 0.81002 0.23891 0.0
C1036 C 0.68204 0.83026 0.22912 0.0
C1037 C 0.70687 0.81682 0.2084 0.0
C1038 C 0.7026 0.78323 0.19656 0.0
C1039 C 0.67342 0.76302 0.20537 0.0
C1040 C 0.64887 0.77629 0.22651 0.0
C1041 C 0.45867 0.83268 0.2695 0.0
C1042 C 0.4442 0.79976 0.25852 0.0
C1043 C 0.4978 0.84241 0.27438 0.0
C1044 C 0.52332 0.81915 0.26977 0.0
C1045 C 0.50874 0.78622 0.25826 0.0
C1046 C 0.46956 0.77666 0.25241 0.0
C1047 C 0.56507 0.82864 0.27824 0.0
C1048 C 0.58924 0.81713 0.25566 0.0
C1049 C 0.5812 0.84789 0.30886 0.0
C1050 C 0.55736 0.85935 0.33424 0.0
C1051 C 0.53412 0.83687 0.34694 0.0
C1052 C 0.50895 0.84781 0.36854 0.0
C1053 C 0.50686 0.88115 0.37761 0.0
C1054 C 0.53052 0.90367 0.36561 0.0
C1055 C 0.55601 0.89286 0.34429 0.0
H1056 H 0.48689 0.88943 0.39394 0.0
H1057 H 0.72175 0.7729 0.18039 0.0
H1058 H 0.40619 0.08567 0.44024 0.0
H1059 H 0.41947 0.14465 0.44308 0.0
H1060 H 0.52509 0.1312 0.40429 0.0
H1061 H 0.51203 0.07248 0.40126 0.0
H1062 H 0.53488 0.17767 0.45894 0.0
H1063 H 0.45248 0.14903 0.35929 0.0
H1064 H 0.39497 0.12619 0.32093 0.0
H1065 H 0.3304 0.19267 0.37489 0.0
H1066 H 0.38734 0.21548 0.41387 0.0
H1067 H 0.57522 0.34313 0.43666 0.0
H1068 H 0.56337 0.28338 0.42762 0.0
H1069 H 0.45838 0.28978 0.46933 0.0
H1070 H 0.46945 0.34912 0.47758 0.0
H1071 H 0.45015 0.24687 0.40939 0.0
H1072 H 0.5323 0.26984 0.51256 0.0
H1073 H 0.59112 0.29395 0.5489 0.0
H1074 H 0.65695 0.23932 0.4841 0.0
H1075 H 0.59852 0.21515 0.44718 0.0
C1076 C 0.43204 0.0953 0.43205 0.0
C1077 C 0.45813 0.07451 0.42064 0.0
C1078 C 0.43952 0.12894 0.43357 0.0
C1079 C 0.47323 0.14224 0.42383 0.0
C1080 C 0.49894 0.12142 0.41195 0.0
C1081 C 0.49138 0.08787 0.41018 0.0
C1082 C 0.48286 0.17799 0.42781 0.0
C1083 C 0.51651 0.19272 0.44775 0.0
C1084 C 0.45866 0.19763 0.41346 0.0
C1085 C 0.42413 0.18347 0.39014 0.0
C1086 C 0.42591 0.1584 0.3634 0.0
C1087 C 0.3934 0.14554 0.34138 0.0
C1088 C 0.35897 0.15779 0.34559 0.0
C1089 C 0.35701 0.18302 0.37174 0.0
C1090 C 0.38941 0.1959 0.39384 0.0
C1091 C 0.54981 0.33172 0.44411 0.0
C1092 C 0.52319 0.35068 0.45768 0.0
C1093 C 0.54304 0.29768 0.4389 0.0
C1094 C 0.50979 0.28227 0.44754 0.0
C1095 C 0.4838 0.30124 0.46194 0.0
C1096 C 0.49036 0.33511 0.46688 0.0
C1097 C 0.50146 0.24633 0.44108 0.0
C1098 C 0.46823 0.23163 0.42058 0.0
C1099 C 0.52604 0.22665 0.45468 0.0
C1100 C 0.56111 0.24091 0.477 0.0
C1101 C 0.55935 0.26313 0.50597 0.0
C1102 C 0.59261 0.27677 0.52669 0.0
C1103 C 0.62776 0.26822 0.51878 0.0
C1104 C 0.62971 0.24593 0.49018 0.0
C1105 C 0.59654 0.23222 0.46938 0.0
H1106 H 0.65347 0.27882 0.53485 0.0
H1107 H 0.33386 0.14785 0.32847 0.0
H1108 H 0.28813 0.30429 0.81654 0.0
H1109 H 0.22039 0.29792 0.82287 0.0
H1110 H 0.19184 0.29538 0.71994 0.0
H1111 H 0.25933 0.30152 0.71338 0.0
H1112 H 0.15398 0.33897 0.76082 0.0
H1113 H 0.18253 0.22697 0.74719 0.0
H1114 H 0.2185 0.18375 0.76243 0.0
H1115 H 0.18341 0.20117 0.85806 0.0
H1116 H 0.14767 0.24487 0.84353 0.0
H1117 H 0.96226 0.28049 0.7192 0.0
H1118 H 0.03115 0.29112 0.72565 0.0
H1119 H 0.03646 0.26894 0.82243 0.0
H1120 H 0.96696 0.25636 0.81519 0.0
H1121 H 0.08825 0.24237 0.79379 0.0
H1122 H 0.05486 0.35043 0.80747 0.0
H1123 H 0.02084 0.39569 0.79474 0.0
H1124 H 0.06649 0.38909 0.70354 0.0
H1125 H 0.10046 0.34359 0.71553 0.0
C1126 C 0.26737 0.30218 0.79525 0.0
C1127 C 0.27892 0.30339 0.76445 0.0
C1128 C 0.22877 0.29853 0.79892 0.0
C1129 C 0.20124 0.29621 0.77187 0.0
C1130 C 0.21274 0.29724 0.7411 0.0
C1131 C 0.25124 0.30057 0.73737 0.0
C1132 C 0.16032 0.29312 0.77543 0.0
C1133 C 0.13943 0.3178 0.76782 0.0
C1134 C 0.14191 0.26612 0.78592 0.0
C1135 C 0.16274 0.2394 0.79438 0.0
C1136 C 0.18268 0.22173 0.77154 0.0
C1137 C 0.20299 0.19712 0.78003 0.0
C1138 C 0.20328 0.18975 0.8112 0.0
C1139 C 0.18317 0.20692 0.83392 0.0
C1140 C 0.16286 0.23159 0.82557 0.0
C1141 C 0.97804 0.27816 0.74201 0.0
C1142 C 0.9593 0.26783 0.76681 0.0
C1143 C 0.01751 0.28449 0.74578 0.0
C1144 C 0.03914 0.28168 0.77488 0.0
C1145 C 0.02042 0.2715 0.79984 0.0
C1146 C 0.98078 0.26443 0.79576 0.0
C1147 C 0.08129 0.2879 0.77822 0.0
C1148 C 0.10261 0.26387 0.78725 0.0
C1149 C 0.10026 0.31584 0.76951 0.0
C1150 C 0.08008 0.34345 0.76235 0.0
C1151 C 0.05751 0.35852 0.78463 0.0
C1152 C 0.03825 0.38426 0.77755 0.0
C1153 C 0.04147 0.39522 0.74832 0.0
C1154 C 0.06405 0.38058 0.72617 0.0
C1155 C 0.08337 0.35487 0.73313 0.0
H1156 H 0.02649 0.41505 0.74277 0.0
H1157 H 0.21906 0.17072 0.81774 0.0
H1158 H 0.97718 0.85117 0.92707 0.0
H1159 H 0.97723 0.79509 0.93518 0.0
H1160 H 0.09273 0.81807 0.98225 0.0
H1161 H 0.09227 0.87505 0.97581 0.0
H1162 H 0.071 0.75496 0.9313 0.0
H1163 H 0.03929 0.81715 0.0287 0.0
H1164 H 0.0059 0.8544 0.06445 0.0
H1165 H 0.90236 0.78904 0.0356 0.0
H1166 H 0.93433 0.75251 0.99775 0.0
H1167 H 0.05736 0.60177 0.98211 0.0
H1168 H 0.07218 0.6605 0.98508 0.0
H1169 H 0.95305 0.66774 0.96149 0.0
H1170 H 0.938 0.60933 0.95965 0.0
H1171 H 0.98597 0.71793 0.00725 0.0
H1172 H 0.0158 0.66286 0.90165 0.0
H1173 H 0.0491 0.62147 0.87049 0.0
H1174 H 0.15643 0.6711 0.91997 0.0
H1175 H 0.12375 0.71274 0.95147 0.0
C1176 C 0.00266 0.84435 0.9391 0.0
C1177 C 0.03451 0.86757 0.95139 0.0
C1178 C 0.00262 0.81232 0.94366 0.0
C1179 C 0.0348 0.80274 0.95963 0.0
C1180 C 0.06759 0.82525 0.97003 0.0
C1181 C 0.06726 0.85766 0.96636 0.0
C1182 C 0.03319 0.76946 0.96647 0.0
C1183 C 0.05287 0.74694 0.94826 0.0
C1184 C 0.00923 0.75916 0.98846 0.0
C1185 C 0.98923 0.78224 0.00977 0.0
C1186 C 0.00914 0.81112 0.0291 0.0
C1187 C 0.99042 0.83215 0.04982 0.0
C1188 C 0.95196 0.82421 0.05212 0.0
C1189 C 0.93209 0.79531 0.03358 0.0
C1190 C 0.95042 0.77459 0.01223 0.0
C1191 C 0.03433 0.616 0.97792 0.0
C1192 C 0.99655 0.60105 0.97044 0.0
C1193 C 0.04285 0.64948 0.97946 0.0
C1194 C 0.01379 0.66836 0.97288 0.0
C1195 C 0.97593 0.65361 0.96656 0.0
C1196 C 0.96736 0.62024 0.96546 0.0
C1197 C 0.02255 0.70323 0.97127 0.0
C1198 C 0.00425 0.72608 0.99046 0.0
C1199 C 0.04757 0.71383 0.95018 0.0
C1200 C 0.06734 0.69063 0.92915 0.0
C1201 C 0.04652 0.66498 0.90577 0.0
C1202 C 0.06525 0.64143 0.88816 0.0
C1203 C 0.10479 0.64339 0.89365 0.0
C1204 C 0.12577 0.66942 0.91605 0.0
C1205 C 0.10718 0.69309 0.93366 0.0
H1206 H 0.11922 0.6249 0.88031 0.0
H1207 H 0.93759 0.84038 0.06838 0.0
H1208 H 0.26419 0.40289 0.26659 0.0
H1209 H 0.26179 0.46014 0.26269 0.0
H1210 H 0.38417 0.47795 0.28009 0.0
H1211 H 0.38671 0.42098 0.28444 0.0
H1212 H 0.35366 0.52469 0.3161 0.0
H1213 H 0.33588 0.47152 0.20341 0.0
H1214 H 0.30545 0.43146 0.1549 0.0
H1215 H 0.19959 0.47026 0.16377 0.0
H1216 H 0.22928 0.51029 0.21259 0.0
H1217 H 0.37939 0.68069 0.27634 0.0
H1218 H 0.37988 0.62323 0.27897 0.0
H1219 H 0.25864 0.60578 0.24978 0.0
H1220 H 0.25872 0.66305 0.24481 0.0
H1221 H 0.28769 0.55832 0.21986 0.0
H1222 H 0.30424 0.61133 0.3327 0.0
H1223 H 0.33427 0.65184 0.381 0.0
H1224 H 0.44042 0.61331 0.37318 0.0
H1225 H 0.41125 0.57307 0.32433 0.0
C1226 C 0.29056 0.41901 0.26952 0.0
C1227 C 0.32563 0.40743 0.27577 0.0
C1228 C 0.28917 0.45168 0.26713 0.0
C1229 C 0.32283 0.47328 0.27074 0.0
C1230 C 0.35784 0.46175 0.27716 0.0
C1231 C 0.35924 0.42915 0.27958 0.0
C1232 C 0.32167 0.5081 0.26858 0.0
C1233 C 0.33944 0.53211 0.29501 0.0
C1234 C 0.30256 0.51771 0.24124 0.0
C1235 C 0.28471 0.49367 0.21186 0.0
C1236 C 0.30604 0.47133 0.19518 0.0
C1237 C 0.28894 0.44867 0.16759 0.0
C1238 C 0.25058 0.44825 0.15633 0.0
C1239 C 0.22928 0.47057 0.17255 0.0
C1240 C 0.24623 0.49327 0.20016 0.0
C1241 C 0.3528 0.66463 0.2708 0.0
C1242 C 0.31893 0.67631 0.26075 0.0
C1243 C 0.35303 0.63176 0.27244 0.0
C1244 C 0.31913 0.61011 0.26537 0.0
C1245 C 0.28517 0.6219 0.25548 0.0
C1246 C 0.28515 0.65464 0.25285 0.0
C1247 C 0.31927 0.57513 0.2677 0.0
C1248 C 0.30148 0.55104 0.24123 0.0
C1249 C 0.33809 0.56541 0.29516 0.0
C1250 C 0.35561 0.58935 0.32473 0.0
C1251 C 0.33405 0.61166 0.34114 0.0
C1252 C 0.35095 0.63463 0.36856 0.0
C1253 C 0.38925 0.6352 0.3801 0.0
C1254 C 0.41077 0.61286 0.36418 0.0
C1255 C 0.3941 0.59002 0.33659 0.0
H1256 H 0.40222 0.65289 0.40143 0.0
H1257 H 0.23734 0.43066 0.13501 0.0
H1258 H 0.81629 0.12287 0.71035 0.0
H1259 H 0.80374 0.06685 0.71818 0.0
H1260 H 0.7998 0.10149 0.82082 0.0
H1261 H 0.81396 0.15784 0.81325 0.0
H1262 H 0.83812 0.05213 0.81405 0.0
H1263 H 0.71717 0.07045 0.76563 0.0
H1264 H 0.6716 0.08743 0.7255 0.0
H1265 H 0.70107 0.01521 0.64935 0.0
H1266 H 0.74706 0.99809 0.6889 0.0
H1267 H 0.73973 0.8931 0.82541 0.0
H1268 H 0.74243 0.94991 0.81828 0.0
H1269 H 0.81901 0.93151 0.74624 0.0
H1270 H 0.8175 0.87488 0.75395 0.0
H1271 H 0.73884 0.9726 0.74117 0.0
H1272 H 0.87093 0.96546 0.7919 0.0
H1273 H 0.91221 0.94705 0.83416 0.0
H1274 H 0.85499 0.99813 0.90861 0.0
H1275 H 0.81285 0.0162 0.86675 0.0
C1276 C 0.81258 0.11858 0.73457 0.0
C1277 C 0.81592 0.14469 0.76118 0.0
C1278 C 0.80516 0.08652 0.739 0.0
C1279 C 0.80004 0.0799 0.76998 0.0
C1280 C 0.80348 0.10599 0.79666 0.0
C1281 C 0.81148 0.13814 0.79232 0.0
C1282 C 0.79239 0.04567 0.77449 0.0
C1283 C 0.81607 0.03498 0.79829 0.0
C1284 C 0.76363 0.02302 0.75405 0.0
C1285 C 0.73577 0.03315 0.7302 0.0
C1286 C 0.71408 0.05834 0.74028 0.0
C1287 C 0.68813 0.06797 0.71763 0.0
C1288 C 0.68346 0.05247 0.68487 0.0
C1289 C 0.70466 0.02723 0.6747 0.0
C1290 C 0.73064 0.01752 0.69724 0.0
C1291 C 0.75671 0.90103 0.8077 0.0
C1292 C 0.77846 0.87967 0.79022 0.0
C1293 C 0.75825 0.93342 0.80375 0.0
C1294 C 0.78102 0.94467 0.78188 0.0
C1295 C 0.80138 0.92308 0.76329 0.0
C1296 C 0.80047 0.89085 0.76769 0.0
C1297 C 0.78523 0.97944 0.77979 0.0
C1298 C 0.7607 0.99008 0.75678 0.0
C1299 C 0.81282 0.00211 0.80106 0.0
C1300 C 0.83859 0.99188 0.82625 0.0
C1301 C 0.86701 0.97253 0.8173 0.0
C1302 C 0.89059 0.9622 0.84119 0.0
C1303 C 0.88627 0.97144 0.87413 0.0
C1304 C 0.85833 0.99099 0.88318 0.0
C1305 C 0.83456 0.00125 0.85939 0.0
H1306 H 0.90459 0.96349 0.89261 0.0
H1307 H 0.66338 0.06 0.66739 0.0
H1308 H 0.39497 0.50337 0.04272 0.0
H1309 H 0.3256 0.49415 0.03235 0.0
H1310 H 0.33137 0.45596 0.9308 0.0
H1311 H 0.40091 0.46468 0.94107 0.0
H1312 H 0.28172 0.50405 0.94167 0.0
H1313 H 0.30555 0.40409 0.9755 0.0
H1314 H 0.33437 0.37063 0.0117 0.0
H1315 H 0.27866 0.41612 0.09028 0.0
H1316 H 0.24984 0.45019 0.05469 0.0
H1317 H 0.08283 0.46183 0.90711 0.0
H1318 H 0.15062 0.4561 0.91127 0.0
H1319 H 0.15915 0.48144 0.01627 0.0
H1320 H 0.09127 0.48623 0.01229 0.0
H1321 H 0.20183 0.4352 0.99941 0.0
H1322 H 0.18325 0.53833 0.96964 0.0
H1323 H 0.15533 0.57452 0.93601 0.0
H1324 H 0.20229 0.52676 0.85295 0.0
H1325 H 0.23009 0.48998 0.88601 0.0
C1326 C 0.38148 0.49272 0.01825 0.0
C1327 C 0.40331 0.48479 0.99269 0.0
C1328 C 0.34189 0.48742 0.01238 0.0
C1329 C 0.32346 0.47426 0.98085 0.0
C1330 C 0.34514 0.4661 0.9553 0.0
C1331 C 0.38479 0.471 0.96124 0.0
C1332 C 0.28151 0.47016 0.97454 0.0
C1333 C 0.26415 0.48851 0.95374 0.0
C1334 C 0.25884 0.45055 0.99105 0.0
C1335 C 0.27575 0.42987 0.01247 0.0
C1336 C 0.29963 0.40713 0.00056 0.0
C1337 C 0.31593 0.38802 0.02097 0.0
C1338 C 0.30839 0.3913 0.05329 0.0
C1339 C 0.28446 0.41363 0.06525 0.0
C1340 C 0.26808 0.43281 0.04496 0.0
C1341 C 0.0991 0.46573 0.93108 0.0
C1342 C 0.0819 0.47472 0.95938 0.0
C1343 C 0.13783 0.46261 0.93342 0.0
C1344 C 0.16009 0.46894 0.96406 0.0
C1345 C 0.14256 0.47651 0.99237 0.0
C1346 C 0.10379 0.47933 0.99006 0.0
C1347 C 0.2019 0.46934 0.96672 0.0
C1348 C 0.2193 0.45041 0.98693 0.0
C1349 C 0.22467 0.48881 0.95003 0.0
C1350 C 0.20838 0.51115 0.9302 0.0
C1351 C 0.18741 0.5354 0.94415 0.0
C1352 C 0.17163 0.55604 0.9252 0.0
C1353 C 0.17692 0.55287 0.89234 0.0
C1354 C 0.19815 0.52914 0.8784 0.0
C1355 C 0.21395 0.5084 0.89723 0.0
H1356 H 0.16465 0.56885 0.87771 0.0
H1357 H 0.32105 0.37651 0.06907 0.0
H1358 H 0.97182 0.19795 0.29923 0.0
H1359 H 0.99587 0.14599 0.29976 0.0
H1360 H 0.89501 0.0963 0.23747 0.0
H1361 H 0.87046 0.14833 0.23754 0.0
H1362 H 0.89883 0.07163 0.28563 0.0
H1363 H 0.99495 0.09729 0.21966 0.0
H1364 H 0.04785 0.13071 0.20321 0.0
H1365 H 0.11641 0.12969 0.29336 0.0
H1366 H 0.06377 0.09667 0.3106 0.0
H1367 H 0.97845 0.91727 0.26414 0.0
H1368 H 0.9942 0.97373 0.25865 0.0
H1369 H 0.96167 0.00671 0.35386 0.0
H1370 H 0.94475 0.95023 0.35913 0.0
H1371 H 0.02812 0.03815 0.28721 0.0
H1372 H 0.88653 0.04875 0.34063 0.0
H1373 H 0.83174 0.01316 0.35131 0.0
H1374 H 0.85146 0.93744 0.27387 0.0
H1375 H 0.90539 0.97311 0.26186 0.0
C1376 C 0.95512 0.17598 0.28509 0.0
C1377 C 0.91882 0.17705 0.26903 0.0
C1378 C 0.96902 0.14614 0.28532 0.0
C1379 C 0.94692 0.11685 0.26946 0.0
C1380 C 0.91231 0.11839 0.25065 0.0
C1381 C 0.89824 0.14816 0.25066 0.0
C1382 C 0.95635 0.08491 0.27667 0.0
C1383 C 0.92716 0.06447 0.28556 0.0
C1384 C 0.99334 0.07522 0.27705 0.0
C1385 C 0.02522 0.09476 0.26655 0.0
C1386 C 0.0212 0.10438 0.23609 0.0
C1387 C 0.05116 0.12324 0.22662 0.0
C1388 C 0.08535 0.1325 0.24733 0.0
C1389 C 0.08983 0.12263 0.27741 0.0
C1390 C 0.05996 0.10379 0.28702 0.0
C1391 C 0.9763 0.93648 0.28458 0.0
C1392 C 0.95892 0.9295 0.31151 0.0
C1393 C 0.98553 0.96882 0.28144 0.0
C1394 C 0.97778 0.99429 0.30534 0.0
C1395 C 0.96711 0.98728 0.33485 0.0
C1396 C 0.95734 0.95497 0.33781 0.0
C1397 C 0.97063 0.0257 0.29602 0.0
C1398 C 0.0 0.04576 0.28697 0.0
C1399 C 0.93352 0.03481 0.29437 0.0
C1400 C 0.90043 0.01342 0.30077 0.0
C1401 C 0.87907 0.02456 0.32581 0.0
C1402 C 0.84812 0.00437 0.33206 0.0
C1403 C 0.83834 0.9729 0.31351 0.0
C1404 C 0.85918 0.96173 0.28835 0.0
C1405 C 0.88987 0.98198 0.28174 0.0
H1406 H 0.81449 0.95726 0.3185 0.0
H1407 H 0.10842 0.14726 0.24004 0.0
H1408 H 0.92099 0.03185 0.97787 0.0
H1409 H 0.85423 0.0389 0.98156 0.0
H1410 H 0.82502 0.93449 0.96495 0.0
H1411 H 0.89162 0.92731 0.96117 0.0
H1412 H 0.79455 0.01521 0.93212 0.0
H1413 H 0.74701 0.92044 0.00835 0.0
H1414 H 0.77248 0.89425 0.05262 0.0
H1415 H 0.85891 0.97593 0.08613 0.0
H1416 H 0.83325 0.00315 0.04272 0.0
H1417 H 0.59308 0.96916 0.91819 0.0
H1418 H 0.66185 0.97354 0.91811 0.0
H1419 H 0.67803 0.02597 0.01778 0.0
H1420 H 0.60923 0.02097 0.01827 0.0
H1421 H 0.7165 0.975 0.01103 0.0
H1422 H 0.69709 0.06164 0.95138 0.0
H1423 H 0.67 0.08608 0.90633 0.0
H1424 H 0.71753 0.01843 0.83737 0.0
H1425 H 0.74396 0.99297 0.88183 0.0
C1426 C 0.90037 0.01045 0.97536 0.0
C1427 C 0.91142 0.97905 0.9695 0.0
C1428 C 0.86234 0.01451 0.97747 0.0
C1429 C 0.83487 0.98723 0.97369 0.0
C1430 C 0.84593 0.95584 0.96834 0.0
C1431 C 0.88395 0.95179 0.96628 0.0
C1432 C 0.79437 0.9916 0.97359 0.0
C1433 C 0.77739 0.00653 0.9494 0.0
C1434 C 0.7722 0.97997 0.99603 0.0
C1435 C 0.78837 0.96372 0.02203 0.0
C1436 C 0.77137 0.93289 0.02523 0.0
C1437 C 0.78581 0.91787 0.0502 0.0
C1438 C 0.81731 0.93339 0.07212 0.0
C1439 C 0.8345 0.96395 0.0691 0.0
C1440 C 0.82003 0.97919 0.04429 0.0
C1441 C 0.61129 0.9822 0.93987 0.0
C1442 C 0.59588 0.99451 0.96834 0.0
C1443 C 0.65058 0.9848 0.93974 0.0
C1444 C 0.67504 0.00013 0.96792 0.0
C1445 C 0.65961 0.01397 0.9958 0.0
C1446 C 0.62034 0.01118 0.99603 0.0
C1447 C 0.71646 0.99876 0.96958 0.0
C1448 C 0.73359 0.98396 0.99384 0.0
C1449 C 0.73857 0.00999 0.9468 0.0
C1450 C 0.72221 0.02517 0.92 0.0
C1451 C 0.70138 0.0517 0.92659 0.0
C1452 C 0.68616 0.06576 0.90113 0.0
C1453 C 0.69192 0.05376 0.869 0.0
C1454 C 0.71295 0.02765 0.86225 0.0
C1455 C 0.72802 0.01338 0.88758 0.0
H1456 H 0.68019 0.06473 0.84936 0.0
H1457 H 0.82847 0.9217 0.09139 0.0
H1458 H 0.4319 0.69154 0.76619 0.0
H1459 H 0.4584 0.64076 0.7714 0.0
H1460 H 0.34645 0.59411 0.77693 0.0
H1461 H 0.31978 0.64424 0.77124 0.0
H1462 H 0.40526 0.59318 0.83093 0.0
H1463 H 0.38483 0.56814 0.70825 0.0
H1464 H 0.39758 0.58409 0.65619 0.0
H1465 H 0.51757 0.5958 0.68756 0.0
H1466 H 0.50546 0.57918 0.73939 0.0
H1467 H 0.37682 0.42808 0.81202 0.0
H1468 H 0.38413 0.48648 0.81574 0.0
H1469 H 0.49227 0.48265 0.77867 0.0
H1470 H 0.48387 0.4231 0.77323 0.0
H1471 H 0.45644 0.51692 0.74696 0.0
H1472 H 0.48259 0.52636 0.85867 0.0
H1473 H 0.48095 0.51721 0.91482 0.0
H1474 H 0.3691 0.54618 0.91453 0.0
H1475 H 0.36958 0.55477 0.85803 0.0
C1476 C 0.41288 0.67021 0.76778 0.0
C1477 C 0.37378 0.67187 0.76841 0.0
C1478 C 0.42805 0.64129 0.77075 0.0
C1479 C 0.40435 0.61386 0.77476 0.0
C1480 C 0.36519 0.61513 0.77402 0.0
C1481 C 0.34999 0.64376 0.77064 0.0
C1482 C 0.42004 0.58439 0.78211 0.0
C1483 C 0.4164 0.57631 0.81269 0.0
C1484 C 0.43714 0.56381 0.75914 0.0
C1485 C 0.44426 0.57252 0.72756 0.0
C1486 C 0.4139 0.57398 0.70389 0.0
C1487 C 0.42102 0.58302 0.67441 0.0
C1488 C 0.45837 0.59084 0.66851 0.0
C1489 C 0.48867 0.58952 0.69204 0.0
C1490 C 0.48171 0.58008 0.72135 0.0
C1491 C 0.40266 0.43963 0.80538 0.0
C1492 C 0.42964 0.42093 0.7921 0.0
C1493 C 0.40705 0.4733 0.80782 0.0
C1494 C 0.43901 0.48937 0.79784 0.0
C1495 C 0.46733 0.47094 0.78652 0.0
C1496 C 0.46266 0.43693 0.78364 0.0
C1497 C 0.43965 0.52439 0.7955 0.0
C1498 C 0.44635 0.53381 0.76586 0.0
C1499 C 0.42729 0.54712 0.82017 0.0
C1500 C 0.42614 0.54117 0.85395 0.0
C1501 C 0.45746 0.53048 0.8704 0.0
C1502 C 0.45675 0.52543 0.90235 0.0
C1503 C 0.42499 0.53124 0.91825 0.0
C1504 C 0.39372 0.5418 0.90217 0.0
C1505 C 0.39421 0.54678 0.87017 0.0
H1506 H 0.42471 0.52783 0.94313 0.0
H1507 H 0.46385 0.59796 0.64574 0.0
H1508 H 0.11645 0.48743 0.45458 0.0
H1509 H 0.18489 0.48972 0.4548 0.0
H1510 H 0.20211 0.53942 0.55554 0.0
H1511 H 0.13314 0.53583 0.5558 0.0
H1512 H 0.24172 0.53349 0.46229 0.0
H1513 H 0.28158 0.51685 0.59445 0.0
H1514 H 0.25255 0.49442 0.63785 0.0
H1515 H 0.1733 0.42832 0.5656 0.0
H1516 H 0.20217 0.45008 0.52181 0.0
H1517 H 0.44083 0.53075 0.47941 0.0
H1518 H 0.37849 0.54562 0.49154 0.0
H1519 H 0.34315 0.4463 0.49994 0.0
H1520 H 0.40576 0.43194 0.48942 0.0
H1521 H 0.31555 0.48456 0.5438 0.0
H1522 H 0.31976 0.47678 0.42773 0.0
H1523 H 0.34799 0.49102 0.38014 0.0
H1524 H 0.3342 0.59154 0.41231 0.0
H1525 H 0.30608 0.57791 0.46006 0.0
C1526 C 0.13479 0.49914 0.4767 0.0
C1527 C 0.11954 0.51121 0.50526 0.0
C1528 C 0.17395 0.50053 0.47679 0.0
C1529 C 0.1987 0.51433 0.50531 0.0
C1530 C 0.18356 0.52804 0.53343 0.0
C1531 C 0.14422 0.52616 0.53351 0.0
C1532 C 0.24003 0.51271 0.50556 0.0
C1533 C 0.25788 0.52303 0.48031 0.0
C1534 C 0.26118 0.4988 0.52885 0.0
C1535 C 0.24369 0.48543 0.55494 0.0
C1536 C 0.25798 0.49751 0.58787 0.0
C1537 C 0.24157 0.4849 0.61251 0.0
C1538 C 0.21099 0.46006 0.60449 0.0
C1539 C 0.19687 0.44766 0.57179 0.0
C1540 C 0.21322 0.46014 0.54705 0.0
C1541 C 0.4197 0.51226 0.48405 0.0
C1542 C 0.42783 0.48023 0.48341 0.0
C1543 C 0.38416 0.52071 0.49095 0.0
C1544 C 0.35593 0.49697 0.49625 0.0
C1545 C 0.36446 0.4651 0.49613 0.0
C1546 C 0.40016 0.45686 0.48996 0.0
C1547 C 0.31678 0.5045 0.50003 0.0
C1548 C 0.29948 0.49551 0.52614 0.0
C1549 C 0.29561 0.5184 0.47682 0.0
C1550 C 0.31124 0.52641 0.44756 0.0
C1551 C 0.32281 0.50192 0.4246 0.0
C1552 C 0.33877 0.50987 0.39762 0.0
C1553 C 0.34304 0.54218 0.39332 0.0
C1554 C 0.33095 0.56655 0.4157 0.0
C1555 C 0.31494 0.55873 0.44269 0.0
H1556 H 0.35581 0.54833 0.37271 0.0
H1557 H 0.19831 0.45035 0.62361 0.0
H1558 H 0.79109 0.86346 0.92278 0.0
H1559 H 0.79918 0.8741 0.9824 0.0
H1560 H 0.76791 0.77178 0.98087 0.0
H1561 H 0.75935 0.76098 0.92115 0.0
H1562 H 0.73792 0.81088 0.02832 0.0
H1563 H 0.85758 0.80676 0.98471 0.0
H1564 H 0.91009 0.82397 0.95552 0.0
H1565 H 0.93089 0.91663 0.02107 0.0
H1566 H 0.87801 0.90039 0.0502 0.0
H1567 H 0.82755 0.79007 0.18178 0.0
H1568 H 0.80669 0.78742 0.12369 0.0
H1569 H 0.83901 0.8911 0.13587 0.0
H1570 H 0.85934 0.894 0.19393 0.0
H1571 H 0.8672 0.85571 0.08379 0.0
H1572 H 0.7482 0.86665 0.12251 0.0
H1573 H 0.69221 0.85631 0.15064 0.0
H1574 H 0.66992 0.75836 0.0957 0.0
H1575 H 0.72583 0.7681 0.0672 0.0
C1576 C 0.78526 0.8433 0.93514 0.0
C1577 C 0.77495 0.81129 0.91738 0.0
C1578 C 0.79003 0.84943 0.96919 0.0
C1579 C 0.78489 0.82362 0.98596 0.0
C1580 C 0.77225 0.79198 0.9683 0.0
C1581 C 0.76736 0.78584 0.93422 0.0
C1582 C 0.79467 0.82904 0.02177 0.0
C1583 C 0.76631 0.82033 0.04043 0.0
C1584 C 0.83146 0.84265 0.03754 0.0
C1585 C 0.86301 0.85254 0.01935 0.0
C1586 C 0.87269 0.83109 0.99253 0.0
C1587 C 0.90275 0.84062 0.97606 0.0
C1588 C 0.92366 0.87143 0.98635 0.0
C1589 C 0.91461 0.89277 0.0131 0.0
C1590 C 0.88449 0.88344 0.02953 0.0
C1591 C 0.83013 0.81227 0.17202 0.0
C1592 C 0.84524 0.8422 0.19224 0.0
C1593 C 0.81795 0.81078 0.13896 0.0
C1594 C 0.82112 0.83912 0.12558 0.0
C1595 C 0.83623 0.869 0.14575 0.0
C1596 C 0.84785 0.87059 0.17887 0.0
C1597 C 0.81054 0.83721 0.09018 0.0
C1598 C 0.83881 0.84641 0.07162 0.0
C1599 C 0.77358 0.82474 0.07449 0.0
C1600 C 0.74147 0.81799 0.09302 0.0
C1601 C 0.73168 0.84276 0.11675 0.0
C1602 C 0.69978 0.83709 0.13256 0.0
C1603 C 0.67753 0.80671 0.12494 0.0
C1604 C 0.68719 0.78188 0.10156 0.0
C1605 C 0.71893 0.78748 0.08552 0.0
H1606 H 0.65282 0.80239 0.1372 0.0
H1607 H 0.94694 0.87883 0.97368 0.0
H1608 H 0.50203 0.41729 0.34314 0.0
H1609 H 0.50998 0.42218 0.28679 0.0
H1610 H 0.60471 0.49708 0.32214 0.0
H1611 H 0.59776 0.49155 0.37848 0.0
H1612 H 0.53862 0.51145 0.27781 0.0
H1613 H 0.62774 0.43566 0.28931 0.0
H1614 H 0.65154 0.38507 0.29977 0.0
H1615 H 0.57342 0.32929 0.21972 0.0
H1616 H 0.5476 0.37932 0.20972 0.0
H1617 H 0.57839 0.53863 0.12305 0.0
H1618 H 0.58667 0.52922 0.1791 0.0
H1619 H 0.52309 0.43355 0.14721 0.0
H1620 H 0.51616 0.44236 0.09103 0.0
H1621 H 0.57832 0.43004 0.19115 0.0
H1622 H 0.48264 0.50186 0.1843 0.0
H1623 H 0.45565 0.55095 0.17286 0.0
H1624 H 0.54245 0.61164 0.24266 0.0
H1625 H 0.57021 0.56289 0.25424 0.0
C1626 C 0.52484 0.4345 0.33884 0.0
C1627 C 0.54924 0.45411 0.36512 0.0
C1628 C 0.52945 0.43713 0.3067 0.0
C1629 C 0.55806 0.45984 0.30042 0.0
C1630 C 0.58265 0.47926 0.32658 0.0
C1631 C 0.57864 0.47608 0.35868 0.0
C1632 C 0.5601 0.4653 0.26676 0.0
C1633 C 0.54788 0.49391 0.25893 0.0
C1634 C 0.57108 0.44181 0.2421 0.0
C1635 C 0.58523 0.41137 0.24911 0.0
C1636 C 0.61486 0.41258 0.27443 0.0
C1637 C 0.62875 0.38396 0.28026 0.0
C1638 C 0.6137 0.35396 0.26061 0.0
C1639 C 0.58462 0.3525 0.23519 0.0
C1640 C 0.57027 0.38099 0.22949 0.0
C1641 C 0.56648 0.51551 0.128 0.0
C1642 C 0.54643 0.49132 0.10271 0.0
C1643 C 0.57105 0.51019 0.16006 0.0
C1644 C 0.55485 0.4809 0.16759 0.0
C1645 C 0.53581 0.45636 0.14212 0.0
C1646 C 0.53177 0.46147 0.11 0.0
C1647 C 0.55651 0.47616 0.20201 0.0
C1648 C 0.56923 0.44766 0.21003 0.0
C1649 C 0.54531 0.49942 0.22685 0.0
C1650 C 0.52873 0.52876 0.21986 0.0
C1651 C 0.49613 0.52569 0.19702 0.0
C1652 C 0.48066 0.55344 0.19055 0.0
C1653 C 0.49739 0.5844 0.20695 0.0
C1654 C 0.52956 0.58765 0.22993 0.0
C1655 C 0.54516 0.55997 0.23648 0.0
H1656 H 0.48537 0.60586 0.20192 0.0
H1657 H 0.62483 0.33192 0.26487 0.0
H1658 H 0.91631 0.24752 0.39646 0.0
H1659 H 0.90584 0.2426 0.45198 0.0
H1660 H 0.82033 0.30778 0.44999 0.0
H1661 H 0.8306 0.31269 0.39415 0.0
H1662 H 0.86281 0.3184 0.50967 0.0
H1663 H 0.79547 0.22626 0.43337 0.0
H1664 H 0.78845 0.17919 0.38778 0.0
H1665 H 0.86826 0.13317 0.44225 0.0
H1666 H 0.87665 0.18042 0.48782 0.0
H1667 H 0.78815 0.27439 0.64721 0.0
H1668 H 0.79127 0.28169 0.59088 0.0
H1669 H 0.87421 0.21402 0.58041 0.0
H1670 H 0.87055 0.20606 0.63616 0.0
H1671 H 0.82743 0.20556 0.52586 0.0
H1672 H 0.89848 0.2944 0.60083 0.0
H1673 H 0.91043 0.34059 0.64731 0.0
H1674 H 0.83395 0.39286 0.59699 0.0
H1675 H 0.82025 0.34636 0.55062 0.0
C1676 C 0.89575 0.26124 0.40803 0.0
C1677 C 0.87406 0.28025 0.39089 0.0
C1678 C 0.88974 0.25835 0.43973 0.0
C1679 C 0.86185 0.27435 0.45488 0.0
C1680 C 0.84186 0.29508 0.43866 0.0
C1681 C 0.84777 0.29789 0.4068 0.0
C1682 C 0.85207 0.26771 0.48671 0.0
C1683 C 0.85472 0.2938 0.5132 0.0
C1684 C 0.84189 0.2355 0.4913 0.0
C1685 C 0.83684 0.207 0.46394 0.0
C1686 C 0.81178 0.20624 0.43552 0.0
C1687 C 0.8076 0.17954 0.40967 0.0
C1688 C 0.82801 0.15326 0.41208 0.0
C1689 C 0.85258 0.1536 0.44038 0.0
C1690 C 0.85709 0.18035 0.46622 0.0
C1691 C 0.80655 0.26069 0.63267 0.0
C1692 C 0.82934 0.23987 0.64613 0.0
C1693 C 0.80842 0.26496 0.60057 0.0
C1694 C 0.83344 0.24879 0.58163 0.0
C1695 C 0.85475 0.22677 0.59456 0.0
C1696 C 0.85272 0.22235 0.6265 0.0
C1697 C 0.83939 0.25616 0.54915 0.0
C1698 C 0.83564 0.2302 0.52243 0.0
C1699 C 0.84963 0.2884 0.54461 0.0
C1700 C 0.85768 0.31651 0.57247 0.0
C1701 C 0.88353 0.31542 0.5999 0.0
C1702 C 0.89066 0.34169 0.62624 0.0
C1703 C 0.87268 0.36949 0.62524 0.0
C1704 C 0.84761 0.37117 0.59784 0.0
C1705 C 0.84006 0.3448 0.57154 0.0
H1706 H 0.87835 0.38974 0.64569 0.0
H1707 H 0.8247 0.13259 0.39206 0.0
H1708 H 0.92459 0.44317 0.57868 0.0
H1709 H 0.90714 0.43962 0.63283 0.0
H1710 H 0.96858 0.53513 0.67145 0.0
H1711 H 0.98738 0.53814 0.61774 0.0
H1712 H 0.98841 0.49766 0.70882 0.0
H1713 H 0.86855 0.51658 0.65948 0.0
H1714 H 0.81105 0.50805 0.61939 0.0
H1715 H 0.7797 0.41433 0.64284 0.0
H1716 H 0.83732 0.42206 0.68273 0.0
H1717 H 0.91357 0.53249 0.85836 0.0
H1718 H 0.9074 0.52869 0.79931 0.0
H1719 H 0.92031 0.42651 0.78623 0.0
H1720 H 0.92771 0.43024 0.84563 0.0
H1721 H 0.86022 0.46432 0.73654 0.0
H1722 H 0.99074 0.44787 0.78186 0.0
H1723 H 0.04562 0.46348 0.82488 0.0
H1724 H 0.05161 0.56265 0.81108 0.0
H1725 H 0.99645 0.54753 0.76816 0.0
C1726 C 0.93386 0.46358 0.59867 0.0
C1727 C 0.95744 0.4909 0.59412 0.0
C1728 C 0.92378 0.46156 0.62961 0.0
C1729 C 0.93642 0.48711 0.65634 0.0
C1730 C 0.95868 0.51497 0.65135 0.0
C1731 C 0.96931 0.51674 0.62062 0.0
C1732 C 0.92907 0.48403 0.68994 0.0
C1733 C 0.96022 0.49049 0.71462 0.0
C1734 C 0.89239 0.47442 0.69785 0.0
C1735 C 0.85773 0.46965 0.6737 0.0
C1736 C 0.84969 0.49396 0.65582 0.0
C1737 C 0.81698 0.48931 0.63318 0.0
C1738 C 0.79183 0.4606 0.62845 0.0
C1739 C 0.79924 0.43654 0.64647 0.0
C1740 C 0.83195 0.44104 0.66908 0.0
C1741 C 0.91402 0.50895 0.84296 0.0
C1742 C 0.92165 0.48173 0.85659 0.0
C1743 C 0.91035 0.50685 0.80923 0.0
C1744 C 0.91362 0.47741 0.78865 0.0
C1745 C 0.91763 0.44941 0.8019 0.0
C1746 C 0.92196 0.45161 0.83577 0.0
C1747 C 0.91946 0.47762 0.75445 0.0
C1748 C 0.88821 0.47095 0.73006 0.0
C1749 C 0.9558 0.48768 0.74672 0.0
C1750 C 0.98934 0.49661 0.77206 0.0
C1751 C 0.00364 0.47301 0.78816 0.0
C1752 C 0.03481 0.48176 0.81248 0.0
C1753 C 0.05204 0.51406 0.82078 0.0
C1754 C 0.03822 0.53764 0.80466 0.0
C1755 C 0.00704 0.52897 0.78031 0.0
H1756 H 0.07615 0.52081 0.83965 0.0
H1757 H 0.76652 0.45705 0.61092 0.0
H1758 H 0.87716 0.94638 0.48685 0.0
H1759 H 0.80833 0.93282 0.48421 0.0
H1760 H 0.79782 0.03433 0.51804 0.0
H1761 H 0.86657 0.04777 0.52189 0.0
H1762 H 0.75038 0.99655 0.54456 0.0
H1763 H 0.78572 0.99725 0.43537 0.0
H1764 H 0.82191 0.9776 0.39054 0.0
H1765 H 0.76733 0.88011 0.38315 0.0
H1766 H 0.73139 0.89906 0.42844 0.0
H1767 H 0.56717 0.02021 0.4826 0.0
H1768 H 0.63497 0.0194 0.49747 0.0
H1769 H 0.62305 0.91714 0.45371 0.0
H1770 H 0.55529 0.91826 0.43773 0.0
H1771 H 0.68135 0.94644 0.43527 0.0
H1772 H 0.64028 0.94542 0.53941 0.0
H1773 H 0.60535 0.96326 0.5857 0.0
H1774 H 0.66973 0.05827 0.60351 0.0
H1775 H 0.70486 0.0411 0.55717 0.0
C1776 C 0.86014 0.9657 0.49403 0.0
C1777 C 0.87707 0.99816 0.50425 0.0
C1778 C 0.82087 0.95795 0.49248 0.0
C1779 C 0.79787 0.98265 0.50038 0.0
C1780 C 0.81499 0.01488 0.5118 0.0
C1781 C 0.85425 0.02255 0.51383 0.0
C1782 C 0.75586 0.97565 0.49482 0.0
C1783 C 0.73522 0.9857 0.52067 0.0
C1784 C 0.73611 0.96051 0.46388 0.0
C1785 C 0.75618 0.94951 0.4355 0.0
C1786 C 0.78145 0.97163 0.42417 0.0
C1787 C 0.80191 0.96062 0.39867 0.0
C1788 C 0.7969 0.92766 0.38394 0.0
C1789 C 0.77119 0.90565 0.39454 0.0
C1790 C 0.75077 0.9165 0.42014 0.0
C1791 C 0.57895 0.99747 0.47653 0.0
C1792 C 0.5561 0.96932 0.45896 0.0
C1793 C 0.61768 0.99696 0.48519 0.0
C1794 C 0.6341 0.96805 0.4772 0.0
C1795 C 0.61105 0.9397 0.46019 0.0
C1796 C 0.57238 0.94036 0.45106 0.0
C1797 C 0.67569 0.96811 0.48485 0.0
C1798 C 0.69631 0.95677 0.45937 0.0
C1799 C 0.69538 0.98181 0.5162 0.0
C1800 C 0.67504 0.99201 0.54467 0.0
C1801 C 0.6469 0.97015 0.55313 0.0
C1802 C 0.62707 0.98014 0.57938 0.0
C1803 C 0.63521 0.01191 0.59744 0.0
C1804 C 0.66339 0.03369 0.58944 0.0
C1805 C 0.68338 0.0238 0.56326 0.0
H1806 H 0.61977 0.01961 0.61772 0.0
H1807 H 0.813 0.91919 0.36437 0.0
loop_
_geom_bond_atom_site_label_1
_geom_bond_atom_site_label_2
_geom_bond_distance
_geom_bond_site_symmetry_2
_ccdc_geom_bond_type
In0 O1 2.294 . S
In0 O2 2.326 . S
In0 O6 2.266 . S
In0 O7 2.326 . S
In0 O8 2.266 . S
In0 O9 2.326 . S
In0 O11 2.294 . S
In0 O12 2.326 . S
O1 In0 2.294 . S
O1 C10 1.240 . S
O2 In0 2.326 . S
O2 C10 1.252 . S
C3 O6 1.252 . S
C3 O7 1.260 . S
C4 O11 1.240 . S
C4 O12 1.252 . S
C5 O8 1.252 . S
C5 O9 1.260 . S
O6 In0 2.266 . S
O6 C3 1.252 . S
O7 In0 2.326 . S
O7 C3 1.260 . S
O8 In0 2.266 . S
O8 C5 1.252 . S
O9 In0 2.326 . S
O9 C5 1.260 . S
C10 O1 1.240 . S
C10 O2 1.252 . S
O11 In0 2.294 . S
O11 C4 1.240 . S
O12 In0 2.326 . S
O12 C4 1.252 . S
In13 O14 2.294 1_655 S
In13 O15 2.329 1_545 S
In13 O19 2.263 1_655 S
In13 O20 2.323 . S
In13 O21 2.267 1_545 S
In13 O22 2.324 . S
In13 O24 2.296 1_645 S
In13 O25 2.327 1_645 S
O14 In13 2.294 1_455 S
O14 C23 1.240 1_545 S
O15 In13 2.329 1_565 S
O15 C23 1.252 1_655 S
C16 O19 1.252 1_655 S
C16 O20 1.260 . S
C17 O24 1.240 . S
C17 O25 1.252 . S
C18 O21 1.245 1_545 S
C18 O22 1.266 . S
O19 In13 2.263 1_455 S
O19 C16 1.252 1_455 S
O20 In13 2.323 . S
O20 C16 1.260 . S
O21 In13 2.267 1_565 S
O21 C18 1.245 1_565 S
O22 In13 2.324 . S
O22 C18 1.266 . S
C23 O14 1.240 1_565 S
C23 O15 1.252 1_455 S
O24 In13 2.296 1_465 S
O24 C17 1.240 . S
O25 In13 2.327 1_465 S
O25 C17 1.252 . S
In26 O27 2.294 . S
In26 O28 2.326 . S
In26 O32 2.266 . S
In26 O33 2.326 . S
In26 O34 2.266 . S
In26 O35 2.326 . S
In26 O37 2.294 . S
In26 O38 2.326 . S
O27 In26 2.294 . S
O27 C36 1.240 . S
O28 In26 2.326 . S
O28 C36 1.252 . S
C29 O32 1.252 . S
C29 O33 1.260 . S
C30 O37 1.240 . S
C30 O38 1.252 . S
C31 O34 1.252 . S
C31 O35 1.260 . S
O32 In26 2.266 . S
O32 C29 1.252 . S
O33 In26 2.326 . S
O33 C29 1.260 . S
O34 In26 2.266 . S
O34 C31 1.252 . S
O35 In26 2.326 . S
O35 C31 1.260 . S
C36 O27 1.240 . S
C36 O28 1.252 . S
O37 In26 2.294 . S
O37 C30 1.240 . S
O38 In26 2.326 . S
O38 C30 1.252 . S
In39 O40 2.294 1_554 S
In39 O41 2.326 1_565 S
In39 O45 2.266 1_554 S
In39 O46 2.326 . S
In39 O47 2.266 . S
In39 O48 2.326 . S
In39 O50 2.294 . S
In39 O51 2.326 1_554 S
O40 In39 2.294 1_556 S
O40 C49 1.240 1_565 S
O41 In39 2.326 1_545 S
O41 C49 1.252 1_554 S
C42 O45 1.252 1_554 S
C42 O46 1.260 . S
C43 O50 1.240 1_556 S
C43 O51 1.252 . S
C44 O47 1.252 . S
C44 O48 1.260 . S
O45 In39 2.266 1_556 S
O45 C42 1.252 1_556 S
O46 In39 2.326 . S
O46 C42 1.260 . S
O47 In39 2.266 . S
O47 C44 1.252 . S
O48 In39 2.326 . S
O48 C44 1.260 . S
C49 O40 1.240 1_545 S
C49 O41 1.252 1_556 S
O50 In39 2.294 . S
O50 C43 1.240 1_554 S
O51 In39 2.326 1_556 S
O51 C43 1.252 . S
In52 O53 2.294 . S
In52 O54 2.326 . S
In52 O58 2.266 . S
In52 O59 2.326 . S
In52 O60 2.266 . S
In52 O61 2.326 . S
In52 O63 2.294 . S
In52 O64 2.326 . S
O53 In52 2.294 . S
O53 C62 1.240 . S
O54 In52 2.326 . S
O54 C62 1.252 . S
C55 O58 1.252 . S
C55 O59 1.260 . S
C56 O63 1.240 . S
C56 O64 1.252 . S
C57 O60 1.252 . S
C57 O61 1.260 . S
O58 In52 2.266 . S
O58 C55 1.252 . S
O59 In52 2.326 . S
O59 C55 1.260 . S
O60 In52 2.266 . S
O60 C57 1.252 . S
O61 In52 2.326 . S
O61 C57 1.260 . S
C62 O53 1.240 . S
C62 O54 1.252 . S
O63 In52 2.294 . S
O63 C56 1.240 . S
O64 In52 2.326 . S
O64 C56 1.252 . S
In65 O66 2.294 . S
In65 O67 2.326 1_545 S
In65 O71 2.266 . S
In65 O72 2.326 . S
In65 O73 2.268 . S
In65 O74 2.326 . S
In65 O76 2.295 . S
In65 O77 2.326 . S
O66 In65 2.294 . S
O66 C75 1.240 1_545 S
O67 In65 2.326 1_565 S
O67 C75 1.252 . S
C68 O71 1.252 . S
C68 O72 1.260 . S
C69 O76 1.241 . S
C69 O77 1.252 . S
C70 O73 1.255 . S
C70 O74 1.260 . S
O71 In65 2.266 . S
O71 C68 1.252 . S
O72 In65 2.326 . S
O72 C68 1.260 . S
O73 In65 2.268 . S
O73 C70 1.255 . S
O74 In65 2.326 . S
O74 C70 1.260 . S
C75 O66 1.240 1_565 S
C75 O67 1.252 . S
O76 In65 2.295 . S
O76 C69 1.241 . S
O77 In65 2.326 . S
O77 C69 1.252 . S
In78 O79 2.294 . S
In78 O80 2.326 . S
In78 O84 2.266 . S
In78 O85 2.326 . S
In78 O86 2.266 . S
In78 O87 2.326 . S
In78 O89 2.294 . S
In78 O90 2.326 . S
O79 In78 2.294 . S
O79 C88 1.240 . S
O80 In78 2.326 . S
O80 C88 1.252 . S
C81 O84 1.252 . S
C81 O85 1.260 . S
C82 O89 1.240 . S
C82 O90 1.252 . S
C83 O86 1.252 . S
C83 O87 1.260 . S
O84 In78 2.266 . S
O84 C81 1.252 . S
O85 In78 2.326 . S
O85 C81 1.260 . S
O86 In78 2.266 . S
O86 C83 1.252 . S
O87 In78 2.326 . S
O87 C83 1.260 . S
C88 O79 1.240 . S
C88 O80 1.252 . S
O89 In78 2.294 . S
O89 C82 1.240 . S
O90 In78 2.326 . S
O90 C82 1.252 . S
In91 O92 2.295 . S
In91 O93 2.327 . S
In91 O97 2.266 . S
In91 O98 2.325 1_655 S
In91 O99 2.266 1_655 S
In91 O100 2.326 . S
In91 O102 2.293 1_655 S
In91 O103 2.326 1_665 S
O92 In91 2.295 . S
O92 C101 1.240 . S
O93 In91 2.327 . S
O93 C101 1.252 . S
C94 O97 1.252 1_455 S
C94 O98 1.260 . S
C95 O102 1.240 1_545 S
C95 O103 1.252 . S
C96 O99 1.252 . S
C96 O100 1.260 1_455 S
O97 In91 2.266 . S
O97 C94 1.252 1_655 S
O98 In91 2.325 1_455 S
O98 C94 1.260 . S
O99 In91 2.266 1_455 S
O99 C96 1.252 . S
O100 In91 2.326 . S
O100 C96 1.260 1_655 S
C101 O92 1.240 . S
C101 O93 1.252 . S
O102 In91 2.293 1_455 S
O102 C95 1.240 1_565 S
O103 In91 2.326 1_445 S
O103 C95 1.252 . S
In104 O105 2.294 . S
In104 O106 2.326 . S
In104 O110 2.266 . S
In104 O111 2.326 . S
In104 O112 2.266 . S
In104 O113 2.326 . S
In104 O115 2.294 . S
In104 O116 2.326 . S
O105 In104 2.294 . S
O105 C114 1.240 . S
O106 In104 2.326 . S
O106 C114 1.252 . S
C107 O110 1.252 . S
C107 O111 1.260 . S
C108 O115 1.240 . S
C108 O116 1.252 . S
C109 O112 1.252 . S
C109 O113 1.260 . S
O110 In104 2.266 . S
O110 C107 1.252 . S
O111 In104 2.326 . S
O111 C107 1.260 . S
O112 In104 2.266 . S
O112 C109 1.252 . S
O113 In104 2.326 . S
O113 C109 1.260 . S
C114 O105 1.240 . S
C114 O106 1.252 . S
O115 In104 2.294 . S
O115 C108 1.240 . S
O116 In104 2.326 . S
O116 C108 1.252 . S
In117 O118 2.296 . S
In117 O119 2.327 . S
In117 O123 2.266 . S
In117 O124 2.324 1_455 S
In117 O125 2.265 1_455 S
In117 O126 2.326 . S
In117 O128 2.293 1_455 S
In117 O129 2.326 1_455 S
O118 In117 2.296 . S
O118 C127 1.240 . S
O119 In117 2.327 . S
O119 C127 1.252 . S
C120 O123 1.252 1_655 S
C120 O124 1.260 . S
C121 O128 1.240 . S
C121 O129 1.252 . S
C122 O125 1.252 . S
C122 O126 1.260 1_655 S
O123 In117 2.266 . S
O123 C120 1.252 1_455 S
O124 In117 2.324 1_655 S
O124 C120 1.260 . S
O125 In117 2.265 1_655 S
O125 C122 1.252 . S
O126 In117 2.326 . S
O126 C122 1.260 1_455 S
C127 O118 1.240 . S
C127 O119 1.252 . S
O128 In117 2.293 1_655 S
O128 C121 1.240 . S
O129 In117 2.326 1_655 S
O129 C121 1.252 . S
In130 O131 2.294 . S
In130 O132 2.326 . S
In130 O136 2.266 . S
In130 O137 2.326 . S
In130 O138 2.266 . S
In130 O139 2.326 . S
In130 O141 2.294 . S
In130 O142 2.326 . S
O131 In130 2.294 . S
O131 C140 1.240 . S
O132 In130 2.326 . S
O132 C140 1.252 . S
C133 O136 1.252 . S
C133 O137 1.260 . S
C134 O141 1.240 . S
C134 O142 1.252 . S
C135 O138 1.252 . S
C135 O139 1.260 . S
O136 In130 2.266 . S
O136 C133 1.252 . S
O137 In130 2.326 . S
O137 C133 1.260 . S
O138 In130 2.266 . S
O138 C135 1.252 . S
O139 In130 2.326 . S
O139 C135 1.260 . S
C140 O131 1.240 . S
C140 O132 1.252 . S
O141 In130 2.294 . S
O141 C134 1.240 . S
O142 In130 2.326 . S
O142 C134 1.252 . S
In143 O144 2.294 . S
In143 O145 2.326 . S
In143 O149 2.266 . S
In143 O150 2.326 1_455 S
In143 O151 2.266 1_455 S
In143 O152 2.326 . S
In143 O154 2.294 1_455 S
In143 O155 2.326 . S
O144 In143 2.294 . S
O144 C153 1.240 . S
O145 In143 2.326 . S
O145 C153 1.252 . S
C146 O149 1.252 1_655 S
C146 O150 1.260 . S
C147 O154 1.240 . S
C147 O155 1.252 1_655 S
C148 O151 1.252 . S
C148 O152 1.260 1_655 S
O149 In143 2.266 . S
O149 C146 1.252 1_455 S
O150 In143 2.326 1_655 S
O150 C146 1.260 . S
O151 In143 2.266 1_655 S
O151 C148 1.252 . S
O152 In143 2.326 . S
O152 C148 1.260 1_455 S
C153 O144 1.240 . S
C153 O145 1.252 . S
O154 In143 2.294 1_655 S
O154 C147 1.240 . S
O155 In143 2.326 . S
O155 C147 1.252 1_455 S
In156 O157 2.294 1_554 S
In156 O158 2.326 . S
In156 O162 2.266 1_554 S
In156 O163 2.326 . S
In156 O164 2.266 . S
In156 O165 2.326 1_554 S
In156 O167 2.294 . S
In156 O168 2.326 . S
O157 In156 2.294 1_556 S
O157 C166 1.240 1_556 S
O158 In156 2.326 . S
O158 C166 1.252 . S
C159 O162 1.252 1_554 S
C159 O163 1.260 . S
C160 O167 1.240 . S
C160 O168 1.252 . S
C161 O164 1.252 . S
C161 O165 1.260 1_554 S
O162 In156 2.266 1_556 S
O162 C159 1.252 1_556 S
O163 In156 2.326 . S
O163 C159 1.260 . S
O164 In156 2.266 . S
O164 C161 1.252 . S
O165 In156 2.326 1_556 S
O165 C161 1.260 1_556 S
C166 O157 1.240 1_554 S
C166 O158 1.252 . S
O167 In156 2.294 . S
O167 C160 1.240 . S
O168 In156 2.326 . S
O168 C160 1.252 . S
In169 O170 2.294 . S
In169 O171 2.326 . S
In169 O175 2.266 . S
In169 O176 2.326 . S
In169 O177 2.266 . S
In169 O178 2.326 . S
In169 O180 2.294 . S
In169 O181 2.326 . S
O170 In169 2.294 . S
O170 C179 1.240 . S
O171 In169 2.326 . S
O171 C179 1.252 . S
C172 O175 1.252 . S
C172 O176 1.260 . S
C173 O180 1.240 . S
C173 O181 1.252 . S
C174 O177 1.252 . S
C174 O178 1.260 . S
O175 In169 2.266 . S
O175 C172 1.252 . S
O176 In169 2.326 . S
O176 C172 1.260 . S
O177 In169 2.266 . S
O177 C174 1.252 . S
O178 In169 2.326 . S
O178 C174 1.260 . S
C179 O170 1.240 . S
C179 O171 1.252 . S
O180 In169 2.294 . S
O180 C173 1.240 . S
O181 In169 2.326 . S
O181 C173 1.252 . S
In182 O183 2.294 . S
In182 O184 2.326 . S
In182 O188 2.266 . S
In182 O189 2.326 . S
In182 O190 2.266 . S
In182 O191 2.326 . S
In182 O193 2.294 . S
In182 O194 2.326 . S
O183 In182 2.294 . S
O183 C192 1.240 . S
O184 In182 2.326 . S
O184 C192 1.252 . S
C185 O188 1.252 . S
C185 O189 1.260 . S
C186 O193 1.240 . S
C186 O194 1.252 . S
C187 O190 1.252 . S
C187 O191 1.260 . S
O188 In182 2.266 . S
O188 C185 1.252 . S
O189 In182 2.326 . S
O189 C185 1.260 . S
O190 In182 2.266 . S
O190 C187 1.252 . S
O191 In182 2.326 . S
O191 C187 1.260 . S
C192 O183 1.240 . S
C192 O184 1.252 . S
O193 In182 2.294 . S
O193 C186 1.240 . S
O194 In182 2.326 . S
O194 C186 1.252 . S
In195 O196 2.294 . S
In195 O197 2.326 . S
In195 O201 2.266 . S
In195 O202 2.326 . S
In195 O203 2.266 . S
In195 O204 2.326 . S
In195 O206 2.294 . S
In195 O207 2.326 . S
O196 In195 2.294 . S
O196 C205 1.240 . S
O197 In195 2.326 . S
O197 C205 1.252 . S
C198 O201 1.252 . S
C198 O202 1.260 . S
C199 O206 1.240 . S
C199 O207 1.252 . S
C200 O203 1.252 . S
C200 O204 1.260 . S
O201 In195 2.266 . S
O201 C198 1.252 . S
O202 In195 2.326 . S
O202 C198 1.260 . S
O203 In195 2.266 . S
O203 C200 1.252 . S
O204 In195 2.326 . S
O204 C200 1.260 . S
C205 O196 1.240 . S
C205 O197 1.252 . S
O206 In195 2.294 . S
O206 C199 1.240 . S
O207 In195 2.326 . S
O207 C199 1.252 . S
H208 C226 0.951 . S
H209 C228 0.951 . S
H210 C230 0.950 . S
H211 C231 0.950 . S
H212 C233 0.950 . S
H213 C236 0.950 . S
H214 C237 0.950 . S
H215 C239 0.950 . S
H216 C240 0.950 . S
H217 C241 0.951 . S
H218 C243 0.951 . S
H219 C245 0.950 . S
H220 C246 0.950 . S
H221 C248 0.950 . S
H222 C251 0.950 . S
H223 C252 0.950 . S
H224 C254 0.950 1_556 S
H225 C255 0.950 . S
C226 H208 0.951 . S
C226 C227 1.366 . S
C226 C228 1.388 . S
C227 C226 1.366 . S
C227 C231 1.385 . S
C228 H209 0.951 . S
C228 C226 1.388 . S
C228 C229 1.366 . S
C229 C228 1.366 . S
C229 C230 1.414 . S
C229 C232 1.499 . S
C230 H210 0.950 . S
C230 C229 1.414 . S
C230 C231 1.374 . S
C231 H211 0.950 . S
C231 C227 1.385 . S
C231 C230 1.374 . S
C232 C229 1.499 . S
C232 C233 1.373 . S
C232 C234 1.389 . S
C233 H212 0.950 . S
C233 C232 1.373 . S
C233 C249 1.377 . S
C234 C232 1.389 . S
C234 C235 1.524 . S
C234 C248 1.377 . S
C235 C234 1.524 . S
C235 C236 1.397 . S
C235 C240 1.363 . S
C236 H213 0.950 . S
C236 C235 1.397 . S
C236 C237 1.334 . S
C237 H214 0.950 . S
C237 C236 1.334 . S
C237 C238 1.287 . S
C238 C237 1.287 . S
C238 C239 1.524 . S
C238 H257 0.913 . S
C239 H215 0.950 . S
C239 C238 1.524 . S
C239 C240 1.415 . S
C240 H216 0.950 . S
C240 C235 1.363 . S
C240 C239 1.415 . S
C241 H217 0.951 . S
C241 C242 1.366 1_556 S
C241 C243 1.388 1_556 S
C242 C241 1.366 1_554 S
C242 C246 1.385 . S
C243 H218 0.951 . S
C243 C241 1.388 1_554 S
C243 C244 1.366 . S
C244 C243 1.366 . S
C244 C245 1.414 . S
C244 C247 1.499 . S
C245 H219 0.950 . S
C245 C244 1.414 . S
C245 C246 1.374 . S
C246 H220 0.950 . S
C246 C242 1.385 . S
C246 C245 1.374 . S
C247 C244 1.499 . S
C247 C248 1.373 . S
C247 C249 1.389 . S
C248 H221 0.950 . S
C248 C234 1.377 . S
C248 C247 1.373 . S
C249 C233 1.377 . S
C249 C247 1.389 . S
C249 C250 1.524 . S
C250 C249 1.524 . S
C250 C251 1.397 . S
C250 C255 1.363 . S
C251 H222 0.950 . S
C251 C250 1.397 . S
C251 C252 1.334 . S
C252 H223 0.950 . S
C252 C251 1.334 . S
C252 C253 1.287 1_554 S
C253 C252 1.287 1_556 S
C253 C254 1.524 1_556 S
C253 H256 0.999 . S
C254 H224 0.950 1_554 S
C254 C253 1.524 1_554 S
C254 C255 1.415 . S
C255 H225 0.950 . S
C255 C250 1.363 . S
C255 C254 1.415 . S
H256 C253 0.999 . S
H257 C238 0.913 . S
H258 C276 0.951 . S
H259 C278 0.951 . S
H260 C280 0.950 . S
H261 C281 0.950 . S
H262 C283 0.950 . S
H263 C286 0.950 . S
H264 C287 0.950 . S
H265 C289 0.950 . S
H266 C290 0.950 . S
H267 C291 0.951 . S
H268 C293 0.951 . S
H269 C295 0.950 . S
H270 C296 0.950 . S
H271 C298 0.950 . S
H272 C301 0.950 . S
H273 C302 0.950 . S
H274 C304 0.950 . S
H275 C305 0.950 . S
C276 H258 0.951 . S
C276 C277 1.366 . S
C276 C278 1.388 . S
C277 C276 1.366 . S
C277 C281 1.385 . S
C278 H259 0.951 . S
C278 C276 1.388 . S
C278 C279 1.366 . S
C279 C278 1.366 . S
C279 C280 1.414 . S
C279 C282 1.499 . S
C280 H260 0.950 . S
C280 C279 1.414 . S
C280 C281 1.374 . S
C281 H261 0.950 . S
C281 C277 1.385 . S
C281 C280 1.374 . S
C282 C279 1.499 . S
C282 C283 1.373 . S
C282 C284 1.389 . S
C283 H262 0.950 . S
C283 C282 1.373 . S
C283 C299 1.377 . S
C284 C282 1.389 . S
C284 C285 1.524 . S
C284 C298 1.377 . S
C285 C284 1.524 . S
C285 C286 1.397 . S
C285 C290 1.363 . S
C286 H263 0.950 . S
C286 C285 1.397 . S
C286 C287 1.334 . S
C287 H264 0.950 . S
C287 C286 1.334 . S
C287 C288 1.287 . S
C288 C287 1.287 . S
C288 C289 1.524 . S
C288 H307 0.913 . S
C289 H265 0.950 . S
C289 C288 1.524 . S
C289 C290 1.415 . S
C290 H266 0.950 . S
C290 C285 1.363 . S
C290 C289 1.415 . S
C291 H267 0.951 . S
C291 C292 1.366 . S
C291 C293 1.388 . S
C292 C291 1.366 . S
C292 C296 1.385 . S
C293 H268 0.951 . S
C293 C291 1.388 . S
C293 C294 1.366 . S
C294 C293 1.366 . S
C294 C295 1.414 . S
C294 C297 1.499 . S
C295 H269 0.950 . S
C295 C294 1.414 . S
C295 C296 1.374 . S
C296 H270 0.950 . S
C296 C292 1.385 . S
C296 C295 1.374 . S
C297 C294 1.499 . S
C297 C298 1.373 . S
C297 C299 1.389 . S
C298 H271 0.950 . S
C298 C284 1.377 . S
C298 C297 1.373 . S
C299 C283 1.377 . S
C299 C297 1.389 . S
C299 C300 1.524 . S
C300 C299 1.524 . S
C300 C301 1.397 . S
C300 C305 1.363 . S
C301 H272 0.950 . S
C301 C300 1.397 . S
C301 C302 1.334 . S
C302 H273 0.950 . S
C302 C301 1.334 . S
C302 C303 1.287 . S
C303 C302 1.287 . S
C303 C304 1.524 . S
C303 H306 0.999 . S
C304 H274 0.950 . S
C304 C303 1.524 . S
C304 C305 1.415 . S
C305 H275 0.950 . S
C305 C300 1.363 . S
C305 C304 1.415 . S
H306 C303 0.999 . S
H307 C288 0.913 . S
H308 C326 0.951 . S
H309 C328 0.951 . S
H310 C330 0.950 . S
H311 C331 0.950 . S
H312 C333 0.950 . S
H313 C336 0.950 . S
H314 C337 0.940 1_545 S
H315 C339 0.950 . S
H316 C340 0.950 . S
H317 C341 0.951 . S
H318 C343 0.951 . S
H319 C345 0.950 . S
H320 C346 0.950 . S
H321 C348 0.950 . S
H322 C351 0.950 . S
H323 C352 0.950 . S
H324 C354 0.950 . S
H325 C355 0.950 . S
C326 H308 0.951 . S
C326 C327 1.366 . S
C326 C328 1.388 . S
C327 C326 1.366 . S
C327 C331 1.385 . S
C328 H309 0.951 . S
C328 C326 1.388 . S
C328 C329 1.366 . S
C329 C328 1.366 . S
C329 C330 1.414 . S
C329 C332 1.499 . S
C330 H310 0.950 . S
C330 C329 1.414 . S
C330 C331 1.374 . S
C331 H311 0.950 . S
C331 C327 1.385 . S
C331 C330 1.374 . S
C332 C329 1.499 . S
C332 C333 1.373 . S
C332 C334 1.389 . S
C333 H312 0.950 . S
C333 C332 1.373 . S
C333 C349 1.377 . S
C334 C332 1.389 . S
C334 C335 1.524 . S
C334 C348 1.377 . S
C335 C334 1.524 . S
C335 C336 1.397 . S
C335 C340 1.363 . S
C336 H313 0.950 . S
C336 C335 1.397 . S
C336 C337 1.350 . S
C337 H314 0.940 1_565 S
C337 C336 1.350 . S
C337 C338 1.281 1_565 S
C338 C337 1.281 1_545 S
C338 C339 1.524 1_545 S
C338 H357 0.913 . S
C339 H315 0.950 . S
C339 C338 1.524 1_565 S
C339 C340 1.415 . S
C340 H316 0.950 . S
C340 C335 1.363 . S
C340 C339 1.415 . S
C341 H317 0.951 . S
C341 C342 1.366 . S
C341 C343 1.388 . S
C342 C341 1.366 . S
C342 C346 1.385 . S
C343 H318 0.951 . S
C343 C341 1.388 . S
C343 C344 1.366 . S
C344 C343 1.366 . S
C344 C345 1.414 . S
C344 C347 1.499 . S
C345 H319 0.950 . S
C345 C344 1.414 . S
C345 C346 1.374 . S
C346 H320 0.950 . S
C346 C342 1.385 . S
C346 C345 1.374 . S
C347 C344 1.499 . S
C347 C348 1.373 . S
C347 C349 1.389 . S
C348 H321 0.950 . S
C348 C334 1.377 . S
C348 C347 1.373 . S
C349 C333 1.377 . S
C349 C347 1.389 . S
C349 C350 1.524 . S
C350 C349 1.524 . S
C350 C351 1.397 . S
C350 C355 1.363 . S
C351 H322 0.950 . S
C351 C350 1.397 . S
C351 C352 1.334 . S
C352 H323 0.950 . S
C352 C351 1.334 . S
C352 C353 1.287 . S
C353 C352 1.287 . S
C353 C354 1.524 . S
C353 H356 0.999 . S
C354 H324 0.950 . S
C354 C353 1.524 . S
C354 C355 1.415 . S
C355 H325 0.950 . S
C355 C350 1.363 . S
C355 C354 1.415 . S
H356 C353 0.999 . S
H357 C338 0.913 . S
H358 C376 0.951 . S
H359 C378 0.951 . S
H360 C380 0.950 . S
H361 C381 0.950 . S
H362 C383 0.950 . S
H363 C386 0.950 . S
H364 C387 0.950 . S
H365 C389 0.950 . S
H366 C390 0.950 . S
H367 C391 0.951 . S
H368 C393 0.951 . S
H369 C395 0.950 . S
H370 C396 0.950 . S
H371 C398 0.950 . S
H372 C401 0.950 . S
H373 C402 0.950 . S
H374 C404 0.950 . S
H375 C405 0.950 . S
C376 H358 0.951 . S
C376 C377 1.366 . S
C376 C378 1.388 . S
C377 C376 1.366 . S
C377 C381 1.385 . S
C378 H359 0.951 . S
C378 C376 1.388 . S
C378 C379 1.366 . S
C379 C378 1.366 . S
C379 C380 1.414 . S
C379 C382 1.499 . S
C380 H360 0.950 . S
C380 C379 1.414 . S
C380 C381 1.374 . S
C381 H361 0.950 . S
C381 C377 1.385 . S
C381 C380 1.374 . S
C382 C379 1.499 . S
C382 C383 1.373 . S
C382 C384 1.389 . S
C383 H362 0.950 . S
C383 C382 1.373 . S
C383 C399 1.377 . S
C384 C382 1.389 . S
C384 C385 1.524 . S
C384 C398 1.377 . S
C385 C384 1.524 . S
C385 C386 1.397 . S
C385 C390 1.363 . S
C386 H363 0.950 . S
C386 C385 1.397 . S
C386 C387 1.334 . S
C387 H364 0.950 . S
C387 C386 1.334 . S
C387 C388 1.287 . S
C388 C387 1.287 . S
C388 C389 1.524 . S
C388 H407 0.913 . S
C389 H365 0.950 . S
C389 C388 1.524 . S
C389 C390 1.415 . S
C390 H366 0.950 . S
C390 C385 1.363 . S
C390 C389 1.415 . S
C391 H367 0.951 . S
C391 C392 1.366 . S
C391 C393 1.388 . S
C392 C391 1.366 . S
C392 C396 1.385 . S
C393 H368 0.951 . S
C393 C391 1.388 . S
C393 C394 1.366 . S
C394 C393 1.366 . S
C394 C395 1.414 . S
C394 C397 1.499 . S
C395 H369 0.950 . S
C395 C394 1.414 . S
C395 C396 1.374 . S
C396 H370 0.950 . S
C396 C392 1.385 . S
C396 C395 1.374 . S
C397 C394 1.499 . S
C397 C398 1.373 . S
C397 C399 1.389 . S
C398 H371 0.950 . S
C398 C384 1.377 . S
C398 C397 1.373 . S
C399 C383 1.377 . S
C399 C397 1.389 . S
C399 C400 1.524 . S
C400 C399 1.524 . S
C400 C401 1.397 . S
C400 C405 1.363 . S
C401 H372 0.950 . S
C401 C400 1.397 . S
C401 C402 1.334 . S
C402 H373 0.950 . S
C402 C401 1.334 . S
C402 C403 1.287 . S
C403 C402 1.287 . S
C403 C404 1.524 . S
C403 H406 0.999 . S
C404 H374 0.950 . S
C404 C403 1.524 . S
C404 C405 1.415 . S
C405 H375 0.950 . S
C405 C400 1.363 . S
C405 C404 1.415 . S
H406 C403 0.999 . S
H407 C388 0.913 . S
H408 C426 0.951 . S
H409 C428 0.951 . S
H410 C430 0.950 . S
H411 C431 0.950 . S
H412 C433 0.950 . S
H413 C436 0.950 . S
H414 C437 0.950 . S
H415 C439 0.950 . S
H416 C440 0.950 . S
H417 C441 0.951 . S
H418 C443 0.951 . S
H419 C445 0.950 . S
H420 C446 0.950 . S
H421 C448 0.950 . S
H422 C451 0.950 . S
H423 C452 0.925 1_554 S
H424 C454 0.950 . S
H425 C455 0.950 . S
C426 H408 0.951 . S
C426 C427 1.366 . S
C426 C428 1.388 . S
C427 C426 1.366 . S
C427 C431 1.385 . S
C428 H409 0.951 . S
C428 C426 1.388 . S
C428 C429 1.366 . S
C429 C428 1.366 . S
C429 C430 1.414 . S
C429 C432 1.499 . S
C430 H410 0.950 . S
C430 C429 1.414 . S
C430 C431 1.374 . S
C431 H411 0.950 . S
C431 C427 1.385 . S
C431 C430 1.374 . S
C432 C429 1.499 . S
C432 C433 1.373 . S
C432 C434 1.389 . S
C433 H412 0.950 . S
C433 C432 1.373 . S
C433 C449 1.377 . S
C434 C432 1.389 . S
C434 C435 1.524 . S
C434 C448 1.377 . S
C435 C434 1.524 . S
C435 C436 1.397 . S
C435 C440 1.363 . S
C436 H413 0.950 . S
C436 C435 1.397 . S
C436 C437 1.334 . S
C437 H414 0.950 . S
C437 C436 1.334 . S
C437 C438 1.287 . S
C438 C437 1.287 . S
C438 C439 1.524 . S
C438 H457 0.913 . S
C439 H415 0.950 . S
C439 C438 1.524 . S
C439 C440 1.415 . S
C440 H416 0.950 . S
C440 C435 1.363 . S
C440 C439 1.415 . S
C441 H417 0.951 . S
C441 C442 1.366 . S
C441 C443 1.388 . S
C442 C441 1.366 . S
C442 C446 1.385 . S
C443 H418 0.951 . S
C443 C441 1.388 . S
C443 C444 1.366 . S
C444 C443 1.366 . S
C444 C445 1.414 . S
C444 C447 1.499 . S
C445 H419 0.950 . S
C445 C444 1.414 . S
C445 C446 1.374 . S
C446 H420 0.950 . S
C446 C442 1.385 . S
C446 C445 1.374 . S
C447 C444 1.499 . S
C447 C448 1.373 . S
C447 C449 1.389 . S
C448 H421 0.950 . S
C448 C434 1.377 . S
C448 C447 1.373 . S
C449 C433 1.377 . S
C449 C447 1.389 . S
C449 C450 1.524 . S
C450 C449 1.524 . S
C450 C451 1.397 . S
C450 C455 1.363 . S
C451 H422 0.950 . S
C451 C450 1.397 . S
C451 C452 1.347 . S
C452 H423 0.925 1_556 S
C452 C451 1.347 . S
C452 C453 1.300 . S
C453 C452 1.300 . S
C453 C454 1.524 . S
C453 H456 0.999 1_556 S
C454 H424 0.950 . S
C454 C453 1.524 . S
C454 C455 1.415 . S
C455 H425 0.950 . S
C455 C450 1.363 . S
C455 C454 1.415 . S
H456 C453 0.999 1_554 S
H457 C438 0.913 . S
H458 C476 0.951 . S
H459 C478 0.951 . S
H460 C480 0.950 . S
H461 C481 0.950 1_455 S
H462 C483 0.950 . S
H463 C486 0.950 . S
H464 C487 0.950 . S
H465 C489 0.950 . S
H466 C490 0.950 . S
H467 C491 0.951 . S
H468 C493 0.951 . S
H469 C495 0.950 . S
H470 C496 0.950 . S
H471 C498 0.950 . S
H472 C501 0.950 . S
H473 C502 0.950 . S
H474 C504 0.950 . S
H475 C505 0.950 . S
C476 H458 0.951 . S
C476 C477 1.366 . S
C476 C478 1.388 . S
C477 C476 1.366 . S
C477 C481 1.385 . S
C478 H459 0.951 . S
C478 C476 1.388 . S
C478 C479 1.366 . S
C479 C478 1.366 . S
C479 C480 1.414 . S
C479 C482 1.499 . S
C480 H460 0.950 . S
C480 C479 1.414 . S
C480 C481 1.374 . S
C481 H461 0.950 1_655 S
C481 C477 1.385 . S
C481 C480 1.374 . S
C482 C479 1.499 . S
C482 C483 1.373 . S
C482 C484 1.389 . S
C483 H462 0.950 . S
C483 C482 1.373 . S
C483 C499 1.377 . S
C484 C482 1.389 . S
C484 C485 1.524 . S
C484 C498 1.377 . S
C485 C484 1.524 . S
C485 C486 1.397 . S
C485 C490 1.363 . S
C486 H463 0.950 . S
C486 C485 1.397 . S
C486 C487 1.334 . S
C487 H464 0.950 . S
C487 C486 1.334 . S
C487 C488 1.287 . S
C488 C487 1.287 . S
C488 C489 1.524 . S
C488 H507 0.913 . S
C489 H465 0.950 . S
C489 C488 1.524 . S
C489 C490 1.415 . S
C490 H466 0.950 . S
C490 C485 1.363 . S
C490 C489 1.415 . S
C491 H467 0.951 . S
C491 C492 1.366 . S
C491 C493 1.388 . S
C492 C491 1.366 . S
C492 C496 1.385 . S
C493 H468 0.951 . S
C493 C491 1.388 . S
C493 C494 1.366 . S
C494 C493 1.366 . S
C494 C495 1.414 . S
C494 C497 1.499 . S
C495 H469 0.950 . S
C495 C494 1.414 . S
C495 C496 1.374 . S
C496 H470 0.950 . S
C496 C492 1.385 . S
C496 C495 1.374 . S
C497 C494 1.499 . S
C497 C498 1.373 . S
C497 C499 1.389 . S
C498 H471 0.950 . S
C498 C484 1.377 . S
C498 C497 1.373 . S
C499 C483 1.377 . S
C499 C497 1.389 . S
C499 C500 1.524 . S
C500 C499 1.524 . S
C500 C501 1.397 . S
C500 C505 1.363 . S
C501 H472 0.950 . S
C501 C500 1.397 . S
C501 C502 1.334 . S
C502 H473 0.950 . S
C502 C501 1.334 . S
C502 C503 1.287 . S
C503 C502 1.287 . S
C503 C504 1.524 . S
C503 H506 0.999 . S
C504 H474 0.950 . S
C504 C503 1.524 . S
C504 C505 1.415 . S
C505 H475 0.950 . S
C505 C500 1.363 . S
C505 C504 1.415 . S
H506 C503 0.999 . S
H507 C488 0.913 . S
H508 C526 0.951 . S
H509 C528 0.951 . S
H510 C530 0.950 . S
H511 C531 0.963 . S
H512 C533 0.950 1_455 S
H513 C536 0.950 . S
H514 C537 0.950 . S
H515 C539 0.950 . S
H516 C540 0.950 . S
H517 C541 0.951 . S
H518 C543 0.951 . S
H519 C545 0.950 . S
H520 C546 0.950 . S
H521 C548 0.950 . S
H522 C551 0.950 . S
H523 C552 0.950 . S
H524 C554 0.950 . S
H525 C555 0.950 . S
C526 H508 0.951 . S
C526 C527 1.366 . S
C526 C528 1.388 . S
C527 C526 1.366 . S
C527 C531 1.385 . S
C528 H509 0.951 . S
C528 C526 1.388 . S
C528 C529 1.366 . S
C529 C528 1.366 . S
C529 C530 1.414 . S
C529 C532 1.499 . S
C530 H510 0.950 . S
C530 C529 1.414 . S
C530 C531 1.374 . S
C531 H511 0.963 . S
C531 C527 1.385 . S
C531 C530 1.374 . S
C532 C529 1.499 . S
C532 C533 1.373 . S
C532 C534 1.389 . S
C533 H512 0.950 1_655 S
C533 C532 1.373 . S
C533 C549 1.377 . S
C534 C532 1.389 . S
C534 C535 1.524 . S
C534 C548 1.377 . S
C535 C534 1.524 . S
C535 C536 1.397 . S
C535 C540 1.363 . S
C536 H513 0.950 . S
C536 C535 1.397 . S
C536 C537 1.334 . S
C537 H514 0.950 . S
C537 C536 1.334 . S
C537 C538 1.287 . S
C538 C537 1.287 . S
C538 C539 1.524 . S
C538 H557 0.913 . S
C539 H515 0.950 . S
C539 C538 1.524 . S
C539 C540 1.415 . S
C540 H516 0.950 . S
C540 C535 1.363 . S
C540 C539 1.415 . S
C541 H517 0.951 . S
C541 C542 1.366 . S
C541 C543 1.388 . S
C542 C541 1.366 . S
C542 C546 1.385 . S
C543 H518 0.951 . S
C543 C541 1.388 . S
C543 C544 1.366 . S
C544 C543 1.366 . S
C544 C545 1.414 . S
C544 C547 1.499 . S
C545 H519 0.950 . S
C545 C544 1.414 . S
C545 C546 1.374 . S
C546 H520 0.950 . S
C546 C542 1.385 . S
C546 C545 1.374 . S
C547 C544 1.499 . S
C547 C548 1.373 . S
C547 C549 1.389 . S
C548 H521 0.950 . S
C548 C534 1.377 . S
C548 C547 1.373 . S
C549 C533 1.377 . S
C549 C547 1.389 . S
C549 C550 1.524 1_655 S
C550 C549 1.524 1_455 S
C550 C551 1.397 . S
C550 C555 1.363 . S
C551 H522 0.950 . S
C551 C550 1.397 . S
C551 C552 1.334 . S
C552 H523 0.950 . S
C552 C551 1.334 . S
C552 C553 1.287 . S
C553 C552 1.287 . S
C553 C554 1.524 . S
C553 H556 0.999 . S
C554 H524 0.950 . S
C554 C553 1.524 . S
C554 C555 1.415 . S
C555 H525 0.950 . S
C555 C550 1.363 . S
C555 C554 1.415 . S
H556 C553 0.999 . S
H557 C538 0.913 . S
H558 C576 0.951 . S
H559 C578 0.951 . S
H560 C580 0.950 . S
H561 C581 0.950 . S
H562 C583 0.950 . S
H563 C586 0.950 . S
H564 C587 0.950 . S
H565 C589 0.950 . S
H566 C590 0.950 . S
H567 C591 0.951 . S
H568 C593 0.951 . S
H569 C595 0.950 . S
H570 C596 0.950 . S
H571 C598 0.950 . S
H572 C601 0.950 . S
H573 C602 0.950 . S
H574 C604 0.950 . S
H575 C605 0.950 . S
C576 H558 0.951 . S
C576 C577 1.366 . S
C576 C578 1.388 . S
C577 C576 1.366 . S
C577 C581 1.385 . S
C578 H559 0.951 . S
C578 C576 1.388 . S
C578 C579 1.366 . S
C579 C578 1.366 . S
C579 C580 1.414 . S
C579 C582 1.499 . S
C580 H560 0.950 . S
C580 C579 1.414 . S
C580 C581 1.374 . S
C581 H561 0.950 . S
C581 C577 1.385 . S
C581 C580 1.374 . S
C582 C579 1.499 . S
C582 C583 1.373 . S
C582 C584 1.389 . S
C583 H562 0.950 . S
C583 C582 1.373 . S
C583 C599 1.377 . S
C584 C582 1.389 . S
C584 C585 1.524 . S
C584 C598 1.377 . S
C585 C584 1.524 . S
C585 C586 1.397 . S
C585 C590 1.363 . S
C586 H563 0.950 . S
C586 C585 1.397 . S
C586 C587 1.334 . S
C587 H564 0.950 . S
C587 C586 1.334 . S
C587 C588 1.287 . S
C588 C587 1.287 . S
C588 C589 1.524 . S
C588 H607 0.913 . S
C589 H565 0.950 . S
C589 C588 1.524 . S
C589 C590 1.415 . S
C590 H566 0.950 . S
C590 C585 1.363 . S
C590 C589 1.415 . S
C591 H567 0.951 . S
C591 C592 1.366 . S
C591 C593 1.388 . S
C592 C591 1.366 . S
C592 C596 1.385 . S
C593 H568 0.951 . S
C593 C591 1.388 . S
C593 C594 1.366 . S
C594 C593 1.366 . S
C594 C595 1.414 . S
C594 C597 1.499 . S
C595 H569 0.950 . S
C595 C594 1.414 . S
C595 C596 1.374 . S
C596 H570 0.950 . S
C596 C592 1.385 . S
C596 C595 1.374 . S
C597 C594 1.499 . S
C597 C598 1.373 . S
C597 C599 1.389 . S
C598 H571 0.950 . S
C598 C584 1.377 . S
C598 C597 1.373 . S
C599 C583 1.377 . S
C599 C597 1.389 . S
C599 C600 1.524 . S
C600 C599 1.524 . S
C600 C601 1.397 . S
C600 C605 1.363 . S
C601 H572 0.950 . S
C601 C600 1.397 . S
C601 C602 1.334 . S
C602 H573 0.950 . S
C602 C601 1.334 . S
C602 C603 1.287 . S
C603 C602 1.287 . S
C603 C604 1.524 . S
C603 H606 0.999 . S
C604 H574 0.950 . S
C604 C603 1.524 . S
C604 C605 1.415 . S
C605 H575 0.950 . S
C605 C600 1.363 . S
C605 C604 1.415 . S
H606 C603 0.999 . S
H607 C588 0.913 . S
H608 C626 0.951 . S
H609 C628 0.951 . S
H610 C630 0.950 . S
H611 C631 0.950 . S
H612 C633 0.950 . S
H613 C636 0.950 . S
H614 C637 0.950 . S
H615 C639 0.950 . S
H616 C640 0.950 . S
H617 C641 0.951 . S
H618 C643 0.951 . S
H619 C645 0.950 . S
H620 C646 0.950 . S
H621 C648 0.950 . S
H622 C651 0.950 . S
H623 C652 0.950 . S
H624 C654 0.950 . S
H625 C655 0.950 . S
C626 H608 0.951 . S
C626 C627 1.366 . S
C626 C628 1.388 . S
C627 C626 1.366 . S
C627 C631 1.385 . S
C628 H609 0.951 . S
C628 C626 1.388 . S
C628 C629 1.366 . S
C629 C628 1.366 . S
C629 C630 1.414 . S
C629 C632 1.499 . S
C630 H610 0.950 . S
C630 C629 1.414 . S
C630 C631 1.374 . S
C631 H611 0.950 . S
C631 C627 1.385 . S
C631 C630 1.374 . S
C632 C629 1.499 . S
C632 C633 1.373 . S
C632 C634 1.389 . S
C633 H612 0.950 . S
C633 C632 1.373 . S
C633 C649 1.377 . S
C634 C632 1.389 . S
C634 C635 1.524 . S
C634 C648 1.377 . S
C635 C634 1.524 . S
C635 C636 1.397 . S
C635 C640 1.363 . S
C636 H613 0.950 . S
C636 C635 1.397 . S
C636 C637 1.334 . S
C637 H614 0.950 . S
C637 C636 1.334 . S
C637 C638 1.287 . S
C638 C637 1.287 . S
C638 C639 1.524 . S
C638 H657 0.913 . S
C639 H615 0.950 . S
C639 C638 1.524 . S
C639 C640 1.415 . S
C640 H616 0.950 . S
C640 C635 1.363 . S
C640 C639 1.415 . S
C641 H617 0.951 . S
C641 C642 1.366 . S
C641 C643 1.388 . S
C642 C641 1.366 . S
C642 C646 1.385 . S
C643 H618 0.951 . S
C643 C641 1.388 . S
C643 C644 1.366 . S
C644 C643 1.366 . S
C644 C645 1.414 . S
C644 C647 1.499 . S
C645 H619 0.950 . S
C645 C644 1.414 . S
C645 C646 1.374 . S
C646 H620 0.950 . S
C646 C642 1.385 . S
C646 C645 1.374 . S
C647 C644 1.499 . S
C647 C648 1.373 . S
C647 C649 1.389 . S
C648 H621 0.950 . S
C648 C634 1.377 . S
C648 C647 1.373 . S
C649 C633 1.377 . S
C649 C647 1.389 . S
C649 C650 1.524 . S
C650 C649 1.524 . S
C650 C651 1.397 . S
C650 C655 1.363 . S
C651 H622 0.950 . S
C651 C650 1.397 . S
C651 C652 1.334 . S
C652 H623 0.950 . S
C652 C651 1.334 . S
C652 C653 1.287 . S
C653 C652 1.287 . S
C653 C654 1.524 . S
C653 H656 0.999 . S
C654 H624 0.950 . S
C654 C653 1.524 . S
C654 C655 1.415 . S
C655 H625 0.950 . S
C655 C650 1.363 . S
C655 C654 1.415 . S
H656 C653 0.999 . S
H657 C638 0.913 . S
H658 C676 0.951 . S
H659 C678 0.951 . S
H660 C680 0.950 1_545 S
H661 C681 0.950 1_545 S
H662 C683 0.950 1_545 S
H663 C686 0.950 . S
H664 C687 0.950 . S
H665 C689 0.950 . S
H666 C690 0.950 . S
H667 C691 0.951 1_545 S
H668 C693 0.951 1_545 S
H669 C695 0.950 1_655 S
H670 C696 0.950 . S
H671 C698 0.950 . S
H672 C701 0.950 . S
H673 C702 0.950 1_565 S
H674 C704 0.950 . S
H675 C705 0.950 . S
C676 H658 0.951 . S
C676 C677 1.366 . S
C676 C678 1.388 . S
C677 C676 1.366 . S
C677 C681 1.385 . S
C678 H659 0.951 . S
C678 C676 1.388 . S
C678 C679 1.366 . S
C679 C678 1.366 . S
C679 C680 1.414 . S
C679 C682 1.499 . S
C680 H660 0.950 1_565 S
C680 C679 1.414 . S
C680 C681 1.374 . S
C681 H661 0.950 1_565 S
C681 C677 1.385 . S
C681 C680 1.374 . S
C682 C679 1.499 . S
C682 C683 1.373 1_455 S
C682 C684 1.389 . S
C683 H662 0.950 1_565 S
C683 C682 1.373 1_655 S
C683 C699 1.377 . S
C684 C682 1.389 . S
C684 C685 1.524 . S
C684 C698 1.377 . S
C685 C684 1.524 . S
C685 C686 1.397 . S
C685 C690 1.363 . S
C686 H663 0.950 . S
C686 C685 1.397 . S
C686 C687 1.334 . S
C687 H664 0.950 . S
C687 C686 1.334 . S
C687 C688 1.287 . S
C688 C687 1.287 . S
C688 C689 1.524 . S
C688 H707 0.913 . S
C689 H665 0.950 . S
C689 C688 1.524 . S
C689 C690 1.415 . S
C690 H666 0.950 . S
C690 C685 1.363 . S
C690 C689 1.415 . S
C691 H667 0.951 1_565 S
C691 C692 1.366 . S
C691 C693 1.388 . S
C692 C691 1.366 . S
C692 C696 1.385 1_455 S
C693 H668 0.951 1_565 S
C693 C691 1.388 . S
C693 C694 1.366 . S
C694 C693 1.366 . S
C694 C695 1.414 . S
C694 C697 1.499 . S
C695 H669 0.950 1_455 S
C695 C694 1.414 . S
C695 C696 1.375 1_455 S
C696 H670 0.950 . S
C696 C692 1.385 1_655 S
C696 C695 1.375 1_655 S
C697 C694 1.499 . S
C697 C698 1.373 . S
C697 C699 1.389 1_455 S
C698 H671 0.950 . S
C698 C684 1.377 . S
C698 C697 1.373 . S
C699 C683 1.377 . S
C699 C697 1.389 1_655 S
C699 C700 1.524 1_565 S
C700 C699 1.524 1_545 S
C700 C701 1.397 1_545 S
C700 C705 1.363 . S
C701 H672 0.950 . S
C701 C700 1.397 1_565 S
C701 C702 1.334 1_565 S
C702 H673 0.950 1_545 S
C702 C701 1.334 1_545 S
C702 C703 1.287 . S
C703 C702 1.287 . S
C703 C704 1.524 . S
C703 H706 0.999 . S
C704 H674 0.950 . S
C704 C703 1.524 . S
C704 C705 1.415 . S
C705 H675 0.950 . S
C705 C700 1.363 . S
C705 C704 1.415 . S
H706 C703 0.999 . S
H707 C688 0.913 . S
H708 C726 0.951 . S
H709 C728 0.951 . S
H710 C730 0.950 . S
H711 C731 0.950 . S
H712 C733 0.950 . S
H713 C736 0.950 . S
H714 C737 0.950 . S
H715 C739 0.950 . S
H716 C740 0.950 1_554 S
H717 C741 0.951 . S
H718 C743 0.951 . S
H719 C745 0.950 . S
H720 C746 0.950 . S
H721 C748 0.950 . S
H722 C751 0.950 . S
H723 C752 0.950 . S
H724 C754 0.950 . S
H725 C755 0.950 . S
C726 H708 0.951 . S
C726 C727 1.366 . S
C726 C728 1.388 . S
C727 C726 1.366 . S
C727 C731 1.385 . S
C728 H709 0.951 . S
C728 C726 1.388 . S
C728 C729 1.366 . S
C729 C728 1.366 . S
C729 C730 1.414 . S
C729 C732 1.499 . S
C730 H710 0.950 . S
C730 C729 1.414 . S
C730 C731 1.374 . S
C731 H711 0.950 . S
C731 C727 1.385 . S
C731 C730 1.374 . S
C732 C729 1.499 . S
C732 C733 1.373 1_556 S
C732 C734 1.389 1_556 S
C733 H712 0.950 . S
C733 C732 1.373 1_554 S
C733 C749 1.377 . S
C734 C732 1.389 1_554 S
C734 C735 1.524 1_554 S
C734 C748 1.377 . S
C735 C734 1.524 1_556 S
C735 C736 1.397 . S
C735 C740 1.363 . S
C736 H713 0.950 . S
C736 C735 1.397 . S
C736 C737 1.334 . S
C737 H714 0.950 . S
C737 C736 1.334 . S
C737 C738 1.287 . S
C738 C737 1.287 . S
C738 C739 1.524 . S
C738 H757 0.913 . S
C739 H715 0.950 . S
C739 C738 1.524 . S
C739 C740 1.415 . S
C740 H716 0.950 1_556 S
C740 C735 1.363 . S
C740 C739 1.415 . S
C741 H717 0.951 . S
C741 C742 1.366 . S
C741 C743 1.388 . S
C742 C741 1.366 . S
C742 C746 1.385 . S
C743 H718 0.951 . S
C743 C741 1.388 . S
C743 C744 1.366 . S
C744 C743 1.366 . S
C744 C745 1.414 . S
C744 C747 1.499 . S
C745 H719 0.950 . S
C745 C744 1.414 . S
C745 C746 1.374 . S
C746 H720 0.950 . S
C746 C742 1.385 . S
C746 C745 1.374 . S
C747 C744 1.499 . S
C747 C748 1.373 . S
C747 C749 1.389 . S
C748 H721 0.950 . S
C748 C734 1.377 . S
C748 C747 1.373 . S
C749 C733 1.377 . S
C749 C747 1.389 . S
C749 C750 1.524 . S
C750 C749 1.524 . S
C750 C751 1.397 . S
C750 C755 1.363 . S
C751 H722 0.950 . S
C751 C750 1.397 . S
C751 C752 1.334 . S
C752 H723 0.950 . S
C752 C751 1.334 . S
C752 C753 1.287 . S
C753 C752 1.287 . S
C753 C754 1.524 . S
C753 H756 0.999 . S
C754 H724 0.950 . S
C754 C753 1.524 . S
C754 C755 1.415 . S
C755 H725 0.950 . S
C755 C750 1.363 . S
C755 C754 1.415 . S
H756 C753 0.999 . S
H757 C738 0.913 . S
H758 C776 0.951 . S
H759 C778 0.951 . S
H760 C780 0.950 . S
H761 C781 0.950 . S
H762 C783 0.950 . S
H763 C786 0.950 . S
H764 C787 0.950 . S
H765 C789 0.950 . S
H766 C790 0.950 . S
H767 C791 0.951 . S
H768 C793 0.951 . S
H769 C795 0.950 . S
H770 C796 0.950 . S
H771 C798 0.950 . S
H772 C801 0.950 1_565 S
H773 C802 0.950 . S
H774 C804 0.950 . S
H775 C805 0.950 . S
C776 H758 0.951 . S
C776 C777 1.366 . S
C776 C778 1.388 . S
C777 C776 1.366 . S
C777 C781 1.385 1_565 S
C778 H759 0.951 . S
C778 C776 1.388 . S
C778 C779 1.366 . S
C779 C778 1.366 . S
C779 C780 1.414 1_565 S
C779 C782 1.499 . S
C780 H760 0.950 . S
C780 C779 1.414 1_545 S
C780 C781 1.374 . S
C781 H761 0.950 . S
C781 C777 1.385 1_545 S
C781 C780 1.374 . S
C782 C779 1.499 . S
C782 C783 1.373 1_565 S
C782 C784 1.389 . S
C783 H762 0.950 . S
C783 C782 1.373 1_545 S
C783 C799 1.377 . S
C784 C782 1.389 . S
C784 C785 1.524 . S
C784 C798 1.377 . S
C785 C784 1.524 . S
C785 C786 1.397 . S
C785 C790 1.363 . S
C786 H763 0.950 . S
C786 C785 1.397 . S
C786 C787 1.334 . S
C787 H764 0.950 . S
C787 C786 1.334 . S
C787 C788 1.287 . S
C788 C787 1.287 . S
C788 C789 1.524 . S
C788 H807 0.913 . S
C789 H765 0.950 . S
C789 C788 1.524 . S
C789 C790 1.415 . S
C790 H766 0.950 . S
C790 C785 1.363 . S
C790 C789 1.415 . S
C791 H767 0.951 . S
C791 C792 1.366 1_545 S
C791 C793 1.388 . S
C792 C791 1.366 1_565 S
C792 C796 1.385 . S
C793 H768 0.951 . S
C793 C791 1.388 . S
C793 C794 1.366 1_545 S
C794 C793 1.366 1_565 S
C794 C795 1.414 . S
C794 C797 1.499 . S
C795 H769 0.950 . S
C795 C794 1.414 . S
C795 C796 1.374 . S
C796 H770 0.950 . S
C796 C792 1.385 . S
C796 C795 1.374 . S
C797 C794 1.499 . S
C797 C798 1.373 . S
C797 C799 1.389 1_565 S
C798 H771 0.950 . S
C798 C784 1.377 . S
C798 C797 1.373 . S
C799 C783 1.377 . S
C799 C797 1.389 1_545 S
C799 C800 1.524 . S
C800 C799 1.524 . S
C800 C801 1.397 . S
C800 C805 1.363 . S
C801 H772 0.950 1_545 S
C801 C800 1.397 . S
C801 C802 1.334 . S
C802 H773 0.950 . S
C802 C801 1.334 . S
C802 C803 1.287 . S
C803 C802 1.287 . S
C803 C804 1.524 . S
C803 H806 0.999 . S
C804 H774 0.950 . S
C804 C803 1.524 . S
C804 C805 1.415 . S
C805 H775 0.950 . S
C805 C800 1.363 . S
C805 C804 1.415 . S
H806 C803 0.999 . S
H807 C788 0.913 . S
H808 C826 0.951 . S
H809 C828 0.951 . S
H810 C830 0.950 . S
H811 C831 0.950 . S
H812 C833 0.950 . S
H813 C836 0.950 . S
H814 C837 0.950 . S
H815 C839 0.950 . S
H816 C840 0.950 . S
H817 C841 0.951 . S
H818 C843 0.951 . S
H819 C845 0.950 . S
H820 C846 0.950 . S
H821 C848 0.950 . S
H822 C851 0.950 . S
H823 C852 0.950 . S
H824 C854 0.950 . S
H825 C855 0.950 . S
C826 H808 0.951 . S
C826 C827 1.366 . S
C826 C828 1.388 . S
C827 C826 1.366 . S
C827 C831 1.385 . S
C828 H809 0.951 . S
C828 C826 1.388 . S
C828 C829 1.366 . S
C829 C828 1.366 . S
C829 C830 1.414 . S
C829 C832 1.499 . S
C830 H810 0.950 . S
C830 C829 1.414 . S
C830 C831 1.374 . S
C831 H811 0.950 . S
C831 C827 1.385 . S
C831 C830 1.374 . S
C832 C829 1.499 . S
C832 C833 1.373 . S
C832 C834 1.389 . S
C833 H812 0.950 . S
C833 C832 1.373 . S
C833 C849 1.377 . S
C834 C832 1.389 . S
C834 C835 1.524 . S
C834 C848 1.377 . S
C835 C834 1.524 . S
C835 C836 1.397 . S
C835 C840 1.363 . S
C836 H813 0.950 . S
C836 C835 1.397 . S
C836 C837 1.334 . S
C837 H814 0.950 . S
C837 C836 1.334 . S
C837 C838 1.287 . S
C838 C837 1.287 . S
C838 C839 1.524 . S
C838 H857 0.913 . S
C839 H815 0.950 . S
C839 C838 1.524 . S
C839 C840 1.415 . S
C840 H816 0.950 . S
C840 C835 1.363 . S
C840 C839 1.415 . S
C841 H817 0.951 . S
C841 C842 1.366 . S
C841 C843 1.388 . S
C842 C841 1.366 . S
C842 C846 1.385 . S
C843 H818 0.951 . S
C843 C841 1.388 . S
C843 C844 1.366 . S
C844 C843 1.366 . S
C844 C845 1.414 . S
C844 C847 1.499 . S
C845 H819 0.950 . S
C845 C844 1.414 . S
C845 C846 1.374 . S
C846 H820 0.950 . S
C846 C842 1.385 . S
C846 C845 1.374 . S
C847 C844 1.499 . S
C847 C848 1.373 . S
C847 C849 1.389 . S
C848 H821 0.950 . S
C848 C834 1.377 . S
C848 C847 1.373 . S
C849 C833 1.377 . S
C849 C847 1.389 . S
C849 C850 1.524 . S
C850 C849 1.524 . S
C850 C851 1.397 . S
C850 C855 1.363 . S
C851 H822 0.950 . S
C851 C850 1.397 . S
C851 C852 1.334 . S
C852 H823 0.950 . S
C852 C851 1.334 . S
C852 C853 1.287 . S
C853 C852 1.287 . S
C853 C854 1.524 . S
C853 H856 0.999 . S
C854 H824 0.950 . S
C854 C853 1.524 . S
C854 C855 1.415 . S
C855 H825 0.950 . S
C855 C850 1.363 . S
C855 C854 1.415 . S
H856 C853 0.999 . S
H857 C838 0.913 . S
H858 C876 0.951 . S
H859 C878 0.951 . S
H860 C880 0.950 . S
H861 C881 0.950 . S
H862 C883 0.950 . S
H863 C886 0.950 . S
H864 C887 0.950 . S
H865 C889 0.950 . S
H866 C890 0.950 . S
H867 C891 0.951 . S
H868 C893 0.951 . S
H869 C895 0.950 . S
H870 C896 0.950 . S
H871 C898 0.950 . S
H872 C901 0.950 . S
H873 C902 0.950 . S
H874 C904 0.950 . S
H875 C905 0.950 . S
C876 H858 0.951 . S
C876 C877 1.366 . S
C876 C878 1.388 . S
C877 C876 1.366 . S
C877 C881 1.385 1_655 S
C878 H859 0.951 . S
C878 C876 1.388 . S
C878 C879 1.366 . S
C879 C878 1.366 . S
C879 C880 1.414 1_655 S
C879 C882 1.499 . S
C880 H860 0.950 . S
C880 C879 1.414 1_455 S
C880 C881 1.374 . S
C881 H861 0.950 . S
C881 C877 1.385 1_455 S
C881 C880 1.374 . S
C882 C879 1.499 . S
C882 C883 1.373 1_655 S
C882 C884 1.389 . S
C883 H862 0.950 . S
C883 C882 1.373 1_455 S
C883 C899 1.377 . S
C884 C882 1.389 . S
C884 C885 1.524 . S
C884 C898 1.377 . S
C885 C884 1.524 . S
C885 C886 1.397 . S
C885 C890 1.363 . S
C886 H863 0.950 . S
C886 C885 1.397 . S
C886 C887 1.334 . S
C887 H864 0.950 . S
C887 C886 1.334 . S
C887 C888 1.287 . S
C888 C887 1.287 . S
C888 C889 1.524 . S
C888 H907 0.913 . S
C889 H865 0.950 . S
C889 C888 1.524 . S
C889 C890 1.415 . S
C890 H866 0.950 . S
C890 C885 1.363 . S
C890 C889 1.415 . S
C891 H867 0.951 . S
C891 C892 1.366 1_455 S
C891 C893 1.388 . S
C892 C891 1.366 1_655 S
C892 C896 1.385 . S
C893 H868 0.951 . S
C893 C891 1.388 . S
C893 C894 1.366 1_455 S
C894 C893 1.366 1_655 S
C894 C895 1.414 . S
C894 C897 1.499 . S
C895 H869 0.950 . S
C895 C894 1.414 . S
C895 C896 1.374 . S
C896 H870 0.950 . S
C896 C892 1.385 . S
C896 C895 1.374 . S
C897 C894 1.499 . S
C897 C898 1.373 . S
C897 C899 1.389 1_655 S
C898 H871 0.950 . S
C898 C884 1.377 . S
C898 C897 1.373 . S
C899 C883 1.377 . S
C899 C897 1.389 1_455 S
C899 C900 1.524 . S
C900 C899 1.524 . S
C900 C901 1.397 . S
C900 C905 1.363 . S
C901 H872 0.950 . S
C901 C900 1.397 . S
C901 C902 1.334 . S
C902 H873 0.950 . S
C902 C901 1.334 . S
C902 C903 1.287 . S
C903 C902 1.287 . S
C903 C904 1.524 . S
C903 H906 0.999 . S
C904 H874 0.950 . S
C904 C903 1.524 . S
C904 C905 1.415 . S
C905 H875 0.950 . S
C905 C900 1.363 . S
C905 C904 1.415 . S
H906 C903 0.999 . S
H907 C888 0.913 . S
H908 C926 0.951 . S
H909 C928 0.949 1_455 S
H910 C930 0.950 . S
H911 C931 0.950 . S
H912 C933 0.950 . S
H913 C936 0.950 . S
H914 C937 0.950 1_655 S
H915 C939 0.950 . S
H916 C940 0.950 . S
H917 C941 0.951 . S
H918 C943 0.951 . S
H919 C945 0.950 . S
H920 C946 0.950 . S
H921 C948 0.950 . S
H922 C951 0.950 . S
H923 C952 0.950 . S
H924 C954 0.950 . S
H925 C955 0.950 . S
C926 H908 0.951 . S
C926 C927 1.366 . S
C926 C928 1.388 . S
C927 C926 1.366 . S
C927 C931 1.385 . S
C928 H909 0.949 1_655 S
C928 C926 1.388 . S
C928 C929 1.366 . S
C929 C928 1.366 . S
C929 C930 1.414 . S
C929 C932 1.499 1_655 S
C930 H910 0.950 . S
C930 C929 1.414 . S
C930 C931 1.374 . S
C931 H911 0.950 . S
C931 C927 1.385 . S
C931 C930 1.374 . S
C932 C929 1.499 1_455 S
C932 C933 1.373 . S
C932 C934 1.389 . S
C933 H912 0.950 . S
C933 C932 1.373 . S
C933 C949 1.377 . S
C934 C932 1.389 . S
C934 C935 1.524 . S
C934 C948 1.377 . S
C935 C934 1.524 . S
C935 C936 1.397 . S
C935 C940 1.363 . S
C936 H913 0.950 . S
C936 C935 1.397 . S
C936 C937 1.334 . S
C937 H914 0.950 1_455 S
C937 C936 1.334 . S
C937 C938 1.287 . S
C938 C937 1.287 . S
C938 C939 1.524 . S
C938 H957 0.913 . S
C939 H915 0.950 . S
C939 C938 1.524 . S
C939 C940 1.415 . S
C940 H916 0.950 . S
C940 C935 1.363 . S
C940 C939 1.415 . S
C941 H917 0.951 . S
C941 C942 1.366 . S
C941 C943 1.388 . S
C942 C941 1.366 . S
C942 C946 1.385 . S
C943 H918 0.951 . S
C943 C941 1.388 . S
C943 C944 1.366 . S
C944 C943 1.366 . S
C944 C945 1.414 . S
C944 C947 1.499 . S
C945 H919 0.950 . S
C945 C944 1.414 . S
C945 C946 1.374 . S
C946 H920 0.950 . S
C946 C942 1.385 . S
C946 C945 1.374 . S
C947 C944 1.499 . S
C947 C948 1.373 . S
C947 C949 1.389 . S
C948 H921 0.950 . S
C948 C934 1.377 . S
C948 C947 1.373 . S
C949 C933 1.377 . S
C949 C947 1.389 . S
C949 C950 1.524 . S
C950 C949 1.524 . S
C950 C951 1.397 . S
C950 C955 1.363 . S
C951 H922 0.950 . S
C951 C950 1.397 . S
C951 C952 1.334 . S
C952 H923 0.950 . S
C952 C951 1.334 . S
C952 C953 1.287 . S
C953 C952 1.287 . S
C953 C954 1.524 . S
C953 H956 0.999 . S
C954 H924 0.950 . S
C954 C953 1.524 . S
C954 C955 1.415 . S
C955 H925 0.950 . S
C955 C950 1.363 . S
C955 C954 1.415 . S
H956 C953 0.999 . S
H957 C938 0.913 . S
H958 C976 0.951 . S
H959 C978 0.951 . S
H960 C980 0.950 . S
H961 C981 0.950 . S
H962 C983 0.950 . S
H963 C986 0.950 . S
H964 C987 0.950 . S
H965 C989 0.950 . S
H966 C990 0.950 . S
H967 C991 0.951 . S
H968 C993 0.951 . S
H969 C995 0.950 . S
H970 C996 0.950 . S
H971 C998 0.950 . S
H972 C1001 0.950 . S
H973 C1002 0.950 . S
H974 C1004 0.950 . S
H975 C1005 0.950 . S
C976 H958 0.951 . S
C976 C977 1.366 . S
C976 C978 1.388 . S
C977 C976 1.366 . S
C977 C981 1.385 . S
C978 H959 0.951 . S
C978 C976 1.388 . S
C978 C979 1.366 . S
C979 C978 1.366 . S
C979 C980 1.414 . S
C979 C982 1.499 . S
C980 H960 0.950 . S
C980 C979 1.414 . S
C980 C981 1.374 . S
C981 H961 0.950 . S
C981 C977 1.385 . S
C981 C980 1.374 . S
C982 C979 1.499 . S
C982 C983 1.373 . S
C982 C984 1.389 1_554 S
C983 H962 0.950 . S
C983 C982 1.373 . S
C983 C999 1.377 . S
C984 C982 1.389 1_556 S
C984 C985 1.524 . S
C984 C998 1.377 . S
C985 C984 1.524 . S
C985 C986 1.397 . S
C985 C990 1.363 . S
C986 H963 0.950 . S
C986 C985 1.397 . S
C986 C987 1.334 . S
C987 H964 0.950 . S
C987 C986 1.334 . S
C987 C988 1.287 . S
C988 C987 1.287 . S
C988 C989 1.524 . S
C988 H1007 0.913 . S
C989 H965 0.950 . S
C989 C988 1.524 . S
C989 C990 1.415 . S
C990 H966 0.950 . S
C990 C985 1.363 . S
C990 C989 1.415 . S
C991 H967 0.951 . S
C991 C992 1.366 . S
C991 C993 1.388 . S
C992 C991 1.366 . S
C992 C996 1.385 . S
C993 H968 0.951 . S
C993 C991 1.388 . S
C993 C994 1.366 . S
C994 C993 1.366 . S
C994 C995 1.414 . S
C994 C997 1.499 . S
C995 H969 0.950 . S
C995 C994 1.414 . S
C995 C996 1.374 . S
C996 H970 0.950 . S
C996 C992 1.385 . S
C996 C995 1.374 . S
C997 C994 1.499 . S
C997 C998 1.373 1_554 S
C997 C999 1.389 . S
C998 H971 0.950 . S
C998 C984 1.377 . S
C998 C997 1.373 1_556 S
C999 C983 1.377 . S
C999 C997 1.389 . S
C999 C1000 1.524 . S
C1000 C999 1.524 . S
C1000 C1001 1.397 . S
C1000 C1005 1.363 . S
C1001 H972 0.950 . S
C1001 C1000 1.397 . S
C1001 C1002 1.334 . S
C1002 H973 0.950 . S
C1002 C1001 1.334 . S
C1002 C1003 1.287 . S
C1003 C1002 1.287 . S
C1003 C1004 1.524 . S
C1003 H1006 0.999 . S
C1004 H974 0.950 . S
C1004 C1003 1.524 . S
C1004 C1005 1.415 . S
C1005 H975 0.950 . S
C1005 C1000 1.363 . S
C1005 C1004 1.415 . S
H1006 C1003 0.999 . S
H1007 C988 0.913 . S
H1008 C1026 0.951 . S
H1009 C1028 0.951 . S
H1010 C1030 0.950 . S
H1011 C1031 0.950 . S
H1012 C1033 0.950 . S
H1013 C1036 0.950 . S
H1014 C1037 0.950 . S
H1015 C1039 0.950 . S
H1016 C1040 0.950 . S
H1017 C1041 0.951 . S
H1018 C1043 0.951 . S
H1019 C1045 0.950 . S
H1020 C1046 0.950 . S
H1021 C1048 0.950 . S
H1022 C1051 0.950 . S
H1023 C1052 0.950 . S
H1024 C1054 0.950 . S
H1025 C1055 0.950 . S
C1026 H1008 0.951 . S
C1026 C1027 1.366 . S
C1026 C1028 1.388 . S
C1027 C1026 1.366 . S
C1027 C1031 1.385 . S
C1028 H1009 0.951 . S
C1028 C1026 1.388 . S
C1028 C1029 1.366 . S
C1029 C1028 1.366 . S
C1029 C1030 1.414 . S
C1029 C1032 1.499 . S
C1030 H1010 0.950 . S
C1030 C1029 1.414 . S
C1030 C1031 1.374 . S
C1031 H1011 0.950 . S
C1031 C1027 1.385 . S
C1031 C1030 1.374 . S
C1032 C1029 1.499 . S
C1032 C1033 1.373 . S
C1032 C1034 1.389 . S
C1033 H1012 0.950 . S
C1033 C1032 1.373 . S
C1033 C1049 1.377 . S
C1034 C1032 1.389 . S
C1034 C1035 1.524 . S
C1034 C1048 1.377 . S
C1035 C1034 1.524 . S
C1035 C1036 1.397 . S
C1035 C1040 1.363 . S
C1036 H1013 0.950 . S
C1036 C1035 1.397 . S
C1036 C1037 1.334 . S
C1037 H1014 0.950 . S
C1037 C1036 1.334 . S
C1037 C1038 1.287 . S
C1038 C1037 1.287 . S
C1038 C1039 1.524 . S
C1038 H1057 0.913 . S
C1039 H1015 0.950 . S
C1039 C1038 1.524 . S
C1039 C1040 1.415 . S
C1040 H1016 0.950 . S
C1040 C1035 1.363 . S
C1040 C1039 1.415 . S
C1041 H1017 0.951 . S
C1041 C1042 1.366 . S
C1041 C1043 1.388 . S
C1042 C1041 1.366 . S
C1042 C1046 1.385 . S
C1043 H1018 0.951 . S
C1043 C1041 1.388 . S
C1043 C1044 1.366 . S
C1044 C1043 1.366 . S
C1044 C1045 1.414 . S
C1044 C1047 1.499 . S
C1045 H1019 0.950 . S
C1045 C1044 1.414 . S
C1045 C1046 1.374 . S
C1046 H1020 0.950 . S
C1046 C1042 1.385 . S
C1046 C1045 1.374 . S
C1047 C1044 1.499 . S
C1047 C1048 1.373 . S
C1047 C1049 1.389 . S
C1048 H1021 0.950 . S
C1048 C1034 1.377 . S
C1048 C1047 1.373 . S
C1049 C1033 1.377 . S
C1049 C1047 1.389 . S
C1049 C1050 1.524 . S
C1050 C1049 1.524 . S
C1050 C1051 1.397 . S
C1050 C1055 1.363 . S
C1051 H1022 0.950 . S
C1051 C1050 1.397 . S
C1051 C1052 1.334 . S
C1052 H1023 0.950 . S
C1052 C1051 1.334 . S
C1052 C1053 1.287 . S
C1053 C1052 1.287 . S
C1053 C1054 1.524 . S
C1053 H1056 0.999 . S
C1054 H1024 0.950 . S
C1054 C1053 1.524 . S
C1054 C1055 1.415 . S
C1055 H1025 0.950 . S
C1055 C1050 1.363 . S
C1055 C1054 1.415 . S
H1056 C1053 0.999 . S
H1057 C1038 0.913 . S
H1058 C1076 0.951 . S
H1059 C1078 0.951 . S
H1060 C1080 0.950 . S
H1061 C1081 0.950 . S
H1062 C1083 0.950 . S
H1063 C1086 0.950 . S
H1064 C1087 0.950 . S
H1065 C1089 0.950 . S
H1066 C1090 0.950 . S
H1067 C1091 0.951 . S
H1068 C1093 0.951 . S
H1069 C1095 0.950 . S
H1070 C1096 0.950 . S
H1071 C1098 0.950 . S
H1072 C1101 0.950 . S
H1073 C1102 0.950 . S
H1074 C1104 0.950 . S
H1075 C1105 0.950 . S
C1076 H1058 0.951 . S
C1076 C1077 1.366 . S
C1076 C1078 1.388 . S
C1077 C1076 1.366 . S
C1077 C1081 1.385 . S
C1078 H1059 0.951 . S
C1078 C1076 1.388 . S
C1078 C1079 1.366 . S
C1079 C1078 1.366 . S
C1079 C1080 1.414 . S
C1079 C1082 1.499 . S
C1080 H1060 0.950 . S
C1080 C1079 1.414 . S
C1080 C1081 1.374 . S
C1081 H1061 0.950 . S
C1081 C1077 1.385 . S
C1081 C1080 1.374 . S
C1082 C1079 1.499 . S
C1082 C1083 1.373 . S
C1082 C1084 1.389 . S
C1083 H1062 0.950 . S
C1083 C1082 1.373 . S
C1083 C1099 1.377 . S
C1084 C1082 1.389 . S
C1084 C1085 1.524 . S
C1084 C1098 1.377 . S
C1085 C1084 1.524 . S
C1085 C1086 1.397 . S
C1085 C1090 1.363 . S
C1086 H1063 0.950 . S
C1086 C1085 1.397 . S
C1086 C1087 1.334 . S
C1087 H1064 0.950 . S
C1087 C1086 1.334 . S
C1087 C1088 1.287 . S
C1088 C1087 1.287 . S
C1088 C1089 1.524 . S
C1088 H1107 0.913 . S
C1089 H1065 0.950 . S
C1089 C1088 1.524 . S
C1089 C1090 1.415 . S
C1090 H1066 0.950 . S
C1090 C1085 1.363 . S
C1090 C1089 1.415 . S
C1091 H1067 0.951 . S
C1091 C1092 1.366 . S
C1091 C1093 1.388 . S
C1092 C1091 1.366 . S
C1092 C1096 1.385 . S
C1093 H1068 0.951 . S
C1093 C1091 1.388 . S
C1093 C1094 1.366 . S
C1094 C1093 1.366 . S
C1094 C1095 1.414 . S
C1094 C1097 1.499 . S
C1095 H1069 0.950 . S
C1095 C1094 1.414 . S
C1095 C1096 1.374 . S
C1096 H1070 0.950 . S
C1096 C1092 1.385 . S
C1096 C1095 1.374 . S
C1097 C1094 1.499 . S
C1097 C1098 1.373 . S
C1097 C1099 1.389 . S
C1098 H1071 0.950 . S
C1098 C1084 1.377 . S
C1098 C1097 1.373 . S
C1099 C1083 1.377 . S
C1099 C1097 1.389 . S
C1099 C1100 1.524 . S
C1100 C1099 1.524 . S
C1100 C1101 1.397 . S
C1100 C1105 1.363 . S
C1101 H1072 0.950 . S
C1101 C1100 1.397 . S
C1101 C1102 1.334 . S
C1102 H1073 0.950 . S
C1102 C1101 1.334 . S
C1102 C1103 1.287 . S
C1103 C1102 1.287 . S
C1103 C1104 1.524 . S
C1103 H1106 0.999 . S
C1104 H1074 0.950 . S
C1104 C1103 1.524 . S
C1104 C1105 1.415 . S
C1105 H1075 0.950 . S
C1105 C1100 1.363 . S
C1105 C1104 1.415 . S
H1106 C1103 0.999 . S
H1107 C1088 0.913 . S
H1108 C1126 0.951 . S
H1109 C1128 0.951 . S
H1110 C1130 0.950 . S
H1111 C1131 0.950 . S
H1112 C1133 0.950 . S
H1113 C1136 0.950 . S
H1114 C1137 0.950 . S
H1115 C1139 0.950 . S
H1116 C1140 0.950 . S
H1117 C1141 0.951 . S
H1118 C1143 0.951 . S
H1119 C1145 0.950 . S
H1120 C1146 0.950 . S
H1121 C1148 0.950 . S
H1122 C1151 0.950 . S
H1123 C1152 0.950 . S
H1124 C1154 0.950 . S
H1125 C1155 0.950 . S
C1126 H1108 0.951 . S
C1126 C1127 1.366 . S
C1126 C1128 1.388 . S
C1127 C1126 1.366 . S
C1127 C1131 1.385 . S
C1128 H1109 0.951 . S
C1128 C1126 1.388 . S
C1128 C1129 1.366 . S
C1129 C1128 1.366 . S
C1129 C1130 1.414 . S
C1129 C1132 1.499 . S
C1130 H1110 0.950 . S
C1130 C1129 1.414 . S
C1130 C1131 1.374 . S
C1131 H1111 0.950 . S
C1131 C1127 1.385 . S
C1131 C1130 1.374 . S
C1132 C1129 1.499 . S
C1132 C1133 1.373 . S
C1132 C1134 1.389 . S
C1133 H1112 0.950 . S
C1133 C1132 1.373 . S
C1133 C1149 1.377 . S
C1134 C1132 1.389 . S
C1134 C1135 1.524 . S
C1134 C1148 1.377 . S
C1135 C1134 1.524 . S
C1135 C1136 1.397 . S
C1135 C1140 1.363 . S
C1136 H1113 0.950 . S
C1136 C1135 1.397 . S
C1136 C1137 1.334 . S
C1137 H1114 0.950 . S
C1137 C1136 1.334 . S
C1137 C1138 1.287 . S
C1138 C1137 1.287 . S
C1138 C1139 1.524 . S
C1138 H1157 0.913 . S
C1139 H1115 0.950 . S
C1139 C1138 1.524 . S
C1139 C1140 1.415 . S
C1140 H1116 0.950 . S
C1140 C1135 1.363 . S
C1140 C1139 1.415 . S
C1141 H1117 0.951 . S
C1141 C1142 1.366 . S
C1141 C1143 1.388 1_655 S
C1142 C1141 1.366 . S
C1142 C1146 1.385 . S
C1143 H1118 0.951 . S
C1143 C1141 1.388 1_455 S
C1143 C1144 1.366 . S
C1144 C1143 1.366 . S
C1144 C1145 1.414 . S
C1144 C1147 1.499 . S
C1145 H1119 0.950 . S
C1145 C1144 1.414 . S
C1145 C1146 1.374 1_455 S
C1146 H1120 0.950 . S
C1146 C1142 1.385 . S
C1146 C1145 1.374 1_655 S
C1147 C1144 1.499 . S
C1147 C1148 1.373 . S
C1147 C1149 1.389 . S
C1148 H1121 0.950 . S
C1148 C1134 1.377 . S
C1148 C1147 1.373 . S
C1149 C1133 1.377 . S
C1149 C1147 1.389 . S
C1149 C1150 1.524 . S
C1150 C1149 1.524 . S
C1150 C1151 1.397 . S
C1150 C1155 1.363 . S
C1151 H1122 0.950 . S
C1151 C1150 1.397 . S
C1151 C1152 1.334 . S
C1152 H1123 0.950 . S
C1152 C1151 1.334 . S
C1152 C1153 1.287 . S
C1153 C1152 1.287 . S
C1153 C1154 1.524 . S
C1153 H1156 0.999 . S
C1154 H1124 0.950 . S
C1154 C1153 1.524 . S
C1154 C1155 1.415 . S
C1155 H1125 0.950 . S
C1155 C1150 1.363 . S
C1155 C1154 1.415 . S
H1156 C1153 0.999 . S
H1157 C1138 0.913 . S
H1158 C1176 0.951 . S
H1159 C1178 0.951 . S
H1160 C1180 0.950 . S
H1161 C1181 0.950 . S
H1162 C1183 0.950 . S
H1163 C1186 0.950 . S
H1164 C1187 0.950 . S
H1165 C1189 0.950 . S
H1166 C1190 0.950 . S
H1167 C1191 0.951 . S
H1168 C1193 0.951 . S
H1169 C1195 0.950 . S
H1170 C1196 0.950 . S
H1171 C1198 0.950 . S
H1172 C1201 0.950 . S
H1173 C1202 0.950 . S
H1174 C1204 0.950 . S
H1175 C1205 0.950 . S
C1176 H1158 0.951 . S
C1176 C1177 1.366 1_655 S
C1176 C1178 1.388 . S
C1177 C1176 1.366 1_455 S
C1177 C1181 1.385 . S
C1178 H1159 0.951 . S
C1178 C1176 1.388 . S
C1178 C1179 1.366 1_655 S
C1179 C1178 1.366 1_455 S
C1179 C1180 1.414 . S
C1179 C1182 1.499 . S
C1180 H1160 0.950 . S
C1180 C1179 1.414 . S
C1180 C1181 1.374 . S
C1181 H1161 0.950 . S
C1181 C1177 1.385 . S
C1181 C1180 1.374 . S
C1182 C1179 1.499 . S
C1182 C1183 1.373 . S
C1182 C1184 1.389 1_455 S
C1183 H1162 0.950 . S
C1183 C1182 1.373 . S
C1183 C1199 1.377 . S
C1184 C1182 1.389 1_655 S
C1184 C1185 1.524 . S
C1184 C1198 1.377 . S
C1185 C1184 1.524 . S
C1185 C1186 1.397 . S
C1185 C1190 1.363 . S
C1186 H1163 0.950 . S
C1186 C1185 1.397 . S
C1186 C1187 1.334 1_556 S
C1187 H1164 0.950 . S
C1187 C1186 1.334 1_554 S
C1187 C1188 1.287 . S
C1188 C1187 1.287 . S
C1188 C1189 1.524 1_554 S
C1188 H1207 0.913 . S
C1189 H1165 0.950 . S
C1189 C1188 1.524 1_556 S
C1189 C1190 1.415 . S
C1190 H1166 0.950 . S
C1190 C1185 1.363 . S
C1190 C1189 1.415 . S
C1191 H1167 0.951 . S
C1191 C1192 1.366 1_455 S
C1191 C1193 1.388 . S
C1192 C1191 1.366 1_655 S
C1192 C1196 1.385 . S
C1193 H1168 0.951 . S
C1193 C1191 1.388 . S
C1193 C1194 1.366 1_455 S
C1194 C1193 1.366 1_655 S
C1194 C1195 1.414 . S
C1194 C1197 1.499 . S
C1195 H1169 0.950 . S
C1195 C1194 1.414 . S
C1195 C1196 1.374 . S
C1196 H1170 0.950 . S
C1196 C1192 1.385 . S
C1196 C1195 1.374 . S
C1197 C1194 1.499 . S
C1197 C1198 1.373 . S
C1197 C1199 1.389 1_655 S
C1198 H1171 0.950 . S
C1198 C1184 1.377 . S
C1198 C1197 1.373 . S
C1199 C1183 1.377 . S
C1199 C1197 1.389 1_455 S
C1199 C1200 1.524 . S
C1200 C1199 1.524 . S
C1200 C1201 1.397 . S
C1200 C1205 1.363 . S
C1201 H1172 0.950 . S
C1201 C1200 1.397 . S
C1201 C1202 1.334 . S
C1202 H1173 0.950 . S
C1202 C1201 1.334 . S
C1202 C1203 1.287 . S
C1203 C1202 1.287 . S
C1203 C1204 1.524 . S
C1203 H1206 0.999 . S
C1204 H1174 0.950 . S
C1204 C1203 1.524 . S
C1204 C1205 1.415 . S
C1205 H1175 0.950 . S
C1205 C1200 1.363 . S
C1205 C1204 1.415 . S
H1206 C1203 0.999 . S
H1207 C1188 0.913 . S
H1208 C1226 0.951 . S
H1209 C1228 0.951 . S
H1210 C1230 0.950 . S
H1211 C1231 0.950 . S
H1212 C1233 0.950 . S
H1213 C1236 0.950 . S
H1214 C1237 0.950 . S
H1215 C1239 0.950 . S
H1216 C1240 0.950 . S
H1217 C1241 0.951 . S
H1218 C1243 0.951 . S
H1219 C1245 0.950 . S
H1220 C1246 0.950 . S
H1221 C1248 0.950 . S
H1222 C1251 0.950 . S
H1223 C1252 0.950 . S
H1224 C1254 0.950 . S
H1225 C1255 0.950 . S
C1226 H1208 0.951 . S
C1226 C1227 1.366 . S
C1226 C1228 1.388 . S
C1227 C1226 1.366 . S
C1227 C1231 1.385 . S
C1228 H1209 0.951 . S
C1228 C1226 1.388 . S
C1228 C1229 1.366 . S
C1229 C1228 1.366 . S
C1229 C1230 1.414 . S
C1229 C1232 1.499 . S
C1230 H1210 0.950 . S
C1230 C1229 1.414 . S
C1230 C1231 1.374 . S
C1231 H1211 0.950 . S
C1231 C1227 1.385 . S
C1231 C1230 1.374 . S
C1232 C1229 1.499 . S
C1232 C1233 1.373 . S
C1232 C1234 1.389 . S
C1233 H1212 0.950 . S
C1233 C1232 1.373 . S
C1233 C1249 1.377 . S
C1234 C1232 1.389 . S
C1234 C1235 1.524 . S
C1234 C1248 1.377 . S
C1235 C1234 1.524 . S
C1235 C1236 1.397 . S
C1235 C1240 1.363 . S
C1236 H1213 0.950 . S
C1236 C1235 1.397 . S
C1236 C1237 1.334 . S
C1237 H1214 0.950 . S
C1237 C1236 1.334 . S
C1237 C1238 1.287 . S
C1238 C1237 1.287 . S
C1238 C1239 1.524 . S
C1238 H1257 0.913 . S
C1239 H1215 0.950 . S
C1239 C1238 1.524 . S
C1239 C1240 1.415 . S
C1240 H1216 0.950 . S
C1240 C1235 1.363 . S
C1240 C1239 1.415 . S
C1241 H1217 0.951 . S
C1241 C1242 1.366 . S
C1241 C1243 1.388 . S
C1242 C1241 1.366 . S
C1242 C1246 1.385 . S
C1243 H1218 0.951 . S
C1243 C1241 1.388 . S
C1243 C1244 1.366 . S
C1244 C1243 1.366 . S
C1244 C1245 1.414 . S
C1244 C1247 1.499 . S
C1245 H1219 0.950 . S
C1245 C1244 1.414 . S
C1245 C1246 1.374 . S
C1246 H1220 0.950 . S
C1246 C1242 1.385 . S
C1246 C1245 1.374 . S
C1247 C1244 1.499 . S
C1247 C1248 1.373 . S
C1247 C1249 1.389 . S
C1248 H1221 0.950 . S
C1248 C1234 1.377 . S
C1248 C1247 1.373 . S
C1249 C1233 1.377 . S
C1249 C1247 1.389 . S
C1249 C1250 1.524 . S
C1250 C1249 1.524 . S
C1250 C1251 1.397 . S
C1250 C1255 1.363 . S
C1251 H1222 0.950 . S
C1251 C1250 1.397 . S
C1251 C1252 1.334 . S
C1252 H1223 0.950 . S
C1252 C1251 1.334 . S
C1252 C1253 1.287 . S
C1253 C1252 1.287 . S
C1253 C1254 1.524 . S
C1253 H1256 0.999 . S
C1254 H1224 0.950 . S
C1254 C1253 1.524 . S
C1254 C1255 1.415 . S
C1255 H1225 0.950 . S
C1255 C1250 1.363 . S
C1255 C1254 1.415 . S
H1256 C1253 0.999 . S
H1257 C1238 0.913 . S
H1258 C1276 0.951 . S
H1259 C1278 0.951 . S
H1260 C1280 0.950 . S
H1261 C1281 0.950 . S
H1262 C1283 0.950 . S
H1263 C1286 0.950 . S
H1264 C1287 0.950 . S
H1265 C1289 0.950 . S
H1266 C1290 0.950 . S
H1267 C1291 0.951 . S
H1268 C1293 0.951 . S
H1269 C1295 0.950 . S
H1270 C1296 0.950 . S
H1271 C1298 0.950 . S
H1272 C1301 0.950 . S
H1273 C1302 0.950 . S
H1274 C1304 0.950 . S
H1275 C1305 0.950 . S
C1276 H1258 0.951 . S
C1276 C1277 1.366 . S
C1276 C1278 1.388 . S
C1277 C1276 1.366 . S
C1277 C1281 1.385 . S
C1278 H1259 0.951 . S
C1278 C1276 1.388 . S
C1278 C1279 1.366 . S
C1279 C1278 1.366 . S
C1279 C1280 1.414 . S
C1279 C1282 1.499 . S
C1280 H1260 0.950 . S
C1280 C1279 1.414 . S
C1280 C1281 1.374 . S
C1281 H1261 0.950 . S
C1281 C1277 1.385 . S
C1281 C1280 1.374 . S
C1282 C1279 1.499 . S
C1282 C1283 1.373 . S
C1282 C1284 1.389 . S
C1283 H1262 0.950 . S
C1283 C1282 1.373 . S
C1283 C1299 1.377 . S
C1284 C1282 1.389 . S
C1284 C1285 1.524 . S
C1284 C1298 1.377 . S
C1285 C1284 1.524 . S
C1285 C1286 1.397 . S
C1285 C1290 1.363 . S
C1286 H1263 0.950 . S
C1286 C1285 1.397 . S
C1286 C1287 1.334 . S
C1287 H1264 0.950 . S
C1287 C1286 1.334 . S
C1287 C1288 1.287 . S
C1288 C1287 1.287 . S
C1288 C1289 1.524 . S
C1288 H1307 0.913 . S
C1289 H1265 0.950 . S
C1289 C1288 1.524 . S
C1289 C1290 1.415 . S
C1290 H1266 0.950 . S
C1290 C1285 1.363 . S
C1290 C1289 1.415 . S
C1291 H1267 0.951 . S
C1291 C1292 1.366 . S
C1291 C1293 1.388 . S
C1292 C1291 1.366 . S
C1292 C1296 1.385 . S
C1293 H1268 0.951 . S
C1293 C1291 1.388 . S
C1293 C1294 1.366 . S
C1294 C1293 1.366 . S
C1294 C1295 1.414 . S
C1294 C1297 1.499 1_565 S
C1295 H1269 0.950 . S
C1295 C1294 1.414 . S
C1295 C1296 1.374 . S
C1296 H1270 0.950 . S
C1296 C1292 1.385 . S
C1296 C1295 1.374 . S
C1297 C1294 1.499 1_545 S
C1297 C1298 1.373 . S
C1297 C1299 1.389 . S
C1298 H1271 0.950 . S
C1298 C1284 1.377 . S
C1298 C1297 1.373 . S
C1299 C1283 1.377 . S
C1299 C1297 1.389 . S
C1299 C1300 1.524 . S
C1300 C1299 1.524 . S
C1300 C1301 1.397 1_545 S
C1300 C1305 1.363 . S
C1301 H1272 0.950 . S
C1301 C1300 1.397 1_565 S
C1301 C1302 1.334 . S
C1302 H1273 0.950 . S
C1302 C1301 1.334 . S
C1302 C1303 1.287 . S
C1303 C1302 1.287 . S
C1303 C1304 1.524 1_565 S
C1303 H1306 0.999 . S
C1304 H1274 0.950 . S
C1304 C1303 1.524 1_545 S
C1304 C1305 1.415 . S
C1305 H1275 0.950 . S
C1305 C1300 1.363 . S
C1305 C1304 1.415 . S
H1306 C1303 0.999 . S
H1307 C1288 0.913 . S
H1308 C1326 0.951 . S
H1309 C1328 0.951 . S
H1310 C1330 0.950 . S
H1311 C1331 0.950 . S
H1312 C1333 0.950 . S
H1313 C1336 0.950 . S
H1314 C1337 0.950 . S
H1315 C1339 0.950 . S
H1316 C1340 0.950 . S
H1317 C1341 0.951 . S
H1318 C1343 0.951 . S
H1319 C1345 0.950 . S
H1320 C1346 0.950 . S
H1321 C1348 0.950 . S
H1322 C1351 0.950 . S
H1323 C1352 0.950 . S
H1324 C1354 0.950 . S
H1325 C1355 0.950 . S
C1326 H1308 0.951 . S
C1326 C1327 1.366 . S
C1326 C1328 1.388 . S
C1327 C1326 1.366 . S
C1327 C1331 1.385 1_554 S
C1328 H1309 0.951 . S
C1328 C1326 1.388 . S
C1328 C1329 1.366 . S
C1329 C1328 1.366 . S
C1329 C1330 1.414 1_554 S
C1329 C1332 1.500 . S
C1330 H1310 0.950 . S
C1330 C1329 1.414 1_556 S
C1330 C1331 1.374 . S
C1331 H1311 0.950 . S
C1331 C1327 1.385 1_556 S
C1331 C1330 1.374 . S
C1332 C1329 1.500 . S
C1332 C1333 1.367 1_554 S
C1332 C1334 1.397 . S
C1333 H1312 0.950 . S
C1333 C1332 1.367 1_556 S
C1333 C1349 1.377 . S
C1334 C1332 1.397 . S
C1334 C1335 1.524 . S
C1334 C1348 1.377 . S
C1335 C1334 1.524 . S
C1335 C1336 1.397 1_554 S
C1335 C1340 1.363 . S
C1336 H1313 0.950 . S
C1336 C1335 1.397 1_556 S
C1336 C1337 1.334 . S
C1337 H1314 0.950 . S
C1337 C1336 1.334 . S
C1337 C1338 1.287 . S
C1338 C1337 1.287 . S
C1338 C1339 1.524 1_556 S
C1338 H1357 0.913 . S
C1339 H1315 0.950 . S
C1339 C1338 1.524 1_554 S
C1339 C1340 1.415 . S
C1340 H1316 0.950 . S
C1340 C1335 1.363 . S
C1340 C1339 1.415 . S
C1341 H1317 0.951 . S
C1341 C1342 1.366 . S
C1341 C1343 1.388 . S
C1342 C1341 1.366 . S
C1342 C1346 1.385 1_556 S
C1343 H1318 0.951 . S
C1343 C1341 1.388 . S
C1343 C1344 1.366 . S
C1344 C1343 1.366 . S
C1344 C1345 1.414 1_556 S
C1344 C1347 1.499 . S
C1345 H1319 0.950 . S
C1345 C1344 1.414 1_554 S
C1345 C1346 1.374 . S
C1346 H1320 0.950 . S
C1346 C1342 1.385 1_554 S
C1346 C1345 1.374 . S
C1347 C1344 1.499 . S
C1347 C1348 1.373 1_556 S
C1347 C1349 1.389 . S
C1348 H1321 0.950 . S
C1348 C1334 1.377 . S
C1348 C1347 1.373 1_554 S
C1349 C1333 1.377 . S
C1349 C1347 1.389 . S
C1349 C1350 1.524 . S
C1350 C1349 1.524 . S
C1350 C1351 1.397 1_556 S
C1350 C1355 1.363 . S
C1351 H1322 0.950 . S
C1351 C1350 1.397 1_554 S
C1351 C1352 1.334 . S
C1352 H1323 0.950 . S
C1352 C1351 1.334 . S
C1352 C1353 1.310 . S
C1353 C1352 1.310 . S
C1353 C1354 1.502 1_554 S
C1353 H1356 0.997 . S
C1354 H1324 0.950 . S
C1354 C1353 1.502 1_556 S
C1354 C1355 1.415 . S
C1355 H1325 0.950 . S
C1355 C1350 1.363 . S
C1355 C1354 1.415 . S
H1356 C1353 0.997 . S
H1357 C1338 0.913 . S
H1358 C1376 0.951 . S
H1359 C1378 0.951 . S
H1360 C1380 0.950 . S
H1361 C1381 0.950 . S
H1362 C1383 0.950 . S
H1363 C1386 0.950 . S
H1364 C1387 0.950 . S
H1365 C1389 0.950 . S
H1366 C1390 0.950 . S
H1367 C1391 0.951 . S
H1368 C1393 0.951 . S
H1369 C1395 0.950 . S
H1370 C1396 0.950 . S
H1371 C1398 0.950 . S
H1372 C1401 0.950 . S
H1373 C1402 0.950 . S
H1374 C1404 0.950 . S
H1375 C1405 0.950 1_545 S
C1376 H1358 0.951 . S
C1376 C1377 1.366 . S
C1376 C1378 1.388 . S
C1377 C1376 1.366 . S
C1377 C1381 1.385 . S
C1378 H1359 0.951 . S
C1378 C1376 1.388 . S
C1378 C1379 1.366 . S
C1379 C1378 1.366 . S
C1379 C1380 1.414 . S
C1379 C1382 1.499 . S
C1380 H1360 0.950 . S
C1380 C1379 1.414 . S
C1380 C1381 1.374 . S
C1381 H1361 0.950 . S
C1381 C1377 1.385 . S
C1381 C1380 1.374 . S
C1382 C1379 1.499 . S
C1382 C1383 1.373 . S
C1382 C1384 1.389 . S
C1383 H1362 0.950 . S
C1383 C1382 1.373 . S
C1383 C1399 1.377 . S
C1384 C1382 1.389 . S
C1384 C1385 1.524 . S
C1384 C1398 1.377 . S
C1385 C1384 1.524 . S
C1385 C1386 1.397 . S
C1385 C1390 1.363 . S
C1386 H1363 0.950 . S
C1386 C1385 1.397 . S
C1386 C1387 1.334 . S
C1387 H1364 0.950 . S
C1387 C1386 1.334 . S
C1387 C1388 1.287 . S
C1388 C1387 1.287 . S
C1388 C1389 1.524 1_655 S
C1388 H1407 0.913 1_655 S
C1389 H1365 0.950 . S
C1389 C1388 1.524 1_455 S
C1389 C1390 1.415 1_455 S
C1390 H1366 0.950 . S
C1390 C1385 1.363 . S
C1390 C1389 1.415 1_655 S
C1391 H1367 0.951 . S
C1391 C1392 1.366 . S
C1391 C1393 1.388 . S
C1392 C1391 1.366 . S
C1392 C1396 1.385 . S
C1393 H1368 0.951 . S
C1393 C1391 1.388 . S
C1393 C1394 1.366 . S
C1394 C1393 1.366 . S
C1394 C1395 1.414 . S
C1394 C1397 1.499 1_565 S
C1395 H1369 0.950 . S
C1395 C1394 1.414 . S
C1395 C1396 1.374 . S
C1396 H1370 0.950 . S
C1396 C1392 1.385 . S
C1396 C1395 1.374 . S
C1397 C1394 1.499 1_545 S
C1397 C1398 1.373 . S
C1397 C1399 1.389 . S
C1398 H1371 0.950 . S
C1398 C1384 1.377 . S
C1398 C1397 1.373 . S
C1399 C1383 1.377 . S
C1399 C1397 1.389 . S
C1399 C1400 1.524 1_545 S
C1400 C1399 1.524 1_565 S
C1400 C1401 1.397 . S
C1400 C1405 1.363 . S
C1401 H1372 0.950 . S
C1401 C1400 1.397 . S
C1401 C1402 1.334 . S
C1402 H1373 0.950 . S
C1402 C1401 1.334 . S
C1402 C1403 1.287 . S
C1403 C1402 1.287 . S
C1403 C1404 1.524 . S
C1403 H1406 0.999 . S
C1404 H1374 0.950 . S
C1404 C1403 1.524 . S
C1404 C1405 1.415 . S
C1405 H1375 0.950 1_565 S
C1405 C1400 1.363 . S
C1405 C1404 1.415 . S
H1406 C1403 0.999 . S
H1407 C1388 0.913 1_455 S
H1408 C1426 0.951 . S
H1409 C1428 0.951 . S
H1410 C1430 0.950 . S
H1411 C1431 0.950 . S
H1412 C1433 0.950 . S
H1413 C1436 0.950 . S
H1414 C1437 0.950 1_565 S
H1415 C1439 0.950 . S
H1416 C1440 0.950 . S
H1417 C1441 0.951 . S
H1418 C1443 0.951 . S
H1419 C1445 0.950 . S
H1420 C1446 0.950 . S
H1421 C1448 0.955 1_545 S
H1422 C1451 0.950 . S
H1423 C1452 0.950 . S
H1424 C1454 0.950 . S
H1425 C1455 0.950 . S
C1426 H1408 0.951 . S
C1426 C1427 1.366 1_545 S
C1426 C1428 1.388 . S
C1427 C1426 1.366 1_565 S
C1427 C1431 1.385 . S
C1428 H1409 0.951 . S
C1428 C1426 1.388 . S
C1428 C1429 1.366 1_545 S
C1429 C1428 1.366 1_565 S
C1429 C1430 1.414 . S
C1429 C1432 1.499 . S
C1430 H1410 0.950 . S
C1430 C1429 1.414 . S
C1430 C1431 1.374 . S
C1431 H1411 0.950 . S
C1431 C1427 1.385 . S
C1431 C1430 1.374 . S
C1432 C1429 1.499 . S
C1432 C1433 1.373 . S
C1432 C1434 1.392 . S
C1433 H1412 0.950 . S
C1433 C1432 1.373 . S
C1433 C1449 1.377 . S
C1434 C1432 1.392 . S
C1434 C1435 1.522 1_566 S
C1434 C1448 1.376 1_556 S
C1435 C1434 1.522 1_544 S
C1435 C1436 1.397 1_545 S
C1435 C1440 1.363 . S
C1436 H1413 0.950 . S
C1436 C1435 1.397 1_565 S
C1436 C1437 1.334 1_565 S
C1437 H1414 0.950 1_545 S
C1437 C1436 1.334 1_545 S
C1437 C1438 1.287 . S
C1438 C1437 1.287 . S
C1438 C1439 1.524 . S
C1438 H1457 0.913 . S
C1439 H1415 0.950 . S
C1439 C1438 1.524 . S
C1439 C1440 1.415 . S
C1440 H1416 0.950 . S
C1440 C1435 1.363 . S
C1440 C1439 1.415 . S
C1441 H1417 0.951 . S
C1441 C1442 1.366 . S
C1441 C1443 1.388 . S
C1442 C1441 1.366 . S
C1442 C1446 1.385 1_565 S
C1443 H1418 0.951 . S
C1443 C1441 1.388 . S
C1443 C1444 1.366 . S
C1444 C1443 1.366 . S
C1444 C1445 1.414 1_565 S
C1444 C1447 1.499 . S
C1445 H1419 0.950 . S
C1445 C1444 1.414 1_545 S
C1445 C1446 1.374 . S
C1446 H1420 0.950 . S
C1446 C1442 1.385 1_545 S
C1446 C1445 1.374 . S
C1447 C1444 1.499 . S
C1447 C1448 1.369 1_556 S
C1447 C1449 1.389 . S
C1448 H1421 0.955 1_565 S
C1448 C1434 1.376 1_554 S
C1448 C1447 1.369 1_554 S
C1449 C1433 1.377 . S
C1449 C1447 1.389 . S
C1449 C1450 1.524 . S
C1450 C1449 1.524 . S
C1450 C1451 1.397 . S
C1450 C1455 1.363 . S
C1451 H1422 0.950 . S
C1451 C1450 1.397 . S
C1451 C1452 1.334 . S
C1452 H1423 0.950 . S
C1452 C1451 1.334 . S
C1452 C1453 1.287 . S
C1453 C1452 1.287 . S
C1453 C1454 1.524 . S
C1453 H1456 0.999 . S
C1454 H1424 0.950 . S
C1454 C1453 1.524 . S
C1454 C1455 1.415 . S
C1455 H1425 0.950 . S
C1455 C1450 1.363 . S
C1455 C1454 1.415 . S
H1456 C1453 0.999 . S
H1457 C1438 0.913 . S
H1458 C1476 0.951 . S
H1459 C1478 0.951 . S
H1460 C1480 0.950 . S
H1461 C1481 0.950 . S
H1462 C1483 0.950 . S
H1463 C1486 0.950 . S
H1464 C1487 0.950 . S
H1465 C1489 0.950 . S
H1466 C1490 0.950 . S
H1467 C1491 0.951 . S
H1468 C1493 0.951 . S
H1469 C1495 0.950 . S
H1470 C1496 0.950 . S
H1471 C1498 0.950 . S
H1472 C1501 0.950 . S
H1473 C1502 0.950 . S
H1474 C1504 0.950 . S
H1475 C1505 0.950 . S
C1476 H1458 0.951 . S
C1476 C1477 1.366 . S
C1476 C1478 1.388 . S
C1477 C1476 1.366 . S
C1477 C1481 1.385 . S
C1478 H1459 0.951 . S
C1478 C1476 1.388 . S
C1478 C1479 1.366 . S
C1479 C1478 1.366 . S
C1479 C1480 1.414 . S
C1479 C1482 1.499 . S
C1480 H1460 0.950 . S
C1480 C1479 1.414 . S
C1480 C1481 1.374 . S
C1481 H1461 0.950 . S
C1481 C1477 1.385 . S
C1481 C1480 1.374 . S
C1482 C1479 1.499 . S
C1482 C1483 1.373 . S
C1482 C1484 1.389 . S
C1483 H1462 0.950 . S
C1483 C1482 1.373 . S
C1483 C1499 1.377 . S
C1484 C1482 1.389 . S
C1484 C1485 1.524 . S
C1484 C1498 1.377 . S
C1485 C1484 1.524 . S
C1485 C1486 1.397 . S
C1485 C1490 1.363 . S
C1486 H1463 0.950 . S
C1486 C1485 1.397 . S
C1486 C1487 1.334 . S
C1487 H1464 0.950 . S
C1487 C1486 1.334 . S
C1487 C1488 1.287 . S
C1488 C1487 1.287 . S
C1488 C1489 1.524 . S
C1488 H1507 0.913 . S
C1489 H1465 0.950 . S
C1489 C1488 1.524 . S
C1489 C1490 1.415 . S
C1490 H1466 0.950 . S
C1490 C1485 1.363 . S
C1490 C1489 1.415 . S
C1491 H1467 0.951 . S
C1491 C1492 1.366 . S
C1491 C1493 1.388 . S
C1492 C1491 1.366 . S
C1492 C1496 1.385 . S
C1493 H1468 0.951 . S
C1493 C1491 1.388 . S
C1493 C1494 1.366 . S
C1494 C1493 1.366 . S
C1494 C1495 1.414 . S
C1494 C1497 1.499 . S
C1495 H1469 0.950 . S
C1495 C1494 1.414 . S
C1495 C1496 1.374 . S
C1496 H1470 0.950 . S
C1496 C1492 1.385 . S
C1496 C1495 1.374 . S
C1497 C1494 1.499 . S
C1497 C1498 1.373 . S
C1497 C1499 1.389 . S
C1498 H1471 0.950 . S
C1498 C1484 1.377 . S
C1498 C1497 1.373 . S
C1499 C1483 1.377 . S
C1499 C1497 1.389 . S
C1499 C1500 1.524 . S
C1500 C1499 1.524 . S
C1500 C1501 1.397 . S
C1500 C1505 1.363 . S
C1501 H1472 0.950 . S
C1501 C1500 1.397 . S
C1501 C1502 1.334 . S
C1502 H1473 0.950 . S
C1502 C1501 1.334 . S
C1502 C1503 1.287 . S
C1503 C1502 1.287 . S
C1503 C1504 1.524 . S
C1503 H1506 0.999 . S
C1504 H1474 0.950 . S
C1504 C1503 1.524 . S
C1504 C1505 1.415 . S
C1505 H1475 0.950 . S
C1505 C1500 1.363 . S
C1505 C1504 1.415 . S
H1506 C1503 0.999 . S
H1507 C1488 0.913 . S
H1508 C1526 0.951 . S
H1509 C1528 0.951 . S
H1510 C1530 0.950 . S
H1511 C1531 0.950 . S
H1512 C1533 0.950 . S
H1513 C1536 0.950 . S
H1514 C1537 0.950 . S
H1515 C1539 0.950 . S
H1516 C1540 0.950 . S
H1517 C1541 0.951 . S
H1518 C1543 0.951 . S
H1519 C1545 0.950 . S
H1520 C1546 0.950 . S
H1521 C1548 0.950 . S
H1522 C1551 0.950 . S
H1523 C1552 0.950 . S
H1524 C1554 0.950 . S
H1525 C1555 0.950 . S
C1526 H1508 0.951 . S
C1526 C1527 1.366 . S
C1526 C1528 1.388 . S
C1527 C1526 1.366 . S
C1527 C1531 1.385 . S
C1528 H1509 0.951 . S
C1528 C1526 1.388 . S
C1528 C1529 1.366 . S
C1529 C1528 1.366 . S
C1529 C1530 1.414 . S
C1529 C1532 1.499 . S
C1530 H1510 0.950 . S
C1530 C1529 1.414 . S
C1530 C1531 1.374 . S
C1531 H1511 0.950 . S
C1531 C1527 1.385 . S
C1531 C1530 1.374 . S
C1532 C1529 1.499 . S
C1532 C1533 1.373 . S
C1532 C1534 1.389 . S
C1533 H1512 0.950 . S
C1533 C1532 1.373 . S
C1533 C1549 1.377 . S
C1534 C1532 1.389 . S
C1534 C1535 1.524 . S
C1534 C1548 1.377 . S
C1535 C1534 1.524 . S
C1535 C1536 1.397 . S
C1535 C1540 1.363 . S
C1536 H1513 0.950 . S
C1536 C1535 1.397 . S
C1536 C1537 1.334 . S
C1537 H1514 0.950 . S
C1537 C1536 1.334 . S
C1537 C1538 1.287 . S
C1538 C1537 1.287 . S
C1538 C1539 1.524 . S
C1538 H1557 0.913 . S
C1539 H1515 0.950 . S
C1539 C1538 1.524 . S
C1539 C1540 1.415 . S
C1540 H1516 0.950 . S
C1540 C1535 1.363 . S
C1540 C1539 1.415 . S
C1541 H1517 0.951 . S
C1541 C1542 1.366 . S
C1541 C1543 1.388 . S
C1542 C1541 1.366 . S
C1542 C1546 1.385 . S
C1543 H1518 0.951 . S
C1543 C1541 1.388 . S
C1543 C1544 1.366 . S
C1544 C1543 1.366 . S
C1544 C1545 1.414 . S
C1544 C1547 1.499 . S
C1545 H1519 0.950 . S
C1545 C1544 1.414 . S
C1545 C1546 1.374 . S
C1546 H1520 0.950 . S
C1546 C1542 1.385 . S
C1546 C1545 1.374 . S
C1547 C1544 1.499 . S
C1547 C1548 1.373 . S
C1547 C1549 1.389 . S
C1548 H1521 0.950 . S
C1548 C1534 1.377 . S
C1548 C1547 1.373 . S
C1549 C1533 1.377 . S
C1549 C1547 1.389 . S
C1549 C1550 1.524 . S
C1550 C1549 1.524 . S
C1550 C1551 1.397 . S
C1550 C1555 1.363 . S
C1551 H1522 0.950 . S
C1551 C1550 1.397 . S
C1551 C1552 1.334 . S
C1552 H1523 0.950 . S
C1552 C1551 1.334 . S
C1552 C1553 1.287 . S
C1553 C1552 1.287 . S
C1553 C1554 1.524 . S
C1553 H1556 0.999 . S
C1554 H1524 0.950 . S
C1554 C1553 1.524 . S
C1554 C1555 1.415 . S
C1555 H1525 0.950 . S
C1555 C1550 1.363 . S
C1555 C1554 1.415 . S
H1556 C1553 0.999 . S
H1557 C1538 0.913 . S
H1558 C1576 0.951 . S
H1559 C1578 0.951 . S
H1560 C1580 0.950 . S
H1561 C1581 0.950 . S
H1562 C1583 0.950 . S
H1563 C1586 0.950 . S
H1564 C1587 0.950 . S
H1565 C1589 0.950 . S
H1566 C1590 0.950 1_554 S
H1567 C1591 0.951 . S
H1568 C1593 0.951 . S
H1569 C1595 0.950 . S
H1570 C1596 0.950 . S
H1571 C1598 0.950 . S
H1572 C1601 0.950 . S
H1573 C1602 0.950 . S
H1574 C1604 0.950 . S
H1575 C1605 0.950 . S
C1576 H1558 0.951 . S
C1576 C1577 1.366 . S
C1576 C1578 1.388 . S
C1577 C1576 1.366 . S
C1577 C1581 1.385 . S
C1578 H1559 0.951 . S
C1578 C1576 1.388 . S
C1578 C1579 1.366 . S
C1579 C1578 1.366 . S
C1579 C1580 1.414 . S
C1579 C1582 1.499 . S
C1580 H1560 0.950 . S
C1580 C1579 1.414 . S
C1580 C1581 1.374 . S
C1581 H1561 0.950 . S
C1581 C1577 1.385 . S
C1581 C1580 1.374 . S
C1582 C1579 1.499 . S
C1582 C1583 1.373 1_556 S
C1582 C1584 1.389 1_556 S
C1583 H1562 0.950 . S
C1583 C1582 1.373 1_554 S
C1583 C1599 1.377 . S
C1584 C1582 1.389 1_554 S
C1584 C1585 1.524 1_554 S
C1584 C1598 1.377 . S
C1585 C1584 1.524 1_556 S
C1585 C1586 1.397 . S
C1585 C1590 1.363 . S
C1586 H1563 0.950 . S
C1586 C1585 1.397 . S
C1586 C1587 1.334 . S
C1587 H1564 0.950 . S
C1587 C1586 1.334 . S
C1587 C1588 1.287 . S
C1588 C1587 1.287 . S
C1588 C1589 1.524 . S
C1588 H1607 0.913 . S
C1589 H1565 0.950 . S
C1589 C1588 1.524 . S
C1589 C1590 1.415 . S
C1590 H1566 0.950 1_556 S
C1590 C1585 1.363 . S
C1590 C1589 1.415 . S
C1591 H1567 0.951 . S
C1591 C1592 1.366 . S
C1591 C1593 1.388 . S
C1592 C1591 1.366 . S
C1592 C1596 1.385 . S
C1593 H1568 0.951 . S
C1593 C1591 1.388 . S
C1593 C1594 1.366 . S
C1594 C1593 1.366 . S
C1594 C1595 1.414 . S
C1594 C1597 1.499 . S
C1595 H1569 0.950 . S
C1595 C1594 1.414 . S
C1595 C1596 1.374 . S
C1596 H1570 0.950 . S
C1596 C1592 1.385 . S
C1596 C1595 1.374 . S
C1597 C1594 1.499 . S
C1597 C1598 1.373 . S
C1597 C1599 1.389 . S
C1598 H1571 0.950 . S
C1598 C1584 1.377 . S
C1598 C1597 1.373 . S
C1599 C1583 1.377 . S
C1599 C1597 1.389 . S
C1599 C1600 1.524 . S
C1600 C1599 1.524 . S
C1600 C1601 1.397 . S
C1600 C1605 1.363 . S
C1601 H1572 0.950 . S
C1601 C1600 1.397 . S
C1601 C1602 1.334 . S
C1602 H1573 0.950 . S
C1602 C1601 1.334 . S
C1602 C1603 1.287 . S
C1603 C1602 1.287 . S
C1603 C1604 1.524 . S
C1603 H1606 0.999 . S
C1604 H1574 0.950 . S
C1604 C1603 1.524 . S
C1604 C1605 1.415 . S
C1605 H1575 0.950 . S
C1605 C1600 1.363 . S
C1605 C1604 1.415 . S
H1606 C1603 0.999 . S
H1607 C1588 0.913 . S
H1608 C1626 0.951 . S
H1609 C1628 0.951 . S
H1610 C1630 0.950 . S
H1611 C1631 0.950 . S
H1612 C1633 0.950 . S
H1613 C1636 0.950 . S
H1614 C1637 0.950 . S
H1615 C1639 0.950 . S
H1616 C1640 0.950 . S
H1617 C1641 0.951 . S
H1618 C1643 0.951 . S
H1619 C1645 0.950 . S
H1620 C1646 0.950 . S
H1621 C1648 0.950 . S
H1622 C1651 0.950 . S
H1623 C1652 0.950 . S
H1624 C1654 0.950 . S
H1625 C1655 0.950 . S
C1626 H1608 0.951 . S
C1626 C1627 1.366 . S
C1626 C1628 1.388 . S
C1627 C1626 1.366 . S
C1627 C1631 1.385 . S
C1628 H1609 0.951 . S
C1628 C1626 1.388 . S
C1628 C1629 1.366 . S
C1629 C1628 1.366 . S
C1629 C1630 1.414 . S
C1629 C1632 1.499 . S
C1630 H1610 0.950 . S
C1630 C1629 1.414 . S
C1630 C1631 1.374 . S
C1631 H1611 0.950 . S
C1631 C1627 1.385 . S
C1631 C1630 1.374 . S
C1632 C1629 1.499 . S
C1632 C1633 1.373 . S
C1632 C1634 1.389 . S
C1633 H1612 0.950 . S
C1633 C1632 1.373 . S
C1633 C1649 1.377 . S
C1634 C1632 1.389 . S
C1634 C1635 1.524 . S
C1634 C1648 1.377 . S
C1635 C1634 1.524 . S
C1635 C1636 1.397 . S
C1635 C1640 1.363 . S
C1636 H1613 0.950 . S
C1636 C1635 1.397 . S
C1636 C1637 1.334 . S
C1637 H1614 0.950 . S
C1637 C1636 1.334 . S
C1637 C1638 1.287 . S
C1638 C1637 1.287 . S
C1638 C1639 1.524 . S
C1638 H1657 0.913 . S
C1639 H1615 0.950 . S
C1639 C1638 1.524 . S
C1639 C1640 1.415 . S
C1640 H1616 0.950 . S
C1640 C1635 1.363 . S
C1640 C1639 1.415 . S
C1641 H1617 0.951 . S
C1641 C1642 1.366 . S
C1641 C1643 1.388 . S
C1642 C1641 1.366 . S
C1642 C1646 1.385 . S
C1643 H1618 0.951 . S
C1643 C1641 1.388 . S
C1643 C1644 1.366 . S
C1644 C1643 1.366 . S
C1644 C1645 1.414 . S
C1644 C1647 1.499 . S
C1645 H1619 0.950 . S
C1645 C1644 1.414 . S
C1645 C1646 1.374 . S
C1646 H1620 0.950 . S
C1646 C1642 1.385 . S
C1646 C1645 1.374 . S
C1647 C1644 1.499 . S
C1647 C1648 1.373 . S
C1647 C1649 1.389 . S
C1648 H1621 0.950 . S
C1648 C1634 1.377 . S
C1648 C1647 1.373 . S
C1649 C1633 1.377 . S
C1649 C1647 1.389 . S
C1649 C1650 1.524 . S
C1650 C1649 1.524 . S
C1650 C1651 1.397 . S
C1650 C1655 1.363 . S
C1651 H1622 0.950 . S
C1651 C1650 1.397 . S
C1651 C1652 1.334 . S
C1652 H1623 0.950 . S
C1652 C1651 1.334 . S
C1652 C1653 1.287 . S
C1653 C1652 1.287 . S
C1653 C1654 1.524 . S
C1653 H1656 0.999 . S
C1654 H1624 0.950 . S
C1654 C1653 1.524 . S
C1654 C1655 1.415 . S
C1655 H1625 0.950 . S
C1655 C1650 1.363 . S
C1655 C1654 1.415 . S
H1656 C1653 0.999 . S
H1657 C1638 0.913 . S
H1658 C1676 0.951 . S
H1659 C1678 0.951 . S
H1660 C1680 0.950 . S
H1661 C1681 0.950 . S
H1662 C1683 0.950 . S
H1663 C1686 0.950 . S
H1664 C1687 0.950 . S
H1665 C1689 0.950 . S
H1666 C1690 0.950 . S
H1667 C1691 0.951 . S
H1668 C1693 0.951 . S
H1669 C1695 0.950 . S
H1670 C1696 0.950 . S
H1671 C1698 0.950 . S
H1672 C1701 0.950 . S
H1673 C1702 0.950 . S
H1674 C1704 0.950 . S
H1675 C1705 0.950 . S
C1676 H1658 0.951 . S
C1676 C1677 1.366 . S
C1676 C1678 1.388 . S
C1677 C1676 1.366 . S
C1677 C1681 1.385 . S
C1678 H1659 0.951 . S
C1678 C1676 1.388 . S
C1678 C1679 1.366 . S
C1679 C1678 1.366 . S
C1679 C1680 1.414 . S
C1679 C1682 1.499 . S
C1680 H1660 0.950 . S
C1680 C1679 1.414 . S
C1680 C1681 1.374 . S
C1681 H1661 0.950 . S
C1681 C1677 1.385 . S
C1681 C1680 1.374 . S
C1682 C1679 1.499 . S
C1682 C1683 1.373 . S
C1682 C1684 1.389 . S
C1683 H1662 0.950 . S
C1683 C1682 1.373 . S
C1683 C1699 1.377 . S
C1684 C1682 1.389 . S
C1684 C1685 1.524 . S
C1684 C1698 1.377 . S
C1685 C1684 1.524 . S
C1685 C1686 1.397 . S
C1685 C1690 1.363 . S
C1686 H1663 0.950 . S
C1686 C1685 1.397 . S
C1686 C1687 1.334 . S
C1687 H1664 0.950 . S
C1687 C1686 1.334 . S
C1687 C1688 1.287 . S
C1688 C1687 1.287 . S
C1688 C1689 1.524 . S
C1688 H1707 0.913 . S
C1689 H1665 0.950 . S
C1689 C1688 1.524 . S
C1689 C1690 1.415 . S
C1690 H1666 0.950 . S
C1690 C1685 1.363 . S
C1690 C1689 1.415 . S
C1691 H1667 0.951 . S
C1691 C1692 1.366 . S
C1691 C1693 1.388 . S
C1692 C1691 1.366 . S
C1692 C1696 1.385 . S
C1693 H1668 0.951 . S
C1693 C1691 1.388 . S
C1693 C1694 1.366 . S
C1694 C1693 1.366 . S
C1694 C1695 1.414 . S
C1694 C1697 1.499 . S
C1695 H1669 0.950 . S
C1695 C1694 1.414 . S
C1695 C1696 1.374 . S
C1696 H1670 0.950 . S
C1696 C1692 1.385 . S
C1696 C1695 1.374 . S
C1697 C1694 1.499 . S
C1697 C1698 1.373 . S
C1697 C1699 1.389 . S
C1698 H1671 0.950 . S
C1698 C1684 1.377 . S
C1698 C1697 1.373 . S
C1699 C1683 1.377 . S
C1699 C1697 1.389 . S
C1699 C1700 1.524 . S
C1700 C1699 1.524 . S
C1700 C1701 1.397 . S
C1700 C1705 1.363 . S
C1701 H1672 0.950 . S
C1701 C1700 1.397 . S
C1701 C1702 1.334 . S
C1702 H1673 0.950 . S
C1702 C1701 1.334 . S
C1702 C1703 1.287 . S
C1703 C1702 1.287 . S
C1703 C1704 1.524 . S
C1703 H1706 0.999 . S
C1704 H1674 0.950 . S
C1704 C1703 1.524 . S
C1704 C1705 1.415 . S
C1705 H1675 0.950 . S
C1705 C1700 1.363 . S
C1705 C1704 1.415 . S
H1706 C1703 0.999 . S
H1707 C1688 0.913 . S
H1708 C1726 0.951 . S
H1709 C1728 0.951 . S
H1710 C1730 0.950 . S
H1711 C1731 0.950 . S
H1712 C1733 0.950 1_455 S
H1713 C1736 0.950 . S
H1714 C1737 0.950 . S
H1715 C1739 0.950 . S
H1716 C1740 0.950 . S
H1717 C1741 0.951 1_455 S
H1718 C1743 0.951 1_455 S
H1719 C1745 0.950 . S
H1720 C1746 0.950 . S
H1721 C1748 0.950 . S
H1722 C1751 0.950 . S
H1723 C1752 0.950 . S
H1724 C1754 0.950 . S
H1725 C1755 0.950 . S
C1726 H1708 0.951 . S
C1726 C1727 1.366 . S
C1726 C1728 1.388 . S
C1727 C1726 1.366 . S
C1727 C1731 1.385 1_655 S
C1728 H1709 0.951 . S
C1728 C1726 1.388 . S
C1728 C1729 1.366 . S
C1729 C1728 1.366 . S
C1729 C1730 1.414 1_655 S
C1729 C1732 1.499 . S
C1730 H1710 0.950 . S
C1730 C1729 1.414 1_455 S
C1730 C1731 1.374 . S
C1731 H1711 0.950 . S
C1731 C1727 1.385 1_455 S
C1731 C1730 1.374 . S
C1732 C1729 1.499 . S
C1732 C1733 1.373 . S
C1732 C1734 1.389 . S
C1733 H1712 0.950 1_655 S
C1733 C1732 1.373 . S
C1733 C1749 1.377 . S
C1734 C1732 1.389 . S
C1734 C1735 1.524 . S
C1734 C1748 1.377 . S
C1735 C1734 1.524 . S
C1735 C1736 1.397 . S
C1735 C1740 1.363 . S
C1736 H1713 0.950 . S
C1736 C1735 1.397 . S
C1736 C1737 1.334 . S
C1737 H1714 0.950 . S
C1737 C1736 1.334 . S
C1737 C1738 1.287 . S
C1738 C1737 1.287 . S
C1738 C1739 1.524 . S
C1738 H1757 0.913 . S
C1739 H1715 0.950 . S
C1739 C1738 1.524 . S
C1739 C1740 1.415 . S
C1740 H1716 0.950 . S
C1740 C1735 1.363 . S
C1740 C1739 1.415 . S
C1741 H1717 0.951 1_655 S
C1741 C1742 1.366 . S
C1741 C1743 1.388 . S
C1742 C1741 1.366 . S
C1742 C1746 1.385 . S
C1743 H1718 0.951 1_655 S
C1743 C1741 1.388 . S
C1743 C1744 1.366 . S
C1744 C1743 1.366 . S
C1744 C1745 1.414 . S
C1744 C1747 1.499 . S
C1745 H1719 0.950 . S
C1745 C1744 1.414 . S
C1745 C1746 1.374 . S
C1746 H1720 0.950 . S
C1746 C1742 1.385 . S
C1746 C1745 1.374 . S
C1747 C1744 1.499 . S
C1747 C1748 1.373 . S
C1747 C1749 1.389 . S
C1748 H1721 0.950 . S
C1748 C1734 1.377 . S
C1748 C1747 1.373 . S
C1749 C1733 1.377 . S
C1749 C1747 1.389 . S
C1749 C1750 1.524 1_655 S
C1750 C1749 1.524 1_455 S
C1750 C1751 1.397 1_455 S
C1750 C1755 1.363 . S
C1751 H1722 0.950 . S
C1751 C1750 1.397 1_655 S
C1751 C1752 1.334 1_655 S
C1752 H1723 0.950 . S
C1752 C1751 1.334 1_455 S
C1752 C1753 1.287 . S
C1753 C1752 1.287 . S
C1753 C1754 1.524 . S
C1753 H1756 0.999 . S
C1754 H1724 0.950 . S
C1754 C1753 1.524 . S
C1754 C1755 1.415 . S
C1755 H1725 0.950 . S
C1755 C1750 1.363 . S
C1755 C1754 1.415 . S
H1756 C1753 0.999 . S
H1757 C1738 0.913 . S
H1758 C1776 0.951 . S
H1759 C1778 0.951 . S
H1760 C1780 0.950 . S
H1761 C1781 0.950 . S
H1762 C1783 0.950 . S
H1763 C1786 0.950 . S
H1764 C1787 0.950 . S
H1765 C1789 0.950 . S
H1766 C1790 0.950 . S
H1767 C1791 0.951 . S
H1768 C1793 0.951 . S
H1769 C1795 0.950 . S
H1770 C1796 0.950 . S
H1771 C1798 0.950 . S
H1772 C1801 0.950 . S
H1773 C1802 0.950 . S
H1774 C1804 0.950 . S
H1775 C1805 0.950 . S
C1776 H1758 0.951 . S
C1776 C1777 1.367 . S
C1776 C1778 1.388 . S
C1777 C1776 1.367 . S
C1777 C1781 1.383 1_565 S
C1778 H1759 0.951 . S
C1778 C1776 1.388 . S
C1778 C1779 1.366 1_565 S
C1779 C1778 1.366 1_545 S
C1779 C1780 1.414 . S
C1779 C1782 1.499 . S
C1780 H1760 0.950 . S
C1780 C1779 1.414 . S
C1780 C1781 1.374 . S
C1781 H1761 0.950 . S
C1781 C1777 1.383 1_545 S
C1781 C1780 1.374 . S
C1782 C1779 1.499 . S
C1782 C1783 1.373 . S
C1782 C1784 1.389 1_545 S
C1783 H1762 0.950 . S
C1783 C1782 1.373 . S
C1783 C1799 1.377 . S
C1784 C1782 1.389 1_565 S
C1784 C1785 1.524 . S
C1784 C1798 1.377 . S
C1785 C1784 1.524 . S
C1785 C1786 1.397 . S
C1785 C1790 1.363 . S
C1786 H1763 0.950 . S
C1786 C1785 1.397 . S
C1786 C1787 1.334 . S
C1787 H1764 0.950 . S
C1787 C1786 1.334 . S
C1787 C1788 1.287 . S
C1788 C1787 1.287 . S
C1788 C1789 1.524 . S
C1788 H1807 0.913 . S
C1789 H1765 0.950 . S
C1789 C1788 1.524 . S
C1789 C1790 1.415 . S
C1790 H1766 0.950 . S
C1790 C1785 1.363 . S
C1790 C1789 1.415 . S
C1791 H1767 0.951 . S
C1791 C1792 1.366 . S
C1791 C1793 1.388 . S
C1792 C1791 1.366 . S
C1792 C1796 1.385 1_545 S
C1793 H1768 0.951 . S
C1793 C1791 1.388 . S
C1793 C1794 1.366 . S
C1794 C1793 1.366 . S
C1794 C1795 1.414 1_545 S
C1794 C1797 1.499 . S
C1795 H1769 0.950 . S
C1795 C1794 1.414 1_565 S
C1795 C1796 1.374 . S
C1796 H1770 0.950 . S
C1796 C1792 1.385 1_565 S
C1796 C1795 1.374 . S
C1797 C1794 1.499 . S
C1797 C1798 1.373 1_545 S
C1797 C1799 1.389 . S
C1798 H1771 0.950 . S
C1798 C1784 1.377 . S
C1798 C1797 1.373 1_565 S
C1799 C1783 1.377 . S
C1799 C1797 1.389 . S
C1799 C1800 1.524 . S
C1800 C1799 1.524 . S
C1800 C1801 1.397 . S
C1800 C1805 1.363 . S
C1801 H1772 0.950 . S
C1801 C1800 1.397 . S
C1801 C1802 1.334 . S
C1802 H1773 0.950 . S
C1802 C1801 1.334 . S
C1802 C1803 1.287 . S
C1803 C1802 1.287 . S
C1803 C1804 1.524 . S
C1803 H1806 0.999 . S
C1804 H1774 0.950 . S
C1804 C1803 1.524 . S
C1804 C1805 1.415 . S
C1805 H1775 0.950 . S
C1805 C1800 1.363 . S
C1805 C1804 1.415 . S
H1806 C1803 0.999 . S
H1807 C1788 0.913 . S
C227 C10 2.056 . S
C242 C95 2.056 1_554 S
C277 C17 2.027 . S
C292 C56 2.028 . S
C327 C75 2.066 . S
C342 C30 2.088 . S
C377 C49 2.064 . S
C392 C88 2.043 . S
C427 C114 1.986 . S
C442 C166 1.984 1_556 S
C477 C121 2.089 1_554 S
C492 C186 2.107 . S
C527 C147 2.072 . S
C542 C140 2.048 . S
C577 C205 1.928 . S
C592 C173 1.927 . S
C627 C3 1.241 . S
C642 C81 1.246 . S
C677 C94 0.553 . S
C692 C23 0.559 . S
C727 C31 1.741 . S
C742 C55 1.744 . S
C777 C70 0.849 1_565 S
C792 C44 0.860 . S
C827 C4 1.574 . S
C842 C192 1.580 . S
C877 C148 1.742 . S
C892 C16 1.741 . S
C927 C179 1.458 . S
C942 C36 1.461 . S
C977 C161 1.688 . S
C992 C42 1.681 . S
C1027 C134 1.086 . S
C1042 C57 1.099 . S
C1077 C68 1.222 . S
C1092 C198 1.215 . S
C1127 C82 0.984 . S
C1142 C107 0.994 . S
C1177 C96 1.224 . S
C1192 C122 1.231 . S
C1227 C5 0.583 . S
C1242 C62 0.578 . S
C1277 C108 0.614 . S
C1292 C172 0.620 . S
C1327 C159 0.813 . S
C1342 C127 0.806 . S
C1377 C185 0.846 . S
C1392 C135 0.833 . S
C1427 C101 1.261 . S
C1442 C43 1.259 . S
C1477 C29 0.915 . S
C1492 C83 0.895 . S
C1527 C153 1.485 . S
C1542 C199 1.483 . S
C1577 C174 1.211 . S
C1592 C133 1.218 . S
C1627 C200 0.542 . S
C1642 C160 0.537 . S
C1677 C187 1.744 . S
C1692 C109 1.742 . S
C1727 C146 0.861 . S
C1742 C120 0.852 . S
C1777 C18 1.041 1_565 S
C1792 C69 1.028 . S
