# Generated by pormake.
# Topology utm, (3)-cn, num edge types: 1
# Building blocks:
#     Node 0, Type 0, BuildingBlock: WUSLED_clean_sbu_0, # of connection points: 3
#     Node 1, Type 0, BuildingBlock: WUSLED_clean_sbu_0, # of connection points: 3
#     Node 2, Type 0, BuildingBlock: WUSLED_clean_sbu_0, # of connection points: 3
#     Node 3, Type 0, BuildingBlock: WUSLED_clean_sbu_0, # of connection points: 3
#     Node 4, Type 0, BuildingBlock: WUSLED_clean_sbu_0, # of connection points: 3
#     Node 5, Type 0, BuildingBlock: WUSLED_clean_sbu_0, # of connection points: 3
#     Node 6, Type 0, BuildingBlock: WUSLED_clean_sbu_0, # of connection points: 3
#     Node 7, Type 0, BuildingBlock: WUSLED_clean_sbu_0, # of connection points: 3
#     Node 8, Type 0, BuildingBlock: WUSLED_clean_sbu_0, # of connection points: 3
#     Node 9, Type 0, BuildingBlock: WUSLED_clean_sbu_0, # of connection points: 3
#     Node 10, Type 0, BuildingBlock: WUSLED_clean_sbu_0, # of connection points: 3
#     Node 11, Type 0, BuildingBlock: WUSLED_clean_sbu_0, # of connection points: 3
#     Node 12, Type 0, BuildingBlock: WUSLED_clean_sbu_0, # of connection points: 3
#     Node 13, Type 0, BuildingBlock: WUSLED_clean_sbu_0, # of connection points: 3
#     Node 14, Type 0, BuildingBlock: WUSLED_clean_sbu_0, # of connection points: 3
#     Node 15, Type 0, BuildingBlock: WUSLED_clean_sbu_0, # of connection points: 3
#     Node 16, Type 0, BuildingBlock: WUSLED_clean_sbu_0, # of connection points: 3
#     Node 17, Type 0, BuildingBlock: WUSLED_clean_sbu_0, # of connection points: 3
#     Node 18, Type 0, BuildingBlock: WUSLED_clean_sbu_0, # of connection points: 3
#     Node 19, Type 0, BuildingBlock: WUSLED_clean_sbu_0, # of connection points: 3
#     Node 20, Type 0, BuildingBlock: WUSLED_clean_sbu_0, # of connection points: 3
#     Node 21, Type 0, BuildingBlock: WUSLED_clean_sbu_0, # of connection points: 3
#     Node 22, Type 0, BuildingBlock: WUSLED_clean_sbu_0, # of connection points: 3
#     Node 23, Type 0, BuildingBlock: WUSLED_clean_sbu_0, # of connection points: 3
#     Node 24, Type 0, BuildingBlock: WUSLED_clean_sbu_0, # of connection points: 3
#     Node 25, Type 0, BuildingBlock: WUSLED_clean_sbu_0, # of connection points: 3
#     Node 26, Type 0, BuildingBlock: WUSLED_clean_sbu_0, # of connection points: 3
#     Node 27, Type 0, BuildingBlock: WUSLED_clean_sbu_0, # of connection points: 3
#     Node 28, Type 0, BuildingBlock: WUSLED_clean_sbu_0, # of connection points: 3
#     Node 29, Type 0, BuildingBlock: WUSLED_clean_sbu_0, # of connection points: 3
#     Node 30, Type 0, BuildingBlock: WUSLED_clean_sbu_0, # of connection points: 3
#     Node 31, Type 0, BuildingBlock: WUSLED_clean_sbu_0, # of connection points: 3
#     Edge 32, Type (0, 0), None
#     Edge 33, Type (0, 0), None
#     Edge 34, Type (0, 0), None
#     Edge 35, Type (0, 0), None
#     Edge 36, Type (0, 0), None
#     Edge 37, Type (0, 0), None
#     Edge 38, Type (0, 0), None
#     Edge 39, Type (0, 0), None
#     Edge 40, Type (0, 0), None
#     Edge 41, Type (0, 0), None
#     Edge 42, Type (0, 0), None
#     Edge 43, Type (0, 0), None
#     Edge 44, Type (0, 0), None
#     Edge 45, Type (0, 0), None
#     Edge 46, Type (0, 0), None
#     Edge 47, Type (0, 0), None
#     Edge 48, Type (0, 0), None
#     Edge 49, Type (0, 0), None
#     Edge 50, Type (0, 0), None
#     Edge 51, Type (0, 0), None
#     Edge 52, Type (0, 0), None
#     Edge 53, Type (0, 0), None
#     Edge 54, Type (0, 0), None
#     Edge 55, Type (0, 0), None
#     Edge 56, Type (0, 0), None
#     Edge 57, Type (0, 0), None
#     Edge 58, Type (0, 0), None
#     Edge 59, Type (0, 0), None
#     Edge 60, Type (0, 0), None
#     Edge 61, Type (0, 0), None
#     Edge 62, Type (0, 0), None
#     Edge 63, Type (0, 0), None
#     Edge 64, Type (0, 0), None
#     Edge 65, Type (0, 0), None
#     Edge 66, Type (0, 0), None
#     Edge 67, Type (0, 0), None
#     Edge 68, Type (0, 0), None
#     Edge 69, Type (0, 0), None
#     Edge 70, Type (0, 0), None
#     Edge 71, Type (0, 0), None
#     Edge 72, Type (0, 0), None
#     Edge 73, Type (0, 0), None
#     Edge 74, Type (0, 0), None
#     Edge 75, Type (0, 0), None
#     Edge 76, Type (0, 0), None
#     Edge 77, Type (0, 0), None
#     Edge 78, Type (0, 0), None
#     Edge 79, Type (0, 0), None
# Relax obj value: 0.005
# Max RMSD: 0.011
# Mean RMSD: 0.011
data_MOF--net-utm--node1-WUSLED_clean_sbu_0--edge1-none
_symmetry_space_group_name_H-M    P1
_symmetry_Int_Tables_number       1
_symmetry_cell_setting            triclinic
loop_
_symmetry_equiv_pos_as_xyz
'x, y, z'
_cell_length_a     64.361669
_cell_length_b     64.3848
_cell_length_c     50.505907
_cell_angle_alpha  89.993428
_cell_angle_beta   90.003043
_cell_angle_gamma 90.000296
loop_
_atom_site_label
_atom_site_type_symbol
_atom_site_fract_x
_atom_site_fract_y
_atom_site_fract_z
_atom_type_partial_charge
C0 C 0.18833 0.36453 0.17401 0.0
C1 C 0.18962 0.37172 0.14782 0.0
C2 C 0.1589 0.39332 0.1543 0.0
C3 C 0.17511 0.38598 0.13808 0.0
C4 C 0.15766 0.38597 0.18055 0.0
C5 C 0.17225 0.37171 0.1903 0.0
U6 U 0.23241 0.32836 0.1589 0.0
O7 O 0.26234 0.3224 0.17857 0.0
O8 O 0.24033 0.2968 0.17255 0.0
C9 C 0.25808 0.30272 0.18301 0.0
C10 C 0.20367 0.34944 0.18405 0.0
C11 C 0.26265 0.29487 0.20987 0.0
C12 C 0.26054 0.2974 0.25789 0.0
C13 C 0.25551 0.30507 0.23267 0.0
C14 C 0.27975 0.26919 0.23778 0.0
C15 C 0.27278 0.27936 0.2608 0.0
C16 C 0.27474 0.27688 0.21264 0.0
C17 C 0.2459 0.3287 0.08346 0.0
C18 C 0.27751 0.3179 0.06106 0.0
C19 C 0.24817 0.33032 0.03551 0.0
C20 C 0.23687 0.33304 0.05885 0.0
C21 C 0.26881 0.32315 0.03631 0.0
C22 C 0.26615 0.3207 0.08448 0.0
C23 C 0.23436 0.33443 0.10749 0.0
O24 O 0.20094 0.33024 0.17591 0.0
O25 O 0.22313 0.35552 0.18253 0.0
O26 O 0.24436 0.34588 0.12486 0.0
O27 O 0.22276 0.31997 0.11837 0.0
H28 H 0.20194 0.36634 0.1349 0.0
H29 H 0.17679 0.39148 0.11793 0.0
H30 H 0.14525 0.39102 0.19352 0.0
H31 H 0.17093 0.36625 0.21053 0.0
H32 H 0.25508 0.30581 0.2751 0.0
H33 H 0.24619 0.31902 0.23097 0.0
H34 H 0.28889 0.25511 0.23913 0.0
H35 H 0.28036 0.26874 0.19528 0.0
H36 H 0.29325 0.31207 0.0624 0.0
H37 H 0.24103 0.33484 1.01697 0.0
H38 H 0.22128 0.33934 0.05772 0.0
H39 H 0.27336 0.31721 0.10335 0.0
C40 C 0.93574 0.93815 0.42396 0.0
C41 C 0.92854 0.93944 0.39777 0.0
C42 C 0.90694 0.90872 0.40427 0.0
C43 C 0.91427 0.92492 0.38804 0.0
C44 C 0.9143 0.90748 0.43052 0.0
C45 C 0.92856 0.92207 0.44026 0.0
U46 U 0.97193 0.98222 0.40884 0.0
O47 O 0.97789 1.01214 0.42851 0.0
O48 O 1.00349 0.99013 0.42249 0.0
C49 C 0.99757 1.00787 0.43295 0.0
C50 C 0.95084 0.95348 0.43399 0.0
C51 C 1.00543 1.01243 0.45982 0.0
C52 C 1.00276 1.01051 0.50784 0.0
C53 C 0.99509 1.00548 0.48262 0.0
C54 C 0.03122 0.02934 0.48773 0.0
C55 C 1.02093 1.02256 0.51075 0.0
C56 C 1.02354 1.02433 0.46259 0.0
C57 C 0.97158 0.99571 0.3334 0.0
C58 C 0.98237 0.02731 0.31099 0.0
C59 C 0.96998 0.99798 0.28544 0.0
C60 C 0.96725 0.98668 0.30878 0.0
C61 C 0.97713 1.01861 0.28623 0.0
C62 C 0.97957 1.01596 0.33441 0.0
C63 C 0.96585 0.98418 0.35743 0.0
O64 O 0.97004 0.95076 0.42585 0.0
O65 O 0.94475 0.97294 0.43247 0.0
O66 O 0.95439 0.99417 0.37479 0.0
O67 O 0.98031 0.97258 0.36831 0.0
H68 H 0.93392 0.95175 0.38485 0.0
H69 H 0.90878 0.9266 0.3679 0.0
H70 H 0.90925 0.89508 0.4435 0.0
H71 H 0.93403 0.92075 0.46048 0.0
H72 H 0.99425 1.0052 0.52505 0.0
H73 H 0.98105 0.9963 0.48093 0.0
H74 H 0.0454 0.03834 0.48908 0.0
H75 H 0.03178 0.02981 0.44523 0.0
H76 H 0.98818 0.04306 0.31231 0.0
H77 H 0.96547 0.99083 0.26691 0.0
H78 H 0.96097 0.97109 0.30766 0.0
H79 H 0.98305 1.02317 0.35328 0.0
C80 C 0.36222 0.68557 0.67383 0.0
C81 C 0.36091 0.67839 0.64764 0.0
C82 C 0.39164 0.65679 0.6541 0.0
C83 C 0.37542 0.66413 0.63789 0.0
C84 C 0.39289 0.66415 0.68036 0.0
C85 C 0.37831 0.6784 0.69011 0.0
U86 U 0.3181 0.72172 0.65877 0.0
O87 O 0.28818 0.72766 0.67847 0.0
O88 O 0.31017 0.75327 0.67243 0.0
C89 C 0.29243 0.74734 0.6829 0.0
C90 C 0.34687 0.70066 0.68388 0.0
C91 C 0.28787 0.75519 0.70976 0.0
C92 C 0.28991 0.75261 0.75778 0.0
C93 C 0.29494 0.74494 0.73257 0.0
C94 C 0.27083 0.7809 0.73766 0.0
C95 C 0.27773 0.7707 0.76069 0.0
C96 C 0.27584 0.77322 0.71253 0.0
C97 C 0.30456 0.72138 0.58334 0.0
C98 C 0.27292 0.73212 0.56095 0.0
C99 C 0.30228 0.7198 0.53538 0.0
C100 C 0.31359 0.71709 0.55872 0.0
C101 C 0.28163 0.72692 0.53619 0.0
C102 C 0.28429 0.72933 0.58437 0.0
C103 C 0.31612 0.71566 0.60736 0.0
O104 O 0.34958 0.71986 0.67574 0.0
O105 O 0.32741 0.69456 0.68239 0.0
O106 O 0.30613 0.7042 0.62473 0.0
O107 O 0.32772 0.73012 0.61823 0.0
H108 H 0.34859 0.68376 0.63473 0.0
H109 H 0.37373 0.65863 0.61775 0.0
H110 H 0.40531 0.65909 0.69332 0.0
H111 H 0.37964 0.68385 0.71033 0.0
H112 H 0.29532 0.74417 0.775 0.0
H113 H 0.30422 0.73097 0.73088 0.0
H114 H 0.26174 0.79502 0.73901 0.0
H115 H 0.27027 0.78139 0.69517 0.0
H116 H 0.25716 0.73791 0.56229 0.0
H117 H 0.30943 0.71532 0.51684 0.0
H118 H 0.3292 0.71084 0.55758 0.0
H119 H 0.27707 0.73278 0.60324 0.0
C120 C 0.61472 0.11194 0.92386 0.0
C121 C 0.62192 0.11066 0.89767 0.0
C122 C 0.64351 0.14136 0.90417 0.0
C123 C 0.63618 0.12517 0.88794 0.0
C124 C 0.63615 0.1426 0.93042 0.0
C125 C 0.6219 0.12801 0.94016 0.0
U126 U 0.57852 0.06788 0.90872 0.0
O127 O 0.57256 0.03795 0.92838 0.0
O128 O 0.54695 0.05996 0.92237 0.0
C129 C 0.55288 0.04222 0.93282 0.0
C130 C 0.59962 0.0966 0.93388 0.0
C131 C 0.54502 0.03765 0.95968 0.0
C132 C 0.54756 0.03977 1.0077 0.0
C133 C 0.55523 0.04479 0.98248 0.0
C134 C 0.51935 1.02055 0.98759 0.0
C135 C 0.52951 0.02753 1.01062 0.0
C136 C 0.52704 0.02556 0.96246 0.0
C137 C 0.57884 0.05441 0.83328 0.0
C138 C 0.56792 1.02286 0.81088 0.0
C139 C 0.58049 0.05212 0.78533 0.0
C140 C 0.58324 0.06341 0.80866 0.0
C141 C 0.57323 0.03152 0.78613 0.0
C142 C 0.57075 0.03421 0.8343 0.0
C143 C 0.58458 0.06594 0.85731 0.0
O144 O 0.58041 0.09933 0.92575 0.0
O145 O 0.6057 0.07714 0.93235 0.0
O146 O 0.59604 0.05594 0.87467 0.0
O147 O 0.57013 0.07754 0.8682 0.0
H148 H 0.61654 0.09835 0.88474 0.0
H149 H 0.64168 0.1235 0.8678 0.0
H150 H 0.64121 0.155 0.9434 0.0
H151 H 0.61643 0.12932 0.96038 0.0
H152 H 0.55597 0.04523 0.02492 0.0
H153 H 0.56918 0.05412 0.98078 0.0
H154 H 0.50527 1.01141 0.98895 0.0
H155 H 0.51889 1.01993 0.9451 0.0
H156 H 0.56203 1.00714 0.81221 0.0
H157 H 0.58506 0.05923 0.76679 0.0
H158 H 0.5896 0.07898 0.80753 0.0
H159 H 0.56722 0.02702 0.85317 0.0
C160 C 0.1883 0.68552 0.37389 0.0
C161 C 0.18959 0.67833 0.40009 0.0
C162 C 0.15887 0.65674 0.39361 0.0
C163 C 0.17508 0.66407 0.40983 0.0
C164 C 0.15763 0.66409 0.36735 0.0
C165 C 0.17222 0.67835 0.3576 0.0
U166 U 0.23239 0.7217 0.38901 0.0
O167 O 0.26231 0.72766 0.36935 0.0
O168 O 0.2403 0.75326 0.37537 0.0
C169 C 0.25805 0.74734 0.36491 0.0
C170 C 0.20364 0.70062 0.36387 0.0
C171 C 0.26262 0.7552 0.33806 0.0
C172 C 0.26052 0.75266 0.29004 0.0
C173 C 0.25549 0.74499 0.31525 0.0
C174 C 0.27971 0.78088 0.31015 0.0
C175 C 0.27275 0.77071 0.28713 0.0
C176 C 0.2747 0.77319 0.33529 0.0
C177 C 0.24588 0.72135 0.46445 0.0
C178 C 0.27748 0.73217 0.48685 0.0
C179 C 0.24816 0.71973 0.51241 0.0
C180 C 0.23686 0.71701 0.48907 0.0
C181 C 0.26879 0.72691 0.51161 0.0
C182 C 0.26612 0.72936 0.46343 0.0
C183 C 0.23433 0.71562 0.44042 0.0
O184 O 0.20091 0.71982 0.372 0.0
O185 O 0.2231 0.69454 0.36538 0.0
O186 O 0.24434 0.70417 0.42306 0.0
O187 O 0.22273 0.73008 0.42954 0.0
H188 H 0.20191 0.68371 0.41301 0.0
H189 H 0.17676 0.65858 0.42997 0.0
H190 H 0.14522 0.65904 0.35438 0.0
H191 H 0.1709 0.68381 0.33738 0.0
H192 H 0.25507 0.74425 0.27282 0.0
H193 H 0.24618 0.73104 0.31694 0.0
H194 H 0.28884 0.79496 0.30881 0.0
H195 H 0.28031 0.78133 0.35265 0.0
H196 H 0.29323 0.738 0.48552 0.0
H197 H 0.24102 0.71521 0.53095 0.0
H198 H 0.22126 0.71071 0.4902 0.0
H199 H 0.27333 0.73286 0.44456 0.0
C200 C 0.61477 0.93811 0.62401 0.0
C201 C 0.62197 0.93943 0.6502 0.0
C202 C 0.64358 0.90872 0.64375 0.0
C203 C 0.63624 0.92493 0.65996 0.0
C204 C 0.63622 0.90745 0.61751 0.0
C205 C 0.62195 0.92202 0.60774 0.0
U206 U 0.57848 0.98215 0.63899 0.0
O207 O 0.57247 1.01202 0.61925 0.0
O208 O 0.5469 0.98996 0.62524 0.0
C209 C 0.55282 1.00767 0.6147 0.0
C210 C 0.59965 0.95341 0.61396 0.0
C211 C 0.545 1.01216 0.58778 0.0
C212 C 0.54872 1.01193 0.5398 0.0
C213 C 0.55634 1.00685 0.56502 0.0
C214 C 0.51829 0.0275 0.55977 0.0
C215 C 0.52959 1.02239 0.53682 0.0
C216 C 0.52592 1.02244 0.58492 0.0
C217 C 0.57872 0.99575 0.71441 0.0
C218 C 0.56805 0.02741 0.73677 0.0
C219 C 0.58023 0.99801 0.76237 0.0
C220 C 0.58294 0.9867 0.73905 0.0
C221 C 0.5732 1.01868 0.76155 0.0
C222 C 0.57084 1.01604 0.71336 0.0
C223 C 0.58449 0.98419 0.69041 0.0
O224 O 0.58044 0.95067 0.62208 0.0
O225 O 0.6057 0.97288 0.61545 0.0
O226 O 0.59595 0.99419 0.67304 0.0
O227 O 0.57006 0.97255 0.67953 0.0
H228 H 0.61658 0.95175 0.6631 0.0
H229 H 0.64174 0.92663 0.68009 0.0
H230 H 0.64127 0.89504 0.60455 0.0
H231 H 0.61648 0.92068 0.58753 0.0
H232 H 0.558 1.00794 0.52266 0.0
H233 H 0.57113 0.99893 0.56676 0.0
H234 H 0.50338 0.03521 0.55833 0.0
H235 H 0.5169 0.02664 0.60223 0.0
H236 H 0.56233 0.04319 0.73542 0.0
H237 H 0.58467 0.99084 0.78093 0.0
H238 H 0.58914 0.97107 0.7402 0.0
H239 H 0.56745 1.02327 0.69448 0.0
C240 C 0.36221 0.3645 0.87407 0.0
C241 C 0.36091 0.37169 0.90026 0.0
C242 C 0.39163 0.39328 0.89379 0.0
C243 C 0.37542 0.38595 0.91001 0.0
C244 C 0.39289 0.38592 0.86754 0.0
C245 C 0.3783 0.37167 0.85779 0.0
U246 U 0.3181 0.32834 0.88915 0.0
O247 O 0.28818 0.3224 0.86945 0.0
O248 O 0.31017 0.29679 0.87549 0.0
C249 C 0.29243 0.30273 0.86501 0.0
C250 C 0.34687 0.34941 0.86403 0.0
C251 C 0.28787 0.29487 0.83815 0.0
C252 C 0.28988 0.29747 0.79013 0.0
C253 C 0.29491 0.30514 0.81535 0.0
C254 C 0.27085 0.26914 0.81025 0.0
C255 C 0.27773 0.27937 0.78722 0.0
C256 C 0.27587 0.27683 0.83538 0.0
C257 C 0.30457 0.32868 0.96457 0.0
C258 C 0.27294 0.31793 0.98696 0.0
C259 C 0.3023 0.33027 1.01253 0.0
C260 C 0.3136 0.33298 0.9892 0.0
C261 C 0.28165 0.32315 1.01172 0.0
C262 C 0.2843 0.32073 0.96355 0.0
C263 C 0.31612 0.33441 0.94055 0.0
O264 O 0.34958 0.33021 0.87217 0.0
O265 O 0.32741 0.35551 0.86552 0.0
O266 O 0.30614 0.34587 0.92318 0.0
O267 O 0.32772 0.31995 0.92968 0.0
H268 H 0.34859 0.36631 0.91318 0.0
H269 H 0.37373 0.39145 0.93015 0.0
H270 H 0.4053 0.39098 0.85458 0.0
H271 H 0.37963 0.36621 0.83757 0.0
H272 H 0.29527 0.30593 0.77292 0.0
H273 H 0.30417 0.31913 0.81704 0.0
H274 H 0.26178 0.25502 0.8089 0.0
H275 H 0.27032 0.26864 0.85275 0.0
H276 H 0.25718 0.31214 0.98562 0.0
H277 H 0.30945 0.33475 0.03107 0.0
H278 H 0.32921 0.33924 0.99033 0.0
H279 H 0.27709 0.31727 0.94467 0.0
C280 C 0.93574 0.11193 0.12393 0.0
C281 C 0.92855 0.11064 0.15012 0.0
C282 C 0.90696 0.14136 0.14364 0.0
C283 C 0.91429 0.12515 0.15986 0.0
C284 C 0.91432 0.1426 0.11738 0.0
C285 C 0.92857 0.12801 0.10764 0.0
U286 U 0.97193 0.06784 0.13904 0.0
O287 O 0.97788 0.03793 0.11936 0.0
O288 O 1.00349 0.05993 0.12539 0.0
C289 C 0.99756 0.0422 0.11492 0.0
C290 C 0.95084 0.09659 0.1139 0.0
C291 C 1.00542 0.03764 0.08806 0.0
C292 C 1.00272 0.03951 0.04004 0.0
C293 C 0.99505 0.04455 0.06524 0.0
C294 C 0.03125 1.02076 0.06015 0.0
C295 C 1.02091 0.02751 0.03712 0.0
C296 C 1.02356 0.02578 0.08528 0.0
C297 C 0.97159 0.05434 0.21448 0.0
C298 C 0.98236 1.02273 0.23689 0.0
C299 C 0.96999 0.05208 0.26243 0.0
C300 C 0.96727 0.06337 0.23909 0.0
C301 C 0.97713 0.03144 0.26164 0.0
C302 C 0.97956 0.03409 0.21346 0.0
C303 C 0.96586 0.06588 0.19045 0.0
O304 O 0.97005 0.09931 0.12204 0.0
O305 O 0.94475 0.07714 0.11541 0.0
O306 O 0.9544 0.05589 0.17308 0.0
O307 O 0.98032 0.07748 0.17957 0.0
H308 H 0.93393 0.09832 0.16304 0.0
H309 H 0.90879 0.12347 0.18 0.0
H310 H 0.90927 0.155 0.10441 0.0
H311 H 0.93403 0.12933 0.08742 0.0
H312 H 0.99418 0.0448 1.0228 0.0
H313 H 0.98099 0.05369 0.06694 0.0
H314 H 0.04543 1.01181 0.05879 0.0
H315 H 0.03182 1.02033 0.10265 0.0
H316 H 0.98816 1.00698 0.23556 0.0
H317 H 0.96549 0.05922 0.28097 0.0
H318 H 0.961 0.07897 0.24022 0.0
H319 H 0.98303 0.02687 0.1946 0.0
C320 C 0.86403 0.68768 0.87476 0.0
C321 C 0.86299 0.68042 0.90094 0.0
C322 C 0.89376 0.65898 0.89396 0.0
C323 C 0.87765 0.6662 0.91043 0.0
C324 C 0.89479 0.66646 0.86775 0.0
C325 C 0.88005 0.68067 0.85826 0.0
U326 U 0.81925 0.72309 0.88999 0.0
O327 O 0.81059 0.75432 0.87609 0.0
O328 O 0.78912 0.72824 0.87031 0.0
C329 C 0.79294 0.74798 0.86574 0.0
C330 C 0.84841 0.70254 0.86487 0.0
C331 C 0.78811 0.75557 0.83884 0.0
C332 C 0.79699 0.76068 0.79244 0.0
C333 C 0.80197 0.75296 0.81765 0.0
C334 C 0.76423 0.77356 0.8093 0.0
C335 C 0.77804 0.77113 0.78792 0.0
C336 C 0.76923 0.76587 0.83444 0.0
C337 C 0.8054 0.7227 0.96523 0.0
C338 C 0.77346 0.73337 0.98695 0.0
C339 C 0.80246 0.72098 1.01312 0.0
C340 C 0.81409 0.71833 0.99003 0.0
C341 C 0.78183 0.72811 1.01188 0.0
C342 C 0.78514 0.73065 0.96378 0.0
C343 C 0.81729 0.71712 0.94142 0.0
O344 O 0.82907 0.69608 0.86643 0.0
O345 O 0.85078 0.72177 0.87305 0.0
O346 O 0.82859 0.73181 0.93053 0.0
O347 O 0.80769 0.70534 0.92406 0.0
H348 H 0.85072 0.68566 0.91402 0.0
H349 H 0.87613 0.66061 0.93055 0.0
H350 H 0.90712 0.66151 0.8546 0.0
H351 H 0.88118 0.68617 0.83804 0.0
H352 H 0.80814 0.75871 0.77659 0.0
H353 H 0.81665 0.74508 0.82064 0.0
H354 H 0.74938 0.78118 0.80658 0.0
H355 H 0.75829 0.76798 0.85052 0.0
H356 H 0.75771 0.73916 0.98528 0.0
H357 H 0.80936 0.71646 0.03181 0.0
H358 H 0.82969 0.71208 0.99149 0.0
H359 H 0.77819 0.73415 0.94476 0.0
C360 C 0.11261 0.11383 0.62473 0.0
C361 C 0.11987 0.11277 0.6509 0.0
C362 C 0.14129 0.14356 0.64395 0.0
C363 C 0.13408 0.12744 0.66041 0.0
C364 C 0.13381 0.1446 0.61774 0.0
C365 C 0.11962 0.12986 0.60823 0.0
U366 U 0.0772 0.06901 0.63985 0.0
O367 O 0.046 0.06031 0.62586 0.0
O368 O 0.07213 0.03889 0.62012 0.0
C369 C 0.0524 0.04271 0.61546 0.0
C370 C 0.09778 0.09819 0.61481 0.0
C371 C 0.04488 0.03791 0.5885 0.0
C372 C 0.03802 0.04759 0.54272 0.0
C373 C 0.0458 0.05253 0.56792 0.0
C374 C 0.02851 1.01335 0.55835 0.0
C375 C 0.02921 0.02793 0.5376 0.0
C376 C 0.03624 1.01831 0.58348 0.0
C377 C 0.07748 0.05516 0.71511 0.0
C378 C 0.06681 1.02323 0.73685 0.0
C379 C 0.0792 0.05224 0.76301 0.0
C380 C 0.08185 0.06386 0.73991 0.0
C381 C 0.07207 0.03161 0.76179 0.0
C382 C 0.06954 0.03491 0.71368 0.0
C383 C 0.08309 0.06704 0.6913 0.0
O384 O 0.10425 0.07886 0.61638 0.0
O385 O 0.07852 0.10055 0.62294 0.0
O386 O 0.06839 0.07831 0.68037 0.0
O387 O 0.0949 0.05745 0.67397 0.0
H388 H 0.11463 0.1005 0.66397 0.0
H389 H 0.13967 0.12591 0.68053 0.0
H390 H 0.13877 0.15693 0.6046 0.0
H391 H 0.11411 0.13098 0.58801 0.0
H392 H 0.03865 0.05932 0.52737 0.0
H393 H 0.05238 0.06778 0.57137 0.0
H394 H 1.02219 0.99797 0.55513 0.0
H395 H 0.03544 1.00678 0.59908 0.0
H396 H 0.06102 1.0075 0.73519 0.0
H397 H 0.08372 0.05914 0.78169 0.0
H398 H 0.0881 0.07945 0.74136 0.0
H399 H 0.06604 0.02795 0.69466 0.0
C400 C 0.68647 0.3624 0.37459 0.0
C401 C 0.68754 0.36969 0.40075 0.0
C402 C 0.65673 0.39108 0.3938 0.0
C403 C 0.67287 0.3839 0.41025 0.0
C404 C 0.65568 0.38359 0.3676 0.0
C405 C 0.67042 0.36939 0.3581 0.0
U406 U 0.73125 0.32699 0.38982 0.0
O407 O 0.73991 0.29576 0.37593 0.0
O408 O 0.76138 0.32184 0.37015 0.0
C409 C 0.75756 0.3021 0.36559 0.0
C410 C 0.7021 0.34755 0.36469 0.0
C411 C 0.7624 0.29451 0.33869 0.0
C412 C 0.75353 0.28941 0.29228 0.0
C413 C 0.74855 0.29712 0.31749 0.0
C414 C 0.78628 0.2765 0.30918 0.0
C415 C 0.77248 0.27894 0.28778 0.0
C416 C 0.78127 0.28419 0.33431 0.0
C417 C 0.74509 0.32737 0.46507 0.0
C418 C 0.77702 0.31668 0.4868 0.0
C419 C 0.74802 0.32911 0.51296 0.0
C420 C 0.7364 0.33177 0.48986 0.0
C421 C 0.76865 0.32196 0.51173 0.0
C422 C 0.76534 0.31941 0.46363 0.0
C423 C 0.7332 0.33296 0.44125 0.0
O424 O 0.72144 0.354 0.36625 0.0
O425 O 0.69972 0.32831 0.37287 0.0
O426 O 0.72191 0.31827 0.43036 0.0
O427 O 0.74281 0.34474 0.42389 0.0
H428 H 0.69983 0.36446 0.41381 0.0
H429 H 0.67442 0.3895 0.43035 0.0
H430 H 0.64333 0.38852 0.35446 0.0
H431 H 0.66928 0.36387 0.33789 0.0
H432 H 0.74239 0.29139 0.27642 0.0
H433 H 0.73387 0.30502 0.32047 0.0
H434 H 0.80112 0.26887 0.30647 0.0
H435 H 0.79221 0.28207 0.3504 0.0
H436 H 0.79275 0.31087 0.48514 0.0
H437 H 0.74113 0.33364 0.53164 0.0
H438 H 0.72081 0.33803 0.49131 0.0
H439 H 0.77229 0.31589 0.44462 0.0
C440 C 0.43785 0.93629 0.12465 0.0
C441 C 0.43058 0.93734 0.15083 0.0
C442 C 0.40917 0.90655 0.14388 0.0
C443 C 0.41637 0.92267 0.16033 0.0
C444 C 0.41665 0.90551 0.11767 0.0
C445 C 0.43084 0.92026 0.10816 0.0
U446 U 0.47323 0.98113 0.13976 0.0
O447 O 0.50442 0.98984 0.12577 0.0
O448 O 0.47828 1.01125 0.11998 0.0
C449 C 0.49801 1.00743 0.11533 0.0
C450 C 0.45267 0.95193 0.11474 0.0
C451 C 0.50553 1.01222 0.08836 0.0
C452 C 0.51261 1.00244 0.04268 0.0
C453 C 0.50482 0.99751 0.06787 0.0
C454 C 0.52172 0.03684 0.05812 0.0
C455 C 0.52122 1.02218 0.03746 0.0
C456 C 0.51397 0.03189 0.08325 0.0
C457 C 0.47294 0.99503 0.215 0.0
C458 C 0.48351 0.02701 0.2367 0.0
C459 C 0.47131 0.99794 0.2629 0.0
C460 C 0.46866 0.98631 0.23981 0.0
C461 C 0.47834 1.0186 0.26165 0.0
C462 C 0.48078 1.01532 0.21354 0.0
C463 C 0.46734 0.98313 0.1912 0.0
O464 O 0.44619 0.97125 0.11629 0.0
O465 O 0.47193 0.94959 0.12288 0.0
O466 O 0.48204 0.97186 0.18029 0.0
O467 O 0.45552 0.9927 0.17385 0.0
H468 H 0.43581 0.94962 0.16389 0.0
H469 H 0.41078 0.9242 0.18045 0.0
H470 H 0.41171 0.89318 0.10453 0.0
H471 H 0.43635 0.91913 0.08794 0.0
H472 H 0.51215 0.99065 0.0274 0.0
H473 H 0.4984 0.98221 0.07139 0.0
H474 H 0.52787 0.05228 0.05484 0.0
H475 H 0.51461 0.04349 0.09878 0.0
H476 H 0.48922 0.04277 0.23502 0.0
H477 H 0.46686 0.99101 0.28159 0.0
H478 H 0.46249 0.97069 0.24128 0.0
H479 H 0.48422 1.0223 0.19451 0.0
C480 C 0.86401 0.36238 0.67317 0.0
C481 C 0.86296 0.36964 0.64699 0.0
C482 C 0.89374 0.39108 0.65396 0.0
C483 C 0.87762 0.38386 0.6375 0.0
C484 C 0.89477 0.3836 0.68017 0.0
C485 C 0.88004 0.3694 0.68967 0.0
U486 U 0.81923 0.32697 0.65795 0.0
O487 O 0.81057 0.29574 0.67186 0.0
O488 O 0.7891 0.32182 0.67763 0.0
C489 C 0.79292 0.30208 0.6822 0.0
C490 C 0.84839 0.34753 0.68306 0.0
C491 C 0.78809 0.29449 0.7091 0.0
C492 C 0.79695 0.28941 0.75551 0.0
C493 C 0.80193 0.29713 0.7303 0.0
C494 C 0.76422 0.27647 0.73862 0.0
C495 C 0.77801 0.27893 0.76002 0.0
C496 C 0.76922 0.28416 0.71349 0.0
C497 C 0.80538 0.32735 0.58271 0.0
C498 C 0.77344 0.31669 0.56097 0.0
C499 C 0.80245 0.32908 0.53481 0.0
C500 C 0.81408 0.33173 0.55791 0.0
C501 C 0.78181 0.32195 0.53604 0.0
C502 C 0.78512 0.31941 0.58414 0.0
C503 C 0.81727 0.33294 0.60652 0.0
O504 O 0.82905 0.35398 0.68151 0.0
O505 O 0.85076 0.32829 0.67489 0.0
O506 O 0.82857 0.31824 0.61741 0.0
O507 O 0.80766 0.34472 0.62388 0.0
H508 H 0.85069 0.3644 0.63392 0.0
H509 H 0.8761 0.38945 0.61737 0.0
H510 H 0.9071 0.38856 0.69332 0.0
H511 H 0.88116 0.3639 0.70989 0.0
H512 H 0.80808 0.29141 0.77138 0.0
H513 H 0.8166 0.30503 0.72732 0.0
H514 H 0.74938 0.26883 0.74133 0.0
H515 H 0.75829 0.28203 0.69739 0.0
H516 H 0.7577 0.3109 0.56264 0.0
H517 H 0.80935 0.3336 0.51613 0.0
H518 H 0.82968 0.33797 0.55645 0.0
H519 H 0.77817 0.31591 0.60316 0.0
C520 C 0.43789 0.11378 0.42322 0.0
C521 C 0.43059 0.11273 0.39706 0.0
C522 C 0.40919 0.14352 0.40405 0.0
C523 C 0.41637 0.1274 0.38758 0.0
C524 C 0.41671 0.14456 0.43024 0.0
C525 C 0.43091 0.12981 0.43972 0.0
U526 U 0.47332 0.06904 0.40792 0.0
O527 O 0.50457 0.06037 0.42179 0.0
O528 O 0.47849 0.0389 0.42756 0.0
C529 C 0.49823 0.04273 0.43213 0.0
C530 C 0.45276 0.09816 0.43308 0.0
C531 C 0.50582 0.03789 0.45903 0.0
C532 C 0.51093 0.04676 0.50543 0.0
C533 C 0.50321 0.05174 0.48022 0.0
C534 C 0.52382 1.01402 0.48856 0.0
C535 C 0.52139 0.02782 0.50995 0.0
C536 C 0.51613 1.01902 0.46343 0.0
C537 C 0.47291 0.05527 0.33265 0.0
C538 C 0.48369 1.0234 0.31088 0.0
C539 C 0.47109 0.05234 0.28477 0.0
C540 C 0.46843 0.06395 0.30787 0.0
C541 C 0.47833 0.03175 0.28596 0.0
C542 C 0.48096 0.03506 0.33406 0.0
C543 C 0.46733 0.06713 0.35649 0.0
O544 O 0.44631 0.07882 0.43151 0.0
O545 O 0.472 0.10054 0.42491 0.0
O546 O 0.48203 0.07841 0.36739 0.0
O547 O 0.45556 0.0575 0.37385 0.0
H548 H 0.43581 0.10045 0.38398 0.0
H549 H 0.41076 0.12587 0.36748 0.0
H550 H 0.41178 0.15689 0.44339 0.0
H551 H 0.43645 0.13094 0.45993 0.0
H552 H 0.50895 0.0579 0.52129 0.0
H553 H 0.49532 0.06642 0.47723 0.0
H554 H 0.53145 0.99918 0.49128 0.0
H555 H 0.51825 1.00809 0.44734 0.0
H556 H 0.48957 1.00769 0.31251 0.0
H557 H 0.46648 0.05922 0.2661 0.0
H558 H 0.4621 0.07951 0.30645 0.0
H559 H 0.48455 0.02813 0.35306 0.0
C560 C 0.68646 0.68768 0.17331 0.0
C561 C 0.68753 0.6804 0.14715 0.0
C562 C 0.65673 0.659 0.1541 0.0
C563 C 0.67287 0.66619 0.13765 0.0
C564 C 0.65567 0.6665 0.18029 0.0
C565 C 0.67041 0.6807 0.1898 0.0
U566 U 0.73124 0.72309 0.15809 0.0
O567 O 0.7399 0.75432 0.17197 0.0
O568 O 0.76137 0.72825 0.17776 0.0
C569 C 0.75755 0.74798 0.18232 0.0
C570 C 0.70209 0.70254 0.18321 0.0
C571 C 0.76239 0.75558 0.20922 0.0
C572 C 0.75352 0.76066 0.25563 0.0
C573 C 0.74854 0.75294 0.23042 0.0
C574 C 0.78625 0.77361 0.23873 0.0
C575 C 0.77246 0.77115 0.26013 0.0
C576 C 0.78125 0.76592 0.2136 0.0
C577 C 0.74509 0.7227 0.08285 0.0
C578 C 0.77703 0.73338 0.06112 0.0
C579 C 0.74803 0.72096 0.03496 0.0
C580 C 0.7364 0.7183 0.05805 0.0
C581 C 0.76866 0.7281 0.03619 0.0
C582 C 0.76534 0.73066 0.08429 0.0
C583 C 0.7332 0.71711 0.10666 0.0
O584 O 0.72143 0.69609 0.18166 0.0
O585 O 0.69971 0.72177 0.17503 0.0
O586 O 0.72191 0.73181 0.11755 0.0
O587 O 0.74281 0.70534 0.12403 0.0
H588 H 0.69982 0.68562 0.13409 0.0
H589 H 0.67441 0.66058 0.11755 0.0
H590 H 0.64332 0.66157 0.19343 0.0
H591 H 0.66927 0.68622 0.21001 0.0
H592 H 0.74239 0.75866 0.2715 0.0
H593 H 0.73387 0.74503 0.22744 0.0
H594 H 0.80108 0.78126 0.24144 0.0
H595 H 0.79217 0.76806 0.19751 0.0
H596 H 0.79276 0.73919 0.06278 0.0
H597 H 0.74114 0.71642 1.01627 0.0
H598 H 0.72081 0.71205 0.05659 0.0
H599 H 0.77229 0.73418 0.1033 0.0
C600 C 0.11261 0.93624 0.92317 0.0
C601 C 0.11987 0.93729 0.89699 0.0
C602 C 0.14129 0.90651 0.90395 0.0
C603 C 0.13408 0.92263 0.88749 0.0
C604 C 0.13381 0.90547 0.93016 0.0
C605 C 0.11962 0.92021 0.93967 0.0
U606 U 0.07719 0.98105 0.90803 0.0
O607 O 0.046 0.98975 0.92202 0.0
O608 O 0.07212 1.01118 0.92777 0.0
C609 C 0.05239 1.00735 0.93242 0.0
C610 C 0.09777 0.95188 0.93308 0.0
C611 C 0.04487 1.01215 0.95937 0.0
C612 C 0.03806 1.00249 1.00516 0.0
C613 C 0.04583 0.99755 0.97998 0.0
C614 C 0.02844 0.0367 0.9895 0.0
C615 C 0.0292 1.02213 1.01028 0.0
C616 C 0.03619 0.03173 0.96438 0.0
C617 C 0.07748 0.9949 0.83277 0.0
C618 C 0.0668 0.02683 0.81103 0.0
C619 C 0.0792 0.99783 0.78488 0.0
C620 C 0.08186 0.98621 0.80798 0.0
C621 C 0.07207 1.01845 0.7861 0.0
C622 C 0.06954 1.01515 0.83421 0.0
C623 C 0.08309 0.98302 0.85659 0.0
O624 O 0.10424 0.9712 0.93151 0.0
O625 O 0.07852 0.94952 0.92495 0.0
O626 O 0.06839 0.97175 0.86751 0.0
O627 O 0.0949 0.99261 0.87392 0.0
H628 H 0.11463 0.94957 0.88393 0.0
H629 H 0.13967 0.92416 0.86738 0.0
H630 H 0.13877 0.89314 0.94331 0.0
H631 H 0.11411 0.91908 0.95988 0.0
H632 H 0.03871 0.99077 1.02054 0.0
H633 H 0.05244 0.98232 0.97653 0.0
H634 H 1.0221 0.05206 0.9927 0.0
H635 H 0.03535 0.04325 0.94876 0.0
H636 H 0.061 0.04256 0.81269 0.0
H637 H 0.08373 0.99093 0.7662 0.0
H638 H 0.08811 0.97062 0.80653 0.0
H639 H 0.06603 1.0221 0.85322 0.0
C640 C 0.68834 0.86453 0.6739 0.0
C641 C 0.68965 0.87172 0.6477 0.0
C642 C 0.65895 0.89335 0.65416 0.0
C643 C 0.67516 0.886 0.63795 0.0
C644 C 0.65768 0.886 0.68041 0.0
C645 C 0.67225 0.87173 0.69017 0.0
U646 U 0.73235 0.82821 0.65889 0.0
O647 O 0.76223 0.82218 0.67861 0.0
O648 O 0.74014 0.79664 0.67265 0.0
C649 C 0.75787 0.80254 0.68317 0.0
C650 C 0.70364 0.84941 0.68394 0.0
C651 C 0.76237 0.79473 0.71009 0.0
C652 C 0.76214 0.79845 0.75807 0.0
C653 C 0.75705 0.80606 0.73284 0.0
C654 C 0.77772 0.76804 0.7381 0.0
C655 C 0.77261 0.77934 0.76105 0.0
C656 C 0.77266 0.77567 0.71295 0.0
C657 C 0.7459 0.82842 0.58345 0.0
C658 C 0.77751 0.8176 0.56108 0.0
C659 C 0.74817 0.82999 0.5355 0.0
C660 C 0.73687 0.83273 0.55883 0.0
C661 C 0.76881 0.82283 0.53631 0.0
C662 C 0.76615 0.82042 0.58449 0.0
C663 C 0.73436 0.8342 0.60747 0.0
O664 O 0.70086 0.83021 0.67584 0.0
O665 O 0.72312 0.85544 0.68243 0.0
O666 O 0.74438 0.84565 0.62482 0.0
O667 O 0.72271 0.81979 0.61837 0.0
H668 H 0.70196 0.86633 0.6348 0.0
H669 H 0.67685 0.89149 0.61781 0.0
H670 H 0.64527 0.89106 0.69337 0.0
H671 H 0.67091 0.86627 0.71039 0.0
H672 H 0.75814 0.80772 0.77521 0.0
H673 H 0.74913 0.82084 0.73111 0.0
H674 H 0.78545 0.75314 0.73954 0.0
H675 H 0.77687 0.76665 0.69564 0.0
H676 H 0.79326 0.81178 0.56242 0.0
H677 H 0.74104 0.83449 0.51695 0.0
H678 H 0.72128 0.83902 0.55769 0.0
H679 H 0.77335 0.81695 0.60336 0.0
C680 C 0.43579 0.43808 0.9239 0.0
C681 C 0.4286 0.43937 0.8977 0.0
C682 C 0.40701 0.40866 0.90418 0.0
C683 C 0.41434 0.42486 0.88796 0.0
C684 C 0.41436 0.40741 0.93043 0.0
C685 C 0.42862 0.422 0.94019 0.0
U686 U 0.47194 0.48219 0.90882 0.0
O687 O 0.47787 0.51211 0.9285 0.0
O688 O 0.5035 0.49013 0.92248 0.0
C689 C 0.49756 0.50786 0.93294 0.0
C690 C 0.45087 0.45342 0.93394 0.0
C691 C 0.50541 0.51244 0.9598 0.0
C692 C 0.50285 0.51036 1.00782 0.0
C693 C 0.49519 0.50532 0.9826 0.0
C694 C 0.53109 0.52953 0.9877 0.0
C695 C 0.52091 0.52258 1.01073 0.0
C696 C 0.52341 0.52451 0.96257 0.0
C697 C 0.4716 0.4957 0.83338 0.0
C698 C 0.48238 0.52731 0.81099 0.0
C699 C 0.46999 0.49798 0.78543 0.0
C700 C 0.46727 0.48668 0.80876 0.0
C701 C 0.47714 0.51861 0.78623 0.0
C702 C 0.47958 0.51595 0.83441 0.0
C703 C 0.46587 0.48415 0.85741 0.0
O704 O 0.47009 0.45072 0.92581 0.0
O705 O 0.44477 0.47287 0.93244 0.0
O706 O 0.4544 0.49413 0.87477 0.0
O707 O 0.48035 0.47256 0.86829 0.0
H708 H 0.43398 0.45169 0.88479 0.0
H709 H 0.40884 0.42654 0.86782 0.0
H710 H 0.40931 0.395 0.9434 0.0
H711 H 0.43408 0.42068 0.96041 0.0
H712 H 0.49444 0.50491 0.02504 0.0
H713 H 0.48123 0.49601 0.98091 0.0
H714 H 0.54518 0.53866 0.98905 0.0
H715 H 0.53156 0.53012 0.94521 0.0
H716 H 0.48819 0.54306 0.81233 0.0
H717 H 0.46548 0.49084 0.76689 0.0
H718 H 0.46099 0.47108 0.80763 0.0
H719 H 0.48306 0.52315 0.85328 0.0
C720 C 0.86222 0.18557 0.17375 0.0
C721 C 0.8609 0.17837 0.14756 0.0
C722 C 0.8916 0.15674 0.15402 0.0
C723 C 0.87539 0.16409 0.13781 0.0
C724 C 0.89288 0.16411 0.18027 0.0
C725 C 0.87831 0.17838 0.19003 0.0
U726 U 0.81819 0.22188 0.15876 0.0
O727 O 0.78831 0.22789 0.17849 0.0
O728 O 0.81039 0.25344 0.17252 0.0
C729 C 0.79267 0.24753 0.18305 0.0
C730 C 0.84692 0.20068 0.1838 0.0
C731 C 0.78817 0.25534 0.20996 0.0
C732 C 0.78837 0.25161 0.25794 0.0
C733 C 0.79347 0.244 0.23272 0.0
C734 C 0.77282 0.28205 0.23796 0.0
C735 C 0.77792 0.27074 0.26092 0.0
C736 C 0.77789 0.27442 0.21282 0.0
C737 C 0.80461 0.22168 0.08333 0.0
C738 C 0.77299 0.23248 0.06097 0.0
C739 C 0.80232 0.22012 0.03538 0.0
C740 C 0.81363 0.21738 0.0587 0.0
C741 C 0.78167 0.22726 0.0362 0.0
C742 C 0.78435 0.22966 0.08438 0.0
C743 C 0.81616 0.21589 0.10734 0.0
O744 O 0.84968 0.21989 0.17569 0.0
O745 O 0.82744 0.19464 0.1823 0.0
O746 O 0.80615 0.20444 0.1247 0.0
O747 O 0.82781 0.23031 0.11823 0.0
H748 H 0.84859 0.18376 0.13466 0.0
H749 H 0.87369 0.15859 0.11768 0.0
H750 H 0.90529 0.15904 0.19323 0.0
H751 H 0.87966 0.18384 0.21024 0.0
H752 H 0.79236 0.24234 0.27509 0.0
H753 H 0.80138 0.22922 0.23099 0.0
H754 H 0.76511 0.29695 0.23939 0.0
H755 H 0.7737 0.28344 0.19551 0.0
H756 H 0.75723 0.23829 0.06232 0.0
H757 H 0.80945 0.21562 1.01683 0.0
H758 H 0.82923 0.2111 0.05755 0.0
H759 H 0.77715 0.23311 0.10326 0.0
C760 C 0.11467 0.612 0.42374 0.0
C761 C 0.12186 0.61068 0.39755 0.0
C762 C 0.14349 0.64138 0.404 0.0
C763 C 0.13614 0.62517 0.38779 0.0
C764 C 0.13612 0.64266 0.43024 0.0
C765 C 0.12185 0.62809 0.44001 0.0
U766 U 0.07835 0.56797 0.40878 0.0
O767 O 0.07235 0.5381 0.42852 0.0
O768 O 0.04678 0.56017 0.42257 0.0
C769 C 0.05271 0.54245 0.4331 0.0
C770 C 0.09955 0.5967 0.4338 0.0
C771 C 0.0449 0.53796 0.46003 0.0
C772 C 0.04876 0.53796 0.50799 0.0
C773 C 0.05636 0.54306 0.48277 0.0
C774 C 1.0181 0.52281 0.48806 0.0
C775 C 0.02953 0.5277 0.511 0.0
C776 C 0.02572 0.52788 0.46291 0.0
C777 C 0.07854 0.55438 0.33335 0.0
C778 C 0.06774 0.52277 0.311 0.0
C779 C 0.0801 0.55209 0.2854 0.0
C780 C 0.08284 0.5634 0.30872 0.0
C781 C 0.07296 0.53145 0.28623 0.0
C782 C 0.07056 0.53413 0.33441 0.0
C783 C 0.08432 0.56593 0.35736 0.0
O784 O 0.08034 0.59945 0.4257 0.0
O785 O 0.1056 0.57723 0.4323 0.0
O786 O 0.09579 0.55593 0.37471 0.0
O787 O 0.0699 0.57757 0.36825 0.0
H788 H 0.11648 0.59837 0.38465 0.0
H789 H 0.14165 0.62347 0.36766 0.0
H790 H 0.14118 0.65507 0.4432 0.0
H791 H 0.11638 0.62944 0.46022 0.0
H792 H 0.05813 0.54177 0.52512 0.0
H793 H 0.07124 0.55081 0.48102 0.0
H794 H 1.00311 0.51526 0.48951 0.0
H795 H 1.01661 0.52385 0.44562 0.0
H796 H 0.06194 0.50702 0.31236 0.0
H797 H 0.08459 0.55922 0.26685 0.0
H798 H 0.08911 0.579 0.30756 0.0
H799 H 0.06711 0.52693 0.35329 0.0
C800 C 0.68826 0.18558 0.87407 0.0
C801 C 0.68958 0.17837 0.90026 0.0
C802 C 0.65887 0.15675 0.89379 0.0
C803 C 0.67508 0.16409 0.91 0.0
C804 C 0.6576 0.16413 0.86755 0.0
C805 C 0.67217 0.1784 0.8578 0.0
U806 U 0.7323 0.22188 0.88907 0.0
O807 O 0.76218 0.22789 0.86934 0.0
O808 O 0.7401 0.25345 0.87529 0.0
C809 C 0.75783 0.24753 0.86477 0.0
C810 C 0.70357 0.2007 0.86403 0.0
C811 C 0.76232 0.25534 0.83785 0.0
C812 C 0.76213 0.2516 0.78987 0.0
C813 C 0.75704 0.244 0.81509 0.0
C814 C 0.77766 0.28205 0.80983 0.0
C815 C 0.77257 0.27073 0.78688 0.0
C816 C 0.77259 0.27442 0.83498 0.0
C817 C 0.74588 0.22168 0.96449 0.0
C818 C 0.77751 0.23248 0.98685 0.0
C819 C 0.74817 0.22012 1.01245 0.0
C820 C 0.73686 0.21738 0.98913 0.0
C821 C 0.76882 0.22726 1.01163 0.0
C822 C 0.76614 0.22966 0.96345 0.0
C823 C 0.73433 0.2159 0.94049 0.0
O824 O 0.70081 0.2199 0.87213 0.0
O825 O 0.72305 0.19465 0.86553 0.0
O826 O 0.74434 0.20444 0.92313 0.0
O827 O 0.72269 0.23032 0.92959 0.0
H828 H 0.7019 0.18376 0.91317 0.0
H829 H 0.67679 0.15859 0.93014 0.0
H830 H 0.64519 0.15907 0.85459 0.0
H831 H 0.67083 0.18387 0.83758 0.0
H832 H 0.75816 0.24232 0.77273 0.0
H833 H 0.74914 0.2292 0.81683 0.0
H834 H 0.78536 0.29696 0.8084 0.0
H835 H 0.77678 0.28345 0.85229 0.0
H836 H 0.79326 0.23829 0.9855 0.0
H837 H 0.74104 0.21563 0.031 0.0
H838 H 0.72126 0.21111 0.99028 0.0
H839 H 0.77334 0.23311 0.94457 0.0
C840 C 0.1147 0.43805 0.12416 0.0
C841 C 0.12189 0.43937 0.15035 0.0
C842 C 0.14352 0.40868 0.1439 0.0
C843 C 0.13617 0.42488 0.16011 0.0
C844 C 0.13615 0.4074 0.11766 0.0
C845 C 0.12188 0.42197 0.10789 0.0
U846 U 0.07838 0.48208 0.13911 0.0
O847 O 0.07237 0.51195 0.11937 0.0
O848 O 0.04681 0.48989 0.12532 0.0
C849 C 0.05273 0.5076 0.11479 0.0
C850 C 0.09958 0.45336 0.1141 0.0
C851 C 0.04493 0.51209 0.08786 0.0
C852 C 0.04878 0.51208 0.0399 0.0
C853 C 0.05638 0.50699 0.06512 0.0
C854 C 1.01813 0.52726 0.05983 0.0
C855 C 0.02955 0.52236 0.03689 0.0
C856 C 0.02575 0.52219 0.08498 0.0
C857 C 0.07856 0.49567 0.21454 0.0
C858 C 0.06774 0.52728 0.23688 0.0
C859 C 0.08011 0.49796 0.26249 0.0
C860 C 0.08286 0.48665 0.23918 0.0
C861 C 0.07296 0.5186 0.26166 0.0
C862 C 0.07057 0.51591 0.21348 0.0
C863 C 0.08434 0.48412 0.19054 0.0
O864 O 0.08037 0.4506 0.12219 0.0
O865 O 0.10563 0.47283 0.1156 0.0
O866 O 0.09581 0.49412 0.17319 0.0
O867 O 0.06993 0.47248 0.17964 0.0
H868 H 0.11651 0.45169 0.16325 0.0
H869 H 0.14168 0.42659 0.18024 0.0
H870 H 0.14121 0.39499 0.1047 0.0
H871 H 0.11641 0.42062 0.08768 0.0
H872 H 0.05814 0.50826 1.02277 0.0
H873 H 0.07125 0.49922 0.06687 0.0
H874 H 1.00315 0.53482 0.05837 0.0
H875 H 1.01665 0.52623 0.10227 0.0
H876 H 0.06193 0.54303 0.23552 0.0
H877 H 0.08461 0.49083 0.28105 0.0
H878 H 0.08914 0.47106 0.24033 0.0
H879 H 0.06711 0.52311 0.1946 0.0
C880 C 0.8622 0.86452 0.37417 0.0
C881 C 0.86088 0.87172 0.40035 0.0
C882 C 0.89158 0.89334 0.39389 0.0
C883 C 0.87537 0.886 0.4101 0.0
C884 C 0.89285 0.88597 0.36764 0.0
C885 C 0.87829 0.8717 0.35789 0.0
U886 U 0.81816 0.82821 0.38916 0.0
O887 O 0.78828 0.82219 0.36943 0.0
O888 O 0.81036 0.79664 0.3754 0.0
C889 C 0.79264 0.80255 0.36488 0.0
C890 C 0.84689 0.8494 0.36412 0.0
C891 C 0.78814 0.79474 0.33795 0.0
C892 C 0.78833 0.79848 0.28998 0.0
C893 C 0.79342 0.80609 0.3152 0.0
C894 C 0.77282 0.76803 0.30995 0.0
C895 C 0.77789 0.77935 0.287 0.0
C896 C 0.77788 0.77566 0.33509 0.0
C897 C 0.80459 0.82841 0.46459 0.0
C898 C 0.77296 0.81762 0.48696 0.0
C899 C 0.80231 0.82995 0.51255 0.0
C900 C 0.81362 0.83269 0.48922 0.0
C901 C 0.78166 0.82283 0.51173 0.0
C902 C 0.78432 0.82044 0.46355 0.0
C903 C 0.81613 0.83419 0.44058 0.0
O904 O 0.84965 0.8302 0.37223 0.0
O905 O 0.82741 0.85544 0.36562 0.0
O906 O 0.80612 0.84565 0.42322 0.0
O907 O 0.82778 0.81978 0.42969 0.0
H908 H 0.84856 0.86633 0.41326 0.0
H909 H 0.87367 0.8915 0.43023 0.0
H910 H 0.90527 0.89103 0.35468 0.0
H911 H 0.87963 0.86623 0.33768 0.0
H912 H 0.7923 0.80777 0.27283 0.0
H913 H 0.80131 0.82089 0.31693 0.0
H914 H 0.76512 0.75311 0.30852 0.0
H915 H 0.7737 0.76663 0.3524 0.0
H916 H 0.7572 0.81183 0.48561 0.0
H917 H 0.80945 0.83443 0.5311 0.0
H918 H 0.82922 0.83896 0.49037 0.0
H919 H 0.77711 0.817 0.44467 0.0
C920 C 0.43579 0.612 0.62399 0.0
C921 C 0.4286 0.6107 0.65018 0.0
C922 C 0.40701 0.64142 0.64372 0.0
C923 C 0.41434 0.62521 0.65993 0.0
C924 C 0.41436 0.64267 0.61746 0.0
C925 C 0.42861 0.62808 0.60771 0.0
U926 U 0.47194 0.56788 0.63906 0.0
O927 O 0.47787 0.53797 0.61937 0.0
O928 O 0.50349 0.55994 0.6254 0.0
C929 C 0.49755 0.54221 0.61494 0.0
C930 C 0.45087 0.59665 0.61394 0.0
C931 C 0.50541 0.53764 0.58808 0.0
C932 C 0.50286 0.53973 0.54006 0.0
C933 C 0.49519 0.54476 0.56527 0.0
C934 C 0.53109 0.52054 0.56018 0.0
C935 C 0.52091 0.5275 0.53715 0.0
C936 C 0.5234 0.52556 0.58531 0.0
C937 C 0.4716 0.55437 0.7145 0.0
C938 C 0.48237 0.52276 0.73689 0.0
C939 C 0.46999 0.55209 0.76245 0.0
C940 C 0.46727 0.56339 0.73912 0.0
C941 C 0.47714 0.53145 0.76165 0.0
C942 C 0.47958 0.53412 0.71347 0.0
C943 C 0.46587 0.56592 0.69047 0.0
O944 O 0.47008 0.59935 0.62207 0.0
O945 O 0.44477 0.5772 0.61544 0.0
O946 O 0.4544 0.55594 0.6731 0.0
O947 O 0.48034 0.57751 0.67959 0.0
H948 H 0.43398 0.59838 0.6631 0.0
H949 H 0.40885 0.62352 0.68007 0.0
H950 H 0.40931 0.65508 0.6045 0.0
H951 H 0.43407 0.62941 0.58749 0.0
H952 H 0.49444 0.54517 0.52284 0.0
H953 H 0.48124 0.55408 0.56696 0.0
H954 H 0.54517 0.51141 0.55883 0.0
H955 H 0.53155 0.51995 0.60268 0.0
H956 H 0.48818 0.50701 0.73555 0.0
H957 H 0.46549 0.55923 0.78099 0.0
H958 H 0.461 0.57899 0.74025 0.0
H959 H 0.48305 0.52691 0.6946 0.0
C960 C 0.36403 0.18768 0.3748 0.0
C961 C 0.363 0.18043 0.40099 0.0
C962 C 0.39376 0.15898 0.394 0.0
C963 C 0.37766 0.16621 0.41048 0.0
C964 C 0.39478 0.16644 0.36778 0.0
C965 C 0.38004 0.18064 0.35829 0.0
U966 U 0.31922 0.22309 0.38993 0.0
O967 O 0.31052 0.25428 0.37593 0.0
O968 O 0.28908 0.22816 0.37019 0.0
C969 C 0.29291 0.24788 0.36552 0.0
C970 C 0.34839 0.20251 0.36489 0.0
C971 C 0.28812 0.25539 0.33855 0.0
C972 C 0.29788 0.26245 0.29285 0.0
C973 C 0.30282 0.25468 0.31805 0.0
C974 C 0.26348 0.27157 0.30832 0.0
C975 C 0.27814 0.27107 0.28764 0.0
C976 C 0.26843 0.26383 0.33344 0.0
C977 C 0.30537 0.22282 0.46519 0.0
C978 C 0.27343 0.2335 0.48693 0.0
C979 C 0.30246 0.22113 0.51309 0.0
C980 C 0.31407 0.21846 0.48999 0.0
C981 C 0.28182 0.22825 0.51187 0.0
C982 C 0.28511 0.23076 0.46376 0.0
C983 C 0.31725 0.21722 0.44138 0.0
O984 O 0.32906 0.19604 0.36647 0.0
O985 O 0.35076 0.22176 0.37302 0.0
O986 O 0.32853 0.23191 0.43045 0.0
O987 O 0.30765 0.2054 0.42405 0.0
H988 H 0.35074 0.18569 0.41407 0.0
H989 H 0.37615 0.16063 0.4306 0.0
H990 H 0.40709 0.16147 0.35462 0.0
H991 H 0.38115 0.18614 0.33806 0.0
H992 H 0.30967 0.26199 0.27757 0.0
H993 H 0.31813 0.24825 0.32156 0.0
H994 H 0.24803 0.27773 0.30504 0.0
H995 H 0.25684 0.26448 0.34898 0.0
H996 H 0.25769 0.23929 0.48527 0.0
H997 H 0.30936 0.21661 0.53177 0.0
H998 H 0.32967 0.21222 0.49144 0.0
H999 H 0.27815 0.23426 0.44474 0.0
C1000 C 0.61258 0.61386 0.12478 0.0
C1001 C 0.61981 0.61282 0.15098 0.0
C1002 C 0.64127 0.64357 0.14403 0.0
C1003 C 0.63402 0.62747 0.16049 0.0
C1004 C 0.63383 0.6446 0.1178 0.0
C1005 C 0.61963 0.62987 0.10828 0.0
U1006 U 0.57716 0.56905 0.13987 0.0
O1007 O 0.54597 0.56034 0.12585 0.0
O1008 O 0.57211 0.53892 0.12012 0.0
C1009 C 0.55238 0.54274 0.11544 0.0
C1010 C 0.59775 0.59822 0.11485 0.0
C1011 C 0.54487 0.53794 0.08847 0.0
C1012 C 0.53783 0.54768 0.04276 0.0
C1013 C 0.5456 0.55262 0.06795 0.0
C1014 C 0.52868 0.5133 0.05826 0.0
C1015 C 0.5292 0.52795 0.03757 0.0
C1016 C 0.53642 0.51827 0.08338 0.0
C1017 C 0.57741 0.55518 0.21513 0.0
C1018 C 0.56673 0.52325 0.23685 0.0
C1019 C 0.57912 0.55225 0.26302 0.0
C1020 C 0.58178 0.56387 0.23993 0.0
C1021 C 0.57198 0.53162 0.26179 0.0
C1022 C 0.56946 0.53493 0.21368 0.0
C1023 C 0.58302 0.56707 0.19132 0.0
O1024 O 0.60422 0.5789 0.11642 0.0
O1025 O 0.57849 0.60058 0.12296 0.0
O1026 O 0.56832 0.57833 0.18038 0.0
O1027 O 0.59485 0.55748 0.17399 0.0
H1028 H 0.61455 0.60056 0.16405 0.0
H1029 H 0.63959 0.62596 0.18062 0.0
H1030 H 0.63881 0.65692 0.10465 0.0
H1031 H 0.61415 0.63099 0.08805 0.0
H1032 H 0.5383 0.55946 0.02747 0.0
H1033 H 0.55204 0.56793 0.07146 0.0
H1034 H 0.52251 0.49787 0.05499 0.0
H1035 H 0.53576 0.50669 0.09893 0.0
H1036 H 0.56093 0.50752 0.23519 0.0
H1037 H 0.58364 0.55914 0.28171 0.0
H1038 H 0.58803 0.57946 0.24138 0.0
H1039 H 0.56596 0.52798 0.19467 0.0
C1040 C 0.18646 0.86239 0.87466 0.0
C1041 C 0.18751 0.86964 0.90084 0.0
C1042 C 0.15673 0.89107 0.89389 0.0
C1043 C 0.17285 0.88385 0.91034 0.0
C1044 C 0.15569 0.8836 0.86767 0.0
C1045 C 0.17043 0.86941 0.85816 0.0
U1046 U 0.23127 0.82696 0.88979 0.0
O1047 O 0.23997 0.79578 0.8758 0.0
O1048 O 0.26141 0.82189 0.87005 0.0
C1049 C 0.25758 0.80217 0.86539 0.0
C1050 C 0.2021 0.84755 0.86475 0.0
C1051 C 0.26238 0.79466 0.83843 0.0
C1052 C 0.25264 0.78767 0.7927 0.0
C1053 C 0.24771 0.79544 0.81789 0.0
C1054 C 0.287 0.77841 0.80824 0.0
C1055 C 0.27237 0.77898 0.78753 0.0
C1056 C 0.28204 0.78615 0.83336 0.0
C1057 C 0.24512 0.82724 0.96506 0.0
C1058 C 0.27705 0.81658 0.98682 0.0
C1059 C 0.24802 0.82895 1.01295 0.0
C1060 C 0.23641 0.8316 0.98985 0.0
C1061 C 0.26866 0.82183 1.01174 0.0
C1062 C 0.26538 0.81931 0.96363 0.0
C1063 C 0.23324 0.83284 0.94124 0.0
O1064 O 0.22143 0.85402 0.86632 0.0
O1065 O 0.19973 0.8283 0.87287 0.0
O1066 O 0.22197 0.81815 0.93031 0.0
O1067 O 0.24285 0.84465 0.9239 0.0
H1068 H 0.19979 0.86439 0.91391 0.0
H1069 H 0.17438 0.88943 0.93046 0.0
H1070 H 0.14336 0.88856 0.85452 0.0
H1071 H 0.16931 0.86391 0.83794 0.0
H1072 H 0.24088 0.78818 0.77739 0.0
H1073 H 0.23241 0.80192 0.82138 0.0
H1074 H 0.30242 0.7722 0.80498 0.0
H1075 H 0.29361 0.78545 0.84892 0.0
H1076 H 0.2928 0.81079 0.98517 0.0
H1077 H 0.24111 0.83346 0.03163 0.0
H1078 H 0.22081 0.83784 0.99129 0.0
H1079 H 0.27235 0.81581 0.94462 0.0
C1080 C 0.93788 0.43625 0.62469 0.0
C1081 C 0.9306 0.4373 0.65086 0.0
C1082 C 0.90918 0.40652 0.6439 0.0
C1083 C 0.91639 0.42264 0.66035 0.0
C1084 C 0.91667 0.40549 0.61769 0.0
C1085 C 0.93087 0.42022 0.60819 0.0
U1086 U 0.97329 0.48102 0.63991 0.0
O1087 O 1.00453 0.48969 0.62602 0.0
O1088 O 0.97844 0.51114 0.62023 0.0
C1089 C 0.99819 0.50733 0.61567 0.0
C1090 C 0.95273 0.45187 0.6148 0.0
C1091 C 1.00578 0.51217 0.58878 0.0
C1092 C 1.01067 0.50341 0.54231 0.0
C1093 C 1.00296 0.49843 0.56752 0.0
C1094 C 1.02399 0.53594 0.55933 0.0
C1095 C 1.02133 0.52225 0.53786 0.0
C1096 C 1.0163 0.53093 0.58446 0.0
C1097 C 0.97289 0.49488 0.71515 0.0
C1098 C 0.98356 0.52681 0.73686 0.0
C1099 C 0.97116 0.49782 0.76304 0.0
C1100 C 0.96851 0.48619 0.73995 0.0
C1101 C 0.9783 0.51845 0.76179 0.0
C1102 C 0.98084 0.51512 0.7137 0.0
C1103 C 0.9673 0.48298 0.69134 0.0
O1104 O 0.94627 0.4712 0.61634 0.0
O1105 O 0.97198 0.4495 0.62298 0.0
O1106 O 0.98201 0.4717 0.68046 0.0
O1107 O 0.95552 0.49258 0.67397 0.0
H1108 H 0.93584 0.44957 0.66393 0.0
H1109 H 0.91079 0.42417 0.68047 0.0
H1110 H 0.91172 0.39315 0.60454 0.0
H1111 H 0.93638 0.41909 0.58798 0.0
H1112 H 1.00853 0.49236 0.52639 0.0
H1113 H 0.99491 0.48383 0.57045 0.0
H1114 H 0.03177 0.5507 0.55667 0.0
H1115 H 1.01858 0.54178 0.6006 0.0
H1116 H 0.98936 0.54255 0.73518 0.0
H1117 H 0.96663 0.49094 0.78173 0.0
H1118 H 0.96225 0.4706 0.74141 0.0
H1119 H 0.98436 0.52207 0.69467 0.0
C1120 C 0.364 0.86242 0.17316 0.0
C1121 C 0.36295 0.86967 0.14697 0.0
C1122 C 0.39373 0.89111 0.15394 0.0
C1123 C 0.37762 0.88388 0.13748 0.0
C1124 C 0.39476 0.88364 0.18015 0.0
C1125 C 0.38002 0.86944 0.18966 0.0
U1126 U 0.31919 0.82699 0.15802 0.0
O1127 O 0.3105 0.79581 0.17201 0.0
O1128 O 0.28905 0.82192 0.17775 0.0
C1129 C 0.29289 0.8022 0.18242 0.0
C1130 C 0.34836 0.84758 0.18307 0.0
C1131 C 0.28809 0.79468 0.20939 0.0
C1132 C 0.29785 0.78763 0.25509 0.0
C1133 C 0.30278 0.79541 0.2299 0.0
C1134 C 0.26345 0.77849 0.23961 0.0
C1135 C 0.27811 0.779 0.26029 0.0
C1136 C 0.26841 0.78624 0.21448 0.0
C1137 C 0.30535 0.82727 0.08275 0.0
C1138 C 0.27343 0.81658 0.06099 0.0
C1139 C 0.30244 0.82898 0.03485 0.0
C1140 C 0.31406 0.83164 0.05796 0.0
C1141 C 0.28181 0.82184 0.03607 0.0
C1142 C 0.2851 0.81931 0.08417 0.0
C1143 C 0.31723 0.83287 0.10657 0.0
O1144 O 0.32903 0.85404 0.18149 0.0
O1145 O 0.35073 0.82833 0.17494 0.0
O1146 O 0.32851 0.81819 0.1175 0.0
O1147 O 0.30762 0.84468 0.1239 0.0
H1148 H 0.35068 0.86442 0.1339 0.0
H1149 H 0.37609 0.88947 0.11735 0.0
H1150 H 0.40709 0.8886 0.19331 0.0
H1151 H 0.38114 0.86394 0.20988 0.0
H1152 H 0.30963 0.7881 0.27038 0.0
H1153 H 0.31809 0.80184 0.22639 0.0
H1154 H 0.24801 0.77233 0.24288 0.0
H1155 H 0.25682 0.78558 0.19894 0.0
H1156 H 0.25769 0.81077 0.06265 0.0
H1157 H 0.30935 0.8335 1.01617 0.0
H1158 H 0.32965 0.8379 0.05651 0.0
H1159 H 0.27814 0.81581 0.10319 0.0
C1160 C 0.93791 0.61381 0.92321 0.0
C1161 C 0.93063 0.61276 0.89704 0.0
C1162 C 0.90921 0.64354 0.90402 0.0
C1163 C 0.91641 0.62742 0.88755 0.0
C1164 C 0.9167 0.64457 0.93022 0.0
C1165 C 0.9309 0.62983 0.93972 0.0
U1166 U 0.97331 0.56904 0.90798 0.0
O1167 O 1.00455 0.56037 0.92186 0.0
O1168 O 0.97846 0.53891 0.92765 0.0
C1169 C 0.99821 0.54272 0.93221 0.0
C1170 C 0.95276 0.59819 0.9331 0.0
C1171 C 1.00581 0.53789 0.9591 0.0
C1172 C 1.01071 0.54665 1.00557 0.0
C1173 C 1.003 0.55164 0.98036 0.0
C1174 C 1.024 0.51411 0.98856 0.0
C1175 C 1.02136 0.5278 1.01003 0.0
C1176 C 1.01631 0.51911 0.96343 0.0
C1177 C 0.9729 0.55519 0.83274 0.0
C1178 C 0.98358 0.52325 0.81103 0.0
C1179 C 0.97115 0.55224 0.78485 0.0
C1180 C 0.9685 0.56387 0.80794 0.0
C1181 C 0.9783 0.53161 0.78609 0.0
C1182 C 0.98086 0.53494 0.83419 0.0
C1183 C 0.96732 0.56708 0.85655 0.0
O1184 O 0.9463 0.57885 0.93155 0.0
O1185 O 0.97201 0.60056 0.92492 0.0
O1186 O 0.98202 0.57836 0.86743 0.0
O1187 O 0.95554 0.55748 0.87392 0.0
H1188 H 0.93586 0.60049 0.88397 0.0
H1189 H 0.91081 0.6259 0.86744 0.0
H1190 H 0.91175 0.6569 0.94337 0.0
H1191 H 0.93642 0.63096 0.95993 0.0
H1192 H 1.00858 0.55771 1.02149 0.0
H1193 H 0.99496 0.56624 0.97742 0.0
H1194 H 0.03178 0.49934 0.99123 0.0
H1195 H 1.01859 0.50826 0.94729 0.0
H1196 H 0.98938 0.50752 0.8127 0.0
H1197 H 0.96662 0.55912 0.76616 0.0
H1198 H 0.96225 0.57946 0.80648 0.0
H1199 H 0.98438 0.528 0.85321 0.0
C1200 C 0.18646 0.18768 0.67325 0.0
C1201 C 0.18751 0.18043 0.64707 0.0
C1202 C 0.15673 0.159 0.65402 0.0
C1203 C 0.17285 0.16622 0.63756 0.0
C1204 C 0.15569 0.16647 0.68023 0.0
C1205 C 0.17043 0.18066 0.68974 0.0
U1206 U 0.23127 0.22311 0.65812 0.0
O1207 O 0.23996 0.25429 0.67211 0.0
O1208 O 0.26141 0.22818 0.67786 0.0
C1209 C 0.25757 0.2479 0.68252 0.0
C1210 C 0.20209 0.20252 0.68316 0.0
C1211 C 0.26238 0.25541 0.70948 0.0
C1212 C 0.25265 0.26237 0.75522 0.0
C1213 C 0.24772 0.2546 0.73003 0.0
C1214 C 0.28699 0.27169 0.73967 0.0
C1215 C 0.27236 0.27108 0.76038 0.0
C1216 C 0.28202 0.26395 0.71454 0.0
C1217 C 0.24512 0.22283 0.58286 0.0
C1218 C 0.27704 0.23351 0.56111 0.0
C1219 C 0.24803 0.22111 0.53496 0.0
C1220 C 0.23641 0.21845 0.55806 0.0
C1221 C 0.26867 0.22825 0.53618 0.0
C1222 C 0.26537 0.23078 0.58429 0.0
C1223 C 0.23323 0.21722 0.60667 0.0
O1224 O 0.22143 0.19606 0.68159 0.0
O1225 O 0.19973 0.22177 0.67503 0.0
O1226 O 0.22196 0.23191 0.6176 0.0
O1227 O 0.24284 0.20541 0.62401 0.0
H1228 H 0.19979 0.18568 0.634 0.0
H1229 H 0.17438 0.16064 0.61744 0.0
H1230 H 0.14336 0.16151 0.69338 0.0
H1231 H 0.1693 0.18616 0.70996 0.0
H1232 H 0.2409 0.26184 0.77053 0.0
H1233 H 0.23243 0.2481 0.72654 0.0
H1234 H 0.3024 0.27792 0.74291 0.0
H1235 H 0.29359 0.26467 0.69897 0.0
H1236 H 0.29278 0.23931 0.56277 0.0
H1237 H 0.24113 0.21659 0.51628 0.0
H1238 H 0.22082 0.2122 0.55662 0.0
H1239 H 0.27233 0.23429 0.6033 0.0
C1240 C 0.61259 0.43622 0.42311 0.0
C1241 C 0.61982 0.43726 0.39692 0.0
C1242 C 0.64128 0.40651 0.40387 0.0
C1243 C 0.63403 0.42261 0.38741 0.0
C1244 C 0.63383 0.40548 0.43009 0.0
C1245 C 0.61963 0.42021 0.43961 0.0
U1246 U 0.57716 0.48103 0.40802 0.0
O1247 O 0.54598 0.48973 0.42204 0.0
O1248 O 0.57211 0.51116 0.42777 0.0
C1249 C 0.55238 0.50733 0.43245 0.0
C1250 C 0.59776 0.45185 0.43304 0.0
C1251 C 0.54487 0.51214 0.45941 0.0
C1252 C 0.53782 0.50239 0.50512 0.0
C1253 C 0.5456 0.49745 0.47993 0.0
C1254 C 0.52869 0.53678 0.48963 0.0
C1255 C 0.5292 0.52213 0.51031 0.0
C1256 C 0.53643 0.53181 0.4645 0.0
C1257 C 0.57741 0.4949 0.33276 0.0
C1258 C 0.56673 0.52683 0.31104 0.0
C1259 C 0.57912 0.49783 0.28487 0.0
C1260 C 0.58178 0.48621 0.30796 0.0
C1261 C 0.57199 0.51846 0.2861 0.0
C1262 C 0.56946 0.51515 0.33421 0.0
C1263 C 0.58302 0.48301 0.35657 0.0
O1264 O 0.60423 0.47118 0.43147 0.0
O1265 O 0.5785 0.4495 0.42492 0.0
O1266 O 0.56833 0.47174 0.36751 0.0
O1267 O 0.59485 0.4926 0.3739 0.0
H1268 H 0.61455 0.44953 0.38385 0.0
H1269 H 0.6396 0.42413 0.36728 0.0
H1270 H 0.63881 0.39316 0.44325 0.0
H1271 H 0.61415 0.41909 0.45984 0.0
H1272 H 0.53829 0.49061 0.52041 0.0
H1273 H 0.55203 0.48214 0.47643 0.0
H1274 H 0.52252 0.55221 0.49289 0.0
H1275 H 0.53577 0.54339 0.44895 0.0
H1276 H 0.56093 0.54256 0.3127 0.0
H1277 H 0.58364 0.49094 0.26618 0.0
H1278 H 0.58803 0.47062 0.30651 0.0
H1279 H 0.56596 0.5221 0.35322 0.0
loop_
_geom_bond_atom_site_label_1
_geom_bond_atom_site_label_2
_geom_bond_distance
_geom_bond_site_symmetry_2
_ccdc_geom_bond_type
C0 C1 1.264 . S
C0 C5 1.479 . S
C0 C10 1.465 . S
C1 C0 1.264 . S
C1 C3 1.339 . S
C1 H28 0.931 . S
C2 C3 1.395 . S
C2 C4 1.320 . S
C3 C1 1.339 . S
C3 C2 1.395 . S
C3 H29 0.929 . S
C4 C2 1.320 . S
C4 C5 1.405 . S
C4 H30 0.930 . S
C5 C0 1.479 . S
C5 C4 1.405 . S
C5 H31 0.931 . S
U6 O7 2.454 . S
U6 O8 2.458 . S
U6 C9 2.984 . S
U6 C10 2.847 . S
U6 C23 2.882 . S
U6 O24 2.441 . S
U6 O25 2.420 . S
U6 O26 2.455 . S
U6 O27 2.449 . S
O7 U6 2.454 . S
O7 C9 1.353 . S
O8 U6 2.458 . S
O8 C9 1.286 . S
C9 U6 2.984 . S
C9 O7 1.353 . S
C9 O8 1.286 . S
C9 C11 1.363 . S
C10 C0 1.465 . S
C10 U6 2.847 . S
C10 O24 1.249 . S
C10 O25 1.202 . S
C11 C9 1.363 . S
C11 C13 1.408 . S
C11 C16 1.342 . S
C12 C13 1.310 . S
C12 C15 1.461 . S
C12 H32 0.932 . S
C13 C11 1.408 . S
C13 C12 1.310 . S
C13 H33 0.930 . S
C14 C15 1.474 . S
C14 C16 1.285 . S
C14 H34 0.929 . S
C15 C12 1.461 . S
C15 C14 1.474 . S
C16 C11 1.342 . S
C16 C14 1.285 . S
C16 H35 0.930 . S
C17 C20 1.424 . S
C17 C22 1.245 . S
C17 C23 1.428 . S
C18 C21 1.260 . S
C18 C22 1.477 . S
C18 H36 0.932 . S
C19 C20 1.384 . S
C19 C21 1.479 . S
C19 H37 0.929 1_554 S
C20 C17 1.424 . S
C20 C19 1.384 . S
C20 H38 0.928 . S
C21 C18 1.260 . S
C21 C19 1.479 . S
C22 C17 1.245 . S
C22 C18 1.477 . S
C22 H39 0.932 . S
C23 U6 2.882 . S
C23 C17 1.428 . S
C23 O26 1.301 . S
C23 O27 1.282 . S
O24 U6 2.441 . S
O24 C10 1.249 . S
O25 U6 2.420 . S
O25 C10 1.202 . S
O26 U6 2.455 . S
O26 C23 1.301 . S
O27 U6 2.449 . S
O27 C23 1.282 . S
H28 C1 0.931 . S
H29 C3 0.929 . S
H30 C4 0.930 . S
H31 C5 0.931 . S
H32 C12 0.932 . S
H33 C13 0.930 . S
H34 C14 0.929 . S
H35 C16 0.930 . S
H36 C18 0.932 . S
H37 C19 0.929 1_556 S
H38 C20 0.928 . S
H39 C22 0.932 . S
C40 C41 1.264 . S
C40 C45 1.479 . S
C40 C50 1.465 . S
C41 C40 1.264 . S
C41 C43 1.339 . S
C41 H68 0.931 . S
C42 C43 1.395 . S
C42 C44 1.320 . S
C43 C41 1.339 . S
C43 C42 1.395 . S
C43 H69 0.929 . S
C44 C42 1.320 . S
C44 C45 1.405 . S
C44 H70 0.930 . S
C45 C40 1.479 . S
C45 C44 1.405 . S
C45 H71 0.931 . S
U46 O47 2.454 . S
U46 O48 2.458 . S
U46 C49 2.984 . S
U46 C50 2.847 . S
U46 C63 2.882 . S
U46 O64 2.441 . S
U46 O65 2.420 . S
U46 O66 2.455 . S
U46 O67 2.449 . S
O47 U46 2.454 . S
O47 C49 1.353 . S
O48 U46 2.458 . S
O48 C49 1.286 . S
C49 U46 2.984 . S
C49 O47 1.353 . S
C49 O48 1.286 . S
C49 C51 1.363 . S
C50 C40 1.465 . S
C50 U46 2.847 . S
C50 O64 1.249 . S
C50 O65 1.202 . S
C51 C49 1.363 . S
C51 C53 1.408 . S
C51 C56 1.342 1_655 S
C52 C53 1.294 1_455 S
C52 C55 1.482 . S
C52 H72 0.928 1_455 S
C53 C51 1.408 . S
C53 C52 1.294 1_655 S
C53 H73 0.930 . S
C54 C55 1.474 . S
C54 C56 1.285 . S
C54 H74 0.929 1_565 S
C55 C52 1.482 . S
C55 C54 1.474 . S
C56 C51 1.342 1_455 S
C56 C54 1.285 . S
C56 H75 0.930 . S
C57 C60 1.424 . S
C57 C62 1.245 . S
C57 C63 1.428 . S
C58 C61 1.260 . S
C58 C62 1.477 . S
C58 H76 0.962 1_565 S
C59 C60 1.384 . S
C59 C61 1.479 . S
C59 H77 0.929 . S
C60 C57 1.424 . S
C60 C59 1.384 . S
C60 H78 0.928 . S
C61 C58 1.260 . S
C61 C59 1.479 . S
C62 C57 1.245 . S
C62 C58 1.477 . S
C62 H79 0.932 . S
C63 U46 2.882 . S
C63 C57 1.428 . S
C63 O66 1.301 . S
C63 O67 1.282 . S
O64 U46 2.441 . S
O64 C50 1.249 . S
O65 U46 2.420 . S
O65 C50 1.202 . S
O66 U46 2.455 . S
O66 C63 1.301 . S
O67 U46 2.449 . S
O67 C63 1.282 . S
H68 C41 0.931 . S
H69 C43 0.929 . S
H70 C44 0.930 . S
H71 C45 0.931 . S
H72 C52 0.928 1_655 S
H73 C53 0.930 . S
H74 C54 0.929 1_545 S
H75 C56 0.930 . S
H76 C58 0.962 1_545 S
H77 C59 0.929 . S
H78 C60 0.928 . S
H79 C62 0.932 . S
C80 C81 1.264 . S
C80 C85 1.479 . S
C80 C90 1.465 . S
C81 C80 1.264 . S
C81 C83 1.339 . S
C81 H108 0.931 . S
C82 C83 1.395 . S
C82 C84 1.320 . S
C83 C81 1.339 . S
C83 C82 1.395 . S
C83 H109 0.929 . S
C84 C82 1.320 . S
C84 C85 1.405 . S
C84 H110 0.930 . S
C85 C80 1.479 . S
C85 C84 1.405 . S
C85 H111 0.931 . S
U86 O87 2.454 . S
U86 O88 2.458 . S
U86 C89 2.984 . S
U86 C90 2.847 . S
U86 C103 2.882 . S
U86 O104 2.441 . S
U86 O105 2.420 . S
U86 O106 2.455 . S
U86 O107 2.449 . S
O87 U86 2.454 . S
O87 C89 1.353 . S
O88 U86 2.458 . S
O88 C89 1.286 . S
C89 U86 2.984 . S
C89 O87 1.353 . S
C89 O88 1.286 . S
C89 C91 1.363 . S
C90 C80 1.465 . S
C90 U86 2.847 . S
C90 O104 1.249 . S
C90 O105 1.202 . S
C91 C89 1.363 . S
C91 C93 1.408 . S
C91 C96 1.342 . S
C92 C93 1.310 . S
C92 C95 1.461 . S
C92 H112 0.932 . S
C93 C91 1.408 . S
C93 C92 1.310 . S
C93 H113 0.930 . S
C94 C95 1.474 . S
C94 C96 1.285 . S
C94 H114 0.929 . S
C95 C92 1.461 . S
C95 C94 1.474 . S
C96 C91 1.342 . S
C96 C94 1.285 . S
C96 H115 0.930 . S
C97 C100 1.424 . S
C97 C102 1.245 . S
C97 C103 1.428 . S
C98 C101 1.260 . S
C98 C102 1.477 . S
C98 H116 0.932 . S
C99 C100 1.384 . S
C99 C101 1.479 . S
C99 H117 0.929 . S
C100 C97 1.424 . S
C100 C99 1.384 . S
C100 H118 0.928 . S
C101 C98 1.260 . S
C101 C99 1.479 . S
C102 C97 1.245 . S
C102 C98 1.477 . S
C102 H119 0.932 . S
C103 U86 2.882 . S
C103 C97 1.428 . S
C103 O106 1.301 . S
C103 O107 1.282 . S
O104 U86 2.441 . S
O104 C90 1.249 . S
O105 U86 2.420 . S
O105 C90 1.202 . S
O106 U86 2.455 . S
O106 C103 1.301 . S
O107 U86 2.449 . S
O107 C103 1.282 . S
H108 C81 0.931 . S
H109 C83 0.929 . S
H110 C84 0.930 . S
H111 C85 0.931 . S
H112 C92 0.932 . S
H113 C93 0.930 . S
H114 C94 0.929 . S
H115 C96 0.930 . S
H116 C98 0.932 . S
H117 C99 0.929 . S
H118 C100 0.928 . S
H119 C102 0.932 . S
C120 C121 1.264 . S
C120 C125 1.479 . S
C120 C130 1.465 . S
C121 C120 1.264 . S
C121 C123 1.339 . S
C121 H148 0.931 . S
C122 C123 1.395 . S
C122 C124 1.320 . S
C123 C121 1.339 . S
C123 C122 1.395 . S
C123 H149 0.929 . S
C124 C122 1.320 . S
C124 C125 1.405 . S
C124 H150 0.930 . S
C125 C120 1.479 . S
C125 C124 1.405 . S
C125 H151 0.931 . S
U126 O127 2.454 . S
U126 O128 2.458 . S
U126 C129 2.984 . S
U126 C130 2.847 . S
U126 C143 2.882 . S
U126 O144 2.441 . S
U126 O145 2.420 . S
U126 O146 2.455 . S
U126 O147 2.449 . S
O127 U126 2.454 . S
O127 C129 1.353 . S
O128 U126 2.458 . S
O128 C129 1.286 . S
C129 U126 2.984 . S
C129 O127 1.353 . S
C129 O128 1.286 . S
C129 C131 1.363 . S
C130 C120 1.465 . S
C130 U126 2.847 . S
C130 O144 1.249 . S
C130 O145 1.202 . S
C131 C129 1.363 . S
C131 C133 1.408 . S
C131 C136 1.342 . S
C132 C133 1.310 . S
C132 C135 1.461 . S
C132 H152 0.932 1_556 S
C133 C131 1.408 . S
C133 C132 1.310 . S
C133 H153 0.930 . S
C134 C135 1.474 . S
C134 C136 1.285 . S
C134 H154 0.929 1_545 S
C135 C132 1.461 . S
C135 C134 1.474 . S
C136 C131 1.342 . S
C136 C134 1.285 . S
C136 H155 0.930 . S
C137 C140 1.424 . S
C137 C142 1.245 . S
C137 C143 1.428 . S
C138 C141 1.260 . S
C138 C142 1.477 . S
C138 H156 0.932 1_545 S
C139 C140 1.384 . S
C139 C141 1.479 . S
C139 H157 0.929 . S
C140 C137 1.424 . S
C140 C139 1.384 . S
C140 H158 0.928 . S
C141 C138 1.260 . S
C141 C139 1.479 . S
C142 C137 1.245 . S
C142 C138 1.477 . S
C142 H159 0.932 . S
C143 U126 2.882 . S
C143 C137 1.428 . S
C143 O146 1.301 . S
C143 O147 1.282 . S
O144 U126 2.441 . S
O144 C130 1.249 . S
O145 U126 2.420 . S
O145 C130 1.202 . S
O146 U126 2.455 . S
O146 C143 1.301 . S
O147 U126 2.449 . S
O147 C143 1.282 . S
H148 C121 0.931 . S
H149 C123 0.929 . S
H150 C124 0.930 . S
H151 C125 0.931 . S
H152 C132 0.932 1_554 S
H153 C133 0.930 . S
H154 C134 0.929 1_565 S
H155 C136 0.930 . S
H156 C138 0.932 1_565 S
H157 C139 0.929 . S
H158 C140 0.928 . S
H159 C142 0.932 . S
C160 C161 1.264 . S
C160 C165 1.479 . S
C160 C170 1.465 . S
C161 C160 1.264 . S
C161 C163 1.339 . S
C161 H188 0.931 . S
C162 C163 1.395 . S
C162 C164 1.320 . S
C163 C161 1.339 . S
C163 C162 1.395 . S
C163 H189 0.929 . S
C164 C162 1.320 . S
C164 C165 1.405 . S
C164 H190 0.930 . S
C165 C160 1.479 . S
C165 C164 1.405 . S
C165 H191 0.931 . S
U166 O167 2.454 . S
U166 O168 2.458 . S
U166 C169 2.984 . S
U166 C170 2.847 . S
U166 C183 2.882 . S
U166 O184 2.441 . S
U166 O185 2.420 . S
U166 O186 2.455 . S
U166 O187 2.449 . S
O167 U166 2.454 . S
O167 C169 1.353 . S
O168 U166 2.458 . S
O168 C169 1.286 . S
C169 U166 2.984 . S
C169 O167 1.353 . S
C169 O168 1.286 . S
C169 C171 1.363 . S
C170 C160 1.465 . S
C170 U166 2.847 . S
C170 O184 1.249 . S
C170 O185 1.202 . S
C171 C169 1.363 . S
C171 C173 1.408 . S
C171 C176 1.342 . S
C172 C173 1.310 . S
C172 C175 1.461 . S
C172 H192 0.932 . S
C173 C171 1.408 . S
C173 C172 1.310 . S
C173 H193 0.930 . S
C174 C175 1.474 . S
C174 C176 1.285 . S
C174 H194 0.929 . S
C175 C172 1.461 . S
C175 C174 1.474 . S
C176 C171 1.342 . S
C176 C174 1.285 . S
C176 H195 0.930 . S
C177 C180 1.424 . S
C177 C182 1.245 . S
C177 C183 1.428 . S
C178 C181 1.260 . S
C178 C182 1.477 . S
C178 H196 0.932 . S
C179 C180 1.384 . S
C179 C181 1.479 . S
C179 H197 0.929 . S
C180 C177 1.424 . S
C180 C179 1.384 . S
C180 H198 0.928 . S
C181 C178 1.260 . S
C181 C179 1.479 . S
C182 C177 1.245 . S
C182 C178 1.477 . S
C182 H199 0.932 . S
C183 U166 2.882 . S
C183 C177 1.428 . S
C183 O186 1.301 . S
C183 O187 1.282 . S
O184 U166 2.441 . S
O184 C170 1.249 . S
O185 U166 2.420 . S
O185 C170 1.202 . S
O186 U166 2.455 . S
O186 C183 1.301 . S
O187 U166 2.449 . S
O187 C183 1.282 . S
H188 C161 0.931 . S
H189 C163 0.929 . S
H190 C164 0.930 . S
H191 C165 0.931 . S
H192 C172 0.932 . S
H193 C173 0.930 . S
H194 C174 0.929 . S
H195 C176 0.930 . S
H196 C178 0.932 . S
H197 C179 0.929 . S
H198 C180 0.928 . S
H199 C182 0.932 . S
C200 C201 1.264 . S
C200 C205 1.479 . S
C200 C210 1.465 . S
C201 C200 1.264 . S
C201 C203 1.339 . S
C201 H228 0.931 . S
C202 C203 1.395 . S
C202 C204 1.320 . S
C203 C201 1.339 . S
C203 C202 1.395 . S
C203 H229 0.929 . S
C204 C202 1.320 . S
C204 C205 1.405 . S
C204 H230 0.930 . S
C205 C200 1.479 . S
C205 C204 1.405 . S
C205 H231 0.931 . S
U206 O207 2.454 . S
U206 O208 2.458 . S
U206 C209 2.984 . S
U206 C210 2.847 . S
U206 C223 2.882 . S
U206 O224 2.441 . S
U206 O225 2.420 . S
U206 O226 2.455 . S
U206 O227 2.449 . S
O207 U206 2.454 . S
O207 C209 1.353 . S
O208 U206 2.458 . S
O208 C209 1.286 . S
C209 U206 2.984 . S
C209 O207 1.353 . S
C209 O208 1.286 . S
C209 C211 1.363 . S
C210 C200 1.465 . S
C210 U206 2.847 . S
C210 O224 1.249 . S
C210 O225 1.202 . S
C211 C209 1.363 . S
C211 C213 1.408 . S
C211 C216 1.342 . S
C212 C213 1.310 . S
C212 C215 1.461 . S
C212 H232 0.932 . S
C213 C211 1.408 . S
C213 C212 1.310 . S
C213 H233 0.930 . S
C214 C215 1.474 . S
C214 C216 1.285 . S
C214 H234 0.929 1_565 S
C215 C212 1.461 . S
C215 C214 1.474 . S
C216 C211 1.342 . S
C216 C214 1.285 . S
C216 H235 0.930 . S
C217 C220 1.424 . S
C217 C222 1.245 . S
C217 C223 1.428 . S
C218 C221 1.260 . S
C218 C222 1.477 . S
C218 H236 0.932 1_565 S
C219 C220 1.384 . S
C219 C221 1.479 . S
C219 H237 0.929 . S
C220 C217 1.424 . S
C220 C219 1.384 . S
C220 H238 0.928 . S
C221 C218 1.260 . S
C221 C219 1.479 . S
C222 C217 1.245 . S
C222 C218 1.477 . S
C222 H239 0.932 . S
C223 U206 2.882 . S
C223 C217 1.428 . S
C223 O226 1.301 . S
C223 O227 1.282 . S
O224 U206 2.441 . S
O224 C210 1.249 . S
O225 U206 2.420 . S
O225 C210 1.202 . S
O226 U206 2.455 . S
O226 C223 1.301 . S
O227 U206 2.449 . S
O227 C223 1.282 . S
H228 C201 0.931 . S
H229 C203 0.929 . S
H230 C204 0.930 . S
H231 C205 0.931 . S
H232 C212 0.932 . S
H233 C213 0.930 . S
H234 C214 0.929 1_545 S
H235 C216 0.930 . S
H236 C218 0.932 1_545 S
H237 C219 0.929 . S
H238 C220 0.928 . S
H239 C222 0.932 . S
C240 C241 1.264 . S
C240 C245 1.479 . S
C240 C250 1.465 . S
C241 C240 1.264 . S
C241 C243 1.339 . S
C241 H268 0.931 . S
C242 C243 1.395 . S
C242 C244 1.320 . S
C243 C241 1.339 . S
C243 C242 1.395 . S
C243 H269 0.929 . S
C244 C242 1.320 . S
C244 C245 1.405 . S
C244 H270 0.930 . S
C245 C240 1.479 . S
C245 C244 1.405 . S
C245 H271 0.931 . S
U246 O247 2.454 . S
U246 O248 2.458 . S
U246 C249 2.984 . S
U246 C250 2.847 . S
U246 C263 2.882 . S
U246 O264 2.441 . S
U246 O265 2.420 . S
U246 O266 2.455 . S
U246 O267 2.449 . S
O247 U246 2.454 . S
O247 C249 1.353 . S
O248 U246 2.458 . S
O248 C249 1.286 . S
C249 U246 2.984 . S
C249 O247 1.353 . S
C249 O248 1.286 . S
C249 C251 1.363 . S
C250 C240 1.465 . S
C250 U246 2.847 . S
C250 O264 1.249 . S
C250 O265 1.202 . S
C251 C249 1.363 . S
C251 C253 1.408 . S
C251 C256 1.342 . S
C252 C253 1.310 . S
C252 C255 1.461 . S
C252 H272 0.932 . S
C253 C251 1.408 . S
C253 C252 1.310 . S
C253 H273 0.930 . S
C254 C255 1.474 . S
C254 C256 1.285 . S
C254 H274 0.929 . S
C255 C252 1.461 . S
C255 C254 1.474 . S
C256 C251 1.342 . S
C256 C254 1.285 . S
C256 H275 0.930 . S
C257 C260 1.424 . S
C257 C262 1.245 . S
C257 C263 1.428 . S
C258 C261 1.260 . S
C258 C262 1.477 . S
C258 H276 0.932 . S
C259 C260 1.384 . S
C259 C261 1.479 . S
C259 H277 0.929 1_556 S
C260 C257 1.424 . S
C260 C259 1.384 . S
C260 H278 0.928 . S
C261 C258 1.260 . S
C261 C259 1.479 . S
C262 C257 1.245 . S
C262 C258 1.477 . S
C262 H279 0.932 . S
C263 U246 2.882 . S
C263 C257 1.428 . S
C263 O266 1.301 . S
C263 O267 1.282 . S
O264 U246 2.441 . S
O264 C250 1.249 . S
O265 U246 2.420 . S
O265 C250 1.202 . S
O266 U246 2.455 . S
O266 C263 1.301 . S
O267 U246 2.449 . S
O267 C263 1.282 . S
H268 C241 0.931 . S
H269 C243 0.929 . S
H270 C244 0.930 . S
H271 C245 0.931 . S
H272 C252 0.932 . S
H273 C253 0.930 . S
H274 C254 0.929 . S
H275 C256 0.930 . S
H276 C258 0.932 . S
H277 C259 0.929 1_554 S
H278 C260 0.928 . S
H279 C262 0.932 . S
C280 C281 1.264 . S
C280 C285 1.479 . S
C280 C290 1.465 . S
C281 C280 1.264 . S
C281 C283 1.339 . S
C281 H308 0.931 . S
C282 C283 1.395 . S
C282 C284 1.320 . S
C283 C281 1.339 . S
C283 C282 1.395 . S
C283 H309 0.929 . S
C284 C282 1.320 . S
C284 C285 1.405 . S
C284 H310 0.930 . S
C285 C280 1.479 . S
C285 C284 1.405 . S
C285 H311 0.931 . S
U286 O287 2.454 . S
U286 O288 2.458 . S
U286 C289 2.984 . S
U286 C290 2.847 . S
U286 C303 2.882 . S
U286 O304 2.441 . S
U286 O305 2.420 . S
U286 O306 2.455 . S
U286 O307 2.449 . S
O287 U286 2.454 . S
O287 C289 1.353 . S
O288 U286 2.458 . S
O288 C289 1.286 . S
C289 U286 2.984 . S
C289 O287 1.353 . S
C289 O288 1.286 . S
C289 C291 1.363 . S
C290 C280 1.465 . S
C290 U286 2.847 . S
C290 O304 1.249 . S
C290 O305 1.202 . S
C291 C289 1.363 . S
C291 C293 1.408 . S
C291 C296 1.342 1_655 S
C292 C293 1.294 1_455 S
C292 C295 1.482 . S
C292 H312 0.928 1_454 S
C293 C291 1.408 . S
C293 C292 1.294 1_655 S
C293 H313 0.930 . S
C294 C295 1.474 . S
C294 C296 1.285 . S
C294 H314 0.929 1_545 S
C295 C292 1.482 . S
C295 C294 1.474 . S
C296 C291 1.342 1_455 S
C296 C294 1.285 . S
C296 H315 0.930 . S
C297 C300 1.424 . S
C297 C302 1.245 . S
C297 C303 1.428 . S
C298 C301 1.260 . S
C298 C302 1.477 . S
C298 H316 0.962 1_545 S
C299 C300 1.384 . S
C299 C301 1.479 . S
C299 H317 0.929 . S
C300 C297 1.424 . S
C300 C299 1.384 . S
C300 H318 0.928 . S
C301 C298 1.260 . S
C301 C299 1.479 . S
C302 C297 1.245 . S
C302 C298 1.477 . S
C302 H319 0.932 . S
C303 U286 2.882 . S
C303 C297 1.428 . S
C303 O306 1.301 . S
C303 O307 1.282 . S
O304 U286 2.441 . S
O304 C290 1.249 . S
O305 U286 2.420 . S
O305 C290 1.202 . S
O306 U286 2.455 . S
O306 C303 1.301 . S
O307 U286 2.449 . S
O307 C303 1.282 . S
H308 C281 0.931 . S
H309 C283 0.929 . S
H310 C284 0.930 . S
H311 C285 0.931 . S
H312 C292 0.928 1_656 S
H313 C293 0.930 . S
H314 C294 0.929 1_565 S
H315 C296 0.930 . S
H316 C298 0.962 1_565 S
H317 C299 0.929 . S
H318 C300 0.928 . S
H319 C302 0.932 . S
C320 C321 1.264 . S
C320 C325 1.479 . S
C320 C330 1.465 . S
C321 C320 1.264 . S
C321 C323 1.339 . S
C321 H348 0.931 . S
C322 C323 1.395 . S
C322 C324 1.320 . S
C323 C321 1.339 . S
C323 C322 1.395 . S
C323 H349 0.929 . S
C324 C322 1.320 . S
C324 C325 1.405 . S
C324 H350 0.930 . S
C325 C320 1.479 . S
C325 C324 1.405 . S
C325 H351 0.931 . S
U326 O327 2.454 . S
U326 O328 2.458 . S
U326 C329 2.984 . S
U326 C330 2.847 . S
U326 C343 2.882 . S
U326 O344 2.441 . S
U326 O345 2.420 . S
U326 O346 2.455 . S
U326 O347 2.449 . S
O327 U326 2.454 . S
O327 C329 1.353 . S
O328 U326 2.458 . S
O328 C329 1.286 . S
C329 U326 2.984 . S
C329 O327 1.353 . S
C329 O328 1.286 . S
C329 C331 1.363 . S
C330 C320 1.465 . S
C330 U326 2.847 . S
C330 O344 1.249 . S
C330 O345 1.202 . S
C331 C329 1.363 . S
C331 C333 1.408 . S
C331 C336 1.342 . S
C332 C333 1.310 . S
C332 C335 1.461 . S
C332 H352 0.932 . S
C333 C331 1.408 . S
C333 C332 1.310 . S
C333 H353 0.930 . S
C334 C335 1.474 . S
C334 C336 1.285 . S
C334 H354 0.929 . S
C335 C332 1.461 . S
C335 C334 1.474 . S
C336 C331 1.342 . S
C336 C334 1.285 . S
C336 H355 0.930 . S
C337 C340 1.424 . S
C337 C342 1.245 . S
C337 C343 1.428 . S
C338 C341 1.260 . S
C338 C342 1.477 . S
C338 H356 0.932 . S
C339 C340 1.384 . S
C339 C341 1.479 . S
C339 H357 0.929 1_556 S
C340 C337 1.424 . S
C340 C339 1.384 . S
C340 H358 0.928 . S
C341 C338 1.260 . S
C341 C339 1.479 . S
C342 C337 1.245 . S
C342 C338 1.477 . S
C342 H359 0.932 . S
C343 U326 2.882 . S
C343 C337 1.428 . S
C343 O346 1.301 . S
C343 O347 1.282 . S
O344 U326 2.441 . S
O344 C330 1.249 . S
O345 U326 2.420 . S
O345 C330 1.202 . S
O346 U326 2.455 . S
O346 C343 1.301 . S
O347 U326 2.449 . S
O347 C343 1.282 . S
H348 C321 0.931 . S
H349 C323 0.929 . S
H350 C324 0.930 . S
H351 C325 0.931 . S
H352 C332 0.932 . S
H353 C333 0.930 . S
H354 C334 0.929 . S
H355 C336 0.930 . S
H356 C338 0.932 . S
H357 C339 0.929 1_554 S
H358 C340 0.928 . S
H359 C342 0.932 . S
C360 C361 1.264 . S
C360 C365 1.479 . S
C360 C370 1.465 . S
C361 C360 1.264 . S
C361 C363 1.339 . S
C361 H388 0.931 . S
C362 C363 1.395 . S
C362 C364 1.320 . S
C363 C361 1.339 . S
C363 C362 1.395 . S
C363 H389 0.929 . S
C364 C362 1.320 . S
C364 C365 1.405 . S
C364 H390 0.930 . S
C365 C360 1.479 . S
C365 C364 1.405 . S
C365 H391 0.931 . S
U366 O367 2.454 . S
U366 O368 2.458 . S
U366 C369 2.984 . S
U366 C370 2.847 . S
U366 C383 2.882 . S
U366 O384 2.441 . S
U366 O385 2.420 . S
U366 O386 2.455 . S
U366 O387 2.449 . S
O367 U366 2.454 . S
O367 C369 1.353 . S
O368 U366 2.458 . S
O368 C369 1.286 . S
C369 U366 2.984 . S
C369 O367 1.353 . S
C369 O368 1.286 . S
C369 C371 1.363 1_455 S
C370 C360 1.465 . S
C370 U366 2.847 . S
C370 O384 1.249 . S
C370 O385 1.202 . S
C371 C369 1.363 1_655 S
C371 C373 1.408 1_655 S
C371 C376 1.342 . S
C372 C373 1.310 1_655 S
C372 C375 1.461 . S
C372 H392 0.939 . S
C373 C371 1.408 1_455 S
C373 C372 1.310 1_455 S
C373 H393 0.930 . S
C374 C375 1.474 . S
C374 C376 1.285 . S
C374 H394 0.929 1_545 S
C375 C372 1.461 . S
C375 C374 1.474 . S
C376 C371 1.342 . S
C376 C374 1.285 . S
C376 H395 0.930 . S
C377 C380 1.424 . S
C377 C382 1.245 1_455 S
C377 C383 1.428 . S
C378 C381 1.260 1_655 S
C378 C382 1.477 . S
C378 H396 0.932 . S
C379 C380 1.384 . S
C379 C381 1.479 . S
C379 H397 0.929 . S
C380 C377 1.424 . S
C380 C379 1.384 . S
C380 H398 0.928 . S
C381 C378 1.260 1_455 S
C381 C379 1.479 . S
C382 C377 1.245 1_655 S
C382 C378 1.477 . S
C382 H399 0.932 . S
C383 U366 2.882 . S
C383 C377 1.428 . S
C383 O386 1.301 . S
C383 O387 1.282 . S
O384 U366 2.441 . S
O384 C370 1.249 . S
O385 U366 2.420 . S
O385 C370 1.202 . S
O386 U366 2.455 . S
O386 C383 1.301 . S
O387 U366 2.449 . S
O387 C383 1.282 . S
H388 C361 0.931 . S
H389 C363 0.929 . S
H390 C364 0.930 . S
H391 C365 0.931 . S
H392 C372 0.939 . S
H393 C373 0.930 . S
H394 C374 0.929 1_565 S
H395 C376 0.930 . S
H396 C378 0.932 . S
H397 C379 0.929 . S
H398 C380 0.928 . S
H399 C382 0.932 . S
C400 C401 1.264 . S
C400 C405 1.479 . S
C400 C410 1.465 . S
C401 C400 1.264 . S
C401 C403 1.339 . S
C401 H428 0.931 . S
C402 C403 1.395 . S
C402 C404 1.320 . S
C403 C401 1.339 . S
C403 C402 1.395 . S
C403 H429 0.929 . S
C404 C402 1.320 . S
C404 C405 1.405 . S
C404 H430 0.930 . S
C405 C400 1.479 . S
C405 C404 1.405 . S
C405 H431 0.931 . S
U406 O407 2.454 . S
U406 O408 2.458 . S
U406 C409 2.984 . S
U406 C410 2.847 . S
U406 C423 2.882 . S
U406 O424 2.441 . S
U406 O425 2.420 . S
U406 O426 2.455 . S
U406 O427 2.449 . S
O407 U406 2.454 . S
O407 C409 1.353 . S
O408 U406 2.458 . S
O408 C409 1.286 . S
C409 U406 2.984 . S
C409 O407 1.353 . S
C409 O408 1.286 . S
C409 C411 1.363 . S
C410 C400 1.465 . S
C410 U406 2.847 . S
C410 O424 1.249 . S
C410 O425 1.202 . S
C411 C409 1.363 . S
C411 C413 1.408 . S
C411 C416 1.342 . S
C412 C413 1.310 . S
C412 C415 1.461 . S
C412 H432 0.932 . S
C413 C411 1.408 . S
C413 C412 1.310 . S
C413 H433 0.930 . S
C414 C415 1.474 . S
C414 C416 1.285 . S
C414 H434 0.929 . S
C415 C412 1.461 . S
C415 C414 1.474 . S
C416 C411 1.342 . S
C416 C414 1.285 . S
C416 H435 0.930 . S
C417 C420 1.424 . S
C417 C422 1.245 . S
C417 C423 1.428 . S
C418 C421 1.260 . S
C418 C422 1.477 . S
C418 H436 0.932 . S
C419 C420 1.384 . S
C419 C421 1.479 . S
C419 H437 0.929 . S
C420 C417 1.424 . S
C420 C419 1.384 . S
C420 H438 0.928 . S
C421 C418 1.260 . S
C421 C419 1.479 . S
C422 C417 1.245 . S
C422 C418 1.477 . S
C422 H439 0.932 . S
C423 U406 2.882 . S
C423 C417 1.428 . S
C423 O426 1.301 . S
C423 O427 1.282 . S
O424 U406 2.441 . S
O424 C410 1.249 . S
O425 U406 2.420 . S
O425 C410 1.202 . S
O426 U406 2.455 . S
O426 C423 1.301 . S
O427 U406 2.449 . S
O427 C423 1.282 . S
H428 C401 0.931 . S
H429 C403 0.929 . S
H430 C404 0.930 . S
H431 C405 0.931 . S
H432 C412 0.932 . S
H433 C413 0.930 . S
H434 C414 0.929 . S
H435 C416 0.930 . S
H436 C418 0.932 . S
H437 C419 0.929 . S
H438 C420 0.928 . S
H439 C422 0.932 . S
C440 C441 1.264 . S
C440 C445 1.479 . S
C440 C450 1.465 . S
C441 C440 1.264 . S
C441 C443 1.339 . S
C441 H468 0.931 . S
C442 C443 1.395 . S
C442 C444 1.320 . S
C443 C441 1.339 . S
C443 C442 1.395 . S
C443 H469 0.929 . S
C444 C442 1.320 . S
C444 C445 1.405 . S
C444 H470 0.930 . S
C445 C440 1.479 . S
C445 C444 1.405 . S
C445 H471 0.931 . S
U446 O447 2.454 . S
U446 O448 2.458 . S
U446 C449 2.984 . S
U446 C450 2.847 . S
U446 C463 2.882 . S
U446 O464 2.441 . S
U446 O465 2.420 . S
U446 O466 2.455 . S
U446 O467 2.449 . S
O447 U446 2.454 . S
O447 C449 1.353 . S
O448 U446 2.458 . S
O448 C449 1.286 . S
C449 U446 2.984 . S
C449 O447 1.353 . S
C449 O448 1.286 . S
C449 C451 1.363 . S
C450 C440 1.465 . S
C450 U446 2.847 . S
C450 O464 1.249 . S
C450 O465 1.202 . S
C451 C449 1.363 . S
C451 C453 1.408 . S
C451 C456 1.342 . S
C452 C453 1.310 . S
C452 C455 1.461 . S
C452 H472 0.932 1_554 S
C453 C451 1.408 . S
C453 C452 1.310 . S
C453 H473 0.930 . S
C454 C455 1.474 . S
C454 C456 1.285 . S
C454 H474 0.929 1_565 S
C455 C452 1.461 . S
C455 C454 1.474 . S
C456 C451 1.342 . S
C456 C454 1.285 . S
C456 H475 0.930 . S
C457 C460 1.424 . S
C457 C462 1.245 . S
C457 C463 1.428 . S
C458 C461 1.260 . S
C458 C462 1.477 . S
C458 H476 0.932 . S
C459 C460 1.384 . S
C459 C461 1.479 . S
C459 H477 0.929 . S
C460 C457 1.424 . S
C460 C459 1.384 . S
C460 H478 0.928 . S
C461 C458 1.260 . S
C461 C459 1.479 . S
C462 C457 1.245 . S
C462 C458 1.477 . S
C462 H479 0.932 . S
C463 U446 2.882 . S
C463 C457 1.428 . S
C463 O466 1.301 . S
C463 O467 1.282 . S
O464 U446 2.441 . S
O464 C450 1.249 . S
O465 U446 2.420 . S
O465 C450 1.202 . S
O466 U446 2.455 . S
O466 C463 1.301 . S
O467 U446 2.449 . S
O467 C463 1.282 . S
H468 C441 0.931 . S
H469 C443 0.929 . S
H470 C444 0.930 . S
H471 C445 0.931 . S
H472 C452 0.932 1_556 S
H473 C453 0.930 . S
H474 C454 0.929 1_545 S
H475 C456 0.930 . S
H476 C458 0.932 . S
H477 C459 0.929 . S
H478 C460 0.928 . S
H479 C462 0.932 . S
C480 C481 1.264 . S
C480 C485 1.479 . S
C480 C490 1.465 . S
C481 C480 1.264 . S
C481 C483 1.339 . S
C481 H508 0.931 . S
C482 C483 1.395 . S
C482 C484 1.320 . S
C483 C481 1.339 . S
C483 C482 1.395 . S
C483 H509 0.929 . S
C484 C482 1.320 . S
C484 C485 1.405 . S
C484 H510 0.930 . S
C485 C480 1.479 . S
C485 C484 1.405 . S
C485 H511 0.931 . S
U486 O487 2.454 . S
U486 O488 2.458 . S
U486 C489 2.984 . S
U486 C490 2.847 . S
U486 C503 2.882 . S
U486 O504 2.441 . S
U486 O505 2.420 . S
U486 O506 2.455 . S
U486 O507 2.449 . S
O487 U486 2.454 . S
O487 C489 1.353 . S
O488 U486 2.458 . S
O488 C489 1.286 . S
C489 U486 2.984 . S
C489 O487 1.353 . S
C489 O488 1.286 . S
C489 C491 1.363 . S
C490 C480 1.465 . S
C490 U486 2.847 . S
C490 O504 1.249 . S
C490 O505 1.202 . S
C491 C489 1.363 . S
C491 C493 1.408 . S
C491 C496 1.342 . S
C492 C493 1.310 . S
C492 C495 1.461 . S
C492 H512 0.932 . S
C493 C491 1.408 . S
C493 C492 1.310 . S
C493 H513 0.930 . S
C494 C495 1.474 . S
C494 C496 1.285 . S
C494 H514 0.929 . S
C495 C492 1.461 . S
C495 C494 1.474 . S
C496 C491 1.342 . S
C496 C494 1.285 . S
C496 H515 0.930 . S
C497 C500 1.424 . S
C497 C502 1.245 . S
C497 C503 1.428 . S
C498 C501 1.260 . S
C498 C502 1.477 . S
C498 H516 0.932 . S
C499 C500 1.384 . S
C499 C501 1.479 . S
C499 H517 0.929 . S
C500 C497 1.424 . S
C500 C499 1.384 . S
C500 H518 0.928 . S
C501 C498 1.260 . S
C501 C499 1.479 . S
C502 C497 1.245 . S
C502 C498 1.477 . S
C502 H519 0.932 . S
C503 U486 2.882 . S
C503 C497 1.428 . S
C503 O506 1.301 . S
C503 O507 1.282 . S
O504 U486 2.441 . S
O504 C490 1.249 . S
O505 U486 2.420 . S
O505 C490 1.202 . S
O506 U486 2.455 . S
O506 C503 1.301 . S
O507 U486 2.449 . S
O507 C503 1.282 . S
H508 C481 0.931 . S
H509 C483 0.929 . S
H510 C484 0.930 . S
H511 C485 0.931 . S
H512 C492 0.932 . S
H513 C493 0.930 . S
H514 C494 0.929 . S
H515 C496 0.930 . S
H516 C498 0.932 . S
H517 C499 0.929 . S
H518 C500 0.928 . S
H519 C502 0.932 . S
C520 C521 1.264 . S
C520 C525 1.479 . S
C520 C530 1.465 . S
C521 C520 1.264 . S
C521 C523 1.339 . S
C521 H548 0.931 . S
C522 C523 1.395 . S
C522 C524 1.320 . S
C523 C521 1.339 . S
C523 C522 1.395 . S
C523 H549 0.929 . S
C524 C522 1.320 . S
C524 C525 1.405 . S
C524 H550 0.930 . S
C525 C520 1.479 . S
C525 C524 1.405 . S
C525 H551 0.931 . S
U526 O527 2.454 . S
U526 O528 2.458 . S
U526 C529 2.984 . S
U526 C530 2.847 . S
U526 C543 2.882 . S
U526 O544 2.441 . S
U526 O545 2.420 . S
U526 O546 2.455 . S
U526 O547 2.449 . S
O527 U526 2.454 . S
O527 C529 1.353 . S
O528 U526 2.458 . S
O528 C529 1.286 . S
C529 U526 2.984 . S
C529 O527 1.353 . S
C529 O528 1.286 . S
C529 C531 1.363 . S
C530 C520 1.465 . S
C530 U526 2.847 . S
C530 O544 1.249 . S
C530 O545 1.202 . S
C531 C529 1.363 . S
C531 C533 1.408 . S
C531 C536 1.342 . S
C532 C533 1.310 . S
C532 C535 1.461 . S
C532 H552 0.932 . S
C533 C531 1.408 . S
C533 C532 1.310 . S
C533 H553 0.930 . S
C534 C535 1.474 . S
C534 C536 1.285 . S
C534 H554 0.929 1_545 S
C535 C532 1.461 . S
C535 C534 1.474 . S
C536 C531 1.342 . S
C536 C534 1.285 . S
C536 H555 0.930 . S
C537 C540 1.424 . S
C537 C542 1.245 . S
C537 C543 1.428 . S
C538 C541 1.260 . S
C538 C542 1.477 . S
C538 H556 0.932 . S
C539 C540 1.384 . S
C539 C541 1.479 . S
C539 H557 0.929 . S
C540 C537 1.424 . S
C540 C539 1.384 . S
C540 H558 0.928 . S
C541 C538 1.260 . S
C541 C539 1.479 . S
C542 C537 1.245 . S
C542 C538 1.477 . S
C542 H559 0.932 . S
C543 U526 2.882 . S
C543 C537 1.428 . S
C543 O546 1.301 . S
C543 O547 1.282 . S
O544 U526 2.441 . S
O544 C530 1.249 . S
O545 U526 2.420 . S
O545 C530 1.202 . S
O546 U526 2.455 . S
O546 C543 1.301 . S
O547 U526 2.449 . S
O547 C543 1.282 . S
H548 C521 0.931 . S
H549 C523 0.929 . S
H550 C524 0.930 . S
H551 C525 0.931 . S
H552 C532 0.932 . S
H553 C533 0.930 . S
H554 C534 0.929 1_565 S
H555 C536 0.930 . S
H556 C538 0.932 . S
H557 C539 0.929 . S
H558 C540 0.928 . S
H559 C542 0.932 . S
C560 C561 1.264 . S
C560 C565 1.479 . S
C560 C570 1.465 . S
C561 C560 1.264 . S
C561 C563 1.339 . S
C561 H588 0.931 . S
C562 C563 1.395 . S
C562 C564 1.320 . S
C563 C561 1.339 . S
C563 C562 1.395 . S
C563 H589 0.929 . S
C564 C562 1.320 . S
C564 C565 1.405 . S
C564 H590 0.930 . S
C565 C560 1.479 . S
C565 C564 1.405 . S
C565 H591 0.931 . S
U566 O567 2.454 . S
U566 O568 2.458 . S
U566 C569 2.984 . S
U566 C570 2.847 . S
U566 C583 2.882 . S
U566 O584 2.441 . S
U566 O585 2.420 . S
U566 O586 2.455 . S
U566 O587 2.449 . S
O567 U566 2.454 . S
O567 C569 1.353 . S
O568 U566 2.458 . S
O568 C569 1.286 . S
C569 U566 2.984 . S
C569 O567 1.353 . S
C569 O568 1.286 . S
C569 C571 1.363 . S
C570 C560 1.465 . S
C570 U566 2.847 . S
C570 O584 1.249 . S
C570 O585 1.202 . S
C571 C569 1.363 . S
C571 C573 1.408 . S
C571 C576 1.342 . S
C572 C573 1.310 . S
C572 C575 1.461 . S
C572 H592 0.932 . S
C573 C571 1.408 . S
C573 C572 1.310 . S
C573 H593 0.930 . S
C574 C575 1.474 . S
C574 C576 1.285 . S
C574 H594 0.929 . S
C575 C572 1.461 . S
C575 C574 1.474 . S
C576 C571 1.342 . S
C576 C574 1.285 . S
C576 H595 0.930 . S
C577 C580 1.424 . S
C577 C582 1.245 . S
C577 C583 1.428 . S
C578 C581 1.260 . S
C578 C582 1.477 . S
C578 H596 0.932 . S
C579 C580 1.384 . S
C579 C581 1.479 . S
C579 H597 0.929 1_554 S
C580 C577 1.424 . S
C580 C579 1.384 . S
C580 H598 0.928 . S
C581 C578 1.260 . S
C581 C579 1.479 . S
C582 C577 1.245 . S
C582 C578 1.477 . S
C582 H599 0.932 . S
C583 U566 2.882 . S
C583 C577 1.428 . S
C583 O586 1.301 . S
C583 O587 1.282 . S
O584 U566 2.441 . S
O584 C570 1.249 . S
O585 U566 2.420 . S
O585 C570 1.202 . S
O586 U566 2.455 . S
O586 C583 1.301 . S
O587 U566 2.449 . S
O587 C583 1.282 . S
H588 C561 0.931 . S
H589 C563 0.929 . S
H590 C564 0.930 . S
H591 C565 0.931 . S
H592 C572 0.932 . S
H593 C573 0.930 . S
H594 C574 0.929 . S
H595 C576 0.930 . S
H596 C578 0.932 . S
H597 C579 0.929 1_556 S
H598 C580 0.928 . S
H599 C582 0.932 . S
C600 C601 1.264 . S
C600 C605 1.479 . S
C600 C610 1.465 . S
C601 C600 1.264 . S
C601 C603 1.339 . S
C601 H628 0.931 . S
C602 C603 1.395 . S
C602 C604 1.320 . S
C603 C601 1.339 . S
C603 C602 1.395 . S
C603 H629 0.929 . S
C604 C602 1.320 . S
C604 C605 1.405 . S
C604 H630 0.930 . S
C605 C600 1.479 . S
C605 C604 1.405 . S
C605 H631 0.931 . S
U606 O607 2.454 . S
U606 O608 2.458 . S
U606 C609 2.984 . S
U606 C610 2.847 . S
U606 C623 2.882 . S
U606 O624 2.441 . S
U606 O625 2.420 . S
U606 O626 2.455 . S
U606 O627 2.449 . S
O607 U606 2.454 . S
O607 C609 1.353 . S
O608 U606 2.458 . S
O608 C609 1.286 . S
C609 U606 2.984 . S
C609 O607 1.353 . S
C609 O608 1.286 . S
C609 C611 1.363 1_455 S
C610 C600 1.465 . S
C610 U606 2.847 . S
C610 O624 1.249 . S
C610 O625 1.202 . S
C611 C609 1.363 1_655 S
C611 C613 1.408 1_655 S
C611 C616 1.342 . S
C612 C613 1.310 1_655 S
C612 C615 1.461 . S
C612 H632 0.939 1_556 S
C613 C611 1.408 1_455 S
C613 C612 1.310 1_455 S
C613 H633 0.930 . S
C614 C615 1.474 . S
C614 C616 1.285 . S
C614 H634 0.929 1_565 S
C615 C612 1.461 . S
C615 C614 1.474 . S
C616 C611 1.342 . S
C616 C614 1.285 . S
C616 H635 0.930 . S
C617 C620 1.424 . S
C617 C622 1.245 1_455 S
C617 C623 1.428 . S
C618 C621 1.260 1_655 S
C618 C622 1.477 . S
C618 H636 0.932 . S
C619 C620 1.384 . S
C619 C621 1.479 . S
C619 H637 0.929 . S
C620 C617 1.424 . S
C620 C619 1.384 . S
C620 H638 0.928 . S
C621 C618 1.260 1_455 S
C621 C619 1.479 . S
C622 C617 1.245 1_655 S
C622 C618 1.477 . S
C622 H639 0.932 . S
C623 U606 2.882 . S
C623 C617 1.428 . S
C623 O626 1.301 . S
C623 O627 1.282 . S
O624 U606 2.441 . S
O624 C610 1.249 . S
O625 U606 2.420 . S
O625 C610 1.202 . S
O626 U606 2.455 . S
O626 C623 1.301 . S
O627 U606 2.449 . S
O627 C623 1.282 . S
H628 C601 0.931 . S
H629 C603 0.929 . S
H630 C604 0.930 . S
H631 C605 0.931 . S
H632 C612 0.939 1_554 S
H633 C613 0.930 . S
H634 C614 0.929 1_545 S
H635 C616 0.930 . S
H636 C618 0.932 . S
H637 C619 0.929 . S
H638 C620 0.928 . S
H639 C622 0.932 . S
C640 C641 1.264 . S
C640 C645 1.479 . S
C640 C650 1.465 . S
C641 C640 1.264 . S
C641 C643 1.339 . S
C641 H668 0.931 . S
C642 C643 1.395 . S
C642 C644 1.320 . S
C643 C641 1.339 . S
C643 C642 1.395 . S
C643 H669 0.929 . S
C644 C642 1.320 . S
C644 C645 1.405 . S
C644 H670 0.930 . S
C645 C640 1.479 . S
C645 C644 1.405 . S
C645 H671 0.931 . S
U646 O647 2.454 . S
U646 O648 2.458 . S
U646 C649 2.984 . S
U646 C650 2.847 . S
U646 C663 2.882 . S
U646 O664 2.441 . S
U646 O665 2.420 . S
U646 O666 2.455 . S
U646 O667 2.449 . S
O647 U646 2.454 . S
O647 C649 1.353 . S
O648 U646 2.458 . S
O648 C649 1.286 . S
C649 U646 2.984 . S
C649 O647 1.353 . S
C649 O648 1.286 . S
C649 C651 1.363 . S
C650 C640 1.465 . S
C650 U646 2.847 . S
C650 O664 1.249 . S
C650 O665 1.202 . S
C651 C649 1.363 . S
C651 C653 1.408 . S
C651 C656 1.342 . S
C652 C653 1.310 . S
C652 C655 1.461 . S
C652 H672 0.932 . S
C653 C651 1.408 . S
C653 C652 1.310 . S
C653 H673 0.930 . S
C654 C655 1.474 . S
C654 C656 1.285 . S
C654 H674 0.929 . S
C655 C652 1.461 . S
C655 C654 1.474 . S
C656 C651 1.342 . S
C656 C654 1.285 . S
C656 H675 0.930 . S
C657 C660 1.424 . S
C657 C662 1.245 . S
C657 C663 1.428 . S
C658 C661 1.260 . S
C658 C662 1.477 . S
C658 H676 0.932 . S
C659 C660 1.384 . S
C659 C661 1.479 . S
C659 H677 0.929 . S
C660 C657 1.424 . S
C660 C659 1.384 . S
C660 H678 0.928 . S
C661 C658 1.260 . S
C661 C659 1.479 . S
C662 C657 1.245 . S
C662 C658 1.477 . S
C662 H679 0.932 . S
C663 U646 2.882 . S
C663 C657 1.428 . S
C663 O666 1.301 . S
C663 O667 1.282 . S
O664 U646 2.441 . S
O664 C650 1.249 . S
O665 U646 2.420 . S
O665 C650 1.202 . S
O666 U646 2.455 . S
O666 C663 1.301 . S
O667 U646 2.449 . S
O667 C663 1.282 . S
H668 C641 0.931 . S
H669 C643 0.929 . S
H670 C644 0.930 . S
H671 C645 0.931 . S
H672 C652 0.932 . S
H673 C653 0.930 . S
H674 C654 0.929 . S
H675 C656 0.930 . S
H676 C658 0.932 . S
H677 C659 0.929 . S
H678 C660 0.928 . S
H679 C662 0.932 . S
C680 C681 1.264 . S
C680 C685 1.479 . S
C680 C690 1.465 . S
C681 C680 1.264 . S
C681 C683 1.339 . S
C681 H708 0.931 . S
C682 C683 1.395 . S
C682 C684 1.320 . S
C683 C681 1.339 . S
C683 C682 1.395 . S
C683 H709 0.929 . S
C684 C682 1.320 . S
C684 C685 1.405 . S
C684 H710 0.930 . S
C685 C680 1.479 . S
C685 C684 1.405 . S
C685 H711 0.931 . S
U686 O687 2.454 . S
U686 O688 2.458 . S
U686 C689 2.984 . S
U686 C690 2.847 . S
U686 C703 2.882 . S
U686 O704 2.441 . S
U686 O705 2.420 . S
U686 O706 2.455 . S
U686 O707 2.449 . S
O687 U686 2.454 . S
O687 C689 1.353 . S
O688 U686 2.458 . S
O688 C689 1.286 . S
C689 U686 2.984 . S
C689 O687 1.353 . S
C689 O688 1.286 . S
C689 C691 1.363 . S
C690 C680 1.465 . S
C690 U686 2.847 . S
C690 O704 1.249 . S
C690 O705 1.202 . S
C691 C689 1.363 . S
C691 C693 1.408 . S
C691 C696 1.342 . S
C692 C693 1.310 . S
C692 C695 1.461 . S
C692 H712 0.932 1_556 S
C693 C691 1.408 . S
C693 C692 1.310 . S
C693 H713 0.930 . S
C694 C695 1.474 . S
C694 C696 1.285 . S
C694 H714 0.929 . S
C695 C692 1.461 . S
C695 C694 1.474 . S
C696 C691 1.342 . S
C696 C694 1.285 . S
C696 H715 0.930 . S
C697 C700 1.424 . S
C697 C702 1.245 . S
C697 C703 1.428 . S
C698 C701 1.260 . S
C698 C702 1.477 . S
C698 H716 0.932 . S
C699 C700 1.384 . S
C699 C701 1.479 . S
C699 H717 0.929 . S
C700 C697 1.424 . S
C700 C699 1.384 . S
C700 H718 0.928 . S
C701 C698 1.260 . S
C701 C699 1.479 . S
C702 C697 1.245 . S
C702 C698 1.477 . S
C702 H719 0.932 . S
C703 U686 2.882 . S
C703 C697 1.428 . S
C703 O706 1.301 . S
C703 O707 1.282 . S
O704 U686 2.441 . S
O704 C690 1.249 . S
O705 U686 2.420 . S
O705 C690 1.202 . S
O706 U686 2.455 . S
O706 C703 1.301 . S
O707 U686 2.449 . S
O707 C703 1.282 . S
H708 C681 0.931 . S
H709 C683 0.929 . S
H710 C684 0.930 . S
H711 C685 0.931 . S
H712 C692 0.932 1_554 S
H713 C693 0.930 . S
H714 C694 0.929 . S
H715 C696 0.930 . S
H716 C698 0.932 . S
H717 C699 0.929 . S
H718 C700 0.928 . S
H719 C702 0.932 . S
C720 C721 1.264 . S
C720 C725 1.479 . S
C720 C730 1.465 . S
C721 C720 1.264 . S
C721 C723 1.339 . S
C721 H748 0.931 . S
C722 C723 1.395 . S
C722 C724 1.320 . S
C723 C721 1.339 . S
C723 C722 1.395 . S
C723 H749 0.929 . S
C724 C722 1.320 . S
C724 C725 1.405 . S
C724 H750 0.930 . S
C725 C720 1.479 . S
C725 C724 1.405 . S
C725 H751 0.931 . S
U726 O727 2.454 . S
U726 O728 2.458 . S
U726 C729 2.984 . S
U726 C730 2.847 . S
U726 C743 2.882 . S
U726 O744 2.441 . S
U726 O745 2.420 . S
U726 O746 2.455 . S
U726 O747 2.449 . S
O727 U726 2.454 . S
O727 C729 1.353 . S
O728 U726 2.458 . S
O728 C729 1.286 . S
C729 U726 2.984 . S
C729 O727 1.353 . S
C729 O728 1.286 . S
C729 C731 1.363 . S
C730 C720 1.465 . S
C730 U726 2.847 . S
C730 O744 1.249 . S
C730 O745 1.202 . S
C731 C729 1.363 . S
C731 C733 1.408 . S
C731 C736 1.342 . S
C732 C733 1.310 . S
C732 C735 1.461 . S
C732 H752 0.932 . S
C733 C731 1.408 . S
C733 C732 1.310 . S
C733 H753 0.930 . S
C734 C735 1.474 . S
C734 C736 1.285 . S
C734 H754 0.929 . S
C735 C732 1.461 . S
C735 C734 1.474 . S
C736 C731 1.342 . S
C736 C734 1.285 . S
C736 H755 0.930 . S
C737 C740 1.424 . S
C737 C742 1.245 . S
C737 C743 1.428 . S
C738 C741 1.260 . S
C738 C742 1.477 . S
C738 H756 0.932 . S
C739 C740 1.384 . S
C739 C741 1.479 . S
C739 H757 0.929 1_554 S
C740 C737 1.424 . S
C740 C739 1.384 . S
C740 H758 0.928 . S
C741 C738 1.260 . S
C741 C739 1.479 . S
C742 C737 1.245 . S
C742 C738 1.477 . S
C742 H759 0.932 . S
C743 U726 2.882 . S
C743 C737 1.428 . S
C743 O746 1.301 . S
C743 O747 1.282 . S
O744 U726 2.441 . S
O744 C730 1.249 . S
O745 U726 2.420 . S
O745 C730 1.202 . S
O746 U726 2.455 . S
O746 C743 1.301 . S
O747 U726 2.449 . S
O747 C743 1.282 . S
H748 C721 0.931 . S
H749 C723 0.929 . S
H750 C724 0.930 . S
H751 C725 0.931 . S
H752 C732 0.932 . S
H753 C733 0.930 . S
H754 C734 0.929 . S
H755 C736 0.930 . S
H756 C738 0.932 . S
H757 C739 0.929 1_556 S
H758 C740 0.928 . S
H759 C742 0.932 . S
C760 C761 1.264 . S
C760 C765 1.479 . S
C760 C770 1.465 . S
C761 C760 1.264 . S
C761 C763 1.339 . S
C761 H788 0.931 . S
C762 C763 1.395 . S
C762 C764 1.320 . S
C763 C761 1.339 . S
C763 C762 1.395 . S
C763 H789 0.929 . S
C764 C762 1.320 . S
C764 C765 1.405 . S
C764 H790 0.930 . S
C765 C760 1.479 . S
C765 C764 1.405 . S
C765 H791 0.931 . S
U766 O767 2.454 . S
U766 O768 2.458 . S
U766 C769 2.984 . S
U766 C770 2.847 . S
U766 C783 2.882 . S
U766 O784 2.441 . S
U766 O785 2.420 . S
U766 O786 2.455 . S
U766 O787 2.449 . S
O767 U766 2.454 . S
O767 C769 1.353 . S
O768 U766 2.458 . S
O768 C769 1.286 . S
C769 U766 2.984 . S
C769 O767 1.353 . S
C769 O768 1.286 . S
C769 C771 1.363 . S
C770 C760 1.465 . S
C770 U766 2.847 . S
C770 O784 1.249 . S
C770 O785 1.202 . S
C771 C769 1.363 . S
C771 C773 1.408 . S
C771 C776 1.342 1_455 S
C772 C773 1.294 1_655 S
C772 C775 1.482 . S
C772 H792 0.928 1_655 S
C773 C771 1.408 . S
C773 C772 1.294 1_455 S
C773 H793 0.930 . S
C774 C775 1.474 . S
C774 C776 1.285 . S
C774 H794 0.929 . S
C775 C772 1.482 . S
C775 C774 1.474 . S
C776 C771 1.342 1_655 S
C776 C774 1.285 . S
C776 H795 0.930 . S
C777 C780 1.424 . S
C777 C782 1.245 . S
C777 C783 1.428 . S
C778 C781 1.260 . S
C778 C782 1.477 . S
C778 H796 0.962 . S
C779 C780 1.384 . S
C779 C781 1.479 . S
C779 H797 0.929 . S
C780 C777 1.424 . S
C780 C779 1.384 . S
C780 H798 0.928 . S
C781 C778 1.260 . S
C781 C779 1.479 . S
C782 C777 1.245 . S
C782 C778 1.477 . S
C782 H799 0.932 . S
C783 U766 2.882 . S
C783 C777 1.428 . S
C783 O786 1.301 . S
C783 O787 1.282 . S
O784 U766 2.441 . S
O784 C770 1.249 . S
O785 U766 2.420 . S
O785 C770 1.202 . S
O786 U766 2.455 . S
O786 C783 1.301 . S
O787 U766 2.449 . S
O787 C783 1.282 . S
H788 C761 0.931 . S
H789 C763 0.929 . S
H790 C764 0.930 . S
H791 C765 0.931 . S
H792 C772 0.928 1_455 S
H793 C773 0.930 . S
H794 C774 0.929 . S
H795 C776 0.930 . S
H796 C778 0.962 . S
H797 C779 0.929 . S
H798 C780 0.928 . S
H799 C782 0.932 . S
C800 C801 1.264 . S
C800 C805 1.479 . S
C800 C810 1.465 . S
C801 C800 1.264 . S
C801 C803 1.339 . S
C801 H828 0.931 . S
C802 C803 1.395 . S
C802 C804 1.320 . S
C803 C801 1.339 . S
C803 C802 1.395 . S
C803 H829 0.929 . S
C804 C802 1.320 . S
C804 C805 1.405 . S
C804 H830 0.930 . S
C805 C800 1.479 . S
C805 C804 1.405 . S
C805 H831 0.931 . S
U806 O807 2.454 . S
U806 O808 2.458 . S
U806 C809 2.984 . S
U806 C810 2.847 . S
U806 C823 2.882 . S
U806 O824 2.441 . S
U806 O825 2.420 . S
U806 O826 2.455 . S
U806 O827 2.449 . S
O807 U806 2.454 . S
O807 C809 1.353 . S
O808 U806 2.458 . S
O808 C809 1.286 . S
C809 U806 2.984 . S
C809 O807 1.353 . S
C809 O808 1.286 . S
C809 C811 1.363 . S
C810 C800 1.465 . S
C810 U806 2.847 . S
C810 O824 1.249 . S
C810 O825 1.202 . S
C811 C809 1.363 . S
C811 C813 1.408 . S
C811 C816 1.342 . S
C812 C813 1.310 . S
C812 C815 1.461 . S
C812 H832 0.932 . S
C813 C811 1.408 . S
C813 C812 1.310 . S
C813 H833 0.930 . S
C814 C815 1.474 . S
C814 C816 1.285 . S
C814 H834 0.929 . S
C815 C812 1.461 . S
C815 C814 1.474 . S
C816 C811 1.342 . S
C816 C814 1.285 . S
C816 H835 0.930 . S
C817 C820 1.424 . S
C817 C822 1.245 . S
C817 C823 1.428 . S
C818 C821 1.260 . S
C818 C822 1.477 . S
C818 H836 0.932 . S
C819 C820 1.384 . S
C819 C821 1.479 . S
C819 H837 0.929 1_556 S
C820 C817 1.424 . S
C820 C819 1.384 . S
C820 H838 0.928 . S
C821 C818 1.260 . S
C821 C819 1.479 . S
C822 C817 1.245 . S
C822 C818 1.477 . S
C822 H839 0.932 . S
C823 U806 2.882 . S
C823 C817 1.428 . S
C823 O826 1.301 . S
C823 O827 1.282 . S
O824 U806 2.441 . S
O824 C810 1.249 . S
O825 U806 2.420 . S
O825 C810 1.202 . S
O826 U806 2.455 . S
O826 C823 1.301 . S
O827 U806 2.449 . S
O827 C823 1.282 . S
H828 C801 0.931 . S
H829 C803 0.929 . S
H830 C804 0.930 . S
H831 C805 0.931 . S
H832 C812 0.932 . S
H833 C813 0.930 . S
H834 C814 0.929 . S
H835 C816 0.930 . S
H836 C818 0.932 . S
H837 C819 0.929 1_554 S
H838 C820 0.928 . S
H839 C822 0.932 . S
C840 C841 1.264 . S
C840 C845 1.479 . S
C840 C850 1.465 . S
C841 C840 1.264 . S
C841 C843 1.339 . S
C841 H868 0.931 . S
C842 C843 1.395 . S
C842 C844 1.320 . S
C843 C841 1.339 . S
C843 C842 1.395 . S
C843 H869 0.929 . S
C844 C842 1.320 . S
C844 C845 1.405 . S
C844 H870 0.930 . S
C845 C840 1.479 . S
C845 C844 1.405 . S
C845 H871 0.931 . S
U846 O847 2.454 . S
U846 O848 2.458 . S
U846 C849 2.984 . S
U846 C850 2.847 . S
U846 C863 2.882 . S
U846 O864 2.441 . S
U846 O865 2.420 . S
U846 O866 2.455 . S
U846 O867 2.449 . S
O847 U846 2.454 . S
O847 C849 1.353 . S
O848 U846 2.458 . S
O848 C849 1.286 . S
C849 U846 2.984 . S
C849 O847 1.353 . S
C849 O848 1.286 . S
C849 C851 1.363 . S
C850 C840 1.465 . S
C850 U846 2.847 . S
C850 O864 1.249 . S
C850 O865 1.202 . S
C851 C849 1.363 . S
C851 C853 1.408 . S
C851 C856 1.342 1_455 S
C852 C853 1.294 1_655 S
C852 C855 1.482 . S
C852 H872 0.928 1_654 S
C853 C851 1.408 . S
C853 C852 1.294 1_455 S
C853 H873 0.930 . S
C854 C855 1.474 . S
C854 C856 1.285 . S
C854 H874 0.929 . S
C855 C852 1.482 . S
C855 C854 1.474 . S
C856 C851 1.342 1_655 S
C856 C854 1.285 . S
C856 H875 0.930 . S
C857 C860 1.424 . S
C857 C862 1.245 . S
C857 C863 1.428 . S
C858 C861 1.260 . S
C858 C862 1.477 . S
C858 H876 0.962 . S
C859 C860 1.384 . S
C859 C861 1.479 . S
C859 H877 0.929 . S
C860 C857 1.424 . S
C860 C859 1.384 . S
C860 H878 0.928 . S
C861 C858 1.260 . S
C861 C859 1.479 . S
C862 C857 1.245 . S
C862 C858 1.477 . S
C862 H879 0.932 . S
C863 U846 2.882 . S
C863 C857 1.428 . S
C863 O866 1.301 . S
C863 O867 1.282 . S
O864 U846 2.441 . S
O864 C850 1.249 . S
O865 U846 2.420 . S
O865 C850 1.202 . S
O866 U846 2.455 . S
O866 C863 1.301 . S
O867 U846 2.449 . S
O867 C863 1.282 . S
H868 C841 0.931 . S
H869 C843 0.929 . S
H870 C844 0.930 . S
H871 C845 0.931 . S
H872 C852 0.928 1_456 S
H873 C853 0.930 . S
H874 C854 0.929 . S
H875 C856 0.930 . S
H876 C858 0.962 . S
H877 C859 0.929 . S
H878 C860 0.928 . S
H879 C862 0.932 . S
C880 C881 1.264 . S
C880 C885 1.479 . S
C880 C890 1.465 . S
C881 C880 1.264 . S
C881 C883 1.339 . S
C881 H908 0.931 . S
C882 C883 1.395 . S
C882 C884 1.320 . S
C883 C881 1.339 . S
C883 C882 1.395 . S
C883 H909 0.929 . S
C884 C882 1.320 . S
C884 C885 1.405 . S
C884 H910 0.930 . S
C885 C880 1.479 . S
C885 C884 1.405 . S
C885 H911 0.931 . S
U886 O887 2.454 . S
U886 O888 2.458 . S
U886 C889 2.984 . S
U886 C890 2.847 . S
U886 C903 2.882 . S
U886 O904 2.441 . S
U886 O905 2.420 . S
U886 O906 2.455 . S
U886 O907 2.449 . S
O887 U886 2.454 . S
O887 C889 1.353 . S
O888 U886 2.458 . S
O888 C889 1.286 . S
C889 U886 2.984 . S
C889 O887 1.353 . S
C889 O888 1.286 . S
C889 C891 1.363 . S
C890 C880 1.465 . S
C890 U886 2.847 . S
C890 O904 1.249 . S
C890 O905 1.202 . S
C891 C889 1.363 . S
C891 C893 1.408 . S
C891 C896 1.342 . S
C892 C893 1.310 . S
C892 C895 1.461 . S
C892 H912 0.932 . S
C893 C891 1.408 . S
C893 C892 1.310 . S
C893 H913 0.930 . S
C894 C895 1.474 . S
C894 C896 1.285 . S
C894 H914 0.929 . S
C895 C892 1.461 . S
C895 C894 1.474 . S
C896 C891 1.342 . S
C896 C894 1.285 . S
C896 H915 0.930 . S
C897 C900 1.424 . S
C897 C902 1.245 . S
C897 C903 1.428 . S
C898 C901 1.260 . S
C898 C902 1.477 . S
C898 H916 0.932 . S
C899 C900 1.384 . S
C899 C901 1.479 . S
C899 H917 0.929 . S
C900 C897 1.424 . S
C900 C899 1.384 . S
C900 H918 0.928 . S
C901 C898 1.260 . S
C901 C899 1.479 . S
C902 C897 1.245 . S
C902 C898 1.477 . S
C902 H919 0.932 . S
C903 U886 2.882 . S
C903 C897 1.428 . S
C903 O906 1.301 . S
C903 O907 1.282 . S
O904 U886 2.441 . S
O904 C890 1.249 . S
O905 U886 2.420 . S
O905 C890 1.202 . S
O906 U886 2.455 . S
O906 C903 1.301 . S
O907 U886 2.449 . S
O907 C903 1.282 . S
H908 C881 0.931 . S
H909 C883 0.929 . S
H910 C884 0.930 . S
H911 C885 0.931 . S
H912 C892 0.932 . S
H913 C893 0.930 . S
H914 C894 0.929 . S
H915 C896 0.930 . S
H916 C898 0.932 . S
H917 C899 0.929 . S
H918 C900 0.928 . S
H919 C902 0.932 . S
C920 C921 1.264 . S
C920 C925 1.479 . S
C920 C930 1.465 . S
C921 C920 1.264 . S
C921 C923 1.339 . S
C921 H948 0.931 . S
C922 C923 1.395 . S
C922 C924 1.320 . S
C923 C921 1.339 . S
C923 C922 1.395 . S
C923 H949 0.929 . S
C924 C922 1.320 . S
C924 C925 1.405 . S
C924 H950 0.930 . S
C925 C920 1.479 . S
C925 C924 1.405 . S
C925 H951 0.931 . S
U926 O927 2.454 . S
U926 O928 2.458 . S
U926 C929 2.984 . S
U926 C930 2.847 . S
U926 C943 2.882 . S
U926 O944 2.441 . S
U926 O945 2.420 . S
U926 O946 2.455 . S
U926 O947 2.449 . S
O927 U926 2.454 . S
O927 C929 1.353 . S
O928 U926 2.458 . S
O928 C929 1.286 . S
C929 U926 2.984 . S
C929 O927 1.353 . S
C929 O928 1.286 . S
C929 C931 1.363 . S
C930 C920 1.465 . S
C930 U926 2.847 . S
C930 O944 1.249 . S
C930 O945 1.202 . S
C931 C929 1.363 . S
C931 C933 1.408 . S
C931 C936 1.342 . S
C932 C933 1.310 . S
C932 C935 1.461 . S
C932 H952 0.932 . S
C933 C931 1.408 . S
C933 C932 1.310 . S
C933 H953 0.930 . S
C934 C935 1.474 . S
C934 C936 1.285 . S
C934 H954 0.929 . S
C935 C932 1.461 . S
C935 C934 1.474 . S
C936 C931 1.342 . S
C936 C934 1.285 . S
C936 H955 0.930 . S
C937 C940 1.424 . S
C937 C942 1.245 . S
C937 C943 1.428 . S
C938 C941 1.260 . S
C938 C942 1.477 . S
C938 H956 0.932 . S
C939 C940 1.384 . S
C939 C941 1.479 . S
C939 H957 0.929 . S
C940 C937 1.424 . S
C940 C939 1.384 . S
C940 H958 0.928 . S
C941 C938 1.260 . S
C941 C939 1.479 . S
C942 C937 1.245 . S
C942 C938 1.477 . S
C942 H959 0.932 . S
C943 U926 2.882 . S
C943 C937 1.428 . S
C943 O946 1.301 . S
C943 O947 1.282 . S
O944 U926 2.441 . S
O944 C930 1.249 . S
O945 U926 2.420 . S
O945 C930 1.202 . S
O946 U926 2.455 . S
O946 C943 1.301 . S
O947 U926 2.449 . S
O947 C943 1.282 . S
H948 C921 0.931 . S
H949 C923 0.929 . S
H950 C924 0.930 . S
H951 C925 0.931 . S
H952 C932 0.932 . S
H953 C933 0.930 . S
H954 C934 0.929 . S
H955 C936 0.930 . S
H956 C938 0.932 . S
H957 C939 0.929 . S
H958 C940 0.928 . S
H959 C942 0.932 . S
C960 C961 1.264 . S
C960 C965 1.479 . S
C960 C970 1.465 . S
C961 C960 1.264 . S
C961 C963 1.339 . S
C961 H988 0.931 . S
C962 C963 1.395 . S
C962 C964 1.320 . S
C963 C961 1.339 . S
C963 C962 1.395 . S
C963 H989 0.929 . S
C964 C962 1.320 . S
C964 C965 1.405 . S
C964 H990 0.930 . S
C965 C960 1.479 . S
C965 C964 1.405 . S
C965 H991 0.931 . S
U966 O967 2.454 . S
U966 O968 2.458 . S
U966 C969 2.984 . S
U966 C970 2.847 . S
U966 C983 2.882 . S
U966 O984 2.441 . S
U966 O985 2.420 . S
U966 O986 2.455 . S
U966 O987 2.449 . S
O967 U966 2.454 . S
O967 C969 1.353 . S
O968 U966 2.458 . S
O968 C969 1.286 . S
C969 U966 2.984 . S
C969 O967 1.353 . S
C969 O968 1.286 . S
C969 C971 1.363 . S
C970 C960 1.465 . S
C970 U966 2.847 . S
C970 O984 1.249 . S
C970 O985 1.202 . S
C971 C969 1.363 . S
C971 C973 1.408 . S
C971 C976 1.342 . S
C972 C973 1.310 . S
C972 C975 1.461 . S
C972 H992 0.932 . S
C973 C971 1.408 . S
C973 C972 1.310 . S
C973 H993 0.930 . S
C974 C975 1.474 . S
C974 C976 1.285 . S
C974 H994 0.929 . S
C975 C972 1.461 . S
C975 C974 1.474 . S
C976 C971 1.342 . S
C976 C974 1.285 . S
C976 H995 0.930 . S
C977 C980 1.424 . S
C977 C982 1.245 . S
C977 C983 1.428 . S
C978 C981 1.260 . S
C978 C982 1.477 . S
C978 H996 0.932 . S
C979 C980 1.384 . S
C979 C981 1.479 . S
C979 H997 0.929 . S
C980 C977 1.424 . S
C980 C979 1.384 . S
C980 H998 0.928 . S
C981 C978 1.260 . S
C981 C979 1.479 . S
C982 C977 1.245 . S
C982 C978 1.477 . S
C982 H999 0.932 . S
C983 U966 2.882 . S
C983 C977 1.428 . S
C983 O986 1.301 . S
C983 O987 1.282 . S
O984 U966 2.441 . S
O984 C970 1.249 . S
O985 U966 2.420 . S
O985 C970 1.202 . S
O986 U966 2.455 . S
O986 C983 1.301 . S
O987 U966 2.449 . S
O987 C983 1.282 . S
H988 C961 0.931 . S
H989 C963 0.929 . S
H990 C964 0.930 . S
H991 C965 0.931 . S
H992 C972 0.932 . S
H993 C973 0.930 . S
H994 C974 0.929 . S
H995 C976 0.930 . S
H996 C978 0.932 . S
H997 C979 0.929 . S
H998 C980 0.928 . S
H999 C982 0.932 . S
C1000 C1001 1.264 . S
C1000 C1005 1.479 . S
C1000 C1010 1.465 . S
C1001 C1000 1.264 . S
C1001 C1003 1.339 . S
C1001 H1028 0.931 . S
C1002 C1003 1.395 . S
C1002 C1004 1.320 . S
C1003 C1001 1.339 . S
C1003 C1002 1.395 . S
C1003 H1029 0.929 . S
C1004 C1002 1.320 . S
C1004 C1005 1.405 . S
C1004 H1030 0.930 . S
C1005 C1000 1.479 . S
C1005 C1004 1.405 . S
C1005 H1031 0.931 . S
U1006 O1007 2.454 . S
U1006 O1008 2.458 . S
U1006 C1009 2.984 . S
U1006 C1010 2.847 . S
U1006 C1023 2.882 . S
U1006 O1024 2.441 . S
U1006 O1025 2.420 . S
U1006 O1026 2.455 . S
U1006 O1027 2.449 . S
O1007 U1006 2.454 . S
O1007 C1009 1.353 . S
O1008 U1006 2.458 . S
O1008 C1009 1.286 . S
C1009 U1006 2.984 . S
C1009 O1007 1.353 . S
C1009 O1008 1.286 . S
C1009 C1011 1.363 . S
C1010 C1000 1.465 . S
C1010 U1006 2.847 . S
C1010 O1024 1.249 . S
C1010 O1025 1.202 . S
C1011 C1009 1.363 . S
C1011 C1013 1.408 . S
C1011 C1016 1.342 . S
C1012 C1013 1.310 . S
C1012 C1015 1.461 . S
C1012 H1032 0.932 1_554 S
C1013 C1011 1.408 . S
C1013 C1012 1.310 . S
C1013 H1033 0.930 . S
C1014 C1015 1.474 . S
C1014 C1016 1.285 . S
C1014 H1034 0.929 . S
C1015 C1012 1.461 . S
C1015 C1014 1.474 . S
C1016 C1011 1.342 . S
C1016 C1014 1.285 . S
C1016 H1035 0.930 . S
C1017 C1020 1.424 . S
C1017 C1022 1.245 . S
C1017 C1023 1.428 . S
C1018 C1021 1.260 . S
C1018 C1022 1.477 . S
C1018 H1036 0.932 . S
C1019 C1020 1.384 . S
C1019 C1021 1.479 . S
C1019 H1037 0.929 . S
C1020 C1017 1.424 . S
C1020 C1019 1.384 . S
C1020 H1038 0.928 . S
C1021 C1018 1.260 . S
C1021 C1019 1.479 . S
C1022 C1017 1.245 . S
C1022 C1018 1.477 . S
C1022 H1039 0.932 . S
C1023 U1006 2.882 . S
C1023 C1017 1.428 . S
C1023 O1026 1.301 . S
C1023 O1027 1.282 . S
O1024 U1006 2.441 . S
O1024 C1010 1.249 . S
O1025 U1006 2.420 . S
O1025 C1010 1.202 . S
O1026 U1006 2.455 . S
O1026 C1023 1.301 . S
O1027 U1006 2.449 . S
O1027 C1023 1.282 . S
H1028 C1001 0.931 . S
H1029 C1003 0.929 . S
H1030 C1004 0.930 . S
H1031 C1005 0.931 . S
H1032 C1012 0.932 1_556 S
H1033 C1013 0.930 . S
H1034 C1014 0.929 . S
H1035 C1016 0.930 . S
H1036 C1018 0.932 . S
H1037 C1019 0.929 . S
H1038 C1020 0.928 . S
H1039 C1022 0.932 . S
C1040 C1041 1.264 . S
C1040 C1045 1.479 . S
C1040 C1050 1.465 . S
C1041 C1040 1.264 . S
C1041 C1043 1.339 . S
C1041 H1068 0.931 . S
C1042 C1043 1.395 . S
C1042 C1044 1.320 . S
C1043 C1041 1.339 . S
C1043 C1042 1.395 . S
C1043 H1069 0.929 . S
C1044 C1042 1.320 . S
C1044 C1045 1.405 . S
C1044 H1070 0.930 . S
C1045 C1040 1.479 . S
C1045 C1044 1.405 . S
C1045 H1071 0.931 . S
U1046 O1047 2.454 . S
U1046 O1048 2.458 . S
U1046 C1049 2.984 . S
U1046 C1050 2.847 . S
U1046 C1063 2.882 . S
U1046 O1064 2.441 . S
U1046 O1065 2.420 . S
U1046 O1066 2.455 . S
U1046 O1067 2.449 . S
O1047 U1046 2.454 . S
O1047 C1049 1.353 . S
O1048 U1046 2.458 . S
O1048 C1049 1.286 . S
C1049 U1046 2.984 . S
C1049 O1047 1.353 . S
C1049 O1048 1.286 . S
C1049 C1051 1.363 . S
C1050 C1040 1.465 . S
C1050 U1046 2.847 . S
C1050 O1064 1.249 . S
C1050 O1065 1.202 . S
C1051 C1049 1.363 . S
C1051 C1053 1.408 . S
C1051 C1056 1.342 . S
C1052 C1053 1.310 . S
C1052 C1055 1.461 . S
C1052 H1072 0.932 . S
C1053 C1051 1.408 . S
C1053 C1052 1.310 . S
C1053 H1073 0.930 . S
C1054 C1055 1.474 . S
C1054 C1056 1.285 . S
C1054 H1074 0.929 . S
C1055 C1052 1.461 . S
C1055 C1054 1.474 . S
C1056 C1051 1.342 . S
C1056 C1054 1.285 . S
C1056 H1075 0.930 . S
C1057 C1060 1.424 . S
C1057 C1062 1.245 . S
C1057 C1063 1.428 . S
C1058 C1061 1.260 . S
C1058 C1062 1.477 . S
C1058 H1076 0.932 . S
C1059 C1060 1.384 . S
C1059 C1061 1.479 . S
C1059 H1077 0.929 1_556 S
C1060 C1057 1.424 . S
C1060 C1059 1.384 . S
C1060 H1078 0.928 . S
C1061 C1058 1.260 . S
C1061 C1059 1.479 . S
C1062 C1057 1.245 . S
C1062 C1058 1.477 . S
C1062 H1079 0.932 . S
C1063 U1046 2.882 . S
C1063 C1057 1.428 . S
C1063 O1066 1.301 . S
C1063 O1067 1.282 . S
O1064 U1046 2.441 . S
O1064 C1050 1.249 . S
O1065 U1046 2.420 . S
O1065 C1050 1.202 . S
O1066 U1046 2.455 . S
O1066 C1063 1.301 . S
O1067 U1046 2.449 . S
O1067 C1063 1.282 . S
H1068 C1041 0.931 . S
H1069 C1043 0.929 . S
H1070 C1044 0.930 . S
H1071 C1045 0.931 . S
H1072 C1052 0.932 . S
H1073 C1053 0.930 . S
H1074 C1054 0.929 . S
H1075 C1056 0.930 . S
H1076 C1058 0.932 . S
H1077 C1059 0.929 1_554 S
H1078 C1060 0.928 . S
H1079 C1062 0.932 . S
C1080 C1081 1.264 . S
C1080 C1085 1.479 . S
C1080 C1090 1.465 . S
C1081 C1080 1.264 . S
C1081 C1083 1.339 . S
C1081 H1108 0.931 . S
C1082 C1083 1.395 . S
C1082 C1084 1.320 . S
C1083 C1081 1.339 . S
C1083 C1082 1.395 . S
C1083 H1109 0.929 . S
C1084 C1082 1.320 . S
C1084 C1085 1.405 . S
C1084 H1110 0.930 . S
C1085 C1080 1.479 . S
C1085 C1084 1.405 . S
C1085 H1111 0.931 . S
U1086 O1087 2.454 . S
U1086 O1088 2.458 . S
U1086 C1089 2.984 . S
U1086 C1090 2.847 . S
U1086 C1103 2.882 . S
U1086 O1104 2.441 . S
U1086 O1105 2.420 . S
U1086 O1106 2.455 . S
U1086 O1107 2.449 . S
O1087 U1086 2.454 . S
O1087 C1089 1.353 . S
O1088 U1086 2.458 . S
O1088 C1089 1.286 . S
C1089 U1086 2.984 . S
C1089 O1087 1.353 . S
C1089 O1088 1.286 . S
C1089 C1091 1.363 1_655 S
C1090 C1080 1.465 . S
C1090 U1086 2.847 . S
C1090 O1104 1.249 . S
C1090 O1105 1.202 . S
C1091 C1089 1.363 1_455 S
C1091 C1093 1.408 1_455 S
C1091 C1096 1.342 . S
C1092 C1093 1.310 1_455 S
C1092 C1095 1.461 . S
C1092 H1112 0.939 . S
C1093 C1091 1.408 1_655 S
C1093 C1092 1.310 1_655 S
C1093 H1113 0.930 . S
C1094 C1095 1.474 . S
C1094 C1096 1.285 . S
C1094 H1114 0.929 . S
C1095 C1092 1.461 . S
C1095 C1094 1.474 . S
C1096 C1091 1.342 . S
C1096 C1094 1.285 . S
C1096 H1115 0.930 . S
C1097 C1100 1.424 . S
C1097 C1102 1.245 1_655 S
C1097 C1103 1.428 . S
C1098 C1101 1.260 1_455 S
C1098 C1102 1.477 . S
C1098 H1116 0.932 . S
C1099 C1100 1.384 . S
C1099 C1101 1.479 . S
C1099 H1117 0.929 . S
C1100 C1097 1.424 . S
C1100 C1099 1.384 . S
C1100 H1118 0.928 . S
C1101 C1098 1.260 1_655 S
C1101 C1099 1.479 . S
C1102 C1097 1.245 1_455 S
C1102 C1098 1.477 . S
C1102 H1119 0.932 . S
C1103 U1086 2.882 . S
C1103 C1097 1.428 . S
C1103 O1106 1.301 . S
C1103 O1107 1.282 . S
O1104 U1086 2.441 . S
O1104 C1090 1.249 . S
O1105 U1086 2.420 . S
O1105 C1090 1.202 . S
O1106 U1086 2.455 . S
O1106 C1103 1.301 . S
O1107 U1086 2.449 . S
O1107 C1103 1.282 . S
H1108 C1081 0.931 . S
H1109 C1083 0.929 . S
H1110 C1084 0.930 . S
H1111 C1085 0.931 . S
H1112 C1092 0.939 . S
H1113 C1093 0.930 . S
H1114 C1094 0.929 . S
H1115 C1096 0.930 . S
H1116 C1098 0.932 . S
H1117 C1099 0.929 . S
H1118 C1100 0.928 . S
H1119 C1102 0.932 . S
C1120 C1121 1.264 . S
C1120 C1125 1.479 . S
C1120 C1130 1.465 . S
C1121 C1120 1.264 . S
C1121 C1123 1.339 . S
C1121 H1148 0.931 . S
C1122 C1123 1.395 . S
C1122 C1124 1.320 . S
C1123 C1121 1.339 . S
C1123 C1122 1.395 . S
C1123 H1149 0.929 . S
C1124 C1122 1.320 . S
C1124 C1125 1.405 . S
C1124 H1150 0.930 . S
C1125 C1120 1.479 . S
C1125 C1124 1.405 . S
C1125 H1151 0.931 . S
U1126 O1127 2.454 . S
U1126 O1128 2.458 . S
U1126 C1129 2.984 . S
U1126 C1130 2.847 . S
U1126 C1143 2.882 . S
U1126 O1144 2.441 . S
U1126 O1145 2.420 . S
U1126 O1146 2.455 . S
U1126 O1147 2.449 . S
O1127 U1126 2.454 . S
O1127 C1129 1.353 . S
O1128 U1126 2.458 . S
O1128 C1129 1.286 . S
C1129 U1126 2.984 . S
C1129 O1127 1.353 . S
C1129 O1128 1.286 . S
C1129 C1131 1.363 . S
C1130 C1120 1.465 . S
C1130 U1126 2.847 . S
C1130 O1144 1.249 . S
C1130 O1145 1.202 . S
C1131 C1129 1.363 . S
C1131 C1133 1.408 . S
C1131 C1136 1.342 . S
C1132 C1133 1.310 . S
C1132 C1135 1.461 . S
C1132 H1152 0.932 . S
C1133 C1131 1.408 . S
C1133 C1132 1.310 . S
C1133 H1153 0.930 . S
C1134 C1135 1.474 . S
C1134 C1136 1.285 . S
C1134 H1154 0.929 . S
C1135 C1132 1.461 . S
C1135 C1134 1.474 . S
C1136 C1131 1.342 . S
C1136 C1134 1.285 . S
C1136 H1155 0.930 . S
C1137 C1140 1.424 . S
C1137 C1142 1.245 . S
C1137 C1143 1.428 . S
C1138 C1141 1.260 . S
C1138 C1142 1.477 . S
C1138 H1156 0.932 . S
C1139 C1140 1.384 . S
C1139 C1141 1.479 . S
C1139 H1157 0.929 1_554 S
C1140 C1137 1.424 . S
C1140 C1139 1.384 . S
C1140 H1158 0.928 . S
C1141 C1138 1.260 . S
C1141 C1139 1.479 . S
C1142 C1137 1.245 . S
C1142 C1138 1.477 . S
C1142 H1159 0.932 . S
C1143 U1126 2.882 . S
C1143 C1137 1.428 . S
C1143 O1146 1.301 . S
C1143 O1147 1.282 . S
O1144 U1126 2.441 . S
O1144 C1130 1.249 . S
O1145 U1126 2.420 . S
O1145 C1130 1.202 . S
O1146 U1126 2.455 . S
O1146 C1143 1.301 . S
O1147 U1126 2.449 . S
O1147 C1143 1.282 . S
H1148 C1121 0.931 . S
H1149 C1123 0.929 . S
H1150 C1124 0.930 . S
H1151 C1125 0.931 . S
H1152 C1132 0.932 . S
H1153 C1133 0.930 . S
H1154 C1134 0.929 . S
H1155 C1136 0.930 . S
H1156 C1138 0.932 . S
H1157 C1139 0.929 1_556 S
H1158 C1140 0.928 . S
H1159 C1142 0.932 . S
C1160 C1161 1.264 . S
C1160 C1165 1.479 . S
C1160 C1170 1.465 . S
C1161 C1160 1.264 . S
C1161 C1163 1.339 . S
C1161 H1188 0.931 . S
C1162 C1163 1.395 . S
C1162 C1164 1.320 . S
C1163 C1161 1.339 . S
C1163 C1162 1.395 . S
C1163 H1189 0.929 . S
C1164 C1162 1.320 . S
C1164 C1165 1.405 . S
C1164 H1190 0.930 . S
C1165 C1160 1.479 . S
C1165 C1164 1.405 . S
C1165 H1191 0.931 . S
U1166 O1167 2.454 . S
U1166 O1168 2.458 . S
U1166 C1169 2.984 . S
U1166 C1170 2.847 . S
U1166 C1183 2.882 . S
U1166 O1184 2.441 . S
U1166 O1185 2.420 . S
U1166 O1186 2.455 . S
U1166 O1187 2.449 . S
O1167 U1166 2.454 . S
O1167 C1169 1.353 . S
O1168 U1166 2.458 . S
O1168 C1169 1.286 . S
C1169 U1166 2.984 . S
C1169 O1167 1.353 . S
C1169 O1168 1.286 . S
C1169 C1171 1.363 1_655 S
C1170 C1160 1.465 . S
C1170 U1166 2.847 . S
C1170 O1184 1.249 . S
C1170 O1185 1.202 . S
C1171 C1169 1.363 1_455 S
C1171 C1173 1.408 1_455 S
C1171 C1176 1.342 . S
C1172 C1173 1.310 1_455 S
C1172 C1175 1.461 . S
C1172 H1192 0.939 1_556 S
C1173 C1171 1.408 1_655 S
C1173 C1172 1.310 1_655 S
C1173 H1193 0.930 . S
C1174 C1175 1.474 . S
C1174 C1176 1.285 . S
C1174 H1194 0.929 . S
C1175 C1172 1.461 . S
C1175 C1174 1.474 . S
C1176 C1171 1.342 . S
C1176 C1174 1.285 . S
C1176 H1195 0.930 . S
C1177 C1180 1.424 . S
C1177 C1182 1.245 1_655 S
C1177 C1183 1.428 . S
C1178 C1181 1.260 1_455 S
C1178 C1182 1.477 . S
C1178 H1196 0.932 . S
C1179 C1180 1.384 . S
C1179 C1181 1.479 . S
C1179 H1197 0.929 . S
C1180 C1177 1.424 . S
C1180 C1179 1.384 . S
C1180 H1198 0.928 . S
C1181 C1178 1.260 1_655 S
C1181 C1179 1.479 . S
C1182 C1177 1.245 1_455 S
C1182 C1178 1.477 . S
C1182 H1199 0.932 . S
C1183 U1166 2.882 . S
C1183 C1177 1.428 . S
C1183 O1186 1.301 . S
C1183 O1187 1.282 . S
O1184 U1166 2.441 . S
O1184 C1170 1.249 . S
O1185 U1166 2.420 . S
O1185 C1170 1.202 . S
O1186 U1166 2.455 . S
O1186 C1183 1.301 . S
O1187 U1166 2.449 . S
O1187 C1183 1.282 . S
H1188 C1161 0.931 . S
H1189 C1163 0.929 . S
H1190 C1164 0.930 . S
H1191 C1165 0.931 . S
H1192 C1172 0.939 1_554 S
H1193 C1173 0.930 . S
H1194 C1174 0.929 . S
H1195 C1176 0.930 . S
H1196 C1178 0.932 . S
H1197 C1179 0.929 . S
H1198 C1180 0.928 . S
H1199 C1182 0.932 . S
C1200 C1201 1.264 . S
C1200 C1205 1.479 . S
C1200 C1210 1.465 . S
C1201 C1200 1.264 . S
C1201 C1203 1.339 . S
C1201 H1228 0.931 . S
C1202 C1203 1.395 . S
C1202 C1204 1.320 . S
C1203 C1201 1.339 . S
C1203 C1202 1.395 . S
C1203 H1229 0.929 . S
C1204 C1202 1.320 . S
C1204 C1205 1.405 . S
C1204 H1230 0.930 . S
C1205 C1200 1.479 . S
C1205 C1204 1.405 . S
C1205 H1231 0.931 . S
U1206 O1207 2.454 . S
U1206 O1208 2.458 . S
U1206 C1209 2.984 . S
U1206 C1210 2.847 . S
U1206 C1223 2.882 . S
U1206 O1224 2.441 . S
U1206 O1225 2.420 . S
U1206 O1226 2.455 . S
U1206 O1227 2.449 . S
O1207 U1206 2.454 . S
O1207 C1209 1.353 . S
O1208 U1206 2.458 . S
O1208 C1209 1.286 . S
C1209 U1206 2.984 . S
C1209 O1207 1.353 . S
C1209 O1208 1.286 . S
C1209 C1211 1.363 . S
C1210 C1200 1.465 . S
C1210 U1206 2.847 . S
C1210 O1224 1.249 . S
C1210 O1225 1.202 . S
C1211 C1209 1.363 . S
C1211 C1213 1.408 . S
C1211 C1216 1.342 . S
C1212 C1213 1.310 . S
C1212 C1215 1.461 . S
C1212 H1232 0.932 . S
C1213 C1211 1.408 . S
C1213 C1212 1.310 . S
C1213 H1233 0.930 . S
C1214 C1215 1.474 . S
C1214 C1216 1.285 . S
C1214 H1234 0.929 . S
C1215 C1212 1.461 . S
C1215 C1214 1.474 . S
C1216 C1211 1.342 . S
C1216 C1214 1.285 . S
C1216 H1235 0.930 . S
C1217 C1220 1.424 . S
C1217 C1222 1.245 . S
C1217 C1223 1.428 . S
C1218 C1221 1.260 . S
C1218 C1222 1.477 . S
C1218 H1236 0.932 . S
C1219 C1220 1.384 . S
C1219 C1221 1.479 . S
C1219 H1237 0.929 . S
C1220 C1217 1.424 . S
C1220 C1219 1.384 . S
C1220 H1238 0.928 . S
C1221 C1218 1.260 . S
C1221 C1219 1.479 . S
C1222 C1217 1.245 . S
C1222 C1218 1.477 . S
C1222 H1239 0.932 . S
C1223 U1206 2.882 . S
C1223 C1217 1.428 . S
C1223 O1226 1.301 . S
C1223 O1227 1.282 . S
O1224 U1206 2.441 . S
O1224 C1210 1.249 . S
O1225 U1206 2.420 . S
O1225 C1210 1.202 . S
O1226 U1206 2.455 . S
O1226 C1223 1.301 . S
O1227 U1206 2.449 . S
O1227 C1223 1.282 . S
H1228 C1201 0.931 . S
H1229 C1203 0.929 . S
H1230 C1204 0.930 . S
H1231 C1205 0.931 . S
H1232 C1212 0.932 . S
H1233 C1213 0.930 . S
H1234 C1214 0.929 . S
H1235 C1216 0.930 . S
H1236 C1218 0.932 . S
H1237 C1219 0.929 . S
H1238 C1220 0.928 . S
H1239 C1222 0.932 . S
C1240 C1241 1.264 . S
C1240 C1245 1.479 . S
C1240 C1250 1.465 . S
C1241 C1240 1.264 . S
C1241 C1243 1.339 . S
C1241 H1268 0.931 . S
C1242 C1243 1.395 . S
C1242 C1244 1.320 . S
C1243 C1241 1.339 . S
C1243 C1242 1.395 . S
C1243 H1269 0.929 . S
C1244 C1242 1.320 . S
C1244 C1245 1.405 . S
C1244 H1270 0.930 . S
C1245 C1240 1.479 . S
C1245 C1244 1.405 . S
C1245 H1271 0.931 . S
U1246 O1247 2.454 . S
U1246 O1248 2.458 . S
U1246 C1249 2.984 . S
U1246 C1250 2.847 . S
U1246 C1263 2.882 . S
U1246 O1264 2.441 . S
U1246 O1265 2.420 . S
U1246 O1266 2.455 . S
U1246 O1267 2.449 . S
O1247 U1246 2.454 . S
O1247 C1249 1.353 . S
O1248 U1246 2.458 . S
O1248 C1249 1.286 . S
C1249 U1246 2.984 . S
C1249 O1247 1.353 . S
C1249 O1248 1.286 . S
C1249 C1251 1.363 . S
C1250 C1240 1.465 . S
C1250 U1246 2.847 . S
C1250 O1264 1.249 . S
C1250 O1265 1.202 . S
C1251 C1249 1.363 . S
C1251 C1253 1.408 . S
C1251 C1256 1.342 . S
C1252 C1253 1.310 . S
C1252 C1255 1.461 . S
C1252 H1272 0.932 . S
C1253 C1251 1.408 . S
C1253 C1252 1.310 . S
C1253 H1273 0.930 . S
C1254 C1255 1.474 . S
C1254 C1256 1.285 . S
C1254 H1274 0.929 . S
C1255 C1252 1.461 . S
C1255 C1254 1.474 . S
C1256 C1251 1.342 . S
C1256 C1254 1.285 . S
C1256 H1275 0.930 . S
C1257 C1260 1.424 . S
C1257 C1262 1.245 . S
C1257 C1263 1.428 . S
C1258 C1261 1.260 . S
C1258 C1262 1.477 . S
C1258 H1276 0.932 . S
C1259 C1260 1.384 . S
C1259 C1261 1.479 . S
C1259 H1277 0.929 . S
C1260 C1257 1.424 . S
C1260 C1259 1.384 . S
C1260 H1278 0.928 . S
C1261 C1258 1.260 . S
C1261 C1259 1.479 . S
C1262 C1257 1.245 . S
C1262 C1258 1.477 . S
C1262 H1279 0.932 . S
C1263 U1246 2.882 . S
C1263 C1257 1.428 . S
C1263 O1266 1.301 . S
C1263 O1267 1.282 . S
O1264 U1246 2.441 . S
O1264 C1250 1.249 . S
O1265 U1246 2.420 . S
O1265 C1250 1.202 . S
O1266 U1246 2.455 . S
O1266 C1263 1.301 . S
O1267 U1246 2.449 . S
O1267 C1263 1.282 . S
H1268 C1241 0.931 . S
H1269 C1243 0.929 . S
H1270 C1244 0.930 . S
H1271 C1245 0.931 . S
H1272 C1252 0.932 . S
H1273 C1253 0.930 . S
H1274 C1254 0.929 . S
H1275 C1256 0.930 . S
H1276 C1258 0.932 . S
H1277 C1259 0.929 . S
H1278 C1260 0.928 . S
H1279 C1262 0.932 . S
C975 C15 3.331 . S
C55 C375 3.331 1_465 S
C1055 C95 3.331 . S
C135 C455 3.331 1_546 S
C175 C1135 3.331 . S
C215 C535 3.331 1_565 S
C255 C1215 3.331 . S
C615 C295 3.331 1_666 S
C655 C335 3.331 . S
C415 C735 3.331 . S
C815 C495 3.331 . S
C895 C575 3.331 . S
C1015 C695 3.331 1_554 S
C775 C1095 3.331 1_655 S
C1175 C855 3.331 1_456 S
C1255 C935 3.331 . S
C842 C2 1.823 . S
C882 C42 1.823 . S
C82 C922 1.823 . S
C122 C802 1.823 . S
C762 C162 1.823 . S
C202 C642 1.823 . S
C242 C682 1.823 . S
C282 C722 1.823 . S
C322 C1162 1.942 . S
C362 C1202 1.942 . S
C1242 C402 1.942 . S
C442 C1122 1.942 . S
C1082 C482 1.942 . S
C522 C962 1.942 . S
C1002 C562 1.942 . S
C1042 C602 1.942 . S
C261 C21 2.017 1_556 S
C301 C61 2.017 1_545 S
C181 C101 2.017 . S
C221 C141 2.017 1_565 S
C341 C581 2.363 1_556 S
C621 C381 2.363 1_565 S
C421 C501 2.363 . S
C541 C461 2.363 1_545 S
C661 C901 2.017 . S
C701 C941 2.017 . S
C741 C821 2.017 1_554 S
C781 C861 2.017 . S
C1221 C981 2.363 . S
C1261 C1021 2.363 . S
C1061 C1141 2.363 1_556 S
C1181 C1101 2.363 . S
