# Generated by pormake.
# Topology lta, (4)-cn, num edge types: 1
# Building blocks:
#     Node 0, Type 0, BuildingBlock: QUQFOY_clean_sbu_1, # of connection points: 4
#     Node 1, Type 0, BuildingBlock: QUQFOY_clean_sbu_1, # of connection points: 4
#     Node 2, Type 0, BuildingBlock: QUQFOY_clean_sbu_1, # of connection points: 4
#     Node 3, Type 0, BuildingBlock: QUQFOY_clean_sbu_1, # of connection points: 4
#     Node 4, Type 0, BuildingBlock: QUQFOY_clean_sbu_1, # of connection points: 4
#     Node 5, Type 0, BuildingBlock: QUQFOY_clean_sbu_1, # of connection points: 4
#     Node 6, Type 0, BuildingBlock: QUQFOY_clean_sbu_1, # of connection points: 4
#     Node 7, Type 0, BuildingBlock: QUQFOY_clean_sbu_1, # of connection points: 4
#     Node 8, Type 0, BuildingBlock: QUQFOY_clean_sbu_1, # of connection points: 4
#     Node 9, Type 0, BuildingBlock: QUQFOY_clean_sbu_1, # of connection points: 4
#     Node 10, Type 0, BuildingBlock: QUQFOY_clean_sbu_1, # of connection points: 4
#     Node 11, Type 0, BuildingBlock: QUQFOY_clean_sbu_1, # of connection points: 4
#     Node 12, Type 0, BuildingBlock: QUQFOY_clean_sbu_1, # of connection points: 4
#     Node 13, Type 0, BuildingBlock: QUQFOY_clean_sbu_1, # of connection points: 4
#     Node 14, Type 0, BuildingBlock: QUQFOY_clean_sbu_1, # of connection points: 4
#     Node 15, Type 0, BuildingBlock: QUQFOY_clean_sbu_1, # of connection points: 4
#     Node 16, Type 0, BuildingBlock: QUQFOY_clean_sbu_1, # of connection points: 4
#     Node 17, Type 0, BuildingBlock: QUQFOY_clean_sbu_1, # of connection points: 4
#     Node 18, Type 0, BuildingBlock: QUQFOY_clean_sbu_1, # of connection points: 4
#     Node 19, Type 0, BuildingBlock: QUQFOY_clean_sbu_1, # of connection points: 4
#     Node 20, Type 0, BuildingBlock: QUQFOY_clean_sbu_1, # of connection points: 4
#     Node 21, Type 0, BuildingBlock: QUQFOY_clean_sbu_1, # of connection points: 4
#     Node 22, Type 0, BuildingBlock: QUQFOY_clean_sbu_1, # of connection points: 4
#     Node 23, Type 0, BuildingBlock: QUQFOY_clean_sbu_1, # of connection points: 4
#     Edge 24, Type (0, 0), BuildingBlock: MIFKUJ_clean_linker_0, # of connection points: 2
#     Edge 25, Type (0, 0), BuildingBlock: MIFKUJ_clean_linker_0, # of connection points: 2
#     Edge 26, Type (0, 0), BuildingBlock: MIFKUJ_clean_linker_0, # of connection points: 2
#     Edge 27, Type (0, 0), BuildingBlock: MIFKUJ_clean_linker_0, # of connection points: 2
#     Edge 28, Type (0, 0), BuildingBlock: MIFKUJ_clean_linker_0, # of connection points: 2
#     Edge 29, Type (0, 0), BuildingBlock: MIFKUJ_clean_linker_0, # of connection points: 2
#     Edge 30, Type (0, 0), BuildingBlock: MIFKUJ_clean_linker_0, # of connection points: 2
#     Edge 31, Type (0, 0), BuildingBlock: MIFKUJ_clean_linker_0, # of connection points: 2
#     Edge 32, Type (0, 0), BuildingBlock: MIFKUJ_clean_linker_0, # of connection points: 2
#     Edge 33, Type (0, 0), BuildingBlock: MIFKUJ_clean_linker_0, # of connection points: 2
#     Edge 34, Type (0, 0), BuildingBlock: MIFKUJ_clean_linker_0, # of connection points: 2
#     Edge 35, Type (0, 0), BuildingBlock: MIFKUJ_clean_linker_0, # of connection points: 2
#     Edge 36, Type (0, 0), BuildingBlock: MIFKUJ_clean_linker_0, # of connection points: 2
#     Edge 37, Type (0, 0), BuildingBlock: MIFKUJ_clean_linker_0, # of connection points: 2
#     Edge 38, Type (0, 0), BuildingBlock: MIFKUJ_clean_linker_0, # of connection points: 2
#     Edge 39, Type (0, 0), BuildingBlock: MIFKUJ_clean_linker_0, # of connection points: 2
#     Edge 40, Type (0, 0), BuildingBlock: MIFKUJ_clean_linker_0, # of connection points: 2
#     Edge 41, Type (0, 0), BuildingBlock: MIFKUJ_clean_linker_0, # of connection points: 2
#     Edge 42, Type (0, 0), BuildingBlock: MIFKUJ_clean_linker_0, # of connection points: 2
#     Edge 43, Type (0, 0), BuildingBlock: MIFKUJ_clean_linker_0, # of connection points: 2
#     Edge 44, Type (0, 0), BuildingBlock: MIFKUJ_clean_linker_0, # of connection points: 2
#     Edge 45, Type (0, 0), BuildingBlock: MIFKUJ_clean_linker_0, # of connection points: 2
#     Edge 46, Type (0, 0), BuildingBlock: MIFKUJ_clean_linker_0, # of connection points: 2
#     Edge 47, Type (0, 0), BuildingBlock: MIFKUJ_clean_linker_0, # of connection points: 2
#     Edge 48, Type (0, 0), BuildingBlock: MIFKUJ_clean_linker_0, # of connection points: 2
#     Edge 49, Type (0, 0), BuildingBlock: MIFKUJ_clean_linker_0, # of connection points: 2
#     Edge 50, Type (0, 0), BuildingBlock: MIFKUJ_clean_linker_0, # of connection points: 2
#     Edge 51, Type (0, 0), BuildingBlock: MIFKUJ_clean_linker_0, # of connection points: 2
#     Edge 52, Type (0, 0), BuildingBlock: MIFKUJ_clean_linker_0, # of connection points: 2
#     Edge 53, Type (0, 0), BuildingBlock: MIFKUJ_clean_linker_0, # of connection points: 2
#     Edge 54, Type (0, 0), BuildingBlock: MIFKUJ_clean_linker_0, # of connection points: 2
#     Edge 55, Type (0, 0), BuildingBlock: MIFKUJ_clean_linker_0, # of connection points: 2
#     Edge 56, Type (0, 0), BuildingBlock: MIFKUJ_clean_linker_0, # of connection points: 2
#     Edge 57, Type (0, 0), BuildingBlock: MIFKUJ_clean_linker_0, # of connection points: 2
#     Edge 58, Type (0, 0), BuildingBlock: MIFKUJ_clean_linker_0, # of connection points: 2
#     Edge 59, Type (0, 0), BuildingBlock: MIFKUJ_clean_linker_0, # of connection points: 2
#     Edge 60, Type (0, 0), BuildingBlock: MIFKUJ_clean_linker_0, # of connection points: 2
#     Edge 61, Type (0, 0), BuildingBlock: MIFKUJ_clean_linker_0, # of connection points: 2
#     Edge 62, Type (0, 0), BuildingBlock: MIFKUJ_clean_linker_0, # of connection points: 2
#     Edge 63, Type (0, 0), BuildingBlock: MIFKUJ_clean_linker_0, # of connection points: 2
#     Edge 64, Type (0, 0), BuildingBlock: MIFKUJ_clean_linker_0, # of connection points: 2
#     Edge 65, Type (0, 0), BuildingBlock: MIFKUJ_clean_linker_0, # of connection points: 2
#     Edge 66, Type (0, 0), BuildingBlock: MIFKUJ_clean_linker_0, # of connection points: 2
#     Edge 67, Type (0, 0), BuildingBlock: MIFKUJ_clean_linker_0, # of connection points: 2
#     Edge 68, Type (0, 0), BuildingBlock: MIFKUJ_clean_linker_0, # of connection points: 2
#     Edge 69, Type (0, 0), BuildingBlock: MIFKUJ_clean_linker_0, # of connection points: 2
#     Edge 70, Type (0, 0), BuildingBlock: MIFKUJ_clean_linker_0, # of connection points: 2
#     Edge 71, Type (0, 0), BuildingBlock: MIFKUJ_clean_linker_0, # of connection points: 2
# Relax obj value: 0.318
# Max RMSD: 0.227
# Mean RMSD: 0.227
data_MOF--net-lta--node1-QUQFOY_clean_sbu_1--edge1-MIFKUJ_clean_linker_0
_symmetry_space_group_name_H-M    P1
_symmetry_Int_Tables_number       1
_symmetry_cell_setting            triclinic
loop_
_symmetry_equiv_pos_as_xyz
'x, y, z'
_cell_length_a     75.56551
_cell_length_b     75.562643
_cell_length_c     75.585256
_cell_angle_alpha  89.980601
_cell_angle_beta   89.947838
_cell_angle_gamma 90.020504
loop_
_atom_site_label
_atom_site_type_symbol
_atom_site_fract_x
_atom_site_fract_y
_atom_site_fract_z
_atom_type_partial_charge
O0 O 0.13353 0.31738 0.54983 0.0
Cd1 Cd 0.12669 0.30198 0.52825 0.0
Cd2 Cd 0.12563 0.33343 0.51069 0.0
O3 O 0.13731 0.34156 0.53394 0.0
O4 O 0.13629 0.27773 0.53175 0.0
O5 O 0.14587 0.29608 0.51092 0.0
C6 C 0.14696 0.2809 0.51877 0.0
C7 C 0.13503 0.3477 0.48481 0.0
C8 C 0.13834 0.33346 0.54865 0.0
C9 C 0.0914 0.31287 0.51485 0.0
O10 O 0.09898 0.32733 0.5108 0.0
O11 O 0.10032 0.30013 0.52124 0.0
O12 O 0.12592 0.35574 0.49673 0.0
O13 O 0.13919 0.33138 0.48764 0.0
O14 O 0.68256 0.13141 0.54622 0.0
Cd15 Cd 0.70175 0.12644 0.52743 0.0
Cd16 Cd 0.67393 0.12178 0.50433 0.0
O17 O 0.66055 0.128 0.52737 0.0
O18 O 0.72392 0.13931 0.53333 0.0
O19 O 0.70732 0.14554 0.50993 0.0
C20 C 0.72119 0.14883 0.5194 0.0
C21 C 0.65972 0.13039 0.47805 0.0
C22 C 0.66607 0.13127 0.54292 0.0
C23 C 0.69919 0.09097 0.51061 0.0
O24 O 0.68595 0.09737 0.50249 0.0
O25 O 0.7077 0.10037 0.52165 0.0
O26 O 0.6537 0.11795 0.48797 0.0
O27 O 0.67394 0.13838 0.48312 0.0
O28 O 0.86537 0.68104 0.55427 0.0
Cd29 Cd 0.87259 0.69823 0.5343 0.0
Cd30 Cd 0.87216 0.6687 0.51377 0.0
O31 O 0.85813 0.65988 0.53557 0.0
O32 O 0.86176 0.7217 0.53904 0.0
O33 O 0.85456 0.70479 0.51611 0.0
C34 C 0.85221 0.71918 0.52508 0.0
C35 C 0.86453 0.65496 0.48702 0.0
C36 C 0.85832 0.66611 0.55116 0.0
C37 C 0.90736 0.68747 0.52091 0.0
O38 O 0.89911 0.67375 0.51571 0.0
O39 O 0.89899 0.70021 0.52798 0.0
O40 O 0.87246 0.64662 0.49953 0.0
O41 O 0.86057 0.67137 0.48966 0.0
O42 O 0.31785 0.8632 0.55071 0.0
Cd43 Cd 0.30013 0.86997 0.53097 0.0
Cd44 Cd 0.32893 0.87077 0.50942 0.0
O45 O 0.34002 0.86026 0.532 0.0
O46 O 0.27661 0.85937 0.53614 0.0
O47 O 0.2935 0.85117 0.51356 0.0
C48 C 0.27903 0.8493 0.52254 0.0
C49 C 0.34106 0.86062 0.48276 0.0
C50 C 0.33384 0.85903 0.5476 0.0
C51 C 0.30874 0.90499 0.5153 0.0
O52 O 0.32236 0.89728 0.50914 0.0
O53 O 0.29731 0.89632 0.52409 0.0
O54 O 0.34991 0.87027 0.4936 0.0
O55 O 0.32504 0.85646 0.487 0.0
O56 O 0.13391 0.67982 0.44833 0.0
Cd57 Cd 0.12834 0.69596 0.46971 0.0
Cd58 Cd 0.12941 0.6657 0.48877 0.0
O59 O 0.14035 0.657 0.46531 0.0
O60 O 0.13785 0.72013 0.46552 0.0
O61 O 0.14826 0.70192 0.48607 0.0
C62 C 0.14899 0.71707 0.47811 0.0
C63 C 0.14059 0.65272 0.51458 0.0
C64 C 0.13979 0.66417 0.45011 0.0
C65 C 0.09432 0.68497 0.48576 0.0
O66 O 0.10252 0.67088 0.4899 0.0
O67 O 0.10249 0.69765 0.47833 0.0
O68 O 0.13128 0.64391 0.5034 0.0
O69 O 0.14389 0.66912 0.51108 0.0
O70 O 0.31359 0.13341 0.44602 0.0
Cd71 Cd 0.29667 0.12675 0.46652 0.0
Cd72 Cd 0.32645 0.12562 0.48668 0.0
O73 O 0.33632 0.13693 0.46391 0.0
O74 O 0.27306 0.13755 0.46224 0.0
O75 O 0.29087 0.1457 0.48409 0.0
C76 C 0.27613 0.14772 0.47563 0.0
C77 C 0.33994 0.13503 0.51294 0.0
C78 C 0.32957 0.13801 0.44856 0.0
C79 C 0.30595 0.09151 0.48111 0.0
O80 O 0.32 0.09905 0.48644 0.0
O81 O 0.29394 0.10041 0.47342 0.0
O82 O 0.34823 0.12573 0.50137 0.0
O83 O 0.32372 0.13924 0.5097 0.0
O84 O 0.86276 0.32027 0.44466 0.0
Cd85 Cd 0.86983 0.3034 0.46506 0.0
Cd86 Cd 0.87012 0.33289 0.48528 0.0
O87 O 0.85904 0.34299 0.46253 0.0
O88 O 0.85955 0.2795 0.46098 0.0
O89 O 0.85099 0.29735 0.48266 0.0
C90 C 0.84933 0.28248 0.47437 0.0
C91 C 0.8596 0.34436 0.51205 0.0
C92 C 0.85805 0.33622 0.44718 0.0
C93 C 0.90474 0.31344 0.48007 0.0
O94 O 0.89681 0.32725 0.48545 0.0
O95 O 0.89622 0.30132 0.47211 0.0
O96 O 0.86874 0.35378 0.5012 0.0
O97 O 0.85608 0.32824 0.50766 0.0
O98 O 0.67992 0.8636 0.45282 0.0
Cd99 Cd 0.6993 0.86926 0.47125 0.0
Cd100 Cd 0.67193 0.87252 0.49455 0.0
O101 O 0.65834 0.86419 0.4724 0.0
O102 O 0.72137 0.8567 0.46438 0.0
O103 O 0.70634 0.85094 0.48898 0.0
C104 C 0.71969 0.84763 0.47878 0.0
C105 C 0.66054 0.86204 0.52143 0.0
C106 C 0.66365 0.86181 0.45663 0.0
C107 C 0.69488 0.90484 0.48739 0.0
O108 O 0.6815 0.89813 0.49511 0.0
O109 O 0.70441 0.89545 0.47719 0.0
O110 O 0.65215 0.87335 0.5119 0.0
O111 O 0.67573 0.85656 0.51583 0.0
O112 O 0.54455 0.1379 0.31865 0.0
Cd113 Cd 0.52405 0.13175 0.30157 0.0
Cd114 Cd 0.50399 0.13189 0.33091 0.0
O115 O 0.52684 0.14254 0.34133 0.0
O116 O 0.52937 0.14138 0.27766 0.0
O117 O 0.50756 0.15125 0.29465 0.0
C118 C 0.51637 0.15223 0.28 0.0
C119 C 0.47705 0.14322 0.3411 0.0
C120 C 0.54224 0.14279 0.33457 0.0
C121 C 0.5084 0.09716 0.31167 0.0
O122 O 0.50346 0.10509 0.32565 0.0
O123 O 0.51619 0.10564 0.29941 0.0
O124 O 0.48737 0.13418 0.35117 0.0
O125 O 0.48212 0.14622 0.32506 0.0
O126 O 0.86559 0.54919 0.31822 0.0
Cd127 Cd 0.87022 0.53136 0.29825 0.0
Cd128 Cd 0.87193 0.50577 0.32376 0.0
O129 O 0.86687 0.52834 0.33858 0.0
O130 O 0.85788 0.53816 0.27607 0.0
O131 O 0.85077 0.51458 0.29213 0.0
C132 C 0.84798 0.52441 0.2784 0.0
C133 C 0.85962 0.47975 0.33526 0.0
C134 C 0.86481 0.54451 0.33434 0.0
C135 C 0.90401 0.51143 0.30014 0.0
O136 O 0.89647 0.50233 0.31212 0.0
O137 O 0.89606 0.52438 0.29295 0.0
O138 O 0.87232 0.48792 0.34309 0.0
O139 O 0.85368 0.48629 0.32066 0.0
O140 O 0.44689 0.866 0.31677 0.0
Cd141 Cd 0.46674 0.87392 0.29967 0.0
Cd142 Cd 0.48753 0.87501 0.32929 0.0
O143 O 0.46537 0.86241 0.33902 0.0
O144 O 0.46221 0.86396 0.27578 0.0
O145 O 0.48487 0.85595 0.29262 0.0
C146 C 0.4761 0.85426 0.27802 0.0
C147 C 0.5141 0.86692 0.3432 0.0
C148 C 0.44993 0.86097 0.33252 0.0
C149 C 0.47986 0.90944 0.3098 0.0
O150 O 0.48594 0.9017 0.32343 0.0
O151 O 0.47229 0.9006 0.29768 0.0
O152 O 0.50196 0.87569 0.35125 0.0
O153 O 0.51126 0.8625 0.32696 0.0
O154 O 0.13071 0.45035 0.31538 0.0
Cd155 Cd 0.12491 0.46684 0.29457 0.0
Cd156 Cd 0.11907 0.49261 0.31982 0.0
O157 O 0.12584 0.47101 0.33542 0.0
O158 O 0.13896 0.46059 0.27323 0.0
O159 O 0.14272 0.48543 0.28849 0.0
C160 C 0.14727 0.47539 0.27539 0.0
C161 C 0.12584 0.52015 0.33246 0.0
C162 C 0.13012 0.45521 0.33146 0.0
C163 C 0.08921 0.48265 0.29437 0.0
O164 O 0.09533 0.49285 0.30623 0.0
O165 O 0.0987 0.47036 0.28795 0.0
O166 O 0.11313 0.51042 0.33821 0.0
O167 O 0.13516 0.5142 0.31945 0.0
O168 O 0.54843 0.86083 0.68067 0.0
Cd169 Cd 0.52819 0.86736 0.69797 0.0
Cd170 Cd 0.50792 0.86881 0.66847 0.0
O171 O 0.53071 0.85845 0.65767 0.0
O172 O 0.5336 0.85708 0.72158 0.0
O173 O 0.51108 0.84835 0.70494 0.0
C174 C 0.52016 0.84676 0.71935 0.0
C175 C 0.4812 0.85806 0.65706 0.0
C176 C 0.54602 0.85705 0.66446 0.0
C177 C 0.51329 0.90271 0.68907 0.0
O178 O 0.50772 0.89531 0.67504 0.0
O179 O 0.52127 0.89371 0.70082 0.0
O180 O 0.49167 0.86781 0.64782 0.0
O181 O 0.48587 0.85418 0.67301 0.0
O182 O 0.13521 0.54575 0.67903 0.0
Cd183 Cd 0.12845 0.52782 0.69849 0.0
Cd184 Cd 0.12595 0.50399 0.67127 0.0
O185 O 0.13506 0.5259 0.65764 0.0
O186 O 0.1399 0.53444 0.72117 0.0
O187 O 0.14672 0.51024 0.70599 0.0
C188 C 0.14928 0.52023 0.71965 0.0
C189 C 0.13468 0.47635 0.66017 0.0
C190 C 0.13758 0.5417 0.66288 0.0
C191 C 0.09306 0.51184 0.69348 0.0
O192 O 0.1003 0.50378 0.68063 0.0
O193 O 0.10204 0.52243 0.70293 0.0
O194 O 0.12369 0.48637 0.65192 0.0
O195 O 0.14129 0.4822 0.67479 0.0
O196 O 0.44833 0.13152 0.6784 0.0
Cd197 Cd 0.46713 0.12481 0.69712 0.0
Cd198 Cd 0.48988 0.12369 0.66881 0.0
O199 O 0.46789 0.13463 0.657 0.0
O200 O 0.46124 0.13674 0.7198 0.0
O201 O 0.48525 0.14283 0.70395 0.0
C202 C 0.47554 0.14589 0.71773 0.0
C203 C 0.5169 0.13151 0.65554 0.0
C204 C 0.45208 0.13582 0.66259 0.0
C205 C 0.48229 0.08969 0.68961 0.0
O206 O 0.48913 0.0974 0.67631 0.0
O207 O 0.47316 0.09839 0.70073 0.0
O208 O 0.5054 0.12176 0.6477 0.0
O209 O 0.51307 0.13722 0.67117 0.0
O210 O 0.86587 0.44782 0.67884 0.0
Cd211 Cd 0.87148 0.46683 0.69764 0.0
Cd212 Cd 0.87361 0.48991 0.66981 0.0
O213 O 0.8657 0.46712 0.65695 0.0
O214 O 0.85948 0.46133 0.72036 0.0
O215 O 0.85242 0.48424 0.70337 0.0
C216 C 0.84974 0.4751 0.7176 0.0
C217 C 0.86371 0.51639 0.65702 0.0
C218 C 0.86367 0.45138 0.66255 0.0
C219 C 0.90628 0.48419 0.69284 0.0
O220 O 0.89902 0.49164 0.67965 0.0
O221 O 0.89753 0.47346 0.70239 0.0
O222 O 0.87555 0.50665 0.64966 0.0
O223 O 0.85707 0.51101 0.67181 0.0
O224 O 0.32289 0.55023 0.13785 0.0
Cd225 Cd 0.3048 0.53103 0.13044 0.0
Cd226 Cd 0.33372 0.50993 0.12753 0.0
O227 O 0.34547 0.53178 0.13884 0.0
O228 O 0.28146 0.53605 0.14148 0.0
O229 O 0.29808 0.5129 0.14855 0.0
C230 C 0.28375 0.52197 0.15089 0.0
C231 C 0.34484 0.48205 0.13536 0.0
C232 C 0.33909 0.54717 0.14121 0.0
C233 C 0.31249 0.51783 0.09435 0.0
O234 O 0.32633 0.51137 0.10134 0.0
O235 O 0.30116 0.52586 0.10383 0.0
O236 O 0.35376 0.49299 0.12584 0.0
O237 O 0.32955 0.48712 0.14108 0.0
O238 O 0.3192 0.45176 0.86749 0.0
Cd239 Cd 0.30069 0.47114 0.87312 0.0
Cd240 Cd 0.32809 0.49383 0.87294 0.0
O241 O 0.34068 0.47123 0.86432 0.0
O242 O 0.2773 0.46524 0.86262 0.0
O243 O 0.29415 0.48754 0.8535 0.0
C244 C 0.27974 0.47842 0.85199 0.0
C245 C 0.33724 0.52047 0.86003 0.0
C246 C 0.33521 0.45534 0.86374 0.0
C247 C 0.30843 0.48891 0.90738 0.0
O248 O 0.32172 0.49547 0.89942 0.0
O249 O 0.29754 0.47913 0.8991 0.0
O250 O 0.34741 0.51151 0.87032 0.0
O251 O 0.32164 0.51432 0.85685 0.0
O252 O 0.55167 0.31698 0.85931 0.0
Cd253 Cd 0.53139 0.2999 0.86602 0.0
Cd254 Cd 0.51186 0.32988 0.86669 0.0
O255 O 0.53382 0.33923 0.85331 0.0
O256 O 0.5366 0.27649 0.85525 0.0
O257 O 0.51348 0.29301 0.84779 0.0
C258 C 0.52267 0.27873 0.84561 0.0
C259 C 0.48485 0.34306 0.85902 0.0
C260 C 0.54918 0.33243 0.8532 0.0
C261 C 0.51849 0.31003 0.90122 0.0
O262 O 0.51373 0.32421 0.8935 0.0
O263 O 0.52503 0.29734 0.89237 0.0
O264 O 0.49708 0.3516 0.86718 0.0
O265 O 0.48794 0.3268 0.85481 0.0
O266 O 0.67754 0.54467 0.8654 0.0
Cd267 Cd 0.69841 0.52773 0.87012 0.0
Cd268 Cd 0.673 0.50255 0.87452 0.0
O269 O 0.65709 0.52414 0.86909 0.0
O270 O 0.71981 0.53528 0.85681 0.0
O271 O 0.705 0.51055 0.85114 0.0
C272 C 0.71808 0.521 0.84758 0.0
C273 C 0.66298 0.4753 0.86382 0.0
C274 C 0.66135 0.54008 0.86571 0.0
C275 C 0.69812 0.51019 0.90513 0.0
O276 O 0.68559 0.50104 0.89868 0.0
O277 O 0.70536 0.52227 0.89595 0.0
O278 O 0.65585 0.48279 0.87733 0.0
O279 O 0.67582 0.48337 0.85596 0.0
O280 O 0.44408 0.67953 0.86364 0.0
Cd281 Cd 0.4653 0.69518 0.87105 0.0
Cd282 Cd 0.48342 0.66404 0.87286 0.0
O283 O 0.46051 0.65561 0.86079 0.0
O284 O 0.46203 0.7194 0.8613 0.0
O285 O 0.4831 0.70104 0.85227 0.0
C286 C 0.47529 0.71622 0.85098 0.0
C287 C 0.50951 0.64989 0.8639 0.0
C288 C 0.44571 0.66341 0.85911 0.0
C289 C 0.47818 0.68472 0.90676 0.0
O290 O 0.48275 0.67029 0.89944 0.0
O291 O 0.47168 0.69722 0.89758 0.0
O292 O 0.49753 0.64185 0.87294 0.0
O293 O 0.50667 0.66619 0.85963 0.0
O294 O 0.67915 0.45057 0.13117 0.0
Cd295 Cd 0.69819 0.46935 0.12545 0.0
Cd296 Cd 0.66996 0.49181 0.12037 0.0
O297 O 0.65691 0.46933 0.12887 0.0
O298 O 0.72043 0.46359 0.13816 0.0
O299 O 0.70399 0.48718 0.14413 0.0
C300 C 0.71789 0.47774 0.14739 0.0
C301 C 0.65659 0.51873 0.12804 0.0
C302 C 0.66269 0.45389 0.13221 0.0
C303 C 0.69506 0.48474 0.0895 0.0
O304 O 0.68128 0.49224 0.09554 0.0
O305 O 0.70428 0.47476 0.09938 0.0
O306 O 0.64993 0.50833 0.11635 0.0
O307 O 0.67093 0.51375 0.13586 0.0
O308 O 0.55062 0.68534 0.13229 0.0
Cd309 Cd 0.52971 0.702 0.12667 0.0
Cd310 Cd 0.50945 0.67268 0.12948 0.0
O311 O 0.53279 0.66375 0.14057 0.0
O312 O 0.5342 0.72619 0.13599 0.0
O313 O 0.51345 0.70824 0.14656 0.0
C314 C 0.52158 0.7233 0.14718 0.0
C315 C 0.48352 0.6606 0.14148 0.0
C316 C 0.54827 0.67018 0.13917 0.0
C317 C 0.51267 0.69049 0.09351 0.0
O318 O 0.50806 0.67696 0.10241 0.0
O319 O 0.52081 0.70315 0.10097 0.0
O320 O 0.49441 0.65126 0.13233 0.0
O321 O 0.48734 0.67703 0.1441 0.0
O322 O 0.44855 0.31673 0.1286 0.0
Cd323 Cd 0.46951 0.30022 0.1226 0.0
Cd324 Cd 0.48922 0.33009 0.12307 0.0
O325 O 0.46592 0.33959 0.13369 0.0
O326 O 0.46536 0.27639 0.13297 0.0
O327 O 0.48638 0.29469 0.14219 0.0
C328 C 0.47822 0.27972 0.14372 0.0
C329 C 0.51531 0.34257 0.13419 0.0
C330 C 0.45063 0.33258 0.13382 0.0
C331 C 0.48549 0.31036 0.08826 0.0
O332 O 0.49031 0.3243 0.09635 0.0
O333 O 0.47752 0.29808 0.09655 0.0
O334 O 0.50444 0.35149 0.12462 0.0
O335 O 0.51135 0.32634 0.13776 0.0
H336 H 0.1301 0.46138 0.36704 0.0
H337 H 0.13615 0.44047 0.39078 0.0
H338 H 0.14573 0.39929 0.35245 0.0
H339 H 0.13941 0.42017 0.32844 0.0
H340 H 0.12483 0.38768 0.37877 0.0
H341 H 0.1802 0.41721 0.37525 0.0
H342 H 0.20059 0.44262 0.37342 0.0
H343 H 0.18265 0.46101 0.4241 0.0
H344 H 0.16196 0.43585 0.42613 0.0
H345 H 0.14683 0.33334 0.45354 0.0
H346 H 0.15137 0.34892 0.42535 0.0
H347 H 0.13807 0.39838 0.45055 0.0
H348 H 0.13357 0.38304 0.47854 0.0
H349 H 0.16608 0.40191 0.42779 0.0
H350 H 0.10722 0.3756 0.42811 0.0
H351 H 0.08632 0.35058 0.42991 0.0
H352 H 0.11118 0.32626 0.38497 0.0
H353 H 0.13239 0.35106 0.38306 0.0
C354 C 0.13358 0.44791 0.36358 0.0
C355 C 0.13429 0.44248 0.3458 0.0
C356 C 0.13715 0.43598 0.3772 0.0
C357 C 0.14167 0.41837 0.37339 0.0
C358 C 0.14237 0.41284 0.35568 0.0
C359 C 0.13877 0.42481 0.34199 0.0
C360 C 0.14486 0.40571 0.38808 0.0
C361 C 0.13417 0.39056 0.38927 0.0
C362 C 0.15693 0.40954 0.40188 0.0
C363 C 0.16945 0.42467 0.40079 0.0
C364 C 0.18051 0.42673 0.38596 0.0
C365 C 0.19214 0.44109 0.38489 0.0
C366 C 0.1929 0.45343 0.39863 0.0
C367 C 0.18205 0.45143 0.41347 0.0
C368 C 0.17039 0.4371 0.4146 0.0
C369 C 0.14514 0.34756 0.45309 0.0
C370 C 0.13971 0.35695 0.46821 0.0
C371 C 0.14767 0.35642 0.43699 0.0
C372 C 0.14491 0.37478 0.43585 0.0
C373 C 0.14029 0.38422 0.45113 0.0
C374 C 0.13763 0.3754 0.46711 0.0
C375 C 0.14567 0.38426 0.41868 0.0
C376 C 0.15709 0.39881 0.41704 0.0
C377 C 0.13429 0.37989 0.40447 0.0
C378 C 0.12152 0.36504 0.40559 0.0
C379 C 0.10832 0.36484 0.41871 0.0
C380 C 0.0964 0.35072 0.41973 0.0
C381 C 0.09746 0.33681 0.4076 0.0
C382 C 0.11041 0.33702 0.39438 0.0
C383 C 0.12237 0.3511 0.39332 0.0
H384 H 0.08822 0.32589 0.40841 0.0
H385 H 0.20191 0.46454 0.39777 0.0
H386 H 0.66812 0.15623 0.45365 0.0
H387 H 0.65267 0.16259 0.42572 0.0
H388 H 0.61536 0.12085 0.43699 0.0
H389 H 0.63058 0.11441 0.46452 0.0
H390 H 0.62686 0.11897 0.40343 0.0
H391 H 0.60488 0.16391 0.44398 0.0
H392 H 0.60809 0.1894 0.46412 0.0
H393 H 0.63099 0.22009 0.4221 0.0
H394 H 0.62811 0.19468 0.40177 0.0
H395 H 0.54145 0.15566 0.36827 0.0
H396 H 0.56612 0.15847 0.38875 0.0
H397 H 0.60247 0.14329 0.34743 0.0
H398 H 0.57769 0.14013 0.32678 0.0
H399 H 0.5968 0.17623 0.39218 0.0
H400 H 0.63245 0.11483 0.36605 0.0
H401 H 0.62652 0.0882 0.34808 0.0
H402 H 0.57217 0.08874 0.36471 0.0
H403 H 0.57785 0.11523 0.38292 0.0
C404 C 0.65661 0.14845 0.45013 0.0
C405 C 0.65058 0.13482 0.46131 0.0
C406 C 0.64781 0.1521 0.4342 0.0
C407 C 0.63289 0.14215 0.42926 0.0
C408 C 0.62692 0.12859 0.44044 0.0
C409 C 0.63562 0.125 0.45626 0.0
C410 C 0.62307 0.14569 0.41264 0.0
C411 C 0.62054 0.1316 0.40081 0.0
C412 C 0.61477 0.16211 0.40924 0.0
C413 C 0.6165 0.17735 0.42144 0.0
C414 C 0.61075 0.17605 0.43909 0.0
C415 C 0.61247 0.19049 0.45052 0.0
C416 C 0.6198 0.20633 0.44441 0.0
C417 C 0.62536 0.20779 0.42683 0.0
C418 C 0.62368 0.19338 0.41535 0.0
C419 C 0.55471 0.15318 0.36339 0.0
C420 C 0.55755 0.14736 0.34594 0.0
C421 C 0.56884 0.15493 0.37513 0.0
C422 C 0.58612 0.15087 0.36971 0.0
C423 C 0.5892 0.1463 0.35195 0.0
C424 C 0.57503 0.14451 0.34016 0.0
C425 C 0.60027 0.14938 0.38324 0.0
C426 C 0.60362 0.16381 0.39447 0.0
C427 C 0.60906 0.13314 0.38635 0.0
C428 C 0.60553 0.11712 0.37562 0.0
C429 C 0.61925 0.10923 0.36587 0.0
C430 C 0.61593 0.09417 0.35566 0.0
C431 C 0.59896 0.08682 0.3552 0.0
C432 C 0.58529 0.09448 0.36502 0.0
C433 C 0.58854 0.10952 0.37528 0.0
H434 H 0.59642 0.07518 0.34726 0.0
H435 H 0.62112 0.2175 0.45327 0.0
H436 H 0.8647 0.61962 0.48105 0.0
H437 H 0.86258 0.60435 0.4528 0.0
H438 H 0.8546 0.65419 0.42614 0.0
H439 H 0.85642 0.66972 0.45471 0.0
H440 H 0.8339 0.62659 0.41198 0.0
H441 H 0.89449 0.63745 0.42526 0.0
H442 H 0.92127 0.63829 0.44385 0.0
H443 H 0.91949 0.58177 0.44948 0.0
H444 H 0.89253 0.58061 0.43114 0.0
H445 H 0.8588 0.58028 0.33084 0.0
H446 H 0.8566 0.60227 0.35465 0.0
H447 H 0.86306 0.56091 0.39344 0.0
H448 H 0.86523 0.53898 0.36996 0.0
H449 H 0.886 0.58904 0.39822 0.0
H450 H 0.8235 0.57912 0.38706 0.0
H451 H 0.79669 0.5787 0.36849 0.0
H452 H 0.80275 0.63423 0.358 0.0
H453 H 0.82975 0.63492 0.37634 0.0
C454 C 0.8623 0.62738 0.46923 0.0
C455 C 0.86097 0.6459 0.47006 0.0
C456 C 0.86111 0.61862 0.45308 0.0
C457 C 0.85882 0.62817 0.43735 0.0
C458 C 0.85648 0.6466 0.43815 0.0
C459 C 0.85754 0.65543 0.45444 0.0
C460 C 0.86004 0.61875 0.42018 0.0
C461 C 0.84541 0.61864 0.40875 0.0
C462 C 0.87507 0.60837 0.41602 0.0
C463 C 0.89142 0.60896 0.4269 0.0
C464 C 0.89975 0.62521 0.43055 0.0
C465 C 0.91497 0.62574 0.44104 0.0
C466 C 0.92206 0.6101 0.44786 0.0
C467 C 0.91398 0.59388 0.44418 0.0
C468 C 0.89874 0.59328 0.43372 0.0
C469 C 0.85961 0.57586 0.34445 0.0
C470 C 0.86229 0.55786 0.34848 0.0
C471 C 0.8583 0.58844 0.35802 0.0
C472 C 0.85969 0.5832 0.37578 0.0
C473 C 0.86202 0.56523 0.3798 0.0
C474 C 0.86322 0.5527 0.36633 0.0
C475 C 0.85962 0.59631 0.39035 0.0
C476 C 0.87458 0.59719 0.40127 0.0
C477 C 0.84498 0.60745 0.39388 0.0
C478 C 0.82876 0.60702 0.38288 0.0
C479 C 0.81921 0.5912 0.38066 0.0
C480 C 0.80396 0.59092 0.3702 0.0
C481 C 0.79806 0.60642 0.36202 0.0
C482 C 0.80736 0.62223 0.36431 0.0
C483 C 0.82263 0.62257 0.37474 0.0
H484 H 0.78624 0.60618 0.35393 0.0
H485 H 0.93384 0.61054 0.45598 0.0
H486 H 0.32476 0.85461 0.45086 0.0
H487 H 0.33943 0.85076 0.42206 0.0
H488 H 0.39024 0.85041 0.44813 0.0
H489 H 0.37576 0.85493 0.47655 0.0
H490 H 0.39042 0.87363 0.42308 0.0
H491 H 0.37078 0.81284 0.42819 0.0
H492 H 0.34866 0.78907 0.43152 0.0
H493 H 0.32269 0.80621 0.384 0.0
H494 H 0.34455 0.83024 0.38051 0.0
H495 H 0.45297 0.84465 0.36443 0.0
H496 H 0.42982 0.8403 0.38642 0.0
H497 H 0.39076 0.85943 0.34958 0.0
H498 H 0.414 0.86394 0.32726 0.0
H499 H 0.38077 0.82843 0.37646 0.0
H500 H 0.40181 0.8891 0.3717 0.0
H501 H 0.42547 0.91137 0.36848 0.0
H502 H 0.44967 0.89293 0.41645 0.0
H503 H 0.4263 0.87034 0.41977 0.0
C504 C 0.33903 0.85336 0.45038 0.0
C505 C 0.34917 0.85525 0.46585 0.0
C506 C 0.3474 0.85114 0.43395 0.0
C507 C 0.36597 0.8504 0.4329 0.0
C508 C 0.37593 0.85116 0.44855 0.0
C509 C 0.36764 0.8537 0.46481 0.0
C510 C 0.3754 0.85051 0.41563 0.0
C511 C 0.38827 0.86366 0.41298 0.0
C512 C 0.37229 0.8379 0.40211 0.0
C513 C 0.35917 0.82346 0.40421 0.0
C514 C 0.36026 0.81164 0.41854 0.0
C515 C 0.34779 0.79809 0.42043 0.0
C516 C 0.33424 0.79617 0.40801 0.0
C517 C 0.33317 0.80774 0.39363 0.0
C518 C 0.3456 0.82132 0.39168 0.0
C519 C 0.43942 0.84757 0.36078 0.0
C520 C 0.43537 0.85496 0.3442 0.0
C521 C 0.42619 0.84495 0.37335 0.0
C522 C 0.40866 0.84966 0.36962 0.0
C523 C 0.40424 0.85564 0.35262 0.0
C524 C 0.41754 0.85828 0.33994 0.0
C525 C 0.39597 0.85114 0.38445 0.0
C526 C 0.38257 0.83847 0.38655 0.0
C527 C 0.39857 0.86411 0.39763 0.0
C528 C 0.41239 0.87796 0.3959 0.0
C529 C 0.41225 0.88972 0.38149 0.0
C530 C 0.4256 0.90241 0.37965 0.0
C531 C 0.43909 0.90355 0.39223 0.0
C532 C 0.43922 0.89203 0.40671 0.0
C533 C 0.42592 0.8793 0.40858 0.0
H534 H 0.44942 0.91337 0.39079 0.0
H535 H 0.3246 0.78567 0.40951 0.0
H536 H 0.14354 0.57715 0.66859 0.0
H537 H 0.15025 0.59983 0.64638 0.0
H538 H 0.14952 0.55999 0.60551 0.0
H539 H 0.14319 0.53734 0.6275 0.0
H540 H 0.17592 0.58262 0.59996 0.0
H541 H 0.1133 0.58657 0.61438 0.0
H542 H 0.08791 0.59095 0.63444 0.0
H543 H 0.10743 0.6425 0.64828 0.0
H544 H 0.13306 0.63831 0.62844 0.0
H545 H 0.14384 0.61756 0.52081 0.0
H546 H 0.15003 0.60295 0.54885 0.0
H547 H 0.15629 0.65372 0.57416 0.0
H548 H 0.15019 0.66857 0.54583 0.0
H549 H 0.13253 0.63114 0.59149 0.0
H550 H 0.19171 0.6287 0.57072 0.0
H551 H 0.21576 0.62366 0.54925 0.0
H552 H 0.20182 0.56866 0.5461 0.0
H553 H 0.17751 0.5734 0.56735 0.0
C554 C 0.14496 0.57321 0.65489 0.0
C555 C 0.14269 0.55543 0.64982 0.0
C556 C 0.14876 0.58619 0.64221 0.0
C557 C 0.15021 0.58164 0.62425 0.0
C558 C 0.1485 0.56383 0.61928 0.0
C559 C 0.14478 0.55088 0.6319 0.0
C560 C 0.15259 0.5953 0.61032 0.0
C561 C 0.16645 0.59325 0.59811 0.0
C562 C 0.14058 0.60953 0.60822 0.0
C563 C 0.1252 0.61203 0.62013 0.0
C564 C 0.11225 0.59877 0.62182 0.0
C565 C 0.0978 0.60123 0.63312 0.0
C566 C 0.09609 0.61697 0.64268 0.0
C567 C 0.1088 0.6303 0.64091 0.0
C568 C 0.12328 0.62789 0.62963 0.0
C569 C 0.1468 0.62565 0.53226 0.0
C570 C 0.14648 0.6442 0.53115 0.0
C571 C 0.15044 0.61727 0.54826 0.0
C572 C 0.15374 0.62724 0.56355 0.0
C573 C 0.15387 0.6458 0.56246 0.0
C574 C 0.15045 0.65424 0.5463 0.0
C575 C 0.15545 0.61801 0.58078 0.0
C576 C 0.14233 0.62087 0.59361 0.0
C577 C 0.16804 0.60441 0.58334 0.0
C578 C 0.18272 0.60144 0.5706 0.0
C579 C 0.19369 0.61555 0.56537 0.0
C580 C 0.20739 0.61274 0.55324 0.0
C581 C 0.21031 0.59586 0.54631 0.0
C582 C 0.19955 0.58173 0.5515 0.0
C583 C 0.18583 0.58447 0.56361 0.0
H584 H 0.22092 0.59371 0.53692 0.0
H585 H 0.0849 0.61885 0.65142 0.0
H586 H 0.32525 0.14082 0.54568 0.0
H587 H 0.34128 0.14441 0.57374 0.0
H588 H 0.39083 0.14444 0.54527 0.0
H589 H 0.37501 0.14015 0.51756 0.0
H590 H 0.39231 0.12158 0.57039 0.0
H591 H 0.3724 0.18224 0.56616 0.0
H592 H 0.3502 0.20603 0.56368 0.0
H593 H 0.32592 0.18886 0.61212 0.0
H594 H 0.34785 0.16481 0.61477 0.0
H595 H 0.45628 0.14873 0.62922 0.0
H596 H 0.43366 0.15231 0.60659 0.0
H597 H 0.39327 0.13776 0.64419 0.0
H598 H 0.41596 0.13409 0.66715 0.0
H599 H 0.38399 0.16646 0.61758 0.0
H600 H 0.40547 0.10638 0.62177 0.0
H601 H 0.42888 0.08377 0.6241 0.0
H602 H 0.45101 0.10116 0.57471 0.0
H603 H 0.42788 0.12407 0.57224 0.0
C604 C 0.33955 0.14191 0.54547 0.0
C605 C 0.34893 0.14003 0.52952 0.0
C606 C 0.34869 0.14401 0.56148 0.0
C607 C 0.3673 0.14464 0.56165 0.0
C608 C 0.37651 0.14379 0.54553 0.0
C609 C 0.36745 0.14138 0.52968 0.0
C610 C 0.37749 0.14461 0.57847 0.0
C611 C 0.39052 0.13153 0.58059 0.0
C612 C 0.37481 0.15716 0.59214 0.0
C613 C 0.36163 0.1716 0.59055 0.0
C614 C 0.36223 0.18344 0.5762 0.0
C615 C 0.34972 0.19699 0.57478 0.0
C616 C 0.33662 0.19892 0.5877 0.0
C617 C 0.33605 0.18733 0.6021 0.0
C618 C 0.34852 0.17375 0.60358 0.0
C619 C 0.44257 0.14658 0.63285 0.0
C620 C 0.43796 0.14083 0.64994 0.0
C621 C 0.42965 0.14871 0.61989 0.0
C622 C 0.41186 0.14512 0.6237 0.0
C623 C 0.40696 0.14062 0.64104 0.0
C624 C 0.41995 0.13846 0.6541 0.0
C625 C 0.39905 0.14388 0.60897 0.0
C626 C 0.38554 0.15652 0.60735 0.0
C627 C 0.4013 0.13101 0.5956 0.0
C628 C 0.41502 0.11702 0.59689 0.0
C629 C 0.4154 0.10546 0.61147 0.0
C630 C 0.42861 0.09258 0.61281 0.0
C631 C 0.44144 0.09105 0.59958 0.0
C632 C 0.44106 0.10236 0.58496 0.0
C633 C 0.4279 0.11528 0.58357 0.0
H634 H 0.45167 0.08108 0.60064 0.0
H635 H 0.32695 0.20942 0.58658 0.0
H636 H 0.8559 0.45531 0.6276 0.0
H637 H 0.84961 0.43238 0.606 0.0
H638 H 0.85451 0.39241 0.64646 0.0
H639 H 0.86109 0.41548 0.66838 0.0
H640 H 0.87268 0.38347 0.61696 0.0
H641 H 0.81403 0.40129 0.62937 0.0
H642 H 0.78933 0.42189 0.63478 0.0
H643 H 0.79446 0.44235 0.58202 0.0
H644 H 0.81937 0.42206 0.57636 0.0
H645 H 0.85221 0.3268 0.54297 0.0
H646 H 0.8472 0.34017 0.57224 0.0
H647 H 0.84984 0.39219 0.54886 0.0
H648 H 0.85508 0.37903 0.51987 0.0
H649 H 0.82279 0.38853 0.57459 0.0
H650 H 0.88574 0.37551 0.56599 0.0
H651 H 0.91063 0.35511 0.56053 0.0
H652 H 0.89658 0.32521 0.60679 0.0
H653 H 0.87143 0.34531 0.61236 0.0
C654 C 0.85554 0.44168 0.63203 0.0
C655 C 0.85901 0.43726 0.64976 0.0
C656 C 0.8518 0.42856 0.61964 0.0
C657 C 0.8513 0.41068 0.62465 0.0
C658 C 0.8547 0.40614 0.64234 0.0
C659 C 0.85843 0.41934 0.65484 0.0
C660 C 0.84825 0.39693 0.61096 0.0
C661 C 0.86149 0.38424 0.608 0.0
C662 C 0.83371 0.39796 0.5992 0.0
C663 C 0.81863 0.41016 0.60247 0.0
C664 C 0.80997 0.41025 0.61895 0.0
C665 C 0.79591 0.42186 0.62206 0.0
C666 C 0.79033 0.43343 0.60876 0.0
C667 C 0.79878 0.43337 0.59231 0.0
C668 C 0.81285 0.42179 0.58913 0.0
C669 C 0.85139 0.34107 0.54409 0.0
C670 C 0.85415 0.35191 0.52921 0.0
C671 C 0.84858 0.34867 0.56077 0.0
C672 C 0.84823 0.36716 0.56268 0.0
C673 C 0.85002 0.3779 0.54766 0.0
C674 C 0.8531 0.37036 0.53112 0.0
C675 C 0.84752 0.37566 0.5803 0.0
C676 C 0.83361 0.38739 0.58394 0.0
C677 C 0.86139 0.3737 0.59271 0.0
C678 C 0.87659 0.36175 0.58945 0.0
C679 C 0.88788 0.3645 0.57491 0.0
C680 C 0.90205 0.35301 0.57181 0.0
C681 C 0.90515 0.33883 0.58327 0.0
C682 C 0.89413 0.33616 0.59789 0.0
C683 C 0.87992 0.3476 0.60103 0.0
H684 H 0.91611 0.32994 0.58085 0.0
H685 H 0.77945 0.44241 0.61119 0.0
H686 H 0.58131 0.85429 0.67322 0.0
H687 H 0.60613 0.84851 0.6531 0.0
H688 H 0.56956 0.84308 0.60963 0.0
H689 H 0.54488 0.84836 0.62952 0.0
H690 H 0.59489 0.8195 0.60641 0.0
H691 H 0.59168 0.88274 0.61925 0.0
H692 H 0.59247 0.90879 0.63892 0.0
H693 H 0.6447 0.89452 0.65614 0.0
H694 H 0.64411 0.86827 0.6367 0.0
H695 H 0.62573 0.85935 0.5291 0.0
H696 H 0.61215 0.85145 0.5573 0.0
H697 H 0.66379 0.8434 0.58016 0.0
H698 H 0.6776 0.85089 0.55153 0.0
H699 H 0.63847 0.86805 0.59882 0.0
H700 H 0.64307 0.8089 0.5781 0.0
H701 H 0.6411 0.78468 0.55636 0.0
H702 H 0.58501 0.79267 0.55211 0.0
H703 H 0.58667 0.81714 0.57362 0.0
C704 C 0.57857 0.85163 0.65941 0.0
C705 C 0.5611 0.85197 0.65297 0.0
C706 C 0.59277 0.84837 0.64792 0.0
C707 C 0.58974 0.84556 0.62979 0.0
C708 C 0.57227 0.84516 0.62355 0.0
C709 C 0.55813 0.84831 0.63497 0.0
C710 C 0.60451 0.84422 0.61686 0.0
C711 C 0.6045 0.83006 0.60483 0.0
C712 C 0.61742 0.85771 0.61507 0.0
C713 C 0.61776 0.87344 0.62674 0.0
C714 C 0.60327 0.8851 0.62735 0.0
C715 C 0.60369 0.8999 0.63842 0.0
C716 C 0.6186 0.90327 0.64882 0.0
C717 C 0.63314 0.89187 0.64812 0.0
C718 C 0.63277 0.87703 0.63708 0.0
C719 C 0.63422 0.85569 0.54005 0.0
C720 C 0.6527 0.85576 0.53817 0.0
C721 C 0.62644 0.85111 0.55612 0.0
C722 C 0.63698 0.84679 0.57075 0.0
C723 C 0.65547 0.84662 0.56895 0.0
C724 C 0.66331 0.85083 0.55264 0.0
C725 C 0.62826 0.84376 0.58802 0.0
C726 C 0.62934 0.85713 0.60082 0.0
C727 C 0.61615 0.8297 0.59036 0.0
C728 C 0.61502 0.81492 0.57746 0.0
C729 C 0.63033 0.80559 0.57244 0.0
C730 C 0.62926 0.79179 0.56017 0.0
C731 C 0.61294 0.78715 0.55285 0.0
C732 C 0.59764 0.79628 0.55781 0.0
C733 C 0.59864 0.81009 0.57007 0.0
H734 H 0.61214 0.77647 0.54335 0.0
H735 H 0.6189 0.91475 0.65738 0.0
H736 H 0.36286 0.15155 0.45053 0.0
H737 H 0.38289 0.1585 0.42642 0.0
H738 H 0.34247 0.14488 0.38851 0.0
H739 H 0.32219 0.13751 0.41285 0.0
H740 H 0.3729 0.12931 0.38025 0.0
H741 H 0.35633 0.18807 0.39236 0.0
H742 H 0.3491 0.2144 0.4102 0.0
H743 H 0.40226 0.21588 0.43014 0.0
H744 H 0.40977 0.1894 0.41264 0.0
H745 H 0.44649 0.14859 0.32234 0.0
H746 H 0.41677 0.1538 0.33465 0.0
H747 H 0.43897 0.15608 0.38715 0.0
H748 H 0.46841 0.15054 0.37506 0.0
H749 H 0.41193 0.18214 0.38011 0.0
H750 H 0.42411 0.11839 0.37367 0.0
H751 H 0.43107 0.09204 0.35568 0.0
H752 H 0.3849 0.10123 0.32391 0.0
H753 H 0.3778 0.12777 0.3416 0.0
C754 C 0.35806 0.15021 0.4371 0.0
C755 C 0.3409 0.1439 0.43365 0.0
C756 C 0.36953 0.15435 0.42327 0.0
C757 C 0.36413 0.15249 0.40561 0.0
C758 C 0.34687 0.14655 0.40204 0.0
C759 C 0.3353 0.14238 0.41595 0.0
C760 C 0.37725 0.15529 0.39122 0.0
C761 C 0.38107 0.14111 0.37984 0.0
C762 C 0.38797 0.17067 0.39064 0.0
C763 C 0.3836 0.18669 0.40118 0.0
C764 C 0.36646 0.19394 0.40062 0.0
C765 C 0.36231 0.20891 0.41067 0.0
C766 C 0.37521 0.2168 0.4213 0.0
C767 C 0.39229 0.20976 0.42188 0.0
C768 C 0.39651 0.19479 0.41186 0.0
C769 C 0.44501 0.15057 0.33645 0.0
C770 C 0.45968 0.14907 0.34779 0.0
C771 C 0.42807 0.1535 0.34345 0.0
C772 C 0.42573 0.15527 0.3618 0.0
C773 C 0.44053 0.15482 0.37295 0.0
C774 C 0.45732 0.15156 0.36604 0.0
C775 C 0.40789 0.1559 0.36989 0.0
C776 C 0.40327 0.17069 0.38009 0.0
C777 C 0.39635 0.14118 0.36927 0.0
C778 C 0.40056 0.12517 0.35878 0.0
C779 C 0.41553 0.11486 0.36276 0.0
C780 C 0.41949 0.09988 0.35264 0.0
C781 C 0.40847 0.095 0.33862 0.0
C782 C 0.39344 0.10505 0.33474 0.0
C783 C 0.38944 0.12005 0.34481 0.0
H784 H 0.41156 0.08342 0.33078 0.0
H785 H 0.37196 0.22838 0.42907 0.0
H786 H 0.84694 0.37043 0.44875 0.0
H787 H 0.84004 0.39013 0.42441 0.0
H788 H 0.84867 0.3477 0.3872 0.0
H789 H 0.85612 0.32776 0.41175 0.0
H790 H 0.86546 0.37603 0.37662 0.0
H791 H 0.80653 0.36549 0.39332 0.0
H792 H 0.78087 0.36127 0.41301 0.0
H793 H 0.78546 0.41496 0.43101 0.0
H794 H 0.81132 0.41945 0.41163 0.0
H795 H 0.84793 0.4501 0.31796 0.0
H796 H 0.84048 0.42135 0.33152 0.0
H797 H 0.84792 0.44398 0.38336 0.0
H798 H 0.85589 0.4723 0.36997 0.0
H799 H 0.81677 0.42004 0.37882 0.0
H800 H 0.88117 0.42511 0.36793 0.0
H801 H 0.90665 0.42893 0.34785 0.0
H802 H 0.88974 0.38401 0.31744 0.0
H803 H 0.86401 0.38009 0.33724 0.0
C804 C 0.84718 0.36512 0.43544 0.0
C805 C 0.85216 0.34749 0.43223 0.0
C806 C 0.84304 0.37642 0.42148 0.0
C807 C 0.84351 0.37037 0.40394 0.0
C808 C 0.84809 0.35264 0.40064 0.0
C809 C 0.85233 0.34126 0.41468 0.0
C810 C 0.84088 0.38321 0.38926 0.0
C811 C 0.85448 0.38528 0.37676 0.0
C812 C 0.82656 0.39533 0.38932 0.0
C813 C 0.81093 0.39279 0.40101 0.0
C814 C 0.80214 0.37638 0.40154 0.0
C815 C 0.78754 0.37394 0.41265 0.0
C816 C 0.78154 0.38783 0.42326 0.0
C817 C 0.79011 0.40421 0.42276 0.0
C818 C 0.80473 0.40672 0.41169 0.0
C819 C 0.84762 0.44894 0.33224 0.0
C820 C 0.85255 0.4633 0.34297 0.0
C821 C 0.8434 0.43258 0.33994 0.0
C822 C 0.84365 0.43062 0.35842 0.0
C823 C 0.84756 0.44527 0.36909 0.0
C824 C 0.85219 0.4614 0.36143 0.0
C825 C 0.84168 0.41312 0.36694 0.0
C826 C 0.82728 0.41028 0.37829 0.0
C827 C 0.85509 0.40015 0.36567 0.0
C828 C 0.87058 0.40246 0.35388 0.0
C829 C 0.88281 0.41616 0.35686 0.0
C830 C 0.89731 0.41832 0.34556 0.0
C831 C 0.89978 0.40676 0.33134 0.0
C832 C 0.88779 0.39298 0.32843 0.0
C833 C 0.87325 0.39078 0.33968 0.0
H834 H 0.91102 0.40845 0.32261 0.0
H835 H 0.77024 0.38591 0.43185 0.0
H836 H 0.54629 0.85754 0.3289 0.0
H837 H 0.57442 0.85399 0.34487 0.0
H838 H 0.54731 0.86299 0.39433 0.0
H839 H 0.51956 0.86695 0.37857 0.0
H840 H 0.57506 0.8836 0.39196 0.0
H841 H 0.56289 0.82153 0.38116 0.0
H842 H 0.55717 0.7954 0.36248 0.0
H843 H 0.60698 0.80296 0.33615 0.0
H844 H 0.6129 0.82929 0.35454 0.0
H845 H 0.62824 0.85644 0.46085 0.0
H846 H 0.60575 0.85446 0.43791 0.0
H847 H 0.6461 0.85703 0.39765 0.0
H848 H 0.66896 0.8591 0.42066 0.0
H849 H 0.61564 0.83199 0.39107 0.0
H850 H 0.62844 0.89293 0.40428 0.0
H851 H 0.63389 0.91821 0.42417 0.0
H852 H 0.58203 0.91209 0.44663 0.0
H853 H 0.57638 0.88659 0.42706 0.0
C854 C 0.54637 0.85853 0.3432 0.0
C855 C 0.53078 0.86269 0.35248 0.0
C856 C 0.56241 0.85647 0.3523 0.0
C857 C 0.56299 0.85829 0.37081 0.0
C858 C 0.54725 0.8617 0.38005 0.0
C859 C 0.53137 0.86393 0.37101 0.0
C860 C 0.57993 0.85782 0.38076 0.0
C861 C 0.58385 0.87225 0.39177 0.0
C862 C 0.59178 0.84331 0.3801 0.0
C863 C 0.58823 0.8275 0.36907 0.0
C864 C 0.57255 0.81771 0.37128 0.0
C865 C 0.56929 0.80285 0.36077 0.0
C866 C 0.58168 0.79756 0.34809 0.0
C867 C 0.59738 0.8071 0.34594 0.0
C868 C 0.6007 0.82198 0.35641 0.0
C869 C 0.63246 0.85634 0.44715 0.0
C870 C 0.65042 0.85818 0.44261 0.0
C871 C 0.61955 0.85516 0.43405 0.0
C872 C 0.62428 0.85578 0.41613 0.0
C873 C 0.64223 0.85653 0.41144 0.0
C874 C 0.65524 0.85777 0.4246 0.0
C875 C 0.6102 0.85745 0.40263 0.0
C876 C 0.60692 0.84339 0.39096 0.0
C877 C 0.59879 0.87226 0.40268 0.0
C878 C 0.60204 0.88778 0.41428 0.0
C879 C 0.61824 0.8969 0.41354 0.0
C880 C 0.62137 0.91128 0.42475 0.0
C881 C 0.60833 0.91674 0.43668 0.0
C882 C 0.59212 0.90785 0.43739 0.0
C883 C 0.58894 0.89345 0.42623 0.0
H884 H 0.61077 0.92787 0.44535 0.0
H885 H 0.57913 0.78605 0.33997 0.0
H886 H 0.1278 0.66784 0.41612 0.0
H887 H 0.13 0.64576 0.39247 0.0
H888 H 0.1644 0.61409 0.42516 0.0
H889 H 0.16184 0.63577 0.44896 0.0
H890 H 0.1545 0.6271 0.37231 0.0
H891 H 0.149 0.57258 0.42535 0.0
H892 H 0.13896 0.56908 0.45624 0.0
H893 H 0.10235 0.61201 0.44953 0.0
H894 H 0.11198 0.61557 0.41854 0.0
H895 H 0.15653 0.53981 0.33198 0.0
H896 H 0.1625 0.56703 0.34879 0.0
H897 H 0.10872 0.56674 0.36811 0.0
H898 H 0.10295 0.53953 0.35196 0.0
H899 H 0.13002 0.57026 0.39435 0.0
H900 H 0.12427 0.59724 0.33696 0.0
H901 H 0.13138 0.60187 0.30544 0.0
H902 H 0.18483 0.61544 0.31912 0.0
H903 H 0.17809 0.61067 0.35072 0.0
C904 C 0.13622 0.65641 0.41806 0.0
C905 C 0.14436 0.65333 0.43449 0.0
C906 C 0.13751 0.64383 0.40451 0.0
C907 C 0.14707 0.62813 0.40721 0.0
C908 C 0.15671 0.62598 0.42293 0.0
C909 C 0.15521 0.63836 0.43652 0.0
C910 C 0.14474 0.61291 0.39503 0.0
C911 C 0.14925 0.61462 0.37708 0.0
C912 C 0.13755 0.59676 0.40121 0.0
C913 C 0.13137 0.59445 0.41971 0.0
C914 C 0.13876 0.58121 0.43046 0.0
C915 C 0.13314 0.57922 0.44798 0.0
C916 C 0.12007 0.59035 0.45486 0.0
C917 C 0.11252 0.60343 0.4442 0.0
C918 C 0.11805 0.60544 0.42667 0.0
C919 C 0.14598 0.54572 0.33968 0.0
C920 C 0.12935 0.53746 0.34085 0.0
C921 C 0.14937 0.56129 0.34922 0.0
C922 C 0.13606 0.56892 0.35978 0.0
C923 C 0.11926 0.56103 0.36023 0.0
C924 C 0.11597 0.54545 0.35097 0.0
C925 C 0.13968 0.58431 0.37145 0.0
C926 C 0.13545 0.58263 0.38946 0.0
C927 C 0.14667 0.60054 0.36515 0.0
C928 C 0.15073 0.60341 0.34618 0.0
C929 C 0.13758 0.60107 0.33323 0.0
C930 C 0.14153 0.60375 0.31536 0.0
C931 C 0.15856 0.60889 0.31028 0.0
C932 C 0.17166 0.61142 0.32307 0.0
C933 C 0.16777 0.60875 0.34096 0.0
H934 H 0.16159 0.61097 0.29643 0.0
H935 H 0.11578 0.58882 0.46844 0.0
H936 H 0.36837 0.84917 0.54476 0.0
H937 H 0.38908 0.84263 0.56834 0.0
H938 H 0.34769 0.84957 0.60707 0.0
H939 H 0.32671 0.85664 0.5833 0.0
H940 H 0.37623 0.86696 0.61684 0.0
H941 H 0.36583 0.80803 0.5994 0.0
H942 H 0.36151 0.78281 0.5792 0.0
H943 H 0.41469 0.78863 0.56003 0.0
H944 H 0.41927 0.81407 0.57992 0.0
H945 H 0.45051 0.84935 0.6745 0.0
H946 H 0.42152 0.8431 0.66103 0.0
H947 H 0.44488 0.84715 0.60911 0.0
H948 H 0.47357 0.85368 0.62236 0.0
H949 H 0.42031 0.81845 0.61308 0.0
H950 H 0.42616 0.88209 0.62545 0.0
H951 H 0.43021 0.90733 0.64574 0.0
H952 H 0.38447 0.89117 0.6754 0.0
H953 H 0.38031 0.86569 0.65539 0.0
C954 C 0.36351 0.84913 0.55825 0.0
C955 C 0.34584 0.85349 0.56211 0.0
C956 C 0.3754 0.84521 0.57176 0.0
C957 C 0.36992 0.84528 0.58951 0.0
C958 C 0.35219 0.84931 0.59346 0.0
C959 C 0.34022 0.85332 0.57987 0.0
C960 C 0.38326 0.84262 0.60371 0.0
C961 C 0.38553 0.85604 0.61635 0.0
C962 C 0.39547 0.8284 0.60313 0.0
C963 C 0.39287 0.81302 0.59116 0.0
C964 C 0.37658 0.80401 0.59081 0.0
C965 C 0.37409 0.78966 0.57942 0.0
C966 C 0.38781 0.78412 0.56833 0.0
C967 C 0.40408 0.79292 0.56864 0.0
C968 C 0.40664 0.80729 0.58 0.0
C969 C 0.44946 0.84861 0.66023 0.0
C970 C 0.46422 0.85211 0.64945 0.0
C971 C 0.43293 0.84507 0.65258 0.0
C972 C 0.4311 0.8447 0.63409 0.0
C973 C 0.44604 0.8473 0.6234 0.0
C974 C 0.4624 0.85113 0.63099 0.0
C975 C 0.41356 0.84313 0.62551 0.0
C976 C 0.41057 0.82896 0.61393 0.0
C977 C 0.4006 0.85653 0.62718 0.0
C978 C 0.40307 0.87188 0.6391 0.0
C979 C 0.41706 0.88384 0.6364 0.0
C980 C 0.41936 0.89821 0.64782 0.0
C981 C 0.40765 0.90082 0.6619 0.0
C982 C 0.39357 0.88911 0.66453 0.0
C983 C 0.39123 0.87471 0.65315 0.0
H984 H 0.40945 0.91195 0.67073 0.0
H985 H 0.38585 0.77302 0.55951 0.0
H986 H 0.11935 0.46015 0.63211 0.0
H987 H 0.12504 0.4307 0.62059 0.0
H988 H 0.16498 0.42241 0.66046 0.0
H989 H 0.15925 0.45224 0.67231 0.0
H990 H 0.17537 0.41182 0.62591 0.0
H991 H 0.12902 0.40032 0.66605 0.0
H992 H 0.10073 0.40537 0.68151 0.0
H993 H 0.07255 0.39913 0.63261 0.0
H994 H 0.10068 0.39431 0.61679 0.0
H995 H 0.13599 0.32343 0.58355 0.0
H996 H 0.14178 0.3419 0.60959 0.0
H997 H 0.15883 0.38448 0.57556 0.0
H998 H 0.15337 0.3662 0.54971 0.0
H999 H 0.12468 0.37093 0.61738 0.0
H1000 H 0.18691 0.4116 0.59476 0.0
H1001 H 0.2156 0.40588 0.58034 0.0
H1002 H 0.21343 0.35156 0.59687 0.0
H1003 H 0.18485 0.35698 0.61163 0.0
C1004 C 0.12937 0.45215 0.6385 0.0
C1005 C 0.13883 0.45855 0.65317 0.0
C1006 C 0.13254 0.43525 0.63193 0.0
C1007 C 0.14524 0.42429 0.63984 0.0
C1008 C 0.15503 0.43066 0.65428 0.0
C1009 C 0.15174 0.44766 0.66101 0.0
C1010 C 0.14819 0.40639 0.63241 0.0
C1011 C 0.16443 0.40269 0.62423 0.0
C1012 C 0.13405 0.39423 0.63079 0.0
C1013 C 0.11701 0.39697 0.64023 0.0
C1014 C 0.11681 0.40011 0.65857 0.0
C1015 C 0.10079 0.40293 0.6674 0.0
C1016 C 0.08486 0.40257 0.65805 0.0
C1017 C 0.08491 0.39938 0.63984 0.0
C1018 C 0.10089 0.39657 0.63094 0.0
C1019 C 0.14136 0.33659 0.58166 0.0
C1020 C 0.14406 0.3434 0.56454 0.0
C1021 C 0.14465 0.34713 0.59655 0.0
C1022 C 0.15089 0.36454 0.59457 0.0
C1023 C 0.15437 0.37099 0.57751 0.0
C1024 C 0.15105 0.36055 0.56268 0.0
C1025 C 0.15153 0.3769 0.60983 0.0
C1026 C 0.1359 0.37964 0.61948 0.0
C1027 C 0.16633 0.38799 0.61298 0.0
C1028 C 0.18367 0.3847 0.60429 0.0
C1029 C 0.1926 0.39846 0.59546 0.0
C1030 C 0.20884 0.39526 0.58718 0.0
C1031 C 0.21632 0.37836 0.58767 0.0
C1032 C 0.2076 0.36463 0.59646 0.0
C1033 C 0.19136 0.36776 0.60477 0.0
H1034 H 0.22889 0.37591 0.58124 0.0
H1035 H 0.07247 0.40476 0.66491 0.0
H1036 H 0.52549 0.12512 0.62135 0.0
H1037 H 0.5543 0.12777 0.60733 0.0
H1038 H 0.57632 0.14858 0.65565 0.0
H1039 H 0.54711 0.14605 0.66998 0.0
H1040 H 0.58895 0.16566 0.62352 0.0
H1041 H 0.58489 0.10842 0.64854 0.0
H1042 H 0.57053 0.08019 0.65626 0.0
H1043 H 0.56656 0.06682 0.60119 0.0
H1044 H 0.58056 0.09518 0.59311 0.0
H1045 H 0.67186 0.14287 0.57701 0.0
H1046 H 0.64985 0.14559 0.60086 0.0
H1047 H 0.60898 0.1281 0.56514 0.0
H1048 H 0.63057 0.12558 0.54137 0.0
H1049 H 0.61114 0.10922 0.59826 0.0
H1050 H 0.61067 0.16946 0.57434 0.0
H1051 H 0.62471 0.19806 0.56722 0.0
H1052 H 0.63851 0.20519 0.62186 0.0
H1053 H 0.62475 0.17648 0.62925 0.0
C1054 C 0.53636 0.13042 0.62904 0.0
C1055 C 0.53407 0.13516 0.64686 0.0
C1056 C 0.55284 0.13193 0.62097 0.0
C1057 C 0.56748 0.13808 0.63054 0.0
C1058 C 0.56516 0.14373 0.64809 0.0
C1059 C 0.54851 0.14225 0.65624 0.0
C1060 C 0.58518 0.13743 0.62213 0.0
C1061 C 0.5941 0.15328 0.61837 0.0
C1062 C 0.59189 0.12126 0.61548 0.0
C1063 C 0.58373 0.10399 0.62022 0.0
C1064 C 0.58086 0.09951 0.63806 0.0
C1065 C 0.57279 0.08347 0.64251 0.0
C1066 C 0.56763 0.0717 0.62923 0.0
C1067 C 0.57057 0.07594 0.61147 0.0
C1068 C 0.5786 0.092 0.60695 0.0
C1069 C 0.65815 0.13973 0.57423 0.0
C1070 C 0.65298 0.13396 0.55729 0.0
C1071 C 0.64563 0.14132 0.58785 0.0
C1072 C 0.62784 0.13697 0.58472 0.0
C1073 C 0.62267 0.13144 0.56781 0.0
C1074 C 0.63505 0.13007 0.55421 0.0
C1075 C 0.61443 0.1375 0.59898 0.0
C1076 C 0.60632 0.12154 0.60385 0.0
C1077 C 0.60867 0.15352 0.60678 0.0
C1078 C 0.61692 0.17073 0.6023 0.0
C1079 C 0.61687 0.17704 0.5848 0.0
C1080 C 0.62473 0.19329 0.58072 0.0
C1081 C 0.63256 0.20341 0.59407 0.0
C1082 C 0.63249 0.19732 0.61153 0.0
C1083 C 0.62465 0.18107 0.61567 0.0
H1084 H 0.63864 0.21599 0.59089 0.0
H1085 H 0.56137 0.05928 0.63269 0.0
H1086 H 0.83688 0.53914 0.66677 0.0
H1087 H 0.82809 0.56666 0.65171 0.0
H1088 H 0.87007 0.55916 0.61372 0.0
H1089 H 0.87858 0.53183 0.62826 0.0
H1090 H 0.84489 0.59764 0.64466 0.0
H1091 H 0.85768 0.56945 0.57372 0.0
H1092 H 0.85418 0.54113 0.5579 0.0
H1093 H 0.81422 0.52499 0.59496 0.0
H1094 H 0.81727 0.55331 0.61085 0.0
H1095 H 0.87298 0.66178 0.58371 0.0
H1096 H 0.86587 0.63871 0.60517 0.0
H1097 H 0.82126 0.6227 0.57323 0.0
H1098 H 0.82928 0.64492 0.55112 0.0
H1099 H 0.83769 0.59586 0.57947 0.0
H1100 H 0.81783 0.64033 0.61809 0.0
H1101 H 0.81769 0.66854 0.63446 0.0
H1102 H 0.86431 0.65269 0.66276 0.0
H1103 H 0.8649 0.62448 0.64639 0.0
C1104 C 0.84416 0.5434 0.65518 0.0
C1105 C 0.85829 0.53321 0.64859 0.0
C1106 C 0.83917 0.55911 0.64664 0.0
C1107 C 0.84822 0.56477 0.6314 0.0
C1108 C 0.86261 0.55484 0.6252 0.0
C1109 C 0.86751 0.53921 0.63359 0.0
C1110 C 0.84293 0.58098 0.62166 0.0
C1111 C 0.8431 0.59735 0.63043 0.0
C1112 C 0.83985 0.58049 0.60322 0.0
C1113 C 0.83777 0.56351 0.59353 0.0
C1114 C 0.84805 0.55992 0.57843 0.0
C1115 C 0.84617 0.54385 0.56947 0.0
C1116 C 0.83401 0.53126 0.57544 0.0
C1117 C 0.82367 0.53473 0.59037 0.0
C1118 C 0.82548 0.55079 0.59937 0.0
C1119 C 0.86141 0.65359 0.58153 0.0
C1120 C 0.85174 0.65499 0.56576 0.0
C1121 C 0.85723 0.64046 0.59389 0.0
C1122 C 0.84291 0.62889 0.59098 0.0
C1123 C 0.83245 0.63128 0.57578 0.0
C1124 C 0.83698 0.64402 0.56318 0.0
C1125 C 0.84055 0.61286 0.60225 0.0
C1126 C 0.83898 0.5964 0.59375 0.0
C1127 C 0.8417 0.61334 0.62098 0.0
C1128 C 0.84143 0.63029 0.63093 0.0
C1129 C 0.82812 0.64289 0.62772 0.0
C1130 C 0.82795 0.65888 0.63702 0.0
C1131 C 0.84099 0.66241 0.64963 0.0
C1132 C 0.85421 0.64993 0.65299 0.0
C1133 C 0.85444 0.63392 0.64373 0.0
H1134 H 0.84084 0.6748 0.65681 0.0
H1135 H 0.83258 0.51882 0.56849 0.0
H1136 H 0.37478 0.4676 0.12179 0.0
H1137 H 0.38584 0.43764 0.12558 0.0
H1138 H 0.3421 0.42546 0.16018 0.0
H1139 H 0.33069 0.45575 0.15634 0.0
H1140 H 0.37619 0.41327 0.1724 0.0
H1141 H 0.33929 0.40837 0.12199 0.0
H1142 H 0.32661 0.41729 0.0933 0.0
H1143 H 0.37765 0.41235 0.06881 0.0
H1144 H 0.39072 0.40367 0.0974 0.0
H1145 H 0.41531 0.3258 0.12845 0.0
H1146 H 0.39048 0.34601 0.13382 0.0
H1147 H 0.4265 0.38431 0.15605 0.0
H1148 H 0.45117 0.3643 0.15088 0.0
H1149 H 0.38671 0.37738 0.11842 0.0
H1150 H 0.40679 0.41015 0.18564 0.0
H1151 H 0.41879 0.40085 0.21449 0.0
H1152 H 0.39913 0.3482 0.20613 0.0
H1153 H 0.38676 0.35722 0.17734 0.0
C1154 C 0.36748 0.45865 0.13029 0.0
C1155 C 0.3518 0.46406 0.13873 0.0
C1156 C 0.3738 0.44148 0.13237 0.0
C1157 C 0.36466 0.42929 0.14296 0.0
C1158 C 0.34927 0.43469 0.15186 0.0
C1159 C 0.34279 0.45195 0.14965 0.0
C1160 C 0.37153 0.411 0.14442 0.0
C1161 C 0.37831 0.40524 0.16069 0.0
C1162 C 0.37379 0.40035 0.1292 0.0
C1163 C 0.36599 0.4054 0.11188 0.0
C1164 C 0.34784 0.40928 0.11051 0.0
C1165 C 0.34058 0.41429 0.09426 0.0
C1166 C 0.35132 0.4154 0.07925 0.0
C1167 C 0.36934 0.41147 0.08045 0.0
C1168 C 0.37668 0.40647 0.09667 0.0
C1169 C 0.41786 0.33838 0.13482 0.0
C1170 C 0.43524 0.34351 0.1391 0.0
C1171 C 0.40367 0.34991 0.13787 0.0
C1172 C 0.4066 0.36662 0.14547 0.0
C1173 C 0.42383 0.37138 0.15047 0.0
C1174 C 0.43798 0.35996 0.14734 0.0
C1175 C 0.3923 0.38007 0.14623 0.0
C1176 C 0.38417 0.38502 0.1303 0.0
C1177 C 0.38866 0.38982 0.16182 0.0
C1178 C 0.39589 0.38437 0.17927 0.0
C1179 C 0.4049 0.39662 0.19 0.0
C1180 C 0.4118 0.39138 0.20634 0.0
C1181 C 0.40975 0.37394 0.21213 0.0
C1182 C 0.40075 0.3617 0.2016 0.0
C1183 C 0.39382 0.36686 0.18526 0.0
H1184 H 0.41512 0.36992 0.22478 0.0
H1185 H 0.34567 0.41929 0.06668 0.0
H1186 H 0.44605 0.63033 0.84501 0.0
H1187 H 0.42097 0.61177 0.8376 0.0
H1188 H 0.38519 0.65422 0.85097 0.0
H1189 H 0.41053 0.67299 0.85885 0.0
H1190 H 0.3753 0.62484 0.86675 0.0
H1191 H 0.38777 0.6391 0.80774 0.0
H1192 H 0.40552 0.64506 0.78102 0.0
H1193 H 0.42364 0.59122 0.78065 0.0
H1194 H 0.40623 0.58497 0.80753 0.0
H1195 H 0.31764 0.54999 0.85225 0.0
H1196 H 0.32919 0.5795 0.84452 0.0
H1197 H 0.38223 0.55843 0.84367 0.0
H1198 H 0.3709 0.52929 0.85178 0.0
H1199 H 0.3742 0.58371 0.81559 0.0
H1200 H 0.36876 0.57506 0.88036 0.0
H1201 H 0.35093 0.56949 0.90716 0.0
H1202 H 0.31825 0.61437 0.89507 0.0
H1203 H 0.33578 0.62005 0.86806 0.0
C1204 C 0.43289 0.63589 0.84617 0.0
C1205 C 0.43032 0.65313 0.85265 0.0
C1206 C 0.41851 0.62528 0.84172 0.0
C1207 C 0.40115 0.63165 0.84345 0.0
C1208 C 0.39847 0.64907 0.8494 0.0
C1209 C 0.41296 0.65977 0.85388 0.0
C1210 C 0.38612 0.61921 0.84093 0.0
C1211 C 0.37465 0.61626 0.85526 0.0
C1212 C 0.38516 0.60798 0.82595 0.0
C1213 C 0.39567 0.61157 0.8097 0.0
C1214 C 0.39561 0.62854 0.80203 0.0
C1215 C 0.40561 0.63197 0.78684 0.0
C1216 C 0.4157 0.61853 0.77915 0.0
C1217 C 0.41579 0.60162 0.78661 0.0
C1218 C 0.40582 0.59811 0.80181 0.0
C1219 C 0.3317 0.55165 0.85004 0.0
C1220 C 0.34343 0.53747 0.85272 0.0
C1221 C 0.33826 0.56846 0.84564 0.0
C1222 C 0.35655 0.57108 0.84354 0.0
C1223 C 0.36807 0.55664 0.84513 0.0
C1224 C 0.3616 0.54004 0.84987 0.0
C1225 C 0.36426 0.58899 0.84172 0.0
C1226 C 0.37435 0.59287 0.82664 0.0
C1227 C 0.36382 0.6012 0.85587 0.0
C1228 C 0.35339 0.59783 0.87212 0.0
C1229 C 0.35767 0.58364 0.88336 0.0
C1230 C 0.34765 0.58048 0.89859 0.0
C1231 C 0.33342 0.59153 0.90278 0.0
C1232 C 0.32923 0.6058 0.89178 0.0
C1233 C 0.33921 0.60899 0.87651 0.0
H1234 H 0.32568 0.58907 0.91458 0.0
H1235 H 0.42343 0.62122 0.76739 0.0
H1236 H 0.4781 0.37824 0.85902 0.0
H1237 H 0.44947 0.39283 0.85745 0.0
H1238 H 0.4238 0.34238 0.85009 0.0
H1239 H 0.45278 0.32753 0.85136 0.0
H1240 H 0.40836 0.36998 0.82981 0.0
H1241 H 0.42302 0.35858 0.8898 0.0
H1242 H 0.44211 0.3574 0.91621 0.0
H1243 H 0.44746 0.41397 0.91521 0.0
H1244 H 0.42863 0.41547 0.88862 0.0
H1245 H 0.32907 0.41951 0.86015 0.0
H1246 H 0.35141 0.39606 0.85677 0.0
H1247 H 0.39265 0.43547 0.85586 0.0
H1248 H 0.37072 0.4588 0.85894 0.0
H1249 H 0.39587 0.4074 0.88232 0.0
H1250 H 0.38397 0.4173 0.81958 0.0
H1251 H 0.36461 0.4178 0.79334 0.0
H1252 H 0.35272 0.36271 0.80072 0.0
H1253 H 0.37184 0.36196 0.82717 0.0
C1254 C 0.46643 0.37021 0.85685 0.0
C1255 C 0.46766 0.35171 0.85556 0.0
C1256 C 0.45005 0.37858 0.85596 0.0
C1257 C 0.43449 0.36865 0.85405 0.0
C1258 C 0.43567 0.35025 0.85169 0.0
C1259 C 0.4522 0.34181 0.85243 0.0
C1260 C 0.41717 0.37769 0.8558 0.0
C1261 C 0.4054 0.37787 0.84143 0.0
C1262 C 0.41327 0.3879 0.87101 0.0
C1263 C 0.42446 0.38712 0.88715 0.0
C1264 C 0.42835 0.37076 0.89515 0.0
C1265 C 0.43912 0.37004 0.91016 0.0
C1266 C 0.44601 0.3856 0.91737 0.0
C1267 C 0.44211 0.40192 0.90961 0.0
C1268 C 0.43136 0.40272 0.89458 0.0
C1269 C 0.34288 0.42317 0.85899 0.0
C1270 C 0.3481 0.44104 0.85994 0.0
C1271 C 0.35559 0.40977 0.85703 0.0
C1272 C 0.37363 0.4141 0.85616 0.0
C1273 C 0.37877 0.4319 0.85657 0.0
C1274 C 0.36617 0.44522 0.85831 0.0
C1275 C 0.38751 0.40031 0.85606 0.0
C1276 C 0.3986 0.3992 0.87085 0.0
C1277 C 0.39059 0.38915 0.84136 0.0
C1278 C 0.37913 0.38964 0.82548 0.0
C1279 C 0.37707 0.40534 0.81572 0.0
C1280 C 0.36618 0.40566 0.80078 0.0
C1281 C 0.35738 0.39031 0.7954 0.0
C1282 C 0.35951 0.3746 0.80492 0.0
C1283 C 0.37038 0.37422 0.81988 0.0
H1284 H 0.34897 0.39058 0.78383 0.0
H1285 H 0.45435 0.38501 0.92899 0.0
H1286 H 0.65874 0.46355 0.8298 0.0
H1287 H 0.64338 0.43631 0.82048 0.0
H1288 H 0.63739 0.42097 0.87509 0.0
H1289 H 0.65194 0.44832 0.88444 0.0
H1290 H 0.64858 0.39266 0.84257 0.0
H1291 H 0.60418 0.43615 0.86855 0.0
H1292 H 0.59208 0.4665 0.86849 0.0
H1293 H 0.58504 0.46384 0.81217 0.0
H1294 H 0.5973 0.43352 0.81194 0.0
H1295 H 0.58215 0.33317 0.86748 0.0
H1296 H 0.60528 0.35493 0.86189 0.0
H1297 H 0.5738 0.37773 0.81998 0.0
H1298 H 0.55004 0.35675 0.82661 0.0
H1299 H 0.58386 0.40257 0.83779 0.0
H1300 H 0.61656 0.35533 0.81366 0.0
H1301 H 0.62955 0.32553 0.81106 0.0
H1302 H 0.6606 0.33464 0.85772 0.0
H1303 H 0.64761 0.3644 0.86078 0.0
C1304 C 0.65443 0.45415 0.83973 0.0
C1305 C 0.65637 0.45799 0.85781 0.0
C1306 C 0.64574 0.43865 0.83441 0.0
C1307 C 0.63941 0.42667 0.84714 0.0
C1308 C 0.64234 0.43002 0.86512 0.0
C1309 C 0.65053 0.44566 0.87043 0.0
C1310 C 0.62766 0.41189 0.84218 0.0
C1311 C 0.63442 0.39466 0.84138 0.0
C1312 C 0.60936 0.41471 0.84 0.0
C1313 C 0.60174 0.43272 0.84021 0.0
C1314 C 0.60012 0.4421 0.85616 0.0
C1315 C 0.59324 0.45927 0.85618 0.0
C1316 C 0.58783 0.46711 0.84033 0.0
C1317 C 0.58926 0.45776 0.82443 0.0
C1318 C 0.59616 0.4406 0.82435 0.0
C1319 C 0.58036 0.3426 0.85683 0.0
C1320 C 0.56433 0.34335 0.84751 0.0
C1321 C 0.59368 0.355 0.8535 0.0
C1322 C 0.59152 0.36798 0.84031 0.0
C1323 C 0.57585 0.36798 0.83028 0.0
C1324 C 0.56229 0.35595 0.83401 0.0
C1325 C 0.60452 0.38276 0.8386 0.0
C1326 C 0.598 0.4002 0.83831 0.0
C1327 C 0.62311 0.38001 0.83924 0.0
C1328 C 0.63102 0.36211 0.83749 0.0
C1329 C 0.62607 0.35095 0.82344 0.0
C1330 C 0.63345 0.33406 0.82187 0.0
C1331 C 0.64588 0.32819 0.83423 0.0
C1332 C 0.65097 0.33921 0.84816 0.0
C1333 C 0.64363 0.35611 0.84979 0.0
H1334 H 0.65157 0.3151 0.83299 0.0
H1335 H 0.58251 0.48041 0.84036 0.0
H1336 H 0.62565 0.53467 0.86598 0.0
H1337 H 0.60231 0.55621 0.86076 0.0
H1338 H 0.64141 0.59692 0.85213 0.0
H1339 H 0.66504 0.57538 0.85766 0.0
H1340 H 0.61529 0.60853 0.87328 0.0
H1341 H 0.61822 0.58029 0.81724 0.0
H1342 H 0.61965 0.55531 0.79632 0.0
H1343 H 0.56876 0.53719 0.814 0.0
H1344 H 0.56712 0.56193 0.83521 0.0
H1345 H 0.54093 0.66423 0.8524 0.0
H1346 H 0.56901 0.6485 0.84762 0.0
H1347 H 0.54344 0.59905 0.86032 0.0
H1348 H 0.51558 0.61453 0.8651 0.0
H1349 H 0.56594 0.59598 0.83187 0.0
H1350 H 0.56621 0.62092 0.89133 0.0
H1351 H 0.56484 0.64551 0.91274 0.0
H1352 H 0.61 0.66978 0.88819 0.0
H1353 H 0.61149 0.64543 0.86647 0.0
C1354 C 0.62937 0.54817 0.8629 0.0
C1355 C 0.64725 0.55327 0.8622 0.0
C1356 C 0.61597 0.56047 0.85981 0.0
C1357 C 0.6201 0.57812 0.85575 0.0
C1358 C 0.63793 0.58334 0.85513 0.0
C1359 C 0.6514 0.571 0.85827 0.0
C1360 C 0.60564 0.59111 0.85288 0.0
C1361 C 0.60472 0.60603 0.8639 0.0
C1362 C 0.59176 0.58778 0.84075 0.0
C1363 C 0.59259 0.57294 0.82789 0.0
C1364 C 0.60738 0.57093 0.81674 0.0
C1365 C 0.60822 0.55681 0.80482 0.0
C1366 C 0.59432 0.54466 0.80385 0.0
C1367 C 0.57952 0.54662 0.81477 0.0
C1368 C 0.57861 0.56071 0.82672 0.0
C1369 C 0.54129 0.64998 0.85394 0.0
C1370 C 0.5261 0.64062 0.85925 0.0
C1371 C 0.55732 0.64104 0.85125 0.0
C1372 C 0.55831 0.62263 0.85373 0.0
C1373 C 0.54297 0.61325 0.8583 0.0
C1374 C 0.52707 0.62214 0.86112 0.0
C1375 C 0.57537 0.613 0.85265 0.0
C1376 C 0.57676 0.59871 0.84089 0.0
C1377 C 0.58967 0.61692 0.86407 0.0
C1378 C 0.58882 0.6315 0.87715 0.0
C1379 C 0.57575 0.63158 0.89041 0.0
C1380 C 0.57497 0.64545 0.90262 0.0
C1381 C 0.58728 0.65923 0.90179 0.0
C1382 C 0.60045 0.65913 0.88878 0.0
C1383 C 0.60127 0.64529 0.87653 0.0
H1384 H 0.58666 0.66996 0.91125 0.0
H1385 H 0.595 0.53373 0.79461 0.0
H1386 H 0.63053 0.53446 0.10912 0.0
H1387 H 0.61553 0.56222 0.11516 0.0
H1388 H 0.64745 0.56959 0.16191 0.0
H1389 H 0.66305 0.54175 0.15557 0.0
H1390 H 0.59531 0.57075 0.14113 0.0
H1391 H 0.65034 0.61506 0.16987 0.0
H1392 H 0.68278 0.61857 0.16819 0.0
H1393 H 0.68285 0.59595 0.11608 0.0
H1394 H 0.65041 0.59251 0.11738 0.0
H1395 H 0.55011 0.64616 0.16586 0.0
H1396 H 0.57243 0.62306 0.16965 0.0
H1397 H 0.6023 0.64473 0.12604 0.0
H1398 H 0.58044 0.66845 0.12285 0.0
H1399 H 0.62431 0.6292 0.14859 0.0
H1400 H 0.56982 0.61324 0.11933 0.0
H1401 H 0.5374 0.61032 0.11684 0.0
H1402 H 0.5366 0.57645 0.16247 0.0
H1403 H 0.56902 0.57938 0.16536 0.0
C1404 C 0.63445 0.54196 0.12068 0.0
C1405 C 0.64793 0.53585 0.13193 0.0
C1406 C 0.62582 0.55785 0.12414 0.0
C1407 C 0.63031 0.56802 0.13899 0.0
C1408 C 0.64387 0.56207 0.15025 0.0
C1409 C 0.65272 0.54614 0.14667 0.0
C1410 C 0.62025 0.58451 0.14266 0.0
C1411 C 0.60171 0.58349 0.14291 0.0
C1412 C 0.62852 0.60119 0.14483 0.0
C1413 C 0.64799 0.60333 0.14383 0.0
C1414 C 0.65729 0.61087 0.15805 0.0
C1415 C 0.67567 0.61285 0.15716 0.0
C1416 C 0.68488 0.60742 0.14207 0.0
C1417 C 0.67571 0.60007 0.1278 0.0
C1418 C 0.65734 0.59808 0.12862 0.0
C1419 C 0.56173 0.64629 0.15745 0.0
C1420 C 0.56347 0.6589 0.14391 0.0
C1421 C 0.57445 0.63307 0.15959 0.0
C1422 C 0.58876 0.63185 0.14778 0.0
C1423 C 0.59132 0.64535 0.13525 0.0
C1424 C 0.57881 0.65887 0.1334 0.0
C1425 C 0.59944 0.61536 0.14681 0.0
C1426 C 0.618 0.61638 0.14712 0.0
C1427 C 0.59123 0.59866 0.14454 0.0
C1428 C 0.57179 0.59668 0.14268 0.0
C1429 C 0.56271 0.60524 0.12888 0.0
C1430 C 0.54434 0.60359 0.12739 0.0
C1431 C 0.53494 0.59324 0.13952 0.0
C1432 C 0.5439 0.58448 0.15311 0.0
C1433 C 0.56226 0.58613 0.15468 0.0
H1434 H 0.52072 0.59199 0.13835 0.0
H1435 H 0.6991 0.60895 0.14141 0.0
H1436 H 0.33129 0.58247 0.14574 0.0
H1437 H 0.35205 0.60643 0.15267 0.0
H1438 H 0.39459 0.56853 0.15617 0.0
H1439 H 0.37405 0.54465 0.14968 0.0
H1440 H 0.39816 0.59288 0.18116 0.0
H1441 H 0.38589 0.59244 0.11781 0.0
H1442 H 0.36648 0.59461 0.09167 0.0
H1443 H 0.35011 0.64659 0.10778 0.0
H1444 H 0.36929 0.64462 0.13414 0.0
H1445 H 0.47726 0.62578 0.14724 0.0
H1446 H 0.44918 0.61168 0.15447 0.0
H1447 H 0.42392 0.66279 0.15711 0.0
H1448 H 0.45231 0.67714 0.15001 0.0
H1449 H 0.40686 0.63842 0.13466 0.0
H1450 H 0.42652 0.64052 0.19412 0.0
H1451 H 0.44759 0.63753 0.21881 0.0
H1452 H 0.45155 0.58169 0.20911 0.0
H1453 H 0.43071 0.58436 0.18418 0.0
C1454 C 0.34502 0.57923 0.14822 0.0
C1455 C 0.35102 0.56164 0.14698 0.0
C1456 C 0.35687 0.59295 0.15213 0.0
C1457 C 0.37492 0.58931 0.15474 0.0
C1458 C 0.38073 0.57168 0.15425 0.0
C1459 C 0.36895 0.55802 0.15042 0.0
C1460 C 0.38819 0.60368 0.15676 0.0
C1461 C 0.40003 0.60289 0.17104 0.0
C1462 C 0.39032 0.61711 0.14386 0.0
C1463 C 0.37881 0.61829 0.12804 0.0
C1464 C 0.37804 0.60427 0.11584 0.0
C1465 C 0.3671 0.60547 0.10098 0.0
C1466 C 0.35702 0.6207 0.0981 0.0
C1467 C 0.35789 0.63478 0.11005 0.0
C1468 C 0.36879 0.63363 0.12495 0.0
C1469 C 0.46581 0.63407 0.14964 0.0
C1470 C 0.46694 0.65255 0.14801 0.0
C1471 C 0.44979 0.62599 0.15388 0.0
C1472 C 0.4345 0.63619 0.15645 0.0
C1473 C 0.43562 0.65471 0.15528 0.0
C1474 C 0.45181 0.66287 0.15129 0.0
C1475 C 0.41725 0.6271 0.15865 0.0
C1476 C 0.40466 0.62884 0.14514 0.0
C1477 C 0.41457 0.61441 0.17215 0.0
C1478 C 0.42706 0.61267 0.18722 0.0
C1479 C 0.43196 0.62761 0.19717 0.0
C1480 C 0.44386 0.62597 0.21123 0.0
C1481 C 0.45091 0.60943 0.21552 0.0
C1482 C 0.44606 0.59449 0.20578 0.0
C1483 C 0.43417 0.59606 0.1917 0.0
H1484 H 0.46012 0.60819 0.22641 0.0
H1485 H 0.34856 0.62161 0.08658 0.0
H1486 H 0.66933 0.41862 0.13855 0.0
H1487 H 0.64762 0.39538 0.14518 0.0
H1488 H 0.60565 0.43401 0.1431 0.0
H1489 H 0.62707 0.45718 0.13677 0.0
H1490 H 0.60082 0.41174 0.17028 0.0
H1491 H 0.6157 0.40718 0.1076 0.0
H1492 H 0.63614 0.4026 0.08255 0.0
H1493 H 0.65044 0.35163 0.1032 0.0
H1494 H 0.63022 0.35601 0.12849 0.0
H1495 H 0.52216 0.37761 0.13725 0.0
H1496 H 0.55037 0.39175 0.14378 0.0
H1497 H 0.5747 0.34057 0.15061 0.0
H1498 H 0.54618 0.3262 0.14418 0.0
H1499 H 0.59291 0.36294 0.12711 0.0
H1500 H 0.57148 0.36549 0.18589 0.0
H1501 H 0.54981 0.37049 0.20976 0.0
H1502 H 0.54689 0.42553 0.19597 0.0
H1503 H 0.56834 0.42083 0.17183 0.0
C1504 C 0.65548 0.42216 0.13964 0.0
C1505 C 0.64994 0.43975 0.13701 0.0
C1506 C 0.6431 0.40887 0.1434 0.0
C1507 C 0.625 0.41294 0.14453 0.0
C1508 C 0.61955 0.43055 0.14237 0.0
C1509 C 0.63184 0.44379 0.13863 0.0
C1510 C 0.6114 0.39899 0.1471 0.0
C1511 C 0.5991 0.40103 0.16089 0.0
C1512 C 0.60952 0.38464 0.13521 0.0
C1513 C 0.62166 0.38202 0.12004 0.0
C1514 C 0.62332 0.39506 0.10687 0.0
C1515 C 0.63484 0.39249 0.09262 0.0
C1516 C 0.64464 0.37686 0.09132 0.0
C1517 C 0.64289 0.36375 0.10425 0.0
C1518 C 0.6314 0.36627 0.11854 0.0
C1519 C 0.53343 0.36933 0.1404 0.0
C1520 C 0.532 0.3508 0.14017 0.0
C1521 C 0.54953 0.37744 0.14423 0.0
C1522 C 0.5646 0.36722 0.14781 0.0
C1523 C 0.56318 0.34868 0.14798 0.0
C1524 C 0.54691 0.34051 0.14437 0.0
C1525 C 0.58192 0.3762 0.14982 0.0
C1526 C 0.59492 0.37326 0.13688 0.0
C1527 C 0.58438 0.38981 0.16242 0.0
C1528 C 0.57151 0.39278 0.17699 0.0
C1529 C 0.56614 0.37864 0.18787 0.0
C1530 C 0.5539 0.38143 0.20146 0.0
C1531 C 0.54697 0.39832 0.20437 0.0
C1532 C 0.55228 0.41246 0.19371 0.0
C1533 C 0.56451 0.40975 0.18009 0.0
H1534 H 0.53749 0.40044 0.21491 0.0
H1535 H 0.65354 0.37489 0.08027 0.0
H1536 H 0.07164 0.28241 0.51344 0.0
H1537 H 0.03966 0.27989 0.50823 0.0
H1538 H 0.03564 0.33672 0.50516 0.0
H1539 H 0.06746 0.33938 0.51008 0.0
H1540 H 0.00966 0.32021 0.52715 0.0
H1541 H 0.03537 0.31517 0.46856 0.0
H1542 H 0.05498 0.30184 0.44614 0.0
H1543 H 0.02895 0.25175 0.45278 0.0
H1544 H 0.00933 0.26474 0.47545 0.0
H1545 H 0.92799 0.3395 0.48888 0.0
H1546 H 0.95938 0.33667 0.49548 0.0
H1547 H 0.95648 0.28042 0.48609 0.0
H1548 H 0.92499 0.28328 0.4788 0.0
H1549 H 0.98578 0.2929 0.47244 0.0
H1550 H 0.95804 0.29812 0.52883 0.0
H1551 H 0.93844 0.31092 0.55158 0.0
H1552 H 0.96813 0.35935 0.55029 0.0
H1553 H 0.98775 0.34695 0.52734 0.0
C1554 C 0.06392 0.29436 0.51169 0.0
C1555 C 0.07208 0.31109 0.51212 0.0
C1556 C 0.04569 0.29289 0.50868 0.0
C1557 C 0.03534 0.30813 0.50628 0.0
C1558 C 0.04341 0.32482 0.507 0.0
C1559 C 0.06161 0.32629 0.50974 0.0
C1560 C 0.01609 0.30685 0.50286 0.0
C1561 C 0.00439 0.31434 0.51516 0.0
C1562 C 0.00928 0.29867 0.48749 0.0
C1563 C 0.02104 0.29087 0.47386 0.0
C1564 C 0.03394 0.30127 0.46537 0.0
C1565 C 0.04503 0.29379 0.45259 0.0
C1566 C 0.04325 0.27595 0.44808 0.0
C1567 C 0.03034 0.26556 0.45632 0.0
C1568 C 0.01923 0.27298 0.46912 0.0
C1569 C 0.93399 0.3265 0.48819 0.0
C1570 C 0.92395 0.31158 0.48344 0.0
C1571 C 0.95196 0.32489 0.49208 0.0
C1572 C 0.96024 0.30826 0.49173 0.0
C1573 C 0.95036 0.29337 0.48659 0.0
C1574 C 0.93237 0.29501 0.48243 0.0
C1575 C 0.97923 0.30663 0.49659 0.0
C1576 C 0.99092 0.29857 0.48458 0.0
C1577 C 0.98604 0.31415 0.51236 0.0
C1578 C 0.97431 0.32163 0.52626 0.0
C1579 C 0.96032 0.31154 0.53331 0.0
C1580 C 0.94921 0.31872 0.54625 0.0
C1581 C 0.95203 0.33595 0.55235 0.0
C1582 C 0.96597 0.34601 0.54554 0.0
C1583 C 0.9771 0.33891 0.53259 0.0
H1584 H 0.94344 0.34148 0.56238 0.0
H1585 H 0.05184 0.27018 0.43818 0.0
H1586 H 0.72314 0.07063 0.52895 0.0
H1587 H 0.72887 0.0389 0.52526 0.0
H1588 H 0.69143 0.03714 0.48225 0.0
H1589 H 0.68582 0.06864 0.48567 0.0
H1590 H 0.7063 0.01212 0.52939 0.0
H1591 H 0.70275 0.00664 0.45242 0.0
H1592 H 0.71198 0.02393 0.42632 0.0
H1593 H 0.75228 0.04952 0.45708 0.0
H1594 H 0.74348 0.03221 0.4833 0.0
H1595 H 0.67395 0.92987 0.50277 0.0
H1596 H 0.68046 0.96108 0.50732 0.0
H1597 H 0.73193 0.95404 0.48358 0.0
H1598 H 0.72524 0.92272 0.47843 0.0
H1599 H 0.71792 0.98303 0.47169 0.0
H1600 H 0.72674 0.95953 0.52927 0.0
H1601 H 0.7197 0.94209 0.55594 0.0
H1602 H 0.67375 0.9742 0.56523 0.0
H1603 H 0.68037 0.99168 0.53848 0.0
C1604 C 0.71634 0.06352 0.51854 0.0
C1605 C 0.70399 0.07218 0.50764 0.0
C1606 C 0.71959 0.04539 0.51649 0.0
C1607 C 0.71071 0.03567 0.50338 0.0
C1608 C 0.69869 0.04439 0.49225 0.0
C1609 C 0.6954 0.06243 0.49432 0.0
C1610 C 0.71288 0.01619 0.50196 0.0
C1611 C 0.70903 0.00575 0.51682 0.0
C1612 C 0.71685 0.00786 0.48566 0.0
C1613 C 0.72236 0.01818 0.46987 0.0
C1614 C 0.71365 0.01587 0.4536 0.0
C1615 C 0.71879 0.0257 0.43878 0.0
C1616 C 0.73268 0.03784 0.44005 0.0
C1617 C 0.74149 0.04015 0.45612 0.0
C1618 C 0.73641 0.03035 0.47098 0.0
C1619 C 0.68671 0.93489 0.49857 0.0
C1620 C 0.69911 0.92376 0.49029 0.0
C1621 C 0.69046 0.95276 0.50129 0.0
C1622 C 0.70684 0.95987 0.49614 0.0
C1623 C 0.71924 0.94884 0.48776 0.0
C1624 C 0.71541 0.93094 0.48484 0.0
C1625 C 0.71059 0.97899 0.49895 0.0
C1626 C 0.71553 0.98937 0.48434 0.0
C1627 C 0.70797 0.98724 0.51558 0.0
C1628 C 0.70402 0.97687 0.5318 0.0
C1629 C 0.71508 0.96282 0.53695 0.0
C1630 C 0.71117 0.95292 0.55209 0.0
C1631 C 0.69628 0.95702 0.56226 0.0
C1632 C 0.68529 0.97104 0.55734 0.0
C1633 C 0.68913 0.98097 0.5422 0.0
H1634 H 0.69326 0.94934 0.57397 0.0
H1635 H 0.73663 0.04544 0.42856 0.0
H1636 H 0.92861 0.7169 0.52204 0.0
H1637 H 0.96068 0.71828 0.51704 0.0
H1638 H 0.96203 0.66173 0.50961 0.0
H1639 H 0.93007 0.66022 0.51433 0.0
H1640 H 0.98892 0.67533 0.53254 0.0
H1641 H 0.9633 0.68603 0.47473 0.0
H1642 H 0.94415 0.70186 0.4536 0.0
H1643 H 0.97207 0.75024 0.46402 0.0
H1644 H 0.99124 0.73473 0.48542 0.0
H1645 H 0.07126 0.65828 0.49342 0.0
H1646 H 0.03984 0.66059 0.50032 0.0
H1647 H 0.04265 0.71736 0.49466 0.0
H1648 H 0.07407 0.71504 0.48702 0.0
H1649 H 0.01372 0.70628 0.48018 0.0
H1650 H 0.04065 0.69633 0.53624 0.0
H1651 H 0.05981 0.68158 0.55814 0.0
H1652 H 0.0297 0.63369 0.55273 0.0
H1653 H 0.0105 0.64807 0.53061 0.0
C1654 C 0.93576 0.70476 0.51941 0.0
C1655 C 0.9268 0.68846 0.51853 0.0
C1656 C 0.95404 0.70558 0.51651 0.0
C1657 C 0.96367 0.69011 0.51291 0.0
C1658 C 0.95482 0.67381 0.51239 0.0
C1659 C 0.93655 0.673 0.51502 0.0
C1660 C 0.98295 0.6908 0.50942 0.0
C1661 C 0.99438 0.68197 0.52104 0.0
C1662 C 0.99004 0.69997 0.49472 0.0
C1663 C 0.97856 0.70927 0.48183 0.0
C1664 C 0.96525 0.70008 0.47264 0.0
C1665 C 0.95441 0.70898 0.46059 0.0
C1666 C 0.95685 0.72706 0.45751 0.0
C1667 C 0.97017 0.73625 0.46644 0.0
C1668 C 0.98103 0.72741 0.47853 0.0
C1669 C 0.06522 0.67127 0.49365 0.0
C1670 C 0.07519 0.68649 0.48977 0.0
C1671 C 0.04724 0.67259 0.49771 0.0
C1672 C 0.03891 0.6892 0.49842 0.0
C1673 C 0.04878 0.70441 0.49429 0.0
C1674 C 0.06675 0.70307 0.48995 0.0
C1675 C 0.01984 0.69055 0.50319 0.0
C1676 C 0.00839 0.69978 0.49182 0.0
C1677 C 0.01275 0.68194 0.51829 0.0
C1678 C 0.02422 0.67325 0.53166 0.0
C1679 C 0.03818 0.68261 0.53963 0.0
C1680 C 0.04904 0.67432 0.5521 0.0
C1681 C 0.046 0.6567 0.55679 0.0
C1682 C 0.03205 0.64734 0.54907 0.0
C1683 C 0.02116 0.65556 0.53658 0.0
H1684 H 0.05442 0.6503 0.56644 0.0
H1685 H 0.94845 0.73392 0.44817 0.0
H1686 H 0.33193 0.06741 0.48744 0.0
H1687 H 0.32879 0.03559 0.49212 0.0
H1688 H 0.27224 0.04001 0.48613 0.0
H1689 H 0.27527 0.07202 0.48105 0.0
H1690 H 0.28608 0.01935 0.51748 0.0
H1691 H 0.28992 0.02312 0.45407 0.0
H1692 H 0.30281 0.03322 0.42584 0.0
H1693 H 0.35205 0.00812 0.43896 0.0
H1694 H 0.33953 0.99809 0.46741 0.0
H1695 H 0.27836 0.92471 0.51829 0.0
H1696 H 0.27462 0.95622 0.51158 0.0
H1697 H 0.33015 0.96008 0.49872 0.0
H1698 H 0.33379 0.92863 0.50472 0.0
H1699 H 0.31255 0.97677 0.47509 0.0
H1700 H 0.31138 0.97579 0.53882 0.0
H1701 H 0.30065 0.96666 0.56827 0.0
H1702 H 0.24906 0.98716 0.55619 0.0
H1703 H 0.25944 0.99622 0.52657 0.0
C1704 C 0.3188 0.06166 0.4871 0.0
C1705 C 0.30384 0.07223 0.48385 0.0
C1706 C 0.31705 0.04347 0.48975 0.0
C1707 C 0.3003 0.03551 0.48942 0.0
C1708 C 0.28527 0.04598 0.48641 0.0
C1709 C 0.28704 0.0642 0.48344 0.0
C1710 C 0.29876 0.01618 0.49219 0.0
C1711 C 0.29151 0.00995 0.50809 0.0
C1712 C 0.30629 0.00408 0.4801 0.0
C1713 C 0.31382 0.00998 0.46294 0.0
C1714 C 0.30354 0.01988 0.45101 0.0
C1715 C 0.31077 0.02557 0.43495 0.0
C1716 C 0.32825 0.02135 0.43063 0.0
C1717 C 0.33852 0.01139 0.44234 0.0
C1718 C 0.33135 0.00568 0.45842 0.0
C1719 C 0.28976 0.93232 0.51409 0.0
C1720 C 0.30637 0.92417 0.51202 0.0
C1721 C 0.28763 0.95035 0.51031 0.0
C1722 C 0.30214 0.96061 0.50477 0.0
C1723 C 0.31872 0.95247 0.50287 0.0
C1724 C 0.3208 0.93446 0.50637 0.0
C1725 C 0.30022 0.97978 0.50066 0.0
C1726 C 0.30685 0.98605 0.48445 0.0
C1727 C 0.29239 0.99193 0.51263 0.0
C1728 C 0.28612 0.98648 0.53041 0.0
C1729 C 0.29771 0.97822 0.54239 0.0
C1730 C 0.2917 0.97308 0.55912 0.0
C1731 C 0.27417 0.97627 0.56407 0.0
C1732 C 0.26262 0.98466 0.55232 0.0
C1733 C 0.26856 0.98981 0.53556 0.0
H1734 H 0.26954 0.97229 0.57703 0.0
H1735 H 0.33383 0.02576 0.41819 0.0
H1736 H 0.4778 0.92993 0.27989 0.0
H1737 H 0.48131 0.96219 0.27781 0.0
H1738 H 0.4888 0.96507 0.33428 0.0
H1739 H 0.48565 0.93296 0.33646 0.0
H1740 H 0.46424 0.9906 0.3197 0.0
H1741 H 0.52346 0.96728 0.31063 0.0
H1742 H 0.54567 0.94877 0.29549 0.0
H1743 H 0.53482 0.97532 0.24645 0.0
H1744 H 0.51234 0.99383 0.26126 0.0
H1745 H 0.50063 0.07366 0.33788 0.0
H1746 H 0.49451 0.04214 0.33508 0.0
H1747 H 0.50153 0.04566 0.27851 0.0
H1748 H 0.50842 0.07723 0.28134 0.0
H1749 H 0.51641 0.01698 0.28973 0.0
H1750 H 0.4595 0.04246 0.29851 0.0
H1751 H 0.43689 0.06113 0.31285 0.0
H1752 H 0.44176 0.03084 0.36067 0.0
H1753 H 0.4646 0.01216 0.34672 0.0
C1754 C 0.48015 0.93746 0.29185 0.0
C1755 C 0.48152 0.92891 0.30833 0.0
C1756 C 0.48217 0.95585 0.29064 0.0
C1757 C 0.48533 0.96595 0.3059 0.0
C1758 C 0.48634 0.95748 0.32236 0.0
C1759 C 0.48463 0.93913 0.32356 0.0
C1760 C 0.48793 0.98534 0.30482 0.0
C1761 C 0.47567 0.99642 0.31324 0.0
C1762 C 0.50255 0.99286 0.29588 0.0
C1763 C 0.51607 0.98177 0.287 0.0
C1764 C 0.52568 0.96905 0.29658 0.0
C1765 C 0.53835 0.95859 0.28807 0.0
C1766 C 0.54161 0.96083 0.27001 0.0
C1767 C 0.53225 0.97357 0.26043 0.0
C1768 C 0.51956 0.98406 0.26888 0.0
C1769 C 0.50086 0.06776 0.32483 0.0
C1770 C 0.50491 0.07797 0.30982 0.0
C1771 C 0.49724 0.04972 0.32323 0.0
C1772 C 0.49712 0.04156 0.30653 0.0
C1773 C 0.50142 0.05167 0.29153 0.0
C1774 C 0.50535 0.06971 0.29315 0.0
C1775 C 0.49286 0.02241 0.30492 0.0
C1776 C 0.5048 0.01131 0.29599 0.0
C1777 C 0.47777 0.01488 0.3132 0.0
C1778 C 0.46387 0.02597 0.32159 0.0
C1779 C 0.45583 0.03984 0.31212 0.0
C1780 C 0.44296 0.05042 0.32018 0.0
C1781 C 0.43792 0.04719 0.33767 0.0
C1782 C 0.44569 0.03334 0.34712 0.0
C1783 C 0.45858 0.02273 0.33914 0.0
H1784 H 0.42797 0.0554 0.3439 0.0
H1785 H 0.55143 0.95272 0.26344 0.0
H1786 H 0.9195 0.47895 0.29962 0.0
H1787 H 0.95042 0.47195 0.29324 0.0
H1788 H 0.96107 0.52734 0.28397 0.0
H1789 H 0.92984 0.53418 0.2892 0.0
H1790 H 0.98001 0.50976 0.26252 0.0
H1791 H 0.96987 0.50496 0.32508 0.0
H1792 H 0.95528 0.49418 0.35223 0.0
H1793 H 0.96996 0.44083 0.33929 0.0
H1794 H 0.98446 0.45129 0.31195 0.0
H1795 H 0.06961 0.51281 0.29431 0.0
H1796 H 0.0377 0.51553 0.28953 0.0
H1797 H 0.03441 0.4596 0.27873 0.0
H1798 H 0.06652 0.45685 0.28302 0.0
H1799 H 0.01193 0.47462 0.30785 0.0
H1800 H 0.02609 0.48244 0.24637 0.0
H1801 H 0.0419 0.4958 0.22114 0.0
H1802 H 0.02111 0.54689 0.23477 0.0
H1803 H 0.00537 0.53388 0.26025 0.0
C1804 C 0.92844 0.48959 0.29603 0.0
C1805 C 0.92237 0.50712 0.29506 0.0
C1806 C 0.94613 0.4856 0.29249 0.0
C1807 C 0.95827 0.49916 0.28861 0.0
C1808 C 0.95204 0.51662 0.287 0.0
C1809 C 0.9342 0.52054 0.29003 0.0
C1810 C 0.97753 0.49532 0.28702 0.0
C1811 C 0.98697 0.50217 0.27252 0.0
C1812 C 0.9867 0.48519 0.2999 0.0
C1813 C 0.97807 0.47889 0.31638 0.0
C1814 C 0.96989 0.49092 0.32798 0.0
C1815 C 0.96165 0.48487 0.34341 0.0
C1816 C 0.96164 0.46683 0.34746 0.0
C1817 C 0.96994 0.4548 0.33612 0.0
C1818 C 0.97818 0.46078 0.32066 0.0
C1819 C 0.06214 0.50116 0.29056 0.0
C1820 C 0.07051 0.48461 0.28907 0.0
C1821 C 0.04395 0.50274 0.28779 0.0
C1822 C 0.03377 0.48777 0.28377 0.0
C1823 C 0.04212 0.47131 0.28174 0.0
C1824 C 0.06043 0.46978 0.28413 0.0
C1825 C 0.01426 0.48917 0.2835 0.0
C1826 C 0.00484 0.48195 0.29774 0.0
C1827 C 0.00525 0.49934 0.27067 0.0
C1828 C 0.01467 0.50719 0.25532 0.0
C1829 C 0.02501 0.49655 0.24409 0.0
C1830 C 0.03394 0.50406 0.22972 0.0
C1831 C 0.03254 0.52219 0.22638 0.0
C1832 C 0.02219 0.53285 0.23738 0.0
C1833 C 0.01324 0.52541 0.25178 0.0
H1834 H 0.03946 0.52798 0.21524 0.0
H1835 H 0.95525 0.46217 0.3594 0.0
H1836 H 0.5131 0.92174 0.72 0.0
H1837 H 0.50821 0.95373 0.72342 0.0
H1838 H 0.50303 0.95903 0.66687 0.0
H1839 H 0.50745 0.9272 0.66336 0.0
H1840 H 0.52742 0.98391 0.68496 0.0
H1841 H 0.46762 0.95988 0.68746 0.0
H1842 H 0.4444 0.94061 0.69992 0.0
H1843 H 0.45075 0.96528 0.75069 0.0
H1844 H 0.47421 0.98454 0.73856 0.0
H1845 H 0.49226 0.06616 0.66434 0.0
H1846 H 0.49809 0.0347 0.66768 0.0
H1847 H 0.48537 0.038 0.72325 0.0
H1848 H 0.47879 0.06964 0.71981 0.0
H1849 H 0.47222 0.0088 0.7104 0.0
H1850 H 0.52921 0.03507 0.70829 0.0
H1851 H 0.55342 0.05403 0.69733 0.0
H1852 H 0.55425 0.02527 0.64837 0.0
H1853 H 0.52988 0.00626 0.65893 0.0
C1854 C 0.51092 0.92975 0.70832 0.0
C1855 C 0.51062 0.92196 0.69141 0.0
C1856 C 0.50809 0.94796 0.7103 0.0
C1857 C 0.50526 0.95866 0.69539 0.0
C1858 C 0.50521 0.95096 0.67852 0.0
C1859 C 0.50767 0.93277 0.67656 0.0
C1860 C 0.5024 0.97794 0.69715 0.0
C1861 C 0.51534 0.98941 0.69043 0.0
C1862 C 0.48693 0.98502 0.70491 0.0
C1863 C 0.47282 0.97347 0.71217 0.0
C1864 C 0.4642 0.96106 0.70132 0.0
C1865 C 0.45096 0.95017 0.70831 0.0
C1866 C 0.44615 0.95167 0.7261 0.0
C1867 C 0.45452 0.96411 0.73692 0.0
C1868 C 0.46778 0.97502 0.73 0.0
C1869 C 0.49069 0.06024 0.6773 0.0
C1870 C 0.48521 0.07044 0.69186 0.0
C1871 C 0.49415 0.04223 0.67922 0.0
C1872 C 0.49265 0.03402 0.69582 0.0
C1873 C 0.48677 0.04406 0.71034 0.0
C1874 C 0.48301 0.06213 0.70836 0.0
C1875 C 0.49707 0.01493 0.69773 0.0
C1876 C 0.48446 0.00344 0.70516 0.0
C1877 C 0.51303 0.00782 0.69086 0.0
C1878 C 0.52764 0.01929 0.68438 0.0
C1879 C 0.53446 0.03286 0.69513 0.0
C1880 C 0.54823 0.04361 0.689 0.0
C1881 C 0.55536 0.04085 0.67217 0.0
C1882 C 0.54872 0.02737 0.66141 0.0
C1883 C 0.53495 0.01659 0.66748 0.0
H1884 H 0.56608 0.04911 0.66749 0.0
H1885 H 0.43589 0.94323 0.73149 0.0
H1886 H 0.92899 0.50445 0.67346 0.0
H1887 H 0.96036 0.50947 0.67852 0.0
H1888 H 0.9579 0.47791 0.72605 0.0
H1889 H 0.92636 0.47242 0.72082 0.0
H1890 H 0.97914 0.52469 0.70335 0.0
H1891 H 0.99754 0.45607 0.73044 0.0
H1892 H 0.98673 0.42524 0.7297 0.0
H1893 H 0.96265 0.43464 0.67912 0.0
H1894 H 0.97349 0.46544 0.67949 0.0
H1895 H 0.07247 0.52637 0.71979 0.0
H1896 H 0.04073 0.52175 0.72475 0.0
H1897 H 0.03894 0.48622 0.68011 0.0
H1898 H 0.07047 0.49045 0.67529 0.0
H1899 H 0.01981 0.47326 0.70627 0.0
H1900 H 0.02605 0.52976 0.67671 0.0
H1901 H 0.03696 0.56036 0.6734 0.0
H1902 H 0.01182 0.57487 0.72226 0.0
H1903 H 0.00094 0.54427 0.72595 0.0
C1904 C 0.93503 0.49859 0.68505 0.0
C1905 C 0.92516 0.48789 0.69666 0.0
C1906 C 0.953 0.50158 0.68798 0.0
C1907 C 0.96154 0.49398 0.70259 0.0
C1908 C 0.95164 0.48373 0.71455 0.0
C1909 C 0.93361 0.48062 0.71156 0.0
C1910 C 0.98096 0.49625 0.70461 0.0
C1911 C 0.98802 0.51344 0.7042 0.0
C1912 C 0.99259 0.4816 0.70556 0.0
C1913 C 0.98612 0.46309 0.70512 0.0
C1914 C 0.98996 0.45153 0.71916 0.0
C1915 C 0.98383 0.43407 0.7188 0.0
C1916 C 0.97395 0.42801 0.70441 0.0
C1917 C 0.97023 0.43937 0.6903 0.0
C1918 C 0.97635 0.45683 0.69059 0.0
C1919 C 0.06532 0.5175 0.71111 0.0
C1920 C 0.07401 0.50887 0.69708 0.0
C1921 C 0.04718 0.51489 0.71394 0.0
C1922 C 0.03743 0.50372 0.70273 0.0
C1923 C 0.04618 0.49483 0.68899 0.0
C1924 C 0.06424 0.49737 0.68619 0.0
C1925 C 0.01799 0.50167 0.70464 0.0
C1926 C 0.01092 0.48452 0.70585 0.0
C1927 C 0.00636 0.51633 0.70392 0.0
C1928 C 0.01288 0.5347 0.70172 0.0
C1929 C 0.02298 0.53945 0.68681 0.0
C1930 C 0.02913 0.55679 0.68485 0.0
C1931 C 0.02514 0.56953 0.69764 0.0
C1932 C 0.01494 0.56497 0.71239 0.0
C1933 C 0.00877 0.54764 0.71442 0.0
H1934 H 0.02991 0.58295 0.6961 0.0
H1935 H 0.9692 0.41449 0.70416 0.0
H1936 H 0.33344 0.49996 0.93078 0.0
H1937 H 0.33014 0.50457 0.96259 0.0
H1938 H 0.27494 0.49061 0.95921 0.0
H1939 H 0.27819 0.48551 0.92725 0.0
H1940 H 0.28751 0.52494 0.98053 0.0
H1941 H 0.29313 0.46126 0.975 0.0
H1942 H 0.307 0.43407 0.96347 0.0
H1943 H 0.35658 0.44915 0.98675 0.0
H1944 H 0.34305 0.47659 0.99818 0.0
H1945 H 0.2816 0.52121 0.07548 0.0
H1946 H 0.27736 0.51613 0.04373 0.0
H1947 H 0.33315 0.50523 0.03803 0.0
H1948 H 0.3373 0.50961 0.06964 0.0
H1949 H 0.31586 0.48169 0.02096 0.0
H1950 H 0.31291 0.54526 0.02452 0.0
H1951 H 0.30154 0.57401 0.03498 0.0
H1952 H 0.24997 0.56128 0.01483 0.0
H1953 H 0.261 0.53234 0.00444 0.0
C1954 C 0.32055 0.49795 0.93674 0.0
C1955 C 0.30608 0.49232 0.92651 0.0
C1956 C 0.31871 0.50059 0.95491 0.0
C1957 C 0.30231 0.49792 0.96315 0.0
C1958 C 0.28768 0.49275 0.95299 0.0
C1959 C 0.28959 0.48977 0.9348 0.0
C1960 C 0.30091 0.49991 0.98254 0.0
C1961 C 0.29334 0.51536 0.98948 0.0
C1962 C 0.30898 0.4876 0.99402 0.0
C1963 C 0.31711 0.47105 0.9873 0.0
C1964 C 0.30703 0.45886 0.97751 0.0
C1965 C 0.31482 0.44339 0.97103 0.0
C1966 C 0.33267 0.43991 0.97434 0.0
C1967 C 0.34276 0.45187 0.98418 0.0
C1968 C 0.33503 0.46738 0.99068 0.0
C1969 C 0.29294 0.51781 0.06741 0.0
C1970 C 0.30977 0.51576 0.07508 0.0
C1971 C 0.29052 0.51497 0.04925 0.0
C1972 C 0.30496 0.51038 0.03842 0.0
C1973 C 0.32177 0.50862 0.04609 0.0
C1974 C 0.32414 0.51119 0.06419 0.0
C1975 C 0.30273 0.50698 0.01918 0.0
C1976 C 0.3097 0.49123 0.01218 0.0
C1977 C 0.29437 0.5192 0.00765 0.0
C1978 C 0.28772 0.53656 0.01391 0.0
C1979 C 0.29911 0.54853 0.02246 0.0
C1980 C 0.29274 0.56487 0.02835 0.0
C1981 C 0.27503 0.56944 0.02563 0.0
C1982 C 0.26367 0.5577 0.01696 0.0
C1983 C 0.26998 0.54134 0.01107 0.0
H1984 H 0.27012 0.5821 0.03019 0.0
H1985 H 0.33868 0.42792 0.96931 0.0
H1986 H 0.51711 0.27975 0.92117 0.0
H1987 H 0.51235 0.27745 0.95323 0.0
H1988 H 0.51032 0.33434 0.95706 0.0
H1989 H 0.5147 0.33677 0.9251 0.0
H1990 H 0.53275 0.31649 0.98292 0.0
H1991 H 0.47357 0.31478 0.95805 0.0
H1992 H 0.45032 0.30278 0.93858 0.0
H1993 H 0.45487 0.25208 0.96387 0.0
H1994 H 0.47835 0.26374 0.98333 0.0
H1995 H 0.49625 0.33627 0.06556 0.0
H1996 H 0.5028 0.33365 0.03414 0.0
H1997 H 0.49039 0.27793 0.03602 0.0
H1998 H 0.48321 0.28059 0.06754 0.0
H1999 H 0.47699 0.29171 0.00728 0.0
H2000 H 0.53391 0.29306 0.03389 0.0
H2001 H 0.55776 0.3039 0.05331 0.0
H2002 H 0.55896 0.35312 0.02494 0.0
H2003 H 0.53493 0.34268 0.0055 0.0
C2004 C 0.51571 0.29176 0.92886 0.0
C2005 C 0.51624 0.30845 0.92061 0.0
C2006 C 0.51295 0.29042 0.94713 0.0
C2007 C 0.51096 0.30573 0.95744 0.0
C2008 C 0.51185 0.32238 0.9493 0.0
C2009 C 0.51428 0.32373 0.93104 0.0
C2010 C 0.50769 0.30453 0.97671 0.0
C2011 C 0.52053 0.31119 0.9883 0.0
C2012 C 0.492 0.29705 0.98364 0.0
C2013 C 0.47787 0.29006 0.97199 0.0
C2014 C 0.46974 0.30103 0.95934 0.0
C2015 C 0.45649 0.2943 0.94833 0.0
C2016 C 0.45116 0.27666 0.94995 0.0
C2017 C 0.45903 0.26573 0.96261 0.0
C2018 C 0.47231 0.27239 0.97364 0.0
C2019 C 0.49493 0.32342 0.05934 0.0
C2020 C 0.4893 0.30861 0.06911 0.0
C2021 C 0.49879 0.32192 0.04136 0.0
C2022 C 0.49747 0.30551 0.03275 0.0
C2023 C 0.4916 0.29072 0.04239 0.0
C2024 C 0.48752 0.29225 0.0604 0.0
C2025 C 0.50194 0.30401 0.01365 0.0
C2026 C 0.48934 0.29683 0.00203 0.0
C2027 C 0.518 0.3108 0.00669 0.0
C2028 C 0.53252 0.31713 0.01831 0.0
C2029 C 0.53917 0.30625 0.03187 0.0
C2030 C 0.55274 0.31231 0.04287 0.0
C2031 C 0.55985 0.3292 0.04038 0.0
C2032 C 0.55343 0.34005 0.02686 0.0
C2033 C 0.53985 0.33405 0.01583 0.0
H2034 H 0.57035 0.33387 0.04892 0.0
H2035 H 0.44089 0.27148 0.94142 0.0
H2036 H 0.72341 0.52785 0.92446 0.0
H2037 H 0.7308 0.52348 0.95574 0.0
H2038 H 0.69232 0.4814 0.95897 0.0
H2039 H 0.68517 0.48538 0.9279 0.0
H2040 H 0.71087 0.528 0.98357 0.0
H2041 H 0.70289 0.45105 0.98852 0.0
H2042 H 0.71018 0.42471 0.97071 0.0
H2043 H 0.75101 0.45376 0.94386 0.0
H2044 H 0.74417 0.4802 0.96169 0.0
H2045 H 0.67598 0.50185 0.06418 0.0
H2046 H 0.68379 0.50672 0.03337 0.0
H2047 H 0.73347 0.47976 0.04138 0.0
H2048 H 0.7255 0.47438 0.07239 0.0
H2049 H 0.71923 0.46924 0.01168 0.0
H2050 H 0.73222 0.52519 0.03606 0.0
H2051 H 0.72765 0.55201 0.05406 0.0
H2052 H 0.68254 0.56592 0.02249 0.0
H2053 H 0.68667 0.53906 0.00445 0.0
C2054 C 0.71671 0.51751 0.93179 0.0
C2055 C 0.70367 0.507 0.92366 0.0
C2056 C 0.72094 0.51504 0.94967 0.0
C2057 C 0.71228 0.50196 0.95967 0.0
C2058 C 0.69949 0.49131 0.95147 0.0
C2059 C 0.6953 0.49372 0.93368 0.0
C2060 C 0.71538 0.50023 0.979 0.0
C2061 C 0.71291 0.51519 0.98971 0.0
C2062 C 0.71861 0.48361 0.98704 0.0
C2063 C 0.72294 0.46766 0.97641 0.0
C2064 C 0.71351 0.4518 0.97891 0.0
C2065 C 0.71754 0.43685 0.96878 0.0
C2066 C 0.73102 0.43757 0.95614 0.0
C2067 C 0.74053 0.45323 0.95362 0.0
C2068 C 0.73656 0.46821 0.96372 0.0
C2069 C 0.68863 0.49699 0.05949 0.0
C2070 C 0.70014 0.48776 0.0708 0.0
C2071 C 0.69313 0.49991 0.04184 0.0
C2072 C 0.70938 0.49394 0.03512 0.0
C2073 C 0.72091 0.4846 0.04631 0.0
C2074 C 0.71634 0.48154 0.06402 0.0
C2075 C 0.71372 0.49684 0.01616 0.0
C2076 C 0.71759 0.48211 0.00554 0.0
C2077 C 0.71222 0.51375 0.00821 0.0
C2078 C 0.70973 0.53005 0.01893 0.0
C2079 C 0.72126 0.53391 0.03301 0.0
C2080 C 0.71876 0.54913 0.04321 0.0
C2081 C 0.70481 0.56065 0.03943 0.0
C2082 C 0.69335 0.55699 0.0254 0.0
C2083 C 0.69579 0.54178 0.01515 0.0
H2084 H 0.70288 0.57242 0.04735 0.0
H2085 H 0.73411 0.42599 0.94831 0.0
H2086 H 0.47993 0.7155 0.9259 0.0
H2087 H 0.48488 0.71855 0.95786 0.0
H2088 H 0.48643 0.66176 0.96313 0.0
H2089 H 0.48184 0.65857 0.93129 0.0
H2090 H 0.46449 0.68015 0.98876 0.0
H2091 H 0.52341 0.68122 0.96331 0.0
H2092 H 0.54656 0.69264 0.94332 0.0
H2093 H 0.54233 0.74399 0.96728 0.0
H2094 H 0.51896 0.73292 0.98725 0.0
H2095 H 0.50149 0.66358 0.07218 0.0
H2096 H 0.49465 0.66481 0.04071 0.0
H2097 H 0.50705 0.72056 0.03998 0.0
H2098 H 0.51453 0.71928 0.07147 0.0
H2099 H 0.52036 0.70569 0.01193 0.0
H2100 H 0.46344 0.705 0.03892 0.0
H2101 H 0.43973 0.69462 0.05882 0.0
H2102 H 0.43881 0.6445 0.03208 0.0
H2103 H 0.4627 0.65449 0.01218 0.0
C2104 C 0.48126 0.70367 0.93389 0.0
C2105 C 0.48055 0.6868 0.92608 0.0
C2106 C 0.48413 0.70544 0.95211 0.0
C2107 C 0.48605 0.69037 0.96279 0.0
C2108 C 0.48496 0.67353 0.95509 0.0
C2109 C 0.48242 0.67176 0.93689 0.0
C2110 C 0.48948 0.69201 0.982 0.0
C2111 C 0.47674 0.68561 0.99388 0.0
C2112 C 0.50522 0.69966 0.98858 0.0
C2113 C 0.51929 0.7063 0.97662 0.0
C2114 C 0.52729 0.69499 0.96419 0.0
C2115 C 0.54048 0.70139 0.95289 0.0
C2116 C 0.54587 0.71905 0.95399 0.0
C2117 C 0.53812 0.73033 0.96642 0.0
C2118 C 0.52491 0.72399 0.97774 0.0
C2119 C 0.50274 0.67613 0.06536 0.0
C2120 C 0.50848 0.69136 0.07437 0.0
C2121 C 0.49871 0.67684 0.04735 0.0
C2122 C 0.49998 0.69286 0.038 0.0
C2123 C 0.50589 0.70806 0.04692 0.0
C2124 C 0.51014 0.70731 0.06492 0.0
C2125 C 0.49546 0.69356 0.01886 0.0
C2126 C 0.50799 0.7004 0.00693 0.0
C2127 C 0.47939 0.68651 0.01224 0.0
C2128 C 0.46497 0.68046 0.02414 0.0
C2129 C 0.45827 0.69172 0.03736 0.0
C2130 C 0.44479 0.68591 0.04863 0.0
C2131 C 0.4378 0.6689 0.04674 0.0
C2132 C 0.44425 0.65767 0.03354 0.0
C2133 C 0.45775 0.66341 0.02225 0.0
H2134 H 0.42736 0.66442 0.05548 0.0
H2135 H 0.55609 0.72397 0.94523 0.0
H2136 H 0.14794 0.24593 0.5276 0.0
H2137 H 0.17069 0.22428 0.52011 0.0
H2138 H 0.19943 0.26432 0.49119 0.0
H2139 H 0.17628 0.28591 0.49809 0.0
H2140 H 0.20091 0.23519 0.47368 0.0
H2141 H 0.21192 0.25051 0.53381 0.0
H2142 H 0.2048 0.25534 0.56529 0.0
H2143 H 0.19112 0.20047 0.57096 0.0
H2144 H 0.19793 0.19536 0.53945 0.0
H2145 H 0.28022 0.17387 0.50039 0.0
H2146 H 0.25943 0.19765 0.50757 0.0
H2147 H 0.22212 0.17646 0.46994 0.0
H2148 H 0.24295 0.15297 0.4624 0.0
H2149 H 0.22762 0.19853 0.52114 0.0
H2150 H 0.19915 0.20919 0.45042 0.0
H2151 H 0.2091 0.20697 0.4194 0.0
H2152 H 0.26296 0.21467 0.43577 0.0
H2153 H 0.2533 0.21718 0.46684 0.0
C2154 C 0.15907 0.25012 0.51958 0.0
C2155 C 0.16037 0.26765 0.51351 0.0
C2156 C 0.17214 0.23774 0.5154 0.0
C2157 C 0.18701 0.24273 0.5054 0.0
C2158 C 0.18813 0.26015 0.49898 0.0
C2159 C 0.1749 0.27249 0.50294 0.0
C2160 C 0.20133 0.22974 0.50166 0.0
C2161 C 0.20675 0.2272 0.48407 0.0
C2162 C 0.20934 0.21959 0.51524 0.0
C2163 C 0.2053 0.22259 0.53423 0.0
C2164 C 0.20728 0.2395 0.54174 0.0
C2165 C 0.20332 0.24229 0.55959 0.0
C2166 C 0.19747 0.22823 0.57011 0.0
C2167 C 0.19563 0.21135 0.5628 0.0
C2168 C 0.19956 0.2085 0.54495 0.0
C2169 C 0.26757 0.17426 0.49367 0.0
C2170 C 0.26328 0.16159 0.48074 0.0
C2171 C 0.25569 0.18786 0.4978 0.0
C2172 C 0.23932 0.18902 0.4891 0.0
C2173 C 0.23483 0.17608 0.47655 0.0
C2174 C 0.24673 0.16259 0.47232 0.0
C2175 C 0.22686 0.20371 0.49313 0.0
C2176 C 0.2218 0.20656 0.51077 0.0
C2177 C 0.21959 0.21451 0.47966 0.0
C2178 C 0.2255 0.2132 0.46098 0.0
C2179 C 0.2131 0.21048 0.44739 0.0
C2180 C 0.2187 0.20916 0.4298 0.0
C2181 C 0.23665 0.21062 0.42562 0.0
C2182 C 0.24906 0.21347 0.43902 0.0
C2183 C 0.24353 0.21482 0.45663 0.0
H2184 H 0.24096 0.20959 0.412 0.0
H2185 H 0.1944 0.23042 0.58392 0.0
H2186 H 0.75482 0.15372 0.53145 0.0
H2187 H 0.77535 0.17745 0.52381 0.0
H2188 H 0.73608 0.20047 0.48935 0.0
H2189 H 0.71572 0.17626 0.4964 0.0
H2190 H 0.76604 0.20249 0.47393 0.0
H2191 H 0.74607 0.21793 0.53158 0.0
H2192 H 0.73939 0.21356 0.56322 0.0
H2193 H 0.79437 0.2039 0.57376 0.0
H2194 H 0.80135 0.20798 0.54213 0.0
H2195 H 0.82185 0.28697 0.49754 0.0
H2196 H 0.79866 0.26562 0.50505 0.0
H2197 H 0.82343 0.22683 0.47124 0.0
H2198 H 0.84625 0.24826 0.46324 0.0
H2199 H 0.79803 0.23539 0.52085 0.0
H2200 H 0.79347 0.20018 0.45249 0.0
H2201 H 0.79713 0.20747 0.42087 0.0
H2202 H 0.78569 0.26204 0.43181 0.0
H2203 H 0.78172 0.25505 0.46343 0.0
C2204 C 0.75055 0.16384 0.52224 0.0
C2205 C 0.73362 0.16317 0.51458 0.0
C2206 C 0.76227 0.17748 0.51796 0.0
C2207 C 0.75718 0.191 0.50627 0.0
C2208 C 0.74032 0.19024 0.49844 0.0
C2209 C 0.72868 0.17641 0.5025 0.0
C2210 C 0.76954 0.20574 0.50203 0.0
C2211 C 0.77299 0.2097 0.48421 0.0
C2212 C 0.77833 0.21552 0.5154 0.0
C2213 C 0.77421 0.21312 0.53445 0.0
C2214 C 0.75672 0.21476 0.54062 0.0
C2215 C 0.75288 0.21235 0.55856 0.0
C2216 C 0.76644 0.20842 0.57049 0.0
C2217 C 0.78388 0.20693 0.5645 0.0
C2218 C 0.78779 0.20931 0.54657 0.0
C2219 C 0.82234 0.27388 0.49172 0.0
C2220 C 0.8358 0.26934 0.4797 0.0
C2221 C 0.80909 0.26168 0.49604 0.0
C2222 C 0.8091 0.24469 0.48849 0.0
C2223 C 0.82286 0.23998 0.4769 0.0
C2224 C 0.83597 0.25223 0.47242 0.0
C2225 C 0.79481 0.23184 0.49276 0.0
C2226 C 0.79102 0.22823 0.51058 0.0
C2227 C 0.78527 0.2228 0.4794 0.0
C2228 C 0.78746 0.2271 0.46036 0.0
C2229 C 0.79166 0.21372 0.44813 0.0
C2230 C 0.79381 0.21781 0.43021 0.0
C2231 C 0.7917 0.23522 0.42435 0.0
C2232 C 0.78739 0.24857 0.43638 0.0
C2233 C 0.78521 0.24456 0.4543 0.0
H2234 H 0.79338 0.23835 0.41047 0.0
H2235 H 0.76344 0.20656 0.58437 0.0
H2236 H 0.83657 0.72328 0.4927 0.0
H2237 H 0.81383 0.74495 0.48441 0.0
H2238 H 0.81409 0.76574 0.53752 0.0
H2239 H 0.8371 0.74449 0.54579 0.0
H2240 H 0.7788 0.75693 0.52126 0.0
H2241 H 0.83343 0.78933 0.51104 0.0
H2242 H 0.863 0.79336 0.49781 0.0
H2243 H 0.84062 0.78923 0.44577 0.0
H2244 H 0.81094 0.78492 0.45872 0.0
H2245 H 0.7275 0.83456 0.51153 0.0
H2246 H 0.74986 0.81244 0.51907 0.0
H2247 H 0.76303 0.80686 0.46374 0.0
H2248 H 0.74143 0.82972 0.45633 0.0
H2249 H 0.7916 0.80688 0.4806 0.0
H2250 H 0.73759 0.7751 0.48865 0.0
H2251 H 0.70756 0.76928 0.50006 0.0
H2252 H 0.72738 0.76952 0.55328 0.0
H2253 H 0.7575 0.77557 0.5422 0.0
C2254 C 0.83181 0.73251 0.50258 0.0
C2255 C 0.83864 0.73225 0.51987 0.0
C2256 C 0.81885 0.74485 0.49783 0.0
C2257 C 0.81234 0.75688 0.51038 0.0
C2258 C 0.81898 0.75652 0.52768 0.0
C2259 C 0.83216 0.74444 0.53234 0.0
C2260 C 0.79862 0.76993 0.50548 0.0
C2261 C 0.78156 0.76799 0.51252 0.0
C2262 C 0.80219 0.78393 0.49363 0.0
C2263 C 0.82001 0.7866 0.48585 0.0
C2264 C 0.83485 0.78911 0.49678 0.0
C2265 C 0.85162 0.79148 0.48934 0.0
C2266 C 0.8537 0.79149 0.47096 0.0
C2267 C 0.839 0.78919 0.46 0.0
C2268 C 0.8222 0.78679 0.46739 0.0
C2269 C 0.73515 0.82856 0.501 0.0
C2270 C 0.73273 0.83382 0.48335 0.0
C2271 C 0.74786 0.81581 0.50529 0.0
C2272 C 0.75798 0.80766 0.49195 0.0
C2273 C 0.75545 0.81291 0.47429 0.0
C2274 C 0.74306 0.82595 0.47006 0.0
C2275 C 0.77152 0.79404 0.49639 0.0
C2276 C 0.78863 0.79584 0.48928 0.0
C2277 C 0.76786 0.77965 0.50788 0.0
C2278 C 0.74977 0.77596 0.5146 0.0
C2279 C 0.73552 0.77404 0.50279 0.0
C2280 C 0.71849 0.77068 0.5092 0.0
C2281 C 0.71555 0.76908 0.52739 0.0
C2282 C 0.72966 0.77078 0.5392 0.0
C2283 C 0.74672 0.77416 0.53286 0.0
H2284 H 0.70236 0.76648 0.53232 0.0
H2285 H 0.8667 0.79334 0.46522 0.0
H2286 H 0.179 0.71247 0.49783 0.0
H2287 H 0.20136 0.73471 0.50515 0.0
H2288 H 0.17109 0.77438 0.47738 0.0
H2289 H 0.14913 0.75207 0.46943 0.0
H2290 H 0.20375 0.77866 0.46959 0.0
H2291 H 0.17209 0.77082 0.52412 0.0
H2292 H 0.15954 0.75404 0.54916 0.0
H2293 H 0.21154 0.73646 0.56379 0.0
H2294 H 0.22438 0.75297 0.5387 0.0
H2295 H 0.24623 0.84454 0.5369 0.0
H2296 H 0.22423 0.82222 0.52911 0.0
H2297 H 0.25972 0.80088 0.48977 0.0
H2298 H 0.28166 0.82351 0.4972 0.0
H2299 H 0.22417 0.78782 0.53126 0.0
H2300 H 0.23607 0.7838 0.45563 0.0
H2301 H 0.2459 0.80305 0.43113 0.0
H2302 H 0.22841 0.84891 0.45977 0.0
H2303 H 0.21828 0.82992 0.48431 0.0
C2304 C 0.17711 0.72595 0.49333 0.0
C2305 C 0.16229 0.73054 0.48309 0.0
C2306 C 0.18986 0.73868 0.49758 0.0
C2307 C 0.18783 0.75632 0.49201 0.0
C2308 C 0.17301 0.76088 0.4818 0.0
C2309 C 0.16042 0.74811 0.47731 0.0
C2310 C 0.20116 0.77005 0.49667 0.0
C2311 C 0.20821 0.78063 0.48309 0.0
C2312 C 0.20685 0.77286 0.5143 0.0
C2313 C 0.19917 0.76299 0.52944 0.0
C2314 C 0.18083 0.76328 0.53261 0.0
C2315 C 0.17367 0.75383 0.54682 0.0
C2316 C 0.18473 0.74415 0.55803 0.0
C2317 C 0.20298 0.74394 0.55508 0.0
C2318 C 0.21022 0.75335 0.54088 0.0
C2319 C 0.24935 0.83515 0.52653 0.0
C2320 C 0.26567 0.83585 0.51761 0.0
C2321 C 0.23677 0.82234 0.52214 0.0
C2322 C 0.24024 0.80993 0.50877 0.0
C2323 C 0.25661 0.81049 0.49994 0.0
C2324 C 0.26916 0.82341 0.50423 0.0
C2325 C 0.22673 0.79639 0.50419 0.0
C2326 C 0.21972 0.7858 0.51777 0.0
C2327 C 0.22069 0.79391 0.48664 0.0
C2328 C 0.22661 0.80544 0.47188 0.0
C2329 C 0.23428 0.79799 0.45667 0.0
C2330 C 0.23991 0.80885 0.44278 0.0
C2331 C 0.23784 0.82719 0.44392 0.0
C2332 C 0.23008 0.8347 0.45893 0.0
C2333 C 0.22441 0.8239 0.47284 0.0
H2334 H 0.24221 0.83558 0.43316 0.0
H2335 H 0.17915 0.73684 0.56902 0.0
H2336 H 0.52902 0.15424 0.24624 0.0
H2337 H 0.5225 0.17669 0.22397 0.0
H2338 H 0.48776 0.20321 0.26074 0.0
H2339 H 0.49382 0.18042 0.28294 0.0
H2340 H 0.47318 0.20309 0.22974 0.0
H2341 H 0.53012 0.21892 0.25153 0.0
H2342 H 0.56134 0.21441 0.25985 0.0
H2343 H 0.57419 0.20159 0.20601 0.0
H2344 H 0.54299 0.20579 0.19741 0.0
H2345 H 0.50018 0.28498 0.172 0.0
H2346 H 0.5065 0.26433 0.19614 0.0
H2347 H 0.47383 0.22482 0.171 0.0
H2348 H 0.46704 0.24555 0.14718 0.0
H2349 H 0.52207 0.23385 0.19844 0.0
H2350 H 0.45325 0.19953 0.20115 0.0
H2351 H 0.42194 0.20682 0.19547 0.0
H2352 H 0.43268 0.26178 0.20513 0.0
H2353 H 0.46398 0.25479 0.2111 0.0
C2354 C 0.51996 0.16483 0.24959 0.0
C2355 C 0.512 0.1656 0.26639 0.0
C2356 C 0.51632 0.17772 0.23687 0.0
C2357 C 0.50489 0.19185 0.24076 0.0
C2358 C 0.49667 0.19247 0.25743 0.0
C2359 C 0.50016 0.17945 0.27012 0.0
C2360 C 0.50146 0.20587 0.2274 0.0
C2361 C 0.48388 0.20982 0.22291 0.0
C2362 C 0.51538 0.215 0.21876 0.0
C2363 C 0.53418 0.21252 0.22386 0.0
C2364 C 0.53958 0.21502 0.24149 0.0
C2365 C 0.55728 0.21254 0.24625 0.0
C2366 C 0.56974 0.20768 0.23347 0.0
C2367 C 0.56453 0.20534 0.21589 0.0
C2368 C 0.54684 0.20778 0.21107 0.0
C2369 C 0.49438 0.27187 0.17161 0.0
C2370 C 0.48301 0.26694 0.15775 0.0
C2371 C 0.49802 0.26008 0.1854 0.0
C2372 C 0.49041 0.24311 0.18556 0.0
C2373 C 0.47952 0.23797 0.17141 0.0
C2374 C 0.47573 0.24981 0.15774 0.0
C2375 C 0.4938 0.23078 0.20051 0.0
C2376 C 0.51137 0.22714 0.20528 0.0
C2377 C 0.47985 0.22233 0.20978 0.0
C2378 C 0.461 0.22664 0.20641 0.0
C2379 C 0.44891 0.21316 0.20213 0.0
C2380 C 0.43117 0.21724 0.19885 0.0
C2381 C 0.42534 0.23475 0.19988 0.0
C2382 C 0.43722 0.24822 0.20427 0.0
C2383 C 0.45497 0.24421 0.20758 0.0
H2384 H 0.4116 0.23789 0.19732 0.0
H2385 H 0.58343 0.20577 0.23718 0.0
H2386 H 0.81964 0.50242 0.28321 0.0
H2387 H 0.79648 0.49519 0.26181 0.0
H2388 H 0.82186 0.52866 0.22305 0.0
H2389 H 0.84452 0.53656 0.24465 0.0
H2390 H 0.78858 0.53329 0.22056 0.0
H2391 H 0.82563 0.48182 0.22324 0.0
H2392 H 0.84137 0.45714 0.23764 0.0
H2393 H 0.79198 0.4362 0.25646 0.0
H2394 H 0.77596 0.4609 0.24234 0.0
H2395 H 0.75143 0.46544 0.15192 0.0
H2396 H 0.77277 0.47403 0.17452 0.0
H2397 H 0.73438 0.50966 0.19734 0.0
H2398 H 0.71318 0.50162 0.17422 0.0
H2399 H 0.77392 0.47056 0.208 0.0
H2400 H 0.75476 0.54422 0.21708 0.0
H2401 H 0.74214 0.56878 0.19966 0.0
H2402 H 0.76138 0.54508 0.15174 0.0
H2403 H 0.7743 0.5205 0.16889 0.0
C2404 C 0.82024 0.50825 0.27013 0.0
C2405 C 0.83392 0.51999 0.26557 0.0
C2406 C 0.80703 0.50406 0.25788 0.0
C2407 C 0.80754 0.51115 0.24069 0.0
C2408 C 0.82113 0.52303 0.23621 0.0
C2409 C 0.83412 0.52749 0.24855 0.0
C2410 C 0.79408 0.50611 0.22725 0.0
C2411 C 0.78536 0.51956 0.21785 0.0
C2412 C 0.79003 0.48821 0.22345 0.0
C2413 C 0.79962 0.4733 0.23189 0.0
C2414 C 0.81814 0.47202 0.23055 0.0
C2415 C 0.82711 0.45802 0.23865 0.0
C2416 C 0.81769 0.44514 0.248 0.0
C2417 C 0.79927 0.4462 0.24923 0.0
C2418 C 0.79023 0.46019 0.24117 0.0
C2419 C 0.74754 0.47515 0.16171 0.0
C2420 C 0.73066 0.48292 0.16125 0.0
C2421 C 0.75974 0.48001 0.17468 0.0
C2422 C 0.75529 0.49262 0.18758 0.0
C2423 C 0.73829 0.50017 0.18733 0.0
C2424 C 0.72615 0.49552 0.17416 0.0
C2425 C 0.76849 0.49773 0.20123 0.0
C2426 C 0.77709 0.48429 0.21075 0.0
C2427 C 0.77288 0.51562 0.20468 0.0
C2428 C 0.76531 0.53043 0.19426 0.0
C2429 C 0.75634 0.54428 0.20283 0.0
C2430 C 0.74913 0.5582 0.19301 0.0
C2431 C 0.7509 0.55846 0.1746 0.0
C2432 C 0.75995 0.54483 0.16599 0.0
C2433 C 0.7672 0.53089 0.17575 0.0
H2434 H 0.74529 0.56923 0.16702 0.0
H2435 H 0.82466 0.43431 0.25427 0.0
H2436 H 0.50116 0.71913 0.17679 0.0
H2437 H 0.4939 0.74148 0.19903 0.0
H2438 H 0.52342 0.78051 0.16952 0.0
H2439 H 0.53128 0.75807 0.14764 0.0
H2440 H 0.53041 0.78445 0.20253 0.0
H2441 H 0.47683 0.77838 0.16921 0.0
H2442 H 0.45178 0.76244 0.15567 0.0
H2443 H 0.43484 0.74474 0.20695 0.0
H2444 H 0.45993 0.7604 0.22079 0.0
H2445 H 0.46288 0.85077 0.24465 0.0
H2446 H 0.47116 0.82904 0.22224 0.0
H2447 H 0.50927 0.80634 0.25816 0.0
H2448 H 0.50138 0.82841 0.2805 0.0
H2449 H 0.46838 0.79491 0.22131 0.0
H2450 H 0.54359 0.78878 0.23514 0.0
H2451 H 0.56826 0.80724 0.24594 0.0
H2452 H 0.54119 0.8541 0.22863 0.0
H2453 H 0.51648 0.83591 0.21753 0.0
C2454 C 0.50606 0.73249 0.17504 0.0
C2455 C 0.51674 0.73686 0.16044 0.0
C2456 C 0.50185 0.74528 0.18773 0.0
C2457 C 0.50791 0.76278 0.18586 0.0
C2458 C 0.51861 0.76712 0.17129 0.0
C2459 C 0.52304 0.75428 0.15875 0.0
C2460 C 0.50322 0.77657 0.1991 0.0
C2461 C 0.51684 0.78672 0.20663 0.0
C2462 C 0.48549 0.77978 0.20428 0.0
C2463 C 0.47035 0.77042 0.19601 0.0
C2464 C 0.46783 0.77099 0.17759 0.0
C2465 C 0.45361 0.76202 0.16986 0.0
C2466 C 0.44176 0.75255 0.18044 0.0
C2467 C 0.44405 0.75207 0.19877 0.0
C2468 C 0.45826 0.761 0.20657 0.0
C2469 C 0.4731 0.84122 0.24776 0.0
C2470 C 0.48152 0.84135 0.26434 0.0
C2471 C 0.47778 0.82876 0.23494 0.0
C2472 C 0.49092 0.81611 0.23843 0.0
C2473 C 0.4993 0.81615 0.25503 0.0
C2474 C 0.49475 0.82874 0.26781 0.0
C2475 C 0.49558 0.80275 0.22477 0.0
C2476 C 0.48195 0.79262 0.21722 0.0
C2477 C 0.51324 0.79993 0.21919 0.0
C2478 C 0.52811 0.81098 0.22569 0.0
C2479 C 0.54293 0.80302 0.2336 0.0
C2480 C 0.55692 0.81343 0.23978 0.0
C2481 C 0.55626 0.83183 0.23803 0.0
C2482 C 0.54165 0.83985 0.23004 0.0
C2483 C 0.52764 0.82949 0.22383 0.0
H2484 H 0.5671 0.83988 0.24283 0.0
H2485 H 0.43076 0.74561 0.17443 0.0
H2486 H 0.15368 0.46275 0.24225 0.0
H2487 H 0.17782 0.47078 0.22233 0.0
H2488 H 0.19822 0.50697 0.26152 0.0
H2489 H 0.17353 0.49959 0.28116 0.0
H2490 H 0.20115 0.52172 0.23166 0.0
H2491 H 0.21735 0.46482 0.25293 0.0
H2492 H 0.21368 0.43317 0.25998 0.0
H2493 H 0.20622 0.42147 0.2049 0.0
H2494 H 0.20961 0.4531 0.19754 0.0
H2495 H 0.28776 0.4988 0.17842 0.0
H2496 H 0.26592 0.49119 0.20113 0.0
H2497 H 0.22755 0.52482 0.17548 0.0
H2498 H 0.24952 0.53303 0.15327 0.0
H2499 H 0.23624 0.47521 0.20139 0.0
H2500 H 0.19943 0.54292 0.20414 0.0
H2501 H 0.20621 0.57466 0.20053 0.0
H2502 H 0.26055 0.56489 0.21388 0.0
H2503 H 0.25406 0.53315 0.2178 0.0
C2504 C 0.1633 0.47244 0.2466 0.0
C2505 C 0.16177 0.48049 0.26328 0.0
C2506 C 0.17719 0.47694 0.23525 0.0
C2507 C 0.19012 0.48921 0.24052 0.0
C2508 C 0.18846 0.49743 0.25713 0.0
C2509 C 0.17436 0.49319 0.26836 0.0
C2510 C 0.20518 0.49365 0.22861 0.0
C2511 C 0.20884 0.51153 0.22509 0.0
C2512 C 0.2156 0.48042 0.22036 0.0
C2513 C 0.2136 0.46136 0.2247 0.0
C2514 C 0.21481 0.45552 0.24233 0.0
C2515 C 0.21279 0.43758 0.24638 0.0
C2516 C 0.20968 0.42532 0.2329 0.0
C2517 C 0.20862 0.43098 0.21533 0.0
C2518 C 0.21061 0.44891 0.21121 0.0
C2519 C 0.27466 0.50457 0.17766 0.0
C2520 C 0.27039 0.51662 0.16416 0.0
C2521 C 0.26218 0.5002 0.19063 0.0
C2522 C 0.24515 0.50767 0.19024 0.0
C2523 C 0.24073 0.51925 0.1764 0.0
C2524 C 0.25327 0.52386 0.16363 0.0
C2525 C 0.23194 0.50325 0.20417 0.0
C2526 C 0.22861 0.48539 0.20804 0.0
C2527 C 0.22228 0.51651 0.21326 0.0
C2528 C 0.22627 0.53563 0.2111 0.0
C2529 C 0.21281 0.54756 0.20638 0.0
C2530 C 0.21661 0.56555 0.20426 0.0
C2531 C 0.23381 0.57178 0.20692 0.0
C2532 C 0.24725 0.56004 0.21176 0.0
C2533 C 0.24352 0.54205 0.21391 0.0
H2534 H 0.23673 0.58571 0.20527 0.0
H2535 H 0.20812 0.41144 0.23606 0.0
H2536 H 0.49445 0.71081 0.82076 0.0
H2537 H 0.50225 0.73271 0.7982 0.0
H2538 H 0.47729 0.77362 0.82931 0.0
H2539 H 0.46873 0.75163 0.85139 0.0
H2540 H 0.46849 0.77835 0.79738 0.0
H2541 H 0.52427 0.76769 0.82593 0.0
H2542 H 0.54909 0.74962 0.837 0.0
H2543 H 0.55986 0.73151 0.78424 0.0
H2544 H 0.53497 0.74932 0.77288 0.0
H2545 H 0.53597 0.84143 0.75136 0.0
H2546 H 0.52857 0.81927 0.77368 0.0
H2547 H 0.48689 0.79926 0.74022 0.0
H2548 H 0.494 0.82167 0.71793 0.0
H2549 H 0.52935 0.78448 0.77353 0.0
H2550 H 0.45304 0.78428 0.76591 0.0
H2551 H 0.42906 0.80478 0.75751 0.0
H2552 H 0.46096 0.84906 0.77333 0.0
H2553 H 0.48502 0.82882 0.78204 0.0
C2554 C 0.49073 0.7245 0.8228 0.0
C2555 C 0.48101 0.72952 0.83783 0.0
C2556 C 0.49525 0.73704 0.80993 0.0
C2557 C 0.49056 0.75492 0.8121 0.0
C2558 C 0.48101 0.75993 0.82725 0.0
C2559 C 0.47619 0.74735 0.83991 0.0
C2560 C 0.49522 0.76841 0.7985 0.0
C2561 C 0.48182 0.77965 0.79218 0.0
C2562 C 0.51263 0.77034 0.7918 0.0
C2563 C 0.52766 0.75971 0.79859 0.0
C2564 C 0.53187 0.75977 0.81671 0.0
C2565 C 0.54595 0.74958 0.82303 0.0
C2566 C 0.55602 0.73939 0.81134 0.0
C2567 C 0.55204 0.7394 0.79328 0.0
C2568 C 0.53796 0.74954 0.7869 0.0
C2569 C 0.52518 0.83236 0.74875 0.0
C2570 C 0.51551 0.83337 0.73289 0.0
C2571 C 0.52102 0.81963 0.76151 0.0
C2572 C 0.50711 0.80766 0.7587 0.0
C2573 C 0.49753 0.80852 0.7428 0.0
C2574 C 0.50163 0.82131 0.73004 0.0
C2575 C 0.50264 0.79435 0.77248 0.0
C2576 C 0.51604 0.78311 0.77873 0.0
C2577 C 0.48535 0.79275 0.7795 0.0
C2578 C 0.4709 0.80503 0.77443 0.0
C2579 C 0.45491 0.79838 0.76764 0.0
C2580 C 0.44131 0.80996 0.76282 0.0
C2581 C 0.44351 0.82821 0.76482 0.0
C2582 C 0.4593 0.83493 0.77171 0.0
C2583 C 0.47293 0.82341 0.77657 0.0
H2584 H 0.43297 0.83715 0.76108 0.0
H2585 H 0.56691 0.73151 0.81626 0.0
H2586 H 0.28428 0.49836 0.82219 0.0
H2587 H 0.26227 0.50511 0.79948 0.0
H2588 H 0.22295 0.47579 0.82885 0.0
H2589 H 0.24514 0.46832 0.85111 0.0
H2590 H 0.21911 0.46844 0.7963 0.0
H2591 H 0.22525 0.52282 0.82826 0.0
H2592 H 0.24118 0.54812 0.84135 0.0
H2593 H 0.25953 0.56365 0.78985 0.0
H2594 H 0.24388 0.53831 0.77647 0.0
H2595 H 0.15357 0.53526 0.75214 0.0
H2596 H 0.17546 0.52779 0.77464 0.0
H2597 H 0.19748 0.48795 0.74015 0.0
H2598 H 0.17517 0.49497 0.71778 0.0
H2599 H 0.20938 0.53003 0.77578 0.0
H2600 H 0.2147 0.45434 0.76408 0.0
H2601 H 0.19594 0.42958 0.75401 0.0
H2602 H 0.14941 0.45772 0.77049 0.0
H2603 H 0.16789 0.48253 0.78086 0.0
C2604 C 0.27093 0.49339 0.82379 0.0
C2605 C 0.2664 0.48286 0.83844 0.0
C2606 C 0.25833 0.49731 0.81084 0.0
C2607 C 0.24084 0.4912 0.81255 0.0
C2608 C 0.23634 0.48065 0.82719 0.0
C2609 C 0.24902 0.47644 0.83994 0.0
C2610 C 0.22721 0.49566 0.79908 0.0
C2611 C 0.217 0.48192 0.79183 0.0
C2612 C 0.22419 0.51327 0.7934 0.0
C2613 C 0.23353 0.52858 0.80139 0.0
C2614 C 0.23278 0.53157 0.81974 0.0
C2615 C 0.24174 0.54593 0.82721 0.0
C2616 C 0.2514 0.55746 0.81644 0.0
C2617 C 0.25206 0.55469 0.79817 0.0
C2618 C 0.24314 0.54035 0.79064 0.0
C2619 C 0.16303 0.52486 0.74935 0.0
C2620 C 0.1626 0.51564 0.73321 0.0
C2621 C 0.17559 0.52064 0.76222 0.0
C2622 C 0.18804 0.5072 0.75919 0.0
C2623 C 0.1878 0.49814 0.74295 0.0
C2624 C 0.17508 0.50221 0.73014 0.0
C2625 C 0.20131 0.50281 0.77301 0.0
C2626 C 0.2115 0.51655 0.78026 0.0
C2627 C 0.2039 0.48529 0.77912 0.0
C2628 C 0.19268 0.47037 0.77306 0.0
C2629 C 0.20047 0.45521 0.7656 0.0
C2630 C 0.18989 0.44117 0.75983 0.0
C2631 C 0.17149 0.4421 0.76155 0.0
C2632 C 0.16365 0.45704 0.7691 0.0
C2633 C 0.17417 0.47111 0.7749 0.0
H2634 H 0.16333 0.43122 0.75707 0.0
H2635 H 0.25833 0.56856 0.82225 0.0
H2636 H 0.50822 0.16035 0.72345 0.0
H2637 H 0.51616 0.1831 0.74523 0.0
H2638 H 0.46185 0.18565 0.76254 0.0
H2639 H 0.45389 0.16261 0.74119 0.0
H2640 H 0.48091 0.22016 0.75435 0.0
H2641 H 0.48501 0.16555 0.78813 0.0
H2642 H 0.49585 0.13524 0.79341 0.0
H2643 H 0.54949 0.15399 0.79256 0.0
H2644 H 0.53896 0.1844 0.787 0.0
H2645 H 0.48999 0.27284 0.8313 0.0
H2646 H 0.48182 0.25034 0.80952 0.0
H2647 H 0.53613 0.2327 0.80737 0.0
H2648 H 0.54407 0.25445 0.82987 0.0
H2649 H 0.51706 0.20557 0.80713 0.0
H2650 H 0.51516 0.25926 0.7738 0.0
H2651 H 0.50641 0.28988 0.76667 0.0
H2652 H 0.45191 0.274 0.76406 0.0
H2653 H 0.46031 0.24331 0.77141 0.0
C2654 C 0.49799 0.16576 0.73191 0.0
C2655 C 0.48045 0.15968 0.73068 0.0
C2656 C 0.50254 0.17872 0.74432 0.0
C2657 C 0.48956 0.186 0.75543 0.0
C2658 C 0.47201 0.18017 0.75404 0.0
C2659 C 0.46752 0.16697 0.74191 0.0
C2660 C 0.49433 0.19957 0.76868 0.0
C2661 C 0.48864 0.21702 0.76602 0.0
C2662 C 0.50488 0.19546 0.78352 0.0
C2663 C 0.5112 0.17721 0.78694 0.0
C2664 C 0.49912 0.16318 0.78889 0.0
C2665 C 0.50521 0.14599 0.79198 0.0
C2666 C 0.52335 0.14268 0.79327 0.0
C2667 C 0.53544 0.15657 0.79152 0.0
C2668 C 0.52942 0.17379 0.78842 0.0
C2669 C 0.50015 0.26414 0.82615 0.0
C2670 C 0.51765 0.26539 0.83225 0.0
C2671 C 0.49551 0.25136 0.8136 0.0
C2672 C 0.50841 0.23996 0.80649 0.0
C2673 C 0.52591 0.24126 0.81262 0.0
C2674 C 0.53045 0.25374 0.82546 0.0
C2675 C 0.50368 0.22644 0.79294 0.0
C2676 C 0.50936 0.20891 0.79549 0.0
C2677 C 0.49346 0.23059 0.77777 0.0
C2678 C 0.48835 0.24903 0.77333 0.0
C2679 C 0.5013 0.26233 0.77183 0.0
C2680 C 0.4964 0.27969 0.76773 0.0
C2681 C 0.47862 0.28389 0.76496 0.0
C2682 C 0.46569 0.27073 0.76624 0.0
C2683 C 0.47051 0.25334 0.77035 0.0
H2684 H 0.47485 0.29734 0.76179 0.0
H2685 H 0.52804 0.12936 0.79566 0.0
H2686 H 0.71442 0.49701 0.82073 0.0
H2687 H 0.73599 0.48979 0.79768 0.0
H2688 H 0.7726 0.52748 0.82008 0.0
H2689 H 0.75081 0.53528 0.84261 0.0
H2690 H 0.77434 0.53009 0.78654 0.0
H2691 H 0.77591 0.48123 0.82692 0.0
H2692 H 0.76366 0.45668 0.84461 0.0
H2693 H 0.74572 0.43107 0.7972 0.0
H2694 H 0.75768 0.45559 0.77923 0.0
H2695 H 0.84674 0.46452 0.7519 0.0
H2696 H 0.82412 0.47299 0.77334 0.0
H2697 H 0.79833 0.50488 0.73359 0.0
H2698 H 0.82147 0.49707 0.7123 0.0
H2699 H 0.79111 0.46757 0.77573 0.0
H2700 H 0.77657 0.53909 0.75215 0.0
H2701 H 0.79203 0.56396 0.73766 0.0
H2702 H 0.84181 0.5448 0.75722 0.0
H2703 H 0.82662 0.51996 0.772 0.0
C2704 C 0.72706 0.50377 0.82069 0.0
C2705 C 0.73096 0.51666 0.83351 0.0
C2706 C 0.73942 0.49959 0.80756 0.0
C2707 C 0.75607 0.50789 0.80727 0.0
C2708 C 0.75986 0.52091 0.81997 0.0
C2709 C 0.74741 0.52532 0.83289 0.0
C2710 C 0.76967 0.50293 0.79393 0.0
C2711 C 0.77798 0.51641 0.78417 0.0
C2712 C 0.7747 0.48512 0.791 0.0
C2713 C 0.76753 0.47033 0.80175 0.0
C2714 C 0.76925 0.47042 0.82028 0.0
C2715 C 0.76237 0.4565 0.83035 0.0
C2716 C 0.75387 0.44235 0.82204 0.0
C2717 C 0.75228 0.44206 0.80362 0.0
C2718 C 0.75911 0.45595 0.79349 0.0
C2719 C 0.83629 0.4734 0.74775 0.0
C2720 C 0.83592 0.48021 0.73046 0.0
C2721 C 0.82332 0.47819 0.76 0.0
C2722 C 0.80957 0.48973 0.75518 0.0
C2723 C 0.809 0.49628 0.73778 0.0
C2724 C 0.82218 0.49175 0.72559 0.0
C2725 C 0.79586 0.49473 0.7684 0.0
C2726 C 0.78745 0.48125 0.77806 0.0
C2727 C 0.79122 0.51259 0.77171 0.0
C2728 C 0.80046 0.52757 0.76301 0.0
C2729 C 0.7908 0.54023 0.7534 0.0
C2730 C 0.79952 0.55431 0.74513 0.0
C2731 C 0.8179 0.55592 0.74646 0.0
C2732 C 0.82758 0.5435 0.75613 0.0
C2733 C 0.81893 0.5294 0.76444 0.0
H2734 H 0.82462 0.56682 0.74004 0.0
H2735 H 0.74855 0.43158 0.82986 0.0
loop_
_geom_bond_atom_site_label_1
_geom_bond_atom_site_label_2
_geom_bond_distance
_geom_bond_site_symmetry_2
_ccdc_geom_bond_type
O0 Cd1 2.223 . S
O0 C8 1.315 . S
Cd1 O0 2.223 . S
Cd1 O4 2.297 . S
Cd1 O5 2.439 . S
Cd1 O11 2.240 . S
Cd2 O3 2.240 . S
Cd2 O10 2.223 . S
Cd2 O12 2.297 . S
Cd2 O13 2.439 . S
O3 Cd2 2.240 . S
O3 C8 1.279 . S
O4 Cd1 2.297 . S
O4 C6 1.247 . S
O5 Cd1 2.439 . S
O5 C6 1.208 . S
C6 O4 1.247 . S
C6 O5 1.208 . S
C7 O12 1.247 . S
C7 O13 1.208 . S
C8 O0 1.315 . S
C8 O3 1.279 . S
C9 O10 1.315 . S
C9 O11 1.279 . S
O10 Cd2 2.223 . S
O10 C9 1.315 . S
O11 Cd1 2.240 . S
O11 C9 1.279 . S
O12 Cd2 2.297 . S
O12 C7 1.247 . S
O13 Cd2 2.439 . S
O13 C7 1.208 . S
O14 Cd15 2.223 . S
O14 C22 1.315 . S
Cd15 O14 2.223 . S
Cd15 O18 2.297 . S
Cd15 O19 2.439 . S
Cd15 O25 2.240 . S
Cd16 O17 2.240 . S
Cd16 O24 2.223 . S
Cd16 O26 2.297 . S
Cd16 O27 2.439 . S
O17 Cd16 2.240 . S
O17 C22 1.279 . S
O18 Cd15 2.297 . S
O18 C20 1.247 . S
O19 Cd15 2.439 . S
O19 C20 1.208 . S
C20 O18 1.247 . S
C20 O19 1.208 . S
C21 O26 1.247 . S
C21 O27 1.208 . S
C22 O14 1.315 . S
C22 O17 1.279 . S
C23 O24 1.315 . S
C23 O25 1.279 . S
O24 Cd16 2.223 . S
O24 C23 1.315 . S
O25 Cd15 2.240 . S
O25 C23 1.279 . S
O26 Cd16 2.297 . S
O26 C21 1.247 . S
O27 Cd16 2.439 . S
O27 C21 1.208 . S
O28 Cd29 2.223 . S
O28 C36 1.315 . S
Cd29 O28 2.223 . S
Cd29 O32 2.297 . S
Cd29 O33 2.439 . S
Cd29 O39 2.240 . S
Cd30 O31 2.240 . S
Cd30 O38 2.223 . S
Cd30 O40 2.297 . S
Cd30 O41 2.439 . S
O31 Cd30 2.240 . S
O31 C36 1.279 . S
O32 Cd29 2.297 . S
O32 C34 1.247 . S
O33 Cd29 2.439 . S
O33 C34 1.208 . S
C34 O32 1.247 . S
C34 O33 1.208 . S
C35 O40 1.247 . S
C35 O41 1.208 . S
C36 O28 1.315 . S
C36 O31 1.279 . S
C37 O38 1.315 . S
C37 O39 1.279 . S
O38 Cd30 2.223 . S
O38 C37 1.315 . S
O39 Cd29 2.240 . S
O39 C37 1.279 . S
O40 Cd30 2.297 . S
O40 C35 1.247 . S
O41 Cd30 2.439 . S
O41 C35 1.208 . S
O42 Cd43 2.223 . S
O42 C50 1.315 . S
Cd43 O42 2.223 . S
Cd43 O46 2.297 . S
Cd43 O47 2.439 . S
Cd43 O53 2.240 . S
Cd44 O45 2.240 . S
Cd44 O52 2.223 . S
Cd44 O54 2.297 . S
Cd44 O55 2.439 . S
O45 Cd44 2.240 . S
O45 C50 1.279 . S
O46 Cd43 2.297 . S
O46 C48 1.247 . S
O47 Cd43 2.439 . S
O47 C48 1.208 . S
C48 O46 1.247 . S
C48 O47 1.208 . S
C49 O54 1.247 . S
C49 O55 1.208 . S
C50 O42 1.315 . S
C50 O45 1.279 . S
C51 O52 1.315 . S
C51 O53 1.279 . S
O52 Cd44 2.223 . S
O52 C51 1.315 . S
O53 Cd43 2.240 . S
O53 C51 1.279 . S
O54 Cd44 2.297 . S
O54 C49 1.247 . S
O55 Cd44 2.439 . S
O55 C49 1.208 . S
O56 Cd57 2.223 . S
O56 C64 1.315 . S
Cd57 O56 2.223 . S
Cd57 O60 2.297 . S
Cd57 O61 2.439 . S
Cd57 O67 2.240 . S
Cd58 O59 2.240 . S
Cd58 O66 2.223 . S
Cd58 O68 2.297 . S
Cd58 O69 2.439 . S
O59 Cd58 2.240 . S
O59 C64 1.279 . S
O60 Cd57 2.297 . S
O60 C62 1.247 . S
O61 Cd57 2.439 . S
O61 C62 1.208 . S
C62 O60 1.247 . S
C62 O61 1.208 . S
C63 O68 1.247 . S
C63 O69 1.208 . S
C64 O56 1.315 . S
C64 O59 1.279 . S
C65 O66 1.315 . S
C65 O67 1.279 . S
O66 Cd58 2.223 . S
O66 C65 1.315 . S
O67 Cd57 2.240 . S
O67 C65 1.279 . S
O68 Cd58 2.297 . S
O68 C63 1.247 . S
O69 Cd58 2.439 . S
O69 C63 1.208 . S
O70 Cd71 2.223 . S
O70 C78 1.315 . S
Cd71 O70 2.223 . S
Cd71 O74 2.297 . S
Cd71 O75 2.439 . S
Cd71 O81 2.240 . S
Cd72 O73 2.240 . S
Cd72 O80 2.223 . S
Cd72 O82 2.297 . S
Cd72 O83 2.439 . S
O73 Cd72 2.240 . S
O73 C78 1.279 . S
O74 Cd71 2.297 . S
O74 C76 1.247 . S
O75 Cd71 2.439 . S
O75 C76 1.208 . S
C76 O74 1.247 . S
C76 O75 1.208 . S
C77 O82 1.247 . S
C77 O83 1.208 . S
C78 O70 1.315 . S
C78 O73 1.279 . S
C79 O80 1.315 . S
C79 O81 1.279 . S
O80 Cd72 2.223 . S
O80 C79 1.315 . S
O81 Cd71 2.240 . S
O81 C79 1.279 . S
O82 Cd72 2.297 . S
O82 C77 1.247 . S
O83 Cd72 2.439 . S
O83 C77 1.208 . S
O84 Cd85 2.223 . S
O84 C92 1.315 . S
Cd85 O84 2.223 . S
Cd85 O88 2.297 . S
Cd85 O89 2.439 . S
Cd85 O95 2.240 . S
Cd86 O87 2.240 . S
Cd86 O94 2.223 . S
Cd86 O96 2.297 . S
Cd86 O97 2.439 . S
O87 Cd86 2.240 . S
O87 C92 1.279 . S
O88 Cd85 2.297 . S
O88 C90 1.247 . S
O89 Cd85 2.439 . S
O89 C90 1.208 . S
C90 O88 1.247 . S
C90 O89 1.208 . S
C91 O96 1.247 . S
C91 O97 1.208 . S
C92 O84 1.315 . S
C92 O87 1.279 . S
C93 O94 1.315 . S
C93 O95 1.279 . S
O94 Cd86 2.223 . S
O94 C93 1.315 . S
O95 Cd85 2.240 . S
O95 C93 1.279 . S
O96 Cd86 2.297 . S
O96 C91 1.247 . S
O97 Cd86 2.439 . S
O97 C91 1.208 . S
O98 Cd99 2.223 . S
O98 C106 1.315 . S
Cd99 O98 2.223 . S
Cd99 O102 2.297 . S
Cd99 O103 2.439 . S
Cd99 O109 2.240 . S
Cd100 O101 2.240 . S
Cd100 O108 2.223 . S
Cd100 O110 2.297 . S
Cd100 O111 2.439 . S
O101 Cd100 2.240 . S
O101 C106 1.279 . S
O102 Cd99 2.297 . S
O102 C104 1.247 . S
O103 Cd99 2.439 . S
O103 C104 1.208 . S
C104 O102 1.247 . S
C104 O103 1.208 . S
C105 O110 1.247 . S
C105 O111 1.208 . S
C106 O98 1.315 . S
C106 O101 1.279 . S
C107 O108 1.315 . S
C107 O109 1.279 . S
O108 Cd100 2.223 . S
O108 C107 1.315 . S
O109 Cd99 2.240 . S
O109 C107 1.279 . S
O110 Cd100 2.297 . S
O110 C105 1.247 . S
O111 Cd100 2.439 . S
O111 C105 1.208 . S
O112 Cd113 2.223 . S
O112 C120 1.315 . S
Cd113 O112 2.223 . S
Cd113 O116 2.297 . S
Cd113 O117 2.439 . S
Cd113 O123 2.240 . S
Cd114 O115 2.240 . S
Cd114 O122 2.223 . S
Cd114 O124 2.297 . S
Cd114 O125 2.439 . S
O115 Cd114 2.240 . S
O115 C120 1.279 . S
O116 Cd113 2.297 . S
O116 C118 1.247 . S
O117 Cd113 2.439 . S
O117 C118 1.208 . S
C118 O116 1.247 . S
C118 O117 1.208 . S
C119 O124 1.247 . S
C119 O125 1.208 . S
C120 O112 1.315 . S
C120 O115 1.279 . S
C121 O122 1.315 . S
C121 O123 1.279 . S
O122 Cd114 2.223 . S
O122 C121 1.315 . S
O123 Cd113 2.240 . S
O123 C121 1.279 . S
O124 Cd114 2.297 . S
O124 C119 1.247 . S
O125 Cd114 2.439 . S
O125 C119 1.208 . S
O126 Cd127 2.223 . S
O126 C134 1.315 . S
Cd127 O126 2.223 . S
Cd127 O130 2.297 . S
Cd127 O131 2.439 . S
Cd127 O137 2.240 . S
Cd128 O129 2.240 . S
Cd128 O136 2.223 . S
Cd128 O138 2.297 . S
Cd128 O139 2.439 . S
O129 Cd128 2.240 . S
O129 C134 1.279 . S
O130 Cd127 2.297 . S
O130 C132 1.247 . S
O131 Cd127 2.439 . S
O131 C132 1.208 . S
C132 O130 1.247 . S
C132 O131 1.208 . S
C133 O138 1.247 . S
C133 O139 1.208 . S
C134 O126 1.315 . S
C134 O129 1.279 . S
C135 O136 1.315 . S
C135 O137 1.279 . S
O136 Cd128 2.223 . S
O136 C135 1.315 . S
O137 Cd127 2.240 . S
O137 C135 1.279 . S
O138 Cd128 2.297 . S
O138 C133 1.247 . S
O139 Cd128 2.439 . S
O139 C133 1.208 . S
O140 Cd141 2.223 . S
O140 C148 1.315 . S
Cd141 O140 2.223 . S
Cd141 O144 2.297 . S
Cd141 O145 2.439 . S
Cd141 O151 2.240 . S
Cd142 O143 2.240 . S
Cd142 O150 2.223 . S
Cd142 O152 2.297 . S
Cd142 O153 2.439 . S
O143 Cd142 2.240 . S
O143 C148 1.279 . S
O144 Cd141 2.297 . S
O144 C146 1.247 . S
O145 Cd141 2.439 . S
O145 C146 1.208 . S
C146 O144 1.247 . S
C146 O145 1.208 . S
C147 O152 1.247 . S
C147 O153 1.208 . S
C148 O140 1.315 . S
C148 O143 1.279 . S
C149 O150 1.315 . S
C149 O151 1.279 . S
O150 Cd142 2.223 . S
O150 C149 1.315 . S
O151 Cd141 2.240 . S
O151 C149 1.279 . S
O152 Cd142 2.297 . S
O152 C147 1.247 . S
O153 Cd142 2.439 . S
O153 C147 1.208 . S
O154 Cd155 2.223 . S
O154 C162 1.315 . S
Cd155 O154 2.223 . S
Cd155 O158 2.297 . S
Cd155 O159 2.439 . S
Cd155 O165 2.240 . S
Cd156 O157 2.240 . S
Cd156 O164 2.223 . S
Cd156 O166 2.297 . S
Cd156 O167 2.439 . S
O157 Cd156 2.240 . S
O157 C162 1.279 . S
O158 Cd155 2.297 . S
O158 C160 1.247 . S
O159 Cd155 2.439 . S
O159 C160 1.208 . S
C160 O158 1.247 . S
C160 O159 1.208 . S
C161 O166 1.247 . S
C161 O167 1.208 . S
C162 O154 1.315 . S
C162 O157 1.279 . S
C163 O164 1.315 . S
C163 O165 1.279 . S
O164 Cd156 2.223 . S
O164 C163 1.315 . S
O165 Cd155 2.240 . S
O165 C163 1.279 . S
O166 Cd156 2.297 . S
O166 C161 1.247 . S
O167 Cd156 2.439 . S
O167 C161 1.208 . S
O168 Cd169 2.223 . S
O168 C176 1.315 . S
Cd169 O168 2.223 . S
Cd169 O172 2.297 . S
Cd169 O173 2.439 . S
Cd169 O179 2.240 . S
Cd170 O171 2.240 . S
Cd170 O178 2.223 . S
Cd170 O180 2.297 . S
Cd170 O181 2.439 . S
O171 Cd170 2.240 . S
O171 C176 1.279 . S
O172 Cd169 2.297 . S
O172 C174 1.247 . S
O173 Cd169 2.439 . S
O173 C174 1.208 . S
C174 O172 1.247 . S
C174 O173 1.208 . S
C175 O180 1.247 . S
C175 O181 1.208 . S
C176 O168 1.315 . S
C176 O171 1.279 . S
C177 O178 1.315 . S
C177 O179 1.279 . S
O178 Cd170 2.223 . S
O178 C177 1.315 . S
O179 Cd169 2.240 . S
O179 C177 1.279 . S
O180 Cd170 2.297 . S
O180 C175 1.247 . S
O181 Cd170 2.439 . S
O181 C175 1.208 . S
O182 Cd183 2.223 . S
O182 C190 1.315 . S
Cd183 O182 2.223 . S
Cd183 O186 2.297 . S
Cd183 O187 2.439 . S
Cd183 O193 2.240 . S
Cd184 O185 2.240 . S
Cd184 O192 2.223 . S
Cd184 O194 2.297 . S
Cd184 O195 2.439 . S
O185 Cd184 2.240 . S
O185 C190 1.279 . S
O186 Cd183 2.297 . S
O186 C188 1.247 . S
O187 Cd183 2.439 . S
O187 C188 1.208 . S
C188 O186 1.247 . S
C188 O187 1.208 . S
C189 O194 1.247 . S
C189 O195 1.208 . S
C190 O182 1.315 . S
C190 O185 1.279 . S
C191 O192 1.315 . S
C191 O193 1.279 . S
O192 Cd184 2.223 . S
O192 C191 1.315 . S
O193 Cd183 2.240 . S
O193 C191 1.279 . S
O194 Cd184 2.297 . S
O194 C189 1.247 . S
O195 Cd184 2.439 . S
O195 C189 1.208 . S
O196 Cd197 2.223 . S
O196 C204 1.315 . S
Cd197 O196 2.223 . S
Cd197 O200 2.297 . S
Cd197 O201 2.439 . S
Cd197 O207 2.240 . S
Cd198 O199 2.240 . S
Cd198 O206 2.223 . S
Cd198 O208 2.297 . S
Cd198 O209 2.439 . S
O199 Cd198 2.240 . S
O199 C204 1.279 . S
O200 Cd197 2.297 . S
O200 C202 1.247 . S
O201 Cd197 2.439 . S
O201 C202 1.208 . S
C202 O200 1.247 . S
C202 O201 1.208 . S
C203 O208 1.247 . S
C203 O209 1.208 . S
C204 O196 1.315 . S
C204 O199 1.279 . S
C205 O206 1.315 . S
C205 O207 1.279 . S
O206 Cd198 2.223 . S
O206 C205 1.315 . S
O207 Cd197 2.240 . S
O207 C205 1.279 . S
O208 Cd198 2.297 . S
O208 C203 1.247 . S
O209 Cd198 2.439 . S
O209 C203 1.208 . S
O210 Cd211 2.223 . S
O210 C218 1.315 . S
Cd211 O210 2.223 . S
Cd211 O214 2.297 . S
Cd211 O215 2.439 . S
Cd211 O221 2.240 . S
Cd212 O213 2.240 . S
Cd212 O220 2.223 . S
Cd212 O222 2.297 . S
Cd212 O223 2.439 . S
O213 Cd212 2.240 . S
O213 C218 1.279 . S
O214 Cd211 2.297 . S
O214 C216 1.247 . S
O215 Cd211 2.439 . S
O215 C216 1.208 . S
C216 O214 1.247 . S
C216 O215 1.208 . S
C217 O222 1.247 . S
C217 O223 1.208 . S
C218 O210 1.315 . S
C218 O213 1.279 . S
C219 O220 1.315 . S
C219 O221 1.279 . S
O220 Cd212 2.223 . S
O220 C219 1.315 . S
O221 Cd211 2.240 . S
O221 C219 1.279 . S
O222 Cd212 2.297 . S
O222 C217 1.247 . S
O223 Cd212 2.439 . S
O223 C217 1.208 . S
O224 Cd225 2.223 . S
O224 C232 1.315 . S
Cd225 O224 2.223 . S
Cd225 O228 2.297 . S
Cd225 O229 2.439 . S
Cd225 O235 2.240 . S
Cd226 O227 2.240 . S
Cd226 O234 2.223 . S
Cd226 O236 2.297 . S
Cd226 O237 2.439 . S
O227 Cd226 2.240 . S
O227 C232 1.279 . S
O228 Cd225 2.297 . S
O228 C230 1.247 . S
O229 Cd225 2.439 . S
O229 C230 1.208 . S
C230 O228 1.247 . S
C230 O229 1.208 . S
C231 O236 1.247 . S
C231 O237 1.208 . S
C232 O224 1.315 . S
C232 O227 1.279 . S
C233 O234 1.315 . S
C233 O235 1.279 . S
O234 Cd226 2.223 . S
O234 C233 1.315 . S
O235 Cd225 2.240 . S
O235 C233 1.279 . S
O236 Cd226 2.297 . S
O236 C231 1.247 . S
O237 Cd226 2.439 . S
O237 C231 1.208 . S
O238 Cd239 2.223 . S
O238 C246 1.315 . S
Cd239 O238 2.223 . S
Cd239 O242 2.297 . S
Cd239 O243 2.439 . S
Cd239 O249 2.240 . S
Cd240 O241 2.240 . S
Cd240 O248 2.223 . S
Cd240 O250 2.297 . S
Cd240 O251 2.439 . S
O241 Cd240 2.240 . S
O241 C246 1.279 . S
O242 Cd239 2.297 . S
O242 C244 1.247 . S
O243 Cd239 2.439 . S
O243 C244 1.208 . S
C244 O242 1.247 . S
C244 O243 1.208 . S
C245 O250 1.247 . S
C245 O251 1.208 . S
C246 O238 1.315 . S
C246 O241 1.279 . S
C247 O248 1.315 . S
C247 O249 1.279 . S
O248 Cd240 2.223 . S
O248 C247 1.315 . S
O249 Cd239 2.240 . S
O249 C247 1.279 . S
O250 Cd240 2.297 . S
O250 C245 1.247 . S
O251 Cd240 2.439 . S
O251 C245 1.208 . S
O252 Cd253 2.223 . S
O252 C260 1.315 . S
Cd253 O252 2.223 . S
Cd253 O256 2.297 . S
Cd253 O257 2.439 . S
Cd253 O263 2.240 . S
Cd254 O255 2.240 . S
Cd254 O262 2.223 . S
Cd254 O264 2.297 . S
Cd254 O265 2.439 . S
O255 Cd254 2.240 . S
O255 C260 1.279 . S
O256 Cd253 2.297 . S
O256 C258 1.247 . S
O257 Cd253 2.439 . S
O257 C258 1.208 . S
C258 O256 1.247 . S
C258 O257 1.208 . S
C259 O264 1.247 . S
C259 O265 1.208 . S
C260 O252 1.315 . S
C260 O255 1.279 . S
C261 O262 1.315 . S
C261 O263 1.279 . S
O262 Cd254 2.223 . S
O262 C261 1.315 . S
O263 Cd253 2.240 . S
O263 C261 1.279 . S
O264 Cd254 2.297 . S
O264 C259 1.247 . S
O265 Cd254 2.439 . S
O265 C259 1.208 . S
O266 Cd267 2.223 . S
O266 C274 1.315 . S
Cd267 O266 2.223 . S
Cd267 O270 2.297 . S
Cd267 O271 2.439 . S
Cd267 O277 2.240 . S
Cd268 O269 2.240 . S
Cd268 O276 2.223 . S
Cd268 O278 2.297 . S
Cd268 O279 2.439 . S
O269 Cd268 2.240 . S
O269 C274 1.279 . S
O270 Cd267 2.297 . S
O270 C272 1.247 . S
O271 Cd267 2.439 . S
O271 C272 1.208 . S
C272 O270 1.247 . S
C272 O271 1.208 . S
C273 O278 1.247 . S
C273 O279 1.208 . S
C274 O266 1.315 . S
C274 O269 1.279 . S
C275 O276 1.315 . S
C275 O277 1.279 . S
O276 Cd268 2.223 . S
O276 C275 1.315 . S
O277 Cd267 2.240 . S
O277 C275 1.279 . S
O278 Cd268 2.297 . S
O278 C273 1.247 . S
O279 Cd268 2.439 . S
O279 C273 1.208 . S
O280 Cd281 2.223 . S
O280 C288 1.315 . S
Cd281 O280 2.223 . S
Cd281 O284 2.297 . S
Cd281 O285 2.439 . S
Cd281 O291 2.240 . S
Cd282 O283 2.240 . S
Cd282 O290 2.223 . S
Cd282 O292 2.297 . S
Cd282 O293 2.439 . S
O283 Cd282 2.240 . S
O283 C288 1.279 . S
O284 Cd281 2.297 . S
O284 C286 1.247 . S
O285 Cd281 2.439 . S
O285 C286 1.208 . S
C286 O284 1.247 . S
C286 O285 1.208 . S
C287 O292 1.247 . S
C287 O293 1.208 . S
C288 O280 1.315 . S
C288 O283 1.279 . S
C289 O290 1.315 . S
C289 O291 1.279 . S
O290 Cd282 2.223 . S
O290 C289 1.315 . S
O291 Cd281 2.240 . S
O291 C289 1.279 . S
O292 Cd282 2.297 . S
O292 C287 1.247 . S
O293 Cd282 2.439 . S
O293 C287 1.208 . S
O294 Cd295 2.223 . S
O294 C302 1.315 . S
Cd295 O294 2.223 . S
Cd295 O298 2.297 . S
Cd295 O299 2.439 . S
Cd295 O305 2.240 . S
Cd296 O297 2.240 . S
Cd296 O304 2.223 . S
Cd296 O306 2.297 . S
Cd296 O307 2.439 . S
O297 Cd296 2.240 . S
O297 C302 1.279 . S
O298 Cd295 2.297 . S
O298 C300 1.247 . S
O299 Cd295 2.439 . S
O299 C300 1.208 . S
C300 O298 1.247 . S
C300 O299 1.208 . S
C301 O306 1.247 . S
C301 O307 1.208 . S
C302 O294 1.315 . S
C302 O297 1.279 . S
C303 O304 1.315 . S
C303 O305 1.279 . S
O304 Cd296 2.223 . S
O304 C303 1.315 . S
O305 Cd295 2.240 . S
O305 C303 1.279 . S
O306 Cd296 2.297 . S
O306 C301 1.247 . S
O307 Cd296 2.439 . S
O307 C301 1.208 . S
O308 Cd309 2.223 . S
O308 C316 1.315 . S
Cd309 O308 2.223 . S
Cd309 O312 2.297 . S
Cd309 O313 2.439 . S
Cd309 O319 2.240 . S
Cd310 O311 2.240 . S
Cd310 O318 2.223 . S
Cd310 O320 2.297 . S
Cd310 O321 2.439 . S
O311 Cd310 2.240 . S
O311 C316 1.279 . S
O312 Cd309 2.297 . S
O312 C314 1.247 . S
O313 Cd309 2.439 . S
O313 C314 1.208 . S
C314 O312 1.247 . S
C314 O313 1.208 . S
C315 O320 1.247 . S
C315 O321 1.208 . S
C316 O308 1.315 . S
C316 O311 1.279 . S
C317 O318 1.315 . S
C317 O319 1.279 . S
O318 Cd310 2.223 . S
O318 C317 1.315 . S
O319 Cd309 2.240 . S
O319 C317 1.279 . S
O320 Cd310 2.297 . S
O320 C315 1.247 . S
O321 Cd310 2.439 . S
O321 C315 1.208 . S
O322 Cd323 2.223 . S
O322 C330 1.315 . S
Cd323 O322 2.223 . S
Cd323 O326 2.297 . S
Cd323 O327 2.439 . S
Cd323 O333 2.240 . S
Cd324 O325 2.240 . S
Cd324 O332 2.223 . S
Cd324 O334 2.297 . S
Cd324 O335 2.439 . S
O325 Cd324 2.240 . S
O325 C330 1.279 . S
O326 Cd323 2.297 . S
O326 C328 1.247 . S
O327 Cd323 2.439 . S
O327 C328 1.208 . S
C328 O326 1.247 . S
C328 O327 1.208 . S
C329 O334 1.247 . S
C329 O335 1.208 . S
C330 O322 1.315 . S
C330 O325 1.279 . S
C331 O332 1.315 . S
C331 O333 1.279 . S
O332 Cd324 2.223 . S
O332 C331 1.315 . S
O333 Cd323 2.240 . S
O333 C331 1.279 . S
O334 Cd324 2.297 . S
O334 C329 1.247 . S
O335 Cd324 2.439 . S
O335 C329 1.208 . S
H336 C354 0.951 . S
H337 C356 0.951 . S
H338 C358 0.950 . S
H339 C359 0.950 . S
H340 C361 0.950 . S
H341 C364 0.950 . S
H342 C365 0.950 . S
H343 C367 0.950 . S
H344 C368 0.950 . S
H345 C369 0.951 . S
H346 C371 0.951 . S
H347 C373 0.950 . S
H348 C374 0.950 . S
H349 C376 0.950 . S
H350 C379 0.950 . S
H351 C380 0.950 . S
H352 C382 0.950 . S
H353 C383 0.950 . S
C354 H336 0.951 . S
C354 C355 1.366 . S
C354 C356 1.388 . S
C355 C354 1.366 . S
C355 C359 1.385 . S
C356 H337 0.951 . S
C356 C354 1.388 . S
C356 C357 1.366 . S
C357 C356 1.366 . S
C357 C358 1.414 . S
C357 C360 1.499 . S
C358 H338 0.950 . S
C358 C357 1.414 . S
C358 C359 1.374 . S
C359 H339 0.950 . S
C359 C355 1.385 . S
C359 C358 1.374 . S
C360 C357 1.499 . S
C360 C361 1.373 . S
C360 C362 1.389 . S
C361 H340 0.950 . S
C361 C360 1.373 . S
C361 C377 1.377 . S
C362 C360 1.389 . S
C362 C363 1.524 . S
C362 C376 1.377 . S
C363 C362 1.524 . S
C363 C364 1.397 . S
C363 C368 1.363 . S
C364 H341 0.950 . S
C364 C363 1.397 . S
C364 C365 1.334 . S
C365 H342 0.950 . S
C365 C364 1.334 . S
C365 C366 1.287 . S
C366 C365 1.287 . S
C366 C367 1.524 . S
C366 H385 0.913 . S
C367 H343 0.950 . S
C367 C366 1.524 . S
C367 C368 1.415 . S
C368 H344 0.950 . S
C368 C363 1.363 . S
C368 C367 1.415 . S
C369 H345 0.951 . S
C369 C370 1.366 . S
C369 C371 1.388 . S
C370 C369 1.366 . S
C370 C374 1.385 . S
C371 H346 0.951 . S
C371 C369 1.388 . S
C371 C372 1.366 . S
C372 C371 1.366 . S
C372 C373 1.414 . S
C372 C375 1.499 . S
C373 H347 0.950 . S
C373 C372 1.414 . S
C373 C374 1.374 . S
C374 H348 0.950 . S
C374 C370 1.385 . S
C374 C373 1.374 . S
C375 C372 1.499 . S
C375 C376 1.373 . S
C375 C377 1.389 . S
C376 H349 0.950 . S
C376 C362 1.377 . S
C376 C375 1.373 . S
C377 C361 1.377 . S
C377 C375 1.389 . S
C377 C378 1.524 . S
C378 C377 1.524 . S
C378 C379 1.397 . S
C378 C383 1.363 . S
C379 H350 0.950 . S
C379 C378 1.397 . S
C379 C380 1.334 . S
C380 H351 0.950 . S
C380 C379 1.334 . S
C380 C381 1.287 . S
C381 C380 1.287 . S
C381 C382 1.524 . S
C381 H384 0.999 . S
C382 H352 0.950 . S
C382 C381 1.524 . S
C382 C383 1.415 . S
C383 H353 0.950 . S
C383 C378 1.363 . S
C383 C382 1.415 . S
H384 C381 0.999 . S
H385 C366 0.913 . S
H386 C404 0.951 . S
H387 C406 0.951 . S
H388 C408 0.950 . S
H389 C409 0.950 . S
H390 C411 0.950 . S
H391 C414 0.950 . S
H392 C415 0.950 . S
H393 C417 0.950 . S
H394 C418 0.950 . S
H395 C419 0.951 . S
H396 C421 0.951 . S
H397 C423 0.950 . S
H398 C424 0.950 . S
H399 C426 0.950 . S
H400 C429 0.950 . S
H401 C430 0.950 . S
H402 C432 0.950 . S
H403 C433 0.950 . S
C404 H386 0.951 . S
C404 C405 1.366 . S
C404 C406 1.388 . S
C405 C404 1.366 . S
C405 C409 1.385 . S
C406 H387 0.951 . S
C406 C404 1.388 . S
C406 C407 1.366 . S
C407 C406 1.366 . S
C407 C408 1.414 . S
C407 C410 1.499 . S
C408 H388 0.950 . S
C408 C407 1.414 . S
C408 C409 1.374 . S
C409 H389 0.950 . S
C409 C405 1.385 . S
C409 C408 1.374 . S
C410 C407 1.499 . S
C410 C411 1.373 . S
C410 C412 1.389 . S
C411 H390 0.950 . S
C411 C410 1.373 . S
C411 C427 1.377 . S
C412 C410 1.389 . S
C412 C413 1.524 . S
C412 C426 1.377 . S
C413 C412 1.524 . S
C413 C414 1.397 . S
C413 C418 1.363 . S
C414 H391 0.950 . S
C414 C413 1.397 . S
C414 C415 1.334 . S
C415 H392 0.950 . S
C415 C414 1.334 . S
C415 C416 1.287 . S
C416 C415 1.287 . S
C416 C417 1.524 . S
C416 H435 0.913 . S
C417 H393 0.950 . S
C417 C416 1.524 . S
C417 C418 1.415 . S
C418 H394 0.950 . S
C418 C413 1.363 . S
C418 C417 1.415 . S
C419 H395 0.951 . S
C419 C420 1.366 . S
C419 C421 1.388 . S
C420 C419 1.366 . S
C420 C424 1.385 . S
C421 H396 0.951 . S
C421 C419 1.388 . S
C421 C422 1.366 . S
C422 C421 1.366 . S
C422 C423 1.414 . S
C422 C425 1.499 . S
C423 H397 0.950 . S
C423 C422 1.414 . S
C423 C424 1.374 . S
C424 H398 0.950 . S
C424 C420 1.385 . S
C424 C423 1.374 . S
C425 C422 1.499 . S
C425 C426 1.373 . S
C425 C427 1.389 . S
C426 H399 0.950 . S
C426 C412 1.377 . S
C426 C425 1.373 . S
C427 C411 1.377 . S
C427 C425 1.389 . S
C427 C428 1.524 . S
C428 C427 1.524 . S
C428 C429 1.397 . S
C428 C433 1.363 . S
C429 H400 0.950 . S
C429 C428 1.397 . S
C429 C430 1.334 . S
C430 H401 0.950 . S
C430 C429 1.334 . S
C430 C431 1.287 . S
C431 C430 1.287 . S
C431 C432 1.524 . S
C431 H434 0.999 . S
C432 H402 0.950 . S
C432 C431 1.524 . S
C432 C433 1.415 . S
C433 H403 0.950 . S
C433 C428 1.363 . S
C433 C432 1.415 . S
H434 C431 0.999 . S
H435 C416 0.913 . S
H436 C454 0.951 . S
H437 C456 0.951 . S
H438 C458 0.950 . S
H439 C459 0.950 . S
H440 C461 0.950 . S
H441 C464 0.950 . S
H442 C465 0.950 . S
H443 C467 0.950 . S
H444 C468 0.950 . S
H445 C469 0.951 . S
H446 C471 0.951 . S
H447 C473 0.950 . S
H448 C474 0.950 . S
H449 C476 0.950 . S
H450 C479 0.950 . S
H451 C480 0.950 . S
H452 C482 0.950 . S
H453 C483 0.950 . S
C454 H436 0.951 . S
C454 C455 1.366 . S
C454 C456 1.388 . S
C455 C454 1.366 . S
C455 C459 1.385 . S
C456 H437 0.951 . S
C456 C454 1.388 . S
C456 C457 1.366 . S
C457 C456 1.366 . S
C457 C458 1.414 . S
C457 C460 1.499 . S
C458 H438 0.950 . S
C458 C457 1.414 . S
C458 C459 1.374 . S
C459 H439 0.950 . S
C459 C455 1.385 . S
C459 C458 1.374 . S
C460 C457 1.499 . S
C460 C461 1.373 . S
C460 C462 1.389 . S
C461 H440 0.950 . S
C461 C460 1.373 . S
C461 C477 1.377 . S
C462 C460 1.389 . S
C462 C463 1.524 . S
C462 C476 1.377 . S
C463 C462 1.524 . S
C463 C464 1.397 . S
C463 C468 1.363 . S
C464 H441 0.950 . S
C464 C463 1.397 . S
C464 C465 1.334 . S
C465 H442 0.950 . S
C465 C464 1.334 . S
C465 C466 1.287 . S
C466 C465 1.287 . S
C466 C467 1.524 . S
C466 H485 0.913 . S
C467 H443 0.950 . S
C467 C466 1.524 . S
C467 C468 1.415 . S
C468 H444 0.950 . S
C468 C463 1.363 . S
C468 C467 1.415 . S
C469 H445 0.951 . S
C469 C470 1.366 . S
C469 C471 1.388 . S
C470 C469 1.366 . S
C470 C474 1.385 . S
C471 H446 0.951 . S
C471 C469 1.388 . S
C471 C472 1.366 . S
C472 C471 1.366 . S
C472 C473 1.414 . S
C472 C475 1.499 . S
C473 H447 0.950 . S
C473 C472 1.414 . S
C473 C474 1.374 . S
C474 H448 0.950 . S
C474 C470 1.385 . S
C474 C473 1.374 . S
C475 C472 1.499 . S
C475 C476 1.373 . S
C475 C477 1.389 . S
C476 H449 0.950 . S
C476 C462 1.377 . S
C476 C475 1.373 . S
C477 C461 1.377 . S
C477 C475 1.389 . S
C477 C478 1.524 . S
C478 C477 1.524 . S
C478 C479 1.397 . S
C478 C483 1.363 . S
C479 H450 0.950 . S
C479 C478 1.397 . S
C479 C480 1.334 . S
C480 H451 0.950 . S
C480 C479 1.334 . S
C480 C481 1.287 . S
C481 C480 1.287 . S
C481 C482 1.524 . S
C481 H484 0.999 . S
C482 H452 0.950 . S
C482 C481 1.524 . S
C482 C483 1.415 . S
C483 H453 0.950 . S
C483 C478 1.363 . S
C483 C482 1.415 . S
H484 C481 0.999 . S
H485 C466 0.913 . S
H486 C504 0.951 . S
H487 C506 0.951 . S
H488 C508 0.950 . S
H489 C509 0.950 . S
H490 C511 0.950 . S
H491 C514 0.950 . S
H492 C515 0.950 . S
H493 C517 0.950 . S
H494 C518 0.950 . S
H495 C519 0.951 . S
H496 C521 0.951 . S
H497 C523 0.950 . S
H498 C524 0.950 . S
H499 C526 0.950 . S
H500 C529 0.950 . S
H501 C530 0.950 . S
H502 C532 0.950 . S
H503 C533 0.950 . S
C504 H486 0.951 . S
C504 C505 1.366 . S
C504 C506 1.388 . S
C505 C504 1.366 . S
C505 C509 1.385 . S
C506 H487 0.951 . S
C506 C504 1.388 . S
C506 C507 1.366 . S
C507 C506 1.366 . S
C507 C508 1.414 . S
C507 C510 1.499 . S
C508 H488 0.950 . S
C508 C507 1.414 . S
C508 C509 1.374 . S
C509 H489 0.950 . S
C509 C505 1.385 . S
C509 C508 1.374 . S
C510 C507 1.499 . S
C510 C511 1.373 . S
C510 C512 1.389 . S
C511 H490 0.950 . S
C511 C510 1.373 . S
C511 C527 1.377 . S
C512 C510 1.389 . S
C512 C513 1.524 . S
C512 C526 1.377 . S
C513 C512 1.524 . S
C513 C514 1.397 . S
C513 C518 1.363 . S
C514 H491 0.950 . S
C514 C513 1.397 . S
C514 C515 1.334 . S
C515 H492 0.950 . S
C515 C514 1.334 . S
C515 C516 1.287 . S
C516 C515 1.287 . S
C516 C517 1.524 . S
C516 H535 0.913 . S
C517 H493 0.950 . S
C517 C516 1.524 . S
C517 C518 1.415 . S
C518 H494 0.950 . S
C518 C513 1.363 . S
C518 C517 1.415 . S
C519 H495 0.951 . S
C519 C520 1.366 . S
C519 C521 1.388 . S
C520 C519 1.366 . S
C520 C524 1.385 . S
C521 H496 0.951 . S
C521 C519 1.388 . S
C521 C522 1.366 . S
C522 C521 1.366 . S
C522 C523 1.414 . S
C522 C525 1.499 . S
C523 H497 0.950 . S
C523 C522 1.414 . S
C523 C524 1.374 . S
C524 H498 0.950 . S
C524 C520 1.385 . S
C524 C523 1.374 . S
C525 C522 1.499 . S
C525 C526 1.373 . S
C525 C527 1.389 . S
C526 H499 0.950 . S
C526 C512 1.377 . S
C526 C525 1.373 . S
C527 C511 1.377 . S
C527 C525 1.389 . S
C527 C528 1.524 . S
C528 C527 1.524 . S
C528 C529 1.397 . S
C528 C533 1.363 . S
C529 H500 0.950 . S
C529 C528 1.397 . S
C529 C530 1.334 . S
C530 H501 0.950 . S
C530 C529 1.334 . S
C530 C531 1.287 . S
C531 C530 1.287 . S
C531 C532 1.524 . S
C531 H534 0.999 . S
C532 H502 0.950 . S
C532 C531 1.524 . S
C532 C533 1.415 . S
C533 H503 0.950 . S
C533 C528 1.363 . S
C533 C532 1.415 . S
H534 C531 0.999 . S
H535 C516 0.913 . S
H536 C554 0.951 . S
H537 C556 0.951 . S
H538 C558 0.950 . S
H539 C559 0.950 . S
H540 C561 0.950 . S
H541 C564 0.950 . S
H542 C565 0.950 . S
H543 C567 0.950 . S
H544 C568 0.950 . S
H545 C569 0.951 . S
H546 C571 0.951 . S
H547 C573 0.950 . S
H548 C574 0.950 . S
H549 C576 0.950 . S
H550 C579 0.950 . S
H551 C580 0.950 . S
H552 C582 0.950 . S
H553 C583 0.950 . S
C554 H536 0.951 . S
C554 C555 1.366 . S
C554 C556 1.388 . S
C555 C554 1.366 . S
C555 C559 1.385 . S
C556 H537 0.951 . S
C556 C554 1.388 . S
C556 C557 1.366 . S
C557 C556 1.366 . S
C557 C558 1.414 . S
C557 C560 1.499 . S
C558 H538 0.950 . S
C558 C557 1.414 . S
C558 C559 1.374 . S
C559 H539 0.950 . S
C559 C555 1.385 . S
C559 C558 1.374 . S
C560 C557 1.499 . S
C560 C561 1.373 . S
C560 C562 1.389 . S
C561 H540 0.950 . S
C561 C560 1.373 . S
C561 C577 1.377 . S
C562 C560 1.389 . S
C562 C563 1.524 . S
C562 C576 1.377 . S
C563 C562 1.524 . S
C563 C564 1.397 . S
C563 C568 1.363 . S
C564 H541 0.950 . S
C564 C563 1.397 . S
C564 C565 1.334 . S
C565 H542 0.950 . S
C565 C564 1.334 . S
C565 C566 1.287 . S
C566 C565 1.287 . S
C566 C567 1.524 . S
C566 H585 0.913 . S
C567 H543 0.950 . S
C567 C566 1.524 . S
C567 C568 1.415 . S
C568 H544 0.950 . S
C568 C563 1.363 . S
C568 C567 1.415 . S
C569 H545 0.951 . S
C569 C570 1.366 . S
C569 C571 1.388 . S
C570 C569 1.366 . S
C570 C574 1.385 . S
C571 H546 0.951 . S
C571 C569 1.388 . S
C571 C572 1.366 . S
C572 C571 1.366 . S
C572 C573 1.414 . S
C572 C575 1.499 . S
C573 H547 0.950 . S
C573 C572 1.414 . S
C573 C574 1.374 . S
C574 H548 0.950 . S
C574 C570 1.385 . S
C574 C573 1.374 . S
C575 C572 1.499 . S
C575 C576 1.373 . S
C575 C577 1.389 . S
C576 H549 0.950 . S
C576 C562 1.377 . S
C576 C575 1.373 . S
C577 C561 1.377 . S
C577 C575 1.389 . S
C577 C578 1.524 . S
C578 C577 1.524 . S
C578 C579 1.397 . S
C578 C583 1.363 . S
C579 H550 0.950 . S
C579 C578 1.397 . S
C579 C580 1.334 . S
C580 H551 0.950 . S
C580 C579 1.334 . S
C580 C581 1.287 . S
C581 C580 1.287 . S
C581 C582 1.524 . S
C581 H584 0.999 . S
C582 H552 0.950 . S
C582 C581 1.524 . S
C582 C583 1.415 . S
C583 H553 0.950 . S
C583 C578 1.363 . S
C583 C582 1.415 . S
H584 C581 0.999 . S
H585 C566 0.913 . S
H586 C604 0.951 . S
H587 C606 0.951 . S
H588 C608 0.950 . S
H589 C609 0.950 . S
H590 C611 0.950 . S
H591 C614 0.950 . S
H592 C615 0.950 . S
H593 C617 0.950 . S
H594 C618 0.950 . S
H595 C619 0.951 . S
H596 C621 0.951 . S
H597 C623 0.950 . S
H598 C624 0.950 . S
H599 C626 0.950 . S
H600 C629 0.950 . S
H601 C630 0.950 . S
H602 C632 0.950 . S
H603 C633 0.950 . S
C604 H586 0.951 . S
C604 C605 1.366 . S
C604 C606 1.388 . S
C605 C604 1.366 . S
C605 C609 1.385 . S
C606 H587 0.951 . S
C606 C604 1.388 . S
C606 C607 1.366 . S
C607 C606 1.366 . S
C607 C608 1.414 . S
C607 C610 1.499 . S
C608 H588 0.950 . S
C608 C607 1.414 . S
C608 C609 1.374 . S
C609 H589 0.950 . S
C609 C605 1.385 . S
C609 C608 1.374 . S
C610 C607 1.499 . S
C610 C611 1.373 . S
C610 C612 1.389 . S
C611 H590 0.950 . S
C611 C610 1.373 . S
C611 C627 1.377 . S
C612 C610 1.389 . S
C612 C613 1.524 . S
C612 C626 1.377 . S
C613 C612 1.524 . S
C613 C614 1.397 . S
C613 C618 1.363 . S
C614 H591 0.950 . S
C614 C613 1.397 . S
C614 C615 1.334 . S
C615 H592 0.950 . S
C615 C614 1.334 . S
C615 C616 1.287 . S
C616 C615 1.287 . S
C616 C617 1.524 . S
C616 H635 0.913 . S
C617 H593 0.950 . S
C617 C616 1.524 . S
C617 C618 1.415 . S
C618 H594 0.950 . S
C618 C613 1.363 . S
C618 C617 1.415 . S
C619 H595 0.951 . S
C619 C620 1.366 . S
C619 C621 1.388 . S
C620 C619 1.366 . S
C620 C624 1.385 . S
C621 H596 0.951 . S
C621 C619 1.388 . S
C621 C622 1.366 . S
C622 C621 1.366 . S
C622 C623 1.414 . S
C622 C625 1.499 . S
C623 H597 0.950 . S
C623 C622 1.414 . S
C623 C624 1.374 . S
C624 H598 0.950 . S
C624 C620 1.385 . S
C624 C623 1.374 . S
C625 C622 1.499 . S
C625 C626 1.373 . S
C625 C627 1.389 . S
C626 H599 0.950 . S
C626 C612 1.377 . S
C626 C625 1.373 . S
C627 C611 1.377 . S
C627 C625 1.389 . S
C627 C628 1.524 . S
C628 C627 1.524 . S
C628 C629 1.397 . S
C628 C633 1.363 . S
C629 H600 0.950 . S
C629 C628 1.397 . S
C629 C630 1.334 . S
C630 H601 0.950 . S
C630 C629 1.334 . S
C630 C631 1.287 . S
C631 C630 1.287 . S
C631 C632 1.524 . S
C631 H634 0.999 . S
C632 H602 0.950 . S
C632 C631 1.524 . S
C632 C633 1.415 . S
C633 H603 0.950 . S
C633 C628 1.363 . S
C633 C632 1.415 . S
H634 C631 0.999 . S
H635 C616 0.913 . S
H636 C654 0.951 . S
H637 C656 0.951 . S
H638 C658 0.950 . S
H639 C659 0.950 . S
H640 C661 0.950 . S
H641 C664 0.950 . S
H642 C665 0.950 . S
H643 C667 0.950 . S
H644 C668 0.950 . S
H645 C669 0.951 . S
H646 C671 0.951 . S
H647 C673 0.950 . S
H648 C674 0.950 . S
H649 C676 0.950 . S
H650 C679 0.950 . S
H651 C680 0.950 . S
H652 C682 0.950 . S
H653 C683 0.950 . S
C654 H636 0.951 . S
C654 C655 1.366 . S
C654 C656 1.388 . S
C655 C654 1.366 . S
C655 C659 1.385 . S
C656 H637 0.951 . S
C656 C654 1.388 . S
C656 C657 1.366 . S
C657 C656 1.366 . S
C657 C658 1.414 . S
C657 C660 1.499 . S
C658 H638 0.950 . S
C658 C657 1.414 . S
C658 C659 1.374 . S
C659 H639 0.950 . S
C659 C655 1.385 . S
C659 C658 1.374 . S
C660 C657 1.499 . S
C660 C661 1.373 . S
C660 C662 1.389 . S
C661 H640 0.950 . S
C661 C660 1.373 . S
C661 C677 1.377 . S
C662 C660 1.389 . S
C662 C663 1.524 . S
C662 C676 1.377 . S
C663 C662 1.524 . S
C663 C664 1.397 . S
C663 C668 1.363 . S
C664 H641 0.950 . S
C664 C663 1.397 . S
C664 C665 1.334 . S
C665 H642 0.950 . S
C665 C664 1.334 . S
C665 C666 1.287 . S
C666 C665 1.287 . S
C666 C667 1.524 . S
C666 H685 0.913 . S
C667 H643 0.950 . S
C667 C666 1.524 . S
C667 C668 1.415 . S
C668 H644 0.950 . S
C668 C663 1.363 . S
C668 C667 1.415 . S
C669 H645 0.951 . S
C669 C670 1.366 . S
C669 C671 1.388 . S
C670 C669 1.366 . S
C670 C674 1.385 . S
C671 H646 0.951 . S
C671 C669 1.388 . S
C671 C672 1.366 . S
C672 C671 1.366 . S
C672 C673 1.414 . S
C672 C675 1.499 . S
C673 H647 0.950 . S
C673 C672 1.414 . S
C673 C674 1.374 . S
C674 H648 0.950 . S
C674 C670 1.385 . S
C674 C673 1.374 . S
C675 C672 1.499 . S
C675 C676 1.373 . S
C675 C677 1.389 . S
C676 H649 0.950 . S
C676 C662 1.377 . S
C676 C675 1.373 . S
C677 C661 1.377 . S
C677 C675 1.389 . S
C677 C678 1.524 . S
C678 C677 1.524 . S
C678 C679 1.397 . S
C678 C683 1.363 . S
C679 H650 0.950 . S
C679 C678 1.397 . S
C679 C680 1.334 . S
C680 H651 0.950 . S
C680 C679 1.334 . S
C680 C681 1.287 . S
C681 C680 1.287 . S
C681 C682 1.524 . S
C681 H684 0.999 . S
C682 H652 0.950 . S
C682 C681 1.524 . S
C682 C683 1.415 . S
C683 H653 0.950 . S
C683 C678 1.363 . S
C683 C682 1.415 . S
H684 C681 0.999 . S
H685 C666 0.913 . S
H686 C704 0.951 . S
H687 C706 0.951 . S
H688 C708 0.950 . S
H689 C709 0.950 . S
H690 C711 0.950 . S
H691 C714 0.950 . S
H692 C715 0.950 . S
H693 C717 0.950 . S
H694 C718 0.950 . S
H695 C719 0.951 . S
H696 C721 0.951 . S
H697 C723 0.950 . S
H698 C724 0.950 . S
H699 C726 0.950 . S
H700 C729 0.950 . S
H701 C730 0.950 . S
H702 C732 0.950 . S
H703 C733 0.950 . S
C704 H686 0.951 . S
C704 C705 1.366 . S
C704 C706 1.388 . S
C705 C704 1.366 . S
C705 C709 1.385 . S
C706 H687 0.951 . S
C706 C704 1.388 . S
C706 C707 1.366 . S
C707 C706 1.366 . S
C707 C708 1.414 . S
C707 C710 1.499 . S
C708 H688 0.950 . S
C708 C707 1.414 . S
C708 C709 1.374 . S
C709 H689 0.950 . S
C709 C705 1.385 . S
C709 C708 1.374 . S
C710 C707 1.499 . S
C710 C711 1.373 . S
C710 C712 1.389 . S
C711 H690 0.950 . S
C711 C710 1.373 . S
C711 C727 1.377 . S
C712 C710 1.389 . S
C712 C713 1.524 . S
C712 C726 1.377 . S
C713 C712 1.524 . S
C713 C714 1.397 . S
C713 C718 1.363 . S
C714 H691 0.950 . S
C714 C713 1.397 . S
C714 C715 1.334 . S
C715 H692 0.950 . S
C715 C714 1.334 . S
C715 C716 1.287 . S
C716 C715 1.287 . S
C716 C717 1.524 . S
C716 H735 0.913 . S
C717 H693 0.950 . S
C717 C716 1.524 . S
C717 C718 1.415 . S
C718 H694 0.950 . S
C718 C713 1.363 . S
C718 C717 1.415 . S
C719 H695 0.951 . S
C719 C720 1.366 . S
C719 C721 1.388 . S
C720 C719 1.366 . S
C720 C724 1.385 . S
C721 H696 0.951 . S
C721 C719 1.388 . S
C721 C722 1.366 . S
C722 C721 1.366 . S
C722 C723 1.414 . S
C722 C725 1.499 . S
C723 H697 0.950 . S
C723 C722 1.414 . S
C723 C724 1.374 . S
C724 H698 0.950 . S
C724 C720 1.385 . S
C724 C723 1.374 . S
C725 C722 1.499 . S
C725 C726 1.373 . S
C725 C727 1.389 . S
C726 H699 0.950 . S
C726 C712 1.377 . S
C726 C725 1.373 . S
C727 C711 1.377 . S
C727 C725 1.389 . S
C727 C728 1.524 . S
C728 C727 1.524 . S
C728 C729 1.397 . S
C728 C733 1.363 . S
C729 H700 0.950 . S
C729 C728 1.397 . S
C729 C730 1.334 . S
C730 H701 0.950 . S
C730 C729 1.334 . S
C730 C731 1.287 . S
C731 C730 1.287 . S
C731 C732 1.524 . S
C731 H734 0.999 . S
C732 H702 0.950 . S
C732 C731 1.524 . S
C732 C733 1.415 . S
C733 H703 0.950 . S
C733 C728 1.363 . S
C733 C732 1.415 . S
H734 C731 0.999 . S
H735 C716 0.913 . S
H736 C754 0.951 . S
H737 C756 0.951 . S
H738 C758 0.950 . S
H739 C759 0.950 . S
H740 C761 0.950 . S
H741 C764 0.950 . S
H742 C765 0.950 . S
H743 C767 0.950 . S
H744 C768 0.950 . S
H745 C769 0.951 . S
H746 C771 0.951 . S
H747 C773 0.950 . S
H748 C774 0.950 . S
H749 C776 0.950 . S
H750 C779 0.950 . S
H751 C780 0.950 . S
H752 C782 0.950 . S
H753 C783 0.950 . S
C754 H736 0.951 . S
C754 C755 1.366 . S
C754 C756 1.388 . S
C755 C754 1.366 . S
C755 C759 1.385 . S
C756 H737 0.951 . S
C756 C754 1.388 . S
C756 C757 1.366 . S
C757 C756 1.366 . S
C757 C758 1.414 . S
C757 C760 1.499 . S
C758 H738 0.950 . S
C758 C757 1.414 . S
C758 C759 1.374 . S
C759 H739 0.950 . S
C759 C755 1.385 . S
C759 C758 1.374 . S
C760 C757 1.499 . S
C760 C761 1.373 . S
C760 C762 1.389 . S
C761 H740 0.950 . S
C761 C760 1.373 . S
C761 C777 1.377 . S
C762 C760 1.389 . S
C762 C763 1.524 . S
C762 C776 1.377 . S
C763 C762 1.524 . S
C763 C764 1.397 . S
C763 C768 1.363 . S
C764 H741 0.950 . S
C764 C763 1.397 . S
C764 C765 1.334 . S
C765 H742 0.950 . S
C765 C764 1.334 . S
C765 C766 1.287 . S
C766 C765 1.287 . S
C766 C767 1.524 . S
C766 H785 0.913 . S
C767 H743 0.950 . S
C767 C766 1.524 . S
C767 C768 1.415 . S
C768 H744 0.950 . S
C768 C763 1.363 . S
C768 C767 1.415 . S
C769 H745 0.951 . S
C769 C770 1.366 . S
C769 C771 1.388 . S
C770 C769 1.366 . S
C770 C774 1.385 . S
C771 H746 0.951 . S
C771 C769 1.388 . S
C771 C772 1.366 . S
C772 C771 1.366 . S
C772 C773 1.414 . S
C772 C775 1.499 . S
C773 H747 0.950 . S
C773 C772 1.414 . S
C773 C774 1.374 . S
C774 H748 0.950 . S
C774 C770 1.385 . S
C774 C773 1.374 . S
C775 C772 1.499 . S
C775 C776 1.373 . S
C775 C777 1.389 . S
C776 H749 0.950 . S
C776 C762 1.377 . S
C776 C775 1.373 . S
C777 C761 1.377 . S
C777 C775 1.389 . S
C777 C778 1.524 . S
C778 C777 1.524 . S
C778 C779 1.397 . S
C778 C783 1.363 . S
C779 H750 0.950 . S
C779 C778 1.397 . S
C779 C780 1.334 . S
C780 H751 0.950 . S
C780 C779 1.334 . S
C780 C781 1.287 . S
C781 C780 1.287 . S
C781 C782 1.524 . S
C781 H784 0.999 . S
C782 H752 0.950 . S
C782 C781 1.524 . S
C782 C783 1.415 . S
C783 H753 0.950 . S
C783 C778 1.363 . S
C783 C782 1.415 . S
H784 C781 0.999 . S
H785 C766 0.913 . S
H786 C804 0.951 . S
H787 C806 0.951 . S
H788 C808 0.950 . S
H789 C809 0.950 . S
H790 C811 0.950 . S
H791 C814 0.950 . S
H792 C815 0.950 . S
H793 C817 0.950 . S
H794 C818 0.950 . S
H795 C819 0.951 . S
H796 C821 0.951 . S
H797 C823 0.950 . S
H798 C824 0.950 . S
H799 C826 0.950 . S
H800 C829 0.950 . S
H801 C830 0.950 . S
H802 C832 0.950 . S
H803 C833 0.950 . S
C804 H786 0.951 . S
C804 C805 1.366 . S
C804 C806 1.388 . S
C805 C804 1.366 . S
C805 C809 1.385 . S
C806 H787 0.951 . S
C806 C804 1.388 . S
C806 C807 1.366 . S
C807 C806 1.366 . S
C807 C808 1.414 . S
C807 C810 1.499 . S
C808 H788 0.950 . S
C808 C807 1.414 . S
C808 C809 1.374 . S
C809 H789 0.950 . S
C809 C805 1.385 . S
C809 C808 1.374 . S
C810 C807 1.499 . S
C810 C811 1.373 . S
C810 C812 1.389 . S
C811 H790 0.950 . S
C811 C810 1.373 . S
C811 C827 1.377 . S
C812 C810 1.389 . S
C812 C813 1.524 . S
C812 C826 1.377 . S
C813 C812 1.524 . S
C813 C814 1.397 . S
C813 C818 1.363 . S
C814 H791 0.950 . S
C814 C813 1.397 . S
C814 C815 1.334 . S
C815 H792 0.950 . S
C815 C814 1.334 . S
C815 C816 1.287 . S
C816 C815 1.287 . S
C816 C817 1.524 . S
C816 H835 0.913 . S
C817 H793 0.950 . S
C817 C816 1.524 . S
C817 C818 1.415 . S
C818 H794 0.950 . S
C818 C813 1.363 . S
C818 C817 1.415 . S
C819 H795 0.951 . S
C819 C820 1.366 . S
C819 C821 1.388 . S
C820 C819 1.366 . S
C820 C824 1.385 . S
C821 H796 0.951 . S
C821 C819 1.388 . S
C821 C822 1.366 . S
C822 C821 1.366 . S
C822 C823 1.414 . S
C822 C825 1.499 . S
C823 H797 0.950 . S
C823 C822 1.414 . S
C823 C824 1.374 . S
C824 H798 0.950 . S
C824 C820 1.385 . S
C824 C823 1.374 . S
C825 C822 1.499 . S
C825 C826 1.373 . S
C825 C827 1.389 . S
C826 H799 0.950 . S
C826 C812 1.377 . S
C826 C825 1.373 . S
C827 C811 1.377 . S
C827 C825 1.389 . S
C827 C828 1.524 . S
C828 C827 1.524 . S
C828 C829 1.397 . S
C828 C833 1.363 . S
C829 H800 0.950 . S
C829 C828 1.397 . S
C829 C830 1.334 . S
C830 H801 0.950 . S
C830 C829 1.334 . S
C830 C831 1.287 . S
C831 C830 1.287 . S
C831 C832 1.524 . S
C831 H834 0.999 . S
C832 H802 0.950 . S
C832 C831 1.524 . S
C832 C833 1.415 . S
C833 H803 0.950 . S
C833 C828 1.363 . S
C833 C832 1.415 . S
H834 C831 0.999 . S
H835 C816 0.913 . S
H836 C854 0.951 . S
H837 C856 0.951 . S
H838 C858 0.950 . S
H839 C859 0.950 . S
H840 C861 0.950 . S
H841 C864 0.950 . S
H842 C865 0.950 . S
H843 C867 0.950 . S
H844 C868 0.950 . S
H845 C869 0.951 . S
H846 C871 0.951 . S
H847 C873 0.950 . S
H848 C874 0.950 . S
H849 C876 0.950 . S
H850 C879 0.950 . S
H851 C880 0.950 . S
H852 C882 0.950 . S
H853 C883 0.950 . S
C854 H836 0.951 . S
C854 C855 1.366 . S
C854 C856 1.388 . S
C855 C854 1.366 . S
C855 C859 1.385 . S
C856 H837 0.951 . S
C856 C854 1.388 . S
C856 C857 1.366 . S
C857 C856 1.366 . S
C857 C858 1.414 . S
C857 C860 1.499 . S
C858 H838 0.950 . S
C858 C857 1.414 . S
C858 C859 1.374 . S
C859 H839 0.950 . S
C859 C855 1.385 . S
C859 C858 1.374 . S
C860 C857 1.499 . S
C860 C861 1.373 . S
C860 C862 1.389 . S
C861 H840 0.950 . S
C861 C860 1.373 . S
C861 C877 1.377 . S
C862 C860 1.389 . S
C862 C863 1.524 . S
C862 C876 1.377 . S
C863 C862 1.524 . S
C863 C864 1.397 . S
C863 C868 1.363 . S
C864 H841 0.950 . S
C864 C863 1.397 . S
C864 C865 1.334 . S
C865 H842 0.950 . S
C865 C864 1.334 . S
C865 C866 1.287 . S
C866 C865 1.287 . S
C866 C867 1.524 . S
C866 H885 0.913 . S
C867 H843 0.950 . S
C867 C866 1.524 . S
C867 C868 1.415 . S
C868 H844 0.950 . S
C868 C863 1.363 . S
C868 C867 1.415 . S
C869 H845 0.951 . S
C869 C870 1.366 . S
C869 C871 1.388 . S
C870 C869 1.366 . S
C870 C874 1.385 . S
C871 H846 0.951 . S
C871 C869 1.388 . S
C871 C872 1.366 . S
C872 C871 1.366 . S
C872 C873 1.414 . S
C872 C875 1.499 . S
C873 H847 0.950 . S
C873 C872 1.414 . S
C873 C874 1.374 . S
C874 H848 0.950 . S
C874 C870 1.385 . S
C874 C873 1.374 . S
C875 C872 1.499 . S
C875 C876 1.373 . S
C875 C877 1.389 . S
C876 H849 0.950 . S
C876 C862 1.377 . S
C876 C875 1.373 . S
C877 C861 1.377 . S
C877 C875 1.389 . S
C877 C878 1.524 . S
C878 C877 1.524 . S
C878 C879 1.397 . S
C878 C883 1.363 . S
C879 H850 0.950 . S
C879 C878 1.397 . S
C879 C880 1.334 . S
C880 H851 0.950 . S
C880 C879 1.334 . S
C880 C881 1.287 . S
C881 C880 1.287 . S
C881 C882 1.524 . S
C881 H884 0.999 . S
C882 H852 0.950 . S
C882 C881 1.524 . S
C882 C883 1.415 . S
C883 H853 0.950 . S
C883 C878 1.363 . S
C883 C882 1.415 . S
H884 C881 0.999 . S
H885 C866 0.913 . S
H886 C904 0.951 . S
H887 C906 0.951 . S
H888 C908 0.950 . S
H889 C909 0.950 . S
H890 C911 0.950 . S
H891 C914 0.950 . S
H892 C915 0.950 . S
H893 C917 0.950 . S
H894 C918 0.950 . S
H895 C919 0.951 . S
H896 C921 0.951 . S
H897 C923 0.950 . S
H898 C924 0.950 . S
H899 C926 0.950 . S
H900 C929 0.950 . S
H901 C930 0.950 . S
H902 C932 0.950 . S
H903 C933 0.950 . S
C904 H886 0.951 . S
C904 C905 1.366 . S
C904 C906 1.388 . S
C905 C904 1.366 . S
C905 C909 1.385 . S
C906 H887 0.951 . S
C906 C904 1.388 . S
C906 C907 1.366 . S
C907 C906 1.366 . S
C907 C908 1.414 . S
C907 C910 1.499 . S
C908 H888 0.950 . S
C908 C907 1.414 . S
C908 C909 1.374 . S
C909 H889 0.950 . S
C909 C905 1.385 . S
C909 C908 1.374 . S
C910 C907 1.499 . S
C910 C911 1.373 . S
C910 C912 1.389 . S
C911 H890 0.950 . S
C911 C910 1.373 . S
C911 C927 1.377 . S
C912 C910 1.389 . S
C912 C913 1.524 . S
C912 C926 1.377 . S
C913 C912 1.524 . S
C913 C914 1.397 . S
C913 C918 1.363 . S
C914 H891 0.950 . S
C914 C913 1.397 . S
C914 C915 1.334 . S
C915 H892 0.950 . S
C915 C914 1.334 . S
C915 C916 1.287 . S
C916 C915 1.287 . S
C916 C917 1.524 . S
C916 H935 0.913 . S
C917 H893 0.950 . S
C917 C916 1.524 . S
C917 C918 1.415 . S
C918 H894 0.950 . S
C918 C913 1.363 . S
C918 C917 1.415 . S
C919 H895 0.951 . S
C919 C920 1.366 . S
C919 C921 1.388 . S
C920 C919 1.366 . S
C920 C924 1.385 . S
C921 H896 0.951 . S
C921 C919 1.388 . S
C921 C922 1.366 . S
C922 C921 1.366 . S
C922 C923 1.414 . S
C922 C925 1.499 . S
C923 H897 0.950 . S
C923 C922 1.414 . S
C923 C924 1.374 . S
C924 H898 0.950 . S
C924 C920 1.385 . S
C924 C923 1.374 . S
C925 C922 1.499 . S
C925 C926 1.373 . S
C925 C927 1.389 . S
C926 H899 0.950 . S
C926 C912 1.377 . S
C926 C925 1.373 . S
C927 C911 1.377 . S
C927 C925 1.389 . S
C927 C928 1.524 . S
C928 C927 1.524 . S
C928 C929 1.397 . S
C928 C933 1.363 . S
C929 H900 0.950 . S
C929 C928 1.397 . S
C929 C930 1.334 . S
C930 H901 0.950 . S
C930 C929 1.334 . S
C930 C931 1.287 . S
C931 C930 1.287 . S
C931 C932 1.524 . S
C931 H934 0.999 . S
C932 H902 0.950 . S
C932 C931 1.524 . S
C932 C933 1.415 . S
C933 H903 0.950 . S
C933 C928 1.363 . S
C933 C932 1.415 . S
H934 C931 0.999 . S
H935 C916 0.913 . S
H936 C954 0.951 . S
H937 C956 0.951 . S
H938 C958 0.950 . S
H939 C959 0.950 . S
H940 C961 0.950 . S
H941 C964 0.950 . S
H942 C965 0.950 . S
H943 C967 0.950 . S
H944 C968 0.950 . S
H945 C969 0.951 . S
H946 C971 0.951 . S
H947 C973 0.950 . S
H948 C974 0.950 . S
H949 C976 0.950 . S
H950 C979 0.950 . S
H951 C980 0.950 . S
H952 C982 0.950 . S
H953 C983 0.950 . S
C954 H936 0.951 . S
C954 C955 1.366 . S
C954 C956 1.388 . S
C955 C954 1.366 . S
C955 C959 1.385 . S
C956 H937 0.951 . S
C956 C954 1.388 . S
C956 C957 1.366 . S
C957 C956 1.366 . S
C957 C958 1.414 . S
C957 C960 1.499 . S
C958 H938 0.950 . S
C958 C957 1.414 . S
C958 C959 1.374 . S
C959 H939 0.950 . S
C959 C955 1.385 . S
C959 C958 1.374 . S
C960 C957 1.499 . S
C960 C961 1.373 . S
C960 C962 1.389 . S
C961 H940 0.950 . S
C961 C960 1.373 . S
C961 C977 1.377 . S
C962 C960 1.389 . S
C962 C963 1.524 . S
C962 C976 1.377 . S
C963 C962 1.524 . S
C963 C964 1.397 . S
C963 C968 1.363 . S
C964 H941 0.950 . S
C964 C963 1.397 . S
C964 C965 1.334 . S
C965 H942 0.950 . S
C965 C964 1.334 . S
C965 C966 1.287 . S
C966 C965 1.287 . S
C966 C967 1.524 . S
C966 H985 0.913 . S
C967 H943 0.950 . S
C967 C966 1.524 . S
C967 C968 1.415 . S
C968 H944 0.950 . S
C968 C963 1.363 . S
C968 C967 1.415 . S
C969 H945 0.951 . S
C969 C970 1.366 . S
C969 C971 1.388 . S
C970 C969 1.366 . S
C970 C974 1.385 . S
C971 H946 0.951 . S
C971 C969 1.388 . S
C971 C972 1.366 . S
C972 C971 1.366 . S
C972 C973 1.414 . S
C972 C975 1.499 . S
C973 H947 0.950 . S
C973 C972 1.414 . S
C973 C974 1.374 . S
C974 H948 0.950 . S
C974 C970 1.385 . S
C974 C973 1.374 . S
C975 C972 1.499 . S
C975 C976 1.373 . S
C975 C977 1.389 . S
C976 H949 0.950 . S
C976 C962 1.377 . S
C976 C975 1.373 . S
C977 C961 1.377 . S
C977 C975 1.389 . S
C977 C978 1.524 . S
C978 C977 1.524 . S
C978 C979 1.397 . S
C978 C983 1.363 . S
C979 H950 0.950 . S
C979 C978 1.397 . S
C979 C980 1.334 . S
C980 H951 0.950 . S
C980 C979 1.334 . S
C980 C981 1.287 . S
C981 C980 1.287 . S
C981 C982 1.524 . S
C981 H984 0.999 . S
C982 H952 0.950 . S
C982 C981 1.524 . S
C982 C983 1.415 . S
C983 H953 0.950 . S
C983 C978 1.363 . S
C983 C982 1.415 . S
H984 C981 0.999 . S
H985 C966 0.913 . S
H986 C1004 0.951 . S
H987 C1006 0.951 . S
H988 C1008 0.950 . S
H989 C1009 0.950 . S
H990 C1011 0.950 . S
H991 C1014 0.950 . S
H992 C1015 0.950 . S
H993 C1017 0.950 . S
H994 C1018 0.950 . S
H995 C1019 0.951 . S
H996 C1021 0.951 . S
H997 C1023 0.950 . S
H998 C1024 0.950 . S
H999 C1026 0.950 . S
H1000 C1029 0.950 . S
H1001 C1030 0.950 . S
H1002 C1032 0.950 . S
H1003 C1033 0.950 . S
C1004 H986 0.951 . S
C1004 C1005 1.366 . S
C1004 C1006 1.388 . S
C1005 C1004 1.366 . S
C1005 C1009 1.385 . S
C1006 H987 0.951 . S
C1006 C1004 1.388 . S
C1006 C1007 1.366 . S
C1007 C1006 1.366 . S
C1007 C1008 1.414 . S
C1007 C1010 1.499 . S
C1008 H988 0.950 . S
C1008 C1007 1.414 . S
C1008 C1009 1.374 . S
C1009 H989 0.950 . S
C1009 C1005 1.385 . S
C1009 C1008 1.374 . S
C1010 C1007 1.499 . S
C1010 C1011 1.373 . S
C1010 C1012 1.389 . S
C1011 H990 0.950 . S
C1011 C1010 1.373 . S
C1011 C1027 1.377 . S
C1012 C1010 1.389 . S
C1012 C1013 1.524 . S
C1012 C1026 1.377 . S
C1013 C1012 1.524 . S
C1013 C1014 1.397 . S
C1013 C1018 1.363 . S
C1014 H991 0.950 . S
C1014 C1013 1.397 . S
C1014 C1015 1.334 . S
C1015 H992 0.950 . S
C1015 C1014 1.334 . S
C1015 C1016 1.287 . S
C1016 C1015 1.287 . S
C1016 C1017 1.524 . S
C1016 H1035 0.913 . S
C1017 H993 0.950 . S
C1017 C1016 1.524 . S
C1017 C1018 1.415 . S
C1018 H994 0.950 . S
C1018 C1013 1.363 . S
C1018 C1017 1.415 . S
C1019 H995 0.951 . S
C1019 C1020 1.366 . S
C1019 C1021 1.388 . S
C1020 C1019 1.366 . S
C1020 C1024 1.385 . S
C1021 H996 0.951 . S
C1021 C1019 1.388 . S
C1021 C1022 1.366 . S
C1022 C1021 1.366 . S
C1022 C1023 1.414 . S
C1022 C1025 1.499 . S
C1023 H997 0.950 . S
C1023 C1022 1.414 . S
C1023 C1024 1.374 . S
C1024 H998 0.950 . S
C1024 C1020 1.385 . S
C1024 C1023 1.374 . S
C1025 C1022 1.499 . S
C1025 C1026 1.373 . S
C1025 C1027 1.389 . S
C1026 H999 0.950 . S
C1026 C1012 1.377 . S
C1026 C1025 1.373 . S
C1027 C1011 1.377 . S
C1027 C1025 1.389 . S
C1027 C1028 1.524 . S
C1028 C1027 1.524 . S
C1028 C1029 1.397 . S
C1028 C1033 1.363 . S
C1029 H1000 0.950 . S
C1029 C1028 1.397 . S
C1029 C1030 1.334 . S
C1030 H1001 0.950 . S
C1030 C1029 1.334 . S
C1030 C1031 1.287 . S
C1031 C1030 1.287 . S
C1031 C1032 1.524 . S
C1031 H1034 0.999 . S
C1032 H1002 0.950 . S
C1032 C1031 1.524 . S
C1032 C1033 1.415 . S
C1033 H1003 0.950 . S
C1033 C1028 1.363 . S
C1033 C1032 1.415 . S
H1034 C1031 0.999 . S
H1035 C1016 0.913 . S
H1036 C1054 0.951 . S
H1037 C1056 0.951 . S
H1038 C1058 0.950 . S
H1039 C1059 0.950 . S
H1040 C1061 0.950 . S
H1041 C1064 0.950 . S
H1042 C1065 0.950 . S
H1043 C1067 0.950 . S
H1044 C1068 0.950 . S
H1045 C1069 0.951 . S
H1046 C1071 0.951 . S
H1047 C1073 0.950 . S
H1048 C1074 0.950 . S
H1049 C1076 0.950 . S
H1050 C1079 0.950 . S
H1051 C1080 0.950 . S
H1052 C1082 0.950 . S
H1053 C1083 0.950 . S
C1054 H1036 0.951 . S
C1054 C1055 1.366 . S
C1054 C1056 1.388 . S
C1055 C1054 1.366 . S
C1055 C1059 1.385 . S
C1056 H1037 0.951 . S
C1056 C1054 1.388 . S
C1056 C1057 1.366 . S
C1057 C1056 1.366 . S
C1057 C1058 1.414 . S
C1057 C1060 1.499 . S
C1058 H1038 0.950 . S
C1058 C1057 1.414 . S
C1058 C1059 1.374 . S
C1059 H1039 0.950 . S
C1059 C1055 1.385 . S
C1059 C1058 1.374 . S
C1060 C1057 1.499 . S
C1060 C1061 1.373 . S
C1060 C1062 1.389 . S
C1061 H1040 0.950 . S
C1061 C1060 1.373 . S
C1061 C1077 1.377 . S
C1062 C1060 1.389 . S
C1062 C1063 1.524 . S
C1062 C1076 1.377 . S
C1063 C1062 1.524 . S
C1063 C1064 1.397 . S
C1063 C1068 1.363 . S
C1064 H1041 0.950 . S
C1064 C1063 1.397 . S
C1064 C1065 1.334 . S
C1065 H1042 0.950 . S
C1065 C1064 1.334 . S
C1065 C1066 1.287 . S
C1066 C1065 1.287 . S
C1066 C1067 1.524 . S
C1066 H1085 0.913 . S
C1067 H1043 0.950 . S
C1067 C1066 1.524 . S
C1067 C1068 1.415 . S
C1068 H1044 0.950 . S
C1068 C1063 1.363 . S
C1068 C1067 1.415 . S
C1069 H1045 0.951 . S
C1069 C1070 1.366 . S
C1069 C1071 1.388 . S
C1070 C1069 1.366 . S
C1070 C1074 1.385 . S
C1071 H1046 0.951 . S
C1071 C1069 1.388 . S
C1071 C1072 1.366 . S
C1072 C1071 1.366 . S
C1072 C1073 1.414 . S
C1072 C1075 1.499 . S
C1073 H1047 0.950 . S
C1073 C1072 1.414 . S
C1073 C1074 1.374 . S
C1074 H1048 0.950 . S
C1074 C1070 1.385 . S
C1074 C1073 1.374 . S
C1075 C1072 1.499 . S
C1075 C1076 1.373 . S
C1075 C1077 1.389 . S
C1076 H1049 0.950 . S
C1076 C1062 1.377 . S
C1076 C1075 1.373 . S
C1077 C1061 1.377 . S
C1077 C1075 1.389 . S
C1077 C1078 1.524 . S
C1078 C1077 1.524 . S
C1078 C1079 1.397 . S
C1078 C1083 1.363 . S
C1079 H1050 0.950 . S
C1079 C1078 1.397 . S
C1079 C1080 1.334 . S
C1080 H1051 0.950 . S
C1080 C1079 1.334 . S
C1080 C1081 1.287 . S
C1081 C1080 1.287 . S
C1081 C1082 1.524 . S
C1081 H1084 0.999 . S
C1082 H1052 0.950 . S
C1082 C1081 1.524 . S
C1082 C1083 1.415 . S
C1083 H1053 0.950 . S
C1083 C1078 1.363 . S
C1083 C1082 1.415 . S
H1084 C1081 0.999 . S
H1085 C1066 0.913 . S
H1086 C1104 0.951 . S
H1087 C1106 0.951 . S
H1088 C1108 0.950 . S
H1089 C1109 0.950 . S
H1090 C1111 0.950 . S
H1091 C1114 0.950 . S
H1092 C1115 0.950 . S
H1093 C1117 0.950 . S
H1094 C1118 0.950 . S
H1095 C1119 0.951 . S
H1096 C1121 0.951 . S
H1097 C1123 0.950 . S
H1098 C1124 0.950 . S
H1099 C1126 0.950 . S
H1100 C1129 0.950 . S
H1101 C1130 0.950 . S
H1102 C1132 0.950 . S
H1103 C1133 0.950 . S
C1104 H1086 0.951 . S
C1104 C1105 1.366 . S
C1104 C1106 1.388 . S
C1105 C1104 1.366 . S
C1105 C1109 1.385 . S
C1106 H1087 0.951 . S
C1106 C1104 1.388 . S
C1106 C1107 1.366 . S
C1107 C1106 1.366 . S
C1107 C1108 1.414 . S
C1107 C1110 1.499 . S
C1108 H1088 0.950 . S
C1108 C1107 1.414 . S
C1108 C1109 1.374 . S
C1109 H1089 0.950 . S
C1109 C1105 1.385 . S
C1109 C1108 1.374 . S
C1110 C1107 1.499 . S
C1110 C1111 1.373 . S
C1110 C1112 1.389 . S
C1111 H1090 0.950 . S
C1111 C1110 1.373 . S
C1111 C1127 1.377 . S
C1112 C1110 1.389 . S
C1112 C1113 1.524 . S
C1112 C1126 1.377 . S
C1113 C1112 1.524 . S
C1113 C1114 1.397 . S
C1113 C1118 1.363 . S
C1114 H1091 0.950 . S
C1114 C1113 1.397 . S
C1114 C1115 1.334 . S
C1115 H1092 0.950 . S
C1115 C1114 1.334 . S
C1115 C1116 1.287 . S
C1116 C1115 1.287 . S
C1116 C1117 1.524 . S
C1116 H1135 0.913 . S
C1117 H1093 0.950 . S
C1117 C1116 1.524 . S
C1117 C1118 1.415 . S
C1118 H1094 0.950 . S
C1118 C1113 1.363 . S
C1118 C1117 1.415 . S
C1119 H1095 0.951 . S
C1119 C1120 1.366 . S
C1119 C1121 1.388 . S
C1120 C1119 1.366 . S
C1120 C1124 1.385 . S
C1121 H1096 0.951 . S
C1121 C1119 1.388 . S
C1121 C1122 1.366 . S
C1122 C1121 1.366 . S
C1122 C1123 1.414 . S
C1122 C1125 1.499 . S
C1123 H1097 0.950 . S
C1123 C1122 1.414 . S
C1123 C1124 1.374 . S
C1124 H1098 0.950 . S
C1124 C1120 1.385 . S
C1124 C1123 1.374 . S
C1125 C1122 1.499 . S
C1125 C1126 1.373 . S
C1125 C1127 1.389 . S
C1126 H1099 0.950 . S
C1126 C1112 1.377 . S
C1126 C1125 1.373 . S
C1127 C1111 1.377 . S
C1127 C1125 1.389 . S
C1127 C1128 1.524 . S
C1128 C1127 1.524 . S
C1128 C1129 1.397 . S
C1128 C1133 1.363 . S
C1129 H1100 0.950 . S
C1129 C1128 1.397 . S
C1129 C1130 1.334 . S
C1130 H1101 0.950 . S
C1130 C1129 1.334 . S
C1130 C1131 1.287 . S
C1131 C1130 1.287 . S
C1131 C1132 1.524 . S
C1131 H1134 0.999 . S
C1132 H1102 0.950 . S
C1132 C1131 1.524 . S
C1132 C1133 1.415 . S
C1133 H1103 0.950 . S
C1133 C1128 1.363 . S
C1133 C1132 1.415 . S
H1134 C1131 0.999 . S
H1135 C1116 0.913 . S
H1136 C1154 0.951 . S
H1137 C1156 0.951 . S
H1138 C1158 0.950 . S
H1139 C1159 0.950 . S
H1140 C1161 0.950 . S
H1141 C1164 0.950 . S
H1142 C1165 0.950 . S
H1143 C1167 0.950 . S
H1144 C1168 0.950 . S
H1145 C1169 0.951 . S
H1146 C1171 0.951 . S
H1147 C1173 0.950 . S
H1148 C1174 0.950 . S
H1149 C1176 0.950 . S
H1150 C1179 0.950 . S
H1151 C1180 0.950 . S
H1152 C1182 0.950 . S
H1153 C1183 0.950 . S
C1154 H1136 0.951 . S
C1154 C1155 1.366 . S
C1154 C1156 1.388 . S
C1155 C1154 1.366 . S
C1155 C1159 1.385 . S
C1156 H1137 0.951 . S
C1156 C1154 1.388 . S
C1156 C1157 1.366 . S
C1157 C1156 1.366 . S
C1157 C1158 1.414 . S
C1157 C1160 1.499 . S
C1158 H1138 0.950 . S
C1158 C1157 1.414 . S
C1158 C1159 1.374 . S
C1159 H1139 0.950 . S
C1159 C1155 1.385 . S
C1159 C1158 1.374 . S
C1160 C1157 1.499 . S
C1160 C1161 1.373 . S
C1160 C1162 1.389 . S
C1161 H1140 0.950 . S
C1161 C1160 1.373 . S
C1161 C1177 1.377 . S
C1162 C1160 1.389 . S
C1162 C1163 1.524 . S
C1162 C1176 1.377 . S
C1163 C1162 1.524 . S
C1163 C1164 1.397 . S
C1163 C1168 1.363 . S
C1164 H1141 0.950 . S
C1164 C1163 1.397 . S
C1164 C1165 1.334 . S
C1165 H1142 0.950 . S
C1165 C1164 1.334 . S
C1165 C1166 1.287 . S
C1166 C1165 1.287 . S
C1166 C1167 1.524 . S
C1166 H1185 0.913 . S
C1167 H1143 0.950 . S
C1167 C1166 1.524 . S
C1167 C1168 1.415 . S
C1168 H1144 0.950 . S
C1168 C1163 1.363 . S
C1168 C1167 1.415 . S
C1169 H1145 0.951 . S
C1169 C1170 1.366 . S
C1169 C1171 1.388 . S
C1170 C1169 1.366 . S
C1170 C1174 1.385 . S
C1171 H1146 0.951 . S
C1171 C1169 1.388 . S
C1171 C1172 1.366 . S
C1172 C1171 1.366 . S
C1172 C1173 1.414 . S
C1172 C1175 1.499 . S
C1173 H1147 0.950 . S
C1173 C1172 1.414 . S
C1173 C1174 1.374 . S
C1174 H1148 0.950 . S
C1174 C1170 1.385 . S
C1174 C1173 1.374 . S
C1175 C1172 1.499 . S
C1175 C1176 1.373 . S
C1175 C1177 1.389 . S
C1176 H1149 0.950 . S
C1176 C1162 1.377 . S
C1176 C1175 1.373 . S
C1177 C1161 1.377 . S
C1177 C1175 1.389 . S
C1177 C1178 1.524 . S
C1178 C1177 1.524 . S
C1178 C1179 1.397 . S
C1178 C1183 1.363 . S
C1179 H1150 0.950 . S
C1179 C1178 1.397 . S
C1179 C1180 1.334 . S
C1180 H1151 0.950 . S
C1180 C1179 1.334 . S
C1180 C1181 1.287 . S
C1181 C1180 1.287 . S
C1181 C1182 1.524 . S
C1181 H1184 0.999 . S
C1182 H1152 0.950 . S
C1182 C1181 1.524 . S
C1182 C1183 1.415 . S
C1183 H1153 0.950 . S
C1183 C1178 1.363 . S
C1183 C1182 1.415 . S
H1184 C1181 0.999 . S
H1185 C1166 0.913 . S
H1186 C1204 0.951 . S
H1187 C1206 0.951 . S
H1188 C1208 0.950 . S
H1189 C1209 0.950 . S
H1190 C1211 0.950 . S
H1191 C1214 0.950 . S
H1192 C1215 0.950 . S
H1193 C1217 0.950 . S
H1194 C1218 0.950 . S
H1195 C1219 0.951 . S
H1196 C1221 0.951 . S
H1197 C1223 0.950 . S
H1198 C1224 0.950 . S
H1199 C1226 0.950 . S
H1200 C1229 0.950 . S
H1201 C1230 0.950 . S
H1202 C1232 0.950 . S
H1203 C1233 0.950 . S
C1204 H1186 0.951 . S
C1204 C1205 1.366 . S
C1204 C1206 1.388 . S
C1205 C1204 1.366 . S
C1205 C1209 1.385 . S
C1206 H1187 0.951 . S
C1206 C1204 1.388 . S
C1206 C1207 1.366 . S
C1207 C1206 1.366 . S
C1207 C1208 1.414 . S
C1207 C1210 1.499 . S
C1208 H1188 0.950 . S
C1208 C1207 1.414 . S
C1208 C1209 1.374 . S
C1209 H1189 0.950 . S
C1209 C1205 1.385 . S
C1209 C1208 1.374 . S
C1210 C1207 1.499 . S
C1210 C1211 1.373 . S
C1210 C1212 1.389 . S
C1211 H1190 0.950 . S
C1211 C1210 1.373 . S
C1211 C1227 1.377 . S
C1212 C1210 1.389 . S
C1212 C1213 1.524 . S
C1212 C1226 1.377 . S
C1213 C1212 1.524 . S
C1213 C1214 1.397 . S
C1213 C1218 1.363 . S
C1214 H1191 0.950 . S
C1214 C1213 1.397 . S
C1214 C1215 1.334 . S
C1215 H1192 0.950 . S
C1215 C1214 1.334 . S
C1215 C1216 1.287 . S
C1216 C1215 1.287 . S
C1216 C1217 1.524 . S
C1216 H1235 0.913 . S
C1217 H1193 0.950 . S
C1217 C1216 1.524 . S
C1217 C1218 1.415 . S
C1218 H1194 0.950 . S
C1218 C1213 1.363 . S
C1218 C1217 1.415 . S
C1219 H1195 0.951 . S
C1219 C1220 1.366 . S
C1219 C1221 1.388 . S
C1220 C1219 1.366 . S
C1220 C1224 1.385 . S
C1221 H1196 0.951 . S
C1221 C1219 1.388 . S
C1221 C1222 1.366 . S
C1222 C1221 1.366 . S
C1222 C1223 1.414 . S
C1222 C1225 1.499 . S
C1223 H1197 0.950 . S
C1223 C1222 1.414 . S
C1223 C1224 1.374 . S
C1224 H1198 0.950 . S
C1224 C1220 1.385 . S
C1224 C1223 1.374 . S
C1225 C1222 1.499 . S
C1225 C1226 1.373 . S
C1225 C1227 1.389 . S
C1226 H1199 0.950 . S
C1226 C1212 1.377 . S
C1226 C1225 1.373 . S
C1227 C1211 1.377 . S
C1227 C1225 1.389 . S
C1227 C1228 1.524 . S
C1228 C1227 1.524 . S
C1228 C1229 1.397 . S
C1228 C1233 1.363 . S
C1229 H1200 0.950 . S
C1229 C1228 1.397 . S
C1229 C1230 1.334 . S
C1230 H1201 0.950 . S
C1230 C1229 1.334 . S
C1230 C1231 1.287 . S
C1231 C1230 1.287 . S
C1231 C1232 1.524 . S
C1231 H1234 0.999 . S
C1232 H1202 0.950 . S
C1232 C1231 1.524 . S
C1232 C1233 1.415 . S
C1233 H1203 0.950 . S
C1233 C1228 1.363 . S
C1233 C1232 1.415 . S
H1234 C1231 0.999 . S
H1235 C1216 0.913 . S
H1236 C1254 0.951 . S
H1237 C1256 0.951 . S
H1238 C1258 0.950 . S
H1239 C1259 0.950 . S
H1240 C1261 0.950 . S
H1241 C1264 0.950 . S
H1242 C1265 0.950 . S
H1243 C1267 0.950 . S
H1244 C1268 0.950 . S
H1245 C1269 0.951 . S
H1246 C1271 0.951 . S
H1247 C1273 0.950 . S
H1248 C1274 0.950 . S
H1249 C1276 0.950 . S
H1250 C1279 0.950 . S
H1251 C1280 0.950 . S
H1252 C1282 0.950 . S
H1253 C1283 0.950 . S
C1254 H1236 0.951 . S
C1254 C1255 1.366 . S
C1254 C1256 1.388 . S
C1255 C1254 1.366 . S
C1255 C1259 1.385 . S
C1256 H1237 0.951 . S
C1256 C1254 1.388 . S
C1256 C1257 1.366 . S
C1257 C1256 1.366 . S
C1257 C1258 1.414 . S
C1257 C1260 1.499 . S
C1258 H1238 0.950 . S
C1258 C1257 1.414 . S
C1258 C1259 1.374 . S
C1259 H1239 0.950 . S
C1259 C1255 1.385 . S
C1259 C1258 1.374 . S
C1260 C1257 1.499 . S
C1260 C1261 1.373 . S
C1260 C1262 1.389 . S
C1261 H1240 0.950 . S
C1261 C1260 1.373 . S
C1261 C1277 1.377 . S
C1262 C1260 1.389 . S
C1262 C1263 1.524 . S
C1262 C1276 1.377 . S
C1263 C1262 1.524 . S
C1263 C1264 1.397 . S
C1263 C1268 1.363 . S
C1264 H1241 0.950 . S
C1264 C1263 1.397 . S
C1264 C1265 1.334 . S
C1265 H1242 0.950 . S
C1265 C1264 1.334 . S
C1265 C1266 1.287 . S
C1266 C1265 1.287 . S
C1266 C1267 1.524 . S
C1266 H1285 0.913 . S
C1267 H1243 0.950 . S
C1267 C1266 1.524 . S
C1267 C1268 1.415 . S
C1268 H1244 0.950 . S
C1268 C1263 1.363 . S
C1268 C1267 1.415 . S
C1269 H1245 0.951 . S
C1269 C1270 1.366 . S
C1269 C1271 1.388 . S
C1270 C1269 1.366 . S
C1270 C1274 1.385 . S
C1271 H1246 0.951 . S
C1271 C1269 1.388 . S
C1271 C1272 1.366 . S
C1272 C1271 1.366 . S
C1272 C1273 1.414 . S
C1272 C1275 1.499 . S
C1273 H1247 0.950 . S
C1273 C1272 1.414 . S
C1273 C1274 1.374 . S
C1274 H1248 0.950 . S
C1274 C1270 1.385 . S
C1274 C1273 1.374 . S
C1275 C1272 1.499 . S
C1275 C1276 1.373 . S
C1275 C1277 1.389 . S
C1276 H1249 0.950 . S
C1276 C1262 1.377 . S
C1276 C1275 1.373 . S
C1277 C1261 1.377 . S
C1277 C1275 1.389 . S
C1277 C1278 1.524 . S
C1278 C1277 1.524 . S
C1278 C1279 1.397 . S
C1278 C1283 1.363 . S
C1279 H1250 0.950 . S
C1279 C1278 1.397 . S
C1279 C1280 1.334 . S
C1280 H1251 0.950 . S
C1280 C1279 1.334 . S
C1280 C1281 1.287 . S
C1281 C1280 1.287 . S
C1281 C1282 1.524 . S
C1281 H1284 0.999 . S
C1282 H1252 0.950 . S
C1282 C1281 1.524 . S
C1282 C1283 1.415 . S
C1283 H1253 0.950 . S
C1283 C1278 1.363 . S
C1283 C1282 1.415 . S
H1284 C1281 0.999 . S
H1285 C1266 0.913 . S
H1286 C1304 0.951 . S
H1287 C1306 0.951 . S
H1288 C1308 0.950 . S
H1289 C1309 0.950 . S
H1290 C1311 0.950 . S
H1291 C1314 0.950 . S
H1292 C1315 0.950 . S
H1293 C1317 0.950 . S
H1294 C1318 0.950 . S
H1295 C1319 0.951 . S
H1296 C1321 0.951 . S
H1297 C1323 0.950 . S
H1298 C1324 0.950 . S
H1299 C1326 0.950 . S
H1300 C1329 0.950 . S
H1301 C1330 0.950 . S
H1302 C1332 0.950 . S
H1303 C1333 0.950 . S
C1304 H1286 0.951 . S
C1304 C1305 1.366 . S
C1304 C1306 1.388 . S
C1305 C1304 1.366 . S
C1305 C1309 1.385 . S
C1306 H1287 0.951 . S
C1306 C1304 1.388 . S
C1306 C1307 1.366 . S
C1307 C1306 1.366 . S
C1307 C1308 1.414 . S
C1307 C1310 1.499 . S
C1308 H1288 0.950 . S
C1308 C1307 1.414 . S
C1308 C1309 1.374 . S
C1309 H1289 0.950 . S
C1309 C1305 1.385 . S
C1309 C1308 1.374 . S
C1310 C1307 1.499 . S
C1310 C1311 1.373 . S
C1310 C1312 1.389 . S
C1311 H1290 0.950 . S
C1311 C1310 1.373 . S
C1311 C1327 1.377 . S
C1312 C1310 1.389 . S
C1312 C1313 1.524 . S
C1312 C1326 1.377 . S
C1313 C1312 1.524 . S
C1313 C1314 1.397 . S
C1313 C1318 1.363 . S
C1314 H1291 0.950 . S
C1314 C1313 1.397 . S
C1314 C1315 1.334 . S
C1315 H1292 0.950 . S
C1315 C1314 1.334 . S
C1315 C1316 1.287 . S
C1316 C1315 1.287 . S
C1316 C1317 1.524 . S
C1316 H1335 0.913 . S
C1317 H1293 0.950 . S
C1317 C1316 1.524 . S
C1317 C1318 1.415 . S
C1318 H1294 0.950 . S
C1318 C1313 1.363 . S
C1318 C1317 1.415 . S
C1319 H1295 0.951 . S
C1319 C1320 1.366 . S
C1319 C1321 1.388 . S
C1320 C1319 1.366 . S
C1320 C1324 1.385 . S
C1321 H1296 0.951 . S
C1321 C1319 1.388 . S
C1321 C1322 1.366 . S
C1322 C1321 1.366 . S
C1322 C1323 1.414 . S
C1322 C1325 1.499 . S
C1323 H1297 0.950 . S
C1323 C1322 1.414 . S
C1323 C1324 1.374 . S
C1324 H1298 0.950 . S
C1324 C1320 1.385 . S
C1324 C1323 1.374 . S
C1325 C1322 1.499 . S
C1325 C1326 1.373 . S
C1325 C1327 1.389 . S
C1326 H1299 0.950 . S
C1326 C1312 1.377 . S
C1326 C1325 1.373 . S
C1327 C1311 1.377 . S
C1327 C1325 1.389 . S
C1327 C1328 1.524 . S
C1328 C1327 1.524 . S
C1328 C1329 1.397 . S
C1328 C1333 1.363 . S
C1329 H1300 0.950 . S
C1329 C1328 1.397 . S
C1329 C1330 1.334 . S
C1330 H1301 0.950 . S
C1330 C1329 1.334 . S
C1330 C1331 1.287 . S
C1331 C1330 1.287 . S
C1331 C1332 1.524 . S
C1331 H1334 0.999 . S
C1332 H1302 0.950 . S
C1332 C1331 1.524 . S
C1332 C1333 1.415 . S
C1333 H1303 0.950 . S
C1333 C1328 1.363 . S
C1333 C1332 1.415 . S
H1334 C1331 0.999 . S
H1335 C1316 0.913 . S
H1336 C1354 0.951 . S
H1337 C1356 0.951 . S
H1338 C1358 0.950 . S
H1339 C1359 0.950 . S
H1340 C1361 0.950 . S
H1341 C1364 0.950 . S
H1342 C1365 0.950 . S
H1343 C1367 0.950 . S
H1344 C1368 0.950 . S
H1345 C1369 0.951 . S
H1346 C1371 0.951 . S
H1347 C1373 0.950 . S
H1348 C1374 0.950 . S
H1349 C1376 0.950 . S
H1350 C1379 0.950 . S
H1351 C1380 0.950 . S
H1352 C1382 0.950 . S
H1353 C1383 0.950 . S
C1354 H1336 0.951 . S
C1354 C1355 1.366 . S
C1354 C1356 1.388 . S
C1355 C1354 1.366 . S
C1355 C1359 1.385 . S
C1356 H1337 0.951 . S
C1356 C1354 1.388 . S
C1356 C1357 1.366 . S
C1357 C1356 1.366 . S
C1357 C1358 1.414 . S
C1357 C1360 1.499 . S
C1358 H1338 0.950 . S
C1358 C1357 1.414 . S
C1358 C1359 1.374 . S
C1359 H1339 0.950 . S
C1359 C1355 1.385 . S
C1359 C1358 1.374 . S
C1360 C1357 1.499 . S
C1360 C1361 1.373 . S
C1360 C1362 1.389 . S
C1361 H1340 0.950 . S
C1361 C1360 1.373 . S
C1361 C1377 1.377 . S
C1362 C1360 1.389 . S
C1362 C1363 1.524 . S
C1362 C1376 1.377 . S
C1363 C1362 1.524 . S
C1363 C1364 1.397 . S
C1363 C1368 1.363 . S
C1364 H1341 0.950 . S
C1364 C1363 1.397 . S
C1364 C1365 1.334 . S
C1365 H1342 0.950 . S
C1365 C1364 1.334 . S
C1365 C1366 1.287 . S
C1366 C1365 1.287 . S
C1366 C1367 1.524 . S
C1366 H1385 0.913 . S
C1367 H1343 0.950 . S
C1367 C1366 1.524 . S
C1367 C1368 1.415 . S
C1368 H1344 0.950 . S
C1368 C1363 1.363 . S
C1368 C1367 1.415 . S
C1369 H1345 0.951 . S
C1369 C1370 1.366 . S
C1369 C1371 1.388 . S
C1370 C1369 1.366 . S
C1370 C1374 1.385 . S
C1371 H1346 0.951 . S
C1371 C1369 1.388 . S
C1371 C1372 1.366 . S
C1372 C1371 1.366 . S
C1372 C1373 1.414 . S
C1372 C1375 1.499 . S
C1373 H1347 0.950 . S
C1373 C1372 1.414 . S
C1373 C1374 1.374 . S
C1374 H1348 0.950 . S
C1374 C1370 1.385 . S
C1374 C1373 1.374 . S
C1375 C1372 1.499 . S
C1375 C1376 1.373 . S
C1375 C1377 1.389 . S
C1376 H1349 0.950 . S
C1376 C1362 1.377 . S
C1376 C1375 1.373 . S
C1377 C1361 1.377 . S
C1377 C1375 1.389 . S
C1377 C1378 1.524 . S
C1378 C1377 1.524 . S
C1378 C1379 1.397 . S
C1378 C1383 1.363 . S
C1379 H1350 0.950 . S
C1379 C1378 1.397 . S
C1379 C1380 1.334 . S
C1380 H1351 0.950 . S
C1380 C1379 1.334 . S
C1380 C1381 1.287 . S
C1381 C1380 1.287 . S
C1381 C1382 1.524 . S
C1381 H1384 0.999 . S
C1382 H1352 0.950 . S
C1382 C1381 1.524 . S
C1382 C1383 1.415 . S
C1383 H1353 0.950 . S
C1383 C1378 1.363 . S
C1383 C1382 1.415 . S
H1384 C1381 0.999 . S
H1385 C1366 0.913 . S
H1386 C1404 0.951 . S
H1387 C1406 0.951 . S
H1388 C1408 0.950 . S
H1389 C1409 0.950 . S
H1390 C1411 0.950 . S
H1391 C1414 0.950 . S
H1392 C1415 0.950 . S
H1393 C1417 0.950 . S
H1394 C1418 0.950 . S
H1395 C1419 0.951 . S
H1396 C1421 0.951 . S
H1397 C1423 0.950 . S
H1398 C1424 0.950 . S
H1399 C1426 0.950 . S
H1400 C1429 0.950 . S
H1401 C1430 0.950 . S
H1402 C1432 0.950 . S
H1403 C1433 0.950 . S
C1404 H1386 0.951 . S
C1404 C1405 1.366 . S
C1404 C1406 1.388 . S
C1405 C1404 1.366 . S
C1405 C1409 1.385 . S
C1406 H1387 0.951 . S
C1406 C1404 1.388 . S
C1406 C1407 1.366 . S
C1407 C1406 1.366 . S
C1407 C1408 1.414 . S
C1407 C1410 1.499 . S
C1408 H1388 0.950 . S
C1408 C1407 1.414 . S
C1408 C1409 1.374 . S
C1409 H1389 0.950 . S
C1409 C1405 1.385 . S
C1409 C1408 1.374 . S
C1410 C1407 1.499 . S
C1410 C1411 1.373 . S
C1410 C1412 1.389 . S
C1411 H1390 0.950 . S
C1411 C1410 1.373 . S
C1411 C1427 1.377 . S
C1412 C1410 1.389 . S
C1412 C1413 1.524 . S
C1412 C1426 1.377 . S
C1413 C1412 1.524 . S
C1413 C1414 1.397 . S
C1413 C1418 1.363 . S
C1414 H1391 0.950 . S
C1414 C1413 1.397 . S
C1414 C1415 1.334 . S
C1415 H1392 0.950 . S
C1415 C1414 1.334 . S
C1415 C1416 1.287 . S
C1416 C1415 1.287 . S
C1416 C1417 1.524 . S
C1416 H1435 0.913 . S
C1417 H1393 0.950 . S
C1417 C1416 1.524 . S
C1417 C1418 1.415 . S
C1418 H1394 0.950 . S
C1418 C1413 1.363 . S
C1418 C1417 1.415 . S
C1419 H1395 0.951 . S
C1419 C1420 1.366 . S
C1419 C1421 1.388 . S
C1420 C1419 1.366 . S
C1420 C1424 1.385 . S
C1421 H1396 0.951 . S
C1421 C1419 1.388 . S
C1421 C1422 1.366 . S
C1422 C1421 1.366 . S
C1422 C1423 1.414 . S
C1422 C1425 1.499 . S
C1423 H1397 0.950 . S
C1423 C1422 1.414 . S
C1423 C1424 1.374 . S
C1424 H1398 0.950 . S
C1424 C1420 1.385 . S
C1424 C1423 1.374 . S
C1425 C1422 1.499 . S
C1425 C1426 1.373 . S
C1425 C1427 1.389 . S
C1426 H1399 0.950 . S
C1426 C1412 1.377 . S
C1426 C1425 1.373 . S
C1427 C1411 1.377 . S
C1427 C1425 1.389 . S
C1427 C1428 1.524 . S
C1428 C1427 1.524 . S
C1428 C1429 1.397 . S
C1428 C1433 1.363 . S
C1429 H1400 0.950 . S
C1429 C1428 1.397 . S
C1429 C1430 1.334 . S
C1430 H1401 0.950 . S
C1430 C1429 1.334 . S
C1430 C1431 1.287 . S
C1431 C1430 1.287 . S
C1431 C1432 1.524 . S
C1431 H1434 0.999 . S
C1432 H1402 0.950 . S
C1432 C1431 1.524 . S
C1432 C1433 1.415 . S
C1433 H1403 0.950 . S
C1433 C1428 1.363 . S
C1433 C1432 1.415 . S
H1434 C1431 0.999 . S
H1435 C1416 0.913 . S
H1436 C1454 0.951 . S
H1437 C1456 0.951 . S
H1438 C1458 0.950 . S
H1439 C1459 0.950 . S
H1440 C1461 0.950 . S
H1441 C1464 0.950 . S
H1442 C1465 0.950 . S
H1443 C1467 0.950 . S
H1444 C1468 0.950 . S
H1445 C1469 0.951 . S
H1446 C1471 0.951 . S
H1447 C1473 0.950 . S
H1448 C1474 0.950 . S
H1449 C1476 0.950 . S
H1450 C1479 0.950 . S
H1451 C1480 0.950 . S
H1452 C1482 0.950 . S
H1453 C1483 0.950 . S
C1454 H1436 0.951 . S
C1454 C1455 1.366 . S
C1454 C1456 1.388 . S
C1455 C1454 1.366 . S
C1455 C1459 1.385 . S
C1456 H1437 0.951 . S
C1456 C1454 1.388 . S
C1456 C1457 1.366 . S
C1457 C1456 1.366 . S
C1457 C1458 1.414 . S
C1457 C1460 1.499 . S
C1458 H1438 0.950 . S
C1458 C1457 1.414 . S
C1458 C1459 1.374 . S
C1459 H1439 0.950 . S
C1459 C1455 1.385 . S
C1459 C1458 1.374 . S
C1460 C1457 1.499 . S
C1460 C1461 1.373 . S
C1460 C1462 1.389 . S
C1461 H1440 0.950 . S
C1461 C1460 1.373 . S
C1461 C1477 1.377 . S
C1462 C1460 1.389 . S
C1462 C1463 1.524 . S
C1462 C1476 1.377 . S
C1463 C1462 1.524 . S
C1463 C1464 1.397 . S
C1463 C1468 1.363 . S
C1464 H1441 0.950 . S
C1464 C1463 1.397 . S
C1464 C1465 1.334 . S
C1465 H1442 0.950 . S
C1465 C1464 1.334 . S
C1465 C1466 1.287 . S
C1466 C1465 1.287 . S
C1466 C1467 1.524 . S
C1466 H1485 0.913 . S
C1467 H1443 0.950 . S
C1467 C1466 1.524 . S
C1467 C1468 1.415 . S
C1468 H1444 0.950 . S
C1468 C1463 1.363 . S
C1468 C1467 1.415 . S
C1469 H1445 0.951 . S
C1469 C1470 1.366 . S
C1469 C1471 1.388 . S
C1470 C1469 1.366 . S
C1470 C1474 1.385 . S
C1471 H1446 0.951 . S
C1471 C1469 1.388 . S
C1471 C1472 1.366 . S
C1472 C1471 1.366 . S
C1472 C1473 1.414 . S
C1472 C1475 1.499 . S
C1473 H1447 0.950 . S
C1473 C1472 1.414 . S
C1473 C1474 1.374 . S
C1474 H1448 0.950 . S
C1474 C1470 1.385 . S
C1474 C1473 1.374 . S
C1475 C1472 1.499 . S
C1475 C1476 1.373 . S
C1475 C1477 1.389 . S
C1476 H1449 0.950 . S
C1476 C1462 1.377 . S
C1476 C1475 1.373 . S
C1477 C1461 1.377 . S
C1477 C1475 1.389 . S
C1477 C1478 1.524 . S
C1478 C1477 1.524 . S
C1478 C1479 1.397 . S
C1478 C1483 1.363 . S
C1479 H1450 0.950 . S
C1479 C1478 1.397 . S
C1479 C1480 1.334 . S
C1480 H1451 0.950 . S
C1480 C1479 1.334 . S
C1480 C1481 1.287 . S
C1481 C1480 1.287 . S
C1481 C1482 1.524 . S
C1481 H1484 0.999 . S
C1482 H1452 0.950 . S
C1482 C1481 1.524 . S
C1482 C1483 1.415 . S
C1483 H1453 0.950 . S
C1483 C1478 1.363 . S
C1483 C1482 1.415 . S
H1484 C1481 0.999 . S
H1485 C1466 0.913 . S
H1486 C1504 0.951 . S
H1487 C1506 0.951 . S
H1488 C1508 0.950 . S
H1489 C1509 0.950 . S
H1490 C1511 0.950 . S
H1491 C1514 0.950 . S
H1492 C1515 0.950 . S
H1493 C1517 0.950 . S
H1494 C1518 0.950 . S
H1495 C1519 0.951 . S
H1496 C1521 0.951 . S
H1497 C1523 0.950 . S
H1498 C1524 0.950 . S
H1499 C1526 0.950 . S
H1500 C1529 0.950 . S
H1501 C1530 0.950 . S
H1502 C1532 0.950 . S
H1503 C1533 0.950 . S
C1504 H1486 0.951 . S
C1504 C1505 1.366 . S
C1504 C1506 1.388 . S
C1505 C1504 1.366 . S
C1505 C1509 1.385 . S
C1506 H1487 0.951 . S
C1506 C1504 1.388 . S
C1506 C1507 1.366 . S
C1507 C1506 1.366 . S
C1507 C1508 1.414 . S
C1507 C1510 1.499 . S
C1508 H1488 0.950 . S
C1508 C1507 1.414 . S
C1508 C1509 1.374 . S
C1509 H1489 0.950 . S
C1509 C1505 1.385 . S
C1509 C1508 1.374 . S
C1510 C1507 1.499 . S
C1510 C1511 1.373 . S
C1510 C1512 1.389 . S
C1511 H1490 0.950 . S
C1511 C1510 1.373 . S
C1511 C1527 1.377 . S
C1512 C1510 1.389 . S
C1512 C1513 1.524 . S
C1512 C1526 1.377 . S
C1513 C1512 1.524 . S
C1513 C1514 1.397 . S
C1513 C1518 1.363 . S
C1514 H1491 0.950 . S
C1514 C1513 1.397 . S
C1514 C1515 1.334 . S
C1515 H1492 0.950 . S
C1515 C1514 1.334 . S
C1515 C1516 1.287 . S
C1516 C1515 1.287 . S
C1516 C1517 1.524 . S
C1516 H1535 0.913 . S
C1517 H1493 0.950 . S
C1517 C1516 1.524 . S
C1517 C1518 1.415 . S
C1518 H1494 0.950 . S
C1518 C1513 1.363 . S
C1518 C1517 1.415 . S
C1519 H1495 0.951 . S
C1519 C1520 1.366 . S
C1519 C1521 1.388 . S
C1520 C1519 1.366 . S
C1520 C1524 1.385 . S
C1521 H1496 0.951 . S
C1521 C1519 1.388 . S
C1521 C1522 1.366 . S
C1522 C1521 1.366 . S
C1522 C1523 1.414 . S
C1522 C1525 1.499 . S
C1523 H1497 0.950 . S
C1523 C1522 1.414 . S
C1523 C1524 1.374 . S
C1524 H1498 0.950 . S
C1524 C1520 1.385 . S
C1524 C1523 1.374 . S
C1525 C1522 1.499 . S
C1525 C1526 1.373 . S
C1525 C1527 1.389 . S
C1526 H1499 0.950 . S
C1526 C1512 1.377 . S
C1526 C1525 1.373 . S
C1527 C1511 1.377 . S
C1527 C1525 1.389 . S
C1527 C1528 1.524 . S
C1528 C1527 1.524 . S
C1528 C1529 1.397 . S
C1528 C1533 1.363 . S
C1529 H1500 0.950 . S
C1529 C1528 1.397 . S
C1529 C1530 1.334 . S
C1530 H1501 0.950 . S
C1530 C1529 1.334 . S
C1530 C1531 1.287 . S
C1531 C1530 1.287 . S
C1531 C1532 1.524 . S
C1531 H1534 0.999 . S
C1532 H1502 0.950 . S
C1532 C1531 1.524 . S
C1532 C1533 1.415 . S
C1533 H1503 0.950 . S
C1533 C1528 1.363 . S
C1533 C1532 1.415 . S
H1534 C1531 0.999 . S
H1535 C1516 0.913 . S
H1536 C1554 0.951 . S
H1537 C1556 0.951 . S
H1538 C1558 0.950 . S
H1539 C1559 0.950 . S
H1540 C1561 0.950 . S
H1541 C1564 0.950 . S
H1542 C1565 0.950 . S
H1543 C1567 0.950 . S
H1544 C1568 0.950 1_655 S
H1545 C1569 0.951 . S
H1546 C1571 0.951 . S
H1547 C1573 0.950 . S
H1548 C1574 0.950 . S
H1549 C1576 0.950 . S
H1550 C1579 0.950 . S
H1551 C1580 0.950 . S
H1552 C1582 0.950 . S
H1553 C1583 0.950 1_455 S
C1554 H1536 0.951 . S
C1554 C1555 1.366 . S
C1554 C1556 1.388 . S
C1555 C1554 1.366 . S
C1555 C1559 1.385 . S
C1556 H1537 0.951 . S
C1556 C1554 1.388 . S
C1556 C1557 1.366 . S
C1557 C1556 1.366 . S
C1557 C1558 1.414 . S
C1557 C1560 1.499 . S
C1558 H1538 0.950 . S
C1558 C1557 1.414 . S
C1558 C1559 1.374 . S
C1559 H1539 0.950 . S
C1559 C1555 1.385 . S
C1559 C1558 1.374 . S
C1560 C1557 1.499 . S
C1560 C1561 1.373 . S
C1560 C1562 1.389 . S
C1561 H1540 0.950 . S
C1561 C1560 1.373 . S
C1561 C1577 1.377 1_455 S
C1562 C1560 1.389 . S
C1562 C1563 1.524 . S
C1562 C1576 1.377 1_455 S
C1563 C1562 1.524 . S
C1563 C1564 1.397 . S
C1563 C1568 1.363 . S
C1564 H1541 0.950 . S
C1564 C1563 1.397 . S
C1564 C1565 1.334 . S
C1565 H1542 0.950 . S
C1565 C1564 1.334 . S
C1565 C1566 1.287 . S
C1566 C1565 1.287 . S
C1566 C1567 1.524 . S
C1566 H1585 0.913 . S
C1567 H1543 0.950 . S
C1567 C1566 1.524 . S
C1567 C1568 1.415 . S
C1568 H1544 0.950 1_455 S
C1568 C1563 1.363 . S
C1568 C1567 1.415 . S
C1569 H1545 0.951 . S
C1569 C1570 1.366 . S
C1569 C1571 1.388 . S
C1570 C1569 1.366 . S
C1570 C1574 1.385 . S
C1571 H1546 0.951 . S
C1571 C1569 1.388 . S
C1571 C1572 1.366 . S
C1572 C1571 1.366 . S
C1572 C1573 1.414 . S
C1572 C1575 1.499 . S
C1573 H1547 0.950 . S
C1573 C1572 1.414 . S
C1573 C1574 1.374 . S
C1574 H1548 0.950 . S
C1574 C1570 1.385 . S
C1574 C1573 1.374 . S
C1575 C1572 1.499 . S
C1575 C1576 1.373 . S
C1575 C1577 1.389 . S
C1576 H1549 0.950 . S
C1576 C1562 1.377 1_655 S
C1576 C1575 1.373 . S
C1577 C1561 1.377 1_655 S
C1577 C1575 1.389 . S
C1577 C1578 1.524 . S
C1578 C1577 1.524 . S
C1578 C1579 1.397 . S
C1578 C1583 1.363 . S
C1579 H1550 0.950 . S
C1579 C1578 1.397 . S
C1579 C1580 1.334 . S
C1580 H1551 0.950 . S
C1580 C1579 1.334 . S
C1580 C1581 1.287 . S
C1581 C1580 1.287 . S
C1581 C1582 1.524 . S
C1581 H1584 0.999 . S
C1582 H1552 0.950 . S
C1582 C1581 1.524 . S
C1582 C1583 1.415 . S
C1583 H1553 0.950 1_655 S
C1583 C1578 1.363 . S
C1583 C1582 1.415 . S
H1584 C1581 0.999 . S
H1585 C1566 0.913 . S
H1586 C1604 0.951 . S
H1587 C1606 0.951 . S
H1588 C1608 0.950 . S
H1589 C1609 0.950 . S
H1590 C1611 0.950 . S
H1591 C1614 0.950 . S
H1592 C1615 0.950 . S
H1593 C1617 0.950 . S
H1594 C1618 0.950 . S
H1595 C1619 0.951 . S
H1596 C1621 0.951 . S
H1597 C1623 0.950 . S
H1598 C1624 0.950 . S
H1599 C1626 0.950 . S
H1600 C1629 0.950 . S
H1601 C1630 0.950 . S
H1602 C1632 0.950 . S
H1603 C1633 0.950 . S
C1604 H1586 0.951 . S
C1604 C1605 1.366 . S
C1604 C1606 1.388 . S
C1605 C1604 1.366 . S
C1605 C1609 1.385 . S
C1606 H1587 0.951 . S
C1606 C1604 1.388 . S
C1606 C1607 1.366 . S
C1607 C1606 1.366 . S
C1607 C1608 1.414 . S
C1607 C1610 1.499 . S
C1608 H1588 0.950 . S
C1608 C1607 1.414 . S
C1608 C1609 1.374 . S
C1609 H1589 0.950 . S
C1609 C1605 1.385 . S
C1609 C1608 1.374 . S
C1610 C1607 1.499 . S
C1610 C1611 1.373 . S
C1610 C1612 1.389 . S
C1611 H1590 0.950 . S
C1611 C1610 1.373 . S
C1611 C1627 1.377 1_545 S
C1612 C1610 1.389 . S
C1612 C1613 1.524 . S
C1612 C1626 1.377 1_545 S
C1613 C1612 1.524 . S
C1613 C1614 1.397 . S
C1613 C1618 1.363 . S
C1614 H1591 0.950 . S
C1614 C1613 1.397 . S
C1614 C1615 1.334 . S
C1615 H1592 0.950 . S
C1615 C1614 1.334 . S
C1615 C1616 1.287 . S
C1616 C1615 1.287 . S
C1616 C1617 1.524 . S
C1616 H1635 0.913 . S
C1617 H1593 0.950 . S
C1617 C1616 1.524 . S
C1617 C1618 1.415 . S
C1618 H1594 0.950 . S
C1618 C1613 1.363 . S
C1618 C1617 1.415 . S
C1619 H1595 0.951 . S
C1619 C1620 1.366 . S
C1619 C1621 1.388 . S
C1620 C1619 1.366 . S
C1620 C1624 1.385 . S
C1621 H1596 0.951 . S
C1621 C1619 1.388 . S
C1621 C1622 1.366 . S
C1622 C1621 1.366 . S
C1622 C1623 1.414 . S
C1622 C1625 1.499 . S
C1623 H1597 0.950 . S
C1623 C1622 1.414 . S
C1623 C1624 1.374 . S
C1624 H1598 0.950 . S
C1624 C1620 1.385 . S
C1624 C1623 1.374 . S
C1625 C1622 1.499 . S
C1625 C1626 1.373 . S
C1625 C1627 1.389 . S
C1626 H1599 0.950 . S
C1626 C1612 1.377 1_565 S
C1626 C1625 1.373 . S
C1627 C1611 1.377 1_565 S
C1627 C1625 1.389 . S
C1627 C1628 1.524 . S
C1628 C1627 1.524 . S
C1628 C1629 1.397 . S
C1628 C1633 1.363 . S
C1629 H1600 0.950 . S
C1629 C1628 1.397 . S
C1629 C1630 1.334 . S
C1630 H1601 0.950 . S
C1630 C1629 1.334 . S
C1630 C1631 1.287 . S
C1631 C1630 1.287 . S
C1631 C1632 1.524 . S
C1631 H1634 0.999 . S
C1632 H1602 0.950 . S
C1632 C1631 1.524 . S
C1632 C1633 1.415 . S
C1633 H1603 0.950 . S
C1633 C1628 1.363 . S
C1633 C1632 1.415 . S
H1634 C1631 0.999 . S
H1635 C1616 0.913 . S
H1636 C1654 0.951 . S
H1637 C1656 0.951 . S
H1638 C1658 0.950 . S
H1639 C1659 0.950 . S
H1640 C1661 0.950 . S
H1641 C1664 0.950 . S
H1642 C1665 0.950 . S
H1643 C1667 0.950 . S
H1644 C1668 0.950 . S
H1645 C1669 0.951 . S
H1646 C1671 0.951 . S
H1647 C1673 0.950 . S
H1648 C1674 0.950 . S
H1649 C1676 0.950 . S
H1650 C1679 0.950 . S
H1651 C1680 0.950 . S
H1652 C1682 0.950 . S
H1653 C1683 0.950 . S
C1654 H1636 0.951 . S
C1654 C1655 1.366 . S
C1654 C1656 1.388 . S
C1655 C1654 1.366 . S
C1655 C1659 1.385 . S
C1656 H1637 0.951 . S
C1656 C1654 1.388 . S
C1656 C1657 1.366 . S
C1657 C1656 1.366 . S
C1657 C1658 1.414 . S
C1657 C1660 1.499 . S
C1658 H1638 0.950 . S
C1658 C1657 1.414 . S
C1658 C1659 1.374 . S
C1659 H1639 0.950 . S
C1659 C1655 1.385 . S
C1659 C1658 1.374 . S
C1660 C1657 1.499 . S
C1660 C1661 1.373 . S
C1660 C1662 1.389 . S
C1661 H1640 0.950 . S
C1661 C1660 1.373 . S
C1661 C1677 1.377 1_655 S
C1662 C1660 1.389 . S
C1662 C1663 1.524 . S
C1662 C1676 1.377 1_655 S
C1663 C1662 1.524 . S
C1663 C1664 1.397 . S
C1663 C1668 1.363 . S
C1664 H1641 0.950 . S
C1664 C1663 1.397 . S
C1664 C1665 1.334 . S
C1665 H1642 0.950 . S
C1665 C1664 1.334 . S
C1665 C1666 1.287 . S
C1666 C1665 1.287 . S
C1666 C1667 1.524 . S
C1666 H1685 0.913 . S
C1667 H1643 0.950 . S
C1667 C1666 1.524 . S
C1667 C1668 1.415 . S
C1668 H1644 0.950 . S
C1668 C1663 1.363 . S
C1668 C1667 1.415 . S
C1669 H1645 0.951 . S
C1669 C1670 1.366 . S
C1669 C1671 1.388 . S
C1670 C1669 1.366 . S
C1670 C1674 1.385 . S
C1671 H1646 0.951 . S
C1671 C1669 1.388 . S
C1671 C1672 1.366 . S
C1672 C1671 1.366 . S
C1672 C1673 1.414 . S
C1672 C1675 1.499 . S
C1673 H1647 0.950 . S
C1673 C1672 1.414 . S
C1673 C1674 1.374 . S
C1674 H1648 0.950 . S
C1674 C1670 1.385 . S
C1674 C1673 1.374 . S
C1675 C1672 1.499 . S
C1675 C1676 1.373 . S
C1675 C1677 1.389 . S
C1676 H1649 0.950 . S
C1676 C1662 1.377 1_455 S
C1676 C1675 1.373 . S
C1677 C1661 1.377 1_455 S
C1677 C1675 1.389 . S
C1677 C1678 1.524 . S
C1678 C1677 1.524 . S
C1678 C1679 1.397 . S
C1678 C1683 1.363 . S
C1679 H1650 0.950 . S
C1679 C1678 1.397 . S
C1679 C1680 1.334 . S
C1680 H1651 0.950 . S
C1680 C1679 1.334 . S
C1680 C1681 1.287 . S
C1681 C1680 1.287 . S
C1681 C1682 1.524 . S
C1681 H1684 0.999 . S
C1682 H1652 0.950 . S
C1682 C1681 1.524 . S
C1682 C1683 1.415 . S
C1683 H1653 0.950 . S
C1683 C1678 1.363 . S
C1683 C1682 1.415 . S
H1684 C1681 0.999 . S
H1685 C1666 0.913 . S
H1686 C1704 0.951 . S
H1687 C1706 0.951 . S
H1688 C1708 0.950 . S
H1689 C1709 0.950 . S
H1690 C1711 0.950 . S
H1691 C1714 0.950 . S
H1692 C1715 0.950 . S
H1693 C1717 0.950 . S
H1694 C1718 0.950 . S
H1695 C1719 0.951 . S
H1696 C1721 0.951 . S
H1697 C1723 0.950 . S
H1698 C1724 0.950 . S
H1699 C1726 0.950 . S
H1700 C1729 0.950 . S
H1701 C1730 0.950 . S
H1702 C1732 0.950 . S
H1703 C1733 0.950 . S
C1704 H1686 0.951 . S
C1704 C1705 1.366 . S
C1704 C1706 1.388 . S
C1705 C1704 1.366 . S
C1705 C1709 1.385 . S
C1706 H1687 0.951 . S
C1706 C1704 1.388 . S
C1706 C1707 1.366 . S
C1707 C1706 1.366 . S
C1707 C1708 1.414 . S
C1707 C1710 1.499 . S
C1708 H1688 0.950 . S
C1708 C1707 1.414 . S
C1708 C1709 1.374 . S
C1709 H1689 0.950 . S
C1709 C1705 1.385 . S
C1709 C1708 1.374 . S
C1710 C1707 1.499 . S
C1710 C1711 1.373 . S
C1710 C1712 1.389 . S
C1711 H1690 0.950 . S
C1711 C1710 1.373 . S
C1711 C1727 1.377 1_545 S
C1712 C1710 1.389 . S
C1712 C1713 1.524 . S
C1712 C1726 1.377 1_545 S
C1713 C1712 1.524 . S
C1713 C1714 1.397 . S
C1713 C1718 1.363 . S
C1714 H1691 0.950 . S
C1714 C1713 1.397 . S
C1714 C1715 1.334 . S
C1715 H1692 0.950 . S
C1715 C1714 1.334 . S
C1715 C1716 1.287 . S
C1716 C1715 1.287 . S
C1716 C1717 1.524 . S
C1716 H1735 0.913 . S
C1717 H1693 0.950 . S
C1717 C1716 1.524 . S
C1717 C1718 1.415 . S
C1718 H1694 0.950 . S
C1718 C1713 1.363 . S
C1718 C1717 1.415 . S
C1719 H1695 0.951 . S
C1719 C1720 1.366 . S
C1719 C1721 1.388 . S
C1720 C1719 1.366 . S
C1720 C1724 1.385 . S
C1721 H1696 0.951 . S
C1721 C1719 1.388 . S
C1721 C1722 1.366 . S
C1722 C1721 1.366 . S
C1722 C1723 1.414 . S
C1722 C1725 1.499 . S
C1723 H1697 0.950 . S
C1723 C1722 1.414 . S
C1723 C1724 1.374 . S
C1724 H1698 0.950 . S
C1724 C1720 1.385 . S
C1724 C1723 1.374 . S
C1725 C1722 1.499 . S
C1725 C1726 1.373 . S
C1725 C1727 1.389 . S
C1726 H1699 0.950 . S
C1726 C1712 1.377 1_565 S
C1726 C1725 1.373 . S
C1727 C1711 1.377 1_565 S
C1727 C1725 1.389 . S
C1727 C1728 1.524 . S
C1728 C1727 1.524 . S
C1728 C1729 1.397 . S
C1728 C1733 1.363 . S
C1729 H1700 0.950 . S
C1729 C1728 1.397 . S
C1729 C1730 1.334 . S
C1730 H1701 0.950 . S
C1730 C1729 1.334 . S
C1730 C1731 1.287 . S
C1731 C1730 1.287 . S
C1731 C1732 1.524 . S
C1731 H1734 0.999 . S
C1732 H1702 0.950 . S
C1732 C1731 1.524 . S
C1732 C1733 1.415 . S
C1733 H1703 0.950 . S
C1733 C1728 1.363 . S
C1733 C1732 1.415 . S
H1734 C1731 0.999 . S
H1735 C1716 0.913 . S
H1736 C1754 0.951 . S
H1737 C1756 0.951 . S
H1738 C1758 0.950 . S
H1739 C1759 0.950 . S
H1740 C1761 0.950 . S
H1741 C1764 0.950 . S
H1742 C1765 0.950 . S
H1743 C1767 0.950 . S
H1744 C1768 0.950 1_545 S
H1745 C1769 0.951 . S
H1746 C1771 0.951 . S
H1747 C1773 0.950 . S
H1748 C1774 0.950 . S
H1749 C1776 0.950 . S
H1750 C1779 0.950 . S
H1751 C1780 0.950 . S
H1752 C1782 0.950 . S
H1753 C1783 0.950 1_565 S
C1754 H1736 0.951 . S
C1754 C1755 1.366 . S
C1754 C1756 1.388 . S
C1755 C1754 1.366 . S
C1755 C1759 1.385 . S
C1756 H1737 0.951 . S
C1756 C1754 1.388 . S
C1756 C1757 1.366 . S
C1757 C1756 1.366 . S
C1757 C1758 1.414 . S
C1757 C1760 1.499 . S
C1758 H1738 0.950 . S
C1758 C1757 1.414 . S
C1758 C1759 1.374 . S
C1759 H1739 0.950 . S
C1759 C1755 1.385 . S
C1759 C1758 1.374 . S
C1760 C1757 1.499 . S
C1760 C1761 1.373 . S
C1760 C1762 1.389 . S
C1761 H1740 0.950 . S
C1761 C1760 1.373 . S
C1761 C1777 1.377 1_565 S
C1762 C1760 1.389 . S
C1762 C1763 1.524 . S
C1762 C1776 1.377 1_565 S
C1763 C1762 1.524 . S
C1763 C1764 1.397 . S
C1763 C1768 1.363 . S
C1764 H1741 0.950 . S
C1764 C1763 1.397 . S
C1764 C1765 1.334 . S
C1765 H1742 0.950 . S
C1765 C1764 1.334 . S
C1765 C1766 1.287 . S
C1766 C1765 1.287 . S
C1766 C1767 1.524 . S
C1766 H1785 0.913 . S
C1767 H1743 0.950 . S
C1767 C1766 1.524 . S
C1767 C1768 1.415 . S
C1768 H1744 0.950 1_565 S
C1768 C1763 1.363 . S
C1768 C1767 1.415 . S
C1769 H1745 0.951 . S
C1769 C1770 1.366 . S
C1769 C1771 1.388 . S
C1770 C1769 1.366 . S
C1770 C1774 1.385 . S
C1771 H1746 0.951 . S
C1771 C1769 1.388 . S
C1771 C1772 1.366 . S
C1772 C1771 1.366 . S
C1772 C1773 1.414 . S
C1772 C1775 1.499 . S
C1773 H1747 0.950 . S
C1773 C1772 1.414 . S
C1773 C1774 1.374 . S
C1774 H1748 0.950 . S
C1774 C1770 1.385 . S
C1774 C1773 1.374 . S
C1775 C1772 1.499 . S
C1775 C1776 1.373 . S
C1775 C1777 1.389 . S
C1776 H1749 0.950 . S
C1776 C1762 1.377 1_545 S
C1776 C1775 1.373 . S
C1777 C1761 1.377 1_545 S
C1777 C1775 1.389 . S
C1777 C1778 1.524 . S
C1778 C1777 1.524 . S
C1778 C1779 1.397 . S
C1778 C1783 1.363 . S
C1779 H1750 0.950 . S
C1779 C1778 1.397 . S
C1779 C1780 1.334 . S
C1780 H1751 0.950 . S
C1780 C1779 1.334 . S
C1780 C1781 1.287 . S
C1781 C1780 1.287 . S
C1781 C1782 1.524 . S
C1781 H1784 0.999 . S
C1782 H1752 0.950 . S
C1782 C1781 1.524 . S
C1782 C1783 1.415 . S
C1783 H1753 0.950 1_545 S
C1783 C1778 1.363 . S
C1783 C1782 1.415 . S
H1784 C1781 0.999 . S
H1785 C1766 0.913 . S
H1786 C1804 0.951 . S
H1787 C1806 0.951 . S
H1788 C1808 0.950 . S
H1789 C1809 0.950 . S
H1790 C1811 0.950 . S
H1791 C1814 0.950 . S
H1792 C1815 0.950 . S
H1793 C1817 0.950 . S
H1794 C1818 0.950 1_455 S
H1795 C1819 0.951 . S
H1796 C1821 0.951 . S
H1797 C1823 0.950 . S
H1798 C1824 0.950 . S
H1799 C1826 0.950 . S
H1800 C1829 0.950 . S
H1801 C1830 0.950 . S
H1802 C1832 0.950 . S
H1803 C1833 0.950 1_655 S
C1804 H1786 0.951 . S
C1804 C1805 1.366 . S
C1804 C1806 1.388 . S
C1805 C1804 1.366 . S
C1805 C1809 1.385 . S
C1806 H1787 0.951 . S
C1806 C1804 1.388 . S
C1806 C1807 1.366 . S
C1807 C1806 1.366 . S
C1807 C1808 1.414 . S
C1807 C1810 1.499 . S
C1808 H1788 0.950 . S
C1808 C1807 1.414 . S
C1808 C1809 1.374 . S
C1809 H1789 0.950 . S
C1809 C1805 1.385 . S
C1809 C1808 1.374 . S
C1810 C1807 1.499 . S
C1810 C1811 1.373 . S
C1810 C1812 1.389 . S
C1811 H1790 0.950 . S
C1811 C1810 1.373 . S
C1811 C1827 1.377 1_655 S
C1812 C1810 1.389 . S
C1812 C1813 1.524 . S
C1812 C1826 1.377 1_655 S
C1813 C1812 1.524 . S
C1813 C1814 1.397 . S
C1813 C1818 1.363 . S
C1814 H1791 0.950 . S
C1814 C1813 1.397 . S
C1814 C1815 1.334 . S
C1815 H1792 0.950 . S
C1815 C1814 1.334 . S
C1815 C1816 1.287 . S
C1816 C1815 1.287 . S
C1816 C1817 1.524 . S
C1816 H1835 0.913 . S
C1817 H1793 0.950 . S
C1817 C1816 1.524 . S
C1817 C1818 1.415 . S
C1818 H1794 0.950 1_655 S
C1818 C1813 1.363 . S
C1818 C1817 1.415 . S
C1819 H1795 0.951 . S
C1819 C1820 1.366 . S
C1819 C1821 1.388 . S
C1820 C1819 1.366 . S
C1820 C1824 1.385 . S
C1821 H1796 0.951 . S
C1821 C1819 1.388 . S
C1821 C1822 1.366 . S
C1822 C1821 1.366 . S
C1822 C1823 1.414 . S
C1822 C1825 1.499 . S
C1823 H1797 0.950 . S
C1823 C1822 1.414 . S
C1823 C1824 1.374 . S
C1824 H1798 0.950 . S
C1824 C1820 1.385 . S
C1824 C1823 1.374 . S
C1825 C1822 1.499 . S
C1825 C1826 1.373 . S
C1825 C1827 1.389 . S
C1826 H1799 0.950 . S
C1826 C1812 1.377 1_455 S
C1826 C1825 1.373 . S
C1827 C1811 1.377 1_455 S
C1827 C1825 1.389 . S
C1827 C1828 1.524 . S
C1828 C1827 1.524 . S
C1828 C1829 1.397 . S
C1828 C1833 1.363 . S
C1829 H1800 0.950 . S
C1829 C1828 1.397 . S
C1829 C1830 1.334 . S
C1830 H1801 0.950 . S
C1830 C1829 1.334 . S
C1830 C1831 1.287 . S
C1831 C1830 1.287 . S
C1831 C1832 1.524 . S
C1831 H1834 0.999 . S
C1832 H1802 0.950 . S
C1832 C1831 1.524 . S
C1832 C1833 1.415 . S
C1833 H1803 0.950 1_455 S
C1833 C1828 1.363 . S
C1833 C1832 1.415 . S
H1834 C1831 0.999 . S
H1835 C1816 0.913 . S
H1836 C1854 0.951 . S
H1837 C1856 0.951 . S
H1838 C1858 0.950 . S
H1839 C1859 0.950 . S
H1840 C1861 0.950 . S
H1841 C1864 0.950 . S
H1842 C1865 0.950 . S
H1843 C1867 0.950 . S
H1844 C1868 0.950 1_545 S
H1845 C1869 0.951 . S
H1846 C1871 0.951 . S
H1847 C1873 0.950 . S
H1848 C1874 0.950 . S
H1849 C1876 0.950 . S
H1850 C1879 0.950 . S
H1851 C1880 0.950 . S
H1852 C1882 0.950 . S
H1853 C1883 0.950 1_565 S
C1854 H1836 0.951 . S
C1854 C1855 1.366 . S
C1854 C1856 1.388 . S
C1855 C1854 1.366 . S
C1855 C1859 1.385 . S
C1856 H1837 0.951 . S
C1856 C1854 1.388 . S
C1856 C1857 1.366 . S
C1857 C1856 1.366 . S
C1857 C1858 1.414 . S
C1857 C1860 1.499 . S
C1858 H1838 0.950 . S
C1858 C1857 1.414 . S
C1858 C1859 1.374 . S
C1859 H1839 0.950 . S
C1859 C1855 1.385 . S
C1859 C1858 1.374 . S
C1860 C1857 1.499 . S
C1860 C1861 1.373 . S
C1860 C1862 1.389 . S
C1861 H1840 0.950 . S
C1861 C1860 1.373 . S
C1861 C1877 1.377 1_565 S
C1862 C1860 1.389 . S
C1862 C1863 1.524 . S
C1862 C1876 1.377 1_565 S
C1863 C1862 1.524 . S
C1863 C1864 1.397 . S
C1863 C1868 1.363 . S
C1864 H1841 0.950 . S
C1864 C1863 1.397 . S
C1864 C1865 1.334 . S
C1865 H1842 0.950 . S
C1865 C1864 1.334 . S
C1865 C1866 1.287 . S
C1866 C1865 1.287 . S
C1866 C1867 1.524 . S
C1866 H1885 0.913 . S
C1867 H1843 0.950 . S
C1867 C1866 1.524 . S
C1867 C1868 1.415 . S
C1868 H1844 0.950 1_565 S
C1868 C1863 1.363 . S
C1868 C1867 1.415 . S
C1869 H1845 0.951 . S
C1869 C1870 1.366 . S
C1869 C1871 1.388 . S
C1870 C1869 1.366 . S
C1870 C1874 1.385 . S
C1871 H1846 0.951 . S
C1871 C1869 1.388 . S
C1871 C1872 1.366 . S
C1872 C1871 1.366 . S
C1872 C1873 1.414 . S
C1872 C1875 1.499 . S
C1873 H1847 0.950 . S
C1873 C1872 1.414 . S
C1873 C1874 1.374 . S
C1874 H1848 0.950 . S
C1874 C1870 1.385 . S
C1874 C1873 1.374 . S
C1875 C1872 1.499 . S
C1875 C1876 1.373 . S
C1875 C1877 1.389 . S
C1876 H1849 0.950 . S
C1876 C1862 1.377 1_545 S
C1876 C1875 1.373 . S
C1877 C1861 1.377 1_545 S
C1877 C1875 1.389 . S
C1877 C1878 1.524 . S
C1878 C1877 1.524 . S
C1878 C1879 1.397 . S
C1878 C1883 1.363 . S
C1879 H1850 0.950 . S
C1879 C1878 1.397 . S
C1879 C1880 1.334 . S
C1880 H1851 0.950 . S
C1880 C1879 1.334 . S
C1880 C1881 1.287 . S
C1881 C1880 1.287 . S
C1881 C1882 1.524 . S
C1881 H1884 0.999 . S
C1882 H1852 0.950 . S
C1882 C1881 1.524 . S
C1882 C1883 1.415 . S
C1883 H1853 0.950 1_545 S
C1883 C1878 1.363 . S
C1883 C1882 1.415 . S
H1884 C1881 0.999 . S
H1885 C1866 0.913 . S
H1886 C1904 0.951 . S
H1887 C1906 0.951 . S
H1888 C1908 0.950 . S
H1889 C1909 0.950 . S
H1890 C1911 0.950 . S
H1891 C1914 0.950 . S
H1892 C1915 0.950 . S
H1893 C1917 0.950 . S
H1894 C1918 0.950 . S
H1895 C1919 0.951 . S
H1896 C1921 0.951 . S
H1897 C1923 0.950 . S
H1898 C1924 0.950 . S
H1899 C1926 0.950 . S
H1900 C1929 0.950 . S
H1901 C1930 0.950 . S
H1902 C1932 0.950 . S
H1903 C1933 0.950 . S
C1904 H1886 0.951 . S
C1904 C1905 1.366 . S
C1904 C1906 1.388 . S
C1905 C1904 1.366 . S
C1905 C1909 1.385 . S
C1906 H1887 0.951 . S
C1906 C1904 1.388 . S
C1906 C1907 1.366 . S
C1907 C1906 1.366 . S
C1907 C1908 1.414 . S
C1907 C1910 1.499 . S
C1908 H1888 0.950 . S
C1908 C1907 1.414 . S
C1908 C1909 1.374 . S
C1909 H1889 0.950 . S
C1909 C1905 1.385 . S
C1909 C1908 1.374 . S
C1910 C1907 1.499 . S
C1910 C1911 1.373 . S
C1910 C1912 1.389 . S
C1911 H1890 0.950 . S
C1911 C1910 1.373 . S
C1911 C1927 1.377 1_655 S
C1912 C1910 1.389 . S
C1912 C1913 1.524 . S
C1912 C1926 1.377 1_655 S
C1913 C1912 1.524 . S
C1913 C1914 1.397 . S
C1913 C1918 1.363 . S
C1914 H1891 0.950 . S
C1914 C1913 1.397 . S
C1914 C1915 1.334 . S
C1915 H1892 0.950 . S
C1915 C1914 1.334 . S
C1915 C1916 1.287 . S
C1916 C1915 1.287 . S
C1916 C1917 1.524 . S
C1916 H1935 0.913 . S
C1917 H1893 0.950 . S
C1917 C1916 1.524 . S
C1917 C1918 1.415 . S
C1918 H1894 0.950 . S
C1918 C1913 1.363 . S
C1918 C1917 1.415 . S
C1919 H1895 0.951 . S
C1919 C1920 1.366 . S
C1919 C1921 1.388 . S
C1920 C1919 1.366 . S
C1920 C1924 1.385 . S
C1921 H1896 0.951 . S
C1921 C1919 1.388 . S
C1921 C1922 1.366 . S
C1922 C1921 1.366 . S
C1922 C1923 1.414 . S
C1922 C1925 1.499 . S
C1923 H1897 0.950 . S
C1923 C1922 1.414 . S
C1923 C1924 1.374 . S
C1924 H1898 0.950 . S
C1924 C1920 1.385 . S
C1924 C1923 1.374 . S
C1925 C1922 1.499 . S
C1925 C1926 1.373 . S
C1925 C1927 1.389 . S
C1926 H1899 0.950 . S
C1926 C1912 1.377 1_455 S
C1926 C1925 1.373 . S
C1927 C1911 1.377 1_455 S
C1927 C1925 1.389 . S
C1927 C1928 1.524 . S
C1928 C1927 1.524 . S
C1928 C1929 1.397 . S
C1928 C1933 1.363 . S
C1929 H1900 0.950 . S
C1929 C1928 1.397 . S
C1929 C1930 1.334 . S
C1930 H1901 0.950 . S
C1930 C1929 1.334 . S
C1930 C1931 1.287 . S
C1931 C1930 1.287 . S
C1931 C1932 1.524 . S
C1931 H1934 0.999 . S
C1932 H1902 0.950 . S
C1932 C1931 1.524 . S
C1932 C1933 1.415 . S
C1933 H1903 0.950 . S
C1933 C1928 1.363 . S
C1933 C1932 1.415 . S
H1934 C1931 0.999 . S
H1935 C1916 0.913 . S
H1936 C1954 0.951 . S
H1937 C1956 0.951 . S
H1938 C1958 0.950 . S
H1939 C1959 0.950 . S
H1940 C1961 0.950 . S
H1941 C1964 0.950 . S
H1942 C1965 0.950 . S
H1943 C1967 0.950 . S
H1944 C1968 0.950 . S
H1945 C1969 0.951 . S
H1946 C1971 0.951 . S
H1947 C1973 0.950 . S
H1948 C1974 0.950 . S
H1949 C1976 0.950 . S
H1950 C1979 0.950 . S
H1951 C1980 0.950 . S
H1952 C1982 0.950 . S
H1953 C1983 0.950 . S
C1954 H1936 0.951 . S
C1954 C1955 1.366 . S
C1954 C1956 1.388 . S
C1955 C1954 1.366 . S
C1955 C1959 1.385 . S
C1956 H1937 0.951 . S
C1956 C1954 1.388 . S
C1956 C1957 1.366 . S
C1957 C1956 1.366 . S
C1957 C1958 1.414 . S
C1957 C1960 1.499 . S
C1958 H1938 0.950 . S
C1958 C1957 1.414 . S
C1958 C1959 1.374 . S
C1959 H1939 0.950 . S
C1959 C1955 1.385 . S
C1959 C1958 1.374 . S
C1960 C1957 1.499 . S
C1960 C1961 1.373 . S
C1960 C1962 1.389 . S
C1961 H1940 0.950 . S
C1961 C1960 1.373 . S
C1961 C1977 1.377 1_556 S
C1962 C1960 1.389 . S
C1962 C1963 1.524 . S
C1962 C1976 1.377 1_556 S
C1963 C1962 1.524 . S
C1963 C1964 1.397 . S
C1963 C1968 1.363 . S
C1964 H1941 0.950 . S
C1964 C1963 1.397 . S
C1964 C1965 1.334 . S
C1965 H1942 0.950 . S
C1965 C1964 1.334 . S
C1965 C1966 1.287 . S
C1966 C1965 1.287 . S
C1966 C1967 1.524 . S
C1966 H1985 0.913 . S
C1967 H1943 0.950 . S
C1967 C1966 1.524 . S
C1967 C1968 1.415 . S
C1968 H1944 0.950 . S
C1968 C1963 1.363 . S
C1968 C1967 1.415 . S
C1969 H1945 0.951 . S
C1969 C1970 1.366 . S
C1969 C1971 1.388 . S
C1970 C1969 1.366 . S
C1970 C1974 1.385 . S
C1971 H1946 0.951 . S
C1971 C1969 1.388 . S
C1971 C1972 1.366 . S
C1972 C1971 1.366 . S
C1972 C1973 1.414 . S
C1972 C1975 1.499 . S
C1973 H1947 0.950 . S
C1973 C1972 1.414 . S
C1973 C1974 1.374 . S
C1974 H1948 0.950 . S
C1974 C1970 1.385 . S
C1974 C1973 1.374 . S
C1975 C1972 1.499 . S
C1975 C1976 1.373 . S
C1975 C1977 1.389 . S
C1976 H1949 0.950 . S
C1976 C1962 1.377 1_554 S
C1976 C1975 1.373 . S
C1977 C1961 1.377 1_554 S
C1977 C1975 1.389 . S
C1977 C1978 1.524 . S
C1978 C1977 1.524 . S
C1978 C1979 1.397 . S
C1978 C1983 1.363 . S
C1979 H1950 0.950 . S
C1979 C1978 1.397 . S
C1979 C1980 1.334 . S
C1980 H1951 0.950 . S
C1980 C1979 1.334 . S
C1980 C1981 1.287 . S
C1981 C1980 1.287 . S
C1981 C1982 1.524 . S
C1981 H1984 0.999 . S
C1982 H1952 0.950 . S
C1982 C1981 1.524 . S
C1982 C1983 1.415 . S
C1983 H1953 0.950 . S
C1983 C1978 1.363 . S
C1983 C1982 1.415 . S
H1984 C1981 0.999 . S
H1985 C1966 0.913 . S
H1986 C2004 0.951 . S
H1987 C2006 0.951 . S
H1988 C2008 0.950 . S
H1989 C2009 0.950 . S
H1990 C2011 0.950 . S
H1991 C2014 0.950 . S
H1992 C2015 0.950 . S
H1993 C2017 0.950 . S
H1994 C2018 0.950 1_554 S
H1995 C2019 0.951 . S
H1996 C2021 0.951 . S
H1997 C2023 0.950 . S
H1998 C2024 0.950 . S
H1999 C2026 0.950 . S
H2000 C2029 0.950 . S
H2001 C2030 0.950 . S
H2002 C2032 0.950 . S
H2003 C2033 0.950 1_556 S
C2004 H1986 0.951 . S
C2004 C2005 1.366 . S
C2004 C2006 1.388 . S
C2005 C2004 1.366 . S
C2005 C2009 1.385 . S
C2006 H1987 0.951 . S
C2006 C2004 1.388 . S
C2006 C2007 1.366 . S
C2007 C2006 1.366 . S
C2007 C2008 1.414 . S
C2007 C2010 1.499 . S
C2008 H1988 0.950 . S
C2008 C2007 1.414 . S
C2008 C2009 1.374 . S
C2009 H1989 0.950 . S
C2009 C2005 1.385 . S
C2009 C2008 1.374 . S
C2010 C2007 1.499 . S
C2010 C2011 1.373 . S
C2010 C2012 1.389 . S
C2011 H1990 0.950 . S
C2011 C2010 1.373 . S
C2011 C2027 1.377 1_556 S
C2012 C2010 1.389 . S
C2012 C2013 1.524 . S
C2012 C2026 1.377 1_556 S
C2013 C2012 1.524 . S
C2013 C2014 1.397 . S
C2013 C2018 1.363 . S
C2014 H1991 0.950 . S
C2014 C2013 1.397 . S
C2014 C2015 1.334 . S
C2015 H1992 0.950 . S
C2015 C2014 1.334 . S
C2015 C2016 1.287 . S
C2016 C2015 1.287 . S
C2016 C2017 1.524 . S
C2016 H2035 0.913 . S
C2017 H1993 0.950 . S
C2017 C2016 1.524 . S
C2017 C2018 1.415 . S
C2018 H1994 0.950 1_556 S
C2018 C2013 1.363 . S
C2018 C2017 1.415 . S
C2019 H1995 0.951 . S
C2019 C2020 1.366 . S
C2019 C2021 1.388 . S
C2020 C2019 1.366 . S
C2020 C2024 1.385 . S
C2021 H1996 0.951 . S
C2021 C2019 1.388 . S
C2021 C2022 1.366 . S
C2022 C2021 1.366 . S
C2022 C2023 1.414 . S
C2022 C2025 1.499 . S
C2023 H1997 0.950 . S
C2023 C2022 1.414 . S
C2023 C2024 1.374 . S
C2024 H1998 0.950 . S
C2024 C2020 1.385 . S
C2024 C2023 1.374 . S
C2025 C2022 1.499 . S
C2025 C2026 1.373 . S
C2025 C2027 1.389 . S
C2026 H1999 0.950 . S
C2026 C2012 1.377 1_554 S
C2026 C2025 1.373 . S
C2027 C2011 1.377 1_554 S
C2027 C2025 1.389 . S
C2027 C2028 1.524 . S
C2028 C2027 1.524 . S
C2028 C2029 1.397 . S
C2028 C2033 1.363 . S
C2029 H2000 0.950 . S
C2029 C2028 1.397 . S
C2029 C2030 1.334 . S
C2030 H2001 0.950 . S
C2030 C2029 1.334 . S
C2030 C2031 1.287 . S
C2031 C2030 1.287 . S
C2031 C2032 1.524 . S
C2031 H2034 0.999 . S
C2032 H2002 0.950 . S
C2032 C2031 1.524 . S
C2032 C2033 1.415 . S
C2033 H2003 0.950 1_554 S
C2033 C2028 1.363 . S
C2033 C2032 1.415 . S
H2034 C2031 0.999 . S
H2035 C2016 0.913 . S
H2036 C2054 0.951 . S
H2037 C2056 0.951 . S
H2038 C2058 0.950 . S
H2039 C2059 0.950 . S
H2040 C2061 0.950 . S
H2041 C2064 0.950 . S
H2042 C2065 0.950 . S
H2043 C2067 0.950 . S
H2044 C2068 0.950 . S
H2045 C2069 0.951 . S
H2046 C2071 0.951 . S
H2047 C2073 0.950 . S
H2048 C2074 0.950 . S
H2049 C2076 0.950 . S
H2050 C2079 0.950 . S
H2051 C2080 0.950 . S
H2052 C2082 0.950 . S
H2053 C2083 0.950 . S
C2054 H2036 0.951 . S
C2054 C2055 1.366 . S
C2054 C2056 1.388 . S
C2055 C2054 1.366 . S
C2055 C2059 1.385 . S
C2056 H2037 0.951 . S
C2056 C2054 1.388 . S
C2056 C2057 1.366 . S
C2057 C2056 1.366 . S
C2057 C2058 1.414 . S
C2057 C2060 1.499 . S
C2058 H2038 0.950 . S
C2058 C2057 1.414 . S
C2058 C2059 1.374 . S
C2059 H2039 0.950 . S
C2059 C2055 1.385 . S
C2059 C2058 1.374 . S
C2060 C2057 1.499 . S
C2060 C2061 1.373 . S
C2060 C2062 1.389 . S
C2061 H2040 0.950 . S
C2061 C2060 1.373 . S
C2061 C2077 1.377 1_556 S
C2062 C2060 1.389 . S
C2062 C2063 1.524 . S
C2062 C2076 1.377 1_556 S
C2063 C2062 1.524 . S
C2063 C2064 1.397 . S
C2063 C2068 1.363 . S
C2064 H2041 0.950 . S
C2064 C2063 1.397 . S
C2064 C2065 1.334 . S
C2065 H2042 0.950 . S
C2065 C2064 1.334 . S
C2065 C2066 1.287 . S
C2066 C2065 1.287 . S
C2066 C2067 1.524 . S
C2066 H2085 0.913 . S
C2067 H2043 0.950 . S
C2067 C2066 1.524 . S
C2067 C2068 1.415 . S
C2068 H2044 0.950 . S
C2068 C2063 1.363 . S
C2068 C2067 1.415 . S
C2069 H2045 0.951 . S
C2069 C2070 1.366 . S
C2069 C2071 1.388 . S
C2070 C2069 1.366 . S
C2070 C2074 1.385 . S
C2071 H2046 0.951 . S
C2071 C2069 1.388 . S
C2071 C2072 1.366 . S
C2072 C2071 1.366 . S
C2072 C2073 1.414 . S
C2072 C2075 1.499 . S
C2073 H2047 0.950 . S
C2073 C2072 1.414 . S
C2073 C2074 1.374 . S
C2074 H2048 0.950 . S
C2074 C2070 1.385 . S
C2074 C2073 1.374 . S
C2075 C2072 1.499 . S
C2075 C2076 1.373 . S
C2075 C2077 1.389 . S
C2076 H2049 0.950 . S
C2076 C2062 1.377 1_554 S
C2076 C2075 1.373 . S
C2077 C2061 1.377 1_554 S
C2077 C2075 1.389 . S
C2077 C2078 1.524 . S
C2078 C2077 1.524 . S
C2078 C2079 1.397 . S
C2078 C2083 1.363 . S
C2079 H2050 0.950 . S
C2079 C2078 1.397 . S
C2079 C2080 1.334 . S
C2080 H2051 0.950 . S
C2080 C2079 1.334 . S
C2080 C2081 1.287 . S
C2081 C2080 1.287 . S
C2081 C2082 1.524 . S
C2081 H2084 0.999 . S
C2082 H2052 0.950 . S
C2082 C2081 1.524 . S
C2082 C2083 1.415 . S
C2083 H2053 0.950 . S
C2083 C2078 1.363 . S
C2083 C2082 1.415 . S
H2084 C2081 0.999 . S
H2085 C2066 0.913 . S
H2086 C2104 0.951 . S
H2087 C2106 0.951 . S
H2088 C2108 0.950 . S
H2089 C2109 0.950 . S
H2090 C2111 0.950 . S
H2091 C2114 0.950 . S
H2092 C2115 0.950 . S
H2093 C2117 0.950 . S
H2094 C2118 0.950 1_554 S
H2095 C2119 0.951 . S
H2096 C2121 0.951 . S
H2097 C2123 0.950 . S
H2098 C2124 0.950 . S
H2099 C2126 0.950 . S
H2100 C2129 0.950 . S
H2101 C2130 0.950 . S
H2102 C2132 0.950 . S
H2103 C2133 0.950 1_556 S
C2104 H2086 0.951 . S
C2104 C2105 1.366 . S
C2104 C2106 1.388 . S
C2105 C2104 1.366 . S
C2105 C2109 1.385 . S
C2106 H2087 0.951 . S
C2106 C2104 1.388 . S
C2106 C2107 1.366 . S
C2107 C2106 1.366 . S
C2107 C2108 1.414 . S
C2107 C2110 1.499 . S
C2108 H2088 0.950 . S
C2108 C2107 1.414 . S
C2108 C2109 1.374 . S
C2109 H2089 0.950 . S
C2109 C2105 1.385 . S
C2109 C2108 1.374 . S
C2110 C2107 1.499 . S
C2110 C2111 1.373 . S
C2110 C2112 1.389 . S
C2111 H2090 0.950 . S
C2111 C2110 1.373 . S
C2111 C2127 1.377 1_556 S
C2112 C2110 1.389 . S
C2112 C2113 1.524 . S
C2112 C2126 1.377 1_556 S
C2113 C2112 1.524 . S
C2113 C2114 1.397 . S
C2113 C2118 1.363 . S
C2114 H2091 0.950 . S
C2114 C2113 1.397 . S
C2114 C2115 1.334 . S
C2115 H2092 0.950 . S
C2115 C2114 1.334 . S
C2115 C2116 1.287 . S
C2116 C2115 1.287 . S
C2116 C2117 1.524 . S
C2116 H2135 0.913 . S
C2117 H2093 0.950 . S
C2117 C2116 1.524 . S
C2117 C2118 1.415 . S
C2118 H2094 0.950 1_556 S
C2118 C2113 1.363 . S
C2118 C2117 1.415 . S
C2119 H2095 0.951 . S
C2119 C2120 1.366 . S
C2119 C2121 1.388 . S
C2120 C2119 1.366 . S
C2120 C2124 1.385 . S
C2121 H2096 0.951 . S
C2121 C2119 1.388 . S
C2121 C2122 1.366 . S
C2122 C2121 1.366 . S
C2122 C2123 1.414 . S
C2122 C2125 1.499 . S
C2123 H2097 0.950 . S
C2123 C2122 1.414 . S
C2123 C2124 1.374 . S
C2124 H2098 0.950 . S
C2124 C2120 1.385 . S
C2124 C2123 1.374 . S
C2125 C2122 1.499 . S
C2125 C2126 1.373 . S
C2125 C2127 1.389 . S
C2126 H2099 0.950 . S
C2126 C2112 1.377 1_554 S
C2126 C2125 1.373 . S
C2127 C2111 1.377 1_554 S
C2127 C2125 1.389 . S
C2127 C2128 1.524 . S
C2128 C2127 1.524 . S
C2128 C2129 1.397 . S
C2128 C2133 1.363 . S
C2129 H2100 0.950 . S
C2129 C2128 1.397 . S
C2129 C2130 1.334 . S
C2130 H2101 0.950 . S
C2130 C2129 1.334 . S
C2130 C2131 1.287 . S
C2131 C2130 1.287 . S
C2131 C2132 1.524 . S
C2131 H2134 0.999 . S
C2132 H2102 0.950 . S
C2132 C2131 1.524 . S
C2132 C2133 1.415 . S
C2133 H2103 0.950 1_554 S
C2133 C2128 1.363 . S
C2133 C2132 1.415 . S
H2134 C2131 0.999 . S
H2135 C2116 0.913 . S
H2136 C2154 0.951 . S
H2137 C2156 0.951 . S
H2138 C2158 0.950 . S
H2139 C2159 0.950 . S
H2140 C2161 0.950 . S
H2141 C2164 0.950 . S
H2142 C2165 0.950 . S
H2143 C2167 0.950 . S
H2144 C2168 0.950 . S
H2145 C2169 0.951 . S
H2146 C2171 0.951 . S
H2147 C2173 0.950 . S
H2148 C2174 0.950 . S
H2149 C2176 0.950 . S
H2150 C2179 0.950 . S
H2151 C2180 0.950 . S
H2152 C2182 0.950 . S
H2153 C2183 0.950 . S
C2154 H2136 0.951 . S
C2154 C2155 1.366 . S
C2154 C2156 1.388 . S
C2155 C2154 1.366 . S
C2155 C2159 1.385 . S
C2156 H2137 0.951 . S
C2156 C2154 1.388 . S
C2156 C2157 1.366 . S
C2157 C2156 1.366 . S
C2157 C2158 1.414 . S
C2157 C2160 1.499 . S
C2158 H2138 0.950 . S
C2158 C2157 1.414 . S
C2158 C2159 1.374 . S
C2159 H2139 0.950 . S
C2159 C2155 1.385 . S
C2159 C2158 1.374 . S
C2160 C2157 1.499 . S
C2160 C2161 1.373 . S
C2160 C2162 1.389 . S
C2161 H2140 0.950 . S
C2161 C2160 1.373 . S
C2161 C2177 1.377 . S
C2162 C2160 1.389 . S
C2162 C2163 1.524 . S
C2162 C2176 1.377 . S
C2163 C2162 1.524 . S
C2163 C2164 1.397 . S
C2163 C2168 1.363 . S
C2164 H2141 0.950 . S
C2164 C2163 1.397 . S
C2164 C2165 1.334 . S
C2165 H2142 0.950 . S
C2165 C2164 1.334 . S
C2165 C2166 1.287 . S
C2166 C2165 1.287 . S
C2166 C2167 1.524 . S
C2166 H2185 0.913 . S
C2167 H2143 0.950 . S
C2167 C2166 1.524 . S
C2167 C2168 1.415 . S
C2168 H2144 0.950 . S
C2168 C2163 1.363 . S
C2168 C2167 1.415 . S
C2169 H2145 0.951 . S
C2169 C2170 1.366 . S
C2169 C2171 1.388 . S
C2170 C2169 1.366 . S
C2170 C2174 1.385 . S
C2171 H2146 0.951 . S
C2171 C2169 1.388 . S
C2171 C2172 1.366 . S
C2172 C2171 1.366 . S
C2172 C2173 1.414 . S
C2172 C2175 1.499 . S
C2173 H2147 0.950 . S
C2173 C2172 1.414 . S
C2173 C2174 1.374 . S
C2174 H2148 0.950 . S
C2174 C2170 1.385 . S
C2174 C2173 1.374 . S
C2175 C2172 1.499 . S
C2175 C2176 1.373 . S
C2175 C2177 1.389 . S
C2176 H2149 0.950 . S
C2176 C2162 1.377 . S
C2176 C2175 1.373 . S
C2177 C2161 1.377 . S
C2177 C2175 1.389 . S
C2177 C2178 1.524 . S
C2178 C2177 1.524 . S
C2178 C2179 1.397 . S
C2178 C2183 1.363 . S
C2179 H2150 0.950 . S
C2179 C2178 1.397 . S
C2179 C2180 1.334 . S
C2180 H2151 0.950 . S
C2180 C2179 1.334 . S
C2180 C2181 1.287 . S
C2181 C2180 1.287 . S
C2181 C2182 1.524 . S
C2181 H2184 0.999 . S
C2182 H2152 0.950 . S
C2182 C2181 1.524 . S
C2182 C2183 1.415 . S
C2183 H2153 0.950 . S
C2183 C2178 1.363 . S
C2183 C2182 1.415 . S
H2184 C2181 0.999 . S
H2185 C2166 0.913 . S
H2186 C2204 0.951 . S
H2187 C2206 0.951 . S
H2188 C2208 0.950 . S
H2189 C2209 0.950 . S
H2190 C2211 0.950 . S
H2191 C2214 0.950 . S
H2192 C2215 0.950 . S
H2193 C2217 0.950 . S
H2194 C2218 0.950 . S
H2195 C2219 0.951 . S
H2196 C2221 0.951 . S
H2197 C2223 0.950 . S
H2198 C2224 0.950 . S
H2199 C2226 0.950 . S
H2200 C2229 0.950 . S
H2201 C2230 0.950 . S
H2202 C2232 0.950 . S
H2203 C2233 0.950 . S
C2204 H2186 0.951 . S
C2204 C2205 1.366 . S
C2204 C2206 1.388 . S
C2205 C2204 1.366 . S
C2205 C2209 1.385 . S
C2206 H2187 0.951 . S
C2206 C2204 1.388 . S
C2206 C2207 1.366 . S
C2207 C2206 1.366 . S
C2207 C2208 1.414 . S
C2207 C2210 1.499 . S
C2208 H2188 0.950 . S
C2208 C2207 1.414 . S
C2208 C2209 1.374 . S
C2209 H2189 0.950 . S
C2209 C2205 1.385 . S
C2209 C2208 1.374 . S
C2210 C2207 1.499 . S
C2210 C2211 1.373 . S
C2210 C2212 1.389 . S
C2211 H2190 0.950 . S
C2211 C2210 1.373 . S
C2211 C2227 1.377 . S
C2212 C2210 1.389 . S
C2212 C2213 1.524 . S
C2212 C2226 1.377 . S
C2213 C2212 1.524 . S
C2213 C2214 1.397 . S
C2213 C2218 1.363 . S
C2214 H2191 0.950 . S
C2214 C2213 1.397 . S
C2214 C2215 1.334 . S
C2215 H2192 0.950 . S
C2215 C2214 1.334 . S
C2215 C2216 1.287 . S
C2216 C2215 1.287 . S
C2216 C2217 1.524 . S
C2216 H2235 0.913 . S
C2217 H2193 0.950 . S
C2217 C2216 1.524 . S
C2217 C2218 1.415 . S
C2218 H2194 0.950 . S
C2218 C2213 1.363 . S
C2218 C2217 1.415 . S
C2219 H2195 0.951 . S
C2219 C2220 1.366 . S
C2219 C2221 1.388 . S
C2220 C2219 1.366 . S
C2220 C2224 1.385 . S
C2221 H2196 0.951 . S
C2221 C2219 1.388 . S
C2221 C2222 1.366 . S
C2222 C2221 1.366 . S
C2222 C2223 1.414 . S
C2222 C2225 1.499 . S
C2223 H2197 0.950 . S
C2223 C2222 1.414 . S
C2223 C2224 1.374 . S
C2224 H2198 0.950 . S
C2224 C2220 1.385 . S
C2224 C2223 1.374 . S
C2225 C2222 1.499 . S
C2225 C2226 1.373 . S
C2225 C2227 1.389 . S
C2226 H2199 0.950 . S
C2226 C2212 1.377 . S
C2226 C2225 1.373 . S
C2227 C2211 1.377 . S
C2227 C2225 1.389 . S
C2227 C2228 1.524 . S
C2228 C2227 1.524 . S
C2228 C2229 1.397 . S
C2228 C2233 1.363 . S
C2229 H2200 0.950 . S
C2229 C2228 1.397 . S
C2229 C2230 1.334 . S
C2230 H2201 0.950 . S
C2230 C2229 1.334 . S
C2230 C2231 1.287 . S
C2231 C2230 1.287 . S
C2231 C2232 1.524 . S
C2231 H2234 0.999 . S
C2232 H2202 0.950 . S
C2232 C2231 1.524 . S
C2232 C2233 1.415 . S
C2233 H2203 0.950 . S
C2233 C2228 1.363 . S
C2233 C2232 1.415 . S
H2234 C2231 0.999 . S
H2235 C2216 0.913 . S
H2236 C2254 0.951 . S
H2237 C2256 0.951 . S
H2238 C2258 0.950 . S
H2239 C2259 0.950 . S
H2240 C2261 0.950 . S
H2241 C2264 0.950 . S
H2242 C2265 0.950 . S
H2243 C2267 0.950 . S
H2244 C2268 0.950 . S
H2245 C2269 0.951 . S
H2246 C2271 0.951 . S
H2247 C2273 0.950 . S
H2248 C2274 0.950 . S
H2249 C2276 0.950 . S
H2250 C2279 0.950 . S
H2251 C2280 0.950 . S
H2252 C2282 0.950 . S
H2253 C2283 0.950 . S
C2254 H2236 0.951 . S
C2254 C2255 1.366 . S
C2254 C2256 1.388 . S
C2255 C2254 1.366 . S
C2255 C2259 1.385 . S
C2256 H2237 0.951 . S
C2256 C2254 1.388 . S
C2256 C2257 1.366 . S
C2257 C2256 1.366 . S
C2257 C2258 1.414 . S
C2257 C2260 1.499 . S
C2258 H2238 0.950 . S
C2258 C2257 1.414 . S
C2258 C2259 1.374 . S
C2259 H2239 0.950 . S
C2259 C2255 1.385 . S
C2259 C2258 1.374 . S
C2260 C2257 1.499 . S
C2260 C2261 1.373 . S
C2260 C2262 1.389 . S
C2261 H2240 0.950 . S
C2261 C2260 1.373 . S
C2261 C2277 1.377 . S
C2262 C2260 1.389 . S
C2262 C2263 1.524 . S
C2262 C2276 1.377 . S
C2263 C2262 1.524 . S
C2263 C2264 1.397 . S
C2263 C2268 1.363 . S
C2264 H2241 0.950 . S
C2264 C2263 1.397 . S
C2264 C2265 1.334 . S
C2265 H2242 0.950 . S
C2265 C2264 1.334 . S
C2265 C2266 1.287 . S
C2266 C2265 1.287 . S
C2266 C2267 1.524 . S
C2266 H2285 0.913 . S
C2267 H2243 0.950 . S
C2267 C2266 1.524 . S
C2267 C2268 1.415 . S
C2268 H2244 0.950 . S
C2268 C2263 1.363 . S
C2268 C2267 1.415 . S
C2269 H2245 0.951 . S
C2269 C2270 1.366 . S
C2269 C2271 1.388 . S
C2270 C2269 1.366 . S
C2270 C2274 1.385 . S
C2271 H2246 0.951 . S
C2271 C2269 1.388 . S
C2271 C2272 1.366 . S
C2272 C2271 1.366 . S
C2272 C2273 1.414 . S
C2272 C2275 1.499 . S
C2273 H2247 0.950 . S
C2273 C2272 1.414 . S
C2273 C2274 1.374 . S
C2274 H2248 0.950 . S
C2274 C2270 1.385 . S
C2274 C2273 1.374 . S
C2275 C2272 1.499 . S
C2275 C2276 1.373 . S
C2275 C2277 1.389 . S
C2276 H2249 0.950 . S
C2276 C2262 1.377 . S
C2276 C2275 1.373 . S
C2277 C2261 1.377 . S
C2277 C2275 1.389 . S
C2277 C2278 1.524 . S
C2278 C2277 1.524 . S
C2278 C2279 1.397 . S
C2278 C2283 1.363 . S
C2279 H2250 0.950 . S
C2279 C2278 1.397 . S
C2279 C2280 1.334 . S
C2280 H2251 0.950 . S
C2280 C2279 1.334 . S
C2280 C2281 1.287 . S
C2281 C2280 1.287 . S
C2281 C2282 1.524 . S
C2281 H2284 0.999 . S
C2282 H2252 0.950 . S
C2282 C2281 1.524 . S
C2282 C2283 1.415 . S
C2283 H2253 0.950 . S
C2283 C2278 1.363 . S
C2283 C2282 1.415 . S
H2284 C2281 0.999 . S
H2285 C2266 0.913 . S
H2286 C2304 0.951 . S
H2287 C2306 0.951 . S
H2288 C2308 0.950 . S
H2289 C2309 0.950 . S
H2290 C2311 0.950 . S
H2291 C2314 0.950 . S
H2292 C2315 0.950 . S
H2293 C2317 0.950 . S
H2294 C2318 0.950 . S
H2295 C2319 0.951 . S
H2296 C2321 0.951 . S
H2297 C2323 0.950 . S
H2298 C2324 0.950 . S
H2299 C2326 0.950 . S
H2300 C2329 0.950 . S
H2301 C2330 0.950 . S
H2302 C2332 0.950 . S
H2303 C2333 0.950 . S
C2304 H2286 0.951 . S
C2304 C2305 1.366 . S
C2304 C2306 1.388 . S
C2305 C2304 1.366 . S
C2305 C2309 1.385 . S
C2306 H2287 0.951 . S
C2306 C2304 1.388 . S
C2306 C2307 1.366 . S
C2307 C2306 1.366 . S
C2307 C2308 1.414 . S
C2307 C2310 1.499 . S
C2308 H2288 0.950 . S
C2308 C2307 1.414 . S
C2308 C2309 1.374 . S
C2309 H2289 0.950 . S
C2309 C2305 1.385 . S
C2309 C2308 1.374 . S
C2310 C2307 1.499 . S
C2310 C2311 1.373 . S
C2310 C2312 1.389 . S
C2311 H2290 0.950 . S
C2311 C2310 1.373 . S
C2311 C2327 1.377 . S
C2312 C2310 1.389 . S
C2312 C2313 1.524 . S
C2312 C2326 1.377 . S
C2313 C2312 1.524 . S
C2313 C2314 1.397 . S
C2313 C2318 1.363 . S
C2314 H2291 0.950 . S
C2314 C2313 1.397 . S
C2314 C2315 1.334 . S
C2315 H2292 0.950 . S
C2315 C2314 1.334 . S
C2315 C2316 1.287 . S
C2316 C2315 1.287 . S
C2316 C2317 1.524 . S
C2316 H2335 0.913 . S
C2317 H2293 0.950 . S
C2317 C2316 1.524 . S
C2317 C2318 1.415 . S
C2318 H2294 0.950 . S
C2318 C2313 1.363 . S
C2318 C2317 1.415 . S
C2319 H2295 0.951 . S
C2319 C2320 1.366 . S
C2319 C2321 1.388 . S
C2320 C2319 1.366 . S
C2320 C2324 1.385 . S
C2321 H2296 0.951 . S
C2321 C2319 1.388 . S
C2321 C2322 1.366 . S
C2322 C2321 1.366 . S
C2322 C2323 1.414 . S
C2322 C2325 1.499 . S
C2323 H2297 0.950 . S
C2323 C2322 1.414 . S
C2323 C2324 1.374 . S
C2324 H2298 0.950 . S
C2324 C2320 1.385 . S
C2324 C2323 1.374 . S
C2325 C2322 1.499 . S
C2325 C2326 1.373 . S
C2325 C2327 1.389 . S
C2326 H2299 0.950 . S
C2326 C2312 1.377 . S
C2326 C2325 1.373 . S
C2327 C2311 1.377 . S
C2327 C2325 1.389 . S
C2327 C2328 1.524 . S
C2328 C2327 1.524 . S
C2328 C2329 1.397 . S
C2328 C2333 1.363 . S
C2329 H2300 0.950 . S
C2329 C2328 1.397 . S
C2329 C2330 1.334 . S
C2330 H2301 0.950 . S
C2330 C2329 1.334 . S
C2330 C2331 1.287 . S
C2331 C2330 1.287 . S
C2331 C2332 1.524 . S
C2331 H2334 0.999 . S
C2332 H2302 0.950 . S
C2332 C2331 1.524 . S
C2332 C2333 1.415 . S
C2333 H2303 0.950 . S
C2333 C2328 1.363 . S
C2333 C2332 1.415 . S
H2334 C2331 0.999 . S
H2335 C2316 0.913 . S
H2336 C2354 0.951 . S
H2337 C2356 0.951 . S
H2338 C2358 0.950 . S
H2339 C2359 0.950 . S
H2340 C2361 0.950 . S
H2341 C2364 0.950 . S
H2342 C2365 0.950 . S
H2343 C2367 0.950 . S
H2344 C2368 0.950 . S
H2345 C2369 0.951 . S
H2346 C2371 0.951 . S
H2347 C2373 0.950 . S
H2348 C2374 0.950 . S
H2349 C2376 0.950 . S
H2350 C2379 0.950 . S
H2351 C2380 0.950 . S
H2352 C2382 0.950 . S
H2353 C2383 0.950 . S
C2354 H2336 0.951 . S
C2354 C2355 1.366 . S
C2354 C2356 1.388 . S
C2355 C2354 1.366 . S
C2355 C2359 1.385 . S
C2356 H2337 0.951 . S
C2356 C2354 1.388 . S
C2356 C2357 1.366 . S
C2357 C2356 1.366 . S
C2357 C2358 1.414 . S
C2357 C2360 1.499 . S
C2358 H2338 0.950 . S
C2358 C2357 1.414 . S
C2358 C2359 1.374 . S
C2359 H2339 0.950 . S
C2359 C2355 1.385 . S
C2359 C2358 1.374 . S
C2360 C2357 1.499 . S
C2360 C2361 1.373 . S
C2360 C2362 1.389 . S
C2361 H2340 0.950 . S
C2361 C2360 1.373 . S
C2361 C2377 1.377 . S
C2362 C2360 1.389 . S
C2362 C2363 1.524 . S
C2362 C2376 1.377 . S
C2363 C2362 1.524 . S
C2363 C2364 1.397 . S
C2363 C2368 1.363 . S
C2364 H2341 0.950 . S
C2364 C2363 1.397 . S
C2364 C2365 1.334 . S
C2365 H2342 0.950 . S
C2365 C2364 1.334 . S
C2365 C2366 1.287 . S
C2366 C2365 1.287 . S
C2366 C2367 1.524 . S
C2366 H2385 0.913 . S
C2367 H2343 0.950 . S
C2367 C2366 1.524 . S
C2367 C2368 1.415 . S
C2368 H2344 0.950 . S
C2368 C2363 1.363 . S
C2368 C2367 1.415 . S
C2369 H2345 0.951 . S
C2369 C2370 1.366 . S
C2369 C2371 1.388 . S
C2370 C2369 1.366 . S
C2370 C2374 1.385 . S
C2371 H2346 0.951 . S
C2371 C2369 1.388 . S
C2371 C2372 1.366 . S
C2372 C2371 1.366 . S
C2372 C2373 1.414 . S
C2372 C2375 1.499 . S
C2373 H2347 0.950 . S
C2373 C2372 1.414 . S
C2373 C2374 1.374 . S
C2374 H2348 0.950 . S
C2374 C2370 1.385 . S
C2374 C2373 1.374 . S
C2375 C2372 1.499 . S
C2375 C2376 1.373 . S
C2375 C2377 1.389 . S
C2376 H2349 0.950 . S
C2376 C2362 1.377 . S
C2376 C2375 1.373 . S
C2377 C2361 1.377 . S
C2377 C2375 1.389 . S
C2377 C2378 1.524 . S
C2378 C2377 1.524 . S
C2378 C2379 1.397 . S
C2378 C2383 1.363 . S
C2379 H2350 0.950 . S
C2379 C2378 1.397 . S
C2379 C2380 1.334 . S
C2380 H2351 0.950 . S
C2380 C2379 1.334 . S
C2380 C2381 1.287 . S
C2381 C2380 1.287 . S
C2381 C2382 1.524 . S
C2381 H2384 0.999 . S
C2382 H2352 0.950 . S
C2382 C2381 1.524 . S
C2382 C2383 1.415 . S
C2383 H2353 0.950 . S
C2383 C2378 1.363 . S
C2383 C2382 1.415 . S
H2384 C2381 0.999 . S
H2385 C2366 0.913 . S
H2386 C2404 0.951 . S
H2387 C2406 0.951 . S
H2388 C2408 0.950 . S
H2389 C2409 0.950 . S
H2390 C2411 0.950 . S
H2391 C2414 0.950 . S
H2392 C2415 0.950 . S
H2393 C2417 0.950 . S
H2394 C2418 0.950 . S
H2395 C2419 0.951 . S
H2396 C2421 0.951 . S
H2397 C2423 0.950 . S
H2398 C2424 0.950 . S
H2399 C2426 0.950 . S
H2400 C2429 0.950 . S
H2401 C2430 0.950 . S
H2402 C2432 0.950 . S
H2403 C2433 0.950 . S
C2404 H2386 0.951 . S
C2404 C2405 1.366 . S
C2404 C2406 1.388 . S
C2405 C2404 1.366 . S
C2405 C2409 1.385 . S
C2406 H2387 0.951 . S
C2406 C2404 1.388 . S
C2406 C2407 1.366 . S
C2407 C2406 1.366 . S
C2407 C2408 1.414 . S
C2407 C2410 1.499 . S
C2408 H2388 0.950 . S
C2408 C2407 1.414 . S
C2408 C2409 1.374 . S
C2409 H2389 0.950 . S
C2409 C2405 1.385 . S
C2409 C2408 1.374 . S
C2410 C2407 1.499 . S
C2410 C2411 1.373 . S
C2410 C2412 1.389 . S
C2411 H2390 0.950 . S
C2411 C2410 1.373 . S
C2411 C2427 1.377 . S
C2412 C2410 1.389 . S
C2412 C2413 1.524 . S
C2412 C2426 1.377 . S
C2413 C2412 1.524 . S
C2413 C2414 1.397 . S
C2413 C2418 1.363 . S
C2414 H2391 0.950 . S
C2414 C2413 1.397 . S
C2414 C2415 1.334 . S
C2415 H2392 0.950 . S
C2415 C2414 1.334 . S
C2415 C2416 1.287 . S
C2416 C2415 1.287 . S
C2416 C2417 1.524 . S
C2416 H2435 0.913 . S
C2417 H2393 0.950 . S
C2417 C2416 1.524 . S
C2417 C2418 1.415 . S
C2418 H2394 0.950 . S
C2418 C2413 1.363 . S
C2418 C2417 1.415 . S
C2419 H2395 0.951 . S
C2419 C2420 1.366 . S
C2419 C2421 1.388 . S
C2420 C2419 1.366 . S
C2420 C2424 1.385 . S
C2421 H2396 0.951 . S
C2421 C2419 1.388 . S
C2421 C2422 1.366 . S
C2422 C2421 1.366 . S
C2422 C2423 1.414 . S
C2422 C2425 1.499 . S
C2423 H2397 0.950 . S
C2423 C2422 1.414 . S
C2423 C2424 1.374 . S
C2424 H2398 0.950 . S
C2424 C2420 1.385 . S
C2424 C2423 1.374 . S
C2425 C2422 1.499 . S
C2425 C2426 1.373 . S
C2425 C2427 1.389 . S
C2426 H2399 0.950 . S
C2426 C2412 1.377 . S
C2426 C2425 1.373 . S
C2427 C2411 1.377 . S
C2427 C2425 1.389 . S
C2427 C2428 1.524 . S
C2428 C2427 1.524 . S
C2428 C2429 1.397 . S
C2428 C2433 1.363 . S
C2429 H2400 0.950 . S
C2429 C2428 1.397 . S
C2429 C2430 1.334 . S
C2430 H2401 0.950 . S
C2430 C2429 1.334 . S
C2430 C2431 1.287 . S
C2431 C2430 1.287 . S
C2431 C2432 1.524 . S
C2431 H2434 0.999 . S
C2432 H2402 0.950 . S
C2432 C2431 1.524 . S
C2432 C2433 1.415 . S
C2433 H2403 0.950 . S
C2433 C2428 1.363 . S
C2433 C2432 1.415 . S
H2434 C2431 0.999 . S
H2435 C2416 0.913 . S
H2436 C2454 0.951 . S
H2437 C2456 0.951 . S
H2438 C2458 0.950 . S
H2439 C2459 0.950 . S
H2440 C2461 0.950 . S
H2441 C2464 0.950 . S
H2442 C2465 0.950 . S
H2443 C2467 0.950 . S
H2444 C2468 0.950 . S
H2445 C2469 0.951 . S
H2446 C2471 0.951 . S
H2447 C2473 0.950 . S
H2448 C2474 0.950 . S
H2449 C2476 0.950 . S
H2450 C2479 0.950 . S
H2451 C2480 0.950 . S
H2452 C2482 0.950 . S
H2453 C2483 0.950 . S
C2454 H2436 0.951 . S
C2454 C2455 1.366 . S
C2454 C2456 1.388 . S
C2455 C2454 1.366 . S
C2455 C2459 1.385 . S
C2456 H2437 0.951 . S
C2456 C2454 1.388 . S
C2456 C2457 1.366 . S
C2457 C2456 1.366 . S
C2457 C2458 1.414 . S
C2457 C2460 1.499 . S
C2458 H2438 0.950 . S
C2458 C2457 1.414 . S
C2458 C2459 1.374 . S
C2459 H2439 0.950 . S
C2459 C2455 1.385 . S
C2459 C2458 1.374 . S
C2460 C2457 1.499 . S
C2460 C2461 1.373 . S
C2460 C2462 1.389 . S
C2461 H2440 0.950 . S
C2461 C2460 1.373 . S
C2461 C2477 1.377 . S
C2462 C2460 1.389 . S
C2462 C2463 1.524 . S
C2462 C2476 1.377 . S
C2463 C2462 1.524 . S
C2463 C2464 1.397 . S
C2463 C2468 1.363 . S
C2464 H2441 0.950 . S
C2464 C2463 1.397 . S
C2464 C2465 1.334 . S
C2465 H2442 0.950 . S
C2465 C2464 1.334 . S
C2465 C2466 1.287 . S
C2466 C2465 1.287 . S
C2466 C2467 1.524 . S
C2466 H2485 0.913 . S
C2467 H2443 0.950 . S
C2467 C2466 1.524 . S
C2467 C2468 1.415 . S
C2468 H2444 0.950 . S
C2468 C2463 1.363 . S
C2468 C2467 1.415 . S
C2469 H2445 0.951 . S
C2469 C2470 1.366 . S
C2469 C2471 1.388 . S
C2470 C2469 1.366 . S
C2470 C2474 1.385 . S
C2471 H2446 0.951 . S
C2471 C2469 1.388 . S
C2471 C2472 1.366 . S
C2472 C2471 1.366 . S
C2472 C2473 1.414 . S
C2472 C2475 1.499 . S
C2473 H2447 0.950 . S
C2473 C2472 1.414 . S
C2473 C2474 1.374 . S
C2474 H2448 0.950 . S
C2474 C2470 1.385 . S
C2474 C2473 1.374 . S
C2475 C2472 1.499 . S
C2475 C2476 1.373 . S
C2475 C2477 1.389 . S
C2476 H2449 0.950 . S
C2476 C2462 1.377 . S
C2476 C2475 1.373 . S
C2477 C2461 1.377 . S
C2477 C2475 1.389 . S
C2477 C2478 1.524 . S
C2478 C2477 1.524 . S
C2478 C2479 1.397 . S
C2478 C2483 1.363 . S
C2479 H2450 0.950 . S
C2479 C2478 1.397 . S
C2479 C2480 1.334 . S
C2480 H2451 0.950 . S
C2480 C2479 1.334 . S
C2480 C2481 1.287 . S
C2481 C2480 1.287 . S
C2481 C2482 1.524 . S
C2481 H2484 0.999 . S
C2482 H2452 0.950 . S
C2482 C2481 1.524 . S
C2482 C2483 1.415 . S
C2483 H2453 0.950 . S
C2483 C2478 1.363 . S
C2483 C2482 1.415 . S
H2484 C2481 0.999 . S
H2485 C2466 0.913 . S
H2486 C2504 0.951 . S
H2487 C2506 0.951 . S
H2488 C2508 0.950 . S
H2489 C2509 0.950 . S
H2490 C2511 0.950 . S
H2491 C2514 0.950 . S
H2492 C2515 0.950 . S
H2493 C2517 0.950 . S
H2494 C2518 0.950 . S
H2495 C2519 0.951 . S
H2496 C2521 0.951 . S
H2497 C2523 0.950 . S
H2498 C2524 0.950 . S
H2499 C2526 0.950 . S
H2500 C2529 0.950 . S
H2501 C2530 0.950 . S
H2502 C2532 0.950 . S
H2503 C2533 0.950 . S
C2504 H2486 0.951 . S
C2504 C2505 1.366 . S
C2504 C2506 1.388 . S
C2505 C2504 1.366 . S
C2505 C2509 1.385 . S
C2506 H2487 0.951 . S
C2506 C2504 1.388 . S
C2506 C2507 1.366 . S
C2507 C2506 1.366 . S
C2507 C2508 1.414 . S
C2507 C2510 1.499 . S
C2508 H2488 0.950 . S
C2508 C2507 1.414 . S
C2508 C2509 1.374 . S
C2509 H2489 0.950 . S
C2509 C2505 1.385 . S
C2509 C2508 1.374 . S
C2510 C2507 1.499 . S
C2510 C2511 1.373 . S
C2510 C2512 1.389 . S
C2511 H2490 0.950 . S
C2511 C2510 1.373 . S
C2511 C2527 1.377 . S
C2512 C2510 1.389 . S
C2512 C2513 1.524 . S
C2512 C2526 1.377 . S
C2513 C2512 1.524 . S
C2513 C2514 1.397 . S
C2513 C2518 1.363 . S
C2514 H2491 0.950 . S
C2514 C2513 1.397 . S
C2514 C2515 1.334 . S
C2515 H2492 0.950 . S
C2515 C2514 1.334 . S
C2515 C2516 1.287 . S
C2516 C2515 1.287 . S
C2516 C2517 1.524 . S
C2516 H2535 0.913 . S
C2517 H2493 0.950 . S
C2517 C2516 1.524 . S
C2517 C2518 1.415 . S
C2518 H2494 0.950 . S
C2518 C2513 1.363 . S
C2518 C2517 1.415 . S
C2519 H2495 0.951 . S
C2519 C2520 1.366 . S
C2519 C2521 1.388 . S
C2520 C2519 1.366 . S
C2520 C2524 1.385 . S
C2521 H2496 0.951 . S
C2521 C2519 1.388 . S
C2521 C2522 1.366 . S
C2522 C2521 1.366 . S
C2522 C2523 1.414 . S
C2522 C2525 1.499 . S
C2523 H2497 0.950 . S
C2523 C2522 1.414 . S
C2523 C2524 1.374 . S
C2524 H2498 0.950 . S
C2524 C2520 1.385 . S
C2524 C2523 1.374 . S
C2525 C2522 1.499 . S
C2525 C2526 1.373 . S
C2525 C2527 1.389 . S
C2526 H2499 0.950 . S
C2526 C2512 1.377 . S
C2526 C2525 1.373 . S
C2527 C2511 1.377 . S
C2527 C2525 1.389 . S
C2527 C2528 1.524 . S
C2528 C2527 1.524 . S
C2528 C2529 1.397 . S
C2528 C2533 1.363 . S
C2529 H2500 0.950 . S
C2529 C2528 1.397 . S
C2529 C2530 1.334 . S
C2530 H2501 0.950 . S
C2530 C2529 1.334 . S
C2530 C2531 1.287 . S
C2531 C2530 1.287 . S
C2531 C2532 1.524 . S
C2531 H2534 0.999 . S
C2532 H2502 0.950 . S
C2532 C2531 1.524 . S
C2532 C2533 1.415 . S
C2533 H2503 0.950 . S
C2533 C2528 1.363 . S
C2533 C2532 1.415 . S
H2534 C2531 0.999 . S
H2535 C2516 0.913 . S
H2536 C2554 0.951 . S
H2537 C2556 0.951 . S
H2538 C2558 0.950 . S
H2539 C2559 0.950 . S
H2540 C2561 0.950 . S
H2541 C2564 0.950 . S
H2542 C2565 0.950 . S
H2543 C2567 0.950 . S
H2544 C2568 0.950 . S
H2545 C2569 0.951 . S
H2546 C2571 0.951 . S
H2547 C2573 0.950 . S
H2548 C2574 0.950 . S
H2549 C2576 0.950 . S
H2550 C2579 0.950 . S
H2551 C2580 0.950 . S
H2552 C2582 0.950 . S
H2553 C2583 0.950 . S
C2554 H2536 0.951 . S
C2554 C2555 1.366 . S
C2554 C2556 1.388 . S
C2555 C2554 1.366 . S
C2555 C2559 1.385 . S
C2556 H2537 0.951 . S
C2556 C2554 1.388 . S
C2556 C2557 1.366 . S
C2557 C2556 1.366 . S
C2557 C2558 1.414 . S
C2557 C2560 1.499 . S
C2558 H2538 0.950 . S
C2558 C2557 1.414 . S
C2558 C2559 1.374 . S
C2559 H2539 0.950 . S
C2559 C2555 1.385 . S
C2559 C2558 1.374 . S
C2560 C2557 1.499 . S
C2560 C2561 1.373 . S
C2560 C2562 1.389 . S
C2561 H2540 0.950 . S
C2561 C2560 1.373 . S
C2561 C2577 1.377 . S
C2562 C2560 1.389 . S
C2562 C2563 1.524 . S
C2562 C2576 1.377 . S
C2563 C2562 1.524 . S
C2563 C2564 1.397 . S
C2563 C2568 1.363 . S
C2564 H2541 0.950 . S
C2564 C2563 1.397 . S
C2564 C2565 1.334 . S
C2565 H2542 0.950 . S
C2565 C2564 1.334 . S
C2565 C2566 1.287 . S
C2566 C2565 1.287 . S
C2566 C2567 1.524 . S
C2566 H2585 0.913 . S
C2567 H2543 0.950 . S
C2567 C2566 1.524 . S
C2567 C2568 1.415 . S
C2568 H2544 0.950 . S
C2568 C2563 1.363 . S
C2568 C2567 1.415 . S
C2569 H2545 0.951 . S
C2569 C2570 1.366 . S
C2569 C2571 1.388 . S
C2570 C2569 1.366 . S
C2570 C2574 1.385 . S
C2571 H2546 0.951 . S
C2571 C2569 1.388 . S
C2571 C2572 1.366 . S
C2572 C2571 1.366 . S
C2572 C2573 1.414 . S
C2572 C2575 1.499 . S
C2573 H2547 0.950 . S
C2573 C2572 1.414 . S
C2573 C2574 1.374 . S
C2574 H2548 0.950 . S
C2574 C2570 1.385 . S
C2574 C2573 1.374 . S
C2575 C2572 1.499 . S
C2575 C2576 1.373 . S
C2575 C2577 1.389 . S
C2576 H2549 0.950 . S
C2576 C2562 1.377 . S
C2576 C2575 1.373 . S
C2577 C2561 1.377 . S
C2577 C2575 1.389 . S
C2577 C2578 1.524 . S
C2578 C2577 1.524 . S
C2578 C2579 1.397 . S
C2578 C2583 1.363 . S
C2579 H2550 0.950 . S
C2579 C2578 1.397 . S
C2579 C2580 1.334 . S
C2580 H2551 0.950 . S
C2580 C2579 1.334 . S
C2580 C2581 1.287 . S
C2581 C2580 1.287 . S
C2581 C2582 1.524 . S
C2581 H2584 0.999 . S
C2582 H2552 0.950 . S
C2582 C2581 1.524 . S
C2582 C2583 1.415 . S
C2583 H2553 0.950 . S
C2583 C2578 1.363 . S
C2583 C2582 1.415 . S
H2584 C2581 0.999 . S
H2585 C2566 0.913 . S
H2586 C2604 0.951 . S
H2587 C2606 0.951 . S
H2588 C2608 0.950 . S
H2589 C2609 0.950 . S
H2590 C2611 0.950 . S
H2591 C2614 0.950 . S
H2592 C2615 0.950 . S
H2593 C2617 0.950 . S
H2594 C2618 0.950 . S
H2595 C2619 0.951 . S
H2596 C2621 0.951 . S
H2597 C2623 0.950 . S
H2598 C2624 0.950 . S
H2599 C2626 0.950 . S
H2600 C2629 0.950 . S
H2601 C2630 0.950 . S
H2602 C2632 0.950 . S
H2603 C2633 0.950 . S
C2604 H2586 0.951 . S
C2604 C2605 1.366 . S
C2604 C2606 1.388 . S
C2605 C2604 1.366 . S
C2605 C2609 1.385 . S
C2606 H2587 0.951 . S
C2606 C2604 1.388 . S
C2606 C2607 1.366 . S
C2607 C2606 1.366 . S
C2607 C2608 1.414 . S
C2607 C2610 1.499 . S
C2608 H2588 0.950 . S
C2608 C2607 1.414 . S
C2608 C2609 1.374 . S
C2609 H2589 0.950 . S
C2609 C2605 1.385 . S
C2609 C2608 1.374 . S
C2610 C2607 1.499 . S
C2610 C2611 1.373 . S
C2610 C2612 1.389 . S
C2611 H2590 0.950 . S
C2611 C2610 1.373 . S
C2611 C2627 1.377 . S
C2612 C2610 1.389 . S
C2612 C2613 1.524 . S
C2612 C2626 1.377 . S
C2613 C2612 1.524 . S
C2613 C2614 1.397 . S
C2613 C2618 1.363 . S
C2614 H2591 0.950 . S
C2614 C2613 1.397 . S
C2614 C2615 1.334 . S
C2615 H2592 0.950 . S
C2615 C2614 1.334 . S
C2615 C2616 1.287 . S
C2616 C2615 1.287 . S
C2616 C2617 1.524 . S
C2616 H2635 0.913 . S
C2617 H2593 0.950 . S
C2617 C2616 1.524 . S
C2617 C2618 1.415 . S
C2618 H2594 0.950 . S
C2618 C2613 1.363 . S
C2618 C2617 1.415 . S
C2619 H2595 0.951 . S
C2619 C2620 1.366 . S
C2619 C2621 1.388 . S
C2620 C2619 1.366 . S
C2620 C2624 1.385 . S
C2621 H2596 0.951 . S
C2621 C2619 1.388 . S
C2621 C2622 1.366 . S
C2622 C2621 1.366 . S
C2622 C2623 1.414 . S
C2622 C2625 1.499 . S
C2623 H2597 0.950 . S
C2623 C2622 1.414 . S
C2623 C2624 1.374 . S
C2624 H2598 0.950 . S
C2624 C2620 1.385 . S
C2624 C2623 1.374 . S
C2625 C2622 1.499 . S
C2625 C2626 1.373 . S
C2625 C2627 1.389 . S
C2626 H2599 0.950 . S
C2626 C2612 1.377 . S
C2626 C2625 1.373 . S
C2627 C2611 1.377 . S
C2627 C2625 1.389 . S
C2627 C2628 1.524 . S
C2628 C2627 1.524 . S
C2628 C2629 1.397 . S
C2628 C2633 1.363 . S
C2629 H2600 0.950 . S
C2629 C2628 1.397 . S
C2629 C2630 1.334 . S
C2630 H2601 0.950 . S
C2630 C2629 1.334 . S
C2630 C2631 1.287 . S
C2631 C2630 1.287 . S
C2631 C2632 1.524 . S
C2631 H2634 0.999 . S
C2632 H2602 0.950 . S
C2632 C2631 1.524 . S
C2632 C2633 1.415 . S
C2633 H2603 0.950 . S
C2633 C2628 1.363 . S
C2633 C2632 1.415 . S
H2634 C2631 0.999 . S
H2635 C2616 0.913 . S
H2636 C2654 0.951 . S
H2637 C2656 0.951 . S
H2638 C2658 0.950 . S
H2639 C2659 0.950 . S
H2640 C2661 0.950 . S
H2641 C2664 0.950 . S
H2642 C2665 0.950 . S
H2643 C2667 0.950 . S
H2644 C2668 0.950 . S
H2645 C2669 0.951 . S
H2646 C2671 0.951 . S
H2647 C2673 0.950 . S
H2648 C2674 0.950 . S
H2649 C2676 0.950 . S
H2650 C2679 0.950 . S
H2651 C2680 0.950 . S
H2652 C2682 0.950 . S
H2653 C2683 0.950 . S
C2654 H2636 0.951 . S
C2654 C2655 1.366 . S
C2654 C2656 1.388 . S
C2655 C2654 1.366 . S
C2655 C2659 1.385 . S
C2656 H2637 0.951 . S
C2656 C2654 1.388 . S
C2656 C2657 1.366 . S
C2657 C2656 1.366 . S
C2657 C2658 1.414 . S
C2657 C2660 1.499 . S
C2658 H2638 0.950 . S
C2658 C2657 1.414 . S
C2658 C2659 1.374 . S
C2659 H2639 0.950 . S
C2659 C2655 1.385 . S
C2659 C2658 1.374 . S
C2660 C2657 1.499 . S
C2660 C2661 1.373 . S
C2660 C2662 1.389 . S
C2661 H2640 0.950 . S
C2661 C2660 1.373 . S
C2661 C2677 1.377 . S
C2662 C2660 1.389 . S
C2662 C2663 1.524 . S
C2662 C2676 1.377 . S
C2663 C2662 1.524 . S
C2663 C2664 1.397 . S
C2663 C2668 1.363 . S
C2664 H2641 0.950 . S
C2664 C2663 1.397 . S
C2664 C2665 1.334 . S
C2665 H2642 0.950 . S
C2665 C2664 1.334 . S
C2665 C2666 1.287 . S
C2666 C2665 1.287 . S
C2666 C2667 1.524 . S
C2666 H2685 0.913 . S
C2667 H2643 0.950 . S
C2667 C2666 1.524 . S
C2667 C2668 1.415 . S
C2668 H2644 0.950 . S
C2668 C2663 1.363 . S
C2668 C2667 1.415 . S
C2669 H2645 0.951 . S
C2669 C2670 1.366 . S
C2669 C2671 1.388 . S
C2670 C2669 1.366 . S
C2670 C2674 1.385 . S
C2671 H2646 0.951 . S
C2671 C2669 1.388 . S
C2671 C2672 1.366 . S
C2672 C2671 1.366 . S
C2672 C2673 1.414 . S
C2672 C2675 1.499 . S
C2673 H2647 0.950 . S
C2673 C2672 1.414 . S
C2673 C2674 1.374 . S
C2674 H2648 0.950 . S
C2674 C2670 1.385 . S
C2674 C2673 1.374 . S
C2675 C2672 1.499 . S
C2675 C2676 1.373 . S
C2675 C2677 1.389 . S
C2676 H2649 0.950 . S
C2676 C2662 1.377 . S
C2676 C2675 1.373 . S
C2677 C2661 1.377 . S
C2677 C2675 1.389 . S
C2677 C2678 1.524 . S
C2678 C2677 1.524 . S
C2678 C2679 1.397 . S
C2678 C2683 1.363 . S
C2679 H2650 0.950 . S
C2679 C2678 1.397 . S
C2679 C2680 1.334 . S
C2680 H2651 0.950 . S
C2680 C2679 1.334 . S
C2680 C2681 1.287 . S
C2681 C2680 1.287 . S
C2681 C2682 1.524 . S
C2681 H2684 0.999 . S
C2682 H2652 0.950 . S
C2682 C2681 1.524 . S
C2682 C2683 1.415 . S
C2683 H2653 0.950 . S
C2683 C2678 1.363 . S
C2683 C2682 1.415 . S
H2684 C2681 0.999 . S
H2685 C2666 0.913 . S
H2686 C2704 0.951 . S
H2687 C2706 0.951 . S
H2688 C2708 0.950 . S
H2689 C2709 0.950 . S
H2690 C2711 0.950 . S
H2691 C2714 0.950 . S
H2692 C2715 0.950 . S
H2693 C2717 0.950 . S
H2694 C2718 0.950 . S
H2695 C2719 0.951 . S
H2696 C2721 0.951 . S
H2697 C2723 0.950 . S
H2698 C2724 0.950 . S
H2699 C2726 0.950 . S
H2700 C2729 0.950 . S
H2701 C2730 0.950 . S
H2702 C2732 0.950 . S
H2703 C2733 0.950 . S
C2704 H2686 0.951 . S
C2704 C2705 1.366 . S
C2704 C2706 1.388 . S
C2705 C2704 1.366 . S
C2705 C2709 1.385 . S
C2706 H2687 0.951 . S
C2706 C2704 1.388 . S
C2706 C2707 1.366 . S
C2707 C2706 1.366 . S
C2707 C2708 1.414 . S
C2707 C2710 1.499 . S
C2708 H2688 0.950 . S
C2708 C2707 1.414 . S
C2708 C2709 1.374 . S
C2709 H2689 0.950 . S
C2709 C2705 1.385 . S
C2709 C2708 1.374 . S
C2710 C2707 1.499 . S
C2710 C2711 1.373 . S
C2710 C2712 1.389 . S
C2711 H2690 0.950 . S
C2711 C2710 1.373 . S
C2711 C2727 1.377 . S
C2712 C2710 1.389 . S
C2712 C2713 1.524 . S
C2712 C2726 1.377 . S
C2713 C2712 1.524 . S
C2713 C2714 1.397 . S
C2713 C2718 1.363 . S
C2714 H2691 0.950 . S
C2714 C2713 1.397 . S
C2714 C2715 1.334 . S
C2715 H2692 0.950 . S
C2715 C2714 1.334 . S
C2715 C2716 1.287 . S
C2716 C2715 1.287 . S
C2716 C2717 1.524 . S
C2716 H2735 0.913 . S
C2717 H2693 0.950 . S
C2717 C2716 1.524 . S
C2717 C2718 1.415 . S
C2718 H2694 0.950 . S
C2718 C2713 1.363 . S
C2718 C2717 1.415 . S
C2719 H2695 0.951 . S
C2719 C2720 1.366 . S
C2719 C2721 1.388 . S
C2720 C2719 1.366 . S
C2720 C2724 1.385 . S
C2721 H2696 0.951 . S
C2721 C2719 1.388 . S
C2721 C2722 1.366 . S
C2722 C2721 1.366 . S
C2722 C2723 1.414 . S
C2722 C2725 1.499 . S
C2723 H2697 0.950 . S
C2723 C2722 1.414 . S
C2723 C2724 1.374 . S
C2724 H2698 0.950 . S
C2724 C2720 1.385 . S
C2724 C2723 1.374 . S
C2725 C2722 1.499 . S
C2725 C2726 1.373 . S
C2725 C2727 1.389 . S
C2726 H2699 0.950 . S
C2726 C2712 1.377 . S
C2726 C2725 1.373 . S
C2727 C2711 1.377 . S
C2727 C2725 1.389 . S
C2727 C2728 1.524 . S
C2728 C2727 1.524 . S
C2728 C2729 1.397 . S
C2728 C2733 1.363 . S
C2729 H2700 0.950 . S
C2729 C2728 1.397 . S
C2729 C2730 1.334 . S
C2730 H2701 0.950 . S
C2730 C2729 1.334 . S
C2730 C2731 1.287 . S
C2731 C2730 1.287 . S
C2731 C2732 1.524 . S
C2731 H2734 0.999 . S
C2732 H2702 0.950 . S
C2732 C2731 1.524 . S
C2732 C2733 1.415 . S
C2733 H2703 0.950 . S
C2733 C2728 1.363 . S
C2733 C2732 1.415 . S
H2734 C2731 0.999 . S
H2735 C2716 0.913 . S
C355 C162 1.508 . S
C370 C7 1.368 . S
C405 C21 1.370 . S
C420 C120 1.508 . S
C455 C35 1.370 . S
C470 C134 1.508 . S
C505 C49 1.368 . S
C520 C148 1.508 . S
C555 C190 1.508 . S
C570 C63 1.369 . S
C605 C77 1.368 . S
C620 C204 1.508 . S
C655 C218 1.508 . S
C670 C91 1.370 . S
C705 C176 1.508 . S
C720 C105 1.369 . S
C755 C78 1.508 . S
C770 C119 1.369 . S
C805 C92 1.508 . S
C820 C133 1.369 . S
C855 C147 1.369 . S
C870 C106 1.508 . S
C905 C64 1.508 . S
C920 C161 1.368 . S
C955 C50 1.508 . S
C970 C175 1.368 . S
C1005 C189 1.369 . S
C1020 C8 1.508 . S
C1055 C203 1.369 . S
C1070 C22 1.508 . S
C1105 C217 1.370 . S
C1120 C36 1.508 . S
C1155 C231 1.369 . S
C1170 C330 1.508 . S
C1205 C288 1.508 . S
C1220 C245 1.369 . S
C1255 C259 1.369 . S
C1270 C246 1.508 . S
C1305 C273 1.370 . S
C1320 C260 1.508 . S
C1355 C274 1.508 . S
C1370 C287 1.369 . S
C1405 C301 1.368 . S
C1420 C316 1.508 . S
C1455 C232 1.508 . S
C1470 C315 1.370 . S
C1505 C302 1.508 . S
C1520 C329 1.369 . S
C1555 C9 1.652 . S
C1570 C93 1.652 . S
C1605 C23 1.652 . S
C1620 C107 1.652 . S
C1655 C37 1.652 . S
C1670 C65 1.652 . S
C1705 C79 1.652 . S
C1720 C51 1.652 . S
C1755 C149 1.652 . S
C1770 C121 1.652 . S
C1805 C135 1.652 . S
C1820 C163 1.652 . S
C1855 C177 1.652 . S
C1870 C205 1.652 . S
C1905 C219 1.652 . S
C1920 C191 1.652 . S
C1955 C247 1.652 . S
C1970 C233 1.652 . S
C2005 C261 1.652 . S
C2020 C331 1.652 . S
C2055 C275 1.652 . S
C2070 C303 1.652 . S
C2105 C289 1.652 . S
C2120 C317 1.652 . S
C2155 C6 1.094 . S
C2170 C76 1.094 . S
C2205 C20 1.094 . S
C2220 C90 1.094 . S
C2255 C34 1.094 . S
C2270 C104 1.093 . S
C2305 C62 1.093 . S
C2320 C48 1.094 . S
C2355 C118 1.094 . S
C2370 C328 1.094 . S
C2405 C132 1.093 . S
C2420 C300 1.093 . S
C2455 C314 1.093 . S
C2470 C146 1.093 . S
C2505 C160 1.094 . S
C2520 C230 1.094 . S
C2555 C286 1.093 . S
C2570 C174 1.094 . S
C2605 C244 1.093 . S
C2620 C188 1.094 . S
C2655 C202 1.094 . S
C2670 C258 1.093 . S
C2705 C272 1.093 . S
C2720 C216 1.093 . S
