# Generated by pormake.
# Topology svh, (7)-cn, num edge types: 1
# Building blocks:
#     Node 0, Type 0, BuildingBlock: HICVOG_clean_sbu_0, # of connection points: 7
#     Node 1, Type 0, BuildingBlock: HICVOG_clean_sbu_0, # of connection points: 7
#     Node 2, Type 0, BuildingBlock: HICVOG_clean_sbu_0, # of connection points: 7
#     Node 3, Type 0, BuildingBlock: HICVOG_clean_sbu_0, # of connection points: 7
#     Node 4, Type 0, BuildingBlock: HICVOG_clean_sbu_0, # of connection points: 7
#     Node 5, Type 0, BuildingBlock: HICVOG_clean_sbu_0, # of connection points: 7
#     Node 6, Type 0, BuildingBlock: HICVOG_clean_sbu_0, # of connection points: 7
#     Node 7, Type 0, BuildingBlock: HICVOG_clean_sbu_0, # of connection points: 7
#     Edge 8, Type (0, 0), BuildingBlock: CIFDUS_clean_linker_0, # of connection points: 2
#     Edge 9, Type (0, 0), BuildingBlock: CIFDUS_clean_linker_0, # of connection points: 2
#     Edge 10, Type (0, 0), BuildingBlock: CIFDUS_clean_linker_0, # of connection points: 2
#     Edge 11, Type (0, 0), BuildingBlock: CIFDUS_clean_linker_0, # of connection points: 2
#     Edge 12, Type (0, 0), BuildingBlock: CIFDUS_clean_linker_0, # of connection points: 2
#     Edge 13, Type (0, 0), BuildingBlock: CIFDUS_clean_linker_0, # of connection points: 2
#     Edge 14, Type (0, 0), BuildingBlock: CIFDUS_clean_linker_0, # of connection points: 2
#     Edge 15, Type (0, 0), BuildingBlock: CIFDUS_clean_linker_0, # of connection points: 2
#     Edge 16, Type (0, 0), BuildingBlock: CIFDUS_clean_linker_0, # of connection points: 2
#     Edge 17, Type (0, 0), BuildingBlock: CIFDUS_clean_linker_0, # of connection points: 2
#     Edge 18, Type (0, 0), BuildingBlock: CIFDUS_clean_linker_0, # of connection points: 2
#     Edge 19, Type (0, 0), BuildingBlock: CIFDUS_clean_linker_0, # of connection points: 2
#     Edge 20, Type (0, 0), BuildingBlock: CIFDUS_clean_linker_0, # of connection points: 2
#     Edge 21, Type (0, 0), BuildingBlock: CIFDUS_clean_linker_0, # of connection points: 2
#     Edge 22, Type (0, 0), BuildingBlock: CIFDUS_clean_linker_0, # of connection points: 2
#     Edge 23, Type (0, 0), BuildingBlock: CIFDUS_clean_linker_0, # of connection points: 2
#     Edge 24, Type (0, 0), BuildingBlock: CIFDUS_clean_linker_0, # of connection points: 2
#     Edge 25, Type (0, 0), BuildingBlock: CIFDUS_clean_linker_0, # of connection points: 2
#     Edge 26, Type (0, 0), BuildingBlock: CIFDUS_clean_linker_0, # of connection points: 2
#     Edge 27, Type (0, 0), BuildingBlock: CIFDUS_clean_linker_0, # of connection points: 2
#     Edge 28, Type (0, 0), BuildingBlock: CIFDUS_clean_linker_0, # of connection points: 2
#     Edge 29, Type (0, 0), BuildingBlock: CIFDUS_clean_linker_0, # of connection points: 2
#     Edge 30, Type (0, 0), BuildingBlock: CIFDUS_clean_linker_0, # of connection points: 2
#     Edge 31, Type (0, 0), BuildingBlock: CIFDUS_clean_linker_0, # of connection points: 2
#     Edge 32, Type (0, 0), BuildingBlock: CIFDUS_clean_linker_0, # of connection points: 2
#     Edge 33, Type (0, 0), BuildingBlock: CIFDUS_clean_linker_0, # of connection points: 2
#     Edge 34, Type (0, 0), BuildingBlock: CIFDUS_clean_linker_0, # of connection points: 2
#     Edge 35, Type (0, 0), BuildingBlock: CIFDUS_clean_linker_0, # of connection points: 2
# Relax obj value: 0.293
# Max RMSD: 0.257
# Mean RMSD: 0.257
data_MOF--net-svh--node1-HICVOG_clean_sbu_0--edge1-CIFDUS_clean_linker_0
_symmetry_space_group_name_H-M    P1
_symmetry_Int_Tables_number       1
_symmetry_cell_setting            triclinic
loop_
_symmetry_equiv_pos_as_xyz
'x, y, z'
_cell_length_a     16.856361
_cell_length_b     16.891133
_cell_length_c     88.560963
_cell_angle_alpha  90.192733
_cell_angle_beta   89.639776
_cell_angle_gamma 89.447019
loop_
_atom_site_label
_atom_site_type_symbol
_atom_site_fract_x
_atom_site_fract_y
_atom_site_fract_z
_atom_type_partial_charge
Zn0 Zn 0.12889 0.8944 0.09022 0.0
C1 C 0.99885 0.74769 0.06561 0.0
N2 N 0.98864 0.80865 0.05614 0.0
C3 C 0.02105 0.86968 0.06358 0.0
N4 N 0.04981 0.8471 0.0772 0.0
N5 N 0.03423 0.77072 0.0785 0.0
C6 C 0.09258 0.53897 0.09493 0.0
O7 O 0.16128 0.56277 0.10009 0.0
O8 O 0.13228 0.01555 0.08999 0.0
Zn9 Zn 0.0439 0.7085 0.09701 0.0
N10 N 0.23055 0.85353 0.08278 0.0
C11 C 0.30292 0.79288 0.06256 0.0
C12 C 0.23184 0.82043 0.06873 0.0
C13 C 0.29807 0.85804 0.09111 0.0
N14 N 0.37021 0.79844 0.07073 0.0
C15 C 0.37017 0.82986 0.0849 0.0
O16 O 0.1388 0.73471 0.11034 0.0
C17 C 0.13655 0.79787 0.11826 0.0
O18 O 0.11675 0.86364 0.11232 0.0
H19 H 0.17841 0.8162 0.06216 0.0
H20 H 0.29569 0.88427 0.10227 0.0
C21 C 0.8834 0.75879 0.10277 0.0
C22 C 0.81652 0.77735 0.1118 0.0
C23 C 0.89014 0.74103 0.13357 0.0
C24 C 0.95555 0.7222 0.12453 0.0
N25 N 0.95138 0.73272 0.10935 0.0
N26 N 0.82246 0.76782 0.12703 0.0
H27 H 0.88171 0.76266 0.09062 0.0
C28 C 0.07541 0.06549 0.08907 0.0
O29 O 1.0024 0.03999 0.08774 0.0
O30 O 0.03765 0.58985 0.09276 0.0
H31 H 0.00915 0.69898 0.12955 0.0
H32 H 0.30469 0.76728 0.05135 0.0
H33 H 0.8928 0.73366 0.14569 0.0
Zn34 Zn 0.54519 0.77632 0.33505 0.0
C35 C 0.69171 0.62561 0.31338 0.0
N36 N 0.62686 0.6084 0.30537 0.0
C37 C 0.56947 0.64794 0.31284 0.0
N38 N 0.59777 0.68908 0.32472 0.0
N39 N 0.67479 0.67354 0.32523 0.0
C40 C 0.90756 0.70605 0.33285 0.0
O41 O 0.90072 0.62982 0.33035 0.0
O42 O 0.42646 0.76208 0.33196 0.0
Zn43 Zn 0.74347 0.68742 0.34266 0.0
N44 N 0.58268 0.87251 0.32553 0.0
C45 C 0.63984 0.93325 0.30388 0.0
C46 C 0.61106 0.86654 0.31115 0.0
C47 C 0.58557 0.94238 0.33322 0.0
N48 N 0.64239 1.00287 0.31149 0.0
C49 C 0.61703 0.00963 0.32607 0.0
O50 O 0.69011 0.73736 0.36107 0.0
C51 C 0.62627 0.76881 0.36615 0.0
O52 O 0.56738 0.78316 0.35758 0.0
H53 H 0.61284 0.81019 0.30541 0.0
H54 H 0.56431 0.94502 0.34477 0.0
C55 C 0.72834 0.51852 0.3451 0.0
C56 C 0.74819 0.44237 0.35029 0.0
C57 C 0.84692 0.49898 0.3659 0.0
C58 C 0.82825 0.57403 0.36037 0.0
N59 N 0.77008 0.5822 0.34992 0.0
N60 N 0.80704 0.43507 0.36068 0.0
H61 H 0.6795 0.52737 0.33746 0.0
C62 C 0.3691 0.81093 0.33373 0.0
O63 O 0.38364 0.88338 0.3383 0.0
O64 O 0.84714 0.74485 0.33764 0.0
H65 H 0.85967 0.62551 0.36435 0.0
H66 H 0.66172 0.92942 0.29239 0.0
H67 H 0.89319 0.49144 0.3742 0.0
Zn68 Zn 0.47869 0.38894 0.59683 0.0
C69 C 0.51265 0.22556 0.56399 0.0
N70 N 0.53929 0.28759 0.55609 0.0
C71 C 0.52362 0.34899 0.56531 0.0
N72 N 0.48932 0.32559 0.57835 0.0
N73 N 0.48089 0.2479 0.57744 0.0
C74 C 0.42328 0.02901 0.59258 0.0
O75 O 0.47165 0.05411 0.6031 0.0
O76 O 0.46773 0.50744 0.59339 0.0
Zn77 Zn 0.39256 0.19846 0.58766 0.0
N78 N 0.57949 0.38433 0.60673 0.0
C79 C 0.65592 0.42006 0.6281 0.0
C80 C 0.58354 0.41788 0.62066 0.0
C81 C 0.64488 0.35346 0.59982 0.0
N82 N 0.72175 0.39104 0.62105 0.0
C83 C 0.71891 0.35831 0.60698 0.0
O84 O 0.38477 0.22154 0.61025 0.0
C85 C 0.38405 0.28348 0.61854 0.0
O86 O 0.40548 0.35065 0.61351 0.0
H87 H 0.53103 0.44371 0.62581 0.0
H88 H 0.63868 0.32646 0.58885 0.0
C89 C 0.23015 0.24502 0.58598 0.0
C90 C 0.16239 0.27772 0.57913 0.0
C91 C 0.23811 0.30179 0.55693 0.0
C92 C 0.30488 0.26957 0.56379 0.0
N93 N 0.29971 0.2423 0.57819 0.0
N94 N 0.16875 0.30514 0.56473 0.0
H95 H 0.22824 0.22074 0.59725 0.0
C96 C 0.40969 0.55559 0.59212 0.0
O97 O 0.33679 0.52884 0.59192 0.0
O98 O 0.38651 0.07937 0.58451 0.0
H99 H 0.36009 0.26628 0.55761 0.0
H100 H 0.6602 0.44621 0.63922 0.0
H101 H 0.24123 0.32392 0.54549 0.0
Zn102 Zn 0.78893 0.25431 0.84042 0.0
C103 C 0.93234 0.12572 0.81504 0.0
N104 N 0.86729 0.10889 0.80699 0.0
C105 C 0.80834 0.13612 0.81589 0.0
N106 N 0.83567 0.16965 0.82865 0.0
N107 N 0.91355 0.16062 0.82837 0.0
C108 C 0.14516 0.21724 0.84367 0.0
O109 O 0.11882 0.28899 0.84675 0.0
O110 O 0.66875 0.26004 0.83837 0.0
Zn111 Zn 0.97655 0.16833 0.84674 0.0
N112 N 0.83091 0.35175 0.8319 0.0
C113 C 0.886 0.41669 0.81049 0.0
C114 C 0.85756 0.3487 0.81738 0.0
C115 C 0.83275 0.42069 0.83994 0.0
N116 N 0.88714 0.48541 0.81841 0.0
C117 C 0.86165 0.48982 0.83301 0.0
O118 O 0.94904 0.26241 0.86064 0.0
C119 C 0.88505 0.26717 0.86841 0.0
O120 O 0.81827 0.24981 0.86265 0.0
H121 H 0.85662 0.29402 0.81108 0.0
H122 H 0.81066 0.42171 0.85144 0.0
C123 C 0.93355 1.00599 0.8514 0.0
C124 C 0.91482 0.93835 0.85997 0.0
C125 C 0.93627 0.01282 0.8824 0.0
C126 C 0.9548 0.07916 0.87383 0.0
N127 N 0.95211 0.07481 0.85852 0.0
N128 N 0.9169 0.94438 0.87531 0.0
H129 H 0.93534 1.00437 0.83922 0.0
C130 C 0.62017 0.20443 0.84097 0.0
O131 O 0.64753 0.13498 0.84523 0.0
O132 O 0.09594 0.16071 0.84279 0.0
H133 H 0.97172 0.13353 0.87934 0.0
H134 H 0.90696 0.41497 0.79892 0.0
H135 H 0.93777 0.01549 0.8946 0.0
Zn136 Zn 0.89533 0.39214 0.98639 0.0
C137 C 0.02934 0.24666 1.01077 0.0
N138 N 0.0405 0.30823 1.02007 0.0
C139 C 1.0075 0.36933 1.01262 0.0
N140 N 0.97749 0.34607 0.99912 0.0
N141 N 0.99301 0.26926 0.99794 0.0
C142 C 0.93085 0.03616 0.98198 0.0
O143 O 0.86364 0.06111 0.97617 0.0
O144 O 0.89034 0.51345 0.98628 0.0
Zn145 Zn 0.98101 0.20409 0.9798 0.0
N146 N 0.79595 0.35137 0.99466 0.0
C147 C 0.73097 0.29175 1.01561 0.0
C148 C 0.79866 0.32234 1.00898 0.0
C149 C 0.72742 0.34949 0.98657 0.0
N150 N 0.66288 0.29043 1.00764 0.0
C151 C 0.65808 0.31802 0.99323 0.0
O152 O 0.88513 0.23033 0.9667 0.0
C153 C 0.88404 0.29261 0.95863 0.0
O154 O 0.90387 0.35907 0.96421 0.0
H155 H 0.85284 0.32282 1.01534 0.0
H156 H 0.72819 0.37107 0.97511 0.0
C157 C 0.14479 0.23384 0.97421 0.0
C158 C 0.21394 0.24317 0.96545 0.0
C159 C 0.13703 0.2299 0.94325 0.0
C160 C 0.06927 0.21786 0.95203 0.0
N161 N 0.07415 0.22158 0.96733 0.0
N162 N 0.20768 0.24194 0.95013 0.0
H163 H 0.14678 0.23572 0.9864 0.0
C164 C 0.94721 0.5624 0.98708 0.0
O165 O 0.02023 0.53562 0.98845 0.0
O166 O 0.98544 0.08591 0.98455 0.0
H167 H 0.01357 0.20474 0.94668 0.0
H168 H 0.73241 0.26891 1.027 0.0
H169 H 0.1338 0.22814 0.93105 0.0
Zn170 Zn 0.01882 0.70097 0.22976 0.0
C171 C 0.18706 0.67483 0.26204 0.0
N172 N 0.12753 0.63758 0.26911 0.0
C173 C 0.06553 0.65029 0.26005 0.0
N174 N 0.08638 0.69172 0.24769 0.0
N175 N 0.16272 0.7096 0.24905 0.0
C176 C 0.37908 0.72187 0.2368 0.0
O177 O 0.33978 0.6555 0.23534 0.0
O178 O 0.8963 0.7091 0.23434 0.0
Zn179 Zn 0.21459 0.79405 0.23731 0.0
N180 N 0.03365 0.6043 0.21747 0.0
C181 C 0.02965 0.5543 0.19234 0.0
C182 C 0.02153 0.61665 0.20251 0.0
C183 C 0.05255 0.5303 0.22276 0.0
N184 N 0.04804 0.48109 0.19752 0.0
C185 C 0.05964 0.46595 0.21245 0.0
O186 O 0.1829 0.78881 0.21511 0.0
C187 C 0.11617 0.79752 0.20858 0.0
O188 O 0.05076 0.79242 0.21585 0.0
H189 H 1.00495 0.67477 0.19849 0.0
H190 H 0.0599 0.52166 0.23476 0.0
C191 C 0.18106 0.9696 0.23955 0.0
C192 C 0.154 0.03758 0.2476 0.0
C193 C 0.11704 0.95555 0.26811 0.0
C194 C 0.14341 0.88909 0.26021 0.0
N195 N 0.17652 0.89648 0.24621 0.0
N196 N 0.12331 0.02778 0.2617 0.0
H197 H 0.20642 0.97503 0.22835 0.0
C198 C 0.85603 0.77342 0.23333 0.0
O199 O 0.89382 0.83885 0.23003 0.0
O200 O 0.33954 0.78671 0.23784 0.0
H201 H 0.13827 0.83194 0.26546 0.0
H202 H 0.02052 0.56374 0.1804 0.0
H203 H 0.09178 0.94982 0.27931 0.0
Zn204 Zn 0.54149 0.89924 0.48081 0.0
C205 C 0.51197 0.72326 0.51193 0.0
N206 N 0.47663 0.78207 0.51966 0.0
C207 C 0.4895 0.84612 0.51116 0.0
N208 N 0.52951 0.82736 0.4983 0.0
N209 N 0.5454 0.74995 0.49893 0.0
C210 C 0.66283 0.52077 0.48314 0.0
O211 O 0.73122 0.54524 0.47782 0.0
O212 O 0.58565 0.01088 0.48589 0.0
Zn213 Zn 0.62785 0.69514 0.48705 0.0
N214 N 0.43604 0.91952 0.47333 0.0
C215 C 0.35078 0.99345 0.45728 0.0
C216 C 0.42596 0.97865 0.46315 0.0
C217 C 0.37427 0.87394 0.47779 0.0
N218 N 0.28861 0.94921 0.462 0.0
C219 C 0.29788 0.88984 0.47224 0.0
O220 O 0.63266 0.72625 0.465 0.0
C221 C 0.62151 0.78667 0.45668 0.0
O222 O 0.59307 0.85122 0.46198 0.0
H223 H 0.47611 0.01351 0.45956 0.0
H224 H 0.38502 0.82565 0.48549 0.0
C225 C 0.79765 0.72584 0.48832 0.0
C226 C 0.86714 0.75362 0.49525 0.0
C227 C 0.79332 0.78242 0.51753 0.0
C228 C 0.72462 0.75729 0.51051 0.0
N229 N 0.72797 0.7273 0.49621 0.0
N230 N 0.86259 0.78029 0.50976 0.0
H231 H 0.79847 0.70415 0.47681 0.0
C232 C 0.63285 0.046 0.47687 0.0
O233 O 0.66016 1.00684 0.46507 0.0
O234 O 0.61124 0.57235 0.48732 0.0
H235 H 0.66911 0.7616 0.51657 0.0
H236 H 0.34171 0.04014 0.44912 0.0
H237 H 0.79147 0.80493 0.52898 0.0
Zn238 Zn 0.26009 0.17982 0.73176 0.0
C239 C 0.43001 0.15219 0.76405 0.0
N240 N 0.36977 0.11606 0.77106 0.0
C241 C 0.30869 0.12765 0.76174 0.0
N242 N 0.32986 0.16929 0.74942 0.0
N243 N 0.40671 0.1854 0.75081 0.0
C244 C 0.62888 0.21386 0.73136 0.0
O245 O 0.59334 0.1706 0.72111 0.0
O246 O 0.14074 0.2052 0.736 0.0
Zn247 Zn 0.46194 0.26713 0.73922 0.0
N248 N 0.25476 0.07619 0.72282 0.0
C249 C 0.20032 0.99351 0.70383 0.0
C250 C 0.20657 0.06745 0.7107 0.0
C251 C 0.29782 0.01438 0.72825 0.0
N252 N 0.2412 0.93103 0.70959 0.0
C253 C 0.28959 0.93895 0.72176 0.0
O254 O 0.43019 0.27393 0.71704 0.0
C255 C 0.36844 0.26803 0.70885 0.0
O256 O 0.3032 0.24154 0.71401 0.0
H257 H 0.17353 0.11773 0.70643 0.0
H258 H 0.33776 0.02419 0.73752 0.0
C259 C 0.43303 0.43548 0.74085 0.0
C260 C 0.40415 0.50577 0.74757 0.0
C261 C 0.3674 0.4333 0.7694 0.0
C262 C 0.39393 0.36383 0.76256 0.0
N263 N 0.42751 0.36615 0.74853 0.0
N264 N 0.37274 0.50227 0.76175 0.0
H265 H 0.45909 0.43525 0.72965 0.0
C266 C 0.10117 0.24733 0.74544 0.0
O267 O 0.1393 0.28978 0.75545 0.0
O268 O 0.58623 0.25767 0.73999 0.0
H269 H 0.38788 0.30865 0.76851 0.0
H270 H 0.16241 0.98549 0.69415 0.0
H271 H 0.34154 0.43238 0.78061 0.0
H272 H 0.21033 0.7294 0.18709 0.0
H273 H 0.0153 0.89369 0.19299 0.0
H274 H 0.00808 0.91233 0.16561 0.0
H275 H 0.05477 0.87895 0.1399 0.0
H276 H 0.23984 0.70371 0.13382 0.0
H277 H 0.2538 0.69226 0.16127 0.0
C278 C 0.16693 0.76997 0.18235 0.0
C279 C 0.11422 0.81115 0.19204 0.0
C280 C 0.16128 0.77811 0.16656 0.0
C281 C 0.05681 0.86182 0.18576 0.0
C282 C 0.05267 0.87241 0.17011 0.0
C283 C 0.09878 0.83895 0.14461 0.0
C284 C 0.14707 0.79302 0.13486 0.0
C285 C 0.10433 0.8306 0.16039 0.0
C286 C 0.20232 0.73989 0.1411 0.0
C287 C 0.21025 0.73336 0.15679 0.0
H288 H 0.71084 0.70146 0.38897 0.0
H289 H 0.52542 0.87316 0.38047 0.0
H290 H 0.51151 0.89787 0.40761 0.0
H291 H 0.54871 0.86726 0.43389 0.0
H292 H 0.72755 0.6887 0.44233 0.0
H293 H 0.74763 0.67059 0.41516 0.0
C294 C 0.66776 0.74477 0.39303 0.0
C295 C 0.6194 0.78556 0.38264 0.0
C296 C 0.65883 0.75741 0.40869 0.0
C297 C 0.56323 0.8407 0.38817 0.0
C298 C 0.55533 0.85497 0.40371 0.0
C299 C 0.5927 0.82501 0.42978 0.0
C300 C 0.6369 0.7797 0.44016 0.0
C301 C 0.60239 0.81326 0.41409 0.0
C302 C 0.69271 0.72428 0.43462 0.0
C303 C 0.70419 0.71386 0.41906 0.0
H304 H 0.44356 0.37036 0.64167 0.0
H305 H 0.28444 0.17833 0.63228 0.0
H306 H 0.26105 0.16072 0.6594 0.0
H307 H 0.29103 0.1958 0.68583 0.0
H308 H 0.46035 0.37927 0.69508 0.0
H309 H 0.47469 0.40448 0.66798 0.0
C310 C 0.40308 0.32524 0.64553 0.0
C311 C 0.36533 0.27613 0.63492 0.0
C312 C 0.3922 0.31369 0.66114 0.0
C313 C 0.31414 0.21697 0.64018 0.0
C314 C 0.30084 0.20688 0.65569 0.0
C315 C 0.3304 0.24193 0.68191 0.0
C316 C 0.37414 0.28612 0.69248 0.0
C317 C 0.34025 0.2543 0.66628 0.0
C318 C 0.42607 0.34454 0.6872 0.0
C319 C 0.43422 0.35895 0.67171 0.0
H320 H 0.9565 0.37137 0.93571 0.0
H321 H 0.77933 0.1951 0.94472 0.0
H322 H 0.75975 0.17606 0.91757 0.0
H323 H 0.79734 0.20518 0.89122 0.0
H324 H 0.98459 0.37081 0.88225 0.0
H325 H 0.99608 0.39851 0.90933 0.0
C326 C 0.91279 0.32968 0.9317 0.0
C327 C 0.86859 0.28543 0.9422 0.0
C328 C 0.90417 0.3168 0.91606 0.0
C329 C 0.81372 0.23007 0.93686 0.0
C330 C 0.80264 0.21911 0.92134 0.0
C331 C 0.83995 0.24806 0.89521 0.0
C332 C 0.88944 0.28664 0.88474 0.0
C333 C 0.84807 0.26155 0.91083 0.0
C334 C 0.94574 0.34058 0.89008 0.0
C335 C 0.95227 0.35641 0.90556 0.0
H336 H 0.10325 0.43622 1.03272 0.0
H337 H 0.87391 0.46568 1.01228 0.0
H338 H 0.84781 0.58252 1.02791 0.0
H339 H 0.8918 0.67731 0.04749 0.0
H340 H 0.11975 0.6431 0.06835 0.0
H341 H 0.14291 0.52402 0.05324 0.0
C342 C 0.04772 0.46865 1.03159 0.0
C343 C 0.99225 0.44468 1.02073 0.0
C344 C 0.03171 0.53292 0.0412 0.0
C345 C 0.91967 0.48561 1.01978 0.0
C346 C 0.90397 0.55138 1.02903 0.0
C347 C 0.94536 0.64216 0.049 0.0
C348 C 1.00249 0.6667 0.05949 0.0
C349 C 0.95958 0.57546 0.03981 0.0
C350 C 0.07314 0.62289 0.06095 0.0
C351 C 0.08723 0.55594 0.05204 0.0
H352 H 0.75787 0.73544 0.29638 0.0
H353 H 0.7924 0.49817 0.31278 0.0
H354 H 0.90822 0.48088 0.29607 0.0
H355 H 0.99887 0.53459 0.27664 0.0
H356 H 0.95981 0.7709 0.25991 0.0
H357 H 0.84375 0.78639 0.27629 0.0
C358 C 0.79222 0.68073 0.2965 0.0
C359 C 0.76959 0.61925 0.30615 0.0
C360 C 0.85541 0.67015 0.28635 0.0
C361 C 0.81112 0.54702 0.30578 0.0
C362 C 0.87633 0.5369 0.29609 0.0
C363 C 0.96319 0.58835 0.27629 0.0
C364 C 0.98532 0.65016 0.26659 0.0
C365 C 0.89837 0.59782 0.28619 0.0
C366 C 0.94104 0.72092 0.26664 0.0
C367 C 0.87607 0.73059 0.27631 0.0
H368 H 0.62974 0.42098 0.5474 0.0
H369 H 0.39707 0.44751 0.56716 0.0
H370 H 0.37151 0.56415 0.55159 0.0
H371 H 0.41246 0.6526 0.53115 0.0
H372 H 0.64541 0.62559 0.51149 0.0
H373 H 0.67206 0.51229 0.52738 0.0
C374 C 0.57448 0.454 0.54857 0.0
C375 C 0.5169 0.42877 0.55896 0.0
C376 C 0.55882 0.5182 0.53901 0.0
C377 C 0.44407 0.46932 0.55994 0.0
C378 C 0.42866 0.53445 0.55072 0.0
C379 C 0.46884 0.62133 0.5302 0.0
C380 C 0.52575 0.6464 0.51957 0.0
C381 C 0.48507 0.55832 0.54 0.0
C382 C 0.5989 0.60625 0.51885 0.0
C383 C 0.61496 0.54206 0.52827 0.0
H384 H 0.74158 0.24921 0.79858 0.0
H385 H 0.6984 0.02421 0.81966 0.0
H386 H 0.57839 1.00781 0.80458 0.0
H387 H 0.49364 0.05225 0.78396 0.0
H388 H 0.52972 0.28197 0.76435 0.0
H389 H 0.6471 0.30066 0.77973 0.0
C390 C 0.70417 0.19812 0.80023 0.0
C391 C 0.72682 0.13893 0.81046 0.0
C392 C 0.63664 0.18837 0.79127 0.0
C393 C 0.68011 0.07138 0.81214 0.0
C394 C 0.61252 0.06148 0.80336 0.0
C395 C 0.52745 0.10636 0.78295 0.0
C396 C 0.50539 0.16373 0.77223 0.0
C397 C 0.59171 0.11857 0.79258 0.0
C398 C 0.54828 0.23434 0.77153 0.0
C399 C 0.61434 0.24599 0.78071 0.0
H400 H 0.98818 0.03219 0.79247 0.0
H401 H 0.04301 0.23863 0.81898 0.0
H402 H 0.16219 0.26034 0.80383 0.0
H403 H 0.24915 0.22177 0.78282 0.0
H404 H 0.19291 0.01999 0.7552 0.0
H405 H 0.07252 0.99745 0.77039 0.0
C406 C 0.02729 0.08094 0.79507 0.0
C407 C 0.00999 0.13091 0.80745 0.0
C408 C 0.09296 0.09565 0.78569 0.0
C409 C 0.05869 0.19599 0.81029 0.0
C410 C 0.12532 0.20978 0.80132 0.0
C411 C 0.20929 0.17393 0.77996 0.0
C412 C 0.22802 0.1235 0.76781 0.0
C413 C 0.14255 0.16033 0.78897 0.0
C414 C 0.17783 0.06064 0.76427 0.0
C415 C 0.11007 0.04716 0.77311 0.0
H416 H 0.49444 0.76766 0.29791 0.0
H417 H 0.46785 0.5277 0.3133 0.0
H418 H 0.34908 0.51342 0.29787 0.0
H419 H 0.25841 0.56651 0.27902 0.0
H420 H 0.28213 0.80718 0.26388 0.0
H421 H 0.39873 0.82357 0.2798 0.0
C422 C 0.46142 0.71327 0.29825 0.0
C423 C 0.48827 0.64949 0.30705 0.0
C424 C 0.39474 0.70486 0.28898 0.0
C425 C 0.44648 0.57817 0.30693 0.0
C426 C 0.37957 0.56962 0.29793 0.0
C427 C 0.2896 0.62244 0.27909 0.0
C428 C 0.2634 0.6847 0.26984 0.0
C429 C 0.35434 0.63202 0.28869 0.0
C430 C 0.30299 0.75728 0.27034 0.0
C431 C 0.36883 0.76706 0.27969 0.0
H432 H 0.46038 0.19696 0.53583 0.0
H433 H 0.55335 0.08255 0.57545 0.0
H434 H 0.55121 0.95433 0.56242 0.0
H435 H 0.52971 0.87768 0.53952 0.0
H436 H 0.44202 0.99098 0.4993 0.0
H437 H 0.43781 0.11855 0.51262 0.0
C438 C 0.4792 0.14355 0.54163 0.0
C439 C 0.50401 0.14781 0.55677 0.0
C440 C 0.48051 0.07108 0.53384 0.0
C441 C 0.53044 0.07934 0.56407 0.0
C442 C 0.53049 1.00667 0.55653 0.0
C443 C 0.50903 0.93014 0.53364 0.0
C444 C 0.48674 0.92509 0.51836 0.0
C445 C 0.50632 1.00222 0.5414 0.0
C446 C 0.46098 0.99355 0.5109 0.0
C447 C 0.45788 0.06623 0.51859 0.0
H448 H 0.92449 0.93854 0.04378 0.0
H449 H 0.15453 0.96321 0.06399 0.0
H450 H 0.18062 0.07917 0.04837 0.0
H451 H 0.13653 0.17433 1.02882 0.0
H452 H 0.90669 0.14624 1.00857 0.0
H453 H 0.88366 0.02796 1.02362 0.0
C454 C 0.98015 0.96978 0.04486 0.0
C455 C 0.03606 0.94458 0.05556 0.0
C456 C 0.99585 0.03383 1.03535 0.0
C457 C 0.10872 0.98399 0.05651 0.0
C458 C 0.12431 0.0493 0.0473 0.0
C459 C 0.08253 0.1407 1.02745 0.0
C460 C 0.02497 0.16647 1.01709 0.0
C461 C 0.06832 0.07458 1.03663 0.0
C462 C 0.95365 0.12486 1.01585 0.0
C463 C 0.93967 0.05838 1.02471 0.0
H464 H 0.51367 0.86448 0.07345 0.0
H465 H 0.39651 0.79671 0.1148 0.0
H466 H 0.52537 0.77936 0.12704 0.0
H467 H 0.67077 0.77128 0.12511 0.0
H468 H 0.78657 0.84445 0.08377 0.0
H469 H 0.65864 0.87082 0.07244 0.0
C470 C 0.51641 0.84684 0.08521 0.0
C471 C 0.44593 0.8316 0.0932 0.0
C472 C 0.59038 0.83647 0.0921 0.0
C473 C 0.45 0.80956 0.10846 0.0
C474 C 0.52366 0.79892 0.11541 0.0
C475 C 0.66846 0.79373 0.11366 0.0
C476 C 0.73907 0.80248 0.10521 0.0
C477 C 0.59425 0.8104 0.10721 0.0
C478 C 0.73406 0.8331 0.09046 0.0
C479 C 0.66055 0.84935 0.08396 0.0
H480 H 0.60743 0.15533 0.31388 0.0
H481 H 0.6551 0.03565 0.35588 0.0
H482 H 0.69439 0.16086 0.36737 0.0
H483 H 0.72732 0.30208 0.3647 0.0
H484 H 0.68217 0.41917 0.32224 0.0
H485 H 0.62976 0.29762 0.31186 0.0
C486 C 0.62547 0.15678 0.32562 0.0
C487 C 0.6283 0.08618 0.33397 0.0
C488 C 0.64922 0.22858 0.33207 0.0
C489 C 0.65122 0.08913 0.34921 0.0
C490 C 0.67459 0.16068 0.35575 0.0
C491 C 0.70545 0.30119 0.35321 0.0
C492 C 0.70901 0.37022 0.34435 0.0
C493 C 0.67571 0.23041 0.34717 0.0
C494 C 0.67967 0.36791 0.3295 0.0
C495 C 0.64999 0.29793 0.32345 0.0
H496 H 0.85917 0.32472 0.62038 0.0
H497 H 0.74997 0.3386 0.57634 0.0
H498 H 0.8758 0.3075 0.56442 0.0
H499 H 0.01839 0.28579 0.56613 0.0
H500 H 0.13086 0.28482 0.60987 0.0
H501 H 1.00225 0.30127 0.6221 0.0
C502 C 0.8625 0.3206 0.60817 0.0
C503 C 0.79403 0.33311 0.59944 0.0
C504 C 0.93604 0.30539 0.60123 0.0
C505 C 0.80013 0.32731 0.58358 0.0
C506 C 0.87278 0.31043 0.57664 0.0
C507 C 0.01506 0.289 0.57835 0.0
C508 C 0.08459 0.28331 0.58698 0.0
C509 C 0.9412 0.30072 0.58534 0.0
C510 C 0.07869 0.28714 0.60284 0.0
C511 C 1.00498 0.2974 0.60989 0.0
H512 H 0.92207 0.7929 0.87304 0.0
H513 H 0.86038 0.90718 0.83101 0.0
H514 H 0.83759 0.77915 0.81947 0.0
H515 H 0.83888 0.63436 0.82084 0.0
H516 H 0.89553 0.51912 0.86289 0.0
H517 H 0.91426 0.64808 0.87492 0.0
C518 C 0.90318 0.79024 0.86137 0.0
C519 C 0.89569 0.86051 0.85289 0.0
C520 C 0.88845 0.71601 0.85479 0.0
C521 C 0.87015 0.85498 0.8378 0.0
C522 C 0.856 0.78139 0.83117 0.0
C523 C 0.85492 0.63743 0.83268 0.0
C524 C 0.86565 0.56717 0.84094 0.0
C525 C 0.86596 0.71159 0.83948 0.0
C526 C 0.88574 0.57216 0.8563 0.0
C527 C 0.89717 0.64595 0.86315 0.0
H528 H 0.34029 0.32631 0.95496 0.0
H529 H 0.26683 0.17419 0.99149 0.0
H530 H 0.39716 0.18429 1.00282 0.0
H531 H 0.53101 0.23414 1.00239 0.0
H532 H 0.60677 0.38941 0.96641 0.0
H533 H 0.47708 0.37825 0.95474 0.0
C534 C 0.3529 0.29551 0.96542 0.0
C535 C 0.29312 0.25086 0.97248 0.0
C536 C 0.4286 0.30121 0.97191 0.0
C537 C 0.31054 0.21095 0.98599 0.0
C538 C 0.38552 0.21595 0.99242 0.0
C539 C 0.51993 0.26618 0.99201 0.0
C540 C 0.58014 0.31216 0.98538 0.0
C541 C 0.44479 0.26094 0.98549 0.0
C542 C 0.56326 0.35236 0.97183 0.0
C543 C 0.48839 0.34657 0.96514 0.0
H544 H 0.09855 0.09337 0.22057 0.0
H545 H 0.20945 0.16719 0.26191 0.0
H546 H 0.19144 0.30614 0.25499 0.0
H547 H 0.13724 0.40762 0.23784 0.0
H548 H 0.02105 0.33272 0.19693 0.0
H549 H 0.04808 0.19506 0.20302 0.0
C550 C 0.12054 0.13993 0.22785 0.0
C551 C 0.15634 0.11982 0.24163 0.0
C552 C 0.10773 0.22023 0.22401 0.0
C553 C 0.18245 0.18106 0.25115 0.0
C554 C 0.17157 0.26068 0.24726 0.0
C555 C 0.11703 0.36149 0.2303 0.0
C556 C 0.07628 0.3818 0.21697 0.0
C557 C 0.13266 0.28123 0.23386 0.0
C558 C 0.0526 0.31997 0.20727 0.0
C559 C 0.06803 0.24061 0.21072 0.0
H560 H 0.16113 0.86271 0.45709 0.0
H561 H 0.27425 0.82194 0.50008 0.0
H562 H 0.15354 0.76385 0.50987 0.0
H563 H 0.01214 0.73901 0.50739 0.0
H564 H 0.89455 0.78768 0.46523 0.0
H565 H 0.02084 0.82655 0.45392 0.0
C566 C 0.15961 0.84035 0.46855 0.0
C567 C 0.22721 0.84655 0.47773 0.0
C568 C 0.08901 0.80845 0.47431 0.0
C569 C 0.22422 0.81682 0.49256 0.0
C570 C 0.15469 0.78411 0.49827 0.0
C571 C 0.01429 0.75695 0.49564 0.0
C572 C 0.94398 0.76076 0.48722 0.0
C573 C 0.08634 0.78155 0.48938 0.0
C574 C 0.9478 0.78327 0.47196 0.0
C575 C 0.01993 0.80651 0.46553 0.0
H576 H 0.40955 0.65048 0.76023 0.0
H577 H 0.39024 0.53381 0.71695 0.0
H578 H 0.36254 0.66066 0.70494 0.0
H579 H 0.3275 0.80181 0.70729 0.0
H580 H 0.33534 0.91391 0.75124 0.0
H581 H 0.38425 0.79215 0.76226 0.0
C582 C 0.40022 0.65279 0.74812 0.0
C583 C 0.40172 0.58257 0.73957 0.0
C584 C 0.38157 0.72529 0.74138 0.0
C585 C 0.39051 0.58678 0.72386 0.0
C586 C 0.37366 0.65935 0.71698 0.0
C587 C 0.34066 0.79988 0.71925 0.0
C588 C 0.32808 0.86764 0.72829 0.0
C589 C 0.36651 0.72852 0.72572 0.0
C590 C 0.34589 0.86395 0.7438 0.0
C591 C 0.37316 0.79372 0.75022 0.0
H592 H 0.19664 0.41561 0.09822 0.0
H593 H 0.95615 0.46962 0.08502 0.0
H594 H 0.92998 0.32868 0.08167 0.0
H595 H 0.97374 0.18916 0.08347 0.0
H596 H 0.21513 0.1362 0.09627 0.0
H597 H 0.24227 0.27716 0.09873 0.0
C598 C 0.13852 0.39672 0.09456 0.0
C599 C 0.07828 0.45343 0.09206 0.0
C600 C 0.12379 0.31541 0.09263 0.0
C601 C 1.00357 0.42751 0.08717 0.0
C602 C 0.98846 0.34674 0.08525 0.0
C603 C 0.03232 0.20842 0.08678 0.0
C604 C 0.09199 0.15178 0.08982 0.0
C605 C 0.04782 0.29002 0.08813 0.0
C606 C 0.16785 0.17815 0.09391 0.0
C607 C 0.18351 0.25894 0.09534 0.0
H608 H 0.04437 0.6373 0.32292 0.0
H609 H 0.95037 0.85754 0.34061 0.0
H610 H 0.08456 0.91158 0.34159 0.0
H611 H 0.22995 0.89245 0.33915 0.0
H612 H 0.32158 0.66886 0.32259 0.0
H613 H 0.18734 0.62056 0.31931 0.0
C614 C 0.05288 0.6974 0.3269 0.0
C615 C 0.98718 0.74292 0.33184 0.0
C616 C 0.13017 0.72748 0.3277 0.0
C617 C 0.99972 0.82096 0.3368 0.0
C618 C 0.07658 0.85182 0.33742 0.0
C619 C 0.22054 0.83335 0.33474 0.0
C620 C 0.2863 0.7844 0.33114 0.0
C621 C 0.14251 0.80502 0.33319 0.0
C622 C 0.27257 0.70799 0.32542 0.0
C623 C 0.19557 0.6801 0.32359 0.0
H624 H 0.31405 0.67564 0.58183 0.0
H625 H 0.54163 0.62943 0.60224 0.0
H626 H 0.56657 0.77099 0.60389 0.0
H627 H 0.52186 0.90846 0.60062 0.0
H628 H 0.29796 0.95646 0.57905 0.0
H629 H 0.27385 0.81432 0.57668 0.0
C630 C 0.36912 0.69668 0.58659 0.0
C631 C 0.42541 0.64189 0.59205 0.0
C632 C 0.38379 0.77866 0.58734 0.0
C633 C 0.49711 0.67012 0.59796 0.0
C634 C 0.51145 0.75122 0.59897 0.0
C635 C 0.46784 0.88781 0.59538 0.0
C636 C 0.41132 0.94298 0.59022 0.0
C637 C 0.45487 0.80606 0.59387 0.0
C638 C 0.34233 0.91523 0.58318 0.0
C639 C 0.32839 0.83391 0.58186 0.0
H640 H 0.50136 0.09569 0.84063 0.0
H641 H 0.54351 0.34711 0.83887 0.0
H642 H 0.40084 0.37317 0.83896 0.0
H643 H 0.26381 0.32516 0.84089 0.0
H644 H 0.22126 0.07371 0.84206 0.0
H645 H 0.36384 0.04735 0.84077 0.0
C646 C 0.47934 0.15618 0.84023 0.0
C647 C 0.53331 0.21931 0.83994 0.0
C648 C 0.39692 0.17088 0.84023 0.0
C649 C 0.50355 0.29729 0.83917 0.0
C650 C 0.42181 0.31234 0.83926 0.0
C651 C 0.28563 0.26455 0.84081 0.0
C652 C 0.23165 0.20161 0.84176 0.0
C653 C 0.36791 0.24969 0.84001 0.0
C654 C 0.26122 0.12343 0.84142 0.0
C655 C 0.34292 0.10823 0.84071 0.0
H656 H 0.82746 0.91488 0.97781 0.0
H657 H 0.06497 0.96419 0.99289 0.0
H658 H 0.0906 0.82268 0.99611 0.0
H659 H 0.0475 0.68401 0.99363 0.0
H660 H 0.80894 0.63571 0.97902 0.0
H661 H 0.78208 0.77728 0.97669 0.0
C662 C 0.88478 0.89485 0.98186 0.0
C663 C 0.94442 0.95039 0.98491 0.0
C664 C 0.8992 0.81323 0.98371 0.0
C665 C 0.01807 0.92299 0.9903 0.0
C666 C 0.03287 0.8419 0.99215 0.0
C667 C 0.98961 0.70444 0.98995 0.0
C668 C 0.93066 0.64896 0.98636 0.0
C669 C 0.97425 0.78634 0.9887 0.0
C670 C 0.85562 0.67678 0.98181 0.0
C671 C 0.84015 0.7579 0.98045 0.0
H672 H 0.48453 0.84637 0.23692 0.0
H673 H 0.4758 0.59127 0.23783 0.0
H674 H 0.62029 0.5838 0.2376 0.0
H675 H 0.75121 0.64903 0.23614 0.0
H676 H 0.75965 0.9041 0.23478 0.0
H677 H 0.61538 0.91165 0.23626 0.0
C678 C 0.51412 0.78912 0.23713 0.0
C679 C 0.46827 0.71958 0.23728 0.0
C680 C 0.59824 0.78493 0.23688 0.0
C681 C 0.50861 0.64606 0.23759 0.0
C682 C 0.59178 0.64157 0.23748 0.0
C683 C 0.72162 0.7063 0.23627 0.0
C684 C 0.7673 0.77579 0.23526 0.0
C685 C 0.63752 0.71051 0.23696 0.0
C686 C 0.72696 0.84933 0.23544 0.0
C687 C 0.64391 0.85387 0.23629 0.0
H688 H 0.7522 0.39898 0.47174 0.0
H689 H 0.53788 0.44601 0.49721 0.0
H690 H 0.5122 0.30353 0.49866 0.0
H691 H 0.54827 0.16437 0.49169 0.0
H692 H 0.76103 0.12131 0.46546 0.0
H693 H 0.78965 0.26238 0.46547 0.0
C694 C 0.69984 0.37837 0.47766 0.0
C695 C 0.64688 0.43383 0.48426 0.0
C696 C 0.68511 0.29637 0.47834 0.0
C697 C 0.57946 0.4052 0.49188 0.0
C698 C 0.56482 0.32346 0.49275 0.0
C699 C 0.60142 0.18584 0.48617 0.0
C700 C 0.6525 0.1317 0.4786 0.0
C701 C 0.61693 0.26825 0.48591 0.0
C702 C 0.72053 0.16111 0.47134 0.0
C703 C 0.73696 0.24209 0.47131 0.0
H704 H 0.72561 0.28689 0.75228 0.0
H705 H 0.73352 0.13609 0.71283 0.0
H706 H 0.87779 0.13245 0.71377 0.0
H707 H 1.00316 0.17275 0.72542 0.0
H708 H 0.99754 0.32258 0.76496 0.0
H709 H 0.85245 0.32527 0.76437 0.0
C710 C 0.75883 0.2532 0.74389 0.0
C711 C 0.71774 0.21206 0.73246 0.0
C712 C 0.84292 0.25107 0.74448 0.0
C713 C 0.76259 0.1685 0.72177 0.0
C714 C 0.8456 0.16634 0.72227 0.0
C715 C 0.97043 0.20611 0.73393 0.0
C716 C 0.01211 0.24791 0.74515 0.0
C717 C 0.88657 0.20754 0.73352 0.0
C718 C 0.96779 0.29029 0.75609 0.0
C719 C 0.88442 0.29183 0.75578 0.0
loop_
_geom_bond_atom_site_label_1
_geom_bond_atom_site_label_2
_geom_bond_distance
_geom_bond_site_symmetry_2
_ccdc_geom_bond_type
Zn0 N4 2.020 . S
Zn0 O8 2.019 . S
Zn0 N10 2.119 . S
Zn0 O18 1.975 . S
C1 N2 1.334 1_655 S
C1 N5 1.336 . S
N2 C1 1.334 1_455 S
N2 C3 1.334 . S
C3 N2 1.334 . S
C3 N4 1.336 . S
N4 Zn0 2.020 . S
N4 C3 1.336 . S
N4 N5 1.354 1_455 S
N5 C1 1.336 . S
N5 N4 1.354 1_655 S
N5 Zn9 2.020 . S
C6 O7 1.244 1_655 S
C6 O30 1.257 . S
O7 C6 1.244 1_455 S
O8 Zn0 2.019 . S
O8 C28 1.257 . S
Zn9 N5 2.020 . S
Zn9 O16 1.975 . S
Zn9 N25 2.119 . S
Zn9 O30 2.019 . S
N10 Zn0 2.119 . S
N10 C12 1.334 . S
N10 C13 1.328 . S
C11 C12 1.391 . S
C11 N14 1.329 . S
C11 H32 0.930 . S
C12 N10 1.334 . S
C12 C11 1.391 . S
C12 H19 0.930 . S
C13 N10 1.328 . S
C13 C15 1.392 . S
C13 H20 0.930 . S
N14 C11 1.329 . S
N14 C15 1.331 . S
C15 C13 1.392 . S
C15 N14 1.331 . S
O16 Zn9 1.975 . S
O16 C17 1.252 1_655 S
C17 O16 1.252 1_455 S
C17 O18 1.252 . S
O18 Zn0 1.975 . S
O18 C17 1.252 . S
H19 C12 0.930 . S
H20 C13 0.930 . S
C21 C22 1.392 . S
C21 N25 1.328 . S
C21 H27 0.930 . S
C22 C21 1.392 . S
C22 N26 1.331 . S
C23 C24 1.391 . S
C23 N26 1.329 . S
C23 H33 0.930 . S
C24 C23 1.391 . S
C24 N25 1.334 . S
C24 H31 0.930 . S
N25 Zn9 2.119 . S
N25 C21 1.328 . S
N25 C24 1.334 . S
N26 C22 1.331 . S
N26 C23 1.329 . S
H27 C21 0.930 . S
C28 O8 1.257 . S
C28 O29 1.244 1_455 S
O29 C28 1.244 1_655 S
O30 C6 1.257 . S
O30 Zn9 2.019 . S
H31 C24 0.930 . S
H32 C11 0.930 . S
H33 C23 0.930 . S
Zn34 N38 2.020 . S
Zn34 O42 2.019 . S
Zn34 N44 2.119 . S
Zn34 O52 1.975 . S
C35 N36 1.334 . S
C35 N39 1.336 . S
N36 C35 1.334 . S
N36 C37 1.334 . S
C37 N36 1.334 . S
C37 N38 1.336 . S
N38 Zn34 2.020 . S
N38 C37 1.336 . S
N38 N39 1.354 . S
N39 C35 1.336 . S
N39 N38 1.354 . S
N39 Zn43 2.020 . S
C40 O41 1.244 . S
C40 O64 1.257 . S
O41 C40 1.244 . S
O42 Zn34 2.019 . S
O42 C62 1.257 . S
Zn43 N39 2.020 . S
Zn43 O50 1.975 . S
Zn43 N59 2.119 . S
Zn43 O64 2.019 . S
N44 Zn34 2.119 . S
N44 C46 1.334 . S
N44 C47 1.328 . S
C45 C46 1.391 1_545 S
C45 N48 1.329 . S
C45 H66 0.930 . S
C46 N44 1.334 . S
C46 C45 1.391 1_565 S
C46 H53 0.930 . S
C47 N44 1.328 . S
C47 C49 1.392 1_565 S
C47 H54 0.930 . S
N48 C45 1.329 . S
N48 C49 1.331 . S
C49 C47 1.392 1_545 S
C49 N48 1.331 . S
O50 Zn43 1.975 . S
O50 C51 1.252 . S
C51 O50 1.252 . S
C51 O52 1.252 . S
O52 Zn34 1.975 . S
O52 C51 1.252 . S
H53 C46 0.930 . S
H54 C47 0.930 . S
C55 C56 1.392 . S
C55 N59 1.328 . S
C55 H61 0.930 . S
C56 C55 1.392 . S
C56 N60 1.331 . S
C57 C58 1.391 . S
C57 N60 1.329 . S
C57 H67 0.930 . S
C58 C57 1.391 . S
C58 N59 1.334 . S
C58 H65 0.930 . S
N59 Zn43 2.119 . S
N59 C55 1.328 . S
N59 C58 1.334 . S
N60 C56 1.331 . S
N60 C57 1.329 . S
H61 C55 0.930 . S
C62 O42 1.257 . S
C62 O63 1.244 . S
O63 C62 1.244 . S
O64 C40 1.257 . S
O64 Zn43 2.019 . S
H65 C58 0.930 . S
H66 C45 0.930 . S
H67 C57 0.930 . S
Zn68 N72 2.020 . S
Zn68 O76 2.019 . S
Zn68 N78 2.119 . S
Zn68 O86 1.975 . S
C69 N70 1.334 . S
C69 N73 1.336 . S
N70 C69 1.334 . S
N70 C71 1.334 . S
C71 N70 1.334 . S
C71 N72 1.336 . S
N72 Zn68 2.020 . S
N72 C71 1.336 . S
N72 N73 1.354 . S
N73 C69 1.336 . S
N73 N72 1.354 . S
N73 Zn77 2.020 . S
C74 O75 1.244 . S
C74 O98 1.257 . S
O75 C74 1.244 . S
O76 Zn68 2.019 . S
O76 C96 1.257 . S
Zn77 N73 2.020 . S
Zn77 O84 1.975 . S
Zn77 N93 2.119 . S
Zn77 O98 2.019 . S
N78 Zn68 2.119 . S
N78 C80 1.334 . S
N78 C81 1.328 . S
C79 C80 1.391 . S
C79 N82 1.329 . S
C79 H100 0.930 . S
C80 N78 1.334 . S
C80 C79 1.391 . S
C80 H87 0.930 . S
C81 N78 1.328 . S
C81 C83 1.392 . S
C81 H88 0.930 . S
N82 C79 1.329 . S
N82 C83 1.331 . S
C83 C81 1.392 . S
C83 N82 1.331 . S
O84 Zn77 1.975 . S
O84 C85 1.252 . S
C85 O84 1.252 . S
C85 O86 1.252 . S
O86 Zn68 1.975 . S
O86 C85 1.252 . S
H87 C80 0.930 . S
H88 C81 0.930 . S
C89 C90 1.392 . S
C89 N93 1.328 . S
C89 H95 0.930 . S
C90 C89 1.392 . S
C90 N94 1.331 . S
C91 C92 1.391 . S
C91 N94 1.329 . S
C91 H101 0.930 . S
C92 C91 1.391 . S
C92 N93 1.334 . S
C92 H99 0.930 . S
N93 Zn77 2.119 . S
N93 C89 1.328 . S
N93 C92 1.334 . S
N94 C90 1.331 . S
N94 C91 1.329 . S
H95 C89 0.930 . S
C96 O76 1.257 . S
C96 O97 1.244 . S
O97 C96 1.244 . S
O98 C74 1.257 . S
O98 Zn77 2.019 . S
H99 C92 0.930 . S
H100 C79 0.930 . S
H101 C91 0.930 . S
Zn102 N106 2.020 . S
Zn102 O110 2.019 . S
Zn102 N112 2.119 . S
Zn102 O120 1.975 . S
C103 N104 1.334 . S
C103 N107 1.336 . S
N104 C103 1.334 . S
N104 C105 1.334 1_455 S
C105 N104 1.334 1_655 S
C105 N106 1.336 . S
N106 Zn102 2.020 . S
N106 C105 1.336 . S
N106 N107 1.354 1_655 S
N107 C103 1.336 . S
N107 N106 1.354 1_455 S
N107 Zn111 2.020 . S
C108 O109 1.244 . S
C108 O132 1.257 . S
O109 C108 1.244 . S
O110 Zn102 2.019 . S
O110 C130 1.257 . S
Zn111 N107 2.020 . S
Zn111 O118 1.975 . S
Zn111 N127 2.119 . S
Zn111 O132 2.019 . S
N112 Zn102 2.119 . S
N112 C114 1.334 1_655 S
N112 C115 1.328 . S
C113 C114 1.391 . S
C113 N116 1.329 1_455 S
C113 H134 0.930 . S
C114 N112 1.334 1_455 S
C114 C113 1.391 . S
C114 H121 0.930 . S
C115 N112 1.328 . S
C115 C117 1.392 . S
C115 H122 0.930 . S
N116 C113 1.329 1_655 S
N116 C117 1.331 . S
C117 C115 1.392 . S
C117 N116 1.331 . S
O118 Zn111 1.975 . S
O118 C119 1.252 . S
C119 O118 1.252 . S
C119 O120 1.252 1_455 S
O120 Zn102 1.975 . S
O120 C119 1.252 1_655 S
H121 C114 0.930 . S
H122 C115 0.930 . S
C123 C124 1.392 1_545 S
C123 N127 1.328 . S
C123 H129 0.930 . S
C124 C123 1.392 1_565 S
C124 N128 1.331 . S
C125 C126 1.391 1_565 S
C125 N128 1.329 1_655 S
C125 H135 0.930 . S
C126 C125 1.391 1_545 S
C126 N127 1.334 1_655 S
C126 H133 0.930 . S
N127 Zn111 2.119 . S
N127 C123 1.328 . S
N127 C126 1.334 1_455 S
N128 C124 1.331 . S
N128 C125 1.329 1_455 S
H129 C123 0.930 . S
C130 O110 1.257 . S
C130 O131 1.244 . S
O131 C130 1.244 . S
O132 C108 1.257 . S
O132 Zn111 2.019 . S
H133 C126 0.930 . S
H134 C113 0.930 . S
H135 C125 0.930 . S
Zn136 N140 2.020 . S
Zn136 O144 2.019 . S
Zn136 N146 2.119 . S
Zn136 O154 1.975 . S
C137 N138 1.334 . S
C137 N141 1.336 . S
N138 C137 1.334 . S
N138 C139 1.334 1_455 S
C139 N138 1.334 1_655 S
C139 N140 1.336 . S
N140 Zn136 2.020 . S
N140 C139 1.336 . S
N140 N141 1.354 1_655 S
N141 C137 1.336 . S
N141 N140 1.354 1_455 S
N141 Zn145 2.020 . S
C142 O143 1.244 1_455 S
C142 O166 1.257 . S
O143 C142 1.244 1_655 S
O144 Zn136 2.019 . S
O144 C164 1.257 . S
Zn145 N141 2.020 . S
Zn145 O152 1.975 . S
Zn145 N161 2.119 . S
Zn145 O166 2.019 . S
N146 Zn136 2.119 . S
N146 C148 1.334 . S
N146 C149 1.328 . S
C147 C148 1.391 . S
C147 N150 1.329 . S
C147 H168 0.930 . S
C148 N146 1.334 . S
C148 C147 1.391 . S
C148 H155 0.930 . S
C149 N146 1.328 . S
C149 C151 1.392 . S
C149 H156 0.930 . S
N150 C147 1.329 . S
N150 C151 1.331 . S
C151 C149 1.392 . S
C151 N150 1.331 . S
O152 Zn145 1.975 . S
O152 C153 1.252 . S
C153 O152 1.252 . S
C153 O154 1.252 1_455 S
O154 Zn136 1.975 . S
O154 C153 1.252 1_655 S
H155 C148 0.930 . S
H156 C149 0.930 . S
C157 C158 1.392 . S
C157 N161 1.328 . S
C157 H163 0.930 . S
C158 C157 1.392 . S
C158 N162 1.331 . S
C159 C160 1.391 . S
C159 N162 1.329 . S
C159 H169 0.930 . S
C160 C159 1.391 . S
C160 N161 1.334 . S
C160 H167 0.930 . S
N161 Zn145 2.119 . S
N161 C157 1.328 . S
N161 C160 1.334 . S
N162 C158 1.331 . S
N162 C159 1.329 . S
H163 C157 0.930 . S
C164 O144 1.257 . S
C164 O165 1.244 1_655 S
O165 C164 1.244 1_455 S
O166 C142 1.257 . S
O166 Zn145 2.019 . S
H167 C160 0.930 . S
H168 C147 0.930 . S
H169 C159 0.930 . S
Zn170 N174 2.020 . S
Zn170 O178 2.019 . S
Zn170 N180 2.119 . S
Zn170 O188 1.975 . S
C171 N172 1.334 . S
C171 N175 1.336 . S
N172 C171 1.334 . S
N172 C173 1.334 1_455 S
C173 N172 1.334 1_655 S
C173 N174 1.336 . S
N174 Zn170 2.020 . S
N174 C173 1.336 . S
N174 N175 1.354 1_655 S
N175 C171 1.336 . S
N175 N174 1.354 1_455 S
N175 Zn179 2.020 . S
C176 O177 1.244 . S
C176 O200 1.257 . S
O177 C176 1.244 . S
O178 Zn170 2.019 . S
O178 C198 1.257 . S
Zn179 N175 2.020 . S
Zn179 O186 1.975 . S
Zn179 N195 2.119 . S
Zn179 O200 2.019 . S
N180 Zn170 2.119 . S
N180 C182 1.334 1_655 S
N180 C183 1.328 . S
C181 C182 1.391 . S
C181 N184 1.329 1_455 S
C181 H202 0.930 . S
C182 N180 1.334 1_455 S
C182 C181 1.391 . S
C182 H189 0.930 . S
C183 N180 1.328 . S
C183 C185 1.392 . S
C183 H190 0.930 . S
N184 C181 1.329 1_655 S
N184 C185 1.331 . S
C185 C183 1.392 . S
C185 N184 1.331 . S
O186 Zn179 1.975 . S
O186 C187 1.252 . S
C187 O186 1.252 . S
C187 O188 1.252 1_455 S
O188 Zn170 1.975 . S
O188 C187 1.252 1_655 S
H189 C182 0.930 . S
H190 C183 0.930 . S
C191 C192 1.392 1_565 S
C191 N195 1.328 . S
C191 H197 0.930 . S
C192 C191 1.392 1_545 S
C192 N196 1.331 . S
C193 C194 1.391 1_545 S
C193 N196 1.329 1_655 S
C193 H203 0.930 . S
C194 C193 1.391 1_565 S
C194 N195 1.334 1_655 S
C194 H201 0.930 . S
N195 Zn179 2.119 . S
N195 C191 1.328 . S
N195 C194 1.334 1_455 S
N196 C192 1.331 . S
N196 C193 1.329 1_455 S
H197 C191 0.930 . S
C198 O178 1.257 . S
C198 O199 1.244 . S
O199 C198 1.244 . S
O200 C176 1.257 . S
O200 Zn179 2.019 . S
H201 C194 0.930 . S
H202 C181 0.930 . S
H203 C193 0.930 . S
Zn204 N208 2.020 . S
Zn204 O212 2.019 . S
Zn204 N214 2.119 . S
Zn204 O222 1.975 . S
C205 N206 1.334 . S
C205 N209 1.336 . S
N206 C205 1.334 . S
N206 C207 1.334 . S
C207 N206 1.334 . S
C207 N208 1.336 . S
N208 Zn204 2.020 . S
N208 C207 1.336 . S
N208 N209 1.354 . S
N209 C205 1.336 . S
N209 N208 1.354 . S
N209 Zn213 2.020 . S
C210 O211 1.244 . S
C210 O234 1.257 . S
O211 C210 1.244 . S
O212 Zn204 2.019 . S
O212 C232 1.257 . S
Zn213 N209 2.020 . S
Zn213 O220 1.975 . S
Zn213 N229 2.119 . S
Zn213 O234 2.019 . S
N214 Zn204 2.119 . S
N214 C216 1.334 . S
N214 C217 1.328 . S
C215 C216 1.391 . S
C215 N218 1.329 . S
C215 H236 0.930 . S
C216 N214 1.334 . S
C216 C215 1.391 . S
C216 H223 0.930 . S
C217 N214 1.328 . S
C217 C219 1.392 . S
C217 H224 0.930 . S
N218 C215 1.329 . S
N218 C219 1.331 . S
C219 C217 1.392 . S
C219 N218 1.331 . S
O220 Zn213 1.975 . S
O220 C221 1.252 . S
C221 O220 1.252 . S
C221 O222 1.252 . S
O222 Zn204 1.975 . S
O222 C221 1.252 . S
H223 C216 0.930 . S
H224 C217 0.930 . S
C225 C226 1.392 . S
C225 N229 1.328 . S
C225 H231 0.930 . S
C226 C225 1.392 . S
C226 N230 1.331 . S
C227 C228 1.391 . S
C227 N230 1.329 . S
C227 H237 0.930 . S
C228 C227 1.391 . S
C228 N229 1.334 . S
C228 H235 0.930 . S
N229 Zn213 2.119 . S
N229 C225 1.328 . S
N229 C228 1.334 . S
N230 C226 1.331 . S
N230 C227 1.329 . S
H231 C225 0.930 . S
C232 O212 1.257 . S
C232 O233 1.244 . S
O233 C232 1.244 . S
O234 C210 1.257 . S
O234 Zn213 2.019 . S
H235 C228 0.930 . S
H236 C215 0.930 . S
H237 C227 0.930 . S
Zn238 N242 2.020 . S
Zn238 O246 2.019 . S
Zn238 N248 2.119 . S
Zn238 O256 1.975 . S
C239 N240 1.334 . S
C239 N243 1.336 . S
N240 C239 1.334 . S
N240 C241 1.334 . S
C241 N240 1.334 . S
C241 N242 1.336 . S
N242 Zn238 2.020 . S
N242 C241 1.336 . S
N242 N243 1.354 . S
N243 C239 1.336 . S
N243 N242 1.354 . S
N243 Zn247 2.020 . S
C244 O245 1.244 . S
C244 O268 1.257 . S
O245 C244 1.244 . S
O246 Zn238 2.019 . S
O246 C266 1.257 . S
Zn247 N243 2.020 . S
Zn247 O254 1.975 . S
Zn247 N263 2.119 . S
Zn247 O268 2.019 . S
N248 Zn238 2.119 . S
N248 C250 1.334 . S
N248 C251 1.328 . S
C249 C250 1.391 1_565 S
C249 N252 1.329 . S
C249 H270 0.930 . S
C250 N248 1.334 . S
C250 C249 1.391 1_545 S
C250 H257 0.930 . S
C251 N248 1.328 . S
C251 C253 1.392 1_545 S
C251 H258 0.930 . S
N252 C249 1.329 . S
N252 C253 1.331 . S
C253 C251 1.392 1_565 S
C253 N252 1.331 . S
O254 Zn247 1.975 . S
O254 C255 1.252 . S
C255 O254 1.252 . S
C255 O256 1.252 . S
O256 Zn238 1.975 . S
O256 C255 1.252 . S
H257 C250 0.930 . S
H258 C251 0.930 . S
C259 C260 1.392 . S
C259 N263 1.328 . S
C259 H265 0.930 . S
C260 C259 1.392 . S
C260 N264 1.331 . S
C261 C262 1.391 . S
C261 N264 1.329 . S
C261 H271 0.930 . S
C262 C261 1.391 . S
C262 N263 1.334 . S
C262 H269 0.930 . S
N263 Zn247 2.119 . S
N263 C259 1.328 . S
N263 C262 1.334 . S
N264 C260 1.331 . S
N264 C261 1.329 . S
H265 C259 0.930 . S
C266 O246 1.257 . S
C266 O267 1.244 . S
O267 C266 1.244 . S
O268 C244 1.257 . S
O268 Zn247 2.019 . S
H269 C262 0.930 . S
H270 C249 0.930 . S
H271 C261 0.930 . S
H272 C278 0.930 . S
H273 C281 0.930 . S
H274 C282 0.930 . S
H275 C283 0.930 . S
H276 C286 0.930 . S
H277 C287 0.930 . S
C278 H272 0.930 . S
C278 C279 1.355 1_455 S
C278 C280 1.415 . S
C279 C278 1.355 1_655 S
C279 C281 1.419 . S
C280 C278 1.415 . S
C280 C285 1.425 1_455 S
C280 C287 1.409 . S
C281 H273 0.930 . S
C281 C279 1.419 . S
C281 C282 1.362 . S
C282 H274 0.930 . S
C282 C281 1.362 . S
C282 C285 1.409 . S
C283 H275 0.930 . S
C283 C284 1.355 1_655 S
C283 C285 1.415 . S
C284 C283 1.355 1_455 S
C284 C286 1.419 . S
C285 C280 1.425 1_655 S
C285 C282 1.409 . S
C285 C283 1.415 . S
C286 H276 0.930 . S
C286 C284 1.419 . S
C286 C287 1.362 . S
C287 H277 0.930 . S
C287 C280 1.409 . S
C287 C286 1.362 . S
H288 C294 0.930 . S
H289 C297 0.930 . S
H290 C298 0.930 . S
H291 C299 0.930 . S
H292 C302 0.930 . S
H293 C303 0.930 . S
C294 H288 0.930 . S
C294 C295 1.355 . S
C294 C296 1.415 . S
C295 C294 1.355 . S
C295 C297 1.419 . S
C296 C294 1.415 . S
C296 C301 1.425 . S
C296 C303 1.409 . S
C297 H289 0.930 . S
C297 C295 1.419 . S
C297 C298 1.362 . S
C298 H290 0.930 . S
C298 C297 1.362 . S
C298 C301 1.409 . S
C299 H291 0.930 . S
C299 C300 1.355 . S
C299 C301 1.415 . S
C300 C299 1.355 . S
C300 C302 1.419 . S
C301 C296 1.425 . S
C301 C298 1.409 . S
C301 C299 1.415 . S
C302 H292 0.930 . S
C302 C300 1.419 . S
C302 C303 1.362 . S
C303 H293 0.930 . S
C303 C296 1.409 . S
C303 C302 1.362 . S
H304 C310 0.930 . S
H305 C313 0.930 . S
H306 C314 0.930 . S
H307 C315 0.930 . S
H308 C318 0.930 . S
H309 C319 0.930 . S
C310 H304 0.930 . S
C310 C311 1.355 . S
C310 C312 1.415 . S
C311 C310 1.355 . S
C311 C313 1.419 . S
C312 C310 1.415 . S
C312 C317 1.425 . S
C312 C319 1.409 . S
C313 H305 0.930 . S
C313 C311 1.419 . S
C313 C314 1.362 . S
C314 H306 0.930 . S
C314 C313 1.362 . S
C314 C317 1.409 . S
C315 H307 0.930 . S
C315 C316 1.355 . S
C315 C317 1.415 . S
C316 C315 1.355 . S
C316 C318 1.419 . S
C317 C312 1.425 . S
C317 C314 1.409 . S
C317 C315 1.415 . S
C318 H308 0.930 . S
C318 C316 1.419 . S
C318 C319 1.362 . S
C319 H309 0.930 . S
C319 C312 1.409 . S
C319 C318 1.362 . S
H320 C326 0.930 . S
H321 C329 0.930 . S
H322 C330 0.930 . S
H323 C331 0.930 . S
H324 C334 0.930 . S
H325 C335 0.930 . S
C326 H320 0.930 . S
C326 C327 1.355 1_455 S
C326 C328 1.415 . S
C327 C326 1.355 1_655 S
C327 C329 1.419 . S
C328 C326 1.415 . S
C328 C333 1.425 1_455 S
C328 C335 1.409 . S
C329 H321 0.930 . S
C329 C327 1.419 . S
C329 C330 1.362 . S
C330 H322 0.930 . S
C330 C329 1.362 . S
C330 C333 1.409 . S
C331 H323 0.930 . S
C331 C332 1.355 1_655 S
C331 C333 1.415 . S
C332 C331 1.355 1_455 S
C332 C334 1.419 . S
C333 C328 1.425 1_655 S
C333 C330 1.409 . S
C333 C331 1.415 . S
C334 H324 0.930 . S
C334 C332 1.419 . S
C334 C335 1.362 . S
C335 H325 0.930 . S
C335 C328 1.409 . S
C335 C334 1.362 . S
H336 C342 0.930 1_455 S
H337 C345 0.930 . S
H338 C346 0.930 . S
H339 C347 0.930 . S
H340 C350 0.930 . S
H341 C351 0.930 . S
C342 H336 0.930 1_655 S
C342 C343 1.355 . S
C342 C344 1.415 . S
C343 C342 1.355 . S
C343 C345 1.419 . S
C344 C342 1.415 . S
C344 C349 1.425 1_556 S
C344 C351 1.409 1_655 S
C345 H337 0.930 . S
C345 C343 1.419 . S
C345 C346 1.362 1_556 S
C346 H338 0.930 . S
C346 C345 1.362 1_554 S
C346 C349 1.409 . S
C347 H339 0.930 . S
C347 C348 1.355 . S
C347 C349 1.415 . S
C348 C347 1.355 . S
C348 C350 1.419 1_655 S
C349 C344 1.425 1_554 S
C349 C346 1.409 . S
C349 C347 1.415 . S
C350 H340 0.930 . S
C350 C348 1.419 1_455 S
C350 C351 1.362 1_554 S
C351 H341 0.930 . S
C351 C344 1.409 1_455 S
C351 C350 1.362 1_556 S
H352 C358 0.930 . S
H353 C361 0.930 . S
H354 C362 0.930 . S
H355 C363 0.930 . S
H356 C366 0.930 . S
H357 C367 0.930 . S
C358 H352 0.930 . S
C358 C359 1.355 . S
C358 C360 1.415 . S
C359 C358 1.355 . S
C359 C361 1.419 . S
C360 C358 1.415 . S
C360 C365 1.425 . S
C360 C367 1.409 . S
C361 H353 0.930 . S
C361 C359 1.419 . S
C361 C362 1.362 . S
C362 H354 0.930 . S
C362 C361 1.362 . S
C362 C365 1.409 . S
C363 H355 0.930 . S
C363 C364 1.355 . S
C363 C365 1.415 . S
C364 C363 1.355 . S
C364 C366 1.419 . S
C365 C360 1.425 . S
C365 C362 1.409 . S
C365 C363 1.415 . S
C366 H356 0.930 . S
C366 C364 1.419 . S
C366 C367 1.362 . S
C367 H357 0.930 . S
C367 C360 1.409 . S
C367 C366 1.362 . S
H368 C374 0.930 . S
H369 C377 0.930 . S
H370 C378 0.930 . S
H371 C379 0.930 . S
H372 C382 0.930 . S
H373 C383 0.930 . S
C374 H368 0.930 . S
C374 C375 1.355 . S
C374 C376 1.415 . S
C375 C374 1.355 . S
C375 C377 1.419 . S
C376 C374 1.415 . S
C376 C381 1.425 . S
C376 C383 1.409 . S
C377 H369 0.930 . S
C377 C375 1.419 . S
C377 C378 1.362 . S
C378 H370 0.930 . S
C378 C377 1.362 . S
C378 C381 1.409 . S
C379 H371 0.930 . S
C379 C380 1.355 . S
C379 C381 1.415 . S
C380 C379 1.355 . S
C380 C382 1.419 . S
C381 C376 1.425 . S
C381 C378 1.409 . S
C381 C379 1.415 . S
C382 H372 0.930 . S
C382 C380 1.419 . S
C382 C383 1.362 . S
C383 H373 0.930 . S
C383 C376 1.409 . S
C383 C382 1.362 . S
H384 C390 0.930 . S
H385 C393 0.930 . S
H386 C394 0.930 . S
H387 C395 0.930 . S
H388 C398 0.930 . S
H389 C399 0.930 . S
C390 H384 0.930 . S
C390 C391 1.355 . S
C390 C392 1.415 . S
C391 C390 1.355 . S
C391 C393 1.419 . S
C392 C390 1.415 . S
C392 C397 1.425 . S
C392 C399 1.409 . S
C393 H385 0.930 . S
C393 C391 1.419 . S
C393 C394 1.362 . S
C394 H386 0.930 . S
C394 C393 1.362 . S
C394 C397 1.409 . S
C395 H387 0.930 . S
C395 C396 1.355 . S
C395 C397 1.415 . S
C396 C395 1.355 . S
C396 C398 1.419 . S
C397 C392 1.425 . S
C397 C394 1.409 . S
C397 C395 1.415 . S
C398 H388 0.930 . S
C398 C396 1.419 . S
C398 C399 1.362 . S
C399 H389 0.930 . S
C399 C392 1.409 . S
C399 C398 1.362 . S
H400 C406 0.930 . S
H401 C409 0.930 . S
H402 C410 0.930 . S
H403 C411 0.930 . S
H404 C414 0.930 . S
H405 C415 0.930 . S
C406 H400 0.930 . S
C406 C407 1.355 . S
C406 C408 1.415 . S
C407 C406 1.355 . S
C407 C409 1.419 . S
C408 C406 1.415 . S
C408 C413 1.425 . S
C408 C415 1.409 . S
C409 H401 0.930 . S
C409 C407 1.419 . S
C409 C410 1.362 . S
C410 H402 0.930 . S
C410 C409 1.362 . S
C410 C413 1.409 . S
C411 H403 0.930 . S
C411 C412 1.355 . S
C411 C413 1.415 . S
C412 C411 1.355 . S
C412 C414 1.419 . S
C413 C408 1.425 . S
C413 C410 1.409 . S
C413 C411 1.415 . S
C414 H404 0.930 . S
C414 C412 1.419 . S
C414 C415 1.362 . S
C415 H405 0.930 . S
C415 C408 1.409 . S
C415 C414 1.362 . S
H416 C422 0.930 . S
H417 C425 0.930 . S
H418 C426 0.930 . S
H419 C427 0.930 . S
H420 C430 0.930 . S
H421 C431 0.930 . S
C422 H416 0.930 . S
C422 C423 1.355 . S
C422 C424 1.415 . S
C423 C422 1.355 . S
C423 C425 1.419 . S
C424 C422 1.415 . S
C424 C429 1.425 . S
C424 C431 1.409 . S
C425 H417 0.930 . S
C425 C423 1.419 . S
C425 C426 1.362 . S
C426 H418 0.930 . S
C426 C425 1.362 . S
C426 C429 1.409 . S
C427 H419 0.930 . S
C427 C428 1.355 . S
C427 C429 1.415 . S
C428 C427 1.355 . S
C428 C430 1.419 . S
C429 C424 1.425 . S
C429 C426 1.409 . S
C429 C427 1.415 . S
C430 H420 0.930 . S
C430 C428 1.419 . S
C430 C431 1.362 . S
C431 H421 0.930 . S
C431 C424 1.409 . S
C431 C430 1.362 . S
H432 C438 0.930 . S
H433 C441 0.930 . S
H434 C442 0.930 . S
H435 C443 0.930 . S
H436 C446 0.930 . S
H437 C447 0.930 . S
C438 H432 0.930 . S
C438 C439 1.355 . S
C438 C440 1.415 1_545 S
C439 C438 1.355 . S
C439 C441 1.419 . S
C440 C438 1.415 1_565 S
C440 C445 1.425 1_565 S
C440 C447 1.409 . S
C441 H433 0.930 . S
C441 C439 1.419 . S
C441 C442 1.362 . S
C442 H434 0.930 . S
C442 C441 1.362 . S
C442 C445 1.409 . S
C443 H435 0.930 . S
C443 C444 1.355 . S
C443 C445 1.415 1_565 S
C444 C443 1.355 . S
C444 C446 1.419 . S
C445 C440 1.425 1_545 S
C445 C442 1.409 . S
C445 C443 1.415 1_545 S
C446 H436 0.930 . S
C446 C444 1.419 . S
C446 C447 1.362 . S
C447 H437 0.930 . S
C447 C440 1.409 . S
C447 C446 1.362 . S
H448 C454 0.930 1_655 S
H449 C457 0.930 . S
H450 C458 0.930 . S
H451 C459 0.930 . S
H452 C462 0.930 . S
H453 C463 0.930 . S
C454 H448 0.930 1_455 S
C454 C455 1.355 . S
C454 C456 1.415 1_565 S
C455 C454 1.355 . S
C455 C457 1.419 . S
C456 C454 1.415 1_545 S
C456 C461 1.425 1_544 S
C456 C463 1.409 1_455 S
C457 H449 0.930 . S
C457 C455 1.419 . S
C457 C458 1.362 1_554 S
C458 H450 0.930 . S
C458 C457 1.362 1_556 S
C458 C461 1.409 . S
C459 H451 0.930 . S
C459 C460 1.355 . S
C459 C461 1.415 1_545 S
C460 C459 1.355 . S
C460 C462 1.419 1_455 S
C461 C456 1.425 1_566 S
C461 C458 1.409 . S
C461 C459 1.415 1_565 S
C462 H452 0.930 . S
C462 C460 1.419 1_655 S
C462 C463 1.362 1_556 S
C463 H453 0.930 . S
C463 C456 1.409 1_655 S
C463 C462 1.362 1_554 S
H464 C470 0.930 . S
H465 C473 0.930 . S
H466 C474 0.930 . S
H467 C475 0.930 . S
H468 C478 0.930 . S
H469 C479 0.930 . S
C470 H464 0.930 . S
C470 C471 1.355 . S
C470 C472 1.415 . S
C471 C470 1.355 . S
C471 C473 1.419 . S
C472 C470 1.415 . S
C472 C477 1.425 . S
C472 C479 1.409 . S
C473 H465 0.930 . S
C473 C471 1.419 . S
C473 C474 1.362 . S
C474 H466 0.930 . S
C474 C473 1.362 . S
C474 C477 1.409 . S
C475 H467 0.930 . S
C475 C476 1.355 . S
C475 C477 1.415 . S
C476 C475 1.355 . S
C476 C478 1.419 . S
C477 C472 1.425 . S
C477 C474 1.409 . S
C477 C475 1.415 . S
C478 H468 0.930 . S
C478 C476 1.419 . S
C478 C479 1.362 . S
C479 H469 0.930 . S
C479 C472 1.409 . S
C479 C478 1.362 . S
H480 C486 0.930 . S
H481 C489 0.930 . S
H482 C490 0.930 . S
H483 C491 0.930 . S
H484 C494 0.930 . S
H485 C495 0.930 . S
C486 H480 0.930 . S
C486 C487 1.355 . S
C486 C488 1.415 . S
C487 C486 1.355 . S
C487 C489 1.419 . S
C488 C486 1.415 . S
C488 C493 1.425 . S
C488 C495 1.409 . S
C489 H481 0.930 . S
C489 C487 1.419 . S
C489 C490 1.362 . S
C490 H482 0.930 . S
C490 C489 1.362 . S
C490 C493 1.409 . S
C491 H483 0.930 . S
C491 C492 1.355 . S
C491 C493 1.415 . S
C492 C491 1.355 . S
C492 C494 1.419 . S
C493 C488 1.425 . S
C493 C490 1.409 . S
C493 C491 1.415 . S
C494 H484 0.930 . S
C494 C492 1.419 . S
C494 C495 1.362 . S
C495 H485 0.930 . S
C495 C488 1.409 . S
C495 C494 1.362 . S
H496 C502 0.930 . S
H497 C505 0.930 . S
H498 C506 0.930 . S
H499 C507 0.930 . S
H500 C510 0.930 . S
H501 C511 0.930 . S
C502 H496 0.930 . S
C502 C503 1.355 . S
C502 C504 1.415 1_655 S
C503 C502 1.355 . S
C503 C505 1.419 . S
C504 C502 1.415 1_455 S
C504 C509 1.425 1_455 S
C504 C511 1.409 . S
C505 H497 0.930 . S
C505 C503 1.419 . S
C505 C506 1.362 . S
C506 H498 0.930 . S
C506 C505 1.362 . S
C506 C509 1.409 . S
C507 H499 0.930 . S
C507 C508 1.355 . S
C507 C509 1.415 1_455 S
C508 C507 1.355 . S
C508 C510 1.419 . S
C509 C504 1.425 1_655 S
C509 C506 1.409 . S
C509 C507 1.415 1_655 S
C510 H500 0.930 . S
C510 C508 1.419 . S
C510 C511 1.362 . S
C511 H501 0.930 . S
C511 C504 1.409 . S
C511 C510 1.362 . S
H512 C518 0.930 . S
H513 C521 0.930 . S
H514 C522 0.930 1_655 S
H515 C523 0.930 . S
H516 C526 0.930 . S
H517 C527 0.930 1_455 S
C518 H512 0.930 . S
C518 C519 1.355 . S
C518 C520 1.415 . S
C519 C518 1.355 . S
C519 C521 1.419 . S
C520 C518 1.415 . S
C520 C525 1.425 1_455 S
C520 C527 1.409 1_455 S
C521 H513 0.930 . S
C521 C519 1.419 . S
C521 C522 1.362 . S
C522 H514 0.930 1_455 S
C522 C521 1.362 . S
C522 C525 1.409 1_455 S
C523 H515 0.930 . S
C523 C524 1.355 . S
C523 C525 1.415 . S
C524 C523 1.355 . S
C524 C526 1.419 . S
C525 C520 1.425 1_655 S
C525 C522 1.409 1_655 S
C525 C523 1.415 . S
C526 H516 0.930 . S
C526 C524 1.419 . S
C526 C527 1.362 . S
C527 H517 0.930 1_655 S
C527 C520 1.409 1_655 S
C527 C526 1.362 . S
H528 C534 0.930 . S
H529 C537 0.930 . S
H530 C538 0.930 . S
H531 C539 0.930 . S
H532 C542 0.930 . S
H533 C543 0.930 . S
C534 H528 0.930 . S
C534 C535 1.355 . S
C534 C536 1.415 . S
C535 C534 1.355 . S
C535 C537 1.419 . S
C536 C534 1.415 . S
C536 C541 1.425 . S
C536 C543 1.409 . S
C537 H529 0.930 . S
C537 C535 1.419 . S
C537 C538 1.362 . S
C538 H530 0.930 . S
C538 C537 1.362 . S
C538 C541 1.409 . S
C539 H531 0.930 . S
C539 C540 1.355 . S
C539 C541 1.415 . S
C540 C539 1.355 . S
C540 C542 1.419 . S
C541 C536 1.425 . S
C541 C538 1.409 . S
C541 C539 1.415 . S
C542 H532 0.930 . S
C542 C540 1.419 . S
C542 C543 1.362 . S
C543 H533 0.930 . S
C543 C536 1.409 . S
C543 C542 1.362 . S
H544 C550 0.930 . S
H545 C553 0.930 . S
H546 C554 0.928 1_655 S
H547 C555 0.930 . S
H548 C558 0.930 . S
H549 C559 0.929 1_455 S
C550 H544 0.930 . S
C550 C551 1.355 . S
C550 C552 1.415 . S
C551 C550 1.355 . S
C551 C553 1.419 . S
C552 C550 1.415 . S
C552 C557 1.425 1_455 S
C552 C559 1.408 1_455 S
C553 H545 0.930 . S
C553 C551 1.419 . S
C553 C554 1.366 . S
C554 H546 0.928 1_455 S
C554 C553 1.366 . S
C554 C557 1.408 1_455 S
C555 H547 0.930 . S
C555 C556 1.355 . S
C555 C557 1.415 . S
C556 C555 1.355 . S
C556 C558 1.419 . S
C557 C552 1.425 1_655 S
C557 C554 1.408 1_655 S
C557 C555 1.415 . S
C558 H548 0.930 . S
C558 C556 1.419 . S
C558 C559 1.364 . S
C559 H549 0.929 1_655 S
C559 C552 1.408 1_655 S
C559 C558 1.364 . S
H560 C566 0.930 . S
H561 C569 0.930 . S
H562 C570 0.930 . S
H563 C571 0.930 . S
H564 C574 0.930 . S
H565 C575 0.930 . S
C566 H560 0.930 . S
C566 C567 1.355 . S
C566 C568 1.415 1_455 S
C567 C566 1.355 . S
C567 C569 1.419 . S
C568 C566 1.415 1_655 S
C568 C573 1.425 1_655 S
C568 C575 1.409 . S
C569 H561 0.930 . S
C569 C567 1.419 . S
C569 C570 1.362 . S
C570 H562 0.930 . S
C570 C569 1.362 . S
C570 C573 1.409 . S
C571 H563 0.930 . S
C571 C572 1.355 . S
C571 C573 1.415 1_655 S
C572 C571 1.355 . S
C572 C574 1.419 . S
C573 C568 1.425 1_455 S
C573 C570 1.409 . S
C573 C571 1.415 1_455 S
C574 H564 0.930 . S
C574 C572 1.419 . S
C574 C575 1.362 . S
C575 H565 0.930 . S
C575 C568 1.409 . S
C575 C574 1.362 . S
H576 C582 0.930 . S
H577 C585 0.930 . S
H578 C586 0.930 . S
H579 C587 0.930 . S
H580 C590 0.930 . S
H581 C591 0.930 . S
C582 H576 0.930 . S
C582 C583 1.355 . S
C582 C584 1.415 . S
C583 C582 1.355 . S
C583 C585 1.419 . S
C584 C582 1.415 . S
C584 C589 1.425 . S
C584 C591 1.409 . S
C585 H577 0.930 . S
C585 C583 1.419 . S
C585 C586 1.362 . S
C586 H578 0.930 . S
C586 C585 1.362 . S
C586 C589 1.409 . S
C587 H579 0.930 . S
C587 C588 1.355 . S
C587 C589 1.415 . S
C588 C587 1.355 . S
C588 C590 1.419 . S
C589 C584 1.425 . S
C589 C586 1.409 . S
C589 C587 1.415 . S
C590 H580 0.930 . S
C590 C588 1.419 . S
C590 C591 1.362 . S
C591 H581 0.930 . S
C591 C584 1.409 . S
C591 C590 1.362 . S
H592 C598 0.930 . S
H593 C601 0.930 . S
H594 C602 0.930 . S
H595 C603 0.930 . S
H596 C606 0.930 . S
H597 C607 0.930 . S
C598 H592 0.930 . S
C598 C599 1.355 . S
C598 C600 1.415 . S
C599 C598 1.355 . S
C599 C601 1.419 1_655 S
C600 C598 1.415 . S
C600 C605 1.425 1_655 S
C600 C607 1.409 . S
C601 H593 0.930 . S
C601 C599 1.419 1_455 S
C601 C602 1.362 . S
C602 H594 0.930 . S
C602 C601 1.362 . S
C602 C605 1.409 . S
C603 H595 0.930 . S
C603 C604 1.355 . S
C603 C605 1.415 . S
C604 C603 1.355 . S
C604 C606 1.419 1_455 S
C605 C600 1.425 1_455 S
C605 C602 1.409 . S
C605 C603 1.415 . S
C606 H596 0.930 . S
C606 C604 1.419 1_655 S
C606 C607 1.362 . S
C607 H597 0.930 . S
C607 C600 1.409 . S
C607 C606 1.362 . S
H608 C614 0.930 . S
H609 C617 0.930 . S
H610 C618 0.930 1_455 S
H611 C619 0.930 . S
H612 C622 0.930 . S
H613 C623 0.930 1_655 S
C614 H608 0.930 . S
C614 C615 1.355 . S
C614 C616 1.415 . S
C615 C614 1.355 . S
C615 C617 1.419 . S
C616 C614 1.415 . S
C616 C621 1.425 1_655 S
C616 C623 1.409 1_655 S
C617 H609 0.930 . S
C617 C615 1.419 . S
C617 C618 1.362 . S
C618 H610 0.930 1_655 S
C618 C617 1.362 . S
C618 C621 1.409 1_655 S
C619 H611 0.930 . S
C619 C620 1.355 . S
C619 C621 1.415 . S
C620 C619 1.355 . S
C620 C622 1.419 . S
C621 C616 1.425 1_455 S
C621 C618 1.409 1_455 S
C621 C619 1.415 . S
C622 H612 0.930 . S
C622 C620 1.419 . S
C622 C623 1.362 . S
C623 H613 0.930 1_455 S
C623 C616 1.409 1_455 S
C623 C622 1.362 . S
H624 C630 0.930 . S
H625 C633 0.930 . S
H626 C634 0.930 . S
H627 C635 0.930 . S
H628 C638 0.930 . S
H629 C639 0.930 . S
C630 H624 0.930 . S
C630 C631 1.355 . S
C630 C632 1.415 . S
C631 C630 1.355 . S
C631 C633 1.419 . S
C632 C630 1.415 . S
C632 C637 1.425 . S
C632 C639 1.409 . S
C633 H625 0.930 . S
C633 C631 1.419 . S
C633 C634 1.362 . S
C634 H626 0.930 . S
C634 C633 1.362 . S
C634 C637 1.409 . S
C635 H627 0.930 . S
C635 C636 1.355 . S
C635 C637 1.415 . S
C636 C635 1.355 . S
C636 C638 1.419 . S
C637 C632 1.425 . S
C637 C634 1.409 . S
C637 C635 1.415 . S
C638 H628 0.930 . S
C638 C636 1.419 . S
C638 C639 1.362 . S
C639 H629 0.930 . S
C639 C632 1.409 . S
C639 C638 1.362 . S
H640 C646 0.930 . S
H641 C649 0.930 . S
H642 C650 0.930 . S
H643 C651 0.930 . S
H644 C654 0.930 . S
H645 C655 0.930 . S
C646 H640 0.930 . S
C646 C647 1.355 . S
C646 C648 1.415 . S
C647 C646 1.355 . S
C647 C649 1.419 . S
C648 C646 1.415 . S
C648 C653 1.425 . S
C648 C655 1.409 . S
C649 H641 0.930 . S
C649 C647 1.419 . S
C649 C650 1.362 . S
C650 H642 0.930 . S
C650 C649 1.362 . S
C650 C653 1.409 . S
C651 H643 0.930 . S
C651 C652 1.355 . S
C651 C653 1.415 . S
C652 C651 1.355 . S
C652 C654 1.419 . S
C653 C648 1.425 . S
C653 C650 1.409 . S
C653 C651 1.415 . S
C654 H644 0.930 . S
C654 C652 1.419 . S
C654 C655 1.362 . S
C655 H645 0.930 . S
C655 C648 1.409 . S
C655 C654 1.362 . S
H656 C662 0.930 . S
H657 C665 0.930 . S
H658 C666 0.930 . S
H659 C667 0.930 . S
H660 C670 0.930 . S
H661 C671 0.930 . S
C662 H656 0.930 . S
C662 C663 1.355 1_655 S
C662 C664 1.415 . S
C663 C662 1.355 1_455 S
C663 C665 1.419 . S
C664 C662 1.415 . S
C664 C669 1.425 1_655 S
C664 C671 1.409 . S
C665 H657 0.930 . S
C665 C663 1.419 . S
C665 C666 1.362 . S
C666 H658 0.930 . S
C666 C665 1.362 . S
C666 C669 1.409 . S
C667 H659 0.930 . S
C667 C668 1.355 1_455 S
C667 C669 1.415 . S
C668 C667 1.355 1_655 S
C668 C670 1.419 . S
C669 C664 1.425 1_455 S
C669 C666 1.409 . S
C669 C667 1.415 . S
C670 H660 0.930 . S
C670 C668 1.419 . S
C670 C671 1.362 . S
C671 H661 0.930 . S
C671 C664 1.409 . S
C671 C670 1.362 . S
H672 C678 0.930 . S
H673 C681 0.930 . S
H674 C682 0.930 . S
H675 C683 0.930 . S
H676 C686 0.930 . S
H677 C687 0.930 . S
C678 H672 0.930 . S
C678 C679 1.355 . S
C678 C680 1.415 . S
C679 C678 1.355 . S
C679 C681 1.419 . S
C680 C678 1.415 . S
C680 C685 1.425 . S
C680 C687 1.409 . S
C681 H673 0.930 . S
C681 C679 1.419 . S
C681 C682 1.362 . S
C682 H674 0.930 . S
C682 C681 1.362 . S
C682 C685 1.409 . S
C683 H675 0.930 . S
C683 C684 1.355 . S
C683 C685 1.415 . S
C684 C683 1.355 . S
C684 C686 1.419 . S
C685 C680 1.425 . S
C685 C682 1.409 . S
C685 C683 1.415 . S
C686 H676 0.930 . S
C686 C684 1.419 . S
C686 C687 1.362 . S
C687 H677 0.930 . S
C687 C680 1.409 . S
C687 C686 1.362 . S
H688 C694 0.930 . S
H689 C697 0.930 . S
H690 C698 0.930 . S
H691 C699 0.930 . S
H692 C702 0.930 . S
H693 C703 0.930 . S
C694 H688 0.930 . S
C694 C695 1.355 . S
C694 C696 1.415 . S
C695 C694 1.355 . S
C695 C697 1.419 . S
C696 C694 1.415 . S
C696 C701 1.425 . S
C696 C703 1.409 . S
C697 H689 0.930 . S
C697 C695 1.419 . S
C697 C698 1.362 . S
C698 H690 0.930 . S
C698 C697 1.362 . S
C698 C701 1.409 . S
C699 H691 0.930 . S
C699 C700 1.355 . S
C699 C701 1.415 . S
C700 C699 1.355 . S
C700 C702 1.419 . S
C701 C696 1.425 . S
C701 C698 1.409 . S
C701 C699 1.415 . S
C702 H692 0.930 . S
C702 C700 1.419 . S
C702 C703 1.362 . S
C703 H693 0.930 . S
C703 C696 1.409 . S
C703 C702 1.362 . S
H704 C710 0.930 . S
H705 C713 0.930 . S
H706 C714 0.930 . S
H707 C715 0.930 . S
H708 C718 0.930 . S
H709 C719 0.930 . S
C710 H704 0.930 . S
C710 C711 1.355 . S
C710 C712 1.415 . S
C711 C710 1.355 . S
C711 C713 1.419 . S
C712 C710 1.415 . S
C712 C717 1.425 1_655 S
C712 C719 1.409 1_655 S
C713 H705 0.930 . S
C713 C711 1.419 . S
C713 C714 1.362 . S
C714 H706 0.930 . S
C714 C713 1.362 . S
C714 C717 1.409 1_655 S
C715 H707 0.930 . S
C715 C716 1.355 . S
C715 C717 1.415 . S
C716 C715 1.355 . S
C716 C718 1.419 . S
C717 C712 1.425 1_455 S
C717 C714 1.409 1_455 S
C717 C715 1.415 . S
C718 H708 0.930 . S
C718 C716 1.419 . S
C718 C719 1.362 . S
C719 H709 0.930 . S
C719 C712 1.409 1_455 S
C719 C718 1.362 . S
C279 C187 1.545 1_655 S
C284 C17 1.545 . S
C295 C51 1.545 . S
C300 C221 1.545 . S
C311 C85 1.545 . S
C316 C255 1.545 . S
C327 C153 1.545 1_655 S
C332 C119 1.545 . S
C343 C139 1.947 . S
C348 C1 1.915 . S
C359 C35 1.970 . S
C364 C173 1.921 . S
C375 C71 1.915 . S
C380 C205 1.962 . S
C391 C105 1.963 . S
C396 C239 1.967 . S
C407 C103 1.914 . S
C412 C241 1.953 . S
C423 C37 1.915 . S
C428 C171 1.960 . S
C439 C69 1.915 . S
C444 C207 1.944 . S
C455 C3 1.946 . S
C460 C137 1.915 . S
C471 C15 1.267 . S
C476 C22 1.264 . S
C487 C49 1.171 . S
C492 C56 1.166 . S
C503 C83 1.130 . S
C508 C90 1.128 . S
C519 C124 1.208 . S
C524 C117 1.213 . S
C535 C158 1.275 . S
C540 C151 1.273 . S
C551 C192 1.206 . S
C556 C185 1.211 . S
C567 C219 1.133 . S
C572 C226 1.136 . S
C583 C260 1.262 . S
C588 C253 1.258 . S
C599 C6 1.905 . S
C604 C28 1.913 1_545 S
C615 C40 1.924 . S
C620 C62 1.927 . S
C631 C96 1.922 . S
C636 C74 1.928 1_565 S
C647 C130 1.926 . S
C652 C108 1.917 . S
C663 C142 1.926 1_565 S
C668 C164 1.926 . S
C679 C176 1.908 . S
C684 C198 1.905 . S
C695 C210 1.905 . S
C700 C232 1.911 1_545 S
C711 C244 1.914 . S
C716 C266 1.905 . S
