# Generated by pormake.
# Topology sxb, (6)-cn, num edge types: 1
# Building blocks:
#     Node 0, Type 0, BuildingBlock: FUNLAD_clean_sbu_0, # of connection points: 6
#     Node 1, Type 0, BuildingBlock: FUNLAD_clean_sbu_0, # of connection points: 6
#     Node 2, Type 0, BuildingBlock: FUNLAD_clean_sbu_0, # of connection points: 6
#     Node 3, Type 0, BuildingBlock: FUNLAD_clean_sbu_0, # of connection points: 6
#     Edge 4, Type (0, 0), BuildingBlock: EZIPEK_clean_linker_0, # of connection points: 2
#     Edge 5, Type (0, 0), BuildingBlock: EZIPEK_clean_linker_0, # of connection points: 2
#     Edge 6, Type (0, 0), BuildingBlock: EZIPEK_clean_linker_0, # of connection points: 2
#     Edge 7, Type (0, 0), BuildingBlock: EZIPEK_clean_linker_0, # of connection points: 2
#     Edge 8, Type (0, 0), BuildingBlock: EZIPEK_clean_linker_0, # of connection points: 2
#     Edge 9, Type (0, 0), BuildingBlock: EZIPEK_clean_linker_0, # of connection points: 2
#     Edge 10, Type (0, 0), BuildingBlock: EZIPEK_clean_linker_0, # of connection points: 2
#     Edge 11, Type (0, 0), BuildingBlock: EZIPEK_clean_linker_0, # of connection points: 2
#     Edge 12, Type (0, 0), BuildingBlock: EZIPEK_clean_linker_0, # of connection points: 2
#     Edge 13, Type (0, 0), BuildingBlock: EZIPEK_clean_linker_0, # of connection points: 2
#     Edge 14, Type (0, 0), BuildingBlock: EZIPEK_clean_linker_0, # of connection points: 2
#     Edge 15, Type (0, 0), BuildingBlock: EZIPEK_clean_linker_0, # of connection points: 2
# Relax obj value: 0.086
# Max RMSD: 0.152
# Mean RMSD: 0.152
data_MOF--net-sxb--node1-FUNLAD_clean_sbu_0--edge1-EZIPEK_clean_linker_0
_symmetry_space_group_name_H-M    P1
_symmetry_Int_Tables_number       1
_symmetry_cell_setting            triclinic
loop_
_symmetry_equiv_pos_as_xyz
'x, y, z'
_cell_length_a     10.732647
_cell_length_b     19.750815
_cell_length_c     35.239369
_cell_angle_alpha  89.908214
_cell_angle_beta   92.35886
_cell_angle_gamma 89.992671
loop_
_atom_site_label
_atom_site_type_symbol
_atom_site_fract_x
_atom_site_fract_y
_atom_site_fract_z
_atom_type_partial_charge
C0 C 0.2006 0.03323 1.01666 0.0
N1 N 0.94782 -0.00424 0.92625 0.0
C2 C 0.00094 0.04872 0.90816 0.0
C3 C 0.00294 0.05003 0.8686 0.0
C4 C 0.94923 -0.00351 0.84767 0.0
C5 C 0.89397 0.94281 0.86684 0.0
C6 C 0.89451 0.94338 0.90647 0.0
Zn7 Zn 0.95165 0.99444 0.98415 0.0
C8 C 0.05246 0.86456 1.01539 0.0
N9 N -0.03724 0.99212 0.10471 0.0
C10 C 0.01169 0.04594 0.12426 0.0
C11 C 0.91412 0.93807 0.123 0.0
C12 C 0.91241 0.93707 0.16257 0.0
C13 C -0.03831 0.99207 0.18326 0.0
C14 C 0.01233 0.04688 0.16387 0.0
Zn15 Zn -0.04122 0.99324 0.04688 0.0
O16 O 0.13814 0.0244 0.98571 0.0
C17 C 0.85816 0.12314 1.01595 0.0
O18 O 0.14442 0.02763 0.04753 0.0
H19 H 0.87586 0.89587 0.10685 0.0
H20 H 0.04255 0.08983 0.92446 0.0
H21 H 0.04949 0.08838 0.10908 0.0
O22 O 0.887 0.09652 0.98468 0.0
O23 O 0.88447 0.09228 0.04688 0.0
H24 H 0.85309 0.9018 0.92146 0.0
O25 O 0.77334 0.95887 0.04533 0.0
O26 O 0.76482 0.96442 0.98354 0.0
O27 O 0.03286 0.89424 0.04651 0.0
O28 O 0.0168 0.89229 0.98421 0.0
C29 C 0.70975 0.9544 1.01424 0.0
H30 H 0.04622 0.09211 0.85444 0.0
H31 H 0.8518 0.90084 0.85129 0.0
H32 H 0.87274 0.8941 0.17691 0.0
H33 H 0.05098 0.08999 0.17924 0.0
C34 C 0.71202 0.03578 0.5138 0.0
N35 N -0.03809 -0.00414 0.60505 0.0
C36 C 0.86054 0.97135 0.6226 0.0
C37 C 0.85766 0.97104 0.66213 0.0
C38 C -0.04006 -0.00374 0.68364 0.0
C39 C 0.06343 0.02116 0.66505 0.0
C40 C 0.06253 0.02045 0.62541 0.0
Zn41 Zn -0.03942 -0.00392 0.54704 0.0
C42 C 0.86149 0.86631 0.51524 0.0
N43 N 0.95277 -0.00414 0.42597 0.0
C44 C 0.85272 0.97012 0.40581 0.0
C45 C 0.05288 0.02121 0.40813 0.0
C46 C 0.05506 0.02117 0.36858 0.0
C47 C 0.95342 -0.00536 0.34732 0.0
C48 C 0.85119 0.96892 0.36617 0.0
Zn49 Zn 0.95465 -0.0042 0.48412 0.0
O50 O 0.77497 0.03036 0.54497 0.0
C51 C 0.05469 0.12546 0.51646 0.0
O52 O 0.76793 0.02699 0.48314 0.0
H53 H 0.13154 0.04132 0.42454 0.0
H54 H 0.7815 0.95208 0.60593 0.0
H55 H 0.77409 0.95028 0.42042 0.0
O56 O 0.03292 0.09552 0.54739 0.0
O57 O 0.02127 0.09794 0.48504 0.0
H58 H 0.14205 0.03972 0.61092 0.0
O59 O 0.14057 0.96437 0.48619 0.0
O60 O 0.14654 0.96189 0.54803 0.0
O61 O 0.88903 0.89377 0.48402 0.0
O62 O 0.88836 0.89654 0.54627 0.0
C63 C 0.20294 0.95595 0.51722 0.0
H64 H 0.77655 0.95153 0.67583 0.0
H65 H 0.14367 0.04093 0.68107 0.0
H66 H 0.13526 0.04134 0.35468 0.0
H67 H 0.77141 0.94813 0.35037 0.0
C68 C 0.70388 0.53415 0.02766 0.0
N69 N 0.45313 0.49554 0.93661 0.0
C70 C 0.55453 0.47154 0.9189 0.0
C71 C 0.55693 0.47166 0.87936 0.0
C72 C 0.45413 0.49677 0.858 0.0
C73 C 0.35063 0.52117 0.87674 0.0
C74 C 0.35203 0.52005 0.91639 0.0
Zn75 Zn 0.45516 0.49491 0.99461 0.0
C76 C 0.55486 0.36503 0.02614 0.0
N77 N 0.46423 0.49308 0.11534 0.0
C78 C 0.51844 0.5451 0.1352 0.0
C79 C 0.40991 0.44041 0.13336 0.0
C80 C 0.40784 0.43898 0.17292 0.0
C81 C 0.46286 0.49203 0.19394 0.0
C82 C 0.5191 0.54549 0.17483 0.0
Zn83 Zn 0.46169 0.49411 0.05742 0.0
O84 O 0.6403 0.53001 0.99655 0.0
C85 C 0.36151 0.6239 0.02576 0.0
O86 O 0.64877 0.52384 0.05832 0.0
H87 H 0.36768 0.39954 0.11701 0.0
H88 H 0.63395 0.45231 0.93546 0.0
H89 H 0.56079 0.58647 0.12026 0.0
O90 O 0.38148 0.59407 0.9947 0.0
O91 O 0.39684 0.59633 0.05702 0.0
H92 H 0.27249 0.53891 0.931 0.0
O93 O 0.2751 0.46443 0.05547 0.0
O94 O 0.26965 0.46 0.99367 0.0
O95 O 0.52588 0.39198 0.0573 0.0
O96 O 0.52887 0.39563 0.99511 0.0
C97 C 0.213 0.45511 0.0245 0.0
H98 H 0.63808 0.45254 0.86555 0.0
H99 H 0.27 0.54087 0.86084 0.0
H100 H 0.3638 0.39706 0.18702 0.0
H101 H 0.5623 0.5871 0.19044 0.0
C102 C 0.21814 0.53385 0.52449 0.0
N103 N 0.46934 0.49668 0.61544 0.0
C104 C 0.41536 0.54957 0.63327 0.0
C105 C 0.41239 0.55097 0.67281 0.0
C106 C 0.46604 0.49761 0.69399 0.0
C107 C 0.52218 0.44398 0.6751 0.0
C108 C 0.52257 0.44446 0.63548 0.0
Zn109 Zn 0.46676 0.49513 0.55756 0.0
C110 C 0.36605 0.36522 0.52666 0.0
N111 N 0.45795 0.4923 0.43673 0.0
C112 C 0.35619 0.46817 0.41673 0.0
C113 C 0.55931 0.51585 0.41879 0.0
C114 C 0.56086 0.51578 0.37923 0.0
C115 C 0.45719 0.49125 0.35809 0.0
C116 C 0.35386 0.46718 0.37707 0.0
Zn117 Zn 0.46037 0.49352 0.49476 0.0
O118 O 0.28023 0.52494 0.55551 0.0
C119 C 0.56026 0.62364 0.52559 0.0
O120 O 0.27486 0.52859 0.49369 0.0
H121 H 0.63924 0.53481 0.43517 0.0
H122 H 0.37383 0.59056 0.61677 0.0
H123 H 0.2767 0.44964 0.43152 0.0
O124 O 0.53114 0.59711 0.55689 0.0
O125 O 0.53435 0.59269 0.49472 0.0
H126 H 0.56465 0.40291 0.62069 0.0
O127 O 0.64555 0.45829 0.49685 0.0
O128 O 0.65382 0.46525 0.55858 0.0
O129 O 0.38636 0.3945 0.49541 0.0
O130 O 0.40158 0.39311 0.55775 0.0
C131 C 0.70907 0.45457 0.528 0.0
H132 H 0.36844 0.59301 0.68675 0.0
H133 H 0.56432 0.40214 0.69085 0.0
H134 H 0.64189 0.53464 0.36522 0.0
H135 H 0.27258 0.44794 0.36135 0.0
C136 C 0.32724 0.74405 1.00487 0.0
C137 C 0.2853 0.6868 0.02498 0.0
C138 C 0.08634 0.74432 0.03613 0.0
C139 C 0.12832 0.80156 1.01601 0.0
N140 N 0.28136 0.85345 0.97667 0.0
N141 N 0.13182 0.63462 0.06406 0.0
C142 C 0.24653 0.80068 0.99902 0.0
C143 C 0.16691 0.68759 0.04189 0.0
N144 N 0.44795 0.74609 0.99376 0.0
N145 N -0.03426 0.74244 0.04735 0.0
H146 H 0.18123 0.5895 0.06672 0.0
H147 H 0.05744 0.63682 0.08202 0.0
H148 H 0.90333 0.78242 0.04279 0.0
H149 H 0.92319 0.69951 0.05805 0.0
H150 H 0.49034 0.78913 0.98314 0.0
H151 H 0.51053 0.70621 0.99841 0.0
H152 H 0.35543 0.85096 0.9586 0.0
H153 H 0.23191 0.89855 0.97391 0.0
C154 C 0.58423 0.24598 1.0037 0.0
C155 C 0.62956 0.30165 0.0255 0.0
C156 C 0.82833 0.24197 0.03871 0.0
C157 C 0.78314 0.18639 1.01681 0.0
N158 N 0.62443 0.13813 0.97421 0.0
N159 N 0.78804 0.34982 0.06819 0.0
C160 C 0.66307 0.18921 0.99802 0.0
C161 C 0.74952 0.29878 0.04435 0.0
N162 N 0.46209 0.24531 0.99084 0.0
N163 N 0.95034 0.24254 0.05172 0.0
H164 H 0.74122 0.39558 0.07059 0.0
H165 H 0.8629 0.34516 0.08772 0.0
H166 H 0.01188 0.20276 0.04717 0.0
H167 H -0.0054 0.28455 0.0639 0.0
H168 H 0.41775 0.20323 0.97876 0.0
H169 H 0.40053 0.28506 0.99547 0.0
H170 H 0.5493 0.14271 0.95478 0.0
H171 H 0.67134 0.09242 0.97178 0.0
C172 C 0.25171 0.18796 0.50144 0.0
C173 C 0.13209 0.18796 0.51759 0.0
C174 C 0.17081 0.30215 0.54286 0.0
C175 C 0.28974 0.30243 0.52629 0.0
N176 N 0.4535 0.24222 0.49626 0.0
N177 N -0.03157 0.24839 0.54758 0.0
C178 C 0.33231 0.24466 0.50692 0.0
C179 C 0.0897 0.24571 0.53704 0.0
N180 N 0.2881 0.1341 0.48033 0.0
N181 N 0.13574 0.35526 0.56482 0.0
H182 H 0.90572 0.20857 0.54305 0.0
H183 H 0.92596 0.29184 0.55761 0.0
H184 H 0.18601 0.40005 0.56769 0.0
H185 H 0.06077 0.35323 0.58257 0.0
H186 H 0.36258 0.13577 0.46238 0.0
H187 H 0.23989 0.08856 0.47882 0.0
H188 H 0.49627 0.19894 0.48615 0.0
H189 H 0.51598 0.28217 0.5007 0.0
C190 C 0.83306 0.74705 0.53772 0.0
C191 C 0.78707 0.80282 0.51604 0.0
C192 C 0.58888 0.74264 0.50279 0.0
C193 C 0.63471 0.68704 0.52465 0.0
N194 N 0.79352 0.63923 0.56746 0.0
N195 N 0.62701 0.85154 0.47411 0.0
C196 C 0.75465 0.69013 0.54348 0.0
C197 C 0.66683 0.7999 0.4974 0.0
N198 N 0.95536 0.74643 0.55042 0.0
N199 N 0.46694 0.74285 0.48972 0.0
H200 H 0.67183 0.89802 0.47274 0.0
H201 H 0.5529 0.84693 0.45432 0.0
H202 H 0.40591 0.70279 0.49418 0.0
H203 H 0.42217 0.78473 0.47748 0.0
H204 H -4e-05 0.70425 0.56239 0.0
H205 H 0.01666 0.78628 0.54575 0.0
H206 H 0.86835 0.64418 0.58697 0.0
H207 H 0.74689 0.59345 0.57003 0.0
C208 C 0.40655 0.01112 0.05086 0.0
C209 C 0.33973 0.02821 1.01666 0.0
C210 C 0.50389 0.9764 0.98016 0.0
C211 C 0.57063 0.95932 1.01438 0.0
N212 N 0.55574 0.93448 0.08097 0.0
N213 N 0.35257 0.0517 0.94985 0.0
C214 C 0.51313 0.96898 0.04946 0.0
C215 C 0.39685 0.0182 0.98153 0.0
N216 N 0.37337 0.03888 0.08442 0.0
N217 N 0.53818 0.94908 0.94659 0.0
H218 H 0.28336 0.08867 0.95115 0.0
H219 H 0.39589 0.05002 0.92394 0.0
H220 H 0.60646 0.91157 0.94553 0.0
H221 H 0.48723 0.95589 0.92106 0.0
H222 H 0.42477 0.03183 0.10986 0.0
H223 H 0.30576 0.07671 0.08557 0.0
H224 H 0.51131 0.93583 0.10671 0.0
H225 H 0.62449 0.89727 0.07963 0.0
C226 C 0.39933 0.9697 0.4819 0.0
C227 C 0.34216 0.96126 0.51719 0.0
C228 C 0.51505 0.02241 0.54898 0.0
C229 C 0.5728 0.03038 0.5138 0.0
N230 N 0.54046 0.03721 0.44583 0.0
N231 N 0.37573 0.95417 0.58514 0.0
C232 C 0.50636 0.01146 0.47985 0.0
C233 C 0.40874 0.98022 0.5511 0.0
N234 N 0.35472 0.93501 0.45074 0.0
N235 N 0.55743 0.05846 0.57989 0.0
H236 H 0.30865 0.9162 0.58697 0.0
H237 H 0.4269 0.96267 0.61046 0.0
H238 H 0.62651 0.09537 0.57795 0.0
H239 H 0.51277 0.05853 0.60561 0.0
H240 H 0.39773 0.93559 0.42477 0.0
H241 H 0.28526 0.89829 0.45258 0.0
H242 H 0.48975 0.02903 0.42041 0.0
H243 H 0.60809 0.07492 0.4441 0.0
C244 C 0.90051 0.52074 0.99227 0.0
C245 C 0.84303 0.52921 0.02745 0.0
C246 C 0.01675 0.46925 0.05967 0.0
C247 C 0.07385 0.46034 0.02443 0.0
N248 N 0.04028 0.4522 0.95653 0.0
N249 N 0.87586 0.5374 0.09532 0.0
C250 C 0.00714 0.47871 0.99041 0.0
C251 C 0.90983 0.51104 0.06148 0.0
N252 N 0.85775 0.55624 0.96113 0.0
N253 N 0.06116 0.43483 0.09101 0.0
H254 H 0.80779 0.57495 0.09677 0.0
H255 H 0.92691 0.52979 0.12076 0.0
H256 H 0.13049 0.39799 0.08934 0.0
H257 H 0.01801 0.43574 0.11696 0.0
H258 H 0.90216 0.55588 0.93538 0.0
H259 H 0.78873 0.59323 0.96286 0.0
H260 H -0.01099 0.46025 0.93116 0.0
H261 H 0.10757 0.41429 0.95492 0.0
C262 C 0.02181 0.52005 0.5597 0.0
C263 C 0.07898 0.5285 0.52443 0.0
C264 C 0.90586 0.46757 0.49261 0.0
C265 C 0.84824 0.4596 0.52781 0.0
N266 N 0.8808 0.45245 0.59574 0.0
N267 N 0.04555 0.53563 0.45647 0.0
C268 C 0.91489 0.4783 0.56175 0.0
C269 C 0.0124 0.50961 0.4905 0.0
N270 N 0.06618 0.55486 0.59085 0.0
N271 N 0.86332 0.43158 0.46169 0.0
H272 H 0.11269 0.57357 0.45464 0.0
H273 H -0.00559 0.52718 0.43114 0.0
H274 H 0.79439 0.3946 0.46364 0.0
H275 H 0.90785 0.43156 0.43596 0.0
H276 H 0.02302 0.55428 0.6168 0.0
H277 H 0.13548 0.59166 0.58898 0.0
H278 H 0.93173 0.46044 0.62115 0.0
H279 H 0.8128 0.41491 0.59742 0.0
C280 C 0.87881 0.03969 0.28373 0.0
C281 C 0.95455 0.99356 0.30525 0.0
C282 C 0.04291 0.95069 0.24693 0.0
C283 C -0.0408 0.99251 0.2253 0.0
N284 N 0.78283 0.06836 0.22235 0.0
N285 N 0.09304 0.89728 0.30762 0.0
C286 C 0.8729 0.03471 0.24349 0.0
C287 C 0.03233 0.94677 0.28693 0.0
N288 N 0.8158 0.08967 0.30169 0.0
N289 N 0.13502 0.91639 0.22939 0.0
H290 H 0.08744 0.89271 0.33699 0.0
H291 H 0.14018 0.8573 0.29539 0.0
H292 H 0.14568 0.91796 0.20011 0.0
H293 H 0.20717 0.89103 0.24407 0.0
H294 H 0.77021 0.1293 0.28739 0.0
H295 H 0.81773 0.09497 0.33116 0.0
H296 H 0.70903 0.09394 0.23419 0.0
H297 H 0.77548 0.066 0.19277 0.0
C298 C 0.03537 0.95265 0.78731 0.0
C299 C 0.95201 -0.00357 0.80563 0.0
C300 C 0.88343 0.04475 0.74417 0.0
C301 C 0.95819 -0.0033 0.72569 0.0
N302 N 0.08989 0.89771 0.72882 0.0
N303 N 0.78224 0.0765 0.80176 0.0
C304 C 0.03003 0.94859 0.74703 0.0
C305 C 0.87192 0.04044 0.78413 0.0
N306 N 0.1223 0.91658 0.80838 0.0
N307 N 0.82649 0.09572 0.72367 0.0
H308 H 0.77101 0.07468 0.83101 0.0
H309 H 0.71232 0.10371 0.78715 0.0
H310 H 0.83268 0.10051 0.69432 0.0
H311 H 0.782 0.13648 0.73604 0.0
H312 H 0.19437 0.8896 0.79652 0.0
H313 H 0.12909 0.91816 0.83798 0.0
H314 H 0.13218 0.85683 0.74291 0.0
H315 H 0.08852 0.89316 0.69932 0.0
C316 C 0.38695 0.54011 0.29499 0.0
C317 C 0.45718 0.4909 0.31601 0.0
C318 C 0.53949 0.44636 0.2572 0.0
C319 C 0.46099 0.49168 0.23602 0.0
N320 N 0.29436 0.57377 0.23397 0.0
N321 N 0.584 0.39004 0.31741 0.0
C322 C 0.38024 0.53642 0.2547 0.0
C323 C 0.52893 0.44192 0.29718 0.0
N324 N 0.32994 0.59161 0.31351 0.0
N325 N 0.62697 0.40923 0.23924 0.0
H326 H 0.57858 0.38521 0.34678 0.0
H327 H 0.62603 0.34871 0.30481 0.0
H328 H 0.63767 0.41119 0.20997 0.0
H329 H 0.69586 0.38089 0.2536 0.0
H330 H 0.2892 0.63317 0.29965 0.0
H331 H 0.33219 0.59585 0.34304 0.0
H332 H 0.22399 0.60166 0.2461 0.0
H333 H 0.2865 0.57241 0.20437 0.0
C334 C 0.54163 0.54194 0.75755 0.0
C335 C 0.4624 0.49765 0.73602 0.0
C336 C 0.38428 0.44941 0.79459 0.0
C337 C 0.45548 0.49764 0.81594 0.0
N338 N 0.58565 0.59722 0.81798 0.0
N339 N 0.29295 0.41733 0.73319 0.0
C340 C 0.52965 0.54608 0.79748 0.0
C341 C 0.37929 0.45359 0.75431 0.0
N342 N 0.63104 0.57838 0.73998 0.0
N343 N 0.32477 0.3983 0.81279 0.0
H344 H 0.28642 0.41901 0.70359 0.0
H345 H 0.22105 0.39007 0.745 0.0
H346 H 0.32584 0.39368 0.84229 0.0
H347 H 0.28303 0.35734 0.7987 0.0
H348 H 0.70041 0.60583 0.75463 0.0
H349 H 0.64263 0.5767 0.71075 0.0
H350 H 0.62965 0.63821 0.80562 0.0
H351 H 0.57907 0.60189 0.84732 0.0
loop_
_geom_bond_atom_site_label_1
_geom_bond_atom_site_label_2
_geom_bond_distance
_geom_bond_site_symmetry_2
_ccdc_geom_bond_type
C0 O16 1.225 1_554 S
C0 O18 1.281 . S
N1 C2 1.335 1_655 S
N1 C6 1.304 1_545 S
N1 Zn7 2.020 1_545 S
C2 N1 1.335 1_455 S
C2 C3 1.379 . S
C2 H20 0.952 . S
C3 C2 1.379 . S
C3 C4 1.390 1_455 S
C3 H30 0.949 . S
C4 C3 1.390 1_655 S
C4 C5 1.357 1_545 S
C5 C4 1.357 1_565 S
C5 C6 1.370 . S
C5 H31 0.950 . S
C6 N1 1.304 1_565 S
C6 C5 1.370 . S
C6 H24 0.948 . S
Zn7 N1 2.020 1_565 S
Zn7 O16 2.039 1_665 S
Zn7 O22 2.034 1_565 S
Zn7 O26 2.025 . S
Zn7 O28 2.024 1_655 S
C8 O27 1.246 . S
C8 O28 1.249 1_554 S
N9 C10 1.306 1_565 S
N9 C11 1.333 1_455 S
N9 Zn15 2.020 1_565 S
C10 N9 1.306 1_545 S
C10 C14 1.370 . S
C10 H21 0.948 . S
C11 N9 1.333 1_655 S
C11 C12 1.379 . S
C11 H19 0.952 . S
C12 C11 1.379 . S
C12 C13 1.390 1_655 S
C12 H32 0.949 . S
C13 C12 1.390 1_455 S
C13 C14 1.357 1_565 S
C14 C10 1.370 . S
C14 C13 1.357 1_545 S
C14 H33 0.950 . S
Zn15 N9 2.020 1_545 S
Zn15 O18 2.025 . S
Zn15 O23 2.024 1_455 S
Zn15 O25 2.039 1_445 S
Zn15 O27 2.034 1_545 S
O16 C0 1.225 1_556 S
O16 Zn7 2.039 1_445 S
C17 O22 1.246 1_554 S
C17 O23 1.249 . S
O18 C0 1.281 . S
O18 Zn15 2.025 . S
H19 C11 0.952 . S
H20 C2 0.952 . S
H21 C10 0.948 . S
O22 Zn7 2.034 1_545 S
O22 C17 1.246 1_556 S
O23 Zn15 2.024 1_655 S
O23 C17 1.249 . S
H24 C6 0.948 . S
O25 Zn15 2.039 1_665 S
O25 C29 1.251 . S
O26 Zn7 2.025 . S
O26 C29 1.254 1_556 S
O27 C8 1.246 . S
O27 Zn15 2.034 1_565 S
O28 Zn7 2.024 1_455 S
O28 C8 1.249 1_556 S
C29 O25 1.251 . S
C29 O26 1.254 1_554 S
H30 C3 0.949 . S
H31 C5 0.950 . S
H32 C12 0.949 . S
H33 C14 0.950 . S
C34 O50 1.251 . S
C34 O52 1.254 . S
N35 C36 1.335 1_455 S
N35 C40 1.304 1_545 S
N35 Zn41 2.020 1_545 S
C36 N35 1.335 1_655 S
C36 C37 1.379 . S
C36 H54 0.952 . S
C37 C36 1.379 . S
C37 C38 1.390 1_655 S
C37 H64 0.949 . S
C38 C37 1.390 1_455 S
C38 C39 1.357 1_545 S
C39 C38 1.357 1_565 S
C39 C40 1.370 . S
C39 H65 0.950 . S
C40 N35 1.304 1_565 S
C40 C39 1.370 . S
C40 H58 0.948 . S
Zn41 N35 2.020 1_565 S
Zn41 O50 2.039 1_465 S
Zn41 O56 2.034 1_565 S
Zn41 O60 2.025 . S
Zn41 O62 2.024 1_455 S
C42 O61 1.246 . S
C42 O62 1.249 . S
N43 C44 1.306 1_565 S
N43 C45 1.333 1_655 S
N43 Zn49 2.020 1_565 S
C44 N43 1.306 1_545 S
C44 C48 1.370 . S
C44 H55 0.948 . S
C45 N43 1.333 1_455 S
C45 C46 1.379 . S
C45 H53 0.952 . S
C46 C45 1.379 . S
C46 C47 1.390 1_455 S
C46 H66 0.949 . S
C47 C46 1.390 1_655 S
C47 C48 1.357 1_565 S
C48 C44 1.370 . S
C48 C47 1.357 1_545 S
C48 H67 0.950 . S
Zn49 N43 2.020 1_545 S
Zn49 O52 2.025 . S
Zn49 O57 2.024 1_655 S
Zn49 O59 2.039 1_645 S
Zn49 O61 2.034 1_545 S
O50 C34 1.251 . S
O50 Zn41 2.039 1_645 S
C51 O56 1.246 . S
C51 O57 1.249 . S
O52 C34 1.254 . S
O52 Zn49 2.025 . S
H53 C45 0.952 . S
H54 C36 0.952 . S
H55 C44 0.948 . S
O56 Zn41 2.034 1_545 S
O56 C51 1.246 . S
O57 Zn49 2.024 1_455 S
O57 C51 1.249 . S
H58 C40 0.948 . S
O59 Zn49 2.039 1_465 S
O59 C63 1.251 . S
O60 Zn41 2.025 . S
O60 C63 1.254 . S
O61 C42 1.246 . S
O61 Zn49 2.034 1_565 S
O62 Zn41 2.024 1_655 S
O62 C42 1.249 . S
C63 O59 1.251 . S
C63 O60 1.254 . S
H64 C37 0.949 . S
H65 C39 0.950 . S
H66 C46 0.949 . S
H67 C48 0.950 . S
C68 O84 1.225 1_554 S
C68 O86 1.281 . S
N69 C70 1.333 . S
N69 C74 1.307 . S
N69 Zn75 2.020 . S
C70 N69 1.333 . S
C70 C71 1.379 . S
C70 H88 0.952 . S
C71 C70 1.379 . S
C71 C72 1.390 . S
C71 H98 0.949 . S
C72 C71 1.390 . S
C72 C73 1.357 . S
C73 C72 1.357 . S
C73 C74 1.370 . S
C73 H99 0.950 . S
C74 N69 1.307 . S
C74 C73 1.370 . S
C74 H92 0.948 . S
Zn75 N69 2.020 . S
Zn75 O84 2.039 . S
Zn75 O90 2.034 . S
Zn75 O94 2.025 . S
Zn75 O96 2.024 . S
C76 O95 1.246 . S
C76 O96 1.249 1_554 S
N77 C78 1.307 . S
N77 C79 1.333 . S
N77 Zn83 2.020 . S
C78 N77 1.307 . S
C78 C82 1.370 . S
C78 H89 0.948 . S
C79 N77 1.333 . S
C79 C80 1.379 . S
C79 H87 0.952 . S
C80 C79 1.379 . S
C80 C81 1.390 . S
C80 H100 0.949 . S
C81 C80 1.390 . S
C81 C82 1.357 . S
C82 C78 1.370 . S
C82 C81 1.357 . S
C82 H101 0.950 . S
Zn83 N77 2.020 . S
Zn83 O86 2.025 . S
Zn83 O91 2.024 . S
Zn83 O93 2.039 . S
Zn83 O95 2.034 . S
O84 C68 1.225 1_556 S
O84 Zn75 2.039 . S
C85 O90 1.246 1_554 S
C85 O91 1.249 . S
O86 C68 1.281 . S
O86 Zn83 2.025 . S
H87 C79 0.952 . S
H88 C70 0.952 . S
H89 C78 0.948 . S
O90 Zn75 2.034 . S
O90 C85 1.246 1_556 S
O91 Zn83 2.024 . S
O91 C85 1.249 . S
H92 C74 0.948 . S
O93 Zn83 2.039 . S
O93 C97 1.251 . S
O94 Zn75 2.025 . S
O94 C97 1.254 1_556 S
O95 C76 1.246 . S
O95 Zn83 2.034 . S
O96 Zn75 2.024 . S
O96 C76 1.249 1_556 S
C97 O93 1.251 . S
C97 O94 1.254 1_554 S
H98 C71 0.949 . S
H99 C73 0.950 . S
H100 C80 0.949 . S
H101 C82 0.950 . S
C102 O118 1.251 . S
C102 O120 1.254 . S
N103 C104 1.333 . S
N103 C108 1.307 . S
N103 Zn109 2.020 . S
C104 N103 1.333 . S
C104 C105 1.379 . S
C104 H122 0.952 . S
C105 C104 1.379 . S
C105 C106 1.390 . S
C105 H132 0.949 . S
C106 C105 1.390 . S
C106 C107 1.357 . S
C107 C106 1.357 . S
C107 C108 1.370 . S
C107 H133 0.950 . S
C108 N103 1.307 . S
C108 C107 1.370 . S
C108 H126 0.948 . S
Zn109 N103 2.020 . S
Zn109 O118 2.039 . S
Zn109 O124 2.034 . S
Zn109 O128 2.025 . S
Zn109 O130 2.024 . S
C110 O129 1.246 . S
C110 O130 1.249 . S
N111 C112 1.307 . S
N111 C113 1.333 . S
N111 Zn117 2.020 . S
C112 N111 1.307 . S
C112 C116 1.370 . S
C112 H123 0.948 . S
C113 N111 1.333 . S
C113 C114 1.379 . S
C113 H121 0.952 . S
C114 C113 1.379 . S
C114 C115 1.390 . S
C114 H134 0.949 . S
C115 C114 1.390 . S
C115 C116 1.357 . S
C116 C112 1.370 . S
C116 C115 1.357 . S
C116 H135 0.950 . S
Zn117 N111 2.020 . S
Zn117 O120 2.025 . S
Zn117 O125 2.024 . S
Zn117 O127 2.039 . S
Zn117 O129 2.034 . S
O118 C102 1.251 . S
O118 Zn109 2.039 . S
C119 O124 1.246 . S
C119 O125 1.249 . S
O120 C102 1.254 . S
O120 Zn117 2.025 . S
H121 C113 0.952 . S
H122 C104 0.952 . S
H123 C112 0.948 . S
O124 Zn109 2.034 . S
O124 C119 1.246 . S
O125 Zn117 2.024 . S
O125 C119 1.249 . S
H126 C108 0.948 . S
O127 Zn117 2.039 . S
O127 C131 1.251 . S
O128 Zn109 2.025 . S
O128 C131 1.254 . S
O129 C110 1.246 . S
O129 Zn117 2.034 . S
O130 Zn109 2.024 . S
O130 C110 1.249 . S
C131 O127 1.251 . S
C131 O128 1.254 . S
H132 C105 0.949 . S
H133 C107 0.950 . S
H134 C114 0.949 . S
H135 C116 0.950 . S
C136 C137 1.355 1_556 S
C136 C142 1.379 . S
C136 N144 1.356 . S
C137 C136 1.355 1_554 S
C137 C143 1.371 . S
C138 C139 1.363 . S
C138 C143 1.379 . S
C138 N145 1.356 . S
C139 C138 1.363 . S
C139 C142 1.363 1_554 S
N140 C142 1.356 . S
N140 H152 0.984 . S
N140 H153 0.985 . S
N141 C143 1.356 . S
N141 H146 0.984 . S
N141 H147 0.985 . S
C142 C136 1.379 . S
C142 C139 1.363 1_556 S
C142 N140 1.356 . S
C143 C137 1.371 . S
C143 C138 1.379 . S
C143 N141 1.356 . S
N144 C136 1.356 . S
N144 H150 0.984 . S
N144 H151 0.984 . S
N145 C138 1.356 . S
N145 H148 0.984 . S
N145 H149 0.985 . S
H146 N141 0.984 . S
H147 N141 0.985 . S
H148 N145 0.984 . S
H149 N145 0.985 . S
H150 N144 0.984 . S
H151 N144 0.984 . S
H152 N140 0.984 . S
H153 N140 0.985 . S
C154 C155 1.363 1_556 S
C154 C160 1.379 . S
C154 N162 1.356 . S
C155 C154 1.363 1_554 S
C155 C161 1.363 . S
C156 C157 1.371 . S
C156 C161 1.379 . S
C156 N163 1.356 . S
C157 C156 1.371 . S
C157 C160 1.356 1_554 S
N158 C160 1.356 . S
N158 H170 0.984 . S
N158 H171 0.985 . S
N159 C161 1.356 . S
N159 H164 0.984 . S
N159 H165 0.985 . S
C160 C154 1.379 . S
C160 C157 1.356 1_556 S
C160 N158 1.356 . S
C161 C155 1.363 . S
C161 C156 1.379 . S
C161 N159 1.356 . S
N162 C154 1.356 . S
N162 H168 0.984 . S
N162 H169 0.984 . S
N163 C156 1.356 . S
N163 H166 0.984 1_655 S
N163 H167 0.985 . S
H164 N159 0.984 . S
H165 N159 0.985 . S
H166 N163 0.984 1_455 S
H167 N163 0.985 . S
H168 N162 0.984 . S
H169 N162 0.984 . S
H170 N158 0.984 . S
H171 N158 0.985 . S
C172 C173 1.363 . S
C172 C178 1.379 . S
C172 N180 1.356 . S
C173 C172 1.363 . S
C173 C179 1.363 . S
C174 C175 1.363 . S
C174 C179 1.379 . S
C174 N181 1.356 . S
C175 C174 1.363 . S
C175 C178 1.363 . S
N176 C178 1.356 . S
N176 H188 0.984 . S
N176 H189 0.985 . S
N177 C179 1.356 . S
N177 H182 0.984 . S
N177 H183 0.985 . S
C178 C172 1.379 . S
C178 C175 1.363 . S
C178 N176 1.356 . S
C179 C173 1.363 . S
C179 C174 1.379 . S
C179 N177 1.356 . S
N180 C172 1.356 . S
N180 H186 0.984 . S
N180 H187 0.984 . S
N181 C174 1.356 . S
N181 H184 0.984 . S
N181 H185 0.985 . S
H182 N177 0.984 . S
H183 N177 0.985 . S
H184 N181 0.984 . S
H185 N181 0.985 . S
H186 N180 0.984 . S
H187 N180 0.984 . S
H188 N176 0.984 . S
H189 N176 0.985 . S
C190 C191 1.363 . S
C190 C196 1.379 . S
C190 N198 1.356 . S
C191 C190 1.363 . S
C191 C197 1.363 . S
C192 C193 1.363 . S
C192 C197 1.379 . S
C192 N199 1.356 . S
C193 C192 1.363 . S
C193 C196 1.363 . S
N194 C196 1.356 . S
N194 H206 0.984 . S
N194 H207 0.985 . S
N195 C197 1.356 . S
N195 H200 0.984 . S
N195 H201 0.985 . S
C196 C190 1.379 . S
C196 C193 1.363 . S
C196 N194 1.356 . S
C197 C191 1.363 . S
C197 C192 1.379 . S
C197 N195 1.356 . S
N198 C190 1.356 . S
N198 H204 0.984 . S
N198 H205 0.984 1_655 S
N199 C192 1.356 . S
N199 H202 0.984 . S
N199 H203 0.985 . S
H200 N195 0.984 . S
H201 N195 0.985 . S
H202 N199 0.984 . S
H203 N199 0.985 . S
H204 N198 0.984 . S
H205 N198 0.984 1_455 S
H206 N194 0.984 . S
H207 N194 0.985 . S
C208 C209 1.375 . S
C208 C214 1.379 . S
C208 N216 1.356 . S
C209 C208 1.375 . S
C209 C215 1.351 1_544 S
C210 C211 1.363 1_556 S
C210 C215 1.379 . S
C210 N217 1.356 . S
C211 C210 1.363 1_554 S
C211 C214 1.363 1_565 S
N212 C214 1.356 . S
N212 H224 0.984 . S
N212 H225 0.985 . S
N213 C215 1.356 . S
N213 H218 0.984 . S
N213 H219 0.985 . S
C214 C208 1.379 . S
C214 C211 1.363 1_545 S
C214 N212 1.356 . S
C215 C209 1.351 1_566 S
C215 C210 1.379 . S
C215 N213 1.356 . S
N216 C208 1.356 . S
N216 H222 0.984 . S
N216 H223 0.984 . S
N217 C210 1.356 . S
N217 H220 0.984 . S
N217 H221 0.985 . S
H218 N213 0.984 . S
H219 N213 0.985 . S
H220 N217 0.984 . S
H221 N217 0.985 . S
H222 N216 0.984 . S
H223 N216 0.984 . S
H224 N212 0.984 . S
H225 N212 0.985 . S
C226 C227 1.363 . S
C226 C232 1.379 . S
C226 N234 1.356 . S
C227 C226 1.363 . S
C227 C233 1.363 1_565 S
C228 C229 1.363 . S
C228 C233 1.379 . S
C228 N235 1.356 . S
C229 C228 1.363 . S
C229 C232 1.363 1_545 S
N230 C232 1.356 . S
N230 H242 0.984 . S
N230 H243 0.985 . S
N231 C233 1.356 . S
N231 H236 0.984 . S
N231 H237 0.985 . S
C232 C226 1.379 . S
C232 C229 1.363 1_565 S
C232 N230 1.356 . S
C233 C227 1.363 1_545 S
C233 C228 1.379 . S
C233 N231 1.356 . S
N234 C226 1.356 . S
N234 H240 0.984 . S
N234 H241 0.984 . S
N235 C228 1.356 . S
N235 H238 0.984 . S
N235 H239 0.985 . S
H236 N231 0.984 . S
H237 N231 0.985 . S
H238 N235 0.984 . S
H239 N235 0.985 . S
H240 N234 0.984 . S
H241 N234 0.984 . S
H242 N230 0.984 . S
H243 N230 0.985 . S
C244 C245 1.349 1_556 S
C244 C250 1.379 1_655 S
C244 N252 1.356 . S
C245 C244 1.349 1_554 S
C245 C251 1.377 . S
C246 C247 1.363 . S
C246 C251 1.379 1_455 S
C246 N253 1.356 . S
C247 C246 1.363 . S
C247 C250 1.363 1_554 S
N248 C250 1.356 . S
N248 H260 0.984 . S
N248 H261 0.985 . S
N249 C251 1.356 . S
N249 H254 0.984 . S
N249 H255 0.985 . S
C250 C244 1.379 1_455 S
C250 C247 1.363 1_556 S
C250 N248 1.356 . S
C251 C245 1.377 . S
C251 C246 1.379 1_655 S
C251 N249 1.356 . S
N252 C244 1.356 . S
N252 H258 0.984 . S
N252 H259 0.984 . S
N253 C246 1.356 . S
N253 H256 0.984 . S
N253 H257 0.985 . S
H254 N249 0.984 . S
H255 N249 0.985 . S
H256 N253 0.984 . S
H257 N253 0.985 . S
H258 N252 0.984 . S
H259 N252 0.984 . S
H260 N248 0.984 . S
H261 N248 0.985 . S
C262 C263 1.363 . S
C262 C268 1.379 1_455 S
C262 N270 1.356 . S
C263 C262 1.363 . S
C263 C269 1.363 . S
C264 C265 1.363 . S
C264 C269 1.379 1_655 S
C264 N271 1.356 . S
C265 C264 1.363 . S
C265 C268 1.363 . S
N266 C268 1.356 . S
N266 H278 0.984 . S
N266 H279 0.985 . S
N267 C269 1.356 . S
N267 H272 0.984 . S
N267 H273 0.985 . S
C268 C262 1.379 1_655 S
C268 C265 1.363 . S
C268 N266 1.356 . S
C269 C263 1.363 . S
C269 C264 1.379 1_455 S
C269 N267 1.356 . S
N270 C262 1.356 . S
N270 H276 0.984 . S
N270 H277 0.984 . S
N271 C264 1.356 . S
N271 H274 0.984 . S
N271 H275 0.985 . S
H272 N267 0.984 . S
H273 N267 0.985 . S
H274 N271 0.984 . S
H275 N271 0.985 . S
H276 N270 0.984 . S
H277 N270 0.984 . S
H278 N266 0.984 . S
H279 N266 0.985 . S
C280 C281 1.363 1_645 S
C280 C286 1.379 . S
C280 N288 1.356 . S
C281 C280 1.363 1_465 S
C281 C287 1.363 . S
C282 C283 1.363 1_455 S
C282 C287 1.379 . S
C282 N289 1.356 . S
C283 C282 1.363 1_655 S
C283 C286 1.363 1_565 S
N284 C286 1.356 . S
N284 H296 0.984 . S
N284 H297 0.985 . S
N285 C287 1.356 . S
N285 H290 0.984 . S
N285 H291 0.985 . S
C286 C280 1.379 . S
C286 C283 1.363 1_545 S
C286 N284 1.356 . S
C287 C281 1.363 . S
C287 C282 1.379 . S
C287 N285 1.356 . S
N288 C280 1.356 . S
N288 H294 0.984 . S
N288 H295 0.984 . S
N289 C282 1.356 . S
N289 H292 0.984 . S
N289 H293 0.985 . S
H290 N285 0.984 . S
H291 N285 0.985 . S
H292 N289 0.984 . S
H293 N289 0.985 . S
H294 N288 0.984 . S
H295 N288 0.984 . S
H296 N284 0.984 . S
H297 N284 0.985 . S
C298 C299 1.363 1_565 S
C298 C304 1.379 . S
C298 N306 1.356 . S
C299 C298 1.363 1_545 S
C299 C305 1.363 1_455 S
C300 C301 1.363 . S
C300 C305 1.379 . S
C300 N307 1.356 . S
C301 C300 1.363 . S
C301 C304 1.363 1_645 S
N302 C304 1.356 . S
N302 H314 0.984 . S
N302 H315 0.985 . S
N303 C305 1.356 . S
N303 H308 0.984 . S
N303 H309 0.985 . S
C304 C298 1.379 . S
C304 C301 1.363 1_465 S
C304 N302 1.356 . S
C305 C299 1.363 1_655 S
C305 C300 1.379 . S
C305 N303 1.356 . S
N306 C298 1.356 . S
N306 H312 0.984 . S
N306 H313 0.984 . S
N307 C300 1.356 . S
N307 H310 0.984 . S
N307 H311 0.985 . S
H308 N303 0.984 . S
H309 N303 0.985 . S
H310 N307 0.984 . S
H311 N307 0.985 . S
H312 N306 0.984 . S
H313 N306 0.984 . S
H314 N302 0.984 . S
H315 N302 0.985 . S
C316 C317 1.363 . S
C316 C322 1.379 . S
C316 N324 1.356 . S
C317 C316 1.363 . S
C317 C323 1.363 . S
C318 C319 1.363 . S
C318 C323 1.379 . S
C318 N325 1.356 . S
C319 C318 1.363 . S
C319 C322 1.363 . S
N320 C322 1.356 . S
N320 H332 0.984 . S
N320 H333 0.985 . S
N321 C323 1.356 . S
N321 H326 0.984 . S
N321 H327 0.985 . S
C322 C316 1.379 . S
C322 C319 1.363 . S
C322 N320 1.356 . S
C323 C317 1.363 . S
C323 C318 1.379 . S
C323 N321 1.356 . S
N324 C316 1.356 . S
N324 H330 0.984 . S
N324 H331 0.984 . S
N325 C318 1.356 . S
N325 H328 0.984 . S
N325 H329 0.985 . S
H326 N321 0.984 . S
H327 N321 0.985 . S
H328 N325 0.984 . S
H329 N325 0.985 . S
H330 N324 0.984 . S
H331 N324 0.984 . S
H332 N320 0.984 . S
H333 N320 0.985 . S
C334 C335 1.363 . S
C334 C340 1.379 . S
C334 N342 1.356 . S
C335 C334 1.363 . S
C335 C341 1.363 . S
C336 C337 1.363 . S
C336 C341 1.379 . S
C336 N343 1.356 . S
C337 C336 1.363 . S
C337 C340 1.363 . S
N338 C340 1.356 . S
N338 H350 0.984 . S
N338 H351 0.985 . S
N339 C341 1.356 . S
N339 H344 0.984 . S
N339 H345 0.985 . S
C340 C334 1.379 . S
C340 C337 1.363 . S
C340 N338 1.356 . S
C341 C335 1.363 . S
C341 C336 1.379 . S
C341 N339 1.356 . S
N342 C334 1.356 . S
N342 H348 0.984 . S
N342 H349 0.984 . S
N343 C336 1.356 . S
N343 H346 0.984 . S
N343 H347 0.985 . S
H344 N339 0.984 . S
H345 N339 0.985 . S
H346 N343 0.984 . S
H347 N343 0.985 . S
H348 N342 0.984 . S
H349 N342 0.984 . S
H350 N338 0.984 . S
H351 N338 0.985 . S
C137 C85 1.616 . S
C139 C8 1.617 . S
C155 C76 1.616 . S
C157 C17 1.614 . S
C173 C51 1.616 . S
C175 C110 1.614 . S
C191 C42 1.616 . S
C193 C119 1.618 . S
C209 C0 1.047 . S
C211 C29 1.047 . S
C227 C63 1.047 . S
C229 C34 1.047 . S
C245 C68 1.047 . S
C247 C97 1.047 . S
C263 C102 1.047 . S
C265 C131 1.047 . S
C281 C47 1.499 1_455 S
C283 C13 1.499 1_655 S
C299 C4 1.499 1_455 S
C301 C38 1.499 1_655 S
C317 C115 1.499 . S
C319 C81 1.499 . S
C335 C106 1.499 . S
C337 C72 1.499 . S
