# Generated by pormake.
# Topology unj, (4)-cn, num edge types: 1
# Building blocks:
#     Node 0, Type 0, BuildingBlock: KUFVIS_clean_sbu_0, # of connection points: 4
#     Node 1, Type 0, BuildingBlock: KUFVIS_clean_sbu_0, # of connection points: 4
#     Node 2, Type 0, BuildingBlock: KUFVIS_clean_sbu_0, # of connection points: 4
#     Node 3, Type 0, BuildingBlock: KUFVIS_clean_sbu_0, # of connection points: 4
#     Node 4, Type 0, BuildingBlock: KUFVIS_clean_sbu_0, # of connection points: 4
#     Node 5, Type 0, BuildingBlock: KUFVIS_clean_sbu_0, # of connection points: 4
#     Edge 6, Type (0, 0), BuildingBlock: XUDNAN_clean_linker_2, # of connection points: 2
#     Edge 7, Type (0, 0), BuildingBlock: XUDNAN_clean_linker_2, # of connection points: 2
#     Edge 8, Type (0, 0), BuildingBlock: XUDNAN_clean_linker_2, # of connection points: 2
#     Edge 9, Type (0, 0), BuildingBlock: XUDNAN_clean_linker_2, # of connection points: 2
#     Edge 10, Type (0, 0), BuildingBlock: XUDNAN_clean_linker_2, # of connection points: 2
#     Edge 11, Type (0, 0), BuildingBlock: XUDNAN_clean_linker_2, # of connection points: 2
#     Edge 12, Type (0, 0), BuildingBlock: XUDNAN_clean_linker_2, # of connection points: 2
#     Edge 13, Type (0, 0), BuildingBlock: XUDNAN_clean_linker_2, # of connection points: 2
#     Edge 14, Type (0, 0), BuildingBlock: XUDNAN_clean_linker_2, # of connection points: 2
#     Edge 15, Type (0, 0), BuildingBlock: XUDNAN_clean_linker_2, # of connection points: 2
#     Edge 16, Type (0, 0), BuildingBlock: XUDNAN_clean_linker_2, # of connection points: 2
#     Edge 17, Type (0, 0), BuildingBlock: XUDNAN_clean_linker_2, # of connection points: 2
# Relax obj value: 0.012
# Max RMSD: 0.052
# Mean RMSD: 0.052
data_MOF--net-unj--node1-KUFVIS_clean_sbu_0--edge1-XUDNAN_clean_linker_2
_symmetry_space_group_name_H-M    P1
_symmetry_Int_Tables_number       1
_symmetry_cell_setting            triclinic
loop_
_symmetry_equiv_pos_as_xyz
'x, y, z'
_cell_length_a     32.803551
_cell_length_b     32.819509
_cell_length_c     34.941207
_cell_angle_alpha  89.782385
_cell_angle_beta   89.998779
_cell_angle_gamma 120.35474
loop_
_atom_site_label
_atom_site_type_symbol
_atom_site_fract_x
_atom_site_fract_y
_atom_site_fract_z
_atom_type_partial_charge
Mn0 Mn 0.49333 0.23313 0.60678 0.0
Mn1 Mn 0.58538 0.22106 0.57916 0.0
C2 C 0.53219 0.21121 0.65067 0.0
C3 C 0.45908 0.27574 0.63021 0.0
C4 C 0.48377 0.14961 0.55989 0.0
O5 O 0.51415 0.2707 0.55665 0.0
O6 O 0.57685 0.26261 0.54235 0.0
C7 C 0.6633 0.3195 0.5898 0.0
N8 N 0.64284 0.27268 0.59836 0.0
C9 C 0.70811 0.28662 0.63864 0.0
C10 C 0.73001 0.33495 0.63007 0.0
C11 C 0.70735 0.35148 0.60574 0.0
C12 C 0.66401 0.25651 0.62222 0.0
H13 H 0.64624 0.33231 0.57081 0.0
C14 C 0.54969 0.27942 0.53564 0.0
O15 O 0.43539 0.23771 0.61017 0.0
O16 O 0.50358 0.29034 0.63569 0.0
N17 N 0.59771 0.18241 0.61286 0.0
C18 C 0.57193 0.13475 0.61821 0.0
C19 C 0.5893 0.11272 0.64237 0.0
C20 C 0.63316 0.13981 0.66048 0.0
C21 C 0.65932 0.18871 0.65417 0.0
C22 C 0.64019 0.20872 0.62981 0.0
H23 H 0.53825 0.1137 0.60434 0.0
O24 O 0.48884 0.20052 0.65676 0.0
O25 O 0.55095 0.23352 0.61896 0.0
O26 O 0.46605 0.17102 0.57738 0.0
O27 O 0.52811 0.16516 0.55844 0.0
C28 C 0.70372 0.21833 0.67093 0.0
C29 C 0.72825 0.26718 0.66296 0.0
H30 H 0.76407 0.35971 0.64221 0.0
H31 H 0.72394 0.38876 0.59912 0.0
H32 H 0.56893 0.07494 0.64702 0.0
H33 H 0.64641 0.12271 0.67915 0.0
H34 H 0.71939 0.20389 0.68993 0.0
H35 H 0.76241 0.28958 0.67598 0.0
Mn36 Mn 0.28534 0.5065 0.78452 0.0
Mn37 Mn 0.39328 0.58415 0.74836 0.0
C38 C 0.3483 0.55371 0.82514 0.0
C39 C 0.20917 0.48744 0.80398 0.0
C40 C 0.35133 0.47778 0.74723 0.0
O41 O 0.2713 0.51639 0.72914 0.0
O42 O 0.34394 0.57439 0.71095 0.0
C43 C 0.38868 0.67181 0.74244 0.0
N44 N 0.40977 0.64825 0.75651 0.0
C45 C 0.47103 0.71877 0.78629 0.0
C46 C 0.44997 0.74377 0.77208 0.0
C47 C 0.40857 0.72015 0.75013 0.0
C48 C 0.44975 0.67069 0.77751 0.0
H49 H 0.35688 0.65387 0.72554 0.0
C50 C 0.29931 0.5484 0.70556 0.0
O51 O 0.21848 0.45508 0.79369 0.0
O52 O 0.24406 0.53076 0.8032 0.0
N53 N 0.44328 0.59697 0.78329 0.0
C54 C 0.45682 0.56691 0.79749 0.0
C55 C 0.4965 0.58452 0.82144 0.0
C56 C 0.52185 0.63279 0.83043 0.0
C57 C 0.5069 0.66294 0.81586 0.0
C58 C 0.46728 0.64344 0.79196 0.0
H59 H 0.43753 0.5298 0.79061 0.0
O60 O 0.3129 0.51437 0.83773 0.0
O61 O 0.34616 0.5629 0.78941 0.0
O62 O 0.31423 0.46707 0.76654 0.0
O63 O 0.38183 0.52009 0.73806 0.0
C64 C 0.52933 0.7114 0.82459 0.0
C65 C 0.51144 0.73932 0.80978 0.0
H66 H 0.46499 0.78097 0.7782 0.0
H67 H 0.39202 0.73917 0.73917 0.0
H68 H 0.5076 0.56097 0.83285 0.0
H69 H 0.55256 0.64626 0.84876 0.0
H70 H 0.55994 0.72742 0.84313 0.0
H71 H 0.52852 0.77636 0.81722 0.0
Mn72 Mn 0.79904 0.29108 0.93858 0.0
Mn73 Mn 0.80525 0.39245 0.9109 0.0
C74 C 0.82064 0.35185 0.98228 0.0
C75 C 0.74919 0.21423 0.96246 0.0
C76 C 0.88067 0.36733 0.89119 0.0
O77 O 0.76331 0.2738 0.88781 0.0
O78 O 0.76224 0.34075 0.87592 0.0
C79 C 0.7069 0.36861 0.92654 0.0
N80 N 0.75414 0.39687 0.93256 0.0
C81 C 0.7413 0.44856 0.97295 0.0
C82 C 0.69252 0.42018 0.967 0.0
C83 C 0.67524 0.37984 0.94392 0.0
C84 C 0.77107 0.43524 0.95531 0.0
H85 H 0.69352 0.33784 0.9085 0.0
C86 C 0.74973 0.29781 0.86832 0.0
O87 O 0.78837 0.22485 0.9449 0.0
O88 O 0.73977 0.24778 0.96575 0.0
N89 N 0.84524 0.44532 0.94254 0.0
C90 C 0.89326 0.46902 0.94544 0.0
C91 C 0.91605 0.5096 0.96829 0.0
C92 C 0.88936 0.52577 0.98751 0.0
C93 C 0.84009 0.50129 0.98357 0.0
C94 C 0.8193 0.46096 0.96052 0.0
H95 H 0.91405 0.457 0.93061 0.0
O96 O 0.83023 0.31869 0.98896 0.0
O97 O 0.79823 0.3478 0.95069 0.0
O98 O 0.86346 0.3284 0.91004 0.0
O99 O 0.85982 0.3913 0.88861 0.0
C100 C 0.81084 0.51556 1.00137 0.0
C101 C 0.76154 0.48947 0.99577 0.0
H102 H 0.668 0.42886 0.98022 0.0
H103 H 0.63763 0.35765 0.93933 0.0
H104 H 0.95412 0.5284 0.97104 0.0
H105 H 0.90707 0.55709 1.0051 0.0
H106 H 0.8259 0.54663 0.01932 0.0
H107 H 0.73942 0.50085 1.00955 0.0
Mn108 Mn 0.56216 0.80759 0.10344 0.0
Mn109 Mn 0.46134 0.80507 0.07808 0.0
C110 C 0.51076 0.80748 0.14967 0.0
C111 C 0.60335 0.76924 0.12096 0.0
C112 C 0.55812 0.89303 0.0714 0.0
O113 O 0.55236 0.7828 0.04845 0.0
O114 O 0.48515 0.78342 0.03553 0.0
C115 C 0.39933 0.7016 0.07002 0.0
N116 N 0.40841 0.74313 0.08605 0.0
C117 C 0.3343 0.70479 0.11991 0.0
C118 C 0.32407 0.66165 0.10365 0.0
C119 C 0.35681 0.66004 0.07869 0.0
C120 C 0.37721 0.74506 0.11015 0.0
H121 H 0.42433 0.70018 0.05077 0.0
C122 C 0.5183 0.77558 0.02633 0.0
O123 O 0.62509 0.81205 0.10752 0.0
O124 O 0.55769 0.74829 0.12313 0.0
N125 N 0.4339 0.8245 0.11708 0.0
C126 C 0.45072 0.86815 0.13255 0.0
C127 C 0.42272 0.87554 0.15882 0.0
C128 C 0.37774 0.83806 0.16878 0.0
C129 C 0.36139 0.79336 0.15279 0.0
C130 C 0.39063 0.78823 0.12646 0.0
H131 H 0.48524 0.89702 0.12492 0.0
O132 O 0.55509 0.82451 0.15763 0.0
O133 O 0.49847 0.79253 0.11496 0.0
O134 O 0.58204 0.87466 0.08351 0.0
O135 O 0.5131 0.87015 0.06919 0.0
C136 C 0.31756 0.75354 0.16241 0.0
C137 C 0.30408 0.70926 0.14606 0.0
H138 H 0.2914 0.62947 0.1104 0.0
H139 H 0.34926 0.62685 0.06613 0.0
H140 H 0.43575 0.91004 0.17134 0.0
H141 H 0.35618 0.84387 0.189 0.0
H142 H 0.29432 0.75641 0.18285 0.0
H143 H 0.27067 0.67873 0.15419 0.0
Mn144 Mn 0.77387 0.53907 0.28315 0.0
Mn145 Mn 0.66539 0.461 0.25 0.0
C146 C 0.71007 0.50244 0.32509 0.0
C147 C 0.84757 0.55427 0.30547 0.0
C148 C 0.71169 0.56722 0.23843 0.0
O149 O 0.78713 0.52193 0.23036 0.0
O150 O 0.71397 0.46426 0.21396 0.0
C151 C 0.66815 0.37248 0.25675 0.0
N152 N 0.64792 0.39854 0.26613 0.0
C153 C 0.58717 0.33428 0.30274 0.0
C154 C 0.60713 0.30661 0.29323 0.0
C155 C 0.64798 0.32591 0.27036 0.0
C156 C 0.60904 0.38055 0.2886 0.0
H157 H 0.69931 0.38706 0.2389 0.0
C158 C 0.75864 0.48909 0.20798 0.0
O159 O 0.84223 0.58756 0.29049 0.0
O160 O 0.81026 0.51258 0.30748 0.0
N161 N 0.61542 0.45418 0.28263 0.0
C162 C 0.60054 0.48552 0.28922 0.0
C163 C 0.56058 0.472 0.31225 0.0
C164 C 0.53608 0.4263 0.32797 0.0
C165 C 0.5517 0.39447 0.32041 0.0
C166 C 0.59173 0.40994 0.29724 0.0
H167 H 0.61908 0.52063 0.27712 0.0
O168 O 0.7477 0.5416 0.3346 0.0
O169 O 0.71128 0.48624 0.29159 0.0
O170 O 0.74863 0.57883 0.25833 0.0
O171 O 0.67955 0.52436 0.23268 0.0
C172 C 0.52901 0.34798 0.33485 0.0
C173 C 0.54655 0.31782 0.32582 0.0
H174 H 0.59161 0.27064 0.3036 0.0
H175 H 0.66372 0.30486 0.26306 0.0
H176 H 0.5487 0.49674 0.31786 0.0
H177 H 0.50534 0.41602 0.3458 0.0
H178 H 0.49801 0.33504 0.35289 0.0
H179 H 0.52876 0.28211 0.33707 0.0
Mn180 Mn 0.2548 0.74979 0.43613 0.0
Mn181 Mn 0.24909 0.6448 0.42262 0.0
C182 C 0.23871 0.69786 0.48705 0.0
C183 C 0.29625 0.83095 0.44963 0.0
C184 C 0.16913 0.66162 0.40179 0.0
O185 O 0.28776 0.75987 0.38417 0.0
O186 O 0.28094 0.68826 0.37934 0.0
C187 C 0.35146 0.67882 0.4269 0.0
N188 N 0.30661 0.64944 0.43961 0.0
C189 C 0.33199 0.60593 0.47866 0.0
C190 C 0.37848 0.63569 0.46601 0.0
C191 C 0.38833 0.67262 0.44034 0.0
C192 C 0.29704 0.61496 0.46541 0.0
H193 H 0.35895 0.70643 0.40637 0.0
C194 C 0.29423 0.72962 0.36646 0.0
O195 O 0.25616 0.81098 0.43172 0.0
O196 O 0.31316 0.80401 0.45885 0.0
N197 N 0.21916 0.59802 0.46186 0.0
C198 C 0.17207 0.57049 0.46939 0.0
C199 C 0.15641 0.53256 0.4952 0.0
C200 C 0.18907 0.52221 0.51192 0.0
C201 C 0.23706 0.54963 0.50239 0.0
C202 C 0.25073 0.58766 0.47715 0.0
H203 H 0.14665 0.57761 0.45603 0.0
O204 O 0.2269 0.73002 0.48874 0.0
O205 O 0.26036 0.69734 0.45613 0.0
O206 O 0.18983 0.70504 0.41158 0.0
O207 O 0.18825 0.63621 0.40506 0.0
C208 C 0.27154 0.53958 0.51578 0.0
C209 C 0.31884 0.56729 0.50348 0.0
H210 H 0.40685 0.63043 0.47574 0.0
H211 H 0.42411 0.69571 0.4304 0.0
H212 H 0.11919 0.51107 0.50189 0.0
H213 H 0.1768 0.49257 0.53146 0.0
H214 H 0.26197 0.51025 0.53516 0.0
H215 H 0.34502 0.5591 0.51386 0.0
H216 H 0.49564 0.07367 0.5439 0.0
H217 H 0.39723 0.12445 0.53067 0.0
H218 H 0.34118 0.05049 0.49811 0.0
H219 H 0.46996 1.00955 0.45389 0.0
H220 H 0.47378 0.96103 0.47424 0.0
H221 H 0.50792 1.01928 0.49433 0.0
H222 H 0.47081 0.98656 0.56091 0.0
H223 H 0.43667 0.92822 0.54106 0.0
H224 H 0.40741 0.95431 0.566 0.0
H225 H 0.29547 0.97141 0.46736 0.0
H226 H 0.26005 0.88943 0.44473 0.0
H227 H 0.38522 0.88654 0.48082 0.0
C228 C 0.46247 0.06935 0.53386 0.0
C229 C 0.45095 0.10506 0.53975 0.0
C230 C 0.40684 0.09767 0.52663 0.0
C231 C 0.37482 0.05582 0.50792 0.0
C232 C 0.38703 0.02125 0.50284 0.0
C233 C 0.42954 0.02725 0.51571 0.0
C234 C 0.43253 0.98318 0.50849 0.0
C235 C 0.47348 0.99392 0.4811 0.0
C236 C 0.43711 0.96181 0.54637 0.0
C237 C 0.385 0.95154 0.48971 0.0
C238 C 0.35969 0.97458 0.48631 0.0
C239 C 0.31491 0.95296 0.4699 0.0
C240 C 0.29512 0.90634 0.45704 0.0
C241 C 0.31973 0.8814 0.461 0.0
C242 C 0.36548 0.90459 0.47738 0.0
H243 H 0.49876 0.36692 0.65755 0.0
H244 H 0.36487 0.23691 0.64287 0.0
H245 H 0.32351 0.27313 0.67397 0.0
H246 H 0.47323 0.39995 0.74931 0.0
H247 H 0.50204 0.46204 0.73801 0.0
H248 H 0.52189 0.42556 0.71595 0.0
H249 H 0.51001 0.45165 0.64879 0.0
H250 H 0.49045 0.48843 0.67067 0.0
H251 H 0.45332 0.44426 0.63637 0.0
H252 H 0.29649 0.32253 0.70797 0.0
H253 H 0.28478 0.3847 0.73641 0.0
H254 H 0.43514 0.4844 0.72572 0.0
C255 C 0.46078 0.34613 0.661 0.0
C256 C 0.43507 0.299 0.64792 0.0
C257 C 0.38532 0.2731 0.65256 0.0
C258 C 0.36148 0.29327 0.67039 0.0
C259 C 0.38774 0.33967 0.68309 0.0
C260 C 0.4362 0.36607 0.67819 0.0
C261 C 0.45553 0.41597 0.69282 0.0
C262 C 0.49023 0.42648 0.726 0.0
C263 C 0.47868 0.45221 0.66021 0.0
C264 C 0.41041 0.41336 0.70666 0.0
C265 C 0.37183 0.36883 0.70127 0.0
C266 C 0.32642 0.35763 0.71221 0.0
C267 C 0.32013 0.39312 0.72852 0.0
C268 C 0.35893 0.43947 0.73322 0.0
C269 C 0.40468 0.4494 0.72235 0.0
H270 H 0.94326 0.33265 0.88586 0.0
H271 H 0.928 0.45307 0.85581 0.0
H272 H 1.0085 0.49472 0.83093 0.0
H273 H 0.06429 0.39845 0.91482 0.0
H274 H 0.08137 0.35918 0.89385 0.0
H275 H 1.02126 0.33669 0.90919 0.0
H276 H 0.99133 0.30359 0.84138 0.0
H277 H 0.05135 0.32571 0.82588 0.0
H278 H 1.01423 0.34257 0.80055 0.0
H279 H 0.09197 0.52728 0.81372 0.0
H280 H 0.17271 0.54523 0.7982 0.0
H281 H 0.13615 0.40382 0.83362 0.0
C282 C 0.9567 0.36754 0.87371 0.0
C283 C 0.92867 0.38927 0.87328 0.0
C284 C 0.94805 0.43514 0.85689 0.0
C285 C 0.99413 0.45948 0.84259 0.0
C286 C 1.0209 0.43764 0.84406 0.0
C287 C 1.00297 0.39248 0.85851 0.0
C288 C 0.03999 0.37762 0.85586 0.0
C289 C 0.05246 0.36739 0.89581 0.0
C290 C 1.02322 0.33483 0.82933 0.0
C291 C 0.08133 0.42178 0.83829 0.0
C292 C 0.06936 0.45599 0.83214 0.0
C293 C 0.10172 0.50062 0.81792 0.0
C294 C 0.14759 0.5106 0.80936 0.0
C295 C 0.16066 0.47594 0.81445 0.0
C296 C 0.12695 0.43084 0.82904 0.0
H297 H 0.65073 0.94993 0.04533 0.0
H298 H 0.52026 0.94974 0.06761 0.0
H299 H 0.55579 0.03021 0.04216 0.0
H300 H 0.73099 0.07493 0.06845 0.0
H301 H 0.77213 0.0841 0.03058 0.0
H302 H 0.73773 0.02656 0.05227 0.0
H303 H 0.70609 0.99033 0.98555 0.0
H304 H 0.74007 0.04779 0.96369 0.0
H305 H 0.67714 1.0135 0.95626 0.0
H306 H 0.6021 0.10821 0.01335 0.0
H307 H 0.65919 0.18346 0.9837 0.0
H308 H 0.76222 0.13753 0.97744 0.0
C309 C 0.62999 0.96718 0.04533 0.0
C310 C 0.58257 0.94326 0.05869 0.0
C311 C 0.55647 0.96693 0.05762 0.0
C312 C 0.57635 1.01282 0.04316 0.0
C313 C 0.62252 0.03497 0.02959 0.0
C314 C 0.64933 1.01338 0.03055 0.0
C315 C 0.69793 0.04568 1.01306 0.0
C316 C 0.73701 0.05858 0.04287 0.0
C317 C 0.70575 0.02296 0.97753 0.0
C318 C 0.69385 0.08849 1.00216 0.0
C319 C 0.64984 0.08106 1.01218 0.0
C320 C 0.63678 0.11464 1.00548 0.0
C321 C 0.66966 0.15741 0.98855 0.0
C322 C 0.7154 0.16671 0.97824 0.0
C323 C 0.72752 0.13145 0.98482 0.0
H324 H 0.62983 0.55966 0.21065 0.0
H325 H 0.7791 0.66033 0.22618 0.0
H326 H 0.76841 0.72229 0.1954 0.0
H327 H 0.61625 0.60186 0.11915 0.0
H328 H 0.55845 0.5926 0.13005 0.0
H329 H 0.5782 0.556 0.15228 0.0
H330 H 0.56255 0.57881 0.21934 0.0
H331 H 0.54247 0.61522 0.19733 0.0
H332 H 0.58957 0.6403 0.23193 0.0
H333 H 0.74114 0.77315 0.16184 0.0
H334 H 0.69863 0.81006 0.13311 0.0
H335 H 0.56684 0.67657 0.14214 0.0
C336 C 0.66041 0.59467 0.20754 0.0
C337 C 0.70541 0.60499 0.22077 0.0
C338 C 0.74427 0.6515 0.2164 0.0
C339 C 0.73857 0.6869 0.19878 0.0
C340 C 0.69373 0.6754 0.18597 0.0
C341 C 0.65525 0.63049 0.19051 0.0
C342 C 0.61047 0.62757 0.1756 0.0
C343 C 0.58963 0.59243 0.14229 0.0
C344 C 0.57413 0.61473 0.20798 0.0
C345 C 0.62968 0.67788 0.16191 0.0
C346 C 0.67786 0.70484 0.16778 0.0
C347 C 0.7034 0.75236 0.15722 0.0
C348 C 0.67897 0.77298 0.14079 0.0
C349 C 0.62941 0.74626 0.1354 0.0
C350 C 0.60471 0.69799 0.14591 0.0
H351 H 0.11647 0.7024 0.3788 0.0
H352 H 0.10987 0.56725 0.39061 0.0
H353 H 1.02829 0.52668 0.36728 0.0
H354 H 0.9966 0.66234 0.40784 0.0
H355 H 0.98735 0.69785 0.37335 0.0
H356 H 0.04587 0.71733 0.3912 0.0
H357 H 0.07632 0.72345 0.32184 0.0
H358 H 1.01789 0.704 0.30376 0.0
H359 H 0.04787 0.67268 0.291 0.0
H360 H 0.94712 0.49955 0.34492 0.0
H361 H 0.87109 0.48771 0.32157 0.0
H362 H 0.92866 0.63944 0.32081 0.0
C363 C 0.09786 0.6643 0.37648 0.0
C364 C 0.11992 0.63822 0.38684 0.0
C365 C 0.09418 0.58833 0.38304 0.0
C366 C 0.0476 0.56475 0.36979 0.0
C367 C 1.02697 0.59134 0.35997 0.0
C368 C 0.05115 0.63998 0.36279 0.0
C369 C 1.02031 0.65971 0.34969 0.0
C370 C 1.01205 0.68585 0.38248 0.0
C371 C 0.04189 0.69186 0.31448 0.0
C372 C 0.97508 0.61447 0.33944 0.0
C373 C 0.97988 0.57554 0.34583 0.0
C374 C 0.94294 0.52973 0.33957 0.0
C375 C 0.89982 0.52338 0.32638 0.0
C376 C 0.89391 0.56259 0.31922 0.0
C377 C 0.93223 0.60879 0.32573 0.0
H378 H 0.61295 0.29536 0.47823 0.0
H379 H 0.51733 0.34062 0.51954 0.0
H380 H 0.54575 0.40156 0.46852 0.0
H381 H 0.70844 0.41173 0.45575 0.0
H382 H 0.72683 0.39208 0.41457 0.0
H383 H 0.6983 0.35244 0.45421 0.0
H384 H 0.63843 0.293 0.40764 0.0
H385 H 0.66178 0.33218 0.36704 0.0
H386 H 0.60058 0.30705 0.38074 0.0
H387 H 0.59358 0.46491 0.41806 0.0
H388 H 0.6469 0.51622 0.36619 0.0
H389 H 0.70287 0.42258 0.3537 0.0
C390 C 0.59745 0.31764 0.47647 0.0
C391 C 0.56274 0.313 0.503 0.0
C392 C 0.54368 0.34316 0.49947 0.0
C393 C 0.55982 0.37808 0.4707 0.0
C394 C 0.5947 0.38212 0.44549 0.0
C395 C 0.61285 0.35229 0.44794 0.0
C396 C 0.65047 0.36403 0.4179 0.0
C397 C 0.69886 0.38108 0.43674 0.0
C398 C 0.63702 0.32162 0.39169 0.0
C399 C 0.6496 0.40416 0.39714 0.0
C400 C 0.61855 0.41536 0.41434 0.0
C401 C 0.61679 0.45548 0.40357 0.0
C402 C 0.64705 0.48439 0.37418 0.0
C403 C 0.67698 0.47182 0.35498 0.0
C404 C 0.67845 0.43146 0.36682 0.0
H405 H 0.31293 0.70725 0.52784 0.0
H406 H 0.16014 0.63167 0.52531 0.0
H407 H 0.15784 0.58219 0.58026 0.0
H408 H 0.34341 0.62225 0.56207 0.0
H409 H 0.38682 0.66601 0.59267 0.0
H410 H 0.36961 0.68397 0.54979 0.0
H411 H 0.35409 0.73682 0.59935 0.0
H412 H 0.36413 0.7088 0.63983 0.0
H413 H 0.30871 0.70727 0.63513 0.0
H414 H 0.17414 0.53496 0.6307 0.0
H415 H 0.20613 0.50649 0.68187 0.0
H416 H 0.34761 0.62101 0.65502 0.0
C417 C 0.27912 0.67993 0.53881 0.0
C418 C 0.23667 0.67102 0.52144 0.0
C419 C 0.19291 0.63753 0.53777 0.0
C420 C 0.19134 0.60941 0.56881 0.0
C421 C 0.23397 0.61744 0.58433 0.0
C422 C 0.27698 0.65343 0.57096 0.0
C423 C 0.31717 0.65961 0.5962 0.0
C424 C 0.35651 0.65795 0.57367 0.0
C425 C 0.33719 0.70586 0.61897 0.0
C426 C 0.29087 0.61723 0.62225 0.0
C427 C 0.24281 0.59384 0.61571 0.0
C428 C 0.2117 0.55338 0.63639 0.0
C429 C 0.23023 0.53715 0.66509 0.0
C430 C 0.27945 0.56113 0.67248 0.0
C431 C 0.30984 0.60136 0.65023 0.0
H432 H 0.72387 0.34033 0.81341 0.0
H433 H 0.69903 0.20312 0.85039 0.0
H434 H 0.64037 0.16529 0.79857 0.0
H435 H 0.60155 0.3 0.78794 0.0
H436 H 0.6184 0.34045 0.7481 0.0
H437 H 0.65641 0.35551 0.78921 0.0
H438 H 0.72342 0.37016 0.7445 0.0
H439 H 0.68709 0.35028 0.70229 0.0
H440 H 0.72045 0.32285 0.71692 0.0
H441 H 0.57773 0.14222 0.74635 0.0
H442 H 0.52684 0.13726 0.69175 0.0
H443 H 0.60117 0.28981 0.68442 0.0
C444 C 0.7063 0.3023 0.8107 0.0
C445 C 0.71623 0.27477 0.83611 0.0
C446 C 0.69231 0.22509 0.83125 0.0
C447 C 0.65869 0.20323 0.80202 0.0
C448 C 0.64957 0.23151 0.77772 0.0
C449 C 0.67304 0.28002 0.78163 0.0
C450 C 0.6575 0.3027 0.75162 0.0
C451 C 0.63195 0.32603 0.77034 0.0
C452 C 0.69953 0.33855 0.7273 0.0
C453 C 0.62322 0.25956 0.72898 0.0
C454 C 0.61746 0.21859 0.74545 0.0
C455 C 0.58298 0.17408 0.73253 0.0
C456 C 0.5543 0.1715 0.7016 0.0
C457 C 0.56187 0.21306 0.68302 0.0
C458 C 0.59637 0.25752 0.69717 0.0
H459 H 0.39842 0.55327 0.88963 0.0
H460 H 0.35997 0.64036 0.82298 0.0
H461 H 0.41392 0.70972 0.86092 0.0
H462 H 0.39547 0.60928 0.97788 0.0
H463 H 0.44176 0.60383 1.00069 0.0
H464 H 0.4053 0.56177 0.96496 0.0
H465 H 0.48078 0.5812 0.92514 0.0
H466 H 0.51586 0.62178 0.96238 0.0
H467 H 0.52245 0.64208 0.91368 0.0
H468 H 0.47397 0.77016 0.90173 0.0
H469 H 0.51337 0.81414 0.96014 0.0
H470 H 0.50631 0.68883 1.00829 0.0
C471 C 0.40222 0.58723 0.88283 0.0
C472 C 0.37798 0.59254 0.85149 0.0
C473 C 0.38083 0.63646 0.84516 0.0
C474 C 0.41136 0.67606 0.86654 0.0
C475 C 0.43776 0.6709 0.89518 0.0
C476 C 0.43188 0.62736 0.90487 0.0
C477 C 0.45795 0.63085 0.94184 0.0
C478 C 0.42304 0.59959 0.9732 0.0
C479 C 0.49651 0.61816 0.93533 0.0
C480 C 0.47951 0.68311 0.9508 0.0
C481 C 0.46867 0.70553 0.92246 0.0
C482 C 0.48275 0.75319 0.92425 0.0
C483 C 0.50563 0.77804 0.95727 0.0
C484 C 0.51355 0.75506 0.9882 0.0
C485 C 0.50212 0.70752 0.98441 0.0
H486 H 0.74567 0.34492 0.02019 0.0
H487 H 0.89851 0.42246 0.01765 0.0
H488 H 0.89968 0.4701 0.07314 0.0
H489 H 0.71851 0.43388 0.05706 0.0
H490 H 0.67307 0.38973 0.08679 0.0
H491 H 0.6887 0.37267 0.04274 0.0
H492 H 0.70058 0.31318 0.08572 0.0
H493 H 0.69005 0.33657 0.12874 0.0
H494 H 0.74456 0.33646 0.12295 0.0
H495 H 0.88313 0.50954 0.12872 0.0
H496 H 0.85149 0.53106 0.18439 0.0
H497 H 0.7097 0.4203 0.15449 0.0
C498 C 0.77925 0.37284 0.03085 0.0
C499 C 0.82205 0.38204 0.01379 0.0
C500 C 0.86549 0.41643 0.02972 0.0
C501 C 0.86639 0.44344 0.06116 0.0
C502 C 0.82347 0.43393 0.07722 0.0
C503 C 0.78071 0.39864 0.06312 0.0
C504 C 0.74012 0.39047 0.08893 0.0
C505 C 0.70296 0.39707 0.06748 0.0
C506 C 0.71751 0.34127 0.10769 0.0
C507 C 0.76628 0.42898 0.11814 0.0
C508 C 0.81431 0.45352 0.11109 0.0
C509 C 0.84556 0.49048 0.13454 0.0
C510 C 0.82721 0.50252 0.16606 0.0
C511 C 0.77802 0.4776 0.17391 0.0
C512 C 0.74742 0.44038 0.14939 0.0
H513 H 0.37592 0.81036 0.34196 0.0
H514 H 0.26508 0.67142 0.30631 0.0
H515 H 0.30968 0.6779 0.24794 0.0
H516 H 0.40473 0.86322 0.24622 0.0
H517 H 0.46793 0.89622 0.25236 0.0
H518 H 0.42927 0.88468 0.29273 0.0
H519 H 0.46619 0.845 0.33074 0.0
H520 H 0.50771 0.85779 0.29238 0.0
H521 H 0.47161 0.79802 0.30945 0.0
H522 H 0.37048 0.69079 0.20193 0.0
H523 H 0.43637 0.72019 0.15627 0.0
H524 H 0.50694 0.85527 0.2142 0.0
C525 C 0.36055 0.78219 0.32113 0.0
C526 C 0.31705 0.74034 0.32851 0.0
C527 C 0.29837 0.70365 0.30114 0.0
C528 C 0.32353 0.70684 0.26805 0.0
C529 C 0.36727 0.74716 0.26248 0.0
C530 C 0.38535 0.7849 0.2874 0.0
C531 C 0.43392 0.8236 0.27398 0.0
C532 C 0.434 0.86966 0.26577 0.0
C533 C 0.4721 0.83155 0.3034 0.0
C534 C 0.43958 0.80156 0.23756 0.0
C535 C 0.40118 0.75675 0.23265 0.0
C536 C 0.39982 0.72658 0.20428 0.0
C537 C 0.43732 0.74362 0.17846 0.0
C538 C 0.47494 0.79082 0.1803 0.0
C539 C 0.47731 0.81972 0.21121 0.0
loop_
_geom_bond_atom_site_label_1
_geom_bond_atom_site_label_2
_geom_bond_distance
_geom_bond_site_symmetry_2
_ccdc_geom_bond_type
Mn0 O5 2.095 . S
Mn0 O15 2.162 . S
Mn0 O16 2.297 . S
Mn0 O24 2.385 . S
Mn0 O25 2.209 . S
Mn0 O26 2.094 . S
Mn1 O6 2.121 . S
Mn1 N8 2.257 . S
Mn1 N17 2.282 . S
Mn1 O25 2.215 . S
Mn1 O27 2.117 . S
C2 O24 1.234 . S
C2 O25 1.283 . S
C3 O15 1.281 . S
C3 O16 1.236 . S
C4 O26 1.240 . S
C4 O27 1.264 . S
O5 Mn0 2.095 . S
O5 C14 1.250 . S
O6 Mn1 2.121 . S
O6 C14 1.258 . S
C7 N8 1.326 . S
C7 C11 1.460 . S
C7 H13 0.929 . S
N8 Mn1 2.257 . S
N8 C7 1.326 . S
N8 C12 1.362 . S
C9 C10 1.258 . S
C9 C12 1.431 . S
C9 C29 1.449 . S
C10 C9 1.258 . S
C10 C11 1.477 . S
C10 H30 0.931 . S
C11 C7 1.460 . S
C11 C10 1.477 . S
C11 H31 0.930 . S
C12 N8 1.362 . S
C12 C9 1.431 . S
C12 C22 1.476 . S
H13 C7 0.929 . S
C14 O5 1.250 . S
C14 O6 1.258 . S
O15 Mn0 2.162 . S
O15 C3 1.281 . S
O16 Mn0 2.297 . S
O16 C3 1.236 . S
N17 Mn1 2.282 . S
N17 C18 1.328 . S
N17 C22 1.318 . S
C18 N17 1.328 . S
C18 C19 1.457 . S
C18 H23 0.929 . S
C19 C18 1.457 . S
C19 C20 1.291 . S
C19 H32 0.931 . S
C20 C19 1.291 . S
C20 C21 1.373 . S
C20 H33 0.929 . S
C21 C20 1.373 . S
C21 C22 1.396 . S
C21 C28 1.403 . S
C22 C12 1.476 . S
C22 N17 1.318 . S
C22 C21 1.396 . S
H23 C18 0.929 . S
O24 Mn0 2.385 . S
O24 C2 1.234 . S
O25 Mn0 2.209 . S
O25 Mn1 2.215 . S
O25 C2 1.283 . S
O26 Mn0 2.094 . S
O26 C4 1.240 . S
O27 Mn1 2.117 . S
O27 C4 1.264 . S
C28 C21 1.403 . S
C28 C29 1.399 . S
C28 H34 0.929 . S
C29 C9 1.449 . S
C29 C28 1.399 . S
C29 H35 0.930 . S
H30 C10 0.931 . S
H31 C11 0.930 . S
H32 C19 0.931 . S
H33 C20 0.929 . S
H34 C28 0.929 . S
H35 C29 0.930 . S
Mn36 O41 2.095 . S
Mn36 O51 2.162 . S
Mn36 O52 2.297 . S
Mn36 O60 2.385 . S
Mn36 O61 2.209 . S
Mn36 O62 2.094 . S
Mn37 O42 2.121 . S
Mn37 N44 2.257 . S
Mn37 N53 2.282 . S
Mn37 O61 2.215 . S
Mn37 O63 2.117 . S
C38 O60 1.234 . S
C38 O61 1.283 . S
C39 O51 1.281 . S
C39 O52 1.236 . S
C40 O62 1.240 . S
C40 O63 1.264 . S
O41 Mn36 2.095 . S
O41 C50 1.250 . S
O42 Mn37 2.121 . S
O42 C50 1.258 . S
C43 N44 1.326 . S
C43 C47 1.460 . S
C43 H49 0.929 . S
N44 Mn37 2.257 . S
N44 C43 1.326 . S
N44 C48 1.362 . S
C45 C46 1.258 . S
C45 C48 1.431 . S
C45 C65 1.449 . S
C46 C45 1.258 . S
C46 C47 1.477 . S
C46 H66 0.931 . S
C47 C43 1.460 . S
C47 C46 1.477 . S
C47 H67 0.930 . S
C48 N44 1.362 . S
C48 C45 1.431 . S
C48 C58 1.476 . S
H49 C43 0.929 . S
C50 O41 1.250 . S
C50 O42 1.258 . S
O51 Mn36 2.162 . S
O51 C39 1.281 . S
O52 Mn36 2.297 . S
O52 C39 1.236 . S
N53 Mn37 2.282 . S
N53 C54 1.328 . S
N53 C58 1.318 . S
C54 N53 1.328 . S
C54 C55 1.457 . S
C54 H59 0.929 . S
C55 C54 1.457 . S
C55 C56 1.291 . S
C55 H68 0.931 . S
C56 C55 1.291 . S
C56 C57 1.373 . S
C56 H69 0.929 . S
C57 C56 1.373 . S
C57 C58 1.396 . S
C57 C64 1.403 . S
C58 C48 1.476 . S
C58 N53 1.318 . S
C58 C57 1.396 . S
H59 C54 0.929 . S
O60 Mn36 2.385 . S
O60 C38 1.234 . S
O61 Mn36 2.209 . S
O61 Mn37 2.215 . S
O61 C38 1.283 . S
O62 Mn36 2.094 . S
O62 C40 1.240 . S
O63 Mn37 2.117 . S
O63 C40 1.264 . S
C64 C57 1.403 . S
C64 C65 1.399 . S
C64 H70 0.929 . S
C65 C45 1.449 . S
C65 C64 1.399 . S
C65 H71 0.930 . S
H66 C46 0.931 . S
H67 C47 0.930 . S
H68 C55 0.931 . S
H69 C56 0.929 . S
H70 C64 0.929 . S
H71 C65 0.930 . S
Mn72 O77 2.095 . S
Mn72 O87 2.162 . S
Mn72 O88 2.297 . S
Mn72 O96 2.385 . S
Mn72 O97 2.209 . S
Mn72 O98 2.094 . S
Mn73 O78 2.121 . S
Mn73 N80 2.257 . S
Mn73 N89 2.282 . S
Mn73 O97 2.215 . S
Mn73 O99 2.117 . S
C74 O96 1.234 . S
C74 O97 1.283 . S
C75 O87 1.281 . S
C75 O88 1.236 . S
C76 O98 1.240 . S
C76 O99 1.264 . S
O77 Mn72 2.095 . S
O77 C86 1.250 . S
O78 Mn73 2.121 . S
O78 C86 1.258 . S
C79 N80 1.326 . S
C79 C83 1.460 . S
C79 H85 0.929 . S
N80 Mn73 2.257 . S
N80 C79 1.326 . S
N80 C84 1.362 . S
C81 C82 1.258 . S
C81 C84 1.431 . S
C81 C101 1.449 . S
C82 C81 1.258 . S
C82 C83 1.477 . S
C82 H102 0.931 . S
C83 C79 1.460 . S
C83 C82 1.477 . S
C83 H103 0.930 . S
C84 N80 1.362 . S
C84 C81 1.431 . S
C84 C94 1.476 . S
H85 C79 0.929 . S
C86 O77 1.250 . S
C86 O78 1.258 . S
O87 Mn72 2.162 . S
O87 C75 1.281 . S
O88 Mn72 2.297 . S
O88 C75 1.236 . S
N89 Mn73 2.282 . S
N89 C90 1.328 . S
N89 C94 1.318 . S
C90 N89 1.328 . S
C90 C91 1.457 . S
C90 H95 0.929 . S
C91 C90 1.457 . S
C91 C92 1.291 . S
C91 H104 0.931 . S
C92 C91 1.291 . S
C92 C93 1.373 . S
C92 H105 0.929 1_556 S
C93 C92 1.373 . S
C93 C94 1.396 . S
C93 C100 1.403 . S
C94 C84 1.476 . S
C94 N89 1.318 . S
C94 C93 1.396 . S
H95 C90 0.929 . S
O96 Mn72 2.385 . S
O96 C74 1.234 . S
O97 Mn72 2.209 . S
O97 Mn73 2.215 . S
O97 C74 1.283 . S
O98 Mn72 2.094 . S
O98 C76 1.240 . S
O99 Mn73 2.117 . S
O99 C76 1.264 . S
C100 C93 1.403 . S
C100 C101 1.399 . S
C100 H106 0.929 1_556 S
C101 C81 1.449 . S
C101 C100 1.399 . S
C101 H107 0.930 . S
H102 C82 0.931 . S
H103 C83 0.930 . S
H104 C91 0.931 . S
H105 C92 0.929 1_554 S
H106 C100 0.929 1_554 S
H107 C101 0.930 . S
Mn108 O113 2.095 . S
Mn108 O123 2.162 . S
Mn108 O124 2.297 . S
Mn108 O132 2.385 . S
Mn108 O133 2.209 . S
Mn108 O134 2.094 . S
Mn109 O114 2.121 . S
Mn109 N116 2.257 . S
Mn109 N125 2.282 . S
Mn109 O133 2.215 . S
Mn109 O135 2.117 . S
C110 O132 1.234 . S
C110 O133 1.283 . S
C111 O123 1.281 . S
C111 O124 1.236 . S
C112 O134 1.240 . S
C112 O135 1.264 . S
O113 Mn108 2.095 . S
O113 C122 1.250 . S
O114 Mn109 2.121 . S
O114 C122 1.258 . S
C115 N116 1.326 . S
C115 C119 1.460 . S
C115 H121 0.929 . S
N116 Mn109 2.257 . S
N116 C115 1.326 . S
N116 C120 1.362 . S
C117 C118 1.258 . S
C117 C120 1.431 . S
C117 C137 1.449 . S
C118 C117 1.258 . S
C118 C119 1.477 . S
C118 H138 0.931 . S
C119 C115 1.460 . S
C119 C118 1.477 . S
C119 H139 0.930 . S
C120 N116 1.362 . S
C120 C117 1.431 . S
C120 C130 1.476 . S
H121 C115 0.929 . S
C122 O113 1.250 . S
C122 O114 1.258 . S
O123 Mn108 2.162 . S
O123 C111 1.281 . S
O124 Mn108 2.297 . S
O124 C111 1.236 . S
N125 Mn109 2.282 . S
N125 C126 1.328 . S
N125 C130 1.318 . S
C126 N125 1.328 . S
C126 C127 1.457 . S
C126 H131 0.929 . S
C127 C126 1.457 . S
C127 C128 1.291 . S
C127 H140 0.931 . S
C128 C127 1.291 . S
C128 C129 1.373 . S
C128 H141 0.929 . S
C129 C128 1.373 . S
C129 C130 1.396 . S
C129 C136 1.403 . S
C130 C120 1.476 . S
C130 N125 1.318 . S
C130 C129 1.396 . S
H131 C126 0.929 . S
O132 Mn108 2.385 . S
O132 C110 1.234 . S
O133 Mn108 2.209 . S
O133 Mn109 2.215 . S
O133 C110 1.283 . S
O134 Mn108 2.094 . S
O134 C112 1.240 . S
O135 Mn109 2.117 . S
O135 C112 1.264 . S
C136 C129 1.403 . S
C136 C137 1.399 . S
C136 H142 0.929 . S
C137 C117 1.449 . S
C137 C136 1.399 . S
C137 H143 0.930 . S
H138 C118 0.931 . S
H139 C119 0.930 . S
H140 C127 0.931 . S
H141 C128 0.929 . S
H142 C136 0.929 . S
H143 C137 0.930 . S
Mn144 O149 2.095 . S
Mn144 O159 2.162 . S
Mn144 O160 2.297 . S
Mn144 O168 2.385 . S
Mn144 O169 2.209 . S
Mn144 O170 2.094 . S
Mn145 O150 2.121 . S
Mn145 N152 2.257 . S
Mn145 N161 2.282 . S
Mn145 O169 2.215 . S
Mn145 O171 2.117 . S
C146 O168 1.234 . S
C146 O169 1.283 . S
C147 O159 1.281 . S
C147 O160 1.236 . S
C148 O170 1.240 . S
C148 O171 1.264 . S
O149 Mn144 2.095 . S
O149 C158 1.250 . S
O150 Mn145 2.121 . S
O150 C158 1.258 . S
C151 N152 1.326 . S
C151 C155 1.460 . S
C151 H157 0.929 . S
N152 Mn145 2.257 . S
N152 C151 1.326 . S
N152 C156 1.362 . S
C153 C154 1.258 . S
C153 C156 1.431 . S
C153 C173 1.449 . S
C154 C153 1.258 . S
C154 C155 1.477 . S
C154 H174 0.931 . S
C155 C151 1.460 . S
C155 C154 1.477 . S
C155 H175 0.930 . S
C156 N152 1.362 . S
C156 C153 1.431 . S
C156 C166 1.476 . S
H157 C151 0.929 . S
C158 O149 1.250 . S
C158 O150 1.258 . S
O159 Mn144 2.162 . S
O159 C147 1.281 . S
O160 Mn144 2.297 . S
O160 C147 1.236 . S
N161 Mn145 2.282 . S
N161 C162 1.328 . S
N161 C166 1.318 . S
C162 N161 1.328 . S
C162 C163 1.457 . S
C162 H167 0.929 . S
C163 C162 1.457 . S
C163 C164 1.291 . S
C163 H176 0.931 . S
C164 C163 1.291 . S
C164 C165 1.373 . S
C164 H177 0.929 . S
C165 C164 1.373 . S
C165 C166 1.396 . S
C165 C172 1.403 . S
C166 C156 1.476 . S
C166 N161 1.318 . S
C166 C165 1.396 . S
H167 C162 0.929 . S
O168 Mn144 2.385 . S
O168 C146 1.234 . S
O169 Mn144 2.209 . S
O169 Mn145 2.215 . S
O169 C146 1.283 . S
O170 Mn144 2.094 . S
O170 C148 1.240 . S
O171 Mn145 2.117 . S
O171 C148 1.264 . S
C172 C165 1.403 . S
C172 C173 1.399 . S
C172 H178 0.929 . S
C173 C153 1.449 . S
C173 C172 1.399 . S
C173 H179 0.930 . S
H174 C154 0.931 . S
H175 C155 0.930 . S
H176 C163 0.931 . S
H177 C164 0.929 . S
H178 C172 0.929 . S
H179 C173 0.930 . S
Mn180 O185 2.095 . S
Mn180 O195 2.162 . S
Mn180 O196 2.297 . S
Mn180 O204 2.385 . S
Mn180 O205 2.209 . S
Mn180 O206 2.094 . S
Mn181 O186 2.121 . S
Mn181 N188 2.257 . S
Mn181 N197 2.282 . S
Mn181 O205 2.215 . S
Mn181 O207 2.117 . S
C182 O204 1.234 . S
C182 O205 1.283 . S
C183 O195 1.281 . S
C183 O196 1.236 . S
C184 O206 1.240 . S
C184 O207 1.264 . S
O185 Mn180 2.095 . S
O185 C194 1.250 . S
O186 Mn181 2.121 . S
O186 C194 1.258 . S
C187 N188 1.326 . S
C187 C191 1.460 . S
C187 H193 0.929 . S
N188 Mn181 2.257 . S
N188 C187 1.326 . S
N188 C192 1.362 . S
C189 C190 1.258 . S
C189 C192 1.431 . S
C189 C209 1.449 . S
C190 C189 1.258 . S
C190 C191 1.477 . S
C190 H210 0.931 . S
C191 C187 1.460 . S
C191 C190 1.477 . S
C191 H211 0.930 . S
C192 N188 1.362 . S
C192 C189 1.431 . S
C192 C202 1.476 . S
H193 C187 0.929 . S
C194 O185 1.250 . S
C194 O186 1.258 . S
O195 Mn180 2.162 . S
O195 C183 1.281 . S
O196 Mn180 2.297 . S
O196 C183 1.236 . S
N197 Mn181 2.282 . S
N197 C198 1.328 . S
N197 C202 1.318 . S
C198 N197 1.328 . S
C198 C199 1.457 . S
C198 H203 0.929 . S
C199 C198 1.457 . S
C199 C200 1.291 . S
C199 H212 0.931 . S
C200 C199 1.291 . S
C200 C201 1.373 . S
C200 H213 0.929 . S
C201 C200 1.373 . S
C201 C202 1.396 . S
C201 C208 1.403 . S
C202 C192 1.476 . S
C202 N197 1.318 . S
C202 C201 1.396 . S
H203 C198 0.929 . S
O204 Mn180 2.385 . S
O204 C182 1.234 . S
O205 Mn180 2.209 . S
O205 Mn181 2.215 . S
O205 C182 1.283 . S
O206 Mn180 2.094 . S
O206 C184 1.240 . S
O207 Mn181 2.117 . S
O207 C184 1.264 . S
C208 C201 1.403 . S
C208 C209 1.399 . S
C208 H214 0.929 . S
C209 C189 1.449 . S
C209 C208 1.399 . S
C209 H215 0.930 . S
H210 C190 0.931 . S
H211 C191 0.930 . S
H212 C199 0.931 . S
H213 C200 0.929 . S
H214 C208 0.929 . S
H215 C209 0.930 . S
H216 C228 0.930 . S
H217 C230 0.930 . S
H218 C231 0.930 . S
H219 C235 0.959 1_545 S
H220 C235 0.959 . S
H221 C235 0.961 1_545 S
H222 C236 0.960 . S
H223 C236 0.961 . S
H224 C236 0.959 . S
H225 C239 0.929 . S
H226 C240 0.931 . S
H227 C242 0.930 . S
C228 H216 0.930 . S
C228 C229 1.399 . S
C228 C233 1.399 . S
C229 C228 1.399 . S
C229 C230 1.376 . S
C230 H217 0.930 . S
C230 C229 1.376 . S
C230 C231 1.388 . S
C231 H218 0.930 . S
C231 C230 1.388 . S
C231 C232 1.390 . S
C232 C231 1.390 . S
C232 C233 1.394 . S
C232 C238 1.465 1_545 S
C233 C228 1.399 . S
C233 C232 1.394 . S
C233 C234 1.516 1_545 S
C234 C233 1.516 1_565 S
C234 C235 1.502 . S
C234 C236 1.561 . S
C234 C237 1.526 . S
C235 H219 0.959 1_565 S
C235 H220 0.959 . S
C235 H221 0.961 1_565 S
C235 C234 1.502 . S
C236 H222 0.960 . S
C236 H223 0.961 . S
C236 H224 0.959 . S
C236 C234 1.561 . S
C237 C234 1.526 . S
C237 C238 1.396 . S
C237 C242 1.390 . S
C238 C232 1.465 1_565 S
C238 C237 1.396 . S
C238 C239 1.399 . S
C239 H225 0.929 . S
C239 C238 1.399 . S
C239 C240 1.385 . S
C240 H226 0.931 . S
C240 C239 1.385 . S
C240 C241 1.389 . S
C241 C240 1.389 . S
C241 C242 1.387 . S
C242 H227 0.930 . S
C242 C237 1.390 . S
C242 C241 1.387 . S
H243 C255 0.930 . S
H244 C257 0.930 . S
H245 C258 0.930 . S
H246 C262 0.959 . S
H247 C262 0.959 . S
H248 C262 0.961 . S
H249 C263 0.960 . S
H250 C263 0.961 . S
H251 C263 0.959 . S
H252 C266 0.929 . S
H253 C267 0.931 . S
H254 C269 0.930 . S
C255 H243 0.930 . S
C255 C256 1.399 . S
C255 C260 1.399 . S
C256 C255 1.399 . S
C256 C257 1.376 . S
C257 H244 0.930 . S
C257 C256 1.376 . S
C257 C258 1.388 . S
C258 H245 0.930 . S
C258 C257 1.388 . S
C258 C259 1.390 . S
C259 C258 1.390 . S
C259 C260 1.394 . S
C259 C265 1.465 . S
C260 C255 1.399 . S
C260 C259 1.394 . S
C260 C261 1.516 . S
C261 C260 1.516 . S
C261 C262 1.502 . S
C261 C263 1.561 . S
C261 C264 1.526 . S
C262 H246 0.959 . S
C262 H247 0.959 . S
C262 H248 0.961 . S
C262 C261 1.502 . S
C263 H249 0.960 . S
C263 H250 0.961 . S
C263 H251 0.959 . S
C263 C261 1.561 . S
C264 C261 1.526 . S
C264 C265 1.396 . S
C264 C269 1.390 . S
C265 C259 1.465 . S
C265 C264 1.396 . S
C265 C266 1.399 . S
C266 H252 0.929 . S
C266 C265 1.399 . S
C266 C267 1.385 . S
C267 H253 0.931 . S
C267 C266 1.385 . S
C267 C268 1.389 . S
C268 C267 1.389 . S
C268 C269 1.387 . S
C269 H254 0.930 . S
C269 C264 1.390 . S
C269 C268 1.387 . S
H270 C282 0.930 . S
H271 C284 0.930 . S
H272 C285 0.930 . S
H273 C289 0.959 . S
H274 C289 0.959 . S
H275 C289 0.961 1_655 S
H276 C290 0.960 . S
H277 C290 0.961 . S
H278 C290 0.959 . S
H279 C293 0.929 . S
H280 C294 0.931 . S
H281 C296 0.930 . S
C282 H270 0.930 . S
C282 C283 1.399 . S
C282 C287 1.399 . S
C283 C282 1.399 . S
C283 C284 1.376 . S
C284 H271 0.930 . S
C284 C283 1.376 . S
C284 C285 1.388 . S
C285 H272 0.930 . S
C285 C284 1.388 . S
C285 C286 1.390 . S
C286 C285 1.390 . S
C286 C287 1.394 . S
C286 C292 1.465 1_655 S
C287 C282 1.399 . S
C287 C286 1.394 . S
C287 C288 1.516 . S
C288 C287 1.516 . S
C288 C289 1.502 1_655 S
C288 C290 1.561 . S
C288 C291 1.526 1_655 S
C289 H273 0.959 . S
C289 H274 0.959 . S
C289 H275 0.961 1_455 S
C289 C288 1.502 1_455 S
C290 H276 0.960 . S
C290 H277 0.961 . S
C290 H278 0.959 . S
C290 C288 1.561 . S
C291 C288 1.526 1_455 S
C291 C292 1.396 . S
C291 C296 1.390 . S
C292 C286 1.465 1_455 S
C292 C291 1.396 . S
C292 C293 1.399 . S
C293 H279 0.929 . S
C293 C292 1.399 . S
C293 C294 1.385 . S
C294 H280 0.931 . S
C294 C293 1.385 . S
C294 C295 1.389 . S
C295 C294 1.389 . S
C295 C296 1.387 . S
C296 H281 0.930 . S
C296 C291 1.390 . S
C296 C295 1.387 . S
H297 C309 0.930 . S
H298 C311 0.930 . S
H299 C312 0.930 1_556 S
H300 C316 0.959 . S
H301 C316 0.959 . S
H302 C316 0.961 1_565 S
H303 C317 0.960 . S
H304 C317 0.961 1_545 S
H305 C317 0.959 . S
H306 C320 0.929 . S
H307 C321 0.931 . S
H308 C323 0.930 . S
C309 H297 0.930 . S
C309 C310 1.399 . S
C309 C314 1.399 . S
C310 C309 1.399 . S
C310 C311 1.376 . S
C311 H298 0.930 . S
C311 C310 1.376 . S
C311 C312 1.388 . S
C312 H299 0.930 1_554 S
C312 C311 1.388 . S
C312 C313 1.390 . S
C313 C312 1.390 . S
C313 C314 1.394 . S
C313 C319 1.465 1_564 S
C314 C309 1.399 . S
C314 C313 1.394 . S
C314 C315 1.516 1_565 S
C315 C314 1.516 1_545 S
C315 C316 1.502 . S
C315 C317 1.561 1_544 S
C315 C318 1.526 1_554 S
C316 H300 0.959 . S
C316 H301 0.959 . S
C316 H302 0.961 1_545 S
C316 C315 1.502 . S
C317 H303 0.960 . S
C317 H304 0.961 1_565 S
C317 H305 0.959 . S
C317 C315 1.561 1_566 S
C318 C315 1.526 1_556 S
C318 C319 1.396 . S
C318 C323 1.390 . S
C319 C313 1.465 1_546 S
C319 C318 1.396 . S
C319 C320 1.399 . S
C320 H306 0.929 . S
C320 C319 1.399 . S
C320 C321 1.385 . S
C321 H307 0.931 . S
C321 C320 1.385 . S
C321 C322 1.389 . S
C322 C321 1.389 . S
C322 C323 1.387 . S
C323 H308 0.930 . S
C323 C318 1.390 . S
C323 C322 1.387 . S
H324 C336 0.930 . S
H325 C338 0.930 . S
H326 C339 0.930 . S
H327 C343 0.959 . S
H328 C343 0.959 . S
H329 C343 0.961 . S
H330 C344 0.960 . S
H331 C344 0.961 . S
H332 C344 0.959 . S
H333 C347 0.929 . S
H334 C348 0.931 . S
H335 C350 0.930 . S
C336 H324 0.930 . S
C336 C337 1.399 . S
C336 C341 1.399 . S
C337 C336 1.399 . S
C337 C338 1.376 . S
C338 H325 0.930 . S
C338 C337 1.376 . S
C338 C339 1.388 . S
C339 H326 0.930 . S
C339 C338 1.388 . S
C339 C340 1.390 . S
C340 C339 1.390 . S
C340 C341 1.394 . S
C340 C346 1.465 . S
C341 C336 1.399 . S
C341 C340 1.394 . S
C341 C342 1.516 . S
C342 C341 1.516 . S
C342 C343 1.502 . S
C342 C344 1.561 . S
C342 C345 1.526 . S
C343 H327 0.959 . S
C343 H328 0.959 . S
C343 H329 0.961 . S
C343 C342 1.502 . S
C344 H330 0.960 . S
C344 H331 0.961 . S
C344 H332 0.959 . S
C344 C342 1.561 . S
C345 C342 1.526 . S
C345 C346 1.396 . S
C345 C350 1.390 . S
C346 C340 1.465 . S
C346 C345 1.396 . S
C346 C347 1.399 . S
C347 H333 0.929 . S
C347 C346 1.399 . S
C347 C348 1.385 . S
C348 H334 0.931 . S
C348 C347 1.385 . S
C348 C349 1.389 . S
C349 C348 1.389 . S
C349 C350 1.387 . S
C350 H335 0.930 . S
C350 C345 1.390 . S
C350 C349 1.387 . S
H351 C363 0.930 . S
H352 C365 0.930 . S
H353 C366 0.930 . S
H354 C370 0.959 . S
H355 C370 0.959 . S
H356 C370 0.961 1_455 S
H357 C371 0.960 . S
H358 C371 0.961 . S
H359 C371 0.959 . S
H360 C374 0.929 . S
H361 C375 0.931 . S
H362 C377 0.930 . S
C363 H351 0.930 . S
C363 C364 1.399 . S
C363 C368 1.399 . S
C364 C363 1.399 . S
C364 C365 1.376 . S
C365 H352 0.930 . S
C365 C364 1.376 . S
C365 C366 1.388 . S
C366 H353 0.930 . S
C366 C365 1.388 . S
C366 C367 1.390 . S
C367 C366 1.390 . S
C367 C368 1.394 . S
C367 C373 1.465 1_455 S
C368 C363 1.399 . S
C368 C367 1.394 . S
C368 C369 1.516 . S
C369 C368 1.516 . S
C369 C370 1.502 1_455 S
C369 C371 1.561 . S
C369 C372 1.526 1_455 S
C370 H354 0.959 . S
C370 H355 0.959 . S
C370 H356 0.961 1_655 S
C370 C369 1.502 1_655 S
C371 H357 0.960 . S
C371 H358 0.961 . S
C371 H359 0.959 . S
C371 C369 1.561 . S
C372 C369 1.526 1_655 S
C372 C373 1.396 . S
C372 C377 1.390 . S
C373 C367 1.465 1_655 S
C373 C372 1.396 . S
C373 C374 1.399 . S
C374 H360 0.929 . S
C374 C373 1.399 . S
C374 C375 1.385 . S
C375 H361 0.931 . S
C375 C374 1.385 . S
C375 C376 1.389 . S
C376 C375 1.389 . S
C376 C377 1.387 . S
C377 H362 0.930 . S
C377 C372 1.390 . S
C377 C376 1.387 . S
H378 C390 0.930 . S
H379 C392 0.930 . S
H380 C393 0.930 . S
H381 C397 0.959 . S
H382 C397 0.959 . S
H383 C397 0.961 . S
H384 C398 0.960 . S
H385 C398 0.961 . S
H386 C398 0.959 . S
H387 C401 0.929 . S
H388 C402 0.931 . S
H389 C404 0.930 . S
C390 H378 0.930 . S
C390 C391 1.399 . S
C390 C395 1.399 . S
C391 C390 1.399 . S
C391 C392 1.376 . S
C392 H379 0.930 . S
C392 C391 1.376 . S
C392 C393 1.388 . S
C393 H380 0.930 . S
C393 C392 1.388 . S
C393 C394 1.390 . S
C394 C393 1.390 . S
C394 C395 1.394 . S
C394 C400 1.465 . S
C395 C390 1.399 . S
C395 C394 1.394 . S
C395 C396 1.516 . S
C396 C395 1.516 . S
C396 C397 1.502 . S
C396 C398 1.561 . S
C396 C399 1.526 . S
C397 H381 0.959 . S
C397 H382 0.959 . S
C397 H383 0.961 . S
C397 C396 1.502 . S
C398 H384 0.960 . S
C398 H385 0.961 . S
C398 H386 0.959 . S
C398 C396 1.561 . S
C399 C396 1.526 . S
C399 C400 1.396 . S
C399 C404 1.390 . S
C400 C394 1.465 . S
C400 C399 1.396 . S
C400 C401 1.399 . S
C401 H387 0.929 . S
C401 C400 1.399 . S
C401 C402 1.385 . S
C402 H388 0.931 . S
C402 C401 1.385 . S
C402 C403 1.389 . S
C403 C402 1.389 . S
C403 C404 1.387 . S
C404 H389 0.930 . S
C404 C399 1.390 . S
C404 C403 1.387 . S
H405 C417 0.930 . S
H406 C419 0.930 . S
H407 C420 0.930 . S
H408 C424 0.959 . S
H409 C424 0.959 . S
H410 C424 0.961 . S
H411 C425 0.960 . S
H412 C425 0.961 . S
H413 C425 0.959 . S
H414 C428 0.929 . S
H415 C429 0.931 . S
H416 C431 0.930 . S
C417 H405 0.930 . S
C417 C418 1.399 . S
C417 C422 1.399 . S
C418 C417 1.399 . S
C418 C419 1.376 . S
C419 H406 0.930 . S
C419 C418 1.376 . S
C419 C420 1.388 . S
C420 H407 0.930 . S
C420 C419 1.388 . S
C420 C421 1.390 . S
C421 C420 1.390 . S
C421 C422 1.394 . S
C421 C427 1.465 . S
C422 C417 1.399 . S
C422 C421 1.394 . S
C422 C423 1.516 . S
C423 C422 1.516 . S
C423 C424 1.502 . S
C423 C425 1.561 . S
C423 C426 1.526 . S
C424 H408 0.959 . S
C424 H409 0.959 . S
C424 H410 0.961 . S
C424 C423 1.502 . S
C425 H411 0.960 . S
C425 H412 0.961 . S
C425 H413 0.959 . S
C425 C423 1.561 . S
C426 C423 1.526 . S
C426 C427 1.396 . S
C426 C431 1.390 . S
C427 C421 1.465 . S
C427 C426 1.396 . S
C427 C428 1.399 . S
C428 H414 0.929 . S
C428 C427 1.399 . S
C428 C429 1.385 . S
C429 H415 0.931 . S
C429 C428 1.385 . S
C429 C430 1.389 . S
C430 C429 1.389 . S
C430 C431 1.387 . S
C431 H416 0.930 . S
C431 C426 1.390 . S
C431 C430 1.387 . S
H432 C444 0.930 . S
H433 C446 0.930 . S
H434 C447 0.930 . S
H435 C451 0.959 . S
H436 C451 0.959 . S
H437 C451 0.961 . S
H438 C452 0.960 . S
H439 C452 0.961 . S
H440 C452 0.959 . S
H441 C455 0.929 . S
H442 C456 0.931 . S
H443 C458 0.930 . S
C444 H432 0.930 . S
C444 C445 1.399 . S
C444 C449 1.399 . S
C445 C444 1.399 . S
C445 C446 1.376 . S
C446 H433 0.930 . S
C446 C445 1.376 . S
C446 C447 1.388 . S
C447 H434 0.930 . S
C447 C446 1.388 . S
C447 C448 1.390 . S
C448 C447 1.390 . S
C448 C449 1.394 . S
C448 C454 1.465 . S
C449 C444 1.399 . S
C449 C448 1.394 . S
C449 C450 1.516 . S
C450 C449 1.516 . S
C450 C451 1.502 . S
C450 C452 1.561 . S
C450 C453 1.526 . S
C451 H435 0.959 . S
C451 H436 0.959 . S
C451 H437 0.961 . S
C451 C450 1.502 . S
C452 H438 0.960 . S
C452 H439 0.961 . S
C452 H440 0.959 . S
C452 C450 1.561 . S
C453 C450 1.526 . S
C453 C454 1.396 . S
C453 C458 1.390 . S
C454 C448 1.465 . S
C454 C453 1.396 . S
C454 C455 1.399 . S
C455 H441 0.929 . S
C455 C454 1.399 . S
C455 C456 1.385 . S
C456 H442 0.931 . S
C456 C455 1.385 . S
C456 C457 1.389 . S
C457 C456 1.389 . S
C457 C458 1.387 . S
C458 H443 0.930 . S
C458 C453 1.390 . S
C458 C457 1.387 . S
H459 C471 0.930 . S
H460 C473 0.930 . S
H461 C474 0.930 . S
H462 C478 0.959 . S
H463 C478 0.959 . S
H464 C478 0.961 . S
H465 C479 0.960 . S
H466 C479 0.961 . S
H467 C479 0.959 . S
H468 C482 0.929 . S
H469 C483 0.931 . S
H470 C485 0.930 1_554 S
C471 H459 0.930 . S
C471 C472 1.399 . S
C471 C476 1.399 . S
C472 C471 1.399 . S
C472 C473 1.376 . S
C473 H460 0.930 . S
C473 C472 1.376 . S
C473 C474 1.388 . S
C474 H461 0.930 . S
C474 C473 1.388 . S
C474 C475 1.390 . S
C475 C474 1.390 . S
C475 C476 1.394 . S
C475 C481 1.465 . S
C476 C471 1.399 . S
C476 C475 1.394 . S
C476 C477 1.516 . S
C477 C476 1.516 . S
C477 C478 1.502 . S
C477 C479 1.561 . S
C477 C480 1.526 . S
C478 H462 0.959 . S
C478 H463 0.959 . S
C478 H464 0.961 . S
C478 C477 1.502 . S
C479 H465 0.960 . S
C479 H466 0.961 . S
C479 H467 0.959 . S
C479 C477 1.561 . S
C480 C477 1.526 . S
C480 C481 1.396 . S
C480 C485 1.390 . S
C481 C475 1.465 . S
C481 C480 1.396 . S
C481 C482 1.399 . S
C482 H468 0.929 . S
C482 C481 1.399 . S
C482 C483 1.385 . S
C483 H469 0.931 . S
C483 C482 1.385 . S
C483 C484 1.389 . S
C484 C483 1.389 . S
C484 C485 1.387 . S
C485 H470 0.930 1_556 S
C485 C480 1.390 . S
C485 C484 1.387 . S
H486 C498 0.930 . S
H487 C500 0.926 1_556 S
H488 C501 0.930 . S
H489 C505 0.959 . S
H490 C505 0.959 . S
H491 C505 0.961 . S
H492 C506 0.960 . S
H493 C506 0.961 . S
H494 C506 0.959 . S
H495 C509 0.929 . S
H496 C510 0.931 . S
H497 C512 0.930 . S
C498 H486 0.930 . S
C498 C499 1.399 . S
C498 C503 1.399 . S
C499 C498 1.399 . S
C499 C500 1.376 . S
C500 H487 0.926 1_554 S
C500 C499 1.376 . S
C500 C501 1.388 . S
C501 H488 0.930 . S
C501 C500 1.388 . S
C501 C502 1.390 . S
C502 C501 1.390 . S
C502 C503 1.394 . S
C502 C508 1.465 . S
C503 C498 1.399 . S
C503 C502 1.394 . S
C503 C504 1.516 . S
C504 C503 1.516 . S
C504 C505 1.502 . S
C504 C506 1.561 . S
C504 C507 1.526 . S
C505 H489 0.959 . S
C505 H490 0.959 . S
C505 H491 0.961 . S
C505 C504 1.502 . S
C506 H492 0.960 . S
C506 H493 0.961 . S
C506 H494 0.959 . S
C506 C504 1.561 . S
C507 C504 1.526 . S
C507 C508 1.396 . S
C507 C512 1.390 . S
C508 C502 1.465 . S
C508 C507 1.396 . S
C508 C509 1.399 . S
C509 H495 0.929 . S
C509 C508 1.399 . S
C509 C510 1.385 . S
C510 H496 0.931 . S
C510 C509 1.385 . S
C510 C511 1.389 . S
C511 C510 1.389 . S
C511 C512 1.387 . S
C512 H497 0.930 . S
C512 C507 1.390 . S
C512 C511 1.387 . S
H513 C525 0.930 . S
H514 C527 0.930 . S
H515 C528 0.930 . S
H516 C532 0.959 . S
H517 C532 0.959 . S
H518 C532 0.961 . S
H519 C533 0.960 . S
H520 C533 0.961 . S
H521 C533 0.959 . S
H522 C536 0.929 . S
H523 C537 0.931 . S
H524 C539 0.930 . S
C525 H513 0.930 . S
C525 C526 1.399 . S
C525 C530 1.399 . S
C526 C525 1.399 . S
C526 C527 1.376 . S
C527 H514 0.930 . S
C527 C526 1.376 . S
C527 C528 1.388 . S
C528 H515 0.930 . S
C528 C527 1.388 . S
C528 C529 1.390 . S
C529 C528 1.390 . S
C529 C530 1.394 . S
C529 C535 1.465 . S
C530 C525 1.399 . S
C530 C529 1.394 . S
C530 C531 1.516 . S
C531 C530 1.516 . S
C531 C532 1.502 . S
C531 C533 1.561 . S
C531 C534 1.526 . S
C532 H516 0.959 . S
C532 H517 0.959 . S
C532 H518 0.961 . S
C532 C531 1.502 . S
C533 H519 0.960 . S
C533 H520 0.961 . S
C533 H521 0.959 . S
C533 C531 1.561 . S
C534 C531 1.526 . S
C534 C535 1.396 . S
C534 C539 1.390 . S
C535 C529 1.465 . S
C535 C534 1.396 . S
C535 C536 1.399 . S
C536 H522 0.929 . S
C536 C535 1.399 . S
C536 C537 1.385 . S
C537 H523 0.931 . S
C537 C536 1.385 . S
C537 C538 1.389 . S
C538 C537 1.389 . S
C538 C539 1.387 . S
C539 H524 0.930 . S
C539 C534 1.390 . S
C539 C538 1.387 . S
C229 C4 1.572 . S
C241 C183 1.559 . S
C256 C3 1.562 . S
C268 C40 1.570 . S
C283 C76 1.552 . S
C295 C39 1.571 . S
C310 C112 1.553 . S
C322 C75 1.569 . S
C337 C148 1.568 . S
C349 C111 1.563 . S
C364 C184 1.552 . S
C376 C147 1.570 . S
C391 C14 1.447 . S
C403 C146 1.444 . S
C418 C182 1.448 . S
C430 C50 1.444 . S
C445 C86 1.445 . S
C457 C2 1.447 . S
C472 C38 1.458 . S
C484 C122 1.421 1_556 S
C499 C74 1.446 1_554 S
C511 C158 1.446 . S
C526 C194 1.380 . S
C538 C110 1.459 . S
