# Generated by pormake.
# Topology umm, (4)-cn, num edge types: 1
# Building blocks:
#     Node 0, Type 0, BuildingBlock: QUQFOY_clean_sbu_1, # of connection points: 4
#     Node 1, Type 0, BuildingBlock: QUQFOY_clean_sbu_1, # of connection points: 4
#     Node 2, Type 0, BuildingBlock: QUQFOY_clean_sbu_1, # of connection points: 4
#     Node 3, Type 0, BuildingBlock: QUQFOY_clean_sbu_1, # of connection points: 4
#     Node 4, Type 0, BuildingBlock: QUQFOY_clean_sbu_1, # of connection points: 4
#     Node 5, Type 0, BuildingBlock: QUQFOY_clean_sbu_1, # of connection points: 4
#     Node 6, Type 0, BuildingBlock: QUQFOY_clean_sbu_1, # of connection points: 4
#     Node 7, Type 0, BuildingBlock: QUQFOY_clean_sbu_1, # of connection points: 4
#     Node 8, Type 0, BuildingBlock: QUQFOY_clean_sbu_1, # of connection points: 4
#     Node 9, Type 0, BuildingBlock: QUQFOY_clean_sbu_1, # of connection points: 4
#     Node 10, Type 0, BuildingBlock: QUQFOY_clean_sbu_1, # of connection points: 4
#     Node 11, Type 0, BuildingBlock: QUQFOY_clean_sbu_1, # of connection points: 4
#     Edge 12, Type (0, 0), BuildingBlock: CIFDUS_clean_linker_0, # of connection points: 2
#     Edge 13, Type (0, 0), BuildingBlock: CIFDUS_clean_linker_0, # of connection points: 2
#     Edge 14, Type (0, 0), BuildingBlock: CIFDUS_clean_linker_0, # of connection points: 2
#     Edge 15, Type (0, 0), BuildingBlock: CIFDUS_clean_linker_0, # of connection points: 2
#     Edge 16, Type (0, 0), BuildingBlock: CIFDUS_clean_linker_0, # of connection points: 2
#     Edge 17, Type (0, 0), BuildingBlock: CIFDUS_clean_linker_0, # of connection points: 2
#     Edge 18, Type (0, 0), BuildingBlock: CIFDUS_clean_linker_0, # of connection points: 2
#     Edge 19, Type (0, 0), BuildingBlock: CIFDUS_clean_linker_0, # of connection points: 2
#     Edge 20, Type (0, 0), BuildingBlock: CIFDUS_clean_linker_0, # of connection points: 2
#     Edge 21, Type (0, 0), BuildingBlock: CIFDUS_clean_linker_0, # of connection points: 2
#     Edge 22, Type (0, 0), BuildingBlock: CIFDUS_clean_linker_0, # of connection points: 2
#     Edge 23, Type (0, 0), BuildingBlock: CIFDUS_clean_linker_0, # of connection points: 2
#     Edge 24, Type (0, 0), BuildingBlock: CIFDUS_clean_linker_0, # of connection points: 2
#     Edge 25, Type (0, 0), BuildingBlock: CIFDUS_clean_linker_0, # of connection points: 2
#     Edge 26, Type (0, 0), BuildingBlock: CIFDUS_clean_linker_0, # of connection points: 2
#     Edge 27, Type (0, 0), BuildingBlock: CIFDUS_clean_linker_0, # of connection points: 2
#     Edge 28, Type (0, 0), BuildingBlock: CIFDUS_clean_linker_0, # of connection points: 2
#     Edge 29, Type (0, 0), BuildingBlock: CIFDUS_clean_linker_0, # of connection points: 2
#     Edge 30, Type (0, 0), BuildingBlock: CIFDUS_clean_linker_0, # of connection points: 2
#     Edge 31, Type (0, 0), BuildingBlock: CIFDUS_clean_linker_0, # of connection points: 2
#     Edge 32, Type (0, 0), BuildingBlock: CIFDUS_clean_linker_0, # of connection points: 2
#     Edge 33, Type (0, 0), BuildingBlock: CIFDUS_clean_linker_0, # of connection points: 2
#     Edge 34, Type (0, 0), BuildingBlock: CIFDUS_clean_linker_0, # of connection points: 2
#     Edge 35, Type (0, 0), BuildingBlock: CIFDUS_clean_linker_0, # of connection points: 2
# Relax obj value: 0.041
# Max RMSD: 0.170
# Mean RMSD: 0.170
data_MOF--net-umm--node1-QUQFOY_clean_sbu_1--edge1-CIFDUS_clean_linker_0
_symmetry_space_group_name_H-M    P1
_symmetry_Int_Tables_number       1
_symmetry_cell_setting            triclinic
loop_
_symmetry_equiv_pos_as_xyz
'x, y, z'
_cell_length_a     50.486736
_cell_length_b     50.462597
_cell_length_c     25.304089
_cell_angle_alpha  89.909759
_cell_angle_beta   90.009949
_cell_angle_gamma 120.04122
loop_
_atom_site_label
_atom_site_type_symbol
_atom_site_fract_x
_atom_site_fract_y
_atom_site_fract_z
_atom_type_partial_charge
O0 O 0.46578 0.56005 0.0921 0.0
Cd1 Cd 0.43917 0.58035 0.09947 0.0
Cd2 Cd 0.39855 0.52822 0.05032 0.0
O3 O 0.42904 0.51339 0.07175 0.0
O4 O 0.45586 0.609 0.16082 0.0
O5 O 0.41013 0.56721 0.16088 0.0
C6 C 0.43111 0.59063 0.18608 0.0
C7 C 0.34518 0.50173 0.05193 0.0
C8 C 0.45695 0.532 0.08351 0.0
C9 C 0.42497 0.58809 0.99037 0.0
O10 O 0.41219 0.55913 0.98966 0.0
O11 O 0.43598 0.6027 0.03316 0.0
O12 O 0.35999 0.49462 0.0187 0.0
O13 O 0.36061 0.52121 0.08865 0.0
O14 O 0.92606 0.45876 0.44185 0.0
Cd15 Cd 0.87896 0.43347 0.44651 0.0
Cd16 Cd 0.89039 0.39191 0.39985 0.0
O17 O 0.93567 0.42175 0.42246 0.0
O18 O 0.86784 0.4551 0.50004 0.0
O19 O 0.86021 0.40833 0.51193 0.0
C20 C 0.85904 0.43161 0.53038 0.0
C21 C 0.86194 0.33863 0.40415 0.0
C22 C 0.94514 0.44967 0.43444 0.0
C23 C 0.85881 0.41898 0.33673 0.0
O24 O 0.87447 0.40568 0.33735 0.0
O25 O 0.85499 0.43039 0.37874 0.0
O26 O 0.88432 0.35233 0.37122 0.0
O27 O 0.85821 0.35513 0.43919 0.0
O28 O 0.48948 0.91655 0.76642 0.0
Cd29 Cd 0.46818 0.86956 0.77464 0.0
Cd30 Cd 0.52201 0.88181 0.72427 0.0
O31 O 0.53644 0.92676 0.74772 0.0
O32 O 0.43577 0.85952 0.8287 0.0
O33 O 0.47529 0.85275 0.84201 0.0
C34 C 0.45088 0.8518 0.86013 0.0
C35 C 0.55062 0.85732 0.71428 0.0
C36 C 0.51762 0.93588 0.75885 0.0
C37 C 0.46148 0.84788 0.66586 0.0
O38 O 0.49034 0.86479 0.66496 0.0
O39 O 0.44674 0.84369 0.70862 0.0
O40 O 0.55586 0.88056 0.68555 0.0
O41 O 0.53227 0.85079 0.75403 0.0
O42 O 0.59124 0.47616 0.08708 0.0
Cd43 Cd 0.61724 0.45519 0.09406 0.0
Cd44 Cd 0.65884 0.50841 0.05007 0.0
O45 O 0.62862 0.52339 0.07248 0.0
O46 O 0.5957 0.42243 0.14794 0.0
O47 O 0.64167 0.46271 0.1606 0.0
C48 C 0.61862 0.43797 0.17897 0.0
C49 C 0.71187 0.53252 0.05732 0.0
C50 C 0.6004 0.50452 0.08164 0.0
C51 C 0.63397 0.4509 0.9852 0.0
O52 O 0.64613 0.4798 0.98627 0.0
O53 O 0.62264 0.43523 0.02695 0.0
O54 O 0.69912 0.54218 0.02421 0.0
O55 O 0.69451 0.51173 0.09104 0.0
O56 O 0.13545 0.58494 0.43438 0.0
Cd57 Cd 0.18249 0.61244 0.43849 0.0
Cd58 Cd 0.168 0.65331 0.40076 0.0
O59 O 0.12446 0.62208 0.42917 0.0
O60 O 0.19702 0.59703 0.49909 0.0
O61 O 0.19756 0.64112 0.50077 0.0
C62 C 0.20149 0.62085 0.52545 0.0
C63 C 0.19382 0.70669 0.39743 0.0
C64 C 0.1158 0.59372 0.43478 0.0
C65 C 0.19867 0.62987 0.32731 0.0
O66 O 0.18084 0.64049 0.33355 0.0
O67 O 0.20611 0.61925 0.36681 0.0
O68 O 0.16882 0.69049 0.3714 0.0
O69 O 0.20157 0.6928 0.43177 0.0
O70 O 0.57179 0.12582 0.76868 0.0
Cd71 Cd 0.59189 0.17271 0.77629 0.0
Cd72 Cd 0.53981 0.16061 0.7234 0.0
O73 O 0.52522 0.11554 0.74669 0.0
O74 O 0.61993 0.18437 0.83839 0.0
O75 O 0.57832 0.18854 0.8372 0.0
C76 C 0.60147 0.1908 0.86306 0.0
C77 C 0.51101 0.18486 0.71193 0.0
C78 C 0.54386 0.10644 0.75946 0.0
C79 C 0.60132 0.19452 0.66743 0.0
O80 O 0.57243 0.17804 0.6655 0.0
O81 O 0.61538 0.19845 0.71093 0.0
O82 O 0.50641 0.1619 0.68309 0.0
O83 O 0.52884 0.19125 0.75238 0.0
O84 O 0.48795 0.58351 0.5896 0.0
Cd85 Cd 0.46754 0.60999 0.58218 0.0
Cd86 Cd 0.51982 0.65037 0.63473 0.0
O87 O 0.53453 0.62015 0.61078 0.0
O88 O 0.43932 0.59328 0.52034 0.0
O89 O 0.48074 0.63927 0.52095 0.0
C90 C 0.45762 0.61817 0.49535 0.0
C91 C 0.54874 0.70342 0.64664 0.0
C92 C 0.51598 0.59234 0.59823 0.0
C93 C 0.45836 0.6222 0.69118 0.0
O94 O 0.48728 0.63483 0.69281 0.0
O95 O 0.44418 0.61204 0.64779 0.0
O96 O 0.55323 0.6849 0.6753 0.0
O97 O 0.53089 0.69217 0.60619 0.0
O98 O 0.92558 0.47641 0.93011 0.0
Cd99 Cd 0.87848 0.45469 0.92598 0.0
Cd100 Cd 0.89006 0.50775 0.97155 0.0
O101 O 0.93525 0.5232 0.94821 0.0
O102 O 0.86701 0.4218 0.87258 0.0
O103 O 0.85981 0.4612 0.86069 0.0
C104 C 0.85842 0.43666 0.84225 0.0
C105 C 0.86111 0.53191 0.96569 0.0
C106 C 0.94468 0.5047 0.93663 0.0
C107 C 0.85866 0.44959 0.03591 0.0
O108 O 0.8745 0.47857 0.03485 0.0
O109 O 0.85457 0.43415 0.99407 0.0
O110 O 0.8835 0.54122 0.99872 0.0
O111 O 0.8576 0.51138 0.93147 0.0
O112 O 0.46825 0.91712 0.26715 0.0
Cd113 Cd 0.44356 0.87011 0.25879 0.0
Cd114 Cd 0.40108 0.88139 0.31251 0.0
O115 O 0.4315 0.92662 0.28994 0.0
O116 O 0.46667 0.86125 0.20446 0.0
O117 O 0.41975 0.85276 0.19149 0.0
C118 C 0.44364 0.85271 0.17323 0.0
C119 C 0.3483 0.85794 0.32729 0.0
C120 C 0.45928 0.93611 0.27689 0.0
C121 C 0.42939 0.84747 0.36739 0.0
O122 O 0.41635 0.86335 0.36911 0.0
O123 O 0.44053 0.84443 0.32439 0.0
O124 O 0.36754 0.88063 0.35568 0.0
O125 O 0.35862 0.85143 0.28548 0.0
O126 O 0.57225 0.45853 0.58511 0.0
Cd127 Cd 0.59462 0.43396 0.57714 0.0
Cd128 Cd 0.54123 0.39135 0.63033 0.0
O129 O 0.52612 0.42158 0.60824 0.0
O130 O 0.62638 0.45665 0.52226 0.0
O131 O 0.58797 0.40949 0.51069 0.0
C132 C 0.61185 0.43326 0.49178 0.0
C133 C 0.51211 0.3383 0.64311 0.0
C134 C 0.54428 0.44941 0.59511 0.0
C135 C 0.60332 0.42023 0.68569 0.0
O136 O 0.57435 0.40664 0.68732 0.0
O137 O 0.61751 0.43164 0.64276 0.0
O138 O 0.5082 0.35704 0.67212 0.0
O139 O 0.52943 0.34934 0.60193 0.0
O140 O 0.13509 0.56089 0.92869 0.0
Cd141 Cd 0.18217 0.58127 0.92385 0.0
Cd142 Cd 0.16891 0.52572 0.95925 0.0
O143 O 0.12459 0.51289 0.93458 0.0
O144 O 0.1963 0.6117 0.86369 0.0
O145 O 0.19754 0.56856 0.86091 0.0
C146 C 0.20117 0.59278 0.8368 0.0
C147 C 0.19709 0.50083 0.95092 0.0
C148 C 0.11563 0.53238 0.92935 0.0
C149 C 0.1996 0.57907 0.03443 0.0
O150 O 0.18287 0.5505 0.02738 0.0
O151 O 0.2057 0.59752 0.99575 0.0
O152 O 0.17351 0.49014 0.98157 0.0
O153 O 0.20213 0.52317 0.91968 0.0
O154 O 0.59364 0.12657 0.26728 0.0
Cd155 Cd 0.6203 0.17348 0.25942 0.0
Cd156 Cd 0.66096 0.16208 0.30762 0.0
O157 O 0.63061 0.11673 0.28591 0.0
O158 O 0.60362 0.18541 0.19791 0.0
O159 O 0.64924 0.18915 0.1979 0.0
C160 C 0.62829 0.1916 0.17261 0.0
C161 C 0.71427 0.18989 0.3047 0.0
C162 C 0.60257 0.10737 0.27505 0.0
C163 C 0.63478 0.19524 0.36834 0.0
O164 O 0.64731 0.17885 0.36884 0.0
O165 O 0.6239 0.19915 0.32562 0.0
O166 O 0.70008 0.16775 0.33795 0.0
O167 O 0.69828 0.19363 0.26863 0.0
H168 H 0.47079 0.63781 0.24877 0.0
H169 H 0.38525 0.55224 0.25291 0.0
H170 H 0.38442 0.55481 0.3492 0.0
H171 H 0.4106 0.57857 0.43244 0.0
H172 H 0.49647 0.66378 0.42843 0.0
H173 H 0.49432 0.66427 0.33202 0.0
C174 C 0.45172 0.61993 0.27063 0.0
C175 C 0.42828 0.5947 0.24352 0.0
C176 C 0.45154 0.62137 0.32615 0.0
C177 C 0.40367 0.57187 0.27261 0.0
C178 C 0.40323 0.57325 0.32779 0.0
C179 C 0.42864 0.5975 0.41057 0.0
C180 C 0.45383 0.62094 0.43776 0.0
C181 C 0.42744 0.59747 0.35503 0.0
C182 C 0.47687 0.64538 0.40866 0.0
C183 C 0.47573 0.64561 0.35342 0.0
H184 H 0.84946 0.3908 0.60894 0.0
H185 H 0.85126 0.47578 0.57759 0.0
H186 H 0.84715 0.48291 0.67191 0.0
H187 H 0.84966 0.46837 0.76363 0.0
H188 H 0.85004 0.38446 0.79502 0.0
H189 H 0.84625 0.37342 0.70064 0.0
C190 C 0.84836 0.41057 0.62264 0.0
C191 C 0.85103 0.43288 0.58626 0.0
C192 C 0.84667 0.41491 0.67713 0.0
C193 C 0.84951 0.45836 0.60474 0.0
C194 C 0.84724 0.46253 0.65875 0.0
C195 C 0.8483 0.44737 0.74991 0.0
C196 C 0.8505 0.42748 0.78633 0.0
C197 C 0.84682 0.44146 0.69541 0.0
C198 C 0.84867 0.40034 0.76784 0.0
C199 C 0.84659 0.39402 0.71379 0.0
H200 H 0.48294 0.84484 0.94036 0.0
H201 H 0.39876 0.84411 0.90672 0.0
H202 H 0.38735 0.84093 1.00095 0.0
H203 H 0.40391 0.84397 0.09319 0.0
H204 H 0.48904 0.84663 0.12674 0.0
H205 H 0.49717 0.8431 0.03263 0.0
C206 C 0.46184 0.84345 0.95357 0.0
C207 C 0.4419 0.84499 0.91647 0.0
C208 C 0.45566 0.84223 1.008 0.0
C209 C 0.41466 0.84318 0.93438 0.0
C210 C 0.40811 0.84143 0.98834 0.0
C211 C 0.42398 0.84325 0.07999 0.0
C212 C 0.44594 0.84585 0.11702 0.0
C213 C 0.42886 0.8418 0.02559 0.0
C214 C 0.47184 0.84489 0.09914 0.0
C215 C 0.47657 0.84294 0.04523 0.0
H216 H 0.65809 0.47063 0.25807 0.0
H217 H 0.57478 0.3858 0.22673 0.0
H218 H 0.56706 0.37506 0.32126 0.0
H219 H 0.58081 0.39256 0.41302 0.0
H220 H 0.66312 0.47838 0.44411 0.0
H221 H 0.67447 0.48568 0.34981 0.0
C222 C 0.63854 0.44953 0.27184 0.0
C223 C 0.61692 0.42923 0.23533 0.0
C224 C 0.63386 0.44377 0.3264 0.0
C225 C 0.5917 0.40197 0.25394 0.0
C226 C 0.58719 0.39582 0.30807 0.0
C227 C 0.6015 0.4126 0.39924 0.0
C228 C 0.62089 0.43501 0.4356 0.0
C229 C 0.60764 0.41699 0.34473 0.0
C230 C 0.64763 0.46084 0.41701 0.0
C231 C 0.65414 0.4651 0.363 0.0
H232 H 0.209 0.58114 0.58909 0.0
H233 H 0.20686 0.66553 0.5932 0.0
H234 H 0.20916 0.66573 0.68961 0.0
H235 H 0.20705 0.63955 0.77334 0.0
H236 H 0.20877 0.55494 0.76905 0.0
H237 H 0.21166 0.55746 0.67273 0.0
C238 C 0.20952 0.59985 0.61096 0.0
C239 C 0.20758 0.6232 0.58354 0.0
C240 C 0.21054 0.5997 0.66672 0.0
C241 C 0.2083 0.64722 0.6129 0.0
C242 C 0.20948 0.6473 0.66825 0.0
C243 C 0.20853 0.62188 0.75145 0.0
C244 C 0.2075 0.59698 0.77879 0.0
C245 C 0.20991 0.6233 0.69569 0.0
C246 C 0.20946 0.57436 0.74941 0.0
C247 C 0.211 0.57571 0.69411 0.0
H248 H 0.58832 0.19833 0.10935 0.0
H249 H 0.67422 0.19917 0.10608 0.0
H250 H 0.67494 0.20202 1.00973 0.0
H251 H 0.64861 0.1989 0.92629 0.0
H252 H 0.56236 0.19733 0.92941 0.0
H253 H 0.56457 0.2005 0.02577 0.0
C254 C 0.60745 0.1996 0.08765 0.0
C255 C 0.63103 0.19821 0.11504 0.0
C256 C 0.60755 0.20088 0.03209 0.0
C257 C 0.6557 0.20007 0.08616 0.0
C258 C 0.65607 0.20158 0.03095 0.0
C259 C 0.63049 0.1997 0.94795 0.0
C260 C 0.6052 0.19756 0.92055 0.0
C261 C 0.63173 0.20117 1.00347 0.0
C262 C 0.58205 0.19884 0.94936 0.0
C263 C 0.58323 0.20052 1.00457 0.0
H264 H 0.31755 0.49322 0.95711 0.0
H265 H 0.30093 0.49185 0.12444 0.0
H266 H 0.25049 0.48589 0.1067 0.0
H267 H 0.21427 0.48779 0.0438 0.0
H268 H 0.23476 0.49721 0.87719 0.0
H269 H 0.28029 0.49291 0.89404 0.0
C270 C 0.30252 0.49077 0.98968 0.0
C271 C 0.31275 0.49254 0.04209 0.0
C272 C 0.27434 0.4891 0.97909 0.0
C273 C 0.29344 0.49027 0.08386 0.0
C274 C 0.26468 0.48703 0.07366 0.0
C275 C 0.22824 0.488 1.01105 0.0
C276 C 0.22092 0.49231 0.95916 0.0
C277 C 0.25529 0.48732 0.02146 0.0
C278 C 0.23976 0.49357 0.91731 0.0
C279 C 0.26587 0.4913 0.92704 0.0
H280 H 0.84386 0.30892 0.31081 0.0
H281 H 0.82524 0.2965 0.47802 0.0
H282 H 0.78012 0.24627 0.46153 0.0
H283 H 0.74267 0.2091 0.39894 0.0
H284 H 0.7575 0.22537 0.23141 0.0
H285 H 0.80754 0.27064 0.24834 0.0
C286 C 0.83038 0.29484 0.34374 0.0
C287 C 0.8381 0.30622 0.3957 0.0
C288 C 0.80359 0.26679 0.33366 0.0
C289 C 0.81991 0.28813 0.43781 0.0
C290 C 0.79404 0.2595 0.4283 0.0
C291 C 0.75725 0.2221 0.36611 0.0
C292 C 0.7466 0.21367 0.3139 0.0
C293 C 0.78518 0.249 0.37631 0.0
C294 C 0.76531 0.23124 0.27184 0.0
C295 C 0.79383 0.25721 0.28158 0.0
H296 H 0.5581 0.81528 0.77141 0.0
H297 H 0.56206 0.84871 0.61297 0.0
H298 H 0.5645 0.80522 0.57698 0.0
H299 H 0.55853 0.75392 0.58996 0.0
H300 H 0.55879 0.72254 0.74849 0.0
H301 H 0.56217 0.76887 0.78463 0.0
C302 C 0.56032 0.81344 0.72913 0.0
C303 C 0.55964 0.83514 0.69506 0.0
C304 C 0.56217 0.78845 0.70847 0.0
C305 C 0.56267 0.83247 0.64029 0.0
C306 C 0.5638 0.8074 0.61949 0.0
C307 C 0.56013 0.75763 0.63233 0.0
C308 C 0.55815 0.73463 0.66634 0.0
C309 C 0.56255 0.78469 0.65309 0.0
C310 C 0.5604 0.73987 0.72123 0.0
C311 C 0.56208 0.76631 0.74209 0.0
H312 H 0.74233 0.54295 0.96502 0.0
H313 H 0.75295 0.5379 0.1331 0.0
H314 H 0.8031 0.54239 0.11898 0.0
H315 H 0.84082 0.54155 0.05836 0.0
H316 H 0.82615 0.53868 0.89016 0.0
H317 H 0.7809 0.54384 0.90444 0.0
C318 C 0.75601 0.54366 0.99862 0.0
C319 C 0.74419 0.54058 0.05016 0.0
C320 C 0.78397 0.54452 0.98993 0.0
C321 C 0.76171 0.54055 0.0932 0.0
C322 C 0.79029 0.54295 0.08504 0.0
C323 C 0.82815 0.54286 0.02479 0.0
C324 C 0.83705 0.54021 0.97317 0.0
C325 C 0.80125 0.54411 0.03353 0.0
C326 C 0.8199 0.54097 0.93014 0.0
C327 C 0.79396 0.54376 0.93838 0.0
H328 H 0.23859 0.75403 0.45471 0.0
H329 H 0.20009 0.72931 0.29825 0.0
H330 H 0.24346 0.77539 0.26192 0.0
H331 H 0.29583 0.81943 0.27301 0.0
H332 H 0.33216 0.84659 0.43037 0.0
H333 H 0.28629 0.80346 0.46767 0.0
C334 C 0.23933 0.7592 0.41293 0.0
C335 C 0.21619 0.73812 0.37933 0.0
C336 C 0.26422 0.78615 0.39218 0.0
C337 C 0.21744 0.7452 0.32521 0.0
C338 C 0.24244 0.77147 0.30418 0.0
C339 C 0.29331 0.81632 0.3155 0.0
C340 C 0.31752 0.83613 0.34869 0.0
C341 C 0.26647 0.79164 0.33702 0.0
C342 C 0.31385 0.83185 0.40378 0.0
C343 C 0.28767 0.80697 0.42526 0.0
H344 H 0.50298 0.22659 0.76863 0.0
H345 H 0.49963 0.19338 0.61041 0.0
H346 H 0.49687 0.23669 0.57409 0.0
H347 H 0.5025 0.28785 0.58673 0.0
H348 H 0.50182 0.31905 0.74505 0.0
H349 H 0.49858 0.27279 0.78148 0.0
C350 C 0.50083 0.22843 0.72632 0.0
C351 C 0.50179 0.20687 0.69242 0.0
C352 C 0.49884 0.25333 0.70546 0.0
C353 C 0.49883 0.20953 0.6376 0.0
C354 C 0.49751 0.2345 0.61662 0.0
C355 C 0.50084 0.28412 0.62912 0.0
C356 C 0.50269 0.30707 0.66297 0.0
C357 C 0.49854 0.25711 0.65006 0.0
C358 C 0.50034 0.30178 0.71789 0.0
C359 C 0.49873 0.27537 0.73893 0.0
H360 H 0.51905 0.56762 0.08822 0.0
H361 H 0.4467 0.47321 0.08196 0.0
H362 H 0.4847 0.45665 0.08241 0.0
H363 H 0.53831 0.46894 0.08285 0.0
H364 H 0.61076 0.56337 0.08581 0.0
H365 H 0.57275 0.57992 0.08842 0.0
C366 C 0.51149 0.54338 0.08725 0.0
C367 C 0.47991 0.52169 0.08524 0.0
C368 C 0.53349 0.53403 0.08678 0.0
C369 C 0.47074 0.49042 0.08352 0.0
C370 C 0.49249 0.48093 0.08377 0.0
C371 C 0.5459 0.49319 0.08432 0.0
C372 C 0.5775 0.51488 0.0843 0.0
C373 C 0.52392 0.50254 0.08515 0.0
C374 C 0.5867 0.54616 0.08577 0.0
C375 C 0.56494 0.55564 0.08728 0.0
H376 H 0.97168 0.51138 0.44658 0.0
H377 H 0.99377 0.43956 0.42826 0.0
H378 H 0.04837 0.47772 0.42904 0.0
H379 H 0.0897 0.53153 0.43193 0.0
H380 H 0.06725 0.60326 0.44725 0.0
H381 H 1.01285 0.56493 0.45077 0.0
C382 C 0.98835 0.50391 0.44307 0.0
C383 C 0.97846 0.47247 0.43739 0.0
C384 C 1.01968 0.526 0.44285 0.0
C385 C 1.00059 0.46349 0.43266 0.0
C386 C 0.03185 0.48534 0.43306 0.0
C387 C 0.07297 0.53886 0.43638 0.0
C388 C 0.08272 0.57039 0.43934 0.0
C389 C 0.04165 0.51668 0.4377 0.0
C390 C 0.06055 0.57928 0.4448 0.0
C391 C 1.02939 0.55733 0.4468 0.0
H392 H 0.57983 0.08039 0.76353 0.0
H393 H 0.48523 0.05758 0.75928 0.0
H394 H 0.46904 1.00306 0.76043 0.0
H395 H 0.48171 0.96197 0.7609 0.0
H396 H 0.57631 0.98473 0.76141 0.0
H397 H 0.5925 0.03926 0.76351 0.0
C398 C 0.55562 0.06355 0.76316 0.0
C399 C 0.53377 0.07321 0.76154 0.0
C400 C 0.54649 0.03223 0.76302 0.0
C401 C 0.50255 0.05091 0.76053 0.0
C402 C 0.49328 1.0197 0.76119 0.0
C403 C 0.50591 0.97879 0.76175 0.0
C404 C 0.52776 0.96912 0.76121 0.0
C405 C 0.51505 1.01011 0.7622 0.0
C406 C 0.55899 0.9914 0.76179 0.0
C407 C 0.56826 0.02262 0.76302 0.0
H408 H 0.4805 0.53019 0.59571 0.0
H409 H 0.57481 0.60288 0.59518 0.0
H410 H 0.59156 0.56503 0.59229 0.0
H411 H 0.5795 0.51148 0.59156 0.0
H412 H 0.48528 0.43868 0.59609 0.0
H413 H 0.46843 0.47652 0.59568 0.0
C414 C 0.50476 0.53785 0.59467 0.0
C415 C 0.52637 0.56948 0.59544 0.0
C416 C 0.51422 0.51593 0.59383 0.0
C417 C 0.55767 0.5788 0.59465 0.0
C418 C 0.56726 0.55713 0.59297 0.0
C419 C 0.55523 0.50377 0.59214 0.0
C420 C 0.53368 0.47214 0.59359 0.0
C421 C 0.54574 0.52566 0.59275 0.0
C422 C 0.50237 0.46278 0.59494 0.0
C423 C 0.49273 0.48444 0.5947 0.0
H424 H 0.08927 0.56816 0.93298 0.0
H425 H 0.06708 0.47392 0.91999 0.0
H426 H 1.01257 0.45747 0.91911 0.0
H427 H 0.97128 0.46959 0.92465 0.0
H428 H 0.99323 0.56362 0.94049 0.0
H429 H 0.04784 0.58035 0.93748 0.0
C430 C 0.07258 0.54399 0.92962 0.0
C431 C 0.08244 0.52232 0.92649 0.0
C432 C 0.04121 0.53465 0.9298 0.0
C433 C 0.0603 0.49113 0.92249 0.0
C434 C 1.02908 0.48169 0.92201 0.0
C435 C 0.98793 0.49381 0.92716 0.0
C436 C 0.97799 0.51531 0.93275 0.0
C437 C 1.01928 0.50323 0.92604 0.0
C438 C 1.00008 0.54654 0.9362 0.0
C439 C 0.03136 0.55612 0.9345 0.0
H440 H 0.52131 0.96281 0.27195 0.0
H441 H 0.44884 0.98457 0.27791 0.0
H442 H 0.48678 0.03924 0.27621 0.0
H443 H 0.54045 0.08077 0.27451 0.0
H444 H 0.6129 0.0589 0.27226 0.0
H445 H 0.57492 1.00427 0.27097 0.0
C446 C 0.5137 0.97944 0.2726 0.0
C447 C 0.48211 0.96945 0.27482 0.0
C448 C 0.53566 1.01083 0.27238 0.0
C449 C 0.47288 0.99149 0.27619 0.0
C450 C 0.49461 0.02279 0.2752 0.0
C451 C 0.54803 0.06411 0.27346 0.0
C452 C 0.57963 0.07407 0.27325 0.0
C453 C 0.52605 0.03271 0.27349 0.0
C454 C 0.58884 0.05201 0.27244 0.0
C455 C 0.5671 0.02073 0.27168 0.0
H456 H 0.47925 0.65699 0.77874 0.0
H457 H 0.40114 0.57575 0.71722 0.0
H458 H 0.38078 0.56055 0.80687 0.0
H459 H 0.39045 0.56579 0.90248 0.0
H460 H 0.46975 0.64602 0.96387 0.0
H461 H 0.48419 0.66661 0.87425 0.0
C462 C 0.45741 0.63628 0.7849 0.0
C463 C 0.44198 0.61711 0.74176 0.0
C464 C 0.44633 0.62741 0.83644 0.0
C465 C 0.41346 0.59074 0.7499 0.0
C466 C 0.40199 0.58194 0.80116 0.0
C467 C 0.41056 0.58809 0.89631 0.0
C468 C 0.42944 0.6041 0.93945 0.0
C469 C 0.41902 0.59937 0.84475 0.0
C470 C 0.45501 0.63322 0.93123 0.0
C471 C 0.46337 0.64486 0.87998 0.0
H472 H 0.84595 0.3836 0.25005 0.0
H473 H 0.84784 0.46485 0.30827 0.0
H474 H 0.84254 0.47902 0.21803 0.0
H475 H 0.84687 0.47286 0.12282 0.0
H476 H 0.84666 0.39242 0.06462 0.0
H477 H 0.8412 0.37297 0.15491 0.0
C478 C 0.84458 0.4041 0.24301 0.0
C479 C 0.848 0.42358 0.28535 0.0
C480 C 0.84216 0.41234 0.19116 0.0
C481 C 0.84548 0.44966 0.27614 0.0
C482 C 0.84269 0.45786 0.22457 0.0
C483 C 0.84502 0.45077 0.12988 0.0
C484 C 0.8479 0.43439 0.0875 0.0
C485 C 0.84249 0.4401 0.18176 0.0
C486 C 0.84475 0.40552 0.09677 0.0
C487 C 0.84185 0.39452 0.14836 0.0
H488 H 0.48431 0.8355 0.57912 0.0
H489 H 0.4034 0.83374 0.63889 0.0
H490 H 0.38314 0.82709 0.54902 0.0
H491 H 0.39348 0.83217 0.45375 0.0
H492 H 0.47568 0.83669 0.39396 0.0
H493 H 0.49019 0.83113 0.48383 0.0
C494 C 0.46193 0.833 0.57253 0.0
C495 C 0.44564 0.83587 0.61516 0.0
C496 C 0.45089 0.82998 0.52086 0.0
C497 C 0.41641 0.83186 0.60654 0.0
C498 C 0.40496 0.82829 0.55517 0.0
C499 C 0.41424 0.83123 0.46033 0.0
C500 C 0.43392 0.83558 0.4177 0.0
C501 C 0.42276 0.82892 0.512 0.0
C502 C 0.46033 0.83361 0.4263 0.0
C503 C 0.46873 0.83071 0.47768 0.0
H504 H 0.58368 0.38377 0.77148 0.0
H505 H 0.6594 0.46804 0.71278 0.0
H506 H 0.67899 0.48276 0.80283 0.0
H507 H 0.66866 0.47591 0.89815 0.0
H508 H 0.59156 0.39255 0.95669 0.0
H509 H 0.57864 0.37286 0.86651 0.0
C510 C 0.60488 0.40504 0.77835 0.0
C511 C 0.61976 0.42518 0.736 0.0
C512 C 0.61544 0.41362 0.8301 0.0
C513 C 0.6475 0.45231 0.74493 0.0
C514 C 0.65851 0.46082 0.79641 0.0
C515 C 0.64938 0.45317 0.89121 0.0
C516 C 0.63058 0.43597 0.93367 0.0
C517 C 0.64176 0.44235 0.83935 0.0
C518 C 0.60615 0.40629 0.92452 0.0
C519 C 0.59867 0.39513 0.87297 0.0
H520 H 0.2109 0.63278 0.08077 0.0
H521 H 0.21002 0.5483 0.11187 0.0
H522 H 0.21462 0.55871 0.20642 0.0
H523 H 0.21051 0.5877 0.28135 0.0
H524 H 0.2092 0.67105 0.25007 0.0
H525 H 0.21439 0.66555 0.15561 0.0
C526 C 0.2126 0.61714 0.10815 0.0
C527 C 0.20967 0.58965 0.0893 0.0
C528 C 0.21444 0.62284 0.16296 0.0
C529 C 0.21178 0.56949 0.12542 0.0
C530 C 0.21434 0.57535 0.17964 0.0
C531 C 0.21225 0.60504 0.25393 0.0
C532 C 0.20905 0.62946 0.27266 0.0
C533 C 0.21441 0.60133 0.19913 0.0
C534 C 0.21118 0.65174 0.23656 0.0
C535 C 0.21408 0.64861 0.1824 0.0
H536 H 0.58074 0.20921 0.58031 0.0
H537 H 0.65849 0.2053 0.64141 0.0
H538 H 0.67891 0.2109 0.55176 0.0
H539 H 0.66928 0.20696 0.45614 0.0
H540 H 0.59031 0.20865 0.39515 0.0
H541 H 0.57594 0.21449 0.4849 0.0
C542 C 0.60253 0.21029 0.57406 0.0
C543 C 0.61783 0.20619 0.61705 0.0
C544 C 0.61363 0.21275 0.52251 0.0
C545 C 0.64628 0.20825 0.60883 0.0
C546 C 0.65778 0.21118 0.55756 0.0
C547 C 0.64926 0.20926 0.46243 0.0
C548 C 0.63043 0.20666 0.41937 0.0
C549 C 0.64084 0.2119 0.51406 0.0
C550 C 0.605 0.21036 0.42774 0.0
C551 C 0.59668 0.21347 0.47906 0.0
loop_
_geom_bond_atom_site_label_1
_geom_bond_atom_site_label_2
_geom_bond_distance
_geom_bond_site_symmetry_2
_ccdc_geom_bond_type
O0 Cd1 2.223 . S
O0 C8 1.315 . S
Cd1 O0 2.223 . S
Cd1 O4 2.297 . S
Cd1 O5 2.439 . S
Cd1 O11 2.240 . S
Cd2 O3 2.240 . S
Cd2 O10 2.223 1_554 S
Cd2 O12 2.297 1_554 S
Cd2 O13 2.439 . S
O3 Cd2 2.240 . S
O3 C8 1.279 . S
O4 Cd1 2.297 . S
O4 C6 1.247 . S
O5 Cd1 2.439 . S
O5 C6 1.208 . S
C6 O4 1.247 . S
C6 O5 1.208 . S
C7 O12 1.247 1_554 S
C7 O13 1.208 . S
C8 O0 1.315 . S
C8 O3 1.279 . S
C9 O10 1.315 . S
C9 O11 1.279 1_556 S
O10 Cd2 2.223 1_556 S
O10 C9 1.315 . S
O11 Cd1 2.240 . S
O11 C9 1.279 1_554 S
O12 Cd2 2.297 1_556 S
O12 C7 1.247 1_556 S
O13 Cd2 2.439 . S
O13 C7 1.208 . S
O14 Cd15 2.223 . S
O14 C22 1.315 . S
Cd15 O14 2.223 . S
Cd15 O18 2.297 . S
Cd15 O19 2.439 . S
Cd15 O25 2.240 . S
Cd16 O17 2.240 . S
Cd16 O24 2.223 . S
Cd16 O26 2.297 . S
Cd16 O27 2.439 . S
O17 Cd16 2.240 . S
O17 C22 1.279 . S
O18 Cd15 2.297 . S
O18 C20 1.247 . S
O19 Cd15 2.439 . S
O19 C20 1.208 . S
C20 O18 1.247 . S
C20 O19 1.208 . S
C21 O26 1.247 . S
C21 O27 1.208 . S
C22 O14 1.315 . S
C22 O17 1.279 . S
C23 O24 1.315 . S
C23 O25 1.279 . S
O24 Cd16 2.223 . S
O24 C23 1.315 . S
O25 Cd15 2.240 . S
O25 C23 1.279 . S
O26 Cd16 2.297 . S
O26 C21 1.247 . S
O27 Cd16 2.439 . S
O27 C21 1.208 . S
O28 Cd29 2.223 . S
O28 C36 1.315 . S
Cd29 O28 2.223 . S
Cd29 O32 2.297 . S
Cd29 O33 2.439 . S
Cd29 O39 2.240 . S
Cd30 O31 2.240 . S
Cd30 O38 2.223 . S
Cd30 O40 2.297 . S
Cd30 O41 2.439 . S
O31 Cd30 2.240 . S
O31 C36 1.279 . S
O32 Cd29 2.297 . S
O32 C34 1.247 . S
O33 Cd29 2.439 . S
O33 C34 1.208 . S
C34 O32 1.247 . S
C34 O33 1.208 . S
C35 O40 1.247 . S
C35 O41 1.208 . S
C36 O28 1.315 . S
C36 O31 1.279 . S
C37 O38 1.315 . S
C37 O39 1.279 . S
O38 Cd30 2.223 . S
O38 C37 1.315 . S
O39 Cd29 2.240 . S
O39 C37 1.279 . S
O40 Cd30 2.297 . S
O40 C35 1.247 . S
O41 Cd30 2.439 . S
O41 C35 1.208 . S
O42 Cd43 2.223 . S
O42 C50 1.315 . S
Cd43 O42 2.223 . S
Cd43 O46 2.297 . S
Cd43 O47 2.439 . S
Cd43 O53 2.240 . S
Cd44 O45 2.240 . S
Cd44 O52 2.223 1_554 S
Cd44 O54 2.297 1_554 S
Cd44 O55 2.439 . S
O45 Cd44 2.240 . S
O45 C50 1.279 . S
O46 Cd43 2.297 . S
O46 C48 1.247 . S
O47 Cd43 2.439 . S
O47 C48 1.208 . S
C48 O46 1.247 . S
C48 O47 1.208 . S
C49 O54 1.247 1_554 S
C49 O55 1.208 . S
C50 O42 1.315 . S
C50 O45 1.279 . S
C51 O52 1.315 . S
C51 O53 1.279 1_556 S
O52 Cd44 2.223 1_556 S
O52 C51 1.315 . S
O53 Cd43 2.240 . S
O53 C51 1.279 1_554 S
O54 Cd44 2.297 1_556 S
O54 C49 1.247 1_556 S
O55 Cd44 2.439 . S
O55 C49 1.208 . S
O56 Cd57 2.223 . S
O56 C64 1.315 . S
Cd57 O56 2.223 . S
Cd57 O60 2.297 . S
Cd57 O61 2.439 . S
Cd57 O67 2.240 . S
Cd58 O59 2.240 . S
Cd58 O66 2.223 . S
Cd58 O68 2.297 . S
Cd58 O69 2.439 . S
O59 Cd58 2.240 . S
O59 C64 1.279 . S
O60 Cd57 2.297 . S
O60 C62 1.247 . S
O61 Cd57 2.439 . S
O61 C62 1.208 . S
C62 O60 1.247 . S
C62 O61 1.208 . S
C63 O68 1.247 . S
C63 O69 1.208 . S
C64 O56 1.315 . S
C64 O59 1.279 . S
C65 O66 1.315 . S
C65 O67 1.279 . S
O66 Cd58 2.223 . S
O66 C65 1.315 . S
O67 Cd57 2.240 . S
O67 C65 1.279 . S
O68 Cd58 2.297 . S
O68 C63 1.247 . S
O69 Cd58 2.439 . S
O69 C63 1.208 . S
O70 Cd71 2.223 . S
O70 C78 1.315 . S
Cd71 O70 2.223 . S
Cd71 O74 2.297 . S
Cd71 O75 2.439 . S
Cd71 O81 2.240 . S
Cd72 O73 2.240 . S
Cd72 O80 2.223 . S
Cd72 O82 2.297 . S
Cd72 O83 2.439 . S
O73 Cd72 2.240 . S
O73 C78 1.279 . S
O74 Cd71 2.297 . S
O74 C76 1.247 . S
O75 Cd71 2.439 . S
O75 C76 1.208 . S
C76 O74 1.247 . S
C76 O75 1.208 . S
C77 O82 1.247 . S
C77 O83 1.208 . S
C78 O70 1.315 . S
C78 O73 1.279 . S
C79 O80 1.315 . S
C79 O81 1.279 . S
O80 Cd72 2.223 . S
O80 C79 1.315 . S
O81 Cd71 2.240 . S
O81 C79 1.279 . S
O82 Cd72 2.297 . S
O82 C77 1.247 . S
O83 Cd72 2.439 . S
O83 C77 1.208 . S
O84 Cd85 2.223 . S
O84 C92 1.315 . S
Cd85 O84 2.223 . S
Cd85 O88 2.297 . S
Cd85 O89 2.439 . S
Cd85 O95 2.240 . S
Cd86 O87 2.240 . S
Cd86 O94 2.223 . S
Cd86 O96 2.297 . S
Cd86 O97 2.439 . S
O87 Cd86 2.240 . S
O87 C92 1.279 . S
O88 Cd85 2.297 . S
O88 C90 1.247 . S
O89 Cd85 2.439 . S
O89 C90 1.208 . S
C90 O88 1.247 . S
C90 O89 1.208 . S
C91 O96 1.247 . S
C91 O97 1.208 . S
C92 O84 1.315 . S
C92 O87 1.279 . S
C93 O94 1.315 . S
C93 O95 1.279 . S
O94 Cd86 2.223 . S
O94 C93 1.315 . S
O95 Cd85 2.240 . S
O95 C93 1.279 . S
O96 Cd86 2.297 . S
O96 C91 1.247 . S
O97 Cd86 2.439 . S
O97 C91 1.208 . S
O98 Cd99 2.223 . S
O98 C106 1.315 . S
Cd99 O98 2.223 . S
Cd99 O102 2.297 . S
Cd99 O103 2.439 . S
Cd99 O109 2.240 . S
Cd100 O101 2.240 . S
Cd100 O108 2.223 1_556 S
Cd100 O110 2.297 1_556 S
Cd100 O111 2.439 . S
O101 Cd100 2.240 . S
O101 C106 1.279 . S
O102 Cd99 2.297 . S
O102 C104 1.247 . S
O103 Cd99 2.439 . S
O103 C104 1.208 . S
C104 O102 1.247 . S
C104 O103 1.208 . S
C105 O110 1.247 1_556 S
C105 O111 1.208 . S
C106 O98 1.315 . S
C106 O101 1.279 . S
C107 O108 1.315 . S
C107 O109 1.279 1_554 S
O108 Cd100 2.223 1_554 S
O108 C107 1.315 . S
O109 Cd99 2.240 . S
O109 C107 1.279 1_556 S
O110 Cd100 2.297 1_554 S
O110 C105 1.247 1_554 S
O111 Cd100 2.439 . S
O111 C105 1.208 . S
O112 Cd113 2.223 . S
O112 C120 1.315 . S
Cd113 O112 2.223 . S
Cd113 O116 2.297 . S
Cd113 O117 2.439 . S
Cd113 O123 2.240 . S
Cd114 O115 2.240 . S
Cd114 O122 2.223 . S
Cd114 O124 2.297 . S
Cd114 O125 2.439 . S
O115 Cd114 2.240 . S
O115 C120 1.279 . S
O116 Cd113 2.297 . S
O116 C118 1.247 . S
O117 Cd113 2.439 . S
O117 C118 1.208 . S
C118 O116 1.247 . S
C118 O117 1.208 . S
C119 O124 1.247 . S
C119 O125 1.208 . S
C120 O112 1.315 . S
C120 O115 1.279 . S
C121 O122 1.315 . S
C121 O123 1.279 . S
O122 Cd114 2.223 . S
O122 C121 1.315 . S
O123 Cd113 2.240 . S
O123 C121 1.279 . S
O124 Cd114 2.297 . S
O124 C119 1.247 . S
O125 Cd114 2.439 . S
O125 C119 1.208 . S
O126 Cd127 2.223 . S
O126 C134 1.315 . S
Cd127 O126 2.223 . S
Cd127 O130 2.297 . S
Cd127 O131 2.439 . S
Cd127 O137 2.240 . S
Cd128 O129 2.240 . S
Cd128 O136 2.223 . S
Cd128 O138 2.297 . S
Cd128 O139 2.439 . S
O129 Cd128 2.240 . S
O129 C134 1.279 . S
O130 Cd127 2.297 . S
O130 C132 1.247 . S
O131 Cd127 2.439 . S
O131 C132 1.208 . S
C132 O130 1.247 . S
C132 O131 1.208 . S
C133 O138 1.247 . S
C133 O139 1.208 . S
C134 O126 1.315 . S
C134 O129 1.279 . S
C135 O136 1.315 . S
C135 O137 1.279 . S
O136 Cd128 2.223 . S
O136 C135 1.315 . S
O137 Cd127 2.240 . S
O137 C135 1.279 . S
O138 Cd128 2.297 . S
O138 C133 1.247 . S
O139 Cd128 2.439 . S
O139 C133 1.208 . S
O140 Cd141 2.223 . S
O140 C148 1.315 . S
Cd141 O140 2.223 . S
Cd141 O144 2.297 . S
Cd141 O145 2.439 . S
Cd141 O151 2.240 . S
Cd142 O143 2.240 . S
Cd142 O150 2.223 1_556 S
Cd142 O152 2.297 1_556 S
Cd142 O153 2.439 . S
O143 Cd142 2.240 . S
O143 C148 1.279 . S
O144 Cd141 2.297 . S
O144 C146 1.247 . S
O145 Cd141 2.439 . S
O145 C146 1.208 . S
C146 O144 1.247 . S
C146 O145 1.208 . S
C147 O152 1.247 1_556 S
C147 O153 1.208 . S
C148 O140 1.315 . S
C148 O143 1.279 . S
C149 O150 1.315 . S
C149 O151 1.279 1_554 S
O150 Cd142 2.223 1_554 S
O150 C149 1.315 . S
O151 Cd141 2.240 . S
O151 C149 1.279 1_556 S
O152 Cd142 2.297 1_554 S
O152 C147 1.247 1_554 S
O153 Cd142 2.439 . S
O153 C147 1.208 . S
O154 Cd155 2.223 . S
O154 C162 1.315 . S
Cd155 O154 2.223 . S
Cd155 O158 2.297 . S
Cd155 O159 2.439 . S
Cd155 O165 2.240 . S
Cd156 O157 2.240 . S
Cd156 O164 2.223 . S
Cd156 O166 2.297 . S
Cd156 O167 2.439 . S
O157 Cd156 2.240 . S
O157 C162 1.279 . S
O158 Cd155 2.297 . S
O158 C160 1.247 . S
O159 Cd155 2.439 . S
O159 C160 1.208 . S
C160 O158 1.247 . S
C160 O159 1.208 . S
C161 O166 1.247 . S
C161 O167 1.208 . S
C162 O154 1.315 . S
C162 O157 1.279 . S
C163 O164 1.315 . S
C163 O165 1.279 . S
O164 Cd156 2.223 . S
O164 C163 1.315 . S
O165 Cd155 2.240 . S
O165 C163 1.279 . S
O166 Cd156 2.297 . S
O166 C161 1.247 . S
O167 Cd156 2.439 . S
O167 C161 1.208 . S
H168 C174 0.930 . S
H169 C177 0.930 . S
H170 C178 0.930 . S
H171 C179 0.930 . S
H172 C182 0.930 . S
H173 C183 0.930 . S
C174 H168 0.930 . S
C174 C175 1.355 . S
C174 C176 1.415 . S
C175 C174 1.355 . S
C175 C177 1.419 . S
C176 C174 1.415 . S
C176 C181 1.425 . S
C176 C183 1.409 . S
C177 H169 0.930 . S
C177 C175 1.419 . S
C177 C178 1.362 . S
C178 H170 0.930 . S
C178 C177 1.362 . S
C178 C181 1.409 . S
C179 H171 0.930 . S
C179 C180 1.355 . S
C179 C181 1.415 . S
C180 C179 1.355 . S
C180 C182 1.419 . S
C181 C176 1.425 . S
C181 C178 1.409 . S
C181 C179 1.415 . S
C182 H172 0.930 . S
C182 C180 1.419 . S
C182 C183 1.362 . S
C183 H173 0.930 . S
C183 C176 1.409 . S
C183 C182 1.362 . S
H184 C190 0.930 . S
H185 C193 0.930 . S
H186 C194 0.930 . S
H187 C195 0.930 . S
H188 C198 0.930 . S
H189 C199 0.930 . S
C190 H184 0.930 . S
C190 C191 1.355 . S
C190 C192 1.415 . S
C191 C190 1.355 . S
C191 C193 1.419 . S
C192 C190 1.415 . S
C192 C197 1.425 . S
C192 C199 1.409 . S
C193 H185 0.930 . S
C193 C191 1.419 . S
C193 C194 1.362 . S
C194 H186 0.930 . S
C194 C193 1.362 . S
C194 C197 1.409 . S
C195 H187 0.930 . S
C195 C196 1.355 . S
C195 C197 1.415 . S
C196 C195 1.355 . S
C196 C198 1.419 . S
C197 C192 1.425 . S
C197 C194 1.409 . S
C197 C195 1.415 . S
C198 H188 0.930 . S
C198 C196 1.419 . S
C198 C199 1.362 . S
C199 H189 0.930 . S
C199 C192 1.409 . S
C199 C198 1.362 . S
H200 C206 0.930 . S
H201 C209 0.930 . S
H202 C210 0.930 . S
H203 C211 0.930 . S
H204 C214 0.930 . S
H205 C215 0.930 . S
C206 H200 0.930 . S
C206 C207 1.355 . S
C206 C208 1.415 . S
C207 C206 1.355 . S
C207 C209 1.419 . S
C208 C206 1.415 . S
C208 C213 1.425 1_556 S
C208 C215 1.409 1_556 S
C209 H201 0.930 . S
C209 C207 1.419 . S
C209 C210 1.362 . S
C210 H202 0.930 . S
C210 C209 1.362 . S
C210 C213 1.409 1_556 S
C211 H203 0.930 . S
C211 C212 1.355 . S
C211 C213 1.415 . S
C212 C211 1.355 . S
C212 C214 1.419 . S
C213 C208 1.425 1_554 S
C213 C210 1.409 1_554 S
C213 C211 1.415 . S
C214 H204 0.930 . S
C214 C212 1.419 . S
C214 C215 1.362 . S
C215 H205 0.930 . S
C215 C208 1.409 1_554 S
C215 C214 1.362 . S
H216 C222 0.930 . S
H217 C225 0.930 . S
H218 C226 0.930 . S
H219 C227 0.930 . S
H220 C230 0.930 . S
H221 C231 0.930 . S
C222 H216 0.930 . S
C222 C223 1.355 . S
C222 C224 1.415 . S
C223 C222 1.355 . S
C223 C225 1.419 . S
C224 C222 1.415 . S
C224 C229 1.425 . S
C224 C231 1.409 . S
C225 H217 0.930 . S
C225 C223 1.419 . S
C225 C226 1.362 . S
C226 H218 0.930 . S
C226 C225 1.362 . S
C226 C229 1.409 . S
C227 H219 0.930 . S
C227 C228 1.355 . S
C227 C229 1.415 . S
C228 C227 1.355 . S
C228 C230 1.419 . S
C229 C224 1.425 . S
C229 C226 1.409 . S
C229 C227 1.415 . S
C230 H220 0.930 . S
C230 C228 1.419 . S
C230 C231 1.362 . S
C231 H221 0.930 . S
C231 C224 1.409 . S
C231 C230 1.362 . S
H232 C238 0.930 . S
H233 C241 0.930 . S
H234 C242 0.930 . S
H235 C243 0.930 . S
H236 C246 0.930 . S
H237 C247 0.930 . S
C238 H232 0.930 . S
C238 C239 1.355 . S
C238 C240 1.415 . S
C239 C238 1.355 . S
C239 C241 1.419 . S
C240 C238 1.415 . S
C240 C245 1.425 . S
C240 C247 1.409 . S
C241 H233 0.930 . S
C241 C239 1.419 . S
C241 C242 1.362 . S
C242 H234 0.930 . S
C242 C241 1.362 . S
C242 C245 1.409 . S
C243 H235 0.930 . S
C243 C244 1.355 . S
C243 C245 1.415 . S
C244 C243 1.355 . S
C244 C246 1.419 . S
C245 C240 1.425 . S
C245 C242 1.409 . S
C245 C243 1.415 . S
C246 H236 0.930 . S
C246 C244 1.419 . S
C246 C247 1.362 . S
C247 H237 0.930 . S
C247 C240 1.409 . S
C247 C246 1.362 . S
H248 C254 0.930 . S
H249 C257 0.930 . S
H250 C258 0.930 1_556 S
H251 C259 0.930 . S
H252 C262 0.930 . S
H253 C263 0.930 1_554 S
C254 H248 0.930 . S
C254 C255 1.355 . S
C254 C256 1.415 . S
C255 C254 1.355 . S
C255 C257 1.419 . S
C256 C254 1.415 . S
C256 C261 1.425 1_554 S
C256 C263 1.409 1_554 S
C257 H249 0.930 . S
C257 C255 1.419 . S
C257 C258 1.362 . S
C258 H250 0.930 1_554 S
C258 C257 1.362 . S
C258 C261 1.409 1_554 S
C259 H251 0.930 . S
C259 C260 1.355 . S
C259 C261 1.415 . S
C260 C259 1.355 . S
C260 C262 1.419 . S
C261 C256 1.425 1_556 S
C261 C258 1.409 1_556 S
C261 C259 1.415 . S
C262 H252 0.930 . S
C262 C260 1.419 . S
C262 C263 1.362 . S
C263 H253 0.930 1_556 S
C263 C256 1.409 1_556 S
C263 C262 1.362 . S
H264 C270 0.930 . S
H265 C273 0.930 . S
H266 C274 0.930 . S
H267 C275 0.930 . S
H268 C278 0.930 . S
H269 C279 0.930 . S
C270 H264 0.930 . S
C270 C271 1.355 1_556 S
C270 C272 1.415 . S
C271 C270 1.355 1_554 S
C271 C273 1.419 . S
C272 C270 1.415 . S
C272 C277 1.425 1_556 S
C272 C279 1.409 . S
C273 H265 0.930 . S
C273 C271 1.419 . S
C273 C274 1.362 . S
C274 H266 0.930 . S
C274 C273 1.362 . S
C274 C277 1.409 . S
C275 H267 0.930 . S
C275 C276 1.355 1_554 S
C275 C277 1.415 . S
C276 C275 1.355 1_556 S
C276 C278 1.419 . S
C277 C272 1.425 1_554 S
C277 C274 1.409 . S
C277 C275 1.415 . S
C278 H268 0.930 . S
C278 C276 1.419 . S
C278 C279 1.362 . S
C279 H269 0.930 . S
C279 C272 1.409 . S
C279 C278 1.362 . S
H280 C286 0.930 . S
H281 C289 0.930 . S
H282 C290 0.930 . S
H283 C291 0.930 . S
H284 C294 0.930 . S
H285 C295 0.930 . S
C286 H280 0.930 . S
C286 C287 1.355 . S
C286 C288 1.415 . S
C287 C286 1.355 . S
C287 C289 1.419 . S
C288 C286 1.415 . S
C288 C293 1.425 . S
C288 C295 1.409 . S
C289 H281 0.930 . S
C289 C287 1.419 . S
C289 C290 1.362 . S
C290 H282 0.930 . S
C290 C289 1.362 . S
C290 C293 1.409 . S
C291 H283 0.930 . S
C291 C292 1.355 . S
C291 C293 1.415 . S
C292 C291 1.355 . S
C292 C294 1.419 . S
C293 C288 1.425 . S
C293 C290 1.409 . S
C293 C291 1.415 . S
C294 H284 0.930 . S
C294 C292 1.419 . S
C294 C295 1.362 . S
C295 H285 0.930 . S
C295 C288 1.409 . S
C295 C294 1.362 . S
H296 C302 0.930 . S
H297 C305 0.930 . S
H298 C306 0.930 . S
H299 C307 0.930 . S
H300 C310 0.930 . S
H301 C311 0.930 . S
C302 H296 0.930 . S
C302 C303 1.355 . S
C302 C304 1.415 . S
C303 C302 1.355 . S
C303 C305 1.419 . S
C304 C302 1.415 . S
C304 C309 1.425 . S
C304 C311 1.409 . S
C305 H297 0.930 . S
C305 C303 1.419 . S
C305 C306 1.362 . S
C306 H298 0.930 . S
C306 C305 1.362 . S
C306 C309 1.409 . S
C307 H299 0.930 . S
C307 C308 1.355 . S
C307 C309 1.415 . S
C308 C307 1.355 . S
C308 C310 1.419 . S
C309 C304 1.425 . S
C309 C306 1.409 . S
C309 C307 1.415 . S
C310 H300 0.930 . S
C310 C308 1.419 . S
C310 C311 1.362 . S
C311 H301 0.930 . S
C311 C304 1.409 . S
C311 C310 1.362 . S
H312 C318 0.930 . S
H313 C321 0.930 . S
H314 C322 0.930 . S
H315 C323 0.930 . S
H316 C326 0.930 . S
H317 C327 0.930 . S
C318 H312 0.930 . S
C318 C319 1.355 . S
C318 C320 1.415 . S
C319 C318 1.355 . S
C319 C321 1.419 1_554 S
C320 C318 1.415 . S
C320 C325 1.425 1_554 S
C320 C327 1.409 . S
C321 H313 0.930 . S
C321 C319 1.419 1_556 S
C321 C322 1.362 . S
C322 H314 0.930 . S
C322 C321 1.362 . S
C322 C325 1.409 . S
C323 H315 0.930 . S
C323 C324 1.355 . S
C323 C325 1.415 . S
C324 C323 1.355 . S
C324 C326 1.419 1_556 S
C325 C320 1.425 1_556 S
C325 C322 1.409 . S
C325 C323 1.415 . S
C326 H316 0.930 . S
C326 C324 1.419 1_554 S
C326 C327 1.362 . S
C327 H317 0.930 . S
C327 C320 1.409 . S
C327 C326 1.362 . S
H328 C334 0.930 . S
H329 C337 0.930 . S
H330 C338 0.930 . S
H331 C339 0.930 . S
H332 C342 0.930 . S
H333 C343 0.930 . S
C334 H328 0.930 . S
C334 C335 1.355 . S
C334 C336 1.415 . S
C335 C334 1.355 . S
C335 C337 1.419 . S
C336 C334 1.415 . S
C336 C341 1.425 . S
C336 C343 1.409 . S
C337 H329 0.930 . S
C337 C335 1.419 . S
C337 C338 1.362 . S
C338 H330 0.930 . S
C338 C337 1.362 . S
C338 C341 1.409 . S
C339 H331 0.930 . S
C339 C340 1.355 . S
C339 C341 1.415 . S
C340 C339 1.355 . S
C340 C342 1.419 . S
C341 C336 1.425 . S
C341 C338 1.409 . S
C341 C339 1.415 . S
C342 H332 0.930 . S
C342 C340 1.419 . S
C342 C343 1.362 . S
C343 H333 0.930 . S
C343 C336 1.409 . S
C343 C342 1.362 . S
H344 C350 0.930 . S
H345 C353 0.930 . S
H346 C354 0.930 . S
H347 C355 0.930 . S
H348 C358 0.930 . S
H349 C359 0.930 . S
C350 H344 0.930 . S
C350 C351 1.355 . S
C350 C352 1.415 . S
C351 C350 1.355 . S
C351 C353 1.419 . S
C352 C350 1.415 . S
C352 C357 1.425 . S
C352 C359 1.409 . S
C353 H345 0.930 . S
C353 C351 1.419 . S
C353 C354 1.362 . S
C354 H346 0.930 . S
C354 C353 1.362 . S
C354 C357 1.409 . S
C355 H347 0.930 . S
C355 C356 1.355 . S
C355 C357 1.415 . S
C356 C355 1.355 . S
C356 C358 1.419 . S
C357 C352 1.425 . S
C357 C354 1.409 . S
C357 C355 1.415 . S
C358 H348 0.930 . S
C358 C356 1.419 . S
C358 C359 1.362 . S
C359 H349 0.930 . S
C359 C352 1.409 . S
C359 C358 1.362 . S
H360 C366 0.930 . S
H361 C369 0.930 . S
H362 C370 0.930 . S
H363 C371 0.930 . S
H364 C374 0.930 . S
H365 C375 0.930 1_556 S
C366 H360 0.930 . S
C366 C367 1.355 . S
C366 C368 1.415 . S
C367 C366 1.355 . S
C367 C369 1.419 . S
C368 C366 1.415 . S
C368 C373 1.425 . S
C368 C375 1.409 . S
C369 H361 0.930 . S
C369 C367 1.419 . S
C369 C370 1.362 . S
C370 H362 0.930 . S
C370 C369 1.362 . S
C370 C373 1.409 . S
C371 H363 0.930 . S
C371 C372 1.355 . S
C371 C373 1.415 . S
C372 C371 1.355 . S
C372 C374 1.419 . S
C373 C368 1.425 . S
C373 C370 1.409 . S
C373 C371 1.415 . S
C374 H364 0.930 . S
C374 C372 1.419 . S
C374 C375 1.362 . S
C375 H365 0.930 1_554 S
C375 C368 1.409 . S
C375 C374 1.362 . S
H376 C382 0.930 . S
H377 C385 0.930 . S
H378 C386 0.930 . S
H379 C387 0.930 . S
H380 C390 0.930 . S
H381 C391 0.930 . S
C382 H376 0.930 . S
C382 C383 1.355 . S
C382 C384 1.415 . S
C383 C382 1.355 . S
C383 C385 1.419 . S
C384 C382 1.415 . S
C384 C389 1.425 1_655 S
C384 C391 1.409 . S
C385 H377 0.930 . S
C385 C383 1.419 . S
C385 C386 1.362 1_655 S
C386 H378 0.930 . S
C386 C385 1.362 1_455 S
C386 C389 1.409 . S
C387 H379 0.930 . S
C387 C388 1.355 . S
C387 C389 1.415 . S
C388 C387 1.355 . S
C388 C390 1.419 . S
C389 C384 1.425 1_455 S
C389 C386 1.409 . S
C389 C387 1.415 . S
C390 H380 0.930 . S
C390 C388 1.419 . S
C390 C391 1.362 1_455 S
C391 H381 0.930 . S
C391 C384 1.409 . S
C391 C390 1.362 1_655 S
H392 C398 0.930 . S
H393 C401 0.930 . S
H394 C402 0.930 . S
H395 C403 0.930 . S
H396 C406 0.930 . S
H397 C407 0.930 . S
C398 H392 0.930 . S
C398 C399 1.355 . S
C398 C400 1.415 1_545 S
C399 C398 1.355 . S
C399 C401 1.419 . S
C400 C398 1.415 1_565 S
C400 C405 1.425 1_565 S
C400 C407 1.409 . S
C401 H393 0.930 . S
C401 C399 1.419 . S
C401 C402 1.362 . S
C402 H394 0.930 . S
C402 C401 1.362 . S
C402 C405 1.409 . S
C403 H395 0.930 . S
C403 C404 1.355 . S
C403 C405 1.415 1_565 S
C404 C403 1.355 . S
C404 C406 1.419 . S
C405 C400 1.425 1_545 S
C405 C402 1.409 . S
C405 C403 1.415 1_545 S
C406 H396 0.930 . S
C406 C404 1.419 . S
C406 C407 1.362 . S
C407 H397 0.930 . S
C407 C400 1.409 . S
C407 C406 1.362 . S
H408 C414 0.930 . S
H409 C417 0.930 . S
H410 C418 0.930 . S
H411 C419 0.930 . S
H412 C422 0.930 . S
H413 C423 0.930 . S
C414 H408 0.930 . S
C414 C415 1.355 . S
C414 C416 1.415 . S
C415 C414 1.355 . S
C415 C417 1.419 . S
C416 C414 1.415 . S
C416 C421 1.425 . S
C416 C423 1.409 . S
C417 H409 0.930 . S
C417 C415 1.419 . S
C417 C418 1.362 . S
C418 H410 0.930 . S
C418 C417 1.362 . S
C418 C421 1.409 . S
C419 H411 0.930 . S
C419 C420 1.355 . S
C419 C421 1.415 . S
C420 C419 1.355 . S
C420 C422 1.419 . S
C421 C416 1.425 . S
C421 C418 1.409 . S
C421 C419 1.415 . S
C422 H412 0.930 . S
C422 C420 1.419 . S
C422 C423 1.362 . S
C423 H413 0.930 . S
C423 C416 1.409 . S
C423 C422 1.362 . S
H424 C430 0.930 1_554 S
H425 C433 0.930 . S
H426 C434 0.930 . S
H427 C435 0.930 . S
H428 C438 0.930 1_554 S
H429 C439 0.930 . S
C430 H424 0.930 1_556 S
C430 C431 1.355 . S
C430 C432 1.404 1_455 S
C431 C430 1.355 . S
C431 C433 1.419 . S
C432 C430 1.404 1_655 S
C432 C437 1.432 1_655 S
C432 C439 1.417 1_556 S
C433 H425 0.930 . S
C433 C431 1.419 . S
C433 C434 1.362 . S
C434 H426 0.930 . S
C434 C433 1.362 . S
C434 C437 1.417 . S
C435 H427 0.930 . S
C435 C436 1.355 . S
C435 C437 1.404 1_655 S
C436 C435 1.355 . S
C436 C438 1.419 . S
C437 C432 1.432 1_455 S
C437 C434 1.417 . S
C437 C435 1.404 1_455 S
C438 H428 0.930 1_556 S
C438 C436 1.419 . S
C438 C439 1.362 1_556 S
C439 H429 0.930 . S
C439 C432 1.417 1_554 S
C439 C438 1.362 1_554 S
H440 C446 0.930 . S
H441 C449 0.930 . S
H442 C450 0.930 . S
H443 C451 0.930 . S
H444 C454 0.930 . S
H445 C455 0.930 . S
C446 H440 0.930 . S
C446 C447 1.355 . S
C446 C448 1.415 . S
C447 C446 1.355 . S
C447 C449 1.419 . S
C448 C446 1.415 . S
C448 C453 1.425 1_565 S
C448 C455 1.409 . S
C449 H441 0.930 . S
C449 C447 1.419 . S
C449 C450 1.362 1_565 S
C450 H442 0.930 . S
C450 C449 1.362 1_545 S
C450 C453 1.409 . S
C451 H443 0.930 . S
C451 C452 1.355 . S
C451 C453 1.415 . S
C452 C451 1.355 . S
C452 C454 1.419 . S
C453 C448 1.425 1_545 S
C453 C450 1.409 . S
C453 C451 1.415 . S
C454 H444 0.930 . S
C454 C452 1.419 . S
C454 C455 1.362 1_545 S
C455 H445 0.930 . S
C455 C448 1.409 . S
C455 C454 1.362 1_565 S
H456 C462 0.930 . S
H457 C465 0.930 . S
H458 C466 0.930 . S
H459 C467 0.930 . S
H460 C470 0.930 . S
H461 C471 0.930 . S
C462 H456 0.930 . S
C462 C463 1.355 . S
C462 C464 1.415 . S
C463 C462 1.355 . S
C463 C465 1.419 . S
C464 C462 1.415 . S
C464 C469 1.425 . S
C464 C471 1.409 . S
C465 H457 0.930 . S
C465 C463 1.419 . S
C465 C466 1.362 . S
C466 H458 0.930 . S
C466 C465 1.362 . S
C466 C469 1.409 . S
C467 H459 0.930 . S
C467 C468 1.355 . S
C467 C469 1.415 . S
C468 C467 1.355 . S
C468 C470 1.419 . S
C469 C464 1.425 . S
C469 C466 1.409 . S
C469 C467 1.415 . S
C470 H460 0.930 . S
C470 C468 1.419 . S
C470 C471 1.362 . S
C471 H461 0.930 . S
C471 C464 1.409 . S
C471 C470 1.362 . S
H472 C478 0.930 . S
H473 C481 0.930 . S
H474 C482 0.930 . S
H475 C483 0.930 . S
H476 C486 0.930 . S
H477 C487 0.930 . S
C478 H472 0.930 . S
C478 C479 1.355 . S
C478 C480 1.415 . S
C479 C478 1.355 . S
C479 C481 1.419 . S
C480 C478 1.415 . S
C480 C485 1.425 . S
C480 C487 1.409 . S
C481 H473 0.930 . S
C481 C479 1.419 . S
C481 C482 1.362 . S
C482 H474 0.930 . S
C482 C481 1.362 . S
C482 C485 1.409 . S
C483 H475 0.930 . S
C483 C484 1.355 . S
C483 C485 1.415 . S
C484 C483 1.355 . S
C484 C486 1.419 . S
C485 C480 1.425 . S
C485 C482 1.409 . S
C485 C483 1.415 . S
C486 H476 0.930 . S
C486 C484 1.419 . S
C486 C487 1.362 . S
C487 H477 0.930 . S
C487 C480 1.409 . S
C487 C486 1.362 . S
H488 C494 0.930 . S
H489 C497 0.930 . S
H490 C498 0.930 . S
H491 C499 0.930 . S
H492 C502 0.930 . S
H493 C503 0.930 . S
C494 H488 0.930 . S
C494 C495 1.355 . S
C494 C496 1.415 . S
C495 C494 1.355 . S
C495 C497 1.419 . S
C496 C494 1.415 . S
C496 C501 1.425 . S
C496 C503 1.409 . S
C497 H489 0.930 . S
C497 C495 1.419 . S
C497 C498 1.362 . S
C498 H490 0.930 . S
C498 C497 1.362 . S
C498 C501 1.409 . S
C499 H491 0.930 . S
C499 C500 1.355 . S
C499 C501 1.415 . S
C500 C499 1.355 . S
C500 C502 1.419 . S
C501 C496 1.425 . S
C501 C498 1.409 . S
C501 C499 1.415 . S
C502 H492 0.930 . S
C502 C500 1.419 . S
C502 C503 1.362 . S
C503 H493 0.930 . S
C503 C496 1.409 . S
C503 C502 1.362 . S
H504 C510 0.930 . S
H505 C513 0.930 . S
H506 C514 0.930 . S
H507 C515 0.930 . S
H508 C518 0.930 . S
H509 C519 0.930 . S
C510 H504 0.930 . S
C510 C511 1.355 . S
C510 C512 1.415 . S
C511 C510 1.355 . S
C511 C513 1.419 . S
C512 C510 1.415 . S
C512 C517 1.425 . S
C512 C519 1.409 . S
C513 H505 0.930 . S
C513 C511 1.419 . S
C513 C514 1.362 . S
C514 H506 0.930 . S
C514 C513 1.362 . S
C514 C517 1.409 . S
C515 H507 0.930 . S
C515 C516 1.355 . S
C515 C517 1.415 . S
C516 C515 1.355 . S
C516 C518 1.419 . S
C517 C512 1.425 . S
C517 C514 1.409 . S
C517 C515 1.415 . S
C518 H508 0.930 . S
C518 C516 1.419 . S
C518 C519 1.362 . S
C519 H509 0.930 . S
C519 C512 1.409 . S
C519 C518 1.362 . S
H520 C526 0.930 . S
H521 C529 0.930 . S
H522 C530 0.930 . S
H523 C531 0.930 . S
H524 C534 0.930 . S
H525 C535 0.930 . S
C526 H520 0.930 . S
C526 C527 1.355 . S
C526 C528 1.415 . S
C527 C526 1.355 . S
C527 C529 1.419 . S
C528 C526 1.415 . S
C528 C533 1.425 . S
C528 C535 1.409 . S
C529 H521 0.930 . S
C529 C527 1.419 . S
C529 C530 1.362 . S
C530 H522 0.930 . S
C530 C529 1.362 . S
C530 C533 1.409 . S
C531 H523 0.930 . S
C531 C532 1.355 . S
C531 C533 1.415 . S
C532 C531 1.355 . S
C532 C534 1.419 . S
C533 C528 1.425 . S
C533 C530 1.409 . S
C533 C531 1.415 . S
C534 H524 0.930 . S
C534 C532 1.419 . S
C534 C535 1.362 . S
C535 H525 0.930 . S
C535 C528 1.409 . S
C535 C534 1.362 . S
H536 C542 0.930 . S
H537 C545 0.930 . S
H538 C546 0.930 . S
H539 C547 0.930 . S
H540 C550 0.930 . S
H541 C551 0.930 . S
C542 H536 0.930 . S
C542 C543 1.355 . S
C542 C544 1.415 . S
C543 C542 1.355 . S
C543 C545 1.419 . S
C544 C542 1.415 . S
C544 C549 1.425 . S
C544 C551 1.409 . S
C545 H537 0.930 . S
C545 C543 1.419 . S
C545 C546 1.362 . S
C546 H538 0.930 . S
C546 C545 1.362 . S
C546 C549 1.409 . S
C547 H539 0.930 . S
C547 C548 1.355 . S
C547 C549 1.415 . S
C548 C547 1.355 . S
C548 C550 1.419 . S
C549 C544 1.425 . S
C549 C546 1.409 . S
C549 C547 1.415 . S
C550 H540 0.930 . S
C550 C548 1.419 . S
C550 C551 1.362 . S
C551 H541 0.930 . S
C551 C544 1.409 . S
C551 C550 1.362 . S
C175 C6 1.461 . S
C180 C90 1.476 . S
C191 C20 1.437 . S
C196 C104 1.448 . S
C207 C34 1.471 . S
C212 C118 1.452 . S
C223 C48 1.450 . S
C228 C132 1.438 . S
C239 C62 1.461 . S
C244 C146 1.476 . S
C255 C160 1.476 . S
C260 C76 1.474 . S
C271 C7 1.435 . S
C276 C147 1.427 . S
C287 C21 1.441 . S
C292 C161 1.437 . S
C303 C35 1.406 . S
C308 C91 1.404 . S
C319 C49 1.413 . S
C324 C105 1.406 . S
C335 C63 1.407 . S
C340 C119 1.413 . S
C351 C77 1.407 . S
C356 C133 1.404 . S
C367 C8 1.338 . S
C372 C50 1.347 . S
C383 C22 1.330 . S
C388 C64 1.346 . S
C399 C78 1.222 . S
C404 C36 1.222 . S
C415 C92 1.223 . S
C420 C134 1.239 . S
C431 C148 1.256 . S
C436 C106 1.288 . S
C447 C120 1.348 . S
C452 C162 1.346 . S
C463 C93 1.250 . S
C468 C9 1.251 . S
C479 C23 1.264 . S
C484 C107 1.262 . S
C495 C37 1.289 . S
C500 C121 1.290 . S
C511 C135 1.311 . S
C516 C51 1.311 . S
C527 C149 1.237 . S
C532 C65 1.237 . S
C543 C79 1.261 . S
C548 C163 1.263 . S
