# Generated by pormake.
# Topology umf, (4)-cn, num edge types: 1
# Building blocks:
#     Node 0, Type 0, BuildingBlock: ESEHIV_clean_sbu_0, # of connection points: 4
#     Node 1, Type 0, BuildingBlock: ESEHIV_clean_sbu_0, # of connection points: 4
#     Node 2, Type 0, BuildingBlock: ESEHIV_clean_sbu_0, # of connection points: 4
#     Node 3, Type 0, BuildingBlock: ESEHIV_clean_sbu_0, # of connection points: 4
#     Node 4, Type 0, BuildingBlock: ESEHIV_clean_sbu_0, # of connection points: 4
#     Node 5, Type 0, BuildingBlock: ESEHIV_clean_sbu_0, # of connection points: 4
#     Node 6, Type 0, BuildingBlock: ESEHIV_clean_sbu_0, # of connection points: 4
#     Node 7, Type 0, BuildingBlock: ESEHIV_clean_sbu_0, # of connection points: 4
#     Edge 8, Type (0, 0), BuildingBlock: MIFKUJ_clean_linker_0, # of connection points: 2
#     Edge 9, Type (0, 0), BuildingBlock: MIFKUJ_clean_linker_0, # of connection points: 2
#     Edge 10, Type (0, 0), BuildingBlock: MIFKUJ_clean_linker_0, # of connection points: 2
#     Edge 11, Type (0, 0), BuildingBlock: MIFKUJ_clean_linker_0, # of connection points: 2
#     Edge 12, Type (0, 0), BuildingBlock: MIFKUJ_clean_linker_0, # of connection points: 2
#     Edge 13, Type (0, 0), BuildingBlock: MIFKUJ_clean_linker_0, # of connection points: 2
#     Edge 14, Type (0, 0), BuildingBlock: MIFKUJ_clean_linker_0, # of connection points: 2
#     Edge 15, Type (0, 0), BuildingBlock: MIFKUJ_clean_linker_0, # of connection points: 2
#     Edge 16, Type (0, 0), BuildingBlock: MIFKUJ_clean_linker_0, # of connection points: 2
#     Edge 17, Type (0, 0), BuildingBlock: MIFKUJ_clean_linker_0, # of connection points: 2
#     Edge 18, Type (0, 0), BuildingBlock: MIFKUJ_clean_linker_0, # of connection points: 2
#     Edge 19, Type (0, 0), BuildingBlock: MIFKUJ_clean_linker_0, # of connection points: 2
#     Edge 20, Type (0, 0), BuildingBlock: MIFKUJ_clean_linker_0, # of connection points: 2
#     Edge 21, Type (0, 0), BuildingBlock: MIFKUJ_clean_linker_0, # of connection points: 2
#     Edge 22, Type (0, 0), BuildingBlock: MIFKUJ_clean_linker_0, # of connection points: 2
#     Edge 23, Type (0, 0), BuildingBlock: MIFKUJ_clean_linker_0, # of connection points: 2
# Relax obj value: 0.063
# Max RMSD: 0.101
# Mean RMSD: 0.101
data_MOF--net-umf--node1-ESEHIV_clean_sbu_0--edge1-MIFKUJ_clean_linker_0
_symmetry_space_group_name_H-M    P1
_symmetry_Int_Tables_number       1
_symmetry_cell_setting            triclinic
loop_
_symmetry_equiv_pos_as_xyz
'x, y, z'
_cell_length_a     42.55993
_cell_length_b     42.295787
_cell_length_c     68.428881
_cell_angle_alpha  89.558352
_cell_angle_beta   90.118877
_cell_angle_gamma 89.819013
loop_
_atom_site_label
_atom_site_type_symbol
_atom_site_fract_x
_atom_site_fract_y
_atom_site_fract_z
_atom_type_partial_charge
Cu0 Cu 0.05669 0.25806 0.15411 0.0
N1 N 0.07766 0.2217 0.14541 0.0
N2 N 0.07727 0.16999 0.13805 0.0
C3 C 0.0615 0.19441 0.14599 0.0
C4 C 0.10511 0.18246 0.13243 0.0
C5 C 0.10523 0.21452 0.1369 0.0
O6 O 0.05346 0.24936 0.18246 0.0
C7 C 0.03228 0.2642 0.11832 0.0
O8 O 0.06248 0.26949 0.11634 0.0
H9 H 0.03813 0.19282 0.15209 0.0
H10 H 0.12364 0.23134 0.13372 0.0
N11 N 0.07399 0.29911 0.15127 0.0
N12 N 0.07234 0.35239 0.14963 0.0
C13 C 0.0565 0.32547 0.15388 0.0
C14 C 0.10216 0.30955 0.14517 0.0
C15 C 0.10124 0.3423 0.14421 0.0
C16 C 0.0807 0.25103 0.19043 0.0
O17 O 0.10437 0.2597 0.17935 0.0
H18 H 0.0323 0.32461 0.15861 0.0
H19 H 0.12166 0.29447 0.1412 0.0
O20 O 0.02142 0.25851 0.13547 0.0
H21 H 0.12364 0.16967 0.12508 0.0
H22 H 0.12022 0.35732 0.13929 0.0
Cu23 Cu 0.76716 0.04308 0.65759 0.0
N24 N 0.79729 0.06415 0.64236 0.0
N25 N 0.84623 0.06814 0.63031 0.0
C26 C 0.82345 0.04859 0.6368 0.0
C27 C 0.83365 0.09745 0.63167 0.0
C28 C 0.80348 0.09493 0.63915 0.0
O29 O 0.78587 0.04553 0.68418 0.0
C30 C 0.75143 1.00515 0.62715 0.0
O31 O 0.73843 0.03235 0.62244 0.0
H32 H 0.82673 0.0235 0.63929 0.0
H33 H 0.78828 0.11426 0.6433 0.0
N34 N 0.72536 0.05961 0.65743 0.0
N35 N 0.67226 0.06024 0.65771 0.0
C36 C 0.69869 0.04242 0.65963 0.0
C37 C 0.71535 0.08934 0.65393 0.0
C38 C 0.68285 0.08983 0.65422 0.0
C39 C 0.78577 0.07325 0.69164 0.0
O40 O 0.77068 0.0958 0.68221 0.0
H41 H 0.69876 0.01719 0.66236 0.0
H42 H 0.73055 0.10923 0.65097 0.0
O43 O 0.76536 1.00257 0.64371 0.0
H44 H 0.84589 0.11927 0.62849 0.0
H45 H 0.66817 0.11033 0.65144 0.0
Cu46 Cu 0.96854 0.76758 0.15776 0.0
N47 N 0.94882 0.80361 0.14705 0.0
N48 N 0.94947 0.85501 0.13847 0.0
C49 C 0.96623 0.82995 0.14496 0.0
C50 C 0.91986 0.84395 0.13641 0.0
C51 C 0.91952 0.81211 0.14167 0.0
O52 O 0.96962 0.77788 0.18596 0.0
C53 C 0.99497 0.75916 0.12297 0.0
O54 O 0.96479 0.75422 0.12049 0.0
H55 H 0.99083 0.83079 0.14894 0.0
H56 H 0.89933 0.79665 0.14198 0.0
N57 N 0.9508 0.72671 0.15539 0.0
N58 N 0.95207 0.67352 0.15323 0.0
C59 C 0.9684 0.70017 0.15716 0.0
C60 C 0.92204 0.71664 0.1502 0.0
C61 C 0.92272 0.68393 0.14894 0.0
C62 C 0.94146 0.78034 0.19244 0.0
O63 O 0.9184 0.77294 0.18054 0.0
H64 H 0.99305 0.70069 0.16101 0.0
H65 H 0.90227 0.73196 0.14699 0.0
O66 O 1.00504 0.76569 0.14017 0.0
H67 H 0.89984 0.85781 0.1316 0.0
H68 H 0.90328 0.66916 0.14455 0.0
Cu69 Cu 0.25014 0.98503 0.65927 0.0
N70 N 0.21799 0.96658 0.64449 0.0
N71 N 0.16851 0.96564 0.63301 0.0
C72 C 0.18997 0.98136 0.6437 0.0
C73 C 0.18379 0.93946 0.62684 0.0
C74 C 0.21444 0.94015 0.63389 0.0
O75 O 0.23279 0.98106 0.68611 0.0
C76 C 0.26483 0.02267 0.62854 0.0
O77 O 0.27479 0.99455 0.62336 0.0
H78 H 0.18536 1.00317 0.65136 0.0
H79 H 0.23257 0.92262 0.63157 0.0
N80 N 0.29122 0.967 0.65815 0.0
N81 N 0.34436 0.96502 0.65746 0.0
C82 C 0.31842 0.9833 0.66015 0.0
C83 C 0.30018 0.93727 0.65406 0.0
C84 C 0.33265 0.93595 0.6537 0.0
C85 C 0.22862 0.95211 0.69116 0.0
O86 O 0.23932 0.93025 0.67935 0.0
H87 H 0.31894 1.00842 0.66295 0.0
H88 H 0.28427 0.91795 0.65124 0.0
O89 O 0.25297 0.02602 0.64561 0.0
H90 H 0.17369 0.92121 0.61781 0.0
H91 H 0.34638 0.91497 0.65079 0.0
Cu92 Cu 0.05201 0.77411 0.88148 0.0
N93 N 0.07845 0.80648 0.89026 0.0
N94 N 0.08002 0.8593 0.89417 0.0
C95 C 0.06395 0.83234 0.89744 0.0
C96 C 0.10651 0.85002 0.885 0.0
C97 C 0.1053 0.8175 0.88238 0.0
O98 O 0.04295 0.7916 0.8552 0.0
C99 C 0.03269 0.7637 0.9186 0.0
O100 O 0.06153 0.75264 0.9184 0.0
H101 H 0.03986 0.83201 0.90244 0.0
H102 H 0.12054 0.80391 0.87297 0.0
N103 N 0.06724 0.73166 0.88007 0.0
N104 N 0.06591 0.67809 0.87946 0.0
C105 C 0.04906 0.70547 0.87853 0.0
C106 C 0.0967 0.72058 0.88211 0.0
C107 C 0.09599 0.68787 0.88169 0.0
C108 C 0.06361 0.78613 0.84204 0.0
O109 O 0.08448 0.7638 0.84537 0.0
H110 H 0.02379 0.7067 0.87705 0.0
H111 H 0.11719 0.73523 0.88422 0.0
O112 O 0.02071 0.77408 0.90259 0.0
H113 H 0.1235 0.86591 0.8785 0.0
H114 H 0.11626 0.67265 0.88345 0.0
Cu115 Cu 0.25604 0.08049 0.38875 0.0
N116 N 0.22556 0.04886 0.38866 0.0
N117 N 0.17748 0.02766 0.38696 0.0
C118 C 0.1946 0.05447 0.38647 0.0
C119 C 0.19873 1.00415 0.38956 0.0
C120 C 0.2284 0.01732 0.39057 0.0
O121 O 0.23589 0.11366 0.37247 0.0
C122 C 0.24034 0.09836 0.42768 0.0
O123 O 0.21194 0.1012 0.42031 0.0
H124 H 0.18489 0.07802 0.38493 0.0
H125 H 0.25042 1.00484 0.39253 0.0
N126 N 0.29359 0.06463 0.37768 0.0
N127 N 0.34342 0.04793 0.37301 0.0
C128 C 0.3228 0.06184 0.38549 0.0
C129 C 0.29577 0.05197 0.3598 0.0
C130 C 0.32616 0.04196 0.35682 0.0
C131 C 0.24628 0.1252 0.35645 0.0
O132 O 0.27548 0.11952 0.35139 0.0
H133 H 0.32855 0.06932 0.40014 0.0
H134 H 0.27642 0.05012 0.3496 0.0
O135 O 0.26305 0.0917 0.41625 0.0
H136 H 0.19338 0.9792 0.3905 0.0
H137 H 0.33468 0.03123 0.34356 0.0
Cu138 Cu 0.96919 0.25628 0.87884 0.0
N139 N 0.94517 0.22373 0.89007 0.0
N140 N 0.94264 0.1716 0.89704 0.0
C141 C 0.96078 0.19772 0.89632 0.0
C142 C 0.91392 0.18183 0.8912 0.0
C143 C 0.91561 0.21389 0.88676 0.0
O144 O 0.97303 0.2393 0.85198 0.0
C145 C 0.99453 0.26788 0.91425 0.0
O146 O 0.96583 0.27913 0.91541 0.0
H147 H 0.98608 0.19723 0.89778 0.0
H148 H 0.89755 0.22794 0.87968 0.0
N149 N 0.95352 0.29873 0.87827 0.0
N150 N 0.95474 0.35233 0.87843 0.0
C151 C 0.97141 0.32508 0.87622 0.0
C152 C 0.92443 0.30961 0.88196 0.0
C153 C 0.92507 0.34233 0.88199 0.0
C154 C 0.94797 0.24268 0.84172 0.0
O155 O 0.92594 0.26145 0.84845 0.0
H156 H 0.99642 0.32403 0.87356 0.0
H157 H 0.90434 0.29479 0.88502 0.0
O158 O 1.00394 0.25673 0.89788 0.0
H159 H 0.89367 0.16692 0.88888 0.0
H160 H 0.90514 0.35738 0.88507 0.0
Cu161 Cu 0.76442 0.94915 0.3872 0.0
N162 N 0.79394 0.98188 0.38552 0.0
N163 N 0.84102 1.00524 0.38397 0.0
C164 C 0.82493 0.97797 0.38235 0.0
C165 C 0.81916 0.02748 0.38791 0.0
C166 C 0.79011 1.01296 0.38892 0.0
O167 O 0.77974 0.91641 0.36897 0.0
C168 C 0.78423 0.93733 0.42664 0.0
O169 O 0.81223 0.94287 0.41941 0.0
H170 H 0.83568 0.95536 0.37945 0.0
H171 H 0.76797 0.02404 0.39256 0.0
N172 N 0.72524 0.96378 0.3776 0.0
N173 N 0.67422 0.97655 0.37362 0.0
C174 C 0.69704 0.96776 0.3865 0.0
C175 C 0.71996 0.97061 0.35865 0.0
C176 C 0.68878 0.97837 0.35615 0.0
C177 C 0.8041 0.899 0.37119 0.0
O178 O 0.81841 0.89845 0.38821 0.0
H179 H 0.6931 0.96332 0.4019 0.0
H180 H 0.73762 0.96942 0.34732 0.0
O181 O 0.76064 0.9369 0.41503 0.0
H182 H 0.82397 0.05213 0.39077 0.0
H183 H 0.67761 0.9848 0.34245 0.0
H184 H 1.01096 0.37192 0.15072 0.0
H185 H 0.99104 0.42582 0.15165 0.0
H186 H 0.08573 0.4615 0.14963 0.0
H187 H 0.10607 0.40741 0.14954 0.0
H188 H 0.05325 0.49498 0.17472 0.0
H189 H 0.03485 0.46257 0.1088 0.0
H190 H 0.01497 0.42804 0.08269 0.0
H191 H 0.92055 0.44166 0.10302 0.0
H192 H 0.93992 0.47594 0.12943 0.0
H193 H 0.01317 0.65401 0.1502 0.0
H194 H 0.0331 0.59997 0.14985 0.0
H195 H 0.93863 0.56444 0.1546 0.0
H196 H 0.91837 0.61863 0.15514 0.0
H197 H 0.97095 0.53102 0.12812 0.0
H198 H 0.98984 0.5637 0.19406 0.0
H199 H 1.01012 0.59828 0.22001 0.0
H200 H 0.10425 0.58442 0.19923 0.0
H201 H 0.08448 0.55008 0.17297 0.0
C202 C 0.02779 0.39099 0.15066 0.0
C203 C 0.06037 0.38475 0.15003 0.0
C204 C 0.0162 0.42211 0.15096 0.0
C205 C 0.03671 0.44811 0.15039 0.0
C206 C 0.06924 0.44205 0.14999 0.0
C207 C 0.0809 0.41089 0.14977 0.0
C208 C 0.02426 0.48147 0.15036 0.0
C209 C 0.03559 0.5029 0.16431 0.0
C210 C 1.00062 0.49201 0.13714 0.0
C211 C 0.98888 0.47158 0.1212 0.0
C212 C 1.00987 0.45802 0.10778 0.0
C213 C 0.99869 0.43852 0.09292 0.0
C214 C 0.96653 0.43259 0.09123 0.0
C215 C 0.94546 0.44624 0.10437 0.0
C216 C 0.95653 0.46573 0.11927 0.0
C217 C 0.99647 0.6349 0.15143 0.0
C218 C 0.96397 0.64116 0.15288 0.0
C219 C 1.00802 0.60376 0.15118 0.0
C220 C 0.98753 0.57781 0.15246 0.0
C221 C 0.95506 0.58389 0.15361 0.0
C222 C 0.94345 0.61507 0.15388 0.0
C223 C 0.99996 0.54448 0.15246 0.0
C224 C 0.98863 0.52307 0.13851 0.0
C225 C 0.02367 0.534 0.16563 0.0
C226 C 0.03563 0.55457 0.18143 0.0
C227 C 0.01484 0.56822 0.19493 0.0
C228 C 0.02625 0.58775 0.20971 0.0
C229 C 0.05845 0.59361 0.21124 0.0
C230 C 0.07931 0.57989 0.19801 0.0
C231 C 0.06802 0.56037 0.18319 0.0
H232 H 0.06723 0.60873 0.22269 0.0
H233 H 0.95792 0.41748 0.07972 0.0
H234 H 0.36943 0.02051 0.67093 0.0
H235 H 0.42453 0.03629 0.67117 0.0
H236 H 0.45058 0.94743 0.64539 0.0
H237 H 0.39569 0.93147 0.64488 0.0
H238 H 0.49105 0.96188 0.67414 0.0
H239 H 0.44828 0.01685 0.6184 0.0
H240 H 0.41108 0.05211 0.6011 0.0
H241 H 0.43822 0.12921 0.63787 0.0
H242 H 0.47527 0.09427 0.65559 0.0
H243 H 0.64865 1.00231 0.64847 0.0
H244 H 0.59353 0.98593 0.64854 0.0
H245 H 0.56615 0.07833 0.66872 0.0
H246 H 0.62112 0.09494 0.66821 0.0
H247 H 0.52598 0.06188 0.64289 0.0
H248 H 0.56804 1.0078 0.69901 0.0
H249 H 0.60454 0.9729 0.71715 0.0
H250 H 0.57835 0.89486 0.68087 0.0
H251 H 0.54196 0.9294 0.66235 0.0
C252 C 0.38663 1.00424 0.66514 0.0
C253 C 0.37738 0.97455 0.65782 0.0
C254 C 0.41841 1.0134 0.6653 0.0
C255 C 0.44207 0.99326 0.65813 0.0
C256 C 0.43304 0.96351 0.65106 0.0
C257 C 0.40129 0.95436 0.65082 0.0
C258 C 0.4761 1.00308 0.65795 0.0
C259 C 0.49869 0.98358 0.66708 0.0
C260 C 0.48636 0.03175 0.64919 0.0
C261 C 0.46432 0.05286 0.63844 0.0
C262 C 0.44615 0.04127 0.62289 0.0
C263 C 0.42512 0.0612 0.61299 0.0
C264 C 0.42223 0.09286 0.61841 0.0
C265 C 0.44045 0.10467 0.6337 0.0
C266 C 0.46148 0.08482 0.64367 0.0
C267 C 0.63097 0.01907 0.65311 0.0
C268 C 0.63961 0.04999 0.65839 0.0
C269 C 0.59925 1.00964 0.65319 0.0
C270 C 0.5752 0.03062 0.65892 0.0
C271 C 0.58389 0.06151 0.66418 0.0
C272 C 0.61551 0.07105 0.66389 0.0
C273 C 0.5411 0.02072 0.65917 0.0
C274 C 0.51844 0.0402 0.65001 0.0
C275 C 0.53075 0.99211 0.66803 0.0
C276 C 0.55251 0.97126 0.67918 0.0
C277 C 0.57022 0.98324 0.69482 0.0
C278 C 0.59087 0.96352 0.70518 0.0
C279 C 0.59382 0.9317 0.70013 0.0
C280 C 0.57607 0.91952 0.68475 0.0
C281 C 0.55541 0.93915 0.67432 0.0
H282 H 0.60982 0.91647 0.70817 0.0
H283 H 0.40593 0.10825 0.61074 0.0
H284 H 0.91988 0.40706 0.87766 0.0
H285 H 0.93859 0.46127 0.87788 0.0
H286 H 0.03435 0.42794 0.87777 0.0
H287 H 0.01587 0.37337 0.87838 0.0
H288 H 0.03104 0.47542 0.90156 0.0
H289 H 0.99555 0.46142 0.83582 0.0
H290 H 0.9583 0.44757 0.80962 0.0
H291 H 0.89411 0.51884 0.82955 0.0
H292 H 0.93083 0.53285 0.85604 0.0
H293 H 0.10052 0.62344 0.87635 0.0
H294 H 0.0817 0.56921 0.87616 0.0
H295 H 0.98629 0.60246 0.88079 0.0
H296 H 1.00483 0.65704 0.88117 0.0
H297 H 0.98957 0.55526 0.85465 0.0
H298 H 0.02596 0.5692 0.92036 0.0
H299 H 0.06396 0.58308 0.94613 0.0
H300 H 0.12751 0.51173 0.92554 0.0
H301 H 0.09004 0.4977 0.89947 0.0
C302 C 0.94497 0.41087 0.8778 0.0
C303 C 0.96611 0.38502 0.878 0.0
C304 C 0.95573 0.4423 0.8777 0.0
C305 C 0.98807 0.44927 0.87752 0.0
C306 C 1.00928 0.42362 0.87784 0.0
C307 C 0.99854 0.39209 0.87804 0.0
C308 C 0.99965 0.48311 0.87725 0.0
C309 C 0.02223 0.49265 0.89106 0.0
C310 C 0.98792 0.5063 0.86394 0.0
C311 C 0.96581 0.49797 0.84803 0.0
C312 C 0.97339 0.47398 0.8347 0.0
C313 C 0.95239 0.46613 0.81979 0.0
C314 C 0.92382 0.48226 0.81796 0.0
C315 C 0.91623 0.50634 0.83101 0.0
C316 C 0.93714 0.51426 0.84596 0.0
C317 C 0.07551 0.61962 0.87751 0.0
C318 C 0.05447 0.64544 0.87894 0.0
C319 C 0.0647 0.5882 0.87739 0.0
C320 C 0.03246 0.58126 0.87872 0.0
C321 C 0.01129 0.60685 0.87978 0.0
C322 C 0.02208 0.63836 0.87998 0.0
C323 C 0.02092 0.54747 0.87892 0.0
C324 C 0.99836 0.53797 0.86511 0.0
C325 C 0.03278 0.52429 0.89216 0.0
C326 C 0.05532 0.53262 0.90784 0.0
C327 C 0.04814 0.55663 0.92123 0.0
C328 C 0.06957 0.5645 0.93591 0.0
C329 C 0.09817 0.54835 0.93744 0.0
C330 C 0.10537 0.52425 0.92432 0.0
C331 C 0.08403 0.51631 0.9096 0.0
H332 H 0.11473 0.55447 0.94881 0.0
H333 H 0.90759 0.47614 0.8064 0.0
H334 H 0.38029 1.00873 0.35114 0.0
H335 H 0.43559 0.99722 0.35519 0.0
H336 H 0.43879 0.05633 0.40616 0.0
H337 H 0.38311 0.06948 0.40166 0.0
H338 H 0.49001 0.06589 0.38562 0.0
H339 H 0.44018 0.97298 0.40925 0.0
H340 H 0.40357 0.92792 0.4092 0.0
H341 H 0.44798 0.89127 0.35781 0.0
H342 H 0.4846 0.93636 0.35738 0.0
H343 H 0.64637 1.0035 0.4053 0.0
H344 H 0.59003 0.01558 0.40935 0.0
H345 H 0.57057 0.97336 0.3535 0.0
H346 H 0.62639 0.96154 0.34942 0.0
H347 H 0.52772 0.95502 0.38183 0.0
H348 H 0.57429 0.05199 0.35743 0.0
H349 H 0.61096 0.09697 0.35858 0.0
H350 H 0.57267 0.12507 0.41382 0.0
H351 H 0.53603 0.07997 0.41312 0.0
C352 C 0.39241 0.01973 0.36318 0.0
C353 C 0.37656 0.04031 0.37601 0.0
C354 C 0.42434 1.01265 0.36563 0.0
C355 C 0.44164 0.02531 0.38122 0.0
C356 C 0.42613 0.046 0.39406 0.0
C357 C 0.39403 0.05335 0.39152 0.0
C358 C 0.47587 0.01714 0.38369 0.0
C359 C 0.49811 0.04157 0.38519 0.0
C360 C 0.48692 0.98544 0.383 0.0
C361 C 0.46501 0.9582 0.38321 0.0
C362 C 0.44201 0.95543 0.39786 0.0
C363 C 0.42128 0.92986 0.39793 0.0
C364 C 0.42341 0.90678 0.38349 0.0
C365 C 0.44635 0.90918 0.36898 0.0
C366 C 0.46713 0.93472 0.36883 0.0
C367 C 0.62997 0.99657 0.39401 0.0
C368 C 0.64095 0.98173 0.37698 0.0
C369 C 0.5978 1.00366 0.39626 0.0
C370 C 0.5759 0.99562 0.38165 0.0
C371 C 0.58682 0.97991 0.36498 0.0
C372 C 0.61885 0.9733 0.3626 0.0
C373 C 0.54168 1.00376 0.38332 0.0
C374 C 0.51949 0.97928 0.38256 0.0
C375 C 0.53073 0.03532 0.38493 0.0
C376 C 0.55271 0.0624 0.38534 0.0
C377 C 0.57389 0.06759 0.36991 0.0
C378 C 0.59463 0.09314 0.37046 0.0
C379 C 0.59422 0.1138 0.38629 0.0
C380 C 0.57301 0.10901 0.40158 0.0
C381 C 0.55225 0.08347 0.40112 0.0
H382 H 0.61029 0.13358 0.38669 0.0
H383 H 0.40734 0.887 0.38357 0.0
H384 H 0.01382 0.31411 0.93821 0.0
H385 H 0.02142 0.30907 0.97347 0.0
H386 H 0.01608 0.20758 0.96889 0.0
H387 H 1.00847 0.21279 0.93337 0.0
H388 H 0.97515 0.22909 0.99574 0.0
H389 H 0.08418 0.24342 0.98396 0.0
H390 H 0.13169 0.26796 0.97006 0.0
H391 H 0.11019 0.35481 0.99931 0.0
H392 H 0.06228 0.33094 1.01318 0.0
H393 H 0.01212 0.21177 0.09932 0.0
H394 H 1.00526 0.2087 0.06374 0.0
H395 H 1.00936 0.3104 0.0597 0.0
H396 H 0.0164 0.31331 0.09511 0.0
H397 H 0.05343 0.28352 0.03724 0.0
H398 H 0.94263 0.26951 0.04742 0.0
H399 H 0.89531 0.24454 0.06128 0.0
H400 H 0.92095 0.15614 0.03521 0.0
H401 H 0.96869 0.1805 0.02139 0.0
C402 C 0.01598 0.29067 0.94459 0.0
C403 C 0.01155 0.26383 0.93294 0.0
C404 C 0.01997 0.28777 0.96483 0.0
C405 C 0.01933 0.25791 0.974 0.0
C406 C 0.01673 0.23088 0.96223 0.0
C407 C 0.01302 0.23381 0.94186 0.0
C408 C 0.01835 0.25554 0.99585 0.0
C409 C 0.99265 0.24045 1.00483 0.0
C410 C 0.04068 0.27093 1.00781 0.0
C411 C 0.06947 0.28544 0.99949 0.0
C412 C 0.08943 0.26784 0.98731 0.0
C413 C 0.11647 0.28162 0.97946 0.0
C414 C 0.12392 0.31295 0.98377 0.0
C415 C 0.10437 0.33055 0.99597 0.0
C416 C 0.07729 0.31689 1.00386 0.0
C417 C 1.0096 0.23349 0.09094 0.0
C418 C 0.01385 0.26284 0.10007 0.0
C419 C 1.00619 0.23173 0.07053 0.0
C420 C 1.00707 0.25933 0.0589 0.0
C421 C 1.00874 0.28875 0.06825 0.0
C422 C 0.01213 0.29046 0.08857 0.0
C423 C 1.00991 0.25765 0.03711 0.0
C424 C 0.03605 0.27196 0.02817 0.0
C425 C 0.98806 0.24145 0.02523 0.0
C426 C 0.95943 0.22674 0.03356 0.0
C427 C 0.93835 0.24467 0.04479 0.0
C428 C 0.91141 0.23064 0.05261 0.0
C429 C 0.90518 0.19875 0.04918 0.0
C430 C 0.92584 0.18083 0.03788 0.0
C431 C 0.95283 0.19474 0.03004 0.0
H432 H 0.8843 0.18794 0.05524 0.0
H433 H 0.14486 0.32357 0.97768 0.0
H434 H 0.80381 0.973 0.61488 0.0
H435 H 0.81057 0.94976 0.58233 0.0
H436 H 0.71191 0.96372 0.57052 0.0
H437 H 0.70517 0.98661 0.60289 0.0
H438 H 0.73393 0.91098 0.55179 0.0
H439 H 0.76247 0.0211 0.55843 0.0
H440 H 0.79143 0.06373 0.57495 0.0
H441 H 0.87893 0.01953 0.56007 0.0
H442 H 0.85052 0.97643 0.54359 0.0
H443 H 0.72957 0.93827 0.44834 0.0
H444 H 0.72476 0.94029 0.48402 0.0
H445 H 0.82552 0.93369 0.48966 0.0
H446 H 0.83049 0.93225 0.45419 0.0
H447 H 0.80517 0.97859 0.51237 0.0
H448 H 0.77486 0.87091 0.50173 0.0
H449 H 0.74447 0.82759 0.48703 0.0
H450 H 0.65913 0.86675 0.51003 0.0
H451 H 0.68898 0.91055 0.52467 0.0
C452 C 0.78335 0.96962 0.6057 0.0
C453 C 0.75392 0.9814 0.61145 0.0
C454 C 0.78726 0.95672 0.58698 0.0
C455 C 0.76183 0.95551 0.57377 0.0
C456 C 0.7319 0.96438 0.58033 0.0
C457 C 0.72805 0.97739 0.59891 0.0
C458 C 0.76679 0.9495 0.55248 0.0
C459 C 0.74946 0.92576 0.54314 0.0
C460 C 0.78714 0.96865 0.54113 0.0
C461 C 0.80438 0.99548 0.54989 0.0
C462 C 0.78791 0.02053 0.55865 0.0
C463 C 0.80423 0.04473 0.56802 0.0
C464 C 0.83704 0.0443 0.56858 0.0
C465 C 0.85357 0.01981 0.5596 0.0
C466 C 0.83738 0.99552 0.55021 0.0
C467 C 0.75067 0.93679 0.45719 0.0
C468 C 0.78041 0.93507 0.4483 0.0
C469 C 0.74791 0.93791 0.47765 0.0
C470 C 0.77479 0.93697 0.48971 0.0
C471 C 0.80439 0.93457 0.48081 0.0
C472 C 0.80717 0.93361 0.46043 0.0
C473 C 0.77236 0.93983 0.51149 0.0
C474 C 0.78999 0.96333 0.52094 0.0
C475 C 0.75214 0.92051 0.52288 0.0
C476 C 0.73414 0.89416 0.51415 0.0
C477 C 0.74959 0.87041 0.50354 0.0
C478 C 0.73246 0.84575 0.49523 0.0
C479 C 0.69988 0.84446 0.49755 0.0
C480 C 0.68437 0.86779 0.50823 0.0
C481 C 0.70138 0.89252 0.51655 0.0
H482 H 0.68666 0.82535 0.49111 0.0
H483 H 0.84966 0.06293 0.57595 0.0
H484 H 1.00138 0.7109 0.09827 0.0
H485 H 0.01174 0.71551 0.06349 0.0
H486 H 0.03915 0.81281 0.07112 0.0
H487 H 0.02726 0.80833 0.10621 0.0
H488 H 0.99924 0.81088 0.04317 0.0
H489 H 0.09196 0.751 0.05478 0.0
H490 H 0.12497 0.70791 0.06809 0.0
H491 H 0.07053 0.63974 0.03662 0.0
H492 H 0.0369 0.68236 0.02332 0.0
H493 H 0.0343 0.81765 0.93961 0.0
H494 H 0.03137 0.82067 0.97525 0.0
H495 H 1.00027 0.72371 0.97769 0.0
H496 H 1.00455 0.72049 0.94207 0.0
H497 H 0.04795 0.73023 1.0006 0.0
H498 H 0.95325 0.79283 0.99069 0.0
H499 H 0.9222 0.83767 0.9777 0.0
H500 H 0.98431 0.90299 1.00583 0.0
H501 H 0.01597 0.85858 1.01879 0.0
C502 C 0.0112 0.73281 0.09272 0.0
C503 C 0.01432 0.75898 0.10508 0.0
C504 C 0.01698 0.73555 0.07268 0.0
C505 C 0.02653 0.76448 0.06441 0.0
C506 C 0.03188 0.79016 0.07702 0.0
C507 C 0.02578 0.78745 0.09718 0.0
C508 C 0.02734 0.76841 0.04258 0.0
C509 C 1.01048 0.79354 0.03388 0.0
C510 C 0.04148 0.74566 0.03025 0.0
C511 C 0.06178 0.71992 0.03814 0.0
C512 C 0.08689 0.72681 0.05079 0.0
C513 C 0.10574 0.70246 0.05832 0.0
C514 C 0.09982 0.67111 0.05323 0.0
C515 C 0.07509 0.66404 0.04056 0.0
C516 C 0.05616 0.6883 0.03299 0.0
C517 C 0.02529 0.79753 0.94771 0.0
C518 C 0.01867 0.76912 0.93801 0.0
C519 C 0.02389 0.79915 0.96818 0.0
C520 C 0.01553 0.77243 0.97939 0.0
C521 C 1.00685 0.74469 0.96951 0.0
C522 C 1.0087 0.74298 0.94909 0.0
C523 C 0.01899 0.77206 1.00123 0.0
C524 C 0.03685 0.74764 1.0099 0.0
C525 C 1.00614 0.79571 1.01346 0.0
C526 C 0.98714 0.82236 1.00556 0.0
C527 C 0.96043 0.81675 0.99397 0.0
C528 C 0.94269 0.8421 0.98665 0.0
C529 C 0.95129 0.87315 0.99094 0.0
C530 C 0.97767 0.87893 1.00253 0.0
C531 C 0.9955 0.85368 1.00987 0.0
H532 H 0.93745 0.89274 0.98534 0.0
H533 H 0.11443 0.65229 0.05909 0.0
H534 H 0.19657 0.11203 0.45568 0.0
H535 H 0.20214 0.1082 0.49112 0.0
H536 H 0.29964 0.08249 0.48451 0.0
H537 H 0.29411 0.08585 0.44889 0.0
H538 H 0.27165 0.04323 0.50927 0.0
H539 H 0.27629 0.15587 0.50248 0.0
H540 H 0.25856 0.2087 0.49159 0.0
H541 H 0.1731 0.19767 0.52414 0.0
H542 H 0.19012 0.14456 0.53501 0.0
H543 H 0.31359 0.04241 0.60676 0.0
H544 H 0.31019 0.06531 0.57394 0.0
H545 H 0.21027 0.07759 0.5809 0.0
H546 H 0.21376 0.05485 0.61407 0.0
H547 H 0.2392 0.12559 0.55649 0.0
H548 H 0.23338 1.01255 0.56199 0.0
H549 H 0.25103 0.95998 0.5734 0.0
H550 H 0.33835 0.97193 0.54293 0.0
H551 H 0.32143 0.02488 0.53165 0.0
C552 C 0.21936 0.10594 0.46171 0.0
C553 C 0.2449 0.09926 0.44932 0.0
C554 C 0.22254 0.10389 0.48208 0.0
C555 C 0.25138 0.09529 0.49065 0.0
C556 C 0.27711 0.08921 0.47833 0.0
C557 C 0.27396 0.09128 0.45792 0.0
C558 C 0.25417 0.09078 0.51233 0.0
C559 C 0.26504 0.06152 0.51952 0.0
C560 C 0.24465 0.11416 0.5259 0.0
C561 C 0.23436 0.1461 0.51941 0.0
C562 C 0.2536 0.16459 0.50719 0.0
C563 C 0.2437 0.19461 0.50104 0.0
C564 C 0.21469 0.2065 0.50713 0.0
C565 C 0.19555 0.18841 0.51941 0.0
C566 C 0.20533 0.15836 0.52559 0.0
C567 C 0.29115 0.05147 0.60168 0.0
C568 C 0.26403 0.04726 0.61307 0.0
C569 C 0.28916 0.06425 0.58281 0.0
C570 C 0.25989 0.07262 0.57476 0.0
C571 C 0.23311 0.07131 0.58678 0.0
C572 C 0.23515 0.05862 0.60583 0.0
C573 C 0.257 0.07829 0.55324 0.0
C574 C 0.24596 0.10751 0.54614 0.0
C575 C 0.26624 0.05487 0.53967 0.0
C576 C 0.27627 0.02281 0.54614 0.0
C577 C 0.25644 1.00407 0.55784 0.0
C578 C 0.2663 0.97419 0.56428 0.0
C579 C 0.29582 0.96265 0.55893 0.0
C580 C 0.3155 0.98093 0.54708 0.0
C581 C 0.30579 1.01087 0.54066 0.0
H582 H 0.30342 0.93951 0.56392 0.0
H583 H 0.20707 0.22975 0.50235 0.0
H584 H 0.13049 0.26935 0.21198 0.0
H585 H 0.15022 0.24655 0.24232 0.0
H586 H 0.06863 0.18685 0.24624 0.0
H587 H 0.0486 0.20952 0.21517 0.0
H588 H 0.0965 0.21912 0.28485 0.0
H589 H 0.1213 0.14935 0.23173 0.0
H590 H 0.13923 0.13751 0.19833 0.0
H591 H 0.22895 0.17892 0.21091 0.0
H592 H 0.21133 0.19153 0.24429 0.0
H593 H 0.18158 0.12343 0.35544 0.0
H594 H 0.14668 0.14347 0.32966 0.0
H595 H 0.22654 0.18248 0.29925 0.0
H596 H 0.2615 0.16145 0.32456 0.0
H597 H 0.1925 0.15476 0.2741 0.0
H598 H 0.1677 0.22826 0.32563 0.0
H599 H 0.15034 0.24359 0.35861 0.0
H600 H 0.0618 0.19765 0.34924 0.0
H601 H 0.07879 0.18175 0.31627 0.0
C602 C 0.11627 0.25175 0.21936 0.0
C603 C 0.08798 0.24115 0.21096 0.0
C604 C 0.12768 0.23875 0.2368 0.0
C605 C 0.11114 0.2148 0.24653 0.0
C606 C 0.08179 0.20539 0.239 0.0
C607 C 0.0703 0.21843 0.22128 0.0
C608 C 0.12666 0.19813 0.26335 0.0
C609 C 0.11707 0.20441 0.28256 0.0
C610 C 0.154 0.17963 0.26042 0.0
C611 C 0.16489 0.17161 0.24046 0.0
C612 C 0.14476 0.15616 0.22733 0.0
C613 C 0.15488 0.14928 0.20841 0.0
C614 C 0.18519 0.15752 0.20249 0.0
C615 C 0.20547 0.17258 0.21551 0.0
C616 C 0.19543 0.17957 0.23444 0.0
C617 C 0.19168 0.13672 0.34342 0.0
C618 C 0.22446 0.1409 0.34219 0.0
C619 C 0.1716 0.14826 0.32862 0.0
C620 C 0.18369 0.16485 0.31237 0.0
C621 C 0.21638 0.16969 0.31146 0.0
C622 C 0.23645 0.15779 0.32607 0.0
C623 C 0.16288 0.17611 0.29589 0.0
C624 C 0.17164 0.16895 0.2766 0.0
C625 C 0.1349 0.19389 0.29883 0.0
C626 C 0.12464 0.20355 0.31858 0.0
C627 C 0.14461 0.22126 0.33066 0.0
C628 C 0.13483 0.23007 0.34934 0.0
C629 C 0.10502 0.22152 0.35604 0.0
C630 C 0.0849 0.20422 0.34405 0.0
C631 C 0.09458 0.19532 0.32536 0.0
H632 H 0.0975 0.22836 0.37051 0.0
H633 H 0.19299 0.15218 0.18783 0.0
H634 H 0.97442 0.18553 0.82962 0.0
H635 H 0.95277 0.14927 0.80487 0.0
H636 H 0.88025 0.21725 0.79117 0.0
H637 H 0.90176 0.25331 0.81517 0.0
H638 H 0.85687 0.15666 0.80061 0.0
H639 H 0.93653 0.20533 0.75962 0.0
H640 H 0.99091 0.21883 0.7505 0.0
H641 H 0.01486 0.1202 0.74853 0.0
H642 H 0.96069 0.10613 0.75793 0.0
H643 H 0.77555 0.12371 0.71493 0.0
H644 H 0.80821 0.1442 0.74102 0.0
H645 H 0.87144 0.06505 0.73506 0.0
H646 H 0.83849 0.04434 0.7083 0.0
H647 H 0.90443 0.12037 0.73857 0.0
H648 H 0.82435 0.07072 0.77538 0.0
H649 H 0.77055 0.05575 0.78489 0.0
H650 H 0.74835 0.15299 0.79621 0.0
H651 H 0.80189 0.16863 0.78649 0.0
C652 C 0.9544 0.19305 0.82094 0.0
C653 C 0.93989 0.22246 0.82451 0.0
C654 C 0.94188 0.17219 0.80687 0.0
C655 C 0.91454 0.18029 0.79622 0.0
C656 C 0.90108 0.21016 0.79924 0.0
C657 C 0.91361 0.23091 0.81301 0.0
C658 C 0.89835 0.15765 0.78272 0.0
C659 C 0.8673 0.1488 0.78702 0.0
C660 C 0.91216 0.14621 0.76531 0.0
C661 C 0.9447 0.15469 0.75975 0.0
C662 C 0.95348 0.18653 0.75746 0.0
C663 C 0.98424 0.19428 0.75219 0.0
C664 C 1.00636 0.17039 0.74901 0.0
C665 C 0.99773 0.13869 0.75105 0.0
C666 C 0.967 0.13081 0.75635 0.0
C667 C 0.79614 0.11024 0.71925 0.0
C668 C 0.80412 0.08214 0.70949 0.0
C669 C 0.81489 0.12206 0.73432 0.0
C670 C 0.84235 0.1062 0.74033 0.0
C671 C 0.85037 0.07781 0.73083 0.0
C672 C 0.83133 0.06576 0.71565 0.0
C673 C 0.86249 0.1203 0.75616 0.0
C674 C 0.89417 0.12762 0.75232 0.0
C675 C 0.84942 0.1301 0.7742 0.0
C676 C 0.81713 0.12086 0.78009 0.0
C677 C 0.80794 0.08895 0.77977 0.0
C678 C 0.77749 0.08034 0.78522 0.0
C679 C 0.75603 0.10341 0.79113 0.0
C680 C 0.765 0.13514 0.79163 0.0
C681 C 0.79542 0.14389 0.78618 0.0
H682 H 0.73247 0.09669 0.79534 0.0
H683 H 0.03016 0.17644 0.74492 0.0
H684 H 0.78233 0.89597 0.33329 0.0
H685 H 0.80908 0.874 0.30478 0.0
H686 H 0.88695 0.84522 0.34123 0.0
H687 H 0.86044 0.86725 0.36978 0.0
H688 H 0.90808 0.87253 0.30775 0.0
H689 H 0.83488 0.79075 0.32405 0.0
H690 H 0.78295 0.76824 0.33177 0.0
H691 H 0.74789 0.79885 0.27584 0.0
H692 H 0.79951 0.82193 0.26788 0.0
H693 H 0.97568 0.78164 0.22744 0.0
H694 H 0.95638 0.79956 0.25957 0.0
H695 H 0.86844 0.82734 0.233 0.0
H696 H 0.887 0.80922 0.2016 0.0
H697 H 0.85594 0.79567 0.26414 0.0
H698 H 0.927 0.88115 0.24868 0.0
H699 H 0.97827 0.90503 0.24079 0.0
H700 H 0.01679 0.86866 0.29451 0.0
H701 H 0.96581 0.84421 0.3026 0.0
C702 C 0.80499 0.88467 0.33533 0.0
C703 C 0.819 0.88326 0.35398 0.0
C704 C 0.82033 0.87208 0.31895 0.0
C705 C 0.8501 0.85768 0.32075 0.0
C706 C 0.86409 0.85617 0.33935 0.0
C707 C 0.84871 0.86862 0.35575 0.0
C708 C 0.8666 0.84445 0.30322 0.0
C709 C 0.89684 0.85535 0.29836 0.0
C710 C 0.85203 0.82228 0.29074 0.0
C711 C 0.821 0.80829 0.29544 0.0
C712 C 0.81604 0.79288 0.31345 0.0
C713 C 0.78666 0.77998 0.31786 0.0
C714 C 0.76212 0.78217 0.30432 0.0
C715 C 0.76692 0.79719 0.28632 0.0
C716 C 0.79624 0.81015 0.28184 0.0
C717 C 0.9524 0.79187 0.22851 0.0
C718 C 0.93285 0.79361 0.21191 0.0
C719 C 0.94131 0.80214 0.24689 0.0
C720 C 0.91068 0.81474 0.2489 0.0
C721 C 0.89188 0.81738 0.23211 0.0
C722 C 0.90269 0.80697 0.21403 0.0
C723 C 0.89711 0.82443 0.26824 0.0
C724 C 0.86736 0.8127 0.27354 0.0
C725 C 0.91208 0.84596 0.281 0.0
C726 C 0.94273 0.86051 0.27612 0.0
C727 C 0.94649 0.878 0.25872 0.0
C728 C 0.97547 0.89169 0.25423 0.0
C729 C 1.0008 0.88827 0.26711 0.0
C730 C 0.99717 0.87122 0.28453 0.0
C731 C 0.96824 0.85746 0.28908 0.0
H732 H 0.02322 0.8989 0.26362 0.0
H733 H 0.73939 0.77218 0.30776 0.0
H734 H 0.1959 0.98801 0.71879 0.0
H735 H 0.16161 0.96783 0.7452 0.0
H736 H 0.18325 0.87225 0.72841 0.0
H737 H 0.21728 0.89172 0.70272 0.0
H738 H 0.11943 0.88185 0.73232 0.0
H739 H 0.21537 0.90274 0.76841 0.0
H740 H 0.25762 0.93669 0.78111 0.0
H741 H 0.1894 0.99413 0.81053 0.0
H742 H 0.14667 0.96073 0.79776 0.0
H743 H 0.0879 0.77138 0.80668 0.0
H744 H 0.1088 0.80721 0.78187 0.0
H745 H 0.07674 0.88721 0.81512 0.0
H746 H 0.05566 0.85099 0.84024 0.0
H747 H 0.13755 0.89548 0.80336 0.0
H748 H 0.0422 0.87015 0.77136 0.0
H749 H 0.9997 0.83634 0.75886 0.0
H750 H 0.06523 0.78869 0.72154 0.0
H751 H 0.10824 0.8219 0.73402 0.0
C752 C 0.19359 0.96273 0.72091 0.0
C753 C 0.20949 0.94165 0.70846 0.0
C754 C 0.17391 0.95118 0.73599 0.0
C755 C 0.16955 0.91837 0.73879 0.0
C756 C 0.18584 0.89758 0.72656 0.0
C757 C 0.20554 0.90894 0.7118 0.0
C758 C 0.14784 0.90485 0.75399 0.0
C759 C 0.12345 0.88486 0.74786 0.0
C760 C 0.15219 0.90942 0.77431 0.0
C761 C 0.17782 0.92953 0.7819 0.0
C762 C 0.20936 0.92281 0.77741 0.0
C763 C 0.23339 0.9419 0.78466 0.0
C764 C 0.22619 0.96763 0.79656 0.0
C765 C 0.19493 0.97425 0.80127 0.0
C766 C 0.1708 0.95525 0.79403 0.0
C767 C 0.08447 0.79658 0.80849 0.0
C768 C 0.06955 0.8082 0.82532 0.0
C769 C 0.09656 0.81717 0.79426 0.0
C770 C 0.09432 0.85014 0.7964 0.0
C771 C 0.07874 0.86194 0.81299 0.0
C772 C 0.06625 0.84119 0.82723 0.0
C773 C 0.10976 0.87165 0.78166 0.0
C774 C 0.133 0.89302 0.78785 0.0
C775 C 0.10428 0.8685 0.76132 0.0
C776 C 0.0785 0.84843 0.75373 0.0
C777 C 0.04761 0.85231 0.76059 0.0
C778 C 0.02341 0.83328 0.75349 0.0
C779 C 0.02977 0.81035 0.73944 0.0
C780 C 0.06034 0.80646 0.73243 0.0
C781 C 0.08463 0.82542 0.73949 0.0
H782 H 1.011 0.79564 0.73396 0.0
H783 H 0.24484 0.98237 0.80217 0.0
H784 H 0.01618 0.15172 0.13591 0.0
H785 H 0.99574 0.09819 0.13456 0.0
H786 H 0.09011 0.06118 0.1326 0.0
H787 H 0.11106 0.11524 0.13442 0.0
H788 H 0.04863 0.03083 0.10638 0.0
H789 H 0.05155 0.05728 0.17434 0.0
H790 H 0.04128 0.09033 0.20316 0.0
H791 H 0.94193 0.08298 0.1932 0.0
H792 H 0.95163 0.05028 0.16411 0.0
H793 H 1.00938 0.87216 0.13001 0.0
H794 H 0.03083 0.92536 0.12838 0.0
H795 H 0.93845 0.96426 0.13812 0.0
H796 H 0.91691 0.91061 0.14061 0.0
H797 H 0.97969 0.9938 0.16023 0.0
H798 H 0.976 0.96749 0.09246 0.0
H799 H 0.9856 0.93485 0.06336 0.0
H800 H 0.08516 0.94225 0.07239 0.0
H801 H 0.07616 0.97459 0.10172 0.0
C802 C 0.03281 0.13237 0.13543 0.0
C803 C 0.06545 0.13804 0.1357 0.0
C804 C 0.02096 0.10161 0.13452 0.0
C805 C 0.0413 0.07549 0.13379 0.0
C806 C 0.0739 0.08093 0.13324 0.0
C807 C 0.08587 0.11189 0.13425 0.0
C808 C 0.02818 0.0427 0.1341 0.0
C809 C 0.03395 0.02254 0.11829 0.0
C810 C 1.00825 0.03208 0.14936 0.0
C811 C 1.00233 0.05156 0.16693 0.0
C812 C 0.02751 0.06291 0.1782 0.0
C813 C 0.0218 0.08155 0.1946 0.0
C814 C 0.99097 0.08881 0.19998 0.0
C815 C 0.9658 0.07737 0.18899 0.0
C816 C 0.97139 0.05876 0.17256 0.0
C817 C 0.9935 0.89193 0.1319 0.0
C818 C 0.96134 0.88687 0.13563 0.0
C819 C 1.00583 0.92252 0.13071 0.0
C820 C 0.98634 0.94911 0.13293 0.0
C821 C 0.95408 0.94424 0.13633 0.0
C822 C 0.94169 0.91349 0.13758 0.0
C823 C 0.99995 0.98178 0.13244 0.0
C824 C 0.99432 1.00199 0.14827 0.0
C825 C 0.01987 0.99244 0.11714 0.0
C826 C 0.02539 0.97324 0.0994 0.0
C827 C 0.99994 0.96198 0.08833 0.0
C828 C 1.00527 0.94356 0.07177 0.0
C829 C 0.03597 0.93642 0.06606 0.0
C830 C 0.0614 0.94777 0.07685 0.0
C831 C 0.05619 0.96618 0.09343 0.0
H832 H 0.04004 0.92213 0.05325 0.0
H833 H 0.98659 0.10325 0.21269 0.0
H834 H 0.14475 0.02529 0.63391 0.0
H835 H 0.08991 0.04132 0.63147 0.0
H836 H 0.06298 0.94459 0.62165 0.0
H837 H 0.11824 0.92808 0.62449 0.0
H838 H 0.03101 0.98765 0.59717 0.0
H839 H 0.05213 0.97508 0.66555 0.0
H840 H 0.08136 0.98311 0.69625 0.0
H841 H 0.06437 0.08308 0.69229 0.0
H842 H 0.03547 0.07571 0.66138 0.0
H843 H 0.86763 1.01188 0.6168 0.0
H844 H 0.9222 0.99419 0.61479 0.0
H845 H 0.95341 0.0864 0.63285 0.0
H846 H 0.89875 0.10383 0.6356 0.0
H847 H 0.98318 0.04362 0.65323 0.0
H848 H 0.96418 0.0574 0.58461 0.0
H849 H 0.9375 0.05073 0.55288 0.0
H850 H 0.9511 0.95024 0.55674 0.0
H851 H 0.97775 0.95631 0.58855 0.0
C852 C 0.1273 1.00723 0.6314 0.0
C853 C 0.13611 0.97519 0.62978 0.0
C854 C 0.09582 0.01653 0.62991 0.0
C855 C 0.07213 0.99416 0.62671 0.0
C856 C 0.08081 0.96232 0.62422 0.0
C857 C 0.11246 0.9529 0.62579 0.0
C858 C 0.03842 1.00422 0.62644 0.0
C859 C 0.02036 0.99944 0.60953 0.0
C860 C 0.02467 0.02037 0.64237 0.0
C861 C 0.04187 0.02487 0.66104 0.0
C862 C 0.05484 0.99881 0.67114 0.0
C863 C 0.07132 1.00324 0.6886 0.0
C864 C 0.07478 0.0336 0.69619 0.0
C865 C 0.0617 0.05958 0.68638 0.0
C866 C 0.04525 0.05529 0.66889 0.0
C867 C 0.88609 0.02847 0.62027 0.0
C868 C 0.87861 0.05925 0.62653 0.0
C869 C 0.91743 0.01839 0.61892 0.0
C870 C 0.94223 0.03891 0.62358 0.0
C871 C 0.93484 0.07 0.62919 0.0
C872 C 0.90347 0.08009 0.63058 0.0
C873 C 0.97563 0.02744 0.62381 0.0
C874 C 0.99367 0.03184 0.64081 0.0
C875 C 0.98936 1.01109 0.60791 0.0
C876 C 0.97271 1.00729 0.58903 0.0
C877 C 0.96125 0.03386 0.57876 0.0
C878 C 0.94629 0.0302 0.56072 0.0
C879 C 0.94265 1.00008 0.55279 0.0
C880 C 0.95397 0.97355 0.56289 0.0
C881 C 0.96907 0.9771 0.5809 0.0
H882 H 0.93098 0.99729 0.53884 0.0
H883 H 0.08755 0.03698 0.70971 0.0
H884 H 0.99625 0.15212 0.91538 0.0
H885 H 0.01912 0.0992 0.91565 0.0
H886 H 0.93814 0.0636 0.88516 0.0
H887 H 0.9154 0.11688 0.88415 0.0
H888 H 0.95981 0.0232 0.91632 0.0
H889 H 1.00079 0.07665 0.85972 0.0
H890 H 0.02671 0.12038 0.84208 0.0
H891 H 0.11015 0.10655 0.87652 0.0
H892 H 0.08451 0.06304 0.8946 0.0
H893 H 0.02058 0.87704 0.88507 0.0
H894 H 0.99764 0.92975 0.88676 0.0
H895 H 0.08641 0.96688 0.90647 0.0
H896 H 0.10983 0.91365 0.90419 0.0
H897 H 0.06112 1.00718 0.88193 0.0
H898 H 0.02105 0.953 0.93831 0.0
H899 H 0.99542 0.90903 0.95595 0.0
H900 H 0.91085 0.92429 0.92284 0.0
H901 H 0.93608 0.96808 0.90483 0.0
C902 C 0.9832 0.13323 0.9086 0.0
C903 C 0.95405 0.1393 0.89941 0.0
C904 C 0.99635 0.1028 0.90887 0.0
C905 C 0.98063 0.07737 0.90019 0.0
C906 C 0.95081 0.08283 0.89191 0.0
C907 C 0.93774 0.11343 0.89141 0.0
C908 C 0.99593 0.04548 0.89919 0.0
C909 C 0.98177 0.01961 0.90862 0.0
C910 C 0.02505 0.04082 0.8896 0.0
C911 C 0.04061 0.06681 0.87866 0.0
C912 C 0.02457 0.08311 0.86365 0.0
C913 C 0.03922 0.10783 0.85356 0.0
C914 C 0.07003 0.11629 0.85822 0.0
C915 C 0.08627 0.1 0.87295 0.0
C916 C 0.07169 0.0753 0.88312 0.0
C917 C 0.03521 0.8963 0.88999 0.0
C918 C 0.06694 0.89096 0.89492 0.0
C919 C 0.02199 0.92659 0.89097 0.0
C920 C 0.03987 0.95247 0.89731 0.0
C921 C 0.07189 0.9474 0.90172 0.0
C922 C 0.08531 0.91699 0.90046 0.0
C923 C 0.02504 0.98463 0.89906 0.0
C924 C 0.03926 1.01065 0.88976 0.0
C925 C 0.99605 0.98945 0.90891 0.0
C926 C 0.98056 0.96367 0.9201 0.0
C927 C 0.99703 0.9469 0.93474 0.0
C928 C 0.98257 0.92201 0.9448 0.0
C929 C 0.95158 0.91381 0.94045 0.0
C930 C 0.93488 0.93064 0.92616 0.0
C931 C 0.94923 0.95553 0.91604 0.0
H932 H 0.94047 0.8944 0.94814 0.0
H933 H 0.08134 0.13543 0.85038 0.0
H934 H 0.88444 0.96148 0.39473 0.0
H935 H 0.94141 0.96711 0.39444 0.0
H936 H 0.93179 0.06267 0.37281 0.0
H937 H 0.87431 0.057 0.37281 0.0
H938 H 0.97822 0.02803 0.35326 0.0
H939 H 0.94969 0.05179 0.41916 0.0
H940 H 0.92351 0.04284 0.45082 0.0
H941 H 0.97574 0.95672 0.45901 0.0
H942 H 1.00192 0.96492 0.42724 0.0
H943 H 0.13697 0.07052 0.37087 0.0
H944 H 0.0799 0.06779 0.37003 0.0
H945 H 0.0833 0.97609 0.39797 0.0
H946 H 0.14054 0.97929 0.39974 0.0
H947 H 0.03942 1.01099 0.41427 0.0
H948 H 0.06673 0.98592 0.3481 0.0
H949 H 0.09263 0.99409 0.31626 0.0
H950 H 0.04277 0.0817 0.30838 0.0
H951 H 0.01682 0.07421 0.34029 0.0
C952 C 0.89433 0.98361 0.38969 0.0
C953 C 0.87477 1.00878 0.38369 0.0
C954 C 0.92697 0.98688 0.38971 0.0
C955 C 0.94088 0.01538 0.38375 0.0
C956 C 0.92152 0.04049 0.37751 0.0
C957 C 0.88873 0.0373 0.37763 0.0
C958 C 0.97564 0.01873 0.38418 0.0
C959 C 0.99162 0.02481 0.36664 0.0
C960 C 0.99314 1.01377 0.40156 0.0
C961 C 0.97756 1.00883 0.42073 0.0
C962 C 0.95541 0.03081 0.42764 0.0
C963 C 0.9406 0.0259 0.44562 0.0
C964 C 0.9479 0.99919 0.4569 0.0
C965 C 0.97009 0.97738 0.45025 0.0
C966 C 0.98494 0.98217 0.43226 0.0
C967 C 0.12574 0.04982 0.37701 0.0
C968 C 0.14363 0.02519 0.38549 0.0
C969 C 0.09296 0.04813 0.37628 0.0
C970 C 0.07717 0.02157 0.38373 0.0
C971 C 0.0949 0.99682 0.39208 0.0
C972 C 0.12773 0.99857 0.39292 0.0
C973 C 0.04219 0.01998 0.38328 0.0
C974 C 0.02612 0.01427 0.40086 0.0
C975 C 0.02464 0.02517 0.36591 0.0
C976 C 0.04006 0.02964 0.34667 0.0
C977 C 0.06145 1.00703 0.33964 0.0
C978 C 0.0761 1.01152 0.32157 0.0
C979 C 0.06941 0.03844 0.31033 0.0
C980 C 0.04796 0.06088 0.31711 0.0
C981 C 0.03324 0.0565 0.33518 0.0
H982 H 0.08079 0.04188 0.29635 0.0
H983 H 0.93641 0.99543 0.47082 0.0
loop_
_geom_bond_atom_site_label_1
_geom_bond_atom_site_label_2
_geom_bond_distance
_geom_bond_site_symmetry_2
_ccdc_geom_bond_type
Cu0 N1 1.999 . S
Cu0 O6 1.974 . S
Cu0 N11 1.985 . S
Cu0 O20 1.959 . S
N1 Cu0 1.999 . S
N1 C3 1.263 . S
N1 C5 1.389 . S
N2 C3 1.358 . S
N2 C4 1.400 . S
C3 N1 1.263 . S
C3 N2 1.358 . S
C3 H9 0.930 . S
C4 N2 1.400 . S
C4 C5 1.351 . S
C4 H21 0.930 . S
C5 N1 1.389 . S
C5 C4 1.351 . S
C5 H10 0.930 . S
O6 Cu0 1.974 . S
O6 C16 1.282 . S
C7 O8 1.261 . S
C7 O20 1.251 . S
O8 C7 1.261 . S
H9 C3 0.930 . S
H10 C5 0.930 . S
N11 Cu0 1.985 . S
N11 C13 1.335 . S
N11 C14 1.390 . S
N12 C13 1.345 . S
N12 C15 1.336 . S
C13 N11 1.335 . S
C13 N12 1.345 . S
C13 H18 0.930 . S
C14 N11 1.390 . S
C14 C15 1.346 . S
C14 H19 0.930 . S
C15 N12 1.336 . S
C15 C14 1.346 . S
C15 H22 0.929 . S
C16 O6 1.282 . S
C16 O17 1.216 . S
O17 C16 1.216 . S
H18 C13 0.930 . S
H19 C14 0.930 . S
O20 Cu0 1.959 . S
O20 C7 1.251 . S
H21 C4 0.930 . S
H22 C15 0.929 . S
Cu23 N24 1.999 . S
Cu23 O29 1.974 . S
Cu23 N34 1.985 . S
Cu23 O43 1.959 . S
N24 Cu23 1.999 . S
N24 C26 1.263 . S
N24 C28 1.389 . S
N25 C26 1.358 . S
N25 C27 1.400 . S
C26 N24 1.263 . S
C26 N25 1.358 . S
C26 H32 0.930 . S
C27 N25 1.400 . S
C27 C28 1.351 . S
C27 H44 0.930 . S
C28 N24 1.389 . S
C28 C27 1.351 . S
C28 H33 0.930 . S
O29 Cu23 1.974 . S
O29 C39 1.282 . S
C30 O31 1.261 . S
C30 O43 1.251 . S
O31 C30 1.261 . S
H32 C26 0.930 . S
H33 C28 0.930 . S
N34 Cu23 1.985 . S
N34 C36 1.335 . S
N34 C37 1.390 . S
N35 C36 1.345 . S
N35 C38 1.336 . S
C36 N34 1.335 . S
C36 N35 1.345 . S
C36 H41 0.930 . S
C37 N34 1.390 . S
C37 C38 1.346 . S
C37 H42 0.930 . S
C38 N35 1.336 . S
C38 C37 1.346 . S
C38 H45 0.929 . S
C39 O29 1.282 . S
C39 O40 1.216 . S
O40 C39 1.216 . S
H41 C36 0.930 . S
H42 C37 0.930 . S
O43 Cu23 1.959 . S
O43 C30 1.251 . S
H44 C27 0.930 . S
H45 C38 0.929 . S
Cu46 N47 1.999 . S
Cu46 O52 1.974 . S
Cu46 N57 1.985 . S
Cu46 O66 1.959 . S
N47 Cu46 1.999 . S
N47 C49 1.263 . S
N47 C51 1.389 . S
N48 C49 1.358 . S
N48 C50 1.400 . S
C49 N47 1.263 . S
C49 N48 1.358 . S
C49 H55 0.930 . S
C50 N48 1.400 . S
C50 C51 1.351 . S
C50 H67 0.930 . S
C51 N47 1.389 . S
C51 C50 1.351 . S
C51 H56 0.930 . S
O52 Cu46 1.974 . S
O52 C62 1.282 . S
C53 O54 1.261 . S
C53 O66 1.251 . S
O54 C53 1.261 . S
H55 C49 0.930 . S
H56 C51 0.930 . S
N57 Cu46 1.985 . S
N57 C59 1.335 . S
N57 C60 1.390 . S
N58 C59 1.345 . S
N58 C61 1.336 . S
C59 N57 1.335 . S
C59 N58 1.345 . S
C59 H64 0.930 . S
C60 N57 1.390 . S
C60 C61 1.346 . S
C60 H65 0.930 . S
C61 N58 1.336 . S
C61 C60 1.346 . S
C61 H68 0.929 . S
C62 O52 1.282 . S
C62 O63 1.216 . S
O63 C62 1.216 . S
H64 C59 0.930 . S
H65 C60 0.930 . S
O66 Cu46 1.959 . S
O66 C53 1.251 . S
H67 C50 0.930 . S
H68 C61 0.929 . S
Cu69 N70 1.999 . S
Cu69 O75 1.974 . S
Cu69 N80 1.985 . S
Cu69 O89 1.959 . S
N70 Cu69 1.999 . S
N70 C72 1.263 . S
N70 C74 1.389 . S
N71 C72 1.358 . S
N71 C73 1.400 . S
C72 N70 1.263 . S
C72 N71 1.358 . S
C72 H78 0.930 . S
C73 N71 1.400 . S
C73 C74 1.351 . S
C73 H90 0.930 . S
C74 N70 1.389 . S
C74 C73 1.351 . S
C74 H79 0.930 . S
O75 Cu69 1.974 . S
O75 C85 1.282 . S
C76 O77 1.261 . S
C76 O89 1.251 . S
O77 C76 1.261 . S
H78 C72 0.930 . S
H79 C74 0.930 . S
N80 Cu69 1.985 . S
N80 C82 1.335 . S
N80 C83 1.390 . S
N81 C82 1.345 . S
N81 C84 1.336 . S
C82 N80 1.335 . S
C82 N81 1.345 . S
C82 H87 0.930 . S
C83 N80 1.390 . S
C83 C84 1.346 . S
C83 H88 0.930 . S
C84 N81 1.336 . S
C84 C83 1.346 . S
C84 H91 0.929 . S
C85 O75 1.282 . S
C85 O86 1.216 . S
O86 C85 1.216 . S
H87 C82 0.930 . S
H88 C83 0.930 . S
O89 Cu69 1.959 . S
O89 C76 1.251 . S
H90 C73 0.930 . S
H91 C84 0.929 . S
Cu92 N93 1.999 . S
Cu92 O98 1.974 . S
Cu92 N103 1.985 . S
Cu92 O112 1.959 . S
N93 Cu92 1.999 . S
N93 C95 1.263 . S
N93 C97 1.389 . S
N94 C95 1.358 . S
N94 C96 1.400 . S
C95 N93 1.263 . S
C95 N94 1.358 . S
C95 H101 0.930 . S
C96 N94 1.400 . S
C96 C97 1.351 . S
C96 H113 0.930 . S
C97 N93 1.389 . S
C97 C96 1.351 . S
C97 H102 0.930 . S
O98 Cu92 1.974 . S
O98 C108 1.282 . S
C99 O100 1.261 . S
C99 O112 1.251 . S
O100 C99 1.261 . S
H101 C95 0.930 . S
H102 C97 0.930 . S
N103 Cu92 1.985 . S
N103 C105 1.335 . S
N103 C106 1.390 . S
N104 C105 1.345 . S
N104 C107 1.336 . S
C105 N103 1.335 . S
C105 N104 1.345 . S
C105 H110 0.930 . S
C106 N103 1.390 . S
C106 C107 1.346 . S
C106 H111 0.930 . S
C107 N104 1.336 . S
C107 C106 1.346 . S
C107 H114 0.929 . S
C108 O98 1.282 . S
C108 O109 1.216 . S
O109 C108 1.216 . S
H110 C105 0.930 . S
H111 C106 0.930 . S
O112 Cu92 1.959 . S
O112 C99 1.251 . S
H113 C96 0.930 . S
H114 C107 0.929 . S
Cu115 N116 1.999 . S
Cu115 O121 1.974 . S
Cu115 N126 1.985 . S
Cu115 O135 1.959 . S
N116 Cu115 1.999 . S
N116 C118 1.263 . S
N116 C120 1.389 . S
N117 C118 1.358 . S
N117 C119 1.400 . S
C118 N116 1.263 . S
C118 N117 1.358 . S
C118 H124 0.930 . S
C119 N117 1.400 . S
C119 C120 1.351 . S
C119 H136 0.930 . S
C120 N116 1.389 . S
C120 C119 1.351 . S
C120 H125 0.930 . S
O121 Cu115 1.974 . S
O121 C131 1.282 . S
C122 O123 1.261 . S
C122 O135 1.251 . S
O123 C122 1.261 . S
H124 C118 0.930 . S
H125 C120 0.930 . S
N126 Cu115 1.985 . S
N126 C128 1.335 . S
N126 C129 1.390 . S
N127 C128 1.345 . S
N127 C130 1.336 . S
C128 N126 1.335 . S
C128 N127 1.345 . S
C128 H133 0.930 . S
C129 N126 1.390 . S
C129 C130 1.346 . S
C129 H134 0.930 . S
C130 N127 1.336 . S
C130 C129 1.346 . S
C130 H137 0.929 . S
C131 O121 1.282 . S
C131 O132 1.216 . S
O132 C131 1.216 . S
H133 C128 0.930 . S
H134 C129 0.930 . S
O135 Cu115 1.959 . S
O135 C122 1.251 . S
H136 C119 0.930 . S
H137 C130 0.929 . S
Cu138 N139 1.999 . S
Cu138 O144 1.974 . S
Cu138 N149 1.985 . S
Cu138 O158 1.959 . S
N139 Cu138 1.999 . S
N139 C141 1.263 . S
N139 C143 1.389 . S
N140 C141 1.358 . S
N140 C142 1.400 . S
C141 N139 1.263 . S
C141 N140 1.358 . S
C141 H147 0.930 . S
C142 N140 1.400 . S
C142 C143 1.351 . S
C142 H159 0.930 . S
C143 N139 1.389 . S
C143 C142 1.351 . S
C143 H148 0.930 . S
O144 Cu138 1.974 . S
O144 C154 1.282 . S
C145 O146 1.261 . S
C145 O158 1.251 . S
O146 C145 1.261 . S
H147 C141 0.930 . S
H148 C143 0.930 . S
N149 Cu138 1.985 . S
N149 C151 1.335 . S
N149 C152 1.390 . S
N150 C151 1.345 . S
N150 C153 1.336 . S
C151 N149 1.335 . S
C151 N150 1.345 . S
C151 H156 0.930 . S
C152 N149 1.390 . S
C152 C153 1.346 . S
C152 H157 0.930 . S
C153 N150 1.336 . S
C153 C152 1.346 . S
C153 H160 0.929 . S
C154 O144 1.282 . S
C154 O155 1.216 . S
O155 C154 1.216 . S
H156 C151 0.930 . S
H157 C152 0.930 . S
O158 Cu138 1.959 . S
O158 C145 1.251 . S
H159 C142 0.930 . S
H160 C153 0.929 . S
Cu161 N162 1.999 . S
Cu161 O167 1.974 . S
Cu161 N172 1.985 . S
Cu161 O181 1.959 . S
N162 Cu161 1.999 . S
N162 C164 1.263 . S
N162 C166 1.389 . S
N163 C164 1.358 . S
N163 C165 1.400 . S
C164 N162 1.263 . S
C164 N163 1.358 . S
C164 H170 0.930 . S
C165 N163 1.400 . S
C165 C166 1.351 . S
C165 H182 0.930 . S
C166 N162 1.389 . S
C166 C165 1.351 . S
C166 H171 0.930 . S
O167 Cu161 1.974 . S
O167 C177 1.282 . S
C168 O169 1.261 . S
C168 O181 1.251 . S
O169 C168 1.261 . S
H170 C164 0.930 . S
H171 C166 0.930 . S
N172 Cu161 1.985 . S
N172 C174 1.335 . S
N172 C175 1.390 . S
N173 C174 1.345 . S
N173 C176 1.336 . S
C174 N172 1.335 . S
C174 N173 1.345 . S
C174 H179 0.930 . S
C175 N172 1.390 . S
C175 C176 1.346 . S
C175 H180 0.930 . S
C176 N173 1.336 . S
C176 C175 1.346 . S
C176 H183 0.929 . S
C177 O167 1.282 . S
C177 O178 1.216 . S
O178 C177 1.216 . S
H179 C174 0.930 . S
H180 C175 0.930 . S
O181 Cu161 1.959 . S
O181 C168 1.251 . S
H182 C165 0.930 . S
H183 C176 0.929 . S
H184 C202 0.951 . S
H185 C204 0.951 1_655 S
H186 C206 0.950 . S
H187 C207 0.950 . S
H188 C209 0.950 . S
H189 C212 0.950 1_455 S
H190 C213 0.954 . S
H191 C215 0.950 . S
H192 C216 0.950 . S
H193 C217 0.951 . S
H194 C219 0.951 1_455 S
H195 C221 0.950 . S
H196 C222 0.950 . S
H197 C224 0.950 . S
H198 C227 0.950 1_655 S
H199 C228 0.954 . S
H200 C230 0.950 . S
H201 C231 0.950 . S
C202 H184 0.951 . S
C202 C203 1.366 . S
C202 C204 1.388 . S
C203 C202 1.366 . S
C203 C207 1.385 . S
C204 H185 0.951 1_455 S
C204 C202 1.388 . S
C204 C205 1.366 . S
C205 C204 1.366 . S
C205 C206 1.414 . S
C205 C208 1.499 . S
C206 H186 0.950 . S
C206 C205 1.414 . S
C206 C207 1.374 . S
C207 H187 0.950 . S
C207 C203 1.385 . S
C207 C206 1.374 . S
C208 C205 1.499 . S
C208 C209 1.373 . S
C208 C210 1.389 1_455 S
C209 H188 0.950 . S
C209 C208 1.373 . S
C209 C225 1.377 . S
C210 C208 1.389 1_655 S
C210 C211 1.524 . S
C210 C224 1.377 . S
C211 C210 1.524 . S
C211 C212 1.397 . S
C211 C216 1.363 . S
C212 H189 0.950 1_655 S
C212 C211 1.397 . S
C212 C213 1.334 . S
C213 H190 0.954 . S
C213 C212 1.334 . S
C213 C214 1.287 . S
C214 C213 1.287 . S
C214 C215 1.524 . S
C214 H233 0.913 . S
C215 H191 0.950 . S
C215 C214 1.524 . S
C215 C216 1.415 . S
C216 H192 0.950 . S
C216 C211 1.363 . S
C216 C215 1.415 . S
C217 H193 0.951 . S
C217 C218 1.366 . S
C217 C219 1.388 . S
C218 C217 1.366 . S
C218 C222 1.385 . S
C219 H194 0.951 1_655 S
C219 C217 1.388 . S
C219 C220 1.366 . S
C220 C219 1.366 . S
C220 C221 1.414 . S
C220 C223 1.499 . S
C221 H195 0.950 . S
C221 C220 1.414 . S
C221 C222 1.374 . S
C222 H196 0.950 . S
C222 C218 1.385 . S
C222 C221 1.374 . S
C223 C220 1.499 . S
C223 C224 1.373 . S
C223 C225 1.389 1_655 S
C224 H197 0.950 . S
C224 C210 1.377 . S
C224 C223 1.373 . S
C225 C209 1.377 . S
C225 C223 1.389 1_455 S
C225 C226 1.524 . S
C226 C225 1.524 . S
C226 C227 1.397 . S
C226 C231 1.363 . S
C227 H198 0.950 1_455 S
C227 C226 1.397 . S
C227 C228 1.334 . S
C228 H199 0.954 . S
C228 C227 1.334 . S
C228 C229 1.287 . S
C229 C228 1.287 . S
C229 C230 1.524 . S
C229 H232 0.999 . S
C230 H200 0.950 . S
C230 C229 1.524 . S
C230 C231 1.415 . S
C231 H201 0.950 . S
C231 C226 1.363 . S
C231 C230 1.415 . S
H232 C229 0.999 . S
H233 C214 0.913 . S
H234 C252 0.951 . S
H235 C254 0.951 . S
H236 C256 0.950 . S
H237 C257 0.950 . S
H238 C259 0.950 . S
H239 C262 0.950 . S
H240 C263 0.950 . S
H241 C265 0.950 . S
H242 C266 0.950 . S
H243 C267 0.951 . S
H244 C269 0.951 . S
H245 C271 0.950 . S
H246 C272 0.950 . S
H247 C274 0.950 . S
H248 C277 0.950 . S
H249 C278 0.950 . S
H250 C280 0.950 . S
H251 C281 0.950 . S
C252 H234 0.951 . S
C252 C253 1.366 . S
C252 C254 1.388 . S
C253 C252 1.366 . S
C253 C257 1.385 . S
C254 H235 0.951 . S
C254 C252 1.388 . S
C254 C255 1.366 . S
C255 C254 1.366 . S
C255 C256 1.414 . S
C255 C258 1.499 . S
C256 H236 0.950 . S
C256 C255 1.414 . S
C256 C257 1.374 . S
C257 H237 0.950 . S
C257 C253 1.385 . S
C257 C256 1.374 . S
C258 C255 1.499 . S
C258 C259 1.373 . S
C258 C260 1.389 1_565 S
C259 H238 0.950 . S
C259 C258 1.373 . S
C259 C275 1.377 . S
C260 C258 1.389 1_545 S
C260 C261 1.524 . S
C260 C274 1.377 . S
C261 C260 1.524 . S
C261 C262 1.397 . S
C261 C266 1.363 . S
C262 H239 0.950 . S
C262 C261 1.397 . S
C262 C263 1.334 . S
C263 H240 0.950 . S
C263 C262 1.334 . S
C263 C264 1.287 . S
C264 C263 1.287 . S
C264 C265 1.524 . S
C264 H283 0.913 . S
C265 H241 0.950 . S
C265 C264 1.524 . S
C265 C266 1.415 . S
C266 H242 0.950 . S
C266 C261 1.363 . S
C266 C265 1.415 . S
C267 H243 0.951 . S
C267 C268 1.366 . S
C267 C269 1.388 . S
C268 C267 1.366 . S
C268 C272 1.385 . S
C269 H244 0.951 . S
C269 C267 1.388 . S
C269 C270 1.366 . S
C270 C269 1.366 . S
C270 C271 1.414 . S
C270 C273 1.499 . S
C271 H245 0.950 . S
C271 C270 1.414 . S
C271 C272 1.374 . S
C272 H246 0.950 . S
C272 C268 1.385 . S
C272 C271 1.374 . S
C273 C270 1.499 . S
C273 C274 1.373 . S
C273 C275 1.389 1_545 S
C274 H247 0.950 . S
C274 C260 1.377 . S
C274 C273 1.373 . S
C275 C259 1.377 . S
C275 C273 1.389 1_565 S
C275 C276 1.524 . S
C276 C275 1.524 . S
C276 C277 1.397 . S
C276 C281 1.363 . S
C277 H248 0.950 . S
C277 C276 1.397 . S
C277 C278 1.334 . S
C278 H249 0.950 . S
C278 C277 1.334 . S
C278 C279 1.287 . S
C279 C278 1.287 . S
C279 C280 1.524 . S
C279 H282 0.999 . S
C280 H250 0.950 . S
C280 C279 1.524 . S
C280 C281 1.415 . S
C281 H251 0.950 . S
C281 C276 1.363 . S
C281 C280 1.415 . S
H282 C279 0.999 . S
H283 C264 0.913 . S
H284 C302 0.951 . S
H285 C304 0.951 . S
H286 C306 0.950 1_455 S
H287 C307 0.950 . S
H288 C309 0.950 . S
H289 C312 0.950 . S
H290 C313 0.950 . S
H291 C315 0.950 . S
H292 C316 0.950 . S
H293 C317 0.951 . S
H294 C319 0.951 . S
H295 C321 0.950 1_655 S
H296 C322 0.950 . S
H297 C324 0.950 . S
H298 C327 0.950 . S
H299 C328 0.950 . S
H300 C330 0.950 . S
H301 C331 0.950 . S
C302 H284 0.951 . S
C302 C303 1.366 . S
C302 C304 1.388 . S
C303 C302 1.366 . S
C303 C307 1.385 . S
C304 H285 0.951 . S
C304 C302 1.388 . S
C304 C305 1.366 . S
C305 C304 1.366 . S
C305 C306 1.414 . S
C305 C308 1.499 . S
C306 H286 0.950 1_655 S
C306 C305 1.414 . S
C306 C307 1.374 . S
C307 H287 0.950 . S
C307 C303 1.385 . S
C307 C306 1.374 . S
C308 C305 1.499 . S
C308 C309 1.373 1_655 S
C308 C310 1.389 . S
C309 H288 0.950 . S
C309 C308 1.373 1_455 S
C309 C325 1.377 . S
C310 C308 1.389 . S
C310 C311 1.524 . S
C310 C324 1.377 . S
C311 C310 1.524 . S
C311 C312 1.397 . S
C311 C316 1.363 . S
C312 H289 0.950 . S
C312 C311 1.397 . S
C312 C313 1.334 . S
C313 H290 0.950 . S
C313 C312 1.334 . S
C313 C314 1.287 . S
C314 C313 1.287 . S
C314 C315 1.524 . S
C314 H333 0.913 . S
C315 H291 0.950 . S
C315 C314 1.524 . S
C315 C316 1.415 . S
C316 H292 0.950 . S
C316 C311 1.363 . S
C316 C315 1.415 . S
C317 H293 0.951 . S
C317 C318 1.366 . S
C317 C319 1.388 . S
C318 C317 1.366 . S
C318 C322 1.385 . S
C319 H294 0.951 . S
C319 C317 1.388 . S
C319 C320 1.366 . S
C320 C319 1.366 . S
C320 C321 1.414 . S
C320 C323 1.499 . S
C321 H295 0.950 1_455 S
C321 C320 1.414 . S
C321 C322 1.374 . S
C322 H296 0.950 . S
C322 C318 1.385 . S
C322 C321 1.374 . S
C323 C320 1.499 . S
C323 C324 1.373 1_455 S
C323 C325 1.389 . S
C324 H297 0.950 . S
C324 C310 1.377 . S
C324 C323 1.373 1_655 S
C325 C309 1.377 . S
C325 C323 1.389 . S
C325 C326 1.524 . S
C326 C325 1.524 . S
C326 C327 1.397 . S
C326 C331 1.363 . S
C327 H298 0.950 . S
C327 C326 1.397 . S
C327 C328 1.334 . S
C328 H299 0.950 . S
C328 C327 1.334 . S
C328 C329 1.287 . S
C329 C328 1.287 . S
C329 C330 1.524 . S
C329 H332 0.999 . S
C330 H300 0.950 . S
C330 C329 1.524 . S
C330 C331 1.415 . S
C331 H301 0.950 . S
C331 C326 1.363 . S
C331 C330 1.415 . S
H332 C329 0.999 . S
H333 C314 0.913 . S
H334 C352 0.951 . S
H335 C354 0.951 1_565 S
H336 C356 0.950 . S
H337 C357 0.950 . S
H338 C359 0.950 . S
H339 C362 0.950 . S
H340 C363 0.950 . S
H341 C365 0.950 . S
H342 C366 0.950 . S
H343 C367 0.951 . S
H344 C369 0.951 1_545 S
H345 C371 0.950 . S
H346 C372 0.950 . S
H347 C374 0.950 . S
H348 C377 0.950 . S
H349 C378 0.950 . S
H350 C380 0.950 . S
H351 C381 0.950 . S
C352 H334 0.951 . S
C352 C353 1.366 . S
C352 C354 1.388 . S
C353 C352 1.366 . S
C353 C357 1.385 . S
C354 H335 0.951 1_545 S
C354 C352 1.388 . S
C354 C355 1.366 . S
C355 C354 1.366 . S
C355 C356 1.414 . S
C355 C358 1.499 . S
C356 H336 0.950 . S
C356 C355 1.414 . S
C356 C357 1.374 . S
C357 H337 0.950 . S
C357 C353 1.385 . S
C357 C356 1.374 . S
C358 C355 1.499 . S
C358 C359 1.373 . S
C358 C360 1.389 1_545 S
C359 H338 0.950 . S
C359 C358 1.373 . S
C359 C375 1.377 . S
C360 C358 1.389 1_565 S
C360 C361 1.524 . S
C360 C374 1.377 . S
C361 C360 1.524 . S
C361 C362 1.397 . S
C361 C366 1.363 . S
C362 H339 0.950 . S
C362 C361 1.397 . S
C362 C363 1.334 . S
C363 H340 0.950 . S
C363 C362 1.334 . S
C363 C364 1.287 . S
C364 C363 1.287 . S
C364 C365 1.524 . S
C364 H383 0.913 . S
C365 H341 0.950 . S
C365 C364 1.524 . S
C365 C366 1.415 . S
C366 H342 0.950 . S
C366 C361 1.363 . S
C366 C365 1.415 . S
C367 H343 0.951 . S
C367 C368 1.366 . S
C367 C369 1.388 . S
C368 C367 1.366 . S
C368 C372 1.385 . S
C369 H344 0.951 1_565 S
C369 C367 1.388 . S
C369 C370 1.366 . S
C370 C369 1.366 . S
C370 C371 1.414 . S
C370 C373 1.499 . S
C371 H345 0.950 . S
C371 C370 1.414 . S
C371 C372 1.374 . S
C372 H346 0.950 . S
C372 C368 1.385 . S
C372 C371 1.374 . S
C373 C370 1.499 . S
C373 C374 1.373 . S
C373 C375 1.389 1_565 S
C374 H347 0.950 . S
C374 C360 1.377 . S
C374 C373 1.373 . S
C375 C359 1.377 . S
C375 C373 1.389 1_545 S
C375 C376 1.524 . S
C376 C375 1.524 . S
C376 C377 1.397 . S
C376 C381 1.363 . S
C377 H348 0.950 . S
C377 C376 1.397 . S
C377 C378 1.334 . S
C378 H349 0.950 . S
C378 C377 1.334 . S
C378 C379 1.287 . S
C379 C378 1.287 . S
C379 C380 1.524 . S
C379 H382 0.999 . S
C380 H350 0.950 . S
C380 C379 1.524 . S
C380 C381 1.415 . S
C381 H351 0.950 . S
C381 C376 1.363 . S
C381 C380 1.415 . S
H382 C379 0.999 . S
H383 C364 0.913 . S
H384 C402 0.951 . S
H385 C404 0.951 1_455 S
H386 C406 0.950 . S
H387 C407 0.950 . S
H388 C409 0.950 . S
H389 C412 0.950 . S
H390 C413 0.950 . S
H391 C415 0.950 . S
H392 C416 0.950 . S
H393 C417 0.951 . S
H394 C419 0.951 1_655 S
H395 C421 0.950 . S
H396 C422 0.950 . S
H397 C424 0.950 . S
H398 C427 0.950 . S
H399 C428 0.950 . S
H400 C430 0.950 . S
H401 C431 0.950 . S
C402 H384 0.951 . S
C402 C403 1.366 . S
C402 C404 1.388 . S
C403 C402 1.366 . S
C403 C407 1.385 . S
C404 H385 0.951 1_655 S
C404 C402 1.388 . S
C404 C405 1.366 . S
C405 C404 1.366 . S
C405 C406 1.414 . S
C405 C408 1.499 . S
C406 H386 0.950 . S
C406 C405 1.414 . S
C406 C407 1.374 . S
C407 H387 0.950 . S
C407 C403 1.385 . S
C407 C406 1.374 . S
C408 C405 1.499 . S
C408 C409 1.373 . S
C408 C410 1.389 1_655 S
C409 H388 0.950 . S
C409 C408 1.373 . S
C409 C425 1.377 1_556 S
C410 C408 1.389 1_455 S
C410 C411 1.524 . S
C410 C424 1.377 1_556 S
C411 C410 1.524 . S
C411 C412 1.397 . S
C411 C416 1.363 . S
C412 H389 0.950 . S
C412 C411 1.397 . S
C412 C413 1.334 . S
C413 H390 0.950 . S
C413 C412 1.334 . S
C413 C414 1.287 . S
C414 C413 1.287 . S
C414 C415 1.524 . S
C414 H433 0.913 . S
C415 H391 0.950 . S
C415 C414 1.524 . S
C415 C416 1.415 . S
C416 H392 0.950 . S
C416 C411 1.363 . S
C416 C415 1.415 . S
C417 H393 0.951 . S
C417 C418 1.366 . S
C417 C419 1.388 . S
C418 C417 1.366 . S
C418 C422 1.385 . S
C419 H394 0.951 1_455 S
C419 C417 1.388 . S
C419 C420 1.366 . S
C420 C419 1.366 . S
C420 C421 1.414 . S
C420 C423 1.499 . S
C421 H395 0.950 . S
C421 C420 1.414 . S
C421 C422 1.374 . S
C422 H396 0.950 . S
C422 C418 1.385 . S
C422 C421 1.374 . S
C423 C420 1.499 . S
C423 C424 1.373 . S
C423 C425 1.389 1_455 S
C424 H397 0.950 . S
C424 C410 1.377 1_554 S
C424 C423 1.373 . S
C425 C409 1.377 1_554 S
C425 C423 1.389 1_655 S
C425 C426 1.524 . S
C426 C425 1.524 . S
C426 C427 1.397 . S
C426 C431 1.363 . S
C427 H398 0.950 . S
C427 C426 1.397 . S
C427 C428 1.334 . S
C428 H399 0.950 . S
C428 C427 1.334 . S
C428 C429 1.287 . S
C429 C428 1.287 . S
C429 C430 1.524 . S
C429 H432 0.999 . S
C430 H400 0.950 . S
C430 C429 1.524 . S
C430 C431 1.415 . S
C431 H401 0.950 . S
C431 C426 1.363 . S
C431 C430 1.415 . S
H432 C429 0.999 . S
H433 C414 0.913 . S
H434 C452 0.951 . S
H435 C454 0.951 1_565 S
H436 C456 0.950 . S
H437 C457 0.950 . S
H438 C459 0.950 . S
H439 C462 0.950 . S
H440 C463 0.950 . S
H441 C465 0.950 . S
H442 C466 0.950 1_565 S
H443 C467 0.951 . S
H444 C469 0.951 1_545 S
H445 C471 0.950 . S
H446 C472 0.950 . S
H447 C474 0.950 . S
H448 C477 0.950 . S
H449 C478 0.950 . S
H450 C480 0.950 . S
H451 C481 0.950 1_545 S
C452 H434 0.951 . S
C452 C453 1.366 . S
C452 C454 1.388 . S
C453 C452 1.366 . S
C453 C457 1.385 . S
C454 H435 0.951 1_545 S
C454 C452 1.388 . S
C454 C455 1.366 . S
C455 C454 1.366 . S
C455 C456 1.414 . S
C455 C458 1.499 . S
C456 H436 0.950 . S
C456 C455 1.414 . S
C456 C457 1.374 . S
C457 H437 0.950 . S
C457 C453 1.385 . S
C457 C456 1.374 . S
C458 C455 1.499 . S
C458 C459 1.374 1_545 S
C458 C460 1.389 . S
C459 H438 0.950 . S
C459 C458 1.374 1_565 S
C459 C475 1.376 . S
C460 C458 1.389 . S
C460 C461 1.524 . S
C460 C474 1.376 . S
C461 C460 1.524 . S
C461 C462 1.397 . S
C461 C466 1.363 . S
C462 H439 0.950 . S
C462 C461 1.397 . S
C462 C463 1.334 . S
C463 H440 0.950 . S
C463 C462 1.334 . S
C463 C464 1.287 . S
C464 C463 1.287 . S
C464 C465 1.524 . S
C464 H483 0.913 . S
C465 H441 0.950 . S
C465 C464 1.524 . S
C465 C466 1.415 . S
C466 H442 0.950 1_545 S
C466 C461 1.363 . S
C466 C465 1.415 . S
C467 H443 0.951 . S
C467 C468 1.366 . S
C467 C469 1.388 . S
C468 C467 1.366 . S
C468 C472 1.385 . S
C469 H444 0.951 1_565 S
C469 C467 1.388 . S
C469 C470 1.366 . S
C470 C469 1.366 . S
C470 C471 1.414 . S
C470 C473 1.499 . S
C471 H445 0.950 . S
C471 C470 1.414 . S
C471 C472 1.374 . S
C472 H446 0.950 . S
C472 C468 1.385 . S
C472 C471 1.374 . S
C473 C470 1.499 . S
C473 C474 1.374 1_565 S
C473 C475 1.389 . S
C474 H447 0.950 . S
C474 C460 1.376 . S
C474 C473 1.374 1_545 S
C475 C459 1.376 . S
C475 C473 1.389 . S
C475 C476 1.524 . S
C476 C475 1.524 . S
C476 C477 1.397 . S
C476 C481 1.363 . S
C477 H448 0.950 . S
C477 C476 1.397 . S
C477 C478 1.334 . S
C478 H449 0.950 . S
C478 C477 1.334 . S
C478 C479 1.287 . S
C479 C478 1.287 . S
C479 C480 1.524 . S
C479 H482 0.999 . S
C480 H450 0.950 . S
C480 C479 1.524 . S
C480 C481 1.415 . S
C481 H451 0.950 1_565 S
C481 C476 1.363 . S
C481 C480 1.415 . S
H482 C479 0.999 . S
H483 C464 0.913 . S
H484 C502 0.951 . S
H485 C504 0.951 . S
H486 C506 0.950 1_455 S
H487 C507 0.950 . S
H488 C509 0.950 . S
H489 C512 0.950 . S
H490 C513 0.950 . S
H491 C515 0.950 . S
H492 C516 0.950 1_556 S
H493 C517 0.951 . S
H494 C519 0.951 . S
H495 C521 0.950 1_655 S
H496 C522 0.950 . S
H497 C524 0.950 . S
H498 C527 0.950 . S
H499 C528 0.950 . S
H500 C530 0.950 . S
H501 C531 0.950 1_554 S
C502 H484 0.951 . S
C502 C503 1.366 . S
C502 C504 1.388 . S
C503 C502 1.366 . S
C503 C507 1.385 . S
C504 H485 0.951 . S
C504 C502 1.388 . S
C504 C505 1.366 . S
C505 C504 1.366 . S
C505 C506 1.414 . S
C505 C508 1.499 . S
C506 H486 0.950 1_655 S
C506 C505 1.414 . S
C506 C507 1.374 . S
C507 H487 0.950 . S
C507 C503 1.385 . S
C507 C506 1.374 . S
C508 C505 1.499 . S
C508 C509 1.373 . S
C508 C510 1.389 . S
C509 H488 0.950 . S
C509 C508 1.373 . S
C509 C525 1.377 1_654 S
C510 C508 1.389 . S
C510 C511 1.524 . S
C510 C524 1.377 1_654 S
C511 C510 1.524 . S
C511 C512 1.397 1_655 S
C511 C516 1.363 . S
C512 H489 0.950 . S
C512 C511 1.397 1_455 S
C512 C513 1.334 . S
C513 H490 0.950 . S
C513 C512 1.334 . S
C513 C514 1.287 1_455 S
C514 C513 1.287 1_655 S
C514 C515 1.524 . S
C514 H533 0.913 . S
C515 H491 0.950 . S
C515 C514 1.524 . S
C515 C516 1.415 . S
C516 H492 0.950 1_554 S
C516 C511 1.363 . S
C516 C515 1.415 . S
C517 H493 0.951 . S
C517 C518 1.366 . S
C517 C519 1.388 . S
C518 C517 1.366 . S
C518 C522 1.385 . S
C519 H494 0.951 . S
C519 C517 1.388 . S
C519 C520 1.366 . S
C520 C519 1.366 . S
C520 C521 1.414 . S
C520 C523 1.499 . S
C521 H495 0.950 1_455 S
C521 C520 1.414 . S
C521 C522 1.374 . S
C522 H496 0.950 . S
C522 C518 1.385 . S
C522 C521 1.374 . S
C523 C520 1.499 . S
C523 C524 1.373 . S
C523 C525 1.389 . S
C524 H497 0.950 . S
C524 C510 1.377 1_456 S
C524 C523 1.373 . S
C525 C509 1.377 1_456 S
C525 C523 1.389 . S
C525 C526 1.524 . S
C526 C525 1.524 . S
C526 C527 1.397 1_455 S
C526 C531 1.363 . S
C527 H498 0.950 . S
C527 C526 1.397 1_655 S
C527 C528 1.334 . S
C528 H499 0.950 . S
C528 C527 1.334 . S
C528 C529 1.287 1_655 S
C529 C528 1.287 1_455 S
C529 C530 1.524 . S
C529 H532 0.999 . S
C530 H500 0.950 . S
C530 C529 1.524 . S
C530 C531 1.415 . S
C531 H501 0.950 1_556 S
C531 C526 1.363 . S
C531 C530 1.415 . S
H532 C529 0.999 . S
H533 C514 0.913 . S
H534 C552 0.951 . S
H535 C554 0.951 . S
H536 C556 0.950 1_565 S
H537 C557 0.937 1_565 S
H538 C559 0.950 . S
H539 C562 0.950 . S
H540 C563 0.950 . S
H541 C565 0.950 . S
H542 C566 0.950 . S
H543 C567 0.951 . S
H544 C569 0.951 . S
H545 C571 0.950 1_545 S
H546 C572 0.937 1_545 S
H547 C574 0.950 . S
H548 C577 0.950 . S
H549 C578 0.950 . S
H550 C580 0.950 . S
H551 C581 0.950 . S
C552 H534 0.951 . S
C552 C553 1.366 . S
C552 C554 1.388 . S
C553 C552 1.366 . S
C553 C557 1.385 . S
C554 H535 0.951 . S
C554 C552 1.388 . S
C554 C555 1.366 . S
C555 C554 1.366 . S
C555 C556 1.414 . S
C555 C558 1.499 . S
C556 H536 0.950 1_545 S
C556 C555 1.414 . S
C556 C557 1.374 . S
C557 H537 0.937 1_545 S
C557 C553 1.385 . S
C557 C556 1.374 . S
C558 C555 1.499 . S
C558 C559 1.373 1_545 S
C558 C560 1.389 . S
C559 H538 0.950 . S
C559 C558 1.373 1_565 S
C559 C575 1.377 . S
C560 C558 1.389 . S
C560 C561 1.524 . S
C560 C574 1.377 . S
C561 C560 1.524 . S
C561 C562 1.397 . S
C561 C566 1.363 . S
C562 H539 0.950 . S
C562 C561 1.397 . S
C562 C563 1.334 . S
C563 H540 0.950 . S
C563 C562 1.334 . S
C563 C564 1.287 . S
C564 C563 1.287 . S
C564 C565 1.524 . S
C564 H583 0.913 . S
C565 H541 0.950 . S
C565 C564 1.524 . S
C565 C566 1.415 . S
C566 H542 0.950 . S
C566 C561 1.363 . S
C566 C565 1.415 . S
C567 H543 0.951 . S
C567 C568 1.366 . S
C567 C569 1.388 . S
C568 C567 1.366 . S
C568 C572 1.385 . S
C569 H544 0.951 . S
C569 C567 1.388 . S
C569 C570 1.366 . S
C570 C569 1.366 . S
C570 C571 1.414 . S
C570 C573 1.499 . S
C571 H545 0.950 1_565 S
C571 C570 1.414 . S
C571 C572 1.374 . S
C572 H546 0.937 1_565 S
C572 C568 1.385 . S
C572 C571 1.374 . S
C573 C570 1.499 . S
C573 C574 1.373 1_565 S
C573 C575 1.389 . S
C574 H547 0.950 . S
C574 C560 1.377 . S
C574 C573 1.373 1_545 S
C575 C559 1.377 . S
C575 C573 1.389 . S
C575 C576 1.524 . S
C576 C575 1.524 . S
C576 C577 1.397 . S
C576 C581 1.363 . S
C577 H548 0.950 . S
C577 C576 1.397 . S
C577 C578 1.334 . S
C578 H549 0.950 . S
C578 C577 1.334 . S
C578 C579 1.287 . S
C579 C578 1.287 . S
C579 C580 1.524 . S
C579 H582 0.999 . S
C580 H550 0.950 . S
C580 C579 1.524 . S
C580 C581 1.415 . S
C581 H551 0.950 . S
C581 C576 1.363 . S
C581 C580 1.415 . S
H582 C579 0.999 . S
H583 C564 0.913 . S
H584 C602 0.951 . S
H585 C604 0.951 . S
H586 C606 0.950 . S
H587 C607 0.950 . S
H588 C609 0.950 . S
H589 C612 0.950 . S
H590 C613 0.950 . S
H591 C615 0.950 . S
H592 C616 0.950 . S
H593 C617 0.951 . S
H594 C619 0.951 . S
H595 C621 0.950 . S
H596 C622 0.950 . S
H597 C624 0.950 . S
H598 C627 0.950 . S
H599 C628 0.950 . S
H600 C630 0.950 . S
H601 C631 0.950 . S
C602 H584 0.951 . S
C602 C603 1.366 . S
C602 C604 1.388 . S
C603 C602 1.366 . S
C603 C607 1.385 . S
C604 H585 0.951 . S
C604 C602 1.388 . S
C604 C605 1.366 . S
C605 C604 1.366 . S
C605 C606 1.414 . S
C605 C608 1.499 . S
C606 H586 0.950 . S
C606 C605 1.414 . S
C606 C607 1.374 . S
C607 H587 0.950 . S
C607 C603 1.385 . S
C607 C606 1.374 . S
C608 C605 1.499 . S
C608 C609 1.373 . S
C608 C610 1.389 . S
C609 H588 0.950 . S
C609 C608 1.373 . S
C609 C625 1.377 . S
C610 C608 1.389 . S
C610 C611 1.524 . S
C610 C624 1.377 . S
C611 C610 1.524 . S
C611 C612 1.397 . S
C611 C616 1.363 . S
C612 H589 0.950 . S
C612 C611 1.397 . S
C612 C613 1.334 . S
C613 H590 0.950 . S
C613 C612 1.334 . S
C613 C614 1.287 . S
C614 C613 1.287 . S
C614 C615 1.524 . S
C614 H633 0.913 . S
C615 H591 0.950 . S
C615 C614 1.524 . S
C615 C616 1.415 . S
C616 H592 0.950 . S
C616 C611 1.363 . S
C616 C615 1.415 . S
C617 H593 0.951 . S
C617 C618 1.366 . S
C617 C619 1.388 . S
C618 C617 1.366 . S
C618 C622 1.385 . S
C619 H594 0.951 . S
C619 C617 1.388 . S
C619 C620 1.366 . S
C620 C619 1.366 . S
C620 C621 1.414 . S
C620 C623 1.499 . S
C621 H595 0.950 . S
C621 C620 1.414 . S
C621 C622 1.374 . S
C622 H596 0.950 . S
C622 C618 1.385 . S
C622 C621 1.374 . S
C623 C620 1.499 . S
C623 C624 1.373 . S
C623 C625 1.389 . S
C624 H597 0.950 . S
C624 C610 1.377 . S
C624 C623 1.373 . S
C625 C609 1.377 . S
C625 C623 1.389 . S
C625 C626 1.524 . S
C626 C625 1.524 . S
C626 C627 1.397 . S
C626 C631 1.363 . S
C627 H598 0.950 . S
C627 C626 1.397 . S
C627 C628 1.334 . S
C628 H599 0.950 . S
C628 C627 1.334 . S
C628 C629 1.287 . S
C629 C628 1.287 . S
C629 C630 1.524 . S
C629 H632 0.999 . S
C630 H600 0.950 . S
C630 C629 1.524 . S
C630 C631 1.415 . S
C631 H601 0.950 . S
C631 C626 1.363 . S
C631 C630 1.415 . S
H632 C629 0.999 . S
H633 C614 0.913 . S
H634 C652 0.951 . S
H635 C654 0.951 . S
H636 C656 0.950 . S
H637 C657 0.950 . S
H638 C659 0.950 . S
H639 C662 0.950 . S
H640 C663 0.950 . S
H641 C665 0.950 . S
H642 C666 0.950 . S
H643 C667 0.951 . S
H644 C669 0.951 . S
H645 C671 0.950 . S
H646 C672 0.950 . S
H647 C674 0.950 . S
H648 C677 0.950 . S
H649 C678 0.950 . S
H650 C680 0.950 . S
H651 C681 0.950 . S
C652 H634 0.951 . S
C652 C653 1.366 . S
C652 C654 1.388 . S
C653 C652 1.366 . S
C653 C657 1.385 . S
C654 H635 0.951 . S
C654 C652 1.388 . S
C654 C655 1.366 . S
C655 C654 1.366 . S
C655 C656 1.414 . S
C655 C658 1.499 . S
C656 H636 0.950 . S
C656 C655 1.414 . S
C656 C657 1.374 . S
C657 H637 0.950 . S
C657 C653 1.385 . S
C657 C656 1.374 . S
C658 C655 1.499 . S
C658 C659 1.373 . S
C658 C660 1.389 . S
C659 H638 0.950 . S
C659 C658 1.373 . S
C659 C675 1.377 . S
C660 C658 1.389 . S
C660 C661 1.524 . S
C660 C674 1.377 . S
C661 C660 1.524 . S
C661 C662 1.397 . S
C661 C666 1.363 . S
C662 H639 0.950 . S
C662 C661 1.397 . S
C662 C663 1.334 . S
C663 H640 0.950 . S
C663 C662 1.334 . S
C663 C664 1.287 . S
C664 C663 1.287 . S
C664 C665 1.524 . S
C664 H683 0.913 . S
C665 H641 0.950 . S
C665 C664 1.524 . S
C665 C666 1.415 . S
C666 H642 0.950 . S
C666 C661 1.363 . S
C666 C665 1.415 . S
C667 H643 0.951 . S
C667 C668 1.366 . S
C667 C669 1.388 . S
C668 C667 1.366 . S
C668 C672 1.385 . S
C669 H644 0.951 . S
C669 C667 1.388 . S
C669 C670 1.366 . S
C670 C669 1.366 . S
C670 C671 1.414 . S
C670 C673 1.499 . S
C671 H645 0.950 . S
C671 C670 1.414 . S
C671 C672 1.374 . S
C672 H646 0.950 . S
C672 C668 1.385 . S
C672 C671 1.374 . S
C673 C670 1.499 . S
C673 C674 1.373 . S
C673 C675 1.389 . S
C674 H647 0.950 . S
C674 C660 1.377 . S
C674 C673 1.373 . S
C675 C659 1.377 . S
C675 C673 1.389 . S
C675 C676 1.524 . S
C676 C675 1.524 . S
C676 C677 1.397 . S
C676 C681 1.363 . S
C677 H648 0.950 . S
C677 C676 1.397 . S
C677 C678 1.334 . S
C678 H649 0.950 . S
C678 C677 1.334 . S
C678 C679 1.287 . S
C679 C678 1.287 . S
C679 C680 1.524 . S
C679 H682 0.999 . S
C680 H650 0.950 . S
C680 C679 1.524 . S
C680 C681 1.415 . S
C681 H651 0.950 . S
C681 C676 1.363 . S
C681 C680 1.415 . S
H682 C679 0.999 . S
H683 C664 0.913 . S
H684 C702 0.951 . S
H685 C704 0.951 . S
H686 C706 0.950 . S
H687 C707 0.950 . S
H688 C709 0.950 . S
H689 C712 0.950 . S
H690 C713 0.950 . S
H691 C715 0.950 . S
H692 C716 0.950 . S
H693 C717 0.951 . S
H694 C719 0.951 . S
H695 C721 0.950 . S
H696 C722 0.950 . S
H697 C724 0.950 . S
H698 C727 0.950 . S
H699 C728 0.950 . S
H700 C730 0.950 . S
H701 C731 0.950 . S
C702 H684 0.951 . S
C702 C703 1.366 . S
C702 C704 1.388 . S
C703 C702 1.366 . S
C703 C707 1.385 . S
C704 H685 0.951 . S
C704 C702 1.388 . S
C704 C705 1.366 . S
C705 C704 1.366 . S
C705 C706 1.414 . S
C705 C708 1.499 . S
C706 H686 0.950 . S
C706 C705 1.414 . S
C706 C707 1.374 . S
C707 H687 0.950 . S
C707 C703 1.385 . S
C707 C706 1.374 . S
C708 C705 1.499 . S
C708 C709 1.373 . S
C708 C710 1.389 . S
C709 H688 0.950 . S
C709 C708 1.373 . S
C709 C725 1.377 . S
C710 C708 1.389 . S
C710 C711 1.524 . S
C710 C724 1.377 . S
C711 C710 1.524 . S
C711 C712 1.397 . S
C711 C716 1.363 . S
C712 H689 0.950 . S
C712 C711 1.397 . S
C712 C713 1.334 . S
C713 H690 0.950 . S
C713 C712 1.334 . S
C713 C714 1.287 . S
C714 C713 1.287 . S
C714 C715 1.524 . S
C714 H733 0.913 . S
C715 H691 0.950 . S
C715 C714 1.524 . S
C715 C716 1.415 . S
C716 H692 0.950 . S
C716 C711 1.363 . S
C716 C715 1.415 . S
C717 H693 0.951 . S
C717 C718 1.366 . S
C717 C719 1.388 . S
C718 C717 1.366 . S
C718 C722 1.385 . S
C719 H694 0.951 . S
C719 C717 1.388 . S
C719 C720 1.366 . S
C720 C719 1.366 . S
C720 C721 1.414 . S
C720 C723 1.499 . S
C721 H695 0.950 . S
C721 C720 1.414 . S
C721 C722 1.374 . S
C722 H696 0.950 . S
C722 C718 1.385 . S
C722 C721 1.374 . S
C723 C720 1.499 . S
C723 C724 1.373 . S
C723 C725 1.389 . S
C724 H697 0.950 . S
C724 C710 1.377 . S
C724 C723 1.373 . S
C725 C709 1.377 . S
C725 C723 1.389 . S
C725 C726 1.524 . S
C726 C725 1.524 . S
C726 C727 1.397 . S
C726 C731 1.363 . S
C727 H698 0.950 . S
C727 C726 1.397 . S
C727 C728 1.334 . S
C728 H699 0.950 . S
C728 C727 1.334 . S
C728 C729 1.287 . S
C729 C728 1.287 . S
C729 C730 1.524 . S
C729 H732 0.999 . S
C730 H700 0.950 . S
C730 C729 1.524 . S
C730 C731 1.415 . S
C731 H701 0.950 . S
C731 C726 1.363 . S
C731 C730 1.415 . S
H732 C729 0.999 . S
H733 C714 0.913 . S
H734 C752 0.951 . S
H735 C754 0.951 . S
H736 C756 0.950 . S
H737 C757 0.950 . S
H738 C759 0.950 . S
H739 C762 0.950 . S
H740 C763 0.950 . S
H741 C765 0.950 . S
H742 C766 0.950 . S
H743 C767 0.951 . S
H744 C769 0.951 . S
H745 C771 0.950 . S
H746 C772 0.950 . S
H747 C774 0.950 . S
H748 C777 0.950 . S
H749 C778 0.950 . S
H750 C780 0.950 . S
H751 C781 0.950 . S
C752 H734 0.951 . S
C752 C753 1.366 . S
C752 C754 1.388 . S
C753 C752 1.366 . S
C753 C757 1.385 . S
C754 H735 0.951 . S
C754 C752 1.388 . S
C754 C755 1.366 . S
C755 C754 1.366 . S
C755 C756 1.414 . S
C755 C758 1.499 . S
C756 H736 0.950 . S
C756 C755 1.414 . S
C756 C757 1.374 . S
C757 H737 0.950 . S
C757 C753 1.385 . S
C757 C756 1.374 . S
C758 C755 1.499 . S
C758 C759 1.373 . S
C758 C760 1.389 . S
C759 H738 0.950 . S
C759 C758 1.373 . S
C759 C775 1.377 . S
C760 C758 1.389 . S
C760 C761 1.524 . S
C760 C774 1.377 . S
C761 C760 1.524 . S
C761 C762 1.397 . S
C761 C766 1.363 . S
C762 H739 0.950 . S
C762 C761 1.397 . S
C762 C763 1.334 . S
C763 H740 0.950 . S
C763 C762 1.334 . S
C763 C764 1.287 . S
C764 C763 1.287 . S
C764 C765 1.524 . S
C764 H783 0.913 . S
C765 H741 0.950 . S
C765 C764 1.524 . S
C765 C766 1.415 . S
C766 H742 0.950 . S
C766 C761 1.363 . S
C766 C765 1.415 . S
C767 H743 0.951 . S
C767 C768 1.366 . S
C767 C769 1.388 . S
C768 C767 1.366 . S
C768 C772 1.385 . S
C769 H744 0.951 . S
C769 C767 1.388 . S
C769 C770 1.366 . S
C770 C769 1.366 . S
C770 C771 1.414 . S
C770 C773 1.499 . S
C771 H745 0.950 . S
C771 C770 1.414 . S
C771 C772 1.374 . S
C772 H746 0.950 . S
C772 C768 1.385 . S
C772 C771 1.374 . S
C773 C770 1.499 . S
C773 C774 1.373 . S
C773 C775 1.389 . S
C774 H747 0.950 . S
C774 C760 1.377 . S
C774 C773 1.373 . S
C775 C759 1.377 . S
C775 C773 1.389 . S
C775 C776 1.524 . S
C776 C775 1.524 . S
C776 C777 1.397 . S
C776 C781 1.363 . S
C777 H748 0.950 . S
C777 C776 1.397 . S
C777 C778 1.334 . S
C778 H749 0.950 . S
C778 C777 1.334 . S
C778 C779 1.287 . S
C779 C778 1.287 . S
C779 C780 1.524 . S
C779 H782 0.999 . S
C780 H750 0.950 . S
C780 C779 1.524 . S
C780 C781 1.415 . S
C781 H751 0.950 . S
C781 C776 1.363 . S
C781 C780 1.415 . S
H782 C779 0.999 . S
H783 C764 0.913 . S
H784 C802 0.951 . S
H785 C804 0.951 1_655 S
H786 C806 0.950 . S
H787 C807 0.950 . S
H788 C809 0.950 . S
H789 C812 0.950 . S
H790 C813 0.950 . S
H791 C815 0.950 . S
H792 C816 0.950 . S
H793 C817 0.951 . S
H794 C819 0.951 1_455 S
H795 C821 0.950 . S
H796 C822 0.950 . S
H797 C824 0.950 . S
H798 C827 0.950 . S
H799 C828 0.950 . S
H800 C830 0.950 . S
H801 C831 0.950 . S
C802 H784 0.951 . S
C802 C803 1.366 . S
C802 C804 1.388 . S
C803 C802 1.366 . S
C803 C807 1.385 . S
C804 H785 0.951 1_455 S
C804 C802 1.388 . S
C804 C805 1.366 . S
C805 C804 1.366 . S
C805 C806 1.414 . S
C805 C808 1.499 . S
C806 H786 0.950 . S
C806 C805 1.414 . S
C806 C807 1.374 . S
C807 H787 0.950 . S
C807 C803 1.385 . S
C807 C806 1.374 . S
C808 C805 1.499 . S
C808 C809 1.373 . S
C808 C810 1.389 1_455 S
C809 H788 0.950 . S
C809 C808 1.373 . S
C809 C825 1.377 1_545 S
C810 C808 1.389 1_655 S
C810 C811 1.524 . S
C810 C824 1.377 1_545 S
C811 C810 1.524 . S
C811 C812 1.397 1_655 S
C811 C816 1.363 . S
C812 H789 0.950 . S
C812 C811 1.397 1_455 S
C812 C813 1.334 . S
C813 H790 0.950 . S
C813 C812 1.334 . S
C813 C814 1.287 1_455 S
C814 C813 1.287 1_655 S
C814 C815 1.524 . S
C814 H833 0.913 . S
C815 H791 0.950 . S
C815 C814 1.524 . S
C815 C816 1.415 . S
C816 H792 0.950 . S
C816 C811 1.363 . S
C816 C815 1.415 . S
C817 H793 0.951 . S
C817 C818 1.366 . S
C817 C819 1.388 . S
C818 C817 1.366 . S
C818 C822 1.385 . S
C819 H794 0.951 1_655 S
C819 C817 1.388 . S
C819 C820 1.366 . S
C820 C819 1.366 . S
C820 C821 1.414 . S
C820 C823 1.499 . S
C821 H795 0.950 . S
C821 C820 1.414 . S
C821 C822 1.374 . S
C822 H796 0.950 . S
C822 C818 1.385 . S
C822 C821 1.374 . S
C823 C820 1.499 . S
C823 C824 1.373 . S
C823 C825 1.389 1_655 S
C824 H797 0.950 . S
C824 C810 1.377 1_565 S
C824 C823 1.373 . S
C825 C809 1.377 1_565 S
C825 C823 1.389 1_455 S
C825 C826 1.524 . S
C826 C825 1.524 . S
C826 C827 1.397 1_455 S
C826 C831 1.363 . S
C827 H798 0.950 . S
C827 C826 1.397 1_655 S
C827 C828 1.334 . S
C828 H799 0.950 . S
C828 C827 1.334 . S
C828 C829 1.287 1_655 S
C829 C828 1.287 1_455 S
C829 C830 1.524 . S
C829 H832 0.999 . S
C830 H800 0.950 . S
C830 C829 1.524 . S
C830 C831 1.415 . S
C831 H801 0.950 . S
C831 C826 1.363 . S
C831 C830 1.415 . S
H832 C829 0.999 . S
H833 C814 0.913 . S
H834 C852 0.951 . S
H835 C854 0.951 1_545 S
H836 C856 0.950 . S
H837 C857 0.950 . S
H838 C859 0.950 . S
H839 C862 0.950 . S
H840 C863 0.950 . S
H841 C865 0.950 . S
H842 C866 0.950 . S
H843 C867 0.951 . S
H844 C869 0.951 1_565 S
H845 C871 0.950 . S
H846 C872 0.950 . S
H847 C874 0.950 . S
H848 C877 0.950 . S
H849 C878 0.950 . S
H850 C880 0.950 . S
H851 C881 0.950 . S
C852 H834 0.951 . S
C852 C853 1.366 . S
C852 C854 1.388 . S
C853 C852 1.366 . S
C853 C857 1.385 . S
C854 H835 0.951 1_565 S
C854 C852 1.388 . S
C854 C855 1.366 . S
C855 C854 1.366 . S
C855 C856 1.414 . S
C855 C858 1.499 . S
C856 H836 0.950 . S
C856 C855 1.414 . S
C856 C857 1.374 . S
C857 H837 0.950 . S
C857 C853 1.385 . S
C857 C856 1.374 . S
C858 C855 1.499 . S
C858 C859 1.373 . S
C858 C860 1.389 1_565 S
C859 H838 0.950 . S
C859 C858 1.373 . S
C859 C875 1.377 1_455 S
C860 C858 1.389 1_545 S
C860 C861 1.524 . S
C860 C874 1.377 1_455 S
C861 C860 1.524 . S
C861 C862 1.397 1_545 S
C861 C866 1.363 . S
C862 H839 0.950 . S
C862 C861 1.397 1_565 S
C862 C863 1.334 . S
C863 H840 0.950 . S
C863 C862 1.334 . S
C863 C864 1.287 1_565 S
C864 C863 1.287 1_545 S
C864 C865 1.524 . S
C864 H883 0.913 . S
C865 H841 0.950 . S
C865 C864 1.524 . S
C865 C866 1.415 . S
C866 H842 0.950 . S
C866 C861 1.363 . S
C866 C865 1.415 . S
C867 H843 0.951 . S
C867 C868 1.366 . S
C867 C869 1.388 . S
C868 C867 1.366 . S
C868 C872 1.385 . S
C869 H844 0.951 1_545 S
C869 C867 1.388 . S
C869 C870 1.366 . S
C870 C869 1.366 . S
C870 C871 1.414 . S
C870 C873 1.499 . S
C871 H845 0.950 . S
C871 C870 1.414 . S
C871 C872 1.374 . S
C872 H846 0.950 . S
C872 C868 1.385 . S
C872 C871 1.374 . S
C873 C870 1.499 . S
C873 C874 1.373 . S
C873 C875 1.389 1_545 S
C874 H847 0.950 . S
C874 C860 1.377 1_655 S
C874 C873 1.373 . S
C875 C859 1.377 1_655 S
C875 C873 1.389 1_565 S
C875 C876 1.524 . S
C876 C875 1.524 . S
C876 C877 1.397 1_565 S
C876 C881 1.363 . S
C877 H848 0.950 . S
C877 C876 1.397 1_545 S
C877 C878 1.334 . S
C878 H849 0.950 . S
C878 C877 1.334 . S
C878 C879 1.287 1_545 S
C879 C878 1.287 1_565 S
C879 C880 1.524 . S
C879 H882 0.999 . S
C880 H850 0.950 . S
C880 C879 1.524 . S
C880 C881 1.415 . S
C881 H851 0.950 . S
C881 C876 1.363 . S
C881 C880 1.415 . S
H882 C879 0.999 . S
H883 C864 0.913 . S
H884 C902 0.951 . S
H885 C904 0.951 1_455 S
H886 C906 0.950 . S
H887 C907 0.950 . S
H888 C909 0.950 . S
H889 C912 0.950 . S
H890 C913 0.950 . S
H891 C915 0.950 . S
H892 C916 0.950 . S
H893 C917 0.951 . S
H894 C919 0.951 1_655 S
H895 C921 0.950 . S
H896 C922 0.950 . S
H897 C924 0.950 . S
H898 C927 0.950 . S
H899 C928 0.950 . S
H900 C930 0.950 . S
H901 C931 0.950 . S
C902 H884 0.951 . S
C902 C903 1.366 . S
C902 C904 1.388 . S
C903 C902 1.366 . S
C903 C907 1.385 . S
C904 H885 0.951 1_655 S
C904 C902 1.388 . S
C904 C905 1.366 . S
C905 C904 1.366 . S
C905 C906 1.414 . S
C905 C908 1.499 . S
C906 H886 0.950 . S
C906 C905 1.414 . S
C906 C907 1.374 . S
C907 H887 0.950 . S
C907 C903 1.385 . S
C907 C906 1.374 . S
C908 C905 1.499 . S
C908 C909 1.373 . S
C908 C910 1.389 1_655 S
C909 H888 0.950 . S
C909 C908 1.373 . S
C909 C925 1.377 1_545 S
C910 C908 1.389 1_455 S
C910 C911 1.524 . S
C910 C924 1.377 1_545 S
C911 C910 1.524 . S
C911 C912 1.397 1_455 S
C911 C916 1.363 . S
C912 H889 0.950 . S
C912 C911 1.397 1_655 S
C912 C913 1.334 . S
C913 H890 0.950 . S
C913 C912 1.334 . S
C913 C914 1.287 1_655 S
C914 C913 1.287 1_455 S
C914 C915 1.524 . S
C914 H933 0.913 . S
C915 H891 0.950 . S
C915 C914 1.524 . S
C915 C916 1.415 . S
C916 H892 0.950 . S
C916 C911 1.363 . S
C916 C915 1.415 . S
C917 H893 0.951 . S
C917 C918 1.366 . S
C917 C919 1.388 . S
C918 C917 1.366 . S
C918 C922 1.385 . S
C919 H894 0.951 1_455 S
C919 C917 1.388 . S
C919 C920 1.366 . S
C920 C919 1.366 . S
C920 C921 1.414 . S
C920 C923 1.499 . S
C921 H895 0.950 . S
C921 C920 1.414 . S
C921 C922 1.374 . S
C922 H896 0.950 . S
C922 C918 1.385 . S
C922 C921 1.374 . S
C923 C920 1.499 . S
C923 C924 1.373 . S
C923 C925 1.389 1_455 S
C924 H897 0.950 . S
C924 C910 1.377 1_565 S
C924 C923 1.373 . S
C925 C909 1.377 1_565 S
C925 C923 1.389 1_655 S
C925 C926 1.524 . S
C926 C925 1.524 . S
C926 C927 1.397 1_655 S
C926 C931 1.363 . S
C927 H898 0.950 . S
C927 C926 1.397 1_455 S
C927 C928 1.334 . S
C928 H899 0.950 . S
C928 C927 1.334 . S
C928 C929 1.287 1_455 S
C929 C928 1.287 1_655 S
C929 C930 1.524 . S
C929 H932 0.999 . S
C930 H900 0.950 . S
C930 C929 1.524 . S
C930 C931 1.415 . S
C931 H901 0.950 . S
C931 C926 1.363 . S
C931 C930 1.415 . S
H932 C929 0.999 . S
H933 C914 0.913 . S
H934 C952 0.951 . S
H935 C954 0.951 . S
H936 C956 0.950 . S
H937 C957 0.950 . S
H938 C959 0.950 . S
H939 C962 0.950 . S
H940 C963 0.950 . S
H941 C965 0.950 . S
H942 C966 0.950 1_565 S
H943 C967 0.951 . S
H944 C969 0.951 . S
H945 C971 0.950 . S
H946 C972 0.950 . S
H947 C974 0.950 . S
H948 C977 0.950 . S
H949 C978 0.950 . S
H950 C980 0.950 . S
H951 C981 0.950 1_545 S
C952 H934 0.951 . S
C952 C953 1.366 . S
C952 C954 1.388 . S
C953 C952 1.366 . S
C953 C957 1.385 . S
C954 H935 0.951 . S
C954 C952 1.388 . S
C954 C955 1.366 . S
C955 C954 1.366 . S
C955 C956 1.414 . S
C955 C958 1.499 . S
C956 H936 0.950 . S
C956 C955 1.414 . S
C956 C957 1.374 . S
C957 H937 0.950 . S
C957 C953 1.385 . S
C957 C956 1.374 . S
C958 C955 1.499 . S
C958 C959 1.373 . S
C958 C960 1.389 1_565 S
C959 H938 0.950 . S
C959 C958 1.373 . S
C959 C975 1.377 1_655 S
C960 C958 1.389 1_545 S
C960 C961 1.524 . S
C960 C974 1.377 1_655 S
C961 C960 1.524 . S
C961 C962 1.397 . S
C961 C966 1.363 . S
C962 H939 0.950 . S
C962 C961 1.397 . S
C962 C963 1.334 . S
C963 H940 0.950 . S
C963 C962 1.334 . S
C963 C964 1.287 . S
C964 C963 1.287 . S
C964 C965 1.524 . S
C964 H983 0.913 . S
C965 H941 0.950 . S
C965 C964 1.524 . S
C965 C966 1.415 . S
C966 H942 0.950 1_545 S
C966 C961 1.363 . S
C966 C965 1.415 . S
C967 H943 0.951 . S
C967 C968 1.366 . S
C967 C969 1.388 . S
C968 C967 1.366 . S
C968 C972 1.385 . S
C969 H944 0.951 . S
C969 C967 1.388 . S
C969 C970 1.366 . S
C970 C969 1.366 . S
C970 C971 1.414 . S
C970 C973 1.499 . S
C971 H945 0.950 . S
C971 C970 1.414 . S
C971 C972 1.374 . S
C972 H946 0.950 . S
C972 C968 1.385 . S
C972 C971 1.374 . S
C973 C970 1.499 . S
C973 C974 1.373 . S
C973 C975 1.389 1_545 S
C974 H947 0.950 . S
C974 C960 1.377 1_455 S
C974 C973 1.373 . S
C975 C959 1.377 1_455 S
C975 C973 1.389 1_565 S
C975 C976 1.524 . S
C976 C975 1.524 . S
C976 C977 1.397 . S
C976 C981 1.363 . S
C977 H948 0.950 . S
C977 C976 1.397 . S
C977 C978 1.334 . S
C978 H949 0.950 . S
C978 C977 1.334 . S
C978 C979 1.287 . S
C979 C978 1.287 . S
C979 C980 1.524 . S
C979 H982 0.999 . S
C980 H950 0.950 . S
C980 C979 1.524 . S
C980 C981 1.415 . S
C981 H951 0.950 1_565 S
C981 C976 1.363 . S
C981 C980 1.415 . S
H982 C979 0.999 . S
H983 C964 0.913 . S
C203 N12 1.694 . S
C218 N58 1.695 . S
C253 N81 1.695 . S
C268 N35 1.695 . S
C303 N150 1.695 . S
C318 N104 1.694 . S
C353 N127 1.694 . S
C368 N173 1.695 . S
C403 C145 1.672 . S
C418 C7 1.672 . S
C453 C30 1.672 . S
C468 C168 1.672 . S
C503 C53 1.672 . S
C518 C99 1.672 . S
C553 C122 1.672 . S
C568 C76 1.672 . S
C603 C16 1.681 . S
C618 C131 1.681 . S
C653 C154 1.680 . S
C668 C39 1.680 . S
C703 C177 1.681 . S
C718 C62 1.681 . S
C753 C85 1.681 . S
C768 C108 1.680 . S
C803 N2 1.332 . S
C818 N48 1.332 . S
C853 N71 1.332 . S
C868 N25 1.332 . S
C903 N140 1.332 . S
C918 N94 1.332 . S
C953 N163 1.333 . S
C968 N117 1.332 . S
