# Generated by pormake.
# Topology can, (4)-cn, num edge types: 1
# Building blocks:
#     Node 0, Type 0, BuildingBlock: KUFVIS_clean_sbu_0, # of connection points: 4
#     Node 1, Type 0, BuildingBlock: KUFVIS_clean_sbu_0, # of connection points: 4
#     Node 2, Type 0, BuildingBlock: KUFVIS_clean_sbu_0, # of connection points: 4
#     Node 3, Type 0, BuildingBlock: KUFVIS_clean_sbu_0, # of connection points: 4
#     Node 4, Type 0, BuildingBlock: KUFVIS_clean_sbu_0, # of connection points: 4
#     Node 5, Type 0, BuildingBlock: KUFVIS_clean_sbu_0, # of connection points: 4
#     Node 6, Type 0, BuildingBlock: KUFVIS_clean_sbu_0, # of connection points: 4
#     Node 7, Type 0, BuildingBlock: KUFVIS_clean_sbu_0, # of connection points: 4
#     Node 8, Type 0, BuildingBlock: KUFVIS_clean_sbu_0, # of connection points: 4
#     Node 9, Type 0, BuildingBlock: KUFVIS_clean_sbu_0, # of connection points: 4
#     Node 10, Type 0, BuildingBlock: KUFVIS_clean_sbu_0, # of connection points: 4
#     Node 11, Type 0, BuildingBlock: KUFVIS_clean_sbu_0, # of connection points: 4
#     Edge 12, Type (0, 0), BuildingBlock: OJICUG_clean_linker_0, # of connection points: 2
#     Edge 13, Type (0, 0), BuildingBlock: OJICUG_clean_linker_0, # of connection points: 2
#     Edge 14, Type (0, 0), BuildingBlock: OJICUG_clean_linker_0, # of connection points: 2
#     Edge 15, Type (0, 0), BuildingBlock: OJICUG_clean_linker_0, # of connection points: 2
#     Edge 16, Type (0, 0), BuildingBlock: OJICUG_clean_linker_0, # of connection points: 2
#     Edge 17, Type (0, 0), BuildingBlock: OJICUG_clean_linker_0, # of connection points: 2
#     Edge 18, Type (0, 0), BuildingBlock: OJICUG_clean_linker_0, # of connection points: 2
#     Edge 19, Type (0, 0), BuildingBlock: OJICUG_clean_linker_0, # of connection points: 2
#     Edge 20, Type (0, 0), BuildingBlock: OJICUG_clean_linker_0, # of connection points: 2
#     Edge 21, Type (0, 0), BuildingBlock: OJICUG_clean_linker_0, # of connection points: 2
#     Edge 22, Type (0, 0), BuildingBlock: OJICUG_clean_linker_0, # of connection points: 2
#     Edge 23, Type (0, 0), BuildingBlock: OJICUG_clean_linker_0, # of connection points: 2
#     Edge 24, Type (0, 0), BuildingBlock: OJICUG_clean_linker_0, # of connection points: 2
#     Edge 25, Type (0, 0), BuildingBlock: OJICUG_clean_linker_0, # of connection points: 2
#     Edge 26, Type (0, 0), BuildingBlock: OJICUG_clean_linker_0, # of connection points: 2
#     Edge 27, Type (0, 0), BuildingBlock: OJICUG_clean_linker_0, # of connection points: 2
#     Edge 28, Type (0, 0), BuildingBlock: OJICUG_clean_linker_0, # of connection points: 2
#     Edge 29, Type (0, 0), BuildingBlock: OJICUG_clean_linker_0, # of connection points: 2
#     Edge 30, Type (0, 0), BuildingBlock: OJICUG_clean_linker_0, # of connection points: 2
#     Edge 31, Type (0, 0), BuildingBlock: OJICUG_clean_linker_0, # of connection points: 2
#     Edge 32, Type (0, 0), BuildingBlock: OJICUG_clean_linker_0, # of connection points: 2
#     Edge 33, Type (0, 0), BuildingBlock: OJICUG_clean_linker_0, # of connection points: 2
#     Edge 34, Type (0, 0), BuildingBlock: OJICUG_clean_linker_0, # of connection points: 2
#     Edge 35, Type (0, 0), BuildingBlock: OJICUG_clean_linker_0, # of connection points: 2
# Relax obj value: 0.069
# Max RMSD: 0.070
# Mean RMSD: 0.064
data_MOF--net-can--node1-KUFVIS_clean_sbu_0--edge1-OJICUG_clean_linker_0
_symmetry_space_group_name_H-M    P1
_symmetry_Int_Tables_number       1
_symmetry_cell_setting            triclinic
loop_
_symmetry_equiv_pos_as_xyz
'x, y, z'
_cell_length_a     39.602205
_cell_length_b     40.151459
_cell_length_c     19.507918
_cell_angle_alpha  89.991335
_cell_angle_beta   90.019322
_cell_angle_gamma 119.55311
loop_
_atom_site_label
_atom_site_type_symbol
_atom_site_fract_x
_atom_site_fract_y
_atom_site_fract_z
_atom_type_partial_charge
Mn0 Mn 0.06883 0.40799 0.26325 0.0
Mn1 Mn 0.13904 0.475 0.3638 0.0
C2 C 0.07078 0.46577 0.2828 0.0
C3 C 0.04466 0.3797 0.15698 0.0
C4 C 0.06816 0.40539 0.42066 0.0
O5 O 0.10944 0.39092 0.26424 0.0
O6 O 0.15407 0.43684 0.33268 0.0
C7 C 0.20163 0.5112 0.26032 0.0
N8 N 0.17807 0.51419 0.30786 0.0
C9 C 0.20876 0.58238 0.29161 0.0
C10 C 0.23343 0.58003 0.24265 0.0
C11 C 0.22983 0.54428 0.22695 0.0
C12 C 0.1814 0.54848 0.32357 0.0
H13 H 0.19905 0.48382 0.24805 0.0
C14 C 0.14204 0.40683 0.29533 0.0
O15 O 0.03066 0.36093 0.21363 0.0
O16 O 0.07365 0.41429 0.16207 0.0
N17 N 0.12907 0.51424 0.39682 0.0
C18 C 0.10197 0.51142 0.44302 0.0
C19 C 0.10109 0.54456 0.46312 0.0
C20 C 0.12825 0.58028 0.436 0.0
C21 C 0.15609 0.58254 0.38903 0.0
C22 C 0.15566 0.54855 0.3711 0.0
H23 H 0.08085 0.48404 0.46366 0.0
O24 O 0.03865 0.43564 0.26513 0.0
O25 O 0.1011 0.46137 0.28899 0.0
O26 O 0.05318 0.39038 0.36298 0.0
O27 O 0.10009 0.43681 0.4263 0.0
C28 C 0.18368 0.61706 0.35809 0.0
C29 C 0.20998 0.61698 0.30941 0.0
H30 H 0.25511 0.60546 0.2166 0.0
H31 H 0.24877 0.54223 0.18925 0.0
H32 H 0.0794 0.54255 0.49917 0.0
H33 H 0.12722 0.60573 0.4511 0.0
H34 H 0.18459 0.64376 0.37073 0.0
H35 H 0.2308 0.64365 0.2855 0.0
Mn36 Mn 0.67418 0.06922 0.74143 0.0
Mn37 Mn 0.73122 0.02913 0.7515 0.0
C38 C 0.69092 0.04857 0.64109 0.0
C39 C 0.61364 0.06576 0.749 0.0
C40 C 0.76166 0.11469 0.76514 0.0
O41 O 0.6715 0.05536 0.84347 0.0
O42 O 0.70376 0.02245 0.83878 0.0
C43 C 0.67118 0.94756 0.76506 0.0
N44 N 0.70304 0.97558 0.73284 0.0
C45 C 0.71203 0.92942 0.66885 0.0
C46 C 0.6791 0.89993 0.70081 0.0
C47 C 0.65833 0.90907 0.74857 0.0
C48 C 0.72221 0.96718 0.68479 0.0
H49 H 0.65604 0.95459 0.80346 0.0
C50 C 0.68364 0.03431 0.87087 0.0
O51 O 0.6458 0.09737 0.75936 0.0
O52 O 0.61644 0.03569 0.73368 0.0
N53 N 0.76047 0.03311 0.67146 0.0
C54 C 0.7922 0.06503 0.64728 0.0
C55 C 0.81904 0.06113 0.60632 0.0
C56 C 0.81291 0.0245 0.59058 0.0
C57 C 0.77871 0.99201 0.61188 0.0
C58 C 0.75342 0.99769 0.65388 0.0
H59 H 0.79821 0.09329 0.66219 0.0
O60 O 0.6792 0.07361 0.63905 0.0
O61 O 0.69172 0.0357 0.70187 0.0
O62 O 0.72978 0.11379 0.75171 0.0
O63 O 0.76433 0.08442 0.77073 0.0
C64 C 0.76988 0.95421 0.5968 0.0
C65 C 0.73595 0.92293 0.62367 0.0
H66 H 0.6698 0.8702 0.68974 0.0
H67 H 0.63304 0.88649 0.77378 0.0
H68 H 0.84524 0.08629 0.58946 0.0
H69 H 0.83536 0.02188 0.56394 0.0
H70 H 0.78909 0.94886 0.56497 0.0
H71 H 0.72926 0.89403 0.61116 0.0
Mn72 Mn 0.60754 0.67183 0.23047 0.0
Mn73 Mn 0.7052 0.72311 0.22398 0.0
C74 C 0.63923 0.68382 0.12634 0.0
C75 C 0.5511 0.61258 0.24143 0.0
C76 C 0.65401 0.75912 0.24548 0.0
O77 O 0.62363 0.66939 0.32843 0.0
O78 O 0.68895 0.70128 0.31806 0.0
C79 C 0.72314 0.66026 0.24284 0.0
N80 N 0.72549 0.68966 0.2044 0.0
C81 C 0.76056 0.67797 0.11563 0.0
C82 C 0.75877 0.64778 0.15454 0.0
C83 C 0.73995 0.63888 0.2184 0.0
C84 C 0.74363 0.69854 0.14295 0.0
H85 H 0.70842 0.65304 0.29167 0.0
C86 C 0.6577 0.6818 0.35267 0.0
O87 O 0.55126 0.64426 0.25596 0.0
O88 O 0.58369 0.61543 0.22196 0.0
N89 N 0.72428 0.74455 0.13519 0.0
C90 C 0.72149 0.77301 0.10215 0.0
C91 C 0.73788 0.78459 0.03669 0.0
C92 C 0.75693 0.76682 1.00583 0.0
C93 C 0.75957 0.7377 0.04088 0.0
C94 C 0.74309 0.72766 0.10639 0.0
H95 H 0.70659 0.78657 0.12526 0.0
O96 O 0.60314 0.67551 0.12893 0.0
O97 O 0.65548 0.6852 0.18485 0.0
O98 O 0.62149 0.7281 0.2421 0.0
O99 O 0.68671 0.76003 0.24179 0.0
C100 C 0.77721 0.71772 0.0128 0.0
C101 C 0.77771 0.68788 0.05014 0.0
H102 H 0.7714 0.63099 0.1356 0.0
H103 H 0.73824 0.61547 0.24855 0.0
H104 H 0.7356 0.807 1.00986 0.0
H105 H 0.76915 0.77554 0.955 0.0
H106 H 0.79006 0.72476 0.96215 0.0
H107 H 0.79093 0.67241 0.02762 0.0
Mn108 Mn 0.95719 0.6122 0.76251 0.0
Mn109 Mn 0.88716 0.54502 0.86304 0.0
C110 C 0.95536 0.55446 0.78173 0.0
C111 C 0.98128 0.64064 0.65631 0.0
C112 C 0.95807 0.61456 0.91998 0.0
O113 O 0.91652 0.62916 0.76364 0.0
O114 O 0.87218 0.58335 0.83256 0.0
C115 C 0.82437 0.50922 0.75973 0.0
N116 N 0.84796 0.50603 0.807 0.0
C117 C 0.81695 0.43784 0.79038 0.0
C118 C 0.79226 0.4404 0.74171 0.0
C119 C 0.796 0.47625 0.72632 0.0
C120 C 0.84449 0.47164 0.8224 0.0
H121 H 0.82706 0.53667 0.7477 0.0
C122 C 0.88405 0.6133 0.79509 0.0
O123 O 0.99528 0.65935 0.71303 0.0
O124 O 0.95236 0.60601 0.6613 0.0
N125 N 0.89702 0.5056 0.89543 0.0
C126 C 0.92423 0.50822 0.94122 0.0
C127 C 0.92497 0.47495 0.96098 0.0
C128 C 0.89759 0.43931 0.93389 0.0
C129 C 0.86968 0.43726 0.88725 0.0
C130 C 0.87025 0.47137 0.86967 0.0
H131 H 0.94559 0.53554 0.96168 0.0
O132 O 0.98746 0.58465 0.76419 0.0
O133 O 0.92499 0.55877 0.78805 0.0
O134 O 0.97284 0.62975 0.86231 0.0
O135 O 0.92628 0.583 0.92566 0.0
C136 C 0.84191 0.40284 0.85627 0.0
C137 C 0.81558 0.40314 0.80786 0.0
H138 H 0.77043 0.41506 0.71564 0.0
H139 H 0.77704 0.47846 0.68885 0.0
H140 H 0.94675 0.47681 0.9967 0.0
H141 H 0.89851 0.41377 0.94871 0.0
H142 H 0.84088 0.37606 0.86865 0.0
H143 H 0.79461 0.37654 0.78391 0.0
Mn144 Mn 0.35191 0.95106 0.24128 0.0
Mn145 Mn 0.29477 0.99105 0.25098 0.0
C146 C 0.33513 0.97159 0.14078 0.0
C147 C 0.41249 0.9546 0.24902 0.0
C148 C 0.26447 0.90554 0.26507 0.0
O149 O 0.35456 0.96504 0.34329 0.0
O150 O 0.32238 0.99801 0.3382 0.0
C151 C 0.35463 0.07272 0.26401 0.0
N152 N 0.32279 0.04456 0.23195 0.0
C153 C 0.31344 0.09047 0.16782 0.0
C154 C 0.34636 0.1201 0.19959 0.0
C155 C 0.3673 0.11115 0.24734 0.0
C156 C 0.30346 0.05277 0.18392 0.0
H157 H 0.36989 0.06583 0.30242 0.0
C158 C 0.34249 0.98619 0.37048 0.0
O159 O 0.38036 0.92299 0.25944 0.0
O160 O 0.40966 0.98464 0.23357 0.0
N161 N 0.26539 0.9868 0.17094 0.0
C162 C 0.23371 0.95477 0.14691 0.0
C163 C 0.20673 0.95846 0.10597 0.0
C164 C 0.21266 0.99501 0.0901 0.0
C165 C 0.24682 0.02763 0.11124 0.0
C166 C 0.27226 0.02214 0.1532 0.0
H167 H 0.22785 0.92657 0.16194 0.0
O168 O 0.3469 0.94659 0.13889 0.0
O169 O 0.3343 0.98449 0.20149 0.0
O170 O 0.29634 0.90645 0.25156 0.0
O171 O 0.26178 0.93579 0.27061 0.0
C172 C 0.25544 0.06535 0.09603 0.0
C173 C 0.28935 0.09676 0.1227 0.0
H174 H 0.35552 0.14978 0.18839 0.0
H175 H 0.39258 0.13384 0.27242 0.0
H176 H 0.18058 0.93321 0.08921 0.0
H177 H 0.19011 0.99748 0.06346 0.0
H178 H 0.2361 0.07055 0.06426 0.0
H179 H 0.29588 0.12561 0.11008 0.0
Mn180 Mn 0.41848 0.34836 0.73042 0.0
Mn181 Mn 0.32085 0.29708 0.72283 0.0
C182 C 0.38712 0.33659 0.62592 0.0
C183 C 0.47483 0.40763 0.7421 0.0
C184 C 0.37203 0.26109 0.74508 0.0
O185 O 0.40206 0.35048 0.82829 0.0
O186 O 0.33678 0.31897 0.81693 0.0
C187 C 0.30268 0.35982 0.74087 0.0
N188 N 0.30053 0.33044 0.70263 0.0
C189 C 0.26566 0.342 0.61324 0.0
C190 C 0.26725 0.37217 0.65193 0.0
C191 C 0.28586 0.38111 0.71599 0.0
C192 C 0.28258 0.32151 0.64099 0.0
H193 H 0.31722 0.36707 0.78987 0.0
C194 C 0.36791 0.33821 0.85201 0.0
O195 O 0.47469 0.37595 0.75651 0.0
O196 O 0.44228 0.40478 0.72237 0.0
N197 N 0.3021 0.2756 0.63392 0.0
C198 C 0.30507 0.24717 0.60117 0.0
C199 C 0.28888 0.23553 0.53556 0.0
C200 C 0.26986 0.25322 0.50428 0.0
C201 C 0.26704 0.28231 0.53904 0.0
C202 C 0.28331 0.2924 0.60469 0.0
H203 H 0.31994 0.23367 0.62461 0.0
O204 O 0.42322 0.34497 0.62887 0.0
O205 O 0.37068 0.33504 0.68428 0.0
O206 O 0.40457 0.2921 0.74171 0.0
O207 O 0.33934 0.2602 0.74127 0.0
C208 C 0.2494 0.30221 0.51052 0.0
C209 C 0.24871 0.33203 0.54759 0.0
H210 H 0.25462 0.38889 0.63265 0.0
H211 H 0.28742 0.40451 0.74598 0.0
H212 H 0.2913 0.21315 0.50896 0.0
H213 H 0.2578 0.24446 0.45334 0.0
H214 H 0.23671 0.29513 0.45974 0.0
H215 H 0.23551 0.34743 0.52475 0.0
Mn216 Mn 0.61521 0.95102 0.28344 0.0
Mn217 Mn 0.71233 0.99099 0.27387 0.0
C218 C 0.65246 0.97148 0.38401 0.0
C219 C 0.55817 0.95458 0.27566 0.0
C220 C 0.65709 0.90549 0.25956 0.0
O221 O 0.62659 0.96506 0.18146 0.0
O222 O 0.69174 0.99807 0.1867 0.0
C223 C 0.73424 0.07269 0.26111 0.0
N224 N 0.73787 0.04448 0.29308 0.0
C225 C 0.79316 0.09029 0.35728 0.0
C226 C 0.78992 0.11997 0.32562 0.0
C227 C 0.76004 0.1111 0.27788 0.0
C228 C 0.7654 0.05262 0.3411 0.0
H229 H 0.71211 0.06586 0.2227 0.0
C230 C 0.65982 0.98627 0.15436 0.0
O231 O 0.55869 0.92297 0.26519 0.0
O232 O 0.59105 0.9846 0.29118 0.0
N233 N 0.73741 0.98663 0.35389 0.0
C234 C 0.737 0.95455 0.37783 0.0
C235 C 0.76765 0.95817 0.41876 0.0
C236 C 0.7983 0.99469 0.4347 0.0
C237 C 0.79683 0.02735 0.41364 0.0
C238 C 0.76592 0.02194 0.37171 0.0
H239 H 0.71462 0.92638 0.36275 0.0
O240 O 0.61569 0.94649 0.38583 0.0
O241 O 0.66624 0.98442 0.32333 0.0
O242 O 0.62613 0.9064 0.27311 0.0
O243 O 0.69004 0.93575 0.25404 0.0
C244 C 0.82598 0.06504 0.42891 0.0
C245 C 0.82354 0.0965 0.40236 0.0
H246 H 0.81048 0.14963 0.33689 0.0
H247 H 0.7575 0.13382 0.25288 0.0
H248 H 0.76849 0.93289 0.43545 0.0
H249 H 0.8233 0.99709 0.46134 0.0
H250 H 0.85052 0.07019 0.46066 0.0
H251 H 0.84588 0.12533 0.41504 0.0
Mn252 Mn 0.67104 0.61217 0.76229 0.0
Mn253 Mn 0.67383 0.54498 0.66172 0.0
C254 C 0.61509 0.55443 0.74309 0.0
C255 C 0.67541 0.64061 0.86849 0.0
C256 C 0.67243 0.6145 0.6048 0.0
O257 O 0.72867 0.62912 0.76113 0.0
O258 O 0.72716 0.58335 0.69207 0.0
C259 C 0.70094 0.50926 0.76499 0.0
N260 N 0.67412 0.50603 0.71777 0.0
C261 C 0.63701 0.43784 0.73445 0.0
C262 C 0.66431 0.44045 0.78306 0.0
C263 C 0.6964 0.47632 0.79839 0.0
C264 C 0.64322 0.47162 0.70243 0.0
H265 H 0.72569 0.53673 0.77696 0.0
C266 C 0.74525 0.61328 0.72958 0.0
O267 O 0.68012 0.65932 0.81178 0.0
O268 O 0.66969 0.60598 0.8635 0.0
N269 N 0.62453 0.5055 0.62945 0.0
C270 C 0.59988 0.50808 0.58374 0.0
C271 C 0.56588 0.47478 0.56404 0.0
C272 C 0.55769 0.43916 0.59112 0.0
C273 C 0.58361 0.43716 0.6377 0.0
C274 C 0.61713 0.47129 0.65522 0.0
H275 H 0.60579 0.53538 0.56332 0.0
O276 O 0.61321 0.58463 0.76063 0.0
O277 O 0.64977 0.55873 0.73675 0.0
O278 O 0.67294 0.62972 0.66248 0.0
O279 O 0.6726 0.58291 0.5991 0.0
C280 C 0.57702 0.40276 0.66868 0.0
C281 C 0.60369 0.40311 0.71704 0.0
H282 H 0.66084 0.41513 0.80914 0.0
H283 H 0.71761 0.47857 0.83582 0.0
H284 H 0.54591 0.4766 0.52839 0.0
H285 H 0.53123 0.41359 0.57636 0.0
H286 H 0.55127 0.37596 0.65635 0.0
H287 H 0.59811 0.37653 0.74099 0.0
Mn288 Mn 0.08034 0.67189 0.2943 0.0
Mn289 Mn 0.03397 0.72317 0.30089 0.0
C290 C 0.06068 0.68389 0.39847 0.0
C291 C 0.07749 0.61263 0.28335 0.0
C292 C 0.12116 0.75916 0.27922 0.0
O293 O 0.06177 0.66945 0.19635 0.0
O294 O 0.0283 0.70129 0.20683 0.0
C295 C 0.95314 0.66033 0.28224 0.0
N296 N 0.98024 0.68974 0.32062 0.0
C297 C 0.93355 0.6781 0.40952 0.0
C298 C 0.90511 0.64789 0.37067 0.0
C299 C 0.91497 0.63897 0.30678 0.0
C300 C 0.97103 0.69865 0.38209 0.0
H301 H 0.9606 0.65309 0.23338 0.0
C302 C 0.04007 0.68183 0.17217 0.0
O303 O 0.10901 0.64429 0.26877 0.0
O304 O 0.04777 0.61549 0.30284 0.0
N305 N 0.03642 0.74464 0.38968 0.0
C306 C 0.0677 0.77311 0.42264 0.0
C307 C 0.06296 0.78472 0.48813 0.0
C308 C 0.02616 0.76697 0.51908 0.0
C309 C 0.99437 0.73784 0.4841 0.0
C310 C 1.00074 0.72778 0.41858 0.0
H311 H 0.09614 0.78665 0.39946 0.0
O312 O 0.08845 0.67557 0.39583 0.0
O313 O 0.04578 0.68526 0.33997 0.0
O314 O 0.12266 0.72815 0.28263 0.0
O315 O 0.08937 0.76007 0.28293 0.0
C316 C 0.95676 0.71789 0.51229 0.0
C317 C 0.92638 0.68804 0.47503 0.0
H318 H 0.87571 0.63113 0.3897 0.0
H319 H 0.89324 0.61555 0.27668 0.0
H320 H 0.08767 0.80713 0.51489 0.0
H321 H 0.02272 0.77571 0.56993 0.0
H322 H 0.951 0.72495 0.56295 0.0
H323 H 0.89771 0.67258 0.49762 0.0
Mn324 Mn 0.41093 0.06926 0.7833 0.0
Mn325 Mn 0.3138 0.02918 0.77336 0.0
C326 C 0.37359 0.04867 0.8837 0.0
C327 C 0.46799 0.06578 0.77568 0.0
C328 C 0.36893 0.11471 0.75949 0.0
O329 O 0.39968 0.05533 0.68128 0.0
O330 O 0.33452 0.02237 0.68613 0.0
C331 C 0.29217 0.94757 0.76009 0.0
N332 N 0.28839 0.97564 0.79221 0.0
C333 C 0.23321 0.92959 0.85627 0.0
C334 C 0.23659 0.90004 0.82442 0.0
C335 C 0.2665 0.90911 0.77667 0.0
C336 C 0.26084 0.96732 0.84024 0.0
H337 H 0.31433 0.95454 0.72169 0.0
C338 C 0.36648 0.03421 0.65397 0.0
O339 O 0.46746 0.09739 0.76527 0.0
O340 O 0.43513 0.03572 0.79107 0.0
N341 N 0.28858 0.03327 0.85338 0.0
C342 C 0.28883 0.06523 0.87747 0.0
C343 C 0.25811 0.06141 0.9184 0.0
C344 C 0.22757 0.02481 0.93421 0.0
C345 C 0.22922 0.99227 0.91301 0.0
C346 C 0.26018 0.99788 0.87104 0.0
H347 H 0.31111 0.09347 0.86249 0.0
O348 O 0.41035 0.0737 0.88567 0.0
O349 O 0.35988 0.03577 0.82296 0.0
O350 O 0.39992 0.11383 0.77297 0.0
O351 O 0.336 0.08445 0.75393 0.0
C352 C 0.20021 0.95451 0.92816 0.0
C353 C 0.20281 0.92317 0.90141 0.0
H354 H 0.21613 0.87033 0.83557 0.0
H355 H 0.26916 0.88648 0.75154 0.0
H356 H 0.25712 0.08661 0.93519 0.0
H357 H 0.20252 0.02225 0.96085 0.0
H358 H 0.17565 0.94921 0.95996 0.0
H359 H 0.18056 0.89429 0.91398 0.0
Mn360 Mn 0.35503 0.40799 0.26161 0.0
Mn361 Mn 0.35193 0.47504 0.16102 0.0
C362 C 0.41089 0.46575 0.24212 0.0
C363 C 0.35085 0.37968 0.36788 0.0
C364 C 0.35321 0.40543 0.10419 0.0
O365 O 0.29735 0.39094 0.26055 0.0
O366 O 0.29871 0.43683 0.19196 0.0
C367 C 0.3254 0.51114 0.26444 0.0
N368 N 0.35201 0.51418 0.21696 0.0
C369 C 0.38944 0.58237 0.2333 0.0
C370 C 0.36237 0.57997 0.28219 0.0
C371 C 0.33022 0.54419 0.29781 0.0
C372 C 0.38296 0.54849 0.20133 0.0
H373 H 0.30061 0.48374 0.27665 0.0
C374 C 0.2807 0.40684 0.22934 0.0
O375 O 0.34609 0.36092 0.31122 0.0
O376 O 0.35649 0.41428 0.36279 0.0
N377 N 0.40117 0.51432 0.12816 0.0
C378 C 0.42552 0.51154 0.08206 0.0
C379 C 0.45954 0.54472 0.06204 0.0
C380 C 0.46803 0.58042 0.08915 0.0
C381 C 0.44238 0.58263 0.13603 0.0
C382 C 0.40882 0.54861 0.15388 0.0
H383 H 0.41933 0.48417 0.06148 0.0
O384 O 0.41286 0.43561 0.25979 0.0
O385 O 0.37618 0.46138 0.23588 0.0
O386 O 0.35308 0.39038 0.16187 0.0
O387 O 0.35278 0.43689 0.09851 0.0
C388 C 0.44925 0.61713 0.16697 0.0
C389 C 0.42281 0.61699 0.21558 0.0
H390 H 0.36606 0.60538 0.30824 0.0
H391 H 0.30919 0.5421 0.33545 0.0
H392 H 0.47928 0.54274 0.02608 0.0
H393 H 0.49451 0.60589 0.07412 0.0
H394 H 0.47503 0.64385 0.15439 0.0
H395 H 0.4286 0.64364 0.2395 0.0
Mn396 Mn 0.94577 0.34834 0.79434 0.0
Mn397 Mn 0.9921 0.29705 0.80215 0.0
C398 C 0.96531 0.33659 0.89892 0.0
C399 C 0.94873 0.40763 0.7826 0.0
C400 C 0.90494 0.26108 0.77964 0.0
O401 O 0.96435 0.35042 0.69649 0.0
O402 O 0.99819 0.319 0.70808 0.0
C403 C 0.07306 0.35976 0.78444 0.0
N404 N 0.04576 0.33038 0.82258 0.0
C405 C 0.09206 0.34186 0.91217 0.0
C406 C 0.12071 0.37204 0.8736 0.0
C407 C 0.11114 0.38103 0.80948 0.0
C408 C 0.05469 0.32141 0.88426 0.0
H409 H 0.06584 0.36704 0.73539 0.0
C410 C 0.98629 0.33819 0.6729 0.0
O411 O 0.91719 0.37595 0.76815 0.0
O412 O 0.97841 0.40475 0.80238 0.0
N413 N 0.98923 0.27553 0.89106 0.0
C414 C 0.95778 0.2471 0.9237 0.0
C415 C 0.96222 0.23542 0.98934 0.0
C416 C 0.9989 0.25308 0.02078 0.0
C417 C 0.03087 0.28217 0.98614 0.0
C418 C 0.02479 0.2923 0.92045 0.0
H419 H 0.92943 0.23362 0.90014 0.0
O420 O 0.9376 0.34498 0.89589 0.0
O421 O 0.98022 0.33502 0.8406 0.0
O422 O 0.9034 0.29208 0.78306 0.0
O423 O 0.93675 0.2602 0.78348 0.0
C424 C 0.06836 0.30203 0.01482 0.0
C425 C 0.09894 0.33186 0.97787 0.0
H426 H 0.15004 0.38874 0.893 0.0
H427 H 0.13303 0.40443 0.77957 0.0
H428 H 0.93737 0.21304 0.01585 0.0
H429 H 1.00211 0.24429 0.07174 0.0
H430 H 0.0739 0.29492 0.06562 0.0
H431 H 0.12752 0.34724 1.00083 0.0
C432 C 0.98716 0.33449 0.08677 0.0
C433 C 0.02594 0.36425 0.09011 0.0
H434 H 0.9371 0.30254 0.02272 0.0
C435 C 0.04526 0.3821 0.0292 0.0
H436 H 0.97143 0.32046 0.133 0.0
C437 C 0.02577 0.37151 0.96655 0.0
C438 C 0.98668 0.34282 0.96354 0.0
H439 H 0.07509 0.40514 0.03017 0.0
H440 H 0.04085 0.38684 0.92066 0.0
C441 C 0.96747 0.3243 0.02397 0.0
C442 C 0.66312 0.97004 0.51005 0.0
C443 C 0.67246 0.99089 0.44845 0.0
H444 H 0.66117 0.97198 0.61954 0.0
C445 C 0.69357 0.03107 0.45175 0.0
H446 H 0.64602 0.93908 0.50922 0.0
C447 C 0.70319 0.04995 0.51518 0.0
C448 C 0.69153 0.02911 0.57676 0.0
H449 H 0.69946 0.04802 0.40568 0.0
H450 H 0.71716 0.08092 0.51599 0.0
C451 C 0.67234 0.98893 0.57348 0.0
C452 C 0.65388 0.69621 1.00139 0.0
C453 C 0.65453 0.67767 0.06185 0.0
H454 H 0.66164 0.69999 0.89236 0.0
C455 C 0.66492 0.64898 0.05892 0.0
H456 H 0.64528 0.71797 1.00258 0.0
C457 C 0.6738 0.63836 0.99629 0.0
C458 C 0.6723 0.65617 0.93533 0.0
H459 H 0.66465 0.63364 0.10482 0.0
H460 H 0.68054 0.61529 0.99537 0.0
C461 C 0.66334 0.68597 0.93863 0.0
C462 C 0.05842 0.69625 0.52342 0.0
C463 C 0.03924 0.67772 0.46296 0.0
H464 H 0.05444 0.70002 0.63246 0.0
C465 C 1.00014 0.64902 0.46589 0.0
H466 H 0.08878 0.71801 0.52224 0.0
C467 C 0.98065 0.63839 0.52852 0.0
C468 C 0.99996 0.6562 0.58948 0.0
H469 H 0.98509 0.63368 0.41998 0.0
H470 H 0.95084 0.61531 0.52944 0.0
C471 C 0.03872 0.68601 0.58619 0.0
C472 C 0.36281 0.05006 1.00966 0.0
C473 C 0.35356 0.02921 0.94807 0.0
H474 H 0.36471 0.04813 0.11915 0.0
C475 C 0.33255 0.98904 0.95135 0.0
H476 H 0.37983 0.08103 1.00884 0.0
C477 C 0.32294 0.97015 0.01479 0.0
C478 C 0.33451 0.991 0.07638 0.0
H479 H 0.32673 0.97209 0.90529 0.0
H480 H 0.30905 0.93919 0.0156 0.0
C481 C 0.35359 0.03118 0.07309 0.0
C482 C 0.36312 0.33446 0.4381 0.0
C483 C 0.3541 0.36422 0.43475 0.0
H484 H 0.38123 0.30252 0.50214 0.0
C485 C 0.35263 0.38207 0.49566 0.0
H486 H 0.36481 0.32043 0.39186 0.0
C487 C 0.36153 0.37149 0.55832 0.0
C488 C 0.37194 0.3428 0.56132 0.0
H489 H 0.34584 0.40511 0.4947 0.0
H490 H 0.36179 0.38682 0.60421 0.0
C491 C 0.37262 0.32427 0.50089 0.0
C492 C 1.0089 0.6717 0.98577 0.0
C493 C 0.97955 0.63296 0.984 0.0
H494 H 0.05105 0.71813 0.04775 0.0
C495 C 0.97115 0.61114 0.04442 0.0
H496 H 0.01599 0.68932 0.94022 0.0
C497 C 0.99181 0.62727 0.10454 0.0
C498 C 0.02073 0.66581 0.1064 0.0
H499 H 0.94877 0.58134 0.0454 0.0
H500 H 0.98471 0.60969 0.15022 0.0
C501 C 0.029 0.68818 0.04695 0.0
C502 C 0.32295 1.00408 0.47844 0.0
C503 C 0.34994 0.99723 0.44362 0.0
H504 H 0.30755 0.02159 0.57038 0.0
C505 C 0.38378 1.00343 0.47821 0.0
H506 H 0.29652 0.99953 0.45362 0.0
C507 C 0.39043 0.01674 0.54645 0.0
C508 C 0.36295 0.02326 0.5808 0.0
H509 H 0.40522 0.99869 0.45228 0.0
H510 H 0.41647 0.02119 0.57259 0.0
C511 C 0.3293 0.01677 0.54573 0.0
C512 C 0.37259 0.39231 0.91889 0.0
C513 C 0.36443 0.3542 0.91765 0.0
H514 H 0.37453 0.43791 0.97768 0.0
C515 C 0.35184 0.33222 0.97776 0.0
H516 H 0.38198 0.40958 0.87274 0.0
C517 C 0.34818 0.34867 0.03893 0.0
C518 C 0.35616 0.38699 0.04013 0.0
H519 H 0.34512 0.3026 0.97746 0.0
H520 H 0.33882 0.33136 0.08496 0.0
C521 C 0.36814 0.40842 0.97908 0.0
C522 C 0.03611 0.39212 0.60624 0.0
C523 C 1.00579 0.35417 0.60728 0.0
H524 H 0.08 0.43759 0.54754 0.0
C525 C 0.99601 0.33234 0.54696 0.0
H526 H 0.04428 0.40928 0.65254 0.0
C527 C 0.01611 0.34878 0.48578 0.0
C528 C 0.04681 0.38694 0.48475 0.0
H529 H 0.9728 0.30285 0.5471 0.0
H530 H 1.00785 0.33158 0.43959 0.0
C531 C 0.05663 0.40821 0.546 0.0
C532 C 0.6421 0.01646 0.97826 0.0
C533 C 0.67632 0.0235 0.9441 0.0
H534 H 0.60914 0.99795 0.07225 0.0
C535 C 0.70381 0.01761 0.97936 0.0
H536 H 0.62028 0.02046 0.95195 0.0
C537 C 0.69754 1.00491 0.04665 0.0
C538 C 0.66346 0.99748 0.08128 0.0
H539 H 0.73055 0.02284 0.95482 0.0
H540 H 0.71967 1.00078 0.07158 0.0
C541 C 0.63553 1.00315 0.0465 0.0
C542 C 0.67547 0.68822 0.47774 0.0
C543 C 0.66099 0.66577 0.41846 0.0
H544 H 0.6899 0.68942 0.58434 0.0
C545 C 0.65099 0.62713 0.42047 0.0
H546 H 0.68367 0.71825 0.47682 0.0
C547 C 0.65554 0.61099 0.48056 0.0
C548 C 0.66932 0.6329 0.54082 0.0
H549 H 0.64023 0.60949 0.37492 0.0
H550 H 0.64785 0.58112 0.47968 0.0
C551 C 0.67908 0.67173 0.53892 0.0
C552 C 0.04515 0.54332 0.3144 0.0
C553 C 0.0755 0.57489 0.2808 0.0
H554 H 0.02035 0.48412 0.34206 0.0
C555 C 0.10383 0.56997 0.24613 0.0
H556 H 0.02273 0.54611 0.34123 0.0
C557 C 0.10221 0.53433 0.24642 0.0
C558 C 0.07293 0.50344 0.28295 0.0
H559 H 0.12723 0.59362 0.21898 0.0
H560 H 0.12397 0.53095 0.21853 0.0
C561 C 0.04379 0.50789 0.31516 0.0
C562 C 0.54007 0.09931 0.76564 0.0
C563 C 0.50476 0.06475 0.76952 0.0
H564 H 0.60171 0.12658 0.75638 0.0
C565 C 0.50529 0.03001 0.76617 0.0
H566 H 0.54076 0.12659 0.76813 0.0
C567 C 0.54057 0.03 0.75857 0.0
C568 C 0.57585 0.06474 0.75514 0.0
H569 H 0.47851 1.00292 0.76877 0.0
H570 H 0.54026 1.00291 0.75604 0.0
C571 C 0.57511 0.09931 0.75894 0.0
C572 C 0.51412 0.54325 0.21054 0.0
C573 C 0.51534 0.57485 0.24404 0.0
H574 H 0.47969 0.48404 0.18299 0.0
C575 C 0.4821 0.56997 0.27867 0.0
H576 H 0.53933 0.54602 0.18374 0.0
C577 C 0.44807 0.53433 0.27842 0.0
C578 C 0.44644 0.50342 0.24197 0.0
H579 H 0.48235 0.59363 0.30576 0.0
H580 H 0.42292 0.53098 0.30627 0.0
C581 C 0.48004 0.50783 0.20983 0.0
C582 C 0.98258 0.51245 0.81367 0.0
C583 C 0.95331 0.51682 0.78173 0.0
H584 H 1.00374 0.4743 0.83969 0.0
C585 C 0.92395 0.48587 0.74543 0.0
H586 H 1.00608 0.53626 0.84038 0.0
C587 C 0.92235 0.45023 0.74519 0.0
C588 C 0.95078 0.44539 0.77971 0.0
H589 H 0.90208 0.48918 0.71772 0.0
H590 H 0.89887 0.42653 0.71828 0.0
C591 C 0.98124 0.47703 0.81299 0.0
C592 C 0.48558 0.99037 0.25858 0.0
C593 C 0.4503 0.95563 0.25517 0.0
H594 H 0.54766 0.01746 0.26876 0.0
C595 C 0.45104 0.92107 0.25896 0.0
H596 H 0.48589 0.01747 0.25606 0.0
C597 C 0.48609 0.92107 0.26563 0.0
C598 C 0.52141 0.95562 0.26951 0.0
H599 H 0.42445 0.89379 0.25641 0.0
H600 H 0.4854 0.89378 0.26812 0.0
C601 C 0.52087 0.99036 0.26617 0.0
C602 C 0.57789 0.48583 0.7793 0.0
C603 C 0.57949 0.5168 0.74307 0.0
H604 H 0.54361 0.42649 0.80636 0.0
C605 C 0.54585 0.51246 0.71117 0.0
H606 H 0.60307 0.48912 0.80698 0.0
C607 C 0.51176 0.47705 0.71182 0.0
C608 C 0.51057 0.44538 0.74502 0.0
H609 H 0.54618 0.5363 0.68451 0.0
H610 H 0.48653 0.47434 0.68515 0.0
C611 C 0.54383 0.4502 0.7795 0.0
C612 C 0.19453 0.39323 0.33101 0.0
C613 C 0.17067 0.39463 0.27913 0.0
H614 H 0.24778 0.39411 0.35522 0.0
C615 C 0.17993 0.39266 0.21029 0.0
H616 H 0.18816 0.39514 0.38441 0.0
C617 C 0.21464 0.39337 0.19357 0.0
C618 C 0.23985 0.39464 0.24546 0.0
H619 H 0.16231 0.39433 0.16937 0.0
H620 H 0.22298 0.39539 0.14018 0.0
C621 C 0.22854 0.39253 0.31428 0.0
C622 C 0.86855 0.18914 0.77948 0.0
C623 C 0.86804 0.22387 0.77466 0.0
H624 H 0.83596 0.12807 0.78129 0.0
C625 C 0.83191 0.22238 0.76788 0.0
H626 H 0.89565 0.18894 0.78518 0.0
C627 C 0.79731 0.1871 0.76564 0.0
C628 C 0.79795 0.15242 0.77057 0.0
H629 H 0.83028 0.24846 0.76429 0.0
H630 H 0.77009 0.18705 0.75985 0.0
C631 C 0.83409 0.15403 0.77769 0.0
C632 C 0.61965 0.7978 0.25705 0.0
C633 C 0.6543 0.79633 0.25023 0.0
H634 H 0.59316 0.83311 0.26506 0.0
C635 C 0.68952 0.83105 0.24518 0.0
H636 H 0.59195 0.77171 0.26081 0.0
C637 C 0.69016 0.86616 0.24685 0.0
C638 C 0.65564 0.86776 0.25407 0.0
H639 H 0.71683 0.83127 0.23942 0.0
H640 H 0.71799 0.89212 0.2431 0.0
C641 C 0.62033 0.83308 0.25917 0.0
C642 C 0.84599 0.62739 0.71023 0.0
C643 C 0.85533 0.62542 0.77903 0.0
H644 H 0.80287 0.62467 0.64024 0.0
C645 C 0.83151 0.62679 0.83099 0.0
H646 H 0.86357 0.62573 0.66925 0.0
C647 C 0.79748 0.62749 0.81436 0.0
C648 C 0.78611 0.6254 0.74556 0.0
H649 H 0.83794 0.62487 0.88436 0.0
H650 H 0.77829 0.62591 0.85536 0.0
C651 C 0.81126 0.62668 0.6936 0.0
C652 C 0.19205 0.8662 0.2777 0.0
C653 C 0.22819 0.86781 0.27052 0.0
H654 H 0.1305 0.83131 0.28512 0.0
C655 C 0.22881 0.83312 0.26546 0.0
H656 H 0.19019 0.89216 0.2814 0.0
C657 C 0.1942 0.79785 0.26761 0.0
C658 C 0.15808 0.79637 0.2744 0.0
H659 H 0.25602 0.83316 0.25962 0.0
H660 H 0.19581 0.77175 0.2639 0.0
C661 C 0.15759 0.8311 0.27939 0.0
C662 C 0.40637 0.2224 0.75681 0.0
C663 C 0.37172 0.22388 0.74999 0.0
H664 H 0.43287 0.18709 0.76486 0.0
C665 C 0.33649 0.18915 0.74508 0.0
H666 H 0.43408 0.24849 0.76046 0.0
C667 C 0.33584 0.15405 0.74685 0.0
C668 C 0.37037 0.15244 0.75403 0.0
H669 H 0.30918 0.18894 0.73934 0.0
H670 H 0.30801 0.12808 0.74319 0.0
C671 C 0.40569 0.18712 0.75902 0.0
loop_
_geom_bond_atom_site_label_1
_geom_bond_atom_site_label_2
_geom_bond_distance
_geom_bond_site_symmetry_2
_ccdc_geom_bond_type
Mn0 O5 2.095 . S
Mn0 O15 2.162 . S
Mn0 O16 2.297 . S
Mn0 O24 2.385 . S
Mn0 O25 2.209 . S
Mn0 O26 2.094 . S
Mn1 O6 2.121 . S
Mn1 N8 2.257 . S
Mn1 N17 2.282 . S
Mn1 O25 2.215 . S
Mn1 O27 2.117 . S
C2 O24 1.234 . S
C2 O25 1.283 . S
C3 O15 1.281 . S
C3 O16 1.236 . S
C4 O26 1.240 . S
C4 O27 1.264 . S
O5 Mn0 2.095 . S
O5 C14 1.250 . S
O6 Mn1 2.121 . S
O6 C14 1.258 . S
C7 N8 1.326 . S
C7 C11 1.460 . S
C7 H13 0.929 . S
N8 Mn1 2.257 . S
N8 C7 1.326 . S
N8 C12 1.362 . S
C9 C10 1.258 . S
C9 C12 1.431 . S
C9 C29 1.449 . S
C10 C9 1.258 . S
C10 C11 1.477 . S
C10 H30 0.931 . S
C11 C7 1.460 . S
C11 C10 1.477 . S
C11 H31 0.930 . S
C12 N8 1.362 . S
C12 C9 1.431 . S
C12 C22 1.476 . S
H13 C7 0.929 . S
C14 O5 1.250 . S
C14 O6 1.258 . S
O15 Mn0 2.162 . S
O15 C3 1.281 . S
O16 Mn0 2.297 . S
O16 C3 1.236 . S
N17 Mn1 2.282 . S
N17 C18 1.328 . S
N17 C22 1.318 . S
C18 N17 1.328 . S
C18 C19 1.457 . S
C18 H23 0.929 . S
C19 C18 1.457 . S
C19 C20 1.291 . S
C19 H32 0.931 . S
C20 C19 1.291 . S
C20 C21 1.373 . S
C20 H33 0.929 . S
C21 C20 1.373 . S
C21 C22 1.396 . S
C21 C28 1.403 . S
C22 C12 1.476 . S
C22 N17 1.318 . S
C22 C21 1.396 . S
H23 C18 0.929 . S
O24 Mn0 2.385 . S
O24 C2 1.234 . S
O25 Mn0 2.209 . S
O25 Mn1 2.215 . S
O25 C2 1.283 . S
O26 Mn0 2.094 . S
O26 C4 1.240 . S
O27 Mn1 2.117 . S
O27 C4 1.264 . S
C28 C21 1.403 . S
C28 C29 1.399 . S
C28 H34 0.929 . S
C29 C9 1.449 . S
C29 C28 1.399 . S
C29 H35 0.930 . S
H30 C10 0.931 . S
H31 C11 0.930 . S
H32 C19 0.931 . S
H33 C20 0.929 . S
H34 C28 0.929 . S
H35 C29 0.930 . S
Mn36 O41 2.095 . S
Mn36 O51 2.162 . S
Mn36 O52 2.297 . S
Mn36 O60 2.385 . S
Mn36 O61 2.209 . S
Mn36 O62 2.094 . S
Mn37 O42 2.121 . S
Mn37 N44 2.257 1_545 S
Mn37 N53 2.282 . S
Mn37 O61 2.215 . S
Mn37 O63 2.117 . S
C38 O60 1.234 . S
C38 O61 1.283 . S
C39 O51 1.281 . S
C39 O52 1.236 . S
C40 O62 1.240 . S
C40 O63 1.264 . S
O41 Mn36 2.095 . S
O41 C50 1.250 . S
O42 Mn37 2.121 . S
O42 C50 1.258 . S
C43 N44 1.326 . S
C43 C47 1.460 . S
C43 H49 0.929 . S
N44 Mn37 2.257 1_565 S
N44 C43 1.326 . S
N44 C48 1.362 . S
C45 C46 1.258 . S
C45 C48 1.431 . S
C45 C65 1.449 . S
C46 C45 1.258 . S
C46 C47 1.477 . S
C46 H66 0.931 . S
C47 C43 1.460 . S
C47 C46 1.477 . S
C47 H67 0.930 . S
C48 N44 1.362 . S
C48 C45 1.431 . S
C48 C58 1.476 . S
H49 C43 0.929 . S
C50 O41 1.250 . S
C50 O42 1.258 . S
O51 Mn36 2.162 . S
O51 C39 1.281 . S
O52 Mn36 2.297 . S
O52 C39 1.236 . S
N53 Mn37 2.282 . S
N53 C54 1.328 . S
N53 C58 1.318 1_545 S
C54 N53 1.328 . S
C54 C55 1.457 . S
C54 H59 0.929 . S
C55 C54 1.457 . S
C55 C56 1.291 . S
C55 H68 0.931 . S
C56 C55 1.291 . S
C56 C57 1.373 1_545 S
C56 H69 0.929 . S
C57 C56 1.373 1_565 S
C57 C58 1.396 . S
C57 C64 1.403 . S
C58 C48 1.476 . S
C58 N53 1.318 1_565 S
C58 C57 1.396 . S
H59 C54 0.929 . S
O60 Mn36 2.385 . S
O60 C38 1.234 . S
O61 Mn36 2.209 . S
O61 Mn37 2.215 . S
O61 C38 1.283 . S
O62 Mn36 2.094 . S
O62 C40 1.240 . S
O63 Mn37 2.117 . S
O63 C40 1.264 . S
C64 C57 1.403 . S
C64 C65 1.399 . S
C64 H70 0.929 . S
C65 C45 1.449 . S
C65 C64 1.399 . S
C65 H71 0.930 . S
H66 C46 0.931 . S
H67 C47 0.930 . S
H68 C55 0.931 . S
H69 C56 0.929 . S
H70 C64 0.929 . S
H71 C65 0.930 . S
Mn72 O77 2.095 . S
Mn72 O87 2.162 . S
Mn72 O88 2.297 . S
Mn72 O96 2.385 . S
Mn72 O97 2.209 . S
Mn72 O98 2.094 . S
Mn73 O78 2.121 . S
Mn73 N80 2.257 . S
Mn73 N89 2.282 . S
Mn73 O97 2.215 . S
Mn73 O99 2.117 . S
C74 O96 1.234 . S
C74 O97 1.283 . S
C75 O87 1.281 . S
C75 O88 1.236 . S
C76 O98 1.240 . S
C76 O99 1.264 . S
O77 Mn72 2.095 . S
O77 C86 1.250 . S
O78 Mn73 2.121 . S
O78 C86 1.258 . S
C79 N80 1.326 . S
C79 C83 1.460 . S
C79 H85 0.929 . S
N80 Mn73 2.257 . S
N80 C79 1.326 . S
N80 C84 1.362 . S
C81 C82 1.258 . S
C81 C84 1.431 . S
C81 C101 1.449 . S
C82 C81 1.258 . S
C82 C83 1.477 . S
C82 H102 0.931 . S
C83 C79 1.460 . S
C83 C82 1.477 . S
C83 H103 0.930 . S
C84 N80 1.362 . S
C84 C81 1.431 . S
C84 C94 1.476 . S
H85 C79 0.929 . S
C86 O77 1.250 . S
C86 O78 1.258 . S
O87 Mn72 2.162 . S
O87 C75 1.281 . S
O88 Mn72 2.297 . S
O88 C75 1.236 . S
N89 Mn73 2.282 . S
N89 C90 1.328 . S
N89 C94 1.318 . S
C90 N89 1.328 . S
C90 C91 1.457 . S
C90 H95 0.929 . S
C91 C90 1.457 . S
C91 C92 1.291 . S
C91 H104 0.931 . S
C92 C91 1.291 . S
C92 C93 1.373 . S
C92 H105 0.929 1_554 S
C93 C92 1.373 . S
C93 C94 1.396 . S
C93 C100 1.403 . S
C94 C84 1.476 . S
C94 N89 1.318 . S
C94 C93 1.396 . S
H95 C90 0.929 . S
O96 Mn72 2.385 . S
O96 C74 1.234 . S
O97 Mn72 2.209 . S
O97 Mn73 2.215 . S
O97 C74 1.283 . S
O98 Mn72 2.094 . S
O98 C76 1.240 . S
O99 Mn73 2.117 . S
O99 C76 1.264 . S
C100 C93 1.403 . S
C100 C101 1.399 . S
C100 H106 0.929 1_554 S
C101 C81 1.449 . S
C101 C100 1.399 . S
C101 H107 0.930 . S
H102 C82 0.931 . S
H103 C83 0.930 . S
H104 C91 0.931 . S
H105 C92 0.929 1_556 S
H106 C100 0.929 1_556 S
H107 C101 0.930 . S
Mn108 O113 2.095 . S
Mn108 O123 2.162 . S
Mn108 O124 2.297 . S
Mn108 O132 2.385 . S
Mn108 O133 2.209 . S
Mn108 O134 2.094 . S
Mn109 O114 2.121 . S
Mn109 N116 2.257 . S
Mn109 N125 2.282 . S
Mn109 O133 2.215 . S
Mn109 O135 2.117 . S
C110 O132 1.234 . S
C110 O133 1.283 . S
C111 O123 1.281 . S
C111 O124 1.236 . S
C112 O134 1.240 . S
C112 O135 1.264 . S
O113 Mn108 2.095 . S
O113 C122 1.250 . S
O114 Mn109 2.121 . S
O114 C122 1.258 . S
C115 N116 1.326 . S
C115 C119 1.460 . S
C115 H121 0.929 . S
N116 Mn109 2.257 . S
N116 C115 1.326 . S
N116 C120 1.362 . S
C117 C118 1.258 . S
C117 C120 1.431 . S
C117 C137 1.449 . S
C118 C117 1.258 . S
C118 C119 1.477 . S
C118 H138 0.931 . S
C119 C115 1.460 . S
C119 C118 1.477 . S
C119 H139 0.930 . S
C120 N116 1.362 . S
C120 C117 1.431 . S
C120 C130 1.476 . S
H121 C115 0.929 . S
C122 O113 1.250 . S
C122 O114 1.258 . S
O123 Mn108 2.162 . S
O123 C111 1.281 . S
O124 Mn108 2.297 . S
O124 C111 1.236 . S
N125 Mn109 2.282 . S
N125 C126 1.328 . S
N125 C130 1.318 . S
C126 N125 1.328 . S
C126 C127 1.457 . S
C126 H131 0.929 . S
C127 C126 1.457 . S
C127 C128 1.291 . S
C127 H140 0.931 . S
C128 C127 1.291 . S
C128 C129 1.373 . S
C128 H141 0.929 . S
C129 C128 1.373 . S
C129 C130 1.396 . S
C129 C136 1.403 . S
C130 C120 1.476 . S
C130 N125 1.318 . S
C130 C129 1.396 . S
H131 C126 0.929 . S
O132 Mn108 2.385 . S
O132 C110 1.234 . S
O133 Mn108 2.209 . S
O133 Mn109 2.215 . S
O133 C110 1.283 . S
O134 Mn108 2.094 . S
O134 C112 1.240 . S
O135 Mn109 2.117 . S
O135 C112 1.264 . S
C136 C129 1.403 . S
C136 C137 1.399 . S
C136 H142 0.929 . S
C137 C117 1.449 . S
C137 C136 1.399 . S
C137 H143 0.930 . S
H138 C118 0.931 . S
H139 C119 0.930 . S
H140 C127 0.931 . S
H141 C128 0.929 . S
H142 C136 0.929 . S
H143 C137 0.930 . S
Mn144 O149 2.095 . S
Mn144 O159 2.162 . S
Mn144 O160 2.297 . S
Mn144 O168 2.385 . S
Mn144 O169 2.209 . S
Mn144 O170 2.094 . S
Mn145 O150 2.121 . S
Mn145 N152 2.257 1_565 S
Mn145 N161 2.282 . S
Mn145 O169 2.215 . S
Mn145 O171 2.117 . S
C146 O168 1.234 . S
C146 O169 1.283 . S
C147 O159 1.281 . S
C147 O160 1.236 . S
C148 O170 1.240 . S
C148 O171 1.264 . S
O149 Mn144 2.095 . S
O149 C158 1.250 . S
O150 Mn145 2.121 . S
O150 C158 1.258 . S
C151 N152 1.326 . S
C151 C155 1.460 . S
C151 H157 0.929 . S
N152 Mn145 2.257 1_545 S
N152 C151 1.326 . S
N152 C156 1.362 . S
C153 C154 1.258 . S
C153 C156 1.431 . S
C153 C173 1.449 . S
C154 C153 1.258 . S
C154 C155 1.477 . S
C154 H174 0.931 . S
C155 C151 1.460 . S
C155 C154 1.477 . S
C155 H175 0.930 . S
C156 N152 1.362 . S
C156 C153 1.431 . S
C156 C166 1.476 . S
H157 C151 0.929 . S
C158 O149 1.250 . S
C158 O150 1.258 . S
O159 Mn144 2.162 . S
O159 C147 1.281 . S
O160 Mn144 2.297 . S
O160 C147 1.236 . S
N161 Mn145 2.282 . S
N161 C162 1.328 . S
N161 C166 1.318 1_565 S
C162 N161 1.328 . S
C162 C163 1.457 . S
C162 H167 0.929 . S
C163 C162 1.457 . S
C163 C164 1.291 . S
C163 H176 0.931 . S
C164 C163 1.291 . S
C164 C165 1.373 1_565 S
C164 H177 0.929 1_554 S
C165 C164 1.373 1_545 S
C165 C166 1.396 . S
C165 C172 1.403 . S
C166 C156 1.476 . S
C166 N161 1.318 1_545 S
C166 C165 1.396 . S
H167 C162 0.929 . S
O168 Mn144 2.385 . S
O168 C146 1.234 . S
O169 Mn144 2.209 . S
O169 Mn145 2.215 . S
O169 C146 1.283 . S
O170 Mn144 2.094 . S
O170 C148 1.240 . S
O171 Mn145 2.117 . S
O171 C148 1.264 . S
C172 C165 1.403 . S
C172 C173 1.399 . S
C172 H178 0.929 1_554 S
C173 C153 1.449 . S
C173 C172 1.399 . S
C173 H179 0.930 . S
H174 C154 0.931 . S
H175 C155 0.930 . S
H176 C163 0.931 . S
H177 C164 0.929 1_556 S
H178 C172 0.929 1_556 S
H179 C173 0.930 . S
Mn180 O185 2.095 . S
Mn180 O195 2.162 . S
Mn180 O196 2.297 . S
Mn180 O204 2.385 . S
Mn180 O205 2.209 . S
Mn180 O206 2.094 . S
Mn181 O186 2.121 . S
Mn181 N188 2.257 . S
Mn181 N197 2.282 . S
Mn181 O205 2.215 . S
Mn181 O207 2.117 . S
C182 O204 1.234 . S
C182 O205 1.283 . S
C183 O195 1.281 . S
C183 O196 1.236 . S
C184 O206 1.240 . S
C184 O207 1.264 . S
O185 Mn180 2.095 . S
O185 C194 1.250 . S
O186 Mn181 2.121 . S
O186 C194 1.258 . S
C187 N188 1.326 . S
C187 C191 1.460 . S
C187 H193 0.929 . S
N188 Mn181 2.257 . S
N188 C187 1.326 . S
N188 C192 1.362 . S
C189 C190 1.258 . S
C189 C192 1.431 . S
C189 C209 1.449 . S
C190 C189 1.258 . S
C190 C191 1.477 . S
C190 H210 0.931 . S
C191 C187 1.460 . S
C191 C190 1.477 . S
C191 H211 0.930 . S
C192 N188 1.362 . S
C192 C189 1.431 . S
C192 C202 1.476 . S
H193 C187 0.929 . S
C194 O185 1.250 . S
C194 O186 1.258 . S
O195 Mn180 2.162 . S
O195 C183 1.281 . S
O196 Mn180 2.297 . S
O196 C183 1.236 . S
N197 Mn181 2.282 . S
N197 C198 1.328 . S
N197 C202 1.318 . S
C198 N197 1.328 . S
C198 C199 1.457 . S
C198 H203 0.929 . S
C199 C198 1.457 . S
C199 C200 1.291 . S
C199 H212 0.931 . S
C200 C199 1.291 . S
C200 C201 1.373 . S
C200 H213 0.929 . S
C201 C200 1.373 . S
C201 C202 1.396 . S
C201 C208 1.403 . S
C202 C192 1.476 . S
C202 N197 1.318 . S
C202 C201 1.396 . S
H203 C198 0.929 . S
O204 Mn180 2.385 . S
O204 C182 1.234 . S
O205 Mn180 2.209 . S
O205 Mn181 2.215 . S
O205 C182 1.283 . S
O206 Mn180 2.094 . S
O206 C184 1.240 . S
O207 Mn181 2.117 . S
O207 C184 1.264 . S
C208 C201 1.403 . S
C208 C209 1.399 . S
C208 H214 0.929 . S
C209 C189 1.449 . S
C209 C208 1.399 . S
C209 H215 0.930 . S
H210 C190 0.931 . S
H211 C191 0.930 . S
H212 C199 0.931 . S
H213 C200 0.929 . S
H214 C208 0.929 . S
H215 C209 0.930 . S
Mn216 O221 2.095 . S
Mn216 O231 2.162 . S
Mn216 O232 2.297 . S
Mn216 O240 2.385 . S
Mn216 O241 2.209 . S
Mn216 O242 2.094 . S
Mn217 O222 2.121 . S
Mn217 N224 2.257 1_565 S
Mn217 N233 2.282 . S
Mn217 O241 2.215 . S
Mn217 O243 2.117 . S
C218 O240 1.234 . S
C218 O241 1.283 . S
C219 O231 1.281 . S
C219 O232 1.236 . S
C220 O242 1.240 . S
C220 O243 1.264 . S
O221 Mn216 2.095 . S
O221 C230 1.250 . S
O222 Mn217 2.121 . S
O222 C230 1.258 . S
C223 N224 1.326 . S
C223 C227 1.460 . S
C223 H229 0.929 . S
N224 Mn217 2.257 1_545 S
N224 C223 1.326 . S
N224 C228 1.362 . S
C225 C226 1.258 . S
C225 C228 1.431 . S
C225 C245 1.449 . S
C226 C225 1.258 . S
C226 C227 1.477 . S
C226 H246 0.931 . S
C227 C223 1.460 . S
C227 C226 1.477 . S
C227 H247 0.930 . S
C228 N224 1.362 . S
C228 C225 1.431 . S
C228 C238 1.476 . S
H229 C223 0.929 . S
C230 O221 1.250 . S
C230 O222 1.258 . S
O231 Mn216 2.162 . S
O231 C219 1.281 . S
O232 Mn216 2.297 . S
O232 C219 1.236 . S
N233 Mn217 2.282 . S
N233 C234 1.328 . S
N233 C238 1.318 1_565 S
C234 N233 1.328 . S
C234 C235 1.457 . S
C234 H239 0.929 . S
C235 C234 1.457 . S
C235 C236 1.291 . S
C235 H248 0.931 . S
C236 C235 1.291 . S
C236 C237 1.373 1_565 S
C236 H249 0.929 . S
C237 C236 1.373 1_545 S
C237 C238 1.396 . S
C237 C244 1.403 . S
C238 C228 1.476 . S
C238 N233 1.318 1_545 S
C238 C237 1.396 . S
H239 C234 0.929 . S
O240 Mn216 2.385 . S
O240 C218 1.234 . S
O241 Mn216 2.209 . S
O241 Mn217 2.215 . S
O241 C218 1.283 . S
O242 Mn216 2.094 . S
O242 C220 1.240 . S
O243 Mn217 2.117 . S
O243 C220 1.264 . S
C244 C237 1.403 . S
C244 C245 1.399 . S
C244 H250 0.929 . S
C245 C225 1.449 . S
C245 C244 1.399 . S
C245 H251 0.930 . S
H246 C226 0.931 . S
H247 C227 0.930 . S
H248 C235 0.931 . S
H249 C236 0.929 . S
H250 C244 0.929 . S
H251 C245 0.930 . S
Mn252 O257 2.095 . S
Mn252 O267 2.162 . S
Mn252 O268 2.297 . S
Mn252 O276 2.385 . S
Mn252 O277 2.209 . S
Mn252 O278 2.094 . S
Mn253 O258 2.121 . S
Mn253 N260 2.257 . S
Mn253 N269 2.282 . S
Mn253 O277 2.215 . S
Mn253 O279 2.117 . S
C254 O276 1.234 . S
C254 O277 1.283 . S
C255 O267 1.281 . S
C255 O268 1.236 . S
C256 O278 1.240 . S
C256 O279 1.264 . S
O257 Mn252 2.095 . S
O257 C266 1.250 . S
O258 Mn253 2.121 . S
O258 C266 1.258 . S
C259 N260 1.326 . S
C259 C263 1.460 . S
C259 H265 0.929 . S
N260 Mn253 2.257 . S
N260 C259 1.326 . S
N260 C264 1.362 . S
C261 C262 1.258 . S
C261 C264 1.431 . S
C261 C281 1.449 . S
C262 C261 1.258 . S
C262 C263 1.477 . S
C262 H282 0.931 . S
C263 C259 1.460 . S
C263 C262 1.477 . S
C263 H283 0.930 . S
C264 N260 1.362 . S
C264 C261 1.431 . S
C264 C274 1.476 . S
H265 C259 0.929 . S
C266 O257 1.250 . S
C266 O258 1.258 . S
O267 Mn252 2.162 . S
O267 C255 1.281 . S
O268 Mn252 2.297 . S
O268 C255 1.236 . S
N269 Mn253 2.282 . S
N269 C270 1.328 . S
N269 C274 1.318 . S
C270 N269 1.328 . S
C270 C271 1.457 . S
C270 H275 0.929 . S
C271 C270 1.457 . S
C271 C272 1.291 . S
C271 H284 0.931 . S
C272 C271 1.291 . S
C272 C273 1.373 . S
C272 H285 0.929 . S
C273 C272 1.373 . S
C273 C274 1.396 . S
C273 C280 1.403 . S
C274 C264 1.476 . S
C274 N269 1.318 . S
C274 C273 1.396 . S
H275 C270 0.929 . S
O276 Mn252 2.385 . S
O276 C254 1.234 . S
O277 Mn252 2.209 . S
O277 Mn253 2.215 . S
O277 C254 1.283 . S
O278 Mn252 2.094 . S
O278 C256 1.240 . S
O279 Mn253 2.117 . S
O279 C256 1.264 . S
C280 C273 1.403 . S
C280 C281 1.399 . S
C280 H286 0.929 . S
C281 C261 1.449 . S
C281 C280 1.399 . S
C281 H287 0.930 . S
H282 C262 0.931 . S
H283 C263 0.930 . S
H284 C271 0.931 . S
H285 C272 0.929 . S
H286 C280 0.929 . S
H287 C281 0.930 . S
Mn288 O293 2.095 . S
Mn288 O303 2.162 . S
Mn288 O304 2.297 . S
Mn288 O312 2.385 . S
Mn288 O313 2.209 . S
Mn288 O314 2.094 . S
Mn289 O294 2.121 . S
Mn289 N296 2.257 1_455 S
Mn289 N305 2.282 . S
Mn289 O313 2.215 . S
Mn289 O315 2.117 . S
C290 O312 1.234 . S
C290 O313 1.283 . S
C291 O303 1.281 . S
C291 O304 1.236 . S
C292 O314 1.240 . S
C292 O315 1.264 . S
O293 Mn288 2.095 . S
O293 C302 1.250 . S
O294 Mn289 2.121 . S
O294 C302 1.258 . S
C295 N296 1.326 . S
C295 C299 1.460 . S
C295 H301 0.929 . S
N296 Mn289 2.257 1_655 S
N296 C295 1.326 . S
N296 C300 1.362 . S
C297 C298 1.258 . S
C297 C300 1.431 . S
C297 C317 1.449 . S
C298 C297 1.258 . S
C298 C299 1.477 . S
C298 H318 0.931 . S
C299 C295 1.460 . S
C299 C298 1.477 . S
C299 H319 0.930 . S
C300 N296 1.362 . S
C300 C297 1.431 . S
C300 C310 1.476 . S
H301 C295 0.929 . S
C302 O293 1.250 . S
C302 O294 1.258 . S
O303 Mn288 2.162 . S
O303 C291 1.281 . S
O304 Mn288 2.297 . S
O304 C291 1.236 . S
N305 Mn289 2.282 . S
N305 C306 1.328 . S
N305 C310 1.318 1_455 S
C306 N305 1.328 . S
C306 C307 1.457 . S
C306 H311 0.929 . S
C307 C306 1.457 . S
C307 C308 1.291 . S
C307 H320 0.931 . S
C308 C307 1.291 . S
C308 C309 1.373 1_455 S
C308 H321 0.929 . S
C309 C308 1.373 1_655 S
C309 C310 1.396 . S
C309 C316 1.403 . S
C310 C300 1.476 . S
C310 N305 1.318 1_655 S
C310 C309 1.396 . S
H311 C306 0.929 . S
O312 Mn288 2.385 . S
O312 C290 1.234 . S
O313 Mn288 2.209 . S
O313 Mn289 2.215 . S
O313 C290 1.283 . S
O314 Mn288 2.094 . S
O314 C292 1.240 . S
O315 Mn289 2.117 . S
O315 C292 1.264 . S
C316 C309 1.403 . S
C316 C317 1.399 . S
C316 H322 0.929 . S
C317 C297 1.449 . S
C317 C316 1.399 . S
C317 H323 0.930 . S
H318 C298 0.931 . S
H319 C299 0.930 . S
H320 C307 0.931 . S
H321 C308 0.929 . S
H322 C316 0.929 . S
H323 C317 0.930 . S
Mn324 O329 2.095 . S
Mn324 O339 2.162 . S
Mn324 O340 2.297 . S
Mn324 O348 2.385 . S
Mn324 O349 2.209 . S
Mn324 O350 2.094 . S
Mn325 O330 2.121 . S
Mn325 N332 2.257 1_545 S
Mn325 N341 2.282 . S
Mn325 O349 2.215 . S
Mn325 O351 2.117 . S
C326 O348 1.234 . S
C326 O349 1.283 . S
C327 O339 1.281 . S
C327 O340 1.236 . S
C328 O350 1.240 . S
C328 O351 1.264 . S
O329 Mn324 2.095 . S
O329 C338 1.250 . S
O330 Mn325 2.121 . S
O330 C338 1.258 . S
C331 N332 1.326 . S
C331 C335 1.460 . S
C331 H337 0.929 . S
N332 Mn325 2.257 1_565 S
N332 C331 1.326 . S
N332 C336 1.362 . S
C333 C334 1.258 . S
C333 C336 1.431 . S
C333 C353 1.449 . S
C334 C333 1.258 . S
C334 C335 1.477 . S
C334 H354 0.931 . S
C335 C331 1.460 . S
C335 C334 1.477 . S
C335 H355 0.930 . S
C336 N332 1.362 . S
C336 C333 1.431 . S
C336 C346 1.476 . S
H337 C331 0.929 . S
C338 O329 1.250 . S
C338 O330 1.258 . S
O339 Mn324 2.162 . S
O339 C327 1.281 . S
O340 Mn324 2.297 . S
O340 C327 1.236 . S
N341 Mn325 2.282 . S
N341 C342 1.328 . S
N341 C346 1.318 1_545 S
C342 N341 1.328 . S
C342 C343 1.457 . S
C342 H347 0.929 . S
C343 C342 1.457 . S
C343 C344 1.291 . S
C343 H356 0.931 . S
C344 C343 1.291 . S
C344 C345 1.373 1_545 S
C344 H357 0.929 1_556 S
C345 C344 1.373 1_565 S
C345 C346 1.396 . S
C345 C352 1.403 . S
C346 C336 1.476 . S
C346 N341 1.318 1_565 S
C346 C345 1.396 . S
H347 C342 0.929 . S
O348 Mn324 2.385 . S
O348 C326 1.234 . S
O349 Mn324 2.209 . S
O349 Mn325 2.215 . S
O349 C326 1.283 . S
O350 Mn324 2.094 . S
O350 C328 1.240 . S
O351 Mn325 2.117 . S
O351 C328 1.264 . S
C352 C345 1.403 . S
C352 C353 1.399 . S
C352 H358 0.929 1_556 S
C353 C333 1.449 . S
C353 C352 1.399 . S
C353 H359 0.930 . S
H354 C334 0.931 . S
H355 C335 0.930 . S
H356 C343 0.931 . S
H357 C344 0.929 1_554 S
H358 C352 0.929 1_554 S
H359 C353 0.930 . S
Mn360 O365 2.095 . S
Mn360 O375 2.162 . S
Mn360 O376 2.297 . S
Mn360 O384 2.385 . S
Mn360 O385 2.209 . S
Mn360 O386 2.094 . S
Mn361 O366 2.121 . S
Mn361 N368 2.257 . S
Mn361 N377 2.282 . S
Mn361 O385 2.215 . S
Mn361 O387 2.117 . S
C362 O384 1.234 . S
C362 O385 1.283 . S
C363 O375 1.281 . S
C363 O376 1.236 . S
C364 O386 1.240 . S
C364 O387 1.264 . S
O365 Mn360 2.095 . S
O365 C374 1.250 . S
O366 Mn361 2.121 . S
O366 C374 1.258 . S
C367 N368 1.326 . S
C367 C371 1.460 . S
C367 H373 0.929 . S
N368 Mn361 2.257 . S
N368 C367 1.326 . S
N368 C372 1.362 . S
C369 C370 1.258 . S
C369 C372 1.431 . S
C369 C389 1.449 . S
C370 C369 1.258 . S
C370 C371 1.477 . S
C370 H390 0.931 . S
C371 C367 1.460 . S
C371 C370 1.477 . S
C371 H391 0.930 . S
C372 N368 1.362 . S
C372 C369 1.431 . S
C372 C382 1.476 . S
H373 C367 0.929 . S
C374 O365 1.250 . S
C374 O366 1.258 . S
O375 Mn360 2.162 . S
O375 C363 1.281 . S
O376 Mn360 2.297 . S
O376 C363 1.236 . S
N377 Mn361 2.282 . S
N377 C378 1.328 . S
N377 C382 1.318 . S
C378 N377 1.328 . S
C378 C379 1.457 . S
C378 H383 0.929 . S
C379 C378 1.457 . S
C379 C380 1.291 . S
C379 H392 0.931 . S
C380 C379 1.291 . S
C380 C381 1.373 . S
C380 H393 0.929 . S
C381 C380 1.373 . S
C381 C382 1.396 . S
C381 C388 1.403 . S
C382 C372 1.476 . S
C382 N377 1.318 . S
C382 C381 1.396 . S
H383 C378 0.929 . S
O384 Mn360 2.385 . S
O384 C362 1.234 . S
O385 Mn360 2.209 . S
O385 Mn361 2.215 . S
O385 C362 1.283 . S
O386 Mn360 2.094 . S
O386 C364 1.240 . S
O387 Mn361 2.117 . S
O387 C364 1.264 . S
C388 C381 1.403 . S
C388 C389 1.399 . S
C388 H394 0.929 . S
C389 C369 1.449 . S
C389 C388 1.399 . S
C389 H395 0.930 . S
H390 C370 0.931 . S
H391 C371 0.930 . S
H392 C379 0.931 . S
H393 C380 0.929 . S
H394 C388 0.929 . S
H395 C389 0.930 . S
Mn396 O401 2.095 . S
Mn396 O411 2.162 . S
Mn396 O412 2.297 . S
Mn396 O420 2.385 . S
Mn396 O421 2.209 . S
Mn396 O422 2.094 . S
Mn397 O402 2.121 . S
Mn397 N404 2.257 1_655 S
Mn397 N413 2.282 . S
Mn397 O421 2.215 . S
Mn397 O423 2.117 . S
C398 O420 1.234 . S
C398 O421 1.283 . S
C399 O411 1.281 . S
C399 O412 1.236 . S
C400 O422 1.240 . S
C400 O423 1.264 . S
O401 Mn396 2.095 . S
O401 C410 1.250 . S
O402 Mn397 2.121 . S
O402 C410 1.258 . S
C403 N404 1.326 . S
C403 C407 1.460 . S
C403 H409 0.929 . S
N404 Mn397 2.257 1_455 S
N404 C403 1.326 . S
N404 C408 1.362 . S
C405 C406 1.258 . S
C405 C408 1.431 . S
C405 C425 1.449 . S
C406 C405 1.258 . S
C406 C407 1.477 . S
C406 H426 0.931 . S
C407 C403 1.460 . S
C407 C406 1.477 . S
C407 H427 0.930 . S
C408 N404 1.362 . S
C408 C405 1.431 . S
C408 C418 1.476 . S
H409 C403 0.929 . S
C410 O401 1.250 . S
C410 O402 1.258 . S
O411 Mn396 2.162 . S
O411 C399 1.281 . S
O412 Mn396 2.297 . S
O412 C399 1.236 . S
N413 Mn397 2.282 . S
N413 C414 1.328 . S
N413 C418 1.318 1_655 S
C414 N413 1.328 . S
C414 C415 1.457 . S
C414 H419 0.929 . S
C415 C414 1.457 . S
C415 C416 1.291 . S
C415 H428 0.931 . S
C416 C415 1.291 . S
C416 C417 1.373 1_655 S
C416 H429 0.929 1_556 S
C417 C416 1.373 1_455 S
C417 C418 1.396 . S
C417 C424 1.403 . S
C418 C408 1.476 . S
C418 N413 1.318 1_455 S
C418 C417 1.396 . S
H419 C414 0.929 . S
O420 Mn396 2.385 . S
O420 C398 1.234 . S
O421 Mn396 2.209 . S
O421 Mn397 2.215 . S
O421 C398 1.283 . S
O422 Mn396 2.094 . S
O422 C400 1.240 . S
O423 Mn397 2.117 . S
O423 C400 1.264 . S
C424 C417 1.403 . S
C424 C425 1.399 . S
C424 H430 0.929 1_556 S
C425 C405 1.449 . S
C425 C424 1.399 . S
C425 H431 0.930 . S
H426 C406 0.931 . S
H427 C407 0.930 . S
H428 C415 0.931 . S
H429 C416 0.929 1_554 S
H430 C424 0.929 1_554 S
H431 C425 0.930 . S
C432 C433 1.387 1_655 S
C432 H436 0.950 . S
C432 C441 1.390 1_554 S
C433 C432 1.387 1_455 S
C433 C435 1.399 . S
H434 C441 0.950 . S
C435 C433 1.399 . S
C435 C437 1.375 1_554 S
C435 H439 0.954 . S
H436 C432 0.950 . S
C437 C435 1.375 1_556 S
C437 C438 1.387 1_455 S
C437 H440 0.950 . S
C438 C437 1.387 1_655 S
C438 C441 1.387 . S
H439 C435 0.954 . S
H440 C437 0.950 . S
C441 C432 1.390 1_556 S
C441 H434 0.950 . S
C441 C438 1.387 . S
C442 C443 1.387 . S
C442 H446 0.950 . S
C442 C451 1.390 1_565 S
C443 C442 1.387 . S
C443 C445 1.387 . S
H444 C451 0.950 . S
C445 C443 1.387 . S
C445 C447 1.390 1_565 S
C445 H449 0.950 . S
H446 C442 0.950 . S
C447 C445 1.390 1_545 S
C447 C448 1.387 . S
C447 H450 0.950 . S
C448 C447 1.387 . S
C448 C451 1.387 . S
H449 C445 0.950 . S
H450 C447 0.950 . S
C451 C442 1.390 1_545 S
C451 H444 0.950 . S
C451 C448 1.387 . S
C452 C453 1.387 . S
C452 H456 0.950 . S
C452 C461 1.390 1_554 S
C453 C452 1.387 . S
C453 C455 1.387 . S
H454 C461 0.950 . S
C455 C453 1.387 . S
C455 C457 1.390 1_554 S
C455 H459 0.950 . S
H456 C452 0.950 . S
C457 C455 1.390 1_556 S
C457 C458 1.387 . S
C457 H460 0.950 . S
C458 C457 1.387 . S
C458 C461 1.387 . S
H459 C455 0.950 . S
H460 C457 0.950 . S
C461 C452 1.390 1_556 S
C461 H454 0.950 . S
C461 C458 1.387 . S
C462 C463 1.387 . S
C462 H466 0.950 . S
C462 C471 1.390 . S
C463 C462 1.387 . S
C463 C465 1.387 1_455 S
H464 C471 0.950 . S
C465 C463 1.387 1_655 S
C465 C467 1.390 . S
C465 H469 0.950 . S
H466 C462 0.950 . S
C467 C465 1.390 . S
C467 C468 1.387 . S
C467 H470 0.950 . S
C468 C467 1.387 . S
C468 C471 1.387 1_655 S
H469 C465 0.950 . S
H470 C467 0.950 . S
C471 C462 1.390 . S
C471 H464 0.950 . S
C471 C468 1.387 1_455 S
C472 C473 1.387 . S
C472 H476 0.950 . S
C472 C481 1.390 1_546 S
C473 C472 1.387 . S
C473 C475 1.387 . S
H474 C481 0.950 . S
C475 C473 1.387 . S
C475 C477 1.390 1_546 S
C475 H479 0.950 . S
H476 C472 0.950 . S
C477 C475 1.390 1_564 S
C477 C478 1.387 . S
C477 H480 0.950 . S
C478 C477 1.387 . S
C478 C481 1.387 . S
H479 C475 0.950 . S
H480 C477 0.950 . S
C481 C472 1.390 1_564 S
C481 H474 0.950 . S
C481 C478 1.387 . S
C482 C483 1.387 . S
C482 H486 0.950 . S
C482 C491 1.390 . S
C483 C482 1.387 . S
C483 C485 1.387 . S
H484 C491 0.950 . S
C485 C483 1.387 . S
C485 C487 1.390 . S
C485 H489 0.950 . S
H486 C482 0.950 . S
C487 C485 1.390 . S
C487 C488 1.387 . S
C487 H490 0.950 . S
C488 C487 1.387 . S
C488 C491 1.387 . S
H489 C485 0.950 . S
H490 C487 0.950 . S
C491 C482 1.390 . S
C491 H484 0.950 . S
C491 C488 1.387 . S
C492 C493 1.387 1_455 S
C492 H496 0.950 . S
C492 C501 1.390 1_556 S
C493 C492 1.387 1_655 S
C493 C495 1.387 . S
H494 C501 0.950 . S
C495 C493 1.387 . S
C495 C497 1.390 1_556 S
C495 H499 0.950 . S
H496 C492 0.950 . S
C497 C495 1.390 1_554 S
C497 C498 1.387 1_655 S
C497 H500 0.950 . S
C498 C497 1.387 1_455 S
C498 C501 1.387 . S
H499 C495 0.950 . S
H500 C497 0.950 . S
C501 C492 1.390 1_554 S
C501 H494 0.950 . S
C501 C498 1.387 . S
C502 C503 1.387 . S
C502 H506 0.950 . S
C502 C511 1.390 1_565 S
C503 C502 1.387 . S
C503 C505 1.387 . S
H504 C511 0.950 . S
C505 C503 1.387 . S
C505 C507 1.390 1_565 S
C505 H509 0.950 . S
H506 C502 0.950 . S
C507 C505 1.390 1_545 S
C507 C508 1.387 . S
C507 H510 0.950 . S
C508 C507 1.387 . S
C508 C511 1.387 . S
H509 C505 0.950 . S
H510 C507 0.950 . S
C511 C502 1.390 1_545 S
C511 H504 0.950 . S
C511 C508 1.387 . S
C512 C513 1.387 . S
C512 H516 0.950 . S
C512 C521 1.390 1_556 S
C513 C512 1.387 . S
C513 C515 1.387 . S
H514 C521 0.950 . S
C515 C513 1.387 . S
C515 C517 1.390 1_556 S
C515 H519 0.950 . S
H516 C512 0.950 . S
C517 C515 1.390 1_554 S
C517 C518 1.387 . S
C517 H520 0.950 . S
C518 C517 1.387 . S
C518 C521 1.387 . S
H519 C515 0.950 . S
H520 C517 0.950 . S
C521 C512 1.390 1_554 S
C521 H514 0.950 . S
C521 C518 1.387 . S
C522 C523 1.387 1_455 S
C522 H526 0.950 . S
C522 C531 1.390 . S
C523 C522 1.387 1_655 S
C523 C525 1.387 . S
H524 C531 0.950 . S
C525 C523 1.387 . S
C525 C527 1.390 . S
C525 H529 0.950 . S
H526 C522 0.950 . S
C527 C525 1.390 . S
C527 C528 1.387 1_655 S
C527 H530 0.950 . S
C528 C527 1.387 1_455 S
C528 C531 1.387 . S
H529 C525 0.950 . S
H530 C527 0.950 . S
C531 C522 1.390 . S
C531 H524 0.950 . S
C531 C528 1.387 . S
C532 C533 1.387 . S
C532 H536 0.950 . S
C532 C541 1.390 1_546 S
C533 C532 1.387 . S
C533 C535 1.387 . S
H534 C541 0.950 . S
C535 C533 1.387 . S
C535 C537 1.390 1_546 S
C535 H539 0.950 . S
H536 C532 0.950 . S
C537 C535 1.390 1_564 S
C537 C538 1.387 . S
C537 H540 0.950 . S
C538 C537 1.387 . S
C538 C541 1.387 . S
H539 C535 0.950 . S
H540 C537 0.950 . S
C541 C532 1.390 1_564 S
C541 H534 0.950 . S
C541 C538 1.387 . S
C542 C543 1.387 . S
C542 H546 0.950 . S
C542 C551 1.390 . S
C543 C542 1.387 . S
C543 C545 1.387 . S
H544 C551 0.950 . S
C545 C543 1.387 . S
C545 C547 1.390 . S
C545 H549 0.950 . S
H546 C542 0.950 . S
C547 C545 1.390 . S
C547 C548 1.387 . S
C547 H550 0.950 . S
C548 C547 1.387 . S
C548 C551 1.387 . S
H549 C545 0.950 . S
H550 C547 0.950 . S
C551 C542 1.390 . S
C551 H544 0.950 . S
C551 C548 1.387 . S
C552 C553 1.387 . S
C552 H556 0.950 . S
C552 C561 1.390 . S
C553 C552 1.387 . S
C553 C555 1.387 . S
H554 C561 0.950 . S
C555 C553 1.387 . S
C555 C557 1.390 . S
C555 H559 0.950 . S
H556 C552 0.950 . S
C557 C555 1.390 . S
C557 C558 1.387 . S
C557 H560 0.950 . S
C558 C557 1.387 . S
C558 C561 1.387 . S
H559 C555 0.950 . S
H560 C557 0.950 . S
C561 C552 1.390 . S
C561 H554 0.950 . S
C561 C558 1.387 . S
C562 C563 1.387 . S
C562 H566 0.950 . S
C562 C571 1.390 . S
C563 C562 1.387 . S
C563 C565 1.387 . S
H564 C571 0.950 . S
C565 C563 1.387 . S
C565 C567 1.390 . S
C565 H569 0.950 1_545 S
H566 C562 0.950 . S
C567 C565 1.390 . S
C567 C568 1.387 . S
C567 H570 0.950 1_545 S
C568 C567 1.387 . S
C568 C571 1.387 . S
H569 C565 0.950 1_565 S
H570 C567 0.950 1_565 S
C571 C562 1.390 . S
C571 H564 0.950 . S
C571 C568 1.387 . S
C572 C573 1.387 . S
C572 H576 0.950 . S
C572 C581 1.390 . S
C573 C572 1.387 . S
C573 C575 1.387 . S
H574 C581 0.950 . S
C575 C573 1.387 . S
C575 C577 1.390 . S
C575 H579 0.950 . S
H576 C572 0.950 . S
C577 C575 1.390 . S
C577 C578 1.387 . S
C577 H580 0.950 . S
C578 C577 1.387 . S
C578 C581 1.387 . S
H579 C575 0.950 . S
H580 C577 0.950 . S
C581 C572 1.390 . S
C581 H574 0.950 . S
C581 C578 1.387 . S
C582 C583 1.387 . S
C582 H586 0.950 . S
C582 C591 1.390 . S
C583 C582 1.387 . S
C583 C585 1.387 . S
H584 C591 0.950 . S
C585 C583 1.387 . S
C585 C587 1.390 . S
C585 H589 0.950 . S
H586 C582 0.950 . S
C587 C585 1.390 . S
C587 C588 1.387 . S
C587 H590 0.950 . S
C588 C587 1.387 . S
C588 C591 1.387 . S
H589 C585 0.950 . S
H590 C587 0.950 . S
C591 C582 1.390 . S
C591 H584 0.950 . S
C591 C588 1.387 . S
C592 C593 1.387 . S
C592 H596 0.950 1_565 S
C592 C601 1.390 . S
C593 C592 1.387 . S
C593 C595 1.387 . S
H594 C601 0.950 1_545 S
C595 C593 1.387 . S
C595 C597 1.390 . S
C595 H599 0.950 . S
H596 C592 0.950 1_545 S
C597 C595 1.390 . S
C597 C598 1.387 . S
C597 H600 0.950 . S
C598 C597 1.387 . S
C598 C601 1.387 . S
H599 C595 0.950 . S
H600 C597 0.950 . S
C601 C592 1.390 . S
C601 H594 0.950 1_565 S
C601 C598 1.387 . S
C602 C603 1.387 . S
C602 H606 0.950 . S
C602 C611 1.390 . S
C603 C602 1.387 . S
C603 C605 1.387 . S
H604 C611 0.950 . S
C605 C603 1.387 . S
C605 C607 1.390 . S
C605 H609 0.950 . S
H606 C602 0.950 . S
C607 C605 1.390 . S
C607 C608 1.387 . S
C607 H610 0.950 . S
C608 C607 1.387 . S
C608 C611 1.387 . S
H609 C605 0.950 . S
H610 C607 0.950 . S
C611 C602 1.390 . S
C611 H604 0.950 . S
C611 C608 1.387 . S
C612 C613 1.387 . S
C612 H616 0.950 . S
C612 C621 1.390 . S
C613 C612 1.387 . S
C613 C615 1.387 . S
H614 C621 0.950 . S
C615 C613 1.387 . S
C615 C617 1.390 . S
C615 H619 0.950 . S
H616 C612 0.950 . S
C617 C615 1.390 . S
C617 C618 1.387 . S
C617 H620 0.950 . S
C618 C617 1.387 . S
C618 C621 1.387 . S
H619 C615 0.950 . S
H620 C617 0.950 . S
C621 C612 1.390 . S
C621 H614 0.950 . S
C621 C618 1.387 . S
C622 C623 1.387 . S
C622 H626 0.950 . S
C622 C631 1.390 . S
C623 C622 1.387 . S
C623 C625 1.387 . S
H624 C631 0.950 . S
C625 C623 1.387 . S
C625 C627 1.390 . S
C625 H629 0.950 . S
H626 C622 0.950 . S
C627 C625 1.390 . S
C627 C628 1.387 . S
C627 H630 0.950 . S
C628 C627 1.387 . S
C628 C631 1.387 . S
H629 C625 0.950 . S
H630 C627 0.950 . S
C631 C622 1.390 . S
C631 H624 0.950 . S
C631 C628 1.387 . S
C632 C633 1.387 . S
C632 H636 0.950 . S
C632 C641 1.390 . S
C633 C632 1.387 . S
C633 C635 1.387 . S
H634 C641 0.950 . S
C635 C633 1.387 . S
C635 C637 1.390 . S
C635 H639 0.950 . S
H636 C632 0.950 . S
C637 C635 1.390 . S
C637 C638 1.387 . S
C637 H640 0.950 . S
C638 C637 1.387 . S
C638 C641 1.387 . S
H639 C635 0.950 . S
H640 C637 0.950 . S
C641 C632 1.390 . S
C641 H634 0.950 . S
C641 C638 1.387 . S
C642 C643 1.387 . S
C642 H646 0.950 . S
C642 C651 1.390 . S
C643 C642 1.387 . S
C643 C645 1.387 . S
H644 C651 0.950 . S
C645 C643 1.387 . S
C645 C647 1.390 . S
C645 H649 0.950 . S
H646 C642 0.950 . S
C647 C645 1.390 . S
C647 C648 1.387 . S
C647 H650 0.950 . S
C648 C647 1.387 . S
C648 C651 1.387 . S
H649 C645 0.950 . S
H650 C647 0.950 . S
C651 C642 1.390 . S
C651 H644 0.950 . S
C651 C648 1.387 . S
C652 C653 1.387 . S
C652 H656 0.950 . S
C652 C661 1.390 . S
C653 C652 1.387 . S
C653 C655 1.387 . S
H654 C661 0.950 . S
C655 C653 1.387 . S
C655 C657 1.390 . S
C655 H659 0.950 . S
H656 C652 0.950 . S
C657 C655 1.390 . S
C657 C658 1.387 . S
C657 H660 0.950 . S
C658 C657 1.387 . S
C658 C661 1.387 . S
H659 C655 0.950 . S
H660 C657 0.950 . S
C661 C652 1.390 . S
C661 H654 0.950 . S
C661 C658 1.387 . S
C662 C663 1.387 . S
C662 H666 0.950 . S
C662 C671 1.390 . S
C663 C662 1.387 . S
C663 C665 1.387 . S
H664 C671 0.950 . S
C665 C663 1.387 . S
C665 C667 1.390 . S
C665 H669 0.950 . S
H666 C662 0.950 . S
C667 C665 1.390 . S
C667 C668 1.387 . S
C667 H670 0.950 . S
C668 C667 1.387 . S
C668 C671 1.387 . S
H669 C665 0.950 . S
H670 C667 0.950 . S
C671 C662 1.390 . S
C671 H664 0.950 . S
C671 C668 1.387 . S
C433 C3 1.387 . S
C438 C398 1.356 . S
C443 C218 1.517 . S
C448 C38 1.517 . S
C453 C74 1.355 . S
C458 C255 1.386 . S
C463 C290 1.355 . S
C468 C111 1.386 . S
C473 C326 1.514 . S
C478 C146 1.514 . S
C483 C363 1.386 . S
C488 C182 1.355 . S
C493 C112 1.312 . S
C498 C302 1.322 . S
C503 C158 1.473 . S
C508 C338 1.473 . S
C513 C194 1.323 . S
C518 C364 1.312 . S
C523 C410 1.322 . S
C528 C4 1.311 . S
C533 C50 1.471 . S
C538 C230 1.471 . S
C543 C86 1.322 . S
C548 C256 1.312 . S
C553 C291 1.580 . S
C558 C2 1.564 . S
C563 C327 1.564 . S
C568 C39 1.564 . S
C573 C75 1.580 . S
C578 C362 1.565 . S
C583 C110 1.564 . S
C588 C399 1.580 . S
C593 C147 1.565 . S
C598 C219 1.565 . S
C603 C254 1.566 . S
C608 C183 1.581 . S
C613 C14 1.455 . S
C618 C374 1.455 . S
C623 C400 1.542 . S
C628 C40 1.544 . S
C633 C76 1.543 . S
C638 C220 1.544 . S
C643 C122 1.458 . S
C648 C266 1.457 . S
C653 C148 1.544 . S
C658 C292 1.542 . S
C663 C184 1.543 . S
C668 C328 1.544 . S
