# Generated by pormake.
# Topology vbm, (6)-cn, num edge types: 1
# Building blocks:
#     Node 0, Type 0, BuildingBlock: JUFBIX_clean_sbu_0, # of connection points: 6
#     Node 1, Type 0, BuildingBlock: JUFBIX_clean_sbu_0, # of connection points: 6
#     Node 2, Type 0, BuildingBlock: JUFBIX_clean_sbu_0, # of connection points: 6
#     Node 3, Type 0, BuildingBlock: JUFBIX_clean_sbu_0, # of connection points: 6
#     Node 4, Type 0, BuildingBlock: JUFBIX_clean_sbu_0, # of connection points: 6
#     Node 5, Type 0, BuildingBlock: JUFBIX_clean_sbu_0, # of connection points: 6
#     Node 6, Type 0, BuildingBlock: JUFBIX_clean_sbu_0, # of connection points: 6
#     Node 7, Type 0, BuildingBlock: JUFBIX_clean_sbu_0, # of connection points: 6
#     Node 8, Type 0, BuildingBlock: JUFBIX_clean_sbu_0, # of connection points: 6
#     Node 9, Type 0, BuildingBlock: JUFBIX_clean_sbu_0, # of connection points: 6
#     Node 10, Type 0, BuildingBlock: JUFBIX_clean_sbu_0, # of connection points: 6
#     Node 11, Type 0, BuildingBlock: JUFBIX_clean_sbu_0, # of connection points: 6
#     Node 12, Type 0, BuildingBlock: JUFBIX_clean_sbu_0, # of connection points: 6
#     Node 13, Type 0, BuildingBlock: JUFBIX_clean_sbu_0, # of connection points: 6
#     Node 14, Type 0, BuildingBlock: JUFBIX_clean_sbu_0, # of connection points: 6
#     Node 15, Type 0, BuildingBlock: JUFBIX_clean_sbu_0, # of connection points: 6
#     Edge 16, Type (0, 0), BuildingBlock: KIFKEQ_clean_linker_1, # of connection points: 2
#     Edge 17, Type (0, 0), BuildingBlock: KIFKEQ_clean_linker_1, # of connection points: 2
#     Edge 18, Type (0, 0), BuildingBlock: KIFKEQ_clean_linker_1, # of connection points: 2
#     Edge 19, Type (0, 0), BuildingBlock: KIFKEQ_clean_linker_1, # of connection points: 2
#     Edge 20, Type (0, 0), BuildingBlock: KIFKEQ_clean_linker_1, # of connection points: 2
#     Edge 21, Type (0, 0), BuildingBlock: KIFKEQ_clean_linker_1, # of connection points: 2
#     Edge 22, Type (0, 0), BuildingBlock: KIFKEQ_clean_linker_1, # of connection points: 2
#     Edge 23, Type (0, 0), BuildingBlock: KIFKEQ_clean_linker_1, # of connection points: 2
#     Edge 24, Type (0, 0), BuildingBlock: KIFKEQ_clean_linker_1, # of connection points: 2
#     Edge 25, Type (0, 0), BuildingBlock: KIFKEQ_clean_linker_1, # of connection points: 2
#     Edge 26, Type (0, 0), BuildingBlock: KIFKEQ_clean_linker_1, # of connection points: 2
#     Edge 27, Type (0, 0), BuildingBlock: KIFKEQ_clean_linker_1, # of connection points: 2
#     Edge 28, Type (0, 0), BuildingBlock: KIFKEQ_clean_linker_1, # of connection points: 2
#     Edge 29, Type (0, 0), BuildingBlock: KIFKEQ_clean_linker_1, # of connection points: 2
#     Edge 30, Type (0, 0), BuildingBlock: KIFKEQ_clean_linker_1, # of connection points: 2
#     Edge 31, Type (0, 0), BuildingBlock: KIFKEQ_clean_linker_1, # of connection points: 2
#     Edge 32, Type (0, 0), BuildingBlock: KIFKEQ_clean_linker_1, # of connection points: 2
#     Edge 33, Type (0, 0), BuildingBlock: KIFKEQ_clean_linker_1, # of connection points: 2
#     Edge 34, Type (0, 0), BuildingBlock: KIFKEQ_clean_linker_1, # of connection points: 2
#     Edge 35, Type (0, 0), BuildingBlock: KIFKEQ_clean_linker_1, # of connection points: 2
#     Edge 36, Type (0, 0), BuildingBlock: KIFKEQ_clean_linker_1, # of connection points: 2
#     Edge 37, Type (0, 0), BuildingBlock: KIFKEQ_clean_linker_1, # of connection points: 2
#     Edge 38, Type (0, 0), BuildingBlock: KIFKEQ_clean_linker_1, # of connection points: 2
#     Edge 39, Type (0, 0), BuildingBlock: KIFKEQ_clean_linker_1, # of connection points: 2
#     Edge 40, Type (0, 0), BuildingBlock: KIFKEQ_clean_linker_1, # of connection points: 2
#     Edge 41, Type (0, 0), BuildingBlock: KIFKEQ_clean_linker_1, # of connection points: 2
#     Edge 42, Type (0, 0), BuildingBlock: KIFKEQ_clean_linker_1, # of connection points: 2
#     Edge 43, Type (0, 0), BuildingBlock: KIFKEQ_clean_linker_1, # of connection points: 2
#     Edge 44, Type (0, 0), BuildingBlock: KIFKEQ_clean_linker_1, # of connection points: 2
#     Edge 45, Type (0, 0), BuildingBlock: KIFKEQ_clean_linker_1, # of connection points: 2
#     Edge 46, Type (0, 0), BuildingBlock: KIFKEQ_clean_linker_1, # of connection points: 2
#     Edge 47, Type (0, 0), BuildingBlock: KIFKEQ_clean_linker_1, # of connection points: 2
#     Edge 48, Type (0, 0), BuildingBlock: KIFKEQ_clean_linker_1, # of connection points: 2
#     Edge 49, Type (0, 0), BuildingBlock: KIFKEQ_clean_linker_1, # of connection points: 2
#     Edge 50, Type (0, 0), BuildingBlock: KIFKEQ_clean_linker_1, # of connection points: 2
#     Edge 51, Type (0, 0), BuildingBlock: KIFKEQ_clean_linker_1, # of connection points: 2
#     Edge 52, Type (0, 0), BuildingBlock: KIFKEQ_clean_linker_1, # of connection points: 2
#     Edge 53, Type (0, 0), BuildingBlock: KIFKEQ_clean_linker_1, # of connection points: 2
#     Edge 54, Type (0, 0), BuildingBlock: KIFKEQ_clean_linker_1, # of connection points: 2
#     Edge 55, Type (0, 0), BuildingBlock: KIFKEQ_clean_linker_1, # of connection points: 2
#     Edge 56, Type (0, 0), BuildingBlock: KIFKEQ_clean_linker_1, # of connection points: 2
#     Edge 57, Type (0, 0), BuildingBlock: KIFKEQ_clean_linker_1, # of connection points: 2
#     Edge 58, Type (0, 0), BuildingBlock: KIFKEQ_clean_linker_1, # of connection points: 2
#     Edge 59, Type (0, 0), BuildingBlock: KIFKEQ_clean_linker_1, # of connection points: 2
#     Edge 60, Type (0, 0), BuildingBlock: KIFKEQ_clean_linker_1, # of connection points: 2
#     Edge 61, Type (0, 0), BuildingBlock: KIFKEQ_clean_linker_1, # of connection points: 2
#     Edge 62, Type (0, 0), BuildingBlock: KIFKEQ_clean_linker_1, # of connection points: 2
#     Edge 63, Type (0, 0), BuildingBlock: KIFKEQ_clean_linker_1, # of connection points: 2
# Relax obj value: 0.015
# Max RMSD: 0.061
# Mean RMSD: 0.061
data_MOF--net-vbm--node1-JUFBIX_clean_sbu_0--edge1-KIFKEQ_clean_linker_1
_symmetry_space_group_name_H-M    P1
_symmetry_Int_Tables_number       1
_symmetry_cell_setting            triclinic
loop_
_symmetry_equiv_pos_as_xyz
'x, y, z'
_cell_length_a     78.554066
_cell_length_b     15.171471
_cell_length_c     59.921886
_cell_angle_alpha  90.037342
_cell_angle_beta   89.991461
_cell_angle_gamma 89.988033
loop_
_atom_site_label
_atom_site_type_symbol
_atom_site_fract_x
_atom_site_fract_y
_atom_site_fract_z
_atom_type_partial_charge
Co0 Co 0.1713 0.09252 0.13584 0.0
C1 C 0.15402 0.07692 0.17681 0.0
Co2 Co 0.14311 0.09436 0.13373 0.0
C3 C 0.2076 0.13295 0.13141 0.0
C4 C 0.20246 0.02266 0.1526 0.0
N5 N 0.19475 0.08312 0.1396 0.0
N6 N 0.22304 0.10572 0.13883 0.0
C7 C 0.21972 0.03628 0.15219 0.0
H8 H 0.2056 0.18826 0.12033 0.0
H9 H 0.19589 0.9727 0.16217 0.0
C10 C 0.16051 0.10684 0.0927 0.0
N11 N 0.11961 0.1058 0.13011 0.0
C12 C 0.1064 0.05805 0.13815 0.0
C13 C 0.11226 0.17281 0.11884 0.0
N14 N 0.09122 0.09412 0.1326 0.0
C15 C 0.0949 0.16616 0.12048 0.0
C16 C 0.15871 0.26048 0.13816 0.0
O17 O 0.17391 0.10004 0.10447 0.0
O18 O 0.14603 0.10652 0.10225 0.0
O19 O 0.14471 0.21886 0.13714 0.0
O20 O 0.17259 0.21747 0.1379 0.0
O21 O 0.14051 0.08154 0.16517 0.0
H22 H 0.11912 0.2241 0.11011 0.0
H23 H 0.10787 -0.00058 0.14826 0.0
O24 O 0.16841 0.08374 0.16723 0.0
O25 O 0.16972 0.9683 0.1337 0.0
O26 O 0.14187 0.96917 0.13051 0.0
C27 C 0.15581 0.92641 0.13161 0.0
H28 H 0.229 -0.00069 0.16167 0.0
H29 H 0.08564 0.21034 0.11313 0.0
Co30 Co 0.89031 0.89636 0.13523 0.0
C31 C 0.90686 0.91305 0.17644 0.0
Co32 Co 0.91856 0.89442 0.13362 0.0
C33 C 0.85422 0.85052 0.13131 0.0
C34 C 0.85841 0.97414 0.14764 0.0
N35 N 0.86671 0.90611 0.13799 0.0
N36 N 0.83856 0.88219 0.13616 0.0
C37 C 0.84117 0.95999 0.14637 0.0
H38 H 0.85655 0.78838 0.12296 0.0
H39 H 0.86449 0.03022 0.1554 0.0
C40 C 0.90187 0.88085 0.09233 0.0
N41 N 0.94212 0.88262 0.13077 0.0
C42 C 0.95521 0.93179 0.13864 0.0
C43 C 0.94966 0.81436 0.12018 0.0
N44 N 0.97048 0.89538 0.13366 0.0
C45 C 0.96699 0.82166 0.12208 0.0
C46 C 0.90283 0.72842 0.13801 0.0
O47 O 0.88833 0.88735 0.10383 0.0
O48 O 0.91625 0.88183 0.10213 0.0
O49 O 0.91683 0.76999 0.13707 0.0
O50 O 0.88895 0.77146 0.13758 0.0
O51 O 0.92051 0.9076 0.16506 0.0
H52 H 0.94296 0.76197 0.11166 0.0
H53 H 0.95358 0.9919 0.14815 0.0
O54 O 0.89255 0.90673 0.16663 0.0
O55 O 0.89206 0.02055 0.13276 0.0
O56 O 0.91994 0.01959 0.13036 0.0
C57 C 0.906 0.06241 0.131 0.0
H58 H 0.8313 0.00242 0.15299 0.0
H59 H 0.97637 0.77693 0.1152 0.0
Co60 Co 0.17157 0.90296 0.38174 0.0
C61 C 0.1542 0.91605 0.3406 0.0
Co62 Co 0.14337 0.90249 0.38362 0.0
C63 C 0.20789 0.86151 0.38583 0.0
C64 C 0.20272 0.97285 0.36501 0.0
N65 N 0.19503 0.91187 0.37786 0.0
N66 N 0.22332 0.88889 0.37841 0.0
C67 C 0.21998 0.95898 0.36527 0.0
H68 H 0.20589 0.80579 0.39677 0.0
H69 H 0.19615 0.02346 0.35566 0.0
C70 C 0.16084 0.89358 0.42486 0.0
N71 N 0.1199 0.89206 0.38771 0.0
C72 C 0.10644 0.93021 0.37741 0.0
C73 C 0.11293 0.83618 0.40262 0.0
N74 N 0.09137 0.89956 0.38533 0.0
C75 C 0.09555 0.84077 0.40126 0.0
C76 C 0.15874 0.73555 0.38024 0.0
O77 O 0.17431 0.89261 0.4131 0.0
O78 O 0.14646 0.89873 0.4152 0.0
O79 O 0.14488 0.7778 0.38229 0.0
O80 O 0.17267 0.778 0.37894 0.0
O81 O 0.14067 0.90778 0.35207 0.0
H82 H 0.12006 0.79407 0.41378 0.0
H83 H 0.10769 0.97832 0.36419 0.0
O84 O 0.16856 0.91417 0.3504 0.0
O85 O 0.17011 0.02781 0.38465 0.0
O86 O 0.14214 0.02721 0.38487 0.0
C87 C 0.1561 0.06978 0.38524 0.0
H88 H 0.22924 -0.0036 0.35587 0.0
H89 H 0.0867 0.80436 0.41157 0.0
Co90 Co 0.89064 0.09151 0.38131 0.0
C91 C 0.90723 0.07657 0.33993 0.0
Co92 Co 0.91886 0.09214 0.38267 0.0
C93 C 0.85458 0.13821 0.38463 0.0
C94 C 0.85875 0.0119 0.36966 0.0
N95 N 0.86705 0.08158 0.37849 0.0
N96 N 0.83891 0.10571 0.38022 0.0
C97 C 0.8415 0.02625 0.37085 0.0
H98 H 0.85691 0.20152 0.39239 0.0
H99 H 0.86482 0.95424 0.36263 0.0
C100 C 0.90207 0.10318 0.42415 0.0
N101 N 0.94238 0.10368 0.38601 0.0
C102 C 0.9558 0.06364 0.37602 0.0
C103 C 0.94945 0.16214 0.40021 0.0
N104 N 0.9709 0.09574 0.38344 0.0
C105 C 0.96681 0.15738 0.39872 0.0
C106 C 0.9033 0.25896 0.37915 0.0
O107 O 0.8885 0.10393 0.41262 0.0
O108 O 0.91636 0.09703 0.41429 0.0
O109 O 0.91717 0.21672 0.38112 0.0
O110 O 0.88938 0.21644 0.37806 0.0
O111 O 0.92092 0.0858 0.35107 0.0
H112 H 0.94238 0.20584 0.41107 0.0
H113 H 0.95448 0.01288 0.36344 0.0
O114 O 0.89298 0.0782 0.35002 0.0
O115 O 0.89238 0.9668 0.3847 0.0
O116 O 0.92032 0.96749 0.38411 0.0
C117 C 0.90639 0.92486 0.38497 0.0
H118 H 0.83162 0.98252 0.36484 0.0
H119 H 0.97572 0.1954 0.40857 0.0
Co120 Co 0.91842 0.89848 0.88249 0.0
C121 C 0.90159 0.88703 0.92395 0.0
Co122 Co 0.89018 0.89952 0.88117 0.0
C123 C 0.95511 0.93195 0.87689 0.0
C124 C 0.94928 0.82179 0.89785 0.0
N125 N 0.94192 0.88633 0.88572 0.0
N126 N 0.97032 0.89703 0.88282 0.0
C127 C 0.96663 0.8279 0.89601 0.0
H128 H 0.9536 0.98875 0.86615 0.0
H129 H 0.94244 0.77306 0.90748 0.0
C130 C 0.907 0.91475 0.83981 0.0
N131 N 0.86665 0.91092 0.87782 0.0
C132 C 0.85361 0.85725 0.88368 0.0
C133 C 0.85922 0.97762 0.86657 0.0
N134 N 0.83843 0.88792 0.87627 0.0
C135 C 0.84199 0.96381 0.86561 0.0
C136 C 0.90605 0.06596 0.88503 0.0
O137 O 0.92064 0.90591 0.85101 0.0
O138 O 0.89273 0.91249 0.84983 0.0
O139 O 0.89203 0.02417 0.88457 0.0
O140 O 0.91998 0.02317 0.88428 0.0
O141 O 0.88795 0.88742 0.91251 0.0
H142 H 0.86596 0.03188 0.8589 0.0
H143 H 0.85529 0.79524 0.89234 0.0
O144 O 0.91589 0.89223 0.91404 0.0
O145 O 0.91654 0.77403 0.88057 0.0
O146 O 0.88873 0.77454 0.87793 0.0
C147 C 0.90265 0.7319 0.87876 0.0
H148 H 0.97587 0.78589 0.90419 0.0
H149 H 0.8328 0.00581 0.85736 0.0
Co150 Co 0.14285 0.09533 0.88343 0.0
C151 C 0.16078 0.10405 0.92418 0.0
Co152 Co 0.17105 0.09565 0.88074 0.0
C153 C 0.10562 0.06331 0.88062 0.0
C154 C 0.11306 0.17086 0.90154 0.0
N155 N 0.11946 0.10736 0.88822 0.0
N156 N 0.09085 0.09743 0.88874 0.0
C157 C 0.0957 0.16547 0.90177 0.0
H158 H 0.10643 0.0071 0.86956 0.0
H159 H 0.12058 0.21877 0.91057 0.0
C160 C 0.15298 0.08346 0.84005 0.0
N161 N 0.19445 0.08608 0.87638 0.0
C162 C 0.2074 0.13493 0.88467 0.0
C163 C 0.20199 0.02654 0.86294 0.0
N164 N 0.22277 0.10806 0.87688 0.0
C165 C 0.21927 0.03981 0.86318 0.0
C166 C 0.15547 0.92847 0.88456 0.0
O167 O 0.13968 0.08816 0.85211 0.0
O168 O 0.16757 0.08722 0.84927 0.0
O169 O 0.16944 0.97054 0.88311 0.0
O170 O 0.1415 0.9709 0.8851 0.0
O171 O 0.17416 0.10373 0.91222 0.0
H172 H 0.1953 0.97737 0.85324 0.0
H173 H 0.20552 0.1892 0.89613 0.0
O174 O 0.14631 0.1007 0.91475 0.0
O175 O 0.14458 0.22023 0.88156 0.0
O176 O 0.17236 0.22044 0.87847 0.0
C177 C 0.15843 0.26269 0.87964 0.0
H178 H 0.08739 0.20977 0.91077 0.0
H179 H 0.22845 0.00331 0.8534 0.0
Co180 Co 0.91849 0.09697 0.63366 0.0
C181 C 0.90139 0.11006 0.59247 0.0
Co182 Co 0.89025 0.09505 0.63532 0.0
C183 C 0.95514 0.06015 0.63808 0.0
C184 C 0.94944 0.17753 0.61971 0.0
N185 N 0.942 0.10922 0.63036 0.0
N186 N 0.97037 0.09662 0.63295 0.0
C187 C 0.9668 0.17033 0.62143 0.0
H188 H 0.95359 0.00012 0.64762 0.0
H189 H 0.94266 0.22995 0.61131 0.0
C190 C 0.90725 0.07908 0.67647 0.0
N191 N 0.86673 0.08403 0.63898 0.0
C192 C 0.85364 0.13705 0.63292 0.0
C193 C 0.85938 0.0187 0.65083 0.0
N194 N 0.83851 0.10727 0.64075 0.0
C195 C 0.84217 0.03258 0.6519 0.0
C196 C 0.90602 0.92898 0.63111 0.0
O197 O 0.92086 0.08405 0.66504 0.0
O198 O 0.89294 0.08556 0.6667 0.0
O199 O 0.89209 0.97087 0.63292 0.0
O200 O 0.91995 0.97179 0.63038 0.0
O201 O 0.88785 0.10336 0.60398 0.0
H202 H 0.86618 0.96557 0.6589 0.0
H203 H 0.85525 0.19813 0.62383 0.0
O204 O 0.91578 0.10933 0.60223 0.0
O205 O 0.91666 0.22139 0.63713 0.0
O206 O 0.88876 0.21995 0.63758 0.0
C207 C 0.90265 0.26297 0.63803 0.0
H208 H 0.97612 0.21516 0.61449 0.0
H209 H 0.83305 0.99155 0.66059 0.0
Co210 Co 0.14288 0.89388 0.63406 0.0
C211 C 0.16055 0.8825 0.59337 0.0
Co212 Co 0.17105 0.89468 0.63684 0.0
C213 C 0.10622 0.9308 0.63829 0.0
C214 C 0.11204 0.81786 0.61824 0.0
N215 N 0.11941 0.88332 0.63008 0.0
N216 N 0.09103 0.89598 0.63231 0.0
C217 C 0.09468 0.82507 0.61973 0.0
H218 H 0.1077 0.98835 0.6488 0.0
H219 H 0.11889 0.76736 0.60919 0.0
C220 C 0.1533 0.90844 0.6775 0.0
N221 N 0.19449 0.90364 0.64086 0.0
C222 C 0.20739 0.85509 0.6323 0.0
C223 C 0.20214 0.96295 0.65427 0.0
N224 N 0.22281 0.88198 0.63987 0.0
C225 C 0.21942 0.94986 0.65373 0.0
C226 C 0.15562 0.06127 0.63253 0.0
O227 O 0.14003 0.9043 0.6654 0.0
O228 O 0.16788 0.90313 0.66834 0.0
O229 O 0.16959 0.01959 0.63451 0.0
O230 O 0.14171 0.01848 0.63164 0.0
O231 O 0.17388 0.8869 0.60537 0.0
H232 H 0.19552 0.01192 0.66412 0.0
H233 H 0.20544 0.80109 0.62078 0.0
O234 O 0.146 0.88438 0.60268 0.0
O235 O 0.1444 0.7694 0.63663 0.0
O236 O 0.17224 0.76951 0.63906 0.0
C237 C 0.15829 0.72711 0.6383 0.0
H238 H 0.0854 0.78214 0.61195 0.0
H239 H 0.22867 0.98627 0.66342 0.0
Co240 Co 0.67094 0.59549 0.13681 0.0
C241 C 0.65413 0.58141 0.1779 0.0
Co242 Co 0.64272 0.59543 0.13478 0.0
C243 C 0.70703 0.64068 0.13268 0.0
C244 C 0.70281 0.51858 0.14967 0.0
N245 N 0.69453 0.58587 0.1397 0.0
N246 N 0.72269 0.60925 0.13763 0.0
C247 C 0.72006 0.5324 0.14827 0.0
H248 H 0.70472 0.702 0.12396 0.0
H249 H 0.69671 0.46315 0.15769 0.0
C250 C 0.65949 0.60634 0.09361 0.0
N251 N 0.61919 0.60715 0.13178 0.0
C252 C 0.60605 0.55974 0.14012 0.0
C253 C 0.61175 0.67337 0.12033 0.0
N254 N 0.59079 0.59513 0.13455 0.0
C255 C 0.59441 0.66644 0.12209 0.0
C256 C 0.65837 0.76253 0.13873 0.0
O257 O 0.67302 0.60291 0.10525 0.0
O258 O 0.64511 0.60475 0.10334 0.0
O259 O 0.64443 0.72043 0.13764 0.0
O260 O 0.6723 0.72003 0.13872 0.0
O261 O 0.64065 0.58458 0.16615 0.0
H262 H 0.61853 0.72388 0.11121 0.0
H263 H 0.60762 0.50132 0.15028 0.0
O264 O 0.66857 0.5876 0.16838 0.0
O265 O 0.6692 0.47069 0.13477 0.0
O266 O 0.64133 0.47066 0.1321 0.0
C267 C 0.6553 0.42835 0.13299 0.0
H268 H 0.72992 0.49036 0.15505 0.0
H269 H 0.58513 0.70947 0.11436 0.0
Co270 Co 0.39024 0.39566 0.13599 0.0
C271 C 0.40852 0.40892 0.17648 0.0
Co272 Co 0.4184 0.39465 0.13297 0.0
C273 C 0.35392 0.35696 0.13217 0.0
C274 C 0.35941 0.46397 0.15429 0.0
N275 N 0.3669 0.40516 0.14059 0.0
N276 N 0.33858 0.38347 0.14011 0.0
C277 C 0.34212 0.45085 0.15407 0.0
H278 H 0.35576 0.30344 0.12048 0.0
H279 H 0.36614 0.51258 0.16412 0.0
C280 C 0.40016 0.38362 0.09244 0.0
N281 N 0.44177 0.38258 0.12805 0.0
C282 C 0.45559 0.42702 0.13555 0.0
C283 C 0.44819 0.31865 0.11488 0.0
N284 N 0.47036 0.39277 0.1275 0.0
C285 C 0.46555 0.32426 0.11462 0.0
C286 C 0.40289 0.22799 0.13734 0.0
O287 O 0.38691 0.38818 0.10456 0.0
O288 O 0.41474 0.38544 0.10164 0.0
O289 O 0.41677 0.27022 0.13559 0.0
O290 O 0.38896 0.27047 0.13818 0.0
O291 O 0.42176 0.4049 0.16427 0.0
H292 H 0.44068 0.27021 0.10601 0.0
H293 H 0.45478 0.48354 0.14651 0.0
O294 O 0.3939 0.40379 0.16742 0.0
O295 O 0.39181 0.52052 0.13367 0.0
O296 O 0.41969 0.51924 0.13053 0.0
C297 C 0.40578 0.56211 0.13156 0.0
H298 H 0.33297 0.48689 0.16402 0.0
H299 H 0.47392 0.27975 0.10576 0.0
Co300 Co 0.67131 0.39344 0.38131 0.0
C301 C 0.65426 0.40823 0.34046 0.0
Co302 Co 0.64312 0.3925 0.3837 0.0
C303 C 0.70743 0.34827 0.385 0.0
C304 C 0.70306 0.47001 0.3679 0.0
N305 N 0.69487 0.40297 0.3781 0.0
N306 N 0.72305 0.37955 0.37974 0.0
C307 C 0.72032 0.45617 0.36903 0.0
H308 H 0.7052 0.28712 0.39382 0.0
H309 H 0.69688 0.52525 0.35989 0.0
C310 C 0.66019 0.38003 0.42459 0.0
N311 N 0.61959 0.38105 0.38689 0.0
C312 C 0.6065 0.43013 0.37902 0.0
C313 C 0.61207 0.31321 0.39763 0.0
N314 N 0.59124 0.39408 0.38414 0.0
C315 C 0.59473 0.32067 0.39583 0.0
C316 C 0.65874 0.22594 0.37925 0.0
O317 O 0.6736 0.38709 0.41283 0.0
O318 O 0.64573 0.3798 0.41506 0.0
O319 O 0.64477 0.26789 0.38016 0.0
O320 O 0.67265 0.26861 0.37957 0.0
O321 O 0.64086 0.40602 0.35238 0.0
H322 H 0.61879 0.26089 0.40616 0.0
H323 H 0.60812 0.48982 0.36935 0.0
O324 O 0.66875 0.4006 0.34978 0.0
O325 O 0.66959 0.51799 0.38319 0.0
O326 O 0.64181 0.5174 0.38704 0.0
C327 C 0.65572 0.56005 0.3856 0.0
H328 H 0.73011 0.49801 0.36202 0.0
H329 H 0.58536 0.2762 0.4028 0.0
Co330 Co 0.39058 0.5959 0.38002 0.0
C331 C 0.40831 0.58196 0.3393 0.0
Co332 Co 0.41876 0.59674 0.38277 0.0
C333 C 0.35425 0.636 0.38448 0.0
C334 C 0.35947 0.52767 0.36265 0.0
N335 N 0.36713 0.58704 0.37601 0.0
N336 N 0.33882 0.60934 0.37687 0.0
C337 C 0.3422 0.54114 0.3631 0.0
H338 H 0.35624 0.69019 0.39593 0.0
H339 H 0.36607 0.47845 0.35285 0.0
C340 C 0.4011 0.60842 0.42351 0.0
N341 N 0.44223 0.60728 0.38672 0.0
C342 C 0.45542 0.55975 0.37851 0.0
C343 C 0.44961 0.67283 0.39851 0.0
N344 N 0.47061 0.59463 0.38444 0.0
C345 C 0.46697 0.66562 0.397 0.0
C346 C 0.40336 0.76348 0.37849 0.0
O347 O 0.38776 0.60382 0.41153 0.0
O348 O 0.41564 0.6065 0.41417 0.0
O349 O 0.41724 0.7212 0.38015 0.0
O350 O 0.38941 0.72108 0.37778 0.0
O351 O 0.42159 0.58611 0.35139 0.0
H352 H 0.44277 0.72339 0.40756 0.0
H353 H 0.45393 0.50213 0.36802 0.0
O354 O 0.39374 0.5873 0.34849 0.0
O355 O 0.39203 0.47099 0.38239 0.0
O356 O 0.41992 0.47215 0.38523 0.0
C357 C 0.406 0.42934 0.38436 0.0
H358 H 0.33295 0.50478 0.35341 0.0
H359 H 0.47625 0.70861 0.40475 0.0
Co360 Co 0.41832 0.40032 0.88299 0.0
C361 C 0.40081 0.39077 0.92385 0.0
Co362 Co 0.39014 0.39995 0.88036 0.0
C363 C 0.45502 0.43724 0.87874 0.0
C364 C 0.44919 0.32292 0.89823 0.0
N365 N 0.44182 0.38945 0.88679 0.0
N366 N 0.47021 0.4016 0.88442 0.0
C367 C 0.46655 0.32983 0.89666 0.0
H368 H 0.45355 0.49555 0.86851 0.0
H369 H 0.44234 0.27176 0.90703 0.0
C370 C 0.40772 0.41268 0.83955 0.0
N371 N 0.36667 0.40874 0.87642 0.0
C372 C 0.3538 0.35959 0.8848 0.0
C373 C 0.35901 0.46789 0.86299 0.0
N374 N 0.33838 0.38599 0.87711 0.0
C375 C 0.34175 0.45418 0.86336 0.0
C376 C 0.40553 0.56723 0.88414 0.0
O377 O 0.42104 0.41083 0.85162 0.0
O378 O 0.39319 0.40587 0.84878 0.0
O379 O 0.39167 0.52483 0.88194 0.0
O380 O 0.4195 0.52504 0.8856 0.0
O381 O 0.38743 0.39438 0.91192 0.0
H382 H 0.3656 0.51695 0.85316 0.0
H383 H 0.35577 0.30532 0.89622 0.0
O384 O 0.41532 0.39139 0.9144 0.0
O385 O 0.41676 0.2752 0.88019 0.0
O386 O 0.38889 0.27541 0.87886 0.0
C387 C 0.40283 0.23299 0.87904 0.0
H388 H 0.47583 0.28602 0.90412 0.0
H389 H 0.33249 0.49019 0.8536 0.0
Co390 Co 0.64315 0.59462 0.88395 0.0
C391 C 0.66033 0.60782 0.92516 0.0
Co392 Co 0.6714 0.59253 0.88227 0.0
C393 C 0.60643 0.55947 0.87911 0.0
C394 C 0.61227 0.67289 0.89896 0.0
N395 N 0.61963 0.6066 0.88741 0.0
N396 N 0.59124 0.59533 0.88474 0.0
C397 C 0.5949 0.66655 0.8972 0.0
H398 H 0.6079 0.50133 0.8688 0.0
H399 H 0.61911 0.72329 0.90804 0.0
C400 C 0.65431 0.5764 0.8411 0.0
N401 N 0.69491 0.58138 0.87859 0.0
C402 C 0.70797 0.63508 0.88436 0.0
C403 C 0.70229 0.51497 0.86714 0.0
N404 N 0.72311 0.60472 0.87671 0.0
C405 C 0.7195 0.529 0.86598 0.0
C406 C 0.65556 0.4267 0.88663 0.0
O407 O 0.64072 0.58435 0.85247 0.0
O408 O 0.66864 0.5801 0.85095 0.0
O409 O 0.6696 0.46807 0.88552 0.0
O410 O 0.64167 0.46984 0.88641 0.0
O411 O 0.67387 0.60376 0.91357 0.0
H412 H 0.69551 0.46078 0.85948 0.0
H413 H 0.70633 0.6969 0.89314 0.0
O414 O 0.64592 0.60439 0.91547 0.0
O415 O 0.64495 0.71871 0.88133 0.0
O416 O 0.6728 0.71786 0.87918 0.0
C417 C 0.65887 0.76066 0.8797 0.0
H418 H 0.58563 0.71019 0.90474 0.0
H419 H 0.72865 0.48726 0.85755 0.0
Co420 Co 0.41855 0.59426 0.63315 0.0
C421 C 0.4012 0.60362 0.59218 0.0
Co422 Co 0.39037 0.59457 0.63562 0.0
C423 C 0.45523 0.55838 0.63778 0.0
C424 C 0.44939 0.67175 0.61793 0.0
N425 N 0.44203 0.60548 0.62947 0.0
N426 N 0.47041 0.59418 0.63215 0.0
C427 C 0.46675 0.66535 0.61969 0.0
H428 H 0.45375 0.5005 0.64816 0.0
H429 H 0.44254 0.72243 0.60896 0.0
C430 C 0.40784 0.58201 0.67653 0.0
N431 N 0.36691 0.58532 0.63947 0.0
C432 C 0.35399 0.63394 0.631 0.0
C433 C 0.3593 0.52608 0.65291 0.0
N434 N 0.33859 0.60709 0.63867 0.0
C435 C 0.34202 0.53919 0.65248 0.0
C436 C 0.40585 0.42731 0.63196 0.0
O437 O 0.42118 0.58392 0.66453 0.0
O438 O 0.39333 0.5887 0.66723 0.0
O439 O 0.39197 0.46972 0.63405 0.0
O440 O 0.41981 0.46952 0.63058 0.0
O441 O 0.38776 0.60009 0.60402 0.0
H442 H 0.36593 0.47735 0.6628 0.0
H443 H 0.35591 0.68814 0.61955 0.0
O444 O 0.41565 0.60301 0.60174 0.0
O445 O 0.41692 0.71935 0.63592 0.0
O446 O 0.38904 0.71912 0.63711 0.0
C447 C 0.40298 0.76155 0.63701 0.0
H448 H 0.47602 0.7091 0.61221 0.0
H449 H 0.3328 0.50299 0.66225 0.0
Co450 Co 0.64328 0.40265 0.63427 0.0
C451 C 0.66036 0.39079 0.59299 0.0
Co452 Co 0.67153 0.40358 0.63593 0.0
C453 C 0.60657 0.43807 0.63887 0.0
C454 C 0.61246 0.3226 0.6198 0.0
N455 N 0.61979 0.39021 0.63088 0.0
N456 N 0.59141 0.40145 0.6335 0.0
C457 C 0.5951 0.32896 0.62154 0.0
H458 H 0.60802 0.49727 0.64879 0.0
H459 H 0.61932 0.2712 0.6111 0.0
C460 C 0.65447 0.41888 0.67715 0.0
N461 N 0.69504 0.41471 0.63958 0.0
C462 C 0.70814 0.36188 0.63341 0.0
C463 C 0.70239 0.47994 0.65148 0.0
N464 N 0.72326 0.39169 0.64122 0.0
C465 C 0.71961 0.46619 0.65247 0.0
C466 C 0.65574 0.57016 0.63201 0.0
O467 O 0.64088 0.41326 0.66571 0.0
O468 O 0.6688 0.41368 0.66735 0.0
O469 O 0.66968 0.52797 0.63341 0.0
O470 O 0.64177 0.52768 0.63159 0.0
O471 O 0.67394 0.39428 0.60453 0.0
H472 H 0.69558 0.53296 0.65961 0.0
H473 H 0.70652 0.30095 0.62424 0.0
O474 O 0.646 0.39317 0.6028 0.0
O475 O 0.64516 0.27788 0.63716 0.0
O476 O 0.67304 0.27896 0.63832 0.0
C477 C 0.65914 0.23612 0.63836 0.0
H478 H 0.58584 0.2844 0.61432 0.0
H479 H 0.72872 0.50721 0.66117 0.0
H480 H 0.23006 0.27268 0.12463 0.0
H481 H 0.25392 0.02737 0.14369 0.0
H482 H 0.25802 0.34022 0.12071 0.0
H483 H 0.28163 0.09604 0.14123 0.0
H484 H 0.33129 0.22047 0.12334 0.0
H485 H 0.30329 0.15451 0.11872 0.0
H486 H 0.27997 0.39284 0.1438 0.0
H487 H 0.30774 0.46052 0.14698 0.0
C488 C 0.2412 0.23282 0.12788 0.0
C489 C 0.23959 0.14463 0.1348 0.0
C490 C 0.2573 0.27197 0.12589 0.0
C491 C 0.27219 0.22413 0.13089 0.0
C492 C 0.27056 0.13511 0.13702 0.0
C493 C 0.25453 0.09589 0.13881 0.0
C494 C 0.32021 0.25957 0.12747 0.0
C495 C 0.32195 0.34575 0.13586 0.0
C496 C 0.30409 0.22122 0.12507 0.0
C497 C 0.28926 0.26772 0.13112 0.0
C498 C 0.291 0.35491 0.13875 0.0
C499 C 0.30706 0.39344 0.14095 0.0
H500 H 0.80974 0.9609 0.12226 0.0
H501 H 0.83061 0.71086 0.14242 0.0
H502 H 0.78154 0.89502 0.11916 0.0
H503 H 0.80232 0.64498 0.14079 0.0
H504 H 0.75145 0.52866 0.12413 0.0
H505 H 0.77964 0.59398 0.12031 0.0
H506 H 0.75901 0.8466 0.14029 0.0
H507 H 0.73072 0.78112 0.14266 0.0
C508 C 0.8082 0.89158 0.12605 0.0
C509 C 0.82229 0.84086 0.13258 0.0
C510 C 0.79201 0.85375 0.1245 0.0
C511 C 0.78941 0.76447 0.12997 0.0
C512 C 0.8037 0.71341 0.13604 0.0
C513 C 0.81997 0.751 0.1371 0.0
C514 C 0.75302 0.59837 0.12742 0.0
C515 C 0.73897 0.64995 0.13369 0.0
C516 C 0.7692 0.63592 0.12544 0.0
C517 C 0.77185 0.72581 0.13021 0.0
C518 C 0.7576 0.77764 0.13606 0.0
C519 C 0.74133 0.74028 0.13753 0.0
H520 H 0.30791 0.53224 0.37076 0.0
H521 H 0.3317 0.77351 0.39307 0.0
H522 H 0.2802 0.60046 0.37392 0.0
H523 H 0.30375 0.84017 0.39771 0.0
H524 H 0.25425 0.96656 0.37304 0.0
H525 H 0.28194 0.89771 0.37542 0.0
H526 H 0.25834 0.65463 0.39677 0.0
H527 H 0.2304 0.72223 0.39289 0.0
C528 C 0.3073 0.59973 0.3765 0.0
C529 C 0.32224 0.64756 0.38121 0.0
C530 C 0.29126 0.63862 0.37869 0.0
C531 C 0.28959 0.72634 0.38595 0.0
C532 C 0.30448 0.77304 0.39164 0.0
C533 C 0.32058 0.73432 0.38924 0.0
C534 C 0.25485 0.89822 0.37807 0.0
C535 C 0.23989 0.84983 0.38232 0.0
C536 C 0.27087 0.8589 0.37982 0.0
C537 C 0.27252 0.77012 0.38617 0.0
C538 C 0.25762 0.72266 0.39141 0.0
C539 C 0.24153 0.76187 0.38944 0.0
H540 H 0.83086 0.27637 0.373 0.0
H541 H 0.81018 0.0282 0.39492 0.0
H542 H 0.80259 0.34252 0.3748 0.0
H543 H 0.78202 0.09446 0.39812 0.0
H544 H 0.73097 0.20731 0.37511 0.0
H545 H 0.75927 0.14165 0.37711 0.0
H546 H 0.78022 0.39511 0.39573 0.0
H547 H 0.752 0.46052 0.39233 0.0
C548 C 0.82027 0.2367 0.37872 0.0
C549 C 0.82264 0.14725 0.38369 0.0
C550 C 0.80402 0.27447 0.37987 0.0
C551 C 0.78979 0.22402 0.3865 0.0
C552 C 0.79244 0.13518 0.39237 0.0
C553 C 0.80861 0.09715 0.39073 0.0
C554 C 0.74165 0.24832 0.37986 0.0
C555 C 0.73936 0.33887 0.38345 0.0
C556 C 0.75792 0.21086 0.38112 0.0
C557 C 0.77226 0.26286 0.38647 0.0
C558 C 0.7697 0.35303 0.39098 0.0
C559 C 0.7535 0.39062 0.38924 0.0
H560 H 0.73625 0.70316 0.91052 0.0
H561 H 0.74729 0.60142 0.84482 0.0
H562 H 0.76471 0.77117 0.91179 0.0
H563 H 0.77542 0.66816 0.84611 0.0
H564 H 0.81402 0.89224 0.8447 0.0
H565 H 0.78589 0.82562 0.84621 0.0
H566 H 0.79703 0.72085 0.91155 0.0
H567 H 0.8255 0.78875 0.91005 0.0
C568 C 0.74472 0.6956 0.89639 0.0
C569 C 0.73957 0.64678 0.87761 0.0
C570 C 0.76102 0.73365 0.89719 0.0
C571 C 0.77227 0.72485 0.87905 0.0
C572 C 0.76701 0.67644 0.8603 0.0
C573 C 0.75093 0.63771 0.85963 0.0
C574 C 0.81048 0.85561 0.85948 0.0
C575 C 0.82196 0.84599 0.8773 0.0
C576 C 0.79439 0.81694 0.86028 0.0
C577 C 0.78926 0.76806 0.87899 0.0
C578 C 0.80063 0.75875 0.89698 0.0
C579 C 0.81693 0.79673 0.89605 0.0
H580 H 0.33129 0.22029 0.8922 0.0
H581 H 0.30751 0.46384 0.87162 0.0
H582 H 0.30332 0.15311 0.89634 0.0
H583 H 0.27977 0.39545 0.87434 0.0
H584 H 0.23002 0.27257 0.89273 0.0
H585 H 0.25801 0.33903 0.89704 0.0
H586 H 0.28139 0.0984 0.87352 0.0
H587 H 0.25363 0.03045 0.87063 0.0
C588 C 0.32016 0.25985 0.88866 0.0
C589 C 0.32181 0.34741 0.88126 0.0
C590 C 0.30406 0.22089 0.89078 0.0
C591 C 0.28917 0.26828 0.88545 0.0
C592 C 0.29083 0.35674 0.87882 0.0
C593 C 0.30688 0.39578 0.87689 0.0
C594 C 0.24111 0.23314 0.88888 0.0
C595 C 0.23939 0.1462 0.88101 0.0
C596 C 0.25723 0.27174 0.8911 0.0
C597 C 0.27208 0.2247 0.88539 0.0
C598 C 0.27036 0.13681 0.87829 0.0
C599 C 0.25429 0.09807 0.87626 0.0
H600 H 0.74766 0.39451 0.67285 0.0
H601 H 0.73627 0.29404 0.60713 0.0
H602 H 0.77576 0.32787 0.6712 0.0
H603 H 0.76469 0.22572 0.60554 0.0
H604 H 0.82542 0.20519 0.60681 0.0
H605 H 0.797 0.27368 0.60545 0.0
H606 H 0.78616 0.17139 0.67113 0.0
H607 H 0.81425 0.10457 0.67255 0.0
C608 C 0.75121 0.35859 0.65795 0.0
C609 C 0.73975 0.34987 0.64007 0.0
C610 C 0.76729 0.31982 0.65708 0.0
C611 C 0.77243 0.27152 0.63826 0.0
C612 C 0.76109 0.26314 0.6202 0.0
C613 C 0.74481 0.30136 0.62118 0.0
C614 C 0.81693 0.19789 0.62092 0.0
C615 C 0.82205 0.14928 0.63974 0.0
C616 C 0.80065 0.23621 0.62007 0.0
C617 C 0.78938 0.22783 0.6382 0.0
C618 C 0.79458 0.17945 0.65696 0.0
C619 C 0.81065 0.14058 0.65769 0.0
H620 H 0.25364 0.9604 0.64555 0.0
H621 H 0.23006 0.71776 0.62383 0.0
H622 H 0.28143 0.89307 0.64227 0.0
H623 H 0.25808 0.65189 0.61909 0.0
H624 H 0.30782 0.52831 0.64418 0.0
H625 H 0.28001 0.59595 0.64153 0.0
H626 H 0.30326 0.8387 0.61931 0.0
H627 H 0.33131 0.77232 0.62341 0.0
C628 C 0.25432 0.89278 0.63991 0.0
C629 C 0.23942 0.84429 0.63542 0.0
C630 C 0.2704 0.85441 0.63765 0.0
C631 C 0.27214 0.76654 0.63054 0.0
C632 C 0.25729 0.71918 0.62503 0.0
C633 C 0.24115 0.75741 0.62751 0.0
C634 C 0.30711 0.59632 0.63887 0.0
C635 C 0.32198 0.64507 0.63446 0.0
C636 C 0.29102 0.63491 0.63698 0.0
C637 C 0.28925 0.72329 0.63033 0.0
C638 C 0.30408 0.77099 0.62489 0.0
C639 C 0.32023 0.73249 0.62699 0.0
H640 H 0.12731 0.8962 0.31151 0.0
H641 H 0.1795 0.98456 0.31525 0.0
H642 H 0.12665 0.9345 0.27181 0.0
H643 H 0.17861 0.02701 0.27643 0.0
H644 H 0.17965 0.01198 0.20219 0.0
H645 H 0.17888 0.96832 0.24096 0.0
H646 H 0.12629 0.05104 0.24531 0.0
H647 H 0.12687 0.09045 0.20568 0.0
C648 C 0.13861 0.92383 0.30386 0.0
C649 C 0.15352 0.93609 0.31644 0.0
C650 C 0.1382 0.94664 0.28117 0.0
C651 C 0.15262 0.98335 0.27072 0.0
C652 C 0.16739 -0.00333 0.28356 0.0
C653 C 0.16789 0.97258 0.30598 0.0
C654 C 0.16792 0.0215 0.2114 0.0
C655 C 0.15337 0.05566 0.2009 0.0
C656 C 0.16749 -0.00329 0.23377 0.0
C657 C 0.15258 0.00705 0.24653 0.0
C658 C 0.13795 0.04122 0.23601 0.0
C659 C 0.13831 0.06467 0.21337 0.0
H660 H 0.9338 0.09655 0.31046 0.0
H661 H 0.88169 0.0075 0.31505 0.0
H662 H 0.93417 0.05753 0.27082 0.0
H663 H 0.88229 0.96449 0.2762 0.0
H664 H 0.88112 0.97819 0.2017 0.0
H665 H 0.88187 0.02234 0.2405 0.0
H666 H 0.93443 0.939 0.24492 0.0
H667 H 0.93386 0.89894 0.20537 0.0
C668 C 0.92246 0.0686 0.30301 0.0
C669 C 0.90766 0.05621 0.3158 0.0
C670 C 0.9227 0.0454 0.28036 0.0
C671 C 0.90822 0.00819 0.27016 0.0
C672 C 0.89355 0.99503 0.28318 0.0
C673 C 0.89322 0.01945 0.30559 0.0
C674 C 0.89282 0.96863 0.21095 0.0
C675 C 0.90739 0.93424 0.20051 0.0
C676 C 0.89325 0.99374 0.23332 0.0
C677 C 0.90817 0.98357 0.24606 0.0
C678 C 0.92277 0.94884 0.23561 0.0
C679 C 0.92242 0.92502 0.21301 0.0
H680 H 0.93425 0.0925 0.70548 0.0
H681 H 0.88142 0.01501 0.70165 0.0
H682 H 0.93467 0.05272 0.74505 0.0
H683 H 0.88203 0.97111 0.74042 0.0
H684 H 0.88161 0.98511 0.8149 0.0
H685 H 0.8824 0.0289 0.77612 0.0
H686 H 0.93419 0.93419 0.77092 0.0
H687 H 0.93364 0.89448 0.81049 0.0
C688 C 0.92276 0.06688 0.71309 0.0
C689 C 0.90775 0.05805 0.70054 0.0
C690 C 0.92303 0.04323 0.7357 0.0
C691 C 0.90835 0.00907 0.74609 0.0
C692 C 0.89346 -0.00069 0.73329 0.0
C693 C 0.89312 0.02425 0.71093 0.0
C694 C 0.89315 0.97297 0.80549 0.0
C695 C 0.90752 0.93552 0.81572 0.0
C696 C 0.8936 -0.00215 0.78313 0.0
C697 C 0.90831 0.9844 0.77017 0.0
C698 C 0.92271 0.94656 0.7804 0.0
C699 C 0.92235 0.92295 0.80301 0.0
H700 H 0.12556 0.02105 0.81665 0.0
H701 H 0.17779 0.10409 0.80875 0.0
H702 H 0.12489 0.97449 0.77765 0.0
H703 H 0.17696 0.06131 0.76968 0.0
H704 H 0.17805 0.88896 0.70895 0.0
H705 H 0.17705 0.93222 0.74799 0.0
H706 H 0.12498 0.01852 0.73962 0.0
H707 H 0.12582 0.9715 0.70067 0.0
C708 C 0.13678 0.03098 0.80646 0.0
C709 C 0.15175 0.06585 0.81581 0.0
C710 C 0.13641 0.00436 0.78407 0.0
C711 C 0.15095 0.01283 0.7705 0.0
C712 C 0.16566 0.0513 0.77972 0.0
C713 C 0.1661 0.07682 0.8021 0.0
C714 C 0.16633 0.91627 0.71551 0.0
C715 C 0.15203 0.9269 0.70171 0.0
C716 C 0.16579 0.94205 0.73787 0.0
C717 C 0.15102 0.98044 0.74697 0.0
C718 C 0.13654 0.98871 0.73329 0.0
C719 C 0.13701 0.96184 0.71093 0.0
H720 H 0.67918 0.38694 0.30925 0.0
H721 H 0.62714 0.47364 0.31714 0.0
H722 H 0.67843 0.42958 0.27015 0.0
H723 H 0.62658 0.52 0.2782 0.0
H724 H 0.62689 0.51951 0.20157 0.0
H725 H 0.62636 0.47346 0.24051 0.0
H726 H 0.67865 0.55756 0.24796 0.0
H727 H 0.67934 0.59988 0.20883 0.0
C728 C 0.66756 0.41507 0.3026 0.0
C729 C 0.65323 0.42694 0.31628 0.0
C730 C 0.66717 0.44045 0.28021 0.0
C731 C 0.65252 0.47956 0.271 0.0
C732 C 0.63804 0.48944 0.2846 0.0
C733 C 0.63836 0.46298 0.30696 0.0
C734 C 0.63821 0.52888 0.2116 0.0
C735 C 0.65318 0.56304 0.2021 0.0
C736 C 0.63791 0.5026 0.23398 0.0
C737 C 0.65252 0.51077 0.24741 0.0
C738 C 0.66728 0.54804 0.23802 0.0
C739 C 0.66764 0.57325 0.21562 0.0
H740 H 0.43587 0.5206 0.31593 0.0
H741 H 0.38345 0.60044 0.30794 0.0
H742 H 0.43673 0.47451 0.2769 0.0
H743 H 0.38446 0.55805 0.26884 0.0
H744 H 0.38388 0.38696 0.20794 0.0
H745 H 0.38476 0.42937 0.24702 0.0
H746 H 0.43662 0.51909 0.23883 0.0
H747 H 0.43591 0.47297 0.19977 0.0
C748 C 0.42463 0.52982 0.30572 0.0
C749 C 0.40957 0.56376 0.31506 0.0
C750 C 0.42512 0.5035 0.28331 0.0
C751 C 0.41059 0.51127 0.26968 0.0
C752 C 0.39576 0.54863 0.27891 0.0
C753 C 0.39522 0.57389 0.30131 0.0
C754 C 0.39554 0.41485 0.21453 0.0
C755 C 0.40981 0.42674 0.20073 0.0
C756 C 0.396 0.44014 0.23693 0.0
C757 C 0.41066 0.47929 0.2461 0.0
C758 C 0.42514 0.48873 0.23244 0.0
C759 C 0.42474 0.46236 0.21002 0.0
H760 H 0.43505 0.47551 0.81606 0.0
H761 H 0.38285 0.39162 0.80828 0.0
H762 H 0.43572 0.52082 0.77701 0.0
H763 H 0.38369 0.43325 0.76913 0.0
H764 H 0.43517 0.51994 0.70015 0.0
H765 H 0.43579 0.4747 0.7392 0.0
H766 H 0.38364 0.56083 0.74687 0.0
H767 H 0.38285 0.60238 0.70771 0.0
C768 C 0.42382 0.46521 0.80589 0.0
C769 C 0.40887 0.43031 0.81529 0.0
C770 C 0.4242 0.49109 0.78347 0.0
C771 C 0.40969 0.48187 0.76987 0.0
C772 C 0.39497 0.44371 0.77916 0.0
C773 C 0.39453 0.41886 0.8016 0.0
C774 C 0.4239 0.52994 0.71026 0.0
C775 C 0.40894 0.56441 0.7008 0.0
C776 C 0.42425 0.5041 0.7327 0.0
C777 C 0.4097 0.51294 0.74623 0.0
C778 C 0.39496 0.55068 0.73688 0.0
C779 C 0.39455 0.57548 0.71444 0.0
H780 H 0.67976 0.50766 0.81599 0.0
H781 H 0.62754 0.59529 0.8119 0.0
H782 H 0.67906 0.46543 0.77708 0.0
H783 H 0.62706 0.55715 0.7722 0.0
H784 H 0.62746 0.40272 0.70606 0.0
H785 H 0.62688 0.4404 0.74577 0.0
H786 H 0.67936 0.52498 0.7416 0.0
H787 H 0.68013 0.48318 0.70265 0.0
C788 C 0.66818 0.51941 0.80663 0.0
C789 C 0.65375 0.55566 0.81699 0.0
C790 C 0.66779 0.49546 0.78419 0.0
C791 C 0.65307 0.50866 0.77126 0.0
C792 C 0.63857 0.54505 0.78164 0.0
C793 C 0.63888 0.56773 0.80433 0.0
C794 C 0.63888 0.42856 0.71379 0.0
C795 C 0.6539 0.43883 0.70131 0.0
C796 C 0.63852 0.451 0.73649 0.0
C797 C 0.65311 0.48534 0.74706 0.0
C798 C 0.668 0.49658 0.73433 0.0
C799 C 0.66843 0.47287 0.71187 0.0
H800 H 0.18818 0.14579 0.95078 0.0
H801 H 0.13535 0.06741 0.95336 0.0
H802 H 0.18884 0.15306 0.9916 0.0
H803 H 0.13616 0.07083 0.99373 0.0
H804 H 0.13592 0.16392 0.06421 0.0
H805 H 0.13692 0.16938 0.02373 0.0
H806 H 0.18828 0.06692 0.02492 0.0
H807 H 0.1875 0.06545 0.06567 0.0
C808 C 0.17676 0.12954 0.96006 0.0
C809 C 0.16169 0.10668 0.94885 0.0
C810 C 0.17715 0.13328 0.98344 0.0
C811 C 0.1625 0.11339 0.99605 0.0
C812 C 0.14756 0.08898 0.98469 0.0
C813 C 0.14713 0.08633 0.96145 0.0
C814 C 0.14746 0.14296 0.05584 0.0
C815 C 0.16158 0.11354 0.06812 0.0
C816 C 0.14802 0.14553 0.03258 0.0
C817 C 0.16259 0.11726 0.02092 0.0
C818 C 0.17689 0.08987 0.03327 0.0
C819 C 0.17642 0.08852 0.05664 0.0
H820 H 0.87464 0.84194 0.95072 0.0
H821 H 0.9274 0.92177 0.95286 0.0
H822 H 0.87422 0.83311 0.99142 0.0
H823 H 0.92682 0.91693 0.99329 0.0
H824 H 0.92685 0.82523 0.06414 0.0
H825 H 0.92614 0.81983 0.02361 0.0
H826 H 0.87459 0.91997 0.02433 0.0
H827 H 0.87509 0.9213 0.06503 0.0
C828 C 0.8861 0.85813 0.95989 0.0
C829 C 0.90106 0.88219 0.94858 0.0
C830 C 0.88585 0.85354 0.98323 0.0
C831 C 0.90051 0.87388 0.99574 0.0
C832 C 0.9154 0.89871 0.9843 0.0
C833 C 0.9157 0.90218 0.96105 0.0
C834 C 0.91533 0.84563 0.05564 0.0
C835 C 0.90107 0.87423 0.06776 0.0
C836 C 0.91495 0.84311 0.03236 0.0
C837 C 0.90038 0.87054 0.02059 0.0
C838 C 0.88597 0.89744 0.03278 0.0
C839 C 0.88628 0.89872 0.05613 0.0
H840 H 0.13534 0.92953 0.45412 0.0
H841 H 0.18809 0.84977 0.45136 0.0
H842 H 0.13617 0.92442 0.49453 0.0
H843 H 0.18876 0.84081 0.4921 0.0
H844 H 0.18764 0.92427 0.56649 0.0
H845 H 0.18837 0.92528 0.5257 0.0
H846 H 0.1369 0.82441 0.52421 0.0
H847 H 0.13598 0.82735 0.56469 0.0
C848 C 0.1471 0.91001 0.46217 0.0
C849 C 0.16164 0.88981 0.44952 0.0
C850 C 0.14755 0.90639 0.48541 0.0
C851 C 0.16248 0.88115 0.4967 0.0
C852 C 0.17709 0.86131 0.48403 0.0
C853 C 0.17669 0.86599 0.46067 0.0
C854 C 0.17654 0.90203 0.55737 0.0
C855 C 0.16169 0.87677 0.56877 0.0
C856 C 0.17697 0.90216 0.53399 0.0
C857 C 0.16261 0.87602 0.52156 0.0
C858 C 0.14803 0.8474 0.53312 0.0
C859 C 0.14753 0.84849 0.55639 0.0
H860 H 0.92636 0.16682 0.56451 0.0
H861 H 0.87475 0.06871 0.56495 0.0
H862 H 0.92588 0.17178 0.52399 0.0
H863 H 0.87448 0.06973 0.52422 0.0
H864 H 0.87496 0.14811 0.45061 0.0
H865 H 0.87426 0.15694 0.4913 0.0
H866 H 0.92688 0.0737 0.49377 0.0
H867 H 0.92774 0.06876 0.45332 0.0
C868 C 0.91492 0.1459 0.55591 0.0
C869 C 0.90063 0.11678 0.5679 0.0
C870 C 0.91467 0.14817 0.53264 0.0
C871 C 0.90022 0.12001 0.52073 0.0
C872 C 0.88577 0.09274 0.53279 0.0
C873 C 0.88594 0.09166 0.55614 0.0
C874 C 0.88637 0.13203 0.45991 0.0
C875 C 0.90142 0.10805 0.44877 0.0
C876 C 0.88595 0.13661 0.48323 0.0
C877 C 0.90053 0.11643 0.4959 0.0
C878 C 0.91551 0.09173 0.48464 0.0
C879 C 0.91598 0.08822 0.46139 0.0
H880 H 0.63384 0.57295 0.0644 0.0
H881 H 0.68685 0.64764 0.06714 0.0
H882 H 0.63477 0.57609 0.02398 0.0
H883 H 0.68765 0.65501 0.02642 0.0
H884 H 0.68699 0.56693 0.9527 0.0
H885 H 0.68729 0.56894 0.99345 0.0
H886 H 0.63592 0.67162 0.99357 0.0
H887 H 0.6354 0.66528 0.95307 0.0
C888 C 0.64567 0.59113 0.05634 0.0
C889 C 0.66026 0.61021 0.06897 0.0
C890 C 0.64619 0.59361 0.03308 0.0
C891 C 0.66125 0.61667 0.02179 0.0
C892 C 0.67588 0.63597 0.03448 0.0
C893 C 0.67541 0.63225 0.05783 0.0
C894 C 0.67581 0.59017 0.96151 0.0
C895 C 0.66111 0.615 0.94973 0.0
C896 C 0.676 0.59183 0.98487 0.0
C897 C 0.66156 0.61955 0.99692 0.0
C898 C 0.64711 0.64753 0.98497 0.0
C899 C 0.64684 0.6445 0.9617 0.0
H900 H 0.37303 0.35309 0.95008 0.0
H901 H 0.42631 0.4221 0.95342 0.0
H902 H 0.37199 0.34522 0.99085 0.0
H903 H 0.42515 0.41824 0.9938 0.0
H904 H 0.42437 0.32333 0.06397 0.0
H905 H 0.42356 0.3194 0.02351 0.0
H906 H 0.37275 0.4291 0.02455 0.0
H907 H 0.37334 0.42892 0.06538 0.0
C908 C 0.38447 0.36715 0.95952 0.0
C909 C 0.39978 0.38751 0.94852 0.0
C910 C 0.38387 0.36312 0.98289 0.0
C911 C 0.39852 0.38023 0.99573 0.0
C912 C 0.4137 0.40222 0.98458 0.0
C913 C 0.41436 0.4051 0.96134 0.0
C914 C 0.41298 0.34621 0.05558 0.0
C915 C 0.39897 0.37722 0.06785 0.0
C916 C 0.41254 0.34457 0.03232 0.0
C917 C 0.39821 0.37547 0.02061 0.0
C918 C 0.38397 0.40425 0.03294 0.0
C919 C 0.38432 0.40459 0.05634 0.0
H920 H 0.68686 0.42534 0.4517 0.0
H921 H 0.63576 0.32059 0.45298 0.0
H922 H 0.68745 0.42538 0.49244 0.0
H923 H 0.63657 0.31655 0.49348 0.0
H924 H 0.63448 0.4206 0.56388 0.0
H925 H 0.63522 0.41492 0.52347 0.0
H926 H 0.68834 0.34037 0.52571 0.0
H927 H 0.68772 0.35006 0.56642 0.0
C928 C 0.67586 0.40114 0.4607 0.0
C929 C 0.6612 0.37391 0.44917 0.0
C930 C 0.67621 0.40068 0.48406 0.0
C931 C 0.66199 0.37188 0.49636 0.0
C932 C 0.6476 0.34147 0.48467 0.0
C933 C 0.64716 0.3432 0.4614 0.0
C934 C 0.64633 0.40285 0.55578 0.0
C935 C 0.66104 0.38564 0.56836 0.0
C936 C 0.64673 0.39892 0.53254 0.0
C937 C 0.6618 0.3763 0.52121 0.0
C938 C 0.67655 0.35896 0.53382 0.0
C939 C 0.67619 0.36403 0.55716 0.0
H940 H 0.42682 0.5711 0.56287 0.0
H941 H 0.37361 0.64209 0.56567 0.0
H942 H 0.42588 0.57439 0.52248 0.0
H943 H 0.3728 0.64949 0.52489 0.0
H944 H 0.37421 0.56486 0.45059 0.0
H945 H 0.37355 0.56534 0.49139 0.0
H946 H 0.42462 0.67164 0.49247 0.0
H947 H 0.4255 0.66695 0.45201 0.0
C948 C 0.41493 0.58843 0.55483 0.0
C949 C 0.4003 0.60667 0.5675 0.0
C950 C 0.41441 0.59101 0.53158 0.0
C951 C 0.39932 0.61334 0.52026 0.0
C952 C 0.38462 0.63124 0.53296 0.0
C953 C 0.38509 0.62748 0.55635 0.0
C954 C 0.38525 0.58855 0.45963 0.0
C955 C 0.39998 0.61481 0.44812 0.0
C956 C 0.38485 0.5893 0.48302 0.0
C957 C 0.39912 0.61743 0.49537 0.0
C958 C 0.41357 0.64704 0.48367 0.0
C959 C 0.41405 0.64497 0.46039 0.0
H960 H 0.9822 0.0612 0.12839 0.0
H961 H 0.9967 0.80078 0.14961 0.0
H962 H 1.0118 0.10914 0.13104 0.0
H963 H 1.02615 0.84869 0.15375 0.0
H964 H 0.0794 0.92762 0.12939 0.0
H965 H 0.04978 0.88057 0.1326 0.0
H966 H 0.03546 0.14571 0.15166 0.0
H967 H 0.06493 0.19242 0.14697 0.0
C968 C 0.99172 0.01512 0.13427 0.0
C969 C 0.98727 0.92745 0.1387 0.0
C970 C 1.00873 0.04231 0.13589 0.0
C971 C 1.02161 0.98271 0.14243 0.0
C972 C 1.01682 0.89609 0.14804 0.0
C973 C 0.99991 0.86865 0.14593 0.0
C974 C 0.06988 0.97503 0.13457 0.0
C975 C 0.07435 0.06349 0.13781 0.0
C976 C 0.05286 0.94836 0.13652 0.0
C977 C 0.03998 0.00936 0.14223 0.0
C978 C 0.04479 0.09708 0.14662 0.0
C979 C 0.06171 0.1239 0.14418 0.0
H980 H 0.98132 0.9369 0.36715 0.0
H981 H 0.99951 0.1948 0.38609 0.0
H982 H 1.01067 0.88829 0.36165 0.0
H983 H 1.02861 0.14539 0.38203 0.0
H984 H 0.08094 0.0536 0.36635 0.0
H985 H 0.05163 0.10041 0.35984 0.0
H986 H 0.03361 0.84993 0.38478 0.0
H987 H 0.06269 0.80179 0.38986 0.0
C988 C 0.99153 0.98348 0.36993 0.0
C989 C 0.988 0.06923 0.37751 0.0
C990 C 1.00841 0.95541 0.36702 0.0
C991 C 1.02215 0.01236 0.37171 0.0
C992 C 1.0185 0.09951 0.37808 0.0
C993 C 1.00171 0.12757 0.3808 0.0
C994 C 0.07073 0.00793 0.36996 0.0
C995 C 0.07425 0.92456 0.37908 0.0
C996 C 0.05387 0.03505 0.36645 0.0
C997 C 0.04011 0.97959 0.37208 0.0
C998 C 0.04374 0.89456 0.38007 0.0
C999 C 0.06052 0.86736 0.38338 0.0
H1000 H 0.06273 0.14222 0.91286 0.0
H1001 H 0.07898 0.98597 0.85627 0.0
H1002 H 0.03365 0.09885 0.90638 0.0
H1003 H 0.04943 0.93985 0.85038 0.0
H1004 H 0.99815 0.7977 0.87486 0.0
H1005 H 1.02762 0.84873 0.87264 0.0
H1006 H 1.01029 0.1181 0.87754 0.0
H1007 H 0.98075 0.0666 0.8798 0.0
C1008 C 0.06023 0.09964 0.89879 0.0
C1009 C 0.07347 0.0689 0.88493 0.0
C1010 C 0.04339 0.07471 0.89511 0.0
C1011 C 0.03919 0.01707 0.87768 0.0
C1012 C 0.05231 0.98478 0.86392 0.0
C1013 C 0.06926 0.01089 0.8674 0.0
C1014 C 1.00065 0.86787 0.87509 0.0
C1015 C 0.98721 0.92825 0.87775 0.0
C1016 C 1.0175 0.89706 0.87364 0.0
C1017 C 1.02127 0.9873 0.87511 0.0
C1018 C 1.00775 0.04803 0.87655 0.0
C1019 C 0.99086 0.01878 0.87769 0.0
H1020 H 0.98208 0.93084 0.62759 0.0
H1021 H 0.99663 0.19124 0.64881 0.0
H1022 H 1.01164 0.88255 0.63033 0.0
H1023 H 1.02605 0.14295 0.6531 0.0
H1024 H 0.07939 0.06281 0.62932 0.0
H1025 H 0.0498 0.11054 0.63236 0.0
H1026 H 0.03518 0.84542 0.65093 0.0
H1027 H 0.06463 0.79805 0.64635 0.0
C1028 C 0.99161 0.97686 0.63348 0.0
C1029 C 0.98718 0.0646 0.63789 0.0
C1030 C 1.0086 0.94945 0.63516 0.0
C1031 C 1.02149 0.00888 0.64178 0.0
C1032 C 1.01672 0.09564 0.64734 0.0
C1033 C 0.99983 0.12332 0.64514 0.0
C1034 C 0.0698 0.01557 0.63436 0.0
C1035 C 0.07418 0.92693 0.6375 0.0
C1036 C 0.0528 0.04263 0.6362 0.0
C1037 C 0.03984 0.98183 0.64172 0.0
C1038 C 0.04456 0.89392 0.64604 0.0
C1039 C 0.06146 0.86672 0.64367 0.0
H1040 H 0.48227 0.50124 0.16054 0.0
H1041 H 0.49834 0.35123 0.10283 0.0
H1042 H 0.51181 0.54714 0.16657 0.0
H1043 H 0.52746 0.39441 0.10939 0.0
H1044 H 0.58049 0.42499 0.13586 0.0
H1045 H 0.55099 0.37261 0.13765 0.0
H1046 H 0.53348 0.64074 0.14525 0.0
H1047 H 0.56291 0.69257 0.14352 0.0
C1048 C 0.49196 0.47774 0.14919 0.0
C1049 C 0.48772 0.42148 0.13132 0.0
C1050 C 0.50891 0.50368 0.15274 0.0
C1051 C 0.52199 0.47304 0.13868 0.0
C1052 C 0.51776 0.41722 0.12088 0.0
C1053 C 0.50092 0.39239 0.11716 0.0
C1054 C 0.57035 0.47225 0.13846 0.0
C1055 C 0.57394 0.56278 0.13931 0.0
C1056 C 0.55348 0.44253 0.13932 0.0
C1057 C 0.53991 0.50275 0.14138 0.0
C1058 C 0.54363 0.59275 0.14374 0.0
C1059 C 0.56045 0.62244 0.14258 0.0
H1060 H 0.49698 0.69238 0.37023 0.0
H1061 H 0.48228 0.42791 0.38762 0.0
H1062 H 0.52644 0.64504 0.36567 0.0
H1063 H 0.51187 0.38024 0.38461 0.0
H1064 H 0.56501 0.29929 0.36828 0.0
H1065 H 0.5356 0.34753 0.36386 0.0
H1066 H 0.55 0.60838 0.38631 0.0
H1067 H 0.57956 0.56009 0.38918 0.0
C1068 C 0.50015 0.62378 0.37299 0.0
C1069 C 0.48746 0.56364 0.37926 0.0
C1070 C 0.51706 0.5966 0.37064 0.0
C1071 C 0.5218 0.50879 0.37506 0.0
C1072 C 0.50885 0.44806 0.38067 0.0
C1073 C 0.49185 0.47509 0.3825 0.0
C1074 C 0.56181 0.3673 0.37184 0.0
C1075 C 0.57445 0.42613 0.37905 0.0
C1076 C 0.54493 0.39495 0.36957 0.0
C1077 C 0.54015 0.48181 0.37502 0.0
C1078 C 0.55304 0.54137 0.38158 0.0
C1079 C 0.57003 0.51398 0.38333 0.0
H1080 H 0.4822 0.56734 0.88865 0.0
H1081 H 0.49631 0.30411 0.86922 0.0
H1082 H 0.51187 0.61374 0.88574 0.0
H1083 H 0.52583 0.35034 0.86475 0.0
H1084 H 0.57924 0.42944 0.88843 0.0
H1085 H 0.54957 0.38323 0.88538 0.0
H1086 H 0.53562 0.64757 0.86524 0.0
H1087 H 0.56515 0.69355 0.86985 0.0
C1088 C 0.49166 0.52024 0.8831 0.0
C1089 C 0.48708 0.43233 0.87925 0.0
C1090 C 0.50871 0.54654 0.88133 0.0
C1091 C 0.52151 0.48575 0.87518 0.0
C1092 C 0.51658 0.39874 0.87015 0.0
C1093 C 0.49963 0.37222 0.87244 0.0
C1094 C 0.56978 0.4768 0.88303 0.0
C1095 C 0.57438 0.56488 0.87947 0.0
C1096 C 0.55273 0.45061 0.88118 0.0
C1097 C 0.53993 0.51169 0.87523 0.0
C1098 C 0.54487 0.59892 0.87047 0.0
C1099 C 0.56183 0.62531 0.87285 0.0
H1100 H 0.49638 0.69313 0.64706 0.0
H1101 H 0.48248 0.42829 0.62883 0.0
H1102 H 0.5259 0.64754 0.652 0.0
H1103 H 0.51215 0.38242 0.63222 0.0
H1104 H 0.56535 0.30452 0.649 0.0
H1105 H 0.5358 0.35072 0.65326 0.0
H1106 H 0.54968 0.61311 0.63149 0.0
H1107 H 0.57937 0.56684 0.62878 0.0
C1108 C 0.49975 0.62482 0.6442 0.0
C1109 C 0.48726 0.56407 0.63758 0.0
C1110 C 0.51669 0.59865 0.64677 0.0
C1111 C 0.52168 0.51131 0.64222 0.0
C1112 C 0.50894 0.44992 0.63627 0.0
C1113 C 0.49189 0.47591 0.63422 0.0
C1114 C 0.56201 0.37243 0.64557 0.0
C1115 C 0.57454 0.43229 0.63858 0.0
C1116 C 0.54505 0.3989 0.64774 0.0
C1117 C 0.54009 0.48559 0.64243 0.0
C1118 C 0.55287 0.54619 0.63612 0.0
C1119 C 0.56993 0.51996 0.63446 0.0
H1120 H 0.18209 0.82093 0.14404 0.0
H1121 H 0.13022 0.81124 0.12023 0.0
H1122 H 0.18274 0.66163 0.14641 0.0
H1123 H 0.1311 0.65031 0.12153 0.0
H1124 H 0.13204 0.36918 0.14771 0.0
H1125 H 0.13126 0.52936 0.14605 0.0
H1126 H 0.18407 0.53206 0.1256 0.0
H1127 H 0.18499 0.37199 0.12835 0.0
C1128 C 0.17087 0.78459 0.13897 0.0
C1129 C 0.1561 0.82884 0.13188 0.0
C1130 C 0.17128 0.69282 0.14022 0.0
C1131 C 0.15701 0.64241 0.13409 0.0
C1132 C 0.14226 0.68676 0.12675 0.0
C1133 C 0.14177 0.77903 0.12581 0.0
C1134 C 0.14352 0.40415 0.14305 0.0
C1135 C 0.15861 0.35798 0.13828 0.0
C1136 C 0.14303 0.49611 0.14186 0.0
C1137 C 0.15756 0.54424 0.13556 0.0
C1138 C 0.17268 0.49771 0.13088 0.0
C1139 C 0.17323 0.40575 0.13239 0.0
H1140 H 0.8794 0.16802 0.14224 0.0
H1141 H 0.93184 0.17776 0.12069 0.0
H1142 H 0.8787 0.32708 0.14476 0.0
H1143 H 0.93092 0.33871 0.12207 0.0
H1144 H 0.92933 0.61983 0.14835 0.0
H1145 H 0.93019 0.45967 0.14651 0.0
H1146 H 0.87779 0.45692 0.12432 0.0
H1147 H 0.87676 0.61687 0.12731 0.0
C1148 C 0.89075 0.20429 0.13769 0.0
C1149 C 0.90569 0.16004 0.13122 0.0
C1150 C 0.89031 0.29603 0.13901 0.0
C1151 C 0.90471 0.34652 0.13354 0.0
C1152 C 0.91964 0.30222 0.12678 0.0
C1153 C 0.92016 0.20992 0.12579 0.0
C1154 C 0.91794 0.58481 0.14329 0.0
C1155 C 0.90293 0.63092 0.13811 0.0
C1156 C 0.91849 0.49287 0.14198 0.0
C1157 C 0.90411 0.4447 0.13513 0.0
C1158 C 0.88906 0.49122 0.13003 0.0
C1159 C 0.88844 0.58313 0.13169 0.0
H1160 H 0.18273 0.17831 0.39505 0.0
H1161 H 0.12989 0.1813 0.37515 0.0
H1162 H 0.18341 0.33857 0.39385 0.0
H1163 H 0.13072 0.34149 0.3729 0.0
H1164 H 0.13247 0.62953 0.39254 0.0
H1165 H 0.13189 0.46991 0.39441 0.0
H1166 H 0.18354 0.46033 0.36952 0.0
H1167 H 0.18435 0.62119 0.36868 0.0
C1168 C 0.17126 0.21332 0.39034 0.0
C1169 C 0.15623 0.16722 0.3853 0.0
C1170 C 0.17169 0.30531 0.38943 0.0
C1171 C 0.15715 0.35349 0.38317 0.0
C1172 C 0.1421 0.30702 0.37816 0.0
C1173 C 0.14161 0.21502 0.37937 0.0
C1174 C 0.14371 0.59344 0.3874 0.0
C1175 C 0.15846 0.63805 0.38042 0.0
C1176 C 0.14334 0.50158 0.38834 0.0
C1177 C 0.15764 0.45165 0.38205 0.0
C1178 C 0.17237 0.49643 0.37485 0.0
C1179 C 0.17282 0.58866 0.3742 0.0
H1180 H 0.92981 0.36456 0.39076 0.0
H1181 H 0.87756 0.37396 0.36841 0.0
H1182 H 0.9305 0.52401 0.39288 0.0
H1183 H 0.87846 0.53487 0.36949 0.0
H1184 H 0.87988 0.81651 0.39546 0.0
H1185 H 0.87907 0.65628 0.39399 0.0
H1186 H 0.93143 0.65293 0.37166 0.0
H1187 H 0.93241 0.81304 0.37418 0.0
C1188 C 0.9185 0.40085 0.38598 0.0
C1189 C 0.90362 0.35651 0.37936 0.0
C1190 C 0.91894 0.49266 0.38707 0.0
C1191 C 0.90457 0.54295 0.38128 0.0
C1192 C 0.8897 0.4985 0.37443 0.0
C1193 C 0.8892 0.40624 0.37362 0.0
C1194 C 0.89126 0.7814 0.39041 0.0
C1195 C 0.90625 0.82738 0.38506 0.0
C1196 C 0.89075 0.68942 0.38934 0.0
C1197 C 0.90514 0.64112 0.38259 0.0
C1198 C 0.92016 0.68746 0.37729 0.0
C1199 C 0.92073 0.77943 0.37867 0.0
H1200 H 0.87959 0.17431 0.89575 0.0
H1201 H 0.932 0.17778 0.87398 0.0
H1202 H 0.87869 0.33447 0.8941 0.0
H1203 H 0.93092 0.33782 0.87123 0.0
H1204 H 0.92931 0.62654 0.88986 0.0
H1205 H 0.93009 0.46728 0.89212 0.0
H1206 H 0.87782 0.45554 0.86963 0.0
H1207 H 0.87684 0.61647 0.86847 0.0
C1208 C 0.89093 0.20942 0.89056 0.0
C1209 C 0.90591 0.16345 0.88512 0.0
C1210 C 0.89036 0.30137 0.88937 0.0
C1211 C 0.90469 0.34968 0.88241 0.0
C1212 C 0.9197 0.30333 0.87704 0.0
C1213 C 0.92033 0.21139 0.87854 0.0
C1214 C 0.91797 0.59015 0.88532 0.0
C1215 C 0.903 0.63431 0.87894 0.0
C1216 C 0.91846 0.49838 0.88648 0.0
C1217 C 0.90406 0.44785 0.88099 0.0
C1218 C 0.8891 0.49209 0.87435 0.0
C1219 C 0.88854 0.58436 0.87349 0.0
H1220 H 0.18389 0.37722 0.86781 0.0
H1221 H 0.13217 0.36848 0.89218 0.0
H1222 H 0.18301 0.53805 0.86859 0.0
H1223 H 0.13152 0.52805 0.89407 0.0
H1224 H 0.1292 0.81661 0.87508 0.0
H1225 H 0.13009 0.65642 0.87282 0.0
H1226 H 0.18303 0.66017 0.89264 0.0
H1227 H 0.18228 0.82042 0.89377 0.0
C1228 C 0.17238 0.40967 0.87344 0.0
C1229 C 0.15809 0.36017 0.87981 0.0
C1230 C 0.17189 0.5019 0.87407 0.0
C1231 C 0.15718 0.54658 0.88142 0.0
C1232 C 0.14295 0.49651 0.88788 0.0
C1233 C 0.14336 0.40466 0.88692 0.0
C1234 C 0.14099 0.78304 0.87905 0.0
C1235 C 0.15565 0.83106 0.88463 0.0
C1236 C 0.14151 0.69104 0.87783 0.0
C1237 C 0.15665 0.64478 0.88253 0.0
C1238 C 0.17124 0.6932 0.88845 0.0
C1239 C 0.17078 0.7852 0.88932 0.0
H1240 H 0.93183 0.8133 0.62073 0.0
H1241 H 0.87943 0.82374 0.64246 0.0
H1242 H 0.93085 0.65235 0.6221 0.0
H1243 H 0.87867 0.66466 0.64495 0.0
H1244 H 0.8766 0.37481 0.62737 0.0
H1245 H 0.87769 0.53479 0.62442 0.0
H1246 H 0.93009 0.53148 0.64656 0.0
H1247 H 0.92917 0.37135 0.64839 0.0
C1248 C 0.92014 0.78129 0.62587 0.0
C1249 C 0.9057 0.83136 0.63134 0.0
C1250 C 0.91959 0.689 0.62685 0.0
C1251 C 0.90466 0.64489 0.63365 0.0
C1252 C 0.89028 0.69557 0.63917 0.0
C1253 C 0.89076 0.7873 0.63787 0.0
C1254 C 0.8883 0.40844 0.63175 0.0
C1255 C 0.90277 0.36049 0.63815 0.0
C1256 C 0.88895 0.50036 0.63012 0.0
C1257 C 0.90401 0.54671 0.63521 0.0
C1258 C 0.91838 0.4984 0.64204 0.0
C1259 C 0.9178 0.40647 0.64333 0.0
H1260 H 0.18236 0.16976 0.62336 0.0
H1261 H 0.12925 0.17263 0.64191 0.0
H1262 H 0.18304 0.33 0.62471 0.0
H1263 H 0.13006 0.33275 0.64445 0.0
H1264 H 0.13201 0.62135 0.62594 0.0
H1265 H 0.13142 0.46193 0.62373 0.0
H1266 H 0.18302 0.45162 0.64878 0.0
H1267 H 0.18385 0.61245 0.64982 0.0
C1268 C 0.17083 0.2048 0.62781 0.0
C1269 C 0.15572 0.15869 0.63241 0.0
C1270 C 0.17125 0.29679 0.62882 0.0
C1271 C 0.15664 0.34496 0.63481 0.0
C1272 C 0.14151 0.29841 0.63938 0.0
C1273 C 0.14102 0.20643 0.638 0.0
C1274 C 0.14323 0.58515 0.63105 0.0
C1275 C 0.15798 0.6296 0.6381 0.0
C1276 C 0.14286 0.49333 0.62991 0.0
C1277 C 0.15714 0.44317 0.63614 0.0
C1278 C 0.17186 0.4878 0.64346 0.0
C1279 C 0.17232 0.58004 0.64425 0.0
H1280 H 0.68456 0.87431 0.12883 0.0
H1281 H 0.63164 0.87074 0.14832 0.0
H1282 H 0.68361 0.03437 0.12628 0.0
H1283 H 0.63084 0.03098 0.14691 0.0
H1284 H 0.62971 0.31343 0.1217 0.0
H1285 H 0.6306 0.15257 0.12272 0.0
H1286 H 0.68235 0.16336 0.14722 0.0
H1287 H 0.68169 0.32271 0.14507 0.0
C1288 C 0.6728 0.90792 0.13293 0.0
C1289 C 0.6582 0.85998 0.13881 0.0
C1290 C 0.67224 -0.00013 0.13155 0.0
C1291 C 0.65712 0.04621 0.13637 0.0
C1292 C 0.6426 -0.00212 0.14262 0.0
C1293 C 0.6431 0.9059 0.14366 0.0
C1294 C 0.64128 0.28113 0.12715 0.0
C1295 C 0.65564 0.33082 0.13318 0.0
C1296 C 0.64178 0.18888 0.12792 0.0
C1297 C 0.65657 0.14439 0.13508 0.0
C1298 C 0.67086 0.19467 0.14118 0.0
C1299 C 0.67044 0.28647 0.14007 0.0
H1300 H 0.37899 0.67045 0.12252 0.0
H1301 H 0.43215 0.67366 0.14082 0.0
H1302 H 0.37825 0.83066 0.12391 0.0
H1303 H 0.43128 0.8338 0.14339 0.0
H1304 H 0.42917 0.12239 0.12485 0.0
H1305 H 0.42981 0.96298 0.12267 0.0
H1306 H 0.37828 0.9523 0.14798 0.0
H1307 H 0.37739 0.11316 0.149 0.0
C1308 C 0.39052 0.70556 0.12693 0.0
C1309 C 0.40566 0.65954 0.13145 0.0
C1310 C 0.39006 0.79754 0.12795 0.0
C1311 C 0.40467 0.84582 0.13389 0.0
C1312 C 0.41983 0.79937 0.13837 0.0
C1313 C 0.42035 0.70738 0.13698 0.0
C1314 C 0.41797 0.08612 0.13002 0.0
C1315 C 0.40322 0.13048 0.13714 0.0
C1316 C 0.41838 0.9943 0.1289 0.0
C1317 C 0.40414 0.94403 0.13521 0.0
C1318 C 0.38941 0.98857 0.1426 0.0
C1319 C 0.38892 0.08082 0.14338 0.0
H1320 H 0.68496 0.11417 0.38912 0.0
H1321 H 0.63201 0.11756 0.36977 0.0
H1322 H 0.68399 0.95416 0.39188 0.0
H1323 H 0.63119 0.95735 0.37142 0.0
H1324 H 0.63014 0.67518 0.39707 0.0
H1325 H 0.63102 0.83611 0.39587 0.0
H1326 H 0.68265 0.82494 0.37097 0.0
H1327 H 0.68202 0.66571 0.37326 0.0
C1328 C 0.67319 0.08054 0.38509 0.0
C1329 C 0.65858 0.12845 0.37918 0.0
C1330 C 0.67261 0.98861 0.3866 0.0
C1331 C 0.65748 0.94224 0.3819 0.0
C1332 C 0.64296 0.9905 0.37561 0.0
C1333 C 0.64348 0.08246 0.37443 0.0
C1334 C 0.64169 0.70741 0.39151 0.0
C1335 C 0.65602 0.65763 0.38539 0.0
C1336 C 0.64218 0.79969 0.39063 0.0
C1337 C 0.65693 0.84408 0.38331 0.0
C1338 C 0.67119 0.79371 0.37714 0.0
C1339 C 0.67078 0.70195 0.37833 0.0
H1340 H 0.42966 0.86925 0.39077 0.0
H1341 H 0.37777 0.87815 0.36705 0.0
H1342 H 0.43025 0.02866 0.39301 0.0
H1343 H 0.3786 0.03899 0.36812 0.0
H1344 H 0.37928 0.32078 0.39358 0.0
H1345 H 0.37861 0.16053 0.3922 0.0
H1346 H 0.43156 0.15793 0.37234 0.0
H1347 H 0.43237 0.31804 0.37492 0.0
C1348 C 0.41843 0.90545 0.3857 0.0
C1349 C 0.40367 0.86099 0.37869 0.0
C1350 C 0.4188 -0.00274 0.38686 0.0
C1351 C 0.40451 0.04743 0.38068 0.0
C1352 C 0.38977 0.0028 0.3734 0.0
C1353 C 0.38931 0.91056 0.37259 0.0
C1354 C 0.39081 0.28576 0.3891 0.0
C1355 C 0.40591 0.33192 0.38447 0.0
C1356 C 0.39039 0.19377 0.38807 0.0
C1357 C 0.405 0.14564 0.38203 0.0
C1358 C 0.42012 0.19223 0.37745 0.0
C1359 C 0.4206 0.28421 0.37884 0.0
H1360 H 0.3795 0.673 0.87084 0.0
H1361 H 0.43084 0.68173 0.89656 0.0
H1362 H 0.37893 0.83261 0.86887 0.0
H1363 H 0.43002 0.84255 0.89565 0.0
H1364 H 0.42972 0.12466 0.8703 0.0
H1365 H 0.43041 0.96438 0.87144 0.0
H1366 H 0.37724 0.96109 0.89021 0.0
H1367 H 0.37642 0.12126 0.88797 0.0
C1368 C 0.39062 0.70919 0.87638 0.0
C1369 C 0.40522 0.6647 0.8839 0.0
C1370 C 0.39025 0.80104 0.87537 0.0
C1371 C 0.4044 0.85108 0.88217 0.0
C1372 C 0.41898 0.8064 0.88991 0.0
C1373 C 0.41943 0.71418 0.89061 0.0
C1374 C 0.41815 0.08955 0.87452 0.0
C1375 C 0.40299 0.13554 0.87894 0.0
C1376 C 0.41858 -0.00246 0.87539 0.0
C1377 C 0.40391 0.94925 0.88102 0.0
C1378 C 0.38873 0.99563 0.88543 0.0
C1379 C 0.38825 0.08763 0.88423 0.0
H1380 H 0.682 0.31812 0.89717 0.0
H1381 H 0.62953 0.31518 0.87574 0.0
H1382 H 0.68288 0.15799 0.89532 0.0
H1383 H 0.63058 0.15518 0.87274 0.0
H1384 H 0.63218 0.86604 0.89066 0.0
H1385 H 0.63141 0.02517 0.89313 0.0
H1386 H 0.68375 0.03714 0.8709 0.0
H1387 H 0.68473 0.87619 0.86958 0.0
C1388 C 0.67064 0.28309 0.89202 0.0
C1389 C 0.65565 0.3292 0.88673 0.0
C1390 C 0.6712 0.19116 0.8907 0.0
C1391 C 0.65685 0.14298 0.88374 0.0
C1392 C 0.64182 0.18949 0.87854 0.0
C1393 C 0.64119 0.28142 0.8802 0.0
C1394 C 0.64355 0.90243 0.88621 0.0
C1395 C 0.65854 0.85828 0.87988 0.0
C1396 C 0.64306 0.99418 0.88749 0.0
C1397 C 0.65748 0.04479 0.88215 0.0
C1398 C 0.67246 0.00058 0.87552 0.0
C1399 C 0.67301 0.90828 0.87456 0.0
H1400 H 0.42985 0.86965 0.64597 0.0
H1401 H 0.37663 0.87351 0.6279 0.0
H1402 H 0.43058 0.02991 0.64486 0.0
H1403 H 0.3775 0.0337 0.62569 0.0
H1404 H 0.37975 0.32174 0.64509 0.0
H1405 H 0.37913 0.16215 0.64706 0.0
H1406 H 0.43034 0.15179 0.62066 0.0
H1407 H 0.4312 0.31261 0.61975 0.0
C1408 C 0.41831 0.90486 0.64168 0.0
C1409 C 0.40316 0.859 0.63713 0.0
C1410 C 0.41876 -0.00314 0.64082 0.0
C1411 C 0.40413 0.04529 0.63508 0.0
C1412 C 0.38896 -0.00095 0.63056 0.0
C1413 C 0.38845 0.90705 0.63174 0.0
C1414 C 0.39088 0.28546 0.63964 0.0
C1415 C 0.40553 0.32984 0.63222 0.0
C1416 C 0.39049 0.19362 0.64064 0.0
C1417 C 0.40465 0.14346 0.63395 0.0
C1418 C 0.41928 0.18803 0.62632 0.0
C1419 C 0.41976 0.28025 0.62562 0.0
H1420 H 0.63002 0.68566 0.62144 0.0
H1421 H 0.68232 0.67531 0.64353 0.0
H1422 H 0.63101 0.84656 0.62265 0.0
H1423 H 0.68309 0.83453 0.6459 0.0
H1424 H 0.68524 0.12409 0.62804 0.0
H1425 H 0.68418 0.96403 0.62531 0.0
H1426 H 0.63163 0.96789 0.64688 0.0
H1427 H 0.63252 0.12806 0.64846 0.0
C1428 C 0.64168 0.71773 0.62664 0.0
C1429 C 0.6561 0.66772 0.63225 0.0
C1430 C 0.64225 0.80999 0.62753 0.0
C1431 C 0.65715 0.85417 0.63439 0.0
C1432 C 0.6715 0.80354 0.64007 0.0
C1433 C 0.67102 0.71178 0.63885 0.0
C1434 C 0.67351 0.09056 0.63233 0.0
C1435 C 0.65899 0.13863 0.6385 0.0
C1436 C 0.67288 -0.0014 0.63083 0.0
C1437 C 0.65779 0.95237 0.63584 0.0
C1438 C 0.64337 0.00085 0.64243 0.0
C1439 C 0.64393 0.09281 0.64357 0.0
loop_
_geom_bond_atom_site_label_1
_geom_bond_atom_site_label_2
_geom_bond_distance
_geom_bond_site_symmetry_2
_ccdc_geom_bond_type
Co0 N5 2.057 . S
Co0 O17 2.021 . S
Co0 O20 2.062 . S
Co0 O24 2.117 . S
Co0 O25 2.020 1_545 S
C1 O21 1.259 . S
C1 O24 1.258 . S
Co2 N11 2.057 . S
Co2 O18 2.117 . S
Co2 O19 2.020 . S
Co2 O21 2.021 . S
Co2 O26 2.062 1_545 S
C3 N5 1.316 . S
C3 N6 1.347 . S
C3 H8 0.931 . S
C4 N5 1.375 . S
C4 C7 1.350 . S
C4 H9 0.930 . S
N5 Co0 2.057 . S
N5 C3 1.316 . S
N5 C4 1.375 . S
N6 C3 1.347 . S
N6 C7 1.373 . S
C7 C4 1.350 . S
C7 N6 1.373 . S
C7 H28 0.931 . S
H8 C3 0.931 . S
H9 C4 0.930 . S
C10 O17 1.259 . S
C10 O18 1.258 . S
N11 Co2 2.057 . S
N11 C12 1.316 . S
N11 C13 1.375 . S
C12 N11 1.316 . S
C12 N14 1.347 . S
C12 H23 0.931 . S
C13 N11 1.375 . S
C13 C15 1.350 . S
C13 H22 0.930 . S
N14 C12 1.347 . S
N14 C15 1.373 . S
C15 C13 1.350 . S
C15 N14 1.373 . S
C15 H29 0.931 . S
C16 O19 1.256 . S
C16 O20 1.255 . S
O17 Co0 2.021 . S
O17 C10 1.259 . S
O18 Co2 2.117 . S
O18 C10 1.258 . S
O19 Co2 2.020 . S
O19 C16 1.256 . S
O20 Co0 2.062 . S
O20 C16 1.255 . S
O21 C1 1.259 . S
O21 Co2 2.021 . S
H22 C13 0.930 . S
H23 C12 0.931 . S
O24 Co0 2.117 . S
O24 C1 1.258 . S
O25 Co0 2.020 1_565 S
O25 C27 1.256 . S
O26 Co2 2.062 1_565 S
O26 C27 1.255 . S
C27 O25 1.256 . S
C27 O26 1.255 . S
H28 C7 0.931 . S
H29 C15 0.931 . S
Co30 N35 2.057 . S
Co30 O47 2.021 . S
Co30 O50 2.062 . S
Co30 O54 2.117 . S
Co30 O55 2.020 1_565 S
C31 O51 1.259 . S
C31 O54 1.258 . S
Co32 N41 2.057 . S
Co32 O48 2.117 . S
Co32 O49 2.020 . S
Co32 O51 2.021 . S
Co32 O56 2.062 1_565 S
C33 N35 1.316 . S
C33 N36 1.347 . S
C33 H38 0.931 . S
C34 N35 1.375 . S
C34 C37 1.350 . S
C34 H39 0.930 . S
N35 Co30 2.057 . S
N35 C33 1.316 . S
N35 C34 1.375 . S
N36 C33 1.347 . S
N36 C37 1.373 . S
C37 C34 1.350 . S
C37 N36 1.373 . S
C37 H58 0.931 . S
H38 C33 0.931 . S
H39 C34 0.930 . S
C40 O47 1.259 . S
C40 O48 1.258 . S
N41 Co32 2.057 . S
N41 C42 1.316 . S
N41 C43 1.375 . S
C42 N41 1.316 . S
C42 N44 1.347 . S
C42 H53 0.931 . S
C43 N41 1.375 . S
C43 C45 1.350 . S
C43 H52 0.930 . S
N44 C42 1.347 . S
N44 C45 1.373 . S
C45 C43 1.350 . S
C45 N44 1.373 . S
C45 H59 0.931 . S
C46 O49 1.256 . S
C46 O50 1.255 . S
O47 Co30 2.021 . S
O47 C40 1.259 . S
O48 Co32 2.117 . S
O48 C40 1.258 . S
O49 Co32 2.020 . S
O49 C46 1.256 . S
O50 Co30 2.062 . S
O50 C46 1.255 . S
O51 C31 1.259 . S
O51 Co32 2.021 . S
H52 C43 0.930 . S
H53 C42 0.931 . S
O54 Co30 2.117 . S
O54 C31 1.258 . S
O55 Co30 2.020 1_545 S
O55 C57 1.256 . S
O56 Co32 2.062 1_545 S
O56 C57 1.255 . S
C57 O55 1.256 . S
C57 O56 1.255 . S
H58 C37 0.931 . S
H59 C45 0.931 . S
Co60 N65 2.057 . S
Co60 O77 2.021 . S
Co60 O80 2.062 . S
Co60 O84 2.117 . S
Co60 O85 2.020 1_565 S
C61 O81 1.259 . S
C61 O84 1.258 . S
Co62 N71 2.057 . S
Co62 O78 2.117 . S
Co62 O79 2.020 . S
Co62 O81 2.021 . S
Co62 O86 2.062 1_565 S
C63 N65 1.316 . S
C63 N66 1.347 . S
C63 H68 0.931 . S
C64 N65 1.375 . S
C64 C67 1.350 . S
C64 H69 0.930 . S
N65 Co60 2.057 . S
N65 C63 1.316 . S
N65 C64 1.375 . S
N66 C63 1.347 . S
N66 C67 1.373 . S
C67 C64 1.350 . S
C67 N66 1.373 . S
C67 H88 0.931 . S
H68 C63 0.931 . S
H69 C64 0.930 . S
C70 O77 1.259 . S
C70 O78 1.258 . S
N71 Co62 2.057 . S
N71 C72 1.316 . S
N71 C73 1.375 . S
C72 N71 1.316 . S
C72 N74 1.347 . S
C72 H83 0.931 . S
C73 N71 1.375 . S
C73 C75 1.350 . S
C73 H82 0.930 . S
N74 C72 1.347 . S
N74 C75 1.373 . S
C75 C73 1.350 . S
C75 N74 1.373 . S
C75 H89 0.931 . S
C76 O79 1.256 . S
C76 O80 1.255 . S
O77 Co60 2.021 . S
O77 C70 1.259 . S
O78 Co62 2.117 . S
O78 C70 1.258 . S
O79 Co62 2.020 . S
O79 C76 1.256 . S
O80 Co60 2.062 . S
O80 C76 1.255 . S
O81 C61 1.259 . S
O81 Co62 2.021 . S
H82 C73 0.930 . S
H83 C72 0.931 . S
O84 Co60 2.117 . S
O84 C61 1.258 . S
O85 Co60 2.020 1_545 S
O85 C87 1.256 . S
O86 Co62 2.062 1_545 S
O86 C87 1.255 . S
C87 O85 1.256 . S
C87 O86 1.255 . S
H88 C67 0.931 . S
H89 C75 0.931 . S
Co90 N95 2.057 . S
Co90 O107 2.021 . S
Co90 O110 2.062 . S
Co90 O114 2.117 . S
Co90 O115 2.020 1_545 S
C91 O111 1.259 . S
C91 O114 1.258 . S
Co92 N101 2.057 . S
Co92 O108 2.117 . S
Co92 O109 2.020 . S
Co92 O111 2.021 . S
Co92 O116 2.062 1_545 S
C93 N95 1.316 . S
C93 N96 1.347 . S
C93 H98 0.931 . S
C94 N95 1.375 . S
C94 C97 1.350 . S
C94 H99 0.930 . S
N95 Co90 2.057 . S
N95 C93 1.316 . S
N95 C94 1.375 . S
N96 C93 1.347 . S
N96 C97 1.373 . S
C97 C94 1.350 . S
C97 N96 1.373 . S
C97 H118 0.931 . S
H98 C93 0.931 . S
H99 C94 0.930 . S
C100 O107 1.259 . S
C100 O108 1.258 . S
N101 Co92 2.057 . S
N101 C102 1.316 . S
N101 C103 1.375 . S
C102 N101 1.316 . S
C102 N104 1.347 . S
C102 H113 0.931 . S
C103 N101 1.375 . S
C103 C105 1.350 . S
C103 H112 0.930 . S
N104 C102 1.347 . S
N104 C105 1.373 . S
C105 C103 1.350 . S
C105 N104 1.373 . S
C105 H119 0.931 . S
C106 O109 1.256 . S
C106 O110 1.255 . S
O107 Co90 2.021 . S
O107 C100 1.259 . S
O108 Co92 2.117 . S
O108 C100 1.258 . S
O109 Co92 2.020 . S
O109 C106 1.256 . S
O110 Co90 2.062 . S
O110 C106 1.255 . S
O111 C91 1.259 . S
O111 Co92 2.021 . S
H112 C103 0.930 . S
H113 C102 0.931 . S
O114 Co90 2.117 . S
O114 C91 1.258 . S
O115 Co90 2.020 1_565 S
O115 C117 1.256 . S
O116 Co92 2.062 1_565 S
O116 C117 1.255 . S
C117 O115 1.256 . S
C117 O116 1.255 . S
H118 C97 0.931 . S
H119 C105 0.931 . S
Co120 N125 2.057 . S
Co120 O137 2.021 . S
Co120 O140 2.062 1_565 S
Co120 O144 2.117 . S
Co120 O145 2.020 . S
C121 O141 1.259 . S
C121 O144 1.258 . S
Co122 N131 2.057 . S
Co122 O138 2.117 . S
Co122 O139 2.020 1_565 S
Co122 O141 2.021 . S
Co122 O146 2.062 . S
C123 N125 1.316 . S
C123 N126 1.347 . S
C123 H128 0.931 . S
C124 N125 1.375 . S
C124 C127 1.350 . S
C124 H129 0.930 . S
N125 Co120 2.057 . S
N125 C123 1.316 . S
N125 C124 1.375 . S
N126 C123 1.347 . S
N126 C127 1.373 . S
C127 C124 1.350 . S
C127 N126 1.373 . S
C127 H148 0.931 . S
H128 C123 0.931 . S
H129 C124 0.930 . S
C130 O137 1.259 . S
C130 O138 1.258 . S
N131 Co122 2.057 . S
N131 C132 1.316 . S
N131 C133 1.375 . S
C132 N131 1.316 . S
C132 N134 1.347 . S
C132 H143 0.931 . S
C133 N131 1.375 . S
C133 C135 1.350 . S
C133 H142 0.930 . S
N134 C132 1.347 . S
N134 C135 1.373 . S
C135 C133 1.350 . S
C135 N134 1.373 . S
C135 H149 0.931 . S
C136 O139 1.256 . S
C136 O140 1.255 . S
O137 Co120 2.021 . S
O137 C130 1.259 . S
O138 Co122 2.117 . S
O138 C130 1.258 . S
O139 Co122 2.020 1_545 S
O139 C136 1.256 . S
O140 Co120 2.062 1_545 S
O140 C136 1.255 . S
O141 C121 1.259 . S
O141 Co122 2.021 . S
H142 C133 0.930 . S
H143 C132 0.931 . S
O144 Co120 2.117 . S
O144 C121 1.258 . S
O145 Co120 2.020 . S
O145 C147 1.256 . S
O146 Co122 2.062 . S
O146 C147 1.255 . S
C147 O145 1.256 . S
C147 O146 1.255 . S
H148 C127 0.931 . S
H149 C135 0.931 . S
Co150 N155 2.057 . S
Co150 O167 2.021 . S
Co150 O170 2.062 1_545 S
Co150 O174 2.117 . S
Co150 O175 2.020 . S
C151 O171 1.259 . S
C151 O174 1.258 . S
Co152 N161 2.057 . S
Co152 O168 2.117 . S
Co152 O169 2.020 1_545 S
Co152 O171 2.021 . S
Co152 O176 2.062 . S
C153 N155 1.316 . S
C153 N156 1.347 . S
C153 H158 0.931 . S
C154 N155 1.375 . S
C154 C157 1.350 . S
C154 H159 0.930 . S
N155 Co150 2.057 . S
N155 C153 1.316 . S
N155 C154 1.375 . S
N156 C153 1.347 . S
N156 C157 1.373 . S
C157 C154 1.350 . S
C157 N156 1.373 . S
C157 H178 0.931 . S
H158 C153 0.931 . S
H159 C154 0.930 . S
C160 O167 1.259 . S
C160 O168 1.258 . S
N161 Co152 2.057 . S
N161 C162 1.316 . S
N161 C163 1.375 . S
C162 N161 1.316 . S
C162 N164 1.347 . S
C162 H173 0.931 . S
C163 N161 1.375 . S
C163 C165 1.350 . S
C163 H172 0.930 . S
N164 C162 1.347 . S
N164 C165 1.373 . S
C165 C163 1.350 . S
C165 N164 1.373 . S
C165 H179 0.931 . S
C166 O169 1.256 . S
C166 O170 1.255 . S
O167 Co150 2.021 . S
O167 C160 1.259 . S
O168 Co152 2.117 . S
O168 C160 1.258 . S
O169 Co152 2.020 1_565 S
O169 C166 1.256 . S
O170 Co150 2.062 1_565 S
O170 C166 1.255 . S
O171 C151 1.259 . S
O171 Co152 2.021 . S
H172 C163 0.930 . S
H173 C162 0.931 . S
O174 Co150 2.117 . S
O174 C151 1.258 . S
O175 Co150 2.020 . S
O175 C177 1.256 . S
O176 Co152 2.062 . S
O176 C177 1.255 . S
C177 O175 1.256 . S
C177 O176 1.255 . S
H178 C157 0.931 . S
H179 C165 0.931 . S
Co180 N185 2.057 . S
Co180 O197 2.021 . S
Co180 O200 2.062 1_545 S
Co180 O204 2.117 . S
Co180 O205 2.020 . S
C181 O201 1.259 . S
C181 O204 1.258 . S
Co182 N191 2.057 . S
Co182 O198 2.117 . S
Co182 O199 2.020 1_545 S
Co182 O201 2.021 . S
Co182 O206 2.062 . S
C183 N185 1.316 . S
C183 N186 1.347 . S
C183 H188 0.931 . S
C184 N185 1.375 . S
C184 C187 1.350 . S
C184 H189 0.930 . S
N185 Co180 2.057 . S
N185 C183 1.316 . S
N185 C184 1.375 . S
N186 C183 1.347 . S
N186 C187 1.373 . S
C187 C184 1.350 . S
C187 N186 1.373 . S
C187 H208 0.931 . S
H188 C183 0.931 . S
H189 C184 0.930 . S
C190 O197 1.259 . S
C190 O198 1.258 . S
N191 Co182 2.057 . S
N191 C192 1.316 . S
N191 C193 1.375 . S
C192 N191 1.316 . S
C192 N194 1.347 . S
C192 H203 0.931 . S
C193 N191 1.375 . S
C193 C195 1.350 . S
C193 H202 0.930 . S
N194 C192 1.347 . S
N194 C195 1.373 . S
C195 C193 1.350 . S
C195 N194 1.373 . S
C195 H209 0.931 . S
C196 O199 1.256 . S
C196 O200 1.255 . S
O197 Co180 2.021 . S
O197 C190 1.259 . S
O198 Co182 2.117 . S
O198 C190 1.258 . S
O199 Co182 2.020 1_565 S
O199 C196 1.256 . S
O200 Co180 2.062 1_565 S
O200 C196 1.255 . S
O201 C181 1.259 . S
O201 Co182 2.021 . S
H202 C193 0.930 . S
H203 C192 0.931 . S
O204 Co180 2.117 . S
O204 C181 1.258 . S
O205 Co180 2.020 . S
O205 C207 1.256 . S
O206 Co182 2.062 . S
O206 C207 1.255 . S
C207 O205 1.256 . S
C207 O206 1.255 . S
H208 C187 0.931 . S
H209 C195 0.931 . S
Co210 N215 2.057 . S
Co210 O227 2.021 . S
Co210 O230 2.062 1_565 S
Co210 O234 2.117 . S
Co210 O235 2.020 . S
C211 O231 1.259 . S
C211 O234 1.258 . S
Co212 N221 2.057 . S
Co212 O228 2.117 . S
Co212 O229 2.020 1_565 S
Co212 O231 2.021 . S
Co212 O236 2.062 . S
C213 N215 1.316 . S
C213 N216 1.347 . S
C213 H218 0.931 . S
C214 N215 1.375 . S
C214 C217 1.350 . S
C214 H219 0.930 . S
N215 Co210 2.057 . S
N215 C213 1.316 . S
N215 C214 1.375 . S
N216 C213 1.347 . S
N216 C217 1.373 . S
C217 C214 1.350 . S
C217 N216 1.373 . S
C217 H238 0.931 . S
H218 C213 0.931 . S
H219 C214 0.930 . S
C220 O227 1.259 . S
C220 O228 1.258 . S
N221 Co212 2.057 . S
N221 C222 1.316 . S
N221 C223 1.375 . S
C222 N221 1.316 . S
C222 N224 1.347 . S
C222 H233 0.931 . S
C223 N221 1.375 . S
C223 C225 1.350 . S
C223 H232 0.930 . S
N224 C222 1.347 . S
N224 C225 1.373 . S
C225 C223 1.350 . S
C225 N224 1.373 . S
C225 H239 0.931 . S
C226 O229 1.256 . S
C226 O230 1.255 . S
O227 Co210 2.021 . S
O227 C220 1.259 . S
O228 Co212 2.117 . S
O228 C220 1.258 . S
O229 Co212 2.020 1_545 S
O229 C226 1.256 . S
O230 Co210 2.062 1_545 S
O230 C226 1.255 . S
O231 C211 1.259 . S
O231 Co212 2.021 . S
H232 C223 0.930 . S
H233 C222 0.931 . S
O234 Co210 2.117 . S
O234 C211 1.258 . S
O235 Co210 2.020 . S
O235 C237 1.256 . S
O236 Co212 2.062 . S
O236 C237 1.255 . S
C237 O235 1.256 . S
C237 O236 1.255 . S
H238 C217 0.931 . S
H239 C225 0.931 . S
Co240 N245 2.057 . S
Co240 O257 2.021 . S
Co240 O260 2.062 . S
Co240 O264 2.117 . S
Co240 O265 2.020 . S
C241 O261 1.259 . S
C241 O264 1.258 . S
Co242 N251 2.057 . S
Co242 O258 2.117 . S
Co242 O259 2.020 . S
Co242 O261 2.021 . S
Co242 O266 2.062 . S
C243 N245 1.316 . S
C243 N246 1.347 . S
C243 H248 0.931 . S
C244 N245 1.375 . S
C244 C247 1.350 . S
C244 H249 0.930 . S
N245 Co240 2.057 . S
N245 C243 1.316 . S
N245 C244 1.375 . S
N246 C243 1.347 . S
N246 C247 1.373 . S
C247 C244 1.350 . S
C247 N246 1.373 . S
C247 H268 0.931 . S
H248 C243 0.931 . S
H249 C244 0.930 . S
C250 O257 1.259 . S
C250 O258 1.258 . S
N251 Co242 2.057 . S
N251 C252 1.316 . S
N251 C253 1.375 . S
C252 N251 1.316 . S
C252 N254 1.347 . S
C252 H263 0.931 . S
C253 N251 1.375 . S
C253 C255 1.350 . S
C253 H262 0.930 . S
N254 C252 1.347 . S
N254 C255 1.373 . S
C255 C253 1.350 . S
C255 N254 1.373 . S
C255 H269 0.931 . S
C256 O259 1.256 . S
C256 O260 1.255 . S
O257 Co240 2.021 . S
O257 C250 1.259 . S
O258 Co242 2.117 . S
O258 C250 1.258 . S
O259 Co242 2.020 . S
O259 C256 1.256 . S
O260 Co240 2.062 . S
O260 C256 1.255 . S
O261 C241 1.259 . S
O261 Co242 2.021 . S
H262 C253 0.930 . S
H263 C252 0.931 . S
O264 Co240 2.117 . S
O264 C241 1.258 . S
O265 Co240 2.020 . S
O265 C267 1.256 . S
O266 Co242 2.062 . S
O266 C267 1.255 . S
C267 O265 1.256 . S
C267 O266 1.255 . S
H268 C247 0.931 . S
H269 C255 0.931 . S
Co270 N275 2.057 . S
Co270 O287 2.021 . S
Co270 O290 2.062 . S
Co270 O294 2.117 . S
Co270 O295 2.020 . S
C271 O291 1.259 . S
C271 O294 1.258 . S
Co272 N281 2.057 . S
Co272 O288 2.117 . S
Co272 O289 2.020 . S
Co272 O291 2.021 . S
Co272 O296 2.062 . S
C273 N275 1.316 . S
C273 N276 1.347 . S
C273 H278 0.931 . S
C274 N275 1.375 . S
C274 C277 1.350 . S
C274 H279 0.930 . S
N275 Co270 2.057 . S
N275 C273 1.316 . S
N275 C274 1.375 . S
N276 C273 1.347 . S
N276 C277 1.373 . S
C277 C274 1.350 . S
C277 N276 1.373 . S
C277 H298 0.931 . S
H278 C273 0.931 . S
H279 C274 0.930 . S
C280 O287 1.259 . S
C280 O288 1.258 . S
N281 Co272 2.057 . S
N281 C282 1.316 . S
N281 C283 1.375 . S
C282 N281 1.316 . S
C282 N284 1.347 . S
C282 H293 0.931 . S
C283 N281 1.375 . S
C283 C285 1.350 . S
C283 H292 0.930 . S
N284 C282 1.347 . S
N284 C285 1.373 . S
C285 C283 1.350 . S
C285 N284 1.373 . S
C285 H299 0.931 . S
C286 O289 1.256 . S
C286 O290 1.255 . S
O287 Co270 2.021 . S
O287 C280 1.259 . S
O288 Co272 2.117 . S
O288 C280 1.258 . S
O289 Co272 2.020 . S
O289 C286 1.256 . S
O290 Co270 2.062 . S
O290 C286 1.255 . S
O291 C271 1.259 . S
O291 Co272 2.021 . S
H292 C283 0.930 . S
H293 C282 0.931 . S
O294 Co270 2.117 . S
O294 C271 1.258 . S
O295 Co270 2.020 . S
O295 C297 1.256 . S
O296 Co272 2.062 . S
O296 C297 1.255 . S
C297 O295 1.256 . S
C297 O296 1.255 . S
H298 C277 0.931 . S
H299 C285 0.931 . S
Co300 N305 2.057 . S
Co300 O317 2.021 . S
Co300 O320 2.062 . S
Co300 O324 2.117 . S
Co300 O325 2.020 . S
C301 O321 1.259 . S
C301 O324 1.258 . S
Co302 N311 2.057 . S
Co302 O318 2.117 . S
Co302 O319 2.020 . S
Co302 O321 2.021 . S
Co302 O326 2.062 . S
C303 N305 1.316 . S
C303 N306 1.347 . S
C303 H308 0.931 . S
C304 N305 1.375 . S
C304 C307 1.350 . S
C304 H309 0.930 . S
N305 Co300 2.057 . S
N305 C303 1.316 . S
N305 C304 1.375 . S
N306 C303 1.347 . S
N306 C307 1.373 . S
C307 C304 1.350 . S
C307 N306 1.373 . S
C307 H328 0.931 . S
H308 C303 0.931 . S
H309 C304 0.930 . S
C310 O317 1.259 . S
C310 O318 1.258 . S
N311 Co302 2.057 . S
N311 C312 1.316 . S
N311 C313 1.375 . S
C312 N311 1.316 . S
C312 N314 1.347 . S
C312 H323 0.931 . S
C313 N311 1.375 . S
C313 C315 1.350 . S
C313 H322 0.930 . S
N314 C312 1.347 . S
N314 C315 1.373 . S
C315 C313 1.350 . S
C315 N314 1.373 . S
C315 H329 0.931 . S
C316 O319 1.256 . S
C316 O320 1.255 . S
O317 Co300 2.021 . S
O317 C310 1.259 . S
O318 Co302 2.117 . S
O318 C310 1.258 . S
O319 Co302 2.020 . S
O319 C316 1.256 . S
O320 Co300 2.062 . S
O320 C316 1.255 . S
O321 C301 1.259 . S
O321 Co302 2.021 . S
H322 C313 0.930 . S
H323 C312 0.931 . S
O324 Co300 2.117 . S
O324 C301 1.258 . S
O325 Co300 2.020 . S
O325 C327 1.256 . S
O326 Co302 2.062 . S
O326 C327 1.255 . S
C327 O325 1.256 . S
C327 O326 1.255 . S
H328 C307 0.931 . S
H329 C315 0.931 . S
Co330 N335 2.057 . S
Co330 O347 2.021 . S
Co330 O350 2.062 . S
Co330 O354 2.117 . S
Co330 O355 2.020 . S
C331 O351 1.259 . S
C331 O354 1.258 . S
Co332 N341 2.057 . S
Co332 O348 2.117 . S
Co332 O349 2.020 . S
Co332 O351 2.021 . S
Co332 O356 2.062 . S
C333 N335 1.316 . S
C333 N336 1.347 . S
C333 H338 0.931 . S
C334 N335 1.375 . S
C334 C337 1.350 . S
C334 H339 0.930 . S
N335 Co330 2.057 . S
N335 C333 1.316 . S
N335 C334 1.375 . S
N336 C333 1.347 . S
N336 C337 1.373 . S
C337 C334 1.350 . S
C337 N336 1.373 . S
C337 H358 0.931 . S
H338 C333 0.931 . S
H339 C334 0.930 . S
C340 O347 1.259 . S
C340 O348 1.258 . S
N341 Co332 2.057 . S
N341 C342 1.316 . S
N341 C343 1.375 . S
C342 N341 1.316 . S
C342 N344 1.347 . S
C342 H353 0.931 . S
C343 N341 1.375 . S
C343 C345 1.350 . S
C343 H352 0.930 . S
N344 C342 1.347 . S
N344 C345 1.373 . S
C345 C343 1.350 . S
C345 N344 1.373 . S
C345 H359 0.931 . S
C346 O349 1.256 . S
C346 O350 1.255 . S
O347 Co330 2.021 . S
O347 C340 1.259 . S
O348 Co332 2.117 . S
O348 C340 1.258 . S
O349 Co332 2.020 . S
O349 C346 1.256 . S
O350 Co330 2.062 . S
O350 C346 1.255 . S
O351 C331 1.259 . S
O351 Co332 2.021 . S
H352 C343 0.930 . S
H353 C342 0.931 . S
O354 Co330 2.117 . S
O354 C331 1.258 . S
O355 Co330 2.020 . S
O355 C357 1.256 . S
O356 Co332 2.062 . S
O356 C357 1.255 . S
C357 O355 1.256 . S
C357 O356 1.255 . S
H358 C337 0.931 . S
H359 C345 0.931 . S
Co360 N365 2.057 . S
Co360 O377 2.021 . S
Co360 O380 2.062 . S
Co360 O384 2.117 . S
Co360 O385 2.020 . S
C361 O381 1.259 . S
C361 O384 1.258 . S
Co362 N371 2.057 . S
Co362 O378 2.117 . S
Co362 O379 2.020 . S
Co362 O381 2.021 . S
Co362 O386 2.062 . S
C363 N365 1.316 . S
C363 N366 1.347 . S
C363 H368 0.931 . S
C364 N365 1.375 . S
C364 C367 1.350 . S
C364 H369 0.930 . S
N365 Co360 2.057 . S
N365 C363 1.316 . S
N365 C364 1.375 . S
N366 C363 1.347 . S
N366 C367 1.373 . S
C367 C364 1.350 . S
C367 N366 1.373 . S
C367 H388 0.931 . S
H368 C363 0.931 . S
H369 C364 0.930 . S
C370 O377 1.259 . S
C370 O378 1.258 . S
N371 Co362 2.057 . S
N371 C372 1.316 . S
N371 C373 1.375 . S
C372 N371 1.316 . S
C372 N374 1.347 . S
C372 H383 0.931 . S
C373 N371 1.375 . S
C373 C375 1.350 . S
C373 H382 0.930 . S
N374 C372 1.347 . S
N374 C375 1.373 . S
C375 C373 1.350 . S
C375 N374 1.373 . S
C375 H389 0.931 . S
C376 O379 1.256 . S
C376 O380 1.255 . S
O377 Co360 2.021 . S
O377 C370 1.259 . S
O378 Co362 2.117 . S
O378 C370 1.258 . S
O379 Co362 2.020 . S
O379 C376 1.256 . S
O380 Co360 2.062 . S
O380 C376 1.255 . S
O381 C361 1.259 . S
O381 Co362 2.021 . S
H382 C373 0.930 . S
H383 C372 0.931 . S
O384 Co360 2.117 . S
O384 C361 1.258 . S
O385 Co360 2.020 . S
O385 C387 1.256 . S
O386 Co362 2.062 . S
O386 C387 1.255 . S
C387 O385 1.256 . S
C387 O386 1.255 . S
H388 C367 0.931 . S
H389 C375 0.931 . S
Co390 N395 2.057 . S
Co390 O407 2.021 . S
Co390 O410 2.062 . S
Co390 O414 2.117 . S
Co390 O415 2.020 . S
C391 O411 1.259 . S
C391 O414 1.258 . S
Co392 N401 2.057 . S
Co392 O408 2.117 . S
Co392 O409 2.020 . S
Co392 O411 2.021 . S
Co392 O416 2.062 . S
C393 N395 1.316 . S
C393 N396 1.347 . S
C393 H398 0.931 . S
C394 N395 1.375 . S
C394 C397 1.350 . S
C394 H399 0.930 . S
N395 Co390 2.057 . S
N395 C393 1.316 . S
N395 C394 1.375 . S
N396 C393 1.347 . S
N396 C397 1.373 . S
C397 C394 1.350 . S
C397 N396 1.373 . S
C397 H418 0.931 . S
H398 C393 0.931 . S
H399 C394 0.930 . S
C400 O407 1.259 . S
C400 O408 1.258 . S
N401 Co392 2.057 . S
N401 C402 1.316 . S
N401 C403 1.375 . S
C402 N401 1.316 . S
C402 N404 1.347 . S
C402 H413 0.931 . S
C403 N401 1.375 . S
C403 C405 1.350 . S
C403 H412 0.930 . S
N404 C402 1.347 . S
N404 C405 1.373 . S
C405 C403 1.350 . S
C405 N404 1.373 . S
C405 H419 0.931 . S
C406 O409 1.256 . S
C406 O410 1.255 . S
O407 Co390 2.021 . S
O407 C400 1.259 . S
O408 Co392 2.117 . S
O408 C400 1.258 . S
O409 Co392 2.020 . S
O409 C406 1.256 . S
O410 Co390 2.062 . S
O410 C406 1.255 . S
O411 C391 1.259 . S
O411 Co392 2.021 . S
H412 C403 0.930 . S
H413 C402 0.931 . S
O414 Co390 2.117 . S
O414 C391 1.258 . S
O415 Co390 2.020 . S
O415 C417 1.256 . S
O416 Co392 2.062 . S
O416 C417 1.255 . S
C417 O415 1.256 . S
C417 O416 1.255 . S
H418 C397 0.931 . S
H419 C405 0.931 . S
Co420 N425 2.057 . S
Co420 O437 2.021 . S
Co420 O440 2.062 . S
Co420 O444 2.117 . S
Co420 O445 2.020 . S
C421 O441 1.259 . S
C421 O444 1.258 . S
Co422 N431 2.057 . S
Co422 O438 2.117 . S
Co422 O439 2.020 . S
Co422 O441 2.021 . S
Co422 O446 2.062 . S
C423 N425 1.316 . S
C423 N426 1.347 . S
C423 H428 0.931 . S
C424 N425 1.375 . S
C424 C427 1.350 . S
C424 H429 0.930 . S
N425 Co420 2.057 . S
N425 C423 1.316 . S
N425 C424 1.375 . S
N426 C423 1.347 . S
N426 C427 1.373 . S
C427 C424 1.350 . S
C427 N426 1.373 . S
C427 H448 0.931 . S
H428 C423 0.931 . S
H429 C424 0.930 . S
C430 O437 1.259 . S
C430 O438 1.258 . S
N431 Co422 2.057 . S
N431 C432 1.316 . S
N431 C433 1.375 . S
C432 N431 1.316 . S
C432 N434 1.347 . S
C432 H443 0.931 . S
C433 N431 1.375 . S
C433 C435 1.350 . S
C433 H442 0.930 . S
N434 C432 1.347 . S
N434 C435 1.373 . S
C435 C433 1.350 . S
C435 N434 1.373 . S
C435 H449 0.931 . S
C436 O439 1.256 . S
C436 O440 1.255 . S
O437 Co420 2.021 . S
O437 C430 1.259 . S
O438 Co422 2.117 . S
O438 C430 1.258 . S
O439 Co422 2.020 . S
O439 C436 1.256 . S
O440 Co420 2.062 . S
O440 C436 1.255 . S
O441 C421 1.259 . S
O441 Co422 2.021 . S
H442 C433 0.930 . S
H443 C432 0.931 . S
O444 Co420 2.117 . S
O444 C421 1.258 . S
O445 Co420 2.020 . S
O445 C447 1.256 . S
O446 Co422 2.062 . S
O446 C447 1.255 . S
C447 O445 1.256 . S
C447 O446 1.255 . S
H448 C427 0.931 . S
H449 C435 0.931 . S
Co450 N455 2.057 . S
Co450 O467 2.021 . S
Co450 O470 2.062 . S
Co450 O474 2.117 . S
Co450 O475 2.020 . S
C451 O471 1.259 . S
C451 O474 1.258 . S
Co452 N461 2.057 . S
Co452 O468 2.117 . S
Co452 O469 2.020 . S
Co452 O471 2.021 . S
Co452 O476 2.062 . S
C453 N455 1.316 . S
C453 N456 1.347 . S
C453 H458 0.931 . S
C454 N455 1.375 . S
C454 C457 1.350 . S
C454 H459 0.930 . S
N455 Co450 2.057 . S
N455 C453 1.316 . S
N455 C454 1.375 . S
N456 C453 1.347 . S
N456 C457 1.373 . S
C457 C454 1.350 . S
C457 N456 1.373 . S
C457 H478 0.931 . S
H458 C453 0.931 . S
H459 C454 0.930 . S
C460 O467 1.259 . S
C460 O468 1.258 . S
N461 Co452 2.057 . S
N461 C462 1.316 . S
N461 C463 1.375 . S
C462 N461 1.316 . S
C462 N464 1.347 . S
C462 H473 0.931 . S
C463 N461 1.375 . S
C463 C465 1.350 . S
C463 H472 0.930 . S
N464 C462 1.347 . S
N464 C465 1.373 . S
C465 C463 1.350 . S
C465 N464 1.373 . S
C465 H479 0.931 . S
C466 O469 1.256 . S
C466 O470 1.255 . S
O467 Co450 2.021 . S
O467 C460 1.259 . S
O468 Co452 2.117 . S
O468 C460 1.258 . S
O469 Co452 2.020 . S
O469 C466 1.256 . S
O470 Co450 2.062 . S
O470 C466 1.255 . S
O471 C451 1.259 . S
O471 Co452 2.021 . S
H472 C463 0.930 . S
H473 C462 0.931 . S
O474 Co450 2.117 . S
O474 C451 1.258 . S
O475 Co450 2.020 . S
O475 C477 1.256 . S
O476 Co452 2.062 . S
O476 C477 1.255 . S
C477 O475 1.256 . S
C477 O476 1.255 . S
H478 C457 0.931 . S
H479 C465 0.931 . S
H480 C488 0.950 . S
H481 C493 0.950 . S
H482 C490 0.950 . S
H483 C492 0.950 . S
H484 C494 0.950 . S
H485 C496 0.950 . S
H486 C498 0.950 . S
H487 C499 0.950 . S
C488 H480 0.950 . S
C488 C489 1.386 . S
C488 C490 1.391 . S
C489 C488 1.386 . S
C489 C493 1.393 . S
C490 H482 0.950 . S
C490 C488 1.391 . S
C490 C491 1.400 . S
C491 C490 1.400 . S
C491 C492 1.398 . S
C491 C497 1.491 . S
C492 H483 0.950 . S
C492 C491 1.398 . S
C492 C493 1.391 . S
C493 H481 0.950 . S
C493 C489 1.393 . S
C493 C492 1.391 . S
C494 H484 0.950 . S
C494 C495 1.386 . S
C494 C496 1.391 . S
C495 C494 1.386 . S
C495 C499 1.393 . S
C496 H485 0.950 . S
C496 C494 1.391 . S
C496 C497 1.400 . S
C497 C491 1.491 . S
C497 C496 1.400 . S
C497 C498 1.398 . S
C498 H486 0.950 . S
C498 C497 1.398 . S
C498 C499 1.391 . S
C499 H487 0.950 . S
C499 C495 1.393 . S
C499 C498 1.391 . S
H500 C508 0.950 . S
H501 C513 0.950 . S
H502 C510 0.950 . S
H503 C512 0.950 . S
H504 C514 0.950 . S
H505 C516 0.950 . S
H506 C518 0.950 . S
H507 C519 0.950 . S
C508 H500 0.950 . S
C508 C509 1.386 . S
C508 C510 1.391 . S
C509 C508 1.386 . S
C509 C513 1.393 . S
C510 H502 0.950 . S
C510 C508 1.391 . S
C510 C511 1.400 . S
C511 C510 1.400 . S
C511 C512 1.398 . S
C511 C517 1.491 . S
C512 H503 0.950 . S
C512 C511 1.398 . S
C512 C513 1.391 . S
C513 H501 0.950 . S
C513 C509 1.393 . S
C513 C512 1.391 . S
C514 H504 0.950 . S
C514 C515 1.386 . S
C514 C516 1.391 . S
C515 C514 1.386 . S
C515 C519 1.393 . S
C516 H505 0.950 . S
C516 C514 1.391 . S
C516 C517 1.400 . S
C517 C511 1.491 . S
C517 C516 1.400 . S
C517 C518 1.398 . S
C518 H506 0.950 . S
C518 C517 1.398 . S
C518 C519 1.391 . S
C519 H507 0.950 . S
C519 C515 1.393 . S
C519 C518 1.391 . S
H520 C528 0.950 . S
H521 C533 0.950 . S
H522 C530 0.950 . S
H523 C532 0.950 . S
H524 C534 0.950 . S
H525 C536 0.950 . S
H526 C538 0.950 . S
H527 C539 0.950 . S
C528 H520 0.950 . S
C528 C529 1.386 . S
C528 C530 1.391 . S
C529 C528 1.386 . S
C529 C533 1.393 . S
C530 H522 0.950 . S
C530 C528 1.391 . S
C530 C531 1.400 . S
C531 C530 1.400 . S
C531 C532 1.398 . S
C531 C537 1.491 . S
C532 H523 0.950 . S
C532 C531 1.398 . S
C532 C533 1.391 . S
C533 H521 0.950 . S
C533 C529 1.393 . S
C533 C532 1.391 . S
C534 H524 0.950 . S
C534 C535 1.386 . S
C534 C536 1.391 . S
C535 C534 1.386 . S
C535 C539 1.393 . S
C536 H525 0.950 . S
C536 C534 1.391 . S
C536 C537 1.400 . S
C537 C531 1.491 . S
C537 C536 1.400 . S
C537 C538 1.398 . S
C538 H526 0.950 . S
C538 C537 1.398 . S
C538 C539 1.391 . S
C539 H527 0.950 . S
C539 C535 1.393 . S
C539 C538 1.391 . S
H540 C548 0.950 . S
H541 C553 0.950 . S
H542 C550 0.950 . S
H543 C552 0.950 . S
H544 C554 0.950 . S
H545 C556 0.950 . S
H546 C558 0.950 . S
H547 C559 0.950 . S
C548 H540 0.950 . S
C548 C549 1.386 . S
C548 C550 1.391 . S
C549 C548 1.386 . S
C549 C553 1.393 . S
C550 H542 0.950 . S
C550 C548 1.391 . S
C550 C551 1.400 . S
C551 C550 1.400 . S
C551 C552 1.398 . S
C551 C557 1.491 . S
C552 H543 0.950 . S
C552 C551 1.398 . S
C552 C553 1.391 . S
C553 H541 0.950 . S
C553 C549 1.393 . S
C553 C552 1.391 . S
C554 H544 0.950 . S
C554 C555 1.386 . S
C554 C556 1.391 . S
C555 C554 1.386 . S
C555 C559 1.393 . S
C556 H545 0.950 . S
C556 C554 1.391 . S
C556 C557 1.400 . S
C557 C551 1.491 . S
C557 C556 1.400 . S
C557 C558 1.398 . S
C558 H546 0.950 . S
C558 C557 1.398 . S
C558 C559 1.391 . S
C559 H547 0.950 . S
C559 C555 1.393 . S
C559 C558 1.391 . S
H560 C568 0.950 . S
H561 C573 0.950 . S
H562 C570 0.950 . S
H563 C572 0.950 . S
H564 C574 0.950 . S
H565 C576 0.950 . S
H566 C578 0.950 . S
H567 C579 0.950 . S
C568 H560 0.950 . S
C568 C569 1.386 . S
C568 C570 1.391 . S
C569 C568 1.386 . S
C569 C573 1.393 . S
C570 H562 0.950 . S
C570 C568 1.391 . S
C570 C571 1.400 . S
C571 C570 1.400 . S
C571 C572 1.398 . S
C571 C577 1.491 . S
C572 H563 0.950 . S
C572 C571 1.398 . S
C572 C573 1.391 . S
C573 H561 0.950 . S
C573 C569 1.393 . S
C573 C572 1.391 . S
C574 H564 0.950 . S
C574 C575 1.386 . S
C574 C576 1.391 . S
C575 C574 1.386 . S
C575 C579 1.393 . S
C576 H565 0.950 . S
C576 C574 1.391 . S
C576 C577 1.400 . S
C577 C571 1.491 . S
C577 C576 1.400 . S
C577 C578 1.398 . S
C578 H566 0.950 . S
C578 C577 1.398 . S
C578 C579 1.391 . S
C579 H567 0.950 . S
C579 C575 1.393 . S
C579 C578 1.391 . S
H580 C588 0.950 . S
H581 C593 0.950 . S
H582 C590 0.950 . S
H583 C592 0.950 . S
H584 C594 0.950 . S
H585 C596 0.950 . S
H586 C598 0.950 . S
H587 C599 0.950 . S
C588 H580 0.950 . S
C588 C589 1.386 . S
C588 C590 1.391 . S
C589 C588 1.386 . S
C589 C593 1.393 . S
C590 H582 0.950 . S
C590 C588 1.391 . S
C590 C591 1.400 . S
C591 C590 1.400 . S
C591 C592 1.398 . S
C591 C597 1.491 . S
C592 H583 0.950 . S
C592 C591 1.398 . S
C592 C593 1.391 . S
C593 H581 0.950 . S
C593 C589 1.393 . S
C593 C592 1.391 . S
C594 H584 0.950 . S
C594 C595 1.386 . S
C594 C596 1.391 . S
C595 C594 1.386 . S
C595 C599 1.393 . S
C596 H585 0.950 . S
C596 C594 1.391 . S
C596 C597 1.400 . S
C597 C591 1.491 . S
C597 C596 1.400 . S
C597 C598 1.398 . S
C598 H586 0.950 . S
C598 C597 1.398 . S
C598 C599 1.391 . S
C599 H587 0.950 . S
C599 C595 1.393 . S
C599 C598 1.391 . S
H600 C608 0.950 . S
H601 C613 0.950 . S
H602 C610 0.950 . S
H603 C612 0.950 . S
H604 C614 0.950 . S
H605 C616 0.950 . S
H606 C618 0.950 . S
H607 C619 0.950 . S
C608 H600 0.950 . S
C608 C609 1.386 . S
C608 C610 1.391 . S
C609 C608 1.386 . S
C609 C613 1.393 . S
C610 H602 0.950 . S
C610 C608 1.391 . S
C610 C611 1.400 . S
C611 C610 1.400 . S
C611 C612 1.398 . S
C611 C617 1.491 . S
C612 H603 0.950 . S
C612 C611 1.398 . S
C612 C613 1.391 . S
C613 H601 0.950 . S
C613 C609 1.393 . S
C613 C612 1.391 . S
C614 H604 0.950 . S
C614 C615 1.386 . S
C614 C616 1.391 . S
C615 C614 1.386 . S
C615 C619 1.393 . S
C616 H605 0.950 . S
C616 C614 1.391 . S
C616 C617 1.400 . S
C617 C611 1.491 . S
C617 C616 1.400 . S
C617 C618 1.398 . S
C618 H606 0.950 . S
C618 C617 1.398 . S
C618 C619 1.391 . S
C619 H607 0.950 . S
C619 C615 1.393 . S
C619 C618 1.391 . S
H620 C628 0.950 . S
H621 C633 0.950 . S
H622 C630 0.950 . S
H623 C632 0.950 . S
H624 C634 0.950 . S
H625 C636 0.950 . S
H626 C638 0.950 . S
H627 C639 0.950 . S
C628 H620 0.950 . S
C628 C629 1.386 . S
C628 C630 1.391 . S
C629 C628 1.386 . S
C629 C633 1.393 . S
C630 H622 0.950 . S
C630 C628 1.391 . S
C630 C631 1.400 . S
C631 C630 1.400 . S
C631 C632 1.398 . S
C631 C637 1.491 . S
C632 H623 0.950 . S
C632 C631 1.398 . S
C632 C633 1.391 . S
C633 H621 0.950 . S
C633 C629 1.393 . S
C633 C632 1.391 . S
C634 H624 0.950 . S
C634 C635 1.386 . S
C634 C636 1.391 . S
C635 C634 1.386 . S
C635 C639 1.393 . S
C636 H625 0.950 . S
C636 C634 1.391 . S
C636 C637 1.400 . S
C637 C631 1.491 . S
C637 C636 1.400 . S
C637 C638 1.398 . S
C638 H626 0.950 . S
C638 C637 1.398 . S
C638 C639 1.391 . S
C639 H627 0.950 . S
C639 C635 1.393 . S
C639 C638 1.391 . S
H640 C648 0.950 . S
H641 C653 0.950 . S
H642 C650 0.950 . S
H643 C652 0.950 . S
H644 C654 0.950 . S
H645 C656 0.950 . S
H646 C658 0.950 . S
H647 C659 0.950 . S
C648 H640 0.950 . S
C648 C649 1.386 1_545 S
C648 C650 1.391 . S
C649 C648 1.386 1_565 S
C649 C653 1.393 . S
C650 H642 0.950 . S
C650 C648 1.391 . S
C650 C651 1.400 1_545 S
C651 C650 1.400 1_565 S
C651 C652 1.398 . S
C651 C657 1.491 1_565 S
C652 H643 0.950 . S
C652 C651 1.398 . S
C652 C653 1.391 . S
C653 H641 0.950 . S
C653 C649 1.393 . S
C653 C652 1.391 . S
C654 H644 0.950 . S
C654 C655 1.386 1_565 S
C654 C656 1.391 . S
C655 C654 1.386 1_545 S
C655 C659 1.393 . S
C656 H645 0.950 . S
C656 C654 1.391 . S
C656 C657 1.400 1_565 S
C657 C651 1.491 1_545 S
C657 C656 1.400 1_545 S
C657 C658 1.398 . S
C658 H646 0.950 . S
C658 C657 1.398 . S
C658 C659 1.391 . S
C659 H647 0.950 . S
C659 C655 1.393 . S
C659 C658 1.391 . S
H660 C668 0.950 . S
H661 C673 0.950 . S
H662 C670 0.950 . S
H663 C672 0.950 . S
H664 C674 0.950 . S
H665 C676 0.950 . S
H666 C678 0.950 . S
H667 C679 0.950 . S
C668 H660 0.950 . S
C668 C669 1.386 . S
C668 C670 1.391 . S
C669 C668 1.386 . S
C669 C673 1.393 1_545 S
C670 H662 0.950 . S
C670 C668 1.391 . S
C670 C671 1.400 . S
C671 C670 1.400 . S
C671 C672 1.398 1_545 S
C671 C677 1.491 1_545 S
C672 H663 0.950 . S
C672 C671 1.398 1_565 S
C672 C673 1.391 . S
C673 H661 0.950 . S
C673 C669 1.393 1_565 S
C673 C672 1.391 . S
C674 H664 0.950 . S
C674 C675 1.386 . S
C674 C676 1.391 . S
C675 C674 1.386 . S
C675 C679 1.393 1_565 S
C676 H665 0.950 . S
C676 C674 1.391 . S
C676 C677 1.400 . S
C677 C671 1.491 1_565 S
C677 C676 1.400 . S
C677 C678 1.398 1_565 S
C678 H666 0.950 . S
C678 C677 1.398 1_545 S
C678 C679 1.391 . S
C679 H667 0.950 . S
C679 C675 1.393 1_545 S
C679 C678 1.391 . S
H680 C688 0.950 . S
H681 C693 0.950 . S
H682 C690 0.950 . S
H683 C692 0.950 . S
H684 C694 0.950 . S
H685 C696 0.950 . S
H686 C698 0.950 . S
H687 C699 0.950 . S
C688 H680 0.950 . S
C688 C689 1.386 1_565 S
C688 C690 1.391 . S
C689 C688 1.386 1_545 S
C689 C693 1.393 . S
C690 H682 0.950 . S
C690 C688 1.391 . S
C690 C691 1.400 1_565 S
C691 C690 1.400 1_545 S
C691 C692 1.398 . S
C691 C697 1.491 1_545 S
C692 H683 0.950 . S
C692 C691 1.398 . S
C692 C693 1.391 . S
C693 H681 0.950 . S
C693 C689 1.393 . S
C693 C692 1.391 . S
C694 H684 0.950 . S
C694 C695 1.386 1_545 S
C694 C696 1.391 . S
C695 C694 1.386 1_565 S
C695 C699 1.393 . S
C696 H685 0.950 . S
C696 C694 1.391 . S
C696 C697 1.400 1_545 S
C697 C691 1.491 1_565 S
C697 C696 1.400 1_565 S
C697 C698 1.398 . S
C698 H686 0.950 . S
C698 C697 1.398 . S
C698 C699 1.391 . S
C699 H687 0.950 . S
C699 C695 1.393 . S
C699 C698 1.391 . S
H700 C708 0.950 . S
H701 C713 0.950 . S
H702 C710 0.950 . S
H703 C712 0.950 . S
H704 C714 0.950 . S
H705 C716 0.950 . S
H706 C718 0.950 . S
H707 C719 0.950 . S
C708 H700 0.950 . S
C708 C709 1.386 . S
C708 C710 1.391 . S
C709 C708 1.386 . S
C709 C713 1.393 . S
C710 H702 0.950 . S
C710 C708 1.391 . S
C710 C711 1.400 . S
C711 C710 1.400 . S
C711 C712 1.398 1_545 S
C711 C717 1.491 1_545 S
C712 H703 0.950 . S
C712 C711 1.398 1_565 S
C712 C713 1.391 1_565 S
C713 H701 0.950 . S
C713 C709 1.393 . S
C713 C712 1.391 1_545 S
C714 H704 0.950 . S
C714 C715 1.386 . S
C714 C716 1.391 . S
C715 C714 1.386 . S
C715 C719 1.393 . S
C716 H705 0.950 . S
C716 C714 1.391 . S
C716 C717 1.400 . S
C717 C711 1.491 1_565 S
C717 C716 1.400 . S
C717 C718 1.398 1_565 S
C718 H706 0.950 . S
C718 C717 1.398 1_545 S
C718 C719 1.391 1_545 S
C719 H707 0.950 . S
C719 C715 1.393 . S
C719 C718 1.391 1_565 S
H720 C728 0.950 . S
H721 C733 0.950 . S
H722 C730 0.950 . S
H723 C732 0.950 . S
H724 C734 0.950 . S
H725 C736 0.950 . S
H726 C738 0.950 . S
H727 C739 0.950 . S
C728 H720 0.950 . S
C728 C729 1.386 . S
C728 C730 1.391 . S
C729 C728 1.386 . S
C729 C733 1.393 . S
C730 H722 0.950 . S
C730 C728 1.391 . S
C730 C731 1.400 . S
C731 C730 1.400 . S
C731 C732 1.398 . S
C731 C737 1.491 . S
C732 H723 0.950 . S
C732 C731 1.398 . S
C732 C733 1.391 . S
C733 H721 0.950 . S
C733 C729 1.393 . S
C733 C732 1.391 . S
C734 H724 0.950 . S
C734 C735 1.386 . S
C734 C736 1.391 . S
C735 C734 1.386 . S
C735 C739 1.393 . S
C736 H725 0.950 . S
C736 C734 1.391 . S
C736 C737 1.400 . S
C737 C731 1.491 . S
C737 C736 1.400 . S
C737 C738 1.398 . S
C738 H726 0.950 . S
C738 C737 1.398 . S
C738 C739 1.391 . S
C739 H727 0.950 . S
C739 C735 1.393 . S
C739 C738 1.391 . S
H740 C748 0.950 . S
H741 C753 0.950 . S
H742 C750 0.950 . S
H743 C752 0.950 . S
H744 C754 0.950 . S
H745 C756 0.950 . S
H746 C758 0.950 . S
H747 C759 0.950 . S
C748 H740 0.950 . S
C748 C749 1.386 . S
C748 C750 1.391 . S
C749 C748 1.386 . S
C749 C753 1.393 . S
C750 H742 0.950 . S
C750 C748 1.391 . S
C750 C751 1.400 . S
C751 C750 1.400 . S
C751 C752 1.398 . S
C751 C757 1.491 . S
C752 H743 0.950 . S
C752 C751 1.398 . S
C752 C753 1.391 . S
C753 H741 0.950 . S
C753 C749 1.393 . S
C753 C752 1.391 . S
C754 H744 0.950 . S
C754 C755 1.386 . S
C754 C756 1.391 . S
C755 C754 1.386 . S
C755 C759 1.393 . S
C756 H745 0.950 . S
C756 C754 1.391 . S
C756 C757 1.400 . S
C757 C751 1.491 . S
C757 C756 1.400 . S
C757 C758 1.398 . S
C758 H746 0.950 . S
C758 C757 1.398 . S
C758 C759 1.391 . S
C759 H747 0.950 . S
C759 C755 1.393 . S
C759 C758 1.391 . S
H760 C768 0.950 . S
H761 C773 0.950 . S
H762 C770 0.950 . S
H763 C772 0.950 . S
H764 C774 0.950 . S
H765 C776 0.950 . S
H766 C778 0.950 . S
H767 C779 0.950 . S
C768 H760 0.950 . S
C768 C769 1.386 . S
C768 C770 1.391 . S
C769 C768 1.386 . S
C769 C773 1.393 . S
C770 H762 0.950 . S
C770 C768 1.391 . S
C770 C771 1.400 . S
C771 C770 1.400 . S
C771 C772 1.398 . S
C771 C777 1.491 . S
C772 H763 0.950 . S
C772 C771 1.398 . S
C772 C773 1.391 . S
C773 H761 0.950 . S
C773 C769 1.393 . S
C773 C772 1.391 . S
C774 H764 0.950 . S
C774 C775 1.386 . S
C774 C776 1.391 . S
C775 C774 1.386 . S
C775 C779 1.393 . S
C776 H765 0.950 . S
C776 C774 1.391 . S
C776 C777 1.400 . S
C777 C771 1.491 . S
C777 C776 1.400 . S
C777 C778 1.398 . S
C778 H766 0.950 . S
C778 C777 1.398 . S
C778 C779 1.391 . S
C779 H767 0.950 . S
C779 C775 1.393 . S
C779 C778 1.391 . S
H780 C788 0.950 . S
H781 C793 0.950 . S
H782 C790 0.950 . S
H783 C792 0.950 . S
H784 C794 0.950 . S
H785 C796 0.950 . S
H786 C798 0.950 . S
H787 C799 0.950 . S
C788 H780 0.950 . S
C788 C789 1.386 . S
C788 C790 1.391 . S
C789 C788 1.386 . S
C789 C793 1.393 . S
C790 H782 0.950 . S
C790 C788 1.391 . S
C790 C791 1.400 . S
C791 C790 1.400 . S
C791 C792 1.398 . S
C791 C797 1.491 . S
C792 H783 0.950 . S
C792 C791 1.398 . S
C792 C793 1.391 . S
C793 H781 0.950 . S
C793 C789 1.393 . S
C793 C792 1.391 . S
C794 H784 0.950 . S
C794 C795 1.386 . S
C794 C796 1.391 . S
C795 C794 1.386 . S
C795 C799 1.393 . S
C796 H785 0.950 . S
C796 C794 1.391 . S
C796 C797 1.400 . S
C797 C791 1.491 . S
C797 C796 1.400 . S
C797 C798 1.398 . S
C798 H786 0.950 . S
C798 C797 1.398 . S
C798 C799 1.391 . S
C799 H787 0.950 . S
C799 C795 1.393 . S
C799 C798 1.391 . S
H800 C808 0.950 . S
H801 C813 0.950 . S
H802 C810 0.950 . S
H803 C812 0.950 . S
H804 C814 0.950 . S
H805 C816 0.950 . S
H806 C818 0.950 . S
H807 C819 0.950 . S
C808 H800 0.950 . S
C808 C809 1.386 . S
C808 C810 1.391 . S
C809 C808 1.386 . S
C809 C813 1.393 . S
C810 H802 0.950 . S
C810 C808 1.391 . S
C810 C811 1.400 . S
C811 C810 1.400 . S
C811 C812 1.398 . S
C811 C817 1.491 1_556 S
C812 H803 0.950 . S
C812 C811 1.398 . S
C812 C813 1.391 . S
C813 H801 0.950 . S
C813 C809 1.393 . S
C813 C812 1.391 . S
C814 H804 0.950 . S
C814 C815 1.386 . S
C814 C816 1.391 . S
C815 C814 1.386 . S
C815 C819 1.393 . S
C816 H805 0.950 . S
C816 C814 1.391 . S
C816 C817 1.400 . S
C817 C811 1.491 1_554 S
C817 C816 1.400 . S
C817 C818 1.398 . S
C818 H806 0.950 . S
C818 C817 1.398 . S
C818 C819 1.391 . S
C819 H807 0.950 . S
C819 C815 1.393 . S
C819 C818 1.391 . S
H820 C828 0.950 . S
H821 C833 0.950 . S
H822 C830 0.950 . S
H823 C832 0.950 . S
H824 C834 0.950 . S
H825 C836 0.950 . S
H826 C838 0.951 . S
H827 C839 0.950 . S
C828 H820 0.950 . S
C828 C829 1.386 . S
C828 C830 1.391 . S
C829 C828 1.386 . S
C829 C833 1.393 . S
C830 H822 0.950 . S
C830 C828 1.391 . S
C830 C831 1.400 . S
C831 C830 1.400 . S
C831 C832 1.398 . S
C831 C837 1.491 1_556 S
C832 H823 0.950 . S
C832 C831 1.398 . S
C832 C833 1.391 . S
C833 H821 0.950 . S
C833 C829 1.393 . S
C833 C832 1.391 . S
C834 H824 0.950 . S
C834 C835 1.386 . S
C834 C836 1.391 . S
C835 C834 1.386 . S
C835 C839 1.393 . S
C836 H825 0.950 . S
C836 C834 1.391 . S
C836 C837 1.400 . S
C837 C831 1.491 1_554 S
C837 C836 1.400 . S
C837 C838 1.398 . S
C838 H826 0.951 . S
C838 C837 1.398 . S
C838 C839 1.391 . S
C839 H827 0.950 . S
C839 C835 1.393 . S
C839 C838 1.391 . S
H840 C848 0.950 . S
H841 C853 0.950 . S
H842 C850 0.950 . S
H843 C852 0.950 . S
H844 C854 0.950 . S
H845 C856 0.950 . S
H846 C858 0.950 . S
H847 C859 0.950 . S
C848 H840 0.950 . S
C848 C849 1.386 . S
C848 C850 1.391 . S
C849 C848 1.386 . S
C849 C853 1.393 . S
C850 H842 0.950 . S
C850 C848 1.391 . S
C850 C851 1.400 . S
C851 C850 1.400 . S
C851 C852 1.398 . S
C851 C857 1.491 . S
C852 H843 0.950 . S
C852 C851 1.398 . S
C852 C853 1.391 . S
C853 H841 0.950 . S
C853 C849 1.393 . S
C853 C852 1.391 . S
C854 H844 0.950 . S
C854 C855 1.386 . S
C854 C856 1.391 . S
C855 C854 1.386 . S
C855 C859 1.393 . S
C856 H845 0.950 . S
C856 C854 1.391 . S
C856 C857 1.400 . S
C857 C851 1.491 . S
C857 C856 1.400 . S
C857 C858 1.398 . S
C858 H846 0.950 . S
C858 C857 1.398 . S
C858 C859 1.391 . S
C859 H847 0.950 . S
C859 C855 1.393 . S
C859 C858 1.391 . S
H860 C868 0.950 . S
H861 C873 0.950 . S
H862 C870 0.950 . S
H863 C872 0.950 . S
H864 C874 0.950 . S
H865 C876 0.950 . S
H866 C878 0.950 . S
H867 C879 0.950 . S
C868 H860 0.950 . S
C868 C869 1.386 . S
C868 C870 1.391 . S
C869 C868 1.386 . S
C869 C873 1.393 . S
C870 H862 0.950 . S
C870 C868 1.391 . S
C870 C871 1.400 . S
C871 C870 1.400 . S
C871 C872 1.398 . S
C871 C877 1.491 . S
C872 H863 0.950 . S
C872 C871 1.398 . S
C872 C873 1.391 . S
C873 H861 0.950 . S
C873 C869 1.393 . S
C873 C872 1.391 . S
C874 H864 0.950 . S
C874 C875 1.386 . S
C874 C876 1.391 . S
C875 C874 1.386 . S
C875 C879 1.393 . S
C876 H865 0.950 . S
C876 C874 1.391 . S
C876 C877 1.400 . S
C877 C871 1.491 . S
C877 C876 1.400 . S
C877 C878 1.398 . S
C878 H866 0.950 . S
C878 C877 1.398 . S
C878 C879 1.391 . S
C879 H867 0.950 . S
C879 C875 1.393 . S
C879 C878 1.391 . S
H880 C888 0.950 . S
H881 C893 0.950 . S
H882 C890 0.950 . S
H883 C892 0.950 . S
H884 C894 0.950 . S
H885 C896 0.950 . S
H886 C898 0.950 . S
H887 C899 0.950 . S
C888 H880 0.950 . S
C888 C889 1.386 . S
C888 C890 1.391 . S
C889 C888 1.386 . S
C889 C893 1.393 . S
C890 H882 0.950 . S
C890 C888 1.391 . S
C890 C891 1.400 . S
C891 C890 1.400 . S
C891 C892 1.398 . S
C891 C897 1.491 1_554 S
C892 H883 0.950 . S
C892 C891 1.398 . S
C892 C893 1.391 . S
C893 H881 0.950 . S
C893 C889 1.393 . S
C893 C892 1.391 . S
C894 H884 0.950 . S
C894 C895 1.386 . S
C894 C896 1.391 . S
C895 C894 1.386 . S
C895 C899 1.393 . S
C896 H885 0.950 . S
C896 C894 1.391 . S
C896 C897 1.400 . S
C897 C891 1.491 1_556 S
C897 C896 1.400 . S
C897 C898 1.398 . S
C898 H886 0.950 . S
C898 C897 1.398 . S
C898 C899 1.391 . S
C899 H887 0.950 . S
C899 C895 1.393 . S
C899 C898 1.391 . S
H900 C908 0.950 . S
H901 C913 0.950 . S
H902 C910 0.950 . S
H903 C912 0.950 . S
H904 C914 0.950 . S
H905 C916 0.950 . S
H906 C918 0.950 . S
H907 C919 0.950 . S
C908 H900 0.950 . S
C908 C909 1.386 . S
C908 C910 1.391 . S
C909 C908 1.386 . S
C909 C913 1.393 . S
C910 H902 0.950 . S
C910 C908 1.391 . S
C910 C911 1.400 . S
C911 C910 1.400 . S
C911 C912 1.398 . S
C911 C917 1.491 1_556 S
C912 H903 0.950 . S
C912 C911 1.398 . S
C912 C913 1.391 . S
C913 H901 0.950 . S
C913 C909 1.393 . S
C913 C912 1.391 . S
C914 H904 0.950 . S
C914 C915 1.386 . S
C914 C916 1.391 . S
C915 C914 1.386 . S
C915 C919 1.393 . S
C916 H905 0.950 . S
C916 C914 1.391 . S
C916 C917 1.400 . S
C917 C911 1.491 1_554 S
C917 C916 1.400 . S
C917 C918 1.398 . S
C918 H906 0.950 . S
C918 C917 1.398 . S
C918 C919 1.391 . S
C919 H907 0.950 . S
C919 C915 1.393 . S
C919 C918 1.391 . S
H920 C928 0.950 . S
H921 C933 0.950 . S
H922 C930 0.950 . S
H923 C932 0.950 . S
H924 C934 0.950 . S
H925 C936 0.950 . S
H926 C938 0.950 . S
H927 C939 0.950 . S
C928 H920 0.950 . S
C928 C929 1.386 . S
C928 C930 1.391 . S
C929 C928 1.386 . S
C929 C933 1.393 . S
C930 H922 0.950 . S
C930 C928 1.391 . S
C930 C931 1.400 . S
C931 C930 1.400 . S
C931 C932 1.398 . S
C931 C937 1.491 . S
C932 H923 0.950 . S
C932 C931 1.398 . S
C932 C933 1.391 . S
C933 H921 0.950 . S
C933 C929 1.393 . S
C933 C932 1.391 . S
C934 H924 0.950 . S
C934 C935 1.386 . S
C934 C936 1.391 . S
C935 C934 1.386 . S
C935 C939 1.393 . S
C936 H925 0.950 . S
C936 C934 1.391 . S
C936 C937 1.400 . S
C937 C931 1.491 . S
C937 C936 1.400 . S
C937 C938 1.398 . S
C938 H926 0.950 . S
C938 C937 1.398 . S
C938 C939 1.391 . S
C939 H927 0.950 . S
C939 C935 1.393 . S
C939 C938 1.391 . S
H940 C948 0.950 . S
H941 C953 0.950 . S
H942 C950 0.950 . S
H943 C952 0.950 . S
H944 C954 0.950 . S
H945 C956 0.950 . S
H946 C958 0.950 . S
H947 C959 0.950 . S
C948 H940 0.950 . S
C948 C949 1.386 . S
C948 C950 1.391 . S
C949 C948 1.386 . S
C949 C953 1.393 . S
C950 H942 0.950 . S
C950 C948 1.391 . S
C950 C951 1.400 . S
C951 C950 1.400 . S
C951 C952 1.398 . S
C951 C957 1.491 . S
C952 H943 0.950 . S
C952 C951 1.398 . S
C952 C953 1.391 . S
C953 H941 0.950 . S
C953 C949 1.393 . S
C953 C952 1.391 . S
C954 H944 0.950 . S
C954 C955 1.386 . S
C954 C956 1.391 . S
C955 C954 1.386 . S
C955 C959 1.393 . S
C956 H945 0.950 . S
C956 C954 1.391 . S
C956 C957 1.400 . S
C957 C951 1.491 . S
C957 C956 1.400 . S
C957 C958 1.398 . S
C958 H946 0.950 . S
C958 C957 1.398 . S
C958 C959 1.391 . S
C959 H947 0.950 . S
C959 C955 1.393 . S
C959 C958 1.391 . S
H960 C968 0.950 . S
H961 C973 0.950 . S
H962 C970 0.950 . S
H963 C972 0.950 . S
H964 C974 0.950 . S
H965 C976 0.950 . S
H966 C978 0.950 . S
H967 C979 0.950 . S
C968 H960 0.950 . S
C968 C969 1.386 1_545 S
C968 C970 1.391 . S
C969 C968 1.386 1_565 S
C969 C973 1.393 . S
C970 H962 0.950 . S
C970 C968 1.391 . S
C970 C971 1.400 1_545 S
C971 C970 1.400 1_565 S
C971 C972 1.398 . S
C971 C977 1.491 1_665 S
C972 H963 0.950 . S
C972 C971 1.398 . S
C972 C973 1.391 . S
C973 H961 0.950 . S
C973 C969 1.393 . S
C973 C972 1.391 . S
C974 H964 0.950 . S
C974 C975 1.386 1_565 S
C974 C976 1.391 . S
C975 C974 1.386 1_545 S
C975 C979 1.393 . S
C976 H965 0.950 . S
C976 C974 1.391 . S
C976 C977 1.400 1_565 S
C977 C971 1.491 1_445 S
C977 C976 1.400 1_545 S
C977 C978 1.398 . S
C978 H966 0.950 . S
C978 C977 1.398 . S
C978 C979 1.391 . S
C979 H967 0.950 . S
C979 C975 1.393 . S
C979 C978 1.391 . S
H980 C988 0.950 . S
H981 C993 0.950 . S
H982 C990 0.950 . S
H983 C992 0.950 . S
H984 C994 0.950 . S
H985 C996 0.950 . S
H986 C998 0.950 . S
H987 C999 0.950 . S
C988 H980 0.950 . S
C988 C989 1.386 1_565 S
C988 C990 1.391 . S
C989 C988 1.386 1_545 S
C989 C993 1.393 . S
C990 H982 0.950 . S
C990 C988 1.391 . S
C990 C991 1.400 1_565 S
C991 C990 1.400 1_545 S
C991 C992 1.398 . S
C991 C997 1.491 1_645 S
C992 H983 0.950 . S
C992 C991 1.398 . S
C992 C993 1.391 . S
C993 H981 0.950 . S
C993 C989 1.393 . S
C993 C992 1.391 . S
C994 H984 0.950 . S
C994 C995 1.386 1_545 S
C994 C996 1.391 . S
C995 C994 1.386 1_565 S
C995 C999 1.393 . S
C996 H985 0.950 . S
C996 C994 1.391 . S
C996 C997 1.400 1_545 S
C997 C991 1.491 1_465 S
C997 C996 1.400 1_565 S
C997 C998 1.398 . S
C998 H986 0.950 . S
C998 C997 1.398 . S
C998 C999 1.391 . S
C999 H987 0.950 . S
C999 C995 1.393 . S
C999 C998 1.391 . S
H1000 C1008 0.950 . S
H1001 C1013 0.950 . S
H1002 C1010 0.950 . S
H1003 C1012 0.950 . S
H1004 C1014 0.950 . S
H1005 C1016 0.950 . S
H1006 C1018 0.950 . S
H1007 C1019 0.950 . S
C1008 H1000 0.950 . S
C1008 C1009 1.386 . S
C1008 C1010 1.391 . S
C1009 C1008 1.386 . S
C1009 C1013 1.393 . S
C1010 H1002 0.950 . S
C1010 C1008 1.391 . S
C1010 C1011 1.400 . S
C1011 C1010 1.400 . S
C1011 C1012 1.398 . S
C1011 C1017 1.491 1_445 S
C1012 H1003 0.950 . S
C1012 C1011 1.398 . S
C1012 C1013 1.391 . S
C1013 H1001 0.950 . S
C1013 C1009 1.393 . S
C1013 C1012 1.391 . S
C1014 H1004 0.950 . S
C1014 C1015 1.386 . S
C1014 C1016 1.391 . S
C1015 C1014 1.386 . S
C1015 C1019 1.393 . S
C1016 H1005 0.950 . S
C1016 C1014 1.391 . S
C1016 C1017 1.400 . S
C1017 C1011 1.491 1_665 S
C1017 C1016 1.400 . S
C1017 C1018 1.398 . S
C1018 H1006 0.950 . S
C1018 C1017 1.398 . S
C1018 C1019 1.391 . S
C1019 H1007 0.950 . S
C1019 C1015 1.393 . S
C1019 C1018 1.391 . S
H1020 C1028 0.950 . S
H1021 C1033 0.950 . S
H1022 C1030 0.950 . S
H1023 C1032 0.950 . S
H1024 C1034 0.950 . S
H1025 C1036 0.950 . S
H1026 C1038 0.950 . S
H1027 C1039 0.950 . S
C1028 H1020 0.950 . S
C1028 C1029 1.386 1_565 S
C1028 C1030 1.391 . S
C1029 C1028 1.386 1_545 S
C1029 C1033 1.393 . S
C1030 H1022 0.950 . S
C1030 C1028 1.391 . S
C1030 C1031 1.400 1_565 S
C1031 C1030 1.400 1_545 S
C1031 C1032 1.398 . S
C1031 C1037 1.491 1_645 S
C1032 H1023 0.950 . S
C1032 C1031 1.398 . S
C1032 C1033 1.391 . S
C1033 H1021 0.950 . S
C1033 C1029 1.393 . S
C1033 C1032 1.391 . S
C1034 H1024 0.950 . S
C1034 C1035 1.386 1_545 S
C1034 C1036 1.391 . S
C1035 C1034 1.386 1_565 S
C1035 C1039 1.393 . S
C1036 H1025 0.950 . S
C1036 C1034 1.391 . S
C1036 C1037 1.400 1_545 S
C1037 C1031 1.491 1_465 S
C1037 C1036 1.400 1_565 S
C1037 C1038 1.398 . S
C1038 H1026 0.950 . S
C1038 C1037 1.398 . S
C1038 C1039 1.391 . S
C1039 H1027 0.950 . S
C1039 C1035 1.393 . S
C1039 C1038 1.391 . S
H1040 C1048 0.950 . S
H1041 C1053 0.950 . S
H1042 C1050 0.950 . S
H1043 C1052 0.950 . S
H1044 C1054 0.950 . S
H1045 C1056 0.950 . S
H1046 C1058 0.950 . S
H1047 C1059 0.950 . S
C1048 H1040 0.950 . S
C1048 C1049 1.386 . S
C1048 C1050 1.391 . S
C1049 C1048 1.386 . S
C1049 C1053 1.393 . S
C1050 H1042 0.950 . S
C1050 C1048 1.391 . S
C1050 C1051 1.400 . S
C1051 C1050 1.400 . S
C1051 C1052 1.398 . S
C1051 C1057 1.491 . S
C1052 H1043 0.950 . S
C1052 C1051 1.398 . S
C1052 C1053 1.391 . S
C1053 H1041 0.950 . S
C1053 C1049 1.393 . S
C1053 C1052 1.391 . S
C1054 H1044 0.950 . S
C1054 C1055 1.386 . S
C1054 C1056 1.391 . S
C1055 C1054 1.386 . S
C1055 C1059 1.393 . S
C1056 H1045 0.950 . S
C1056 C1054 1.391 . S
C1056 C1057 1.400 . S
C1057 C1051 1.491 . S
C1057 C1056 1.400 . S
C1057 C1058 1.398 . S
C1058 H1046 0.950 . S
C1058 C1057 1.398 . S
C1058 C1059 1.391 . S
C1059 H1047 0.950 . S
C1059 C1055 1.393 . S
C1059 C1058 1.391 . S
H1060 C1068 0.950 . S
H1061 C1073 0.950 . S
H1062 C1070 0.950 . S
H1063 C1072 0.950 . S
H1064 C1074 0.950 . S
H1065 C1076 0.950 . S
H1066 C1078 0.950 . S
H1067 C1079 0.950 . S
C1068 H1060 0.950 . S
C1068 C1069 1.386 . S
C1068 C1070 1.391 . S
C1069 C1068 1.386 . S
C1069 C1073 1.393 . S
C1070 H1062 0.950 . S
C1070 C1068 1.391 . S
C1070 C1071 1.400 . S
C1071 C1070 1.400 . S
C1071 C1072 1.398 . S
C1071 C1077 1.491 . S
C1072 H1063 0.950 . S
C1072 C1071 1.398 . S
C1072 C1073 1.391 . S
C1073 H1061 0.950 . S
C1073 C1069 1.393 . S
C1073 C1072 1.391 . S
C1074 H1064 0.950 . S
C1074 C1075 1.386 . S
C1074 C1076 1.391 . S
C1075 C1074 1.386 . S
C1075 C1079 1.393 . S
C1076 H1065 0.950 . S
C1076 C1074 1.391 . S
C1076 C1077 1.400 . S
C1077 C1071 1.491 . S
C1077 C1076 1.400 . S
C1077 C1078 1.398 . S
C1078 H1066 0.950 . S
C1078 C1077 1.398 . S
C1078 C1079 1.391 . S
C1079 H1067 0.950 . S
C1079 C1075 1.393 . S
C1079 C1078 1.391 . S
H1080 C1088 0.950 . S
H1081 C1093 0.950 . S
H1082 C1090 0.950 . S
H1083 C1092 0.950 . S
H1084 C1094 0.950 . S
H1085 C1096 0.950 . S
H1086 C1098 0.950 . S
H1087 C1099 0.950 . S
C1088 H1080 0.950 . S
C1088 C1089 1.386 . S
C1088 C1090 1.391 . S
C1089 C1088 1.386 . S
C1089 C1093 1.393 . S
C1090 H1082 0.950 . S
C1090 C1088 1.391 . S
C1090 C1091 1.400 . S
C1091 C1090 1.400 . S
C1091 C1092 1.398 . S
C1091 C1097 1.491 . S
C1092 H1083 0.950 . S
C1092 C1091 1.398 . S
C1092 C1093 1.391 . S
C1093 H1081 0.950 . S
C1093 C1089 1.393 . S
C1093 C1092 1.391 . S
C1094 H1084 0.950 . S
C1094 C1095 1.386 . S
C1094 C1096 1.391 . S
C1095 C1094 1.386 . S
C1095 C1099 1.393 . S
C1096 H1085 0.950 . S
C1096 C1094 1.391 . S
C1096 C1097 1.400 . S
C1097 C1091 1.491 . S
C1097 C1096 1.400 . S
C1097 C1098 1.398 . S
C1098 H1086 0.950 . S
C1098 C1097 1.398 . S
C1098 C1099 1.391 . S
C1099 H1087 0.950 . S
C1099 C1095 1.393 . S
C1099 C1098 1.391 . S
H1100 C1108 0.950 . S
H1101 C1113 0.950 . S
H1102 C1110 0.950 . S
H1103 C1112 0.950 . S
H1104 C1114 0.950 . S
H1105 C1116 0.950 . S
H1106 C1118 0.950 . S
H1107 C1119 0.950 . S
C1108 H1100 0.950 . S
C1108 C1109 1.386 . S
C1108 C1110 1.391 . S
C1109 C1108 1.386 . S
C1109 C1113 1.393 . S
C1110 H1102 0.950 . S
C1110 C1108 1.391 . S
C1110 C1111 1.400 . S
C1111 C1110 1.400 . S
C1111 C1112 1.398 . S
C1111 C1117 1.491 . S
C1112 H1103 0.950 . S
C1112 C1111 1.398 . S
C1112 C1113 1.391 . S
C1113 H1101 0.950 . S
C1113 C1109 1.393 . S
C1113 C1112 1.391 . S
C1114 H1104 0.950 . S
C1114 C1115 1.386 . S
C1114 C1116 1.391 . S
C1115 C1114 1.386 . S
C1115 C1119 1.393 . S
C1116 H1105 0.950 . S
C1116 C1114 1.391 . S
C1116 C1117 1.400 . S
C1117 C1111 1.491 . S
C1117 C1116 1.400 . S
C1117 C1118 1.398 . S
C1118 H1106 0.950 . S
C1118 C1117 1.398 . S
C1118 C1119 1.391 . S
C1119 H1107 0.950 . S
C1119 C1115 1.393 . S
C1119 C1118 1.391 . S
H1120 C1128 0.950 . S
H1121 C1133 0.950 . S
H1122 C1130 0.950 . S
H1123 C1132 0.950 . S
H1124 C1134 0.950 . S
H1125 C1136 0.950 . S
H1126 C1138 0.950 . S
H1127 C1139 0.950 . S
C1128 H1120 0.950 . S
C1128 C1129 1.386 . S
C1128 C1130 1.391 . S
C1129 C1128 1.386 . S
C1129 C1133 1.393 . S
C1130 H1122 0.950 . S
C1130 C1128 1.391 . S
C1130 C1131 1.400 . S
C1131 C1130 1.400 . S
C1131 C1132 1.398 . S
C1131 C1137 1.491 . S
C1132 H1123 0.950 . S
C1132 C1131 1.398 . S
C1132 C1133 1.391 . S
C1133 H1121 0.950 . S
C1133 C1129 1.393 . S
C1133 C1132 1.391 . S
C1134 H1124 0.950 . S
C1134 C1135 1.386 . S
C1134 C1136 1.391 . S
C1135 C1134 1.386 . S
C1135 C1139 1.393 . S
C1136 H1125 0.950 . S
C1136 C1134 1.391 . S
C1136 C1137 1.400 . S
C1137 C1131 1.491 . S
C1137 C1136 1.400 . S
C1137 C1138 1.398 . S
C1138 H1126 0.950 . S
C1138 C1137 1.398 . S
C1138 C1139 1.391 . S
C1139 H1127 0.950 . S
C1139 C1135 1.393 . S
C1139 C1138 1.391 . S
H1140 C1148 0.950 . S
H1141 C1153 0.950 . S
H1142 C1150 0.950 . S
H1143 C1152 0.950 . S
H1144 C1154 0.950 . S
H1145 C1156 0.950 . S
H1146 C1158 0.950 . S
H1147 C1159 0.950 . S
C1148 H1140 0.950 . S
C1148 C1149 1.386 . S
C1148 C1150 1.391 . S
C1149 C1148 1.386 . S
C1149 C1153 1.393 . S
C1150 H1142 0.950 . S
C1150 C1148 1.391 . S
C1150 C1151 1.400 . S
C1151 C1150 1.400 . S
C1151 C1152 1.398 . S
C1151 C1157 1.491 . S
C1152 H1143 0.950 . S
C1152 C1151 1.398 . S
C1152 C1153 1.391 . S
C1153 H1141 0.950 . S
C1153 C1149 1.393 . S
C1153 C1152 1.391 . S
C1154 H1144 0.950 . S
C1154 C1155 1.386 . S
C1154 C1156 1.391 . S
C1155 C1154 1.386 . S
C1155 C1159 1.393 . S
C1156 H1145 0.950 . S
C1156 C1154 1.391 . S
C1156 C1157 1.400 . S
C1157 C1151 1.491 . S
C1157 C1156 1.400 . S
C1157 C1158 1.398 . S
C1158 H1146 0.950 . S
C1158 C1157 1.398 . S
C1158 C1159 1.391 . S
C1159 H1147 0.950 . S
C1159 C1155 1.393 . S
C1159 C1158 1.391 . S
H1160 C1168 0.950 . S
H1161 C1173 0.950 . S
H1162 C1170 0.950 . S
H1163 C1172 0.950 . S
H1164 C1174 0.950 . S
H1165 C1176 0.950 . S
H1166 C1178 0.950 . S
H1167 C1179 0.950 . S
C1168 H1160 0.950 . S
C1168 C1169 1.386 . S
C1168 C1170 1.391 . S
C1169 C1168 1.386 . S
C1169 C1173 1.393 . S
C1170 H1162 0.950 . S
C1170 C1168 1.391 . S
C1170 C1171 1.400 . S
C1171 C1170 1.400 . S
C1171 C1172 1.398 . S
C1171 C1177 1.491 . S
C1172 H1163 0.950 . S
C1172 C1171 1.398 . S
C1172 C1173 1.391 . S
C1173 H1161 0.950 . S
C1173 C1169 1.393 . S
C1173 C1172 1.391 . S
C1174 H1164 0.950 . S
C1174 C1175 1.386 . S
C1174 C1176 1.391 . S
C1175 C1174 1.386 . S
C1175 C1179 1.393 . S
C1176 H1165 0.950 . S
C1176 C1174 1.391 . S
C1176 C1177 1.400 . S
C1177 C1171 1.491 . S
C1177 C1176 1.400 . S
C1177 C1178 1.398 . S
C1178 H1166 0.950 . S
C1178 C1177 1.398 . S
C1178 C1179 1.391 . S
C1179 H1167 0.950 . S
C1179 C1175 1.393 . S
C1179 C1178 1.391 . S
H1180 C1188 0.950 . S
H1181 C1193 0.950 . S
H1182 C1190 0.950 . S
H1183 C1192 0.950 . S
H1184 C1194 0.950 . S
H1185 C1196 0.950 . S
H1186 C1198 0.950 . S
H1187 C1199 0.950 . S
C1188 H1180 0.950 . S
C1188 C1189 1.386 . S
C1188 C1190 1.391 . S
C1189 C1188 1.386 . S
C1189 C1193 1.393 . S
C1190 H1182 0.950 . S
C1190 C1188 1.391 . S
C1190 C1191 1.400 . S
C1191 C1190 1.400 . S
C1191 C1192 1.398 . S
C1191 C1197 1.491 . S
C1192 H1183 0.950 . S
C1192 C1191 1.398 . S
C1192 C1193 1.391 . S
C1193 H1181 0.950 . S
C1193 C1189 1.393 . S
C1193 C1192 1.391 . S
C1194 H1184 0.950 . S
C1194 C1195 1.386 . S
C1194 C1196 1.391 . S
C1195 C1194 1.386 . S
C1195 C1199 1.393 . S
C1196 H1185 0.950 . S
C1196 C1194 1.391 . S
C1196 C1197 1.400 . S
C1197 C1191 1.491 . S
C1197 C1196 1.400 . S
C1197 C1198 1.398 . S
C1198 H1186 0.950 . S
C1198 C1197 1.398 . S
C1198 C1199 1.391 . S
C1199 H1187 0.950 . S
C1199 C1195 1.393 . S
C1199 C1198 1.391 . S
H1200 C1208 0.950 . S
H1201 C1213 0.950 . S
H1202 C1210 0.950 . S
H1203 C1212 0.950 . S
H1204 C1214 0.950 . S
H1205 C1216 0.950 . S
H1206 C1218 0.950 . S
H1207 C1219 0.950 . S
C1208 H1200 0.950 . S
C1208 C1209 1.386 . S
C1208 C1210 1.391 . S
C1209 C1208 1.386 . S
C1209 C1213 1.393 . S
C1210 H1202 0.950 . S
C1210 C1208 1.391 . S
C1210 C1211 1.400 . S
C1211 C1210 1.400 . S
C1211 C1212 1.398 . S
C1211 C1217 1.491 . S
C1212 H1203 0.950 . S
C1212 C1211 1.398 . S
C1212 C1213 1.391 . S
C1213 H1201 0.950 . S
C1213 C1209 1.393 . S
C1213 C1212 1.391 . S
C1214 H1204 0.950 . S
C1214 C1215 1.386 . S
C1214 C1216 1.391 . S
C1215 C1214 1.386 . S
C1215 C1219 1.393 . S
C1216 H1205 0.950 . S
C1216 C1214 1.391 . S
C1216 C1217 1.400 . S
C1217 C1211 1.491 . S
C1217 C1216 1.400 . S
C1217 C1218 1.398 . S
C1218 H1206 0.950 . S
C1218 C1217 1.398 . S
C1218 C1219 1.391 . S
C1219 H1207 0.950 . S
C1219 C1215 1.393 . S
C1219 C1218 1.391 . S
H1220 C1228 0.950 . S
H1221 C1233 0.950 . S
H1222 C1230 0.950 . S
H1223 C1232 0.950 . S
H1224 C1234 0.950 . S
H1225 C1236 0.950 . S
H1226 C1238 0.950 . S
H1227 C1239 0.950 . S
C1228 H1220 0.950 . S
C1228 C1229 1.386 . S
C1228 C1230 1.391 . S
C1229 C1228 1.386 . S
C1229 C1233 1.393 . S
C1230 H1222 0.950 . S
C1230 C1228 1.391 . S
C1230 C1231 1.400 . S
C1231 C1230 1.400 . S
C1231 C1232 1.398 . S
C1231 C1237 1.491 . S
C1232 H1223 0.950 . S
C1232 C1231 1.398 . S
C1232 C1233 1.391 . S
C1233 H1221 0.950 . S
C1233 C1229 1.393 . S
C1233 C1232 1.391 . S
C1234 H1224 0.950 . S
C1234 C1235 1.386 . S
C1234 C1236 1.391 . S
C1235 C1234 1.386 . S
C1235 C1239 1.393 . S
C1236 H1225 0.950 . S
C1236 C1234 1.391 . S
C1236 C1237 1.400 . S
C1237 C1231 1.491 . S
C1237 C1236 1.400 . S
C1237 C1238 1.398 . S
C1238 H1226 0.950 . S
C1238 C1237 1.398 . S
C1238 C1239 1.391 . S
C1239 H1227 0.950 . S
C1239 C1235 1.393 . S
C1239 C1238 1.391 . S
H1240 C1248 0.950 . S
H1241 C1253 0.950 . S
H1242 C1250 0.950 . S
H1243 C1252 0.950 . S
H1244 C1254 0.950 . S
H1245 C1256 0.950 . S
H1246 C1258 0.950 . S
H1247 C1259 0.950 . S
C1248 H1240 0.950 . S
C1248 C1249 1.386 . S
C1248 C1250 1.391 . S
C1249 C1248 1.386 . S
C1249 C1253 1.393 . S
C1250 H1242 0.950 . S
C1250 C1248 1.391 . S
C1250 C1251 1.400 . S
C1251 C1250 1.400 . S
C1251 C1252 1.398 . S
C1251 C1257 1.491 . S
C1252 H1243 0.950 . S
C1252 C1251 1.398 . S
C1252 C1253 1.391 . S
C1253 H1241 0.950 . S
C1253 C1249 1.393 . S
C1253 C1252 1.391 . S
C1254 H1244 0.950 . S
C1254 C1255 1.386 . S
C1254 C1256 1.391 . S
C1255 C1254 1.386 . S
C1255 C1259 1.393 . S
C1256 H1245 0.950 . S
C1256 C1254 1.391 . S
C1256 C1257 1.400 . S
C1257 C1251 1.491 . S
C1257 C1256 1.400 . S
C1257 C1258 1.398 . S
C1258 H1246 0.950 . S
C1258 C1257 1.398 . S
C1258 C1259 1.391 . S
C1259 H1247 0.950 . S
C1259 C1255 1.393 . S
C1259 C1258 1.391 . S
H1260 C1268 0.950 . S
H1261 C1273 0.950 . S
H1262 C1270 0.950 . S
H1263 C1272 0.950 . S
H1264 C1274 0.950 . S
H1265 C1276 0.950 . S
H1266 C1278 0.950 . S
H1267 C1279 0.950 . S
C1268 H1260 0.950 . S
C1268 C1269 1.386 . S
C1268 C1270 1.391 . S
C1269 C1268 1.386 . S
C1269 C1273 1.393 . S
C1270 H1262 0.950 . S
C1270 C1268 1.391 . S
C1270 C1271 1.400 . S
C1271 C1270 1.400 . S
C1271 C1272 1.398 . S
C1271 C1277 1.491 . S
C1272 H1263 0.950 . S
C1272 C1271 1.398 . S
C1272 C1273 1.391 . S
C1273 H1261 0.950 . S
C1273 C1269 1.393 . S
C1273 C1272 1.391 . S
C1274 H1264 0.950 . S
C1274 C1275 1.386 . S
C1274 C1276 1.391 . S
C1275 C1274 1.386 . S
C1275 C1279 1.393 . S
C1276 H1265 0.950 . S
C1276 C1274 1.391 . S
C1276 C1277 1.400 . S
C1277 C1271 1.491 . S
C1277 C1276 1.400 . S
C1277 C1278 1.398 . S
C1278 H1266 0.950 . S
C1278 C1277 1.398 . S
C1278 C1279 1.391 . S
C1279 H1267 0.950 . S
C1279 C1275 1.393 . S
C1279 C1278 1.391 . S
H1280 C1288 0.950 . S
H1281 C1293 0.950 . S
H1282 C1290 0.950 1_545 S
H1283 C1292 0.950 1_545 S
H1284 C1294 0.950 . S
H1285 C1296 0.950 . S
H1286 C1298 0.950 . S
H1287 C1299 0.950 . S
C1288 H1280 0.950 . S
C1288 C1289 1.386 . S
C1288 C1290 1.391 . S
C1289 C1288 1.386 . S
C1289 C1293 1.393 . S
C1290 H1282 0.950 1_565 S
C1290 C1288 1.391 . S
C1290 C1291 1.400 1_565 S
C1291 C1290 1.400 1_545 S
C1291 C1292 1.398 1_545 S
C1291 C1297 1.491 . S
C1292 H1283 0.950 1_565 S
C1292 C1291 1.398 1_565 S
C1292 C1293 1.391 . S
C1293 H1281 0.950 . S
C1293 C1289 1.393 . S
C1293 C1292 1.391 . S
C1294 H1284 0.950 . S
C1294 C1295 1.386 . S
C1294 C1296 1.391 . S
C1295 C1294 1.386 . S
C1295 C1299 1.393 . S
C1296 H1285 0.950 . S
C1296 C1294 1.391 . S
C1296 C1297 1.400 . S
C1297 C1291 1.491 . S
C1297 C1296 1.400 . S
C1297 C1298 1.398 . S
C1298 H1286 0.950 . S
C1298 C1297 1.398 . S
C1298 C1299 1.391 . S
C1299 H1287 0.950 . S
C1299 C1295 1.393 . S
C1299 C1298 1.391 . S
H1300 C1308 0.950 . S
H1301 C1313 0.950 . S
H1302 C1310 0.950 . S
H1303 C1312 0.950 . S
H1304 C1314 0.950 . S
H1305 C1316 0.950 1_565 S
H1306 C1318 0.950 1_565 S
H1307 C1319 0.950 . S
C1308 H1300 0.950 . S
C1308 C1309 1.386 . S
C1308 C1310 1.391 . S
C1309 C1308 1.386 . S
C1309 C1313 1.393 . S
C1310 H1302 0.950 . S
C1310 C1308 1.391 . S
C1310 C1311 1.400 . S
C1311 C1310 1.400 . S
C1311 C1312 1.398 . S
C1311 C1317 1.491 . S
C1312 H1303 0.950 . S
C1312 C1311 1.398 . S
C1312 C1313 1.391 . S
C1313 H1301 0.950 . S
C1313 C1309 1.393 . S
C1313 C1312 1.391 . S
C1314 H1304 0.950 . S
C1314 C1315 1.386 . S
C1314 C1316 1.391 . S
C1315 C1314 1.386 . S
C1315 C1319 1.393 . S
C1316 H1305 0.950 1_545 S
C1316 C1314 1.391 . S
C1316 C1317 1.400 1_545 S
C1317 C1311 1.491 . S
C1317 C1316 1.400 1_565 S
C1317 C1318 1.398 1_565 S
C1318 H1306 0.950 1_545 S
C1318 C1317 1.398 1_545 S
C1318 C1319 1.391 . S
C1319 H1307 0.950 . S
C1319 C1315 1.393 . S
C1319 C1318 1.391 . S
H1320 C1328 0.950 . S
H1321 C1333 0.950 . S
H1322 C1330 0.950 1_565 S
H1323 C1332 0.950 1_565 S
H1324 C1334 0.950 . S
H1325 C1336 0.950 . S
H1326 C1338 0.950 . S
H1327 C1339 0.950 . S
C1328 H1320 0.950 . S
C1328 C1329 1.386 . S
C1328 C1330 1.391 . S
C1329 C1328 1.386 . S
C1329 C1333 1.393 . S
C1330 H1322 0.950 1_545 S
C1330 C1328 1.391 . S
C1330 C1331 1.400 1_545 S
C1331 C1330 1.400 1_565 S
C1331 C1332 1.398 1_565 S
C1331 C1337 1.491 . S
C1332 H1323 0.950 1_545 S
C1332 C1331 1.398 1_545 S
C1332 C1333 1.391 . S
C1333 H1321 0.950 . S
C1333 C1329 1.393 . S
C1333 C1332 1.391 . S
C1334 H1324 0.950 . S
C1334 C1335 1.386 . S
C1334 C1336 1.391 . S
C1335 C1334 1.386 . S
C1335 C1339 1.393 . S
C1336 H1325 0.950 . S
C1336 C1334 1.391 . S
C1336 C1337 1.400 . S
C1337 C1331 1.491 . S
C1337 C1336 1.400 . S
C1337 C1338 1.398 . S
C1338 H1326 0.950 . S
C1338 C1337 1.398 . S
C1338 C1339 1.391 . S
C1339 H1327 0.950 . S
C1339 C1335 1.393 . S
C1339 C1338 1.391 . S
H1340 C1348 0.950 . S
H1341 C1353 0.950 . S
H1342 C1350 0.950 1_545 S
H1343 C1352 0.950 1_545 S
H1344 C1354 0.950 . S
H1345 C1356 0.950 . S
H1346 C1358 0.950 . S
H1347 C1359 0.950 . S
C1348 H1340 0.950 . S
C1348 C1349 1.386 . S
C1348 C1350 1.391 . S
C1349 C1348 1.386 . S
C1349 C1353 1.393 . S
C1350 H1342 0.950 1_565 S
C1350 C1348 1.391 . S
C1350 C1351 1.400 1_565 S
C1351 C1350 1.400 1_545 S
C1351 C1352 1.398 1_545 S
C1351 C1357 1.491 . S
C1352 H1343 0.950 1_565 S
C1352 C1351 1.398 1_565 S
C1352 C1353 1.391 . S
C1353 H1341 0.950 . S
C1353 C1349 1.393 . S
C1353 C1352 1.391 . S
C1354 H1344 0.950 . S
C1354 C1355 1.386 . S
C1354 C1356 1.391 . S
C1355 C1354 1.386 . S
C1355 C1359 1.393 . S
C1356 H1345 0.950 . S
C1356 C1354 1.391 . S
C1356 C1357 1.400 . S
C1357 C1351 1.491 . S
C1357 C1356 1.400 . S
C1357 C1358 1.398 . S
C1358 H1346 0.950 . S
C1358 C1357 1.398 . S
C1358 C1359 1.391 . S
C1359 H1347 0.950 . S
C1359 C1355 1.393 . S
C1359 C1358 1.391 . S
H1360 C1368 0.950 . S
H1361 C1373 0.950 . S
H1362 C1370 0.950 . S
H1363 C1372 0.950 . S
H1364 C1374 0.950 . S
H1365 C1376 0.950 1_565 S
H1366 C1378 0.950 1_565 S
H1367 C1379 0.950 . S
C1368 H1360 0.950 . S
C1368 C1369 1.386 . S
C1368 C1370 1.391 . S
C1369 C1368 1.386 . S
C1369 C1373 1.393 . S
C1370 H1362 0.950 . S
C1370 C1368 1.391 . S
C1370 C1371 1.400 . S
C1371 C1370 1.400 . S
C1371 C1372 1.398 . S
C1371 C1377 1.491 . S
C1372 H1363 0.950 . S
C1372 C1371 1.398 . S
C1372 C1373 1.391 . S
C1373 H1361 0.950 . S
C1373 C1369 1.393 . S
C1373 C1372 1.391 . S
C1374 H1364 0.950 . S
C1374 C1375 1.386 . S
C1374 C1376 1.391 . S
C1375 C1374 1.386 . S
C1375 C1379 1.393 . S
C1376 H1365 0.950 1_545 S
C1376 C1374 1.391 . S
C1376 C1377 1.400 1_545 S
C1377 C1371 1.491 . S
C1377 C1376 1.400 1_565 S
C1377 C1378 1.398 1_565 S
C1378 H1366 0.950 1_545 S
C1378 C1377 1.398 1_545 S
C1378 C1379 1.391 . S
C1379 H1367 0.950 . S
C1379 C1375 1.393 . S
C1379 C1378 1.391 . S
H1380 C1388 0.950 . S
H1381 C1393 0.950 . S
H1382 C1390 0.950 . S
H1383 C1392 0.950 . S
H1384 C1394 0.950 . S
H1385 C1396 0.950 1_545 S
H1386 C1398 0.950 1_545 S
H1387 C1399 0.950 . S
C1388 H1380 0.950 . S
C1388 C1389 1.386 . S
C1388 C1390 1.391 . S
C1389 C1388 1.386 . S
C1389 C1393 1.393 . S
C1390 H1382 0.950 . S
C1390 C1388 1.391 . S
C1390 C1391 1.400 . S
C1391 C1390 1.400 . S
C1391 C1392 1.398 . S
C1391 C1397 1.491 . S
C1392 H1383 0.950 . S
C1392 C1391 1.398 . S
C1392 C1393 1.391 . S
C1393 H1381 0.950 . S
C1393 C1389 1.393 . S
C1393 C1392 1.391 . S
C1394 H1384 0.950 . S
C1394 C1395 1.386 . S
C1394 C1396 1.391 . S
C1395 C1394 1.386 . S
C1395 C1399 1.393 . S
C1396 H1385 0.950 1_565 S
C1396 C1394 1.391 . S
C1396 C1397 1.400 1_565 S
C1397 C1391 1.491 . S
C1397 C1396 1.400 1_545 S
C1397 C1398 1.398 1_545 S
C1398 H1386 0.950 1_565 S
C1398 C1397 1.398 1_565 S
C1398 C1399 1.391 . S
C1399 H1387 0.950 . S
C1399 C1395 1.393 . S
C1399 C1398 1.391 . S
H1400 C1408 0.950 . S
H1401 C1413 0.950 . S
H1402 C1410 0.950 1_545 S
H1403 C1412 0.950 1_545 S
H1404 C1414 0.950 . S
H1405 C1416 0.950 . S
H1406 C1418 0.950 . S
H1407 C1419 0.950 . S
C1408 H1400 0.950 . S
C1408 C1409 1.386 . S
C1408 C1410 1.391 . S
C1409 C1408 1.386 . S
C1409 C1413 1.393 . S
C1410 H1402 0.950 1_565 S
C1410 C1408 1.391 . S
C1410 C1411 1.400 1_565 S
C1411 C1410 1.400 1_545 S
C1411 C1412 1.398 1_545 S
C1411 C1417 1.491 . S
C1412 H1403 0.950 1_565 S
C1412 C1411 1.398 1_565 S
C1412 C1413 1.391 . S
C1413 H1401 0.950 . S
C1413 C1409 1.393 . S
C1413 C1412 1.391 . S
C1414 H1404 0.950 . S
C1414 C1415 1.386 . S
C1414 C1416 1.391 . S
C1415 C1414 1.386 . S
C1415 C1419 1.393 . S
C1416 H1405 0.950 . S
C1416 C1414 1.391 . S
C1416 C1417 1.400 . S
C1417 C1411 1.491 . S
C1417 C1416 1.400 . S
C1417 C1418 1.398 . S
C1418 H1406 0.950 . S
C1418 C1417 1.398 . S
C1418 C1419 1.391 . S
C1419 H1407 0.950 . S
C1419 C1415 1.393 . S
C1419 C1418 1.391 . S
H1420 C1428 0.950 . S
H1421 C1433 0.950 . S
H1422 C1430 0.950 . S
H1423 C1432 0.950 . S
H1424 C1434 0.950 . S
H1425 C1436 0.950 1_565 S
H1426 C1438 0.950 1_565 S
H1427 C1439 0.950 . S
C1428 H1420 0.950 . S
C1428 C1429 1.386 . S
C1428 C1430 1.391 . S
C1429 C1428 1.386 . S
C1429 C1433 1.393 . S
C1430 H1422 0.950 . S
C1430 C1428 1.391 . S
C1430 C1431 1.400 . S
C1431 C1430 1.400 . S
C1431 C1432 1.398 . S
C1431 C1437 1.491 . S
C1432 H1423 0.950 . S
C1432 C1431 1.398 . S
C1432 C1433 1.391 . S
C1433 H1421 0.950 . S
C1433 C1429 1.393 . S
C1433 C1432 1.391 . S
C1434 H1424 0.950 . S
C1434 C1435 1.386 . S
C1434 C1436 1.391 . S
C1435 C1434 1.386 . S
C1435 C1439 1.393 . S
C1436 H1425 0.950 1_545 S
C1436 C1434 1.391 . S
C1436 C1437 1.400 1_545 S
C1437 C1431 1.491 . S
C1437 C1436 1.400 1_565 S
C1437 C1438 1.398 1_565 S
C1438 H1426 0.950 1_545 S
C1438 C1437 1.398 1_545 S
C1438 C1439 1.391 . S
C1439 H1427 0.950 . S
C1439 C1435 1.393 . S
C1439 C1438 1.391 . S
C489 N6 1.495 . S
C495 N276 1.512 . S
C509 N36 1.511 . S
C515 N246 1.502 . S
C529 N336 1.514 . S
C535 N66 1.499 . S
C549 N96 1.496 . S
C555 N306 1.509 . S
C569 N404 1.505 . S
C575 N134 1.499 . S
C589 N374 1.514 . S
C595 N164 1.496 . S
C609 N464 1.504 . S
C615 N194 1.510 . S
C629 N224 1.496 . S
C635 N434 1.514 . S
C649 C61 1.553 . S
C655 C1 1.547 . S
C669 C91 1.546 . S
C675 C31 1.551 . S
C689 C190 1.552 . S
C695 C130 1.555 . S
C709 C160 1.555 . S
C715 C220 1.552 . S
C729 C301 1.555 . S
C735 C241 1.553 . S
C749 C331 1.552 . S
C755 C271 1.547 . S
C769 C370 1.548 . S
C775 C430 1.554 . S
C789 C400 1.548 . S
C795 C460 1.554 . S
C809 C151 1.528 . S
C815 C10 1.521 . S
C829 C121 1.524 . S
C835 C40 1.524 . S
C849 C70 1.528 . S
C855 C211 1.521 . S
C869 C181 1.521 . S
C875 C100 1.528 . S
C889 C250 1.525 . S
C895 C391 1.523 . S
C909 C361 1.523 . S
C915 C280 1.525 . S
C929 C310 1.523 . S
C935 C451 1.525 . S
C949 C421 1.521 . S
C955 C340 1.528 . S
C969 N44 1.467 . S
C975 N14 1.458 . S
C989 N104 1.479 . S
C995 N74 1.461 . S
C1009 N156 1.464 . S
C1015 N126 1.460 . S
C1029 N186 1.458 . S
C1035 N216 1.472 . S
C1049 N284 1.461 . S
C1055 N254 1.463 . S
C1069 N344 1.458 . S
C1075 N314 1.469 . S
C1089 N366 1.458 . S
C1095 N396 1.471 . S
C1109 N426 1.481 . S
C1115 N456 1.466 . S
C1129 C27 1.378 . S
C1135 C16 1.378 . S
C1149 C57 1.378 . S
C1155 C46 1.378 . S
C1169 C87 1.378 . S
C1175 C76 1.378 . S
C1189 C106 1.381 . S
C1195 C117 1.381 . S
C1209 C136 1.379 . S
C1215 C147 1.379 . S
C1229 C177 1.381 . S
C1235 C166 1.381 . S
C1249 C196 1.378 . S
C1255 C207 1.378 . S
C1269 C226 1.381 . S
C1275 C237 1.381 . S
C1289 C256 1.378 . S
C1295 C267 1.378 . S
C1309 C297 1.378 . S
C1315 C286 1.378 . S
C1329 C316 1.378 . S
C1335 C327 1.378 . S
C1349 C346 1.381 . S
C1355 C357 1.381 . S
C1369 C376 1.381 . S
C1375 C387 1.381 . S
C1389 C406 1.380 . S
C1395 C417 1.380 . S
C1409 C447 1.379 . S
C1415 C436 1.379 . S
C1429 C466 1.379 . S
C1435 C477 1.379 . S
