# Generated by pormake.
# Topology umc, (4)-cn, num edge types: 1
# Building blocks:
#     Node 0, Type 0, BuildingBlock: GALJAG_clean_sbu_0, # of connection points: 4
#     Node 1, Type 0, BuildingBlock: GALJAG_clean_sbu_0, # of connection points: 4
#     Node 2, Type 0, BuildingBlock: GALJAG_clean_sbu_0, # of connection points: 4
#     Node 3, Type 0, BuildingBlock: GALJAG_clean_sbu_0, # of connection points: 4
#     Node 4, Type 0, BuildingBlock: GALJAG_clean_sbu_0, # of connection points: 4
#     Node 5, Type 0, BuildingBlock: GALJAG_clean_sbu_0, # of connection points: 4
#     Node 6, Type 0, BuildingBlock: GALJAG_clean_sbu_0, # of connection points: 4
#     Node 7, Type 0, BuildingBlock: GALJAG_clean_sbu_0, # of connection points: 4
#     Node 8, Type 0, BuildingBlock: GALJAG_clean_sbu_0, # of connection points: 4
#     Node 9, Type 0, BuildingBlock: GALJAG_clean_sbu_0, # of connection points: 4
#     Node 10, Type 0, BuildingBlock: GALJAG_clean_sbu_0, # of connection points: 4
#     Node 11, Type 0, BuildingBlock: GALJAG_clean_sbu_0, # of connection points: 4
#     Node 12, Type 0, BuildingBlock: GALJAG_clean_sbu_0, # of connection points: 4
#     Node 13, Type 0, BuildingBlock: GALJAG_clean_sbu_0, # of connection points: 4
#     Node 14, Type 0, BuildingBlock: GALJAG_clean_sbu_0, # of connection points: 4
#     Node 15, Type 0, BuildingBlock: GALJAG_clean_sbu_0, # of connection points: 4
#     Edge 16, Type (0, 0), BuildingBlock: ZUJKAS_clean_linker_0, # of connection points: 2
#     Edge 17, Type (0, 0), BuildingBlock: ZUJKAS_clean_linker_0, # of connection points: 2
#     Edge 18, Type (0, 0), BuildingBlock: ZUJKAS_clean_linker_0, # of connection points: 2
#     Edge 19, Type (0, 0), BuildingBlock: ZUJKAS_clean_linker_0, # of connection points: 2
#     Edge 20, Type (0, 0), BuildingBlock: ZUJKAS_clean_linker_0, # of connection points: 2
#     Edge 21, Type (0, 0), BuildingBlock: ZUJKAS_clean_linker_0, # of connection points: 2
#     Edge 22, Type (0, 0), BuildingBlock: ZUJKAS_clean_linker_0, # of connection points: 2
#     Edge 23, Type (0, 0), BuildingBlock: ZUJKAS_clean_linker_0, # of connection points: 2
#     Edge 24, Type (0, 0), BuildingBlock: ZUJKAS_clean_linker_0, # of connection points: 2
#     Edge 25, Type (0, 0), BuildingBlock: ZUJKAS_clean_linker_0, # of connection points: 2
#     Edge 26, Type (0, 0), BuildingBlock: ZUJKAS_clean_linker_0, # of connection points: 2
#     Edge 27, Type (0, 0), BuildingBlock: ZUJKAS_clean_linker_0, # of connection points: 2
#     Edge 28, Type (0, 0), BuildingBlock: ZUJKAS_clean_linker_0, # of connection points: 2
#     Edge 29, Type (0, 0), BuildingBlock: ZUJKAS_clean_linker_0, # of connection points: 2
#     Edge 30, Type (0, 0), BuildingBlock: ZUJKAS_clean_linker_0, # of connection points: 2
#     Edge 31, Type (0, 0), BuildingBlock: ZUJKAS_clean_linker_0, # of connection points: 2
#     Edge 32, Type (0, 0), BuildingBlock: ZUJKAS_clean_linker_0, # of connection points: 2
#     Edge 33, Type (0, 0), BuildingBlock: ZUJKAS_clean_linker_0, # of connection points: 2
#     Edge 34, Type (0, 0), BuildingBlock: ZUJKAS_clean_linker_0, # of connection points: 2
#     Edge 35, Type (0, 0), BuildingBlock: ZUJKAS_clean_linker_0, # of connection points: 2
#     Edge 36, Type (0, 0), BuildingBlock: ZUJKAS_clean_linker_0, # of connection points: 2
#     Edge 37, Type (0, 0), BuildingBlock: ZUJKAS_clean_linker_0, # of connection points: 2
#     Edge 38, Type (0, 0), BuildingBlock: ZUJKAS_clean_linker_0, # of connection points: 2
#     Edge 39, Type (0, 0), BuildingBlock: ZUJKAS_clean_linker_0, # of connection points: 2
#     Edge 40, Type (0, 0), BuildingBlock: ZUJKAS_clean_linker_0, # of connection points: 2
#     Edge 41, Type (0, 0), BuildingBlock: ZUJKAS_clean_linker_0, # of connection points: 2
#     Edge 42, Type (0, 0), BuildingBlock: ZUJKAS_clean_linker_0, # of connection points: 2
#     Edge 43, Type (0, 0), BuildingBlock: ZUJKAS_clean_linker_0, # of connection points: 2
#     Edge 44, Type (0, 0), BuildingBlock: ZUJKAS_clean_linker_0, # of connection points: 2
#     Edge 45, Type (0, 0), BuildingBlock: ZUJKAS_clean_linker_0, # of connection points: 2
#     Edge 46, Type (0, 0), BuildingBlock: ZUJKAS_clean_linker_0, # of connection points: 2
#     Edge 47, Type (0, 0), BuildingBlock: ZUJKAS_clean_linker_0, # of connection points: 2
# Relax obj value: 0.064
# Max RMSD: 0.131
# Mean RMSD: 0.131
data_MOF--net-umc--node1-GALJAG_clean_sbu_0--edge1-ZUJKAS_clean_linker_0
_symmetry_space_group_name_H-M    P1
_symmetry_Int_Tables_number       1
_symmetry_cell_setting            triclinic
loop_
_symmetry_equiv_pos_as_xyz
'x, y, z'
_cell_length_a     53.726734
_cell_length_b     49.224411
_cell_length_c     73.492065
_cell_angle_alpha  89.966896
_cell_angle_beta   90.012878
_cell_angle_gamma 89.979792
loop_
_atom_site_label
_atom_site_type_symbol
_atom_site_fract_x
_atom_site_fract_y
_atom_site_fract_z
_atom_type_partial_charge
In0 In 0.33037 0.0646 0.37231 0.0
O1 O 0.33399 0.11097 0.37244 0.0
O2 O 0.29798 0.09364 0.37583 0.0
C3 C 0.37812 0.04808 0.36928 0.0
C4 C 0.31939 0.04675 0.406 0.0
C5 C 0.31322 0.04942 0.33945 0.0
O6 O 0.37239 0.07284 0.3712 0.0
O7 O 0.35984 0.03204 0.36866 0.0
O8 O 0.31017 0.03485 0.35345 0.0
O9 O 0.32473 0.07137 0.34213 0.0
C10 C 0.31092 0.11496 0.37469 0.0
O11 O 0.3064 0.04015 0.39236 0.0
O12 O 0.3376 0.06202 0.4025 0.0
In13 In 0.67728 0.93 0.36944 0.0
O14 O 0.69773 0.95787 0.38951 0.0
O15 O 0.68032 0.92208 0.39963 0.0
C16 C 0.69016 0.94944 0.33655 0.0
C17 C 0.69684 0.87974 0.36668 0.0
C18 C 0.62952 0.94699 0.37111 0.0
O19 O 0.70181 0.95606 0.35083 0.0
O20 O 0.67229 0.93324 0.339 0.0
O21 O 0.63517 0.92226 0.3689 0.0
O22 O 0.64788 0.96278 0.37269 0.0
C23 C 0.69293 0.94304 0.40311 0.0
O24 O 0.67374 0.88362 0.36876 0.0
O25 O 0.70975 0.90112 0.36583 0.0
In26 In 0.33056 0.9349 0.12578 0.0
O27 O 0.33373 0.88846 0.12658 0.0
O28 O 0.29764 0.90609 0.12496 0.0
C29 C 0.37846 0.95134 0.1273 0.0
C30 C 0.31872 0.95061 0.09175 0.0
C31 C 0.31506 0.95349 0.15829 0.0
O32 O 0.37254 0.92648 0.12698 0.0
O33 O 0.36029 0.96758 0.12703 0.0
O34 O 0.30981 0.96554 0.14359 0.0
O35 O 0.32796 0.93224 0.15648 0.0
C36 C 0.31047 0.88467 0.12583 0.0
O37 O 0.30654 0.95867 0.10543 0.0
O38 O 0.33651 0.93477 0.09534 0.0
In39 In 0.67753 0.06964 0.12381 0.0
O40 O 0.674 0.11601 0.12429 0.0
O41 O 0.71023 0.09859 0.12565 0.0
C42 C 0.62981 0.05237 0.12313 0.0
C43 C 0.69212 0.05519 0.09015 0.0
C44 C 0.69124 0.05181 0.15693 0.0
O45 O 0.6354 0.07729 0.12411 0.0
O46 O 0.64821 0.03649 0.12233 0.0
O47 O 0.70192 0.04369 0.14259 0.0
O48 O 0.67393 0.06872 0.15443 0.0
C49 C 0.69724 0.11993 0.12528 0.0
O50 O 0.69821 0.04152 0.10403 0.0
O51 O 0.67876 0.07571 0.09337 0.0
In52 In 0.67484 0.93261 0.62457 0.0
O53 O 0.69932 0.95558 0.6042 0.0
O54 O 0.66958 0.93114 0.59415 0.0
C55 C 0.69153 0.95235 0.65653 0.0
C56 C 0.69408 0.88208 0.62349 0.0
C57 C 0.62667 0.94822 0.62627 0.0
O58 O 0.6929 0.966 0.642 0.0
O59 O 0.68192 0.92918 0.65481 0.0
O60 O 0.63364 0.92498 0.63153 0.0
O61 O 0.64384 0.96323 0.62036 0.0
C62 C 0.68739 0.94696 0.59052 0.0
O63 O 0.67084 0.88628 0.62386 0.0
O64 O 0.70729 0.90327 0.62351 0.0
In65 In 0.32822 0.06917 0.62739 0.0
O66 O 0.33184 0.11552 0.6261 0.0
O67 O 0.29603 0.09854 0.63085 0.0
C68 C 0.37629 0.05304 0.62671 0.0
C69 C 0.31345 0.05579 0.59363 0.0
C70 C 0.31378 0.04863 0.65967 0.0
O71 O 0.3698 0.07591 0.6329 0.0
O72 O 0.35869 0.03864 0.62076 0.0
O73 O 0.30354 0.0415 0.64493 0.0
O74 O 0.3311 0.06568 0.65794 0.0
C75 C 0.30891 0.11972 0.62875 0.0
O76 O 0.30765 0.04153 0.60732 0.0
O77 O 0.32652 0.07645 0.59711 0.0
In78 In 0.67405 0.06598 0.87043 0.0
O79 O 0.67015 0.11234 0.86996 0.0
O80 O 0.70611 0.09541 0.87423 0.0
C81 C 0.62618 0.0497 0.86785 0.0
C82 C 0.68558 0.0471 0.9038 0.0
C83 C 0.69086 0.05016 0.8376 0.0
O84 O 0.63204 0.07431 0.87029 0.0
O85 O 0.6444 0.03365 0.86651 0.0
O86 O 0.69476 0.03639 0.85184 0.0
O87 O 0.67866 0.07175 0.84002 0.0
C88 C 0.69309 0.11659 0.87255 0.0
O89 O 0.69875 0.04164 0.89003 0.0
O90 O 0.66693 0.06191 0.90064 0.0
In91 In 0.32749 0.93071 0.87101 0.0
O92 O 0.30725 0.959 0.89093 0.0
O93 O 0.32422 0.92307 0.90123 0.0
C94 C 0.31363 0.94904 0.83805 0.0
C95 C 0.30834 0.88027 0.86852 0.0
C96 C 0.37523 0.9478 0.8723 0.0
O97 O 0.3024 0.95612 0.8524 0.0
O98 O 0.33174 0.93314 0.84047 0.0
O99 O 0.36959 0.92304 0.87032 0.0
O100 O 0.35688 0.96362 0.87379 0.0
C101 C 0.31183 0.94424 0.90461 0.0
O102 O 0.3314 0.88436 0.87074 0.0
O103 O 0.29527 0.90152 0.86753 0.0
In104 In 0.83055 0.56499 0.36909 0.0
O105 O 0.80957 0.53854 0.3897 0.0
O106 O 0.83581 0.56743 0.39952 0.0
C107 C 0.81371 0.54798 0.33658 0.0
C108 C 0.81104 0.61554 0.36899 0.0
C109 C 0.8779 0.54697 0.36712 0.0
O110 O 0.80471 0.53914 0.35134 0.0
O111 O 0.83103 0.56507 0.33837 0.0
O112 O 0.87263 0.57202 0.36755 0.0
O113 O 0.85933 0.53128 0.36764 0.0
C114 C 0.82026 0.54908 0.4033 0.0
O115 O 0.83419 0.61139 0.36759 0.0
O116 O 0.79807 0.59433 0.37056 0.0
In117 In 0.17686 0.42929 0.37071 0.0
O118 O 0.17364 0.38291 0.37112 0.0
O119 O 0.20963 0.40062 0.37367 0.0
C120 C 0.12908 0.44559 0.3672 0.0
C121 C 0.18713 0.44682 0.40458 0.0
C122 C 0.19428 0.44546 0.33815 0.0
O123 O 0.13493 0.42076 0.36843 0.0
O124 O 0.14725 0.46179 0.36757 0.0
O125 O 0.19715 0.4596 0.35235 0.0
O126 O 0.18287 0.42335 0.34049 0.0
C127 C 0.19681 0.37917 0.37291 0.0
O128 O 0.19988 0.45428 0.39102 0.0
O129 O 0.16958 0.43071 0.40094 0.0
In130 In 0.82734 0.43637 0.12578 0.0
O131 O 0.83176 0.38998 0.126 0.0
O132 O 0.79535 0.4065 0.12363 0.0
C133 C 0.87442 0.45489 0.12854 0.0
C134 C 0.81693 0.45387 0.09192 0.0
C135 C 0.81039 0.45206 0.15856 0.0
O136 O 0.86946 0.42982 0.1274 0.0
O137 O 0.85568 0.47037 0.12832 0.0
O138 O 0.80213 0.46228 0.14396 0.0
O139 O 0.82698 0.4342 0.15648 0.0
C140 C 0.80868 0.38547 0.12459 0.0
O141 O 0.80462 0.46183 0.10558 0.0
O142 O 0.83415 0.43727 0.09545 0.0
In143 In 0.17354 0.5716 0.12853 0.0
O144 O 0.19514 0.54775 0.10686 0.0
O145 O 0.1668 0.5751 0.09827 0.0
C146 C 0.19183 0.55141 0.15982 0.0
C147 C 0.19387 0.62166 0.12868 0.0
C148 C 0.12563 0.55547 0.1316 0.0
O149 O 0.19515 0.5397 0.14472 0.0
O150 O 0.17948 0.57318 0.15903 0.0
O151 O 0.13177 0.58026 0.13184 0.0
O152 O 0.14357 0.53916 0.12992 0.0
C153 C 0.18334 0.55823 0.09374 0.0
O154 O 0.17071 0.61792 0.1305 0.0
O155 O 0.20653 0.60024 0.12684 0.0
In156 In 0.17385 0.4333 0.62534 0.0
O157 O 0.17033 0.38696 0.626 0.0
O158 O 0.20597 0.4042 0.62077 0.0
C159 C 0.12598 0.44919 0.629 0.0
C160 C 0.184 0.45181 0.59168 0.0
C161 C 0.19194 0.44868 0.65789 0.0
O162 O 0.13191 0.42458 0.62658 0.0
O163 O 0.14413 0.46538 0.62981 0.0
O164 O 0.19398 0.4635 0.64392 0.0
O165 O 0.18096 0.42638 0.65534 0.0
C166 C 0.19319 0.38292 0.62287 0.0
O167 O 0.19748 0.45787 0.60518 0.0
O168 O 0.16578 0.4366 0.59527 0.0
In169 In 0.82686 0.56693 0.62533 0.0
O170 O 0.80736 0.53859 0.60502 0.0
O171 O 0.82638 0.57344 0.59495 0.0
C172 C 0.8124 0.54901 0.65824 0.0
C173 C 0.80699 0.61718 0.62654 0.0
C174 C 0.87456 0.54965 0.62512 0.0
O175 O 0.80164 0.54141 0.6438 0.0
O176 O 0.83015 0.5654 0.65592 0.0
O177 O 0.86897 0.57454 0.6264 0.0
O178 O 0.85619 0.53382 0.62384 0.0
C179 C 0.81364 0.55261 0.59135 0.0
O180 O 0.83026 0.61331 0.62594 0.0
O181 O 0.79404 0.5958 0.62667 0.0
In182 In 0.17215 0.56715 0.86902 0.0
O183 O 0.16938 0.61329 0.86579 0.0
O184 O 0.205 0.59583 0.87089 0.0
C185 C 0.12441 0.5502 0.86682 0.0
C186 C 0.18246 0.55514 0.90393 0.0
C187 C 0.19037 0.54756 0.83759 0.0
O188 O 0.13012 0.57511 0.86689 0.0
O189 O 0.14268 0.53418 0.86769 0.0
O190 O 0.19422 0.53583 0.85264 0.0
O191 O 0.17746 0.56892 0.83852 0.0
C192 C 0.19245 0.61713 0.86815 0.0
O193 O 0.19353 0.54346 0.89092 0.0
O194 O 0.16634 0.57238 0.8992 0.0
In195 In 0.82551 0.43171 0.87105 0.0
O196 O 0.80532 0.46006 0.89097 0.0
O197 O 0.82392 0.42522 0.90145 0.0
C198 C 0.8114 0.44957 0.83803 0.0
C199 C 0.80628 0.3812 0.86952 0.0
C200 C 0.87319 0.4491 0.87145 0.0
O201 O 0.80044 0.45712 0.8524 0.0
O202 O 0.82917 0.43323 0.84047 0.0
O203 O 0.86763 0.42421 0.87019 0.0
O204 O 0.85478 0.46489 0.87271 0.0
C205 C 0.81103 0.44604 0.90478 0.0
O206 O 0.82942 0.38538 0.87101 0.0
O207 O 0.79313 0.4024 0.86868 0.0
H208 H 0.27727 0.02137 0.41874 0.0
H209 H 0.26696 0.0115 0.4507 0.0
H210 H 0.33803 0.04374 0.46736 0.0
H211 H 0.34842 0.0535 0.43577 0.0
H212 H 0.32311 0.9934 0.48503 0.0
H213 H 0.25103 0.07498 0.48693 0.0
H214 H 0.24903 0.04917 0.46964 0.0
H215 H 0.27392 0.07341 0.46899 0.0
C216 C 0.29075 0.02603 0.42924 0.0
C217 C 0.31356 0.0384 0.42481 0.0
C218 C 0.28482 0.02045 0.44744 0.0
C219 C 0.30169 0.02708 0.46134 0.0
C220 C 0.32479 0.03844 0.45681 0.0
H221 H 0.32032 0.08645 0.56342 0.0
H222 H 0.31156 0.07425 0.53195 0.0
C223 C 0.33064 0.04411 0.43876 0.0
C224 C 0.29525 0.02415 0.4808 0.0
H225 H 0.26505 0.05785 0.51482 0.0
C226 C 0.30989 0.00687 0.49159 0.0
C227 C 0.27804 0.04188 0.48921 0.0
C228 C 0.26209 0.06105 0.47821 0.0
C229 C 0.30913 0.0083 0.51065 0.0
C230 C 0.29318 0.02739 0.51904 0.0
C231 C 0.27718 0.04319 0.50828 0.0
C232 C 0.29621 0.03478 0.53841 0.0
C233 C 0.32683 0.99104 0.52164 0.0
C234 C 0.29011 0.01672 0.55251 0.0
C235 C 0.29514 0.02368 0.57064 0.0
C236 C 0.30638 0.04872 0.57481 0.0
C237 C 0.31178 0.06695 0.56065 0.0
C238 C 0.30668 0.06007 0.54265 0.0
H239 H 0.33936 0.9787 0.51291 0.0
H240 H 0.3384 0.0041 0.5306 0.0
H241 H 0.31606 0.97706 0.53049 0.0
H242 H 0.28185 0.99718 0.54948 0.0
H243 H 0.29073 0.00928 0.58131 0.0
H244 H 0.729 0.97322 0.57778 0.0
H245 H 0.73888 0.98406 0.54587 0.0
H246 H 0.6691 0.94883 0.52904 0.0
H247 H 0.65925 0.93787 0.56055 0.0
H248 H 0.74151 0.94434 0.51664 0.0
H249 H 0.67112 0.02382 0.50305 0.0
H250 H 0.68145 0.01528 0.52576 0.0
H251 H 0.65826 0.99489 0.51457 0.0
C252 C 0.71573 0.96805 0.56725 0.0
C253 C 0.69338 0.95469 0.57161 0.0
C254 C 0.72137 0.97426 0.54909 0.0
C255 C 0.7045 0.96764 0.5352 0.0
C256 C 0.68212 0.95459 0.53962 0.0
H257 H 0.69274 0.90929 0.43222 0.0
H258 H 0.70235 0.92033 0.46375 0.0
C259 C 0.67662 0.94815 0.55762 0.0
C260 C 0.7106 0.97219 0.51582 0.0
H261 H 0.68483 0.99758 0.47697 0.0
C262 C 0.72963 0.9566 0.50797 0.0
C263 C 0.69533 0.98851 0.50459 0.0
C264 C 0.67555 0.0068 0.51244 0.0
C265 C 0.73217 0.95488 0.48901 0.0
C266 C 0.71513 0.96892 0.47775 0.0
C267 C 0.69772 0.9866 0.48563 0.0
C268 C 0.71229 0.96214 0.45825 0.0
C269 C 0.75222 0.93692 0.48117 0.0
C270 C 0.71449 0.9821 0.44469 0.0
C271 C 0.70903 0.97579 0.42653 0.0
C272 C 0.7008 0.9496 0.42183 0.0
C273 C 0.699 0.92965 0.43543 0.0
C274 C 0.70471 0.93586 0.45344 0.0
H275 H 0.7683 0.9352 0.49061 0.0
H276 H 0.74458 0.91622 0.47904 0.0
H277 H 0.75888 0.94479 0.46787 0.0
H278 H 0.72001 0.0026 0.44821 0.0
H279 H 0.71047 0.99156 0.4163 0.0
H280 H 0.34712 0.94237 0.06181 0.0
H281 H 0.33705 0.95314 0.0303 0.0
H282 H 0.26681 0.98723 0.04719 0.0
H283 H 0.2769 0.97655 0.07908 0.0
H284 H 0.26422 0.94764 0.01834 0.0
H285 H 0.33397 0.02724 0.00367 0.0
H286 H 0.34733 0.99856 0.01519 0.0
H287 H 0.32418 0.01886 0.02654 0.0
C288 C 0.32963 0.95242 0.05889 0.0
C289 C 0.31278 0.95863 0.07289 0.0
C290 C 0.32399 0.95876 0.04089 0.0
C291 C 0.30139 0.97138 0.03648 0.0
C292 C 0.28448 0.97777 0.05039 0.0
H293 H 0.29454 0.99306 0.91746 0.0
H294 H 0.28517 0.00469 0.94929 0.0
C295 C 0.29025 0.97166 0.06854 0.0
C296 C 0.29505 0.97555 0.0171 0.0
H297 H 0.32028 0.00027 0.97788 0.0
C298 C 0.27598 0.95977 0.0095 0.0
C299 C 0.31012 0.99171 0.00563 0.0
C300 C 0.32989 0.01028 0.0132 0.0
C301 C 0.27321 0.95767 0.99057 0.0
C302 C 0.29009 0.97151 0.97908 0.0
C303 C 0.30752 0.98941 0.98671 0.0
C304 C 0.29273 0.96436 0.95963 0.0
C305 C 0.25309 0.93955 0.98301 0.0
C306 C 0.30015 0.93794 0.955 0.0
C307 C 0.30575 0.93139 0.93702 0.0
C308 C 0.30401 0.95113 0.92328 0.0
C309 C 0.29593 0.97745 0.9278 0.0
C310 C 0.29056 0.9841 0.94592 0.0
H311 H 0.23708 0.93812 0.99253 0.0
H312 H 0.24633 0.94707 0.96964 0.0
H313 H 0.26068 0.91877 0.98112 0.0
H314 H 0.3025 0.92257 0.96542 0.0
H315 H 0.31191 0.91094 0.93396 0.0
H316 H 0.72943 0.02536 0.91624 0.0
H317 H 0.74001 0.01416 0.94795 0.0
H318 H 0.666 0.0372 0.96467 0.0
H319 H 0.65544 0.04841 0.93332 0.0
H320 H 0.73847 0.05225 0.97651 0.0
H321 H 0.67707 0.96527 0.99176 0.0
H322 H 0.68529 0.97488 0.96878 0.0
H323 H 0.6604 0.99203 0.98051 0.0
C324 C 0.71535 0.02755 0.92668 0.0
C325 C 0.69165 0.03782 0.92237 0.0
C326 C 0.7214 0.02114 0.94473 0.0
C327 C 0.70364 0.02441 0.95858 0.0
C328 C 0.67979 0.03391 0.95414 0.0
H329 H 0.68755 0.08641 0.05998 0.0
H330 H 0.69728 0.07425 0.02868 0.0
C331 C 0.67385 0.04056 0.93623 0.0
C332 C 0.71036 0.02111 0.97798 0.0
H333 H 0.68735 0.99468 0.01744 0.0
C334 C 0.72786 0.03906 0.98544 0.0
C335 C 0.69685 0.00359 0.98959 0.0
C336 C 0.67904 0.98265 0.98222 0.0
C337 C 0.7303 0.04192 0.00435 0.0
C338 C 0.71468 0.02662 0.01595 0.0
C339 C 0.69908 0.00667 0.0085 0.0
C340 C 0.71118 0.03415 0.03526 0.0
C341 C 0.74857 0.06238 0.01173 0.0
C342 C 0.71548 0.01546 0.04935 0.0
C343 C 0.70993 0.02242 0.06739 0.0
C344 C 0.69958 0.04795 0.07145 0.0
C345 C 0.69551 0.06659 0.05729 0.0
C346 C 0.70126 0.05976 0.0394 0.0
H347 H 0.76443 0.06535 0.00223 0.0
H348 H 0.73906 0.08225 0.01337 0.0
H349 H 0.75591 0.056 0.0252 0.0
H350 H 0.72284 0.99547 0.04635 0.0
H351 H 0.71315 0.00764 0.07806 0.0
H352 H 0.79506 0.50429 0.57847 0.0
H353 H 0.78782 0.49199 0.5464 0.0
H354 H 0.81076 0.57223 0.52987 0.0
H355 H 0.81813 0.58452 0.56153 0.0
H356 H 0.76387 0.54825 0.51278 0.0
H357 H 0.84979 0.48472 0.50956 0.0
H358 H 0.82788 0.48016 0.52789 0.0
H359 H 0.8462 0.51053 0.52681 0.0
C360 C 0.79829 0.51932 0.56796 0.0
C361 C 0.80731 0.54529 0.57244 0.0
C362 C 0.79418 0.51227 0.54972 0.0
C363 C 0.79882 0.53124 0.53587 0.0
C364 C 0.80701 0.55738 0.54041 0.0
H365 H 0.8449 0.56561 0.4335 0.0
H366 H 0.83595 0.55422 0.46509 0.0
C367 C 0.81132 0.56431 0.5585 0.0
C368 C 0.79681 0.52401 0.51643 0.0
H369 H 0.83213 0.49858 0.48184 0.0
C370 C 0.77827 0.53663 0.50597 0.0
C371 C 0.81578 0.50899 0.50771 0.0
C372 C 0.83615 0.49527 0.51845 0.0
C373 C 0.77923 0.53625 0.48689 0.0
C374 C 0.79925 0.52293 0.47818 0.0
C375 C 0.81676 0.50865 0.48863 0.0
C376 C 0.80488 0.52791 0.4588 0.0
C377 C 0.76006 0.55192 0.47616 0.0
C378 C 0.79044 0.51664 0.4448 0.0
C379 C 0.79557 0.52311 0.4266 0.0
C380 C 0.8151 0.54103 0.42228 0.0
C381 C 0.82968 0.55185 0.43638 0.0
C382 C 0.82466 0.54528 0.45444 0.0
H383 H 0.74608 0.56189 0.48506 0.0
H384 H 0.76936 0.56772 0.46779 0.0
H385 H 0.7502 0.53797 0.46674 0.0
H386 H 0.77515 0.50311 0.44796 0.0
H387 H 0.78407 0.51445 0.41598 0.0
H388 H 0.2262 0.47632 0.57839 0.0
H389 H 0.23475 0.48871 0.54653 0.0
H390 H 0.16179 0.46025 0.5312 0.0
H391 H 0.15321 0.44789 0.56265 0.0
H392 H 0.23372 0.45142 0.51671 0.0
H393 H 0.16651 0.53485 0.50619 0.0
H394 H 0.17703 0.52461 0.52854 0.0
H395 H 0.15235 0.50635 0.51734 0.0
C396 C 0.21192 0.47309 0.56821 0.0
C397 C 0.18905 0.46114 0.57296 0.0
C398 C 0.21682 0.48017 0.55008 0.0
C399 C 0.19873 0.47584 0.53661 0.0
C400 C 0.17579 0.46435 0.54145 0.0
H401 H 0.15874 0.43707 0.43432 0.0
H402 H 0.16682 0.45043 0.46568 0.0
C403 C 0.171 0.45708 0.55942 0.0
C404 C 0.20402 0.48079 0.51714 0.0
H405 H 0.1766 0.50776 0.47939 0.0
C406 C 0.22189 0.46445 0.50852 0.0
C407 C 0.18866 0.49794 0.50656 0.0
C408 C 0.17024 0.51714 0.51517 0.0
C409 C 0.22296 0.46272 0.48946 0.0
C410 C 0.20584 0.47785 0.47894 0.0
C411 C 0.1896 0.49607 0.48754 0.0
C412 C 0.20129 0.47125 0.45963 0.0
C413 C 0.2408 0.44301 0.48071 0.0
C414 C 0.218 0.47875 0.44585 0.0
C415 C 0.21338 0.47116 0.42777 0.0
C416 C 0.19208 0.45587 0.42338 0.0
C417 C 0.17535 0.44874 0.43726 0.0
C418 C 0.17988 0.45643 0.45518 0.0
H419 H 0.25276 0.43253 0.49086 0.0
H420 H 0.23024 0.42747 0.47294 0.0
H421 H 0.25294 0.45397 0.47095 0.0
H422 H 0.23458 0.49028 0.44909 0.0
H423 H 0.22656 0.47693 0.41732 0.0
H424 H 0.8137 0.41391 0.93463 0.0
H425 H 0.80466 0.42607 0.96606 0.0
H426 H 0.78344 0.5067 0.94908 0.0
H427 H 0.79239 0.49452 0.91726 0.0
H428 H 0.81963 0.5041 0.97789 0.0
H429 H 0.738 0.43947 0.99277 0.0
H430 H 0.7622 0.42109 0.98129 0.0
H431 H 0.74688 0.44881 0.96987 0.0
C432 C 0.80681 0.43414 0.93751 0.0
C433 C 0.80377 0.45329 0.92352 0.0
C434 C 0.80146 0.44099 0.95547 0.0
C435 C 0.793 0.46713 0.95984 0.0
C436 C 0.78967 0.48632 0.94591 0.0
H437 H 0.77519 0.47958 0.07896 0.0
H438 H 0.76567 0.49052 0.04703 0.0
C439 C 0.79479 0.47935 0.9278 0.0
C440 C 0.7901 0.47457 0.97921 0.0
H441 H 0.76445 0.45069 0.01853 0.0
C442 C 0.80706 0.49306 0.98676 0.0
C443 C 0.77347 0.46045 0.99073 0.0
C444 C 0.75392 0.44155 0.98323 0.0
C445 C 0.80944 0.49577 0.00568 0.0
C446 C 0.79463 0.47944 0.01721 0.0
C447 C 0.77599 0.46299 0.00965 0.0
C448 C 0.80083 0.47573 0.03666 0.0
C449 C 0.82872 0.51499 0.01319 0.0
C450 C 0.82363 0.46371 0.04129 0.0
C451 C 0.82894 0.45718 0.05932 0.0
C452 C 0.81157 0.46262 0.07312 0.0
C453 C 0.78894 0.47529 0.06858 0.0
C454 C 0.78349 0.48155 0.0504 0.0
H455 H 0.83248 0.53191 0.00356 0.0
H456 H 0.82272 0.52362 0.02645 0.0
H457 H 0.84641 0.50379 0.01533 0.0
H458 H 0.83704 0.45853 0.03084 0.0
H459 H 0.84653 0.44746 0.06241 0.0
H460 H 0.16044 0.57962 0.06415 0.0
H461 H 0.16953 0.57096 0.03218 0.0
H462 H 0.22708 0.51432 0.04746 0.0
H463 H 0.2181 0.52293 0.07981 0.0
H464 H 0.22351 0.57651 0.01638 0.0
H465 H 0.17598 0.4765 0.00828 0.0
H466 H 0.16548 0.50027 0.02534 0.0
H467 H 0.19492 0.48364 0.02801 0.0
C468 C 0.17498 0.56522 0.06078 0.0
C469 C 0.1886 0.55197 0.07448 0.0
C470 C 0.18014 0.56032 0.04251 0.0
C471 C 0.19891 0.54201 0.03756 0.0
C472 C 0.21245 0.52844 0.05111 0.0
H473 H 0.21478 0.51761 0.91847 0.0
H474 H 0.22441 0.51069 0.95093 0.0
C475 C 0.20732 0.5334 0.06951 0.0
C476 C 0.20435 0.5382 0.01806 0.0
H477 H 0.18629 0.50043 0.98146 0.0
C478 C 0.21603 0.55951 0.00874 0.0
C479 C 0.19463 0.51594 0.00824 0.0
C480 C 0.18203 0.49265 0.01786 0.0
C481 C 0.21669 0.56007 0.98969 0.0
C482 C 0.20508 0.53896 0.97983 0.0
C483 C 0.19514 0.51656 0.98913 0.0
C484 C 0.19947 0.54221 0.96029 0.0
C485 C 0.2285 0.58401 0.98023 0.0
C486 C 0.182 0.56182 0.95501 0.0
C487 C 0.17639 0.56567 0.9367 0.0
C488 C 0.18818 0.54999 0.92327 0.0
C489 C 0.20548 0.53002 0.92856 0.0
C490 C 0.21099 0.52605 0.94702 0.0
H491 H 0.2423 0.59431 0.98912 0.0
H492 H 0.23784 0.57759 0.96746 0.0
H493 H 0.21382 0.59897 0.97667 0.0
H494 H 0.17271 0.57424 0.96511 0.0
H495 H 0.16294 0.58116 0.93308 0.0
H496 H 0.58656 0.91764 0.36692 0.0
H497 H 0.54378 0.93511 0.36609 0.0
H498 H 0.57118 0.01636 0.37495 0.0
H499 H 0.61385 0.99918 0.37561 0.0
H500 H 0.51749 0.9645 0.39294 0.0
H501 H 0.5276 0.02464 0.32944 0.0
H502 H 0.54977 0.99895 0.33616 0.0
H503 H 0.55053 0.03201 0.34652 0.0
C504 C 0.58344 0.93922 0.36869 0.0
C505 C 0.60356 0.95706 0.37124 0.0
C506 C 0.55902 0.94916 0.36821 0.0
C507 C 0.55436 0.97709 0.37014 0.0
C508 C 0.5744 0.99483 0.37303 0.0
H509 H 0.42107 0.07773 0.37254 0.0
H510 H 0.46394 0.06045 0.37287 0.0
C511 C 0.59876 0.98493 0.37352 0.0
C512 C 0.52853 0.98769 0.36946 0.0
H513 H 0.49031 0.03105 0.34623 0.0
C514 C 0.51148 0.97893 0.38267 0.0
C515 C 0.5208 0.00662 0.35609 0.0
C516 C 0.53804 0.01597 0.34114 0.0
C517 C 0.48701 0.98894 0.38308 0.0
C518 C 0.47926 0.00784 0.3697 0.0
C519 C 0.49632 0.01662 0.35649 0.0
C520 C 0.45341 0.0184 0.36905 0.0
C521 C 0.46982 0.97964 0.39808 0.0
C522 C 0.43338 0.00058 0.36639 0.0
C523 C 0.40898 0.01036 0.36621 0.0
C524 C 0.40412 0.03821 0.36856 0.0
C525 C 0.42424 0.05617 0.37074 0.0
C526 C 0.4487 0.04633 0.37094 0.0
H527 H 0.4803 0.97114 0.40981 0.0
H528 H 0.458 0.99663 0.403 0.0
H529 H 0.45741 0.96347 0.39277 0.0
H530 H 0.43662 0.97905 0.36448 0.0
H531 H 0.39389 0.99603 0.36437 0.0
H532 H 0.39463 0.00375 0.12804 0.0
H533 H 0.43755 0.02014 0.12734 0.0
H534 H 0.46422 0.93751 0.1265 0.0
H535 H 0.42118 0.92088 0.12698 0.0
H536 H 0.47644 0.0103 0.15189 0.0
H537 H 0.49938 0.97241 0.08269 0.0
H538 H 0.46781 0.9746 0.09098 0.0
H539 H 0.4876 0.94713 0.09808 0.0
C540 C 0.40962 0.98903 0.12769 0.0
C541 C 0.40453 0.96101 0.12747 0.0
C542 C 0.43413 0.99845 0.12731 0.0
C543 C 0.45406 0.98007 0.1266 0.0
C544 C 0.44909 0.95205 0.12669 0.0
H545 H 0.61429 -0.00028 0.1221 0.0
H546 H 0.5716 0.98266 0.12328 0.0
C547 C 0.42452 0.94258 0.12708 0.0
C548 C 0.47998 0.99039 0.12595 0.0
H549 H 0.53234 0.99183 0.09962 0.0
C550 C 0.48867 0.00633 0.14045 0.0
C551 C 0.49586 0.98519 0.111 0.0
C552 C 0.4872 0.9691 0.09471 0.0
C553 C 0.51296 0.01687 0.14055 0.0
C554 C 0.52881 0.01176 0.12557 0.0
C555 C 0.52014 0.99576 0.11108 0.0
C556 C 0.55462 0.02245 0.12477 0.0
C557 C 0.5216 0.03287 0.15688 0.0
C558 C 0.55924 0.05054 0.12495 0.0
C559 C 0.58368 0.06038 0.12432 0.0
C560 C 0.60387 0.04228 0.12335 0.0
C561 C 0.59913 0.0142 0.12287 0.0
C562 C 0.57475 0.00439 0.12353 0.0
H563 H 0.50972 0.02903 0.16898 0.0
H564 H 0.54117 0.0278 0.16039 0.0
H565 H 0.52065 0.05488 0.1537 0.0
H566 H 0.54395 0.06485 0.12551 0.0
H567 H 0.58674 0.08212 0.12461 0.0
H568 H 0.58942 0.93185 0.6492 0.0
H569 H 0.5468 0.94961 0.65061 0.0
H570 H 0.56241 0.00215 0.60495 0.0
H571 H 0.60526 0.98576 0.60435 0.0
H572 H 0.5386 0.02939 0.62851 0.0
H573 H 0.48835 0.93199 0.62042 0.0
H574 H 0.50808 0.93192 0.64007 0.0
H575 H 0.52159 0.93452 0.61769 0.0
C576 C 0.5836 0.94707 0.63944 0.0
C577 C 0.60054 0.95742 0.62665 0.0
C578 C 0.55919 0.95708 0.64014 0.0
C579 C 0.5511 0.9769 0.62766 0.0
C580 C 0.56809 0.98692 0.61476 0.0
H581 H 0.39703 0.01531 0.60442 0.0
H582 H 0.43972 0.99817 0.60489 0.0
C583 C 0.59257 0.97748 0.61438 0.0
C584 C 0.52533 0.98807 0.62825 0.0
H585 H 0.46387 0.97042 0.6283 0.0
C586 C 0.52227 0.01644 0.62835 0.0
C587 C 0.50392 0.9713 0.62784 0.0
C588 C 0.50561 0.94077 0.6263 0.0
C589 C 0.49859 0.02849 0.62784 0.0
C590 C 0.47717 0.01172 0.62814 0.0
C591 C 0.48022 0.98335 0.62822 0.0
C592 C 0.45144 0.02301 0.62767 0.0
C593 C 0.49695 0.05902 0.62626 0.0
C594 C 0.44364 0.04275 0.64028 0.0
C595 C 0.41941 0.05317 0.63965 0.0
C596 C 0.40229 0.04334 0.62681 0.0
C597 C 0.4099 0.02326 0.61444 0.0
C598 C 0.43427 0.01338 0.61476 0.0
H599 H 0.5142 0.06774 0.6203 0.0
H600 H 0.48094 0.06531 0.61768 0.0
H601 H 0.49462 0.06791 0.64002 0.0
H602 H 0.45617 0.04988 0.65077 0.0
H603 H 0.41386 0.06832 0.64953 0.0
H604 H 0.61007 0.99791 0.86233 0.0
H605 H 0.56723 0.98121 0.86261 0.0
H606 H 0.54059 0.06242 0.87288 0.0
H607 H 0.58349 0.07939 0.87239 0.0
H608 H 0.53335 0.98411 0.89119 0.0
H609 H 0.49741 0.03767 0.83006 0.0
H610 H 0.53025 0.03446 0.83482 0.0
H611 H 0.51186 0.05935 0.84662 0.0
C612 C 0.59509 0.01228 0.8645 0.0
C613 C 0.60013 0.04 0.86728 0.0
C614 C 0.57063 0.00268 0.86468 0.0
C615 C 0.55071 0.02059 0.86756 0.0
C616 C 0.55565 0.04832 0.87029 0.0
H617 H 0.39101 -9e-05 0.87705 0.0
H618 H 0.43374 0.01696 0.87643 0.0
C619 C 0.58017 0.05797 0.87009 0.0
C620 C 0.52489 0.00997 0.86837 0.0
H621 H 0.46781 0.01424 0.84812 0.0
C622 C 0.51902 0.9906 0.88174 0.0
C623 C 0.50626 0.01851 0.85603 0.0
C624 C 0.51172 0.03846 0.84096 0.0
C625 C 0.4949 0.97986 0.88329 0.0
C626 C 0.47627 0.98836 0.87093 0.0
C627 C 0.48213 0.00775 0.85758 0.0
C628 C 0.45049 0.97762 0.87171 0.0
C629 C 0.48945 0.95997 0.89841 0.0
C630 C 0.4457 0.94983 0.86917 0.0
C631 C 0.42126 0.93998 0.86958 0.0
C632 C 0.4012 0.95782 0.8724 0.0
C633 C 0.40607 0.98563 0.87489 0.0
C634 C 0.43047 0.99543 0.87451 0.0
H635 H 0.50367 0.96098 0.90937 0.0
H636 H 0.47085 0.96384 0.90446 0.0
H637 H 0.48953 0.93904 0.89281 0.0
H638 H 0.46083 0.93579 0.86663 0.0
H639 H 0.41807 0.91848 0.86749 0.0
H640 H 0.92119 0.57628 0.36614 0.0
H641 H 0.96385 0.55861 0.36496 0.0
H642 H 0.93549 0.47666 0.36527 0.0
H643 H 0.89292 0.49411 0.36622 0.0
H644 H 0.98747 0.52461 0.3901 0.0
H645 H 0.9834 0.47594 0.32206 0.0
H646 H 0.96048 0.50026 0.32965 0.0
H647 H 0.959 0.46558 0.33725 0.0
C648 C 0.92406 0.55451 0.36584 0.0
C649 C 0.90371 0.53659 0.36619 0.0
C650 C 0.94842 0.54445 0.36518 0.0
C651 C 0.95282 0.51633 0.36473 0.0
C652 C 0.93252 0.49842 0.36519 0.0
H653 H 0.08617 0.41539 0.36711 0.0
H654 H 0.04319 0.43238 0.36654 0.0
C655 C 0.9082 0.50845 0.36585 0.0
C656 C 0.97865 0.50565 0.36451 0.0
H657 H 0.01897 0.46615 0.34016 0.0
C658 C 0.99441 0.51197 0.37913 0.0
C659 C 0.98761 0.48903 0.35023 0.0
C660 C 0.97184 0.48246 0.33382 0.0
C661 C 0.01879 0.50178 0.38 0.0
C662 C 0.02776 0.48519 0.36572 0.0
C663 C 0.012 0.4788 0.35111 0.0
C664 C 0.05367 0.4748 0.36554 0.0
C665 C 0.0346 0.50844 0.39638 0.0
C666 C 0.07372 0.49299 0.36478 0.0
C667 C 0.09817 0.48338 0.36509 0.0
C668 C 0.10307 0.45535 0.36607 0.0
C669 C 0.08297 0.43709 0.3664 0.0
C670 C 0.05844 0.44676 0.36608 0.0
H671 H 0.02311 0.51527 0.40809 0.0
H672 H 0.04578 0.49057 0.40067 0.0
H673 H 0.04763 0.5251 0.39284 0.0
H674 H 0.07045 0.51468 0.364 0.0
H675 H 0.11325 0.49798 0.36471 0.0
H676 H 0.08321 0.58626 0.13375 0.0
H677 H 0.04005 0.56997 0.13481 0.0
H678 H 0.06614 0.48717 0.13271 0.0
H679 H 0.10913 0.5032 0.13184 0.0
H680 H 0.01566 0.5377 0.1088 0.0
H681 H 0.01807 0.48609 0.17589 0.0
H682 H 0.04154 0.51016 0.16886 0.0
H683 H 0.04248 0.47573 0.16074 0.0
C684 C 0.07972 0.56459 0.13367 0.0
C685 C 0.09955 0.54601 0.13278 0.0
C686 C 0.05509 0.55532 0.13426 0.0
C687 C 0.04992 0.52735 0.13412 0.0
C688 C 0.06971 0.50881 0.13323 0.0
H689 H 0.91804 0.42609 0.12872 0.0
H690 H 0.96051 0.44423 0.1301 0.0
C691 C 0.09427 0.51803 0.13262 0.0
C692 C 0.02385 0.51745 0.13407 0.0
H693 H 0.98289 0.47705 0.15713 0.0
C694 C 0.0084 0.52464 0.11944 0.0
C695 C 0.01449 0.5003 0.14792 0.0
C696 C 0.02991 0.49278 0.16434 0.0
C697 C 0.98401 0.51459 0.11805 0.0
C698 C 0.97471 0.49728 0.13184 0.0
C699 C 0.9901 0.49024 0.14654 0.0
C700 C 0.94901 0.48633 0.13127 0.0
C701 C 0.96865 0.52199 0.10158 0.0
C702 C 0.9285 0.50396 0.13178 0.0
C703 C 0.90429 0.49367 0.13097 0.0
C704 C 0.90012 0.46553 0.12976 0.0
C705 C 0.92067 0.44786 0.12959 0.0
C706 C 0.94492 0.45819 0.13039 0.0
H707 H 0.98042 0.52952 0.09022 0.0
H708 H 0.95773 0.50427 0.09672 0.0
H709 H 0.95539 0.53836 0.1053 0.0
H710 H 0.93122 0.5257 0.13283 0.0
H711 H 0.88884 0.50781 0.13126 0.0
H712 H 0.91759 0.57911 0.62855 0.0
H713 H 0.96038 0.56164 0.62939 0.0
H714 H 0.93268 0.47988 0.62361 0.0
H715 H 0.89006 0.49712 0.62256 0.0
H716 H 0.98124 0.524 0.6542 0.0
H717 H 0.98525 0.48521 0.58334 0.0
H718 H 0.96158 0.50863 0.59095 0.0
H719 H 0.95915 0.47308 0.59626 0.0
C720 C 0.92066 0.55743 0.62735 0.0
C721 C 0.90049 0.5395 0.62539 0.0
C722 C 0.94508 0.54749 0.62786 0.0
C723 C 0.94971 0.5195 0.62629 0.0
C724 C 0.92957 0.50159 0.62447 0.0
H725 H 0.08329 0.419 0.62629 0.0
H726 H 0.04024 0.43569 0.62669 0.0
C727 C 0.90521 0.51148 0.62396 0.0
C728 C 0.97553 0.50888 0.62704 0.0
H729 H 0.01869 0.47302 0.60281 0.0
C730 C 0.9895 0.51298 0.64294 0.0
C731 C 0.98618 0.49437 0.61236 0.0
C732 C 0.97239 0.49022 0.59469 0.0
C733 C 0.01374 0.50258 0.64467 0.0
C734 C 0.02442 0.48813 0.62997 0.0
C735 C 0.01042 0.48399 0.61409 0.0
C736 C 0.05037 0.47784 0.63055 0.0
C737 C 0.02751 0.5067 0.66235 0.0
C738 C 0.0703 0.49601 0.6325 0.0
C739 C 0.09481 0.48655 0.63232 0.0
C740 C 0.09991 0.45873 0.63004 0.0
C741 C 0.07993 0.44052 0.62814 0.0
C742 C 0.05536 0.45003 0.62833 0.0
H743 H 0.01455 0.51116 0.67375 0.0
H744 H 0.03872 0.48851 0.66592 0.0
H745 H 0.04033 0.52424 0.66093 0.0
H746 H 0.06693 0.51761 0.63382 0.0
H747 H 0.10979 0.50112 0.6337 0.0
H748 H 0.08139 0.58014 0.86761 0.0
H749 H 0.03851 0.56293 0.86829 0.0
H750 H 0.06605 0.48075 0.86534 0.0
H751 H 0.10877 0.49768 0.86494 0.0
H752 H 0.01278 0.53041 0.84331 0.0
H753 H 0.02115 0.47853 0.91009 0.0
H754 H 0.04375 0.50292 0.90214 0.0
H755 H 0.0444 0.46854 0.89388 0.0
C756 C 0.07826 0.55841 0.8671 0.0
C757 C 0.09843 0.54025 0.86637 0.0
C758 C 0.0538 0.54862 0.86748 0.0
C759 C 0.04913 0.52055 0.86722 0.0
C760 C 0.06924 0.50246 0.866 0.0
H761 H 0.91624 0.41956 0.86864 0.0
H762 H 0.95897 0.43703 0.86716 0.0
C763 C 0.09364 0.51219 0.86566 0.0
C764 C 0.02326 0.51008 0.8681 0.0
H765 H 0.9845 0.46955 0.89303 0.0
C766 C 0.00654 0.51723 0.85423 0.0
C767 C 0.01519 0.49283 0.88234 0.0
C768 C 0.03197 0.48542 0.89806 0.0
C769 C 0.98207 0.50718 0.85403 0.0
C770 C 0.97405 0.48986 0.86824 0.0
C771 C 0.99075 0.48273 0.88212 0.0
C772 C 0.94823 0.4793 0.86914 0.0
C773 C 0.96516 0.51474 0.83843 0.0
C774 C 0.92812 0.49725 0.87104 0.0
C775 C 0.90378 0.48735 0.87192 0.0
C776 C 0.89909 0.45928 0.871 0.0
C777 C 0.91928 0.44128 0.86935 0.0
C778 C 0.94367 0.45122 0.8685 0.0
H779 H 0.97583 0.52222 0.82649 0.0
H780 H 0.95368 0.49711 0.83414 0.0
H781 H 0.95241 0.53119 0.84285 0.0
H782 H 0.93126 0.51894 0.87194 0.0
H783 H 0.88863 0.50173 0.87328 0.0
H784 H 0.24623 0.36715 0.3745 0.0
H785 H 0.26563 0.32223 0.37523 0.0
H786 H 0.19318 0.28465 0.37378 0.0
H787 H 0.17351 0.32968 0.37307 0.0
H788 H 0.22783 0.26354 0.40098 0.0
H789 H 0.26873 0.26843 0.33158 0.0
H790 H 0.27512 0.29714 0.34595 0.0
H791 H 0.24374 0.29047 0.33882 0.0
C792 C 0.23439 0.34934 0.37433 0.0
C793 C 0.20834 0.35192 0.37366 0.0
C794 C 0.24552 0.32371 0.37466 0.0
C795 C 0.23084 0.30018 0.37432 0.0
C796 C 0.20481 0.30263 0.37395 0.0
H797 H 0.26177 0.12745 0.37801 0.0
H798 H 0.24268 0.17246 0.37848 0.0
C799 C 0.19363 0.32831 0.37353 0.0
C800 C 0.24274 0.27306 0.37456 0.0
H801 H 0.28063 0.23117 0.35 0.0
C802 C 0.23929 0.25636 0.38982 0.0
C803 C 0.25779 0.26391 0.36002 0.0
C804 C 0.26148 0.28077 0.34308 0.0
C805 C 0.25085 0.23083 0.39106 0.0
C806 C 0.26579 0.22158 0.37645 0.0
C807 C 0.26924 0.23834 0.3612 0.0
C808 C 0.27753 0.1943 0.37651 0.0
C809 C 0.24738 0.21428 0.40816 0.0
C810 C 0.30345 0.19158 0.37478 0.0
C811 C 0.31443 0.1658 0.37434 0.0
C812 C 0.29964 0.14233 0.37553 0.0
C813 C 0.2737 0.14514 0.3772 0.0
C814 C 0.26275 0.17087 0.37759 0.0
H815 H 0.24171 0.22719 0.41984 0.0
H816 H 0.2325 0.19903 0.40588 0.0
H817 H 0.26474 0.20332 0.41184 0.0
H818 H 0.31517 0.20942 0.3738 0.0
H819 H 0.33446 0.16425 0.37298 0.0
H820 H 0.67377 0.83033 0.36978 0.0
H821 H 0.69349 0.78534 0.36986 0.0
H822 H 0.76525 0.82265 0.36176 0.0
H823 H 0.74581 0.86753 0.36186 0.0
H824 H 0.72323 0.76009 0.34279 0.0
H825 H 0.77582 0.77511 0.40705 0.0
H826 H 0.75041 0.79693 0.40032 0.0
H827 H 0.78068 0.80114 0.3903 0.0
C828 C 0.69374 0.8289 0.368 0.0
C829 C 0.70827 0.85244 0.36594 0.0
C830 C 0.70496 0.80323 0.36805 0.0
C831 C 0.73087 0.80074 0.36614 0.0
C832 C 0.7453 0.82417 0.36365 0.0
H833 H 0.83447 0.66462 0.36498 0.0
H834 H 0.81503 0.70972 0.36367 0.0
C835 C 0.73413 0.84978 0.36361 0.0
C836 C 0.74287 0.77364 0.36664 0.0
H837 H 0.78528 0.73551 0.39004 0.0
C838 C 0.73671 0.75464 0.35315 0.0
C839 C 0.76052 0.76667 0.38015 0.0
C840 C 0.76714 0.78591 0.39538 0.0
C841 C 0.74804 0.72894 0.35265 0.0
C842 C 0.76566 0.72195 0.36619 0.0
C843 C 0.77185 0.74098 0.37965 0.0
C844 C 0.77742 0.69473 0.36689 0.0
C845 C 0.74141 0.70969 0.33743 0.0
C846 C 0.76275 0.67148 0.36943 0.0
C847 C 0.77377 0.64581 0.37017 0.0
C848 C 0.7997 0.6429 0.36852 0.0
C849 C 0.81444 0.66624 0.36625 0.0
C850 C 0.80337 0.69197 0.3655 0.0
H851 H 0.73306 0.72056 0.32566 0.0
H852 H 0.75805 0.69836 0.33267 0.0
H853 H 0.72756 0.69474 0.34245 0.0
H854 H 0.74276 0.6732 0.37094 0.0
H855 H 0.76192 0.62823 0.37204 0.0
H856 H 0.17083 0.67113 0.13137 0.0
H857 H 0.19049 0.71609 0.13105 0.0
H858 H 0.26263 0.67857 0.12552 0.0
H859 H 0.24321 0.63366 0.12595 0.0
H860 H 0.26004 0.71993 0.15251 0.0
H861 H 0.22136 0.75391 0.08613 0.0
H862 H 0.19885 0.74189 0.10233 0.0
H863 H 0.22139 0.71873 0.09312 0.0
C864 C 0.19087 0.67249 0.13006 0.0
C865 C 0.20547 0.64889 0.12861 0.0
C866 C 0.20205 0.69816 0.12979 0.0
C867 C 0.22798 0.70062 0.12803 0.0
C868 C 0.24259 0.67709 0.12681 0.0
H869 H 0.3337 0.83511 0.12583 0.0
H870 H 0.31403 0.79018 0.12649 0.0
C871 C 0.23145 0.65146 0.12703 0.0
C872 C 0.24002 0.72769 0.12768 0.0
H873 H 0.24418 0.78631 0.10303 0.0
C874 C 0.25665 0.73446 0.14169 0.0
C875 C 0.23552 0.74653 0.11353 0.0
C876 C 0.21848 0.73993 0.09782 0.0
C877 C 0.26861 0.75981 0.1421 0.0
C878 C 0.26421 0.77864 0.1279 0.0
C879 C 0.24756 0.77183 0.11389 0.0
C880 C 0.27633 0.8057 0.12743 0.0
C881 C 0.28535 0.76645 0.15798 0.0
C882 C 0.26169 0.82929 0.12723 0.0
C883 C 0.27284 0.85489 0.12665 0.0
C884 C 0.2989 0.85742 0.12623 0.0
C885 C 0.31358 0.83379 0.12627 0.0
C886 C 0.30238 0.80813 0.12677 0.0
H887 H 0.28153 0.75315 0.16988 0.0
H888 H 0.30503 0.7633 0.1539 0.0
H889 H 0.28311 0.78796 0.16223 0.0
H890 H 0.24157 0.82789 0.12765 0.0
H891 H 0.26102 0.87272 0.12662 0.0
H892 H 0.67371 0.16927 0.12401 0.0
H893 H 0.69313 0.21438 0.12371 0.0
H894 H 0.76571 0.17731 0.12718 0.0
H895 H 0.74655 0.13231 0.12728 0.0
H896 H 0.72493 0.23819 0.14988 0.0
H897 H 0.772 0.22781 0.08298 0.0
H898 H 0.74745 0.20525 0.09026 0.0
H899 H 0.77858 0.20084 0.09873 0.0
C900 C 0.6938 0.17077 0.12468 0.0
C901 C 0.70861 0.14727 0.12557 0.0
C902 C 0.70485 0.19651 0.12451 0.0
C903 C 0.73086 0.19914 0.12512 0.0
C904 C 0.74564 0.17571 0.12631 0.0
H905 H 0.833 0.3366 0.12653 0.0
H906 H 0.81426 0.29111 0.12708 0.0
C907 C 0.73463 0.15002 0.12648 0.0
C908 C 0.7426 0.22637 0.12482 0.0
H909 H 0.78265 0.26643 0.10067 0.0
C910 C 0.73745 0.24444 0.13908 0.0
C911 C 0.75902 0.23438 0.11075 0.0
C912 C 0.76447 0.21618 0.09471 0.0
C913 C 0.74857 0.27022 0.1398 0.0
C914 C 0.76494 0.27825 0.12571 0.0
C915 C 0.77016 0.26015 0.11147 0.0
C916 C 0.77632 0.30565 0.12526 0.0
C917 C 0.74306 0.28847 0.15579 0.0
C918 C 0.76121 0.32876 0.12374 0.0
C919 C 0.77182 0.35464 0.1234 0.0
C920 C 0.79778 0.3579 0.12448 0.0
C921 C 0.81294 0.3347 0.12572 0.0
C922 C 0.80228 0.30875 0.12603 0.0
H923 H 0.73556 0.27687 0.16754 0.0
H924 H 0.76004 0.2995 0.16022 0.0
H925 H 0.7289 0.30374 0.15173 0.0
H926 H 0.74118 0.32678 0.12276 0.0
H927 H 0.75964 0.37211 0.12234 0.0
H928 H 0.67013 0.83294 0.62432 0.0
H929 H 0.68923 0.78765 0.62525 0.0
H930 H 0.76217 0.82407 0.62338 0.0
H931 H 0.74333 0.86922 0.62264 0.0
H932 H 0.72206 0.76326 0.60001 0.0
H933 H 0.76619 0.77401 0.66792 0.0
H934 H 0.7421 0.79667 0.65995 0.0
H935 H 0.77364 0.80084 0.65228 0.0
C936 C 0.69023 0.83125 0.62413 0.0
C937 C 0.70524 0.85462 0.62351 0.0
C938 C 0.7011 0.80541 0.62466 0.0
C939 C 0.72711 0.80256 0.62471 0.0
C940 C 0.74208 0.82584 0.62376 0.0
H941 H 0.83041 0.66659 0.62565 0.0
H942 H 0.81086 0.71164 0.62493 0.0
C943 C 0.73126 0.85162 0.62322 0.0
C944 C 0.73869 0.77525 0.62541 0.0
H945 H 0.77793 0.73546 0.65048 0.0
C946 C 0.73415 0.75708 0.61109 0.0
C947 C 0.75453 0.76734 0.63986 0.0
C948 C 0.75928 0.78562 0.65597 0.0
C949 C 0.74543 0.73135 0.61065 0.0
C950 C 0.76132 0.72347 0.62508 0.0
C951 C 0.76582 0.74162 0.63942 0.0
C952 C 0.77314 0.69629 0.62568 0.0
C953 C 0.74068 0.71306 0.59455 0.0
C954 C 0.75841 0.67282 0.62666 0.0
C955 C 0.76948 0.64717 0.62708 0.0
C956 C 0.79553 0.64449 0.62662 0.0
C957 C 0.8103 0.66803 0.62596 0.0
C958 C 0.79917 0.69374 0.62556 0.0
H959 H 0.73352 0.7246 0.58265 0.0
H960 H 0.75793 0.70222 0.59046 0.0
H961 H 0.72652 0.69765 0.59831 0.0
H962 H 0.73831 0.67436 0.62715 0.0
H963 H 0.7576 0.62942 0.62769 0.0
H964 H 0.24177 0.37025 0.61658 0.0
H965 H 0.26116 0.32533 0.61714 0.0
H966 H 0.19005 0.28893 0.62923 0.0
H967 H 0.17041 0.33389 0.6285 0.0
H968 H 0.26241 0.28893 0.64642 0.0
H969 H 0.21565 0.24352 0.58627 0.0
H970 H 0.21575 0.27963 0.59059 0.0
H971 H 0.19491 0.25776 0.6029 0.0
C972 C 0.2302 0.35267 0.6192 0.0
C973 C 0.20454 0.35557 0.62244 0.0
C974 C 0.24132 0.32703 0.61955 0.0
C975 C 0.227 0.30379 0.62303 0.0
C976 C 0.20135 0.30657 0.62619 0.0
H977 H 0.26026 0.13266 0.63442 0.0
H978 H 0.24108 0.17767 0.63357 0.0
C979 C 0.19018 0.33226 0.62585 0.0
C980 C 0.23917 0.27681 0.62397 0.0
H981 H 0.24012 0.21394 0.60441 0.0
C982 C 0.25763 0.27254 0.63719 0.0
C983 C 0.23286 0.25551 0.61192 0.0
C984 C 0.21387 0.25929 0.597 0.0
C985 C 0.26967 0.24735 0.63891 0.0
C986 C 0.26335 0.22605 0.62686 0.0
C987 C 0.24491 0.23033 0.61363 0.0
C988 C 0.2754 0.199 0.62788 0.0
C989 C 0.28861 0.24356 0.65386 0.0
C990 C 0.30109 0.19607 0.6249 0.0
C991 C 0.31215 0.17033 0.62543 0.0
C992 C 0.29764 0.14712 0.62882 0.0
C993 C 0.27195 0.15017 0.63181 0.0
C994 C 0.26094 0.17585 0.6313 0.0
H995 H 0.28681 0.25934 0.66459 0.0
H996 H 0.2867 0.22323 0.66027 0.0
H997 H 0.30759 0.24508 0.648 0.0
H998 H 0.31251 0.21364 0.62191 0.0
H999 H 0.33196 0.16859 0.62296 0.0
H1000 H 0.74184 0.12961 0.87766 0.0
H1001 H 0.76071 0.17478 0.87749 0.0
H1002 H 0.68869 0.21077 0.86791 0.0
H1003 H 0.66957 0.16554 0.86824 0.0
H1004 H 0.76006 0.21274 0.84893 0.0
H1005 H 0.71591 0.25419 0.91138 0.0
H1006 H 0.7163 0.21833 0.90622 0.0
H1007 H 0.69458 0.24044 0.89497 0.0
C1008 C 0.72996 0.14714 0.87565 0.0
C1009 C 0.70419 0.14405 0.87302 0.0
C1010 C 0.7408 0.17292 0.87552 0.0
C1011 C 0.72608 0.19612 0.87289 0.0
C1012 C 0.70032 0.19314 0.87029 0.0
H1013 H 0.75734 0.36823 0.86546 0.0
H1014 H 0.7385 0.32305 0.86571 0.0
C1015 C 0.68944 0.16731 0.8704 0.0
C1016 C 0.7379 0.2233 0.87229 0.0
H1017 H 0.73935 0.28497 0.89347 0.0
C1018 C 0.75562 0.22853 0.8587 0.0
C1019 C 0.73203 0.2438 0.88504 0.0
C1020 C 0.71383 0.23895 0.90034 0.0
C1021 C 0.76735 0.25393 0.85732 0.0
C1022 C 0.76151 0.27444 0.8701 0.0
C1023 C 0.74379 0.26919 0.88369 0.0
C1024 C 0.7733 0.30165 0.86949 0.0
C1025 C 0.78544 0.25879 0.84196 0.0
C1026 C 0.79914 0.30462 0.87162 0.0
C1027 C 0.81001 0.33046 0.87141 0.0
C1028 C 0.79515 0.35374 0.86922 0.0
C1029 C 0.76929 0.35067 0.86714 0.0
C1030 C 0.75848 0.32489 0.86731 0.0
H1031 H 0.78303 0.24376 0.83082 0.0
H1032 H 0.78319 0.27953 0.83623 0.0
H1033 H 0.80473 0.25686 0.8472 0.0
H1034 H 0.81087 0.28699 0.87369 0.0
H1035 H 0.82996 0.33222 0.87317 0.0
H1036 H 0.24133 0.62938 0.87342 0.0
H1037 H 0.26083 0.67422 0.87313 0.0
H1038 H 0.18976 0.71111 0.86149 0.0
H1039 H 0.16998 0.66622 0.86198 0.0
H1040 H 0.26249 0.71242 0.84491 0.0
H1041 H 0.21457 0.75373 0.9059 0.0
H1042 H 0.21479 0.71796 0.9005 0.0
H1043 H 0.19415 0.74062 0.88866 0.0
C1044 C 0.22981 0.64703 0.87084 0.0
C1045 C 0.20409 0.64432 0.86781 0.0
C1046 C 0.241 0.67263 0.87066 0.0
C1047 C 0.2267 0.69599 0.86753 0.0
C1048 C 0.20105 0.69335 0.86427 0.0
H1049 H 0.25978 0.86769 0.86234 0.0
H1050 H 0.24075 0.82266 0.86142 0.0
C1051 C 0.18981 0.66771 0.86447 0.0
C1052 C 0.23879 0.72303 0.86744 0.0
H1053 H 0.23941 0.78443 0.88899 0.0
C1054 C 0.25752 0.72817 0.85457 0.0
C1055 C 0.23227 0.74347 0.88008 0.0
C1056 C 0.21301 0.73869 0.89469 0.0
C1057 C 0.26962 0.75342 0.8538 0.0
C1058 C 0.26308 0.77387 0.86644 0.0
C1059 C 0.24437 0.7687 0.87931 0.0
C1060 C 0.2751 0.80096 0.86641 0.0
C1061 C 0.28888 0.7582 0.8392 0.0
C1062 C 0.30076 0.80371 0.8696 0.0
C1063 C 0.31175 0.82948 0.87007 0.0
C1064 C 0.29718 0.85289 0.86752 0.0
C1065 C 0.27151 0.85003 0.86434 0.0
C1066 C 0.26058 0.82433 0.86383 0.0
H1067 H 0.28719 0.74328 0.82793 0.0
H1068 H 0.28723 0.77901 0.83347 0.0
H1069 H 0.30773 0.75606 0.8452 0.0
H1070 H 0.31222 0.78595 0.87199 0.0
H1071 H 0.33154 0.83108 0.87265 0.0
H1072 H 0.30766 0.08159 0.30972 0.0
H1073 H 0.29927 0.06736 0.27848 0.0
H1074 H 0.29427 0.98397 0.29627 0.0
H1075 H 0.30167 0.9983 0.32769 0.0
H1076 H 0.32891 0.03655 0.25931 0.0
H1077 H 0.23676 0.9866 0.26173 0.0
H1078 H 0.2482 0.00749 0.2801 0.0
H1079 H 0.25779 0.97253 0.27817 0.0
C1080 C 0.30426 0.06029 0.30701 0.0
C1081 C 0.30537 0.04101 0.32108 0.0
C1082 C 0.29944 0.05218 0.28916 0.0
C1083 C 0.29588 0.02463 0.28501 0.0
C1084 C 0.29628 0.00541 0.29916 0.0
H1085 H 0.31989 0.92783 0.19087 0.0
H1086 H 0.31165 0.94644 0.22113 0.0
C1087 C 0.30071 0.01358 0.3171 0.0
C1088 C 0.29467 0.01582 0.26573 0.0
H1089 H 0.26244 0.97617 0.2357 0.0
C1090 C 0.31411 0.02375 0.2541 0.0
C1091 C 0.27539 0.99907 0.2589 0.0
C1092 C 0.25324 0.99117 0.27035 0.0
C1093 C 0.31525 0.01466 0.23607 0.0
C1094 C 0.29651 0.99716 0.22949 0.0
C1095 C 0.27676 0.98962 0.24089 0.0
C1096 C 0.29833 0.98514 0.21117 0.0
C1097 C 0.33694 0.02302 0.22427 0.0
C1098 C 0.2931 0.00069 0.19563 0.0
C1099 C 0.29773 0.99009 0.1783 0.0
C1100 C 0.30783 0.96391 0.17635 0.0
C1101 C 0.31222 0.94812 0.19197 0.0
C1102 C 0.30742 0.95863 0.20924 0.0
H1103 H 0.35093 0.03516 0.23187 0.0
H1104 H 0.34623 0.00474 0.21858 0.0
H1105 H 0.33006 0.03534 0.21266 0.0
H1106 H 0.28612 0.02124 0.19695 0.0
H1107 H 0.29416 0.00269 0.16649 0.0
H1108 H 0.73076 0.0198 0.16697 0.0
H1109 H 0.74036 0.00287 0.19762 0.0
H1110 H 0.67566 0.04429 0.21862 0.0
H1111 H 0.6665 0.06185 0.18837 0.0
H1112 H 0.7154 0.05018 0.24086 0.0
H1113 H 0.70298 0.94152 0.22197 0.0
H1114 H 0.7265 0.95965 0.20956 0.0
H1115 H 0.69434 0.96887 0.20691 0.0
C1116 C 0.71869 0.02533 0.17817 0.0
C1117 C 0.6978 0.04198 0.17528 0.0
C1118 C 0.72413 0.01557 0.19563 0.0
C1119 C 0.70851 0.022 0.21035 0.0
C1120 C 0.68798 0.03908 0.20748 0.0
H1121 H 0.66282 0.94427 0.30576 0.0
H1122 H 0.67222 0.96189 0.27557 0.0
C1123 C 0.68271 0.04902 0.19015 0.0
C1124 C 0.71266 0.0105 0.22874 0.0
H1125 H 0.71021 0.95118 0.25271 0.0
C1126 C 0.7146 0.02851 0.24349 0.0
C1127 C 0.71153 0.98222 0.23207 0.0
C1128 C 0.70854 0.96188 0.21685 0.0
C1129 C 0.71402 0.01914 0.26152 0.0
C1130 C 0.71215 0.99091 0.26485 0.0
C1131 C 0.71168 0.97281 0.25009 0.0
C1132 C 0.70743 0.9799 0.2833 0.0
C1133 C 0.7138 0.03967 0.27678 0.0
C1134 C 0.72418 0.98405 0.29772 0.0
C1135 C 0.71863 0.97429 0.31516 0.0
C1136 C 0.69646 0.95987 0.31831 0.0
C1137 C 0.68005 0.9553 0.30376 0.0
C1138 C 0.68544 0.96529 0.28647 0.0
H1139 H 0.7103 0.06062 0.27176 0.0
H1140 H 0.69932 0.03453 0.28699 0.0
H1141 H 0.73215 0.03952 0.28371 0.0
H1142 H 0.74149 0.9948 0.2955 0.0
H1143 H 0.7317 0.97786 0.32612 0.0
H1144 H 0.7087 0.00033 0.8277 0.0
H1145 H 0.71649 0.98398 0.79669 0.0
H1146 H 0.69774 0.06298 0.77533 0.0
H1147 H 0.68976 0.07942 0.80619 0.0
H1148 H 0.67599 0.98762 0.76947 0.0
H1149 H 0.7631 0.03916 0.74757 0.0
H1150 H 0.75564 0.03319 0.77123 0.0
H1151 H 0.74027 0.05985 0.75894 0.0
C1152 C 0.7067 0.01433 0.81641 0.0
C1153 C 0.69849 0.04108 0.81931 0.0
C1154 C 0.71118 0.00499 0.79876 0.0
C1155 C 0.70792 0.02239 0.78382 0.0
C1156 C 0.70073 0.0494 0.78674 0.0
H1157 H 0.69752 0.00535 0.6669 0.0
H1158 H 0.70392 0.02218 0.69801 0.0
C1159 C 0.69602 0.05868 0.80435 0.0
C1160 C 0.70894 0.01154 0.76511 0.0
H1161 H 0.74002 0.01617 0.72472 0.0
C1162 C 0.69012 0.99359 0.75971 0.0
C1163 C 0.72718 0.01984 0.75244 0.0
C1164 C 0.74785 0.03895 0.75778 0.0
C1165 C 0.68869 0.98407 0.74179 0.0
C1166 C 0.70711 0.99204 0.72908 0.0
C1167 C 0.72604 0.00997 0.73451 0.0
C1168 C 0.70661 0.98214 0.71007 0.0
C1169 C 0.66691 0.96633 0.73653 0.0
C1170 C 0.70704 0.95417 0.70649 0.0
C1171 C 0.70299 0.94459 0.68889 0.0
C1172 C 0.69905 0.96283 0.67448 0.0
C1173 C 0.70045 0.99088 0.6778 0.0
C1174 C 0.70411 0.00049 0.69553 0.0
H1175 H 0.65113 0.96857 0.74618 0.0
H1176 H 0.66018 0.97126 0.72263 0.0
H1177 H 0.67281 0.94473 0.73674 0.0
H1178 H 0.70964 0.93969 0.71743 0.0
H1179 H 0.70237 0.92285 0.68664 0.0
H1180 H 0.27225 0.97821 0.8282 0.0
H1181 H 0.26067 0.9931 0.79744 0.0
H1182 H 0.32748 0.95628 0.77614 0.0
H1183 H 0.33869 0.94081 0.80651 0.0
H1184 H 0.28412 0.02692 0.77529 0.0
H1185 H 0.2773 0.92811 0.74063 0.0
H1186 H 0.27821 0.93093 0.76512 0.0
H1187 H 0.30665 0.93042 0.75208 0.0
C1188 C 0.28429 0.97312 0.81689 0.0
C1189 C 0.3063 0.95826 0.81971 0.0
C1190 C 0.27764 0.98155 0.79935 0.0
C1191 C 0.29288 0.97519 0.78441 0.0
C1192 C 0.31497 0.9606 0.78732 0.0
H1193 H 0.33625 0.0587 0.69197 0.0
H1194 H 0.32488 0.04153 0.72185 0.0
C1195 C 0.3215 0.95202 0.80474 0.0
C1196 C 0.28712 0.98554 0.76594 0.0
H1197 H 0.28873 0.96665 0.72131 0.0
C1198 C 0.28452 0.01367 0.76351 0.0
C1199 C 0.28689 0.96828 0.75054 0.0
C1200 C 0.28711 0.93774 0.75227 0.0
C1201 C 0.284 0.02514 0.74604 0.0
C1202 C 0.28686 0.00808 0.73069 0.0
C1203 C 0.28711 0.9798 0.73308 0.0
C1204 C 0.29264 0.0192 0.71244 0.0
C1205 C 0.28115 0.05552 0.74427 0.0
C1206 C 0.27883 0.01154 0.69703 0.0
C1207 C 0.28558 0.02106 0.67975 0.0
C1208 C 0.30628 0.03824 0.67769 0.0
C1209 C 0.32007 0.04568 0.69313 0.0
C1210 C 0.31343 0.0361 0.71028 0.0
H1211 H 0.26986 0.06387 0.75563 0.0
H1212 H 0.29979 0.06517 0.74494 0.0
H1213 H 0.27222 0.06121 0.73118 0.0
H1214 H 0.26291 0.9982 0.69838 0.0
H1215 H 0.27465 0.01497 0.66806 0.0
H1216 H 0.83115 0.43859 0.19093 0.0
H1217 H 0.81935 0.45433 0.22106 0.0
H1218 H 0.75862 0.50016 0.19785 0.0
H1219 H 0.77107 0.48513 0.16732 0.0
H1220 H 0.78285 0.5303 0.22074 0.0
H1221 H 0.76565 0.43313 0.25528 0.0
H1222 H 0.79576 0.43172 0.24492 0.0
H1223 H 0.76842 0.43543 0.23085 0.0
C1224 C 0.8151 0.45177 0.19222 0.0
C1225 C 0.80201 0.46062 0.17679 0.0
C1226 C 0.80817 0.46051 0.20951 0.0
C1227 C 0.78765 0.47783 0.21182 0.0
C1228 C 0.77433 0.48652 0.19642 0.0
H1229 H 0.77254 0.51748 0.32821 0.0
H1230 H 0.75919 0.50256 0.29784 0.0
C1231 C 0.78147 0.47799 0.17901 0.0
C1232 C 0.78204 0.4888 0.23017 0.0
H1233 H 0.78112 0.47002 0.27483 0.0
C1234 C 0.78182 0.51709 0.23254 0.0
C1235 C 0.77985 0.47174 0.2456 0.0
C1236 C 0.77712 0.44134 0.24397 0.0
C1237 C 0.7819 0.52865 0.24997 0.0
C1238 C 0.78314 0.51144 0.26538 0.0
C1239 C 0.78086 0.48326 0.26303 0.0
C1240 C 0.78974 0.52196 0.28367 0.0
C1241 C 0.78139 0.5592 0.25161 0.0
C1242 C 0.81146 0.53745 0.28581 0.0
C1243 C 0.81892 0.54614 0.30299 0.0
C1244 C 0.80513 0.53901 0.3185 0.0
C1245 C 0.7835 0.52326 0.31646 0.0
C1246 C 0.77584 0.5148 0.29914 0.0
H1247 H 0.77048 0.56839 0.24034 0.0
H1248 H 0.77322 0.56582 0.26476 0.0
H1249 H 0.80066 0.56716 0.25062 0.0
H1250 H 0.82304 0.54237 0.27421 0.0
H1251 H 0.83583 0.55801 0.30415 0.0
H1252 H 0.20464 0.49722 0.32715 0.0
H1253 H 0.21148 0.51284 0.29587 0.0
H1254 H 0.20906 0.42989 0.277 0.0
H1255 H 0.20119 0.41433 0.30807 0.0
H1256 H 0.2456 0.50366 0.26913 0.0
H1257 H 0.15321 0.46365 0.24839 0.0
H1258 H 0.16288 0.46519 0.27185 0.0
H1259 H 0.17358 0.4381 0.25739 0.0
C1260 C 0.20584 0.48234 0.31633 0.0
C1261 C 0.20199 0.45465 0.31993 0.0
C1262 C 0.20977 0.49126 0.29849 0.0
C1263 C 0.21013 0.47257 0.28406 0.0
C1264 C 0.20809 0.44472 0.28786 0.0
H1265 H 0.20836 0.49985 0.16651 0.0
H1266 H 0.21727 0.47955 0.19632 0.0
C1267 C 0.20373 0.43585 0.30561 0.0
C1268 C 0.21103 0.48233 0.265 0.0
H1269 H 0.17815 0.4825 0.22523 0.0
C1270 C 0.23091 0.49895 0.2595 0.0
C1271 C 0.19173 0.47631 0.25249 0.0
C1272 C 0.16902 0.46007 0.25784 0.0
C1273 C 0.23193 0.50978 0.24183 0.0
C1274 C 0.21263 0.50375 0.22944 0.0
C1275 C 0.19305 0.48674 0.23478 0.0
C1276 C 0.21102 0.51668 0.21136 0.0
C1277 C 0.25344 0.52775 0.23651 0.0
C1278 C 0.20475 0.54425 0.21006 0.0
C1279 C 0.19934 0.55576 0.19316 0.0
C1280 C 0.20025 0.53989 0.17729 0.0
C1281 C 0.20759 0.51255 0.17853 0.0
C1282 C 0.21271 0.50095 0.1955 0.0
H1283 H 0.26923 0.52597 0.2462 0.0
H1284 H 0.26009 0.52261 0.22262 0.0
H1285 H 0.24716 0.54923 0.23635 0.0
H1286 H 0.20298 0.55657 0.2222 0.0
H1287 H 0.19379 0.5769 0.19259 0.0
H1288 H 0.20752 0.4964 0.83031 0.0
H1289 H 0.21678 0.47712 0.80025 0.0
H1290 H 0.20172 0.55473 0.77534 0.0
H1291 H 0.19219 0.57401 0.80518 0.0
H1292 H 0.17787 0.48011 0.77151 0.0
H1293 H 0.26793 0.52615 0.75075 0.0
H1294 H 0.25891 0.52216 0.77431 0.0
H1295 H 0.24558 0.54886 0.76081 0.0
C1296 C 0.20667 0.50944 0.81845 0.0
C1297 C 0.199 0.53662 0.82002 0.0
C1298 C 0.21198 0.49843 0.80134 0.0
C1299 C 0.21018 0.51463 0.78568 0.0
C1300 C 0.2036 0.54206 0.78733 0.0
H1301 H 0.20153 0.50019 0.66978 0.0
H1302 H 0.20898 0.51448 0.70128 0.0
C1303 C 0.19799 0.55296 0.80435 0.0
C1304 C 0.21188 0.5023 0.76743 0.0
H1305 H 0.24414 0.50473 0.72747 0.0
C1306 C 0.19255 0.48508 0.76193 0.0
C1307 C 0.23086 0.50929 0.755 0.0
C1308 C 0.25215 0.52748 0.76047 0.0
C1309 C 0.19111 0.47542 0.74404 0.0
C1310 C 0.21005 0.48248 0.73148 0.0
C1311 C 0.22973 0.49925 0.73713 0.0
C1312 C 0.20892 0.47363 0.71223 0.0
C1313 C 0.16861 0.45893 0.73857 0.0
C1314 C 0.20742 0.44594 0.70788 0.0
C1315 C 0.20272 0.43782 0.69003 0.0
C1316 C 0.20008 0.45723 0.67615 0.0
C1317 C 0.20342 0.48484 0.68026 0.0
C1318 C 0.2077 0.493 0.69822 0.0
H1319 H 0.15293 0.46161 0.74826 0.0
H1320 H 0.16206 0.46464 0.72475 0.0
H1321 H 0.17362 0.43706 0.73845 0.0
H1322 H 0.20904 0.43063 0.71841 0.0
H1323 H 0.2006 0.41635 0.68716 0.0
H1324 H 0.83778 0.5568 0.68966 0.0
H1325 H 0.82759 0.5398 0.71985 0.0
H1326 H 0.76058 0.50317 0.69875 0.0
H1327 H 0.77121 0.51948 0.66812 0.0
H1328 H 0.78836 0.54889 0.7419 0.0
H1329 H 0.79355 0.43932 0.72352 0.0
H1330 H 0.80397 0.46573 0.70832 0.0
H1331 H 0.77127 0.45923 0.71109 0.0
C1332 C 0.82086 0.54512 0.6914 0.0
C1333 C 0.80538 0.53926 0.67651 0.0
C1334 C 0.815 0.53549 0.7087 0.0
C1335 C 0.79347 0.51996 0.71154 0.0
C1336 C 0.77755 0.51465 0.69679 0.0
H1337 H 0.77056 0.47958 0.82798 0.0
H1338 H 0.76029 0.49602 0.79731 0.0
C1339 C 0.78358 0.52406 0.67935 0.0
C1340 C 0.78854 0.50897 0.72998 0.0
H1341 H 0.78764 0.44988 0.75427 0.0
C1342 C 0.78784 0.52724 0.74464 0.0
C1343 C 0.78789 0.48071 0.73345 0.0
C1344 C 0.78939 0.46003 0.71832 0.0
C1345 C 0.78812 0.51807 0.76272 0.0
C1346 C 0.78835 0.4898 0.76619 0.0
C1347 C 0.78743 0.47154 0.75153 0.0
C1348 C 0.79305 0.47873 0.78464 0.0
C1349 C 0.78988 0.53872 0.77785 0.0
C1350 C 0.81439 0.46289 0.78755 0.0
C1351 C 0.82005 0.45322 0.80488 0.0
C1352 C 0.80456 0.45932 0.81971 0.0
C1353 C 0.78294 0.47481 0.8168 0.0
C1354 C 0.77711 0.48428 0.79933 0.0
H1355 H 0.79433 0.55936 0.77266 0.0
H1356 H 0.77177 0.53982 0.78507 0.0
H1357 H 0.80437 0.53276 0.78786 0.0
H1358 H 0.82698 0.4584 0.77644 0.0
H1359 H 0.83683 0.44131 0.80668 0.0
loop_
_geom_bond_atom_site_label_1
_geom_bond_atom_site_label_2
_geom_bond_distance
_geom_bond_site_symmetry_2
_ccdc_geom_bond_type
In0 O1 2.294 . S
In0 O2 2.326 . S
In0 O6 2.266 . S
In0 O7 2.326 . S
In0 O8 2.266 . S
In0 O9 2.326 . S
In0 O11 2.294 . S
In0 O12 2.326 . S
O1 In0 2.294 . S
O1 C10 1.240 . S
O2 In0 2.326 . S
O2 C10 1.252 . S
C3 O6 1.252 . S
C3 O7 1.260 . S
C4 O11 1.240 . S
C4 O12 1.252 . S
C5 O8 1.252 . S
C5 O9 1.260 . S
O6 In0 2.266 . S
O6 C3 1.252 . S
O7 In0 2.326 . S
O7 C3 1.260 . S
O8 In0 2.266 . S
O8 C5 1.252 . S
O9 In0 2.326 . S
O9 C5 1.260 . S
C10 O1 1.240 . S
C10 O2 1.252 . S
O11 In0 2.294 . S
O11 C4 1.240 . S
O12 In0 2.326 . S
O12 C4 1.252 . S
In13 O14 2.294 . S
In13 O15 2.326 . S
In13 O19 2.266 . S
In13 O20 2.326 . S
In13 O21 2.266 . S
In13 O22 2.326 . S
In13 O24 2.294 . S
In13 O25 2.326 . S
O14 In13 2.294 . S
O14 C23 1.240 . S
O15 In13 2.326 . S
O15 C23 1.252 . S
C16 O19 1.252 . S
C16 O20 1.260 . S
C17 O24 1.240 . S
C17 O25 1.252 . S
C18 O21 1.252 . S
C18 O22 1.260 . S
O19 In13 2.266 . S
O19 C16 1.252 . S
O20 In13 2.326 . S
O20 C16 1.260 . S
O21 In13 2.266 . S
O21 C18 1.252 . S
O22 In13 2.326 . S
O22 C18 1.260 . S
C23 O14 1.240 . S
C23 O15 1.252 . S
O24 In13 2.294 . S
O24 C17 1.240 . S
O25 In13 2.326 . S
O25 C17 1.252 . S
In26 O27 2.294 . S
In26 O28 2.326 . S
In26 O32 2.266 . S
In26 O33 2.326 . S
In26 O34 2.266 . S
In26 O35 2.326 . S
In26 O37 2.294 . S
In26 O38 2.326 . S
O27 In26 2.294 . S
O27 C36 1.240 . S
O28 In26 2.326 . S
O28 C36 1.252 . S
C29 O32 1.252 . S
C29 O33 1.260 . S
C30 O37 1.240 . S
C30 O38 1.252 . S
C31 O34 1.252 . S
C31 O35 1.260 . S
O32 In26 2.266 . S
O32 C29 1.252 . S
O33 In26 2.326 . S
O33 C29 1.260 . S
O34 In26 2.266 . S
O34 C31 1.252 . S
O35 In26 2.326 . S
O35 C31 1.260 . S
C36 O27 1.240 . S
C36 O28 1.252 . S
O37 In26 2.294 . S
O37 C30 1.240 . S
O38 In26 2.326 . S
O38 C30 1.252 . S
In39 O40 2.294 . S
In39 O41 2.326 . S
In39 O45 2.266 . S
In39 O46 2.326 . S
In39 O47 2.266 . S
In39 O48 2.326 . S
In39 O50 2.294 . S
In39 O51 2.326 . S
O40 In39 2.294 . S
O40 C49 1.240 . S
O41 In39 2.326 . S
O41 C49 1.252 . S
C42 O45 1.252 . S
C42 O46 1.260 . S
C43 O50 1.240 . S
C43 O51 1.252 . S
C44 O47 1.252 . S
C44 O48 1.260 . S
O45 In39 2.266 . S
O45 C42 1.252 . S
O46 In39 2.326 . S
O46 C42 1.260 . S
O47 In39 2.266 . S
O47 C44 1.252 . S
O48 In39 2.326 . S
O48 C44 1.260 . S
C49 O40 1.240 . S
C49 O41 1.252 . S
O50 In39 2.294 . S
O50 C43 1.240 . S
O51 In39 2.326 . S
O51 C43 1.252 . S
In52 O53 2.294 . S
In52 O54 2.326 . S
In52 O58 2.266 . S
In52 O59 2.326 . S
In52 O60 2.266 . S
In52 O61 2.326 . S
In52 O63 2.294 . S
In52 O64 2.326 . S
O53 In52 2.294 . S
O53 C62 1.240 . S
O54 In52 2.326 . S
O54 C62 1.252 . S
C55 O58 1.252 . S
C55 O59 1.260 . S
C56 O63 1.240 . S
C56 O64 1.252 . S
C57 O60 1.252 . S
C57 O61 1.260 . S
O58 In52 2.266 . S
O58 C55 1.252 . S
O59 In52 2.326 . S
O59 C55 1.260 . S
O60 In52 2.266 . S
O60 C57 1.252 . S
O61 In52 2.326 . S
O61 C57 1.260 . S
C62 O53 1.240 . S
C62 O54 1.252 . S
O63 In52 2.294 . S
O63 C56 1.240 . S
O64 In52 2.326 . S
O64 C56 1.252 . S
In65 O66 2.294 . S
In65 O67 2.326 . S
In65 O71 2.266 . S
In65 O72 2.326 . S
In65 O73 2.266 . S
In65 O74 2.326 . S
In65 O76 2.294 . S
In65 O77 2.326 . S
O66 In65 2.294 . S
O66 C75 1.240 . S
O67 In65 2.326 . S
O67 C75 1.252 . S
C68 O71 1.252 . S
C68 O72 1.260 . S
C69 O76 1.240 . S
C69 O77 1.252 . S
C70 O73 1.252 . S
C70 O74 1.260 . S
O71 In65 2.266 . S
O71 C68 1.252 . S
O72 In65 2.326 . S
O72 C68 1.260 . S
O73 In65 2.266 . S
O73 C70 1.252 . S
O74 In65 2.326 . S
O74 C70 1.260 . S
C75 O66 1.240 . S
C75 O67 1.252 . S
O76 In65 2.294 . S
O76 C69 1.240 . S
O77 In65 2.326 . S
O77 C69 1.252 . S
In78 O79 2.294 . S
In78 O80 2.326 . S
In78 O84 2.266 . S
In78 O85 2.326 . S
In78 O86 2.266 . S
In78 O87 2.326 . S
In78 O89 2.294 . S
In78 O90 2.326 . S
O79 In78 2.294 . S
O79 C88 1.240 . S
O80 In78 2.326 . S
O80 C88 1.252 . S
C81 O84 1.252 . S
C81 O85 1.260 . S
C82 O89 1.240 . S
C82 O90 1.252 . S
C83 O86 1.252 . S
C83 O87 1.260 . S
O84 In78 2.266 . S
O84 C81 1.252 . S
O85 In78 2.326 . S
O85 C81 1.260 . S
O86 In78 2.266 . S
O86 C83 1.252 . S
O87 In78 2.326 . S
O87 C83 1.260 . S
C88 O79 1.240 . S
C88 O80 1.252 . S
O89 In78 2.294 . S
O89 C82 1.240 . S
O90 In78 2.326 . S
O90 C82 1.252 . S
In91 O92 2.294 . S
In91 O93 2.326 . S
In91 O97 2.266 . S
In91 O98 2.326 . S
In91 O99 2.266 . S
In91 O100 2.326 . S
In91 O102 2.294 . S
In91 O103 2.326 . S
O92 In91 2.294 . S
O92 C101 1.240 . S
O93 In91 2.326 . S
O93 C101 1.252 . S
C94 O97 1.252 . S
C94 O98 1.260 . S
C95 O102 1.240 . S
C95 O103 1.252 . S
C96 O99 1.252 . S
C96 O100 1.260 . S
O97 In91 2.266 . S
O97 C94 1.252 . S
O98 In91 2.326 . S
O98 C94 1.260 . S
O99 In91 2.266 . S
O99 C96 1.252 . S
O100 In91 2.326 . S
O100 C96 1.260 . S
C101 O92 1.240 . S
C101 O93 1.252 . S
O102 In91 2.294 . S
O102 C95 1.240 . S
O103 In91 2.326 . S
O103 C95 1.252 . S
In104 O105 2.294 . S
In104 O106 2.326 . S
In104 O110 2.266 . S
In104 O111 2.326 . S
In104 O112 2.266 . S
In104 O113 2.326 . S
In104 O115 2.294 . S
In104 O116 2.326 . S
O105 In104 2.294 . S
O105 C114 1.240 . S
O106 In104 2.326 . S
O106 C114 1.252 . S
C107 O110 1.252 . S
C107 O111 1.260 . S
C108 O115 1.240 . S
C108 O116 1.252 . S
C109 O112 1.252 . S
C109 O113 1.260 . S
O110 In104 2.266 . S
O110 C107 1.252 . S
O111 In104 2.326 . S
O111 C107 1.260 . S
O112 In104 2.266 . S
O112 C109 1.252 . S
O113 In104 2.326 . S
O113 C109 1.260 . S
C114 O105 1.240 . S
C114 O106 1.252 . S
O115 In104 2.294 . S
O115 C108 1.240 . S
O116 In104 2.326 . S
O116 C108 1.252 . S
In117 O118 2.294 . S
In117 O119 2.326 . S
In117 O123 2.266 . S
In117 O124 2.326 . S
In117 O125 2.266 . S
In117 O126 2.326 . S
In117 O128 2.294 . S
In117 O129 2.326 . S
O118 In117 2.294 . S
O118 C127 1.240 . S
O119 In117 2.326 . S
O119 C127 1.252 . S
C120 O123 1.252 . S
C120 O124 1.260 . S
C121 O128 1.240 . S
C121 O129 1.252 . S
C122 O125 1.252 . S
C122 O126 1.260 . S
O123 In117 2.266 . S
O123 C120 1.252 . S
O124 In117 2.326 . S
O124 C120 1.260 . S
O125 In117 2.266 . S
O125 C122 1.252 . S
O126 In117 2.326 . S
O126 C122 1.260 . S
C127 O118 1.240 . S
C127 O119 1.252 . S
O128 In117 2.294 . S
O128 C121 1.240 . S
O129 In117 2.326 . S
O129 C121 1.252 . S
In130 O131 2.294 . S
In130 O132 2.326 . S
In130 O136 2.266 . S
In130 O137 2.326 . S
In130 O138 2.266 . S
In130 O139 2.326 . S
In130 O141 2.294 . S
In130 O142 2.326 . S
O131 In130 2.294 . S
O131 C140 1.240 . S
O132 In130 2.326 . S
O132 C140 1.252 . S
C133 O136 1.252 . S
C133 O137 1.260 . S
C134 O141 1.240 . S
C134 O142 1.252 . S
C135 O138 1.252 . S
C135 O139 1.260 . S
O136 In130 2.266 . S
O136 C133 1.252 . S
O137 In130 2.326 . S
O137 C133 1.260 . S
O138 In130 2.266 . S
O138 C135 1.252 . S
O139 In130 2.326 . S
O139 C135 1.260 . S
C140 O131 1.240 . S
C140 O132 1.252 . S
O141 In130 2.294 . S
O141 C134 1.240 . S
O142 In130 2.326 . S
O142 C134 1.252 . S
In143 O144 2.294 . S
In143 O145 2.326 . S
In143 O149 2.266 . S
In143 O150 2.326 . S
In143 O151 2.266 . S
In143 O152 2.326 . S
In143 O154 2.294 . S
In143 O155 2.326 . S
O144 In143 2.294 . S
O144 C153 1.240 . S
O145 In143 2.326 . S
O145 C153 1.252 . S
C146 O149 1.252 . S
C146 O150 1.260 . S
C147 O154 1.240 . S
C147 O155 1.252 . S
C148 O151 1.252 . S
C148 O152 1.260 . S
O149 In143 2.266 . S
O149 C146 1.252 . S
O150 In143 2.326 . S
O150 C146 1.260 . S
O151 In143 2.266 . S
O151 C148 1.252 . S
O152 In143 2.326 . S
O152 C148 1.260 . S
C153 O144 1.240 . S
C153 O145 1.252 . S
O154 In143 2.294 . S
O154 C147 1.240 . S
O155 In143 2.326 . S
O155 C147 1.252 . S
In156 O157 2.294 . S
In156 O158 2.326 . S
In156 O162 2.266 . S
In156 O163 2.326 . S
In156 O164 2.266 . S
In156 O165 2.326 . S
In156 O167 2.294 . S
In156 O168 2.326 . S
O157 In156 2.294 . S
O157 C166 1.240 . S
O158 In156 2.326 . S
O158 C166 1.252 . S
C159 O162 1.252 . S
C159 O163 1.260 . S
C160 O167 1.240 . S
C160 O168 1.252 . S
C161 O164 1.252 . S
C161 O165 1.260 . S
O162 In156 2.266 . S
O162 C159 1.252 . S
O163 In156 2.326 . S
O163 C159 1.260 . S
O164 In156 2.266 . S
O164 C161 1.252 . S
O165 In156 2.326 . S
O165 C161 1.260 . S
C166 O157 1.240 . S
C166 O158 1.252 . S
O167 In156 2.294 . S
O167 C160 1.240 . S
O168 In156 2.326 . S
O168 C160 1.252 . S
In169 O170 2.294 . S
In169 O171 2.326 . S
In169 O175 2.266 . S
In169 O176 2.326 . S
In169 O177 2.266 . S
In169 O178 2.326 . S
In169 O180 2.294 . S
In169 O181 2.326 . S
O170 In169 2.294 . S
O170 C179 1.240 . S
O171 In169 2.326 . S
O171 C179 1.252 . S
C172 O175 1.252 . S
C172 O176 1.260 . S
C173 O180 1.240 . S
C173 O181 1.252 . S
C174 O177 1.252 . S
C174 O178 1.260 . S
O175 In169 2.266 . S
O175 C172 1.252 . S
O176 In169 2.326 . S
O176 C172 1.260 . S
O177 In169 2.266 . S
O177 C174 1.252 . S
O178 In169 2.326 . S
O178 C174 1.260 . S
C179 O170 1.240 . S
C179 O171 1.252 . S
O180 In169 2.294 . S
O180 C173 1.240 . S
O181 In169 2.326 . S
O181 C173 1.252 . S
In182 O183 2.294 . S
In182 O184 2.326 . S
In182 O188 2.266 . S
In182 O189 2.326 . S
In182 O190 2.266 . S
In182 O191 2.326 . S
In182 O193 2.294 . S
In182 O194 2.326 . S
O183 In182 2.294 . S
O183 C192 1.240 . S
O184 In182 2.326 . S
O184 C192 1.252 . S
C185 O188 1.252 . S
C185 O189 1.260 . S
C186 O193 1.240 . S
C186 O194 1.252 . S
C187 O190 1.252 . S
C187 O191 1.260 . S
O188 In182 2.266 . S
O188 C185 1.252 . S
O189 In182 2.326 . S
O189 C185 1.260 . S
O190 In182 2.266 . S
O190 C187 1.252 . S
O191 In182 2.326 . S
O191 C187 1.260 . S
C192 O183 1.240 . S
C192 O184 1.252 . S
O193 In182 2.294 . S
O193 C186 1.240 . S
O194 In182 2.326 . S
O194 C186 1.252 . S
In195 O196 2.294 . S
In195 O197 2.326 . S
In195 O201 2.266 . S
In195 O202 2.326 . S
In195 O203 2.266 . S
In195 O204 2.326 . S
In195 O206 2.294 . S
In195 O207 2.326 . S
O196 In195 2.294 . S
O196 C205 1.240 . S
O197 In195 2.326 . S
O197 C205 1.252 . S
C198 O201 1.252 . S
C198 O202 1.260 . S
C199 O206 1.240 . S
C199 O207 1.252 . S
C200 O203 1.252 . S
C200 O204 1.260 . S
O201 In195 2.266 . S
O201 C198 1.252 . S
O202 In195 2.326 . S
O202 C198 1.260 . S
O203 In195 2.266 . S
O203 C200 1.252 . S
O204 In195 2.326 . S
O204 C200 1.260 . S
C205 O196 1.240 . S
C205 O197 1.252 . S
O206 In195 2.294 . S
O206 C199 1.240 . S
O207 In195 2.326 . S
O207 C199 1.252 . S
H208 C216 0.929 . S
H209 C218 0.930 . S
H210 C220 0.930 . S
H211 C223 0.929 . S
H212 C226 0.930 . S
H213 C228 0.960 . S
H214 C228 0.960 . S
H215 C228 0.960 . S
C216 H208 0.929 . S
C216 C217 1.377 . S
C216 C218 1.384 . S
C217 C216 1.377 . S
C217 C223 1.390 . S
C218 H209 0.930 . S
C218 C216 1.384 . S
C218 C219 1.372 . S
C219 C218 1.372 . S
C219 C220 1.400 . S
C219 C224 1.490 . S
C220 H210 0.930 . S
C220 C219 1.400 . S
C220 C223 1.386 . S
H221 C237 0.930 . S
H222 C238 0.931 . S
C223 H211 0.929 . S
C223 C217 1.390 . S
C223 C220 1.386 . S
C224 C219 1.490 . S
C224 C226 1.395 . S
C224 C227 1.403 . S
H225 C231 0.930 . S
C226 H212 0.930 . S
C226 C224 1.395 . S
C226 C229 1.403 . S
C227 C224 1.403 . S
C227 C228 1.524 . S
C227 C231 1.400 . S
C228 H213 0.960 . S
C228 H214 0.960 . S
C228 H215 0.960 . S
C228 C227 1.524 . S
C229 C226 1.403 . S
C229 C230 1.392 . S
C229 C233 1.495 . S
C230 C229 1.392 . S
C230 C231 1.385 . S
C230 C232 1.478 . S
C231 H225 0.930 . S
C231 C227 1.400 . S
C231 C230 1.385 . S
C232 C230 1.478 . S
C232 C234 1.381 . S
C232 C238 1.383 . S
C233 C229 1.495 . S
C233 H239 0.975 . S
C233 H240 0.961 . S
C233 H241 0.960 . S
C234 C232 1.381 . S
C234 C235 1.394 . S
C234 H242 0.930 . S
C235 C234 1.394 . S
C235 C236 1.383 . S
C235 H243 0.929 . S
C236 C235 1.383 . S
C236 C237 1.377 . S
C237 H221 0.930 . S
C237 C236 1.377 . S
C237 C238 1.379 . S
C238 H222 0.931 . S
C238 C232 1.383 . S
C238 C237 1.379 . S
H239 C233 0.975 . S
H240 C233 0.961 . S
H241 C233 0.960 . S
H242 C234 0.930 . S
H243 C235 0.929 . S
H244 C252 0.929 . S
H245 C254 0.930 . S
H246 C256 0.930 . S
H247 C259 0.929 . S
H248 C262 0.930 . S
H249 C264 0.960 . S
H250 C264 0.960 . S
H251 C264 0.960 . S
C252 H244 0.929 . S
C252 C253 1.377 . S
C252 C254 1.384 . S
C253 C252 1.377 . S
C253 C259 1.390 . S
C254 H245 0.930 . S
C254 C252 1.384 . S
C254 C255 1.372 . S
C255 C254 1.372 . S
C255 C256 1.400 . S
C255 C260 1.490 . S
C256 H246 0.930 . S
C256 C255 1.400 . S
C256 C259 1.386 . S
H257 C273 0.930 . S
H258 C274 0.931 . S
C259 H247 0.929 . S
C259 C253 1.390 . S
C259 C256 1.386 . S
C260 C255 1.490 . S
C260 C262 1.395 . S
C260 C263 1.403 . S
H261 C267 0.930 . S
C262 H248 0.930 . S
C262 C260 1.395 . S
C262 C265 1.403 . S
C263 C260 1.403 . S
C263 C264 1.524 . S
C263 C267 1.400 . S
C264 H249 0.960 . S
C264 H250 0.960 . S
C264 H251 0.960 . S
C264 C263 1.524 . S
C265 C262 1.403 . S
C265 C266 1.392 . S
C265 C269 1.495 . S
C266 C265 1.392 . S
C266 C267 1.385 . S
C266 C268 1.478 . S
C267 H261 0.930 . S
C267 C263 1.400 . S
C267 C266 1.385 . S
C268 C266 1.478 . S
C268 C270 1.381 . S
C268 C274 1.383 . S
C269 C265 1.495 . S
C269 H275 0.959 . S
C269 H276 0.961 . S
C269 H277 0.960 . S
C270 C268 1.381 . S
C270 C271 1.394 . S
C270 H278 0.930 . S
C271 C270 1.394 . S
C271 C272 1.383 . S
C271 H279 0.929 . S
C272 C271 1.383 . S
C272 C273 1.377 . S
C273 H257 0.930 . S
C273 C272 1.377 . S
C273 C274 1.379 . S
C274 H258 0.931 . S
C274 C268 1.383 . S
C274 C273 1.379 . S
H275 C269 0.959 . S
H276 C269 0.961 . S
H277 C269 0.960 . S
H278 C270 0.930 . S
H279 C271 0.929 . S
H280 C288 0.929 . S
H281 C290 0.930 . S
H282 C292 0.930 . S
H283 C295 0.929 . S
H284 C298 0.930 . S
H285 C300 0.960 . S
H286 C300 0.960 . S
H287 C300 0.960 . S
C288 H280 0.929 . S
C288 C289 1.377 . S
C288 C290 1.384 . S
C289 C288 1.377 . S
C289 C295 1.390 . S
C290 H281 0.930 . S
C290 C288 1.384 . S
C290 C291 1.372 . S
C291 C290 1.372 . S
C291 C292 1.400 . S
C291 C296 1.490 . S
C292 H282 0.930 . S
C292 C291 1.400 . S
C292 C295 1.386 . S
H293 C309 0.930 . S
H294 C310 0.931 . S
C295 H283 0.929 . S
C295 C289 1.390 . S
C295 C292 1.386 . S
C296 C291 1.490 . S
C296 C298 1.395 . S
C296 C299 1.403 . S
H297 C303 0.930 . S
C298 H284 0.930 . S
C298 C296 1.395 . S
C298 C301 1.403 1_554 S
C299 C296 1.403 . S
C299 C300 1.524 . S
C299 C303 1.400 1_554 S
C300 H285 0.960 . S
C300 H286 0.960 . S
C300 H287 0.960 . S
C300 C299 1.524 . S
C301 C298 1.403 1_556 S
C301 C302 1.392 . S
C301 C305 1.495 . S
C302 C301 1.392 . S
C302 C303 1.385 . S
C302 C304 1.478 . S
C303 H297 0.930 . S
C303 C299 1.400 1_556 S
C303 C302 1.385 . S
C304 C302 1.478 . S
C304 C306 1.381 . S
C304 C310 1.383 . S
C305 C301 1.495 . S
C305 H311 0.959 . S
C305 H312 0.961 . S
C305 H313 0.960 . S
C306 C304 1.381 . S
C306 C307 1.394 . S
C306 H314 0.930 . S
C307 C306 1.394 . S
C307 C308 1.383 . S
C307 H315 0.929 . S
C308 C307 1.383 . S
C308 C309 1.377 . S
C309 H293 0.930 . S
C309 C308 1.377 . S
C309 C310 1.379 . S
C310 H294 0.931 . S
C310 C304 1.383 . S
C310 C309 1.379 . S
H311 C305 0.959 . S
H312 C305 0.961 . S
H313 C305 0.960 . S
H314 C306 0.930 . S
H315 C307 0.929 . S
H316 C324 0.929 . S
H317 C326 0.930 . S
H318 C328 0.930 . S
H319 C331 0.929 . S
H320 C334 0.930 . S
H321 C336 0.960 . S
H322 C336 0.960 . S
H323 C336 0.960 . S
C324 H316 0.929 . S
C324 C325 1.377 . S
C324 C326 1.384 . S
C325 C324 1.377 . S
C325 C331 1.390 . S
C326 H317 0.930 . S
C326 C324 1.384 . S
C326 C327 1.372 . S
C327 C326 1.372 . S
C327 C328 1.400 . S
C327 C332 1.490 . S
C328 H318 0.930 . S
C328 C327 1.400 . S
C328 C331 1.386 . S
H329 C345 0.930 . S
H330 C346 0.931 . S
C331 H319 0.929 . S
C331 C325 1.390 . S
C331 C328 1.386 . S
C332 C327 1.490 . S
C332 C334 1.395 . S
C332 C335 1.403 . S
H333 C339 0.930 . S
C334 H320 0.930 . S
C334 C332 1.395 . S
C334 C337 1.403 1_556 S
C335 C332 1.403 . S
C335 C336 1.524 . S
C335 C339 1.400 1_556 S
C336 H321 0.960 . S
C336 H322 0.960 . S
C336 H323 0.960 . S
C336 C335 1.524 . S
C337 C334 1.403 1_554 S
C337 C338 1.392 . S
C337 C341 1.495 . S
C338 C337 1.392 . S
C338 C339 1.385 . S
C338 C340 1.478 . S
C339 H333 0.930 . S
C339 C335 1.400 1_554 S
C339 C338 1.385 . S
C340 C338 1.478 . S
C340 C342 1.381 . S
C340 C346 1.383 . S
C341 C337 1.495 . S
C341 H347 0.959 . S
C341 H348 0.961 . S
C341 H349 0.960 . S
C342 C340 1.381 . S
C342 C343 1.394 . S
C342 H350 0.930 . S
C343 C342 1.394 . S
C343 C344 1.383 . S
C343 H351 0.929 . S
C344 C343 1.383 . S
C344 C345 1.377 . S
C345 H329 0.930 . S
C345 C344 1.377 . S
C345 C346 1.379 . S
C346 H330 0.931 . S
C346 C340 1.383 . S
C346 C345 1.379 . S
H347 C341 0.959 . S
H348 C341 0.961 . S
H349 C341 0.960 . S
H350 C342 0.930 . S
H351 C343 0.929 . S
H352 C360 0.929 . S
H353 C362 0.930 . S
H354 C364 0.930 . S
H355 C367 0.929 . S
H356 C370 0.930 . S
H357 C372 0.960 . S
H358 C372 0.960 . S
H359 C372 0.960 . S
C360 H352 0.929 . S
C360 C361 1.377 . S
C360 C362 1.384 . S
C361 C360 1.377 . S
C361 C367 1.390 . S
C362 H353 0.930 . S
C362 C360 1.384 . S
C362 C363 1.372 . S
C363 C362 1.372 . S
C363 C364 1.400 . S
C363 C368 1.490 . S
C364 H354 0.930 . S
C364 C363 1.400 . S
C364 C367 1.386 . S
H365 C381 0.930 . S
H366 C382 0.931 . S
C367 H355 0.929 . S
C367 C361 1.390 . S
C367 C364 1.386 . S
C368 C363 1.490 . S
C368 C370 1.395 . S
C368 C371 1.403 . S
H369 C375 0.930 . S
C370 H356 0.930 . S
C370 C368 1.395 . S
C370 C373 1.403 . S
C371 C368 1.403 . S
C371 C372 1.524 . S
C371 C375 1.400 . S
C372 H357 0.960 . S
C372 H358 0.960 . S
C372 H359 0.960 . S
C372 C371 1.524 . S
C373 C370 1.403 . S
C373 C374 1.392 . S
C373 C377 1.495 . S
C374 C373 1.392 . S
C374 C375 1.385 . S
C374 C376 1.478 . S
C375 H369 0.930 . S
C375 C371 1.400 . S
C375 C374 1.385 . S
C376 C374 1.478 . S
C376 C378 1.381 . S
C376 C382 1.383 . S
C377 C373 1.495 . S
C377 H383 0.959 . S
C377 H384 0.961 . S
C377 H385 0.960 . S
C378 C376 1.381 . S
C378 C379 1.394 . S
C378 H386 0.930 . S
C379 C378 1.394 . S
C379 C380 1.383 . S
C379 H387 0.929 . S
C380 C379 1.383 . S
C380 C381 1.377 . S
C381 H365 0.930 . S
C381 C380 1.377 . S
C381 C382 1.379 . S
C382 H366 0.931 . S
C382 C376 1.383 . S
C382 C381 1.379 . S
H383 C377 0.959 . S
H384 C377 0.961 . S
H385 C377 0.960 . S
H386 C378 0.930 . S
H387 C379 0.929 . S
H388 C396 0.929 . S
H389 C398 0.930 . S
H390 C400 0.930 . S
H391 C403 0.929 . S
H392 C406 0.930 . S
H393 C408 0.960 . S
H394 C408 0.960 . S
H395 C408 0.960 . S
C396 H388 0.929 . S
C396 C397 1.377 . S
C396 C398 1.384 . S
C397 C396 1.377 . S
C397 C403 1.390 . S
C398 H389 0.930 . S
C398 C396 1.384 . S
C398 C399 1.372 . S
C399 C398 1.372 . S
C399 C400 1.400 . S
C399 C404 1.490 . S
C400 H390 0.930 . S
C400 C399 1.400 . S
C400 C403 1.386 . S
H401 C417 0.930 . S
H402 C418 0.931 . S
C403 H391 0.929 . S
C403 C397 1.390 . S
C403 C400 1.386 . S
C404 C399 1.490 . S
C404 C406 1.395 . S
C404 C407 1.403 . S
H405 C411 0.930 . S
C406 H392 0.930 . S
C406 C404 1.395 . S
C406 C409 1.403 . S
C407 C404 1.403 . S
C407 C408 1.524 . S
C407 C411 1.400 . S
C408 H393 0.960 . S
C408 H394 0.960 . S
C408 H395 0.960 . S
C408 C407 1.524 . S
C409 C406 1.403 . S
C409 C410 1.392 . S
C409 C413 1.495 . S
C410 C409 1.392 . S
C410 C411 1.385 . S
C410 C412 1.478 . S
C411 H405 0.930 . S
C411 C407 1.400 . S
C411 C410 1.385 . S
C412 C410 1.478 . S
C412 C414 1.381 . S
C412 C418 1.383 . S
C413 C409 1.495 . S
C413 H419 0.959 . S
C413 H420 0.961 . S
C413 H421 0.960 . S
C414 C412 1.381 . S
C414 C415 1.394 . S
C414 H422 0.930 . S
C415 C414 1.394 . S
C415 C416 1.383 . S
C415 H423 0.929 . S
C416 C415 1.383 . S
C416 C417 1.377 . S
C417 H401 0.930 . S
C417 C416 1.377 . S
C417 C418 1.379 . S
C418 H402 0.931 . S
C418 C412 1.383 . S
C418 C417 1.379 . S
H419 C413 0.959 . S
H420 C413 0.961 . S
H421 C413 0.960 . S
H422 C414 0.930 . S
H423 C415 0.929 . S
H424 C432 0.929 . S
H425 C434 0.930 . S
H426 C436 0.930 . S
H427 C439 0.929 . S
H428 C442 0.930 . S
H429 C444 0.960 . S
H430 C444 0.960 . S
H431 C444 0.960 . S
C432 H424 0.929 . S
C432 C433 1.377 . S
C432 C434 1.384 . S
C433 C432 1.377 . S
C433 C439 1.390 . S
C434 H425 0.930 . S
C434 C432 1.384 . S
C434 C435 1.372 . S
C435 C434 1.372 . S
C435 C436 1.400 . S
C435 C440 1.490 . S
C436 H426 0.930 . S
C436 C435 1.400 . S
C436 C439 1.386 . S
H437 C453 0.930 . S
H438 C454 0.931 . S
C439 H427 0.929 . S
C439 C433 1.390 . S
C439 C436 1.386 . S
C440 C435 1.490 . S
C440 C442 1.395 . S
C440 C443 1.403 . S
H441 C447 0.930 . S
C442 H428 0.930 . S
C442 C440 1.395 . S
C442 C445 1.403 1_556 S
C443 C440 1.403 . S
C443 C444 1.524 . S
C443 C447 1.400 1_556 S
C444 H429 0.960 . S
C444 H430 0.960 . S
C444 H431 0.960 . S
C444 C443 1.524 . S
C445 C442 1.403 1_554 S
C445 C446 1.392 . S
C445 C449 1.495 . S
C446 C445 1.392 . S
C446 C447 1.385 . S
C446 C448 1.478 . S
C447 H441 0.930 . S
C447 C443 1.400 1_554 S
C447 C446 1.385 . S
C448 C446 1.478 . S
C448 C450 1.381 . S
C448 C454 1.383 . S
C449 C445 1.495 . S
C449 H455 0.959 . S
C449 H456 0.961 . S
C449 H457 0.960 . S
C450 C448 1.381 . S
C450 C451 1.394 . S
C450 H458 0.930 . S
C451 C450 1.394 . S
C451 C452 1.383 . S
C451 H459 0.929 . S
C452 C451 1.383 . S
C452 C453 1.377 . S
C453 H437 0.930 . S
C453 C452 1.377 . S
C453 C454 1.379 . S
C454 H438 0.931 . S
C454 C448 1.383 . S
C454 C453 1.379 . S
H455 C449 0.959 . S
H456 C449 0.961 . S
H457 C449 0.960 . S
H458 C450 0.930 . S
H459 C451 0.929 . S
H460 C468 0.929 . S
H461 C470 0.930 . S
H462 C472 0.930 . S
H463 C475 0.929 . S
H464 C478 0.930 . S
H465 C480 0.960 . S
H466 C480 0.960 . S
H467 C480 0.960 . S
C468 H460 0.929 . S
C468 C469 1.377 . S
C468 C470 1.384 . S
C469 C468 1.377 . S
C469 C475 1.390 . S
C470 H461 0.930 . S
C470 C468 1.384 . S
C470 C471 1.372 . S
C471 C470 1.372 . S
C471 C472 1.400 . S
C471 C476 1.490 . S
C472 H462 0.930 . S
C472 C471 1.400 . S
C472 C475 1.386 . S
H473 C489 0.930 . S
H474 C490 0.931 . S
C475 H463 0.929 . S
C475 C469 1.390 . S
C475 C472 1.386 . S
C476 C471 1.490 . S
C476 C478 1.395 . S
C476 C479 1.403 . S
H477 C483 0.930 . S
C478 H464 0.930 . S
C478 C476 1.395 . S
C478 C481 1.403 1_554 S
C479 C476 1.403 . S
C479 C480 1.524 . S
C479 C483 1.400 1_554 S
C480 H465 0.960 . S
C480 H466 0.960 . S
C480 H467 0.960 . S
C480 C479 1.524 . S
C481 C478 1.403 1_556 S
C481 C482 1.392 . S
C481 C485 1.495 . S
C482 C481 1.392 . S
C482 C483 1.385 . S
C482 C484 1.478 . S
C483 H477 0.930 . S
C483 C479 1.400 1_556 S
C483 C482 1.385 . S
C484 C482 1.478 . S
C484 C486 1.381 . S
C484 C490 1.383 . S
C485 C481 1.495 . S
C485 H491 0.959 . S
C485 H492 0.961 . S
C485 H493 0.960 . S
C486 C484 1.381 . S
C486 C487 1.394 . S
C486 H494 0.930 . S
C487 C486 1.394 . S
C487 C488 1.383 . S
C487 H495 0.929 . S
C488 C487 1.383 . S
C488 C489 1.377 . S
C489 H473 0.930 . S
C489 C488 1.377 . S
C489 C490 1.379 . S
C490 H474 0.931 . S
C490 C484 1.383 . S
C490 C489 1.379 . S
H491 C485 0.959 . S
H492 C485 0.961 . S
H493 C485 0.960 . S
H494 C486 0.930 . S
H495 C487 0.929 . S
H496 C504 0.929 . S
H497 C506 0.930 . S
H498 C508 0.930 1_545 S
H499 C511 0.929 . S
H500 C514 0.930 . S
H501 C516 0.960 . S
H502 C516 0.960 . S
H503 C516 0.960 . S
C504 H496 0.929 . S
C504 C505 1.377 . S
C504 C506 1.384 . S
C505 C504 1.377 . S
C505 C511 1.390 . S
C506 H497 0.930 . S
C506 C504 1.384 . S
C506 C507 1.372 . S
C507 C506 1.372 . S
C507 C508 1.400 . S
C507 C512 1.490 . S
C508 H498 0.930 1_565 S
C508 C507 1.400 . S
C508 C511 1.386 . S
H509 C525 0.930 . S
H510 C526 0.931 . S
C511 H499 0.929 . S
C511 C505 1.390 . S
C511 C508 1.386 . S
C512 C507 1.490 . S
C512 C514 1.395 . S
C512 C515 1.403 1_565 S
H513 C519 0.930 . S
C514 H500 0.930 . S
C514 C512 1.395 . S
C514 C517 1.403 . S
C515 C512 1.403 1_545 S
C515 C516 1.524 . S
C515 C519 1.400 . S
C516 H501 0.960 . S
C516 H502 0.960 . S
C516 H503 0.960 . S
C516 C515 1.524 . S
C517 C514 1.403 . S
C517 C518 1.392 1_565 S
C517 C521 1.495 . S
C518 C517 1.392 1_545 S
C518 C519 1.385 . S
C518 C520 1.478 . S
C519 H513 0.930 . S
C519 C515 1.400 . S
C519 C518 1.385 . S
C520 C518 1.478 . S
C520 C522 1.381 . S
C520 C526 1.383 . S
C521 C517 1.495 . S
C521 H527 0.959 . S
C521 H528 0.961 . S
C521 H529 0.960 . S
C522 C520 1.381 . S
C522 C523 1.394 . S
C522 H530 0.930 1_545 S
C523 C522 1.394 . S
C523 C524 1.383 . S
C523 H531 0.929 . S
C524 C523 1.383 . S
C524 C525 1.377 . S
C525 H509 0.930 . S
C525 C524 1.377 . S
C525 C526 1.379 . S
C526 H510 0.931 . S
C526 C520 1.383 . S
C526 C525 1.379 . S
H527 C521 0.959 . S
H528 C521 0.961 . S
H529 C521 0.960 . S
H530 C522 0.930 1_565 S
H531 C523 0.929 . S
H532 C540 0.929 . S
H533 C542 0.930 1_545 S
H534 C544 0.930 . S
H535 C547 0.929 . S
H536 C550 0.930 . S
H537 C552 0.960 . S
H538 C552 0.960 . S
H539 C552 0.960 . S
C540 H532 0.929 . S
C540 C541 1.377 . S
C540 C542 1.384 . S
C541 C540 1.377 . S
C541 C547 1.390 . S
C542 H533 0.930 1_565 S
C542 C540 1.384 . S
C542 C543 1.372 . S
C543 C542 1.372 . S
C543 C544 1.400 . S
C543 C548 1.490 . S
C544 H534 0.930 . S
C544 C543 1.400 . S
C544 C547 1.386 . S
H545 C561 0.930 . S
H546 C562 0.931 1_565 S
C547 H535 0.929 . S
C547 C541 1.390 . S
C547 C544 1.386 . S
C548 C543 1.490 . S
C548 C550 1.395 1_565 S
C548 C551 1.403 . S
H549 C555 0.930 . S
C550 H536 0.930 . S
C550 C548 1.395 1_545 S
C550 C553 1.403 . S
C551 C548 1.403 . S
C551 C552 1.524 . S
C551 C555 1.400 1_565 S
C552 H537 0.960 . S
C552 H538 0.960 . S
C552 H539 0.960 . S
C552 C551 1.524 . S
C553 C550 1.403 . S
C553 C554 1.392 . S
C553 C557 1.495 . S
C554 C553 1.392 . S
C554 C555 1.385 . S
C554 C556 1.478 . S
C555 H549 0.930 . S
C555 C551 1.400 1_545 S
C555 C554 1.385 . S
C556 C554 1.478 . S
C556 C558 1.381 . S
C556 C562 1.383 . S
C557 C553 1.495 . S
C557 H563 0.959 . S
C557 H564 0.961 . S
C557 H565 0.960 . S
C558 C556 1.381 . S
C558 C559 1.394 . S
C558 H566 0.930 . S
C559 C558 1.394 . S
C559 C560 1.383 . S
C559 H567 0.929 . S
C560 C559 1.383 . S
C560 C561 1.377 . S
C561 H545 0.930 . S
C561 C560 1.377 . S
C561 C562 1.379 . S
C562 H546 0.931 1_545 S
C562 C556 1.383 . S
C562 C561 1.379 . S
H563 C557 0.959 . S
H564 C557 0.961 . S
H565 C557 0.960 . S
H566 C558 0.930 . S
H567 C559 0.929 . S
H568 C576 0.929 . S
H569 C578 0.930 . S
H570 C580 0.930 . S
H571 C583 0.929 . S
H572 C586 0.930 . S
H573 C588 0.960 . S
H574 C588 0.960 . S
H575 C588 0.960 . S
C576 H568 0.929 . S
C576 C577 1.377 . S
C576 C578 1.384 . S
C577 C576 1.377 . S
C577 C583 1.390 . S
C578 H569 0.930 . S
C578 C576 1.384 . S
C578 C579 1.372 . S
C579 C578 1.372 . S
C579 C580 1.400 . S
C579 C584 1.490 . S
C580 H570 0.930 . S
C580 C579 1.400 . S
C580 C583 1.386 . S
H581 C597 0.930 . S
H582 C598 0.931 . S
C583 H571 0.929 . S
C583 C577 1.390 . S
C583 C580 1.386 . S
C584 C579 1.490 . S
C584 C586 1.395 1_565 S
C584 C587 1.403 . S
H585 C591 0.930 . S
C586 H572 0.930 . S
C586 C584 1.395 1_545 S
C586 C589 1.403 . S
C587 C584 1.403 . S
C587 C588 1.524 . S
C587 C591 1.400 . S
C588 H573 0.960 . S
C588 H574 0.960 . S
C588 H575 0.960 . S
C588 C587 1.524 . S
C589 C586 1.403 . S
C589 C590 1.392 . S
C589 C593 1.495 . S
C590 C589 1.392 . S
C590 C591 1.385 1_545 S
C590 C592 1.478 . S
C591 H585 0.930 . S
C591 C587 1.400 . S
C591 C590 1.385 1_565 S
C592 C590 1.478 . S
C592 C594 1.381 . S
C592 C598 1.383 . S
C593 C589 1.495 . S
C593 H599 0.959 . S
C593 H600 0.961 . S
C593 H601 0.960 . S
C594 C592 1.381 . S
C594 C595 1.394 . S
C594 H602 0.930 . S
C595 C594 1.394 . S
C595 C596 1.383 . S
C595 H603 0.929 . S
C596 C595 1.383 . S
C596 C597 1.377 . S
C597 H581 0.930 . S
C597 C596 1.377 . S
C597 C598 1.379 . S
C598 H582 0.931 . S
C598 C592 1.383 . S
C598 C597 1.379 . S
H599 C593 0.959 . S
H600 C593 0.961 . S
H601 C593 0.960 . S
H602 C594 0.930 . S
H603 C595 0.929 . S
H604 C612 0.929 . S
H605 C614 0.930 1_565 S
H606 C616 0.930 . S
H607 C619 0.929 . S
H608 C622 0.930 . S
H609 C624 0.960 . S
H610 C624 0.960 . S
H611 C624 0.960 . S
C612 H604 0.929 . S
C612 C613 1.377 . S
C612 C614 1.384 . S
C613 C612 1.377 . S
C613 C619 1.390 . S
C614 H605 0.930 1_545 S
C614 C612 1.384 . S
C614 C615 1.372 . S
C615 C614 1.372 . S
C615 C616 1.400 . S
C615 C620 1.490 . S
C616 H606 0.930 . S
C616 C615 1.400 . S
C616 C619 1.386 . S
H617 C633 0.930 . S
H618 C634 0.931 . S
C619 H607 0.929 . S
C619 C613 1.390 . S
C619 C616 1.386 . S
C620 C615 1.490 . S
C620 C622 1.395 1_545 S
C620 C623 1.403 . S
H621 C627 0.930 . S
C622 H608 0.930 . S
C622 C620 1.395 1_565 S
C622 C625 1.403 . S
C623 C620 1.403 . S
C623 C624 1.524 . S
C623 C627 1.400 . S
C624 H609 0.960 . S
C624 H610 0.960 . S
C624 H611 0.960 . S
C624 C623 1.524 . S
C625 C622 1.403 . S
C625 C626 1.392 . S
C625 C629 1.495 . S
C626 C625 1.392 . S
C626 C627 1.385 1_565 S
C626 C628 1.478 . S
C627 H621 0.930 . S
C627 C623 1.400 . S
C627 C626 1.385 1_545 S
C628 C626 1.478 . S
C628 C630 1.381 . S
C628 C634 1.383 . S
C629 C625 1.495 . S
C629 H635 0.959 . S
C629 H636 0.961 . S
C629 H637 0.960 . S
C630 C628 1.381 . S
C630 C631 1.394 . S
C630 H638 0.930 . S
C631 C630 1.394 . S
C631 C632 1.383 . S
C631 H639 0.929 . S
C632 C631 1.383 . S
C632 C633 1.377 . S
C633 H617 0.930 . S
C633 C632 1.377 . S
C633 C634 1.379 . S
C634 H618 0.931 . S
C634 C628 1.383 . S
C634 C633 1.379 . S
H635 C629 0.959 . S
H636 C629 0.961 . S
H637 C629 0.960 . S
H638 C630 0.930 . S
H639 C631 0.929 . S
H640 C648 0.929 . S
H641 C650 0.930 . S
H642 C652 0.930 . S
H643 C655 0.929 . S
H644 C658 0.930 . S
H645 C660 0.960 . S
H646 C660 0.960 . S
H647 C660 0.960 . S
C648 H640 0.929 . S
C648 C649 1.377 . S
C648 C650 1.384 . S
C649 C648 1.377 . S
C649 C655 1.390 . S
C650 H641 0.930 . S
C650 C648 1.384 . S
C650 C651 1.372 . S
C651 C650 1.372 . S
C651 C652 1.400 . S
C651 C656 1.490 . S
C652 H642 0.930 . S
C652 C651 1.400 . S
C652 C655 1.386 . S
H653 C669 0.930 . S
H654 C670 0.931 . S
C655 H643 0.929 . S
C655 C649 1.390 . S
C655 C652 1.386 . S
C656 C651 1.490 . S
C656 C658 1.395 . S
C656 C659 1.403 . S
H657 C663 0.930 . S
C658 H644 0.930 . S
C658 C656 1.395 . S
C658 C661 1.403 1_655 S
C659 C656 1.403 . S
C659 C660 1.524 . S
C659 C663 1.400 1_655 S
C660 H645 0.960 . S
C660 H646 0.960 . S
C660 H647 0.960 . S
C660 C659 1.524 . S
C661 C658 1.403 1_455 S
C661 C662 1.392 . S
C661 C665 1.495 . S
C662 C661 1.392 . S
C662 C663 1.385 . S
C662 C664 1.478 . S
C663 H657 0.930 . S
C663 C659 1.400 1_455 S
C663 C662 1.385 . S
C664 C662 1.478 . S
C664 C666 1.381 . S
C664 C670 1.383 . S
C665 C661 1.495 . S
C665 H671 0.959 . S
C665 H672 0.961 . S
C665 H673 0.960 . S
C666 C664 1.381 . S
C666 C667 1.394 . S
C666 H674 0.930 . S
C667 C666 1.394 . S
C667 C668 1.383 . S
C667 H675 0.929 . S
C668 C667 1.383 . S
C668 C669 1.377 . S
C669 H653 0.930 . S
C669 C668 1.377 . S
C669 C670 1.379 . S
C670 H654 0.931 . S
C670 C664 1.383 . S
C670 C669 1.379 . S
H671 C665 0.959 . S
H672 C665 0.961 . S
H673 C665 0.960 . S
H674 C666 0.930 . S
H675 C667 0.929 . S
H676 C684 0.929 . S
H677 C686 0.930 . S
H678 C688 0.930 . S
H679 C691 0.929 . S
H680 C694 0.930 . S
H681 C696 0.960 . S
H682 C696 0.960 . S
H683 C696 0.960 . S
C684 H676 0.929 . S
C684 C685 1.377 . S
C684 C686 1.384 . S
C685 C684 1.377 . S
C685 C691 1.390 . S
C686 H677 0.930 . S
C686 C684 1.384 . S
C686 C687 1.372 . S
C687 C686 1.372 . S
C687 C688 1.400 . S
C687 C692 1.490 . S
C688 H678 0.930 . S
C688 C687 1.400 . S
C688 C691 1.386 . S
H689 C705 0.930 . S
H690 C706 0.931 . S
C691 H679 0.929 . S
C691 C685 1.390 . S
C691 C688 1.386 . S
C692 C687 1.490 . S
C692 C694 1.395 . S
C692 C695 1.403 . S
H693 C699 0.930 . S
C694 H680 0.930 . S
C694 C692 1.395 . S
C694 C697 1.403 1_455 S
C695 C692 1.403 . S
C695 C696 1.524 . S
C695 C699 1.400 1_455 S
C696 H681 0.960 . S
C696 H682 0.960 . S
C696 H683 0.960 . S
C696 C695 1.524 . S
C697 C694 1.403 1_655 S
C697 C698 1.392 . S
C697 C701 1.495 . S
C698 C697 1.392 . S
C698 C699 1.385 . S
C698 C700 1.478 . S
C699 H693 0.930 . S
C699 C695 1.400 1_655 S
C699 C698 1.385 . S
C700 C698 1.478 . S
C700 C702 1.381 . S
C700 C706 1.383 . S
C701 C697 1.495 . S
C701 H707 0.959 . S
C701 H708 0.961 . S
C701 H709 0.960 . S
C702 C700 1.381 . S
C702 C703 1.394 . S
C702 H710 0.930 . S
C703 C702 1.394 . S
C703 C704 1.383 . S
C703 H711 0.929 . S
C704 C703 1.383 . S
C704 C705 1.377 . S
C705 H689 0.930 . S
C705 C704 1.377 . S
C705 C706 1.379 . S
C706 H690 0.931 . S
C706 C700 1.383 . S
C706 C705 1.379 . S
H707 C701 0.959 . S
H708 C701 0.961 . S
H709 C701 0.960 . S
H710 C702 0.930 . S
H711 C703 0.929 . S
H712 C720 0.929 . S
H713 C722 0.930 . S
H714 C724 0.930 . S
H715 C727 0.929 . S
H716 C730 0.930 . S
H717 C732 0.960 . S
H718 C732 0.960 . S
H719 C732 0.960 . S
C720 H712 0.929 . S
C720 C721 1.377 . S
C720 C722 1.384 . S
C721 C720 1.377 . S
C721 C727 1.390 . S
C722 H713 0.930 . S
C722 C720 1.384 . S
C722 C723 1.372 . S
C723 C722 1.372 . S
C723 C724 1.400 . S
C723 C728 1.490 . S
C724 H714 0.930 . S
C724 C723 1.400 . S
C724 C727 1.386 . S
H725 C741 0.930 . S
H726 C742 0.931 . S
C727 H715 0.929 . S
C727 C721 1.390 . S
C727 C724 1.386 . S
C728 C723 1.490 . S
C728 C730 1.395 . S
C728 C731 1.403 . S
H729 C735 0.930 . S
C730 H716 0.930 . S
C730 C728 1.395 . S
C730 C733 1.403 1_655 S
C731 C728 1.403 . S
C731 C732 1.524 . S
C731 C735 1.400 1_655 S
C732 H717 0.960 . S
C732 H718 0.960 . S
C732 H719 0.960 . S
C732 C731 1.524 . S
C733 C730 1.403 1_455 S
C733 C734 1.392 . S
C733 C737 1.495 . S
C734 C733 1.392 . S
C734 C735 1.385 . S
C734 C736 1.478 . S
C735 H729 0.930 . S
C735 C731 1.400 1_455 S
C735 C734 1.385 . S
C736 C734 1.478 . S
C736 C738 1.381 . S
C736 C742 1.383 . S
C737 C733 1.495 . S
C737 H743 0.959 . S
C737 H744 0.961 . S
C737 H745 0.960 . S
C738 C736 1.381 . S
C738 C739 1.394 . S
C738 H746 0.930 . S
C739 C738 1.394 . S
C739 C740 1.383 . S
C739 H747 0.929 . S
C740 C739 1.383 . S
C740 C741 1.377 . S
C741 H725 0.930 . S
C741 C740 1.377 . S
C741 C742 1.379 . S
C742 H726 0.931 . S
C742 C736 1.383 . S
C742 C741 1.379 . S
H743 C737 0.959 . S
H744 C737 0.961 . S
H745 C737 0.960 . S
H746 C738 0.930 . S
H747 C739 0.929 . S
H748 C756 0.929 . S
H749 C758 0.930 . S
H750 C760 0.930 . S
H751 C763 0.929 . S
H752 C766 0.930 . S
H753 C768 0.960 . S
H754 C768 0.960 . S
H755 C768 0.960 . S
C756 H748 0.929 . S
C756 C757 1.377 . S
C756 C758 1.384 . S
C757 C756 1.377 . S
C757 C763 1.390 . S
C758 H749 0.930 . S
C758 C756 1.384 . S
C758 C759 1.372 . S
C759 C758 1.372 . S
C759 C760 1.400 . S
C759 C764 1.490 . S
C760 H750 0.930 . S
C760 C759 1.400 . S
C760 C763 1.386 . S
H761 C777 0.930 . S
H762 C778 0.931 . S
C763 H751 0.929 . S
C763 C757 1.390 . S
C763 C760 1.386 . S
C764 C759 1.490 . S
C764 C766 1.395 . S
C764 C767 1.403 . S
H765 C771 0.930 . S
C766 H752 0.930 . S
C766 C764 1.395 . S
C766 C769 1.403 1_455 S
C767 C764 1.403 . S
C767 C768 1.524 . S
C767 C771 1.400 1_455 S
C768 H753 0.960 . S
C768 H754 0.960 . S
C768 H755 0.960 . S
C768 C767 1.524 . S
C769 C766 1.403 1_655 S
C769 C770 1.392 . S
C769 C773 1.495 . S
C770 C769 1.392 . S
C770 C771 1.385 . S
C770 C772 1.478 . S
C771 H765 0.930 . S
C771 C767 1.400 1_655 S
C771 C770 1.385 . S
C772 C770 1.478 . S
C772 C774 1.381 . S
C772 C778 1.383 . S
C773 C769 1.495 . S
C773 H779 0.959 . S
C773 H780 0.961 . S
C773 H781 0.960 . S
C774 C772 1.381 . S
C774 C775 1.394 . S
C774 H782 0.930 . S
C775 C774 1.394 . S
C775 C776 1.383 . S
C775 H783 0.929 . S
C776 C775 1.383 . S
C776 C777 1.377 . S
C777 H761 0.930 . S
C777 C776 1.377 . S
C777 C778 1.379 . S
C778 H762 0.931 . S
C778 C772 1.383 . S
C778 C777 1.379 . S
H779 C773 0.959 . S
H780 C773 0.961 . S
H781 C773 0.960 . S
H782 C774 0.930 . S
H783 C775 0.929 . S
H784 C792 0.929 . S
H785 C794 0.930 . S
H786 C796 0.930 . S
H787 C799 0.929 . S
H788 C802 0.930 . S
H789 C804 0.960 . S
H790 C804 0.960 . S
H791 C804 0.960 . S
C792 H784 0.929 . S
C792 C793 1.377 . S
C792 C794 1.384 . S
C793 C792 1.377 . S
C793 C799 1.390 . S
C794 H785 0.930 . S
C794 C792 1.384 . S
C794 C795 1.372 . S
C795 C794 1.372 . S
C795 C796 1.400 . S
C795 C800 1.490 . S
C796 H786 0.930 . S
C796 C795 1.400 . S
C796 C799 1.386 . S
H797 C813 0.930 . S
H798 C814 0.931 . S
C799 H787 0.929 . S
C799 C793 1.390 . S
C799 C796 1.386 . S
C800 C795 1.490 . S
C800 C802 1.395 . S
C800 C803 1.403 . S
H801 C807 0.930 . S
C802 H788 0.930 . S
C802 C800 1.395 . S
C802 C805 1.403 . S
C803 C800 1.403 . S
C803 C804 1.524 . S
C803 C807 1.400 . S
C804 H789 0.960 . S
C804 H790 0.960 . S
C804 H791 0.960 . S
C804 C803 1.524 . S
C805 C802 1.403 . S
C805 C806 1.392 . S
C805 C809 1.495 . S
C806 C805 1.392 . S
C806 C807 1.385 . S
C806 C808 1.478 . S
C807 H801 0.930 . S
C807 C803 1.400 . S
C807 C806 1.385 . S
C808 C806 1.478 . S
C808 C810 1.381 . S
C808 C814 1.383 . S
C809 C805 1.495 . S
C809 H815 0.959 . S
C809 H816 0.961 . S
C809 H817 0.960 . S
C810 C808 1.381 . S
C810 C811 1.394 . S
C810 H818 0.930 . S
C811 C810 1.394 . S
C811 C812 1.383 . S
C811 H819 0.929 . S
C812 C811 1.383 . S
C812 C813 1.377 . S
C813 H797 0.930 . S
C813 C812 1.377 . S
C813 C814 1.379 . S
C814 H798 0.931 . S
C814 C808 1.383 . S
C814 C813 1.379 . S
H815 C809 0.959 . S
H816 C809 0.961 . S
H817 C809 0.960 . S
H818 C810 0.930 . S
H819 C811 0.929 . S
H820 C828 0.929 . S
H821 C830 0.930 . S
H822 C832 0.930 . S
H823 C835 0.929 . S
H824 C838 0.930 . S
H825 C840 0.960 . S
H826 C840 0.960 . S
H827 C840 0.960 . S
C828 H820 0.929 . S
C828 C829 1.377 . S
C828 C830 1.384 . S
C829 C828 1.377 . S
C829 C835 1.390 . S
C830 H821 0.930 . S
C830 C828 1.384 . S
C830 C831 1.372 . S
C831 C830 1.372 . S
C831 C832 1.400 . S
C831 C836 1.490 . S
C832 H822 0.930 . S
C832 C831 1.400 . S
C832 C835 1.386 . S
H833 C849 0.930 . S
H834 C850 0.931 . S
C835 H823 0.929 . S
C835 C829 1.390 . S
C835 C832 1.386 . S
C836 C831 1.490 . S
C836 C838 1.395 . S
C836 C839 1.403 . S
H837 C843 0.930 . S
C838 H824 0.930 . S
C838 C836 1.395 . S
C838 C841 1.403 . S
C839 C836 1.403 . S
C839 C840 1.524 . S
C839 C843 1.400 . S
C840 H825 0.960 . S
C840 H826 0.960 . S
C840 H827 0.960 . S
C840 C839 1.524 . S
C841 C838 1.403 . S
C841 C842 1.392 . S
C841 C845 1.495 . S
C842 C841 1.392 . S
C842 C843 1.385 . S
C842 C844 1.478 . S
C843 H837 0.930 . S
C843 C839 1.400 . S
C843 C842 1.385 . S
C844 C842 1.478 . S
C844 C846 1.381 . S
C844 C850 1.383 . S
C845 C841 1.495 . S
C845 H851 0.959 . S
C845 H852 0.961 . S
C845 H853 0.960 . S
C846 C844 1.381 . S
C846 C847 1.394 . S
C846 H854 0.930 . S
C847 C846 1.394 . S
C847 C848 1.383 . S
C847 H855 0.929 . S
C848 C847 1.383 . S
C848 C849 1.377 . S
C849 H833 0.930 . S
C849 C848 1.377 . S
C849 C850 1.379 . S
C850 H834 0.931 . S
C850 C844 1.383 . S
C850 C849 1.379 . S
H851 C845 0.959 . S
H852 C845 0.961 . S
H853 C845 0.960 . S
H854 C846 0.930 . S
H855 C847 0.929 . S
H856 C864 0.929 . S
H857 C866 0.930 . S
H858 C868 0.930 . S
H859 C871 0.929 . S
H860 C874 0.930 . S
H861 C876 0.960 . S
H862 C876 0.960 . S
H863 C876 0.960 . S
C864 H856 0.929 . S
C864 C865 1.377 . S
C864 C866 1.384 . S
C865 C864 1.377 . S
C865 C871 1.390 . S
C866 H857 0.930 . S
C866 C864 1.384 . S
C866 C867 1.372 . S
C867 C866 1.372 . S
C867 C868 1.400 . S
C867 C872 1.490 . S
C868 H858 0.930 . S
C868 C867 1.400 . S
C868 C871 1.386 . S
H869 C885 0.930 . S
H870 C886 0.931 . S
C871 H859 0.929 . S
C871 C865 1.390 . S
C871 C868 1.386 . S
C872 C867 1.490 . S
C872 C874 1.395 . S
C872 C875 1.403 . S
H873 C879 0.930 . S
C874 H860 0.930 . S
C874 C872 1.395 . S
C874 C877 1.403 . S
C875 C872 1.403 . S
C875 C876 1.524 . S
C875 C879 1.400 . S
C876 H861 0.960 . S
C876 H862 0.960 . S
C876 H863 0.960 . S
C876 C875 1.524 . S
C877 C874 1.403 . S
C877 C878 1.392 . S
C877 C881 1.495 . S
C878 C877 1.392 . S
C878 C879 1.385 . S
C878 C880 1.478 . S
C879 H873 0.930 . S
C879 C875 1.400 . S
C879 C878 1.385 . S
C880 C878 1.478 . S
C880 C882 1.381 . S
C880 C886 1.383 . S
C881 C877 1.495 . S
C881 H887 0.959 . S
C881 H888 0.961 . S
C881 H889 0.960 . S
C882 C880 1.381 . S
C882 C883 1.394 . S
C882 H890 0.930 . S
C883 C882 1.394 . S
C883 C884 1.383 . S
C883 H891 0.929 . S
C884 C883 1.383 . S
C884 C885 1.377 . S
C885 H869 0.930 . S
C885 C884 1.377 . S
C885 C886 1.379 . S
C886 H870 0.931 . S
C886 C880 1.383 . S
C886 C885 1.379 . S
H887 C881 0.959 . S
H888 C881 0.961 . S
H889 C881 0.960 . S
H890 C882 0.930 . S
H891 C883 0.929 . S
H892 C900 0.929 . S
H893 C902 0.930 . S
H894 C904 0.930 . S
H895 C907 0.929 . S
H896 C910 0.930 . S
H897 C912 0.960 . S
H898 C912 0.960 . S
H899 C912 0.960 . S
C900 H892 0.929 . S
C900 C901 1.377 . S
C900 C902 1.384 . S
C901 C900 1.377 . S
C901 C907 1.390 . S
C902 H893 0.930 . S
C902 C900 1.384 . S
C902 C903 1.372 . S
C903 C902 1.372 . S
C903 C904 1.400 . S
C903 C908 1.490 . S
C904 H894 0.930 . S
C904 C903 1.400 . S
C904 C907 1.386 . S
H905 C921 0.930 . S
H906 C922 0.931 . S
C907 H895 0.929 . S
C907 C901 1.390 . S
C907 C904 1.386 . S
C908 C903 1.490 . S
C908 C910 1.395 . S
C908 C911 1.403 . S
H909 C915 0.930 . S
C910 H896 0.930 . S
C910 C908 1.395 . S
C910 C913 1.403 . S
C911 C908 1.403 . S
C911 C912 1.524 . S
C911 C915 1.400 . S
C912 H897 0.960 . S
C912 H898 0.960 . S
C912 H899 0.960 . S
C912 C911 1.524 . S
C913 C910 1.403 . S
C913 C914 1.392 . S
C913 C917 1.495 . S
C914 C913 1.392 . S
C914 C915 1.385 . S
C914 C916 1.478 . S
C915 H909 0.930 . S
C915 C911 1.400 . S
C915 C914 1.385 . S
C916 C914 1.478 . S
C916 C918 1.381 . S
C916 C922 1.383 . S
C917 C913 1.495 . S
C917 H923 0.959 . S
C917 H924 0.961 . S
C917 H925 0.960 . S
C918 C916 1.381 . S
C918 C919 1.394 . S
C918 H926 0.930 . S
C919 C918 1.394 . S
C919 C920 1.383 . S
C919 H927 0.929 . S
C920 C919 1.383 . S
C920 C921 1.377 . S
C921 H905 0.930 . S
C921 C920 1.377 . S
C921 C922 1.379 . S
C922 H906 0.931 . S
C922 C916 1.383 . S
C922 C921 1.379 . S
H923 C917 0.959 . S
H924 C917 0.961 . S
H925 C917 0.960 . S
H926 C918 0.930 . S
H927 C919 0.929 . S
H928 C936 0.929 . S
H929 C938 0.930 . S
H930 C940 0.930 . S
H931 C943 0.929 . S
H932 C946 0.930 . S
H933 C948 0.960 . S
H934 C948 0.960 . S
H935 C948 0.960 . S
C936 H928 0.929 . S
C936 C937 1.377 . S
C936 C938 1.384 . S
C937 C936 1.377 . S
C937 C943 1.390 . S
C938 H929 0.930 . S
C938 C936 1.384 . S
C938 C939 1.372 . S
C939 C938 1.372 . S
C939 C940 1.400 . S
C939 C944 1.490 . S
C940 H930 0.930 . S
C940 C939 1.400 . S
C940 C943 1.386 . S
H941 C957 0.930 . S
H942 C958 0.931 . S
C943 H931 0.929 . S
C943 C937 1.390 . S
C943 C940 1.386 . S
C944 C939 1.490 . S
C944 C946 1.395 . S
C944 C947 1.403 . S
H945 C951 0.930 . S
C946 H932 0.930 . S
C946 C944 1.395 . S
C946 C949 1.403 . S
C947 C944 1.403 . S
C947 C948 1.524 . S
C947 C951 1.400 . S
C948 H933 0.960 . S
C948 H934 0.960 . S
C948 H935 0.960 . S
C948 C947 1.524 . S
C949 C946 1.403 . S
C949 C950 1.392 . S
C949 C953 1.495 . S
C950 C949 1.392 . S
C950 C951 1.385 . S
C950 C952 1.478 . S
C951 H945 0.930 . S
C951 C947 1.400 . S
C951 C950 1.385 . S
C952 C950 1.478 . S
C952 C954 1.381 . S
C952 C958 1.383 . S
C953 C949 1.495 . S
C953 H959 0.959 . S
C953 H960 0.961 . S
C953 H961 0.960 . S
C954 C952 1.381 . S
C954 C955 1.394 . S
C954 H962 0.930 . S
C955 C954 1.394 . S
C955 C956 1.383 . S
C955 H963 0.929 . S
C956 C955 1.383 . S
C956 C957 1.377 . S
C957 H941 0.930 . S
C957 C956 1.377 . S
C957 C958 1.379 . S
C958 H942 0.931 . S
C958 C952 1.383 . S
C958 C957 1.379 . S
H959 C953 0.959 . S
H960 C953 0.961 . S
H961 C953 0.960 . S
H962 C954 0.930 . S
H963 C955 0.929 . S
H964 C972 0.929 . S
H965 C974 0.930 . S
H966 C976 0.930 . S
H967 C979 0.929 . S
H968 C982 0.930 . S
H969 C984 0.960 . S
H970 C984 0.960 . S
H971 C984 0.960 . S
C972 H964 0.929 . S
C972 C973 1.377 . S
C972 C974 1.384 . S
C973 C972 1.377 . S
C973 C979 1.390 . S
C974 H965 0.930 . S
C974 C972 1.384 . S
C974 C975 1.372 . S
C975 C974 1.372 . S
C975 C976 1.400 . S
C975 C980 1.490 . S
C976 H966 0.930 . S
C976 C975 1.400 . S
C976 C979 1.386 . S
H977 C993 0.930 . S
H978 C994 0.931 . S
C979 H967 0.929 . S
C979 C973 1.390 . S
C979 C976 1.386 . S
C980 C975 1.490 . S
C980 C982 1.395 . S
C980 C983 1.403 . S
H981 C987 0.930 . S
C982 H968 0.930 . S
C982 C980 1.395 . S
C982 C985 1.403 . S
C983 C980 1.403 . S
C983 C984 1.524 . S
C983 C987 1.400 . S
C984 H969 0.960 . S
C984 H970 0.960 . S
C984 H971 0.960 . S
C984 C983 1.524 . S
C985 C982 1.403 . S
C985 C986 1.392 . S
C985 C989 1.495 . S
C986 C985 1.392 . S
C986 C987 1.385 . S
C986 C988 1.478 . S
C987 H981 0.930 . S
C987 C983 1.400 . S
C987 C986 1.385 . S
C988 C986 1.478 . S
C988 C990 1.381 . S
C988 C994 1.383 . S
C989 C985 1.495 . S
C989 H995 0.959 . S
C989 H996 0.961 . S
C989 H997 0.960 . S
C990 C988 1.381 . S
C990 C991 1.394 . S
C990 H998 0.930 . S
C991 C990 1.394 . S
C991 C992 1.383 . S
C991 H999 0.929 . S
C992 C991 1.383 . S
C992 C993 1.377 . S
C993 H977 0.930 . S
C993 C992 1.377 . S
C993 C994 1.379 . S
C994 H978 0.931 . S
C994 C988 1.383 . S
C994 C993 1.379 . S
H995 C989 0.959 . S
H996 C989 0.961 . S
H997 C989 0.960 . S
H998 C990 0.930 . S
H999 C991 0.929 . S
H1000 C1008 0.929 . S
H1001 C1010 0.930 . S
H1002 C1012 0.930 . S
H1003 C1015 0.929 . S
H1004 C1018 0.930 . S
H1005 C1020 0.960 . S
H1006 C1020 0.960 . S
H1007 C1020 0.960 . S
C1008 H1000 0.929 . S
C1008 C1009 1.377 . S
C1008 C1010 1.384 . S
C1009 C1008 1.377 . S
C1009 C1015 1.390 . S
C1010 H1001 0.930 . S
C1010 C1008 1.384 . S
C1010 C1011 1.372 . S
C1011 C1010 1.372 . S
C1011 C1012 1.400 . S
C1011 C1016 1.490 . S
C1012 H1002 0.930 . S
C1012 C1011 1.400 . S
C1012 C1015 1.386 . S
H1013 C1029 0.930 . S
H1014 C1030 0.931 . S
C1015 H1003 0.929 . S
C1015 C1009 1.390 . S
C1015 C1012 1.386 . S
C1016 C1011 1.490 . S
C1016 C1018 1.395 . S
C1016 C1019 1.403 . S
H1017 C1023 0.930 . S
C1018 H1004 0.930 . S
C1018 C1016 1.395 . S
C1018 C1021 1.403 . S
C1019 C1016 1.403 . S
C1019 C1020 1.524 . S
C1019 C1023 1.400 . S
C1020 H1005 0.960 . S
C1020 H1006 0.960 . S
C1020 H1007 0.960 . S
C1020 C1019 1.524 . S
C1021 C1018 1.403 . S
C1021 C1022 1.392 . S
C1021 C1025 1.495 . S
C1022 C1021 1.392 . S
C1022 C1023 1.385 . S
C1022 C1024 1.478 . S
C1023 H1017 0.930 . S
C1023 C1019 1.400 . S
C1023 C1022 1.385 . S
C1024 C1022 1.478 . S
C1024 C1026 1.381 . S
C1024 C1030 1.383 . S
C1025 C1021 1.495 . S
C1025 H1031 0.959 . S
C1025 H1032 0.961 . S
C1025 H1033 0.960 . S
C1026 C1024 1.381 . S
C1026 C1027 1.394 . S
C1026 H1034 0.930 . S
C1027 C1026 1.394 . S
C1027 C1028 1.383 . S
C1027 H1035 0.929 . S
C1028 C1027 1.383 . S
C1028 C1029 1.377 . S
C1029 H1013 0.930 . S
C1029 C1028 1.377 . S
C1029 C1030 1.379 . S
C1030 H1014 0.931 . S
C1030 C1024 1.383 . S
C1030 C1029 1.379 . S
H1031 C1025 0.959 . S
H1032 C1025 0.961 . S
H1033 C1025 0.960 . S
H1034 C1026 0.930 . S
H1035 C1027 0.929 . S
H1036 C1044 0.929 . S
H1037 C1046 0.930 . S
H1038 C1048 0.930 . S
H1039 C1051 0.929 . S
H1040 C1054 0.930 . S
H1041 C1056 0.960 . S
H1042 C1056 0.960 . S
H1043 C1056 0.960 . S
C1044 H1036 0.929 . S
C1044 C1045 1.377 . S
C1044 C1046 1.384 . S
C1045 C1044 1.377 . S
C1045 C1051 1.390 . S
C1046 H1037 0.930 . S
C1046 C1044 1.384 . S
C1046 C1047 1.372 . S
C1047 C1046 1.372 . S
C1047 C1048 1.400 . S
C1047 C1052 1.490 . S
C1048 H1038 0.930 . S
C1048 C1047 1.400 . S
C1048 C1051 1.386 . S
H1049 C1065 0.930 . S
H1050 C1066 0.931 . S
C1051 H1039 0.929 . S
C1051 C1045 1.390 . S
C1051 C1048 1.386 . S
C1052 C1047 1.490 . S
C1052 C1054 1.395 . S
C1052 C1055 1.403 . S
H1053 C1059 0.930 . S
C1054 H1040 0.930 . S
C1054 C1052 1.395 . S
C1054 C1057 1.403 . S
C1055 C1052 1.403 . S
C1055 C1056 1.524 . S
C1055 C1059 1.400 . S
C1056 H1041 0.960 . S
C1056 H1042 0.960 . S
C1056 H1043 0.960 . S
C1056 C1055 1.524 . S
C1057 C1054 1.403 . S
C1057 C1058 1.392 . S
C1057 C1061 1.495 . S
C1058 C1057 1.392 . S
C1058 C1059 1.385 . S
C1058 C1060 1.478 . S
C1059 H1053 0.930 . S
C1059 C1055 1.400 . S
C1059 C1058 1.385 . S
C1060 C1058 1.478 . S
C1060 C1062 1.381 . S
C1060 C1066 1.383 . S
C1061 C1057 1.495 . S
C1061 H1067 0.959 . S
C1061 H1068 0.961 . S
C1061 H1069 0.960 . S
C1062 C1060 1.381 . S
C1062 C1063 1.394 . S
C1062 H1070 0.930 . S
C1063 C1062 1.394 . S
C1063 C1064 1.383 . S
C1063 H1071 0.929 . S
C1064 C1063 1.383 . S
C1064 C1065 1.377 . S
C1065 H1049 0.930 . S
C1065 C1064 1.377 . S
C1065 C1066 1.379 . S
C1066 H1050 0.931 . S
C1066 C1060 1.383 . S
C1066 C1065 1.379 . S
H1067 C1061 0.959 . S
H1068 C1061 0.961 . S
H1069 C1061 0.960 . S
H1070 C1062 0.930 . S
H1071 C1063 0.929 . S
H1072 C1080 0.929 . S
H1073 C1082 0.930 . S
H1074 C1084 0.930 1_565 S
H1075 C1087 0.929 1_565 S
H1076 C1090 0.930 . S
H1077 C1092 0.960 . S
H1078 C1092 0.960 . S
H1079 C1092 0.960 . S
C1080 H1072 0.929 . S
C1080 C1081 1.377 . S
C1080 C1082 1.384 . S
C1081 C1080 1.377 . S
C1081 C1087 1.390 . S
C1082 H1073 0.930 . S
C1082 C1080 1.384 . S
C1082 C1083 1.372 . S
C1083 C1082 1.372 . S
C1083 C1084 1.400 . S
C1083 C1088 1.490 . S
C1084 H1074 0.930 1_545 S
C1084 C1083 1.400 . S
C1084 C1087 1.386 . S
H1085 C1101 0.930 . S
H1086 C1102 0.931 . S
C1087 H1075 0.929 1_545 S
C1087 C1081 1.390 . S
C1087 C1084 1.386 . S
C1088 C1083 1.490 . S
C1088 C1090 1.395 . S
C1088 C1091 1.403 1_545 S
H1089 C1095 0.930 . S
C1090 H1076 0.930 . S
C1090 C1088 1.395 . S
C1090 C1093 1.403 . S
C1091 C1088 1.403 1_565 S
C1091 C1092 1.524 . S
C1091 C1095 1.400 . S
C1092 H1077 0.960 . S
C1092 H1078 0.960 . S
C1092 H1079 0.960 . S
C1092 C1091 1.524 . S
C1093 C1090 1.403 . S
C1093 C1094 1.392 1_545 S
C1093 C1097 1.495 . S
C1094 C1093 1.392 1_565 S
C1094 C1095 1.385 . S
C1094 C1096 1.478 . S
C1095 H1089 0.930 . S
C1095 C1091 1.400 . S
C1095 C1094 1.385 . S
C1096 C1094 1.478 . S
C1096 C1098 1.383 1_565 S
C1096 C1102 1.383 . S
C1097 C1093 1.495 . S
C1097 H1103 0.959 . S
C1097 H1104 0.961 . S
C1097 H1105 0.960 . S
C1098 C1096 1.383 1_545 S
C1098 C1099 1.395 1_545 S
C1098 H1106 0.927 . S
C1099 C1098 1.395 1_565 S
C1099 C1100 1.383 . S
C1099 H1107 0.929 . S
C1100 C1099 1.383 . S
C1100 C1101 1.377 . S
C1101 H1085 0.930 . S
C1101 C1100 1.377 . S
C1101 C1102 1.379 . S
C1102 H1086 0.931 . S
C1102 C1096 1.383 . S
C1102 C1101 1.379 . S
H1103 C1097 0.959 . S
H1104 C1097 0.961 . S
H1105 C1097 0.960 . S
H1106 C1098 0.927 . S
H1107 C1099 0.929 . S
H1108 C1116 0.929 . S
H1109 C1118 0.930 . S
H1110 C1120 0.930 . S
H1111 C1123 0.929 . S
H1112 C1126 0.930 . S
H1113 C1128 0.960 . S
H1114 C1128 0.960 . S
H1115 C1128 0.960 . S
C1116 H1108 0.929 . S
C1116 C1117 1.377 . S
C1116 C1118 1.384 . S
C1117 C1116 1.377 . S
C1117 C1123 1.390 . S
C1118 H1109 0.930 . S
C1118 C1116 1.384 . S
C1118 C1119 1.372 . S
C1119 C1118 1.372 . S
C1119 C1120 1.400 . S
C1119 C1124 1.490 . S
C1120 H1110 0.930 . S
C1120 C1119 1.400 . S
C1120 C1123 1.386 . S
H1121 C1137 0.930 . S
H1122 C1138 0.931 . S
C1123 H1111 0.929 . S
C1123 C1117 1.390 . S
C1123 C1120 1.386 . S
C1124 C1119 1.490 . S
C1124 C1126 1.395 . S
C1124 C1127 1.403 1_545 S
H1125 C1131 0.930 . S
C1126 H1112 0.930 . S
C1126 C1124 1.395 . S
C1126 C1129 1.403 . S
C1127 C1124 1.403 1_565 S
C1127 C1128 1.524 . S
C1127 C1131 1.400 . S
C1128 H1113 0.960 . S
C1128 H1114 0.960 . S
C1128 H1115 0.960 . S
C1128 C1127 1.524 . S
C1129 C1126 1.403 . S
C1129 C1130 1.392 1_545 S
C1129 C1133 1.495 . S
C1130 C1129 1.392 1_565 S
C1130 C1131 1.385 . S
C1130 C1132 1.478 . S
C1131 H1125 0.930 . S
C1131 C1127 1.400 . S
C1131 C1130 1.385 . S
C1132 C1130 1.478 . S
C1132 C1134 1.381 . S
C1132 C1138 1.383 . S
C1133 C1129 1.495 . S
C1133 H1139 0.959 . S
C1133 H1140 0.961 . S
C1133 H1141 0.960 . S
C1134 C1132 1.381 . S
C1134 C1135 1.394 . S
C1134 H1142 0.930 . S
C1135 C1134 1.394 . S
C1135 C1136 1.383 . S
C1135 H1143 0.929 . S
C1136 C1135 1.383 . S
C1136 C1137 1.377 . S
C1137 H1121 0.930 . S
C1137 C1136 1.377 . S
C1137 C1138 1.379 . S
C1138 H1122 0.931 . S
C1138 C1132 1.383 . S
C1138 C1137 1.379 . S
H1139 C1133 0.959 . S
H1140 C1133 0.961 . S
H1141 C1133 0.960 . S
H1142 C1134 0.930 . S
H1143 C1135 0.929 . S
H1144 C1152 0.930 1_565 S
H1145 C1154 0.930 1_565 S
H1146 C1156 0.930 . S
H1147 C1159 0.929 . S
H1148 C1162 0.930 . S
H1149 C1164 0.960 . S
H1150 C1164 0.960 . S
H1151 C1164 0.960 . S
C1152 H1144 0.930 1_545 S
C1152 C1153 1.377 . S
C1152 C1154 1.384 . S
C1153 C1152 1.377 . S
C1153 C1159 1.390 . S
C1154 H1145 0.930 1_545 S
C1154 C1152 1.384 . S
C1154 C1155 1.372 . S
C1155 C1154 1.372 . S
C1155 C1156 1.400 . S
C1155 C1160 1.490 . S
C1156 H1146 0.930 . S
C1156 C1155 1.400 . S
C1156 C1159 1.386 . S
H1157 C1173 0.930 . S
H1158 C1174 0.931 1_545 S
C1159 H1147 0.929 . S
C1159 C1153 1.390 . S
C1159 C1156 1.386 . S
C1160 C1155 1.490 . S
C1160 C1162 1.395 1_545 S
C1160 C1163 1.403 . S
H1161 C1167 0.930 . S
C1162 H1148 0.930 . S
C1162 C1160 1.395 1_565 S
C1162 C1165 1.403 . S
C1163 C1160 1.403 . S
C1163 C1164 1.524 . S
C1163 C1167 1.400 . S
C1164 H1149 0.960 . S
C1164 H1150 0.960 . S
C1164 H1151 0.960 . S
C1164 C1163 1.524 . S
C1165 C1162 1.403 . S
C1165 C1166 1.392 . S
C1165 C1169 1.495 . S
C1166 C1165 1.392 . S
C1166 C1167 1.385 1_565 S
C1166 C1168 1.478 . S
C1167 H1161 0.930 . S
C1167 C1163 1.400 . S
C1167 C1166 1.385 1_545 S
C1168 C1166 1.478 . S
C1168 C1170 1.381 . S
C1168 C1174 1.383 . S
C1169 C1165 1.495 . S
C1169 H1175 0.959 . S
C1169 H1176 0.961 . S
C1169 H1177 0.960 . S
C1170 C1168 1.381 . S
C1170 C1171 1.394 . S
C1170 H1178 0.930 . S
C1171 C1170 1.394 . S
C1171 C1172 1.383 . S
C1171 H1179 0.929 . S
C1172 C1171 1.383 . S
C1172 C1173 1.377 . S
C1173 H1157 0.930 . S
C1173 C1172 1.377 . S
C1173 C1174 1.379 . S
C1174 H1158 0.931 1_565 S
C1174 C1168 1.383 . S
C1174 C1173 1.379 . S
H1175 C1169 0.959 . S
H1176 C1169 0.961 . S
H1177 C1169 0.960 . S
H1178 C1170 0.930 . S
H1179 C1171 0.929 . S
H1180 C1188 0.929 . S
H1181 C1190 0.930 . S
H1182 C1192 0.930 . S
H1183 C1195 0.929 . S
H1184 C1198 0.930 . S
H1185 C1200 0.960 . S
H1186 C1200 0.960 . S
H1187 C1200 0.960 . S
C1188 H1180 0.929 . S
C1188 C1189 1.377 . S
C1188 C1190 1.384 . S
C1189 C1188 1.377 . S
C1189 C1195 1.390 . S
C1190 H1181 0.930 . S
C1190 C1188 1.384 . S
C1190 C1191 1.372 . S
C1191 C1190 1.372 . S
C1191 C1192 1.400 . S
C1191 C1196 1.490 . S
C1192 H1182 0.930 . S
C1192 C1191 1.400 . S
C1192 C1195 1.386 . S
H1193 C1209 0.930 . S
H1194 C1210 0.931 . S
C1195 H1183 0.929 . S
C1195 C1189 1.390 . S
C1195 C1192 1.386 . S
C1196 C1191 1.490 . S
C1196 C1198 1.395 1_565 S
C1196 C1199 1.403 . S
H1197 C1203 0.930 . S
C1198 H1184 0.930 . S
C1198 C1196 1.395 1_545 S
C1198 C1201 1.403 . S
C1199 C1196 1.403 . S
C1199 C1200 1.524 . S
C1199 C1203 1.400 . S
C1200 H1185 0.960 . S
C1200 H1186 0.960 . S
C1200 H1187 0.960 . S
C1200 C1199 1.524 . S
C1201 C1198 1.403 . S
C1201 C1202 1.392 . S
C1201 C1205 1.495 . S
C1202 C1201 1.392 . S
C1202 C1203 1.385 1_545 S
C1202 C1204 1.478 . S
C1203 H1197 0.930 . S
C1203 C1199 1.400 . S
C1203 C1202 1.385 1_565 S
C1204 C1202 1.478 . S
C1204 C1206 1.381 . S
C1204 C1210 1.383 . S
C1205 C1201 1.495 . S
C1205 H1211 0.959 . S
C1205 H1212 0.961 . S
C1205 H1213 0.960 . S
C1206 C1204 1.381 . S
C1206 C1207 1.394 . S
C1206 H1214 0.930 . S
C1207 C1206 1.394 . S
C1207 C1208 1.383 . S
C1207 H1215 0.929 . S
C1208 C1207 1.383 . S
C1208 C1209 1.377 . S
C1209 H1193 0.930 . S
C1209 C1208 1.377 . S
C1209 C1210 1.379 . S
C1210 H1194 0.931 . S
C1210 C1204 1.383 . S
C1210 C1209 1.379 . S
H1211 C1205 0.959 . S
H1212 C1205 0.961 . S
H1213 C1205 0.960 . S
H1214 C1206 0.930 . S
H1215 C1207 0.929 . S
H1216 C1224 0.929 . S
H1217 C1226 0.930 . S
H1218 C1228 0.930 . S
H1219 C1231 0.929 . S
H1220 C1234 0.930 . S
H1221 C1236 0.960 . S
H1222 C1236 0.960 . S
H1223 C1236 0.960 . S
C1224 H1216 0.929 . S
C1224 C1225 1.377 . S
C1224 C1226 1.384 . S
C1225 C1224 1.377 . S
C1225 C1231 1.390 . S
C1226 H1217 0.930 . S
C1226 C1224 1.384 . S
C1226 C1227 1.372 . S
C1227 C1226 1.372 . S
C1227 C1228 1.400 . S
C1227 C1232 1.490 . S
C1228 H1218 0.930 . S
C1228 C1227 1.400 . S
C1228 C1231 1.386 . S
H1229 C1245 0.930 . S
H1230 C1246 0.931 . S
C1231 H1219 0.929 . S
C1231 C1225 1.390 . S
C1231 C1228 1.386 . S
C1232 C1227 1.490 . S
C1232 C1234 1.395 . S
C1232 C1235 1.403 . S
H1233 C1239 0.930 . S
C1234 H1220 0.930 . S
C1234 C1232 1.395 . S
C1234 C1237 1.403 . S
C1235 C1232 1.403 . S
C1235 C1236 1.524 . S
C1235 C1239 1.400 . S
C1236 H1221 0.960 . S
C1236 H1222 0.960 . S
C1236 H1223 0.960 . S
C1236 C1235 1.524 . S
C1237 C1234 1.403 . S
C1237 C1238 1.392 . S
C1237 C1241 1.495 . S
C1238 C1237 1.392 . S
C1238 C1239 1.385 . S
C1238 C1240 1.478 . S
C1239 H1233 0.930 . S
C1239 C1235 1.400 . S
C1239 C1238 1.385 . S
C1240 C1238 1.478 . S
C1240 C1242 1.381 . S
C1240 C1246 1.383 . S
C1241 C1237 1.495 . S
C1241 H1247 0.959 . S
C1241 H1248 0.961 . S
C1241 H1249 0.960 . S
C1242 C1240 1.381 . S
C1242 C1243 1.394 . S
C1242 H1250 0.930 . S
C1243 C1242 1.394 . S
C1243 C1244 1.383 . S
C1243 H1251 0.929 . S
C1244 C1243 1.383 . S
C1244 C1245 1.377 . S
C1245 H1229 0.930 . S
C1245 C1244 1.377 . S
C1245 C1246 1.379 . S
C1246 H1230 0.931 . S
C1246 C1240 1.383 . S
C1246 C1245 1.379 . S
H1247 C1241 0.959 . S
H1248 C1241 0.961 . S
H1249 C1241 0.960 . S
H1250 C1242 0.930 . S
H1251 C1243 0.929 . S
H1252 C1260 0.929 . S
H1253 C1262 0.930 . S
H1254 C1264 0.930 . S
H1255 C1267 0.929 . S
H1256 C1270 0.930 . S
H1257 C1272 0.960 . S
H1258 C1272 0.960 . S
H1259 C1272 0.960 . S
C1260 H1252 0.929 . S
C1260 C1261 1.377 . S
C1260 C1262 1.384 . S
C1261 C1260 1.377 . S
C1261 C1267 1.390 . S
C1262 H1253 0.930 . S
C1262 C1260 1.384 . S
C1262 C1263 1.372 . S
C1263 C1262 1.372 . S
C1263 C1264 1.400 . S
C1263 C1268 1.490 . S
C1264 H1254 0.930 . S
C1264 C1263 1.400 . S
C1264 C1267 1.386 . S
H1265 C1281 0.930 . S
H1266 C1282 0.931 . S
C1267 H1255 0.929 . S
C1267 C1261 1.390 . S
C1267 C1264 1.386 . S
C1268 C1263 1.490 . S
C1268 C1270 1.395 . S
C1268 C1271 1.403 . S
H1269 C1275 0.930 . S
C1270 H1256 0.930 . S
C1270 C1268 1.395 . S
C1270 C1273 1.403 . S
C1271 C1268 1.403 . S
C1271 C1272 1.524 . S
C1271 C1275 1.400 . S
C1272 H1257 0.960 . S
C1272 H1258 0.960 . S
C1272 H1259 0.960 . S
C1272 C1271 1.524 . S
C1273 C1270 1.403 . S
C1273 C1274 1.392 . S
C1273 C1277 1.495 . S
C1274 C1273 1.392 . S
C1274 C1275 1.385 . S
C1274 C1276 1.478 . S
C1275 H1269 0.930 . S
C1275 C1271 1.400 . S
C1275 C1274 1.385 . S
C1276 C1274 1.478 . S
C1276 C1278 1.381 . S
C1276 C1282 1.383 . S
C1277 C1273 1.495 . S
C1277 H1283 0.959 . S
C1277 H1284 0.961 . S
C1277 H1285 0.960 . S
C1278 C1276 1.381 . S
C1278 C1279 1.394 . S
C1278 H1286 0.930 . S
C1279 C1278 1.394 . S
C1279 C1280 1.383 . S
C1279 H1287 0.929 . S
C1280 C1279 1.383 . S
C1280 C1281 1.377 . S
C1281 H1265 0.930 . S
C1281 C1280 1.377 . S
C1281 C1282 1.379 . S
C1282 H1266 0.931 . S
C1282 C1276 1.383 . S
C1282 C1281 1.379 . S
H1283 C1277 0.959 . S
H1284 C1277 0.961 . S
H1285 C1277 0.960 . S
H1286 C1278 0.930 . S
H1287 C1279 0.929 . S
H1288 C1296 0.929 . S
H1289 C1298 0.930 . S
H1290 C1300 0.930 . S
H1291 C1303 0.929 . S
H1292 C1306 0.930 . S
H1293 C1308 0.960 . S
H1294 C1308 0.960 . S
H1295 C1308 0.960 . S
C1296 H1288 0.929 . S
C1296 C1297 1.377 . S
C1296 C1298 1.384 . S
C1297 C1296 1.377 . S
C1297 C1303 1.390 . S
C1298 H1289 0.930 . S
C1298 C1296 1.384 . S
C1298 C1299 1.372 . S
C1299 C1298 1.372 . S
C1299 C1300 1.400 . S
C1299 C1304 1.490 . S
C1300 H1290 0.930 . S
C1300 C1299 1.400 . S
C1300 C1303 1.386 . S
H1301 C1317 0.930 . S
H1302 C1318 0.931 . S
C1303 H1291 0.929 . S
C1303 C1297 1.390 . S
C1303 C1300 1.386 . S
C1304 C1299 1.490 . S
C1304 C1306 1.395 . S
C1304 C1307 1.403 . S
H1305 C1311 0.930 . S
C1306 H1292 0.930 . S
C1306 C1304 1.395 . S
C1306 C1309 1.403 . S
C1307 C1304 1.403 . S
C1307 C1308 1.524 . S
C1307 C1311 1.400 . S
C1308 H1293 0.960 . S
C1308 H1294 0.960 . S
C1308 H1295 0.960 . S
C1308 C1307 1.524 . S
C1309 C1306 1.403 . S
C1309 C1310 1.392 . S
C1309 C1313 1.495 . S
C1310 C1309 1.392 . S
C1310 C1311 1.385 . S
C1310 C1312 1.478 . S
C1311 H1305 0.930 . S
C1311 C1307 1.400 . S
C1311 C1310 1.385 . S
C1312 C1310 1.478 . S
C1312 C1314 1.381 . S
C1312 C1318 1.383 . S
C1313 C1309 1.495 . S
C1313 H1319 0.959 . S
C1313 H1320 0.961 . S
C1313 H1321 0.960 . S
C1314 C1312 1.381 . S
C1314 C1315 1.394 . S
C1314 H1322 0.930 . S
C1315 C1314 1.394 . S
C1315 C1316 1.383 . S
C1315 H1323 0.929 . S
C1316 C1315 1.383 . S
C1316 C1317 1.377 . S
C1317 H1301 0.930 . S
C1317 C1316 1.377 . S
C1317 C1318 1.379 . S
C1318 H1302 0.931 . S
C1318 C1312 1.383 . S
C1318 C1317 1.379 . S
H1319 C1313 0.959 . S
H1320 C1313 0.961 . S
H1321 C1313 0.960 . S
H1322 C1314 0.930 . S
H1323 C1315 0.929 . S
H1324 C1332 0.929 . S
H1325 C1334 0.930 . S
H1326 C1336 0.930 . S
H1327 C1339 0.929 . S
H1328 C1342 0.930 . S
H1329 C1344 0.960 . S
H1330 C1344 0.960 . S
H1331 C1344 0.960 . S
C1332 H1324 0.929 . S
C1332 C1333 1.377 . S
C1332 C1334 1.384 . S
C1333 C1332 1.377 . S
C1333 C1339 1.390 . S
C1334 H1325 0.930 . S
C1334 C1332 1.384 . S
C1334 C1335 1.372 . S
C1335 C1334 1.372 . S
C1335 C1336 1.400 . S
C1335 C1340 1.490 . S
C1336 H1326 0.930 . S
C1336 C1335 1.400 . S
C1336 C1339 1.386 . S
H1337 C1353 0.930 . S
H1338 C1354 0.931 . S
C1339 H1327 0.929 . S
C1339 C1333 1.390 . S
C1339 C1336 1.386 . S
C1340 C1335 1.490 . S
C1340 C1342 1.395 . S
C1340 C1343 1.403 . S
H1341 C1347 0.930 . S
C1342 H1328 0.930 . S
C1342 C1340 1.395 . S
C1342 C1345 1.403 . S
C1343 C1340 1.403 . S
C1343 C1344 1.524 . S
C1343 C1347 1.400 . S
C1344 H1329 0.960 . S
C1344 H1330 0.960 . S
C1344 H1331 0.960 . S
C1344 C1343 1.524 . S
C1345 C1342 1.403 . S
C1345 C1346 1.392 . S
C1345 C1349 1.495 . S
C1346 C1345 1.392 . S
C1346 C1347 1.385 . S
C1346 C1348 1.478 . S
C1347 H1341 0.930 . S
C1347 C1343 1.400 . S
C1347 C1346 1.385 . S
C1348 C1346 1.478 . S
C1348 C1350 1.381 . S
C1348 C1354 1.383 . S
C1349 C1345 1.495 . S
C1349 H1355 0.959 . S
C1349 H1356 0.961 . S
C1349 H1357 0.960 . S
C1350 C1348 1.381 . S
C1350 C1351 1.394 . S
C1350 H1358 0.930 . S
C1351 C1350 1.394 . S
C1351 C1352 1.383 . S
C1351 H1359 0.929 . S
C1352 C1351 1.383 . S
C1352 C1353 1.377 . S
C1353 H1337 0.930 . S
C1353 C1352 1.377 . S
C1353 C1354 1.379 . S
C1354 H1338 0.931 . S
C1354 C1348 1.383 . S
C1354 C1353 1.379 . S
H1355 C1349 0.959 . S
H1356 C1349 0.961 . S
H1357 C1349 0.960 . S
H1358 C1350 0.930 . S
H1359 C1351 0.929 . S
C217 C4 1.305 . S
C236 C69 1.298 . S
C253 C62 1.301 . S
C272 C23 1.313 . S
C289 C30 1.298 . S
C308 C101 1.311 . S
C325 C82 1.305 . S
C344 C43 1.286 . S
C361 C179 1.299 . S
C380 C114 1.314 . S
C397 C160 1.303 . S
C416 C121 1.310 . S
C433 C205 1.298 . S
C452 C134 1.306 . S
C469 C153 1.301 . S
C488 C186 1.285 . S
C505 C18 1.515 . S
C524 C3 1.506 . S
C541 C29 1.513 . S
C560 C42 1.516 . S
C577 C57 1.515 . S
C596 C68 1.516 . S
C613 C81 1.515 . S
C632 C96 1.514 . S
C649 C109 1.515 . S
C668 C120 1.507 . S
C685 C148 1.515 . S
C704 C133 1.506 . S
C721 C174 1.513 . S
C740 C159 1.508 . S
C757 C185 1.514 . S
C776 C200 1.513 . S
C793 C127 1.503 . S
C812 C10 1.497 . S
C829 C17 1.502 . S
C848 C108 1.502 . S
C865 C147 1.503 . S
C884 C36 1.500 . S
C901 C49 1.502 . S
C920 C140 1.503 . S
C937 C56 1.503 . S
C956 C173 1.497 . S
C973 C166 1.502 . S
C992 C75 1.501 . S
C1009 C88 1.502 . S
C1028 C199 1.501 . S
C1045 C192 1.502 . S
C1064 C95 1.498 . S
C1081 C5 1.211 . S
C1100 C31 1.209 . S
C1117 C44 1.212 . S
C1136 C16 1.224 . S
C1153 C83 1.212 . S
C1172 C55 1.186 . S
C1189 C94 1.209 . S
C1208 C70 1.194 . S
C1225 C135 1.204 . S
C1244 C107 1.191 . S
C1261 C122 1.205 . S
C1280 C146 1.204 . S
C1297 C187 1.212 . S
C1316 C161 1.187 . S
C1333 C172 1.208 . S
C1352 C198 1.216 . S
