# Generated by pormake.
# Topology uoy, (4)-cn, num edge types: 1
# Building blocks:
#     Node 0, Type 0, BuildingBlock: GALJAG_clean_sbu_0, # of connection points: 4
#     Node 1, Type 0, BuildingBlock: GALJAG_clean_sbu_0, # of connection points: 4
#     Node 2, Type 0, BuildingBlock: GALJAG_clean_sbu_0, # of connection points: 4
#     Node 3, Type 0, BuildingBlock: GALJAG_clean_sbu_0, # of connection points: 4
#     Node 4, Type 0, BuildingBlock: GALJAG_clean_sbu_0, # of connection points: 4
#     Node 5, Type 0, BuildingBlock: GALJAG_clean_sbu_0, # of connection points: 4
#     Node 6, Type 0, BuildingBlock: GALJAG_clean_sbu_0, # of connection points: 4
#     Node 7, Type 0, BuildingBlock: GALJAG_clean_sbu_0, # of connection points: 4
#     Node 8, Type 0, BuildingBlock: GALJAG_clean_sbu_0, # of connection points: 4
#     Node 9, Type 0, BuildingBlock: GALJAG_clean_sbu_0, # of connection points: 4
#     Node 10, Type 0, BuildingBlock: GALJAG_clean_sbu_0, # of connection points: 4
#     Node 11, Type 0, BuildingBlock: GALJAG_clean_sbu_0, # of connection points: 4
#     Node 12, Type 0, BuildingBlock: GALJAG_clean_sbu_0, # of connection points: 4
#     Node 13, Type 0, BuildingBlock: GALJAG_clean_sbu_0, # of connection points: 4
#     Node 14, Type 0, BuildingBlock: GALJAG_clean_sbu_0, # of connection points: 4
#     Node 15, Type 0, BuildingBlock: GALJAG_clean_sbu_0, # of connection points: 4
#     Edge 16, Type (0, 0), BuildingBlock: AJUNOK_clean_linker_0, # of connection points: 2
#     Edge 17, Type (0, 0), BuildingBlock: AJUNOK_clean_linker_0, # of connection points: 2
#     Edge 18, Type (0, 0), BuildingBlock: AJUNOK_clean_linker_0, # of connection points: 2
#     Edge 19, Type (0, 0), BuildingBlock: AJUNOK_clean_linker_0, # of connection points: 2
#     Edge 20, Type (0, 0), BuildingBlock: AJUNOK_clean_linker_0, # of connection points: 2
#     Edge 21, Type (0, 0), BuildingBlock: AJUNOK_clean_linker_0, # of connection points: 2
#     Edge 22, Type (0, 0), BuildingBlock: AJUNOK_clean_linker_0, # of connection points: 2
#     Edge 23, Type (0, 0), BuildingBlock: AJUNOK_clean_linker_0, # of connection points: 2
#     Edge 24, Type (0, 0), BuildingBlock: AJUNOK_clean_linker_0, # of connection points: 2
#     Edge 25, Type (0, 0), BuildingBlock: AJUNOK_clean_linker_0, # of connection points: 2
#     Edge 26, Type (0, 0), BuildingBlock: AJUNOK_clean_linker_0, # of connection points: 2
#     Edge 27, Type (0, 0), BuildingBlock: AJUNOK_clean_linker_0, # of connection points: 2
#     Edge 28, Type (0, 0), BuildingBlock: AJUNOK_clean_linker_0, # of connection points: 2
#     Edge 29, Type (0, 0), BuildingBlock: AJUNOK_clean_linker_0, # of connection points: 2
#     Edge 30, Type (0, 0), BuildingBlock: AJUNOK_clean_linker_0, # of connection points: 2
#     Edge 31, Type (0, 0), BuildingBlock: AJUNOK_clean_linker_0, # of connection points: 2
#     Edge 32, Type (0, 0), BuildingBlock: AJUNOK_clean_linker_0, # of connection points: 2
#     Edge 33, Type (0, 0), BuildingBlock: AJUNOK_clean_linker_0, # of connection points: 2
#     Edge 34, Type (0, 0), BuildingBlock: AJUNOK_clean_linker_0, # of connection points: 2
#     Edge 35, Type (0, 0), BuildingBlock: AJUNOK_clean_linker_0, # of connection points: 2
#     Edge 36, Type (0, 0), BuildingBlock: AJUNOK_clean_linker_0, # of connection points: 2
#     Edge 37, Type (0, 0), BuildingBlock: AJUNOK_clean_linker_0, # of connection points: 2
#     Edge 38, Type (0, 0), BuildingBlock: AJUNOK_clean_linker_0, # of connection points: 2
#     Edge 39, Type (0, 0), BuildingBlock: AJUNOK_clean_linker_0, # of connection points: 2
#     Edge 40, Type (0, 0), BuildingBlock: AJUNOK_clean_linker_0, # of connection points: 2
#     Edge 41, Type (0, 0), BuildingBlock: AJUNOK_clean_linker_0, # of connection points: 2
#     Edge 42, Type (0, 0), BuildingBlock: AJUNOK_clean_linker_0, # of connection points: 2
#     Edge 43, Type (0, 0), BuildingBlock: AJUNOK_clean_linker_0, # of connection points: 2
#     Edge 44, Type (0, 0), BuildingBlock: AJUNOK_clean_linker_0, # of connection points: 2
#     Edge 45, Type (0, 0), BuildingBlock: AJUNOK_clean_linker_0, # of connection points: 2
#     Edge 46, Type (0, 0), BuildingBlock: AJUNOK_clean_linker_0, # of connection points: 2
#     Edge 47, Type (0, 0), BuildingBlock: AJUNOK_clean_linker_0, # of connection points: 2
# Relax obj value: 0.037
# Max RMSD: 0.056
# Mean RMSD: 0.056
data_MOF--net-uoy--node1-GALJAG_clean_sbu_0--edge1-AJUNOK_clean_linker_0
_symmetry_space_group_name_H-M    P1
_symmetry_Int_Tables_number       1
_symmetry_cell_setting            triclinic
loop_
_symmetry_equiv_pos_as_xyz
'x, y, z'
_cell_length_a     20.348329
_cell_length_b     20.342389
_cell_length_c     80.807868
_cell_angle_alpha  89.982894
_cell_angle_beta   89.98691
_cell_angle_gamma 89.996015
loop_
_atom_site_label
_atom_site_type_symbol
_atom_site_fract_x
_atom_site_fract_y
_atom_site_fract_z
_atom_type_partial_charge
In0 In 0.25011 0.11675 0.19052 0.0
O1 O 0.24561 0.21312 0.17606 0.0
O2 O 0.24425 0.12349 0.16253 0.0
C3 C 0.27012 0.15562 0.22197 0.0
C4 C 0.12909 0.06203 0.19151 0.0
C5 C 0.37009 0.06292 0.18643 0.0
O6 O 0.25316 0.19593 0.21085 0.0
O7 O 0.27426 0.09667 0.21731 0.0
O8 O 0.31854 0.02834 0.18757 0.0
O9 O 0.36043 0.12416 0.18702 0.0
C10 C 0.24333 0.18547 0.16206 0.0
O11 O 0.18024 0.02876 0.18857 0.0
O12 O 0.1395 0.12219 0.19416 0.0
In13 In 0.88555 0.754 0.44017 0.0
O14 O 0.97394 0.68455 0.44057 0.0
O15 O 0.87812 0.64281 0.44122 0.0
C16 C 0.94149 0.87413 0.43762 0.0
C17 C 0.82512 0.74524 0.41057 0.0
C18 C 0.8345 0.76615 0.47084 0.0
O19 O 0.97545 0.82213 0.43839 0.0
O20 O 0.88034 0.86487 0.43815 0.0
O21 O 0.8004 0.77422 0.45794 0.0
O22 O 0.89353 0.75038 0.46823 0.0
C23 C 0.93935 0.63289 0.44106 0.0
O24 O 0.79385 0.74326 0.42408 0.0
O25 O 0.8865 0.75132 0.4121 0.0
In26 In 0.2436 0.38746 0.69028 0.0
O27 O 0.25841 0.29568 0.67434 0.0
O28 O 0.24243 0.38703 0.66224 0.0
C29 C 0.23701 0.33826 0.72127 0.0
C30 C 0.3618 0.4471 0.69062 0.0
C31 C 0.12249 0.4412 0.68818 0.0
O32 O 0.22619 0.30324 0.70865 0.0
O33 O 0.25162 0.39719 0.71819 0.0
O34 O 0.17411 0.47577 0.68834 0.0
O35 O 0.13242 0.38019 0.68915 0.0
C36 C 0.25243 0.32615 0.66078 0.0
O37 O 0.30841 0.4789 0.69038 0.0
O38 O 0.35522 0.38537 0.69064 0.0
In39 In 0.61359 0.75084 0.9392 0.0
O40 O 0.52374 0.81785 0.93925 0.0
O41 O 0.61707 0.86224 0.94269 0.0
C42 C 0.55609 0.63278 0.93466 0.0
C43 C 0.67786 0.75843 0.91004 0.0
C44 C 0.65653 0.72931 0.97028 0.0
O45 O 0.52361 0.68562 0.93574 0.0
O46 O 0.61765 0.63993 0.93557 0.0
O47 O 0.69463 0.75091 0.95918 0.0
O48 O 0.59788 0.7211 0.96579 0.0
C49 C 0.55579 0.87023 0.94144 0.0
O50 O 0.70785 0.75185 0.92365 0.0
O51 O 0.61623 0.7617 0.91131 0.0
In52 In 0.25322 0.38706 0.06978 0.0
O53 O 0.25234 0.29336 0.08541 0.0
O54 O 0.24074 0.38523 0.09762 0.0
C55 C 0.27275 0.34434 0.03861 0.0
C56 C 0.13238 0.44097 0.06751 0.0
C57 C 0.37248 0.44146 0.07434 0.0
O58 O 0.25332 0.30598 0.04992 0.0
O59 O 0.28089 0.40316 0.04303 0.0
O60 O 0.32098 0.47589 0.07281 0.0
O61 O 0.36307 0.38016 0.07382 0.0
C62 C 0.24453 0.32358 0.09896 0.0
O63 O 0.18334 0.47534 0.06978 0.0
O64 O 0.14294 0.38014 0.06619 0.0
In65 In 0.62313 0.75242 0.31833 0.0
O66 O 0.5327 0.68646 0.31768 0.0
O67 O 0.6265 0.64045 0.31854 0.0
C68 C 0.5635 0.87087 0.32099 0.0
C69 C 0.69018 0.74459 0.34707 0.0
C70 C 0.67113 0.76143 0.28722 0.0
O71 O 0.53216 0.81739 0.32181 0.0
O72 O 0.62445 0.86426 0.31882 0.0
O73 O 0.705 0.77614 0.29977 0.0
O74 O 0.61391 0.74148 0.29041 0.0
C75 C 0.56487 0.63332 0.31798 0.0
O76 O 0.71793 0.73969 0.33314 0.0
O77 O 0.62882 0.75289 0.34642 0.0
In78 In 0.25332 0.12013 0.56911 0.0
O79 O 0.25161 0.21647 0.58358 0.0
O80 O 0.26394 0.12754 0.59703 0.0
C81 C 0.23589 0.16091 0.53769 0.0
C82 C 0.37421 0.06497 0.56788 0.0
C83 C 0.13354 0.06546 0.57307 0.0
O84 O 0.25573 0.19959 0.54886 0.0
O85 O 0.22662 0.10251 0.54234 0.0
O86 O 0.18516 0.03115 0.57166 0.0
O87 O 0.14305 0.12674 0.57283 0.0
C88 C 0.25882 0.18932 0.59753 0.0
O89 O 0.32316 0.03198 0.57113 0.0
O90 O 0.36377 0.12506 0.56513 0.0
In91 In 0.88504 0.75469 0.81842 0.0
O92 O 0.78876 0.75768 0.83295 0.0
O93 O 0.87825 0.75901 0.84647 0.0
C94 C 0.84403 0.7366 0.78703 0.0
C95 C 0.94355 0.87404 0.81766 0.0
C96 C 0.94311 0.63615 0.8215 0.0
O97 O 0.80453 0.75336 0.79834 0.0
O98 O 0.9031 0.73184 0.79149 0.0
O99 O 0.97526 0.68913 0.82042 0.0
O100 O 0.88145 0.6433 0.82155 0.0
C101 C 0.81631 0.75948 0.84696 0.0
O102 O 0.97451 0.82158 0.82057 0.0
O103 O 0.88292 0.86627 0.81508 0.0
In104 In 0.74406 0.61816 0.68975 0.0
O105 O 0.67315 0.53134 0.68862 0.0
O106 O 0.63321 0.62622 0.69297 0.0
C107 C 0.86189 0.55919 0.68645 0.0
C108 C 0.7402 0.68239 0.66058 0.0
C109 C 0.76341 0.65888 0.72104 0.0
O110 O 0.80867 0.52716 0.68712 0.0
O111 O 0.85515 0.62084 0.68705 0.0
O112 O 0.74862 0.69899 0.70967 0.0
O113 O 0.76554 0.59949 0.71667 0.0
C114 C 0.6223 0.56567 0.69102 0.0
O115 O 0.74484 0.71244 0.67424 0.0
O116 O 0.73723 0.62069 0.66181 0.0
In117 In 0.38417 0.2526 0.9402 0.0
O118 O 0.28754 0.25436 0.92583 0.0
O119 O 0.37625 0.24072 0.91235 0.0
C120 C 0.34541 0.26998 0.9718 0.0
C121 C 0.43851 0.13153 0.94161 0.0
C122 C 0.4382 0.37208 0.93532 0.0
O123 O 0.30598 0.25054 0.96075 0.0
O124 O 0.40348 0.27925 0.96691 0.0
O125 O 0.47267 0.32035 0.93619 0.0
O126 O 0.37713 0.36279 0.93668 0.0
C127 C 0.31451 0.24626 0.91188 0.0
O128 O 0.47257 0.18274 0.93934 0.0
O129 O 0.37782 0.14193 0.94329 0.0
In130 In 0.74933 0.88502 0.18926 0.0
O131 O 0.76489 0.79145 0.17424 0.0
O132 O 0.74732 0.88003 0.16108 0.0
C133 C 0.73825 0.83375 0.22001 0.0
C134 C 0.86837 0.9436 0.19006 0.0
C135 C 0.63077 0.94463 0.18689 0.0
O136 O 0.72617 0.80086 0.20713 0.0
O137 O 0.75716 0.89179 0.21734 0.0
O138 O 0.68418 0.97619 0.18639 0.0
O139 O 0.63749 0.8834 0.18853 0.0
C140 C 0.75821 0.81906 0.16034 0.0
O141 O 0.81521 0.97571 0.18993 0.0
O142 O 0.86127 0.88197 0.18972 0.0
In143 In 0.11774 0.25324 0.43981 0.0
O144 O 0.02749 0.31971 0.43834 0.0
O145 O 0.11945 0.36477 0.44315 0.0
C146 C 0.06012 0.1347 0.43607 0.0
C147 C 0.1876 0.25838 0.41142 0.0
C148 C 0.15919 0.23649 0.47125 0.0
O149 O 0.02781 0.18773 0.43666 0.0
O150 O 0.12166 0.14184 0.43696 0.0
O151 O 0.19744 0.25678 0.46003 0.0
O152 O 0.10094 0.22654 0.46663 0.0
C153 C 0.05853 0.37233 0.44101 0.0
O154 O 0.21447 0.25255 0.42543 0.0
O155 O 0.12576 0.26195 0.41182 0.0
In156 In 0.75421 0.88791 0.56877 0.0
O157 O 0.68816 0.97845 0.56796 0.0
O158 O 0.64222 0.88469 0.569 0.0
C159 C 0.8728 0.94738 0.5715 0.0
C160 C 0.74578 0.82053 0.59747 0.0
C161 C 0.7635 0.83883 0.53776 0.0
O162 O 0.81936 0.97881 0.57229 0.0
O163 O 0.86609 0.88644 0.56931 0.0
O164 O 0.778 0.80544 0.55041 0.0
O165 O 0.74374 0.89628 0.54079 0.0
C166 C 0.63503 0.9463 0.56833 0.0
O167 O 0.7401 0.79325 0.58351 0.0
O168 O 0.75532 0.88174 0.5969 0.0
In169 In 0.11731 0.25512 0.81891 0.0
O170 O 0.02852 0.18617 0.81846 0.0
O171 O 0.12419 0.14399 0.8183 0.0
C172 C 0.06131 0.37538 0.82024 0.0
C173 C 0.17773 0.24897 0.8486 0.0
C174 C 0.16919 0.26524 0.78831 0.0
O175 O 0.02746 0.32327 0.82086 0.0
O176 O 0.12232 0.36612 0.81907 0.0
O177 O 0.20244 0.27593 0.80123 0.0
O178 O 0.11063 0.24767 0.79087 0.0
C179 C 0.06292 0.13434 0.81822 0.0
O180 O 0.20853 0.24259 0.83511 0.0
O181 O 0.11677 0.25813 0.84702 0.0
In182 In 0.75162 0.61489 0.0684 0.0
O183 O 0.75321 0.71031 0.08355 0.0
O184 O 0.7635 0.61922 0.09617 0.0
C185 C 0.73294 0.65264 0.03675 0.0
C186 C 0.87111 0.5577 0.06677 0.0
C187 C 0.6332 0.55865 0.07331 0.0
O188 O 0.74783 0.69371 0.0479 0.0
O189 O 0.72985 0.59386 0.04159 0.0
O190 O 0.68596 0.52589 0.07288 0.0
O191 O 0.64052 0.61984 0.07146 0.0
C192 C 0.76042 0.68094 0.09724 0.0
O193 O 0.81876 0.52545 0.06888 0.0
O194 O 0.86304 0.61898 0.06537 0.0
In195 In 0.39151 0.25171 0.31936 0.0
O196 O 0.29735 0.25595 0.33484 0.0
O197 O 0.38928 0.25754 0.34734 0.0
C198 C 0.35056 0.23235 0.28807 0.0
C199 C 0.44598 0.3727 0.3179 0.0
C200 C 0.44549 0.13154 0.3228 0.0
O201 O 0.31066 0.24751 0.29946 0.0
O202 O 0.40995 0.22973 0.29243 0.0
O203 O 0.48001 0.18311 0.32159 0.0
O204 O 0.38424 0.14125 0.32261 0.0
C205 C 0.3275 0.25802 0.34853 0.0
O206 O 0.47939 0.32168 0.32089 0.0
O207 O 0.38563 0.36224 0.31553 0.0
C208 C 0.24786 0.22089 0.11596 0.0
C209 C 0.24188 0.28967 0.11519 0.0
C210 C 0.24754 0.18777 0.13117 0.0
C211 C 0.24147 0.2221 0.14622 0.0
H212 H 0.25335 0.19227 0.10474 0.0
H213 H 0.25286 0.13478 0.13109 0.0
S214 S 0.22208 0.40248 0.151 0.0
N215 N 0.22792 0.39103 0.13084 0.0
N216 N 0.22762 0.32868 0.15938 0.0
C217 C 0.23464 0.29083 0.14563 0.0
C218 C 0.23475 0.32461 0.13014 0.0
C219 C 0.72328 0.74326 0.39328 0.0
C220 C 0.79227 0.74251 0.39422 0.0
C221 C 0.6909 0.74329 0.37799 0.0
C222 C 0.72618 0.74223 0.363 0.0
H223 H 0.69388 0.74466 0.40446 0.0
H224 H 0.63768 0.74455 0.37794 0.0
S225 S 0.9077 0.73804 0.35861 0.0
N226 N 0.895 0.73931 0.37878 0.0
N227 N 0.83405 0.73908 0.35005 0.0
C228 C 0.7952 0.74042 0.36373 0.0
C229 C 0.82825 0.74066 0.37933 0.0
C230 C 0.26874 0.19216 0.62835 0.0
C231 C 0.25919 0.22612 0.61336 0.0
C232 C 0.26707 0.22497 0.64359 0.0
C233 C 0.25574 0.29306 0.64446 0.0
H234 H 0.27714 0.13958 0.62837 0.0
H235 H 0.27428 0.19652 0.65478 0.0
S236 S 0.22857 0.40508 0.60878 0.0
N237 N 0.23869 0.33194 0.60032 0.0
N238 N 0.23552 0.39365 0.62893 0.0
C239 C 0.24674 0.32782 0.62955 0.0
C240 C 0.24849 0.29436 0.61401 0.0
C241 C 0.814 0.75725 0.87789 0.0
C242 C 0.77958 0.76083 0.8628 0.0
C243 C 0.78081 0.757 0.89309 0.0
C244 C 0.71186 0.76053 0.89382 0.0
H245 H 0.86714 0.75407 0.878 0.0
H246 H 0.80951 0.75366 0.90435 0.0
S247 S 0.59861 0.77224 0.85786 0.0
N248 N 0.67262 0.76904 0.84954 0.0
N249 N 0.61018 0.7688 0.87806 0.0
C250 C 0.6768 0.76485 0.87882 0.0
C251 C 0.71065 0.76492 0.86333 0.0
C252 C 0.7473 0.81835 0.62841 0.0
C253 C 0.74255 0.78404 0.61333 0.0
C254 C 0.74586 0.78522 0.64362 0.0
C255 C 0.73972 0.71643 0.64435 0.0
H256 H 0.75251 0.87135 0.62851 0.0
H257 H 0.75009 0.8138 0.65488 0.0
S258 S 0.72471 0.60351 0.60841 0.0
N259 N 0.73071 0.67735 0.60008 0.0
N260 N 0.72808 0.61503 0.62861 0.0
C261 C 0.73438 0.6815 0.62936 0.0
C262 C 0.73577 0.71529 0.61387 0.0
C263 C 0.31162 0.23524 0.8811 0.0
C264 C 0.27762 0.24519 0.89606 0.0
C265 C 0.27884 0.23603 0.86586 0.0
C266 C 0.21068 0.24683 0.86495 0.0
H267 H 0.36425 0.22717 0.8811 0.0
H268 H 0.30736 0.22851 0.8547 0.0
S269 S 0.0985 0.27472 0.90054 0.0
N270 N 0.17168 0.26551 0.90904 0.0
N271 N 0.10997 0.26702 0.88041 0.0
C272 C 0.17586 0.25626 0.87983 0.0
C273 C 0.20932 0.25542 0.89537 0.0
C274 C 0.75235 0.78371 0.11419 0.0
C275 C 0.76288 0.71547 0.11339 0.0
C276 C 0.75161 0.81682 0.12942 0.0
C277 C 0.76147 0.78301 0.14442 0.0
H278 H 0.74376 0.81176 0.103 0.0
H279 H 0.7426 0.86931 0.1294 0.0
S280 S 0.79372 0.60435 0.14907 0.0
N281 N 0.7853 0.61539 0.12895 0.0
N282 N 0.78391 0.67761 0.15747 0.0
C283 C 0.77315 0.71493 0.14378 0.0
C284 C 0.77385 0.68119 0.12829 0.0
C285 C 0.19086 0.26378 0.38051 0.0
C286 C 0.22488 0.25966 0.39565 0.0
C287 C 0.2244 0.26359 0.36536 0.0
C288 C 0.29333 0.2595 0.36473 0.0
H289 H 0.13772 0.26675 0.38032 0.0
H290 H 0.19595 0.26649 0.35405 0.0
S291 S 0.40574 0.24832 0.40086 0.0
N292 N 0.33155 0.25177 0.40907 0.0
N293 N 0.39465 0.25161 0.38065 0.0
C294 C 0.32807 0.25586 0.37979 0.0
C295 C 0.29385 0.25588 0.39523 0.0
C296 C 0.25645 0.22524 0.24741 0.0
C297 C 0.2903 0.17574 0.23875 0.0
C298 C 0.27529 0.24304 0.26356 0.0
C299 C 0.32986 0.21338 0.27122 0.0
H300 H 0.21458 0.24942 0.24179 0.0
H301 H 0.24772 0.2808 0.26997 0.0
S302 S 0.4357 0.08261 0.25346 0.0
N303 N 0.38081 0.09782 0.23892 0.0
N304 N 0.41745 0.13254 0.26889 0.0
C305 C 0.36449 0.16459 0.26253 0.0
C306 C 0.34439 0.14544 0.24637 0.0
C307 C 0.84103 0.75052 0.50143 0.0
C308 C 0.80955 0.7792 0.48771 0.0
C309 C 0.82337 0.76757 0.51765 0.0
C310 C 0.77467 0.81506 0.52071 0.0
H311 H 0.88057 0.71557 0.49963 0.0
H312 H 0.85013 0.74552 0.52782 0.0
S313 S 0.67491 0.90201 0.48912 0.0
N314 N 0.72472 0.85458 0.47827 0.0
N315 N 0.69276 0.88795 0.50874 0.0
C316 C 0.74139 0.8426 0.50712 0.0
C317 C 0.75847 0.82426 0.49062 0.0
C318 C 0.18293 0.26303 0.74155 0.0
C319 C 0.22744 0.31436 0.73838 0.0
C320 C 0.16594 0.24586 0.75782 0.0
C321 C 0.19412 0.2783 0.77145 0.0
H322 H 0.15865 0.23802 0.73142 0.0
H323 H 0.12939 0.20787 0.75972 0.0
S324 S 0.31731 0.4125 0.76977 0.0
N325 N 0.30196 0.39518 0.75018 0.0
N326 N 0.27135 0.36168 0.78072 0.0
C327 C 0.24125 0.32735 0.76845 0.0
C328 C 0.25754 0.34574 0.75191 0.0
C329 C 0.73966 0.72975 0.01244 0.0
C330 C 0.71561 0.67136 0.0196 0.0
C331 C 0.72224 0.7478 0.9962 0.0
C332 C 0.67874 0.70894 0.98688 0.0
H333 H 0.77231 0.76145 0.0194 0.0
H334 H 0.74141 0.79314 0.99109 0.0
S335 S 0.60287 0.55131 0.99976 0.0
N336 N 0.64731 0.57423 0.01584 0.0
N337 N 0.6134 0.60918 0.98569 0.0
C338 C 0.65469 0.65054 0.99386 0.0
C339 C 0.67343 0.63147 0.01014 0.0
C340 C 0.34064 0.35496 0.01329 0.0
C341 C 0.28967 0.32255 0.02173 0.0
C342 C 0.35864 0.33656 0.99726 0.0
C343 C 0.32524 0.28618 0.98886 0.0
H344 H 0.36746 0.39455 0.0192 0.0
H345 H 0.3984 0.36293 0.9913 0.0
S346 S 0.18774 0.18625 0.00539 0.0
N347 N 0.20635 0.23707 0.02064 0.0
N348 N 0.23869 0.20397 0.99009 0.0
C349 C 0.27375 0.25357 0.99706 0.0
C350 C 0.25645 0.27128 0.01362 0.0
C351 C 0.74017 0.82246 0.26684 0.0
C352 C 0.69386 0.77285 0.27009 0.0
C353 C 0.75572 0.84052 0.25055 0.0
C354 C 0.72657 0.80866 0.23695 0.0
H355 H 0.76236 0.84963 0.27692 0.0
H356 H 0.78982 0.8807 0.24862 0.0
S357 S 0.60697 0.67119 0.23891 0.0
N358 N 0.62201 0.68937 0.25846 0.0
N359 N 0.65243 0.72212 0.22785 0.0
C360 C 0.6828 0.75661 0.24005 0.0
C361 C 0.66608 0.73905 0.25663 0.0
C362 C 0.14774 0.16938 0.49668 0.0
C363 C 0.18085 0.2197 0.48816 0.0
C364 C 0.16684 0.1505 0.51259 0.0
C365 C 0.21872 0.18232 0.52079 0.0
H366 H 0.10721 0.14352 0.49091 0.0
H367 H 0.13998 0.11119 0.51861 0.0
S368 S 0.32085 0.31774 0.50404 0.0
N369 N 0.26847 0.30086 0.48899 0.0
N370 N 0.3029 0.26687 0.51934 0.0
C371 C 0.25189 0.23332 0.51255 0.0
C372 C 0.23342 0.25153 0.4961 0.0
C373 C 0.75269 0.73205 0.74596 0.0
C374 C 0.78351 0.67927 0.73781 0.0
C375 C 0.77147 0.75014 0.7621 0.0
C376 C 0.82304 0.71735 0.77025 0.0
H377 H 0.71324 0.75867 0.73995 0.0
H378 H 0.74633 0.79054 0.76811 0.0
S379 S 0.9201 0.57702 0.75403 0.0
N380 N 0.86784 0.59474 0.73906 0.0
N381 N 0.90435 0.62991 0.769 0.0
C382 C 0.85458 0.66516 0.7621 0.0
C383 C 0.83449 0.64581 0.74596 0.0
C384 C 0.05388 0.96495 0.18954 0.0
C385 C 0.06213 0.03317 0.19146 0.0
C386 C 0.9911 0.93653 0.18917 0.0
C387 C 0.93401 0.97523 0.19061 0.0
H388 H 0.09624 0.93307 0.18829 0.0
H389 H 0.9874 0.88376 0.18764 0.0
S390 S 0.92854 0.1564 0.19596 0.0
N391 N 0.00763 0.13882 0.19493 0.0
N392 N 0.88986 0.08546 0.19414 0.0
C393 C 0.9415 0.04353 0.19257 0.0
C394 C 0.00546 0.07246 0.19303 0.0
C395 C 0.06535 0.49506 0.44248 0.0
C396 C 0.02663 0.4379 0.4413 0.0
C397 C 0.03675 0.5578 0.44243 0.0
C398 C 0.96824 0.56591 0.44128 0.0
H399 H 0.11836 0.49147 0.44333 0.0
H400 H 0.06871 0.60024 0.44328 0.0
S401 S 0.8447 0.43201 0.43816 0.0
N402 N 0.91599 0.39349 0.43909 0.0
N403 N 0.86223 0.51114 0.43907 0.0
C404 C 0.92885 0.50912 0.44022 0.0
C405 C 0.95802 0.44524 0.44021 0.0
C406 C 0.48436 0.44021 0.68981 0.0
C407 C 0.42727 0.47905 0.69089 0.0
C408 C 0.54705 0.46867 0.68993 0.0
C409 C 0.55527 0.53713 0.69122 0.0
H410 H 0.48076 0.38724 0.68878 0.0
H411 H 0.58939 0.4366 0.68899 0.0
S412 S 0.42169 0.66086 0.69454 0.0
N413 N 0.38301 0.58969 0.69339 0.0
N414 N 0.5008 0.64321 0.69369 0.0
C415 C 0.49863 0.57662 0.6924 0.0
C416 C 0.43468 0.5476 0.69221 0.0
C417 C 0.5357 0.05597 0.94219 0.0
C418 C 0.46711 0.06447 0.94196 0.0
C419 C 0.56385 0.99301 0.94226 0.0
C420 C 0.52453 0.93607 0.94198 0.0
H421 H 0.56804 0.09827 0.94229 0.0
H422 H 0.61694 0.98907 0.94235 0.0
S423 S 0.34216 0.93132 0.94142 0.0
N424 N 0.3604 0.01037 0.9416 0.0
N425 N 0.41328 0.89234 0.94162 0.0
C426 C 0.45584 0.94385 0.94184 0.0
C427 C 0.42716 0.00793 0.94187 0.0
C428 C 0.05676 0.53798 0.06655 0.0
C429 C 0.06534 0.46939 0.06684 0.0
C430 C 0.9938 0.56603 0.06629 0.0
C431 C 0.93696 0.52658 0.06645 0.0
H432 H 0.09898 0.57041 0.06655 0.0
H433 H 0.98976 0.61912 0.06616 0.0
S434 S 0.93247 0.34414 0.06707 0.0
N435 N 0.01146 0.36254 0.0671 0.0
N436 N 0.8934 0.41522 0.06674 0.0
C437 C 0.94482 0.45788 0.06664 0.0
C438 C 0.00891 0.42931 0.0668 0.0
C439 C 0.57129 0.51085 0.32037 0.0
C440 C 0.53323 0.56766 0.3177 0.0
C441 C 0.54274 0.44811 0.32033 0.0
C442 C 0.47503 0.4396 0.31755 0.0
H443 H 0.62361 0.51478 0.32264 0.0
H444 H 0.57409 0.40599 0.32257 0.0
S445 S 0.35386 0.57235 0.3094 0.0
N446 N 0.42435 0.61125 0.31188 0.0
N447 N 0.37074 0.49353 0.31173 0.0
C448 C 0.43645 0.49597 0.31469 0.0
C449 C 0.46552 0.55991 0.3148 0.0
C450 C 0.51249 0.93972 0.57059 0.0
C451 C 0.56931 0.97787 0.568 0.0
C452 C 0.44969 0.9682 0.57046 0.0
C453 C 0.44113 0.03591 0.56766 0.0
H454 H 0.51644 0.88738 0.57285 0.0
H455 H 0.40757 0.93678 0.57263 0.0
S456 S 0.57391 0.15737 0.55979 0.0
N457 N 0.61284 0.08689 0.5623 0.0
N458 N 0.49507 0.14035 0.56197 0.0
C459 C 0.49753 0.07458 0.5649 0.0
C460 C 0.5615 0.04561 0.5651 0.0
C461 C 0.96527 0.05955 0.81702 0.0
C462 C 0.03386 0.06748 0.81791 0.0
C463 C 0.93659 0.99685 0.8168 0.0
C464 C 0.97535 0.93961 0.81756 0.0
H465 H 0.93331 0.10209 0.8165 0.0
H466 H 0.88353 0.99333 0.81617 0.0
S467 S 0.15747 0.93323 0.81973 0.0
N468 N 0.13997 0.01243 0.81932 0.0
N469 N 0.08606 0.89489 0.819 0.0
C470 C 0.04402 0.94678 0.81838 0.0
C471 C 0.07326 0.01059 0.81853 0.0
C472 C 0.5081 0.93732 0.18715 0.0
C473 C 0.56516 0.97623 0.18597 0.0
C474 C 0.44529 0.96563 0.18692 0.0
C475 C 0.43694 0.03402 0.18553 0.0
H476 H 0.51182 0.88446 0.18846 0.0
H477 H 0.40303 0.93361 0.18813 0.0
S478 S 0.5703 0.15768 0.18135 0.0
N479 N 0.60913 0.08668 0.18282 0.0
N480 N 0.49125 0.13996 0.1824 0.0
C481 C 0.49354 0.07348 0.18402 0.0
C482 C 0.55756 0.04459 0.18424 0.0
C483 C 0.03919 0.94901 0.43632 0.0
C484 C 0.97056 0.94089 0.43648 0.0
C485 C 0.06765 0.01182 0.43582 0.0
C486 C 0.0286 0.06898 0.43547 0.0
H487 H 0.07133 0.90659 0.43676 0.0
H488 H 0.12075 0.01549 0.43596 0.0
S489 S 0.84625 0.07467 0.43515 0.0
N490 N 0.86412 0.99559 0.43582 0.0
N491 N 0.91759 0.11323 0.43489 0.0
C492 C 0.9599 0.06154 0.43532 0.0
C493 C 0.93091 0.99764 0.43584 0.0
C494 C 0.0473 0.5384 0.68695 0.0
C495 C 0.05559 0.46979 0.68711 0.0
C496 C 0.98452 0.5667 0.68641 0.0
C497 C 0.92749 0.52753 0.68601 0.0
H498 H 0.08959 0.57069 0.68741 0.0
H499 H 0.98079 0.61981 0.68654 0.0
S500 S 0.92225 0.34515 0.68559 0.0
N501 N 1.00127 0.36317 0.68635 0.0
N502 N 0.88347 0.41641 0.68535 0.0
C503 C 0.93505 0.45882 0.68587 0.0
C504 C 0.99901 0.42996 0.68643 0.0
C505 C 0.53566 0.44715 0.93415 0.0
C506 C 0.46706 0.43881 0.93383 0.0
C507 C 0.56397 0.51002 0.93399 0.0
C508 C 0.52481 0.56707 0.93351 0.0
H509 H 0.56788 0.40485 0.93487 0.0
H510 H 0.61701 0.51381 0.9346 0.0
S511 S 0.34263 0.57221 0.93151 0.0
N512 N 0.36061 0.49315 0.93224 0.0
N513 N 0.41382 0.61102 0.93196 0.0
C514 C 0.45619 0.55944 0.93271 0.0
C515 C 0.42734 0.49543 0.93287 0.0
C516 C 0.51056 0.56693 0.07362 0.0
C517 C 0.56746 0.52787 0.07491 0.0
C518 C 0.44767 0.53879 0.07391 0.0
C519 C 0.43917 0.47047 0.0755 0.0
H520 H 0.5145 0.61965 0.07203 0.0
H521 H 0.4055 0.57081 0.07251 0.0
S522 S 0.57207 0.34678 0.08046 0.0
N523 N 0.61109 0.41755 0.07869 0.0
N524 N 0.4931 0.36466 0.07925 0.0
C525 C 0.4956 0.431 0.07732 0.0
C526 C 0.55965 0.45968 0.07702 0.0
C527 C 0.54253 0.05633 0.32134 0.0
C528 C 0.47441 0.06466 0.32335 0.0
C529 C 0.57074 0.99353 0.32076 0.0
C530 C 0.53201 0.93644 0.3222 0.0
H531 H 0.57438 0.09863 0.31992 0.0
H532 H 0.62338 0.98983 0.31899 0.0
S533 S 0.35138 0.93122 0.32843 0.0
N534 N 0.36897 0.01031 0.32734 0.0
N535 N 0.42209 0.89238 0.32628 0.0
C536 C 0.46395 0.944 0.32455 0.0
C537 C 0.43515 0.00803 0.32512 0.0
C538 C 0.9955 0.94004 0.57127 0.0
C539 C 0.93843 0.97879 0.57274 0.0
C540 C 0.05833 0.96825 0.5718 0.0
C541 C 0.0667 0.0364 0.5738 0.0
H542 H 0.99177 0.8874 0.56948 0.0
H543 H 0.1006 0.9364 0.57032 0.0
S544 S 0.93334 0.15942 0.57906 0.0
N545 N 0.89448 0.08872 0.5769 0.0
N546 N 0.01239 0.14182 0.57789 0.0
C547 C 0.01009 0.07563 0.57565 0.0
C548 C 0.94605 0.04684 0.57512 0.0
C549 C 0.93669 0.51371 0.82442 0.0
C550 C 0.97478 0.57052 0.82172 0.0
C551 C 0.96494 0.45079 0.82397 0.0
C552 C 0.03236 0.44227 0.82078 0.0
H553 H 0.88448 0.51775 0.82683 0.0
H554 H 0.93364 0.40857 0.82612 0.0
S555 S 0.15338 0.57499 0.8124 0.0
N556 N 0.08334 0.61399 0.81548 0.0
N557 N 0.13637 0.49616 0.8146 0.0
C558 C 0.07101 0.4987 0.81805 0.0
C559 C 0.04227 0.56269 0.81854 0.0
loop_
_geom_bond_atom_site_label_1
_geom_bond_atom_site_label_2
_geom_bond_distance
_geom_bond_site_symmetry_2
_ccdc_geom_bond_type
In0 O1 2.294 . S
In0 O2 2.326 . S
In0 O6 2.266 . S
In0 O7 2.326 . S
In0 O8 2.266 . S
In0 O9 2.326 . S
In0 O11 2.294 . S
In0 O12 2.326 . S
O1 In0 2.294 . S
O1 C10 1.240 . S
O2 In0 2.326 . S
O2 C10 1.252 . S
C3 O6 1.252 . S
C3 O7 1.260 . S
C4 O11 1.240 . S
C4 O12 1.252 . S
C5 O8 1.252 . S
C5 O9 1.260 . S
O6 In0 2.266 . S
O6 C3 1.252 . S
O7 In0 2.326 . S
O7 C3 1.260 . S
O8 In0 2.266 . S
O8 C5 1.252 . S
O9 In0 2.326 . S
O9 C5 1.260 . S
C10 O1 1.240 . S
C10 O2 1.252 . S
O11 In0 2.294 . S
O11 C4 1.240 . S
O12 In0 2.326 . S
O12 C4 1.252 . S
In13 O14 2.294 . S
In13 O15 2.326 . S
In13 O19 2.266 . S
In13 O20 2.326 . S
In13 O21 2.266 . S
In13 O22 2.326 . S
In13 O24 2.294 . S
In13 O25 2.326 . S
O14 In13 2.294 . S
O14 C23 1.240 . S
O15 In13 2.326 . S
O15 C23 1.252 . S
C16 O19 1.252 . S
C16 O20 1.260 . S
C17 O24 1.240 . S
C17 O25 1.252 . S
C18 O21 1.252 . S
C18 O22 1.260 . S
O19 In13 2.266 . S
O19 C16 1.252 . S
O20 In13 2.326 . S
O20 C16 1.260 . S
O21 In13 2.266 . S
O21 C18 1.252 . S
O22 In13 2.326 . S
O22 C18 1.260 . S
C23 O14 1.240 . S
C23 O15 1.252 . S
O24 In13 2.294 . S
O24 C17 1.240 . S
O25 In13 2.326 . S
O25 C17 1.252 . S
In26 O27 2.294 . S
In26 O28 2.326 . S
In26 O32 2.266 . S
In26 O33 2.326 . S
In26 O34 2.266 . S
In26 O35 2.326 . S
In26 O37 2.294 . S
In26 O38 2.326 . S
O27 In26 2.294 . S
O27 C36 1.240 . S
O28 In26 2.326 . S
O28 C36 1.252 . S
C29 O32 1.252 . S
C29 O33 1.260 . S
C30 O37 1.240 . S
C30 O38 1.252 . S
C31 O34 1.252 . S
C31 O35 1.260 . S
O32 In26 2.266 . S
O32 C29 1.252 . S
O33 In26 2.326 . S
O33 C29 1.260 . S
O34 In26 2.266 . S
O34 C31 1.252 . S
O35 In26 2.326 . S
O35 C31 1.260 . S
C36 O27 1.240 . S
C36 O28 1.252 . S
O37 In26 2.294 . S
O37 C30 1.240 . S
O38 In26 2.326 . S
O38 C30 1.252 . S
In39 O40 2.294 . S
In39 O41 2.326 . S
In39 O45 2.266 . S
In39 O46 2.326 . S
In39 O47 2.266 . S
In39 O48 2.326 . S
In39 O50 2.294 . S
In39 O51 2.326 . S
O40 In39 2.294 . S
O40 C49 1.240 . S
O41 In39 2.326 . S
O41 C49 1.252 . S
C42 O45 1.252 . S
C42 O46 1.260 . S
C43 O50 1.240 . S
C43 O51 1.252 . S
C44 O47 1.252 . S
C44 O48 1.260 . S
O45 In39 2.266 . S
O45 C42 1.252 . S
O46 In39 2.326 . S
O46 C42 1.260 . S
O47 In39 2.266 . S
O47 C44 1.252 . S
O48 In39 2.326 . S
O48 C44 1.260 . S
C49 O40 1.240 . S
C49 O41 1.252 . S
O50 In39 2.294 . S
O50 C43 1.240 . S
O51 In39 2.326 . S
O51 C43 1.252 . S
In52 O53 2.294 . S
In52 O54 2.326 . S
In52 O58 2.266 . S
In52 O59 2.326 . S
In52 O60 2.266 . S
In52 O61 2.326 . S
In52 O63 2.294 . S
In52 O64 2.326 . S
O53 In52 2.294 . S
O53 C62 1.240 . S
O54 In52 2.326 . S
O54 C62 1.252 . S
C55 O58 1.252 . S
C55 O59 1.260 . S
C56 O63 1.240 . S
C56 O64 1.252 . S
C57 O60 1.252 . S
C57 O61 1.260 . S
O58 In52 2.266 . S
O58 C55 1.252 . S
O59 In52 2.326 . S
O59 C55 1.260 . S
O60 In52 2.266 . S
O60 C57 1.252 . S
O61 In52 2.326 . S
O61 C57 1.260 . S
C62 O53 1.240 . S
C62 O54 1.252 . S
O63 In52 2.294 . S
O63 C56 1.240 . S
O64 In52 2.326 . S
O64 C56 1.252 . S
In65 O66 2.294 . S
In65 O67 2.326 . S
In65 O71 2.266 . S
In65 O72 2.326 . S
In65 O73 2.266 . S
In65 O74 2.326 . S
In65 O76 2.294 . S
In65 O77 2.326 . S
O66 In65 2.294 . S
O66 C75 1.240 . S
O67 In65 2.326 . S
O67 C75 1.252 . S
C68 O71 1.252 . S
C68 O72 1.260 . S
C69 O76 1.240 . S
C69 O77 1.252 . S
C70 O73 1.252 . S
C70 O74 1.260 . S
O71 In65 2.266 . S
O71 C68 1.252 . S
O72 In65 2.326 . S
O72 C68 1.260 . S
O73 In65 2.266 . S
O73 C70 1.252 . S
O74 In65 2.326 . S
O74 C70 1.260 . S
C75 O66 1.240 . S
C75 O67 1.252 . S
O76 In65 2.294 . S
O76 C69 1.240 . S
O77 In65 2.326 . S
O77 C69 1.252 . S
In78 O79 2.294 . S
In78 O80 2.326 . S
In78 O84 2.266 . S
In78 O85 2.326 . S
In78 O86 2.266 . S
In78 O87 2.326 . S
In78 O89 2.294 . S
In78 O90 2.326 . S
O79 In78 2.294 . S
O79 C88 1.240 . S
O80 In78 2.326 . S
O80 C88 1.252 . S
C81 O84 1.252 . S
C81 O85 1.260 . S
C82 O89 1.240 . S
C82 O90 1.252 . S
C83 O86 1.252 . S
C83 O87 1.260 . S
O84 In78 2.266 . S
O84 C81 1.252 . S
O85 In78 2.326 . S
O85 C81 1.260 . S
O86 In78 2.266 . S
O86 C83 1.252 . S
O87 In78 2.326 . S
O87 C83 1.260 . S
C88 O79 1.240 . S
C88 O80 1.252 . S
O89 In78 2.294 . S
O89 C82 1.240 . S
O90 In78 2.326 . S
O90 C82 1.252 . S
In91 O92 2.294 . S
In91 O93 2.326 . S
In91 O97 2.266 . S
In91 O98 2.326 . S
In91 O99 2.266 . S
In91 O100 2.326 . S
In91 O102 2.294 . S
In91 O103 2.326 . S
O92 In91 2.294 . S
O92 C101 1.240 . S
O93 In91 2.326 . S
O93 C101 1.252 . S
C94 O97 1.252 . S
C94 O98 1.260 . S
C95 O102 1.240 . S
C95 O103 1.252 . S
C96 O99 1.252 . S
C96 O100 1.260 . S
O97 In91 2.266 . S
O97 C94 1.252 . S
O98 In91 2.326 . S
O98 C94 1.260 . S
O99 In91 2.266 . S
O99 C96 1.252 . S
O100 In91 2.326 . S
O100 C96 1.260 . S
C101 O92 1.240 . S
C101 O93 1.252 . S
O102 In91 2.294 . S
O102 C95 1.240 . S
O103 In91 2.326 . S
O103 C95 1.252 . S
In104 O105 2.294 . S
In104 O106 2.326 . S
In104 O110 2.266 . S
In104 O111 2.326 . S
In104 O112 2.266 . S
In104 O113 2.326 . S
In104 O115 2.294 . S
In104 O116 2.326 . S
O105 In104 2.294 . S
O105 C114 1.240 . S
O106 In104 2.326 . S
O106 C114 1.252 . S
C107 O110 1.252 . S
C107 O111 1.260 . S
C108 O115 1.240 . S
C108 O116 1.252 . S
C109 O112 1.252 . S
C109 O113 1.260 . S
O110 In104 2.266 . S
O110 C107 1.252 . S
O111 In104 2.326 . S
O111 C107 1.260 . S
O112 In104 2.266 . S
O112 C109 1.252 . S
O113 In104 2.326 . S
O113 C109 1.260 . S
C114 O105 1.240 . S
C114 O106 1.252 . S
O115 In104 2.294 . S
O115 C108 1.240 . S
O116 In104 2.326 . S
O116 C108 1.252 . S
In117 O118 2.294 . S
In117 O119 2.326 . S
In117 O123 2.266 . S
In117 O124 2.326 . S
In117 O125 2.266 . S
In117 O126 2.326 . S
In117 O128 2.294 . S
In117 O129 2.326 . S
O118 In117 2.294 . S
O118 C127 1.240 . S
O119 In117 2.326 . S
O119 C127 1.252 . S
C120 O123 1.252 . S
C120 O124 1.260 . S
C121 O128 1.240 . S
C121 O129 1.252 . S
C122 O125 1.252 . S
C122 O126 1.260 . S
O123 In117 2.266 . S
O123 C120 1.252 . S
O124 In117 2.326 . S
O124 C120 1.260 . S
O125 In117 2.266 . S
O125 C122 1.252 . S
O126 In117 2.326 . S
O126 C122 1.260 . S
C127 O118 1.240 . S
C127 O119 1.252 . S
O128 In117 2.294 . S
O128 C121 1.240 . S
O129 In117 2.326 . S
O129 C121 1.252 . S
In130 O131 2.294 . S
In130 O132 2.326 . S
In130 O136 2.266 . S
In130 O137 2.326 . S
In130 O138 2.266 . S
In130 O139 2.326 . S
In130 O141 2.294 . S
In130 O142 2.326 . S
O131 In130 2.294 . S
O131 C140 1.240 . S
O132 In130 2.326 . S
O132 C140 1.252 . S
C133 O136 1.252 . S
C133 O137 1.260 . S
C134 O141 1.240 . S
C134 O142 1.252 . S
C135 O138 1.252 . S
C135 O139 1.260 . S
O136 In130 2.266 . S
O136 C133 1.252 . S
O137 In130 2.326 . S
O137 C133 1.260 . S
O138 In130 2.266 . S
O138 C135 1.252 . S
O139 In130 2.326 . S
O139 C135 1.260 . S
C140 O131 1.240 . S
C140 O132 1.252 . S
O141 In130 2.294 . S
O141 C134 1.240 . S
O142 In130 2.326 . S
O142 C134 1.252 . S
In143 O144 2.294 . S
In143 O145 2.326 . S
In143 O149 2.266 . S
In143 O150 2.326 . S
In143 O151 2.266 . S
In143 O152 2.326 . S
In143 O154 2.294 . S
In143 O155 2.326 . S
O144 In143 2.294 . S
O144 C153 1.240 . S
O145 In143 2.326 . S
O145 C153 1.252 . S
C146 O149 1.252 . S
C146 O150 1.260 . S
C147 O154 1.240 . S
C147 O155 1.252 . S
C148 O151 1.252 . S
C148 O152 1.260 . S
O149 In143 2.266 . S
O149 C146 1.252 . S
O150 In143 2.326 . S
O150 C146 1.260 . S
O151 In143 2.266 . S
O151 C148 1.252 . S
O152 In143 2.326 . S
O152 C148 1.260 . S
C153 O144 1.240 . S
C153 O145 1.252 . S
O154 In143 2.294 . S
O154 C147 1.240 . S
O155 In143 2.326 . S
O155 C147 1.252 . S
In156 O157 2.294 . S
In156 O158 2.326 . S
In156 O162 2.266 . S
In156 O163 2.326 . S
In156 O164 2.266 . S
In156 O165 2.326 . S
In156 O167 2.294 . S
In156 O168 2.326 . S
O157 In156 2.294 . S
O157 C166 1.240 . S
O158 In156 2.326 . S
O158 C166 1.252 . S
C159 O162 1.252 . S
C159 O163 1.260 . S
C160 O167 1.240 . S
C160 O168 1.252 . S
C161 O164 1.252 . S
C161 O165 1.260 . S
O162 In156 2.266 . S
O162 C159 1.252 . S
O163 In156 2.326 . S
O163 C159 1.260 . S
O164 In156 2.266 . S
O164 C161 1.252 . S
O165 In156 2.326 . S
O165 C161 1.260 . S
C166 O157 1.240 . S
C166 O158 1.252 . S
O167 In156 2.294 . S
O167 C160 1.240 . S
O168 In156 2.326 . S
O168 C160 1.252 . S
In169 O170 2.294 . S
In169 O171 2.326 . S
In169 O175 2.266 . S
In169 O176 2.326 . S
In169 O177 2.266 . S
In169 O178 2.326 . S
In169 O180 2.294 . S
In169 O181 2.326 . S
O170 In169 2.294 . S
O170 C179 1.240 . S
O171 In169 2.326 . S
O171 C179 1.252 . S
C172 O175 1.252 . S
C172 O176 1.260 . S
C173 O180 1.240 . S
C173 O181 1.252 . S
C174 O177 1.252 . S
C174 O178 1.260 . S
O175 In169 2.266 . S
O175 C172 1.252 . S
O176 In169 2.326 . S
O176 C172 1.260 . S
O177 In169 2.266 . S
O177 C174 1.252 . S
O178 In169 2.326 . S
O178 C174 1.260 . S
C179 O170 1.240 . S
C179 O171 1.252 . S
O180 In169 2.294 . S
O180 C173 1.240 . S
O181 In169 2.326 . S
O181 C173 1.252 . S
In182 O183 2.294 . S
In182 O184 2.326 . S
In182 O188 2.266 . S
In182 O189 2.326 . S
In182 O190 2.266 . S
In182 O191 2.326 . S
In182 O193 2.294 . S
In182 O194 2.326 . S
O183 In182 2.294 . S
O183 C192 1.240 . S
O184 In182 2.326 . S
O184 C192 1.252 . S
C185 O188 1.252 . S
C185 O189 1.260 . S
C186 O193 1.240 . S
C186 O194 1.252 . S
C187 O190 1.252 . S
C187 O191 1.260 . S
O188 In182 2.266 . S
O188 C185 1.252 . S
O189 In182 2.326 . S
O189 C185 1.260 . S
O190 In182 2.266 . S
O190 C187 1.252 . S
O191 In182 2.326 . S
O191 C187 1.260 . S
C192 O183 1.240 . S
C192 O184 1.252 . S
O193 In182 2.294 . S
O193 C186 1.240 . S
O194 In182 2.326 . S
O194 C186 1.252 . S
In195 O196 2.294 . S
In195 O197 2.326 . S
In195 O201 2.266 . S
In195 O202 2.326 . S
In195 O203 2.266 . S
In195 O204 2.326 . S
In195 O206 2.294 . S
In195 O207 2.326 . S
O196 In195 2.294 . S
O196 C205 1.240 . S
O197 In195 2.326 . S
O197 C205 1.252 . S
C198 O201 1.252 . S
C198 O202 1.260 . S
C199 O206 1.240 . S
C199 O207 1.252 . S
C200 O203 1.252 . S
C200 O204 1.260 . S
O201 In195 2.266 . S
O201 C198 1.252 . S
O202 In195 2.326 . S
O202 C198 1.260 . S
O203 In195 2.266 . S
O203 C200 1.252 . S
O204 In195 2.326 . S
O204 C200 1.260 . S
C205 O196 1.240 . S
C205 O197 1.252 . S
O206 In195 2.294 . S
O206 C199 1.240 . S
O207 In195 2.326 . S
O207 C199 1.252 . S
C208 C209 1.369 . S
C208 C210 1.419 . S
C208 H212 0.930 . S
C209 C208 1.369 . S
C209 C218 1.429 . S
C210 C208 1.419 . S
C210 C211 1.363 . S
C210 H213 0.929 . S
C211 C210 1.363 . S
C211 C217 1.428 . S
H212 C208 0.930 . S
H213 C210 0.929 . S
S214 N215 1.613 . S
S214 N216 1.610 . S
N215 S214 1.613 . S
N215 C218 1.350 . S
N216 S214 1.610 . S
N216 C217 1.351 . S
C217 C211 1.428 . S
C217 N216 1.351 . S
C217 C218 1.434 . S
C218 C209 1.429 . S
C218 N215 1.350 . S
C218 C217 1.434 . S
C219 C220 1.369 . S
C219 C221 1.419 . S
C219 H223 0.930 . S
C220 C219 1.369 . S
C220 C229 1.429 . S
C221 C219 1.419 . S
C221 C222 1.363 . S
C221 H224 0.929 . S
C222 C221 1.363 . S
C222 C228 1.428 . S
H223 C219 0.930 . S
H224 C221 0.929 . S
S225 N226 1.613 . S
S225 N227 1.610 . S
N226 S225 1.613 . S
N226 C229 1.350 . S
N227 S225 1.610 . S
N227 C228 1.351 . S
C228 C222 1.428 . S
C228 N227 1.351 . S
C228 C229 1.434 . S
C229 C220 1.429 . S
C229 N226 1.350 . S
C229 C228 1.434 . S
C230 C231 1.369 . S
C230 C232 1.419 . S
C230 H234 0.930 . S
C231 C230 1.369 . S
C231 C240 1.429 . S
C232 C230 1.419 . S
C232 C233 1.363 . S
C232 H235 0.929 . S
C233 C232 1.363 . S
C233 C239 1.428 . S
H234 C230 0.930 . S
H235 C232 0.929 . S
S236 N237 1.613 . S
S236 N238 1.610 . S
N237 S236 1.613 . S
N237 C240 1.350 . S
N238 S236 1.610 . S
N238 C239 1.351 . S
C239 C233 1.428 . S
C239 N238 1.351 . S
C239 C240 1.434 . S
C240 C231 1.429 . S
C240 N237 1.350 . S
C240 C239 1.434 . S
C241 C242 1.369 . S
C241 C243 1.419 . S
C241 H245 0.930 . S
C242 C241 1.369 . S
C242 C251 1.429 . S
C243 C241 1.419 . S
C243 C244 1.363 . S
C243 H246 0.929 . S
C244 C243 1.363 . S
C244 C250 1.428 . S
H245 C241 0.930 . S
H246 C243 0.929 . S
S247 N248 1.613 . S
S247 N249 1.610 . S
N248 S247 1.613 . S
N248 C251 1.350 . S
N249 S247 1.610 . S
N249 C250 1.351 . S
C250 C244 1.428 . S
C250 N249 1.351 . S
C250 C251 1.434 . S
C251 C242 1.429 . S
C251 N248 1.350 . S
C251 C250 1.434 . S
C252 C253 1.369 . S
C252 C254 1.419 . S
C252 H256 0.930 . S
C253 C252 1.369 . S
C253 C262 1.429 . S
C254 C252 1.419 . S
C254 C255 1.363 . S
C254 H257 0.929 . S
C255 C254 1.363 . S
C255 C261 1.428 . S
H256 C252 0.930 . S
H257 C254 0.929 . S
S258 N259 1.613 . S
S258 N260 1.610 . S
N259 S258 1.613 . S
N259 C262 1.350 . S
N260 S258 1.610 . S
N260 C261 1.351 . S
C261 C255 1.428 . S
C261 N260 1.351 . S
C261 C262 1.434 . S
C262 C253 1.429 . S
C262 N259 1.350 . S
C262 C261 1.434 . S
C263 C264 1.369 . S
C263 C265 1.419 . S
C263 H267 0.930 . S
C264 C263 1.369 . S
C264 C273 1.429 . S
C265 C263 1.419 . S
C265 C266 1.363 . S
C265 H268 0.929 . S
C266 C265 1.363 . S
C266 C272 1.428 . S
H267 C263 0.930 . S
H268 C265 0.929 . S
S269 N270 1.613 . S
S269 N271 1.610 . S
N270 S269 1.613 . S
N270 C273 1.350 . S
N271 S269 1.610 . S
N271 C272 1.351 . S
C272 C266 1.428 . S
C272 N271 1.351 . S
C272 C273 1.434 . S
C273 C264 1.429 . S
C273 N270 1.350 . S
C273 C272 1.434 . S
C274 C275 1.369 . S
C274 C276 1.419 . S
C274 H278 0.930 . S
C275 C274 1.369 . S
C275 C284 1.429 . S
C276 C274 1.419 . S
C276 C277 1.363 . S
C276 H279 0.929 . S
C277 C276 1.363 . S
C277 C283 1.428 . S
H278 C274 0.930 . S
H279 C276 0.929 . S
S280 N281 1.613 . S
S280 N282 1.610 . S
N281 S280 1.613 . S
N281 C284 1.350 . S
N282 S280 1.610 . S
N282 C283 1.351 . S
C283 C277 1.428 . S
C283 N282 1.351 . S
C283 C284 1.434 . S
C284 C275 1.429 . S
C284 N281 1.350 . S
C284 C283 1.434 . S
C285 C286 1.369 . S
C285 C287 1.419 . S
C285 H289 0.930 . S
C286 C285 1.369 . S
C286 C295 1.429 . S
C287 C285 1.419 . S
C287 C288 1.363 . S
C287 H290 0.929 . S
C288 C287 1.363 . S
C288 C294 1.428 . S
H289 C285 0.930 . S
H290 C287 0.929 . S
S291 N292 1.613 . S
S291 N293 1.610 . S
N292 S291 1.613 . S
N292 C295 1.350 . S
N293 S291 1.610 . S
N293 C294 1.351 . S
C294 C288 1.428 . S
C294 N293 1.351 . S
C294 C295 1.434 . S
C295 C286 1.429 . S
C295 N292 1.350 . S
C295 C294 1.434 . S
C296 C297 1.369 . S
C296 C298 1.419 . S
C296 H300 0.930 . S
C297 C296 1.369 . S
C297 C306 1.429 . S
C298 C296 1.419 . S
C298 C299 1.363 . S
C298 H301 0.929 . S
C299 C298 1.363 . S
C299 C305 1.428 . S
H300 C296 0.930 . S
H301 C298 0.929 . S
S302 N303 1.613 . S
S302 N304 1.610 . S
N303 S302 1.613 . S
N303 C306 1.350 . S
N304 S302 1.610 . S
N304 C305 1.351 . S
C305 C299 1.428 . S
C305 N304 1.351 . S
C305 C306 1.434 . S
C306 C297 1.429 . S
C306 N303 1.350 . S
C306 C305 1.434 . S
C307 C308 1.369 . S
C307 C309 1.419 . S
C307 H311 0.930 . S
C308 C307 1.369 . S
C308 C317 1.429 . S
C309 C307 1.419 . S
C309 C310 1.363 . S
C309 H312 0.929 . S
C310 C309 1.363 . S
C310 C316 1.428 . S
H311 C307 0.930 . S
H312 C309 0.929 . S
S313 N314 1.613 . S
S313 N315 1.610 . S
N314 S313 1.613 . S
N314 C317 1.350 . S
N315 S313 1.610 . S
N315 C316 1.351 . S
C316 C310 1.428 . S
C316 N315 1.351 . S
C316 C317 1.434 . S
C317 C308 1.429 . S
C317 N314 1.350 . S
C317 C316 1.434 . S
C318 C319 1.369 . S
C318 C320 1.419 . S
C318 H322 0.930 . S
C319 C318 1.369 . S
C319 C328 1.429 . S
C320 C318 1.419 . S
C320 C321 1.363 . S
C320 H323 0.929 . S
C321 C320 1.363 . S
C321 C327 1.428 . S
H322 C318 0.930 . S
H323 C320 0.929 . S
S324 N325 1.613 . S
S324 N326 1.610 . S
N325 S324 1.613 . S
N325 C328 1.350 . S
N326 S324 1.610 . S
N326 C327 1.351 . S
C327 C321 1.428 . S
C327 N326 1.351 . S
C327 C328 1.434 . S
C328 C319 1.429 . S
C328 N325 1.350 . S
C328 C327 1.434 . S
C329 C330 1.369 . S
C329 C331 1.419 1_554 S
C329 H333 0.930 . S
C330 C329 1.369 . S
C330 C339 1.429 . S
C331 C329 1.419 1_556 S
C331 C332 1.363 . S
C331 H334 0.929 . S
C332 C331 1.363 . S
C332 C338 1.428 . S
H333 C329 0.930 . S
H334 C331 0.929 . S
S335 N336 1.613 1_556 S
S335 N337 1.610 . S
N336 S335 1.613 1_554 S
N336 C339 1.350 . S
N337 S335 1.610 . S
N337 C338 1.351 . S
C338 C332 1.428 . S
C338 N337 1.351 . S
C338 C339 1.434 1_556 S
C339 C330 1.429 . S
C339 N336 1.350 . S
C339 C338 1.434 1_554 S
C340 C341 1.369 . S
C340 C342 1.419 1_554 S
C340 H344 0.930 . S
C341 C340 1.369 . S
C341 C350 1.429 . S
C342 C340 1.419 1_556 S
C342 C343 1.363 . S
C342 H345 0.929 . S
C343 C342 1.363 . S
C343 C349 1.428 . S
H344 C340 0.930 . S
H345 C342 0.929 . S
S346 N347 1.613 . S
S346 N348 1.610 1_554 S
N347 S346 1.613 . S
N347 C350 1.350 . S
N348 S346 1.610 1_556 S
N348 C349 1.351 . S
C349 C343 1.428 . S
C349 N348 1.351 . S
C349 C350 1.434 1_556 S
C350 C341 1.429 . S
C350 N347 1.350 . S
C350 C349 1.434 1_554 S
C351 C352 1.369 . S
C351 C353 1.419 . S
C351 H355 0.930 . S
C352 C351 1.369 . S
C352 C361 1.429 . S
C353 C351 1.419 . S
C353 C354 1.363 . S
C353 H356 0.929 . S
C354 C353 1.363 . S
C354 C360 1.428 . S
H355 C351 0.930 . S
H356 C353 0.929 . S
S357 N358 1.613 . S
S357 N359 1.610 . S
N358 S357 1.613 . S
N358 C361 1.350 . S
N359 S357 1.610 . S
N359 C360 1.351 . S
C360 C354 1.428 . S
C360 N359 1.351 . S
C360 C361 1.434 . S
C361 C352 1.429 . S
C361 N358 1.350 . S
C361 C360 1.434 . S
C362 C363 1.369 . S
C362 C364 1.419 . S
C362 H366 0.930 . S
C363 C362 1.369 . S
C363 C372 1.429 . S
C364 C362 1.419 . S
C364 C365 1.363 . S
C364 H367 0.929 . S
C365 C364 1.363 . S
C365 C371 1.428 . S
H366 C362 0.930 . S
H367 C364 0.929 . S
S368 N369 1.613 . S
S368 N370 1.610 . S
N369 S368 1.613 . S
N369 C372 1.350 . S
N370 S368 1.610 . S
N370 C371 1.351 . S
C371 C365 1.428 . S
C371 N370 1.351 . S
C371 C372 1.434 . S
C372 C363 1.429 . S
C372 N369 1.350 . S
C372 C371 1.434 . S
C373 C374 1.369 . S
C373 C375 1.419 . S
C373 H377 0.930 . S
C374 C373 1.369 . S
C374 C383 1.429 . S
C375 C373 1.419 . S
C375 C376 1.363 . S
C375 H378 0.929 . S
C376 C375 1.363 . S
C376 C382 1.428 . S
H377 C373 0.930 . S
H378 C375 0.929 . S
S379 N380 1.613 . S
S379 N381 1.610 . S
N380 S379 1.613 . S
N380 C383 1.350 . S
N381 S379 1.610 . S
N381 C382 1.351 . S
C382 C376 1.428 . S
C382 N381 1.351 . S
C382 C383 1.434 . S
C383 C374 1.429 . S
C383 N380 1.350 . S
C383 C382 1.434 . S
C384 C385 1.369 1_565 S
C384 C386 1.416 1_455 S
C384 H388 0.930 . S
C385 C384 1.369 1_545 S
C385 C394 1.429 1_455 S
C386 C384 1.416 1_655 S
C386 C387 1.366 . S
C386 H389 0.929 1_655 S
C387 C386 1.366 . S
C387 C393 1.428 1_565 S
H388 C384 0.930 . S
H389 C386 0.929 1_455 S
S390 N391 1.613 . S
S390 N392 1.610 . S
N391 S390 1.613 . S
N391 C394 1.350 . S
N392 S390 1.610 . S
N392 C393 1.351 . S
C393 C387 1.428 1_545 S
C393 N392 1.351 . S
C393 C394 1.434 . S
C394 C385 1.429 1_655 S
C394 N391 1.350 . S
C394 C393 1.434 . S
C395 C396 1.369 . S
C395 C397 1.419 . S
C395 H399 0.930 . S
C396 C395 1.369 . S
C396 C405 1.429 1_455 S
C397 C395 1.419 . S
C397 C398 1.363 1_455 S
C397 H400 0.929 . S
C398 C397 1.363 1_655 S
C398 C404 1.428 . S
H399 C395 0.930 . S
H400 C397 0.929 . S
S401 N402 1.613 . S
S401 N403 1.610 . S
N402 S401 1.613 . S
N402 C405 1.350 . S
N403 S401 1.610 . S
N403 C404 1.351 . S
C404 C398 1.428 . S
C404 N403 1.351 . S
C404 C405 1.434 . S
C405 C396 1.429 1_655 S
C405 N402 1.350 . S
C405 C404 1.434 . S
C406 C407 1.369 . S
C406 C408 1.419 . S
C406 H410 0.930 . S
C407 C406 1.369 . S
C407 C416 1.429 . S
C408 C406 1.419 . S
C408 C409 1.363 . S
C408 H411 0.929 . S
C409 C408 1.363 . S
C409 C415 1.428 . S
H410 C406 0.930 . S
H411 C408 0.929 . S
S412 N413 1.613 . S
S412 N414 1.610 . S
N413 S412 1.613 . S
N413 C416 1.350 . S
N414 S412 1.610 . S
N414 C415 1.351 . S
C415 C409 1.428 . S
C415 N414 1.351 . S
C415 C416 1.434 . S
C416 C407 1.429 . S
C416 N413 1.350 . S
C416 C415 1.434 . S
C417 C418 1.369 . S
C417 C419 1.419 1_545 S
C417 H421 0.930 . S
C418 C417 1.369 . S
C418 C427 1.429 . S
C419 C417 1.419 1_565 S
C419 C420 1.363 . S
C419 H422 0.929 . S
C420 C419 1.363 . S
C420 C426 1.428 . S
H421 C417 0.930 . S
H422 C419 0.929 . S
S423 N424 1.613 . S
S423 N425 1.610 . S
N424 S423 1.613 . S
N424 C427 1.350 1_565 S
N425 S423 1.610 . S
N425 C426 1.351 . S
C426 C420 1.428 . S
C426 N425 1.351 . S
C426 C427 1.434 1_565 S
C427 C418 1.429 . S
C427 N424 1.350 1_545 S
C427 C426 1.434 1_545 S
C428 C429 1.369 . S
C428 C430 1.419 1_455 S
C428 H432 0.930 . S
C429 C428 1.369 . S
C429 C438 1.427 1_455 S
C430 C428 1.419 1_655 S
C430 C431 1.363 . S
C430 H433 0.929 . S
C431 C430 1.363 . S
C431 C437 1.428 . S
H432 C428 0.930 . S
H433 C430 0.929 . S
S434 N435 1.613 . S
S434 N436 1.610 . S
N435 S434 1.613 . S
N435 C438 1.350 . S
N436 S434 1.610 . S
N436 C437 1.351 . S
C437 C431 1.428 . S
C437 N436 1.351 . S
C437 C438 1.435 . S
C438 C429 1.427 1_655 S
C438 N435 1.350 . S
C438 C437 1.435 . S
C439 C440 1.369 . S
C439 C441 1.419 . S
C439 H443 0.930 . S
C440 C439 1.369 . S
C440 C449 1.429 . S
C441 C439 1.419 . S
C441 C442 1.363 . S
C441 H444 0.929 . S
C442 C441 1.363 . S
C442 C448 1.428 . S
H443 C439 0.930 . S
H444 C441 0.929 . S
S445 N446 1.613 . S
S445 N447 1.610 . S
N446 S445 1.613 . S
N446 C449 1.350 . S
N447 S445 1.610 . S
N447 C448 1.351 . S
C448 C442 1.428 . S
C448 N447 1.351 . S
C448 C449 1.434 . S
C449 C440 1.429 . S
C449 N446 1.350 . S
C449 C448 1.434 . S
C450 C451 1.369 . S
C450 C452 1.419 . S
C450 H454 0.930 . S
C451 C450 1.369 . S
C451 C460 1.429 1_565 S
C452 C450 1.419 . S
C452 C453 1.363 1_565 S
C452 H455 0.929 . S
C453 C452 1.363 1_545 S
C453 C459 1.428 . S
H454 C450 0.930 . S
H455 C452 0.929 . S
S456 N457 1.613 . S
S456 N458 1.610 . S
N457 S456 1.613 . S
N457 C460 1.350 . S
N458 S456 1.610 . S
N458 C459 1.351 . S
C459 C453 1.428 . S
C459 N458 1.351 . S
C459 C460 1.434 . S
C460 C451 1.429 1_545 S
C460 N457 1.350 . S
C460 C459 1.434 . S
C461 C462 1.369 1_655 S
C461 C463 1.419 1_545 S
C461 H465 0.930 . S
C462 C461 1.369 1_455 S
C462 C471 1.429 . S
C463 C461 1.419 1_565 S
C463 C464 1.363 . S
C463 H466 0.929 . S
C464 C463 1.363 . S
C464 C470 1.428 1_655 S
H465 C461 0.930 . S
H466 C463 0.929 . S
S467 N468 1.613 1_565 S
S467 N469 1.610 . S
N468 S467 1.613 1_545 S
N468 C471 1.350 . S
N469 S467 1.610 . S
N469 C470 1.351 . S
C470 C464 1.428 1_455 S
C470 N469 1.351 . S
C470 C471 1.434 1_565 S
C471 C462 1.429 . S
C471 N468 1.350 . S
C471 C470 1.434 1_545 S
C472 C473 1.369 . S
C472 C474 1.419 . S
C472 H476 0.930 . S
C473 C472 1.369 . S
C473 C482 1.429 1_565 S
C474 C472 1.419 . S
C474 C475 1.363 1_565 S
C474 H477 0.929 . S
C475 C474 1.363 1_545 S
C475 C481 1.428 . S
H476 C472 0.930 . S
H477 C474 0.929 . S
S478 N479 1.613 . S
S478 N480 1.610 . S
N479 S478 1.613 . S
N479 C482 1.350 . S
N480 S478 1.610 . S
N480 C481 1.351 . S
C481 C475 1.428 . S
C481 N480 1.351 . S
C481 C482 1.434 . S
C482 C473 1.429 1_545 S
C482 N479 1.350 . S
C482 C481 1.434 . S
C483 C484 1.369 1_455 S
C483 C485 1.419 1_565 S
C483 H487 0.930 . S
C484 C483 1.369 1_655 S
C484 C493 1.429 . S
C485 C483 1.419 1_545 S
C485 C486 1.363 . S
C485 H488 0.929 . S
C486 C485 1.363 . S
C486 C492 1.428 1_455 S
H487 C483 0.930 . S
H488 C485 0.929 . S
S489 N490 1.613 1_545 S
S489 N491 1.610 . S
N490 S489 1.613 1_565 S
N490 C493 1.350 . S
N491 S489 1.610 . S
N491 C492 1.351 . S
C492 C486 1.428 1_655 S
C492 N491 1.351 . S
C492 C493 1.434 1_545 S
C493 C484 1.429 . S
C493 N490 1.350 . S
C493 C492 1.434 1_565 S
C494 C495 1.369 . S
C494 C496 1.419 1_455 S
C494 H498 0.930 . S
C495 C494 1.369 . S
C495 C504 1.429 . S
C496 C494 1.419 1_655 S
C496 C497 1.363 . S
C496 H499 0.929 . S
C497 C496 1.363 . S
C497 C503 1.428 . S
H498 C494 0.930 . S
H499 C496 0.929 . S
S500 N501 1.613 1_655 S
S500 N502 1.610 . S
N501 S500 1.613 1_455 S
N501 C504 1.350 . S
N502 S500 1.610 . S
N502 C503 1.351 . S
C503 C497 1.428 . S
C503 N502 1.351 . S
C503 C504 1.434 1_655 S
C504 C495 1.429 . S
C504 N501 1.350 . S
C504 C503 1.434 1_455 S
C505 C506 1.369 . S
C505 C507 1.419 . S
C505 H509 0.930 . S
C506 C505 1.369 . S
C506 C515 1.429 . S
C507 C505 1.419 . S
C507 C508 1.363 . S
C507 H510 0.929 . S
C508 C507 1.363 . S
C508 C514 1.428 . S
H509 C505 0.930 . S
H510 C507 0.929 . S
S511 N512 1.613 . S
S511 N513 1.610 . S
N512 S511 1.613 . S
N512 C515 1.350 . S
N513 S511 1.610 . S
N513 C514 1.351 . S
C514 C508 1.428 . S
C514 N513 1.351 . S
C514 C515 1.434 . S
C515 C506 1.429 . S
C515 N512 1.350 . S
C515 C514 1.434 . S
C516 C517 1.369 . S
C516 C518 1.419 . S
C516 H520 0.930 . S
C517 C516 1.369 . S
C517 C526 1.429 . S
C518 C516 1.419 . S
C518 C519 1.363 . S
C518 H521 0.929 . S
C519 C518 1.363 . S
C519 C525 1.428 . S
H520 C516 0.930 . S
H521 C518 0.929 . S
S522 N523 1.613 . S
S522 N524 1.610 . S
N523 S522 1.613 . S
N523 C526 1.350 . S
N524 S522 1.610 . S
N524 C525 1.351 . S
C525 C519 1.428 . S
C525 N524 1.351 . S
C525 C526 1.434 . S
C526 C517 1.429 . S
C526 N523 1.350 . S
C526 C525 1.434 . S
C527 C528 1.369 . S
C527 C529 1.419 1_545 S
C527 H531 0.930 . S
C528 C527 1.369 . S
C528 C537 1.429 . S
C529 C527 1.419 1_565 S
C529 C530 1.363 . S
C529 H532 0.929 . S
C530 C529 1.363 . S
C530 C536 1.428 . S
H531 C527 0.930 . S
H532 C529 0.929 . S
S533 N534 1.613 1_565 S
S533 N535 1.610 . S
N534 S533 1.613 1_545 S
N534 C537 1.350 . S
N535 S533 1.610 . S
N535 C536 1.351 . S
C536 C530 1.428 . S
C536 N535 1.351 . S
C536 C537 1.434 1_565 S
C537 C528 1.429 . S
C537 N534 1.350 . S
C537 C536 1.434 1_545 S
C538 C539 1.369 . S
C538 C540 1.419 1_655 S
C538 H542 0.930 . S
C539 C538 1.369 . S
C539 C548 1.429 1_565 S
C540 C538 1.419 1_455 S
C540 C541 1.363 1_565 S
C540 H543 0.929 . S
C541 C540 1.363 1_545 S
C541 C547 1.428 . S
H542 C538 0.930 . S
H543 C540 0.929 . S
S544 N545 1.613 . S
S544 N546 1.610 1_655 S
N545 S544 1.613 . S
N545 C548 1.350 . S
N546 S544 1.610 1_455 S
N546 C547 1.351 . S
C547 C541 1.428 . S
C547 N546 1.351 . S
C547 C548 1.434 1_455 S
C548 C539 1.429 1_545 S
C548 N545 1.350 . S
C548 C547 1.434 1_655 S
C549 C550 1.369 . S
C549 C551 1.414 1_655 S
C549 H553 0.930 . S
C550 C549 1.369 . S
C550 C559 1.429 . S
C551 C549 1.414 1_455 S
C551 C552 1.368 . S
C551 H554 0.929 1_455 S
C552 C551 1.368 . S
C552 C558 1.428 . S
H553 C549 0.930 . S
H554 C551 0.929 1_655 S
S555 N556 1.609 1_455 S
S555 N557 1.610 . S
N556 S555 1.609 1_655 S
N556 C559 1.350 . S
N557 S555 1.610 . S
N557 C558 1.351 . S
C558 C552 1.428 . S
C558 N557 1.351 . S
C558 C559 1.434 1_455 S
C559 C550 1.429 . S
C559 N556 1.350 . S
C559 C558 1.434 1_655 S
C209 C62 1.558 . S
C211 C10 1.557 . S
C220 C17 1.556 . S
C222 C69 1.556 . S
C231 C88 1.556 . S
C233 C36 1.556 . S
C242 C101 1.557 . S
C244 C43 1.557 . S
C253 C160 1.557 . S
C255 C108 1.557 . S
C264 C127 1.556 . S
C266 C173 1.557 . S
C275 C192 1.557 . S
C277 C140 1.557 . S
C286 C147 1.557 . S
C288 C205 1.557 . S
C297 C3 1.530 . S
C299 C198 1.530 . S
C308 C18 1.530 . S
C310 C161 1.531 . S
C319 C29 1.531 . S
C321 C174 1.530 . S
C330 C185 1.531 . S
C332 C44 1.530 . S
C341 C55 1.531 . S
C343 C120 1.532 . S
C352 C70 1.532 . S
C354 C133 1.531 . S
C363 C148 1.531 . S
C365 C81 1.532 . S
C374 C109 1.530 . S
C376 C94 1.530 . S
C385 C4 1.571 . S
C387 C134 1.568 . S
C396 C153 1.568 . S
C398 C23 1.571 . S
C407 C30 1.568 . S
C409 C114 1.571 . S
C418 C121 1.571 . S
C420 C49 1.568 . S
C429 C56 1.571 . S
C431 C186 1.568 . S
C440 C75 1.568 . S
C442 C199 1.570 . S
C451 C166 1.568 . S
C453 C82 1.570 . S
C462 C179 1.570 . S
C464 C95 1.569 . S
C473 C135 1.461 . S
C475 C5 1.461 . S
C484 C16 1.460 . S
C486 C146 1.461 . S
C495 C31 1.461 . S
C497 C107 1.461 . S
C506 C122 1.461 . S
C508 C42 1.461 . S
C517 C187 1.461 . S
C519 C57 1.461 . S
C528 C200 1.461 . S
C530 C68 1.461 . S
C539 C159 1.461 . S
C541 C83 1.461 . S
C550 C96 1.460 . S
C552 C172 1.461 . S
