# Generated by pormake.
# Topology umw, (4)-cn, num edge types: 1
# Building blocks:
#     Node 0, Type 0, BuildingBlock: ICAMEG_clean_sbu_1, # of connection points: 4
#     Node 1, Type 0, BuildingBlock: ICAMEG_clean_sbu_1, # of connection points: 4
#     Node 2, Type 0, BuildingBlock: ICAMEG_clean_sbu_1, # of connection points: 4
#     Node 3, Type 0, BuildingBlock: ICAMEG_clean_sbu_1, # of connection points: 4
#     Node 4, Type 0, BuildingBlock: ICAMEG_clean_sbu_1, # of connection points: 4
#     Node 5, Type 0, BuildingBlock: ICAMEG_clean_sbu_1, # of connection points: 4
#     Node 6, Type 0, BuildingBlock: ICAMEG_clean_sbu_1, # of connection points: 4
#     Node 7, Type 0, BuildingBlock: ICAMEG_clean_sbu_1, # of connection points: 4
#     Edge 8, Type (0, 0), BuildingBlock: UVAHIK_clean_linker_0, # of connection points: 2
#     Edge 9, Type (0, 0), BuildingBlock: UVAHIK_clean_linker_0, # of connection points: 2
#     Edge 10, Type (0, 0), BuildingBlock: UVAHIK_clean_linker_0, # of connection points: 2
#     Edge 11, Type (0, 0), BuildingBlock: UVAHIK_clean_linker_0, # of connection points: 2
#     Edge 12, Type (0, 0), BuildingBlock: UVAHIK_clean_linker_0, # of connection points: 2
#     Edge 13, Type (0, 0), BuildingBlock: UVAHIK_clean_linker_0, # of connection points: 2
#     Edge 14, Type (0, 0), BuildingBlock: UVAHIK_clean_linker_0, # of connection points: 2
#     Edge 15, Type (0, 0), BuildingBlock: UVAHIK_clean_linker_0, # of connection points: 2
#     Edge 16, Type (0, 0), BuildingBlock: UVAHIK_clean_linker_0, # of connection points: 2
#     Edge 17, Type (0, 0), BuildingBlock: UVAHIK_clean_linker_0, # of connection points: 2
#     Edge 18, Type (0, 0), BuildingBlock: UVAHIK_clean_linker_0, # of connection points: 2
#     Edge 19, Type (0, 0), BuildingBlock: UVAHIK_clean_linker_0, # of connection points: 2
#     Edge 20, Type (0, 0), BuildingBlock: UVAHIK_clean_linker_0, # of connection points: 2
#     Edge 21, Type (0, 0), BuildingBlock: UVAHIK_clean_linker_0, # of connection points: 2
#     Edge 22, Type (0, 0), BuildingBlock: UVAHIK_clean_linker_0, # of connection points: 2
#     Edge 23, Type (0, 0), BuildingBlock: UVAHIK_clean_linker_0, # of connection points: 2
# Relax obj value: 0.123
# Max RMSD: 0.129
# Mean RMSD: 0.129
data_MOF--net-umw--node1-ICAMEG_clean_sbu_1--edge1-UVAHIK_clean_linker_0
_symmetry_space_group_name_H-M    P1
_symmetry_Int_Tables_number       1
_symmetry_cell_setting            triclinic
loop_
_symmetry_equiv_pos_as_xyz
'x, y, z'
_cell_length_a     54.631824
_cell_length_b     54.653244
_cell_length_c     36.921312
_cell_angle_alpha  90.048012
_cell_angle_beta   90.016134
_cell_angle_gamma 89.986449
loop_
_atom_site_label
_atom_site_type_symbol
_atom_site_fract_x
_atom_site_fract_y
_atom_site_fract_z
_atom_type_partial_charge
Co0 Co 0.45666 0.18045 0.29207 0.0
Co1 Co 0.39668 0.17144 0.31881 0.0
O2 O 0.42157 0.18681 0.28833 0.0
C3 C 0.44841 0.16583 0.21569 0.0
O4 O 0.43167 0.15024 0.22649 0.0
C5 C 0.39003 0.22415 0.33359 0.0
O6 O 0.41392 0.22575 0.33665 0.0
O7 O 0.41603 0.17754 0.36383 0.0
O8 O 0.45499 0.18128 0.34553 0.0
H9 H 0.36592 0.11492 0.41592 0.0
H10 H 0.43879 0.22121 0.2462 0.0
O11 O 0.45929 0.17967 0.23824 0.0
H12 H 0.49199 0.25977 0.33783 0.0
H13 H 0.54484 0.19073 0.25547 0.0
H14 H 0.48781 0.14877 0.33823 0.0
H15 H 0.48593 0.21507 0.33723 0.0
H16 H 0.50046 0.19872 0.25216 0.0
O17 O 0.38009 0.20377 0.32554 0.0
H18 H 0.39723 0.13426 0.37723 0.0
H19 H 0.34249 0.17659 0.32484 0.0
H20 H 0.53207 0.14039 0.34265 0.0
H21 H 0.44451 0.26598 0.24561 0.0
H22 H 0.56092 0.16144 0.30107 0.0
H23 H 0.47121 0.28555 0.29175 0.0
O24 O 0.45128 0.14432 0.29304 0.0
H25 H 0.35866 0.19475 0.19985 0.0
H26 H 0.3704 0.12823 0.28825 0.0
H27 H 0.34702 0.12025 0.23234 0.0
H28 H 0.34096 0.15369 0.1877 0.0
H29 H 0.38213 0.20183 0.25599 0.0
H30 H 0.31061 0.15788 0.36319 0.0
H31 H 0.32226 0.12673 0.40902 0.0
O32 O 0.41273 0.13893 0.31283 0.0
C33 C 0.43879 0.18045 0.3702 0.0
C34 C 0.36061 0.12841 0.39597 0.0
C35 C 0.32957 0.15255 0.36641 0.0
N36 N 0.37166 0.15639 0.34865 0.0
C37 C 0.37824 0.13937 0.37392 0.0
C38 C 0.3477 0.16313 0.34484 0.0
C39 C 0.33612 0.13507 0.39211 0.0
C40 C 0.45061 0.22957 0.26616 0.0
N41 N 0.46209 0.21553 0.29162 0.0
C42 C 0.45371 0.25494 0.26578 0.0
C43 C 0.46867 0.26591 0.2917 0.0
C44 C 0.48032 0.25146 0.31758 0.0
C45 C 0.47677 0.22616 0.31716 0.0
C46 C 0.53246 0.18148 0.27379 0.0
C47 C 0.50026 0.15812 0.32018 0.0
C48 C 0.50731 0.1859 0.272 0.0
N49 N 0.49158 0.17437 0.29518 0.0
C50 C 0.5253 0.15325 0.32275 0.0
C51 C 0.54147 0.16505 0.29939 0.0
C52 C 0.43345 0.13068 0.30257 0.0
C53 C 0.36115 0.18004 0.2191 0.0
C54 C 0.368 0.1428 0.26885 0.0
C55 C 0.35466 0.13821 0.2373 0.0
C56 C 0.35125 0.15699 0.21228 0.0
N57 N 0.37764 0.16545 0.27535 0.0
C58 C 0.37438 0.18395 0.25096 0.0
Co59 Co 0.82205 0.45607 0.54192 0.0
Co60 Co 0.83342 0.39825 0.57572 0.0
O61 O 0.81595 0.42092 0.5441 0.0
C62 C 0.8297 0.44169 0.46532 0.0
O63 O 0.84567 0.42513 0.47557 0.0
C64 C 0.78179 0.39154 0.59748 0.0
O65 O 0.77985 0.41547 0.59878 0.0
O66 O 0.82946 0.42026 0.61854 0.0
O67 O 0.82494 0.45789 0.59511 0.0
H68 H 0.89563 0.37422 0.66946 0.0
H69 H 0.77861 0.43451 0.5058 0.0
O70 O 0.81892 0.45511 0.48844 0.0
H71 H 0.74559 0.49443 0.59294 0.0
H72 H 0.80809 0.54138 0.49473 0.0
H73 H 0.85608 0.49026 0.5788 0.0
H74 H 0.79013 0.48866 0.58652 0.0
H75 H 0.80063 0.49696 0.49872 0.0
O76 O 0.80192 0.38163 0.5881 0.0
H77 H 0.87356 0.40282 0.62942 0.0
H78 H 0.82986 0.34458 0.58912 0.0
H79 H 0.86398 0.53464 0.5759 0.0
H80 H 0.73393 0.43986 0.51103 0.0
H81 H 0.83989 0.56052 0.53363 0.0
H82 H 0.71714 0.46994 0.55496 0.0
O83 O 0.85826 0.45097 0.53825 0.0
H84 H 0.80487 0.35289 0.46512 0.0
H85 H 0.87562 0.37125 0.54348 0.0
H86 H 0.88123 0.34486 0.48991 0.0
H87 H 0.84567 0.33548 0.45033 0.0
H88 H 0.80014 0.37937 0.5188 0.0
H89 H 0.85131 0.31538 0.62896 0.0
H90 H 0.88452 0.33015 0.66939 0.0
O91 O 0.86507 0.41439 0.56422 0.0
C92 C 0.82721 0.4434 0.62179 0.0
C93 C 0.88124 0.36755 0.65189 0.0
C94 C 0.85633 0.33453 0.6292 0.0
N95 N 0.85056 0.37535 0.60681 0.0
C96 C 0.86872 0.38365 0.62909 0.0
C97 C 0.84421 0.35116 0.60678 0.0
C98 C 0.87498 0.34283 0.65187 0.0
C99 C 0.77146 0.44775 0.52481 0.0
N100 N 0.78699 0.46124 0.54589 0.0
C101 C 0.74613 0.45065 0.52772 0.0
C102 C 0.73673 0.46751 0.5524 0.0
C103 C 0.75267 0.48123 0.57375 0.0
C104 C 0.77789 0.47782 0.57012 0.0
C105 C 0.81868 0.53031 0.5133 0.0
C106 C 0.84542 0.50142 0.56048 0.0
C107 C 0.81459 0.50513 0.51561 0.0
N108 N 0.8278 0.49105 0.53915 0.0
C109 C 0.85002 0.52653 0.55889 0.0
C110 C 0.83652 0.54103 0.53514 0.0
C111 C 0.87258 0.43416 0.54967 0.0
C112 C 0.8205 0.3568 0.48218 0.0
C113 C 0.8601 0.36736 0.5263 0.0
C114 C 0.86336 0.35234 0.49606 0.0
C115 C 0.8434 0.34707 0.47388 0.0
N116 N 0.83757 0.3768 0.53429 0.0
C117 C 0.81791 0.37173 0.51267 0.0
Co118 Co 0.54266 0.81988 0.79095 0.0
Co119 Co 0.598 0.83259 0.83201 0.0
O120 O 0.5781 0.81659 0.79501 0.0
C121 C 0.55825 0.83745 0.71886 0.0
O122 O 0.57233 0.85366 0.73481 0.0
C123 C 0.608 0.78009 0.84262 0.0
O124 O 0.58427 0.77659 0.8405 0.0
O125 O 0.57513 0.82258 0.87126 0.0
O126 O 0.53869 0.81752 0.8442 0.0
H127 H 0.61323 0.88623 0.9403 0.0
H128 H 0.56852 0.7822 0.7476 0.0
O129 O 0.54581 0.82225 0.73732 0.0
H130 H 0.51012 0.73659 0.82376 0.0
H131 H 0.46069 0.80365 0.73339 0.0
H132 H 0.50436 0.84741 0.83077 0.0
H133 H 0.51223 0.78162 0.82693 0.0
H134 H 0.50542 0.79945 0.7402 0.0
O135 O 0.61682 0.80155 0.83921 0.0
H136 H 0.58806 0.86624 0.89333 0.0
H137 H 0.65127 0.8321 0.84938 0.0
H138 H 0.4596 0.85197 0.82513 0.0
H139 H 0.56686 0.73718 0.74335 0.0
H140 H 0.43747 0.82998 0.77616 0.0
H141 H 0.53756 0.71408 0.78171 0.0
O142 O 0.54476 0.8562 0.795 0.0
H143 H 0.64991 0.81917 0.72146 0.0
H144 H 0.62167 0.87973 0.81131 0.0
H145 H 0.64935 0.89277 0.76223 0.0
H146 H 0.6637 0.86237 0.71691 0.0
H147 H 0.62205 0.80697 0.77083 0.0
H148 H 0.67711 0.85155 0.89605 0.0
H149 H 0.6581 0.87892 0.94184 0.0
O150 O 0.57949 0.86377 0.82574 0.0
C151 C 0.55221 0.81824 0.87224 0.0
C152 C 0.62174 0.87441 0.92042 0.0
C153 C 0.65759 0.85492 0.89561 0.0
N154 N 0.61822 0.8482 0.86849 0.0
C155 C 0.60759 0.86311 0.8937 0.0
C156 C 0.64286 0.84392 0.8693 0.0
C157 C 0.64691 0.87028 0.92129 0.0
C158 C 0.55556 0.77228 0.76413 0.0
N159 N 0.54042 0.78453 0.78737 0.0
C160 C 0.55477 0.74679 0.76171 0.0
C161 C 0.53835 0.73384 0.78328 0.0
C162 C 0.52296 0.74646 0.8069 0.0
C163 C 0.52427 0.77195 0.80863 0.0
C164 C 0.47012 0.81328 0.75489 0.0
C165 C 0.49484 0.83766 0.80953 0.0
C166 C 0.49545 0.811 0.75884 0.0
N167 N 0.50745 0.82301 0.78605 0.0
C168 C 0.4695 0.84037 0.80641 0.0
C169 C 0.4571 0.82805 0.7789 0.0
C170 C 0.55972 0.87076 0.81053 0.0
C171 C 0.64383 0.83257 0.7411 0.0
C172 C 0.62777 0.86641 0.79163 0.0
C173 C 0.64349 0.87389 0.76395 0.0
C174 C 0.65154 0.85682 0.73854 0.0
N175 N 0.62037 0.84258 0.79403 0.0
C176 C 0.62813 0.82575 0.76917 0.0
Co177 Co 0.17791 0.53818 0.05346 0.0
Co178 Co 0.17313 0.6004 0.06785 0.0
O179 O 0.18945 0.57174 0.04734 0.0
C180 C 0.18027 0.54269 0.9742 0.0
O181 O 0.1682 0.56337 0.9773 0.0
C182 C 0.22322 0.60402 0.09729 0.0
O183 O 0.22157 0.58074 0.10569 0.0
O184 O 0.17118 0.5849 0.11667 0.0
O185 O 0.16885 0.54467 0.10441 0.0
H186 H 0.10875 0.64462 0.13977 0.0
H187 H 0.22761 0.54698 0.024 0.0
O188 O 0.18644 0.53075 0.00227 0.0
H189 H 0.24027 0.49994 0.13639 0.0
H190 H 0.18292 0.44687 0.03666 0.0
H191 H 0.13458 0.5149 0.0875 0.0
H192 H 0.19859 0.51042 0.11592 0.0
H193 H 0.19708 0.48951 0.03037 0.0
O194 O 0.20561 0.61468 0.08109 0.0
H195 H 0.12927 0.60846 0.11368 0.0
H196 H 0.18319 0.65398 0.06554 0.0
H197 H 0.11985 0.47254 0.09473 0.0
H198 H 0.26961 0.53669 0.0433 0.0
H199 H 0.1441 0.43816 0.06918 0.0
H200 H 0.27613 0.51308 0.09994 0.0
O201 O 0.14412 0.54732 0.03854 0.0
H202 H 0.21521 0.62526 0.95265 0.0
H203 H 0.13743 0.62641 0.02033 0.0
H204 H 0.13924 0.64485 0.95945 0.0
H205 H 0.17838 0.64439 0.92521 0.0
H206 H 0.2125 0.60682 0.0135 0.0
H207 H 0.1634 0.69061 0.0914 0.0
H208 H 0.12584 0.68606 0.12868 0.0
O209 O 0.14035 0.58668 0.05543 0.0
C210 C 0.1677 0.56274 0.12608 0.0
C211 C 0.12507 0.64685 0.12348 0.0
C212 C 0.15576 0.67266 0.09638 0.0
N213 N 0.15731 0.62913 0.08793 0.0
C214 C 0.13673 0.62645 0.10857 0.0
C215 C 0.16692 0.65185 0.08189 0.0
C216 C 0.13468 0.67009 0.11728 0.0
C217 C 0.23031 0.53648 0.04848 0.0
N218 N 0.21068 0.52919 0.06869 0.0
C219 C 0.25413 0.5308 0.05935 0.0
C220 C 0.25778 0.51758 0.09117 0.0
C221 C 0.23766 0.51022 0.11164 0.0
C222 C 0.21411 0.51625 0.09995 0.0
C223 C 0.17224 0.46169 0.04803 0.0
C224 C 0.14535 0.50003 0.07664 0.0
C225 C 0.18015 0.48587 0.04452 0.0
N226 N 0.16682 0.50466 0.05897 0.0
C227 C 0.13686 0.47608 0.08067 0.0
C228 C 0.15046 0.45681 0.06628 0.0
C229 C 0.13145 0.56664 0.04355 0.0
C230 C 0.19807 0.62562 0.96733 0.0
C231 C 0.15448 0.62603 0.00553 0.0
C232 C 0.15542 0.63657 0.97111 0.0
C233 C 0.17739 0.63632 0.95193 0.0
N234 N 0.17485 0.6156 0.02047 0.0
C235 C 0.19645 0.61528 0.00183 0.0
Co236 Co 0.45327 0.81852 0.30192 0.0
Co237 Co 0.39483 0.82785 0.26859 0.0
O238 O 0.41805 0.81226 0.30165 0.0
C239 C 0.44087 0.83354 0.37688 0.0
O240 O 0.42466 0.84899 0.36402 0.0
C241 C 0.38951 0.77523 0.25225 0.0
O242 O 0.41338 0.77339 0.25499 0.0
O243 O 0.41663 0.82238 0.22604 0.0
O244 O 0.45448 0.81735 0.24842 0.0
H245 H 0.36935 0.88548 0.16954 0.0
H246 H 0.43303 0.77813 0.34632 0.0
O247 O 0.45299 0.81967 0.35582 0.0
H248 H 0.49063 0.73881 0.2615 0.0
H249 H 0.53915 0.80821 0.34905 0.0
H250 H 0.48693 0.84981 0.25919 0.0
H251 H 0.48463 0.78352 0.26067 0.0
H252 H 0.49471 0.80037 0.34715 0.0
O253 O 0.37892 0.79558 0.25848 0.0
H254 H 0.39847 0.86575 0.21144 0.0
H255 H 0.34118 0.82264 0.25577 0.0
H256 H 0.53131 0.85804 0.25995 0.0
H257 H 0.43865 0.73336 0.3483 0.0
H258 H 0.55774 0.83717 0.30514 0.0
H259 H 0.46756 0.71341 0.30558 0.0
O260 O 0.44815 0.8547 0.29982 0.0
H261 H 0.35003 0.80263 0.3813 0.0
H262 H 0.36699 0.87065 0.29734 0.0
H263 H 0.34039 0.87772 0.3503 0.0
H264 H 0.33171 0.84352 0.39267 0.0
H265 H 0.37672 0.79646 0.32815 0.0
H266 H 0.31148 0.84172 0.21411 0.0
H267 H 0.32551 0.87346 0.1707 0.0
O268 O 0.41029 0.86028 0.27738 0.0
C269 C 0.43954 0.81886 0.22211 0.0
C270 C 0.363 0.87173 0.18841 0.0
C271 C 0.33053 0.84715 0.21339 0.0
N272 N 0.3715 0.84321 0.23619 0.0
C273 C 0.37939 0.86055 0.21227 0.0
C274 C 0.34744 0.83637 0.23685 0.0
C275 C 0.33841 0.86496 0.18905 0.0
C276 C 0.44582 0.7696 0.32788 0.0
N277 N 0.45856 0.78343 0.30352 0.0
C278 C 0.44885 0.74423 0.32902 0.0
C279 C 0.46505 0.73305 0.30502 0.0
C280 C 0.47799 0.74729 0.28026 0.0
C281 C 0.47447 0.7726 0.27987 0.0
C282 C 0.52783 0.81738 0.32918 0.0
C283 C 0.49833 0.84053 0.27878 0.0
C284 C 0.50265 0.81304 0.32801 0.0
N285 N 0.48827 0.82447 0.30288 0.0
C286 C 0.52344 0.84532 0.27915 0.0
C287 C 0.53826 0.83362 0.30453 0.0
C288 C 0.43068 0.86844 0.28912 0.0
C289 C 0.35365 0.81767 0.36301 0.0
C290 C 0.36342 0.85574 0.31578 0.0
C291 C 0.34828 0.85982 0.34565 0.0
C292 C 0.34339 0.84062 0.36939 0.0
N293 N 0.37336 0.83316 0.30966 0.0
C294 C 0.36869 0.81426 0.33283 0.0
Co295 Co 0.18518 0.45512 0.55086 0.0
Co296 Co 0.16938 0.39983 0.51159 0.0
O297 O 0.18956 0.41999 0.54348 0.0
C298 C 0.17928 0.43528 0.62479 0.0
O299 O 0.16374 0.41913 0.61196 0.0
C300 C 0.2193 0.39452 0.48172 0.0
O301 O 0.22218 0.41812 0.48673 0.0
O302 O 0.17043 0.42476 0.47218 0.0
O303 O 0.18093 0.46036 0.49831 0.0
H304 H 0.09987 0.38333 0.42585 0.0
H305 H 0.22854 0.42983 0.58146 0.0
O306 O 0.18952 0.45065 0.60388 0.0
H307 H 0.2618 0.4928 0.49955 0.0
H308 H 0.20441 0.53633 0.60876 0.0
H309 H 0.15194 0.49299 0.52096 0.0
H310 H 0.21724 0.48858 0.50813 0.0
H311 H 0.20964 0.49208 0.59809 0.0
O312 O 0.19939 0.38411 0.49091 0.0
H313 H 0.12538 0.40859 0.4664 0.0
H314 H 0.17096 0.34748 0.4888 0.0
H315 H 0.14623 0.53729 0.53058 0.0
H316 H 0.27324 0.43356 0.57394 0.0
H317 H 0.17257 0.55925 0.57476 0.0
H318 H 0.29014 0.46517 0.53263 0.0
O319 O 0.1489 0.45146 0.55629 0.0
H320 H 0.20567 0.34651 0.60851 0.0
H321 H 0.12964 0.37048 0.5459 0.0
H322 H 0.12783 0.34026 0.5954 0.0
H323 H 0.16606 0.32804 0.62702 0.0
H324 H 0.20657 0.37686 0.55909 0.0
H325 H 0.14608 0.3216 0.44824 0.0
H326 H 0.11019 0.3395 0.41655 0.0
O327 O 0.13915 0.41516 0.53128 0.0
C328 C 0.17501 0.44763 0.47086 0.0
C329 C 0.11542 0.3753 0.43959 0.0
C330 C 0.14137 0.34067 0.45212 0.0
N331 N 0.14952 0.37948 0.48014 0.0
C332 C 0.12988 0.38949 0.46267 0.0
C333 C 0.15543 0.35542 0.47498 0.0
C334 C 0.12123 0.35072 0.43436 0.0
C335 C 0.23576 0.44377 0.56367 0.0
N336 N 0.22029 0.459 0.5453 0.0
C337 C 0.26108 0.44573 0.55942 0.0
C338 C 0.27055 0.46345 0.5362 0.0
C339 C 0.25466 0.47895 0.51761 0.0
C340 C 0.22944 0.47643 0.52249 0.0
C341 C 0.19284 0.52697 0.5894 0.0
C342 C 0.16357 0.50245 0.54008 0.0
C343 C 0.19567 0.50191 0.58331 0.0
N344 N 0.1812 0.48999 0.55876 0.0
C345 C 0.16021 0.52752 0.54548 0.0
C346 C 0.17498 0.53982 0.5703 0.0
C347 C 0.1334 0.43507 0.54719 0.0
C348 C 0.18889 0.35166 0.59492 0.0
C349 C 0.14631 0.36538 0.5597 0.0
C350 C 0.14519 0.34819 0.58761 0.0
C351 C 0.16665 0.34133 0.60532 0.0
N352 N 0.16818 0.37542 0.54965 0.0
C353 C 0.1893 0.36878 0.56686 0.0
Co354 Co 0.54509 0.18241 0.80134 0.0
Co355 Co 0.59812 0.16803 0.75499 0.0
O356 O 0.58031 0.18522 0.7932 0.0
C357 C 0.56418 0.16613 0.87224 0.0
O358 O 0.57765 0.14986 0.85531 0.0
C359 C 0.60831 0.22006 0.73983 0.0
O360 O 0.58495 0.22428 0.74539 0.0
O361 O 0.57338 0.17742 0.71797 0.0
O362 O 0.53841 0.18368 0.74852 0.0
H363 H 0.60695 0.1116 0.64828 0.0
H364 H 0.57338 0.22065 0.84 0.0
O365 O 0.55089 0.18109 0.85462 0.0
H366 H 0.51178 0.26534 0.76817 0.0
H367 H 0.46646 0.20087 0.86699 0.0
H368 H 0.50463 0.15445 0.76728 0.0
H369 H 0.51333 0.22025 0.76689 0.0
H370 H 0.51074 0.20441 0.85501 0.0
O371 O 0.61688 0.19853 0.74366 0.0
H372 H 0.58456 0.13315 0.69678 0.0
H373 H 0.65037 0.16713 0.73177 0.0
H374 H 0.46025 0.15053 0.77812 0.0
H375 H 0.57234 0.26576 0.84232 0.0
H376 H 0.44089 0.17385 0.82829 0.0
H377 H 0.54142 0.28839 0.80612 0.0
O378 O 0.5466 0.14597 0.79889 0.0
H379 H 0.65584 0.18362 0.85839 0.0
H380 H 0.62229 0.12112 0.77574 0.0
H381 H 0.65234 0.10901 0.82226 0.0
H382 H 0.66937 0.1404 0.86394 0.0
H383 H 0.62558 0.1949 0.81165 0.0
H384 H 0.67344 0.14612 0.68345 0.0
H385 H 0.65171 0.11804 0.64139 0.0
O386 O 0.57971 0.13732 0.76508 0.0
C387 C 0.55054 0.18212 0.71919 0.0
C388 C 0.61663 0.12372 0.66652 0.0
C389 C 0.65394 0.14312 0.68623 0.0
N390 N 0.61619 0.1512 0.71726 0.0
C391 C 0.60407 0.13592 0.69409 0.0
C392 C 0.64078 0.155 0.71349 0.0
C393 C 0.64175 0.12736 0.66264 0.0
C394 C 0.55973 0.23038 0.82444 0.0
N395 N 0.54338 0.21783 0.80346 0.0
C396 C 0.55929 0.25591 0.82575 0.0
C397 C 0.54196 0.2686 0.80539 0.0
C398 C 0.52533 0.25568 0.78408 0.0
C399 C 0.52634 0.23015 0.7834 0.0
C400 C 0.47467 0.19066 0.84499 0.0
C401 C 0.4963 0.16478 0.78901 0.0
C402 C 0.49974 0.19256 0.83812 0.0
N403 N 0.51021 0.17982 0.81026 0.0
C404 C 0.47118 0.16243 0.79509 0.0
C405 C 0.46033 0.1755 0.82326 0.0
C406 C 0.56067 0.13089 0.78263 0.0
C407 C 0.6486 0.1698 0.84033 0.0
C408 C 0.62956 0.13487 0.79385 0.0
C409 C 0.64661 0.12791 0.82009 0.0
C410 C 0.65616 0.14553 0.84345 0.0
N411 N 0.6223 0.15872 0.79088 0.0
C412 C 0.63154 0.17609 0.81374 0.0
Co413 Co 0.82169 0.54499 0.041 0.0
Co414 Co 0.8299 0.60535 0.01619 0.0
O415 O 0.81185 0.57938 0.04088 0.0
C416 C 0.81943 0.55539 0.11922 0.0
O417 O 0.83283 0.57496 0.11351 0.0
C418 C 0.78058 0.60899 0.98384 0.0
O419 O 0.78063 0.58505 0.98085 0.0
O420 O 0.83205 0.5858 0.97059 0.0
O421 O 0.8313 0.54676 0.98954 0.0
H422 H 0.89785 0.64012 0.94033 0.0
H423 H 0.77235 0.55868 0.06764 0.0
O424 O 0.81249 0.54218 0.09283 0.0
H425 H 0.75787 0.50349 0.96409 0.0
H426 H 0.81176 0.45607 0.0735 0.0
H427 H 0.86394 0.51689 0.01227 0.0
H428 H 0.79992 0.51341 0.98345 0.0
H429 H 0.79982 0.49959 0.07196 0.0
O430 O 0.79856 0.61997 -0.0014 0.0
H431 H 0.87497 0.60743 0.97152 0.0
H432 H 0.82258 0.65917 0.00848 0.0
H433 H 0.87647 0.47355 0.01285 0.0
H434 H 0.72998 0.54906 0.0494 0.0
H435 H 0.85028 0.44279 0.04365 0.0
H436 H 0.72254 0.52134 -0.0028 0.0
O437 O 0.85592 0.55349 0.05492 0.0
H438 H 0.78667 0.64139 0.12378 0.0
H439 H 0.86577 0.63365 0.06055 0.0
H440 H 0.86355 0.65708 0.11757 0.0
H441 H 0.82376 0.6611 0.14955 0.0
H442 H 0.78979 0.61794 0.06684 0.0
H443 H 0.84474 0.69238 0.97736 0.0
H444 H 0.88273 0.68295 0.94312 0.0
O445 O 0.86162 0.59134 0.03269 0.0
C446 C 0.834 0.56285 0.96504 0.0
C447 C 0.88135 0.64447 0.95524 0.0
C448 C 0.85153 0.6738 0.97598 0.0
N449 N 0.84755 0.63142 -0.00803 0.0
C450 C 0.86836 0.62605 0.97303 0.0
C451 C 0.83902 0.65491 -0.00654 0.0
C452 C 0.87285 0.6685 0.95678 0.0
C453 C 0.76924 0.54641 0.04513 0.0
N454 N 0.78857 0.53652 0.02676 0.0
C455 C 0.74522 0.54111 0.03483 0.0
C456 C 0.74106 0.52559 0.0055 0.0
C457 C 0.76087 0.51558 0.9869 0.0
C458 C 0.78464 0.52131 -0.00206 0.0
C459 C 0.82328 0.46929 0.05988 0.0
C460 C 0.85234 0.50359 0.02542 0.0
C461 C 0.81664 0.49396 0.05896 0.0
N462 N 0.83103 0.51073 0.04165 0.0
C463 C 0.85958 0.47908 0.0258 0.0
C464 C 0.84489 0.46184 0.04312 0.0
C465 C 0.86947 0.57186 0.04771 0.0
C466 C 0.80411 0.6398 0.11007 0.0
C467 C 0.84844 0.63521 0.0744 0.0
C468 C 0.84727 0.64857 0.10662 0.0
C469 C 0.82493 0.65084 0.12454 0.0
N470 N 0.82793 0.62448 0.06036 0.0
C471 C 0.80597 0.62661 0.07777 0.0
C472 C 0.4725 0.18592 0.41494 0.0
C473 C 0.44731 0.18344 0.40797 0.0
C474 C 0.48105 0.18887 0.45011 0.0
C475 C 0.46569 0.17698 0.54465 0.0
H476 H 0.52079 0.22028 0.56183 0.0
C477 C 0.51142 0.18778 0.68491 0.0
C478 C 0.5371 0.18564 0.68483 0.0
C479 C 0.49854 0.19019 0.65249 0.0
C480 C 0.50544 0.20811 0.55739 0.0
H481 H 0.41133 0.18208 0.43278 0.0
H482 H 0.42646 0.18737 0.49477 0.0
H483 H 0.50077 0.22018 0.5028 0.0
H484 H 0.56939 0.18482 0.65058 0.0
H485 H 0.54682 0.18912 0.59397 0.0
H486 H 0.47066 0.1647 0.59923 0.0
C487 C 0.43948 0.18691 0.47267 0.0
C488 C 0.49397 0.20803 0.52367 0.0
C489 C 0.43084 0.18394 0.43722 0.0
C490 C 0.54964 0.18641 0.65163 0.0
C491 C 0.53674 0.18902 0.61923 0.0
C492 C 0.47709 0.17717 0.57852 0.0
C493 C 0.4647 0.1895 0.47936 0.0
C494 C 0.47442 0.19199 0.51663 0.0
C495 C 0.51107 0.19073 0.61937 0.0
C496 C 0.49744 0.19231 0.58486 0.0
H497 H 0.48583 0.18544 0.39324 0.0
H498 H 0.50062 0.19023 0.4544 0.0
H499 H 0.45081 0.16428 0.53994 0.0
H500 H 0.50114 0.1873 0.70998 0.0
H501 H 0.47877 0.19166 0.65333 0.0
C502 C 0.83687 0.44184 0.68828 0.0
C503 C 0.82801 0.4547 0.65808 0.0
C504 C 0.83956 0.45375 0.72161 0.0
C505 C 0.8453 0.51598 0.76033 0.0
H506 H 0.82667 0.48432 0.85002 0.0
C507 C 0.83077 0.56609 0.89746 0.0
C508 C 0.83895 0.55359 0.92836 0.0
C509 C 0.83222 0.55487 0.86343 0.0
C510 C 0.83222 0.49329 0.82519 0.0
H511 H 0.81425 0.48989 0.63958 0.0
H512 H 0.81819 0.51011 0.69739 0.0
H513 H 0.82319 0.46195 0.79319 0.0
H514 H 0.85704 0.5207 0.94765 0.0
H515 H 0.85974 0.50145 0.88867 0.0
H516 H 0.85382 0.54752 0.79247 0.0
C517 C 0.82375 0.49113 0.69527 0.0
C518 C 0.83027 0.48046 0.7927 0.0
C519 C 0.82124 0.47938 0.66214 0.0
C520 C 0.8501 0.53057 0.92442 0.0
C521 C 0.85161 0.51949 0.89067 0.0
C522 C 0.84711 0.52887 0.79284 0.0
C523 C 0.83331 0.47862 0.7252 0.0
C524 C 0.83662 0.49173 0.75992 0.0
C525 C 0.84195 0.53113 0.86008 0.0
C526 C 0.84053 0.51764 0.82552 0.0
H527 H 0.84239 0.42287 0.68595 0.0
H528 H 0.84708 0.44367 0.74427 0.0
H529 H 0.85072 0.52501 0.73549 0.0
H530 H 0.82211 0.58386 0.89982 0.0
H531 H 0.82465 0.56422 0.84012 0.0
C532 C 0.43436 0.8153 0.15469 0.0
C533 C 0.4497 0.81624 0.18522 0.0
C534 C 0.44437 0.81289 0.12002 0.0
C535 C 0.5014 0.79487 0.07245 0.0
H536 H 0.47576 0.83532 -0.00497 0.0
C537 C 0.55387 0.81495 0.93999 0.0
C538 C 0.54026 0.81443 0.90769 0.0
C539 C 0.54212 0.81271 0.97342 0.0
C540 C 0.48292 0.8237 0.01629 0.0
H541 H 0.48762 0.81543 0.20317 0.0
H542 H 0.50486 0.81179 0.14309 0.0
H543 H 0.45593 0.83588 0.05414 0.0
H544 H 0.50364 0.81048 0.88525 0.0
H545 H 0.48335 0.80665 0.94346 0.0
H546 H 0.52881 0.78323 0.03472 0.0
C547 C 0.48513 0.81236 0.14583 0.0
C548 C 0.47152 0.82395 0.05009 0.0
C549 C 0.47518 0.81465 0.18034 0.0
C550 C 0.51474 0.81109 0.90954 0.0
C551 C 0.50304 0.80899 0.94289 0.0
C552 C 0.51289 0.79474 0.03871 0.0
C553 C 0.46988 0.81144 0.11528 0.0
C554 C 0.48081 0.80975 0.07865 0.0
C555 C 0.51656 0.81005 0.97513 0.0
C556 C 0.50387 0.80932 0.01044 0.0
H557 H 0.41465 0.81638 0.15752 0.0
H558 H 0.43214 0.81201 0.09696 0.0
H559 H 0.50873 0.78339 0.09375 0.0
H560 H 0.57354 0.81749 0.93954 0.0
H561 H 0.55294 0.81376 -0.00204 0.0
C562 C 0.16191 0.44936 0.40586 0.0
C563 C 0.1731 0.46051 0.43586 0.0
C564 C 0.15934 0.46218 0.37339 0.0
C565 C 0.16029 0.52497 0.33526 0.0
H566 H 0.17105 0.49036 0.24501 0.0
C567 C 0.17455 0.56901 0.19253 0.0
C568 C 0.16264 0.55678 0.1641 0.0
C569 C 0.17329 0.55963 0.22777 0.0
C570 C 0.16778 0.5002 0.27003 0.0
H571 H 0.19057 0.49381 0.45514 0.0
H572 H 0.18679 0.51568 0.39841 0.0
H573 H 0.17455 0.46841 0.30199 0.0
H574 H 0.13806 0.52701 0.15045 0.0
H575 H 0.13579 0.51087 0.21158 0.0
H576 H 0.15414 0.55696 0.30277 0.0
C577 C 0.17945 0.49732 0.40014 0.0
C578 C 0.16968 0.48761 0.30264 0.0
C579 C 0.18182 0.48463 0.43261 0.0
C580 C 0.14786 0.53645 0.17178 0.0
C581 C 0.14655 0.52719 0.20671 0.0
C582 C 0.1586 0.53765 0.3025 0.0
C583 C 0.1681 0.4863 0.37021 0.0
C584 C 0.16584 0.4998 0.33562 0.0
C585 C 0.16005 0.53806 0.23467 0.0
C586 C 0.16213 0.52527 0.26966 0.0
H587 H 0.15478 0.4309 0.40759 0.0
H588 H 0.1502 0.45329 0.35092 0.0
H589 H 0.15696 0.53482 0.36024 0.0
H590 H 0.18606 0.58473 0.18715 0.0
H591 H 0.18381 0.56831 0.24907 0.0
C592 C 0.3487 0.24299 0.34135 0.0
C593 C 0.3743 0.2454 0.34233 0.0
C594 C 0.33364 0.26223 0.35228 0.0
C595 C 0.33366 0.31728 0.40979 0.0
H596 H 0.27038 0.32746 0.36458 0.0
C597 C 0.26243 0.38938 0.45935 0.0
C598 C 0.23868 0.37995 0.46391 0.0
C599 C 0.28048 0.37547 0.44195 0.0
C600 C 0.28801 0.32482 0.37746 0.0
H601 H 0.40415 0.27027 0.35441 0.0
H602 H 0.37772 0.3041 0.37312 0.0
H603 H 0.29952 0.29922 0.33713 0.0
H604 H 0.21523 0.34862 0.4537 0.0
H605 H 0.24657 0.32461 0.42322 0.0
H606 H 0.32186 0.34284 0.45032 0.0
C607 C 0.36936 0.28712 0.3644 0.0
C608 C 0.30468 0.30861 0.36182 0.0
C609 C 0.38449 0.26779 0.35349 0.0
C610 C 0.23335 0.35643 0.4507 0.0
C611 C 0.25124 0.34273 0.43297 0.0
C612 C 0.317 0.33369 0.42529 0.0
C613 C 0.34374 0.28445 0.36431 0.0
C614 C 0.32745 0.30411 0.37832 0.0
C615 C 0.27496 0.35209 0.42834 0.0
C616 C 0.29378 0.3371 0.40978 0.0
H617 H 0.34019 0.226 0.33297 0.0
H618 H 0.31403 0.25933 0.35241 0.0
H619 H 0.35093 0.31411 0.4234 0.0
H620 H 0.2671 0.40743 0.46933 0.0
H621 H 0.29864 0.38311 0.43869 0.0
C622 C 0.76383 0.35019 0.60844 0.0
C623 C 0.76111 0.37576 0.60864 0.0
C624 C 0.74499 0.33508 0.62055 0.0
C625 C 0.69035 0.33467 0.67888 0.0
H626 H 0.67945 0.27208 0.632 0.0
C627 C 0.61613 0.26404 0.72375 0.0
C628 C 0.62444 0.23973 0.72616 0.0
C629 C 0.63108 0.2822 0.70868 0.0
C630 C 0.68234 0.28947 0.64545 0.0
H631 H 0.73618 0.4055 0.62109 0.0
H632 H 0.70301 0.37894 0.64198 0.0
H633 H 0.70794 0.30118 0.60533 0.0
H634 H 0.65513 0.21556 0.71532 0.0
H635 H 0.68097 0.24709 0.68906 0.0
H636 H 0.66467 0.32269 0.71913 0.0
C637 C 0.71994 0.37067 0.63283 0.0
C638 C 0.69869 0.30613 0.63021 0.0
C639 C 0.73888 0.38587 0.62069 0.0
C640 C 0.64811 0.23406 0.71382 0.0
C641 C 0.66288 0.2521 0.69851 0.0
C642 C 0.67381 0.31799 0.69403 0.0
C643 C 0.72285 0.34509 0.63305 0.0
C644 C 0.70336 0.32869 0.64719 0.0
C645 C 0.65445 0.27628 0.6954 0.0
C646 C 0.67011 0.295 0.67788 0.0
H647 H 0.78071 0.34175 0.59945 0.0
H648 H 0.74806 0.31551 0.62092 0.0
H649 H 0.69365 0.3518 0.6928 0.0
H650 H 0.59801 0.269 0.73311 0.0
H651 H 0.62414 0.30071 0.70658 0.0
C652 C 0.73898 0.61274 0.95514 0.0
C653 C 0.76078 0.62368 0.96733 0.0
C654 C 0.72093 0.62686 0.93807 0.0
C655 C 0.71357 0.68333 0.88605 0.0
H656 H 0.64645 0.68424 0.92009 0.0
C657 C 0.64962 0.76367 0.85656 0.0
C658 C 0.62454 0.75942 0.85102 0.0
C659 C 0.66516 0.74458 0.86649 0.0
C660 C 0.66499 0.68387 0.90973 0.0
H661 H 0.78064 0.658 0.97138 0.0
H662 H 0.74943 0.68234 0.94144 0.0
H663 H 0.67549 0.65493 0.94583 0.0
H664 H 0.59621 0.7316 0.85061 0.0
H665 H 0.62354 0.69809 0.86757 0.0
H666 H 0.70338 0.71225 0.8502 0.0
C667 C 0.74628 0.66291 0.94498 0.0
C668 C 0.68159 0.66712 0.92455 0.0
C669 C 0.76408 0.64896 0.96239 0.0
C670 C 0.61544 0.73549 0.85486 0.0
C671 C 0.63106 0.71632 0.86474 0.0
C672 C 0.69699 0.69986 0.87103 0.0
C673 C 0.72463 0.65201 0.93241 0.0
C674 C 0.70619 0.66722 0.91356 0.0
C675 C 0.65608 0.72069 0.87094 0.0
C676 C 0.67269 0.70085 0.88344 0.0
H677 H 0.73591 0.5933 0.95864 0.0
H678 H 0.70434 0.61807 0.92864 0.0
H679 H 0.73236 0.68346 0.87666 0.0
H680 H 0.65725 0.78187 0.85396 0.0
H681 H 0.68422 0.74874 0.87167 0.0
C682 C 0.24476 0.64405 0.10361 0.0
C683 C 0.2446 0.61862 0.10904 0.0
C684 C 0.26388 0.65835 0.11686 0.0
C685 C 0.31238 0.65869 0.18635 0.0
H686 H 0.33128 0.71787 0.13565 0.0
C687 C 0.38469 0.73078 0.23636 0.0
C688 C 0.37501 0.75462 0.23774 0.0
C689 C 0.37136 0.7118 0.22015 0.0
C690 C 0.32624 0.70133 0.15 0.0
H691 H 0.26488 0.58812 0.13168 0.0
H692 H 0.29869 0.61317 0.15434 0.0
H693 H 0.30441 0.68846 0.10597 0.0
H694 H 0.3437 0.77717 0.22359 0.0
H695 H 0.32085 0.74423 0.19482 0.0
H696 H 0.33445 0.67189 0.23041 0.0
C697 C 0.28371 0.62206 0.14035 0.0
C698 C 0.31076 0.68454 0.13314 0.0
C699 C 0.26442 0.6077 0.1272 0.0
C700 C 0.35167 0.75902 0.22311 0.0
C701 C 0.33863 0.74023 0.2064 0.0
C702 C 0.32821 0.6754 0.20305 0.0
C703 C 0.28353 0.64761 0.13563 0.0
C704 C 0.30295 0.66342 0.15154 0.0
C705 C 0.34844 0.71654 0.20445 0.0
C706 C 0.33463 0.69719 0.18537 0.0
H707 H 0.22977 0.65312 0.08988 0.0
H708 H 0.2628 0.67799 0.11331 0.0
H709 H 0.30663 0.64271 0.20143 0.0
H710 H 0.40262 0.72686 0.24749 0.0
H711 H 0.37922 0.69361 0.21897 0.0
C712 C 0.45704 0.90596 0.29638 0.0
C713 C 0.43392 0.89536 0.29039 0.0
C714 C 0.45988 0.93145 0.29607 0.0
C715 C 0.42811 0.98785 0.26471 0.0
H716 H 0.46986 0.02098 0.33414 0.0
C717 C 0.41579 0.08847 0.30268 0.0
C718 C 0.43644 0.10375 0.3005 0.0
C719 C 0.41817 0.06317 0.29968 0.0
C720 C 0.45839 0.01189 0.31434 0.0
H721 H 0.39558 0.90339 0.28029 0.0
H722 H 0.40035 0.94735 0.28099 0.0
H723 H 0.46885 0.97617 0.3326 0.0
H724 H 0.47598 0.10421 0.29453 0.0
H725 H 0.48011 0.05958 0.29016 0.0
H726 H 0.41684 0.02353 0.24765 0.0
C727 C 0.41649 0.93614 0.2848 0.0
C728 C 0.45783 0.98626 0.31336 0.0
C729 C 0.4137 0.91081 0.28475 0.0
C730 C 0.45968 0.09298 0.29608 0.0
C731 C 0.46209 0.0675 0.29371 0.0
C732 C 0.42844 0.01333 0.26605 0.0
C733 C 0.43963 0.94683 0.28997 0.0
C734 C 0.44224 0.97394 0.28903 0.0
C735 C 0.44128 0.05245 0.29503 0.0
C736 C 0.44321 0.02557 0.2913 0.0
H737 H 0.47302 0.89459 0.30068 0.0
H738 H 0.47799 0.93905 0.29994 0.0
H739 H 0.41644 0.97904 0.2449 0.0
H740 H 0.39763 0.09599 0.30635 0.0
H741 H 0.40188 0.0519 0.30122 0.0
C742 C 0.90974 0.46107 0.54146 0.0
C743 C 0.89946 0.43786 0.54794 0.0
C744 C 0.93515 0.46457 0.54391 0.0
C745 C 0.98984 0.43592 0.58554 0.0
H746 H 0.02711 0.47301 0.51512 0.0
C747 C 0.09135 0.4192 0.55862 0.0
C748 C 0.10712 0.43928 0.55442 0.0
C749 C 0.06619 0.42266 0.56206 0.0
C750 C 0.01687 0.46296 0.53534 0.0
H751 H 0.90809 0.39998 0.56045 0.0
H752 H 0.95185 0.40596 0.56379 0.0
H753 H 0.98232 0.47218 0.51124 0.0
H754 H 0.1089 0.47885 0.55106 0.0
H755 H 0.06447 0.48489 0.55644 0.0
H756 H 0.0243 0.42587 0.60873 0.0
C757 C 0.94039 0.42164 0.55786 0.0
C758 C 0.99125 0.46247 0.53311 0.0
C759 C 0.9152 0.41817 0.55557 0.0
C760 C 0.09719 0.46303 0.55449 0.0
C761 C 0.07182 0.46649 0.5573 0.0
C762 C 0.01532 0.43628 0.5876 0.0
C763 C 0.95068 0.44494 0.55289 0.0
C764 C 0.97752 0.4483 0.55756 0.0
C765 C 0.0561 0.44627 0.5609 0.0
C766 C 0.02913 0.44924 0.56196 0.0
H767 H 0.89815 0.47666 0.53565 0.0
H768 H 0.94253 0.48275 0.53988 0.0
H769 H 0.97979 0.42539 0.60543 0.0
H770 H 0.0984 0.40069 0.55879 0.0
H771 H 0.0545 0.40672 0.56445 0.0
C772 C 0.53594 0.90698 0.78761 0.0
C773 C 0.55448 0.89737 0.80991 0.0
C774 C 0.53206 0.93226 0.78573 0.0
C775 C 0.54451 0.99053 0.83339 0.0
H776 H 0.54133 0.01924 0.73749 0.0
C777 C 0.53827 0.09526 0.81016 0.0
C778 C 0.55524 0.10438 0.78491 0.0
C779 C 0.53424 0.07004 0.81321 0.0
C780 C 0.54209 0.01147 0.76445 0.0
H781 H 0.58297 0.90684 0.84852 0.0
H782 H 0.57616 0.95071 0.84518 0.0
H783 H 0.54144 0.97479 0.74408 0.0
H784 H 0.58082 0.09412 0.74248 0.0
H785 H 0.57372 0.05041 0.7478 0.0
H786 H 0.54602 0.02723 0.85367 0.0
C787 C 0.56455 0.93874 0.8293 0.0
C788 C 0.54193 0.98604 0.76825 0.0
C789 C 0.56857 0.91355 0.83097 0.0
C790 C 0.56764 0.08779 0.76228 0.0
C791 C 0.56345 0.0627 0.76511 0.0
C792 C 0.5445 0.01598 0.82961 0.0
C793 C 0.54646 0.9484 0.80638 0.0
C794 C 0.54369 0.9753 0.80271 0.0
C795 C 0.54688 0.05352 0.79079 0.0
C796 C 0.54386 0.02669 0.79505 0.0
H797 H 0.52474 0.89505 0.77104 0.0
H798 H 0.51788 0.93919 0.76799 0.0
H799 H 0.54564 0.98275 0.86032 0.0
H800 H 0.52843 0.10753 0.82804 0.0
H801 H 0.52128 0.06346 0.83315 0.0
C802 C 0.90763 0.54704 0.05732 0.0
C803 C 0.89619 0.56997 0.05368 0.0
C804 C 0.93318 0.54516 0.05637 0.0
C805 C 0.9865 0.57943 0.02169 0.0
H806 H 0.02463 0.53444 0.08003 0.0
C807 C 0.09065 0.58706 0.03849 0.0
C808 C 0.10464 0.56546 0.03807 0.0
C809 C 0.06516 0.58603 0.03767 0.0
C810 C 0.01414 0.54684 0.06321 0.0
H811 H 0.9027 0.60903 0.04908 0.0
H812 H 0.94695 0.60582 0.04868 0.0
H813 H 0.98014 0.53593 0.08723 0.0
H814 H 0.1027 0.52582 0.03534 0.0
H815 H 0.05799 0.52411 0.0342 0.0
H816 H 0.02048 0.59072 -0.00173 0.0
C817 C 0.93626 0.58919 0.05091 0.0
C818 C 0.9887 0.54773 0.06737 0.0
C819 C 0.91084 0.59105 0.05151 0.0
C820 C 0.0925 0.54281 0.03566 0.0
C821 C 0.06692 0.54179 0.03527 0.0
C822 C 0.01186 0.57865 0.01771 0.0
C823 C 0.94773 0.56619 0.05206 0.0
C824 C 0.97464 0.56432 0.04703 0.0
C825 C 0.05303 0.5634 0.03672 0.0
C826 C 0.02597 0.56258 0.03875 0.0
H827 H 0.89689 0.53044 0.05905 0.0
H828 H 0.94144 0.52716 0.05734 0.0
H829 H 0.97618 0.59195 0.00484 0.0
H830 H 0.09932 0.60483 0.0404 0.0
H831 H 0.05492 0.60299 0.03912 0.0
C832 C 0.55905 0.1416 0.92858 0.0
C833 C 0.56038 0.16452 0.91154 0.0
C834 C 0.54982 0.13973 0.96378 0.0
C835 C 0.53617 0.17346 0.04686 0.0
H836 H 0.47693 0.13445 0.0517 0.0
C837 C 0.46911 0.18593 0.16384 0.0
C838 C 0.45787 0.16508 0.17842 0.0
C839 C 0.48196 0.18449 0.13134 0.0
C840 C 0.49364 0.14509 0.05112 0.0
H841 H 0.55492 0.20351 0.91835 0.0
H842 H 0.53968 0.20033 0.98034 0.0
H843 H 0.50222 0.13326 -0.00277 0.0
H844 H 0.45042 0.12656 0.17005 0.0
H845 H 0.4735 0.12379 0.11355 0.0
H846 H 0.52798 0.18518 0.10064 0.0
C847 C 0.54543 0.18384 0.96643 0.0
C848 C 0.50811 0.14436 0.01994 0.0
C849 C 0.55412 0.18566 0.93105 0.0
C850 C 0.45874 0.14297 0.15912 0.0
C851 C 0.47201 0.14141 0.12681 0.0
C852 C 0.52196 0.1739 0.07823 0.0
C853 C 0.54239 0.16081 0.98258 0.0
C854 C 0.52921 0.15892 0.01734 0.0
C855 C 0.48431 0.16204 0.11303 0.0
C856 C 0.50018 0.16019 0.08043 0.0
H857 H 0.56352 0.12502 0.91388 0.0
H858 H 0.54766 0.1218 0.97586 0.0
H859 H 0.55246 0.18473 0.04547 0.0
H860 H 0.46852 0.20325 0.17812 0.0
H861 H 0.49047 0.20095 0.12096 0.0
C862 C 0.82918 0.55509 0.18554 0.0
C863 C 0.8158 0.54578 0.15613 0.0
C864 C 0.82884 0.54298 0.21888 0.0
C865 C 0.8392 0.50362 0.27471 0.0
H866 H 0.78068 0.4731 0.31322 0.0
C867 C 0.84313 0.44142 0.40038 0.0
C868 C 0.82559 0.44723 0.42679 0.0
C869 C 0.84081 0.45074 0.36524 0.0
C870 C 0.79719 0.48152 0.30282 0.0
H871 H 0.79031 0.51748 0.13921 0.0
H872 H 0.79003 0.49634 0.1968 0.0
H873 H 0.77793 0.498 0.25878 0.0
H874 H 0.79101 0.46567 0.43667 0.0
H875 H 0.78714 0.48195 0.37603 0.0
H876 H 0.85827 0.48789 0.3196 0.0
C877 C 0.80069 0.51297 0.19442 0.0
C878 C 0.79564 0.49568 0.27151 0.0
C879 C 0.80097 0.52506 0.16128 0.0
C880 C 0.80496 0.46106 0.41694 0.0
C881 C 0.80263 0.47026 0.38203 0.0
C882 C 0.84073 0.48956 0.30617 0.0
C883 C 0.8151 0.52141 0.22332 0.0
C884 C 0.8166 0.50699 0.25721 0.0
C885 C 0.82083 0.4658 0.35606 0.0
C886 C 0.81969 0.47853 0.32071 0.0
H887 H 0.84072 0.57106 0.18242 0.0
H888 H 0.83975 0.55019 0.24094 0.0
H889 H 0.85577 0.51172 0.26398 0.0
H890 H 0.85919 0.43078 0.40728 0.0
H891 H 0.85495 0.44672 0.34555 0.0
C892 C 0.54679 0.81766 0.6609 0.0
C893 C 0.55327 0.83895 0.67986 0.0
C894 C 0.53734 0.81921 0.62596 0.0
C895 C 0.49912 0.85822 0.57256 0.0
H896 H 0.51787 0.81586 0.49302 0.0
C897 C 0.44979 0.85739 0.43299 0.0
C898 C 0.44876 0.83484 0.41486 0.0
C899 C 0.4626 0.85945 0.46567 0.0
C900 C 0.51217 0.82758 0.51513 0.0
H901 H 0.55592 0.87846 0.67703 0.0
H902 H 0.53876 0.88122 0.61571 0.0
H903 H 0.54307 0.81728 0.54741 0.0
H904 H 0.45827 0.79641 0.41774 0.0
H905 H 0.47945 0.79966 0.47548 0.0
H906 H 0.46762 0.86773 0.54107 0.0
C907 C 0.5413 0.86338 0.62792 0.0
C908 C 0.52679 0.82857 0.54603 0.0
C909 C 0.55128 0.86178 0.66272 0.0
C910 C 0.45901 0.81406 0.43113 0.0
C911 C 0.47142 0.81601 0.46394 0.0
C912 C 0.48428 0.85701 0.54177 0.0
C913 C 0.53377 0.84212 0.60966 0.0
C914 C 0.5202 0.84361 0.57519 0.0
C915 C 0.47427 0.8389 0.48083 0.0
C916 C 0.49041 0.8413 0.51298 0.0
H917 H 0.5481 0.79986 0.6737 0.0
H918 H 0.53151 0.80258 0.61249 0.0
H919 H 0.49354 0.86974 0.59498 0.0
H920 H 0.44221 0.87373 0.42074 0.0
H921 H 0.46444 0.87735 0.47795 0.0
C922 C 0.19744 0.50936 0.93573 0.0
C923 C 0.18399 0.53123 0.93844 0.0
C924 C 0.19851 0.4966 0.9031 0.0
C925 C 0.20733 0.47951 0.82602 0.0
H926 H 0.147 0.47376 0.77129 0.0
C927 C 0.2031 0.4517 0.67661 0.0
C928 C 0.18288 0.43828 0.66404 0.0
C929 C 0.20458 0.4588 0.71274 0.0
C930 C 0.16389 0.47484 0.78658 0.0
H931 H 0.16206 0.55747 0.90865 0.0
H932 H 0.16422 0.53526 0.85128 0.0
H933 H 0.14723 0.49645 0.82814 0.0
H934 H 0.14922 0.42021 0.67979 0.0
H935 H 0.15182 0.43267 0.74342 0.0
H936 H 0.22398 0.45792 0.78438 0.0
C937 C 0.17354 0.52781 0.87471 0.0
C938 C 0.16412 0.4882 0.81878 0.0
C939 C 0.1725 0.54064 0.90742 0.0
C940 C 0.16498 0.4306 0.68879 0.0
C941 C 0.16637 0.43788 0.72506 0.0
C942 C 0.20711 0.46618 0.79377 0.0
C943 C 0.18617 0.50543 0.87244 0.0
C944 C 0.18591 0.49093 0.83857 0.0
C945 C 0.18581 0.45269 0.73705 0.0
C946 C 0.18546 0.46399 0.77348 0.0
H947 H 0.20659 0.50164 0.95912 0.0
H948 H 0.20828 0.47936 0.90224 0.0
H949 H 0.22441 0.48134 0.84067 0.0
H950 H 0.21729 0.4577 0.65813 0.0
H951 H 0.21969 0.47033 0.72105 0.0
loop_
_geom_bond_atom_site_label_1
_geom_bond_atom_site_label_2
_geom_bond_distance
_geom_bond_site_symmetry_2
_ccdc_geom_bond_type
Co0 O2 2.143 . S
Co0 O8 2.074 . S
Co0 O11 2.093 . S
Co0 O24 2.097 . S
Co0 N41 2.151 . S
Co0 N49 2.214 . S
Co1 O2 2.160 . S
Co1 O7 2.058 . S
Co1 O17 2.057 . S
Co1 O32 2.037 . S
Co1 N36 2.145 . S
Co1 N57 2.257 . S
O2 Co0 2.143 . S
O2 Co1 2.160 . S
C3 O4 1.278 . S
C3 O11 1.224 . S
O4 C3 1.278 . S
C5 O6 1.245 . S
C5 O17 1.232 . S
O6 C5 1.245 . S
O7 Co1 2.058 . S
O7 C33 1.269 . S
O8 Co0 2.074 . S
O8 C33 1.257 . S
H9 C34 0.930 . S
H10 C40 0.930 . S
O11 Co0 2.093 . S
O11 C3 1.224 . S
H12 C44 0.929 . S
H13 C46 0.930 . S
H14 C47 0.930 . S
H15 C45 0.929 . S
H16 C48 0.928 . S
O17 Co1 2.057 . S
O17 C5 1.232 . S
H18 C37 0.929 . S
H19 C38 0.929 . S
H20 C50 0.931 . S
H21 C42 0.929 . S
H22 C51 0.930 . S
H23 C43 0.931 . S
O24 Co0 2.097 . S
O24 C52 1.214 . S
H25 C53 0.929 . S
H26 C54 0.929 . S
H27 C55 0.930 . S
H28 C56 0.929 . S
H29 C58 0.930 . S
H30 C35 0.930 . S
H31 C39 0.930 . S
O32 Co1 2.037 . S
O32 C52 1.234 . S
C33 O7 1.269 . S
C33 O8 1.257 . S
C34 H9 0.930 . S
C34 C37 1.388 . S
C34 C39 1.418 . S
C35 H30 0.930 . S
C35 C38 1.404 . S
C35 C39 1.353 . S
N36 Co1 2.145 . S
N36 C37 1.397 . S
N36 C38 1.334 . S
C37 H18 0.929 . S
C37 C34 1.388 . S
C37 N36 1.397 . S
C38 H19 0.929 . S
C38 C35 1.404 . S
C38 N36 1.334 . S
C39 H31 0.930 . S
C39 C34 1.418 . S
C39 C35 1.353 . S
C40 H10 0.930 . S
C40 N41 1.330 . S
C40 C42 1.446 . S
N41 Co0 2.151 . S
N41 C40 1.330 . S
N41 C45 1.418 . S
C42 H21 0.929 . S
C42 C40 1.446 . S
C42 C43 1.332 . S
C43 H23 0.931 . S
C43 C42 1.332 . S
C43 C44 1.267 . S
C44 H12 0.929 . S
C44 C43 1.267 . S
C44 C45 1.251 . S
C45 H15 0.929 . S
C45 N41 1.418 . S
C45 C44 1.251 . S
C46 H13 0.930 . S
C46 C48 1.406 . S
C46 C51 1.261 . S
C47 H14 0.930 . S
C47 N49 1.325 . S
C47 C50 1.357 . S
C48 H16 0.928 . S
C48 C46 1.406 . S
C48 N49 1.261 . S
N49 Co0 2.214 . S
N49 C47 1.325 . S
N49 C48 1.261 . S
C50 H20 0.931 . S
C50 C47 1.357 . S
C50 C51 1.312 . S
C51 H22 0.930 . S
C51 C46 1.261 . S
C51 C50 1.312 . S
C52 O24 1.214 . S
C52 O32 1.234 . S
C53 H25 0.929 . S
C53 C56 1.391 . S
C53 C58 1.391 . S
C54 H26 0.929 . S
C54 C55 1.390 . S
C54 N57 1.391 . S
C55 H27 0.930 . S
C55 C54 1.390 . S
C55 C56 1.392 . S
C56 H28 0.929 . S
C56 C53 1.391 . S
C56 C55 1.392 . S
N57 Co1 2.257 . S
N57 C54 1.391 . S
N57 C58 1.388 . S
C58 H29 0.930 . S
C58 C53 1.391 . S
C58 N57 1.388 . S
Co59 O61 2.143 . S
Co59 O67 2.074 . S
Co59 O70 2.093 . S
Co59 O83 2.097 . S
Co59 N100 2.151 . S
Co59 N108 2.214 . S
Co60 O61 2.160 . S
Co60 O66 2.058 . S
Co60 O76 2.057 . S
Co60 O91 2.037 . S
Co60 N95 2.145 . S
Co60 N116 2.257 . S
O61 Co59 2.143 . S
O61 Co60 2.160 . S
C62 O63 1.278 . S
C62 O70 1.224 . S
O63 C62 1.278 . S
C64 O65 1.245 . S
C64 O76 1.232 . S
O65 C64 1.245 . S
O66 Co60 2.058 . S
O66 C92 1.269 . S
O67 Co59 2.074 . S
O67 C92 1.257 . S
H68 C93 0.930 . S
H69 C99 0.930 . S
O70 Co59 2.093 . S
O70 C62 1.224 . S
H71 C103 0.929 . S
H72 C105 0.930 . S
H73 C106 0.930 . S
H74 C104 0.929 . S
H75 C107 0.928 . S
O76 Co60 2.057 . S
O76 C64 1.232 . S
H77 C96 0.929 . S
H78 C97 0.929 . S
H79 C109 0.931 . S
H80 C101 0.929 . S
H81 C110 0.930 . S
H82 C102 0.931 . S
O83 Co59 2.097 . S
O83 C111 1.214 . S
H84 C112 0.929 . S
H85 C113 0.929 . S
H86 C114 0.930 . S
H87 C115 0.929 . S
H88 C117 0.930 . S
H89 C94 0.930 . S
H90 C98 0.930 . S
O91 Co60 2.037 . S
O91 C111 1.234 . S
C92 O66 1.269 . S
C92 O67 1.257 . S
C93 H68 0.930 . S
C93 C96 1.388 . S
C93 C98 1.418 . S
C94 H89 0.930 . S
C94 C97 1.404 . S
C94 C98 1.353 . S
N95 Co60 2.145 . S
N95 C96 1.397 . S
N95 C97 1.334 . S
C96 H77 0.929 . S
C96 C93 1.388 . S
C96 N95 1.397 . S
C97 H78 0.929 . S
C97 C94 1.404 . S
C97 N95 1.334 . S
C98 H90 0.930 . S
C98 C93 1.418 . S
C98 C94 1.353 . S
C99 H69 0.930 . S
C99 N100 1.330 . S
C99 C101 1.446 . S
N100 Co59 2.151 . S
N100 C99 1.330 . S
N100 C104 1.418 . S
C101 H80 0.929 . S
C101 C99 1.446 . S
C101 C102 1.332 . S
C102 H82 0.931 . S
C102 C101 1.332 . S
C102 C103 1.267 . S
C103 H71 0.929 . S
C103 C102 1.267 . S
C103 C104 1.251 . S
C104 H74 0.929 . S
C104 N100 1.418 . S
C104 C103 1.251 . S
C105 H72 0.930 . S
C105 C107 1.406 . S
C105 C110 1.261 . S
C106 H73 0.930 . S
C106 N108 1.325 . S
C106 C109 1.357 . S
C107 H75 0.928 . S
C107 C105 1.406 . S
C107 N108 1.261 . S
N108 Co59 2.214 . S
N108 C106 1.325 . S
N108 C107 1.261 . S
C109 H79 0.931 . S
C109 C106 1.357 . S
C109 C110 1.312 . S
C110 H81 0.930 . S
C110 C105 1.261 . S
C110 C109 1.312 . S
C111 O83 1.214 . S
C111 O91 1.234 . S
C112 H84 0.929 . S
C112 C115 1.391 . S
C112 C117 1.391 . S
C113 H85 0.929 . S
C113 C114 1.390 . S
C113 N116 1.391 . S
C114 H86 0.930 . S
C114 C113 1.390 . S
C114 C115 1.392 . S
C115 H87 0.929 . S
C115 C112 1.391 . S
C115 C114 1.392 . S
N116 Co60 2.257 . S
N116 C113 1.391 . S
N116 C117 1.388 . S
C117 H88 0.930 . S
C117 C112 1.391 . S
C117 N116 1.388 . S
Co118 O120 2.143 . S
Co118 O126 2.074 . S
Co118 O129 2.093 . S
Co118 O142 2.097 . S
Co118 N159 2.151 . S
Co118 N167 2.214 . S
Co119 O120 2.160 . S
Co119 O125 2.058 . S
Co119 O135 2.057 . S
Co119 O150 2.037 . S
Co119 N154 2.145 . S
Co119 N175 2.257 . S
O120 Co118 2.143 . S
O120 Co119 2.160 . S
C121 O122 1.278 . S
C121 O129 1.224 . S
O122 C121 1.278 . S
C123 O124 1.245 . S
C123 O135 1.232 . S
O124 C123 1.245 . S
O125 Co119 2.058 . S
O125 C151 1.269 . S
O126 Co118 2.074 . S
O126 C151 1.257 . S
H127 C152 0.930 . S
H128 C158 0.930 . S
O129 Co118 2.093 . S
O129 C121 1.224 . S
H130 C162 0.929 . S
H131 C164 0.930 . S
H132 C165 0.930 . S
H133 C163 0.929 . S
H134 C166 0.928 . S
O135 Co119 2.057 . S
O135 C123 1.232 . S
H136 C155 0.929 . S
H137 C156 0.929 . S
H138 C168 0.931 . S
H139 C160 0.929 . S
H140 C169 0.930 . S
H141 C161 0.931 . S
O142 Co118 2.097 . S
O142 C170 1.214 . S
H143 C171 0.929 . S
H144 C172 0.929 . S
H145 C173 0.930 . S
H146 C174 0.929 . S
H147 C176 0.930 . S
H148 C153 0.930 . S
H149 C157 0.930 . S
O150 Co119 2.037 . S
O150 C170 1.234 . S
C151 O125 1.269 . S
C151 O126 1.257 . S
C152 H127 0.930 . S
C152 C155 1.388 . S
C152 C157 1.418 . S
C153 H148 0.930 . S
C153 C156 1.404 . S
C153 C157 1.353 . S
N154 Co119 2.145 . S
N154 C155 1.397 . S
N154 C156 1.334 . S
C155 H136 0.929 . S
C155 C152 1.388 . S
C155 N154 1.397 . S
C156 H137 0.929 . S
C156 C153 1.404 . S
C156 N154 1.334 . S
C157 H149 0.930 . S
C157 C152 1.418 . S
C157 C153 1.353 . S
C158 H128 0.930 . S
C158 N159 1.330 . S
C158 C160 1.446 . S
N159 Co118 2.151 . S
N159 C158 1.330 . S
N159 C163 1.418 . S
C160 H139 0.929 . S
C160 C158 1.446 . S
C160 C161 1.332 . S
C161 H141 0.931 . S
C161 C160 1.332 . S
C161 C162 1.267 . S
C162 H130 0.929 . S
C162 C161 1.267 . S
C162 C163 1.251 . S
C163 H133 0.929 . S
C163 N159 1.418 . S
C163 C162 1.251 . S
C164 H131 0.930 . S
C164 C166 1.406 . S
C164 C169 1.261 . S
C165 H132 0.930 . S
C165 N167 1.325 . S
C165 C168 1.357 . S
C166 H134 0.928 . S
C166 C164 1.406 . S
C166 N167 1.261 . S
N167 Co118 2.214 . S
N167 C165 1.325 . S
N167 C166 1.261 . S
C168 H138 0.931 . S
C168 C165 1.357 . S
C168 C169 1.312 . S
C169 H140 0.930 . S
C169 C164 1.261 . S
C169 C168 1.312 . S
C170 O142 1.214 . S
C170 O150 1.234 . S
C171 H143 0.929 . S
C171 C174 1.391 . S
C171 C176 1.391 . S
C172 H144 0.929 . S
C172 C173 1.390 . S
C172 N175 1.391 . S
C173 H145 0.930 . S
C173 C172 1.390 . S
C173 C174 1.392 . S
C174 H146 0.929 . S
C174 C171 1.391 . S
C174 C173 1.392 . S
N175 Co119 2.257 . S
N175 C172 1.391 . S
N175 C176 1.388 . S
C176 H147 0.930 . S
C176 C171 1.391 . S
C176 N175 1.388 . S
Co177 O179 2.143 . S
Co177 O185 2.074 . S
Co177 O188 2.096 . S
Co177 O201 2.097 . S
Co177 N218 2.151 . S
Co177 N226 2.214 . S
Co178 O179 2.160 . S
Co178 O184 2.058 . S
Co178 O194 2.057 . S
Co178 O209 2.037 . S
Co178 N213 2.145 . S
Co178 N234 2.257 . S
O179 Co177 2.143 . S
O179 Co178 2.160 . S
C180 O181 1.278 . S
C180 O188 1.223 1_556 S
O181 C180 1.278 . S
C182 O183 1.245 . S
C182 O194 1.232 . S
O183 C182 1.245 . S
O184 Co178 2.058 . S
O184 C210 1.269 . S
O185 Co177 2.074 . S
O185 C210 1.257 . S
H186 C211 0.930 . S
H187 C217 0.930 . S
O188 Co177 2.096 . S
O188 C180 1.223 1_554 S
H189 C221 0.929 . S
H190 C223 0.930 . S
H191 C224 0.930 . S
H192 C222 0.929 . S
H193 C225 0.928 . S
O194 Co178 2.057 . S
O194 C182 1.232 . S
H195 C214 0.929 . S
H196 C215 0.929 . S
H197 C227 0.931 . S
H198 C219 0.929 . S
H199 C228 0.930 . S
H200 C220 0.931 . S
O201 Co177 2.097 . S
O201 C229 1.214 . S
H202 C230 0.929 . S
H203 C231 0.929 . S
H204 C232 0.930 . S
H205 C233 0.929 . S
H206 C235 0.930 . S
H207 C212 0.930 . S
H208 C216 0.930 . S
O209 Co178 2.037 . S
O209 C229 1.234 . S
C210 O184 1.269 . S
C210 O185 1.257 . S
C211 H186 0.930 . S
C211 C214 1.388 . S
C211 C216 1.418 . S
C212 H207 0.930 . S
C212 C215 1.404 . S
C212 C216 1.353 . S
N213 Co178 2.145 . S
N213 C214 1.397 . S
N213 C215 1.334 . S
C214 H195 0.929 . S
C214 C211 1.388 . S
C214 N213 1.397 . S
C215 H196 0.929 . S
C215 C212 1.404 . S
C215 N213 1.334 . S
C216 H208 0.930 . S
C216 C211 1.418 . S
C216 C212 1.353 . S
C217 H187 0.930 . S
C217 N218 1.330 . S
C217 C219 1.446 . S
N218 Co177 2.151 . S
N218 C217 1.330 . S
N218 C222 1.418 . S
C219 H198 0.929 . S
C219 C217 1.446 . S
C219 C220 1.332 . S
C220 H200 0.931 . S
C220 C219 1.332 . S
C220 C221 1.267 . S
C221 H189 0.929 . S
C221 C220 1.267 . S
C221 C222 1.251 . S
C222 H192 0.929 . S
C222 N218 1.418 . S
C222 C221 1.251 . S
C223 H190 0.930 . S
C223 C225 1.406 . S
C223 C228 1.261 . S
C224 H191 0.930 . S
C224 N226 1.325 . S
C224 C227 1.357 . S
C225 H193 0.928 . S
C225 C223 1.406 . S
C225 N226 1.261 . S
N226 Co177 2.214 . S
N226 C224 1.325 . S
N226 C225 1.261 . S
C227 H197 0.931 . S
C227 C224 1.357 . S
C227 C228 1.312 . S
C228 H199 0.930 . S
C228 C223 1.261 . S
C228 C227 1.312 . S
C229 O201 1.214 . S
C229 O209 1.234 . S
C230 H202 0.929 . S
C230 C233 1.391 . S
C230 C235 1.391 1_556 S
C231 H203 0.929 . S
C231 C232 1.390 . S
C231 N234 1.391 . S
C232 H204 0.930 . S
C232 C231 1.390 . S
C232 C233 1.392 1_554 S
C233 H205 0.929 . S
C233 C230 1.391 . S
C233 C232 1.392 1_556 S
N234 Co178 2.257 . S
N234 C231 1.391 . S
N234 C235 1.388 . S
C235 H206 0.930 . S
C235 C230 1.391 1_554 S
C235 N234 1.388 . S
Co236 O238 2.143 . S
Co236 O244 2.074 . S
Co236 O247 2.093 . S
Co236 O260 2.097 . S
Co236 N277 2.151 . S
Co236 N285 2.214 . S
Co237 O238 2.160 . S
Co237 O243 2.058 . S
Co237 O253 2.057 . S
Co237 O268 2.037 . S
Co237 N272 2.145 . S
Co237 N293 2.257 . S
O238 Co236 2.143 . S
O238 Co237 2.160 . S
C239 O240 1.278 . S
C239 O247 1.224 . S
O240 C239 1.278 . S
C241 O242 1.245 . S
C241 O253 1.232 . S
O242 C241 1.245 . S
O243 Co237 2.058 . S
O243 C269 1.269 . S
O244 Co236 2.074 . S
O244 C269 1.257 . S
H245 C270 0.930 . S
H246 C276 0.930 . S
O247 Co236 2.093 . S
O247 C239 1.224 . S
H248 C280 0.929 . S
H249 C282 0.930 . S
H250 C283 0.930 . S
H251 C281 0.929 . S
H252 C284 0.928 . S
O253 Co237 2.057 . S
O253 C241 1.232 . S
H254 C273 0.929 . S
H255 C274 0.929 . S
H256 C286 0.931 . S
H257 C278 0.929 . S
H258 C287 0.930 . S
H259 C279 0.931 . S
O260 Co236 2.097 . S
O260 C288 1.214 . S
H261 C289 0.929 . S
H262 C290 0.929 . S
H263 C291 0.930 . S
H264 C292 0.929 . S
H265 C294 0.930 . S
H266 C271 0.930 . S
H267 C275 0.930 . S
O268 Co237 2.037 . S
O268 C288 1.234 . S
C269 O243 1.269 . S
C269 O244 1.257 . S
C270 H245 0.930 . S
C270 C273 1.388 . S
C270 C275 1.418 . S
C271 H266 0.930 . S
C271 C274 1.404 . S
C271 C275 1.353 . S
N272 Co237 2.145 . S
N272 C273 1.397 . S
N272 C274 1.334 . S
C273 H254 0.929 . S
C273 C270 1.388 . S
C273 N272 1.397 . S
C274 H255 0.929 . S
C274 C271 1.404 . S
C274 N272 1.334 . S
C275 H267 0.930 . S
C275 C270 1.418 . S
C275 C271 1.353 . S
C276 H246 0.930 . S
C276 N277 1.330 . S
C276 C278 1.446 . S
N277 Co236 2.151 . S
N277 C276 1.330 . S
N277 C281 1.418 . S
C278 H257 0.929 . S
C278 C276 1.446 . S
C278 C279 1.332 . S
C279 H259 0.931 . S
C279 C278 1.332 . S
C279 C280 1.267 . S
C280 H248 0.929 . S
C280 C279 1.267 . S
C280 C281 1.251 . S
C281 H251 0.929 . S
C281 N277 1.418 . S
C281 C280 1.251 . S
C282 H249 0.930 . S
C282 C284 1.406 . S
C282 C287 1.261 . S
C283 H250 0.930 . S
C283 N285 1.325 . S
C283 C286 1.357 . S
C284 H252 0.928 . S
C284 C282 1.406 . S
C284 N285 1.261 . S
N285 Co236 2.214 . S
N285 C283 1.325 . S
N285 C284 1.261 . S
C286 H256 0.931 . S
C286 C283 1.357 . S
C286 C287 1.312 . S
C287 H258 0.930 . S
C287 C282 1.261 . S
C287 C286 1.312 . S
C288 O260 1.214 . S
C288 O268 1.234 . S
C289 H261 0.929 . S
C289 C292 1.391 . S
C289 C294 1.391 . S
C290 H262 0.929 . S
C290 C291 1.390 . S
C290 N293 1.391 . S
C291 H263 0.930 . S
C291 C290 1.390 . S
C291 C292 1.392 . S
C292 H264 0.929 . S
C292 C289 1.391 . S
C292 C291 1.392 . S
N293 Co237 2.257 . S
N293 C290 1.391 . S
N293 C294 1.388 . S
C294 H265 0.930 . S
C294 C289 1.391 . S
C294 N293 1.388 . S
Co295 O297 2.143 . S
Co295 O303 2.074 . S
Co295 O306 2.093 . S
Co295 O319 2.097 . S
Co295 N336 2.151 . S
Co295 N344 2.214 . S
Co296 O297 2.160 . S
Co296 O302 2.058 . S
Co296 O312 2.057 . S
Co296 O327 2.037 . S
Co296 N331 2.145 . S
Co296 N352 2.257 . S
O297 Co295 2.143 . S
O297 Co296 2.160 . S
C298 O299 1.278 . S
C298 O306 1.224 . S
O299 C298 1.278 . S
C300 O301 1.245 . S
C300 O312 1.232 . S
O301 C300 1.245 . S
O302 Co296 2.058 . S
O302 C328 1.269 . S
O303 Co295 2.074 . S
O303 C328 1.257 . S
H304 C329 0.930 . S
H305 C335 0.930 . S
O306 Co295 2.093 . S
O306 C298 1.224 . S
H307 C339 0.929 . S
H308 C341 0.930 . S
H309 C342 0.930 . S
H310 C340 0.929 . S
H311 C343 0.928 . S
O312 Co296 2.057 . S
O312 C300 1.232 . S
H313 C332 0.929 . S
H314 C333 0.929 . S
H315 C345 0.931 . S
H316 C337 0.929 . S
H317 C346 0.930 . S
H318 C338 0.931 . S
O319 Co295 2.097 . S
O319 C347 1.214 . S
H320 C348 0.929 . S
H321 C349 0.929 . S
H322 C350 0.930 . S
H323 C351 0.929 . S
H324 C353 0.930 . S
H325 C330 0.930 . S
H326 C334 0.930 . S
O327 Co296 2.037 . S
O327 C347 1.234 . S
C328 O302 1.269 . S
C328 O303 1.257 . S
C329 H304 0.930 . S
C329 C332 1.388 . S
C329 C334 1.418 . S
C330 H325 0.930 . S
C330 C333 1.404 . S
C330 C334 1.353 . S
N331 Co296 2.145 . S
N331 C332 1.397 . S
N331 C333 1.334 . S
C332 H313 0.929 . S
C332 C329 1.388 . S
C332 N331 1.397 . S
C333 H314 0.929 . S
C333 C330 1.404 . S
C333 N331 1.334 . S
C334 H326 0.930 . S
C334 C329 1.418 . S
C334 C330 1.353 . S
C335 H305 0.930 . S
C335 N336 1.330 . S
C335 C337 1.446 . S
N336 Co295 2.151 . S
N336 C335 1.330 . S
N336 C340 1.418 . S
C337 H316 0.929 . S
C337 C335 1.446 . S
C337 C338 1.332 . S
C338 H318 0.931 . S
C338 C337 1.332 . S
C338 C339 1.267 . S
C339 H307 0.929 . S
C339 C338 1.267 . S
C339 C340 1.251 . S
C340 H310 0.929 . S
C340 N336 1.418 . S
C340 C339 1.251 . S
C341 H308 0.930 . S
C341 C343 1.406 . S
C341 C346 1.261 . S
C342 H309 0.930 . S
C342 N344 1.325 . S
C342 C345 1.357 . S
C343 H311 0.928 . S
C343 C341 1.406 . S
C343 N344 1.261 . S
N344 Co295 2.214 . S
N344 C342 1.325 . S
N344 C343 1.261 . S
C345 H315 0.931 . S
C345 C342 1.357 . S
C345 C346 1.312 . S
C346 H317 0.930 . S
C346 C341 1.261 . S
C346 C345 1.312 . S
C347 O319 1.214 . S
C347 O327 1.234 . S
C348 H320 0.929 . S
C348 C351 1.391 . S
C348 C353 1.391 . S
C349 H321 0.929 . S
C349 C350 1.390 . S
C349 N352 1.391 . S
C350 H322 0.930 . S
C350 C349 1.390 . S
C350 C351 1.392 . S
C351 H323 0.929 . S
C351 C348 1.391 . S
C351 C350 1.392 . S
N352 Co296 2.257 . S
N352 C349 1.391 . S
N352 C353 1.388 . S
C353 H324 0.930 . S
C353 C348 1.391 . S
C353 N352 1.388 . S
Co354 O356 2.143 . S
Co354 O362 2.074 . S
Co354 O365 2.093 . S
Co354 O378 2.097 . S
Co354 N395 2.151 . S
Co354 N403 2.214 . S
Co355 O356 2.160 . S
Co355 O361 2.058 . S
Co355 O371 2.057 . S
Co355 O386 2.037 . S
Co355 N390 2.145 . S
Co355 N411 2.257 . S
O356 Co354 2.143 . S
O356 Co355 2.160 . S
C357 O358 1.278 . S
C357 O365 1.224 . S
O358 C357 1.278 . S
C359 O360 1.245 . S
C359 O371 1.232 . S
O360 C359 1.245 . S
O361 Co355 2.058 . S
O361 C387 1.269 . S
O362 Co354 2.074 . S
O362 C387 1.257 . S
H363 C388 0.930 . S
H364 C394 0.930 . S
O365 Co354 2.093 . S
O365 C357 1.224 . S
H366 C398 0.929 . S
H367 C400 0.930 . S
H368 C401 0.930 . S
H369 C399 0.929 . S
H370 C402 0.928 . S
O371 Co355 2.057 . S
O371 C359 1.232 . S
H372 C391 0.929 . S
H373 C392 0.929 . S
H374 C404 0.931 . S
H375 C396 0.929 . S
H376 C405 0.930 . S
H377 C397 0.931 . S
O378 Co354 2.097 . S
O378 C406 1.214 . S
H379 C407 0.929 . S
H380 C408 0.929 . S
H381 C409 0.930 . S
H382 C410 0.929 . S
H383 C412 0.930 . S
H384 C389 0.930 . S
H385 C393 0.930 . S
O386 Co355 2.037 . S
O386 C406 1.234 . S
C387 O361 1.269 . S
C387 O362 1.257 . S
C388 H363 0.930 . S
C388 C391 1.388 . S
C388 C393 1.418 . S
C389 H384 0.930 . S
C389 C392 1.404 . S
C389 C393 1.353 . S
N390 Co355 2.145 . S
N390 C391 1.397 . S
N390 C392 1.334 . S
C391 H372 0.929 . S
C391 C388 1.388 . S
C391 N390 1.397 . S
C392 H373 0.929 . S
C392 C389 1.404 . S
C392 N390 1.334 . S
C393 H385 0.930 . S
C393 C388 1.418 . S
C393 C389 1.353 . S
C394 H364 0.930 . S
C394 N395 1.330 . S
C394 C396 1.446 . S
N395 Co354 2.151 . S
N395 C394 1.330 . S
N395 C399 1.418 . S
C396 H375 0.929 . S
C396 C394 1.446 . S
C396 C397 1.332 . S
C397 H377 0.931 . S
C397 C396 1.332 . S
C397 C398 1.267 . S
C398 H366 0.929 . S
C398 C397 1.267 . S
C398 C399 1.251 . S
C399 H369 0.929 . S
C399 N395 1.418 . S
C399 C398 1.251 . S
C400 H367 0.930 . S
C400 C402 1.406 . S
C400 C405 1.261 . S
C401 H368 0.930 . S
C401 N403 1.325 . S
C401 C404 1.357 . S
C402 H370 0.928 . S
C402 C400 1.406 . S
C402 N403 1.261 . S
N403 Co354 2.214 . S
N403 C401 1.325 . S
N403 C402 1.261 . S
C404 H374 0.931 . S
C404 C401 1.357 . S
C404 C405 1.312 . S
C405 H376 0.930 . S
C405 C400 1.261 . S
C405 C404 1.312 . S
C406 O378 1.214 . S
C406 O386 1.234 . S
C407 H379 0.929 . S
C407 C410 1.391 . S
C407 C412 1.391 . S
C408 H380 0.929 . S
C408 C409 1.390 . S
C408 N411 1.391 . S
C409 H381 0.930 . S
C409 C408 1.390 . S
C409 C410 1.392 . S
C410 H382 0.929 . S
C410 C407 1.391 . S
C410 C409 1.392 . S
N411 Co355 2.257 . S
N411 C408 1.391 . S
N411 C412 1.388 . S
C412 H383 0.930 . S
C412 C407 1.391 . S
C412 N411 1.388 . S
Co413 O415 2.143 . S
Co413 O421 2.074 1_554 S
Co413 O424 2.093 . S
Co413 O437 2.097 . S
Co413 N454 2.151 . S
Co413 N462 2.214 . S
Co414 O415 2.160 . S
Co414 O420 2.058 1_554 S
Co414 O430 2.057 . S
Co414 O445 2.037 . S
Co414 N449 2.145 1_554 S
Co414 N470 2.257 . S
O415 Co413 2.143 . S
O415 Co414 2.160 . S
C416 O417 1.278 . S
C416 O424 1.224 . S
O417 C416 1.278 . S
C418 O419 1.245 . S
C418 O430 1.232 . S
O419 C418 1.245 . S
O420 Co414 2.058 1_556 S
O420 C446 1.269 . S
O421 Co413 2.074 1_556 S
O421 C446 1.257 . S
H422 C447 0.930 . S
H423 C453 0.930 . S
O424 Co413 2.093 . S
O424 C416 1.224 . S
H425 C457 0.929 . S
H426 C459 0.930 . S
H427 C460 0.930 . S
H428 C458 0.929 . S
H429 C461 0.928 . S
O430 Co414 2.057 . S
O430 C418 1.232 . S
H431 C450 0.929 . S
H432 C451 0.929 . S
H433 C463 0.931 . S
H434 C455 0.929 . S
H435 C464 0.930 . S
H436 C456 0.931 . S
O437 Co413 2.097 . S
O437 C465 1.214 . S
H438 C466 0.929 . S
H439 C467 0.929 . S
H440 C468 0.930 . S
H441 C469 0.929 . S
H442 C471 0.930 . S
H443 C448 0.930 . S
H444 C452 0.930 . S
O445 Co414 2.037 . S
O445 C465 1.234 . S
C446 O420 1.269 . S
C446 O421 1.257 . S
C447 H422 0.930 . S
C447 C450 1.388 . S
C447 C452 1.418 . S
C448 H443 0.930 . S
C448 C451 1.404 . S
C448 C452 1.353 . S
N449 Co414 2.145 1_556 S
N449 C450 1.397 . S
N449 C451 1.334 . S
C450 H431 0.929 . S
C450 C447 1.388 . S
C450 N449 1.397 . S
C451 H432 0.929 . S
C451 C448 1.404 . S
C451 N449 1.334 . S
C452 H444 0.930 . S
C452 C447 1.418 . S
C452 C448 1.353 . S
C453 H423 0.930 . S
C453 N454 1.330 . S
C453 C455 1.446 . S
N454 Co413 2.151 . S
N454 C453 1.330 . S
N454 C458 1.418 . S
C455 H434 0.929 . S
C455 C453 1.446 . S
C455 C456 1.332 . S
C456 H436 0.931 . S
C456 C455 1.332 . S
C456 C457 1.267 . S
C457 H425 0.929 . S
C457 C456 1.267 . S
C457 C458 1.251 . S
C458 H428 0.929 . S
C458 N454 1.418 . S
C458 C457 1.251 . S
C459 H426 0.930 . S
C459 C461 1.406 . S
C459 C464 1.261 . S
C460 H427 0.930 . S
C460 N462 1.325 . S
C460 C463 1.357 . S
C461 H429 0.928 . S
C461 C459 1.406 . S
C461 N462 1.261 . S
N462 Co413 2.214 . S
N462 C460 1.325 . S
N462 C461 1.261 . S
C463 H433 0.931 . S
C463 C460 1.357 . S
C463 C464 1.312 . S
C464 H435 0.930 . S
C464 C459 1.261 . S
C464 C463 1.312 . S
C465 O437 1.214 . S
C465 O445 1.234 . S
C466 H438 0.929 . S
C466 C469 1.391 . S
C466 C471 1.391 . S
C467 H439 0.929 . S
C467 C468 1.390 . S
C467 N470 1.391 . S
C468 H440 0.930 . S
C468 C467 1.390 . S
C468 C469 1.392 . S
C469 H441 0.929 . S
C469 C466 1.391 . S
C469 C468 1.392 . S
N470 Co414 2.257 . S
N470 C467 1.391 . S
N470 C471 1.388 . S
C471 H442 0.930 . S
C471 C466 1.391 . S
C471 N470 1.388 . S
C472 C473 1.349 . S
C472 C474 1.327 . S
C472 H497 0.950 . S
C473 C472 1.349 . S
C473 C489 1.349 . S
C474 C472 1.327 . S
C474 C493 1.429 . S
C474 H498 0.950 . S
C475 C492 1.574 . S
C475 C494 1.368 . S
C475 H499 0.949 . S
H476 C480 0.949 . S
C477 C478 1.349 . S
C477 C479 1.327 . S
C477 H500 0.950 . S
C478 C477 1.349 . S
C478 C490 1.349 . S
C479 C477 1.327 . S
C479 C495 1.429 . S
C479 H501 0.950 . S
C480 H476 0.949 . S
C480 C488 1.574 . S
C480 C496 1.368 . S
H481 C489 0.950 . S
H482 C487 0.950 . S
H483 C488 0.949 . S
H484 C490 0.950 . S
H485 C491 0.950 . S
H486 C492 0.949 . S
C487 H482 0.950 . S
C487 C489 1.327 . S
C487 C493 1.429 . S
C488 C480 1.574 . S
C488 H483 0.949 . S
C488 C494 1.368 . S
C489 C473 1.349 . S
C489 H481 0.950 . S
C489 C487 1.327 . S
C490 C478 1.349 . S
C490 H484 0.950 . S
C490 C491 1.327 . S
C491 H485 0.950 . S
C491 C490 1.327 . S
C491 C495 1.429 . S
C492 C475 1.574 . S
C492 H486 0.949 . S
C492 C496 1.368 . S
C493 C474 1.429 . S
C493 C487 1.429 . S
C493 C494 1.523 . S
C494 C475 1.368 . S
C494 C488 1.368 . S
C494 C493 1.523 . S
C495 C479 1.429 . S
C495 C491 1.429 . S
C495 C496 1.523 . S
C496 C480 1.368 . S
C496 C492 1.368 . S
C496 C495 1.523 . S
H497 C472 0.950 . S
H498 C474 0.950 . S
H499 C475 0.949 . S
H500 C477 0.950 . S
H501 C479 0.950 . S
C502 C503 1.349 . S
C502 C504 1.327 . S
C502 H527 0.950 . S
C503 C502 1.349 . S
C503 C519 1.349 . S
C504 C502 1.327 . S
C504 C523 1.429 . S
C504 H528 0.950 . S
C505 C522 1.574 . S
C505 C524 1.368 . S
C505 H529 0.949 . S
H506 C510 0.949 . S
C507 C508 1.349 . S
C507 C509 1.327 . S
C507 H530 0.950 . S
C508 C507 1.349 . S
C508 C520 1.349 . S
C509 C507 1.327 . S
C509 C525 1.429 . S
C509 H531 0.950 . S
C510 H506 0.949 . S
C510 C518 1.574 . S
C510 C526 1.368 . S
H511 C519 0.950 . S
H512 C517 0.950 . S
H513 C518 0.949 . S
H514 C520 0.950 . S
H515 C521 0.950 . S
H516 C522 0.949 . S
C517 H512 0.950 . S
C517 C519 1.327 . S
C517 C523 1.429 . S
C518 C510 1.574 . S
C518 H513 0.949 . S
C518 C524 1.368 . S
C519 C503 1.349 . S
C519 H511 0.950 . S
C519 C517 1.327 . S
C520 C508 1.349 . S
C520 H514 0.950 . S
C520 C521 1.327 . S
C521 H515 0.950 . S
C521 C520 1.327 . S
C521 C525 1.429 . S
C522 C505 1.574 . S
C522 H516 0.949 . S
C522 C526 1.368 . S
C523 C504 1.429 . S
C523 C517 1.429 . S
C523 C524 1.523 . S
C524 C505 1.368 . S
C524 C518 1.368 . S
C524 C523 1.523 . S
C525 C509 1.429 . S
C525 C521 1.429 . S
C525 C526 1.523 . S
C526 C510 1.368 . S
C526 C522 1.368 . S
C526 C525 1.523 . S
H527 C502 0.950 . S
H528 C504 0.950 . S
H529 C505 0.949 . S
H530 C507 0.950 . S
H531 C509 0.950 . S
C532 C533 1.349 . S
C532 C534 1.327 . S
C532 H557 0.950 . S
C533 C532 1.349 . S
C533 C549 1.349 . S
C534 C532 1.327 . S
C534 C553 1.429 . S
C534 H558 0.950 . S
C535 C552 1.574 . S
C535 C554 1.368 . S
C535 H559 0.949 . S
H536 C540 0.949 . S
C537 C538 1.349 . S
C537 C539 1.327 . S
C537 H560 0.950 . S
C538 C537 1.349 . S
C538 C550 1.349 . S
C539 C537 1.327 . S
C539 C555 1.429 . S
C539 H561 0.950 . S
C540 H536 0.949 . S
C540 C548 1.574 . S
C540 C556 1.368 . S
H541 C549 0.950 . S
H542 C547 0.950 . S
H543 C548 0.949 . S
H544 C550 0.950 . S
H545 C551 0.950 . S
H546 C552 0.949 . S
C547 H542 0.950 . S
C547 C549 1.327 . S
C547 C553 1.429 . S
C548 C540 1.574 . S
C548 H543 0.949 . S
C548 C554 1.368 . S
C549 C533 1.349 . S
C549 H541 0.950 . S
C549 C547 1.327 . S
C550 C538 1.349 . S
C550 H544 0.950 . S
C550 C551 1.327 . S
C551 H545 0.950 . S
C551 C550 1.327 . S
C551 C555 1.429 . S
C552 C535 1.574 . S
C552 H546 0.949 . S
C552 C556 1.368 . S
C553 C534 1.429 . S
C553 C547 1.429 . S
C553 C554 1.523 . S
C554 C535 1.368 . S
C554 C548 1.368 . S
C554 C553 1.523 . S
C555 C539 1.429 . S
C555 C551 1.429 . S
C555 C556 1.523 1_556 S
C556 C540 1.368 . S
C556 C552 1.368 . S
C556 C555 1.523 1_554 S
H557 C532 0.950 . S
H558 C534 0.950 . S
H559 C535 0.949 . S
H560 C537 0.950 . S
H561 C539 0.950 . S
C562 C563 1.349 . S
C562 C564 1.327 . S
C562 H587 0.950 . S
C563 C562 1.349 . S
C563 C579 1.349 . S
C564 C562 1.327 . S
C564 C583 1.429 . S
C564 H588 0.950 . S
C565 C582 1.574 . S
C565 C584 1.368 . S
C565 H589 0.949 . S
H566 C570 0.949 . S
C567 C568 1.349 . S
C567 C569 1.327 . S
C567 H590 0.950 . S
C568 C567 1.349 . S
C568 C580 1.349 . S
C569 C567 1.327 . S
C569 C585 1.429 . S
C569 H591 0.950 . S
C570 H566 0.949 . S
C570 C578 1.574 . S
C570 C586 1.368 . S
H571 C579 0.950 . S
H572 C577 0.950 . S
H573 C578 0.949 . S
H574 C580 0.950 . S
H575 C581 0.950 . S
H576 C582 0.949 . S
C577 H572 0.950 . S
C577 C579 1.327 . S
C577 C583 1.429 . S
C578 C570 1.574 . S
C578 H573 0.949 . S
C578 C584 1.368 . S
C579 C563 1.349 . S
C579 H571 0.950 . S
C579 C577 1.327 . S
C580 C568 1.349 . S
C580 H574 0.950 . S
C580 C581 1.327 . S
C581 H575 0.950 . S
C581 C580 1.327 . S
C581 C585 1.429 . S
C582 C565 1.574 . S
C582 H576 0.949 . S
C582 C586 1.368 . S
C583 C564 1.429 . S
C583 C577 1.429 . S
C583 C584 1.523 . S
C584 C565 1.368 . S
C584 C578 1.368 . S
C584 C583 1.523 . S
C585 C569 1.429 . S
C585 C581 1.429 . S
C585 C586 1.523 . S
C586 C570 1.368 . S
C586 C582 1.368 . S
C586 C585 1.523 . S
H587 C562 0.950 . S
H588 C564 0.950 . S
H589 C565 0.949 . S
H590 C567 0.950 . S
H591 C569 0.950 . S
C592 C593 1.349 . S
C592 C594 1.327 . S
C592 H617 0.950 . S
C593 C592 1.349 . S
C593 C609 1.349 . S
C594 C592 1.327 . S
C594 C613 1.429 . S
C594 H618 0.950 . S
C595 C612 1.574 . S
C595 C614 1.368 . S
C595 H619 0.949 . S
H596 C600 0.949 . S
C597 C598 1.349 . S
C597 C599 1.327 . S
C597 H620 0.950 . S
C598 C597 1.349 . S
C598 C610 1.349 . S
C599 C597 1.327 . S
C599 C615 1.429 . S
C599 H621 0.950 . S
C600 H596 0.949 . S
C600 C608 1.574 . S
C600 C616 1.368 . S
H601 C609 0.950 . S
H602 C607 0.950 . S
H603 C608 0.949 . S
H604 C610 0.950 . S
H605 C611 0.950 . S
H606 C612 0.949 . S
C607 H602 0.950 . S
C607 C609 1.327 . S
C607 C613 1.429 . S
C608 C600 1.574 . S
C608 H603 0.949 . S
C608 C614 1.368 . S
C609 C593 1.349 . S
C609 H601 0.950 . S
C609 C607 1.327 . S
C610 C598 1.349 . S
C610 H604 0.950 . S
C610 C611 1.327 . S
C611 H605 0.950 . S
C611 C610 1.327 . S
C611 C615 1.429 . S
C612 C595 1.574 . S
C612 H606 0.949 . S
C612 C616 1.368 . S
C613 C594 1.429 . S
C613 C607 1.429 . S
C613 C614 1.523 . S
C614 C595 1.368 . S
C614 C608 1.368 . S
C614 C613 1.523 . S
C615 C599 1.429 . S
C615 C611 1.429 . S
C615 C616 1.523 . S
C616 C600 1.368 . S
C616 C612 1.368 . S
C616 C615 1.523 . S
H617 C592 0.950 . S
H618 C594 0.950 . S
H619 C595 0.949 . S
H620 C597 0.950 . S
H621 C599 0.950 . S
C622 C623 1.349 . S
C622 C624 1.327 . S
C622 H647 0.950 . S
C623 C622 1.349 . S
C623 C639 1.349 . S
C624 C622 1.327 . S
C624 C643 1.429 . S
C624 H648 0.950 . S
C625 C642 1.574 . S
C625 C644 1.368 . S
C625 H649 0.949 . S
H626 C630 0.949 . S
C627 C628 1.349 . S
C627 C629 1.327 . S
C627 H650 0.950 . S
C628 C627 1.349 . S
C628 C640 1.349 . S
C629 C627 1.327 . S
C629 C645 1.429 . S
C629 H651 0.950 . S
C630 H626 0.949 . S
C630 C638 1.574 . S
C630 C646 1.368 . S
H631 C639 0.950 . S
H632 C637 0.950 . S
H633 C638 0.949 . S
H634 C640 0.950 . S
H635 C641 0.950 . S
H636 C642 0.949 . S
C637 H632 0.950 . S
C637 C639 1.327 . S
C637 C643 1.429 . S
C638 C630 1.574 . S
C638 H633 0.949 . S
C638 C644 1.368 . S
C639 C623 1.349 . S
C639 H631 0.950 . S
C639 C637 1.327 . S
C640 C628 1.349 . S
C640 H634 0.950 . S
C640 C641 1.327 . S
C641 H635 0.950 . S
C641 C640 1.327 . S
C641 C645 1.429 . S
C642 C625 1.574 . S
C642 H636 0.949 . S
C642 C646 1.368 . S
C643 C624 1.429 . S
C643 C637 1.429 . S
C643 C644 1.523 . S
C644 C625 1.368 . S
C644 C638 1.368 . S
C644 C643 1.523 . S
C645 C629 1.429 . S
C645 C641 1.429 . S
C645 C646 1.523 . S
C646 C630 1.368 . S
C646 C642 1.368 . S
C646 C645 1.523 . S
H647 C622 0.950 . S
H648 C624 0.950 . S
H649 C625 0.949 . S
H650 C627 0.950 . S
H651 C629 0.950 . S
C652 C653 1.349 . S
C652 C654 1.338 . S
C652 H677 0.939 1_556 S
C653 C652 1.349 . S
C653 C669 1.348 . S
C654 C652 1.338 . S
C654 C673 1.429 . S
C654 H678 0.950 . S
C655 C672 1.574 . S
C655 C674 1.368 . S
C655 H679 0.949 . S
H656 C660 0.949 . S
C657 C658 1.349 . S
C657 C659 1.327 . S
C657 H680 0.950 . S
C658 C657 1.349 . S
C658 C670 1.349 . S
C659 C657 1.327 . S
C659 C675 1.429 . S
C659 H681 0.950 . S
C660 H656 0.949 . S
C660 C668 1.574 . S
C660 C676 1.368 . S
H661 C669 0.950 . S
H662 C667 0.950 . S
H663 C668 0.949 . S
H664 C670 0.950 . S
H665 C671 0.950 . S
H666 C672 0.949 . S
C667 H662 0.950 . S
C667 C669 1.327 . S
C667 C673 1.429 . S
C668 C660 1.574 . S
C668 H663 0.949 . S
C668 C674 1.368 . S
C669 C653 1.348 . S
C669 H661 0.950 . S
C669 C667 1.327 . S
C670 C658 1.349 . S
C670 H664 0.950 . S
C670 C671 1.327 . S
C671 H665 0.950 . S
C671 C670 1.327 . S
C671 C675 1.429 . S
C672 C655 1.574 . S
C672 H666 0.949 . S
C672 C676 1.368 . S
C673 C654 1.429 . S
C673 C667 1.429 . S
C673 C674 1.523 . S
C674 C655 1.368 . S
C674 C668 1.368 . S
C674 C673 1.523 . S
C675 C659 1.429 . S
C675 C671 1.429 . S
C675 C676 1.523 . S
C676 C660 1.368 . S
C676 C672 1.368 . S
C676 C675 1.523 . S
H677 C652 0.939 1_554 S
H678 C654 0.950 . S
H679 C655 0.949 . S
H680 C657 0.950 . S
H681 C659 0.950 . S
C682 C683 1.349 . S
C682 C684 1.327 . S
C682 H707 0.950 . S
C683 C682 1.349 . S
C683 C699 1.349 . S
C684 C682 1.327 . S
C684 C703 1.429 . S
C684 H708 0.950 . S
C685 C702 1.574 . S
C685 C704 1.368 . S
C685 H709 0.949 . S
H686 C690 0.949 . S
C687 C688 1.349 . S
C687 C689 1.327 . S
C687 H710 0.950 . S
C688 C687 1.349 . S
C688 C700 1.349 . S
C689 C687 1.327 . S
C689 C705 1.429 . S
C689 H711 0.950 . S
C690 H686 0.949 . S
C690 C698 1.574 . S
C690 C706 1.368 . S
H691 C699 0.950 . S
H692 C697 0.950 . S
H693 C698 0.949 . S
H694 C700 0.950 . S
H695 C701 0.950 . S
H696 C702 0.949 . S
C697 H692 0.950 . S
C697 C699 1.327 . S
C697 C703 1.429 . S
C698 C690 1.574 . S
C698 H693 0.949 . S
C698 C704 1.368 . S
C699 C683 1.349 . S
C699 H691 0.950 . S
C699 C697 1.327 . S
C700 C688 1.349 . S
C700 H694 0.950 . S
C700 C701 1.327 . S
C701 H695 0.950 . S
C701 C700 1.327 . S
C701 C705 1.429 . S
C702 C685 1.574 . S
C702 H696 0.949 . S
C702 C706 1.368 . S
C703 C684 1.429 . S
C703 C697 1.429 . S
C703 C704 1.523 . S
C704 C685 1.368 . S
C704 C698 1.368 . S
C704 C703 1.523 . S
C705 C689 1.429 . S
C705 C701 1.429 . S
C705 C706 1.523 . S
C706 C690 1.368 . S
C706 C702 1.368 . S
C706 C705 1.523 . S
H707 C682 0.950 . S
H708 C684 0.950 . S
H709 C685 0.949 . S
H710 C687 0.950 . S
H711 C689 0.950 . S
C712 C713 1.349 . S
C712 C714 1.327 . S
C712 H737 0.950 . S
C713 C712 1.349 . S
C713 C729 1.349 . S
C714 C712 1.327 . S
C714 C733 1.429 . S
C714 H738 0.950 . S
C715 C732 1.574 1_565 S
C715 C734 1.368 . S
C715 H739 0.949 . S
H716 C720 0.949 . S
C717 C718 1.349 . S
C717 C719 1.327 . S
C717 H740 0.950 . S
C718 C717 1.349 . S
C718 C730 1.349 . S
C719 C717 1.327 . S
C719 C735 1.429 . S
C719 H741 0.950 . S
C720 H716 0.949 . S
C720 C728 1.574 1_545 S
C720 C736 1.368 . S
H721 C729 0.950 . S
H722 C727 0.950 . S
H723 C728 0.949 . S
H724 C730 0.950 . S
H725 C731 0.950 . S
H726 C732 0.949 . S
C727 H722 0.950 . S
C727 C729 1.327 . S
C727 C733 1.429 . S
C728 C720 1.574 1_565 S
C728 H723 0.949 . S
C728 C734 1.368 . S
C729 C713 1.349 . S
C729 H721 0.950 . S
C729 C727 1.327 . S
C730 C718 1.349 . S
C730 H724 0.950 . S
C730 C731 1.327 . S
C731 H725 0.950 . S
C731 C730 1.327 . S
C731 C735 1.429 . S
C732 C715 1.574 1_545 S
C732 H726 0.949 . S
C732 C736 1.368 . S
C733 C714 1.429 . S
C733 C727 1.429 . S
C733 C734 1.523 . S
C734 C715 1.368 . S
C734 C728 1.368 . S
C734 C733 1.523 . S
C735 C719 1.429 . S
C735 C731 1.429 . S
C735 C736 1.523 . S
C736 C720 1.368 . S
C736 C732 1.368 . S
C736 C735 1.523 . S
H737 C712 0.950 . S
H738 C714 0.950 . S
H739 C715 0.949 . S
H740 C717 0.950 . S
H741 C719 0.950 . S
C742 C743 1.349 . S
C742 C744 1.327 . S
C742 H767 0.950 . S
C743 C742 1.349 . S
C743 C759 1.349 . S
C744 C742 1.327 . S
C744 C763 1.429 . S
C744 H768 0.950 . S
C745 C762 1.574 1_655 S
C745 C764 1.368 . S
C745 H769 0.949 . S
H746 C750 0.949 . S
C747 C748 1.349 . S
C747 C749 1.327 . S
C747 H770 0.950 . S
C748 C747 1.349 . S
C748 C760 1.349 . S
C749 C747 1.327 . S
C749 C765 1.429 . S
C749 H771 0.950 . S
C750 H746 0.949 . S
C750 C758 1.574 1_455 S
C750 C766 1.368 . S
H751 C759 0.950 . S
H752 C757 0.950 . S
H753 C758 0.949 . S
H754 C760 0.950 . S
H755 C761 0.950 . S
H756 C762 0.949 . S
C757 H752 0.950 . S
C757 C759 1.327 . S
C757 C763 1.429 . S
C758 C750 1.574 1_655 S
C758 H753 0.949 . S
C758 C764 1.368 . S
C759 C743 1.349 . S
C759 H751 0.950 . S
C759 C757 1.327 . S
C760 C748 1.349 . S
C760 H754 0.950 . S
C760 C761 1.327 . S
C761 H755 0.950 . S
C761 C760 1.327 . S
C761 C765 1.429 . S
C762 C745 1.574 1_455 S
C762 H756 0.949 . S
C762 C766 1.368 . S
C763 C744 1.429 . S
C763 C757 1.429 . S
C763 C764 1.523 . S
C764 C745 1.368 . S
C764 C758 1.368 . S
C764 C763 1.523 . S
C765 C749 1.429 . S
C765 C761 1.429 . S
C765 C766 1.523 . S
C766 C750 1.368 . S
C766 C762 1.368 . S
C766 C765 1.523 . S
H767 C742 0.950 . S
H768 C744 0.950 . S
H769 C745 0.949 . S
H770 C747 0.950 . S
H771 C749 0.950 . S
C772 C773 1.349 . S
C772 C774 1.327 . S
C772 H797 0.950 . S
C773 C772 1.349 . S
C773 C789 1.349 . S
C774 C772 1.327 . S
C774 C793 1.429 . S
C774 H798 0.950 . S
C775 C792 1.574 1_565 S
C775 C794 1.368 . S
C775 H799 0.949 . S
H776 C780 0.949 . S
C777 C778 1.349 . S
C777 C779 1.327 . S
C777 H800 0.950 . S
C778 C777 1.349 . S
C778 C790 1.349 . S
C779 C777 1.327 . S
C779 C795 1.429 . S
C779 H801 0.950 . S
C780 H776 0.949 . S
C780 C788 1.574 1_545 S
C780 C796 1.368 . S
H781 C789 0.950 . S
H782 C787 0.950 . S
H783 C788 0.949 . S
H784 C790 0.950 . S
H785 C791 0.950 . S
H786 C792 0.949 . S
C787 H782 0.950 . S
C787 C789 1.327 . S
C787 C793 1.429 . S
C788 C780 1.574 1_565 S
C788 H783 0.949 . S
C788 C794 1.368 . S
C789 C773 1.349 . S
C789 H781 0.950 . S
C789 C787 1.327 . S
C790 C778 1.349 . S
C790 H784 0.950 . S
C790 C791 1.327 . S
C791 H785 0.950 . S
C791 C790 1.327 . S
C791 C795 1.429 . S
C792 C775 1.574 1_545 S
C792 H786 0.949 . S
C792 C796 1.368 . S
C793 C774 1.429 . S
C793 C787 1.429 . S
C793 C794 1.523 . S
C794 C775 1.368 . S
C794 C788 1.368 . S
C794 C793 1.523 . S
C795 C779 1.429 . S
C795 C791 1.429 . S
C795 C796 1.523 . S
C796 C780 1.368 . S
C796 C792 1.368 . S
C796 C795 1.523 . S
H797 C772 0.950 . S
H798 C774 0.950 . S
H799 C775 0.949 . S
H800 C777 0.950 . S
H801 C779 0.950 . S
C802 C803 1.349 . S
C802 C804 1.327 . S
C802 H827 0.950 . S
C803 C802 1.349 . S
C803 C819 1.349 . S
C804 C802 1.327 . S
C804 C823 1.429 . S
C804 H828 0.950 . S
C805 C822 1.574 1_655 S
C805 C824 1.368 . S
C805 H829 0.949 . S
H806 C810 0.949 . S
C807 C808 1.349 . S
C807 C809 1.327 . S
C807 H830 0.950 . S
C808 C807 1.349 . S
C808 C820 1.349 . S
C809 C807 1.327 . S
C809 C825 1.429 . S
C809 H831 0.950 . S
C810 H806 0.949 . S
C810 C818 1.574 1_455 S
C810 C826 1.368 . S
H811 C819 0.950 . S
H812 C817 0.950 . S
H813 C818 0.949 . S
H814 C820 0.950 . S
H815 C821 0.950 . S
H816 C822 0.949 . S
C817 H812 0.950 . S
C817 C819 1.327 . S
C817 C823 1.429 . S
C818 C810 1.574 1_655 S
C818 H813 0.949 . S
C818 C824 1.368 . S
C819 C803 1.349 . S
C819 H811 0.950 . S
C819 C817 1.327 . S
C820 C808 1.349 . S
C820 H814 0.950 . S
C820 C821 1.327 . S
C821 H815 0.950 . S
C821 C820 1.327 . S
C821 C825 1.429 . S
C822 C805 1.574 1_455 S
C822 H816 0.949 . S
C822 C826 1.368 . S
C823 C804 1.429 . S
C823 C817 1.429 . S
C823 C824 1.523 . S
C824 C805 1.368 . S
C824 C818 1.368 . S
C824 C823 1.523 . S
C825 C809 1.429 . S
C825 C821 1.429 . S
C825 C826 1.523 . S
C826 C810 1.368 . S
C826 C822 1.368 . S
C826 C825 1.523 . S
H827 C802 0.950 . S
H828 C804 0.950 . S
H829 C805 0.949 . S
H830 C807 0.950 . S
H831 C809 0.950 . S
C832 C833 1.349 . S
C832 C834 1.327 . S
C832 H857 0.950 . S
C833 C832 1.349 . S
C833 C849 1.349 . S
C834 C832 1.327 . S
C834 C853 1.429 . S
C834 H858 0.950 . S
C835 C852 1.574 . S
C835 C854 1.368 . S
C835 H859 0.949 . S
H836 C840 0.949 . S
C837 C838 1.349 . S
C837 C839 1.327 . S
C837 H860 0.950 . S
C838 C837 1.349 . S
C838 C850 1.349 . S
C839 C837 1.327 . S
C839 C855 1.429 . S
C839 H861 0.950 . S
C840 H836 0.949 . S
C840 C848 1.574 . S
C840 C856 1.368 . S
H841 C849 0.950 . S
H842 C847 0.950 . S
H843 C848 0.949 . S
H844 C850 0.950 . S
H845 C851 0.950 . S
H846 C852 0.949 . S
C847 H842 0.950 . S
C847 C849 1.327 . S
C847 C853 1.429 . S
C848 C840 1.574 . S
C848 H843 0.949 . S
C848 C854 1.368 . S
C849 C833 1.349 . S
C849 H841 0.950 . S
C849 C847 1.327 . S
C850 C838 1.349 . S
C850 H844 0.950 . S
C850 C851 1.327 . S
C851 H845 0.950 . S
C851 C850 1.327 . S
C851 C855 1.429 . S
C852 C835 1.574 . S
C852 H846 0.949 . S
C852 C856 1.368 . S
C853 C834 1.429 . S
C853 C847 1.429 . S
C853 C854 1.523 1_556 S
C854 C835 1.368 . S
C854 C848 1.368 . S
C854 C853 1.523 1_554 S
C855 C839 1.429 . S
C855 C851 1.429 . S
C855 C856 1.523 . S
C856 C840 1.368 . S
C856 C852 1.368 . S
C856 C855 1.523 . S
H857 C832 0.950 . S
H858 C834 0.950 . S
H859 C835 0.949 . S
H860 C837 0.950 . S
H861 C839 0.950 . S
C862 C863 1.349 . S
C862 C864 1.327 . S
C862 H887 0.950 . S
C863 C862 1.349 . S
C863 C879 1.349 . S
C864 C862 1.327 . S
C864 C883 1.429 . S
C864 H888 0.950 . S
C865 C882 1.574 . S
C865 C884 1.368 . S
C865 H889 0.949 . S
H866 C870 0.949 . S
C867 C868 1.349 . S
C867 C869 1.327 . S
C867 H890 0.950 . S
C868 C867 1.349 . S
C868 C880 1.349 . S
C869 C867 1.327 . S
C869 C885 1.429 . S
C869 H891 0.950 . S
C870 H866 0.949 . S
C870 C878 1.574 . S
C870 C886 1.368 . S
H871 C879 0.950 . S
H872 C877 0.950 . S
H873 C878 0.949 . S
H874 C880 0.950 . S
H875 C881 0.950 . S
H876 C882 0.949 . S
C877 H872 0.950 . S
C877 C879 1.327 . S
C877 C883 1.429 . S
C878 C870 1.574 . S
C878 H873 0.949 . S
C878 C884 1.368 . S
C879 C863 1.349 . S
C879 H871 0.950 . S
C879 C877 1.327 . S
C880 C868 1.349 . S
C880 H874 0.950 . S
C880 C881 1.327 . S
C881 H875 0.950 . S
C881 C880 1.327 . S
C881 C885 1.429 . S
C882 C865 1.574 . S
C882 H876 0.949 . S
C882 C886 1.368 . S
C883 C864 1.429 . S
C883 C877 1.429 . S
C883 C884 1.523 . S
C884 C865 1.368 . S
C884 C878 1.368 . S
C884 C883 1.523 . S
C885 C869 1.429 . S
C885 C881 1.429 . S
C885 C886 1.523 . S
C886 C870 1.368 . S
C886 C882 1.368 . S
C886 C885 1.523 . S
H887 C862 0.950 . S
H888 C864 0.950 . S
H889 C865 0.949 . S
H890 C867 0.950 . S
H891 C869 0.950 . S
C892 C893 1.349 . S
C892 C894 1.327 . S
C892 H917 0.950 . S
C893 C892 1.349 . S
C893 C909 1.349 . S
C894 C892 1.327 . S
C894 C913 1.429 . S
C894 H918 0.950 . S
C895 C912 1.574 . S
C895 C914 1.368 . S
C895 H919 0.949 . S
H896 C900 0.949 . S
C897 C898 1.349 . S
C897 C899 1.327 . S
C897 H920 0.950 . S
C898 C897 1.349 . S
C898 C910 1.349 . S
C899 C897 1.327 . S
C899 C915 1.429 . S
C899 H921 0.950 . S
C900 H896 0.949 . S
C900 C908 1.574 . S
C900 C916 1.368 . S
H901 C909 0.950 . S
H902 C907 0.950 . S
H903 C908 0.949 . S
H904 C910 0.950 . S
H905 C911 0.950 . S
H906 C912 0.949 . S
C907 H902 0.950 . S
C907 C909 1.327 . S
C907 C913 1.429 . S
C908 C900 1.574 . S
C908 H903 0.949 . S
C908 C914 1.368 . S
C909 C893 1.349 . S
C909 H901 0.950 . S
C909 C907 1.327 . S
C910 C898 1.349 . S
C910 H904 0.950 . S
C910 C911 1.327 . S
C911 H905 0.950 . S
C911 C910 1.327 . S
C911 C915 1.429 . S
C912 C895 1.574 . S
C912 H906 0.949 . S
C912 C916 1.368 . S
C913 C894 1.429 . S
C913 C907 1.429 . S
C913 C914 1.523 . S
C914 C895 1.368 . S
C914 C908 1.368 . S
C914 C913 1.523 . S
C915 C899 1.429 . S
C915 C911 1.429 . S
C915 C916 1.523 . S
C916 C900 1.368 . S
C916 C912 1.368 . S
C916 C915 1.523 . S
H917 C892 0.950 . S
H918 C894 0.950 . S
H919 C895 0.949 . S
H920 C897 0.950 . S
H921 C899 0.950 . S
C922 C923 1.349 . S
C922 C924 1.327 . S
C922 H947 0.950 . S
C923 C922 1.349 . S
C923 C939 1.349 . S
C924 C922 1.327 . S
C924 C943 1.429 . S
C924 H948 0.950 . S
C925 C942 1.574 . S
C925 C944 1.368 . S
C925 H949 0.949 . S
H926 C930 0.949 . S
C927 C928 1.349 . S
C927 C929 1.327 . S
C927 H950 0.950 . S
C928 C927 1.349 . S
C928 C940 1.349 . S
C929 C927 1.327 . S
C929 C945 1.429 . S
C929 H951 0.950 . S
C930 H926 0.949 . S
C930 C938 1.574 . S
C930 C946 1.368 . S
H931 C939 0.950 . S
H932 C937 0.950 . S
H933 C938 0.949 . S
H934 C940 0.950 . S
H935 C941 0.950 . S
H936 C942 0.949 . S
C937 H932 0.950 . S
C937 C939 1.327 . S
C937 C943 1.429 . S
C938 C930 1.574 . S
C938 H933 0.949 . S
C938 C944 1.368 . S
C939 C923 1.349 . S
C939 H931 0.950 . S
C939 C937 1.327 . S
C940 C928 1.349 . S
C940 H934 0.950 . S
C940 C941 1.327 . S
C941 H935 0.950 . S
C941 C940 1.327 . S
C941 C945 1.429 . S
C942 C925 1.574 . S
C942 H936 0.949 . S
C942 C946 1.368 . S
C943 C924 1.429 . S
C943 C937 1.429 . S
C943 C944 1.523 . S
C944 C925 1.368 . S
C944 C938 1.368 . S
C944 C943 1.523 . S
C945 C929 1.429 . S
C945 C941 1.429 . S
C945 C946 1.523 . S
C946 C930 1.368 . S
C946 C942 1.368 . S
C946 C945 1.523 . S
H947 C922 0.950 . S
H948 C924 0.950 . S
H949 C925 0.949 . S
H950 C927 0.950 . S
H951 C929 0.950 . S
C473 C33 0.667 . S
C478 C387 0.667 . S
C503 C92 0.667 . S
C508 C446 0.667 . S
C533 C269 0.667 . S
C538 C151 0.667 . S
C563 C328 0.667 . S
C568 C210 0.667 . S
C593 C5 1.654 . S
C598 C300 1.654 . S
C623 C64 1.654 . S
C628 C359 1.654 . S
C653 C418 1.655 1_556 S
C658 C123 1.654 . S
C683 C182 1.654 . S
C688 C241 1.654 . S
C713 C288 1.647 . S
C718 C52 1.647 . S
C743 C111 1.647 . S
C748 C347 1.647 . S
C773 C170 1.647 . S
C778 C406 1.647 . S
C803 C465 1.647 . S
C808 C229 1.647 . S
C833 C357 1.320 . S
C838 C3 1.320 . S
C863 C416 1.320 . S
C868 C62 1.320 . S
C893 C121 1.320 . S
C898 C239 1.320 . S
C923 C180 1.320 . S
C928 C298 1.320 . S
