# Generated by pormake.
# Topology umw, (4)-cn, num edge types: 1
# Building blocks:
#     Node 0, Type 0, BuildingBlock: CEKHIL_clean_sbu_0, # of connection points: 4
#     Node 1, Type 0, BuildingBlock: CEKHIL_clean_sbu_0, # of connection points: 4
#     Node 2, Type 0, BuildingBlock: CEKHIL_clean_sbu_0, # of connection points: 4
#     Node 3, Type 0, BuildingBlock: CEKHIL_clean_sbu_0, # of connection points: 4
#     Node 4, Type 0, BuildingBlock: CEKHIL_clean_sbu_0, # of connection points: 4
#     Node 5, Type 0, BuildingBlock: CEKHIL_clean_sbu_0, # of connection points: 4
#     Node 6, Type 0, BuildingBlock: CEKHIL_clean_sbu_0, # of connection points: 4
#     Node 7, Type 0, BuildingBlock: CEKHIL_clean_sbu_0, # of connection points: 4
#     Edge 8, Type (0, 0), BuildingBlock: AJUNOK_clean_linker_0, # of connection points: 2
#     Edge 9, Type (0, 0), BuildingBlock: AJUNOK_clean_linker_0, # of connection points: 2
#     Edge 10, Type (0, 0), BuildingBlock: AJUNOK_clean_linker_0, # of connection points: 2
#     Edge 11, Type (0, 0), BuildingBlock: AJUNOK_clean_linker_0, # of connection points: 2
#     Edge 12, Type (0, 0), BuildingBlock: AJUNOK_clean_linker_0, # of connection points: 2
#     Edge 13, Type (0, 0), BuildingBlock: AJUNOK_clean_linker_0, # of connection points: 2
#     Edge 14, Type (0, 0), BuildingBlock: AJUNOK_clean_linker_0, # of connection points: 2
#     Edge 15, Type (0, 0), BuildingBlock: AJUNOK_clean_linker_0, # of connection points: 2
#     Edge 16, Type (0, 0), BuildingBlock: AJUNOK_clean_linker_0, # of connection points: 2
#     Edge 17, Type (0, 0), BuildingBlock: AJUNOK_clean_linker_0, # of connection points: 2
#     Edge 18, Type (0, 0), BuildingBlock: AJUNOK_clean_linker_0, # of connection points: 2
#     Edge 19, Type (0, 0), BuildingBlock: AJUNOK_clean_linker_0, # of connection points: 2
#     Edge 20, Type (0, 0), BuildingBlock: AJUNOK_clean_linker_0, # of connection points: 2
#     Edge 21, Type (0, 0), BuildingBlock: AJUNOK_clean_linker_0, # of connection points: 2
#     Edge 22, Type (0, 0), BuildingBlock: AJUNOK_clean_linker_0, # of connection points: 2
#     Edge 23, Type (0, 0), BuildingBlock: AJUNOK_clean_linker_0, # of connection points: 2
# Relax obj value: 0.130
# Max RMSD: 0.104
# Mean RMSD: 0.104
data_MOF--net-umw--node1-CEKHIL_clean_sbu_0--edge1-AJUNOK_clean_linker_0
_symmetry_space_group_name_H-M    P1
_symmetry_Int_Tables_number       1
_symmetry_cell_setting            triclinic
loop_
_symmetry_equiv_pos_as_xyz
'x, y, z'
_cell_length_a     29.251003
_cell_length_b     29.178777
_cell_length_c     19.063143
_cell_angle_alpha  90.051761
_cell_angle_beta   89.901682
_cell_angle_gamma 89.973257
loop_
_atom_site_label
_atom_site_type_symbol
_atom_site_fract_x
_atom_site_fract_y
_atom_site_fract_z
_atom_type_partial_charge
Co0 Co 0.44328 0.21674 0.29066 0.0
O1 O 0.42543 0.28062 0.30234 0.0
O2 O 0.38316 0.22184 0.33444 0.0
C3 C 0.47366 0.22124 0.18037 0.0
O4 O 0.4488 0.14634 0.29076 0.0
Co5 Co 0.54632 0.18978 0.27169 0.0
O6 O 0.52311 0.12631 0.28228 0.0
C7 C 0.51319 0.23198 0.40088 0.0
C8 C 0.38905 0.26601 0.33481 0.0
C9 C 0.48107 0.1161 0.29065 0.0
O10 O 0.47238 0.21979 0.38475 0.0
O11 O 0.54688 0.22841 0.35845 0.0
O12 O 0.42946 0.21737 0.18862 0.0
O13 O 0.49604 0.22619 0.23747 0.0
Co14 Co 0.83272 0.44558 0.54536 0.0
O15 O 0.76973 0.42738 0.56414 0.0
O16 O 0.82991 0.38469 0.58715 0.0
C17 C 0.82237 0.47698 0.43731 0.0
O18 O 0.90275 0.4515 0.53605 0.0
Co19 Co 0.85892 0.54894 0.52482 0.0
O20 O 0.92119 0.52432 0.50878 0.0
C21 C 0.8244 0.5145 0.65896 0.0
C22 C 0.78589 0.39014 0.5923 0.0
C23 C 0.93243 0.48284 0.52102 0.0
O24 O 0.83475 0.47353 0.64028 0.0
O25 O 0.82682 0.54884 0.61753 0.0
O26 O 0.82672 0.43263 0.44375 0.0
O27 O 0.82036 0.499 0.49533 0.0
Co28 Co 0.60565 0.8316 0.78875 0.0
O29 O 0.62223 0.76889 0.8131 0.0
O30 O 0.66706 0.82861 0.82825 0.0
C31 C 0.5716 0.81608 0.68369 0.0
O32 O 0.60163 0.90144 0.7734 0.0
Co33 Co 0.50359 0.86172 0.76563 0.0
O34 O 0.53028 0.92204 0.74202 0.0
C35 C 0.5379 0.8337 0.90414 0.0
C36 C 0.66034 0.78502 0.8381 0.0
C37 C 0.57191 0.93184 0.75471 0.0
O38 O 0.57943 0.83901 0.88411 0.0
O39 O 0.50348 0.83645 0.86301 0.0
O40 O 0.61602 0.82036 0.6871 0.0
O41 O 0.55113 0.8185 0.74279 0.0
Co42 Co 0.21377 0.60841 0.0388 0.0
O43 O 0.2767 0.62767 0.05467 0.0
O44 O 0.21626 0.66887 0.08237 0.0
C45 C 0.22266 0.57819 0.92933 0.0
O46 O 0.14371 0.60102 0.03321 0.0
Co47 Co 0.18952 0.50461 0.01662 0.0
O48 O 0.12629 0.52789 0.00629 0.0
C49 C 0.22639 0.53848 0.14939 0.0
C50 C 0.26045 0.66416 0.0851 0.0
C51 C 0.11438 0.56903 0.01991 0.0
O52 O 0.21436 0.57935 0.13295 0.0
O53 O 0.22402 0.50456 0.10704 0.0
O54 O 0.21742 0.62238 0.93705 0.0
O55 O 0.22623 0.55582 0.98672 0.0
Co56 Co 0.43454 0.82222 0.3157 0.0
O57 O 0.41509 0.75979 0.29502 0.0
O58 O 0.37358 0.82122 0.27422 0.0
C59 C 0.46578 0.80967 0.4234 0.0
O60 O 0.44229 0.89211 0.32695 0.0
Co61 Co 0.53839 0.84561 0.33836 0.0
O62 O 0.51506 0.90821 0.35674 0.0
C63 C 0.50342 0.82073 0.19941 0.0
C64 C 0.37817 0.77705 0.26772 0.0
C65 C 0.47423 0.92081 0.34331 0.0
O66 O 0.46207 0.82584 0.22054 0.0
O67 O 0.53812 0.82216 0.24003 0.0
O68 O 0.42166 0.81519 0.41722 0.0
O69 O 0.48754 0.8077 0.3652 0.0
Co70 Co 0.22765 0.43966 0.55997 0.0
O71 O 0.29082 0.42022 0.54822 0.0
O72 O 0.23122 0.37805 0.52018 0.0
C73 C 0.23398 0.47343 0.66773 0.0
O74 O 0.15753 0.44738 0.56137 0.0
Co75 Co 0.20438 0.54438 0.57302 0.0
O76 O 0.1403 0.52265 0.56948 0.0
C77 C 0.24052 0.50604 0.4428 0.0
C78 C 0.2754 0.38325 0.51829 0.0
C79 C 0.1285 0.4808 0.5627 0.0
O80 O 0.22994 0.46563 0.46367 0.0
O81 O 0.23878 0.54128 0.48256 0.0
O82 O 0.22866 0.42906 0.66303 0.0
O83 O 0.23923 0.49362 0.60886 0.0
Co84 Co 0.61213 0.22568 0.80994 0.0
O85 O 0.63244 0.28906 0.8002 0.0
O86 O 0.67358 0.22871 0.77111 0.0
C87 C 0.57805 0.23056 0.91791 0.0
O88 O 0.60468 0.15559 0.80839 0.0
Co89 Co 0.50819 0.20108 0.82147 0.0
O90 O 0.52988 0.13695 0.81213 0.0
C91 C 0.54617 0.24166 0.6943 0.0
C92 C 0.66936 0.27306 0.77066 0.0
C93 C 0.57191 0.12601 0.80626 0.0
O94 O 0.58638 0.22956 0.7136 0.0
O95 O 0.51128 0.23934 0.73465 0.0
O96 O 0.62232 0.22518 0.91313 0.0
O97 O 0.55801 0.23663 0.85911 0.0
Co98 Co 0.82055 0.61429 0.06817 0.0
O99 O 0.75801 0.63533 0.05441 0.0
O100 O 0.81923 0.67537 0.02684 0.0
C101 C 0.81181 0.58217 0.17662 0.0
O102 O 0.8904 0.60487 0.07103 0.0
Co103 Co 0.84125 0.5092 0.08604 0.0
O104 O 0.90586 0.52937 0.08142 0.0
C105 C 0.8079 0.54625 0.95338 0.0
C106 C 0.77493 0.6716 0.02438 0.0
C107 C 0.91865 0.57082 0.07317 0.0
O108 O 0.81883 0.58689 0.97275 0.0
O109 O 0.80815 0.5117 -0.0054 0.0
O110 O 0.81861 0.62629 0.171 0.0
O111 O 0.80695 0.5614 0.11817 0.0
C112 C 0.48557 0.2465 0.52173 0.0
C113 C 0.52214 0.24567 0.47382 0.0
C114 C 0.4935 0.2493 0.59346 0.0
C115 C 0.53829 0.2514 0.61977 0.0
H116 H 0.45058 0.24217 0.50436 0.0
H117 H 0.46434 0.24652 0.62831 0.0
S118 S 0.64476 0.26455 0.51564 0.0
N119 N 0.60403 0.2574 0.45679 0.0
N120 N 0.61884 0.26294 0.59253 0.0
C121 C 0.57473 0.25662 0.57231 0.0
C122 C 0.56667 0.25369 0.49895 0.0
C123 C 0.81613 0.48607 0.78062 0.0
C124 C 0.81215 0.52244 0.7327 0.0
C125 C 0.81113 0.4935 0.85219 0.0
C126 C 0.80205 0.53756 0.87836 0.0
H127 H 0.82533 0.45189 0.76341 0.0
H128 H 0.81733 0.46493 0.88718 0.0
S129 S 0.77746 0.642 0.77434 0.0
N130 N 0.79058 0.6025 0.71558 0.0
N131 N 0.78125 0.61632 0.85119 0.0
C132 C 0.79352 0.57332 0.83095 0.0
C133 C 0.79859 0.5658 0.75774 0.0
C134 C 0.47749 0.83362 0.07778 0.0
C135 C 0.51155 0.81796 0.12379 0.0
C136 C 0.48609 0.8375 0.00636 0.0
C137 C 0.52899 0.82581 0.97854 0.0
H138 H 0.44448 0.84484 0.09715 0.0
H139 H 0.45935 0.85132 0.97326 0.0
S140 S 0.62707 0.77571 0.07498 0.0
N141 N 0.58793 0.78545 0.13569 0.0
N142 N 0.60412 0.79283 0.00046 0.0
C143 C 0.56251 0.80752 0.02315 0.0
C144 C 0.55374 0.80349 0.0961 0.0
C145 C 0.23837 0.47697 0.32082 0.0
C146 C 0.248 0.51307 0.36743 0.0
C147 C 0.23409 0.48502 0.24927 0.0
C148 C 0.23945 0.52937 0.22206 0.0
H149 H 0.2311 0.44275 0.33982 0.0
H150 H 0.22374 0.45678 0.21596 0.0
S151 S 0.27745 0.63279 0.31905 0.0
N152 N 0.27196 0.59277 0.37962 0.0
N153 N 0.26375 0.60782 0.24431 0.0
C154 C 0.25413 0.56467 0.26676 0.0
C155 C 0.2586 0.55649 0.33978 0.0
C156 C 0.31632 0.28283 0.40309 0.0
C157 C 0.35977 0.29705 0.37928 0.0
C158 C 0.28967 0.31026 0.44877 0.0
C159 C 0.30565 0.35275 0.47433 0.0
H160 H 0.30258 0.25021 0.38607 0.0
H161 H 0.2562 0.29798 0.46418 0.0
S162 S 0.41781 0.40537 0.43004 0.0
N163 N 0.41762 0.35665 0.38601 0.0
N164 N 0.36849 0.40731 0.47211 0.0
C165 C 0.34934 0.36705 0.4516 0.0
C166 C 0.37604 0.33955 0.40415 0.0
C167 C 0.71364 0.37398 0.66106 0.0
C168 C 0.75653 0.35888 0.63606 0.0
C169 C 0.6867 0.34687 0.70641 0.0
C170 C 0.701 0.30301 0.72849 0.0
H171 H 0.70088 0.40744 0.64625 0.0
H172 H 0.65388 0.36017 0.72317 0.0
S173 S 0.81026 0.24684 0.67799 0.0
N174 N 0.81195 0.29682 0.63751 0.0
N175 N 0.76123 0.24578 0.72104 0.0
C176 C 0.74372 0.28737 0.70365 0.0
C177 C 0.77142 0.31523 0.65809 0.0
C178 C 0.70206 0.68833 0.95821 0.0
C179 C 0.74591 0.70264 0.97982 0.0
C180 C 0.67554 0.71439 0.91109 0.0
C181 C 0.69118 0.75648 0.88371 0.0
H182 H 0.68825 0.65612 0.97683 0.0
H183 H 0.64205 0.70162 0.89688 0.0
S184 S 0.80334 0.8101 0.92376 0.0
N185 N 0.8037 0.76207 0.96953 0.0
N186 N 0.75369 0.81133 0.88268 0.0
C187 C 0.73481 0.77146 0.90528 0.0
C188 C 0.76211 0.74457 0.95269 0.0
C189 C 0.33386 0.67997 0.15044 0.0
C190 C 0.29011 0.69487 0.12929 0.0
C191 C 0.36115 0.70599 0.19662 0.0
C192 C 0.34646 0.74866 0.2233 0.0
H193 H 0.34699 0.64733 0.13224 0.0
H194 H 0.39449 0.69272 0.21063 0.0
S195 S 0.23482 0.80375 0.18459 0.0
N196 N 0.23331 0.75533 0.13971 0.0
N197 N 0.28485 0.80455 0.2246 0.0
C198 C 0.30291 0.76417 0.20232 0.0
C199 C 0.27477 0.73729 0.156 0.0
C200 C 0.49539 1.00058 0.37741 0.0
C201 C 0.46633 0.97134 0.33917 0.0
C202 C 0.49789 0.04755 0.36303 0.0
C203 C 0.47111 0.06781 0.31028 0.0
H204 H 0.51828 0.98668 0.41665 0.0
H205 H 0.52231 0.06804 0.39205 0.0
S206 S 0.3859 1.00813 0.19948 0.0
N207 N 0.40743 0.96711 0.24929 0.0
N208 N 0.41168 0.05604 0.22347 0.0
C209 C 0.43937 0.03999 0.275 0.0
C210 C 0.43703 0.99164 0.28924 0.0
C211 C 1.01206 0.50034 0.48285 0.0
C212 C 0.9825 0.47288 0.52322 0.0
C213 C 0.05933 0.50036 0.49409 0.0
C214 C 0.07954 0.4727 0.54587 0.0
H215 H 0.99835 0.52381 0.4442 0.0
H216 H 0.08019 0.52365 0.46347 0.0
S217 S 1.0186 0.39113 0.66175 0.0
N218 N 0.97758 0.41454 0.61414 0.0
N219 N 0.06702 0.41432 0.63442 0.0
C220 C 0.05114 0.44259 0.58346 0.0
C221 C 1.00249 0.4427 0.57226 0.0
C222 C 0.60557 0.99995 0.81713 0.0
C223 C 0.58337 0.98147 0.75776 0.0
C224 C 0.60472 0.04752 0.83112 0.0
C225 C 0.58172 0.07789 0.78605 0.0
H226 H 0.62058 0.97727 0.85572 0.0
H227 H 0.61953 0.06013 0.87947 0.0
S228 S 0.52569 0.04796 0.6178 0.0
N229 N 0.5432 0.99829 0.64945 0.0
N230 N 0.5417 0.087 0.67551 0.0
C231 C 0.56283 0.06021 0.72394 0.0
C232 C 0.56368 1.01219 0.70979 0.0
C233 C 0.98711 0.54767 0.005 0.0
C234 C 0.96763 0.57758 0.05463 0.0
C235 C 0.03402 0.54788 -0.00935 0.0
C236 C 0.06412 0.57775 0.02572 0.0
H237 H 0.96593 0.52281 0.97804 0.0
H238 H 0.04705 0.52293 0.95352 0.0
S239 S 0.0299 0.66567 0.15682 0.0
N240 N 0.98128 0.64044 0.13537 0.0
N241 N 0.07018 0.64048 0.10955 0.0
C242 C 0.0448 0.60984 0.07275 0.0
C243 C 0.99644 0.60982 0.08697 0.0
C244 C 0.57176 0.21631 0.04814 0.0
C245 C 0.55072 0.22705 0.98413 0.0
C246 C 0.54621 0.21344 0.11059 0.0
C247 C 0.49838 0.22067 0.11185 0.0
H248 H 0.60829 0.21045 0.05028 0.0
H249 H 0.56443 0.20578 0.15849 0.0
S250 S 0.42645 0.25043 0.95893 0.0
N251 N 0.4786 0.24586 0.92646 0.0
N252 N 0.43118 0.23913 0.04341 0.0
C253 C 0.47677 0.23077 0.04824 0.0
C254 C 0.50276 0.23436 0.98467 0.0
C255 C 0.82777 0.57559 0.30617 0.0
C256 C 0.81388 0.55524 0.24306 0.0
C257 C 0.83105 0.54971 0.36816 0.0
C258 C 0.82114 0.50227 0.36958 0.0
H259 H 0.8363 0.6117 0.3078 0.0
H260 H 0.84155 0.56732 0.41536 0.0
S261 S 0.78095 0.43273 0.21945 0.0
N262 N 0.78789 0.48463 0.18683 0.0
N263 N 0.79566 0.43647 0.30278 0.0
C264 C 0.80725 0.48149 0.307 0.0
C265 C 0.80315 0.50784 0.24404 0.0
C266 C 0.56554 0.81616 0.55192 0.0
C267 C 0.54436 0.81301 0.61773 0.0
C268 C 0.53972 0.81463 0.48988 0.0
C269 C 0.49149 0.81061 0.49081 0.0
H270 H 0.60229 0.81999 0.54816 0.0
H271 H 0.55808 0.81684 0.44077 0.0
S272 S 0.41939 0.79784 0.64933 0.0
N273 N 0.47195 0.8025 0.67983 0.0
N274 N 0.424 0.80148 0.56324 0.0
C275 C 0.46992 0.80683 0.55612 0.0
C276 C 0.49617 0.80757 0.61942 0.0
C277 C 0.2165 0.50527 0.86 0.0
C278 C 0.22335 0.55326 0.8611 0.0
C279 C 0.21981 0.47964 0.79775 0.0
C280 C 0.2307 0.50075 0.73384 0.0
H281 H 0.20867 0.48694 0.90777 0.0
H282 H 0.21401 0.44301 0.79992 0.0
S283 S 0.25398 0.62532 0.70845 0.0
N284 N 0.24204 0.62065 0.79277 0.0
N285 N 0.24986 0.573 0.67613 0.0
C286 C 0.23799 0.54882 0.73426 0.0
C287 C 0.23385 0.57492 0.79763 0.0
loop_
_geom_bond_atom_site_label_1
_geom_bond_atom_site_label_2
_geom_bond_distance
_geom_bond_site_symmetry_2
_ccdc_geom_bond_type
Co0 O1 2.216 . S
Co0 O2 2.091 . S
Co0 O4 2.004 . S
Co0 O10 2.021 . S
Co0 O12 2.137 . S
Co0 O13 2.244 . S
O1 Co0 2.216 . S
O1 C8 1.247 . S
O2 Co0 2.091 . S
O2 C8 1.261 . S
C3 O12 1.247 . S
C3 O13 1.272 . S
O4 Co0 2.004 . S
O4 C9 1.259 . S
Co5 O6 2.061 . S
Co5 O11 2.052 . S
Co5 O13 2.135 . S
O6 Co5 2.061 . S
O6 C9 1.235 . S
C7 O10 1.238 . S
C7 O11 1.241 . S
C8 O1 1.247 . S
C8 O2 1.261 . S
C9 O4 1.259 . S
C9 O6 1.235 . S
O10 Co0 2.021 . S
O10 C7 1.238 . S
O11 Co5 2.052 . S
O11 C7 1.241 . S
O12 Co0 2.137 . S
O12 C3 1.247 . S
O13 Co0 2.244 . S
O13 C3 1.272 . S
O13 Co5 2.135 . S
Co14 O15 2.216 . S
Co14 O16 2.091 . S
Co14 O18 2.004 . S
Co14 O24 2.021 . S
Co14 O26 2.137 . S
Co14 O27 2.244 . S
O15 Co14 2.216 . S
O15 C22 1.247 . S
O16 Co14 2.091 . S
O16 C22 1.261 . S
C17 O26 1.247 . S
C17 O27 1.272 . S
O18 Co14 2.004 . S
O18 C23 1.259 . S
Co19 O20 2.061 . S
Co19 O25 2.052 . S
Co19 O27 2.135 . S
O20 Co19 2.061 . S
O20 C23 1.235 . S
C21 O24 1.238 . S
C21 O25 1.241 . S
C22 O15 1.247 . S
C22 O16 1.261 . S
C23 O18 1.259 . S
C23 O20 1.235 . S
O24 Co14 2.021 . S
O24 C21 1.238 . S
O25 Co19 2.052 . S
O25 C21 1.241 . S
O26 Co14 2.137 . S
O26 C17 1.247 . S
O27 Co14 2.244 . S
O27 C17 1.272 . S
O27 Co19 2.135 . S
Co28 O29 2.216 . S
Co28 O30 2.091 . S
Co28 O32 2.004 . S
Co28 O38 2.021 . S
Co28 O40 2.137 . S
Co28 O41 2.244 . S
O29 Co28 2.216 . S
O29 C36 1.247 . S
O30 Co28 2.091 . S
O30 C36 1.261 . S
C31 O40 1.247 . S
C31 O41 1.272 . S
O32 Co28 2.004 . S
O32 C37 1.259 . S
Co33 O34 2.061 . S
Co33 O39 2.052 . S
Co33 O41 2.135 . S
O34 Co33 2.061 . S
O34 C37 1.235 . S
C35 O38 1.238 . S
C35 O39 1.241 . S
C36 O29 1.247 . S
C36 O30 1.261 . S
C37 O32 1.259 . S
C37 O34 1.235 . S
O38 Co28 2.021 . S
O38 C35 1.238 . S
O39 Co33 2.052 . S
O39 C35 1.241 . S
O40 Co28 2.137 . S
O40 C31 1.247 . S
O41 Co28 2.244 . S
O41 C31 1.272 . S
O41 Co33 2.135 . S
Co42 O43 2.216 . S
Co42 O44 2.091 . S
Co42 O46 2.004 . S
Co42 O52 2.021 . S
Co42 O54 2.137 1_554 S
Co42 O55 2.244 . S
O43 Co42 2.216 . S
O43 C50 1.247 . S
O44 Co42 2.091 . S
O44 C50 1.261 . S
C45 O54 1.247 . S
C45 O55 1.272 1_556 S
O46 Co42 2.004 . S
O46 C51 1.259 . S
Co47 O48 2.061 . S
Co47 O53 2.052 . S
Co47 O55 2.135 . S
O48 Co47 2.061 . S
O48 C51 1.235 . S
C49 O52 1.238 . S
C49 O53 1.241 . S
C50 O43 1.247 . S
C50 O44 1.261 . S
C51 O46 1.259 . S
C51 O48 1.235 . S
O52 Co42 2.021 . S
O52 C49 1.238 . S
O53 Co47 2.052 . S
O53 C49 1.241 . S
O54 Co42 2.137 1_556 S
O54 C45 1.247 . S
O55 Co42 2.244 . S
O55 C45 1.272 1_554 S
O55 Co47 2.135 . S
Co56 O57 2.216 . S
Co56 O58 2.091 . S
Co56 O60 2.004 . S
Co56 O66 2.021 . S
Co56 O68 2.137 . S
Co56 O69 2.244 . S
O57 Co56 2.216 . S
O57 C64 1.247 . S
O58 Co56 2.091 . S
O58 C64 1.261 . S
C59 O68 1.247 . S
C59 O69 1.272 . S
O60 Co56 2.004 . S
O60 C65 1.259 . S
Co61 O62 2.061 . S
Co61 O67 2.052 . S
Co61 O69 2.135 . S
O62 Co61 2.061 . S
O62 C65 1.235 . S
C63 O66 1.238 . S
C63 O67 1.241 . S
C64 O57 1.247 . S
C64 O58 1.261 . S
C65 O60 1.259 . S
C65 O62 1.235 . S
O66 Co56 2.021 . S
O66 C63 1.238 . S
O67 Co61 2.052 . S
O67 C63 1.241 . S
O68 Co56 2.137 . S
O68 C59 1.247 . S
O69 Co56 2.244 . S
O69 C59 1.272 . S
O69 Co61 2.135 . S
Co70 O71 2.216 . S
Co70 O72 2.091 . S
Co70 O74 2.004 . S
Co70 O80 2.021 . S
Co70 O82 2.137 . S
Co70 O83 2.244 . S
O71 Co70 2.216 . S
O71 C78 1.247 . S
O72 Co70 2.091 . S
O72 C78 1.261 . S
C73 O82 1.247 . S
C73 O83 1.272 . S
O74 Co70 2.004 . S
O74 C79 1.259 . S
Co75 O76 2.061 . S
Co75 O81 2.052 . S
Co75 O83 2.135 . S
O76 Co75 2.061 . S
O76 C79 1.235 . S
C77 O80 1.238 . S
C77 O81 1.241 . S
C78 O71 1.247 . S
C78 O72 1.261 . S
C79 O74 1.259 . S
C79 O76 1.235 . S
O80 Co70 2.021 . S
O80 C77 1.238 . S
O81 Co75 2.052 . S
O81 C77 1.241 . S
O82 Co70 2.137 . S
O82 C73 1.247 . S
O83 Co70 2.244 . S
O83 C73 1.272 . S
O83 Co75 2.135 . S
Co84 O85 2.216 . S
Co84 O86 2.091 . S
Co84 O88 2.004 . S
Co84 O94 2.021 . S
Co84 O96 2.137 . S
Co84 O97 2.244 . S
O85 Co84 2.216 . S
O85 C92 1.247 . S
O86 Co84 2.091 . S
O86 C92 1.261 . S
C87 O96 1.247 . S
C87 O97 1.272 . S
O88 Co84 2.004 . S
O88 C93 1.259 . S
Co89 O90 2.061 . S
Co89 O95 2.052 . S
Co89 O97 2.135 . S
O90 Co89 2.061 . S
O90 C93 1.235 . S
C91 O94 1.238 . S
C91 O95 1.241 . S
C92 O85 1.247 . S
C92 O86 1.261 . S
C93 O88 1.259 . S
C93 O90 1.235 . S
O94 Co84 2.021 . S
O94 C91 1.238 . S
O95 Co89 2.052 . S
O95 C91 1.241 . S
O96 Co84 2.137 . S
O96 C87 1.247 . S
O97 Co84 2.244 . S
O97 C87 1.272 . S
O97 Co89 2.135 . S
Co98 O99 2.216 . S
Co98 O100 2.091 . S
Co98 O102 2.004 . S
Co98 O108 2.021 1_554 S
Co98 O110 2.137 . S
Co98 O111 2.244 . S
O99 Co98 2.216 . S
O99 C106 1.247 . S
O100 Co98 2.091 . S
O100 C106 1.261 . S
C101 O110 1.247 . S
C101 O111 1.272 . S
O102 Co98 2.004 . S
O102 C107 1.259 . S
Co103 O104 2.061 . S
Co103 O109 2.052 1_554 S
Co103 O111 2.135 . S
O104 Co103 2.061 . S
O104 C107 1.235 . S
C105 O108 1.238 . S
C105 O109 1.241 . S
C106 O99 1.247 . S
C106 O100 1.261 . S
C107 O102 1.259 . S
C107 O104 1.235 . S
O108 Co98 2.021 1_556 S
O108 C105 1.238 . S
O109 Co103 2.052 1_556 S
O109 C105 1.241 . S
O110 Co98 2.137 . S
O110 C101 1.247 . S
O111 Co98 2.244 . S
O111 C101 1.272 . S
O111 Co103 2.135 . S
C112 C113 1.369 . S
C112 C114 1.419 . S
C112 H116 0.930 . S
C113 C112 1.369 . S
C113 C122 1.429 . S
C114 C112 1.419 . S
C114 C115 1.363 . S
C114 H117 0.929 . S
C115 C114 1.363 . S
C115 C121 1.428 . S
H116 C112 0.930 . S
H117 C114 0.929 . S
S118 N119 1.613 . S
S118 N120 1.610 . S
N119 S118 1.613 . S
N119 C122 1.350 . S
N120 S118 1.610 . S
N120 C121 1.351 . S
C121 C115 1.428 . S
C121 N120 1.351 . S
C121 C122 1.434 . S
C122 C113 1.429 . S
C122 N119 1.350 . S
C122 C121 1.434 . S
C123 C124 1.369 . S
C123 C125 1.419 . S
C123 H127 0.930 . S
C124 C123 1.369 . S
C124 C133 1.429 . S
C125 C123 1.419 . S
C125 C126 1.363 . S
C125 H128 0.929 . S
C126 C125 1.363 . S
C126 C132 1.428 . S
H127 C123 0.930 . S
H128 C125 0.929 . S
S129 N130 1.613 . S
S129 N131 1.610 . S
N130 S129 1.613 . S
N130 C133 1.350 . S
N131 S129 1.610 . S
N131 C132 1.351 . S
C132 C126 1.428 . S
C132 N131 1.351 . S
C132 C133 1.434 . S
C133 C124 1.429 . S
C133 N130 1.350 . S
C133 C132 1.434 . S
C134 C135 1.369 . S
C134 C136 1.419 . S
C134 H138 0.930 . S
C135 C134 1.369 . S
C135 C144 1.429 . S
C136 C134 1.419 . S
C136 C137 1.363 1_554 S
C136 H139 0.929 1_554 S
C137 C136 1.363 1_556 S
C137 C143 1.428 1_556 S
H138 C134 0.930 . S
H139 C136 0.929 1_556 S
S140 N141 1.613 . S
S140 N142 1.610 . S
N141 S140 1.613 . S
N141 C144 1.350 . S
N142 S140 1.610 . S
N142 C143 1.351 . S
C143 C137 1.428 1_554 S
C143 N142 1.351 . S
C143 C144 1.434 . S
C144 C135 1.429 . S
C144 N141 1.350 . S
C144 C143 1.434 . S
C145 C146 1.369 . S
C145 C147 1.419 . S
C145 H149 0.930 . S
C146 C145 1.369 . S
C146 C155 1.429 . S
C147 C145 1.419 . S
C147 C148 1.363 . S
C147 H150 0.929 . S
C148 C147 1.363 . S
C148 C154 1.428 . S
H149 C145 0.930 . S
H150 C147 0.929 . S
S151 N152 1.613 . S
S151 N153 1.610 . S
N152 S151 1.613 . S
N152 C155 1.350 . S
N153 S151 1.610 . S
N153 C154 1.351 . S
C154 C148 1.428 . S
C154 N153 1.351 . S
C154 C155 1.434 . S
C155 C146 1.429 . S
C155 N152 1.350 . S
C155 C154 1.434 . S
C156 C157 1.369 . S
C156 C158 1.419 . S
C156 H160 0.930 . S
C157 C156 1.369 . S
C157 C166 1.429 . S
C158 C156 1.419 . S
C158 C159 1.363 . S
C158 H161 0.929 . S
C159 C158 1.363 . S
C159 C165 1.428 . S
H160 C156 0.930 . S
H161 C158 0.929 . S
S162 N163 1.613 . S
S162 N164 1.610 . S
N163 S162 1.613 . S
N163 C166 1.350 . S
N164 S162 1.610 . S
N164 C165 1.351 . S
C165 C159 1.428 . S
C165 N164 1.351 . S
C165 C166 1.434 . S
C166 C157 1.429 . S
C166 N163 1.350 . S
C166 C165 1.434 . S
C167 C168 1.369 . S
C167 C169 1.419 . S
C167 H171 0.930 . S
C168 C167 1.369 . S
C168 C177 1.429 . S
C169 C167 1.419 . S
C169 C170 1.363 . S
C169 H172 0.929 . S
C170 C169 1.363 . S
C170 C176 1.428 . S
H171 C167 0.930 . S
H172 C169 0.929 . S
S173 N174 1.613 . S
S173 N175 1.610 . S
N174 S173 1.613 . S
N174 C177 1.350 . S
N175 S173 1.610 . S
N175 C176 1.351 . S
C176 C170 1.428 . S
C176 N175 1.351 . S
C176 C177 1.434 . S
C177 C168 1.429 . S
C177 N174 1.350 . S
C177 C176 1.434 . S
C178 C179 1.369 . S
C178 C180 1.419 . S
C178 H182 0.930 . S
C179 C178 1.369 . S
C179 C188 1.429 1_556 S
C180 C178 1.419 . S
C180 C181 1.363 . S
C180 H183 0.929 . S
C181 C180 1.363 . S
C181 C187 1.428 . S
H182 C178 0.930 . S
H183 C180 0.929 . S
S184 N185 1.613 . S
S184 N186 1.610 1_554 S
N185 S184 1.613 . S
N185 C188 1.350 . S
N186 S184 1.610 1_556 S
N186 C187 1.351 . S
C187 C181 1.428 . S
C187 N186 1.351 . S
C187 C188 1.434 1_556 S
C188 C179 1.429 1_554 S
C188 N185 1.350 . S
C188 C187 1.434 1_554 S
C189 C190 1.369 . S
C189 C191 1.419 . S
C189 H193 0.930 . S
C190 C189 1.369 . S
C190 C199 1.429 . S
C191 C189 1.419 . S
C191 C192 1.363 . S
C191 H194 0.929 . S
C192 C191 1.363 . S
C192 C198 1.428 . S
H193 C189 0.930 . S
H194 C191 0.929 . S
S195 N196 1.613 . S
S195 N197 1.610 . S
N196 S195 1.613 . S
N196 C199 1.350 . S
N197 S195 1.610 . S
N197 C198 1.351 . S
C198 C192 1.428 . S
C198 N197 1.351 . S
C198 C199 1.434 . S
C199 C190 1.429 . S
C199 N196 1.350 . S
C199 C198 1.434 . S
C200 C201 1.369 . S
C200 C202 1.419 1_565 S
C200 H204 0.930 . S
C201 C200 1.369 . S
C201 C210 1.429 . S
C202 C200 1.419 1_545 S
C202 C203 1.363 . S
C202 H205 0.929 . S
C203 C202 1.363 . S
C203 C209 1.428 . S
H204 C200 0.930 . S
H205 C202 0.929 . S
S206 N207 1.612 1_545 S
S206 N208 1.612 . S
N207 S206 1.612 1_565 S
N207 C210 1.350 . S
N208 S206 1.612 . S
N208 C209 1.351 . S
C209 C203 1.428 . S
C209 N208 1.351 . S
C209 C210 1.434 1_545 S
C210 C201 1.429 . S
C210 N207 1.350 . S
C210 C209 1.434 1_565 S
C211 C212 1.369 . S
C211 C213 1.419 1_655 S
C211 H215 0.930 . S
C212 C211 1.369 . S
C212 C221 1.429 . S
C213 C211 1.419 1_455 S
C213 C214 1.363 . S
C213 H216 0.929 . S
C214 C213 1.363 . S
C214 C220 1.428 . S
H215 C211 0.930 . S
H216 C213 0.929 . S
S217 N218 1.613 1_455 S
S217 N219 1.610 . S
N218 S217 1.613 1_655 S
N218 C221 1.350 . S
N219 S217 1.610 . S
N219 C220 1.351 . S
C220 C214 1.428 . S
C220 N219 1.351 . S
C220 C221 1.434 1_455 S
C221 C212 1.429 . S
C221 N218 1.350 . S
C221 C220 1.434 1_655 S
C222 C223 1.369 . S
C222 C224 1.419 1_565 S
C222 H226 0.930 . S
C223 C222 1.369 . S
C223 C232 1.429 . S
C224 C222 1.419 1_545 S
C224 C225 1.363 . S
C224 H227 0.929 . S
C225 C224 1.363 . S
C225 C231 1.428 . S
H226 C222 0.930 . S
H227 C224 0.929 . S
S228 N229 1.632 . S
S228 N230 1.591 1_565 S
N229 S228 1.632 . S
N229 C232 1.350 . S
N230 S228 1.591 1_545 S
N230 C231 1.351 . S
C231 C225 1.428 . S
C231 N230 1.351 . S
C231 C232 1.434 1_545 S
C232 C223 1.429 . S
C232 N229 1.350 . S
C232 C231 1.434 1_565 S
C233 C234 1.369 . S
C233 C235 1.419 1_655 S
C233 H237 0.930 1_554 S
C234 C233 1.369 . S
C234 C243 1.429 . S
C235 C233 1.419 1_455 S
C235 C236 1.363 . S
C235 H238 0.929 1_554 S
C236 C235 1.363 . S
C236 C242 1.428 . S
H237 C233 0.930 1_556 S
H238 C235 0.929 1_556 S
S239 N240 1.613 . S
S239 N241 1.610 1_655 S
N240 S239 1.613 . S
N240 C243 1.350 . S
N241 S239 1.610 1_455 S
N241 C242 1.351 . S
C242 C236 1.428 . S
C242 N241 1.351 . S
C242 C243 1.434 1_455 S
C243 C234 1.429 . S
C243 N240 1.350 . S
C243 C242 1.434 1_655 S
C244 C245 1.369 1_554 S
C244 C246 1.419 . S
C244 H248 0.930 . S
C245 C244 1.369 1_556 S
C245 C254 1.429 1_556 S
C246 C244 1.419 . S
C246 C247 1.363 . S
C246 H249 0.929 . S
C247 C246 1.363 . S
C247 C253 1.428 . S
H248 C244 0.930 . S
H249 C246 0.929 . S
S250 N251 1.613 1_554 S
S250 N252 1.610 . S
N251 S250 1.613 1_556 S
N251 C254 1.350 1_556 S
N252 S250 1.610 . S
N252 C253 1.351 . S
C253 C247 1.428 . S
C253 N252 1.351 . S
C253 C254 1.434 . S
C254 C245 1.429 1_554 S
C254 N251 1.350 1_554 S
C254 C253 1.434 . S
C255 C256 1.369 . S
C255 C257 1.419 . S
C255 H259 0.930 . S
C256 C255 1.369 . S
C256 C265 1.429 . S
C257 C255 1.419 . S
C257 C258 1.363 . S
C257 H260 0.929 . S
C258 C257 1.363 . S
C258 C264 1.428 . S
H259 C255 0.930 . S
H260 C257 0.929 . S
S261 N262 1.613 . S
S261 N263 1.610 . S
N262 S261 1.613 . S
N262 C265 1.350 . S
N263 S261 1.610 . S
N263 C264 1.351 . S
C264 C258 1.428 . S
C264 N263 1.351 . S
C264 C265 1.434 . S
C265 C256 1.429 . S
C265 N262 1.350 . S
C265 C264 1.434 . S
C266 C267 1.369 . S
C266 C268 1.419 . S
C266 H270 0.930 . S
C267 C266 1.369 . S
C267 C276 1.429 . S
C268 C266 1.419 . S
C268 C269 1.363 . S
C268 H271 0.929 . S
C269 C268 1.363 . S
C269 C275 1.428 . S
H270 C266 0.930 . S
H271 C268 0.929 . S
S272 N273 1.613 . S
S272 N274 1.610 . S
N273 S272 1.613 . S
N273 C276 1.350 . S
N274 S272 1.610 . S
N274 C275 1.351 . S
C275 C269 1.428 . S
C275 N274 1.351 . S
C275 C276 1.434 . S
C276 C267 1.429 . S
C276 N273 1.350 . S
C276 C275 1.434 . S
C277 C278 1.369 . S
C277 C279 1.419 . S
C277 H281 0.930 . S
C278 C277 1.369 . S
C278 C287 1.429 . S
C279 C277 1.419 . S
C279 C280 1.363 . S
C279 H282 0.929 . S
C280 C279 1.363 . S
C280 C286 1.428 . S
H281 C277 0.930 . S
H282 C279 0.929 . S
S283 N284 1.613 . S
S283 N285 1.610 . S
N284 S283 1.613 . S
N284 C287 1.350 . S
N285 S283 1.610 . S
N285 C286 1.351 . S
C286 C280 1.428 . S
C286 N285 1.351 . S
C286 C287 1.434 . S
C287 C278 1.429 . S
C287 N284 1.350 . S
C287 C286 1.434 . S
C113 C7 0.901 . S
C115 C91 0.904 . S
C124 C21 0.903 . S
C126 C105 0.907 . S
C135 C63 0.903 . S
C137 C35 0.907 . S
C146 C77 0.904 . S
C148 C49 0.908 . S
C157 C8 1.590 . S
C159 C78 1.597 . S
C168 C22 1.596 . S
C170 C92 1.592 . S
C179 C106 1.598 1_556 S
C181 C36 1.591 . S
C190 C50 1.592 . S
C192 C64 1.595 . S
C201 C65 1.500 . S
C203 C9 1.500 . S
C212 C23 1.499 . S
C214 C79 1.499 . S
C223 C37 1.496 . S
C225 C93 1.496 . S
C234 C107 1.500 . S
C236 C51 1.500 . S
C245 C87 1.540 . S
C247 C3 1.540 . S
C256 C101 1.540 . S
C258 C17 1.540 . S
C267 C31 1.540 . S
C269 C59 1.540 . S
C278 C45 1.538 . S
C280 C73 1.538 . S
