# Generated by pormake.
# Topology ooa, (5)-cn, num edge types: 1
# Building blocks:
#     Node 0, Type 0, BuildingBlock: BEQFEK_clean_sbu_0, # of connection points: 5
#     Node 1, Type 0, BuildingBlock: BEQFEK_clean_sbu_0, # of connection points: 5
#     Node 2, Type 0, BuildingBlock: BEQFEK_clean_sbu_0, # of connection points: 5
#     Node 3, Type 0, BuildingBlock: BEQFEK_clean_sbu_0, # of connection points: 5
#     Node 4, Type 0, BuildingBlock: BEQFEK_clean_sbu_0, # of connection points: 5
#     Node 5, Type 0, BuildingBlock: BEQFEK_clean_sbu_0, # of connection points: 5
#     Node 6, Type 0, BuildingBlock: BEQFEK_clean_sbu_0, # of connection points: 5
#     Node 7, Type 0, BuildingBlock: BEQFEK_clean_sbu_0, # of connection points: 5
#     Edge 8, Type (0, 0), BuildingBlock: UVAHIK_clean_linker_0, # of connection points: 2
#     Edge 9, Type (0, 0), BuildingBlock: UVAHIK_clean_linker_0, # of connection points: 2
#     Edge 10, Type (0, 0), BuildingBlock: UVAHIK_clean_linker_0, # of connection points: 2
#     Edge 11, Type (0, 0), BuildingBlock: UVAHIK_clean_linker_0, # of connection points: 2
#     Edge 12, Type (0, 0), BuildingBlock: UVAHIK_clean_linker_0, # of connection points: 2
#     Edge 13, Type (0, 0), BuildingBlock: UVAHIK_clean_linker_0, # of connection points: 2
#     Edge 14, Type (0, 0), BuildingBlock: UVAHIK_clean_linker_0, # of connection points: 2
#     Edge 15, Type (0, 0), BuildingBlock: UVAHIK_clean_linker_0, # of connection points: 2
#     Edge 16, Type (0, 0), BuildingBlock: UVAHIK_clean_linker_0, # of connection points: 2
#     Edge 17, Type (0, 0), BuildingBlock: UVAHIK_clean_linker_0, # of connection points: 2
#     Edge 18, Type (0, 0), BuildingBlock: UVAHIK_clean_linker_0, # of connection points: 2
#     Edge 19, Type (0, 0), BuildingBlock: UVAHIK_clean_linker_0, # of connection points: 2
#     Edge 20, Type (0, 0), BuildingBlock: UVAHIK_clean_linker_0, # of connection points: 2
#     Edge 21, Type (0, 0), BuildingBlock: UVAHIK_clean_linker_0, # of connection points: 2
#     Edge 22, Type (0, 0), BuildingBlock: UVAHIK_clean_linker_0, # of connection points: 2
#     Edge 23, Type (0, 0), BuildingBlock: UVAHIK_clean_linker_0, # of connection points: 2
#     Edge 24, Type (0, 0), BuildingBlock: UVAHIK_clean_linker_0, # of connection points: 2
#     Edge 25, Type (0, 0), BuildingBlock: UVAHIK_clean_linker_0, # of connection points: 2
#     Edge 26, Type (0, 0), BuildingBlock: UVAHIK_clean_linker_0, # of connection points: 2
#     Edge 27, Type (0, 0), BuildingBlock: UVAHIK_clean_linker_0, # of connection points: 2
# Relax obj value: 0.492
# Max RMSD: 0.270
# Mean RMSD: 0.270
data_MOF--net-ooa--node1-BEQFEK_clean_sbu_0--edge1-UVAHIK_clean_linker_0
_symmetry_space_group_name_H-M    P1
_symmetry_Int_Tables_number       1
_symmetry_cell_setting            triclinic
loop_
_symmetry_equiv_pos_as_xyz
'x, y, z'
_cell_length_a     34.926613
_cell_length_b     57.605464
_cell_length_c     59.832098
_cell_angle_alpha  89.999457
_cell_angle_beta   89.945253
_cell_angle_gamma 89.99585
loop_
_atom_site_label
_atom_site_type_symbol
_atom_site_fract_x
_atom_site_fract_y
_atom_site_fract_z
_atom_type_partial_charge
Co0 Co 0.16102 0.13095 0.05177 0.0
Co1 Co 0.18614 0.16667 0.08867 0.0
C2 C 0.19523 0.11618 0.09599 0.0
O3 O 0.18164 0.11252 0.07668 0.0
O4 O 0.19919 0.13662 0.10366 0.0
C5 C 0.11188 0.09492 0.04462 0.0
O6 O 0.10811 0.0992 0.06608 0.0
C7 C 0.19449 0.19167 0.13146 0.0
C8 C 0.19952 0.22802 0.12002 0.0
C9 C 0.19756 0.21441 0.13908 0.0
N10 N 0.19375 0.19197 0.10898 0.0
N11 N 0.19716 0.21373 0.10227 0.0
C12 C 0.19486 0.16981 0.14502 0.0
H13 H 0.21706 0.15794 0.13835 0.0
H14 H 0.16669 0.16103 0.14353 0.0
H15 H 0.20157 0.17306 0.16283 0.0
C16 C 0.08939 0.15768 0.05507 0.0
N17 N 0.12529 0.1531 0.06188 0.0
N18 N 0.1342 0.16701 0.07854 0.0
C19 C 0.10335 0.18029 0.08342 0.0
C20 C 0.07423 0.17487 0.06854 0.0
C21 C 0.0699 0.1459 0.03588 0.0
H22 H 0.09108 0.1411 0.02287 0.0
H23 H 0.05549 0.12997 0.04202 0.0
H24 H 0.04773 0.15719 0.02829 0.0
O25 O 0.20325 0.14663 0.03607 0.0
O26 O 0.22129 0.17162 0.06245 0.0
H27 H 0.11864 0.21358 0.09618 0.0
H28 H 0.07207 0.20365 0.10498 0.0
C29 C 0.10196 0.19816 0.1015 0.0
H30 H 0.11505 0.19112 0.11696 0.0
H31 H 0.19717 0.21886 0.08554 0.0
O32 O 0.13457 0.10748 0.03318 0.0
C33 C 0.22506 0.1629 0.04292 0.0
Co34 Co 0.33779 0.87067 0.04152 0.0
Co35 Co 0.3124 0.83842 0.08094 0.0
C36 C 0.30605 0.88965 0.08489 0.0
O37 O 0.31967 0.89156 0.06528 0.0
O38 O 0.30066 0.86983 0.0938 0.0
C39 C 0.35119 0.91137 0.01617 0.0
O40 O 0.31804 0.91753 0.02472 0.0
C41 C 0.30806 0.81712 0.12553 0.0
C42 C 0.29426 0.7807 0.11719 0.0
C43 C 0.30162 0.79546 0.13495 0.0
N44 N 0.30454 0.81524 0.10323 0.0
N45 N 0.29603 0.79347 0.09837 0.0
C46 C 0.32066 0.83879 0.13718 0.0
H47 H 0.34006 0.84894 0.1262 0.0
H48 H 0.33548 0.83469 0.1531 0.0
H49 H 0.29515 0.8496 0.14091 0.0
C50 C 0.40993 0.84573 0.04734 0.0
N51 N 0.37355 0.84991 0.05336 0.0
N52 N 0.36419 0.83655 0.07035 0.0
C53 C 0.39496 0.82343 0.07577 0.0
C54 C 0.42472 0.8288 0.06123 0.0
C55 C 0.4303 0.85824 0.02889 0.0
H56 H 0.41366 0.85654 0.01319 0.0
H57 H 0.43207 0.87697 0.03312 0.0
H58 H 0.45971 0.85153 0.02622 0.0
O59 O 0.2956 0.85343 0.02748 0.0
O60 O 0.27587 0.83157 0.05594 0.0
H61 H 0.37488 0.79177 0.09014 0.0
H62 H 0.42457 0.79805 0.09603 0.0
C63 C 0.39564 0.80575 0.09405 0.0
H64 H 0.38675 0.81398 0.10998 0.0
H65 H 0.29218 0.78723 0.08215 0.0
O66 O 0.36365 0.891 0.01976 0.0
C67 C 0.27302 0.8383 0.03568 0.0
Co68 Co 0.15856 0.37481 0.45577 0.0
Co69 Co 0.18664 0.3399 0.41922 0.0
C70 C 0.19317 0.3911 0.4125 0.0
O71 O 0.17775 0.3944 0.43146 0.0
O72 O 0.19959 0.37069 0.40517 0.0
C73 C 0.1419 0.41692 0.47848 0.0
O74 O 0.17446 0.42361 0.46955 0.0
C75 C 0.19209 0.31702 0.37564 0.0
C76 C 0.20882 0.28131 0.38492 0.0
C77 C 0.20019 0.29531 0.36678 0.0
N78 N 0.19594 0.31592 0.39795 0.0
N79 N 0.20617 0.29457 0.4034 0.0
C80 C 0.17764 0.33795 0.36347 0.0
H81 H 0.15832 0.34816 0.37444 0.0
H82 H 0.16215 0.33289 0.34803 0.0
H83 H 0.2023 0.34908 0.3588 0.0
C84 C 0.08649 0.34989 0.44923 0.0
N85 N 0.1235 0.3534 0.44417 0.0
N86 N 0.13428 0.33856 0.42868 0.0
C87 C 0.10409 0.32482 0.42358 0.0
C88 C 0.07286 0.33179 0.43633 0.0
C89 C 0.06516 0.36302 0.46689 0.0
H90 H 0.08184 0.3628 0.48266 0.0
H91 H 0.06195 0.38136 0.46153 0.0
H92 H 0.03639 0.35558 0.47009 0.0
O93 O 0.2006 0.35875 0.47143 0.0
O94 O 0.22107 0.33423 0.44533 0.0
H95 H 0.12713 0.29254 0.41228 0.0
H96 H 0.07693 0.29657 0.40583 0.0
C97 C 0.10515 0.30534 0.4071 0.0
H98 H 0.11338 0.3122 0.39046 0.0
H99 H 0.21067 0.28895 0.41977 0.0
O100 O 0.1312 0.39601 0.47607 0.0
C101 C 0.22326 0.34275 0.46498 0.0
Co102 Co 0.34281 0.63151 0.44885 0.0
Co103 Co 0.31287 0.66649 0.41247 0.0
C104 C 0.30875 0.61587 0.4048 0.0
O105 O 0.32335 0.61263 0.42393 0.0
O106 O 0.30231 0.63618 0.39737 0.0
C107 C 0.39516 0.5969 0.45533 0.0
O108 O 0.39895 0.60183 0.43399 0.0
C109 C 0.30384 0.69167 0.36987 0.0
C110 C 0.29175 0.72731 0.38158 0.0
C111 C 0.29782 0.71426 0.36244 0.0
N112 N 0.30236 0.69157 0.39234 0.0
N113 N 0.2947 0.71288 0.3992 0.0
C114 C 0.30872 0.67018 0.35606 0.0
H115 H 0.28828 0.65677 0.36184 0.0
H116 H 0.33815 0.66331 0.35834 0.0
H117 H 0.30309 0.67331 0.3381 0.0
C118 C 0.41128 0.66085 0.44532 0.0
N119 N 0.37596 0.65487 0.43855 0.0
N120 N 0.36503 0.66876 0.42229 0.0
C121 C 0.39406 0.68358 0.41767 0.0
C122 C 0.42401 0.67909 0.43228 0.0
C123 C 0.43239 0.6494 0.46413 0.0
H124 H 0.41202 0.6437 0.47724 0.0
H125 H 0.4479 0.63403 0.45759 0.0
H126 H 0.4538 0.66119 0.47171 0.0
O127 O 0.30018 0.64599 0.46528 0.0
O128 O 0.27777 0.66977 0.43893 0.0
H129 H 0.37283 0.71601 0.40575 0.0
H130 H 0.42149 0.7099 0.39752 0.0
C131 C 0.39277 0.70216 0.40026 0.0
H132 H 0.38197 0.69482 0.38434 0.0
H133 H 0.29234 0.71768 0.41597 0.0
O134 O 0.37152 0.60861 0.46695 0.0
C135 C 0.27619 0.66118 0.45862 0.0
Co136 Co 0.83803 0.87371 0.94473 0.0
Co137 Co 0.8124 0.83541 0.91066 0.0
C138 C 0.80089 0.88524 0.90055 0.0
O139 O 0.81531 0.89033 0.91935 0.0
O140 O 0.79734 0.86429 0.89417 0.0
C141 C 0.88513 0.91148 0.94978 0.0
O142 O 0.88795 0.90699 0.92831 0.0
C143 C 0.80709 0.80933 0.8689 0.0
C144 C 0.79291 0.77394 0.88047 0.0
C145 C 0.79974 0.78698 0.86141 0.0
N146 N 0.80441 0.80954 0.8913 0.0
N147 N 0.79581 0.78835 0.89813 0.0
C148 C 0.81975 0.82975 0.85531 0.0
H149 H 0.83919 0.84093 0.86527 0.0
H150 H 0.83464 0.82408 0.83985 0.0
H151 H 0.79429 0.84016 0.85058 0.0
C152 C 0.91129 0.84897 0.94058 0.0
N153 N 0.87442 0.8519 0.93485 0.0
N154 N 0.86486 0.83624 0.91984 0.0
C155 C 0.89594 0.82303 0.91528 0.0
C156 C 0.9264 0.83092 0.92814 0.0
C157 C 0.93094 0.86181 0.95908 0.0
H158 H 0.91012 0.86661 0.97228 0.0
H159 H 0.94423 0.8778 0.95226 0.0
H160 H 0.95392 0.85107 0.96665 0.0
O161 O 0.79771 0.85805 0.96213 0.0
O162 O 0.77848 0.83148 0.93754 0.0
H163 H 0.87673 0.78965 0.90457 0.0
H164 H 0.92572 0.79611 0.89695 0.0
C165 C 0.89655 0.80347 0.89886 0.0
H166 H 0.88639 0.80977 0.8824 0.0
H167 H 0.79233 0.78368 0.91486 0.0
O168 O 0.864 0.89853 0.96183 0.0
C169 C 0.77587 0.84124 0.95667 0.0
Co170 Co 0.65709 0.12464 0.95542 0.0
Co171 Co 0.68659 0.15943 0.91912 0.0
C172 C 0.69054 0.10828 0.91181 0.0
O173 O 0.6753 0.1051 0.93083 0.0
O174 O 0.6978 0.12864 0.90462 0.0
C175 C 0.63974 0.08252 0.97768 0.0
O176 O 0.67286 0.07613 0.96926 0.0
C177 C 0.69307 0.1826 0.87577 0.0
C178 C 0.71136 0.21796 0.88532 0.0
C179 C 0.70214 0.20423 0.86708 0.0
N180 N 0.69694 0.18347 0.89809 0.0
N181 N 0.7081 0.2046 0.9037 0.0
C182 C 0.67768 0.16202 0.86345 0.0
H183 H 0.6577 0.15214 0.87429 0.0
H184 H 0.66266 0.16743 0.84796 0.0
H185 H 0.70181 0.15043 0.85884 0.0
C186 C 0.58618 0.15088 0.94921 0.0
N187 N 0.623 0.14681 0.94411 0.0
N188 N 0.63439 0.16158 0.9287 0.0
C189 C 0.6048 0.17582 0.9237 0.0
C190 C 0.57332 0.16928 0.93644 0.0
C191 C 0.56424 0.13788 0.96671 0.0
H192 H 0.58106 0.13741 0.98242 0.0
H193 H 0.55989 0.11974 0.96102 0.0
H194 H 0.53595 0.1459 0.97012 0.0
O195 O 0.69993 0.13977 0.97123 0.0
O196 O 0.72135 0.16416 0.94527 0.0
H197 H 0.62915 0.20777 0.91245 0.0
H198 H 0.57879 0.20454 0.90605 0.0
C199 C 0.60662 0.19533 0.90726 0.0
H200 H 0.61452 0.1884 0.8906 0.0
H201 H 0.71284 0.21001 0.92011 0.0
O202 O 0.62882 0.1034 0.97528 0.0
C203 C 0.72327 0.15544 0.96485 0.0
Co204 Co 0.83431 0.62591 0.5427 0.0
Co205 Co 0.81061 0.66009 0.58112 0.0
C206 C 0.80181 0.60898 0.58646 0.0
O207 O 0.81554 0.60606 0.567 0.0
O208 O 0.79708 0.62921 0.59459 0.0
C209 C 0.8477 0.58382 0.51909 0.0
O210 O 0.81547 0.57744 0.52861 0.0
C211 C 0.80202 0.68278 0.6252 0.0
C212 C 0.80128 0.71981 0.61556 0.0
C213 C 0.80047 0.70515 0.6339 0.0
N214 N 0.80444 0.68426 0.60279 0.0
N215 N 0.80364 0.70644 0.59716 0.0
C216 C 0.79864 0.66029 0.6376 0.0
H217 H 0.77632 0.64941 0.62964 0.0
H218 H 0.82624 0.6508 0.63659 0.0
H219 H 0.79048 0.66286 0.65532 0.0
C220 C 0.90832 0.64852 0.54886 0.0
N221 N 0.87113 0.64629 0.55409 0.0
N222 N 0.86269 0.6601 0.57089 0.0
C223 C 0.89491 0.67144 0.5771 0.0
C224 C 0.92486 0.66429 0.56338 0.0
C225 C 0.92728 0.63617 0.5298 0.0
H226 H 0.90825 0.63646 0.51497 0.0
H227 H 0.93239 0.61782 0.53456 0.0
H228 H 0.95497 0.64433 0.52522 0.0
O229 O 0.79276 0.64324 0.52836 0.0
O230 O 0.7751 0.66726 0.55558 0.0
H231 H 0.88321 0.70434 0.59198 0.0
H232 H 0.9277 0.69143 0.60096 0.0
C233 C 0.89747 0.68778 0.59646 0.0
H234 H 0.88238 0.68029 0.61109 0.0
H235 H 0.80532 0.71246 0.58074 0.0
O236 O 0.85928 0.60457 0.52149 0.0
C237 C 0.77148 0.65949 0.53569 0.0
Co238 Co 0.65895 0.37016 0.55338 0.0
Co239 Co 0.68469 0.334 0.58976 0.0
C240 C 0.69141 0.38443 0.59817 0.0
O241 O 0.67797 0.38832 0.57887 0.0
O242 O 0.69634 0.36389 0.60538 0.0
C243 C 0.60865 0.40572 0.54653 0.0
O244 O 0.60373 0.40051 0.56773 0.0
C245 C 0.6941 0.30859 0.63222 0.0
C246 C 0.69868 0.27233 0.62048 0.0
C247 C 0.69724 0.28579 0.63964 0.0
N248 N 0.69279 0.30848 0.60975 0.0
N249 N 0.69597 0.28677 0.60285 0.0
C250 C 0.69508 0.33034 0.64593 0.0
H251 H 0.71731 0.34214 0.63918 0.0
H252 H 0.667 0.33927 0.64474 0.0
H253 H 0.70216 0.32692 0.66367 0.0
C254 C 0.58831 0.34235 0.5556 0.0
N255 N 0.62387 0.34729 0.56276 0.0
N256 N 0.63296 0.33321 0.57925 0.0
C257 C 0.60249 0.31946 0.5837 0.0
C258 C 0.57351 0.32473 0.56869 0.0
C259 C 0.56874 0.3543 0.53653 0.0
H260 H 0.59002 0.35985 0.52386 0.0
H261 H 0.55338 0.36979 0.54293 0.0
H262 H 0.54736 0.34283 0.52846 0.0
O263 O 0.70221 0.3554 0.53775 0.0
O264 O 0.72047 0.32998 0.5637 0.0
H265 H 0.6179 0.28596 0.59591 0.0
H266 H 0.57148 0.29575 0.60504 0.0
C267 C 0.60132 0.3013 0.60154 0.0
H268 H 0.61458 0.30808 0.61705 0.0
H269 H 0.69555 0.28177 0.58608 0.0
O270 O 0.63231 0.39383 0.53509 0.0
C271 C 0.72437 0.33921 0.5444 0.0
C272 C 0.06421 0.0629 0.04754 0.0
C273 C 0.08896 0.07629 0.03423 0.0
C274 C 0.04242 0.04518 0.03811 0.0
C275 C 0.00249 0.0246 0.98496 0.0
H276 H 0.99339 0.96611 0.01669 0.0
C277 C 0.93175 0.944 0.94589 0.0
C278 C 0.9078 0.93054 0.95961 0.0
C279 C 0.95372 0.96188 0.95493 0.0
C280 C 0.99528 0.98244 0.00777 0.0
H281 H 0.11013 0.08171 0.00055 0.0
H282 H 0.07206 0.05047 0.98402 0.0
H283 H 0.0328 0.99707 0.03222 0.0
H284 H 0.88796 0.92529 0.99359 0.0
H285 H 0.92615 0.95679 0.00941 0.0
H286 H 0.96488 0.00998 0.96053 0.0
C287 C 0.0694 0.05388 0.00175 0.0
C288 C 0.0179 1.00014 0.01663 0.0
C289 C 0.09132 0.07167 0.01122 0.0
C290 C 0.90619 0.93535 0.9826 0.0
C291 C 0.92821 0.95329 0.99167 0.0
C292 C 0.97983 0.00689 0.9761 0.0
C293 C 0.04485 0.04041 0.01515 0.0
C294 C 0.02166 0.02144 0.00536 0.0
C295 C 0.95222 0.96673 0.9779 0.0
C296 C 0.97594 0.98563 0.98743 0.0
H297 H 0.06154 0.06608 0.06531 0.0
H298 H 0.02331 0.03537 0.0488 0.0
H299 H 0.00441 0.04094 0.97606 0.0
H300 H 0.93379 0.94069 0.9281 0.0
H301 H 0.97235 0.97168 0.94394 0.0
C302 C 0.62058 0.04112 0.98342 0.0
C303 C 0.61207 0.06487 0.98545 0.0
C304 C 0.5922 0.02446 0.98701 0.0
C305 C 0.49589 0.01512 0.01111 0.0
H306 H 0.48958 0.96646 0.96642 0.0
C307 C 0.36792 0.95278 0.00837 0.0
C308 C 0.37743 0.92912 0.00706 0.0
C309 C 0.39542 0.96975 0.00388 0.0
C310 C 0.49111 0.97986 0.97908 0.0
H311 H 0.56777 0.08969 0.99425 0.0
H312 H 0.5183 0.06064 0.00037 0.0
H313 H 0.54141 0.99478 0.96459 0.0
H314 H 0.42237 0.90471 0.99832 0.0
H315 H 0.47029 0.93429 0.99059 0.0
H316 H 0.44566 1.00017 0.02564 0.0
C317 C 0.54688 0.05487 0.99602 0.0
C318 C 0.52088 0.996 0.97812 0.0
C319 C 0.57523 0.07153 0.99244 0.0
C320 C 0.41418 0.92279 0.99964 0.0
C321 C 0.44165 0.93976 0.99512 0.0
C322 C 0.46612 0.99899 0.01206 0.0
C323 C 0.55479 0.0312 0.99274 0.0
C324 C 0.52366 0.01376 0.99416 0.0
C325 C 0.4329 0.96339 0.99789 0.0
C326 C 0.46344 0.98116 0.99609 0.0
H327 H 0.64873 0.0354 0.97817 0.0
H328 H 0.59934 0.0063 0.98481 0.0
H329 H 0.49748 0.02845 0.02383 0.0
H330 H 0.33979 0.95825 0.01391 0.0
H331 H 0.38765 0.98786 0.00571 0.0
C332 C 0.86639 0.54244 0.51276 0.0
C333 C 0.87435 0.56619 0.51016 0.0
C334 C 0.89458 0.52586 0.50832 0.0
C335 C 0.98898 0.51677 0.48151 0.0
H336 H 0.00124 0.46999 0.52762 0.0
C337 C 0.12169 0.45811 0.48432 0.0
C338 C 0.11429 0.43428 0.48687 0.0
C339 C 0.09292 0.4744 0.48838 0.0
C340 C 0.99801 0.48284 0.51454 0.0
H341 H 0.91711 0.59109 0.49924 0.0
H342 H 0.96623 0.56223 0.49167 0.0
H343 H 0.94804 0.49731 0.52979 0.0
H344 H 0.07178 0.40897 0.49722 0.0
H345 H 0.02164 0.43738 0.50422 0.0
H346 H 0.03905 0.50234 0.4663 0.0
C347 C 0.93828 0.55637 0.49713 0.0
C348 C 0.96744 0.4984 0.5157 0.0
C349 C 0.91014 0.57293 0.50157 0.0
C350 C 0.07834 0.42719 0.49496 0.0
C351 C 0.04961 0.44349 0.49905 0.0
C352 C 0.01957 0.50122 0.48036 0.0
C353 C 0.93119 0.53273 0.50112 0.0
C354 C 0.96262 0.51554 0.49921 0.0
C355 C 0.05626 0.46719 0.49516 0.0
C356 C 0.02445 0.48412 0.49688 0.0
H357 H 0.83903 0.53666 0.51923 0.0
H358 H 0.88804 0.50771 0.5111 0.0
H359 H 0.9858 0.52962 0.46843 0.0
H360 H 0.14914 0.46415 0.47821 0.0
H361 H 0.09907 0.49262 0.48568 0.0
C362 C 0.41349 0.57154 0.48771 0.0
C363 C 0.41816 0.57802 0.46524 0.0
C364 C 0.43457 0.55306 0.49657 0.0
C365 C 0.48743 0.50056 0.47936 0.0
H366 H 0.53185 0.5045 0.53859 0.0
C367 C 0.59194 0.43148 0.51413 0.0
C368 C 0.58664 0.42498 0.53654 0.0
C369 C 0.57154 0.45019 0.50518 0.0
C370 C 0.5193 0.50306 0.5221 0.0
H371 H 0.44914 0.57057 0.43458 0.0
H372 H 0.48602 0.53866 0.45008 0.0
H373 H 0.49576 0.53732 0.5238 0.0
H374 H 0.55531 0.43271 0.56703 0.0
H375 H 0.51963 0.46501 0.55137 0.0
H376 H 0.51092 0.46628 0.47768 0.0
C377 C 0.46567 0.54752 0.46076 0.0
C378 C 0.49861 0.52184 0.51365 0.0
C379 C 0.44466 0.56593 0.45193 0.0
C380 C 0.56027 0.43734 0.54972 0.0
C381 C 0.53996 0.45598 0.5408 0.0
C382 C 0.50812 0.48177 0.48781 0.0
C383 C 0.46066 0.54076 0.48311 0.0
C384 C 0.48244 0.52079 0.4922 0.0
C385 C 0.54552 0.46272 0.51849 0.0
C386 C 0.5242 0.48281 0.50928 0.0
H387 H 0.39326 0.58052 0.49837 0.0
H388 H 0.42989 0.54812 0.51382 0.0
H389 H 0.47482 0.49909 0.46289 0.0
H390 H 0.61208 0.42229 0.50358 0.0
H391 H 0.57662 0.4551 0.48795 0.0
C392 C 0.31853 0.93129 0.09293 0.0
C393 C 0.29665 0.91127 0.09702 0.0
C394 C 0.30769 0.95265 0.10188 0.0
C395 C 0.22284 0.98476 0.11485 0.0
H396 H 0.29378 0.03046 0.13827 0.0
C397 C 0.17916 0.08035 0.11685 0.0
C398 C 0.20708 0.09581 0.10898 0.0
C399 C 0.18933 0.05793 0.12356 0.0
C400 C 0.27356 0.01798 0.13168 0.0
H401 H 0.24699 0.89768 0.11431 0.0
H402 H 0.22707 0.93554 0.12947 0.0
H403 H 0.31369 0.98997 0.13487 0.0
H404 H 0.26741 0.10056 0.10249 0.0
H405 H 0.28538 0.06131 0.11348 0.0
H406 H 0.18372 0.01269 0.10991 0.0
C407 C 0.25299 0.93446 0.11957 0.0
C408 C 0.28492 0.99475 0.12991 0.0
C409 C 0.26441 0.91285 0.11099 0.0
C410 C 0.24558 0.08903 0.10901 0.0
C411 C 0.25575 0.06647 0.11534 0.0
C412 C 0.21167 0.00801 0.11628 0.0
C413 C 0.27428 0.95461 0.11479 0.0
C414 C 0.26003 0.97804 0.12089 0.0
C415 C 0.22755 0.05029 0.12188 0.0
C416 C 0.23726 0.02511 0.12409 0.0
H417 H 0.34362 0.93056 0.08228 0.0
H418 H 0.32441 0.96789 0.09769 0.0
H419 H 0.20323 0.97231 0.10757 0.0
H420 H 0.14918 0.08521 0.11665 0.0
H421 H 0.1669 0.04625 0.12899 0.0
C422 C 0.23894 0.41297 0.38786 0.0
C423 C 0.20401 0.41183 0.39945 0.0
C424 C 0.25191 0.43426 0.3793 0.0
C425 C 0.22319 0.49465 0.36574 0.0
H426 H 0.31941 0.51189 0.39323 0.0
C427 C 0.26052 0.58903 0.38844 0.0
C428 C 0.29891 0.59517 0.39167 0.0
C429 C 0.25099 0.56648 0.38166 0.0
C430 C 0.29304 0.50743 0.38478 0.0
H431 H 0.15395 0.43137 0.40969 0.0
H432 H 0.17599 0.46814 0.39431 0.0
H433 H 0.29875 0.47175 0.39418 0.0
H434 H 0.35759 0.58359 0.38885 0.0
H435 H 0.34137 0.54482 0.37556 0.0
H436 H 0.21702 0.5304 0.35667 0.0
C437 C 0.19357 0.45284 0.39194 0.0
C438 C 0.28117 0.48428 0.3854 0.0
C439 C 0.18106 0.43181 0.40087 0.0
C440 C 0.32774 0.57917 0.38634 0.0
C441 C 0.31833 0.55685 0.37906 0.0
C442 C 0.23532 0.5178 0.36479 0.0
C443 C 0.22967 0.45449 0.38175 0.0
C444 C 0.24555 0.47779 0.37659 0.0
C445 C 0.27979 0.54978 0.37771 0.0
C446 C 0.26981 0.52469 0.37501 0.0
H447 H 0.25721 0.39783 0.38665 0.0
H448 H 0.27988 0.43509 0.3715 0.0
H449 H 0.19566 0.49006 0.35868 0.0
H450 H 0.23785 0.60103 0.39286 0.0
H451 H 0.221 0.5618 0.38109 0.0
C452 C 0.81617 0.91943 0.87723 0.0
C453 C 0.78848 0.90461 0.8864 0.0
C454 C 0.80598 0.94154 0.86965 0.0
C455 C 0.72246 0.98178 0.86135 0.0
H456 H 0.79319 0.02728 0.88535 0.0
C457 C 0.67694 0.06755 0.90082 0.0
C458 C 0.69973 0.08749 0.89837 0.0
C459 C 0.68773 0.04662 0.89099 0.0
C460 C 0.77348 0.01492 0.87803 0.0
H461 H 0.72844 0.90054 0.89414 0.0
H462 H 0.71043 0.93926 0.88146 0.0
H463 H 0.81248 0.9869 0.8829 0.0
H464 H 0.75075 0.1015 0.88284 0.0
H465 H 0.77041 0.06439 0.86598 0.0
H466 H 0.68252 0.00985 0.85812 0.0
C467 C 0.73987 0.9338 0.87935 0.0
C468 C 0.78453 0.99165 0.87657 0.0
C469 C 0.75006 0.91156 0.88664 0.0
C470 C 0.73266 0.08638 0.88493 0.0
C471 C 0.74393 0.06518 0.87538 0.0
C472 C 0.7113 0.00505 0.86303 0.0
C473 C 0.768 0.94946 0.87167 0.0
C474 C 0.7587 0.97461 0.86895 0.0
C475 C 0.7219 0.04499 0.87873 0.0
C476 C 0.73625 0.0217 0.87212 0.0
H477 H 0.8461 0.91446 0.87721 0.0
H478 H 0.82828 0.95288 0.86341 0.0
H479 H 0.7021 0.96927 0.85495 0.0
H480 H 0.65127 0.06793 0.911 0.0
H481 H 0.67038 0.03137 0.89413 0.0
C482 C 0.67328 0.42008 0.6187 0.0
C483 C 0.70196 0.40469 0.61171 0.0
C484 C 0.68272 0.44244 0.6259 0.0
C485 C 0.76592 0.48257 0.63657 0.0
H486 H 0.69781 0.52783 0.6097 0.0
C487 C 0.81399 0.56788 0.59669 0.0
C488 C 0.79181 0.58802 0.59942 0.0
C489 C 0.80258 0.54693 0.60625 0.0
C490 C 0.71674 0.51552 0.61778 0.0
H491 H 0.76286 0.39991 0.60744 0.0
H492 H 0.77964 0.43911 0.6192 0.0
H493 H 0.67814 0.48752 0.61202 0.0
H494 H 0.74109 0.60236 0.61502 0.0
H495 H 0.72013 0.56517 0.63123 0.0
H496 H 0.80573 0.51064 0.6405 0.0
C497 C 0.74987 0.43395 0.61999 0.0
C498 C 0.70546 0.49229 0.61919 0.0
C499 C 0.74039 0.41141 0.61322 0.0
C500 C 0.75872 0.58706 0.61275 0.0
C501 C 0.74674 0.56585 0.62193 0.0
C502 C 0.77741 0.50578 0.63481 0.0
C503 C 0.72102 0.4501 0.62555 0.0
C504 C 0.73037 0.47531 0.62795 0.0
C505 C 0.76829 0.54551 0.61841 0.0
C506 C 0.75337 0.52232 0.62478 0.0
H507 H 0.64338 0.41524 0.61741 0.0
H508 H 0.65976 0.45409 0.63059 0.0
H509 H 0.78555 0.47019 0.64391 0.0
H510 H 0.83973 0.56817 0.58656 0.0
H511 H 0.81952 0.53153 0.60302 0.0
C512 C 0.26389 0.16002 0.00776 0.0
C513 C 0.25623 0.1713 0.02812 0.0
C514 C 0.29481 0.16683 0.99447 0.0
C515 C 0.38858 0.19541 0.99926 0.0
H516 H 0.38833 0.18867 0.93476 0.0
C517 C 0.52919 0.19972 0.95069 0.0
C518 C 0.53493 0.1797 0.93782 0.0
C519 C 0.49234 0.20563 0.95791 0.0
C520 C 0.38877 0.1908 0.95275 0.0
H521 H 0.27413 0.19937 0.04993 0.0
H522 H 0.32779 0.21146 0.02656 0.0
H523 H 0.32818 0.1859 0.95547 0.0
H524 H 0.50732 0.151 0.92107 0.0
H525 H 0.44291 0.16137 0.93332 0.0
H526 H 0.44922 0.19953 0.99667 0.0
C527 C 0.31028 0.19703 0.02109 0.0
C528 C 0.35437 0.18909 0.96463 0.0
C529 C 0.27943 0.19013 0.03446 0.0
C530 C 0.50326 0.16674 0.9307 0.0
C531 C 0.46645 0.17271 0.93776 0.0
C532 C 0.42289 0.19724 0.98738 0.0
C533 C 0.31877 0.1852 0.00111 0.0
C534 C 0.35404 0.19064 0.98811 0.0
C535 C 0.46079 0.19159 0.9523 0.0
C536 C 0.42356 0.19424 0.96406 0.0
H537 H 0.24665 0.14545 0.00232 0.0
H538 H 0.30075 0.15706 0.9794 0.0
H539 H 0.3896 0.19641 0.01732 0.0
H540 H 0.55344 0.20972 0.95658 0.0
H541 H 0.48881 0.22041 0.96892 0.0
C542 C 0.97568 0.80045 0.93624 0.0
C543 C 0.9665 0.82293 0.92903 0.0
C544 C 0.01335 0.79506 0.94245 0.0
C545 C 0.08312 0.79623 0.97271 0.0
H546 H 0.16974 0.8315 0.95077 0.0
C547 C 0.20666 0.82295 0.03047 0.0
C548 C 0.2424 0.82879 0.02137 0.0
C549 C 0.17653 0.81619 0.01653 0.0
C550 C 0.14639 0.821 0.95702 0.0
H551 H 0.98919 0.85682 0.92097 0.0
H552 H 0.05413 0.84787 0.9321 0.0
H553 H 0.1123 0.82902 0.92845 0.0
H554 H 0.27572 0.8305 0.99088 0.0
H555 H 0.22411 0.8174 0.96668 0.0
H556 H 0.11761 0.78766 0.00102 0.0
C557 C 0.03312 0.83408 0.93275 0.0
C558 C 0.11299 0.8199 0.94427 0.0
C559 C 0.99575 0.83934 0.92646 0.0
C560 C 0.24817 0.82647 0.99827 0.0
C561 C 0.21841 0.8191 0.98439 0.0
C562 C 0.11689 0.79688 0.98526 0.0
C563 C 0.04225 0.81214 0.94163 0.0
C564 C 0.08026 0.80849 0.95244 0.0
C565 C 0.18175 0.81455 0.9932 0.0
C566 C 0.14843 0.81017 0.97809 0.0
H567 H 0.95338 0.78758 0.93846 0.0
H568 H 0.01943 0.77786 0.94882 0.0
H569 H 0.05863 0.78724 0.97965 0.0
H570 H 0.20144 0.82466 0.04824 0.0
H571 H 0.14877 0.81329 0.02406 0.0
C572 C 0.50581 0.32301 0.58127 0.0
C573 C 0.53464 0.31505 0.56691 0.0
C574 C 0.4673 0.31968 0.57574 0.0
C575 C 0.40112 0.29184 0.53452 0.0
H576 H 0.34987 0.35147 0.53733 0.0
C577 C 0.28248 0.31945 0.47297 0.0
C578 C 0.25336 0.3344 0.48048 0.0
C579 C 0.31234 0.31297 0.48722 0.0
C580 C 0.36322 0.33451 0.53677 0.0
H581 H 0.54674 0.2959 0.53667 0.0
H582 H 0.47967 0.2901 0.52683 0.0
H583 H 0.4097 0.34597 0.55706 0.0
H584 H 0.23175 0.35322 0.50929 0.0
H585 H 0.28345 0.34167 0.53415 0.0
H586 H 0.35505 0.28075 0.51342 0.0
C587 C 0.48632 0.29865 0.54246 0.0
C588 C 0.39763 0.33132 0.54819 0.0
C589 C 0.52475 0.30195 0.54805 0.0
C590 C 0.25396 0.34193 0.50284 0.0
C591 C 0.28368 0.33535 0.5171 0.0
C592 C 0.36657 0.29503 0.52308 0.0
C593 C 0.45717 0.30848 0.55568 0.0
C594 C 0.41752 0.31015 0.54677 0.0
C595 C 0.31368 0.3212 0.50935 0.0
C596 C 0.3477 0.3166 0.52364 0.0
H597 H 0.51301 0.33329 0.59584 0.0
H598 H 0.44551 0.3271 0.58647 0.0
H599 H 0.41552 0.27524 0.53328 0.0
H600 H 0.28288 0.31328 0.45587 0.0
H601 H 0.33518 0.30227 0.4806 0.0
C602 C 0.97781 0.69335 0.55998 0.0
C603 C 0.96582 0.67052 0.56403 0.0
C604 C 0.01628 0.69795 0.55494 0.0
C605 C 0.08678 0.69818 0.52534 0.0
H606 H 0.16886 0.65677 0.54276 0.0
C607 C 0.21003 0.67623 0.46548 0.0
C608 C 0.24527 0.66854 0.47394 0.0
C609 C 0.17976 0.68139 0.47995 0.0
C610 C 0.14679 0.66893 0.53787 0.0
H611 H 0.98438 0.63497 0.56807 0.0
H612 H 0.0507 0.6426 0.55882 0.0
H613 H 0.11083 0.6581 0.56481 0.0
H614 H 0.27734 0.66162 0.5042 0.0
H615 H 0.22533 0.67173 0.52951 0.0
H616 H 0.12314 0.70947 0.49874 0.0
C617 C 0.03128 0.65721 0.55973 0.0
C618 C 0.11305 0.66941 0.55041 0.0
C619 C 0.99311 0.65272 0.56491 0.0
C620 C 0.25025 0.66717 0.49719 0.0
C621 C 0.22028 0.67285 0.5117 0.0
C622 C 0.12086 0.69806 0.51306 0.0
C623 C 0.04319 0.67973 0.55377 0.0
C624 C 0.08189 0.68323 0.54372 0.0
C625 C 0.18425 0.6795 0.5033 0.0
C626 C 0.15074 0.68268 0.51855 0.0
H627 H 0.95711 0.70733 0.55924 0.0
H628 H 0.02453 0.71559 0.55095 0.0
H629 H 0.06355 0.70906 0.51954 0.0
H630 H 0.20532 0.67736 0.44762 0.0
H631 H 0.15243 0.68598 0.47268 0.0
C632 C 0.49245 0.82743 0.07386 0.0
C633 C 0.46359 0.81905 0.05978 0.0
C634 C 0.53098 0.82397 0.06833 0.0
C635 C 0.59706 0.79435 0.02822 0.0
H636 H 0.64908 0.85378 0.02862 0.0
C637 C 0.71678 0.81823 0.96582 0.0
C638 C 0.74586 0.83356 0.97261 0.0
C639 C 0.68673 0.81261 0.98031 0.0
C640 C 0.63552 0.83688 0.02875 0.0
H641 H 0.45148 0.79928 0.02992 0.0
H642 H 0.51853 0.79307 0.02021 0.0
H643 H 0.58901 0.84946 0.04851 0.0
H644 H 0.76724 0.85392 0.00045 0.0
H645 H 0.71527 0.84381 0.02577 0.0
H646 H 0.64316 0.78206 0.00772 0.0
C647 C 0.51189 0.80205 0.03563 0.0
C648 C 0.60098 0.83438 0.04025 0.0
C649 C 0.47348 0.80556 0.04116 0.0
C650 C 0.74507 0.8423 0.99455 0.0
C651 C 0.71517 0.83656 0.00907 0.0
C652 C 0.63176 0.79684 0.01673 0.0
C653 C 0.54108 0.81215 0.04858 0.0
C654 C 0.58082 0.81326 0.03967 0.0
C655 C 0.68516 0.82206 0.00198 0.0
C656 C 0.65093 0.81832 0.0164 0.0
H657 H 0.48527 0.83812 0.08817 0.0
H658 H 0.55281 0.83169 0.07881 0.0
H659 H 0.58243 0.77778 0.02765 0.0
H660 H 0.7165 0.81116 0.94905 0.0
H661 H 0.66391 0.8016 0.97417 0.0
C662 C 0.78246 0.17865 0.97315 0.0
C663 C 0.75371 0.16329 0.98038 0.0
C664 C 0.81238 0.18493 0.98745 0.0
C665 C 0.86447 0.16264 0.03625 0.0
H666 H 0.91413 0.22282 0.0345 0.0
C667 C 0.00652 0.17507 0.08116 0.0
C668 C 0.035 0.18406 0.06712 0.0
C669 C 0.96788 0.17789 0.07568 0.0
C670 C 0.9005 0.20595 0.03524 0.0
H671 H 0.73298 0.14338 0.00873 0.0
H672 H 0.78485 0.15453 0.03365 0.0
H673 H 0.8539 0.21696 0.0145 0.0
H674 H 0.04624 0.20446 0.03753 0.0
H675 H 0.97894 0.2094 0.02778 0.0
H676 H 0.9115 0.15128 0.05617 0.0
C677 C 0.78468 0.16138 0.01679 0.0
C678 C 0.86607 0.20257 0.02372 0.0
C679 C 0.75486 0.15503 0.00249 0.0
C680 C 0.02452 0.19764 0.04869 0.0
C681 C 0.98595 0.20042 0.04314 0.0
C682 C 0.89877 0.16601 0.04773 0.0
C683 C 0.81419 0.17607 0.00933 0.0
C684 C 0.84814 0.1807 0.02366 0.0
C685 C 0.95726 0.1896 0.05597 0.0
C686 C 0.91771 0.18754 0.04695 0.0
H687 H 0.78245 0.1854 0.95625 0.0
H688 H 0.83486 0.19605 0.98104 0.0
H689 H 0.85183 0.14547 0.03632 0.0
H690 H 0.01418 0.16439 0.09538 0.0
H691 H 0.94644 0.16971 0.08612 0.0
C692 C 0.71203 0.68319 0.5292 0.0
C693 C 0.74151 0.66906 0.52078 0.0
C694 C 0.68221 0.69054 0.51526 0.0
C695 C 0.63282 0.67196 0.46414 0.0
H696 H 0.57869 0.73035 0.47052 0.0
C697 C 0.49116 0.68355 0.41943 0.0
C698 C 0.4618 0.69023 0.43402 0.0
C699 C 0.52939 0.68756 0.42517 0.0
C700 C 0.5936 0.714 0.46848 0.0
H701 H 0.76405 0.65281 0.49078 0.0
H702 H 0.71259 0.66588 0.46654 0.0
H703 H 0.63867 0.72415 0.49076 0.0
H704 H 0.44834 0.70815 0.46476 0.0
H705 H 0.51489 0.71502 0.47503 0.0
H706 H 0.58737 0.66129 0.44274 0.0
C707 C 0.71191 0.67083 0.484 0.0
C708 C 0.62787 0.71043 0.48013 0.0
C709 C 0.74148 0.66337 0.49792 0.0
C710 C 0.47075 0.70305 0.45323 0.0
C711 C 0.50891 0.70695 0.45906 0.0
C712 C 0.5987 0.67551 0.45256 0.0
C713 C 0.6814 0.68401 0.49259 0.0
C714 C 0.64743 0.68915 0.47845 0.0
C715 C 0.53871 0.6981 0.44571 0.0
C716 C 0.57816 0.69635 0.45494 0.0
H717 H 0.71125 0.68794 0.54671 0.0
H718 H 0.65899 0.70049 0.52248 0.0
H719 H 0.64668 0.65521 0.46272 0.0
H720 H 0.48471 0.67354 0.40457 0.0
H721 H 0.55167 0.68099 0.41427 0.0
C722 C 0.00284 0.33532 0.43094 0.0
C723 C 0.03412 0.32186 0.43779 0.0
C724 C 0.96592 0.32985 0.43821 0.0
C725 C 0.92222 0.30547 0.48792 0.0
H726 H 0.82739 0.31824 0.45662 0.0
C727 C 0.77912 0.3124 0.53553 0.0
C728 C 0.75588 0.33136 0.52957 0.0
C729 C 0.81 0.30582 0.52204 0.0
C730 C 0.85363 0.31467 0.46562 0.0
H731 H 0.05177 0.29147 0.45628 0.0
H732 H 0.98696 0.28164 0.46894 0.0
H733 H 0.88716 0.31513 0.43559 0.0
H734 H 0.74641 0.35783 0.50436 0.0
H735 H 0.80058 0.34675 0.48122 0.0
H736 H 0.88936 0.30618 0.51803 0.0
C737 C 0.99087 0.29643 0.458 0.0
C738 C 0.8878 0.31277 0.45354 0.0
C739 C 0.02782 0.30185 0.45058 0.0
C740 C 0.76366 0.34315 0.50949 0.0
C741 C 0.79461 0.33664 0.49608 0.0
C742 C 0.88813 0.30748 0.49999 0.0
C743 C 0.95979 0.31097 0.45268 0.0
C744 C 0.92264 0.30875 0.46463 0.0
C745 C 0.81849 0.31808 0.50231 0.0
C746 C 0.85356 0.31274 0.48908 0.0
H747 H 0.00734 0.35106 0.42138 0.0
H748 H 0.94276 0.34155 0.43397 0.0
H749 H 0.94861 0.30275 0.49704 0.0
H750 H 0.77375 0.30278 0.55077 0.0
H751 H 0.82745 0.29123 0.52719 0.0
C752 C 0.18288 0.26627 0.33762 0.0
C753 C 0.19896 0.2878 0.34321 0.0
C754 C 0.18197 0.25886 0.3154 0.0
C755 C 0.19308 0.28016 0.25687 0.0
H756 H 0.20548 0.21455 0.24427 0.0
C757 C 0.21984 0.24241 0.16823 0.0
C758 C 0.19718 0.22322 0.16232 0.0
C759 C 0.21955 0.25089 0.19013 0.0
C760 C 0.20175 0.2329 0.24758 0.0
H761 H 0.22806 0.31812 0.33021 0.0
H762 H 0.2276 0.30499 0.29147 0.0
H763 H 0.20688 0.22806 0.28282 0.0
H764 H 0.15385 0.19923 0.17422 0.0
H765 H 0.15469 0.21334 0.21269 0.0
H766 H 0.18915 0.28487 0.22138 0.0
C767 C 0.21431 0.29413 0.30404 0.0
C768 C 0.20233 0.24068 0.26968 0.0
C769 C 0.21467 0.30168 0.32625 0.0
C770 C 0.17316 0.21323 0.17853 0.0
C771 C 0.17328 0.22147 0.20048 0.0
C772 C 0.19308 0.27239 0.23473 0.0
C773 C 0.19791 0.27261 0.2983 0.0
C774 C 0.19776 0.26441 0.27466 0.0
C775 C 0.19664 0.24029 0.20651 0.0
C776 C 0.19719 0.24867 0.2299 0.0
H777 H 0.17049 0.25529 0.35042 0.0
H778 H 0.16843 0.24241 0.31165 0.0
H779 H 0.18882 0.29849 0.26001 0.0
H780 H 0.23818 0.25067 0.15597 0.0
H781 H 0.23779 0.26545 0.19437 0.0
C782 C 0.32146 0.76782 0.16476 0.0
C783 C 0.3033 0.78858 0.15868 0.0
C784 C 0.32218 0.7607 0.18706 0.0
C785 C 0.30472 0.78153 0.24532 0.0
H786 H 0.29896 0.71549 0.25753 0.0
C787 C 0.27459 0.74154 0.33289 0.0
C788 C 0.29936 0.72355 0.33938 0.0
C789 C 0.27586 0.75039 0.31112 0.0
C790 C 0.3008 0.73397 0.25434 0.0
H791 H 0.27075 0.81794 0.1709 0.0
H792 H 0.27074 0.80521 0.2098 0.0
H793 H 0.29885 0.72906 0.21902 0.0
H794 H 0.34738 0.70231 0.32881 0.0
H795 H 0.34824 0.7169 0.29051 0.0
H796 H 0.30526 0.78622 0.28091 0.0
C797 C 0.28573 0.79476 0.19756 0.0
C798 C 0.301 0.7418 0.23226 0.0
C799 C 0.28562 0.80208 0.17526 0.0
C800 C 0.32647 0.71524 0.32397 0.0
C801 C 0.32733 0.7238 0.30214 0.0
C802 C 0.30387 0.77367 0.26744 0.0
C803 C 0.30391 0.77391 0.20376 0.0
C804 C 0.30325 0.76568 0.2274 0.0
C805 C 0.30186 0.74132 0.29547 0.0
C806 C 0.30217 0.74982 0.27212 0.0
H807 H 0.33544 0.75717 0.15225 0.0
H808 H 0.33723 0.74483 0.19117 0.0
H809 H 0.30709 0.8 0.24231 0.0
H810 H 0.25384 0.74854 0.34455 0.0
H811 H 0.25597 0.76395 0.30638 0.0
C812 C 0.82165 0.70136 0.67385 0.0
C813 C 0.79973 0.71278 0.65752 0.0
C814 C 0.82135 0.70905 0.696 0.0
C815 C 0.80479 0.76071 0.7303 0.0
H816 H 0.79023 0.7169 0.77877 0.0
C817 C 0.78264 0.79136 0.82103 0.0
C818 C 0.79949 0.77828 0.83818 0.0
C819 C 0.78251 0.78312 0.79907 0.0
C820 C 0.7949 0.72934 0.76548 0.0
H821 H 0.76173 0.7418 0.65134 0.0
H822 H 0.76158 0.75545 0.69004 0.0
H823 H 0.79097 0.70305 0.74024 0.0
H824 H 0.82874 0.74619 0.84605 0.0
H825 H 0.82955 0.73197 0.8076 0.0
H826 H 0.80954 0.78696 0.75538 0.0
C827 C 0.77854 0.74035 0.68574 0.0
C828 C 0.79518 0.72139 0.74341 0.0
C829 C 0.77853 0.7325 0.66364 0.0
C830 C 0.81563 0.75662 0.83308 0.0
C831 C 0.81588 0.74845 0.81107 0.0
C832 C 0.80492 0.76864 0.75236 0.0
C833 C 0.79982 0.72863 0.70217 0.0
C834 C 0.79994 0.73701 0.7256 0.0
C835 C 0.7994 0.76164 0.79375 0.0
C836 C 0.79978 0.75308 0.77026 0.0
H837 H 0.83974 0.6868 0.66945 0.0
H838 H 0.83867 0.7 0.70822 0.0
H839 H 0.80908 0.77309 0.7169 0.0
H840 H 0.76896 0.80781 0.82462 0.0
H841 H 0.76868 0.79349 0.78633 0.0
C842 C 0.67366 0.28679 0.67925 0.0
C843 C 0.69729 0.27684 0.66283 0.0
C844 C 0.67427 0.27849 0.70117 0.0
C845 C 0.69436 0.22752 0.73516 0.0
H846 H 0.70995 0.27171 0.78318 0.0
C847 C 0.71645 0.19793 0.82653 0.0
C848 C 0.7012 0.21191 0.84355 0.0
C849 C 0.71616 0.20555 0.80435 0.0
C850 C 0.70492 0.25913 0.77006 0.0
H851 H 0.73803 0.24934 0.65607 0.0
H852 H 0.73845 0.23443 0.69443 0.0
H853 H 0.70799 0.28526 0.74465 0.0
H854 H 0.67367 0.24468 0.85093 0.0
H855 H 0.67169 0.25769 0.8122 0.0
H856 H 0.69008 0.20143 0.76045 0.0
C857 C 0.72018 0.24903 0.69037 0.0
C858 C 0.70402 0.26693 0.74797 0.0
C859 C 0.72 0.25758 0.66849 0.0
C860 C 0.6857 0.23362 0.83807 0.0
C861 C 0.68484 0.2411 0.81587 0.0
C862 C 0.69465 0.21973 0.75729 0.0
C863 C 0.6977 0.25963 0.70696 0.0
C864 C 0.69877 0.25121 0.73033 0.0
C865 C 0.70025 0.22723 0.79869 0.0
C866 C 0.69996 0.23544 0.77506 0.0
H867 H 0.6543 0.30083 0.67514 0.0
H868 H 0.65599 0.28661 0.71355 0.0
H869 H 0.68991 0.21508 0.72183 0.0
H870 H 0.72938 0.18133 0.83042 0.0
H871 H 0.72904 0.19459 0.79172 0.0
loop_
_geom_bond_atom_site_label_1
_geom_bond_atom_site_label_2
_geom_bond_distance
_geom_bond_site_symmetry_2
_ccdc_geom_bond_type
Co0 O3 1.970 . S
Co0 N17 1.989 . S
Co0 O25 1.967 . S
Co0 O32 1.920 . S
Co1 O4 1.966 . S
Co1 N10 2.022 . S
Co1 N18 1.993 . S
Co1 O26 1.941 . S
C2 O3 1.258 . S
C2 O4 1.263 . S
O3 Co0 1.970 . S
O3 C2 1.258 . S
O4 Co1 1.966 . S
O4 C2 1.263 . S
C5 O6 1.235 . S
C5 O32 1.289 . S
O6 C5 1.235 . S
C7 C9 1.400 . S
C7 N10 1.351 . S
C7 C12 1.501 . S
C8 C9 1.387 . S
C8 N11 1.341 . S
C9 C7 1.400 . S
C9 C8 1.387 . S
N10 Co1 2.022 . S
N10 C7 1.351 . S
N10 N11 1.365 . S
N11 C8 1.341 . S
N11 N10 1.365 . S
N11 H31 0.862 . S
C12 C7 1.501 . S
C12 H13 0.961 . S
C12 H14 0.961 . S
C12 H15 0.960 . S
H13 C12 0.961 . S
H14 C12 0.961 . S
H15 C12 0.960 . S
C16 N17 1.342 . S
C16 C20 1.401 . S
C16 C21 1.499 . S
N17 Co0 1.989 . S
N17 C16 1.342 . S
N17 N18 1.388 . S
N18 Co1 1.993 . S
N18 N17 1.388 . S
N18 C19 1.346 . S
C19 N18 1.346 . S
C19 C20 1.396 . S
C19 C29 1.510 . S
C20 C16 1.401 . S
C20 C19 1.396 . S
C21 C16 1.499 . S
C21 H22 0.959 . S
C21 H23 0.960 1_455 S
C21 H24 0.961 1_455 S
H22 C21 0.959 . S
H23 C21 0.960 1_655 S
H24 C21 0.961 1_655 S
O25 Co0 1.967 . S
O25 C33 1.258 . S
O26 Co1 1.941 . S
O26 C33 1.266 . S
H27 C29 0.959 . S
H28 C29 0.961 . S
C29 C19 1.510 . S
C29 H27 0.959 . S
C29 H28 0.961 . S
C29 H30 0.960 . S
H30 C29 0.960 . S
H31 N11 0.862 . S
O32 Co0 1.920 . S
O32 C5 1.289 . S
C33 O25 1.258 . S
C33 O26 1.266 . S
Co34 O37 1.970 . S
Co34 N51 1.989 . S
Co34 O59 1.967 . S
Co34 O66 1.920 . S
Co35 O38 1.966 . S
Co35 N44 2.022 . S
Co35 N52 1.993 . S
Co35 O60 1.941 . S
C36 O37 1.258 . S
C36 O38 1.263 . S
O37 Co34 1.970 . S
O37 C36 1.258 . S
O38 Co35 1.966 . S
O38 C36 1.263 . S
C39 O40 1.235 . S
C39 O66 1.289 . S
O40 C39 1.235 . S
C41 C43 1.400 . S
C41 N44 1.351 . S
C41 C46 1.501 . S
C42 C43 1.387 . S
C42 N45 1.341 . S
C43 C41 1.400 . S
C43 C42 1.387 . S
N44 Co35 2.022 . S
N44 C41 1.351 . S
N44 N45 1.365 . S
N45 C42 1.341 . S
N45 N44 1.365 . S
N45 H65 0.862 . S
C46 C41 1.501 . S
C46 H47 0.961 . S
C46 H48 0.961 . S
C46 H49 0.960 . S
H47 C46 0.961 . S
H48 C46 0.961 . S
H49 C46 0.960 . S
C50 N51 1.342 . S
C50 C54 1.401 . S
C50 C55 1.499 . S
N51 Co34 1.989 . S
N51 C50 1.342 . S
N51 N52 1.388 . S
N52 Co35 1.993 . S
N52 N51 1.388 . S
N52 C53 1.346 . S
C53 N52 1.346 . S
C53 C54 1.396 . S
C53 C63 1.510 . S
C54 C50 1.401 . S
C54 C53 1.396 . S
C55 C50 1.499 . S
C55 H56 0.959 . S
C55 H57 0.960 . S
C55 H58 0.961 . S
H56 C55 0.959 . S
H57 C55 0.960 . S
H58 C55 0.961 . S
O59 Co34 1.967 . S
O59 C67 1.258 . S
O60 Co35 1.941 . S
O60 C67 1.266 . S
H61 C63 0.959 . S
H62 C63 0.961 . S
C63 C53 1.510 . S
C63 H61 0.959 . S
C63 H62 0.961 . S
C63 H64 0.960 . S
H64 C63 0.960 . S
H65 N45 0.862 . S
O66 Co34 1.920 . S
O66 C39 1.289 . S
C67 O59 1.258 . S
C67 O60 1.266 . S
Co68 O71 1.970 . S
Co68 N85 1.989 . S
Co68 O93 1.967 . S
Co68 O100 1.920 . S
Co69 O72 1.966 . S
Co69 N78 2.022 . S
Co69 N86 1.993 . S
Co69 O94 1.941 . S
C70 O71 1.258 . S
C70 O72 1.263 . S
O71 Co68 1.970 . S
O71 C70 1.258 . S
O72 Co69 1.966 . S
O72 C70 1.263 . S
C73 O74 1.235 . S
C73 O100 1.289 . S
O74 C73 1.235 . S
C75 C77 1.400 . S
C75 N78 1.351 . S
C75 C80 1.501 . S
C76 C77 1.387 . S
C76 N79 1.341 . S
C77 C75 1.400 . S
C77 C76 1.387 . S
N78 Co69 2.022 . S
N78 C75 1.351 . S
N78 N79 1.365 . S
N79 C76 1.341 . S
N79 N78 1.365 . S
N79 H99 0.862 . S
C80 C75 1.501 . S
C80 H81 0.961 . S
C80 H82 0.961 . S
C80 H83 0.960 . S
H81 C80 0.961 . S
H82 C80 0.961 . S
H83 C80 0.960 . S
C84 N85 1.342 . S
C84 C88 1.401 . S
C84 C89 1.499 . S
N85 Co68 1.989 . S
N85 C84 1.342 . S
N85 N86 1.388 . S
N86 Co69 1.993 . S
N86 N85 1.388 . S
N86 C87 1.346 . S
C87 N86 1.346 . S
C87 C88 1.396 . S
C87 C97 1.510 . S
C88 C84 1.401 . S
C88 C87 1.396 . S
C89 C84 1.499 . S
C89 H90 0.959 . S
C89 H91 0.960 1_455 S
C89 H92 0.961 1_455 S
H90 C89 0.959 . S
H91 C89 0.960 1_655 S
H92 C89 0.961 1_655 S
O93 Co68 1.967 . S
O93 C101 1.258 . S
O94 Co69 1.941 . S
O94 C101 1.266 . S
H95 C97 0.959 . S
H96 C97 0.961 . S
C97 C87 1.510 . S
C97 H95 0.959 . S
C97 H96 0.961 . S
C97 H98 0.960 . S
H98 C97 0.960 . S
H99 N79 0.862 . S
O100 Co68 1.920 . S
O100 C73 1.289 . S
C101 O93 1.258 . S
C101 O94 1.266 . S
Co102 O105 1.970 . S
Co102 N119 1.989 . S
Co102 O127 1.967 . S
Co102 O134 1.920 . S
Co103 O106 1.966 . S
Co103 N112 2.022 . S
Co103 N120 1.993 . S
Co103 O128 1.941 . S
C104 O105 1.258 . S
C104 O106 1.263 . S
O105 Co102 1.970 . S
O105 C104 1.258 . S
O106 Co103 1.966 . S
O106 C104 1.263 . S
C107 O108 1.235 . S
C107 O134 1.289 . S
O108 C107 1.235 . S
C109 C111 1.400 . S
C109 N112 1.351 . S
C109 C114 1.501 . S
C110 C111 1.387 . S
C110 N113 1.341 . S
C111 C109 1.400 . S
C111 C110 1.387 . S
N112 Co103 2.022 . S
N112 C109 1.351 . S
N112 N113 1.365 . S
N113 C110 1.341 . S
N113 N112 1.365 . S
N113 H133 0.862 . S
C114 C109 1.501 . S
C114 H115 0.961 . S
C114 H116 0.961 . S
C114 H117 0.960 . S
H115 C114 0.961 . S
H116 C114 0.961 . S
H117 C114 0.960 . S
C118 N119 1.342 . S
C118 C122 1.401 . S
C118 C123 1.499 . S
N119 Co102 1.989 . S
N119 C118 1.342 . S
N119 N120 1.388 . S
N120 Co103 1.993 . S
N120 N119 1.388 . S
N120 C121 1.346 . S
C121 N120 1.346 . S
C121 C122 1.396 . S
C121 C131 1.510 . S
C122 C118 1.401 . S
C122 C121 1.396 . S
C123 C118 1.499 . S
C123 H124 0.959 . S
C123 H125 0.960 . S
C123 H126 0.961 . S
H124 C123 0.959 . S
H125 C123 0.960 . S
H126 C123 0.961 . S
O127 Co102 1.967 . S
O127 C135 1.258 . S
O128 Co103 1.941 . S
O128 C135 1.266 . S
H129 C131 0.959 . S
H130 C131 0.961 . S
C131 C121 1.510 . S
C131 H129 0.959 . S
C131 H130 0.961 . S
C131 H132 0.960 . S
H132 C131 0.960 . S
H133 N113 0.862 . S
O134 Co102 1.920 . S
O134 C107 1.289 . S
C135 O127 1.258 . S
C135 O128 1.266 . S
Co136 O139 1.970 . S
Co136 N153 1.989 . S
Co136 O161 1.967 . S
Co136 O168 1.920 . S
Co137 O140 1.966 . S
Co137 N146 2.022 . S
Co137 N154 1.993 . S
Co137 O162 1.941 . S
C138 O139 1.258 . S
C138 O140 1.263 . S
O139 Co136 1.970 . S
O139 C138 1.258 . S
O140 Co137 1.966 . S
O140 C138 1.263 . S
C141 O142 1.235 . S
C141 O168 1.289 . S
O142 C141 1.235 . S
C143 C145 1.400 . S
C143 N146 1.351 . S
C143 C148 1.501 . S
C144 C145 1.387 . S
C144 N147 1.341 . S
C145 C143 1.400 . S
C145 C144 1.387 . S
N146 Co137 2.022 . S
N146 C143 1.351 . S
N146 N147 1.365 . S
N147 C144 1.341 . S
N147 N146 1.365 . S
N147 H167 0.862 . S
C148 C143 1.501 . S
C148 H149 0.961 . S
C148 H150 0.961 . S
C148 H151 0.960 . S
H149 C148 0.961 . S
H150 C148 0.961 . S
H151 C148 0.960 . S
C152 N153 1.342 . S
C152 C156 1.401 . S
C152 C157 1.499 . S
N153 Co136 1.989 . S
N153 C152 1.342 . S
N153 N154 1.388 . S
N154 Co137 1.993 . S
N154 N153 1.388 . S
N154 C155 1.346 . S
C155 N154 1.346 . S
C155 C156 1.396 . S
C155 C165 1.510 . S
C156 C152 1.401 . S
C156 C155 1.396 . S
C157 C152 1.499 . S
C157 H158 0.959 . S
C157 H159 0.960 1_655 S
C157 H160 0.961 1_655 S
H158 C157 0.959 . S
H159 C157 0.960 1_455 S
H160 C157 0.961 1_455 S
O161 Co136 1.967 . S
O161 C169 1.258 . S
O162 Co137 1.941 . S
O162 C169 1.266 . S
H163 C165 0.959 . S
H164 C165 0.961 . S
C165 C155 1.510 . S
C165 H163 0.959 . S
C165 H164 0.961 . S
C165 H166 0.960 . S
H166 C165 0.960 . S
H167 N147 0.862 . S
O168 Co136 1.920 . S
O168 C141 1.289 . S
C169 O161 1.258 . S
C169 O162 1.266 . S
Co170 O173 1.970 . S
Co170 N187 1.989 . S
Co170 O195 1.967 . S
Co170 O202 1.920 . S
Co171 O174 1.966 . S
Co171 N180 2.022 . S
Co171 N188 1.993 . S
Co171 O196 1.941 . S
C172 O173 1.258 . S
C172 O174 1.263 . S
O173 Co170 1.970 . S
O173 C172 1.258 . S
O174 Co171 1.966 . S
O174 C172 1.263 . S
C175 O176 1.235 . S
C175 O202 1.289 . S
O176 C175 1.235 . S
C177 C179 1.400 . S
C177 N180 1.351 . S
C177 C182 1.501 . S
C178 C179 1.387 . S
C178 N181 1.341 . S
C179 C177 1.400 . S
C179 C178 1.387 . S
N180 Co171 2.022 . S
N180 C177 1.351 . S
N180 N181 1.365 . S
N181 C178 1.341 . S
N181 N180 1.365 . S
N181 H201 0.862 . S
C182 C177 1.501 . S
C182 H183 0.961 . S
C182 H184 0.961 . S
C182 H185 0.960 . S
H183 C182 0.961 . S
H184 C182 0.961 . S
H185 C182 0.960 . S
C186 N187 1.342 . S
C186 C190 1.401 . S
C186 C191 1.499 . S
N187 Co170 1.989 . S
N187 C186 1.342 . S
N187 N188 1.388 . S
N188 Co171 1.993 . S
N188 N187 1.388 . S
N188 C189 1.346 . S
C189 N188 1.346 . S
C189 C190 1.396 . S
C189 C199 1.510 . S
C190 C186 1.401 . S
C190 C189 1.396 . S
C191 C186 1.499 . S
C191 H192 0.959 . S
C191 H193 0.960 . S
C191 H194 0.961 . S
H192 C191 0.959 . S
H193 C191 0.960 . S
H194 C191 0.961 . S
O195 Co170 1.967 . S
O195 C203 1.258 . S
O196 Co171 1.941 . S
O196 C203 1.266 . S
H197 C199 0.959 . S
H198 C199 0.961 . S
C199 C189 1.510 . S
C199 H197 0.959 . S
C199 H198 0.961 . S
C199 H200 0.960 . S
H200 C199 0.960 . S
H201 N181 0.862 . S
O202 Co170 1.920 . S
O202 C175 1.289 . S
C203 O195 1.258 . S
C203 O196 1.266 . S
Co204 O207 1.970 . S
Co204 N221 1.989 . S
Co204 O229 1.967 . S
Co204 O236 1.920 . S
Co205 O208 1.966 . S
Co205 N214 2.022 . S
Co205 N222 1.993 . S
Co205 O230 1.941 . S
C206 O207 1.258 . S
C206 O208 1.263 . S
O207 Co204 1.970 . S
O207 C206 1.258 . S
O208 Co205 1.966 . S
O208 C206 1.263 . S
C209 O210 1.235 . S
C209 O236 1.289 . S
O210 C209 1.235 . S
C211 C213 1.400 . S
C211 N214 1.351 . S
C211 C216 1.501 . S
C212 C213 1.387 . S
C212 N215 1.341 . S
C213 C211 1.400 . S
C213 C212 1.387 . S
N214 Co205 2.022 . S
N214 C211 1.351 . S
N214 N215 1.365 . S
N215 C212 1.341 . S
N215 N214 1.365 . S
N215 H235 0.862 . S
C216 C211 1.501 . S
C216 H217 0.961 . S
C216 H218 0.961 . S
C216 H219 0.960 . S
H217 C216 0.961 . S
H218 C216 0.961 . S
H219 C216 0.960 . S
C220 N221 1.342 . S
C220 C224 1.401 . S
C220 C225 1.499 . S
N221 Co204 1.989 . S
N221 C220 1.342 . S
N221 N222 1.388 . S
N222 Co205 1.993 . S
N222 N221 1.388 . S
N222 C223 1.346 . S
C223 N222 1.346 . S
C223 C224 1.396 . S
C223 C233 1.510 . S
C224 C220 1.401 . S
C224 C223 1.396 . S
C225 C220 1.499 . S
C225 H226 0.959 . S
C225 H227 0.960 1_655 S
C225 H228 0.961 1_655 S
H226 C225 0.959 . S
H227 C225 0.960 1_455 S
H228 C225 0.961 1_455 S
O229 Co204 1.967 . S
O229 C237 1.258 . S
O230 Co205 1.941 . S
O230 C237 1.266 . S
H231 C233 0.959 . S
H232 C233 0.961 . S
C233 C223 1.510 . S
C233 H231 0.959 . S
C233 H232 0.961 . S
C233 H234 0.960 . S
H234 C233 0.960 . S
H235 N215 0.862 . S
O236 Co204 1.920 . S
O236 C209 1.289 . S
C237 O229 1.258 . S
C237 O230 1.266 . S
Co238 O241 1.970 . S
Co238 N255 1.989 . S
Co238 O263 1.967 . S
Co238 O270 1.920 . S
Co239 O242 1.966 . S
Co239 N248 2.022 . S
Co239 N256 1.993 . S
Co239 O264 1.941 . S
C240 O241 1.258 . S
C240 O242 1.263 . S
O241 Co238 1.970 . S
O241 C240 1.258 . S
O242 Co239 1.966 . S
O242 C240 1.263 . S
C243 O244 1.235 . S
C243 O270 1.289 . S
O244 C243 1.235 . S
C245 C247 1.400 . S
C245 N248 1.351 . S
C245 C250 1.501 . S
C246 C247 1.387 . S
C246 N249 1.341 . S
C247 C245 1.400 . S
C247 C246 1.387 . S
N248 Co239 2.022 . S
N248 C245 1.351 . S
N248 N249 1.365 . S
N249 C246 1.341 . S
N249 N248 1.365 . S
N249 H269 0.862 . S
C250 C245 1.501 . S
C250 H251 0.961 . S
C250 H252 0.961 . S
C250 H253 0.960 . S
H251 C250 0.961 . S
H252 C250 0.961 . S
H253 C250 0.960 . S
C254 N255 1.342 . S
C254 C258 1.401 . S
C254 C259 1.499 . S
N255 Co238 1.989 . S
N255 C254 1.342 . S
N255 N256 1.388 . S
N256 Co239 1.993 . S
N256 N255 1.388 . S
N256 C257 1.346 . S
C257 N256 1.346 . S
C257 C258 1.396 . S
C257 C267 1.510 . S
C258 C254 1.401 . S
C258 C257 1.396 . S
C259 C254 1.499 . S
C259 H260 0.959 . S
C259 H261 0.960 . S
C259 H262 0.961 . S
H260 C259 0.959 . S
H261 C259 0.960 . S
H262 C259 0.961 . S
O263 Co238 1.967 . S
O263 C271 1.258 . S
O264 Co239 1.941 . S
O264 C271 1.266 . S
H265 C267 0.959 . S
H266 C267 0.961 . S
C267 C257 1.510 . S
C267 H265 0.959 . S
C267 H266 0.961 . S
C267 H268 0.960 . S
H268 C267 0.960 . S
H269 N249 0.862 . S
O270 Co238 1.920 . S
O270 C243 1.289 . S
C271 O263 1.258 . S
C271 O264 1.266 . S
C272 C273 1.349 . S
C272 C274 1.327 . S
C272 H297 0.950 . S
C273 C272 1.349 . S
C273 C289 1.349 . S
C274 C272 1.327 . S
C274 C293 1.429 . S
C274 H298 0.950 . S
C275 C292 1.574 1_545 S
C275 C294 1.368 1_556 S
C275 H299 0.949 . S
H276 C280 0.949 . S
C277 C278 1.349 . S
C277 C279 1.327 . S
C277 H300 0.950 . S
C278 C277 1.349 . S
C278 C290 1.349 . S
C279 C277 1.327 . S
C279 C295 1.429 . S
C279 H301 0.950 . S
C280 H276 0.949 . S
C280 C288 1.574 1_565 S
C280 C296 1.368 1_554 S
H281 C289 0.950 1_556 S
H282 C287 0.950 . S
H283 C288 0.949 . S
H284 C290 0.950 1_554 S
H285 C291 0.950 . S
H286 C292 0.949 . S
C287 H282 0.950 . S
C287 C289 1.327 1_556 S
C287 C293 1.429 1_556 S
C288 C280 1.574 1_545 S
C288 H283 0.949 . S
C288 C294 1.368 1_655 S
C289 C273 1.349 . S
C289 H281 0.950 1_554 S
C289 C287 1.327 1_554 S
C290 C278 1.349 . S
C290 H284 0.950 1_556 S
C290 C291 1.327 1_556 S
C291 H285 0.950 . S
C291 C290 1.327 1_554 S
C291 C295 1.429 1_554 S
C292 C275 1.574 1_565 S
C292 H286 0.949 . S
C292 C296 1.368 1_455 S
C293 C274 1.429 . S
C293 C287 1.429 1_554 S
C293 C294 1.523 . S
C294 C275 1.368 1_554 S
C294 C288 1.368 1_455 S
C294 C293 1.523 . S
C295 C279 1.429 . S
C295 C291 1.429 1_556 S
C295 C296 1.523 . S
C296 C280 1.368 1_556 S
C296 C292 1.368 1_655 S
C296 C295 1.523 . S
H297 C272 0.950 . S
H298 C274 0.950 . S
H299 C275 0.949 . S
H300 C277 0.950 . S
H301 C279 0.950 . S
C302 C303 1.349 . S
C302 C304 1.327 . S
C302 H327 0.950 . S
C303 C302 1.349 . S
C303 C319 1.349 . S
C304 C302 1.327 . S
C304 C323 1.429 . S
C304 H328 0.950 . S
C305 C322 1.574 1_545 S
C305 C324 1.368 1_554 S
C305 H329 0.949 . S
H306 C310 0.949 . S
C307 C308 1.349 . S
C307 C309 1.327 . S
C307 H330 0.950 . S
C308 C307 1.349 . S
C308 C320 1.349 . S
C309 C307 1.327 . S
C309 C325 1.429 . S
C309 H331 0.950 . S
C310 H306 0.949 . S
C310 C318 1.574 1_565 S
C310 C326 1.368 1_556 S
H311 C319 0.950 1_554 S
H312 C317 0.950 . S
H313 C318 0.949 . S
H314 C320 0.950 1_556 S
H315 C321 0.950 . S
H316 C322 0.949 . S
C317 H312 0.950 . S
C317 C319 1.327 1_554 S
C317 C323 1.429 1_554 S
C318 C310 1.574 1_545 S
C318 H313 0.949 . S
C318 C324 1.368 . S
C319 C303 1.349 . S
C319 H311 0.950 1_556 S
C319 C317 1.327 1_556 S
C320 C308 1.349 . S
C320 H314 0.950 1_554 S
C320 C321 1.327 1_554 S
C321 H315 0.950 . S
C321 C320 1.327 1_556 S
C321 C325 1.429 1_556 S
C322 C305 1.574 1_565 S
C322 H316 0.949 . S
C322 C326 1.368 . S
C323 C304 1.429 . S
C323 C317 1.429 1_556 S
C323 C324 1.523 . S
C324 C305 1.368 1_556 S
C324 C318 1.368 . S
C324 C323 1.523 . S
C325 C309 1.429 . S
C325 C321 1.429 1_554 S
C325 C326 1.523 . S
C326 C310 1.368 1_554 S
C326 C322 1.368 . S
C326 C325 1.523 . S
H327 C302 0.950 . S
H328 C304 0.950 . S
H329 C305 0.949 . S
H330 C307 0.950 . S
H331 C309 0.950 . S
C332 C333 1.349 . S
C332 C334 1.327 . S
C332 H357 0.950 . S
C333 C332 1.349 . S
C333 C349 1.349 . S
C334 C332 1.327 . S
C334 C353 1.429 . S
C334 H358 0.950 . S
C335 C352 1.574 . S
C335 C354 1.368 1_455 S
C335 H359 0.949 . S
H336 C340 0.949 . S
C337 C338 1.349 . S
C337 C339 1.327 . S
C337 H360 0.950 . S
C338 C337 1.349 . S
C338 C350 1.349 . S
C339 C337 1.327 . S
C339 C355 1.429 . S
C339 H361 0.950 . S
C340 H336 0.949 . S
C340 C348 1.574 . S
C340 C356 1.368 1_655 S
H341 C349 0.950 . S
H342 C347 0.950 . S
H343 C348 0.949 . S
H344 C350 0.950 . S
H345 C351 0.950 . S
H346 C352 0.949 . S
C347 H342 0.950 . S
C347 C349 1.327 . S
C347 C353 1.429 . S
C348 C340 1.574 . S
C348 H343 0.949 . S
C348 C354 1.368 . S
C349 C333 1.349 . S
C349 H341 0.950 . S
C349 C347 1.327 . S
C350 C338 1.349 . S
C350 H344 0.950 . S
C350 C351 1.327 . S
C351 H345 0.950 . S
C351 C350 1.327 . S
C351 C355 1.429 . S
C352 C335 1.574 . S
C352 H346 0.949 . S
C352 C356 1.368 . S
C353 C334 1.429 . S
C353 C347 1.429 . S
C353 C354 1.523 . S
C354 C335 1.368 1_655 S
C354 C348 1.368 . S
C354 C353 1.523 . S
C355 C339 1.429 . S
C355 C351 1.429 . S
C355 C356 1.523 . S
C356 C340 1.368 1_455 S
C356 C352 1.368 . S
C356 C355 1.523 . S
H357 C332 0.950 . S
H358 C334 0.950 . S
H359 C335 0.949 . S
H360 C337 0.950 . S
H361 C339 0.950 . S
C362 C363 1.349 . S
C362 C364 1.327 . S
C362 H387 0.950 . S
C363 C362 1.349 . S
C363 C379 1.349 . S
C364 C362 1.327 . S
C364 C383 1.429 . S
C364 H388 0.950 . S
C365 C382 1.574 . S
C365 C384 1.368 . S
C365 H389 0.949 . S
H366 C370 0.949 . S
C367 C368 1.349 . S
C367 C369 1.327 . S
C367 H390 0.950 . S
C368 C367 1.349 . S
C368 C380 1.349 . S
C369 C367 1.327 . S
C369 C385 1.429 . S
C369 H391 0.950 . S
C370 H366 0.949 . S
C370 C378 1.574 . S
C370 C386 1.368 . S
H371 C379 0.950 . S
H372 C377 0.950 . S
H373 C378 0.949 . S
H374 C380 0.950 . S
H375 C381 0.950 . S
H376 C382 0.949 . S
C377 H372 0.950 . S
C377 C379 1.327 . S
C377 C383 1.429 . S
C378 C370 1.574 . S
C378 H373 0.949 . S
C378 C384 1.368 . S
C379 C363 1.349 . S
C379 H371 0.950 . S
C379 C377 1.327 . S
C380 C368 1.349 . S
C380 H374 0.950 . S
C380 C381 1.327 . S
C381 H375 0.950 . S
C381 C380 1.327 . S
C381 C385 1.429 . S
C382 C365 1.574 . S
C382 H376 0.949 . S
C382 C386 1.368 . S
C383 C364 1.429 . S
C383 C377 1.429 . S
C383 C384 1.523 . S
C384 C365 1.368 . S
C384 C378 1.368 . S
C384 C383 1.523 . S
C385 C369 1.429 . S
C385 C381 1.429 . S
C385 C386 1.523 . S
C386 C370 1.368 . S
C386 C382 1.368 . S
C386 C385 1.523 . S
H387 C362 0.950 . S
H388 C364 0.950 . S
H389 C365 0.949 . S
H390 C367 0.950 . S
H391 C369 0.950 . S
C392 C393 1.349 . S
C392 C394 1.327 . S
C392 H417 0.950 . S
C393 C392 1.349 . S
C393 C409 1.349 . S
C394 C392 1.327 . S
C394 C413 1.429 . S
C394 H418 0.950 . S
C395 C412 1.574 1_565 S
C395 C414 1.368 . S
C395 H419 0.949 . S
H396 C400 0.949 . S
C397 C398 1.349 . S
C397 C399 1.327 . S
C397 H420 0.950 . S
C398 C397 1.349 . S
C398 C410 1.349 . S
C399 C397 1.327 . S
C399 C415 1.429 . S
C399 H421 0.950 . S
C400 H396 0.949 . S
C400 C408 1.574 1_545 S
C400 C416 1.368 . S
H401 C409 0.950 . S
H402 C407 0.950 . S
H403 C408 0.949 . S
H404 C410 0.950 . S
H405 C411 0.950 . S
H406 C412 0.949 . S
C407 H402 0.950 . S
C407 C409 1.327 . S
C407 C413 1.429 . S
C408 C400 1.574 1_565 S
C408 H403 0.949 . S
C408 C414 1.368 . S
C409 C393 1.349 . S
C409 H401 0.950 . S
C409 C407 1.327 . S
C410 C398 1.349 . S
C410 H404 0.950 . S
C410 C411 1.327 . S
C411 H405 0.950 . S
C411 C410 1.327 . S
C411 C415 1.429 . S
C412 C395 1.574 1_545 S
C412 H406 0.949 . S
C412 C416 1.368 . S
C413 C394 1.429 . S
C413 C407 1.429 . S
C413 C414 1.523 . S
C414 C395 1.368 . S
C414 C408 1.368 . S
C414 C413 1.523 . S
C415 C399 1.429 . S
C415 C411 1.429 . S
C415 C416 1.523 . S
C416 C400 1.368 . S
C416 C412 1.368 . S
C416 C415 1.523 . S
H417 C392 0.950 . S
H418 C394 0.950 . S
H419 C395 0.949 . S
H420 C397 0.950 . S
H421 C399 0.950 . S
C422 C423 1.349 . S
C422 C424 1.327 . S
C422 H447 0.950 . S
C423 C422 1.349 . S
C423 C439 1.349 . S
C424 C422 1.327 . S
C424 C443 1.429 . S
C424 H448 0.950 . S
C425 C442 1.574 . S
C425 C444 1.368 . S
C425 H449 0.949 . S
H426 C430 0.949 . S
C427 C428 1.349 . S
C427 C429 1.327 . S
C427 H450 0.950 . S
C428 C427 1.349 . S
C428 C440 1.349 . S
C429 C427 1.327 . S
C429 C445 1.429 . S
C429 H451 0.950 . S
C430 H426 0.949 . S
C430 C438 1.574 . S
C430 C446 1.368 . S
H431 C439 0.950 . S
H432 C437 0.950 . S
H433 C438 0.949 . S
H434 C440 0.950 . S
H435 C441 0.950 . S
H436 C442 0.949 . S
C437 H432 0.950 . S
C437 C439 1.327 . S
C437 C443 1.429 . S
C438 C430 1.574 . S
C438 H433 0.949 . S
C438 C444 1.368 . S
C439 C423 1.349 . S
C439 H431 0.950 . S
C439 C437 1.327 . S
C440 C428 1.349 . S
C440 H434 0.950 . S
C440 C441 1.327 . S
C441 H435 0.950 . S
C441 C440 1.327 . S
C441 C445 1.429 . S
C442 C425 1.574 . S
C442 H436 0.949 . S
C442 C446 1.368 . S
C443 C424 1.429 . S
C443 C437 1.429 . S
C443 C444 1.523 . S
C444 C425 1.368 . S
C444 C438 1.368 . S
C444 C443 1.523 . S
C445 C429 1.429 . S
C445 C441 1.429 . S
C445 C446 1.523 . S
C446 C430 1.368 . S
C446 C442 1.368 . S
C446 C445 1.523 . S
H447 C422 0.950 . S
H448 C424 0.950 . S
H449 C425 0.949 . S
H450 C427 0.950 . S
H451 C429 0.950 . S
C452 C453 1.349 . S
C452 C454 1.327 . S
C452 H477 0.950 . S
C453 C452 1.349 . S
C453 C469 1.349 . S
C454 C452 1.327 . S
C454 C473 1.429 . S
C454 H478 0.950 . S
C455 C472 1.574 1_565 S
C455 C474 1.368 . S
C455 H479 0.949 . S
H456 C460 0.949 . S
C457 C458 1.349 . S
C457 C459 1.327 . S
C457 H480 0.950 . S
C458 C457 1.349 . S
C458 C470 1.349 . S
C459 C457 1.327 . S
C459 C475 1.429 . S
C459 H481 0.950 . S
C460 H456 0.949 . S
C460 C468 1.574 1_545 S
C460 C476 1.368 . S
H461 C469 0.950 . S
H462 C467 0.950 . S
H463 C468 0.949 . S
H464 C470 0.950 . S
H465 C471 0.950 . S
H466 C472 0.949 . S
C467 H462 0.950 . S
C467 C469 1.327 . S
C467 C473 1.429 . S
C468 C460 1.574 1_565 S
C468 H463 0.949 . S
C468 C474 1.368 . S
C469 C453 1.349 . S
C469 H461 0.950 . S
C469 C467 1.327 . S
C470 C458 1.349 . S
C470 H464 0.950 . S
C470 C471 1.327 . S
C471 H465 0.950 . S
C471 C470 1.327 . S
C471 C475 1.429 . S
C472 C455 1.574 1_545 S
C472 H466 0.949 . S
C472 C476 1.368 . S
C473 C454 1.429 . S
C473 C467 1.429 . S
C473 C474 1.523 . S
C474 C455 1.368 . S
C474 C468 1.368 . S
C474 C473 1.523 . S
C475 C459 1.429 . S
C475 C471 1.429 . S
C475 C476 1.523 . S
C476 C460 1.368 . S
C476 C472 1.368 . S
C476 C475 1.523 . S
H477 C452 0.950 . S
H478 C454 0.950 . S
H479 C455 0.949 . S
H480 C457 0.950 . S
H481 C459 0.950 . S
C482 C483 1.349 . S
C482 C484 1.327 . S
C482 H507 0.950 . S
C483 C482 1.349 . S
C483 C499 1.349 . S
C484 C482 1.327 . S
C484 C503 1.429 . S
C484 H508 0.950 . S
C485 C502 1.574 . S
C485 C504 1.368 . S
C485 H509 0.949 . S
H486 C490 0.949 . S
C487 C488 1.349 . S
C487 C489 1.327 . S
C487 H510 0.950 . S
C488 C487 1.349 . S
C488 C500 1.349 . S
C489 C487 1.327 . S
C489 C505 1.429 . S
C489 H511 0.950 . S
C490 H486 0.949 . S
C490 C498 1.574 . S
C490 C506 1.368 . S
H491 C499 0.950 . S
H492 C497 0.950 . S
H493 C498 0.949 . S
H494 C500 0.950 . S
H495 C501 0.950 . S
H496 C502 0.949 . S
C497 H492 0.950 . S
C497 C499 1.327 . S
C497 C503 1.429 . S
C498 C490 1.574 . S
C498 H493 0.949 . S
C498 C504 1.368 . S
C499 C483 1.349 . S
C499 H491 0.950 . S
C499 C497 1.327 . S
C500 C488 1.349 . S
C500 H494 0.950 . S
C500 C501 1.327 . S
C501 H495 0.950 . S
C501 C500 1.327 . S
C501 C505 1.429 . S
C502 C485 1.574 . S
C502 H496 0.949 . S
C502 C506 1.368 . S
C503 C484 1.429 . S
C503 C497 1.429 . S
C503 C504 1.523 . S
C504 C485 1.368 . S
C504 C498 1.368 . S
C504 C503 1.523 . S
C505 C489 1.429 . S
C505 C501 1.429 . S
C505 C506 1.523 . S
C506 C490 1.368 . S
C506 C502 1.368 . S
C506 C505 1.523 . S
H507 C482 0.950 . S
H508 C484 0.950 . S
H509 C485 0.949 . S
H510 C487 0.950 . S
H511 C489 0.950 . S
C512 C513 1.349 . S
C512 C514 1.327 . S
C512 H537 0.950 . S
C513 C512 1.349 . S
C513 C529 1.349 . S
C514 C512 1.327 . S
C514 C533 1.429 . S
C514 H538 0.950 1_554 S
C515 C532 1.574 1_554 S
C515 C534 1.367 1_554 S
C515 H539 0.949 . S
H516 C520 0.949 . S
C517 C518 1.349 . S
C517 C519 1.327 . S
C517 H540 0.950 . S
C518 C517 1.349 . S
C518 C530 1.349 . S
C519 C517 1.327 . S
C519 C535 1.429 . S
C519 H541 0.950 . S
C520 H516 0.949 . S
C520 C528 1.574 . S
C520 C536 1.368 . S
H521 C529 0.950 . S
H522 C527 0.950 . S
H523 C528 0.949 . S
H524 C530 0.950 . S
H525 C531 0.950 . S
H526 C532 0.949 1_554 S
C527 H522 0.950 . S
C527 C529 1.327 . S
C527 C533 1.429 . S
C528 C520 1.574 . S
C528 H523 0.949 . S
C528 C534 1.371 . S
C529 C513 1.349 . S
C529 H521 0.950 . S
C529 C527 1.327 . S
C530 C518 1.349 . S
C530 H524 0.950 . S
C530 C531 1.327 . S
C531 H525 0.950 . S
C531 C530 1.327 . S
C531 C535 1.429 . S
C532 C515 1.574 1_556 S
C532 H526 0.949 1_556 S
C532 C536 1.368 . S
C533 C514 1.429 . S
C533 C527 1.429 . S
C533 C534 1.522 1_554 S
C534 C515 1.367 1_556 S
C534 C528 1.371 . S
C534 C533 1.522 1_556 S
C535 C519 1.429 . S
C535 C531 1.429 . S
C535 C536 1.523 . S
C536 C520 1.368 . S
C536 C532 1.368 . S
C536 C535 1.523 . S
H537 C512 0.950 . S
H538 C514 0.950 1_556 S
H539 C515 0.949 . S
H540 C517 0.950 . S
H541 C519 0.950 . S
C542 C543 1.349 . S
C542 C544 1.327 . S
C542 H567 0.950 . S
C543 C542 1.349 . S
C543 C559 1.349 . S
C544 C542 1.327 . S
C544 C563 1.429 . S
C544 H568 0.950 . S
C545 C562 1.574 1_556 S
C545 C564 1.368 . S
C545 H569 0.949 . S
H546 C550 0.949 . S
C547 C548 1.349 . S
C547 C549 1.327 . S
C547 H570 0.950 . S
C548 C547 1.349 . S
C548 C560 1.349 . S
C549 C547 1.327 . S
C549 C565 1.429 . S
C549 H571 0.950 . S
C550 H546 0.949 . S
C550 C558 1.574 . S
C550 C566 1.370 . S
H551 C559 0.950 . S
H552 C557 0.950 . S
H553 C558 0.949 . S
H554 C560 0.950 . S
H555 C561 0.925 1_556 S
H556 C562 0.949 . S
C557 H552 0.950 . S
C557 C559 1.327 . S
C557 C563 1.429 . S
C558 C550 1.574 . S
C558 H553 0.949 . S
C558 C564 1.368 . S
C559 C543 1.349 . S
C559 H551 0.950 . S
C559 C557 1.327 . S
C560 C548 1.349 . S
C560 H554 0.950 . S
C560 C561 1.327 . S
C561 H555 0.925 1_554 S
C561 C560 1.327 . S
C561 C565 1.429 . S
C562 C545 1.574 1_554 S
C562 H556 0.949 . S
C562 C566 1.368 1_554 S
C563 C544 1.429 . S
C563 C557 1.429 . S
C563 C564 1.523 . S
C564 C545 1.368 . S
C564 C558 1.368 . S
C564 C563 1.523 . S
C565 C549 1.429 . S
C565 C561 1.429 . S
C565 C566 1.522 1_554 S
C566 C550 1.370 . S
C566 C562 1.368 1_556 S
C566 C565 1.522 1_556 S
H567 C542 0.950 . S
H568 C544 0.950 . S
H569 C545 0.949 . S
H570 C547 0.950 . S
H571 C549 0.950 . S
C572 C573 1.349 . S
C572 C574 1.327 . S
C572 H597 0.950 . S
C573 C572 1.349 . S
C573 C589 1.349 . S
C574 C572 1.327 . S
C574 C593 1.429 . S
C574 H598 0.950 . S
C575 C592 1.574 . S
C575 C594 1.368 . S
C575 H599 0.949 . S
H576 C580 0.949 . S
C577 C578 1.349 . S
C577 C579 1.327 . S
C577 H600 0.950 . S
C578 C577 1.349 . S
C578 C590 1.349 . S
C579 C577 1.327 . S
C579 C595 1.429 . S
C579 H601 0.950 . S
C580 H576 0.949 . S
C580 C588 1.574 . S
C580 C596 1.368 . S
H581 C589 0.950 . S
H582 C587 0.950 . S
H583 C588 0.949 . S
H584 C590 0.950 . S
H585 C591 0.950 . S
H586 C592 0.949 . S
C587 H582 0.950 . S
C587 C589 1.327 . S
C587 C593 1.429 . S
C588 C580 1.574 . S
C588 H583 0.949 . S
C588 C594 1.368 . S
C589 C573 1.349 . S
C589 H581 0.950 . S
C589 C587 1.327 . S
C590 C578 1.349 . S
C590 H584 0.950 . S
C590 C591 1.327 . S
C591 H585 0.950 . S
C591 C590 1.327 . S
C591 C595 1.429 . S
C592 C575 1.574 . S
C592 H586 0.949 . S
C592 C596 1.368 . S
C593 C574 1.429 . S
C593 C587 1.429 . S
C593 C594 1.523 . S
C594 C575 1.368 . S
C594 C588 1.368 . S
C594 C593 1.523 . S
C595 C579 1.429 . S
C595 C591 1.429 . S
C595 C596 1.523 . S
C596 C580 1.368 . S
C596 C592 1.368 . S
C596 C595 1.523 . S
H597 C572 0.950 . S
H598 C574 0.950 . S
H599 C575 0.949 . S
H600 C577 0.950 . S
H601 C579 0.950 . S
C602 C603 1.349 . S
C602 C604 1.327 . S
C602 H627 0.950 . S
C603 C602 1.349 . S
C603 C619 1.349 . S
C604 C602 1.327 . S
C604 C623 1.429 . S
C604 H628 0.950 . S
C605 C622 1.574 . S
C605 C624 1.368 . S
C605 H629 0.949 . S
H606 C610 0.949 . S
C607 C608 1.349 . S
C607 C609 1.327 . S
C607 H630 0.950 . S
C608 C607 1.349 . S
C608 C620 1.349 . S
C609 C607 1.327 . S
C609 C625 1.429 . S
C609 H631 0.950 . S
C610 H606 0.949 . S
C610 C618 1.574 . S
C610 C626 1.368 . S
H611 C619 0.950 . S
H612 C617 0.950 . S
H613 C618 0.949 . S
H614 C620 0.950 . S
H615 C621 0.950 . S
H616 C622 0.949 . S
C617 H612 0.950 . S
C617 C619 1.327 . S
C617 C623 1.429 . S
C618 C610 1.574 . S
C618 H613 0.949 . S
C618 C624 1.368 . S
C619 C603 1.349 . S
C619 H611 0.950 . S
C619 C617 1.327 . S
C620 C608 1.349 . S
C620 H614 0.950 . S
C620 C621 1.327 . S
C621 H615 0.950 . S
C621 C620 1.327 . S
C621 C625 1.429 . S
C622 C605 1.574 . S
C622 H616 0.949 . S
C622 C626 1.368 . S
C623 C604 1.429 . S
C623 C617 1.429 . S
C623 C624 1.523 . S
C624 C605 1.368 . S
C624 C618 1.368 . S
C624 C623 1.523 . S
C625 C609 1.429 . S
C625 C621 1.429 . S
C625 C626 1.523 . S
C626 C610 1.368 . S
C626 C622 1.368 . S
C626 C625 1.523 . S
H627 C602 0.950 . S
H628 C604 0.950 . S
H629 C605 0.949 . S
H630 C607 0.950 . S
H631 C609 0.950 . S
C632 C633 1.349 . S
C632 C634 1.327 . S
C632 H657 0.950 . S
C633 C632 1.349 . S
C633 C649 1.349 . S
C634 C632 1.327 . S
C634 C653 1.429 . S
C634 H658 0.950 . S
C635 C652 1.574 1_554 S
C635 C654 1.368 . S
C635 H659 0.949 . S
H636 C640 0.949 . S
C637 C638 1.349 . S
C637 C639 1.327 . S
C637 H660 0.950 . S
C638 C637 1.349 . S
C638 C650 1.349 . S
C639 C637 1.327 . S
C639 C655 1.429 . S
C639 H661 0.950 . S
C640 H636 0.949 . S
C640 C648 1.574 . S
C640 C656 1.370 . S
H641 C649 0.950 . S
H642 C647 0.950 . S
H643 C648 0.949 . S
H644 C650 0.950 . S
H645 C651 0.950 1_554 S
H646 C652 0.949 . S
C647 H642 0.950 . S
C647 C649 1.327 . S
C647 C653 1.429 . S
C648 C640 1.574 . S
C648 H643 0.949 . S
C648 C654 1.368 . S
C649 C633 1.349 . S
C649 H641 0.950 . S
C649 C647 1.327 . S
C650 C638 1.349 . S
C650 H644 0.950 . S
C650 C651 1.327 . S
C651 H645 0.950 1_556 S
C651 C650 1.327 . S
C651 C655 1.429 . S
C652 C635 1.574 1_556 S
C652 H646 0.949 . S
C652 C656 1.367 1_556 S
C653 C634 1.429 . S
C653 C647 1.429 . S
C653 C654 1.523 . S
C654 C635 1.368 . S
C654 C648 1.368 . S
C654 C653 1.523 . S
C655 C639 1.429 . S
C655 C651 1.429 . S
C655 C656 1.522 1_556 S
C656 C640 1.370 . S
C656 C652 1.367 1_554 S
C656 C655 1.522 1_554 S
H657 C632 0.950 . S
H658 C634 0.950 . S
H659 C635 0.949 . S
H660 C637 0.950 . S
H661 C639 0.950 . S
C662 C663 1.349 . S
C662 C664 1.327 . S
C662 H687 0.950 . S
C663 C662 1.349 . S
C663 C679 1.349 . S
C664 C662 1.327 . S
C664 C683 1.429 . S
C664 H688 0.950 . S
C665 C682 1.574 . S
C665 C684 1.369 . S
C665 H689 0.949 . S
H666 C670 0.949 . S
C667 C668 1.349 . S
C667 C669 1.327 . S
C667 H690 0.950 . S
C668 C667 1.349 . S
C668 C680 1.349 . S
C669 C667 1.327 . S
C669 C685 1.429 . S
C669 H691 0.950 . S
C670 H666 0.949 . S
C670 C678 1.574 . S
C670 C686 1.368 . S
H671 C679 0.950 . S
H672 C677 0.950 . S
H673 C678 0.949 1_556 S
H674 C680 0.950 . S
H675 C681 0.950 . S
H676 C682 0.949 . S
C677 H672 0.950 . S
C677 C679 1.327 . S
C677 C683 1.429 . S
C678 C670 1.574 . S
C678 H673 0.949 1_554 S
C678 C684 1.369 . S
C679 C663 1.349 . S
C679 H671 0.950 . S
C679 C677 1.327 . S
C680 C668 1.349 . S
C680 H674 0.950 . S
C680 C681 1.327 . S
C681 H675 0.950 . S
C681 C680 1.327 . S
C681 C685 1.429 . S
C682 C665 1.574 . S
C682 H676 0.949 . S
C682 C686 1.368 . S
C683 C664 1.429 . S
C683 C677 1.429 . S
C683 C684 1.522 1_556 S
C684 C665 1.369 . S
C684 C678 1.369 . S
C684 C683 1.522 1_554 S
C685 C669 1.429 . S
C685 C681 1.429 . S
C685 C686 1.523 . S
C686 C670 1.368 . S
C686 C682 1.368 . S
C686 C685 1.523 . S
H687 C662 0.950 . S
H688 C664 0.950 . S
H689 C665 0.949 . S
H690 C667 0.950 . S
H691 C669 0.950 . S
C692 C693 1.349 . S
C692 C694 1.327 . S
C692 H717 0.950 . S
C693 C692 1.349 . S
C693 C709 1.349 . S
C694 C692 1.327 . S
C694 C713 1.429 . S
C694 H718 0.950 . S
C695 C712 1.574 . S
C695 C714 1.368 . S
C695 H719 0.949 . S
H696 C700 0.949 . S
C697 C698 1.349 . S
C697 C699 1.327 . S
C697 H720 0.950 . S
C698 C697 1.349 . S
C698 C710 1.349 . S
C699 C697 1.327 . S
C699 C715 1.429 . S
C699 H721 0.950 . S
C700 H696 0.949 . S
C700 C708 1.574 . S
C700 C716 1.368 . S
H701 C709 0.950 . S
H702 C707 0.950 . S
H703 C708 0.949 . S
H704 C710 0.950 . S
H705 C711 0.950 . S
H706 C712 0.949 . S
C707 H702 0.950 . S
C707 C709 1.327 . S
C707 C713 1.429 . S
C708 C700 1.574 . S
C708 H703 0.949 . S
C708 C714 1.368 . S
C709 C693 1.349 . S
C709 H701 0.950 . S
C709 C707 1.327 . S
C710 C698 1.349 . S
C710 H704 0.950 . S
C710 C711 1.327 . S
C711 H705 0.950 . S
C711 C710 1.327 . S
C711 C715 1.429 . S
C712 C695 1.574 . S
C712 H706 0.949 . S
C712 C716 1.368 . S
C713 C694 1.429 . S
C713 C707 1.429 . S
C713 C714 1.523 . S
C714 C695 1.368 . S
C714 C708 1.368 . S
C714 C713 1.523 . S
C715 C699 1.429 . S
C715 C711 1.429 . S
C715 C716 1.523 . S
C716 C700 1.368 . S
C716 C712 1.368 . S
C716 C715 1.523 . S
H717 C692 0.950 . S
H718 C694 0.950 . S
H719 C695 0.949 . S
H720 C697 0.950 . S
H721 C699 0.950 . S
C722 C723 1.349 . S
C722 C724 1.327 . S
C722 H747 0.950 . S
C723 C722 1.349 . S
C723 C739 1.349 . S
C724 C722 1.327 . S
C724 C743 1.429 . S
C724 H748 0.950 . S
C725 C742 1.574 . S
C725 C744 1.368 . S
C725 H749 0.949 . S
H726 C730 0.949 . S
C727 C728 1.349 . S
C727 C729 1.327 . S
C727 H750 0.950 . S
C728 C727 1.349 . S
C728 C740 1.349 . S
C729 C727 1.327 . S
C729 C745 1.429 . S
C729 H751 0.950 . S
C730 H726 0.949 . S
C730 C738 1.574 . S
C730 C746 1.368 . S
H731 C739 0.950 . S
H732 C737 0.950 . S
H733 C738 0.949 . S
H734 C740 0.950 . S
H735 C741 0.950 . S
H736 C742 0.949 . S
C737 H732 0.950 . S
C737 C739 1.327 . S
C737 C743 1.429 . S
C738 C730 1.574 . S
C738 H733 0.949 . S
C738 C744 1.368 . S
C739 C723 1.349 . S
C739 H731 0.950 . S
C739 C737 1.327 . S
C740 C728 1.349 . S
C740 H734 0.950 . S
C740 C741 1.327 . S
C741 H735 0.950 . S
C741 C740 1.327 . S
C741 C745 1.429 . S
C742 C725 1.574 . S
C742 H736 0.949 . S
C742 C746 1.368 . S
C743 C724 1.429 . S
C743 C737 1.429 . S
C743 C744 1.523 . S
C744 C725 1.368 . S
C744 C738 1.368 . S
C744 C743 1.523 . S
C745 C729 1.429 . S
C745 C741 1.429 . S
C745 C746 1.523 . S
C746 C730 1.368 . S
C746 C742 1.368 . S
C746 C745 1.523 . S
H747 C722 0.950 . S
H748 C724 0.950 . S
H749 C725 0.949 . S
H750 C727 0.950 . S
H751 C729 0.950 . S
C752 C753 1.349 . S
C752 C754 1.327 . S
C752 H777 0.950 . S
C753 C752 1.349 . S
C753 C769 1.349 . S
C754 C752 1.327 . S
C754 C773 1.429 . S
C754 H778 0.950 . S
C755 C772 1.574 . S
C755 C774 1.368 . S
C755 H779 0.949 . S
H756 C760 0.949 . S
C757 C758 1.349 . S
C757 C759 1.327 . S
C757 H780 0.950 . S
C758 C757 1.349 . S
C758 C770 1.349 . S
C759 C757 1.327 . S
C759 C775 1.429 . S
C759 H781 0.950 . S
C760 H756 0.949 . S
C760 C768 1.574 . S
C760 C776 1.368 . S
H761 C769 0.950 . S
H762 C767 0.950 . S
H763 C768 0.949 . S
H764 C770 0.950 . S
H765 C771 0.950 . S
H766 C772 0.949 . S
C767 H762 0.950 . S
C767 C769 1.327 . S
C767 C773 1.429 . S
C768 C760 1.574 . S
C768 H763 0.949 . S
C768 C774 1.368 . S
C769 C753 1.349 . S
C769 H761 0.950 . S
C769 C767 1.327 . S
C770 C758 1.349 . S
C770 H764 0.950 . S
C770 C771 1.327 . S
C771 H765 0.950 . S
C771 C770 1.327 . S
C771 C775 1.429 . S
C772 C755 1.574 . S
C772 H766 0.949 . S
C772 C776 1.368 . S
C773 C754 1.429 . S
C773 C767 1.429 . S
C773 C774 1.523 . S
C774 C755 1.368 . S
C774 C768 1.368 . S
C774 C773 1.523 . S
C775 C759 1.429 . S
C775 C771 1.429 . S
C775 C776 1.523 . S
C776 C760 1.368 . S
C776 C772 1.368 . S
C776 C775 1.523 . S
H777 C752 0.950 . S
H778 C754 0.950 . S
H779 C755 0.949 . S
H780 C757 0.950 . S
H781 C759 0.950 . S
C782 C783 1.349 . S
C782 C784 1.327 . S
C782 H807 0.950 . S
C783 C782 1.349 . S
C783 C799 1.349 . S
C784 C782 1.327 . S
C784 C803 1.429 . S
C784 H808 0.950 . S
C785 C802 1.574 . S
C785 C804 1.368 . S
C785 H809 0.949 . S
H786 C790 0.949 . S
C787 C788 1.349 . S
C787 C789 1.327 . S
C787 H810 0.950 . S
C788 C787 1.349 . S
C788 C800 1.349 . S
C789 C787 1.327 . S
C789 C805 1.429 . S
C789 H811 0.950 . S
C790 H786 0.949 . S
C790 C798 1.574 . S
C790 C806 1.368 . S
H791 C799 0.950 . S
H792 C797 0.950 . S
H793 C798 0.949 . S
H794 C800 0.950 . S
H795 C801 0.950 . S
H796 C802 0.949 . S
C797 H792 0.950 . S
C797 C799 1.327 . S
C797 C803 1.429 . S
C798 C790 1.574 . S
C798 H793 0.949 . S
C798 C804 1.368 . S
C799 C783 1.349 . S
C799 H791 0.950 . S
C799 C797 1.327 . S
C800 C788 1.349 . S
C800 H794 0.950 . S
C800 C801 1.327 . S
C801 H795 0.950 . S
C801 C800 1.327 . S
C801 C805 1.429 . S
C802 C785 1.574 . S
C802 H796 0.949 . S
C802 C806 1.368 . S
C803 C784 1.429 . S
C803 C797 1.429 . S
C803 C804 1.523 . S
C804 C785 1.368 . S
C804 C798 1.368 . S
C804 C803 1.523 . S
C805 C789 1.429 . S
C805 C801 1.429 . S
C805 C806 1.523 . S
C806 C790 1.368 . S
C806 C802 1.368 . S
C806 C805 1.523 . S
H807 C782 0.950 . S
H808 C784 0.950 . S
H809 C785 0.949 . S
H810 C787 0.950 . S
H811 C789 0.950 . S
C812 C813 1.349 . S
C812 C814 1.327 . S
C812 H837 0.950 . S
C813 C812 1.349 . S
C813 C829 1.349 . S
C814 C812 1.327 . S
C814 C833 1.429 . S
C814 H838 0.950 . S
C815 C832 1.574 . S
C815 C834 1.368 . S
C815 H839 0.949 . S
H816 C820 0.949 . S
C817 C818 1.349 . S
C817 C819 1.327 . S
C817 H840 0.950 . S
C818 C817 1.349 . S
C818 C830 1.349 . S
C819 C817 1.327 . S
C819 C835 1.429 . S
C819 H841 0.950 . S
C820 H816 0.949 . S
C820 C828 1.574 . S
C820 C836 1.368 . S
H821 C829 0.950 . S
H822 C827 0.950 . S
H823 C828 0.949 . S
H824 C830 0.950 . S
H825 C831 0.950 . S
H826 C832 0.949 . S
C827 H822 0.950 . S
C827 C829 1.327 . S
C827 C833 1.429 . S
C828 C820 1.574 . S
C828 H823 0.949 . S
C828 C834 1.368 . S
C829 C813 1.349 . S
C829 H821 0.950 . S
C829 C827 1.327 . S
C830 C818 1.349 . S
C830 H824 0.950 . S
C830 C831 1.327 . S
C831 H825 0.950 . S
C831 C830 1.327 . S
C831 C835 1.429 . S
C832 C815 1.574 . S
C832 H826 0.949 . S
C832 C836 1.368 . S
C833 C814 1.429 . S
C833 C827 1.429 . S
C833 C834 1.523 . S
C834 C815 1.368 . S
C834 C828 1.368 . S
C834 C833 1.523 . S
C835 C819 1.429 . S
C835 C831 1.429 . S
C835 C836 1.523 . S
C836 C820 1.368 . S
C836 C832 1.368 . S
C836 C835 1.523 . S
H837 C812 0.950 . S
H838 C814 0.950 . S
H839 C815 0.949 . S
H840 C817 0.950 . S
H841 C819 0.950 . S
C842 C843 1.349 . S
C842 C844 1.327 . S
C842 H867 0.950 . S
C843 C842 1.349 . S
C843 C859 1.349 . S
C844 C842 1.327 . S
C844 C863 1.429 . S
C844 H868 0.950 . S
C845 C862 1.574 . S
C845 C864 1.368 . S
C845 H869 0.949 . S
H846 C850 0.949 . S
C847 C848 1.349 . S
C847 C849 1.327 . S
C847 H870 0.950 . S
C848 C847 1.349 . S
C848 C860 1.349 . S
C849 C847 1.327 . S
C849 C865 1.429 . S
C849 H871 0.950 . S
C850 H846 0.949 . S
C850 C858 1.574 . S
C850 C866 1.368 . S
H851 C859 0.950 . S
H852 C857 0.950 . S
H853 C858 0.949 . S
H854 C860 0.950 . S
H855 C861 0.950 . S
H856 C862 0.949 . S
C857 H852 0.950 . S
C857 C859 1.327 . S
C857 C863 1.429 . S
C858 C850 1.574 . S
C858 H853 0.949 . S
C858 C864 1.368 . S
C859 C843 1.349 . S
C859 H851 0.950 . S
C859 C857 1.327 . S
C860 C848 1.349 . S
C860 H854 0.950 . S
C860 C861 1.327 . S
C861 H855 0.950 . S
C861 C860 1.327 . S
C861 C865 1.429 . S
C862 C845 1.574 . S
C862 H856 0.949 . S
C862 C866 1.368 . S
C863 C844 1.429 . S
C863 C857 1.429 . S
C863 C864 1.523 . S
C864 C845 1.368 . S
C864 C858 1.368 . S
C864 C863 1.523 . S
C865 C849 1.429 . S
C865 C861 1.429 . S
C865 C866 1.523 . S
C866 C850 1.368 . S
C866 C862 1.368 . S
C866 C865 1.523 . S
H867 C842 0.950 . S
H868 C844 0.950 . S
H869 C845 0.949 . S
H870 C847 0.950 . S
H871 C849 0.950 . S
C273 C5 0.573 . S
C278 C141 0.573 . S
C303 C175 0.573 . S
C308 C39 0.573 . S
C333 C209 0.573 . S
C338 C73 0.573 . S
C363 C107 0.573 . S
C368 C243 0.573 . S
C393 C36 1.794 . S
C398 C2 1.794 . S
C423 C70 1.794 . S
C428 C104 1.794 . S
C453 C138 1.794 . S
C458 C172 1.794 . S
C483 C240 1.794 . S
C488 C206 1.794 . S
C513 C33 1.353 . S
C518 C190 1.305 . S
C543 C156 1.305 1_455 S
C548 C67 1.353 . S
C573 C258 1.305 . S
C578 C101 1.353 . S
C603 C224 1.305 1_455 S
C608 C135 1.353 . S
C633 C54 1.305 . S
C638 C169 1.353 . S
C663 C203 1.353 . S
C668 C20 1.305 1_655 S
C693 C237 1.353 . S
C698 C122 1.305 . S
C723 C88 1.305 1_655 S
C728 C271 1.353 . S
C753 C77 1.297 . S
C758 C9 1.297 . S
C783 C43 1.297 . S
C788 C111 1.297 . S
C813 C213 1.297 . S
C818 C145 1.297 . S
C843 C247 1.297 . S
C848 C179 1.297 . S
