# Generated by pormake.
# Topology xff, (7)-cn, num edge types: 1
# Building blocks:
#     Node 0, Type 0, BuildingBlock: HICVOG_clean_sbu_0, # of connection points: 7
#     Node 1, Type 0, BuildingBlock: HICVOG_clean_sbu_0, # of connection points: 7
#     Node 2, Type 0, BuildingBlock: HICVOG_clean_sbu_0, # of connection points: 7
#     Node 3, Type 0, BuildingBlock: HICVOG_clean_sbu_0, # of connection points: 7
#     Node 4, Type 0, BuildingBlock: HICVOG_clean_sbu_0, # of connection points: 7
#     Node 5, Type 0, BuildingBlock: HICVOG_clean_sbu_0, # of connection points: 7
#     Node 6, Type 0, BuildingBlock: HICVOG_clean_sbu_0, # of connection points: 7
#     Node 7, Type 0, BuildingBlock: HICVOG_clean_sbu_0, # of connection points: 7
#     Node 8, Type 0, BuildingBlock: HICVOG_clean_sbu_0, # of connection points: 7
#     Node 9, Type 0, BuildingBlock: HICVOG_clean_sbu_0, # of connection points: 7
#     Node 10, Type 0, BuildingBlock: HICVOG_clean_sbu_0, # of connection points: 7
#     Node 11, Type 0, BuildingBlock: HICVOG_clean_sbu_0, # of connection points: 7
#     Node 12, Type 0, BuildingBlock: HICVOG_clean_sbu_0, # of connection points: 7
#     Node 13, Type 0, BuildingBlock: HICVOG_clean_sbu_0, # of connection points: 7
#     Node 14, Type 0, BuildingBlock: HICVOG_clean_sbu_0, # of connection points: 7
#     Node 15, Type 0, BuildingBlock: HICVOG_clean_sbu_0, # of connection points: 7
#     Edge 16, Type (0, 0), BuildingBlock: OJICUG_clean_linker_0, # of connection points: 2
#     Edge 17, Type (0, 0), BuildingBlock: OJICUG_clean_linker_0, # of connection points: 2
#     Edge 18, Type (0, 0), BuildingBlock: OJICUG_clean_linker_0, # of connection points: 2
#     Edge 19, Type (0, 0), BuildingBlock: OJICUG_clean_linker_0, # of connection points: 2
#     Edge 20, Type (0, 0), BuildingBlock: OJICUG_clean_linker_0, # of connection points: 2
#     Edge 21, Type (0, 0), BuildingBlock: OJICUG_clean_linker_0, # of connection points: 2
#     Edge 22, Type (0, 0), BuildingBlock: OJICUG_clean_linker_0, # of connection points: 2
#     Edge 23, Type (0, 0), BuildingBlock: OJICUG_clean_linker_0, # of connection points: 2
#     Edge 24, Type (0, 0), BuildingBlock: OJICUG_clean_linker_0, # of connection points: 2
#     Edge 25, Type (0, 0), BuildingBlock: OJICUG_clean_linker_0, # of connection points: 2
#     Edge 26, Type (0, 0), BuildingBlock: OJICUG_clean_linker_0, # of connection points: 2
#     Edge 27, Type (0, 0), BuildingBlock: OJICUG_clean_linker_0, # of connection points: 2
#     Edge 28, Type (0, 0), BuildingBlock: OJICUG_clean_linker_0, # of connection points: 2
#     Edge 29, Type (0, 0), BuildingBlock: OJICUG_clean_linker_0, # of connection points: 2
#     Edge 30, Type (0, 0), BuildingBlock: OJICUG_clean_linker_0, # of connection points: 2
#     Edge 31, Type (0, 0), BuildingBlock: OJICUG_clean_linker_0, # of connection points: 2
#     Edge 32, Type (0, 0), BuildingBlock: OJICUG_clean_linker_0, # of connection points: 2
#     Edge 33, Type (0, 0), BuildingBlock: OJICUG_clean_linker_0, # of connection points: 2
#     Edge 34, Type (0, 0), BuildingBlock: OJICUG_clean_linker_0, # of connection points: 2
#     Edge 35, Type (0, 0), BuildingBlock: OJICUG_clean_linker_0, # of connection points: 2
#     Edge 36, Type (0, 0), BuildingBlock: OJICUG_clean_linker_0, # of connection points: 2
#     Edge 37, Type (0, 0), BuildingBlock: OJICUG_clean_linker_0, # of connection points: 2
#     Edge 38, Type (0, 0), BuildingBlock: OJICUG_clean_linker_0, # of connection points: 2
#     Edge 39, Type (0, 0), BuildingBlock: OJICUG_clean_linker_0, # of connection points: 2
#     Edge 40, Type (0, 0), BuildingBlock: OJICUG_clean_linker_0, # of connection points: 2
#     Edge 41, Type (0, 0), BuildingBlock: OJICUG_clean_linker_0, # of connection points: 2
#     Edge 42, Type (0, 0), BuildingBlock: OJICUG_clean_linker_0, # of connection points: 2
#     Edge 43, Type (0, 0), BuildingBlock: OJICUG_clean_linker_0, # of connection points: 2
#     Edge 44, Type (0, 0), BuildingBlock: OJICUG_clean_linker_0, # of connection points: 2
#     Edge 45, Type (0, 0), BuildingBlock: OJICUG_clean_linker_0, # of connection points: 2
#     Edge 46, Type (0, 0), BuildingBlock: OJICUG_clean_linker_0, # of connection points: 2
#     Edge 47, Type (0, 0), BuildingBlock: OJICUG_clean_linker_0, # of connection points: 2
#     Edge 48, Type (0, 0), BuildingBlock: OJICUG_clean_linker_0, # of connection points: 2
#     Edge 49, Type (0, 0), BuildingBlock: OJICUG_clean_linker_0, # of connection points: 2
#     Edge 50, Type (0, 0), BuildingBlock: OJICUG_clean_linker_0, # of connection points: 2
#     Edge 51, Type (0, 0), BuildingBlock: OJICUG_clean_linker_0, # of connection points: 2
#     Edge 52, Type (0, 0), BuildingBlock: OJICUG_clean_linker_0, # of connection points: 2
#     Edge 53, Type (0, 0), BuildingBlock: OJICUG_clean_linker_0, # of connection points: 2
#     Edge 54, Type (0, 0), BuildingBlock: OJICUG_clean_linker_0, # of connection points: 2
#     Edge 55, Type (0, 0), BuildingBlock: OJICUG_clean_linker_0, # of connection points: 2
#     Edge 56, Type (0, 0), BuildingBlock: OJICUG_clean_linker_0, # of connection points: 2
#     Edge 57, Type (0, 0), BuildingBlock: OJICUG_clean_linker_0, # of connection points: 2
#     Edge 58, Type (0, 0), BuildingBlock: OJICUG_clean_linker_0, # of connection points: 2
#     Edge 59, Type (0, 0), BuildingBlock: OJICUG_clean_linker_0, # of connection points: 2
#     Edge 60, Type (0, 0), BuildingBlock: OJICUG_clean_linker_0, # of connection points: 2
#     Edge 61, Type (0, 0), BuildingBlock: OJICUG_clean_linker_0, # of connection points: 2
#     Edge 62, Type (0, 0), BuildingBlock: OJICUG_clean_linker_0, # of connection points: 2
#     Edge 63, Type (0, 0), BuildingBlock: OJICUG_clean_linker_0, # of connection points: 2
#     Edge 64, Type (0, 0), BuildingBlock: OJICUG_clean_linker_0, # of connection points: 2
#     Edge 65, Type (0, 0), BuildingBlock: OJICUG_clean_linker_0, # of connection points: 2
#     Edge 66, Type (0, 0), BuildingBlock: OJICUG_clean_linker_0, # of connection points: 2
#     Edge 67, Type (0, 0), BuildingBlock: OJICUG_clean_linker_0, # of connection points: 2
#     Edge 68, Type (0, 0), BuildingBlock: OJICUG_clean_linker_0, # of connection points: 2
#     Edge 69, Type (0, 0), BuildingBlock: OJICUG_clean_linker_0, # of connection points: 2
#     Edge 70, Type (0, 0), BuildingBlock: OJICUG_clean_linker_0, # of connection points: 2
#     Edge 71, Type (0, 0), BuildingBlock: OJICUG_clean_linker_0, # of connection points: 2
# Relax obj value: 0.407
# Max RMSD: 0.251
# Mean RMSD: 0.251
data_MOF--net-xff--node1-HICVOG_clean_sbu_0--edge1-OJICUG_clean_linker_0
_symmetry_space_group_name_H-M    P1
_symmetry_Int_Tables_number       1
_symmetry_cell_setting            triclinic
loop_
_symmetry_equiv_pos_as_xyz
'x, y, z'
_cell_length_a     21.218737
_cell_length_b     21.182076
_cell_length_c     53.795059
_cell_angle_alpha  89.697936
_cell_angle_beta   90.309658
_cell_angle_gamma 90.037328
loop_
_atom_site_label
_atom_site_type_symbol
_atom_site_fract_x
_atom_site_fract_y
_atom_site_fract_z
_atom_type_partial_charge
Zn0 Zn 0.2187 0.0806 0.04508 0.0
C1 C 0.24397 0.24212 0.00549 0.0
N2 N 0.22596 0.26667 0.02727 0.0
C3 C 0.22243 0.2164 0.04231 0.0
N4 N 0.23775 0.16282 0.03037 0.0
N5 N 0.25292 0.17828 0.00725 0.0
C6 C 0.26336 0.10447 0.93943 0.0
O7 O 0.2222 0.07003 0.95162 0.0
O8 O 0.25914 0.07441 0.07913 0.0
Zn9 Zn 0.30407 0.11914 -0.01171 0.0
N10 N 0.12857 0.08482 0.04894 0.0
C11 C 1.03112 0.11959 0.03153 0.0
C12 C 0.09403 0.10205 0.02865 0.0
C13 C 0.10223 0.08206 0.07185 0.0
N14 N 1.00562 0.12 0.05463 0.0
C15 C 1.03946 0.10118 0.07489 0.0
O16 O 0.28708 1.02332 -0.00818 0.0
C17 C 0.26379 0.98203 0.00646 0.0
O18 O 0.23743 0.99851 0.02659 0.0
H19 H 0.11613 0.10507 0.01061 0.0
H20 H 0.13131 0.07024 0.08781 0.0
C21 C 0.42008 0.18258 -0.00606 0.0
C22 C 0.48199 0.19151 0.00257 0.0
C23 C 0.47668 0.0927 0.02357 0.0
C24 C 0.41553 0.08395 0.0147 0.0
N25 N 0.38868 0.12911 8e-05 0.0
N26 N 0.50842 0.14609 0.01732 0.0
H27 H 0.39607 0.21771 -0.01723 0.0
C28 C 0.31426 0.09437 0.08422 0.0
O29 O 0.34849 0.12012 0.06661 0.0
O30 O 0.30244 0.13766 0.95163 0.0
H31 H 0.38948 1.04189 0.01964 0.0
H32 H 1.0034 0.13475 0.01566 0.0
H33 H 0.49876 0.05746 0.03534 0.0
Zn34 Zn 0.77699 0.49323 0.29422 0.0
C35 C 0.61363 0.52184 0.25497 0.0
N36 N 0.58962 0.51706 0.27788 0.0
C37 C 0.64083 0.51154 0.29223 0.0
N38 N 0.69468 0.51317 0.279 0.0
N39 N 0.67804 0.52129 0.25534 0.0
C40 C 0.77335 0.47256 0.18829 0.0
O41 O 0.82242 0.46108 0.20257 0.0
O42 O 0.78227 0.53399 0.32802 0.0
Zn43 Zn 0.73828 0.54622 0.22962 0.0
N44 N 0.7788 0.40263 0.29905 0.0
C45 C 0.78999 0.29938 0.28234 0.0
C46 C 0.78946 0.36488 0.27916 0.0
C47 C 0.76864 0.37755 0.32199 0.0
N48 N 0.77879 0.27429 0.30521 0.0
C49 C 0.76717 0.31182 0.3251 0.0
O50 O 0.83304 0.54584 0.23851 0.0
C51 C 0.87468 0.53508 0.25516 0.0
O52 O 0.85893 0.51549 0.2766 0.0
H53 H 0.79752 0.3856 0.26103 0.0
H54 H 0.76158 0.40849 0.33767 0.0
C55 C 0.67757 0.66795 0.23025 0.0
C56 C 0.66576 0.72875 0.22071 0.0
C57 C 0.74878 0.71479 0.19177 0.0
C58 C 0.7595 0.65436 0.20107 0.0
N59 N 0.72335 0.63208 0.21993 0.0
N60 N 0.70198 0.75024 0.20161 0.0
H61 H 0.64974 0.64817 0.24506 0.0
C62 C 0.76864 0.59135 0.33234 0.0
O63 O 0.74967 0.62801 0.314 0.0
O64 O 0.72551 0.49915 0.19765 0.0
H65 H 0.79566 0.62481 0.19312 0.0
H66 H 0.79878 0.26874 0.26672 0.0
H67 H 0.77669 0.733 0.17656 0.0
Zn68 Zn 0.39217 1.01577 0.54308 0.0
C69 C 0.35308 0.85787 0.50391 0.0
N70 N 0.37132 0.8324 0.5257 0.0
C71 C 0.37828 0.88239 0.54042 0.0
N72 N 0.3656 0.93662 0.52824 0.0
N73 N 0.34794 0.9222 0.50526 0.0
C74 C 0.35714 0.96526 0.43491 0.0
O75 O 0.41238 0.95888 0.44577 0.0
O76 O 0.35942 1.01999 0.57782 0.0
Zn77 Zn 0.30431 0.98671 0.48487 0.0
N78 N 0.48261 1.00897 0.54637 0.0
C79 C 0.5859 1.02122 0.52997 0.0
C80 C 0.52051 1.02393 0.52692 0.0
C81 C 0.50725 0.98975 0.56852 0.0
N82 N 0.61054 1.00444 0.55243 0.0
C83 C 0.57277 0.98783 0.57176 0.0
O84 O 0.33034 0.07979 0.48925 0.0
C85 C 0.3521 0.11859 0.50519 0.0
O86 O 0.37396 0.0994 0.52593 0.0
H87 H 0.50006 1.03858 0.50935 0.0
H88 H 0.47614 0.97878 0.58383 0.0
C89 C 0.18276 0.93244 0.49483 0.0
C90 C 0.11791 0.93428 0.50008 0.0
C91 C 0.12297 1.04599 0.50215 0.0
C92 C 0.18719 1.04388 0.49704 0.0
N93 N 0.21587 0.98722 0.49347 0.0
N94 N 0.08986 0.99134 0.50349 0.0
H95 H 0.20659 0.8884 0.49122 0.0
C96 C 0.30732 1.04142 0.58562 0.0
O97 O 0.26699 0.06651 0.56981 0.0
O98 O 0.30815 0.97188 0.4481 0.0
H99 H 0.21357 0.08732 0.49565 0.0
H100 H 0.61681 1.03372 0.51479 0.0
H101 H 0.09949 0.09072 0.50489 0.0
Zn102 Zn 0.81499 0.6324 0.79033 0.0
C103 C 0.97453 0.59753 0.75182 0.0
N104 N 0.99945 0.61944 0.77305 0.0
C105 C 0.94961 0.62683 0.78774 0.0
N106 N 0.89571 0.61057 0.77596 0.0
N107 N 0.91065 0.59022 0.75348 0.0
C108 C 0.86798 0.60459 0.68552 0.0
O109 O 0.87402 0.65723 0.69812 0.0
O110 O 0.81579 0.599 0.82507 0.0
Zn111 Zn 0.84867 0.5427 0.73366 0.0
N112 N 0.81767 0.72312 0.79262 0.0
C113 C 0.84324 0.82354 0.77525 0.0
C114 C 0.83041 0.75922 0.77228 0.0
C115 C 0.81563 0.74881 0.81561 0.0
N116 N 0.84423 0.84863 0.79848 0.0
C117 C 0.83042 0.81264 0.81875 0.0
O118 O 0.7546 0.56156 0.73864 0.0
C119 C 0.71417 0.58326 0.7538 0.0
O120 O 0.73158 0.6093 0.77392 0.0
H121 H 0.83279 0.73778 0.7541 0.0
H122 H 0.80706 0.7188 0.83157 0.0
C123 C 0.91303 0.42615 0.74262 0.0
C124 C 0.91759 0.3612 0.74741 0.0
C125 C 0.80639 0.35494 0.75 0.0
C126 C 0.80208 0.41959 0.74527 0.0
N127 N 0.85552 0.45389 0.74158 0.0
N128 N 0.86396 0.32708 0.7508 0.0
H129 H 0.95449 0.45408 0.73904 0.0
C130 C 0.83028 0.54312 0.83154 0.0
O131 O 0.84074 0.50042 0.81443 0.0
O132 O 0.86182 0.55254 0.69708 0.0
H133 H 0.7564 0.44192 0.74428 0.0
H134 H 0.85424 0.85282 0.75931 0.0
H135 H 0.7643 0.32703 0.75285 0.0
Zn136 Zn 0.81632 0.96555 -0.01634 0.0
C137 C 0.85804 0.86826 0.92168 0.0
N138 N 0.84943 0.81656 0.93553 0.0
C139 C 0.84221 0.83969 0.95849 0.0
N140 N 0.84415 0.90424 0.95861 0.0
N141 N 0.85576 0.92149 0.93527 0.0
C142 C 0.78546 1.00172 0.88136 0.0
O143 O 0.74681 0.98503 0.89922 0.0
O144 O 0.85382 0.95166 0.01782 0.0
Zn145 Zn 0.88108 1.00282 0.92064 0.0
N146 N 0.7273 0.95786 -0.01095 0.0
C147 C 0.63651 1.00332 0.00749 0.0
C148 C 0.70051 1.00559 0.00206 0.0
C149 C 0.69279 0.90783 0.98118 0.0
N150 N 0.60209 0.95285 0.0 0.0
C151 C 0.62834 0.90474 -0.01307 0.0
O152 O 0.86043 0.08543 0.9376 0.0
C153 C 0.8382 0.10132 0.95847 0.0
O154 O 0.8234 0.05975 0.9746 0.0
H155 H 0.72897 1.04481 0.00837 0.0
H156 H 0.71581 0.87039 0.97126 0.0
C157 C 0.99878 0.99321 0.89495 0.0
C158 C 0.06444 0.98828 0.89311 0.0
C159 C 0.07343 1.00059 0.93672 0.0
C160 C 1.00785 1.00389 0.93856 0.0
N161 N 0.97187 1.00015 0.91764 0.0
N162 N 0.1003 0.99288 0.91406 0.0
H163 H 0.96931 0.99123 0.87849 0.0
C164 C 0.8812 0.99847 0.02785 0.0
O165 O 0.89837 1.04619 0.01377 0.0
O166 O 0.84342 1.01089 0.88629 0.0
H167 H 0.98567 1.00932 0.95649 0.0
H168 H 0.61455 1.04088 0.01787 0.0
H169 H 0.1027 1.00375 0.9532 0.0
Zn170 Zn 0.31112 0.6188 0.67032 0.0
C171 C 0.47259 0.59628 0.71078 0.0
N172 N 0.49632 0.61753 0.68921 0.0
C173 C 0.4459 0.62103 0.67436 0.0
N174 N 0.39296 0.60321 0.68614 0.0
N175 N 0.40895 0.58604 0.7091 0.0
C176 C 0.37203 0.59227 0.77904 0.0
O177 O 0.37989 0.64686 0.76778 0.0
O178 O 0.30508 0.57631 0.637 0.0
Zn179 Zn 0.34851 0.53772 0.72935 0.0
N180 N 0.30818 0.70891 0.66462 0.0
C181 C 0.27954 0.81099 0.67897 0.0
C182 C 0.28377 0.74592 0.68274 0.0
C183 C 0.32985 0.73442 0.64304 0.0
N184 N 0.30003 0.8364 0.65723 0.0
C185 C 0.32586 0.79992 0.63921 0.0
O186 O 0.25451 0.55758 0.72525 0.0
C187 C 0.21376 0.57655 0.70941 0.0
O188 O 0.23037 0.59814 0.68842 0.0
H189 H 0.26722 0.72488 0.69987 0.0
H190 H 0.34809 0.70379 0.62875 0.0
C191 C 0.41183 0.42262 0.719 0.0
C192 C 0.41642 0.35833 0.71334 0.0
C193 C 0.30522 0.35234 0.71009 0.0
C194 C 0.30085 0.41635 0.71577 0.0
N195 N 0.35429 0.45011 0.72021 0.0
N196 N 0.36282 0.32461 0.70921 0.0
H197 H 0.45328 0.45021 0.72317 0.0
C198 C 0.30679 0.51709 0.63332 0.0
O199 O 0.31485 0.47831 0.65221 0.0
O200 O 0.36354 0.54275 0.76623 0.0
H201 H 0.25516 0.43856 0.71688 0.0
H202 H 0.25956 0.84099 0.69309 0.0
H203 H 0.26317 0.32476 0.70666 0.0
Zn204 Zn 0.80193 0.12773 0.48141 0.0
C205 C 0.73441 0.23403 0.42581 0.0
N206 N 0.742 0.28416 0.44039 0.0
C207 C 0.75701 0.25835 0.4625 0.0
N208 N 0.75965 0.1938 0.46144 0.0
N209 N 0.74396 0.17959 0.43824 0.0
C210 C 0.79621 0.0711 0.38263 0.0
O211 O 0.83567 1.04686 0.39897 0.0
O212 O 0.8039 0.14105 0.51832 0.0
Zn213 Zn 0.71023 0.10267 0.42411 0.0
N214 N 0.88887 0.12515 0.47124 0.0
C215 C 0.98041 0.06606 0.46097 0.0
C216 C 0.91699 0.06831 0.46747 0.0
C217 C 0.92156 0.17985 0.46875 0.0
N218 N 1.0132 0.12073 0.45857 0.0
C219 C 0.98548 0.17788 0.46217 0.0
O220 O 0.72176 1.01808 0.44154 0.0
C221 C 0.74654 0.99795 0.46163 0.0
O222 O 0.77305 1.0358 0.47679 0.0
H223 H 0.89076 1.02498 0.46972 0.0
H224 H 0.89816 0.22403 0.47254 0.0
C225 C 0.59729 0.12001 0.39657 0.0
C226 C 0.53723 0.14504 0.39194 0.0
C227 C 0.5272 0.16855 0.43473 0.0
C228 C 0.58752 0.14426 0.43921 0.0
N229 N 0.62147 0.12087 0.41998 0.0
N230 N 0.50365 0.1691 0.41116 0.0
H231 H 0.6258 0.10285 0.38144 0.0
C232 C 0.76151 0.15721 0.53358 0.0
O233 O 0.70601 0.1753 0.52533 0.0
O234 O 0.74432 0.09426 0.38983 0.0
H235 H 0.60808 0.14623 0.45764 0.0
H236 H 1.00355 1.02126 0.45801 0.0
H237 H 0.49989 0.18807 0.44978 0.0
Zn238 Zn 0.27322 0.47168 0.17248 0.0
C239 C 0.11242 0.51846 0.20981 0.0
N240 N 0.08799 0.50054 0.18789 0.0
C241 C 0.1387 0.48768 0.17429 0.0
N242 N 0.19269 0.49757 0.18705 0.0
N243 N 0.17707 0.51834 0.2095 0.0
C244 C 0.22601 0.49 0.28015 0.0
O245 O 0.21913 0.43622 0.26839 0.0
O246 O 0.27945 0.51012 0.13804 0.0
Zn247 Zn 0.24127 0.55771 0.23135 0.0
N248 N 0.26617 0.38107 0.1694 0.0
C249 C 0.23419 0.28305 0.18721 0.0
C250 C 0.25015 0.34668 0.18982 0.0
C251 C 0.26884 0.35403 0.14661 0.0
N252 N 0.23355 0.25681 0.16421 0.0
C253 C 0.25069 0.29072 0.14378 0.0
O254 O 0.33446 0.53922 0.22442 0.0
C255 C 0.37474 0.51613 0.20954 0.0
O256 O 0.35724 0.48935 0.18962 0.0
H257 H 0.24761 0.36915 0.2078 0.0
H258 H 0.27992 0.38295 0.13056 0.0
C259 C 0.18216 0.67745 0.22291 0.0
C260 C 0.17968 0.74352 0.22281 0.0
C261 C 0.28902 0.74741 0.23177 0.0
C262 C 0.29089 0.68168 0.23242 0.0
N263 N 0.23745 0.64804 0.22794 0.0
N264 N 0.23333 0.77689 0.22733 0.0
H265 H 0.1402 0.64967 0.22017 0.0
C266 C 0.26436 0.56699 0.13313 0.0
O267 O 0.24392 0.6035 0.15103 0.0
O268 O 0.23072 0.54114 0.26787 0.0
H269 H 0.33422 0.65773 0.23703 0.0
H270 H 0.22049 0.25528 0.20323 0.0
H271 H 0.33114 0.77477 0.23529 0.0
Zn272 Zn 0.70272 0.59452 0.54267 0.0
C273 C 0.71613 0.75359 0.50052 0.0
N274 N 0.69054 0.77781 0.52113 0.0
C275 C 0.68995 0.72943 0.53716 0.0
N276 N 0.71219 0.67659 0.52645 0.0
N277 N 0.73132 0.6914 0.50372 0.0
C278 C 0.75216 0.66098 0.43546 0.0
O279 O 0.6956 0.67084 0.44444 0.0
O280 O 0.74511 0.59351 0.57625 0.0
Zn281 Zn 0.79078 0.6349 0.48697 0.0
N282 N 0.61322 0.58503 0.5477 0.0
C283 C 0.51069 0.56506 0.53127 0.0
C284 C 0.57577 0.57031 0.52797 0.0
C285 C 0.58834 0.59474 0.57055 0.0
N286 N 0.48569 0.57572 0.55408 0.0
C287 C 0.52298 0.59144 0.57374 0.0
O288 O 0.77587 0.53906 0.48963 0.0
C289 C 0.75499 0.49791 0.5049 0.0
O290 O 0.72865 0.51437 0.52497 0.0
H291 H 0.59637 0.56282 0.50987 0.0
H292 H 0.61917 0.6052 0.58608 0.0
C293 C 0.9062 0.70024 0.49745 0.0
C294 C 0.96458 0.70921 0.50956 0.0
C295 C 0.95181 0.61002 0.52983 0.0
C296 C 0.89384 0.60203 0.51809 0.0
N297 N 0.87214 0.64729 0.50223 0.0
N298 N 0.9855 0.66324 0.52538 0.0
H299 H 0.88765 0.73402 0.48422 0.0
C300 C 0.79741 0.61881 0.58212 0.0
O301 O 0.82951 0.65038 0.56537 0.0
O302 O 0.79789 0.65036 0.45023 0.0
H303 H 0.86611 0.56035 0.52184 0.0
H304 H 0.48027 0.55299 0.5158 0.0
H305 H 0.9697 0.57455 0.54256 0.0
Zn306 Zn 0.23706 0.06165 0.73722 0.0
C307 C 0.14334 0.97563 0.79249 0.0
N308 N 0.09148 0.98321 0.77866 0.0
C309 C 0.11387 1.00603 0.75712 0.0
N310 N 0.17795 1.01339 0.75785 0.0
N311 N 0.19575 0.99282 0.78014 0.0
C312 C 0.30332 0.0528 0.83553 0.0
O313 O 0.32067 0.09667 0.81962 0.0
O314 O 0.21936 1.05177 0.70077 0.0
Zn315 Zn 0.27758 0.96649 0.79299 0.0
N316 N 0.22789 0.14958 0.74509 0.0
C317 C 0.27104 0.24792 0.75775 0.0
C318 C 0.27885 0.18441 0.75195 0.0
C319 C 0.16964 0.17554 0.74361 0.0
N320 N 0.21264 0.27389 0.75638 0.0
C321 C 0.1612 0.23961 0.74937 0.0
O322 O 0.35893 0.98683 0.7745 0.0
C323 C 0.37426 1.01783 0.75514 0.0
O324 O 0.33223 1.04409 0.74158 0.0
H325 H 0.32507 0.16311 0.75297 0.0
H326 H 0.13086 0.14565 0.73835 0.0
C327 C 0.26355 0.85131 0.8193 0.0
C328 C 0.24634 0.78795 0.82244 0.0
C329 C 0.24272 0.77594 0.77872 0.0
C330 C 0.2592 0.83949 0.77567 0.0
N331 N 0.26903 0.8759 0.79606 0.0
N332 N 0.23606 0.75167 0.80203 0.0
H333 H 0.26986 0.88147 0.83528 0.0
C334 C 0.25203 1.01017 0.68987 0.0
O335 O 0.28605 0.971 0.70337 0.0
O336 O 0.28626 0.99898 0.82768 0.0
H337 H 0.26214 0.86014 0.75727 0.0
H338 H 0.31101 0.27641 0.76327 0.0
H339 H 0.2342 0.74646 0.76269 0.0
Zn340 Zn 0.8207 0.46582 0.97896 0.0
C341 C 0.86511 0.36612 0.04037 0.0
N342 N 0.85111 0.3151 0.02698 0.0
C343 C 0.84181 0.33875 0.0041 0.0
N344 N 0.84781 0.40298 0.00362 0.0
N345 N 0.86406 0.41943 0.02657 0.0
C346 C 0.80972 0.50155 0.08273 0.0
O347 O 0.76316 0.49643 0.06667 0.0
O348 O 0.85763 0.45173 0.94515 0.0
Zn349 Zn 0.89711 0.49853 0.04009 0.0
N350 N 0.73152 0.46022 0.97332 0.0
C351 C 0.64146 0.50577 0.95378 0.0
C352 C 0.70561 0.50723 0.95934 0.0
C353 C 0.69598 0.41194 0.98213 0.0
N354 N 0.60603 0.45684 0.96216 0.0
C355 C 0.63145 0.40965 0.97629 0.0
O356 O 0.87825 0.58357 0.02371 0.0
C357 C 0.85018 0.60028 0.00384 0.0
O358 O 0.83026 0.55921 -0.01153 0.0
H359 H 0.73486 0.54523 0.95241 0.0
H360 H 0.71821 0.37511 -0.00709 0.0
C361 C 1.01377 0.49689 0.06584 0.0
C362 C 0.07497 0.47525 0.07087 0.0
C363 C 0.08241 0.43871 0.02943 0.0
C364 C 1.02059 0.45857 0.02475 0.0
N365 N 0.9873 0.48655 0.04318 0.0
N366 N 0.10778 0.44631 0.05251 0.0
H367 H 0.98571 0.5175 0.08043 0.0
C368 C 0.88547 0.49819 0.93505 0.0
O369 O 0.90377 0.54543 0.94903 0.0
O370 O 0.86603 0.50492 0.075 0.0
H371 H 0.99846 0.44948 0.00696 0.0
H372 H 0.62015 0.54272 0.94261 0.0
H373 H 0.10927 0.41555 0.01507 0.0
Zn374 Zn 0.36862 1.0491 0.23829 0.0
C375 C 0.46578 0.14851 0.28902 0.0
N376 N 0.51558 0.14122 0.27422 0.0
C377 C 0.49105 0.1146 0.25373 0.0
N378 N 0.42767 0.10449 0.25604 0.0
N379 N 0.41247 0.12733 0.27814 0.0
C380 C 0.35082 1.04057 0.33181 0.0
O381 O 0.37802 1.00858 0.31401 0.0
O382 O 0.37966 1.04975 0.20119 0.0
Zn383 Zn 0.33112 0.14066 0.29414 0.0
N384 N 0.38375 0.96504 0.25026 0.0
C385 C 0.35542 0.87725 0.27553 0.0
C386 C 0.34244 0.93733 0.26615 0.0
C387 C 0.43692 0.93504 0.24301 0.0
N388 N 0.40879 0.8472 0.26838 0.0
C389 C 0.44997 0.8742 0.25215 0.0
O390 O 0.24924 0.11943 0.27613 0.0
C391 C 0.23248 0.08882 0.25694 0.0
O392 O 0.27344 0.06378 0.24282 0.0
H393 H 0.30039 0.9621 0.27179 0.0
H394 H 0.46882 0.95921 0.23058 0.0
C395 C 0.3367 0.25076 0.32416 0.0
C396 C 0.35045 0.31454 0.32867 0.0
C397 C 0.34361 0.33541 0.28542 0.0
C398 C 0.33219 0.27147 0.28097 0.0
N399 N 0.32991 0.23037 0.30043 0.0
N400 N 0.3537 0.35531 0.30909 0.0
H401 H 0.33674 0.21662 0.33919 0.0
C402 C 0.38749 0.0984 0.18764 0.0
O403 O 0.39699 0.15348 0.19812 0.0
O404 O 0.32886 0.09529 0.32727 0.0
H405 H 0.32766 0.25426 0.26215 0.0
H406 H 0.32341 0.85465 0.28839 0.0
H407 H 0.34641 0.36861 0.27011 0.0
Zn408 Zn 0.30463 0.48096 0.47839 0.0
C409 C 0.40866 0.38695 0.42924 0.0
N410 N 0.40974 0.33926 0.44561 0.0
C411 C 0.38272 0.36313 0.46601 0.0
N412 N 0.3655 0.42467 0.46239 0.0
N413 N 0.38436 0.4393 0.43963 0.0
C414 C 0.30109 0.49005 0.38356 0.0
O415 O 0.27209 0.45616 0.40049 0.0
O416 O 0.29228 0.46383 0.5148 0.0
Zn417 Zn 0.39264 0.52125 0.42334 0.0
N418 N 0.22527 0.46896 0.46161 0.0
C419 C 0.14771 0.50511 0.43287 0.0
C420 C 0.20424 0.51417 0.44559 0.0
C421 C 0.19202 0.41512 0.46559 0.0
N422 N 0.1148 0.45099 0.43656 0.0
C423 C 0.13522 0.40512 0.45253 0.0
O424 O 0.36646 0.60149 0.44092 0.0
C425 C 0.3413 0.618 0.46123 0.0
O426 O 0.32085 0.57681 0.47659 0.0
H427 H 0.2314 0.55658 0.4425 0.0
H428 H 0.20996 0.38142 0.47898 0.0
C429 C 0.50818 0.53675 0.39666 0.0
C430 C 0.57365 0.53227 0.39402 0.0
C431 C 0.5849 0.52222 0.43764 0.0
C432 C 0.51944 0.52441 0.44016 0.0
N433 N 0.48246 0.53052 0.41956 0.0
N434 N 0.61055 0.52487 0.41457 0.0
H435 H 0.4777 0.54042 0.38051 0.0
C436 C 0.33468 0.44985 0.53063 0.0
O437 O 0.39227 0.43814 0.52314 0.0
O438 O 0.35098 0.52014 0.38935 0.0
H439 H 0.49808 0.5194 0.45828 0.0
H440 H 0.13034 0.54052 0.41999 0.0
H441 H 0.61493 0.51658 0.45382 0.0
Zn442 Zn 0.86643 1.04473 0.23128 0.0
C443 C 0.9664 0.12171 0.17645 0.0
N444 N 1.01691 0.11509 0.19111 0.0
C445 C 0.99233 0.09732 0.21298 0.0
N446 N 0.92813 0.09169 0.21165 0.0
N447 N 0.91275 0.10831 0.18865 0.0
C448 C 0.84064 1.04081 0.13245 0.0
O449 O 0.84924 0.9963 0.14922 0.0
O450 O 0.88427 1.05007 0.26776 0.0
Zn451 Zn 0.8322 0.13096 0.17407 0.0
N452 N 0.8734 0.95883 0.22116 0.0
C453 C 0.83297 0.86755 0.20126 0.0
C454 C 0.82449 0.92869 0.20996 0.0
C455 C 0.93016 0.93073 0.2241 0.0
N456 N 0.88997 0.83923 0.20411 0.0
C457 C 0.93924 0.86906 0.21542 0.0
O458 O 0.74891 0.11099 0.19117 0.0
C459 C 0.73127 0.08617 0.21155 0.0
O460 O 0.77155 0.06408 0.22697 0.0
H461 H 0.77974 0.9522 0.2074 0.0
H462 H 0.96762 0.95772 0.23247 0.0
C463 C 0.83358 0.24697 0.14799 0.0
C464 C 0.85476 0.30871 0.14384 0.0
C465 C 0.88015 0.31771 0.1866 0.0
C466 C 0.86057 0.25549 0.19053 0.0
N467 N 0.83875 0.22117 0.17102 0.0
N468 N 0.87814 0.34248 0.16325 0.0
H469 H 0.81812 0.21795 0.13263 0.0
C470 C 0.85493 0.09431 0.27849 0.0
O471 O 0.8247 0.13612 0.26481 0.0
O472 O 0.83041 0.09713 0.13935 0.0
H473 H 0.86574 0.23368 0.20866 0.0
H474 H 0.79489 0.84329 0.19196 0.0
H475 H 0.89892 0.3453 0.2018 0.0
Zn476 Zn 0.2987 0.61685 0.97861 0.0
C477 C 0.21737 0.71864 0.92472 0.0
N478 N 0.22508 0.76865 0.93947 0.0
C479 C 0.24384 0.74328 0.96119 0.0
N480 N 0.24908 0.67898 0.9597 0.0
N481 N 0.2308 0.66432 0.9368 0.0
C482 C 0.30473 0.59344 0.88279 0.0
O483 O 0.3409 0.61748 0.90022 0.0
O484 O 0.30021 0.62955 0.01564 0.0
Zn485 Zn 0.20797 0.58335 0.92176 0.0
N486 N 0.38354 0.6242 0.96687 0.0
C487 C 0.47128 0.58424 0.94465 0.0
C488 C 0.40979 0.57738 0.95321 0.0
C489 C 0.41589 0.67755 0.97231 0.0
N490 N 0.50393 0.63752 0.9502 0.0
C491 C 0.47812 0.68463 0.96397 0.0
O492 O 0.2244 0.49966 0.94028 0.0
C493 C 0.2524 0.48237 0.96018 0.0
O494 O 0.27794 0.52291 0.97447 0.0
H495 H 0.38313 0.53535 0.94884 0.0
H496 H 0.39241 0.71396 -0.01726 0.0
C497 C 0.09199 0.58874 0.89346 0.0
C498 C 1.03038 0.61127 0.88946 0.0
C499 C 1.02218 0.6341 0.9324 0.0
C500 C 0.08378 0.61303 0.93621 0.0
N501 N 0.11786 0.59192 0.91661 0.0
N502 N 0.99734 0.63386 0.90909 0.0
H503 H 0.12076 0.57387 0.878 0.0
C504 C 0.25335 0.63967 0.02966 0.0
O505 O 0.19781 0.65122 0.01976 0.0
O506 O 0.24885 0.57631 0.88801 0.0
H507 H 0.10546 0.61639 0.9544 0.0
H508 H 0.49293 0.54758 0.93368 0.0
H509 H 0.99497 0.65231 0.94773 0.0
Zn510 Zn 0.77804 0.97481 0.67195 0.0
C511 C 0.614 1.00058 0.70962 0.0
N512 N 0.59156 0.97664 0.68824 0.0
C513 C 0.64294 0.97155 0.67415 0.0
N514 N 0.69509 0.99149 0.68622 0.0
N515 N 0.67769 1.01092 0.70856 0.0
C516 C 0.7137 1.00631 0.77798 0.0
O517 O 0.7059 0.95204 0.76668 0.0
O518 O 0.78803 1.02078 0.63925 0.0
Zn519 Zn 0.73694 0.06134 0.72859 0.0
N520 N 0.77419 0.88553 0.66526 0.0
C521 C 0.7602 0.78056 0.68035 0.0
C522 C 0.77434 0.84404 0.68463 0.0
C523 C 0.76135 0.8661 0.64177 0.0
N524 N 0.74578 0.76137 0.65692 0.0
C525 C 0.74613 0.80267 0.63748 0.0
O526 O 0.8316 1.04338 0.72538 0.0
C527 C 0.87368 1.01899 0.71163 0.0
O528 O 0.8586 0.99119 0.69159 0.0
H529 H 0.78316 0.86063 0.70332 0.0
H530 H 0.75986 0.90034 0.62677 0.0
C531 C 0.66927 0.17366 0.71955 0.0
C532 C 0.66024 0.23713 0.71266 0.0
C533 C 0.76994 0.24544 0.70434 0.0
C534 C 0.77835 0.18265 0.71141 0.0
N535 N 0.72772 0.14815 0.71878 0.0
N536 N 0.71136 0.27108 0.70512 0.0
H537 H 0.63095 0.14378 0.72526 0.0
C538 C 0.78436 0.08022 0.63605 0.0
O539 O 0.77231 0.11684 0.65508 0.0
O540 O 0.722 0.05625 0.76526 0.0
H541 H 0.82473 0.16163 0.71094 0.0
H542 H 0.75951 0.74706 0.69559 0.0
H543 H 0.8096 0.27368 0.69834 0.0
C544 C 0.18773 0.23703 0.11063 0.0
C545 C 0.24514 0.26314 0.11881 0.0
H546 H 0.13415 0.20438 0.0792 0.0
C547 C 0.29535 0.26866 0.10216 0.0
H548 H 0.14787 0.23393 0.12308 0.0
C549 C 0.28807 0.24959 0.0776 0.0
C550 C 0.23041 0.22505 0.06916 0.0
H551 H 0.33983 0.28899 0.10804 0.0
H552 H 0.32705 0.25595 0.06487 0.0
C553 C 0.18001 0.2193 0.08573 0.0
C554 C 0.59669 0.58173 0.35325 0.0
C555 C 0.6011 0.5294 0.36914 0.0
H556 H 0.60872 0.61687 0.3162 0.0
C557 C 0.62367 0.47175 0.36004 0.0
H558 H 0.57802 0.62612 0.35989 0.0
C559 C 0.6395 0.46606 0.33495 0.0
C560 C 0.63587 0.51858 0.31916 0.0
H561 H 0.62492 0.43031 0.37192 0.0
H562 H 0.65055 0.42013 0.32755 0.0
C563 C 0.61427 0.57641 0.32844 0.0
C564 C 0.41697 0.83828 0.58065 0.0
C565 C 0.37254 0.87428 0.5674 0.0
H566 H 0.43742 0.78757 0.61434 0.0
C567 C 0.31448 0.88825 0.57844 0.0
H568 H 0.46117 0.82514 0.57212 0.0
C569 C 0.30071 0.86636 0.60231 0.0
C570 C 0.34419 0.82872 0.61529 0.0
H571 H 0.2783 0.91324 0.56805 0.0
H572 H 0.25486 0.87633 0.61013 0.0
C573 C 0.40301 0.81597 0.60454 0.0
C574 C 1.00463 0.56143 0.84882 0.0
C575 C 1.00306 0.61456 0.86419 0.0
H576 H 0.98609 0.52404 0.81266 0.0
C577 C 0.97763 0.67141 0.85489 0.0
H578 H 1.02361 0.51707 0.85562 0.0
C579 C 0.95691 0.67566 0.83012 0.0
C580 C 0.95902 0.62243 0.81478 0.0
H581 H 0.97667 0.71323 0.86639 0.0
H582 H 0.94211 0.72086 0.8227 0.0
C583 C 0.98261 0.56531 0.82441 0.0
C584 C 0.89477 0.8574 0.8533 0.0
C585 C 0.83589 0.83817 0.84397 0.0
H586 H 0.9489 0.87858 0.88608 0.0
C587 C 0.78436 0.83363 0.86003 0.0
H588 H 0.93563 0.8587 0.84131 0.0
C589 C 0.79159 0.84736 0.88515 0.0
C590 C 0.85055 0.86533 0.89466 0.0
H591 H 0.73894 0.8176 0.85324 0.0
H592 H 0.7515 0.8419 0.89738 0.0
C593 C 0.90232 0.86958 0.87871 0.0
C594 C 0.48046 0.66896 0.63443 0.0
C595 C 0.45408 0.61803 0.6474 0.0
H596 H 0.52087 0.70104 0.60017 0.0
C597 C 0.44947 0.55905 0.63581 0.0
H598 H 0.48748 0.7139 0.64356 0.0
C599 C 0.46888 0.5514 0.61129 0.0
C600 C 0.49525 0.60219 0.59831 0.0
H601 H 0.43424 0.51796 0.64622 0.0
H602 H 0.46679 0.50503 0.60294 0.0
C603 C 0.50031 0.6613 0.60987 0.0
C604 C 0.79161 0.22669 0.38607 0.0
C605 C 0.73571 0.24102 0.39867 0.0
H606 H 0.84485 0.2373 0.35248 0.0
C607 C 0.68852 0.2757 0.38643 0.0
H608 H 0.82974 0.20244 0.39559 0.0
C609 C 0.69764 0.29662 0.362 0.0
C610 C 0.75433 0.28367 0.34965 0.0
H611 H 0.64589 0.28889 0.39611 0.0
H612 H 0.6612 0.32435 0.35299 0.0
C613 C 0.80061 0.2473 0.36162 0.0
C614 C 0.09854 0.53663 0.10911 0.0
C615 C 0.10088 0.4792 0.09633 0.0
H616 H 0.11042 0.58376 0.1439 0.0
C617 C 0.12078 0.42444 0.10901 0.0
H618 H 0.08266 0.57927 0.0998 0.0
C619 C 0.13549 0.42688 0.13444 0.0
C620 C 0.13338 0.4845 0.14709 0.0
H621 H 0.12099 0.37924 0.09967 0.0
H622 H 0.14497 0.38351 0.14445 0.0
C623 C 0.11459 0.53919 0.13424 0.0
C624 C 0.67283 0.75269 0.60663 0.0
C625 C 0.73115 0.78099 0.61221 0.0
H626 H 0.61203 0.71793 0.57756 0.0
C627 C 0.77473 0.79131 0.59319 0.0
H628 H 0.63784 0.74609 0.62101 0.0
C629 C 0.76096 0.77252 0.56904 0.0
C630 C 0.7031 0.74365 0.56336 0.0
H631 H 0.81969 0.81358 0.59706 0.0
H632 H 0.79555 0.7809 0.55463 0.0
C633 C 0.65832 0.73559 0.58209 0.0
C634 C 0.10623 0.92042 0.83057 0.0
C635 C 0.13817 0.97142 0.81964 0.0
H636 H 0.05805 0.88571 0.86291 0.0
C637 C 0.1491 1.0261 0.83364 0.0
H638 H 0.09517 0.87879 0.81977 0.0
C639 C 0.12791 1.03017 0.85811 0.0
C640 C 0.09432 0.98007 0.86875 0.0
H641 H 0.17041 0.0673 0.82511 0.0
H642 H 0.13489 0.07368 0.86827 0.0
C643 C 0.08452 0.92465 0.85503 0.0
C644 C 0.91394 0.35312 0.10774 0.0
C645 C 0.85658 0.334 0.11837 0.0
H646 H 0.96224 0.37702 0.07392 0.0
C647 C 0.80204 0.33182 0.10363 0.0
H648 H 0.95678 0.35381 0.11878 0.0
C649 C 0.80502 0.34635 0.07842 0.0
C650 C 0.86253 0.36332 0.06753 0.0
H651 H 0.75747 0.31697 0.11148 0.0
H652 H 0.76268 0.34224 0.06718 0.0
C653 C 0.91707 0.3669 0.08226 0.0
C654 C 0.51122 0.09076 0.35247 0.0
C655 C 0.51183 0.14642 0.3664 0.0
H656 H 0.49563 1.04878 0.31694 0.0
C657 C 0.49402 0.20363 0.35501 0.0
H658 H 0.52589 1.04637 0.36075 0.0
C659 C 0.47757 0.20505 0.3297 0.0
C660 C 0.47548 0.14889 0.31605 0.0
H661 H 0.49602 0.24742 0.3653 0.0
H662 H 0.46834 0.24989 0.32067 0.0
C663 C 0.49342 0.09208 0.32754 0.0
C664 C 0.41757 0.3752 0.35885 0.0
C665 C 0.36519 0.33614 0.35409 0.0
H666 H 0.47538 0.41906 0.38683 0.0
C667 C 0.32845 0.31493 0.374 0.0
H668 H 0.44737 0.39105 0.34377 0.0
C669 C 0.34345 0.33239 0.39817 0.0
C670 C 0.39572 0.37121 0.40309 0.0
H671 H 0.28763 0.28521 0.37086 0.0
H672 H 0.31364 0.31581 0.41315 0.0
C673 C 0.43337 0.39179 0.38334 0.0
C674 C 0.97224 0.1693 0.13382 0.0
C675 C 0.97358 0.11627 0.14949 0.0
H676 H 0.9907 0.20537 0.09715 0.0
C677 C 0.99326 0.05787 0.14011 0.0
H678 H 0.96021 0.21525 0.14107 0.0
C679 C 1.01264 0.05257 0.11552 0.0
C680 C 1.01219 0.10557 0.09987 0.0
H681 H 0.99591 1.01673 0.15214 0.0
H682 H 1.0293 1.0074 0.10887 0.0
C683 C 0.99039 0.16372 0.10892 0.0
C684 C 0.173 0.72336 0.8813 0.0
C685 C 0.22432 0.72676 0.89776 0.0
H686 H 0.14043 0.73821 0.84375 0.0
C687 C 0.28287 0.74785 0.88901 0.0
H688 H 0.12664 0.71136 0.88805 0.0
C689 C 0.29027 0.76535 0.86424 0.0
C690 C 0.23935 0.76169 0.84766 0.0
H691 H 0.32263 0.75255 0.90161 0.0
H692 H 0.33556 0.78307 0.85811 0.0
C693 C 0.18079 0.73953 0.85616 0.0
C694 C 0.62818 1.02968 0.60856 0.0
C695 C 0.59993 0.97822 0.59672 0.0
H696 H 0.65979 0.0682 0.64303 0.0
C697 C 0.59091 0.9216 0.61 0.0
H698 H 0.63315 0.07441 0.59891 0.0
C699 C 0.60941 0.9172 0.63504 0.0
C700 C 0.63671 0.96943 0.64696 0.0
H701 H 0.56787 0.88174 0.60126 0.0
H702 H 0.60014 0.87412 0.64533 0.0
C703 C 0.64475 1.02576 0.63361 0.0
C704 C 0.31488 0.89156 -0.01629 0.0
C705 C 0.26763 0.91332 -0.00022 0.0
H706 H 0.34753 0.81664 0.96046 0.0
C707 C 0.22258 0.86928 0.00824 0.0
H708 H 0.351 0.92355 0.97707 0.0
C709 C 0.22087 0.80731 -0.00129 0.0
C710 C 0.26504 0.78729 0.98098 0.0
H711 H 0.18561 0.88408 0.02073 0.0
H712 H 0.18104 0.77745 0.00323 0.0
C713 C 0.31392 0.82943 0.97468 0.0
C714 C 1.02288 0.58588 0.2211 0.0
C715 C 0.06773 0.54089 0.22908 0.0
H716 H 0.92731 0.61847 0.2225 0.0
C717 C 1.0511 0.50065 0.24889 0.0
H718 H 1.03298 0.61608 0.2053 0.0
C719 C 0.98957 0.50186 0.25883 0.0
C720 C 0.94301 0.54233 0.24876 0.0
H721 H 0.08323 0.46381 0.25487 0.0
H722 H 0.97703 0.46738 0.2729 0.0
C723 C 0.96146 0.5862 0.23055 0.0
C724 C 0.30993 0.27642 0.47509 0.0
C725 C 0.35763 0.31664 0.48404 0.0
H726 H 0.27183 0.18265 0.47397 0.0
C727 C 0.39852 0.29293 0.50253 0.0
H728 H 0.28011 0.29189 0.45984 0.0
C729 C 0.39449 0.22962 0.51053 0.0
C730 C 0.35066 0.18793 0.49964 0.0
H731 H 0.43779 0.32131 0.50895 0.0
H732 H 0.4289 0.21217 0.52382 0.0
C733 C 0.30676 0.21293 0.48257 0.0
C734 C 0.62432 0.53008 0.73147 0.0
C735 C 0.64537 0.57715 0.74784 0.0
H736 H 0.54979 0.49676 0.70818 0.0
C737 C 0.60046 0.61987 0.75718 0.0
H738 H 0.65706 0.49584 0.72408 0.0
C739 C 0.53785 0.61965 0.74819 0.0
C740 C 0.51833 0.5758 0.73014 0.0
H741 H 0.61485 0.65664 0.76993 0.0
H742 H 0.50686 0.65795 0.75335 0.0
C743 C 0.56181 0.52922 0.72294 0.0
C744 C 0.77779 0.25006 -0.01082 0.0
C745 C 0.82559 0.29424 -0.01614 0.0
H746 H 0.74529 0.15461 -0.014 0.0
C747 C 0.87191 0.27733 0.96652 0.0
H748 H 0.74232 0.26082 0.00295 0.0
C749 C 0.87369 0.21567 0.95671 0.0
C750 C 0.82995 0.16956 0.96453 0.0
H751 H 0.91056 0.30929 0.96264 0.0
H752 H 0.91236 0.20267 0.94472 0.0
C753 C 0.78036 0.18846 0.97995 0.0
C754 C 0.06229 0.52815 0.74146 0.0
C755 C 1.01896 0.57383 0.73295 0.0
H756 H 0.15726 0.49411 0.74135 0.0
C757 C 1.03807 0.61469 0.71372 0.0
H758 H 1.05045 0.49821 0.75711 0.0
C759 C 0.10048 0.61331 0.70487 0.0
C760 C 0.1453 0.5719 0.71548 0.0
H761 H 1.00707 0.65222 0.70747 0.0
H762 H 0.11482 0.64798 0.69115 0.0
C763 C 0.12451 0.52738 0.73302 0.0
C764 C 0.70238 0.88741 0.45651 0.0
C765 C 0.74735 0.9285 0.46703 0.0
H766 H 0.65881 0.79584 0.45817 0.0
C767 C 0.79264 0.90262 0.48333 0.0
H768 H 0.66709 0.90542 0.44371 0.0
C769 C 0.78965 0.83898 0.49059 0.0
C770 C 0.74075 0.79946 0.48217 0.0
H771 H 0.8287 0.93231 0.49152 0.0
H772 H 0.82087 0.82284 0.50531 0.0
C773 C 0.69869 0.82387 0.46424 0.0
C774 C 0.46529 0.57821 0.22708 0.0
C775 C 0.44344 0.52329 0.21532 0.0
H776 H 0.5397 0.62277 0.24726 0.0
C777 C 0.48725 0.47485 0.21061 0.0
H778 H 0.43359 0.61705 0.23055 0.0
C779 C 0.54939 0.47853 0.22007 0.0
C780 C 0.56924 0.5313 0.2339 0.0
H781 H 0.47213 0.43202 0.20143 0.0
H782 H 0.57951 0.4374 0.21886 0.0
C783 C 0.52722 0.58235 0.236 0.0
C784 C 0.71907 0.38386 0.50711 0.0
C785 C 0.76371 0.42928 0.49957 0.0
H786 H 0.68346 0.28978 0.50195 0.0
C787 C 0.81612 0.40869 0.486 0.0
H788 H 0.67835 0.398 0.51779 0.0
C789 C 0.8208 0.34579 0.47823 0.0
C790 C 0.77237 0.30197 0.48307 0.0
H791 H 0.85209 0.44198 0.48029 0.0
H792 H 0.85826 0.33376 0.46555 0.0
C793 C 0.72299 0.32107 0.49869 0.0
C794 C 0.46166 0.06771 0.73011 0.0
C795 C 0.44234 1.02274 0.74783 0.0
H796 H 0.53395 0.09828 0.70517 0.0
C797 C 0.48818 0.98059 0.75729 0.0
H798 H 0.4283 0.10152 0.72255 0.0
C799 C 0.54973 0.97957 0.74749 0.0
C800 C 0.56745 1.02151 0.72839 0.0
H801 H 0.47532 0.94533 0.77101 0.0
H802 H 0.58127 0.9419 0.75312 0.0
C803 C 0.52308 0.06701 0.72058 0.0
C804 C 0.78248 0.74952 0.9749 0.0
C805 C 0.8305 0.79426 0.97906 0.0
H806 H 0.75181 0.65361 0.97881 0.0
C807 C 0.88045 0.77719 -0.00495 0.0
H808 H 0.74436 0.76014 0.96205 0.0
C809 C 0.88499 0.71517 0.00469 0.0
C810 C 0.84034 0.66877 -0.00196 0.0
H811 H 0.91938 0.8095 -0.00207 0.0
H812 H 0.92611 0.70228 0.01559 0.0
C813 C 0.78762 0.68766 -0.01601 0.0
C814 C 0.05613 0.12412 0.25025 0.0
C815 C 1.03696 0.07829 0.23294 0.0
H816 H 0.13279 0.16391 0.27134 0.0
C817 C 0.08039 1.03058 0.22683 0.0
H818 H 1.02493 0.1629 0.25467 0.0
C819 C 0.14285 1.03251 0.23548 0.0
C820 C 0.16375 0.08181 0.25086 0.0
H821 H 0.06818 0.99583 0.21288 0.0
H822 H 0.17564 0.99716 0.22897 0.0
C823 C 0.11866 0.12558 0.25929 0.0
C824 C 0.28538 0.77044 0.49093 0.0
C825 C 0.33267 0.81384 0.48414 0.0
H826 H 0.25216 0.67485 0.48992 0.0
C827 C 0.37723 0.79451 0.46647 0.0
H828 H 0.25211 0.78259 0.5053 0.0
C829 C 0.37791 0.73181 0.45776 0.0
C830 C 0.33484 0.68675 0.46699 0.0
H831 H 0.41578 0.82561 0.46153 0.0
H832 H 0.41528 0.71745 0.44538 0.0
C833 C 0.28681 0.70774 0.48276 0.0
C834 C 0.61904 0.12648 0.20728 0.0
C835 C 0.66238 0.08319 0.21766 0.0
H836 H 0.52724 0.1688 0.20999 0.0
C837 C 0.63969 1.03901 0.23507 0.0
H838 H 0.63455 0.16102 0.19371 0.0
C839 C 0.57721 1.04174 0.2435 0.0
C840 C 0.53575 0.08935 0.23517 0.0
H841 H 0.67117 1.00424 0.24319 0.0
H842 H 0.56352 1.011 0.25872 0.0
C843 C 0.55673 0.12997 0.21615 0.0
C844 C 0.21318 0.30679 0.96871 0.0
C845 C 0.26095 0.28687 -0.01473 0.0
H846 H 0.17259 0.38383 0.94777 0.0
C847 C 0.31019 0.32951 -0.00959 0.0
H848 H 0.1732 0.27629 0.9651 0.0
C849 C 0.30844 0.3919 0.98147 0.0
C850 C 0.25787 0.41352 0.96667 0.0
H851 H 0.34654 0.3168 0.00376 0.0
H852 H 0.34533 0.42416 -0.0128 0.0
C853 C 0.21201 0.36914 0.95928 0.0
C854 C 1.05004 0.98397 0.71918 0.0
C855 C 0.06748 1.02647 0.73801 0.0
H856 H 0.97528 0.94775 0.69609 0.0
C857 C 1.02268 0.07144 0.74551 0.0
H858 H 0.08236 0.94708 0.71367 0.0
C859 C 0.96086 0.07051 0.73621 0.0
C860 C 0.94174 1.02462 0.71895 0.0
H861 H 1.03364 0.10342 0.7606 0.0
H862 H 0.92718 0.10394 0.74354 0.0
C863 C 0.98802 0.9834 0.70957 0.0
C864 C 0.29998 0.1395 0.89721 0.0
C865 C 0.27298 0.0934 0.91272 0.0
H866 H 0.33029 0.16325 0.86029 0.0
C867 C 0.25864 1.03386 0.90294 0.0
H868 H 0.3121 0.18558 0.90447 0.0
C869 C 0.27085 1.02044 0.87816 0.0
C870 C 0.29597 0.06688 0.86227 0.0
H871 H 0.23911 0.9969 0.91458 0.0
H872 H 0.25919 0.97378 0.87137 0.0
C873 C 0.31072 0.12658 0.87205 0.0
C874 C 0.73805 0.48499 0.11932 0.0
C875 C 0.79886 0.49441 0.10971 0.0
H876 H 0.68209 0.46983 0.15198 0.0
C877 C 0.85068 0.4937 0.12609 0.0
H878 H 0.69725 0.48489 0.10714 0.0
C879 C 0.84216 0.4836 0.15141 0.0
C880 C 0.78154 0.47471 0.16111 0.0
H881 H 0.89827 0.50049 0.11938 0.0
H882 H 0.88322 0.48443 0.16346 0.0
C883 C 0.72942 0.47571 0.14488 0.0
C884 C 0.30276 1.03576 0.37389 0.0
C885 C 0.34984 1.01584 0.35751 0.0
H886 H 0.26731 1.03386 0.41094 0.0
C887 C 0.39741 0.97516 0.36633 0.0
H888 H 0.26543 0.06691 0.36757 0.0
C889 C 0.3995 0.95734 0.39146 0.0
C890 C 0.35282 0.97821 0.40791 0.0
H891 H 0.43439 0.95927 0.35406 0.0
H892 H 0.43792 0.92798 0.39807 0.0
C893 C 0.30373 1.01648 0.39871 0.0
C894 C 0.85885 0.66064 0.6185 0.0
C895 C 0.82042 0.61366 0.60795 0.0
H896 H 0.90324 0.69544 0.65172 0.0
C897 C 0.8016 0.56222 0.62266 0.0
H898 H 0.87417 0.7007 0.6075 0.0
C899 C 0.81976 0.5582 0.64753 0.0
C900 C 0.85583 0.60641 0.65847 0.0
H901 H 0.77233 0.52512 0.61497 0.0
H902 H 0.80337 0.51834 0.65842 0.0
C903 C 0.87555 0.6576 0.64372 0.0
C904 C 0.87165 0.95654 0.0715 0.0
C905 C 0.87556 1.00785 0.05491 0.0
H906 H 0.85796 0.92657 0.10929 0.0
C907 C 0.86726 0.06926 0.06399 0.0
H908 H 0.87711 0.90866 0.06487 0.0
C909 C 0.85484 0.07938 0.08902 0.0
C910 C 0.85117 1.02838 0.10576 0.0
H911 H 0.86864 0.10976 0.05162 0.0
H912 H 0.84859 0.12753 0.09523 0.0
C913 C 0.86023 0.96678 0.09681 0.0
C914 C 0.31739 0.54503 0.81554 0.0
C915 C 0.36012 0.58972 0.80608 0.0
H916 H 0.26564 0.51209 0.84709 0.0
C917 C 0.3872 0.63385 0.82235 0.0
H918 H 0.29523 0.51078 0.80342 0.0
C919 C 0.37151 0.63332 0.84763 0.0
C920 C 0.32663 0.59032 0.85679 0.0
H921 H 0.42013 0.66887 0.8155 0.0
H922 H 0.39271 0.66804 0.8598 0.0
C923 C 0.30015 0.54593 0.84053 0.0
C924 C 0.74452 0.15668 0.60383 0.0
C925 C 0.78368 0.10567 0.61047 0.0
H926 H 0.70537 0.21233 0.57397 0.0
C927 C 0.81822 0.07511 0.59195 0.0
H928 H 0.71683 0.18056 0.61778 0.0
C929 C 0.81291 0.09416 0.56719 0.0
C930 C 0.77151 0.14309 0.56026 0.0
H931 H 0.84865 1.03564 0.59658 0.0
H932 H 0.83934 0.06857 0.55332 0.0
C933 C 0.73765 0.17457 0.57882 0.0
C934 C 0.23941 0.44257 0.34822 0.0
C935 C 0.27802 0.49112 0.35757 0.0
H936 H 0.19355 0.40315 0.3161 0.0
C937 C 0.29642 0.5402 0.34158 0.0
H938 H 0.2245 0.40408 0.36015 0.0
C939 C 0.27731 0.54057 0.31675 0.0
C940 C 0.24054 0.49107 0.30709 0.0
H941 H 0.3259 0.57839 0.34824 0.0
H942 H 0.29319 0.57888 0.30491 0.0
C943 C 0.22165 0.442 0.32306 0.0
C944 C 0.80671 0.58467 0.37617 0.0
C945 C 0.76843 0.61419 0.35823 0.0
H946 H 0.8327 0.57779 0.41452 0.0
C947 C 0.72755 0.66278 0.36561 0.0
H948 H 0.83879 0.54724 0.37101 0.0
C949 C 0.72259 0.67903 0.39075 0.0
C950 C 0.76038 0.64876 0.40868 0.0
H951 H 0.69742 0.68627 0.35214 0.0
H952 H 0.68892 0.71475 0.39618 0.0
C953 C 0.80341 0.60241 0.40107 0.0
C954 C 0.23464 0.05622 0.62196 0.0
C955 C 0.29143 1.03322 0.61218 0.0
H956 H 0.17724 0.06677 0.65444 0.0
C957 C 0.33337 1.00072 0.628 0.0
H958 H 0.20137 0.08139 0.61023 0.0
C959 C 0.31889 0.99103 0.65292 0.0
C960 C 0.26275 1.0148 0.66285 0.0
H961 H 0.37757 0.98227 0.62114 0.0
H962 H 0.35278 0.96641 0.66457 0.0
C963 C 0.22067 1.04755 0.64717 0.0
C964 C 0.86356 0.56989 0.89958 0.0
C965 C 0.87683 0.50869 0.90819 0.0
H966 H 0.83722 0.62838 0.86896 0.0
C967 C 0.87397 0.45802 0.89148 0.0
H968 H 0.86381 0.6097 0.91215 0.0
C969 C 0.85869 0.46875 0.86644 0.0
C970 C 0.8446 0.53008 0.85797 0.0
H971 H 0.88312 0.41026 0.89782 0.0
H972 H 0.85734 0.4291 0.85382 0.0
C973 C 0.84725 0.58042 0.87484 0.0
C974 C 0.33183 1.04838 0.15186 0.0
C975 C 0.37394 0.09447 0.16071 0.0
H976 H 0.27917 1.01308 0.12085 0.0
C977 C 0.39879 0.13882 0.14391 0.0
H978 H 0.31138 1.01391 0.16439 0.0
C979 C 0.38149 0.13722 0.11875 0.0
C980 C 0.33734 0.0927 0.11018 0.0
H981 H 0.43118 0.17493 0.15026 0.0
H982 H 0.40095 0.17222 0.10619 0.0
C983 C 0.31307 1.04807 0.12695 0.0
C984 C 0.3545 0.42697 0.57584 0.0
C985 C 0.32219 0.46077 0.55722 0.0
H986 H 0.37296 0.41691 0.61497 0.0
C987 C 0.28102 0.50952 0.56407 0.0
H988 H 0.38664 0.38934 0.57098 0.0
C989 C 0.27479 0.52646 0.58895 0.0
C990 C 0.30802 0.49373 0.60756 0.0
H991 H 0.25591 0.53678 0.5501 0.0
H992 H 0.24484 0.56605 0.5936 0.0
C993 C 0.34643 0.44252 0.60093 0.0
C994 C 0.86951 1.05189 0.34681 0.0
C995 C 0.81282 0.0765 0.35606 0.0
H996 H 0.92764 1.03824 0.3147 0.0
C997 C 0.7716 0.10812 0.33967 0.0
H998 H 0.90215 1.02724 0.35898 0.0
C999 C 0.78694 0.11586 0.31475 0.0
C1000 C 0.8431 0.09082 0.3054 0.0
H1001 H 0.72739 0.12755 0.34608 0.0
H1002 H 0.75365 0.13991 0.30266 0.0
C1003 C 0.88425 0.05845 0.32157 0.0
C1004 C 0.21918 0.65422 0.0739 0.0
C1005 C 0.25932 0.62593 0.05654 0.0
H1006 H 0.19071 0.65909 0.11207 0.0
C1007 C 0.30295 0.58038 0.06481 0.0
H1008 H 0.18498 0.68924 0.068 0.0
C1009 C 0.30491 0.56182 0.08974 0.0
C1010 C 0.26458 0.58967 0.1071 0.0
H1011 H 0.33406 0.55721 0.05182 0.0
H1012 H 0.33779 0.52529 0.0954 0.0
C1013 C 0.2226 0.63705 0.09908 0.0
C1014 C 0.71231 0.96893 0.84693 0.0
C1015 C 0.76329 1.0057 0.85535 0.0
H1016 H 0.65762 0.93862 0.81538 0.0
C1017 C 0.79518 1.04461 0.8384 0.0
H1018 H 0.68698 0.93846 0.85966 0.0
C1019 C 0.77695 1.0464 0.81348 0.0
C1020 C 0.72772 1.00784 0.80482 0.0
H1021 H 0.83448 0.07356 0.84439 0.0
H1022 H 0.80303 0.07635 0.80078 0.0
C1023 C 0.69555 0.96891 0.82169 0.0
C1024 C 0.60364 0.32185 0.0059 0.0
C1025 C 0.59184 0.35547 -0.01624 0.0
H1026 H 0.57787 0.24402 0.02916 0.0
C1027 C 0.54245 0.33593 0.96815 0.0
H1028 H 0.64044 0.33645 0.01866 0.0
C1029 C 0.50658 0.28295 0.97416 0.0
C1030 C 0.5187 0.24878 -0.00382 0.0
H1031 H 0.53259 0.36054 0.95086 0.0
H1032 H 0.47064 0.26816 0.9611 0.0
C1033 C 0.56757 0.26895 0.01198 0.0
C1034 C 0.58508 0.81254 0.21341 0.0
C1035 C 0.6125 0.76787 0.22956 0.0
H1036 H 0.51184 0.8798 0.2074 0.0
C1037 C 0.58733 0.76036 0.25356 0.0
H1038 H 0.60288 0.81939 0.19476 0.0
C1039 C 0.53482 0.79525 0.26085 0.0
C1040 C 0.50691 0.8391 0.24451 0.0
H1041 H 0.60802 0.72785 0.26685 0.0
H1042 H 0.51627 0.7881 0.27937 0.0
C1043 C 0.53283 0.84755 0.22074 0.0
C1044 C 1.01567 0.87759 0.49458 0.0
C1045 C 0.0794 0.87621 0.50169 0.0
H1046 H 0.92934 0.82748 0.4914 0.0
C1047 C 0.10492 0.81982 0.5111 0.0
H1048 H 0.99448 0.92058 0.48744 0.0
C1049 C 0.06775 0.76574 0.51308 0.0
C1050 C 1.00382 0.76675 0.50595 0.0
H1051 H 0.15311 0.8178 0.51765 0.0
H1052 H 0.08926 0.72322 0.5205 0.0
C1053 C 0.97831 0.82358 0.49665 0.0
C1054 C 1.04758 0.24466 0.73486 0.0
C1055 C 0.09814 0.27015 0.74869 0.0
H1056 H 0.95053 0.25325 0.72406 0.0
C1057 C 0.0881 0.32604 0.76213 0.0
H1058 H 0.0532 0.20305 0.72356 0.0
C1059 C 1.02926 0.35535 0.76189 0.0
C1060 C 0.97923 0.32955 0.74818 0.0
H1061 H 0.12553 0.34698 0.7731 0.0
H1062 H 1.02251 0.39763 0.77277 0.0
C1063 C 0.98854 0.27367 0.73491 0.0
C1064 C 0.53977 0.83138 -0.00388 0.0
C1065 C 0.58947 0.84919 0.98047 0.0
H1066 H 0.46733 0.76493 0.00398 0.0
C1067 C 0.60164 0.81313 0.95916 0.0
H1068 H 0.52961 0.85781 0.01282 0.0
C1069 C 0.56527 0.75987 0.95387 0.0
C1070 C 0.51576 0.74178 0.96964 0.0
H1071 H 0.63871 0.82624 0.94638 0.0
H1072 H 0.57568 0.73318 0.93727 0.0
C1073 C 0.50365 0.7781 -0.0091 0.0
C1074 C 0.58721 0.32419 0.69965 0.0
C1075 C 0.59701 0.26751 0.7129 0.0
H1076 H 0.52197 0.3968 0.68909 0.0
C1077 C 0.54612 0.24131 0.72624 0.0
H1078 H 0.62486 0.34591 0.68912 0.0
C1079 C 0.48706 0.27015 0.7258 0.0
C1080 C 0.47802 0.32675 0.71274 0.0
H1081 H 0.55137 0.1993 0.73751 0.0
H1082 H 0.44883 0.24911 0.73627 0.0
C1083 C 0.52838 0.35356 0.69963 0.0
C1084 C 1.03321 0.34668 0.44831 0.0
C1085 C 0.09708 0.34667 0.4555 0.0
H1086 H 0.94836 0.29333 0.44408 0.0
C1087 C 0.12362 0.29012 0.46461 0.0
H1088 H 1.01103 0.38899 0.44103 0.0
C1089 C 0.08725 0.23549 0.46666 0.0
C1090 C 1.02342 0.23603 0.45977 0.0
H1091 H 0.17259 0.28704 0.46987 0.0
H1092 H 0.10912 0.19286 0.47382 0.0
C1093 C 0.99688 0.292 0.45036 0.0
C1094 C 0.07384 0.75673 0.20283 0.0
C1095 C 0.11923 0.77671 0.22014 0.0
H1096 H 0.98162 0.77063 0.1877 0.0
C1097 C 0.10562 0.82717 0.23592 0.0
H1098 H 0.08367 0.71823 0.19026 0.0
C1099 C 1.04702 0.85653 0.23482 0.0
C1100 C 1.00129 0.83719 0.21735 0.0
H1101 H 0.13965 0.84269 0.2497 0.0
H1102 H 1.03781 0.89345 0.2481 0.0
C1103 C 1.01545 0.78676 0.20142 0.0
loop_
_geom_bond_atom_site_label_1
_geom_bond_atom_site_label_2
_geom_bond_distance
_geom_bond_site_symmetry_2
_ccdc_geom_bond_type
Zn0 N4 2.020 . S
Zn0 O8 2.019 . S
Zn0 N10 2.119 . S
Zn0 O18 1.975 . S
C1 N2 1.334 . S
C1 N5 1.336 . S
N2 C1 1.334 . S
N2 C3 1.334 . S
C3 N2 1.334 . S
C3 N4 1.336 . S
N4 Zn0 2.020 . S
N4 C3 1.336 . S
N4 N5 1.354 . S
N5 C1 1.336 . S
N5 N4 1.354 . S
N5 Zn9 2.020 1_554 S
C6 O7 1.244 . S
C6 O30 1.257 . S
O7 C6 1.244 . S
O8 Zn0 2.019 . S
O8 C28 1.257 . S
Zn9 N5 2.020 1_556 S
Zn9 O16 1.975 1_556 S
Zn9 N25 2.119 1_556 S
Zn9 O30 2.019 . S
N10 Zn0 2.119 . S
N10 C12 1.334 . S
N10 C13 1.328 . S
C11 C12 1.391 . S
C11 N14 1.329 . S
C11 H32 0.930 . S
C12 N10 1.334 . S
C12 C11 1.391 . S
C12 H19 0.930 . S
C13 N10 1.328 . S
C13 C15 1.392 . S
C13 H20 0.930 . S
N14 C11 1.329 . S
N14 C15 1.331 . S
C15 C13 1.392 . S
C15 N14 1.331 . S
O16 Zn9 1.975 1_554 S
O16 C17 1.252 . S
C17 O16 1.252 . S
C17 O18 1.252 . S
O18 Zn0 1.975 . S
O18 C17 1.252 . S
H19 C12 0.930 . S
H20 C13 0.930 . S
C21 C22 1.392 . S
C21 N25 1.328 1_556 S
C21 H27 0.930 . S
C22 C21 1.392 . S
C22 N26 1.331 1_556 S
C23 C24 1.391 . S
C23 N26 1.329 . S
C23 H33 0.930 . S
C24 C23 1.391 . S
C24 N25 1.334 . S
C24 H31 0.930 . S
N25 Zn9 2.119 1_554 S
N25 C21 1.328 1_554 S
N25 C24 1.334 . S
N26 C22 1.331 1_554 S
N26 C23 1.329 . S
H27 C21 0.930 . S
C28 O8 1.257 . S
C28 O29 1.244 . S
O29 C28 1.244 . S
O30 C6 1.257 . S
O30 Zn9 2.019 . S
H31 C24 0.930 . S
H32 C11 0.930 . S
H33 C23 0.930 . S
Zn34 N38 2.020 . S
Zn34 O42 2.019 . S
Zn34 N44 2.119 . S
Zn34 O52 1.975 . S
C35 N36 1.334 . S
C35 N39 1.336 . S
N36 C35 1.334 . S
N36 C37 1.334 . S
C37 N36 1.334 . S
C37 N38 1.336 . S
N38 Zn34 2.020 . S
N38 C37 1.336 . S
N38 N39 1.354 . S
N39 C35 1.336 . S
N39 N38 1.354 . S
N39 Zn43 2.020 . S
C40 O41 1.244 . S
C40 O64 1.257 . S
O41 C40 1.244 . S
O42 Zn34 2.019 . S
O42 C62 1.257 . S
Zn43 N39 2.020 . S
Zn43 O50 1.975 . S
Zn43 N59 2.119 . S
Zn43 O64 2.019 . S
N44 Zn34 2.119 . S
N44 C46 1.334 . S
N44 C47 1.328 . S
C45 C46 1.391 . S
C45 N48 1.329 . S
C45 H66 0.930 . S
C46 N44 1.334 . S
C46 C45 1.391 . S
C46 H53 0.930 . S
C47 N44 1.328 . S
C47 C49 1.392 . S
C47 H54 0.930 . S
N48 C45 1.329 . S
N48 C49 1.331 . S
C49 C47 1.392 . S
C49 N48 1.331 . S
O50 Zn43 1.975 . S
O50 C51 1.252 . S
C51 O50 1.252 . S
C51 O52 1.252 . S
O52 Zn34 1.975 . S
O52 C51 1.252 . S
H53 C46 0.930 . S
H54 C47 0.930 . S
C55 C56 1.392 . S
C55 N59 1.328 . S
C55 H61 0.930 . S
C56 C55 1.392 . S
C56 N60 1.331 . S
C57 C58 1.391 . S
C57 N60 1.329 . S
C57 H67 0.930 . S
C58 C57 1.391 . S
C58 N59 1.334 . S
C58 H65 0.930 . S
N59 Zn43 2.119 . S
N59 C55 1.328 . S
N59 C58 1.334 . S
N60 C56 1.331 . S
N60 C57 1.329 . S
H61 C55 0.930 . S
C62 O42 1.257 . S
C62 O63 1.244 . S
O63 C62 1.244 . S
O64 C40 1.257 . S
O64 Zn43 2.019 . S
H65 C58 0.930 . S
H66 C45 0.930 . S
H67 C57 0.930 . S
Zn68 N72 2.020 . S
Zn68 O76 2.019 . S
Zn68 N78 2.119 . S
Zn68 O86 1.975 . S
C69 N70 1.334 . S
C69 N73 1.336 . S
N70 C69 1.334 . S
N70 C71 1.334 . S
C71 N70 1.334 . S
C71 N72 1.336 . S
N72 Zn68 2.020 . S
N72 C71 1.336 . S
N72 N73 1.354 . S
N73 C69 1.336 . S
N73 N72 1.354 . S
N73 Zn77 2.020 . S
C74 O75 1.244 . S
C74 O98 1.257 . S
O75 C74 1.244 . S
O76 Zn68 2.019 . S
O76 C96 1.257 . S
Zn77 N73 2.020 . S
Zn77 O84 1.975 . S
Zn77 N93 2.119 . S
Zn77 O98 2.019 . S
N78 Zn68 2.119 . S
N78 C80 1.334 . S
N78 C81 1.328 . S
C79 C80 1.391 . S
C79 N82 1.329 . S
C79 H100 0.930 . S
C80 N78 1.334 . S
C80 C79 1.391 . S
C80 H87 0.930 . S
C81 N78 1.328 . S
C81 C83 1.392 . S
C81 H88 0.930 . S
N82 C79 1.329 . S
N82 C83 1.331 . S
C83 C81 1.392 . S
C83 N82 1.331 . S
O84 Zn77 1.975 . S
O84 C85 1.252 . S
C85 O84 1.252 . S
C85 O86 1.252 . S
O86 Zn68 1.975 . S
O86 C85 1.252 . S
H87 C80 0.930 . S
H88 C81 0.930 . S
C89 C90 1.392 . S
C89 N93 1.328 . S
C89 H95 0.930 . S
C90 C89 1.392 . S
C90 N94 1.331 . S
C91 C92 1.391 . S
C91 N94 1.329 . S
C91 H101 0.930 . S
C92 C91 1.391 . S
C92 N93 1.334 . S
C92 H99 0.930 . S
N93 Zn77 2.119 . S
N93 C89 1.328 . S
N93 C92 1.334 . S
N94 C90 1.331 . S
N94 C91 1.329 . S
H95 C89 0.930 . S
C96 O76 1.257 . S
C96 O97 1.244 . S
O97 C96 1.244 . S
O98 C74 1.257 . S
O98 Zn77 2.019 . S
H99 C92 0.930 . S
H100 C79 0.930 . S
H101 C91 0.930 . S
Zn102 N106 2.020 . S
Zn102 O110 2.019 . S
Zn102 N112 2.119 . S
Zn102 O120 1.975 . S
C103 N104 1.334 1_655 S
C103 N107 1.336 . S
N104 C103 1.334 1_455 S
N104 C105 1.334 1_455 S
C105 N104 1.334 1_655 S
C105 N106 1.336 . S
N106 Zn102 2.020 . S
N106 C105 1.336 . S
N106 N107 1.354 . S
N107 C103 1.336 . S
N107 N106 1.354 . S
N107 Zn111 2.020 . S
C108 O109 1.244 . S
C108 O132 1.257 . S
O109 C108 1.244 . S
O110 Zn102 2.019 . S
O110 C130 1.257 . S
Zn111 N107 2.020 . S
Zn111 O118 1.975 . S
Zn111 N127 2.119 . S
Zn111 O132 2.019 . S
N112 Zn102 2.119 . S
N112 C114 1.334 . S
N112 C115 1.328 . S
C113 C114 1.391 . S
C113 N116 1.329 . S
C113 H134 0.930 . S
C114 N112 1.334 . S
C114 C113 1.391 . S
C114 H121 0.930 . S
C115 N112 1.328 . S
C115 C117 1.392 . S
C115 H122 0.930 . S
N116 C113 1.329 . S
N116 C117 1.331 . S
C117 C115 1.392 . S
C117 N116 1.331 . S
O118 Zn111 1.975 . S
O118 C119 1.252 . S
C119 O118 1.252 . S
C119 O120 1.252 . S
O120 Zn102 1.975 . S
O120 C119 1.252 . S
H121 C114 0.930 . S
H122 C115 0.930 . S
C123 C124 1.392 . S
C123 N127 1.328 . S
C123 H129 0.930 . S
C124 C123 1.392 . S
C124 N128 1.331 . S
C125 C126 1.391 . S
C125 N128 1.329 . S
C125 H135 0.930 . S
C126 C125 1.391 . S
C126 N127 1.334 . S
C126 H133 0.930 . S
N127 Zn111 2.119 . S
N127 C123 1.328 . S
N127 C126 1.334 . S
N128 C124 1.331 . S
N128 C125 1.329 . S
H129 C123 0.930 . S
C130 O110 1.257 . S
C130 O131 1.244 . S
O131 C130 1.244 . S
O132 C108 1.257 . S
O132 Zn111 2.019 . S
H133 C126 0.930 . S
H134 C113 0.930 . S
H135 C125 0.930 . S
Zn136 N140 2.020 1_554 S
Zn136 O144 2.019 . S
Zn136 N146 2.119 1_554 S
Zn136 O154 1.975 1_554 S
C137 N138 1.334 . S
C137 N141 1.336 . S
N138 C137 1.334 . S
N138 C139 1.334 . S
C139 N138 1.334 . S
C139 N140 1.336 . S
N140 Zn136 2.020 1_556 S
N140 C139 1.336 . S
N140 N141 1.354 . S
N141 C137 1.336 . S
N141 N140 1.354 . S
N141 Zn145 2.020 . S
C142 O143 1.244 . S
C142 O166 1.257 . S
O143 C142 1.244 . S
O144 Zn136 2.019 . S
O144 C164 1.257 . S
Zn145 N141 2.020 . S
Zn145 O152 1.975 . S
Zn145 N161 2.119 . S
Zn145 O166 2.019 . S
N146 Zn136 2.119 1_556 S
N146 C148 1.334 . S
N146 C149 1.328 1_556 S
C147 C148 1.391 . S
C147 N150 1.329 . S
C147 H168 0.930 . S
C148 N146 1.334 . S
C148 C147 1.391 . S
C148 H155 0.930 . S
C149 N146 1.328 1_554 S
C149 C151 1.392 . S
C149 H156 0.930 . S
N150 C147 1.329 . S
N150 C151 1.331 1_556 S
C151 C149 1.392 . S
C151 N150 1.331 1_554 S
O152 Zn145 1.975 . S
O152 C153 1.252 . S
C153 O152 1.252 . S
C153 O154 1.252 . S
O154 Zn136 1.975 1_556 S
O154 C153 1.252 . S
H155 C148 0.930 . S
H156 C149 0.930 . S
C157 C158 1.392 . S
C157 N161 1.328 . S
C157 H163 0.930 . S
C158 C157 1.392 . S
C158 N162 1.331 . S
C159 C160 1.391 . S
C159 N162 1.329 . S
C159 H169 0.930 . S
C160 C159 1.391 . S
C160 N161 1.334 . S
C160 H167 0.930 . S
N161 Zn145 2.119 . S
N161 C157 1.328 . S
N161 C160 1.334 . S
N162 C158 1.331 . S
N162 C159 1.329 . S
H163 C157 0.930 . S
C164 O144 1.257 . S
C164 O165 1.244 . S
O165 C164 1.244 . S
O166 C142 1.257 . S
O166 Zn145 2.019 . S
H167 C160 0.930 . S
H168 C147 0.930 . S
H169 C159 0.930 . S
Zn170 N174 2.020 . S
Zn170 O178 2.019 . S
Zn170 N180 2.119 . S
Zn170 O188 1.975 . S
C171 N172 1.334 . S
C171 N175 1.336 . S
N172 C171 1.334 . S
N172 C173 1.334 . S
C173 N172 1.334 . S
C173 N174 1.336 . S
N174 Zn170 2.020 . S
N174 C173 1.336 . S
N174 N175 1.354 . S
N175 C171 1.336 . S
N175 N174 1.354 . S
N175 Zn179 2.020 . S
C176 O177 1.244 . S
C176 O200 1.257 . S
O177 C176 1.244 . S
O178 Zn170 2.019 . S
O178 C198 1.257 . S
Zn179 N175 2.020 . S
Zn179 O186 1.975 . S
Zn179 N195 2.119 . S
Zn179 O200 2.019 . S
N180 Zn170 2.119 . S
N180 C182 1.334 . S
N180 C183 1.328 . S
C181 C182 1.391 . S
C181 N184 1.329 . S
C181 H202 0.930 . S
C182 N180 1.334 . S
C182 C181 1.391 . S
C182 H189 0.930 . S
C183 N180 1.328 . S
C183 C185 1.392 . S
C183 H190 0.930 . S
N184 C181 1.329 . S
N184 C185 1.331 . S
C185 C183 1.392 . S
C185 N184 1.331 . S
O186 Zn179 1.975 . S
O186 C187 1.252 . S
C187 O186 1.252 . S
C187 O188 1.252 . S
O188 Zn170 1.975 . S
O188 C187 1.252 . S
H189 C182 0.930 . S
H190 C183 0.930 . S
C191 C192 1.392 . S
C191 N195 1.328 . S
C191 H197 0.930 . S
C192 C191 1.392 . S
C192 N196 1.331 . S
C193 C194 1.391 . S
C193 N196 1.329 . S
C193 H203 0.930 . S
C194 C193 1.391 . S
C194 N195 1.334 . S
C194 H201 0.930 . S
N195 Zn179 2.119 . S
N195 C191 1.328 . S
N195 C194 1.334 . S
N196 C192 1.331 . S
N196 C193 1.329 . S
H197 C191 0.930 . S
C198 O178 1.257 . S
C198 O199 1.244 . S
O199 C198 1.244 . S
O200 C176 1.257 . S
O200 Zn179 2.019 . S
H201 C194 0.930 . S
H202 C181 0.930 . S
H203 C193 0.930 . S
Zn204 N208 2.020 . S
Zn204 O212 2.019 . S
Zn204 N214 2.119 . S
Zn204 O222 1.975 . S
C205 N206 1.334 . S
C205 N209 1.336 . S
N206 C205 1.334 . S
N206 C207 1.334 . S
C207 N206 1.334 . S
C207 N208 1.336 . S
N208 Zn204 2.020 . S
N208 C207 1.336 . S
N208 N209 1.354 . S
N209 C205 1.336 . S
N209 N208 1.354 . S
N209 Zn213 2.020 . S
C210 O211 1.244 . S
C210 O234 1.257 . S
O211 C210 1.244 . S
O212 Zn204 2.019 . S
O212 C232 1.257 . S
Zn213 N209 2.020 . S
Zn213 O220 1.975 . S
Zn213 N229 2.119 . S
Zn213 O234 2.019 . S
N214 Zn204 2.119 . S
N214 C216 1.334 . S
N214 C217 1.328 . S
C215 C216 1.391 . S
C215 N218 1.329 . S
C215 H236 0.930 . S
C216 N214 1.334 . S
C216 C215 1.391 . S
C216 H223 0.930 . S
C217 N214 1.328 . S
C217 C219 1.392 . S
C217 H224 0.930 . S
N218 C215 1.329 . S
N218 C219 1.331 . S
C219 C217 1.392 . S
C219 N218 1.331 . S
O220 Zn213 1.975 . S
O220 C221 1.252 . S
C221 O220 1.252 . S
C221 O222 1.252 . S
O222 Zn204 1.975 . S
O222 C221 1.252 . S
H223 C216 0.930 . S
H224 C217 0.930 . S
C225 C226 1.392 . S
C225 N229 1.328 . S
C225 H231 0.930 . S
C226 C225 1.392 . S
C226 N230 1.331 . S
C227 C228 1.391 . S
C227 N230 1.329 . S
C227 H237 0.930 . S
C228 C227 1.391 . S
C228 N229 1.334 . S
C228 H235 0.930 . S
N229 Zn213 2.119 . S
N229 C225 1.328 . S
N229 C228 1.334 . S
N230 C226 1.331 . S
N230 C227 1.329 . S
H231 C225 0.930 . S
C232 O212 1.257 . S
C232 O233 1.244 . S
O233 C232 1.244 . S
O234 C210 1.257 . S
O234 Zn213 2.019 . S
H235 C228 0.930 . S
H236 C215 0.930 . S
H237 C227 0.930 . S
Zn238 N242 2.020 . S
Zn238 O246 2.019 . S
Zn238 N248 2.119 . S
Zn238 O256 1.975 . S
C239 N240 1.334 1_455 S
C239 N243 1.336 . S
N240 C239 1.334 1_655 S
N240 C241 1.334 1_655 S
C241 N240 1.334 1_455 S
C241 N242 1.336 . S
N242 Zn238 2.020 . S
N242 C241 1.336 . S
N242 N243 1.354 . S
N243 C239 1.336 . S
N243 N242 1.354 . S
N243 Zn247 2.020 . S
C244 O245 1.244 . S
C244 O268 1.257 . S
O245 C244 1.244 . S
O246 Zn238 2.019 . S
O246 C266 1.257 . S
Zn247 N243 2.020 . S
Zn247 O254 1.975 . S
Zn247 N263 2.119 . S
Zn247 O268 2.019 . S
N248 Zn238 2.119 . S
N248 C250 1.334 . S
N248 C251 1.328 . S
C249 C250 1.391 . S
C249 N252 1.329 . S
C249 H270 0.930 . S
C250 N248 1.334 . S
C250 C249 1.391 . S
C250 H257 0.930 . S
C251 N248 1.328 . S
C251 C253 1.392 . S
C251 H258 0.930 . S
N252 C249 1.329 . S
N252 C253 1.331 . S
C253 C251 1.392 . S
C253 N252 1.331 . S
O254 Zn247 1.975 . S
O254 C255 1.252 . S
C255 O254 1.252 . S
C255 O256 1.252 . S
O256 Zn238 1.975 . S
O256 C255 1.252 . S
H257 C250 0.930 . S
H258 C251 0.930 . S
C259 C260 1.392 . S
C259 N263 1.328 . S
C259 H265 0.930 . S
C260 C259 1.392 . S
C260 N264 1.331 . S
C261 C262 1.391 . S
C261 N264 1.329 . S
C261 H271 0.930 . S
C262 C261 1.391 . S
C262 N263 1.334 . S
C262 H269 0.930 . S
N263 Zn247 2.119 . S
N263 C259 1.328 . S
N263 C262 1.334 . S
N264 C260 1.331 . S
N264 C261 1.329 . S
H265 C259 0.930 . S
C266 O246 1.257 . S
C266 O267 1.244 . S
O267 C266 1.244 . S
O268 C244 1.257 . S
O268 Zn247 2.019 . S
H269 C262 0.930 . S
H270 C249 0.930 . S
H271 C261 0.930 . S
Zn272 N276 2.020 . S
Zn272 O280 2.019 . S
Zn272 N282 2.119 . S
Zn272 O290 1.975 . S
C273 N274 1.334 . S
C273 N277 1.336 . S
N274 C273 1.334 . S
N274 C275 1.334 . S
C275 N274 1.334 . S
C275 N276 1.336 . S
N276 Zn272 2.020 . S
N276 C275 1.336 . S
N276 N277 1.354 . S
N277 C273 1.336 . S
N277 N276 1.354 . S
N277 Zn281 2.020 . S
C278 O279 1.244 . S
C278 O302 1.257 . S
O279 C278 1.244 . S
O280 Zn272 2.019 . S
O280 C300 1.257 . S
Zn281 N277 2.020 . S
Zn281 O288 1.975 . S
Zn281 N297 2.119 . S
Zn281 O302 2.019 . S
N282 Zn272 2.119 . S
N282 C284 1.334 . S
N282 C285 1.328 . S
C283 C284 1.391 . S
C283 N286 1.329 . S
C283 H304 0.930 . S
C284 N282 1.334 . S
C284 C283 1.391 . S
C284 H291 0.930 . S
C285 N282 1.328 . S
C285 C287 1.392 . S
C285 H292 0.930 . S
N286 C283 1.329 . S
N286 C287 1.331 . S
C287 C285 1.392 . S
C287 N286 1.331 . S
O288 Zn281 1.975 . S
O288 C289 1.252 . S
C289 O288 1.252 . S
C289 O290 1.252 . S
O290 Zn272 1.975 . S
O290 C289 1.252 . S
H291 C284 0.930 . S
H292 C285 0.930 . S
C293 C294 1.392 . S
C293 N297 1.328 . S
C293 H299 0.930 . S
C294 C293 1.392 . S
C294 N298 1.331 . S
C295 C296 1.391 . S
C295 N298 1.329 . S
C295 H305 0.930 . S
C296 C295 1.391 . S
C296 N297 1.334 . S
C296 H303 0.930 . S
N297 Zn281 2.119 . S
N297 C293 1.328 . S
N297 C296 1.334 . S
N298 C294 1.331 . S
N298 C295 1.329 . S
H299 C293 0.930 . S
C300 O280 1.257 . S
C300 O301 1.244 . S
O301 C300 1.244 . S
O302 C278 1.257 . S
O302 Zn281 2.019 . S
H303 C296 0.930 . S
H304 C283 0.930 . S
H305 C295 0.930 . S
Zn306 N310 2.026 . S
Zn306 O314 2.019 . S
Zn306 N316 2.119 . S
Zn306 O324 1.975 . S
C307 N308 1.334 1_455 S
C307 N311 1.336 . S
N308 C307 1.334 1_655 S
N308 C309 1.334 1_655 S
C309 N308 1.334 1_455 S
C309 N310 1.333 1_565 S
N310 Zn306 2.026 . S
N310 C309 1.333 1_545 S
N310 N311 1.350 1_545 S
N311 C307 1.336 . S
N311 N310 1.350 1_565 S
N311 Zn315 2.020 . S
C312 O313 1.244 . S
C312 O336 1.257 1_545 S
O313 C312 1.244 . S
O314 Zn306 2.019 . S
O314 C334 1.257 1_545 S
Zn315 N311 2.020 . S
Zn315 O322 1.975 1_565 S
Zn315 N331 2.119 . S
Zn315 O336 2.019 . S
N316 Zn306 2.119 . S
N316 C318 1.334 . S
N316 C319 1.328 . S
C317 C318 1.391 . S
C317 N320 1.329 . S
C317 H338 0.930 . S
C318 N316 1.334 . S
C318 C317 1.391 . S
C318 H325 0.930 . S
C319 N316 1.328 . S
C319 C321 1.392 . S
C319 H326 0.930 . S
N320 C317 1.329 . S
N320 C321 1.331 . S
C321 C319 1.392 . S
C321 N320 1.331 . S
O322 Zn315 1.975 1_545 S
O322 C323 1.252 . S
C323 O322 1.252 . S
C323 O324 1.252 . S
O324 Zn306 1.975 . S
O324 C323 1.252 . S
H325 C318 0.930 . S
H326 C319 0.930 . S
C327 C328 1.392 . S
C327 N331 1.328 . S
C327 H333 0.930 . S
C328 C327 1.392 . S
C328 N332 1.331 . S
C329 C330 1.391 . S
C329 N332 1.329 . S
C329 H339 0.930 . S
C330 C329 1.391 . S
C330 N331 1.334 . S
C330 H337 0.930 . S
N331 Zn315 2.119 . S
N331 C327 1.328 . S
N331 C330 1.334 . S
N332 C328 1.331 . S
N332 C329 1.329 . S
H333 C327 0.930 . S
C334 O314 1.257 1_565 S
C334 O335 1.244 . S
O335 C334 1.244 . S
O336 C312 1.257 1_565 S
O336 Zn315 2.019 . S
H337 C330 0.930 . S
H338 C317 0.930 . S
H339 C329 0.930 . S
Zn340 N344 2.020 1_556 S
Zn340 O348 2.019 . S
Zn340 N350 2.119 1_556 S
Zn340 O358 1.975 1_556 S
C341 N342 1.334 . S
C341 N345 1.336 . S
N342 C341 1.334 . S
N342 C343 1.334 . S
C343 N342 1.334 . S
C343 N344 1.336 . S
N344 Zn340 2.020 1_554 S
N344 C343 1.336 . S
N344 N345 1.354 . S
N345 C341 1.336 . S
N345 N344 1.354 . S
N345 Zn349 2.020 . S
C346 O347 1.244 . S
C346 O370 1.257 . S
O347 C346 1.244 . S
O348 Zn340 2.019 . S
O348 C368 1.257 . S
Zn349 N345 2.020 . S
Zn349 O356 1.975 . S
Zn349 N365 2.119 . S
Zn349 O370 2.019 . S
N350 Zn340 2.119 1_554 S
N350 C352 1.334 . S
N350 C353 1.328 1_554 S
C351 C352 1.391 . S
C351 N354 1.329 . S
C351 H372 0.930 . S
C352 N350 1.334 . S
C352 C351 1.391 . S
C352 H359 0.930 . S
C353 N350 1.328 1_556 S
C353 C355 1.392 . S
C353 H360 0.930 . S
N354 C351 1.329 . S
N354 C355 1.331 1_554 S
C355 C353 1.392 . S
C355 N354 1.331 1_556 S
O356 Zn349 1.975 . S
O356 C357 1.252 . S
C357 O356 1.252 . S
C357 O358 1.252 . S
O358 Zn340 1.975 1_554 S
O358 C357 1.252 . S
H359 C352 0.930 . S
H360 C353 0.930 . S
C361 C362 1.392 . S
C361 N365 1.328 . S
C361 H367 0.930 . S
C362 C361 1.392 . S
C362 N366 1.331 . S
C363 C364 1.391 . S
C363 N366 1.329 . S
C363 H373 0.930 . S
C364 C363 1.391 . S
C364 N365 1.334 . S
C364 H371 0.930 . S
N365 Zn349 2.119 . S
N365 C361 1.328 . S
N365 C364 1.334 . S
N366 C362 1.331 . S
N366 C363 1.329 . S
H367 C361 0.930 . S
C368 O348 1.257 . S
C368 O369 1.244 . S
O369 C368 1.244 . S
O370 C346 1.257 . S
O370 Zn349 2.019 . S
H371 C364 0.930 . S
H372 C351 0.930 . S
H373 C363 0.930 . S
Zn374 N378 2.026 . S
Zn374 O382 2.019 . S
Zn374 N384 2.119 . S
Zn374 O392 1.975 . S
C375 N376 1.334 . S
C375 N379 1.336 . S
N376 C375 1.334 . S
N376 C377 1.334 . S
C377 N376 1.334 . S
C377 N378 1.333 1_545 S
N378 Zn374 2.026 . S
N378 C377 1.333 1_565 S
N378 N379 1.350 1_565 S
N379 C375 1.336 . S
N379 N378 1.350 1_545 S
N379 Zn383 2.020 . S
C380 O381 1.244 . S
C380 O404 1.257 1_565 S
O381 C380 1.244 . S
O382 Zn374 2.019 . S
O382 C402 1.257 1_565 S
Zn383 N379 2.020 . S
Zn383 O390 1.975 1_545 S
Zn383 N399 2.119 . S
Zn383 O404 2.019 . S
N384 Zn374 2.119 . S
N384 C386 1.334 . S
N384 C387 1.328 . S
C385 C386 1.391 . S
C385 N388 1.329 . S
C385 H406 0.930 . S
C386 N384 1.334 . S
C386 C385 1.391 . S
C386 H393 0.930 . S
C387 N384 1.328 . S
C387 C389 1.392 . S
C387 H394 0.930 . S
N388 C385 1.329 . S
N388 C389 1.331 . S
C389 C387 1.392 . S
C389 N388 1.331 . S
O390 Zn383 1.975 1_565 S
O390 C391 1.252 . S
C391 O390 1.252 . S
C391 O392 1.252 . S
O392 Zn374 1.975 . S
O392 C391 1.252 . S
H393 C386 0.930 . S
H394 C387 0.930 . S
C395 C396 1.392 . S
C395 N399 1.328 . S
C395 H401 0.930 . S
C396 C395 1.392 . S
C396 N400 1.331 . S
C397 C398 1.391 . S
C397 N400 1.329 . S
C397 H407 0.930 . S
C398 C397 1.391 . S
C398 N399 1.334 . S
C398 H405 0.930 . S
N399 Zn383 2.119 . S
N399 C395 1.328 . S
N399 C398 1.334 . S
N400 C396 1.331 . S
N400 C397 1.329 . S
H401 C395 0.930 . S
C402 O382 1.257 1_545 S
C402 O403 1.244 . S
O403 C402 1.244 . S
O404 C380 1.257 1_545 S
O404 Zn383 2.019 . S
H405 C398 0.930 . S
H406 C385 0.930 . S
H407 C397 0.930 . S
Zn408 N412 2.020 . S
Zn408 O416 2.019 . S
Zn408 N418 2.119 . S
Zn408 O426 1.975 . S
C409 N410 1.334 . S
C409 N413 1.336 . S
N410 C409 1.334 . S
N410 C411 1.334 . S
C411 N410 1.334 . S
C411 N412 1.336 . S
N412 Zn408 2.020 . S
N412 C411 1.336 . S
N412 N413 1.354 . S
N413 C409 1.336 . S
N413 N412 1.354 . S
N413 Zn417 2.020 . S
C414 O415 1.244 . S
C414 O438 1.257 . S
O415 C414 1.244 . S
O416 Zn408 2.019 . S
O416 C436 1.257 . S
Zn417 N413 2.020 . S
Zn417 O424 1.975 . S
Zn417 N433 2.119 . S
Zn417 O438 2.019 . S
N418 Zn408 2.119 . S
N418 C420 1.334 . S
N418 C421 1.328 . S
C419 C420 1.391 . S
C419 N422 1.329 . S
C419 H440 0.930 . S
C420 N418 1.334 . S
C420 C419 1.391 . S
C420 H427 0.930 . S
C421 N418 1.328 . S
C421 C423 1.392 . S
C421 H428 0.930 . S
N422 C419 1.329 . S
N422 C423 1.331 . S
C423 C421 1.392 . S
C423 N422 1.331 . S
O424 Zn417 1.975 . S
O424 C425 1.252 . S
C425 O424 1.252 . S
C425 O426 1.252 . S
O426 Zn408 1.975 . S
O426 C425 1.252 . S
H427 C420 0.930 . S
H428 C421 0.930 . S
C429 C430 1.392 . S
C429 N433 1.328 . S
C429 H435 0.930 . S
C430 C429 1.392 . S
C430 N434 1.331 . S
C431 C432 1.391 . S
C431 N434 1.329 . S
C431 H441 0.930 . S
C432 C431 1.391 . S
C432 N433 1.334 . S
C432 H439 0.930 . S
N433 Zn417 2.119 . S
N433 C429 1.328 . S
N433 C432 1.334 . S
N434 C430 1.331 . S
N434 C431 1.329 . S
H435 C429 0.930 . S
C436 O416 1.257 . S
C436 O437 1.244 . S
O437 C436 1.244 . S
O438 C414 1.257 . S
O438 Zn417 2.019 . S
H439 C432 0.930 . S
H440 C419 0.930 . S
H441 C431 0.930 . S
Zn442 N446 2.026 . S
Zn442 O450 2.019 . S
Zn442 N452 2.119 . S
Zn442 O460 1.975 . S
C443 N444 1.334 1_655 S
C443 N447 1.336 . S
N444 C443 1.334 1_455 S
N444 C445 1.334 1_455 S
C445 N444 1.334 1_655 S
C445 N446 1.333 1_545 S
N446 Zn442 2.026 . S
N446 C445 1.333 1_565 S
N446 N447 1.350 1_565 S
N447 C443 1.336 . S
N447 N446 1.350 1_545 S
N447 Zn451 2.020 . S
C448 O449 1.244 . S
C448 O472 1.257 1_565 S
O449 C448 1.244 . S
O450 Zn442 2.019 . S
O450 C470 1.257 1_565 S
Zn451 N447 2.020 . S
Zn451 O458 1.975 1_545 S
Zn451 N467 2.119 . S
Zn451 O472 2.019 . S
N452 Zn442 2.119 . S
N452 C454 1.334 . S
N452 C455 1.328 . S
C453 C454 1.391 . S
C453 N456 1.329 . S
C453 H474 0.930 . S
C454 N452 1.334 . S
C454 C453 1.391 . S
C454 H461 0.930 . S
C455 N452 1.328 . S
C455 C457 1.392 . S
C455 H462 0.930 . S
N456 C453 1.329 . S
N456 C457 1.331 . S
C457 C455 1.392 . S
C457 N456 1.331 . S
O458 Zn451 1.975 1_565 S
O458 C459 1.252 . S
C459 O458 1.252 . S
C459 O460 1.252 . S
O460 Zn442 1.975 . S
O460 C459 1.252 . S
H461 C454 0.930 . S
H462 C455 0.930 . S
C463 C464 1.392 . S
C463 N467 1.328 . S
C463 H469 0.930 . S
C464 C463 1.392 . S
C464 N468 1.331 . S
C465 C466 1.391 . S
C465 N468 1.329 . S
C465 H475 0.930 . S
C466 C465 1.391 . S
C466 N467 1.334 . S
C466 H473 0.930 . S
N467 Zn451 2.119 . S
N467 C463 1.328 . S
N467 C466 1.334 . S
N468 C464 1.331 . S
N468 C465 1.329 . S
H469 C463 0.930 . S
C470 O450 1.257 1_545 S
C470 O471 1.244 . S
O471 C470 1.244 . S
O472 C448 1.257 1_545 S
O472 Zn451 2.019 . S
H473 C466 0.930 . S
H474 C453 0.930 . S
H475 C465 0.930 . S
Zn476 N480 2.020 1_554 S
Zn476 O484 2.019 . S
Zn476 N486 2.119 1_554 S
Zn476 O494 1.975 1_554 S
C477 N478 1.334 . S
C477 N481 1.336 . S
N478 C477 1.334 . S
N478 C479 1.334 . S
C479 N478 1.334 . S
C479 N480 1.336 . S
N480 Zn476 2.020 1_556 S
N480 C479 1.336 . S
N480 N481 1.354 . S
N481 C477 1.336 . S
N481 N480 1.354 . S
N481 Zn485 2.020 . S
C482 O483 1.244 . S
C482 O506 1.257 . S
O483 C482 1.244 . S
O484 Zn476 2.019 . S
O484 C504 1.257 . S
Zn485 N481 2.020 . S
Zn485 O492 1.975 . S
Zn485 N501 2.119 . S
Zn485 O506 2.019 . S
N486 Zn476 2.119 1_556 S
N486 C488 1.334 . S
N486 C489 1.328 1_556 S
C487 C488 1.391 . S
C487 N490 1.329 . S
C487 H508 0.930 . S
C488 N486 1.334 . S
C488 C487 1.391 . S
C488 H495 0.930 . S
C489 N486 1.328 1_554 S
C489 C491 1.392 . S
C489 H496 0.930 . S
N490 C487 1.329 . S
N490 C491 1.331 1_556 S
C491 C489 1.392 . S
C491 N490 1.331 1_554 S
O492 Zn485 1.975 . S
O492 C493 1.252 . S
C493 O492 1.252 . S
C493 O494 1.252 . S
O494 Zn476 1.975 1_556 S
O494 C493 1.252 . S
H495 C488 0.930 . S
H496 C489 0.930 . S
C497 C498 1.392 . S
C497 N501 1.328 . S
C497 H503 0.930 . S
C498 C497 1.392 . S
C498 N502 1.331 . S
C499 C500 1.391 . S
C499 N502 1.329 . S
C499 H509 0.930 . S
C500 C499 1.391 . S
C500 N501 1.334 . S
C500 H507 0.930 . S
N501 Zn485 2.119 . S
N501 C497 1.328 . S
N501 C500 1.334 . S
N502 C498 1.331 . S
N502 C499 1.329 . S
H503 C497 0.930 . S
C504 O484 1.257 . S
C504 O505 1.244 . S
O505 C504 1.244 . S
O506 C482 1.257 . S
O506 Zn485 2.019 . S
H507 C500 0.930 . S
H508 C487 0.930 . S
H509 C499 0.930 . S
Zn510 N514 2.020 . S
Zn510 O518 2.019 . S
Zn510 N520 2.119 . S
Zn510 O528 1.975 1_565 S
C511 N512 1.334 . S
C511 N515 1.333 1_565 S
N512 C511 1.334 . S
N512 C513 1.334 . S
C513 N512 1.334 . S
C513 N514 1.336 . S
N514 Zn510 2.020 . S
N514 C513 1.336 . S
N514 N515 1.350 1_565 S
N515 C511 1.333 1_545 S
N515 N514 1.350 1_545 S
N515 Zn519 2.026 . S
C516 O517 1.244 . S
C516 O540 1.257 1_565 S
O517 C516 1.244 . S
O518 Zn510 2.019 . S
O518 C538 1.257 1_565 S
Zn519 N515 2.026 . S
Zn519 O526 1.975 . S
Zn519 N535 2.119 . S
Zn519 O540 2.019 . S
N520 Zn510 2.119 . S
N520 C522 1.334 . S
N520 C523 1.328 . S
C521 C522 1.391 . S
C521 N524 1.329 . S
C521 H542 0.930 . S
C522 N520 1.334 . S
C522 C521 1.391 . S
C522 H529 0.930 . S
C523 N520 1.328 . S
C523 C525 1.392 . S
C523 H530 0.930 . S
N524 C521 1.329 . S
N524 C525 1.331 . S
C525 C523 1.392 . S
C525 N524 1.331 . S
O526 Zn519 1.975 . S
O526 C527 1.252 . S
C527 O526 1.252 . S
C527 O528 1.252 . S
O528 Zn510 1.975 1_545 S
O528 C527 1.252 . S
H529 C522 0.930 . S
H530 C523 0.930 . S
C531 C532 1.392 . S
C531 N535 1.328 . S
C531 H537 0.930 . S
C532 C531 1.392 . S
C532 N536 1.331 . S
C533 C534 1.391 . S
C533 N536 1.329 . S
C533 H543 0.930 . S
C534 C533 1.391 . S
C534 N535 1.334 . S
C534 H541 0.930 . S
N535 Zn519 2.119 . S
N535 C531 1.328 . S
N535 C534 1.334 . S
N536 C532 1.331 . S
N536 C533 1.329 . S
H537 C531 0.930 . S
C538 O518 1.257 1_545 S
C538 O539 1.244 . S
O539 C538 1.244 . S
O540 C516 1.257 1_545 S
O540 Zn519 2.019 . S
H541 C534 0.930 . S
H542 C521 0.930 . S
H543 C533 0.930 . S
C544 C545 1.387 . S
C544 H548 0.950 . S
C544 C553 1.390 . S
C545 C544 1.387 . S
C545 C547 1.387 . S
H546 C553 0.950 . S
C547 C545 1.387 . S
C547 C549 1.390 . S
C547 H551 0.950 . S
H548 C544 0.950 . S
C549 C547 1.390 . S
C549 C550 1.387 . S
C549 H552 0.950 . S
C550 C549 1.387 . S
C550 C553 1.387 . S
H551 C547 0.950 . S
H552 C549 0.950 . S
C553 C544 1.390 . S
C553 H546 0.950 . S
C553 C550 1.387 . S
C554 C555 1.387 . S
C554 H558 0.950 . S
C554 C563 1.390 . S
C555 C554 1.387 . S
C555 C557 1.387 . S
H556 C563 0.950 . S
C557 C555 1.387 . S
C557 C559 1.390 . S
C557 H561 0.950 . S
H558 C554 0.950 . S
C559 C557 1.390 . S
C559 C560 1.387 . S
C559 H562 0.950 . S
C560 C559 1.387 . S
C560 C563 1.387 . S
H561 C557 0.950 . S
H562 C559 0.950 . S
C563 C554 1.390 . S
C563 H556 0.950 . S
C563 C560 1.387 . S
C564 C565 1.387 . S
C564 H568 0.950 . S
C564 C573 1.390 . S
C565 C564 1.387 . S
C565 C567 1.387 . S
H566 C573 0.950 . S
C567 C565 1.387 . S
C567 C569 1.390 . S
C567 H571 0.950 . S
H568 C564 0.950 . S
C569 C567 1.390 . S
C569 C570 1.387 . S
C569 H572 0.950 . S
C570 C569 1.387 . S
C570 C573 1.387 . S
H571 C567 0.950 . S
H572 C569 0.950 . S
C573 C564 1.390 . S
C573 H566 0.950 . S
C573 C570 1.387 . S
C574 C575 1.387 . S
C574 H578 0.950 . S
C574 C583 1.390 1_455 S
C575 C574 1.387 . S
C575 C577 1.387 . S
H576 C583 0.950 . S
C577 C575 1.387 . S
C577 C579 1.390 . S
C577 H581 0.950 . S
H578 C574 0.950 . S
C579 C577 1.390 . S
C579 C580 1.387 1_455 S
C579 H582 0.950 . S
C580 C579 1.387 1_655 S
C580 C583 1.387 . S
H581 C577 0.950 . S
H582 C579 0.950 . S
C583 C574 1.390 1_655 S
C583 H576 0.950 . S
C583 C580 1.387 . S
C584 C585 1.387 . S
C584 H588 0.950 . S
C584 C593 1.390 . S
C585 C584 1.387 . S
C585 C587 1.387 . S
H586 C593 0.950 . S
C587 C585 1.387 . S
C587 C589 1.390 . S
C587 H591 0.950 . S
H588 C584 0.950 . S
C589 C587 1.390 . S
C589 C590 1.387 . S
C589 H592 0.950 . S
C590 C589 1.387 . S
C590 C593 1.387 . S
H591 C587 0.950 . S
H592 C589 0.950 . S
C593 C584 1.390 . S
C593 H586 0.950 . S
C593 C590 1.387 . S
C594 C595 1.387 . S
C594 H598 0.950 . S
C594 C603 1.390 . S
C595 C594 1.387 . S
C595 C597 1.387 . S
H596 C603 0.950 . S
C597 C595 1.387 . S
C597 C599 1.390 . S
C597 H601 0.950 . S
H598 C594 0.950 . S
C599 C597 1.390 . S
C599 C600 1.387 . S
C599 H602 0.950 . S
C600 C599 1.387 . S
C600 C603 1.387 . S
H601 C597 0.950 . S
H602 C599 0.950 . S
C603 C594 1.390 . S
C603 H596 0.950 . S
C603 C600 1.387 . S
C604 C605 1.387 . S
C604 H608 0.950 . S
C604 C613 1.390 . S
C605 C604 1.387 . S
C605 C607 1.387 . S
H606 C613 0.950 . S
C607 C605 1.387 . S
C607 C609 1.390 . S
C607 H611 0.950 . S
H608 C604 0.950 . S
C609 C607 1.390 . S
C609 C610 1.387 . S
C609 H612 0.950 . S
C610 C609 1.387 . S
C610 C613 1.387 . S
H611 C607 0.950 . S
H612 C609 0.950 . S
C613 C604 1.390 . S
C613 H606 0.950 . S
C613 C610 1.387 . S
C614 C615 1.387 . S
C614 H618 0.950 . S
C614 C623 1.390 1_655 S
C615 C614 1.387 . S
C615 C617 1.387 . S
H616 C623 0.950 . S
C617 C615 1.387 . S
C617 C619 1.390 . S
C617 H621 0.950 . S
H618 C614 0.950 . S
C619 C617 1.390 . S
C619 C620 1.387 1_655 S
C619 H622 0.950 . S
C620 C619 1.387 1_455 S
C620 C623 1.387 . S
H621 C617 0.950 . S
H622 C619 0.950 . S
C623 C614 1.390 1_455 S
C623 H616 0.950 . S
C623 C620 1.387 . S
C624 C625 1.387 . S
C624 H628 0.950 . S
C624 C633 1.390 . S
C625 C624 1.387 . S
C625 C627 1.387 . S
H626 C633 0.950 . S
C627 C625 1.387 . S
C627 C629 1.390 . S
C627 H631 0.950 . S
H628 C624 0.950 . S
C629 C627 1.390 . S
C629 C630 1.387 . S
C629 H632 0.950 . S
C630 C629 1.387 . S
C630 C633 1.387 . S
H631 C627 0.950 . S
H632 C629 0.950 . S
C633 C624 1.390 . S
C633 H626 0.950 . S
C633 C630 1.387 . S
C634 C635 1.386 1_655 S
C634 H638 0.949 1_655 S
C634 C643 1.392 . S
C635 C634 1.386 1_455 S
C635 C637 1.387 1_465 S
H636 C643 0.950 . S
C637 C635 1.387 1_645 S
C637 C639 1.392 . S
C637 H641 0.949 1_655 S
H638 C634 0.949 1_455 S
C639 C637 1.392 . S
C639 C640 1.387 1_545 S
C639 H642 0.950 . S
C640 C639 1.387 1_565 S
C640 C643 1.387 . S
H641 C637 0.949 1_455 S
H642 C639 0.950 . S
C643 C634 1.392 . S
C643 H636 0.950 . S
C643 C640 1.387 . S
C644 C645 1.387 . S
C644 H648 0.950 . S
C644 C653 1.390 . S
C645 C644 1.387 . S
C645 C647 1.387 . S
H646 C653 0.950 . S
C647 C645 1.387 . S
C647 C649 1.390 . S
C647 H651 0.950 . S
H648 C644 0.950 . S
C649 C647 1.390 . S
C649 C650 1.387 . S
C649 H652 0.950 . S
C650 C649 1.387 . S
C650 C653 1.387 . S
H651 C647 0.950 . S
H652 C649 0.950 . S
C653 C644 1.390 . S
C653 H646 0.950 . S
C653 C650 1.387 . S
C654 C655 1.387 1_565 S
C654 H658 0.950 . S
C654 C663 1.390 . S
C655 C654 1.387 1_545 S
C655 C657 1.387 . S
H656 C663 0.950 . S
C657 C655 1.387 . S
C657 C659 1.390 . S
C657 H661 0.950 . S
H658 C654 0.950 . S
C659 C657 1.390 . S
C659 C660 1.387 . S
C659 H662 0.950 . S
C660 C659 1.387 . S
C660 C663 1.387 1_545 S
H661 C657 0.950 . S
H662 C659 0.950 . S
C663 C654 1.390 . S
C663 H656 0.950 . S
C663 C660 1.387 1_565 S
C664 C665 1.387 . S
C664 H668 0.950 . S
C664 C673 1.390 . S
C665 C664 1.387 . S
C665 C667 1.387 . S
H666 C673 0.950 . S
C667 C665 1.387 . S
C667 C669 1.390 . S
C667 H671 0.950 . S
H668 C664 0.950 . S
C669 C667 1.390 . S
C669 C670 1.387 . S
C669 H672 0.950 . S
C670 C669 1.387 . S
C670 C673 1.387 . S
H671 C667 0.950 . S
H672 C669 0.950 . S
C673 C664 1.390 . S
C673 H666 0.950 . S
C673 C670 1.387 . S
C674 C675 1.388 1_455 S
C674 H678 0.950 1_455 S
C674 C683 1.390 . S
C675 C674 1.388 1_655 S
C675 C677 1.388 1_545 S
H676 C683 0.950 . S
C677 C675 1.388 1_565 S
C677 C679 1.389 1_655 S
C677 H681 0.950 . S
H678 C674 0.950 1_655 S
C679 C677 1.389 1_455 S
C679 C680 1.387 1_565 S
C679 H682 0.950 . S
C680 C679 1.387 1_545 S
C680 C683 1.387 . S
H681 C677 0.950 . S
H682 C679 0.950 . S
C683 C674 1.390 . S
C683 H676 0.950 . S
C683 C680 1.387 . S
C684 C685 1.387 . S
C684 H688 0.950 . S
C684 C693 1.390 . S
C685 C684 1.387 . S
C685 C687 1.387 . S
H686 C693 0.950 . S
C687 C685 1.387 . S
C687 C689 1.390 . S
C687 H691 0.950 . S
H688 C684 0.950 . S
C689 C687 1.390 . S
C689 C690 1.387 . S
C689 H692 0.950 . S
C690 C689 1.387 . S
C690 C693 1.387 . S
H691 C687 0.950 . S
H692 C689 0.950 . S
C693 C684 1.390 . S
C693 H686 0.950 . S
C693 C690 1.387 . S
C694 C695 1.387 1_545 S
C694 H698 0.950 . S
C694 C703 1.390 . S
C695 C694 1.387 1_565 S
C695 C697 1.387 . S
H696 C703 0.950 . S
C697 C695 1.387 . S
C697 C699 1.390 . S
C697 H701 0.950 . S
H698 C694 0.950 . S
C699 C697 1.390 . S
C699 C700 1.387 . S
C699 H702 0.950 . S
C700 C699 1.387 . S
C700 C703 1.387 1_565 S
H701 C697 0.950 . S
H702 C699 0.950 . S
C703 C694 1.390 . S
C703 H696 0.950 . S
C703 C700 1.387 1_545 S
C704 C705 1.387 . S
C704 H708 0.950 . S
C704 C713 1.390 . S
C705 C704 1.387 . S
C705 C707 1.387 1_554 S
H706 C713 0.950 . S
C707 C705 1.387 1_556 S
C707 C709 1.390 . S
C707 H711 0.950 . S
H708 C704 0.950 . S
C709 C707 1.390 . S
C709 C710 1.387 . S
C709 H712 0.950 . S
C710 C709 1.387 . S
C710 C713 1.387 1_556 S
H711 C707 0.950 . S
H712 C709 0.950 . S
C713 C704 1.390 . S
C713 H706 0.950 . S
C713 C710 1.387 1_554 S
C714 C715 1.387 . S
C714 H718 0.950 . S
C714 C723 1.390 . S
C715 C714 1.387 . S
C715 C717 1.387 . S
H716 C723 0.950 . S
C717 C715 1.387 . S
C717 C719 1.390 . S
C717 H721 0.950 . S
H718 C714 0.950 . S
C719 C717 1.390 . S
C719 C720 1.387 . S
C719 H722 0.950 . S
C720 C719 1.387 . S
C720 C723 1.387 . S
H721 C717 0.950 . S
H722 C719 0.950 . S
C723 C714 1.390 . S
C723 H716 0.950 . S
C723 C720 1.387 . S
C724 C725 1.387 . S
C724 H728 0.950 . S
C724 C733 1.390 . S
C725 C724 1.387 . S
C725 C727 1.387 . S
H726 C733 0.950 . S
C727 C725 1.387 . S
C727 C729 1.390 . S
C727 H731 0.950 . S
H728 C724 0.950 . S
C729 C727 1.390 . S
C729 C730 1.387 . S
C729 H732 0.950 . S
C730 C729 1.387 . S
C730 C733 1.387 . S
H731 C727 0.950 . S
H732 C729 0.950 . S
C733 C724 1.390 . S
C733 H726 0.950 . S
C733 C730 1.387 . S
C734 C735 1.387 . S
C734 H738 0.950 . S
C734 C743 1.390 . S
C735 C734 1.387 . S
C735 C737 1.387 . S
H736 C743 0.950 . S
C737 C735 1.387 . S
C737 C739 1.390 . S
C737 H741 0.950 . S
H738 C734 0.950 . S
C739 C737 1.390 . S
C739 C740 1.387 . S
C739 H742 0.950 . S
C740 C739 1.387 . S
C740 C743 1.387 . S
H741 C737 0.950 . S
H742 C739 0.950 . S
C743 C734 1.390 . S
C743 H736 0.950 . S
C743 C740 1.387 . S
C744 C745 1.387 1_556 S
C744 H748 0.949 1_556 S
C744 C753 1.390 . S
C745 C744 1.387 1_554 S
C745 C747 1.388 . S
H746 C753 0.950 . S
C747 C745 1.388 . S
C747 C749 1.389 1_554 S
C747 H751 0.951 . S
H748 C744 0.949 1_554 S
C749 C747 1.389 1_556 S
C749 C750 1.387 . S
C749 H752 0.950 . S
C750 C749 1.387 . S
C750 C753 1.387 . S
H751 C747 0.951 . S
H752 C749 0.950 . S
C753 C744 1.390 . S
C753 H746 0.950 . S
C753 C750 1.387 . S
C754 C755 1.387 . S
C754 H758 0.950 . S
C754 C763 1.390 . S
C755 C754 1.387 . S
C755 C757 1.387 . S
H756 C763 0.950 . S
C757 C755 1.387 . S
C757 C759 1.390 . S
C757 H761 0.950 . S
H758 C754 0.950 . S
C759 C757 1.390 . S
C759 C760 1.387 . S
C759 H762 0.950 . S
C760 C759 1.387 . S
C760 C763 1.387 . S
H761 C757 0.950 . S
H762 C759 0.950 . S
C763 C754 1.390 . S
C763 H756 0.950 . S
C763 C760 1.387 . S
C764 C765 1.387 . S
C764 H768 0.950 . S
C764 C773 1.390 . S
C765 C764 1.387 . S
C765 C767 1.387 . S
H766 C773 0.950 . S
C767 C765 1.387 . S
C767 C769 1.390 . S
C767 H771 0.950 . S
H768 C764 0.950 . S
C769 C767 1.390 . S
C769 C770 1.387 . S
C769 H772 0.950 . S
C770 C769 1.387 . S
C770 C773 1.387 . S
H771 C767 0.950 . S
H772 C769 0.950 . S
C773 C764 1.390 . S
C773 H766 0.950 . S
C773 C770 1.387 . S
C774 C775 1.387 . S
C774 H778 0.950 . S
C774 C783 1.390 . S
C775 C774 1.387 . S
C775 C777 1.387 . S
H776 C783 0.950 . S
C777 C775 1.387 . S
C777 C779 1.390 . S
C777 H781 0.950 . S
H778 C774 0.950 . S
C779 C777 1.390 . S
C779 C780 1.387 . S
C779 H782 0.950 . S
C780 C779 1.387 . S
C780 C783 1.387 . S
H781 C777 0.950 . S
H782 C779 0.950 . S
C783 C774 1.390 . S
C783 H776 0.950 . S
C783 C780 1.387 . S
C784 C785 1.387 . S
C784 H788 0.950 . S
C784 C793 1.390 . S
C785 C784 1.387 . S
C785 C787 1.387 . S
H786 C793 0.950 . S
C787 C785 1.387 . S
C787 C789 1.390 . S
C787 H791 0.950 . S
H788 C784 0.950 . S
C789 C787 1.390 . S
C789 C790 1.387 . S
C789 H792 0.950 . S
C790 C789 1.387 . S
C790 C793 1.387 . S
H791 C787 0.950 . S
H792 C789 0.950 . S
C793 C784 1.390 . S
C793 H786 0.950 . S
C793 C790 1.387 . S
C794 C795 1.387 . S
C794 H798 0.950 . S
C794 C803 1.390 . S
C795 C794 1.387 . S
C795 C797 1.387 1_545 S
H796 C803 0.950 . S
C797 C795 1.387 1_565 S
C797 C799 1.390 . S
C797 H801 0.950 . S
H798 C794 0.950 . S
C799 C797 1.390 . S
C799 C800 1.387 1_565 S
C799 H802 0.950 . S
C800 C799 1.387 1_545 S
C800 C803 1.387 . S
H801 C797 0.950 . S
H802 C799 0.950 . S
C803 C794 1.390 . S
C803 H796 0.950 . S
C803 C800 1.387 . S
C804 C805 1.387 1_554 S
C804 H808 0.950 . S
C804 C813 1.390 . S
C805 C804 1.387 1_556 S
C805 C807 1.387 . S
H806 C813 0.950 . S
C807 C805 1.387 . S
C807 C809 1.390 . S
C807 H811 0.950 . S
H808 C804 0.950 . S
C809 C807 1.390 . S
C809 C810 1.387 1_556 S
C809 H812 0.950 . S
C810 C809 1.387 1_554 S
C810 C813 1.387 . S
H811 C807 0.950 . S
H812 C809 0.950 . S
C813 C804 1.390 . S
C813 H806 0.950 . S
C813 C810 1.387 . S
C814 C815 1.387 1_545 S
C814 H818 0.950 . S
C814 C823 1.390 . S
C815 C814 1.387 1_565 S
C815 C817 1.387 . S
H816 C823 0.950 . S
C817 C815 1.387 . S
C817 C819 1.390 . S
C817 H821 0.950 . S
H818 C814 0.950 . S
C819 C817 1.390 . S
C819 C820 1.387 . S
C819 H822 0.950 . S
C820 C819 1.387 . S
C820 C823 1.387 1_565 S
H821 C817 0.950 . S
H822 C819 0.950 . S
C823 C814 1.390 . S
C823 H816 0.950 . S
C823 C820 1.387 1_545 S
C824 C825 1.387 . S
C824 H828 0.950 . S
C824 C833 1.390 . S
C825 C824 1.387 . S
C825 C827 1.387 . S
H826 C833 0.950 . S
C827 C825 1.387 . S
C827 C829 1.390 . S
C827 H831 0.950 . S
H828 C824 0.950 . S
C829 C827 1.390 . S
C829 C830 1.387 . S
C829 H832 0.950 . S
C830 C829 1.387 . S
C830 C833 1.387 . S
H831 C827 0.950 . S
H832 C829 0.950 . S
C833 C824 1.390 . S
C833 H826 0.950 . S
C833 C830 1.387 . S
C834 C835 1.387 1_545 S
C834 H838 0.950 . S
C834 C843 1.390 . S
C835 C834 1.387 1_565 S
C835 C837 1.387 . S
H836 C843 0.950 . S
C837 C835 1.387 . S
C837 C839 1.390 . S
C837 H841 0.950 . S
H838 C834 0.950 . S
C839 C837 1.390 . S
C839 C840 1.387 . S
C839 H842 0.950 . S
C840 C839 1.387 . S
C840 C843 1.387 1_565 S
H841 C837 0.950 . S
H842 C839 0.950 . S
C843 C834 1.390 . S
C843 H836 0.950 . S
C843 C840 1.387 1_545 S
C844 C845 1.383 1_556 S
C844 H848 0.944 1_556 S
C844 C853 1.402 . S
C845 C844 1.383 1_554 S
C845 C847 1.387 1_554 S
H846 C853 0.950 . S
C847 C845 1.387 1_556 S
C847 C849 1.390 . S
C847 H851 0.950 1_556 S
H848 C844 0.944 1_554 S
C849 C847 1.390 . S
C849 C850 1.387 . S
C849 H852 0.950 . S
C850 C849 1.387 . S
C850 C853 1.387 . S
H851 C847 0.950 1_554 S
H852 C849 0.950 . S
C853 C844 1.402 . S
C853 H846 0.950 . S
C853 C850 1.387 . S
C854 C855 1.387 1_565 S
C854 H858 0.950 . S
C854 C863 1.390 . S
C855 C854 1.387 1_545 S
C855 C857 1.387 . S
H856 C863 0.950 . S
C857 C855 1.387 . S
C857 C859 1.390 . S
C857 H861 0.950 . S
H858 C854 0.950 . S
C859 C857 1.390 . S
C859 C860 1.387 . S
C859 H862 0.950 . S
C860 C859 1.387 . S
C860 C863 1.387 1_545 S
H861 C857 0.950 . S
H862 C859 0.950 . S
C863 C854 1.390 . S
C863 H856 0.950 . S
C863 C860 1.387 1_565 S
C864 C865 1.387 . S
C864 H868 0.950 . S
C864 C873 1.390 . S
C865 C864 1.387 . S
C865 C867 1.387 . S
H866 C873 0.950 . S
C867 C865 1.387 . S
C867 C869 1.390 . S
C867 H871 0.950 . S
H868 C864 0.950 . S
C869 C867 1.390 . S
C869 C870 1.387 . S
C869 H872 0.950 1_545 S
C870 C869 1.387 . S
C870 C873 1.387 . S
H871 C867 0.950 . S
H872 C869 0.950 1_565 S
C873 C864 1.390 . S
C873 H866 0.950 . S
C873 C870 1.387 . S
C874 C875 1.387 . S
C874 H878 0.950 . S
C874 C883 1.390 . S
C875 C874 1.387 . S
C875 C877 1.387 . S
H876 C883 0.950 . S
C877 C875 1.387 . S
C877 C879 1.390 . S
C877 H881 0.950 . S
H878 C874 0.950 . S
C879 C877 1.390 . S
C879 C880 1.387 . S
C879 H882 0.950 . S
C880 C879 1.387 . S
C880 C883 1.387 . S
H881 C877 0.950 . S
H882 C879 0.950 . S
C883 C874 1.390 . S
C883 H876 0.950 . S
C883 C880 1.387 . S
C884 C885 1.387 . S
C884 H888 0.950 . S
C884 C893 1.390 . S
C885 C884 1.387 . S
C885 C887 1.387 . S
H886 C893 0.950 . S
C887 C885 1.387 . S
C887 C889 1.390 . S
C887 H891 0.950 . S
H888 C884 0.950 . S
C889 C887 1.390 . S
C889 C890 1.387 . S
C889 H892 0.950 . S
C890 C889 1.387 . S
C890 C893 1.387 . S
H891 C887 0.950 . S
H892 C889 0.950 . S
C893 C884 1.390 . S
C893 H886 0.950 . S
C893 C890 1.387 . S
C894 C895 1.387 . S
C894 H898 0.950 . S
C894 C903 1.390 . S
C895 C894 1.387 . S
C895 C897 1.387 . S
H896 C903 0.950 . S
C897 C895 1.387 . S
C897 C899 1.390 . S
C897 H901 0.950 . S
H898 C894 0.950 . S
C899 C897 1.390 . S
C899 C900 1.387 . S
C899 H902 0.950 . S
C900 C899 1.387 . S
C900 C903 1.387 . S
H901 C897 0.950 . S
H902 C899 0.950 . S
C903 C894 1.390 . S
C903 H896 0.950 . S
C903 C900 1.387 . S
C904 C905 1.387 . S
C904 H908 0.950 . S
C904 C913 1.390 . S
C905 C904 1.387 . S
C905 C907 1.387 . S
H906 C913 0.950 . S
C907 C905 1.387 . S
C907 C909 1.390 . S
C907 H911 0.950 . S
H908 C904 0.950 . S
C909 C907 1.390 . S
C909 C910 1.387 . S
C909 H912 0.950 . S
C910 C909 1.387 . S
C910 C913 1.387 . S
H911 C907 0.950 . S
H912 C909 0.950 . S
C913 C904 1.390 . S
C913 H906 0.950 . S
C913 C910 1.387 . S
C914 C915 1.387 . S
C914 H918 0.950 . S
C914 C923 1.390 . S
C915 C914 1.387 . S
C915 C917 1.387 . S
H916 C923 0.950 . S
C917 C915 1.387 . S
C917 C919 1.390 . S
C917 H921 0.950 . S
H918 C914 0.950 . S
C919 C917 1.390 . S
C919 C920 1.387 . S
C919 H922 0.950 . S
C920 C919 1.387 . S
C920 C923 1.387 . S
H921 C917 0.950 . S
H922 C919 0.950 . S
C923 C914 1.390 . S
C923 H916 0.950 . S
C923 C920 1.387 . S
C924 C925 1.387 . S
C924 H928 0.950 . S
C924 C933 1.390 . S
C925 C924 1.387 . S
C925 C927 1.387 . S
H926 C933 0.950 . S
C927 C925 1.387 . S
C927 C929 1.390 . S
C927 H931 0.950 . S
H928 C924 0.950 . S
C929 C927 1.390 . S
C929 C930 1.387 . S
C929 H932 0.950 . S
C930 C929 1.387 . S
C930 C933 1.387 . S
H931 C927 0.950 . S
H932 C929 0.950 . S
C933 C924 1.390 . S
C933 H926 0.950 . S
C933 C930 1.387 . S
C934 C935 1.387 . S
C934 H938 0.950 . S
C934 C943 1.390 . S
C935 C934 1.387 . S
C935 C937 1.387 . S
H936 C943 0.950 . S
C937 C935 1.387 . S
C937 C939 1.390 . S
C937 H941 0.950 . S
H938 C934 0.950 . S
C939 C937 1.390 . S
C939 C940 1.387 . S
C939 H942 0.950 . S
C940 C939 1.387 . S
C940 C943 1.387 . S
H941 C937 0.950 . S
H942 C939 0.950 . S
C943 C934 1.390 . S
C943 H936 0.950 . S
C943 C940 1.387 . S
C944 C945 1.387 . S
C944 H948 0.950 . S
C944 C953 1.390 . S
C945 C944 1.387 . S
C945 C947 1.387 . S
H946 C953 0.950 . S
C947 C945 1.387 . S
C947 C949 1.390 . S
C947 H951 0.950 . S
H948 C944 0.950 . S
C949 C947 1.390 . S
C949 C950 1.387 . S
C949 H952 0.950 . S
C950 C949 1.387 . S
C950 C953 1.387 . S
H951 C947 0.950 . S
H952 C949 0.950 . S
C953 C944 1.390 . S
C953 H946 0.950 . S
C953 C950 1.387 . S
C954 C955 1.387 . S
C954 H958 0.950 1_565 S
C954 C963 1.390 1_565 S
C955 C954 1.387 . S
C955 C957 1.387 . S
H956 C963 0.950 . S
C957 C955 1.387 . S
C957 C959 1.390 . S
C957 H961 0.950 . S
H958 C954 0.950 1_545 S
C959 C957 1.390 . S
C959 C960 1.387 . S
C959 H962 0.950 . S
C960 C959 1.387 . S
C960 C963 1.387 1_565 S
H961 C957 0.950 . S
H962 C959 0.950 . S
C963 C954 1.390 1_545 S
C963 H956 0.950 . S
C963 C960 1.387 1_545 S
C964 C965 1.387 . S
C964 H968 0.950 . S
C964 C973 1.390 . S
C965 C964 1.387 . S
C965 C967 1.387 . S
H966 C973 0.950 . S
C967 C965 1.387 . S
C967 C969 1.390 . S
C967 H971 0.950 . S
H968 C964 0.950 . S
C969 C967 1.390 . S
C969 C970 1.387 . S
C969 H972 0.950 . S
C970 C969 1.387 . S
C970 C973 1.387 . S
H971 C967 0.950 . S
H972 C969 0.950 . S
C973 C964 1.390 . S
C973 H966 0.950 . S
C973 C970 1.387 . S
C974 C975 1.387 1_565 S
C974 H978 0.950 . S
C974 C983 1.390 1_565 S
C975 C974 1.387 1_545 S
C975 C977 1.387 . S
H976 C983 0.950 1_565 S
C977 C975 1.387 . S
C977 C979 1.390 . S
C977 H981 0.950 . S
H978 C974 0.950 . S
C979 C977 1.390 . S
C979 C980 1.387 . S
C979 H982 0.950 . S
C980 C979 1.387 . S
C980 C983 1.387 . S
H981 C977 0.950 . S
H982 C979 0.950 . S
C983 C974 1.390 1_545 S
C983 H976 0.950 1_545 S
C983 C980 1.387 . S
C984 C985 1.387 . S
C984 H988 0.950 . S
C984 C993 1.390 . S
C985 C984 1.387 . S
C985 C987 1.387 . S
H986 C993 0.950 . S
C987 C985 1.387 . S
C987 C989 1.390 . S
C987 H991 0.950 . S
H988 C984 0.950 . S
C989 C987 1.390 . S
C989 C990 1.387 . S
C989 H992 0.950 . S
C990 C989 1.387 . S
C990 C993 1.387 . S
H991 C987 0.950 . S
H992 C989 0.950 . S
C993 C984 1.390 . S
C993 H986 0.950 . S
C993 C990 1.387 . S
C994 C995 1.387 . S
C994 H998 0.950 1_545 S
C994 C1003 1.389 1_545 S
C995 C994 1.387 . S
C995 C997 1.387 . S
H996 C1003 0.952 . S
C997 C995 1.387 . S
C997 C999 1.390 . S
C997 H1001 0.950 . S
H998 C994 0.950 1_565 S
C999 C997 1.390 . S
C999 C1000 1.387 . S
C999 H1002 0.950 . S
C1000 C999 1.387 . S
C1000 C1003 1.386 1_545 S
H1001 C997 0.950 . S
H1002 C999 0.950 . S
C1003 C994 1.389 1_565 S
C1003 H996 0.952 . S
C1003 C1000 1.386 1_565 S
C1004 C1005 1.387 . S
C1004 H1008 0.950 . S
C1004 C1013 1.390 . S
C1005 C1004 1.387 . S
C1005 C1007 1.387 . S
H1006 C1013 0.950 . S
C1007 C1005 1.387 . S
C1007 C1009 1.390 . S
C1007 H1011 0.950 . S
H1008 C1004 0.950 . S
C1009 C1007 1.390 . S
C1009 C1010 1.387 . S
C1009 H1012 0.950 . S
C1010 C1009 1.387 . S
C1010 C1013 1.387 . S
H1011 C1007 0.950 . S
H1012 C1009 0.950 . S
C1013 C1004 1.390 . S
C1013 H1006 0.950 . S
C1013 C1010 1.387 . S
C1014 C1015 1.387 . S
C1014 H1018 0.950 . S
C1014 C1023 1.390 . S
C1015 C1014 1.387 . S
C1015 C1017 1.387 . S
H1016 C1023 0.950 . S
C1017 C1015 1.387 . S
C1017 C1019 1.390 1_565 S
C1017 H1021 0.950 1_565 S
H1018 C1014 0.950 . S
C1019 C1017 1.390 1_545 S
C1019 C1020 1.387 1_545 S
C1019 H1022 0.950 . S
C1020 C1019 1.387 1_565 S
C1020 C1023 1.387 . S
H1021 C1017 0.950 1_545 S
H1022 C1019 0.950 . S
C1023 C1014 1.390 . S
C1023 H1016 0.950 . S
C1023 C1020 1.387 . S
C1024 C1025 1.387 . S
C1024 H1028 0.950 1_556 S
C1024 C1033 1.390 . S
C1025 C1024 1.387 . S
C1025 C1027 1.387 . S
H1026 C1033 0.950 1_554 S
C1027 C1025 1.387 . S
C1027 C1029 1.390 . S
C1027 H1031 0.950 . S
H1028 C1024 0.950 1_554 S
C1029 C1027 1.390 . S
C1029 C1030 1.387 . S
C1029 H1032 0.950 . S
C1030 C1029 1.387 . S
C1030 C1033 1.387 . S
H1031 C1027 0.950 . S
H1032 C1029 0.950 . S
C1033 C1024 1.390 . S
C1033 H1026 0.950 1_556 S
C1033 C1030 1.387 . S
C1034 C1035 1.387 . S
C1034 H1038 0.950 . S
C1034 C1043 1.390 . S
C1035 C1034 1.387 . S
C1035 C1037 1.387 . S
H1036 C1043 0.950 . S
C1037 C1035 1.387 . S
C1037 C1039 1.390 . S
C1037 H1041 0.950 . S
H1038 C1034 0.950 . S
C1039 C1037 1.390 . S
C1039 C1040 1.387 . S
C1039 H1042 0.950 . S
C1040 C1039 1.387 . S
C1040 C1043 1.387 . S
H1041 C1037 0.950 . S
H1042 C1039 0.950 . S
C1043 C1034 1.390 . S
C1043 H1036 0.950 . S
C1043 C1040 1.387 . S
C1044 C1045 1.387 . S
C1044 H1048 0.950 . S
C1044 C1053 1.390 1_455 S
C1045 C1044 1.387 . S
C1045 C1047 1.387 . S
H1046 C1053 0.950 . S
C1047 C1045 1.387 . S
C1047 C1049 1.390 1_455 S
C1047 H1051 0.950 . S
H1048 C1044 0.950 . S
C1049 C1047 1.390 1_655 S
C1049 C1050 1.387 . S
C1049 H1052 0.950 . S
C1050 C1049 1.387 . S
C1050 C1053 1.387 . S
H1051 C1047 0.950 . S
H1052 C1049 0.950 . S
C1053 C1044 1.390 1_655 S
C1053 H1046 0.950 . S
C1053 C1050 1.387 . S
C1054 C1055 1.387 . S
C1054 H1058 0.950 . S
C1054 C1063 1.390 1_455 S
C1055 C1054 1.387 . S
C1055 C1057 1.387 . S
H1056 C1063 0.950 . S
C1057 C1055 1.387 . S
C1057 C1059 1.390 1_455 S
C1057 H1061 0.950 . S
H1058 C1054 0.950 . S
C1059 C1057 1.390 1_655 S
C1059 C1060 1.387 . S
C1059 H1062 0.950 . S
C1060 C1059 1.387 . S
C1060 C1063 1.387 . S
H1061 C1057 0.950 . S
H1062 C1059 0.950 . S
C1063 C1054 1.390 1_655 S
C1063 H1056 0.950 . S
C1063 C1060 1.387 . S
C1064 C1065 1.387 . S
C1064 H1068 0.950 . S
C1064 C1073 1.390 . S
C1065 C1064 1.387 . S
C1065 C1067 1.387 . S
H1066 C1073 0.950 . S
C1067 C1065 1.387 . S
C1067 C1069 1.390 . S
C1067 H1071 0.950 1_554 S
H1068 C1064 0.950 . S
C1069 C1067 1.390 . S
C1069 C1070 1.387 . S
C1069 H1072 0.950 1_554 S
C1070 C1069 1.387 . S
C1070 C1073 1.387 . S
H1071 C1067 0.950 1_556 S
H1072 C1069 0.950 1_556 S
C1073 C1064 1.390 . S
C1073 H1066 0.950 . S
C1073 C1070 1.387 . S
C1074 C1075 1.387 . S
C1074 H1078 0.950 . S
C1074 C1083 1.390 . S
C1075 C1074 1.387 . S
C1075 C1077 1.387 . S
H1076 C1083 0.950 . S
C1077 C1075 1.387 . S
C1077 C1079 1.390 . S
C1077 H1081 0.950 . S
H1078 C1074 0.950 . S
C1079 C1077 1.390 . S
C1079 C1080 1.387 . S
C1079 H1082 0.950 . S
C1080 C1079 1.387 . S
C1080 C1083 1.387 . S
H1081 C1077 0.950 . S
H1082 C1079 0.950 . S
C1083 C1074 1.390 . S
C1083 H1076 0.950 . S
C1083 C1080 1.387 . S
C1084 C1085 1.387 . S
C1084 H1088 0.950 . S
C1084 C1093 1.390 1_455 S
C1085 C1084 1.387 . S
C1085 C1087 1.387 . S
H1086 C1093 0.950 . S
C1087 C1085 1.387 . S
C1087 C1089 1.390 1_455 S
C1087 H1091 0.950 . S
H1088 C1084 0.950 . S
C1089 C1087 1.390 1_655 S
C1089 C1090 1.387 . S
C1089 H1092 0.950 . S
C1090 C1089 1.387 . S
C1090 C1093 1.387 . S
H1091 C1087 0.950 . S
H1092 C1089 0.950 . S
C1093 C1084 1.390 1_655 S
C1093 H1086 0.950 . S
C1093 C1090 1.387 . S
C1094 C1095 1.387 . S
C1094 H1098 0.950 . S
C1094 C1103 1.390 1_455 S
C1095 C1094 1.387 . S
C1095 C1097 1.387 . S
H1096 C1103 0.950 . S
C1097 C1095 1.387 . S
C1097 C1099 1.390 1_455 S
C1097 H1101 0.950 . S
H1098 C1094 0.950 . S
C1099 C1097 1.390 1_655 S
C1099 C1100 1.387 . S
C1099 H1102 0.950 . S
C1100 C1099 1.387 . S
C1100 C1103 1.387 . S
H1101 C1097 0.950 . S
H1102 C1099 0.950 . S
C1103 C1094 1.390 1_655 S
C1103 H1096 0.950 . S
C1103 C1100 1.387 . S
C545 C253 1.591 . S
C550 C3 1.580 . S
C555 C430 1.590 . S
C560 C37 1.582 . S
C565 C71 1.580 . S
C570 C185 1.590 . S
C575 C498 1.590 . S
C580 C105 1.582 . S
C585 C117 1.591 . S
C590 C137 1.583 . S
C595 C173 1.582 . S
C600 C287 1.590 . S
C605 C205 1.580 . S
C610 C49 1.590 . S
C615 C362 1.591 . S
C620 C241 1.580 . S
C625 C525 1.591 . S
C630 C275 1.581 . S
C635 C307 1.581 . S
C640 C158 1.591 . S
C645 C464 1.591 . S
C650 C341 1.582 . S
C655 C226 1.590 . S
C660 C375 1.582 . S
C665 C396 1.589 . S
C670 C409 1.581 . S
C675 C443 1.582 . S
C680 C15 1.590 . S
C685 C477 1.582 . S
C690 C328 1.590 . S
C695 C83 1.591 . S
C700 C513 1.581 . S
C705 C17 2.272 1_565 S
C710 C479 2.178 . S
C715 C239 2.179 1_655 S
C720 C51 2.271 . S
C725 C411 2.179 . S
C730 C85 2.271 1_545 S
C735 C119 2.271 . S
C740 C171 2.179 . S
C745 C343 2.177 . S
C750 C153 2.272 1_545 S
C755 C103 2.177 1_455 S
C760 C187 2.272 . S
C765 C221 2.272 1_565 S
C770 C273 2.179 . S
C775 C255 2.273 . S
C780 C35 2.177 . S
C785 C289 2.273 . S
C790 C207 2.177 . S
C795 C323 2.272 . S
C800 C511 2.179 1_545 S
C805 C139 2.179 . S
C810 C357 2.272 . S
C815 C445 2.177 1_465 S
C820 C391 2.273 . S
C825 C69 2.177 . S
C830 C425 2.272 . S
C835 C459 2.272 . S
C840 C377 2.179 1_565 S
C845 C1 2.179 . S
C850 C493 2.272 . S
C855 C309 2.179 1_645 S
C860 C527 2.272 . S
C865 C6 1.331 . S
C870 C312 1.378 . S
C875 C346 1.379 . S
C880 C40 1.333 . S
C885 C380 1.379 . S
C890 C74 1.333 . S
C895 C300 1.377 . S
C900 C108 1.329 . S
C905 C164 1.330 . S
C910 C448 1.377 . S
C915 C176 1.329 . S
C920 C482 1.377 . S
C925 C538 1.379 . S
C930 C232 1.333 . S
C935 C414 1.379 . S
C940 C244 1.333 . S
C945 C62 1.379 . S
C950 C278 1.333 . S
C955 C96 1.379 . S
C960 C334 1.333 . S
C965 C368 1.332 . S
C970 C130 1.379 . S
C975 C402 1.333 . S
C980 C28 1.379 . S
C985 C436 1.332 . S
C990 C198 1.379 . S
C995 C210 1.377 . S
C1000 C470 1.330 . S
C1005 C504 1.333 . S
C1010 C266 1.379 . S
C1015 C142 1.379 . S
C1020 C516 1.333 . S
C1025 C355 1.212 . S
C1030 C22 1.212 . S
C1035 C56 1.215 . S
C1040 C389 1.215 . S
C1045 C90 1.216 . S
C1050 C294 1.215 . S
C1055 C321 1.216 . S
C1060 C124 1.216 . S
C1065 C151 1.212 . S
C1070 C491 1.212 . S
C1075 C532 1.215 . S
C1080 C192 1.215 . S
C1085 C423 1.215 . S
C1090 C219 1.216 . S
C1095 C260 1.216 . S
C1100 C457 1.216 . S
