# Generated by pormake.
# Topology vbm, (6)-cn, num edge types: 1
# Building blocks:
#     Node 0, Type 0, BuildingBlock: BETDIP_clean_sbu_0, # of connection points: 6
#     Node 1, Type 0, BuildingBlock: BETDIP_clean_sbu_0, # of connection points: 6
#     Node 2, Type 0, BuildingBlock: BETDIP_clean_sbu_0, # of connection points: 6
#     Node 3, Type 0, BuildingBlock: BETDIP_clean_sbu_0, # of connection points: 6
#     Node 4, Type 0, BuildingBlock: BETDIP_clean_sbu_0, # of connection points: 6
#     Node 5, Type 0, BuildingBlock: BETDIP_clean_sbu_0, # of connection points: 6
#     Node 6, Type 0, BuildingBlock: BETDIP_clean_sbu_0, # of connection points: 6
#     Node 7, Type 0, BuildingBlock: BETDIP_clean_sbu_0, # of connection points: 6
#     Node 8, Type 0, BuildingBlock: BETDIP_clean_sbu_0, # of connection points: 6
#     Node 9, Type 0, BuildingBlock: BETDIP_clean_sbu_0, # of connection points: 6
#     Node 10, Type 0, BuildingBlock: BETDIP_clean_sbu_0, # of connection points: 6
#     Node 11, Type 0, BuildingBlock: BETDIP_clean_sbu_0, # of connection points: 6
#     Node 12, Type 0, BuildingBlock: BETDIP_clean_sbu_0, # of connection points: 6
#     Node 13, Type 0, BuildingBlock: BETDIP_clean_sbu_0, # of connection points: 6
#     Node 14, Type 0, BuildingBlock: BETDIP_clean_sbu_0, # of connection points: 6
#     Node 15, Type 0, BuildingBlock: BETDIP_clean_sbu_0, # of connection points: 6
#     Edge 16, Type (0, 0), BuildingBlock: OJICUG_clean_linker_0, # of connection points: 2
#     Edge 17, Type (0, 0), BuildingBlock: OJICUG_clean_linker_0, # of connection points: 2
#     Edge 18, Type (0, 0), BuildingBlock: OJICUG_clean_linker_0, # of connection points: 2
#     Edge 19, Type (0, 0), BuildingBlock: OJICUG_clean_linker_0, # of connection points: 2
#     Edge 20, Type (0, 0), BuildingBlock: OJICUG_clean_linker_0, # of connection points: 2
#     Edge 21, Type (0, 0), BuildingBlock: OJICUG_clean_linker_0, # of connection points: 2
#     Edge 22, Type (0, 0), BuildingBlock: OJICUG_clean_linker_0, # of connection points: 2
#     Edge 23, Type (0, 0), BuildingBlock: OJICUG_clean_linker_0, # of connection points: 2
#     Edge 24, Type (0, 0), BuildingBlock: OJICUG_clean_linker_0, # of connection points: 2
#     Edge 25, Type (0, 0), BuildingBlock: OJICUG_clean_linker_0, # of connection points: 2
#     Edge 26, Type (0, 0), BuildingBlock: OJICUG_clean_linker_0, # of connection points: 2
#     Edge 27, Type (0, 0), BuildingBlock: OJICUG_clean_linker_0, # of connection points: 2
#     Edge 28, Type (0, 0), BuildingBlock: OJICUG_clean_linker_0, # of connection points: 2
#     Edge 29, Type (0, 0), BuildingBlock: OJICUG_clean_linker_0, # of connection points: 2
#     Edge 30, Type (0, 0), BuildingBlock: OJICUG_clean_linker_0, # of connection points: 2
#     Edge 31, Type (0, 0), BuildingBlock: OJICUG_clean_linker_0, # of connection points: 2
#     Edge 32, Type (0, 0), BuildingBlock: OJICUG_clean_linker_0, # of connection points: 2
#     Edge 33, Type (0, 0), BuildingBlock: OJICUG_clean_linker_0, # of connection points: 2
#     Edge 34, Type (0, 0), BuildingBlock: OJICUG_clean_linker_0, # of connection points: 2
#     Edge 35, Type (0, 0), BuildingBlock: OJICUG_clean_linker_0, # of connection points: 2
#     Edge 36, Type (0, 0), BuildingBlock: OJICUG_clean_linker_0, # of connection points: 2
#     Edge 37, Type (0, 0), BuildingBlock: OJICUG_clean_linker_0, # of connection points: 2
#     Edge 38, Type (0, 0), BuildingBlock: OJICUG_clean_linker_0, # of connection points: 2
#     Edge 39, Type (0, 0), BuildingBlock: OJICUG_clean_linker_0, # of connection points: 2
#     Edge 40, Type (0, 0), BuildingBlock: OJICUG_clean_linker_0, # of connection points: 2
#     Edge 41, Type (0, 0), BuildingBlock: OJICUG_clean_linker_0, # of connection points: 2
#     Edge 42, Type (0, 0), BuildingBlock: OJICUG_clean_linker_0, # of connection points: 2
#     Edge 43, Type (0, 0), BuildingBlock: OJICUG_clean_linker_0, # of connection points: 2
#     Edge 44, Type (0, 0), BuildingBlock: OJICUG_clean_linker_0, # of connection points: 2
#     Edge 45, Type (0, 0), BuildingBlock: OJICUG_clean_linker_0, # of connection points: 2
#     Edge 46, Type (0, 0), BuildingBlock: OJICUG_clean_linker_0, # of connection points: 2
#     Edge 47, Type (0, 0), BuildingBlock: OJICUG_clean_linker_0, # of connection points: 2
#     Edge 48, Type (0, 0), BuildingBlock: OJICUG_clean_linker_0, # of connection points: 2
#     Edge 49, Type (0, 0), BuildingBlock: OJICUG_clean_linker_0, # of connection points: 2
#     Edge 50, Type (0, 0), BuildingBlock: OJICUG_clean_linker_0, # of connection points: 2
#     Edge 51, Type (0, 0), BuildingBlock: OJICUG_clean_linker_0, # of connection points: 2
#     Edge 52, Type (0, 0), BuildingBlock: OJICUG_clean_linker_0, # of connection points: 2
#     Edge 53, Type (0, 0), BuildingBlock: OJICUG_clean_linker_0, # of connection points: 2
#     Edge 54, Type (0, 0), BuildingBlock: OJICUG_clean_linker_0, # of connection points: 2
#     Edge 55, Type (0, 0), BuildingBlock: OJICUG_clean_linker_0, # of connection points: 2
#     Edge 56, Type (0, 0), BuildingBlock: OJICUG_clean_linker_0, # of connection points: 2
#     Edge 57, Type (0, 0), BuildingBlock: OJICUG_clean_linker_0, # of connection points: 2
#     Edge 58, Type (0, 0), BuildingBlock: OJICUG_clean_linker_0, # of connection points: 2
#     Edge 59, Type (0, 0), BuildingBlock: OJICUG_clean_linker_0, # of connection points: 2
#     Edge 60, Type (0, 0), BuildingBlock: OJICUG_clean_linker_0, # of connection points: 2
#     Edge 61, Type (0, 0), BuildingBlock: OJICUG_clean_linker_0, # of connection points: 2
#     Edge 62, Type (0, 0), BuildingBlock: OJICUG_clean_linker_0, # of connection points: 2
#     Edge 63, Type (0, 0), BuildingBlock: OJICUG_clean_linker_0, # of connection points: 2
# Relax obj value: 0.068
# Max RMSD: 0.155
# Mean RMSD: 0.155
data_MOF--net-vbm--node1-BETDIP_clean_sbu_0--edge1-OJICUG_clean_linker_0
_symmetry_space_group_name_H-M    P1
_symmetry_Int_Tables_number       1
_symmetry_cell_setting            triclinic
loop_
_symmetry_equiv_pos_as_xyz
'x, y, z'
_cell_length_a     39.328114
_cell_length_b     21.191297
_cell_length_c     38.264174
_cell_angle_alpha  89.977809
_cell_angle_beta   89.86768
_cell_angle_gamma 89.75636
loop_
_atom_site_label
_atom_site_type_symbol
_atom_site_fract_x
_atom_site_fract_y
_atom_site_fract_z
_atom_type_partial_charge
Tb0 Tb 0.12951 0.08756 0.1774 0.0
Tb1 Tb 0.08966 0.2151 0.18431 0.0
C2 C 0.15219 0.98088 0.19459 0.0
C3 C 0.14768 0.91446 0.18459 0.0
C4 C 0.16848 0.86826 0.1998 0.0
C5 C 0.16206 0.80422 0.19413 0.0
C6 C 0.13459 0.78517 0.17317 0.0
C7 C 0.11446 0.83193 0.157 0.0
C8 C 0.12094 0.89603 0.16269 0.0
C9 C 0.12039 0.13834 0.11466 0.0
C10 C 0.04887 0.09684 0.16376 0.0
C11 C 0.06752 0.32646 0.18235 0.0
C12 C 0.08022 0.39125 0.17692 0.0
C13 C 0.06157 0.43291 0.15581 0.0
C14 C 0.0714 0.49599 0.15246 0.0
C15 C 0.10014 0.5188 0.1702 0.0
C16 C 0.11934 0.47643 0.1906 0.0
C17 C 0.10943 0.41336 0.19401 0.0
C18 C 0.09124 0.13865 0.23945 0.0
C19 C 0.17049 0.2139 0.18713 0.0
O20 O 0.1255 1.0076 0.2089 0.0
O21 O 0.16748 1.01791 0.17205 0.0
O22 O 0.1108 0.15924 0.14391 0.0
O23 O 0.13625 0.08557 0.12032 0.0
O24 O 0.07559 0.06117 0.17228 0.0
O25 O 0.05013 0.15894 0.1619 0.0
O26 O 0.06771 0.28881 0.15513 0.0
O27 O 0.07701 0.29782 0.21113 0.0
O28 O 0.11506 0.14988 0.21831 0.0
O29 O 0.06518 0.17275 0.2306 0.0
O30 O 0.14216 0.24607 0.18141 0.0
O31 O 0.17111 0.15149 0.19037 0.0
H32 H 0.18904 0.88167 0.21704 0.0
H33 H 0.17781 0.76969 0.20736 0.0
H34 H 0.09339 0.81899 0.14034 0.0
H35 H 0.10453 0.93116 0.1508 0.0
H36 H 0.03894 0.41692 0.14242 0.0
H37 H 0.05629 0.52706 0.13616 0.0
H38 H 0.14138 0.49248 0.20494 0.0
H39 H 0.12413 0.38237 0.21071 0.0
Tb40 Tb 0.836 0.98262 0.1731 0.0
Tb41 Tb 0.87549 0.86473 0.18352 0.0
C42 C 0.81238 0.09356 0.17558 0.0
C43 C 0.82383 0.15966 0.1787 0.0
C44 C 0.80374 0.2026 0.1976 0.0
C45 C 0.81244 0.26652 0.19906 0.0
C46 C 0.84145 0.28902 0.18152 0.0
C47 C 0.86198 0.2455 0.16317 0.0
C48 C 0.8533 0.18143 0.16182 0.0
C49 C 0.83673 0.90832 0.11747 0.0
C50 C 0.91713 0.98002 0.16309 0.0
C51 C 0.90001 0.75444 0.18441 0.0
C52 C 0.88916 0.68775 0.18276 0.0
C53 C 0.90895 0.64467 0.16363 0.0
C54 C 0.90057 0.58058 0.16294 0.0
C55 C 0.87212 0.55796 0.1814 0.0
C56 C 0.85203 0.60152 0.20024 0.0
C57 C 0.86049 0.66575 0.20094 0.0
C58 C 0.87451 0.94436 0.23739 0.0
C59 C 0.79513 0.86088 0.18933 0.0
O60 O 0.81616 0.05755 0.20306 0.0
O61 O 0.81981 0.06389 0.14657 0.0
O62 O 0.86158 0.91858 0.13772 0.0
O63 O 0.81091 0.94115 0.12826 0.0
O64 O 0.88963 1.01382 0.17102 0.0
O65 O 0.91616 0.91815 0.16133 0.0
O66 O 0.89643 0.78794 0.15592 0.0
O67 O 0.8919 0.78637 0.2125 0.0
O68 O 0.8501 0.93018 0.21774 0.0
O69 O 0.90075 0.91129 0.22801 0.0
O70 O 0.82354 0.82988 0.1826 0.0
O71 O 0.79436 0.92325 0.19112 0.0
H72 H 0.78084 0.18688 0.21071 0.0
H73 H 0.79583 0.2986 0.21311 0.0
H74 H 0.88477 0.26097 0.1498 0.0
H75 H 0.86931 0.14918 0.14717 0.0
H76 H 0.93131 0.66049 0.1496 0.0
H77 H 0.91693 0.54853 0.14856 0.0
H78 H 0.82969 0.58605 0.21439 0.0
H79 H 0.84483 0.698 0.21598 0.0
Tb80 Tb 0.12951 0.9911 0.40754 0.0
Tb81 Tb 0.0897 0.86422 0.40064 0.0
C82 C 0.15212 0.09745 0.39021 0.0
C83 C 0.14794 0.16396 0.4003 0.0
C84 C 0.16848 0.20966 0.38447 0.0
C85 C 0.16225 0.27385 0.39017 0.0
C86 C 0.13522 0.29357 0.4118 0.0
C87 C 0.11541 0.24729 0.42862 0.0
C88 C 0.12169 0.18303 0.42288 0.0
C89 C 0.12111 0.93958 0.47017 0.0
C90 C 0.04913 0.98233 0.42278 0.0
C91 C 0.06775 0.75306 0.40212 0.0
C92 C 0.08058 0.68814 0.40753 0.0
C93 C 0.06245 0.64715 0.42942 0.0
C94 C 0.07239 0.58401 0.43288 0.0
C95 C 0.10073 0.56045 0.41445 0.0
C96 C 0.11942 0.60213 0.39323 0.0
C97 C 0.10939 0.66527 0.38972 0.0
C98 C 0.09097 0.94139 0.34578 0.0
C99 C 0.17036 0.86424 0.39713 0.0
O100 O 0.12518 0.07143 0.37636 0.0
O101 O 0.16759 0.05998 0.41245 0.0
O102 O 0.11124 0.91913 0.44099 0.0
O103 O 0.13683 0.99228 0.4645 0.0
O104 O 0.07558 1.01795 0.4137 0.0
O105 O 0.05062 0.92023 0.42439 0.0
O106 O 0.06751 0.79049 0.42943 0.0
O107 O 0.07745 0.78189 0.37348 0.0
O108 O 0.11489 0.92943 0.3666 0.0
O109 O 0.06489 0.90783 0.35485 0.0
O110 O 0.14212 0.83251 0.40332 0.0
O111 O 0.17094 0.92662 0.39382 0.0
H112 H 0.18866 0.19574 0.36671 0.0
H113 H 0.17774 0.30798 0.37643 0.0
H114 H 0.0947 0.26074 0.4458 0.0
H115 H 0.10548 0.14829 0.43525 0.0
H116 H 0.04013 0.66372 0.44338 0.0
H117 H 0.0577 0.55347 0.4498 0.0
H118 H 0.14113 0.58549 0.37835 0.0
H119 H 0.12371 0.6957 0.37242 0.0
Tb120 Tb 0.83622 0.08778 0.40745 0.0
Tb121 Tb 0.87579 0.21463 0.40081 0.0
C122 C 0.81377 0.98155 0.38987 0.0
C123 C 0.81829 0.91505 0.39985 0.0
C124 C 0.79729 0.86925 0.38489 0.0
C125 C 0.80361 0.8051 0.39066 0.0
C126 C 0.83119 0.78556 0.41146 0.0
C127 C 0.85152 0.83194 0.42739 0.0
C128 C 0.84513 0.89615 0.42161 0.0
C129 C 0.84469 0.13798 0.47035 0.0
C130 C 0.91657 0.09657 0.42242 0.0
C131 C 0.89774 0.32581 0.40207 0.0
C132 C 0.88505 0.39071 0.40776 0.0
C133 C 0.90398 0.43205 0.4286 0.0
C134 C 0.8942 0.49528 0.43207 0.0
C135 C 0.86524 0.51856 0.41469 0.0
C136 C 0.84574 0.4765 0.39461 0.0
C137 C 0.85559 0.41326 0.3911 0.0
C138 C 0.87447 0.13845 0.34554 0.0
C139 C 0.79514 0.21459 0.39859 0.0
O140 O 0.84051 1.00808 0.37575 0.0
O141 O 0.7983 1.0186 0.41238 0.0
O142 O 0.85452 0.15914 0.44124 0.0
O143 O 0.82898 0.0854 0.46442 0.0
O144 O 0.89017 0.06098 0.41331 0.0
O145 O 0.91501 0.15865 0.42417 0.0
O146 O 0.89832 0.28822 0.42932 0.0
O147 O 0.8876 0.29719 0.37359 0.0
O148 O 0.85054 0.15002 0.36654 0.0
O149 O 0.90057 0.17167 0.35475 0.0
O150 O 0.8234 0.24618 0.40469 0.0
O151 O 0.79462 0.15235 0.39464 0.0
H152 H 0.77662 0.88304 0.36779 0.0
H153 H 0.7877 0.77084 0.37763 0.0
H154 H 0.87267 0.81861 0.44393 0.0
H155 H 0.86167 0.93096 0.43333 0.0
H156 H 0.92679 0.4157 0.44166 0.0
H157 H 0.90953 0.5261 0.44813 0.0
H158 H 0.82352 0.4929 0.38056 0.0
H159 H 0.84065 0.38251 0.37464 0.0
Tb160 Tb 0.87555 0.86521 0.9019 0.0
Tb161 Tb 0.83596 0.98299 0.9125 0.0
C162 C 0.90005 0.7549 0.9013 0.0
C163 C 0.88916 0.68822 0.90287 0.0
C164 C 0.90845 0.64527 0.92255 0.0
C165 C 0.90011 0.58116 0.92313 0.0
C166 C 0.87223 0.55839 0.90399 0.0
C167 C 0.85252 0.60184 0.88473 0.0
C168 C 0.86095 0.66608 0.88411 0.0
C169 C 0.87476 0.94485 0.84805 0.0
C170 C 0.79525 0.86139 0.89571 0.0
C171 C 0.81225 0.09387 0.91039 0.0
C172 C 0.82359 0.16007 0.90727 0.0
C173 C 0.80386 0.20256 0.88777 0.0
C174 C 0.81236 0.26656 0.88626 0.0
C175 C 0.84083 0.28968 0.90437 0.0
C176 C 0.86107 0.24655 0.92328 0.0
C177 C 0.85255 0.18239 0.9247 0.0
C178 C 0.83666 0.90802 0.96798 0.0
C179 C 0.91705 0.98048 0.92228 0.0
O180 O 0.89605 0.7884 0.92974 0.0
O181 O 0.8924 0.78687 0.87311 0.0
O182 O 0.85026 0.93088 0.86776 0.0
O183 O 0.90095 0.91163 0.85734 0.0
O184 O 0.82361 0.83031 0.90245 0.0
O185 O 0.79447 0.92378 0.8942 0.0
O186 O 0.81598 0.05807 0.88282 0.0
O187 O 0.81976 0.06401 0.9393 0.0
O188 O 0.86147 0.91895 0.94771 0.0
O189 O 0.81078 0.94068 0.95726 0.0
O190 O 0.88958 1.01429 0.91437 0.0
O191 O 0.91608 0.91863 0.92408 0.0
H192 H 0.93029 0.66128 0.93725 0.0
H193 H 0.91551 0.54942 0.93873 0.0
H194 H 0.83106 0.586 0.86944 0.0
H195 H 0.84574 0.69818 0.86855 0.0
H196 H 0.78147 0.18635 0.87403 0.0
H197 H 0.79655 0.29793 0.87089 0.0
H198 H 0.883 0.26256 0.93778 0.0
H199 H 0.86823 0.15055 0.93994 0.0
Tb200 Tb 0.08956 0.21509 0.90036 0.0
Tb201 Tb 0.12946 0.0878 0.9073 0.0
C202 C 0.06728 0.32643 0.90207 0.0
C203 C 0.08054 0.39109 0.90604 0.0
C204 C 0.06167 0.43564 0.92509 0.0
C205 C 0.07248 0.49836 0.92718 0.0
C206 C 0.10251 0.5178 0.91029 0.0
C207 C 0.1218 0.47247 0.89192 0.0
C208 C 0.11083 0.40991 0.88966 0.0
C209 C 0.0913 0.13869 0.84527 0.0
C210 C 0.17043 0.21423 0.89734 0.0
C211 C 0.15249 0.98152 0.88983 0.0
C212 C 0.14866 0.91461 0.8992 0.0
C213 C 0.17202 0.87059 0.88598 0.0
C214 C 0.16652 0.80594 0.89038 0.0
C215 C 0.13744 0.78408 0.90805 0.0
C216 C 0.11476 0.82859 0.92255 0.0
C217 C 0.1203 0.89335 0.91811 0.0
C218 C 0.12018 0.13841 0.97005 0.0
C219 C 0.04883 0.09696 0.92131 0.0
O220 O 0.06863 0.28979 0.92968 0.0
O221 O 0.07561 0.29672 0.87323 0.0
O222 O 0.11514 0.14991 0.86629 0.0
O223 O 0.06515 0.17248 0.85429 0.0
O224 O 0.14202 0.24644 0.90267 0.0
O225 O 0.17111 0.15179 0.89442 0.0
O226 O 0.12563 1.00795 0.87581 0.0
O227 O 0.1676 1.01841 0.91248 0.0
O228 O 0.11062 0.15941 0.94083 0.0
O229 O 0.13606 0.08565 0.96434 0.0
O230 O 0.07554 0.0613 0.91261 0.0
O231 O 0.05013 0.15905 0.92321 0.0
H232 H 0.03809 0.42222 0.93771 0.0
H233 H 0.0567 0.53198 0.94113 0.0
H234 H 0.1453 0.4854 0.87902 0.0
H235 H 0.1257 0.37655 0.87454 0.0
H236 H 0.19401 0.88616 0.87125 0.0
H237 H 0.18476 0.77301 0.87938 0.0
H238 H 0.09198 0.81339 0.93605 0.0
H239 H 0.10186 0.92673 0.92834 0.0
Tb240 Tb 0.87605 0.2149 0.68449 0.0
Tb241 Tb 0.83649 0.08796 0.67826 0.0
C242 C 0.89763 0.32628 0.68245 0.0
C243 C 0.88429 0.39096 0.67732 0.0
C244 C 0.90085 0.4315 0.6539 0.0
C245 C 0.89061 0.49454 0.6507 0.0
C246 C 0.86359 0.5185 0.67098 0.0
C247 C 0.84638 0.47722 0.69371 0.0
C248 C 0.85664 0.41416 0.69689 0.0
C249 C 0.87471 0.13923 0.73995 0.0
C250 C 0.79539 0.21495 0.6872 0.0
C251 C 0.81374 0.98219 0.6965 0.0
C252 C 0.81765 0.91539 0.68691 0.0
C253 C 0.79856 0.86994 0.70476 0.0
C254 C 0.80445 0.80566 0.699 0.0
C255 C 0.82967 0.7856 0.67527 0.0
C256 C 0.84806 0.83162 0.65661 0.0
C257 C 0.84214 0.89599 0.66243 0.0
C258 C 0.84504 0.13777 0.61525 0.0
C259 C 0.91685 0.09666 0.663 0.0
O260 O 0.8975 0.28876 0.65518 0.0
O261 O 0.88875 0.29733 0.71133 0.0
O262 O 0.85075 0.15042 0.719 0.0
O263 O 0.9008 0.17248 0.73058 0.0
O264 O 0.8237 0.24674 0.68159 0.0
O265 O 0.79477 0.15262 0.69066 0.0
O266 O 0.84079 1.00831 0.71006 0.0
O267 O 0.79834 1.01918 0.67398 0.0
O268 O 0.85482 0.15911 0.64429 0.0
O269 O 0.82939 0.08512 0.62132 0.0
O270 O 0.89043 0.06108 0.67221 0.0
O271 O 0.91531 0.15874 0.66117 0.0
H272 H 0.92221 0.41469 0.63852 0.0
H273 H 0.9041 0.5247 0.63256 0.0
H274 H 0.82572 0.49412 0.71001 0.0
H275 H 0.84346 0.38409 0.71532 0.0
H276 H 0.77977 0.88414 0.724 0.0
H277 H 0.79013 0.77176 0.7142 0.0
H278 H 0.86735 0.8179 0.63782 0.0
H279 H 0.85721 0.93056 0.6485 0.0
Tb280 Tb 0.08965 0.86385 0.68444 0.0
Tb281 Tb 0.12968 0.99033 0.67726 0.0
C282 C 0.06741 0.75281 0.68335 0.0
C283 C 0.08068 0.68793 0.67936 0.0
C284 C 0.062 0.64382 0.6601 0.0
C285 C 0.07283 0.58095 0.65791 0.0
C286 C 0.1027 0.5609 0.67492 0.0
C287 C 0.1218 0.60577 0.69352 0.0
C288 C 0.1108 0.66849 0.69588 0.0
C289 C 0.09107 0.94088 0.73928 0.0
C290 C 0.17039 0.86324 0.68753 0.0
C291 C 0.15253 0.09635 0.69468 0.0
C292 C 0.14883 0.16333 0.68528 0.0
C293 C 0.17212 0.2069 0.6986 0.0
C294 C 0.16667 0.27165 0.69428 0.0
C295 C 0.1377 0.29408 0.6766 0.0
C296 C 0.11511 0.25002 0.66197 0.0
C297 C 0.1206 0.18514 0.66634 0.0
C298 C 0.12112 0.93912 0.61468 0.0
C299 C 0.04932 0.98206 0.66228 0.0
O300 O 0.06852 0.78919 0.65562 0.0
O301 O 0.07591 0.78269 0.712 0.0
O302 O 0.11503 0.92887 0.71839 0.0
O303 O 0.06488 0.90776 0.7302 0.0
O304 O 0.14202 0.83161 0.68197 0.0
O305 O 0.17111 0.92565 0.69053 0.0
O306 O 0.12553 0.07042 0.70859 0.0
O307 O 0.16785 0.05915 0.67214 0.0
O308 O 0.11122 0.91859 0.64389 0.0
O309 O 0.13694 0.9917 0.62029 0.0
O310 O 0.07579 1.01752 0.67133 0.0
O311 O 0.05075 0.91996 0.66063 0.0
H312 H 0.03855 0.65771 0.64736 0.0
H313 H 0.0572 0.54769 0.64378 0.0
H314 H 0.14517 0.59238 0.70652 0.0
H315 H 0.12553 0.70148 0.71116 0.0
H316 H 0.19401 0.1909 0.71336 0.0
H317 H 0.18484 0.30424 0.70537 0.0
H318 H 0.09242 0.26566 0.64846 0.0
H319 H 0.1022 0.15212 0.65604 0.0
Tb320 Tb 0.6304 0.59339 0.17183 0.0
Tb321 Tb 0.59087 0.71112 0.18275 0.0
C322 C 0.6541 0.48247 0.1736 0.0
C323 C 0.64277 0.4163 0.17699 0.0
C324 C 0.66261 0.37396 0.19649 0.0
C325 C 0.65413 0.30997 0.19817 0.0
C326 C 0.62558 0.28669 0.18026 0.0
C327 C 0.60523 0.32968 0.16138 0.0
C328 C 0.61372 0.39383 0.15977 0.0
C329 C 0.62929 0.66801 0.11628 0.0
C330 C 0.54918 0.5956 0.16322 0.0
C331 C 0.56641 0.82146 0.18358 0.0
C332 C 0.57733 0.88812 0.18196 0.0
C333 C 0.55797 0.93112 0.1624 0.0
C334 C 0.5663 0.99523 0.16182 0.0
C335 C 0.59427 1.01795 0.18087 0.0
C336 C 0.61405 0.97446 0.2 0.0
C337 C 0.60563 0.91022 0.20061 0.0
C338 C 0.5921 0.63136 0.2366 0.0
C339 C 0.67123 0.71496 0.18836 0.0
O340 O 0.65089 0.51837 0.2012 0.0
O341 O 0.64611 0.51227 0.14482 0.0
O342 O 0.60456 0.65746 0.13675 0.0
O343 O 0.65525 0.63548 0.12688 0.0
O344 O 0.57682 0.56199 0.17071 0.0
O345 O 0.55 0.65746 0.16132 0.0
O346 O 0.57015 0.78798 0.1551 0.0
O347 O 0.57427 0.78945 0.21169 0.0
O348 O 0.61642 0.64551 0.21666 0.0
O349 O 0.56588 0.66474 0.22759 0.0
O350 O 0.64282 0.74603 0.18182 0.0
O351 O 0.67202 0.65256 0.18984 0.0
H352 H 0.68507 0.39028 0.21006 0.0
H353 H 0.67003 0.2787 0.21351 0.0
H354 H 0.58323 0.31355 0.14702 0.0
H355 H 0.59796 0.42553 0.14454 0.0
H356 H 0.53605 0.91515 0.14779 0.0
H357 H 0.55084 1.02701 0.14633 0.0
H358 H 0.63558 0.99027 0.21521 0.0
H359 H 0.6209 0.87809 0.21608 0.0
Tb360 Tb 0.3367 0.47876 0.17214 0.0
Tb361 Tb 0.37563 0.36134 0.18368 0.0
C362 C 0.31308 0.58974 0.17322 0.0
C363 C 0.32425 0.65634 0.17426 0.0
C364 C 0.34572 0.67954 0.20061 0.0
C365 C 0.35401 0.74385 0.20178 0.0
C366 C 0.34115 0.78609 0.17657 0.0
C367 C 0.31998 0.76238 0.15012 0.0
C368 C 0.31158 0.69838 0.14907 0.0
C369 C 0.33831 0.40411 0.11661 0.0
C370 C 0.418 0.47606 0.16388 0.0
C371 C 0.39969 0.2508 0.18554 0.0
C372 C 0.38864 0.18426 0.18321 0.0
C373 C 0.40698 0.14264 0.1617 0.0
C374 C 0.39861 0.07861 0.16032 0.0
C375 C 0.37172 0.05456 0.18058 0.0
C376 C 0.35309 0.09651 0.20189 0.0
C377 C 0.36141 0.16076 0.20314 0.0
C378 C 0.37392 0.44124 0.23743 0.0
C379 C 0.2953 0.35778 0.188 0.0
O380 O 0.3177 0.55523 0.20119 0.0
O381 O 0.31954 0.55845 0.14453 0.0
O382 O 0.36287 0.41453 0.13723 0.0
O383 O 0.31225 0.43652 0.12715 0.0
O384 O 0.39029 0.51003 0.17065 0.0
O385 O 0.41713 0.41416 0.16268 0.0
O386 O 0.39759 0.28453 0.15697 0.0
O387 O 0.39058 0.28275 0.21329 0.0
O388 O 0.34973 0.4271 0.21744 0.0
O389 O 0.40022 0.408 0.22847 0.0
O390 O 0.32368 0.32658 0.18151 0.0
O391 O 0.29475 0.4201 0.18999 0.0
H392 H 0.35588 0.64825 0.22043 0.0
H393 H 0.37065 0.76043 0.22229 0.0
H394 H 0.30923 0.79359 0.13059 0.0
H395 H 0.29472 0.68178 0.12872 0.0
H396 H 0.42823 0.15955 0.14629 0.0
H397 H 0.41375 0.04764 0.14395 0.0
H398 H 0.33197 0.07972 0.21749 0.0
H399 H 0.34676 0.1918 0.21994 0.0
Tb400 Tb 0.62928 0.48746 0.40581 0.0
Tb401 Tb 0.58953 0.36074 0.39966 0.0
C402 C 0.652 0.59243 0.3863 0.0
C403 C 0.64778 0.66081 0.39222 0.0
C404 C 0.63976 0.69896 0.36342 0.0
C405 C 0.63548 0.76388 0.36737 0.0
C406 C 0.63939 0.79256 0.40024 0.0
C407 C 0.64746 0.75427 0.42921 0.0
C408 C 0.65164 0.68887 0.42524 0.0
C409 C 0.61981 0.43873 0.46893 0.0
C410 C 0.54869 0.47945 0.42 0.0
C411 C 0.56806 0.24931 0.40138 0.0
C412 C 0.58216 0.18449 0.40327 0.0
C413 C 0.59619 0.15984 0.43424 0.0
C414 C 0.60812 0.09745 0.4354 0.0
C415 C 0.60647 0.05881 0.40558 0.0
C416 C 0.59258 0.08372 0.37469 0.0
C417 C 0.58042 0.14563 0.37362 0.0
C418 C 0.59171 0.43563 0.34394 0.0
C419 C 0.67035 0.3602 0.39711 0.0
O420 O 0.62593 0.56438 0.372 0.0
O421 O 0.66652 0.55796 0.41065 0.0
O422 O 0.61031 0.41705 0.43986 0.0
O423 O 0.63568 0.49118 0.46285 0.0
O424 O 0.57533 0.51466 0.41103 0.0
O425 O 0.55006 0.41738 0.42232 0.0
O426 O 0.5704 0.28524 0.42922 0.0
O427 O 0.57426 0.28025 0.37242 0.0
O428 O 0.6154 0.42433 0.36523 0.0
O429 O 0.56536 0.40305 0.35325 0.0
O430 O 0.64187 0.32836 0.40162 0.0
O431 O 0.67121 0.42267 0.39458 0.0
H432 H 0.63658 0.67833 0.33771 0.0
H433 H 0.62855 0.79147 0.34462 0.0
H434 H 0.65086 0.7749 0.45484 0.0
H435 H 0.65786 0.66047 0.44789 0.0
H436 H 0.59777 0.18847 0.45761 0.0
H437 H 0.6188 0.07953 0.45952 0.0
H438 H 0.59039 0.0548 0.35147 0.0
H439 H 0.56931 0.16299 0.34956 0.0
Tb440 Tb 0.33584 0.5958 0.41111 0.0
Tb441 Tb 0.37502 0.71314 0.40053 0.0
C442 C 0.31204 0.4854 0.40847 0.0
C443 C 0.32322 0.41898 0.40533 0.0
C444 C 0.30296 0.37668 0.38651 0.0
C445 C 0.31138 0.31252 0.38501 0.0
C446 C 0.34029 0.28907 0.40243 0.0
C447 C 0.36102 0.33201 0.42066 0.0
C448 C 0.35258 0.39632 0.42208 0.0
C449 C 0.33679 0.66953 0.46701 0.0
C450 C 0.41688 0.59743 0.42054 0.0
C451 C 0.39949 0.82308 0.39943 0.0
C452 C 0.38859 0.88989 0.40106 0.0
C453 C 0.40826 0.93272 0.42017 0.0
C454 C 0.39992 0.99696 0.42072 0.0
C455 C 0.37164 1.01994 0.40212 0.0
C456 C 0.35154 0.97663 0.38345 0.0
C457 C 0.35998 0.91226 0.38285 0.0
C458 C 0.37377 0.63411 0.34637 0.0
C459 C 0.29478 0.71811 0.39574 0.0
O460 O 0.31615 0.52135 0.38102 0.0
O461 O 0.31939 0.51477 0.43752 0.0
O462 O 0.36153 0.6592 0.44645 0.0
O463 O 0.31094 0.63715 0.45635 0.0
O464 O 0.38945 0.56389 0.41275 0.0
O465 O 0.4158 0.65928 0.42237 0.0
O466 O 0.39592 0.78972 0.42797 0.0
O467 O 0.39142 0.79118 0.37142 0.0
O468 O 0.34944 0.64838 0.36633 0.0
O469 O 0.40007 0.66653 0.35571 0.0
O470 O 0.32314 0.74879 0.40224 0.0
O471 O 0.29411 0.6558 0.39371 0.0
H472 H 0.28025 0.39318 0.37332 0.0
H473 H 0.29517 0.28129 0.37017 0.0
H474 H 0.3833 0.31573 0.43464 0.0
H475 H 0.36864 0.42804 0.4368 0.0
H476 H 0.43042 0.91653 0.43443 0.0
H477 H 0.41564 1.02862 0.43585 0.0
H478 H 0.32975 0.99265 0.36858 0.0
H479 H 0.34447 0.88024 0.36773 0.0
Tb480 Tb 0.37582 0.3612 0.90017 0.0
Tb481 Tb 0.33685 0.47912 0.9112 0.0
C482 C 0.40021 0.25082 0.89914 0.0
C483 C 0.38932 0.1842 0.90092 0.0
C484 C 0.40915 0.14108 0.91988 0.0
C485 C 0.40074 0.07702 0.92066 0.0
C486 C 0.3722 0.05449 0.90245 0.0
C487 C 0.35208 0.09808 0.88376 0.0
C488 C 0.36056 0.16228 0.88298 0.0
C489 C 0.37421 0.44006 0.84596 0.0
C490 C 0.2954 0.35776 0.89606 0.0
C491 C 0.31314 0.58999 0.90905 0.0
C492 C 0.32443 0.65615 0.90575 0.0
C493 C 0.30411 0.69895 0.88709 0.0
C494 C 0.31266 0.76292 0.88551 0.0
C495 C 0.34175 0.7856 0.9027 0.0
C496 C 0.3625 0.74222 0.9208 0.0
C497 C 0.35397 0.67811 0.92227 0.0
C498 C 0.33837 0.40493 0.967 0.0
C499 C 0.4181 0.47636 0.91915 0.0
O500 O 0.39677 0.28435 0.92764 0.0
O501 O 0.39201 0.28275 0.87111 0.0
O502 O 0.34999 0.4266 0.8662 0.0
O503 O 0.40047 0.40686 0.85499 0.0
O504 O 0.32383 0.32641 0.90202 0.0
O505 O 0.2948 0.42011 0.8943 0.0
O506 O 0.31669 0.55404 0.88151 0.0
O507 O 0.32091 0.56035 0.93795 0.0
O508 O 0.36291 0.41535 0.94626 0.0
O509 O 0.31239 0.43763 0.95659 0.0
O510 O 0.39047 0.51024 0.91201 0.0
O511 O 0.41714 0.41451 0.92096 0.0
H512 H 0.43158 0.15685 0.93371 0.0
H513 H 0.41713 0.04493 0.9349 0.0
H514 H 0.32968 0.08266 0.8698 0.0
H515 H 0.34487 0.19458 0.86806 0.0
H516 H 0.28114 0.68307 0.87427 0.0
H517 H 0.2959 0.79491 0.87166 0.0
H518 H 0.38535 0.75785 0.93389 0.0
H519 H 0.37015 0.64596 0.93673 0.0
Tb520 Tb 0.59105 0.71143 0.90058 0.0
Tb521 Tb 0.63058 0.59364 0.91105 0.0
C522 C 0.56659 0.82178 0.90018 0.0
C523 C 0.57752 0.88843 0.90172 0.0
C524 C 0.55801 0.93157 0.9211 0.0
C525 C 0.56636 0.99568 0.92156 0.0
C526 C 0.5945 1.01825 0.9026 0.0
C527 C 0.61444 0.97461 0.88366 0.0
C528 C 0.60599 0.91037 0.88314 0.0
C529 C 0.59236 0.63247 0.84647 0.0
C530 C 0.67143 0.71537 0.89479 0.0
C531 C 0.65436 0.4828 0.90896 0.0
C532 C 0.64307 0.4166 0.90569 0.0
C533 C 0.66312 0.3741 0.88645 0.0
C534 C 0.65465 0.3101 0.8849 0.0
C535 C 0.6259 0.28697 0.90266 0.0
C536 C 0.60535 0.33013 0.92128 0.0
C537 C 0.61383 0.39428 0.92277 0.0
C538 C 0.62932 0.66803 0.96674 0.0
C539 C 0.54933 0.59572 0.91986 0.0
O540 O 0.57055 0.78817 0.92858 0.0
O541 O 0.57426 0.78992 0.87194 0.0
O542 O 0.61669 0.64616 0.86637 0.0
O543 O 0.56612 0.66568 0.8557 0.0
O544 O 0.64299 0.74635 0.90139 0.0
O545 O 0.67224 0.653 0.89313 0.0
O546 O 0.65095 0.51877 0.88141 0.0
O547 O 0.64648 0.51247 0.93784 0.0
O548 O 0.60466 0.65723 0.94637 0.0
O549 O 0.65533 0.63562 0.95601 0.0
O550 O 0.577 0.5622 0.91223 0.0
O551 O 0.55016 0.65755 0.92199 0.0
H552 H 0.53596 0.91573 0.93564 0.0
H553 H 0.55077 1.02758 0.93691 0.0
H554 H 0.63611 0.99029 0.86851 0.0
H555 H 0.62137 0.87812 0.86781 0.0
H556 H 0.68574 0.39031 0.87299 0.0
H557 H 0.67072 0.27871 0.86975 0.0
H558 H 0.58319 0.31412 0.93554 0.0
H559 H 0.59792 0.42612 0.93781 0.0
Tb560 Tb 0.37515 0.71238 0.68297 0.0
Tb561 Tb 0.33607 0.59505 0.67235 0.0
C562 C 0.39962 0.82232 0.68402 0.0
C563 C 0.38879 0.88916 0.68242 0.0
C564 C 0.40851 0.93192 0.66322 0.0
C565 C 0.40014 0.99613 0.66254 0.0
C566 C 0.37174 1.01919 0.68108 0.0
C567 C 0.35173 0.97596 0.70003 0.0
C568 C 0.36018 0.91161 0.70073 0.0
C569 C 0.37404 0.63311 0.73703 0.0
C570 C 0.29489 0.71712 0.68821 0.0
C571 C 0.31242 0.48453 0.67479 0.0
C572 C 0.32376 0.41821 0.67799 0.0
C573 C 0.3035 0.37568 0.69677 0.0
C574 C 0.31211 0.3116 0.69831 0.0
C575 C 0.3412 0.28855 0.68095 0.0
C576 C 0.36189 0.33164 0.66272 0.0
C577 C 0.3533 0.39588 0.6613 0.0
C578 C 0.33693 0.6695 0.61664 0.0
C579 C 0.41713 0.59697 0.66272 0.0
O580 O 0.39606 0.78903 0.65549 0.0
O581 O 0.39148 0.79037 0.71205 0.0
O582 O 0.34965 0.64718 0.7172 0.0
O583 O 0.40027 0.66577 0.72762 0.0
O584 O 0.32324 0.748 0.68175 0.0
O585 O 0.29426 0.65478 0.68998 0.0
O586 O 0.31613 0.52045 0.70227 0.0
O587 O 0.32001 0.51403 0.6458 0.0
O588 O 0.36167 0.6587 0.63701 0.0
O589 O 0.3111 0.63702 0.62739 0.0
O590 O 0.38973 0.56333 0.6706 0.0
O591 O 0.41598 0.6588 0.66088 0.0
H592 H 0.43083 0.91574 0.64911 0.0
H593 H 0.41645 1.02792 0.64809 0.0
H594 H 0.32943 0.99178 0.71425 0.0
H595 H 0.34459 0.87961 0.71585 0.0
H596 H 0.28054 0.39186 0.70973 0.0
H597 H 0.29539 0.27982 0.71227 0.0
H598 H 0.38473 0.31571 0.64948 0.0
H599 H 0.36945 0.42782 0.64675 0.0
Tb600 Tb 0.59005 0.36101 0.68382 0.0
Tb601 Tb 0.62972 0.48772 0.67682 0.0
C602 C 0.56807 0.24983 0.68247 0.0
C603 C 0.58078 0.1849 0.67679 0.0
C604 C 0.56176 0.14337 0.65616 0.0
C605 C 0.57157 0.08015 0.65273 0.0
C606 C 0.60068 0.05705 0.66991 0.0
C607 C 0.62027 0.09928 0.68978 0.0
C608 C 0.61036 0.1625 0.69329 0.0
C609 C 0.59206 0.43677 0.73921 0.0
C610 C 0.6707 0.36069 0.6855 0.0
C611 C 0.65259 0.59388 0.69402 0.0
C612 C 0.64801 0.66041 0.68407 0.0
C613 C 0.66938 0.70615 0.69854 0.0
C614 C 0.663 0.77034 0.69292 0.0
C615 C 0.635 0.79 0.67273 0.0
C616 C 0.61434 0.74366 0.65722 0.0
C617 C 0.62077 0.67943 0.66287 0.0
C618 C 0.62033 0.43791 0.61394 0.0
C619 C 0.54909 0.47951 0.66345 0.0
O620 O 0.56753 0.28747 0.65524 0.0
O621 O 0.57816 0.27841 0.71098 0.0
O622 O 0.61577 0.42549 0.71789 0.0
O623 O 0.56587 0.40351 0.73029 0.0
O624 O 0.64236 0.32918 0.67968 0.0
O625 O 0.67133 0.42296 0.68928 0.0
O626 O 0.62603 0.56748 0.70856 0.0
O627 O 0.66769 0.5567 0.67131 0.0
O628 O 0.61087 0.4166 0.64315 0.0
O629 O 0.63618 0.49036 0.61975 0.0
O630 O 0.57574 0.51482 0.67206 0.0
O631 O 0.55045 0.41745 0.66144 0.0
H632 H 0.53883 0.15958 0.64324 0.0
H633 H 0.55616 0.04918 0.63685 0.0
H634 H 0.64262 0.08302 0.70367 0.0
H635 H 0.62536 0.19337 0.70963 0.0
H636 H 0.69038 0.69229 0.71519 0.0
H637 H 0.67921 0.80453 0.7056 0.0
H638 H 0.59287 0.75703 0.64112 0.0
H639 H 0.60396 0.64468 0.65151 0.0
C640 C 0.20166 0.31686 0.18877 0.0
C641 C 0.20253 0.25037 0.18963 0.0
H642 H 0.23001 0.40289 0.188 0.0
C643 C 0.23419 0.21982 0.19185 0.0
H644 H 0.17779 0.34218 0.18704 0.0
C645 C 0.26425 0.25491 0.19219 0.0
C646 C 0.26332 0.32134 0.19057 0.0
H647 H 0.23585 0.16881 0.19262 0.0
H648 H 0.28825 0.22975 0.19322 0.0
C649 C 0.23166 0.35191 0.1894 0.0
C650 C 0.73151 0.85397 0.1931 0.0
C651 C 0.76335 0.82393 0.19248 0.0
H652 H 0.67756 0.84321 0.19228 0.0
C653 C 0.76463 0.75745 0.1928 0.0
H654 H 0.72957 0.90497 0.19286 0.0
C655 C 0.73478 0.72185 0.19265 0.0
C656 C 0.70295 0.7519 0.19192 0.0
H657 H 0.78872 0.73261 0.19241 0.0
H658 H 0.73673 0.67086 0.19208 0.0
C659 C 0.70166 0.81837 0.19271 0.0
C660 C 0.23124 0.72518 0.39373 0.0
C661 C 0.26292 0.75519 0.39314 0.0
H662 H 0.17737 0.73594 0.39572 0.0
C663 C 0.26397 0.82163 0.39213 0.0
H664 H 0.2295 0.6742 0.39462 0.0
C665 C 0.23398 0.85729 0.39255 0.0
C666 C 0.2023 0.82728 0.39427 0.0
H667 H 0.28799 0.84635 0.39162 0.0
H668 H 0.23572 0.90829 0.39234 0.0
C669 C 0.2013 0.7608 0.39444 0.0
C670 C 0.73156 0.2215 0.39334 0.0
C671 C 0.76312 0.25152 0.39646 0.0
H672 H 0.67756 0.23217 0.39098 0.0
C673 C 0.76395 0.31792 0.39842 0.0
H674 H 0.72996 0.17057 0.39175 0.0
C675 C 0.73397 0.35341 0.39775 0.0
C676 C 0.70238 0.32335 0.39543 0.0
H677 H 0.78778 0.34282 0.40092 0.0
H678 H 0.73558 0.40429 0.39983 0.0
C679 C 0.70151 0.25699 0.39294 0.0
C680 C 0.70188 0.81884 0.89113 0.0
C681 C 0.70318 0.75236 0.89158 0.0
H682 H 0.72975 0.90546 0.89176 0.0
C683 C 0.73503 0.72234 0.891 0.0
H684 H 0.67777 0.84365 0.89146 0.0
C685 C 0.76486 0.75797 0.89136 0.0
C686 C 0.76355 0.82444 0.89207 0.0
H687 H 0.73698 0.67135 0.89133 0.0
H688 H 0.78896 0.73315 0.89186 0.0
C689 C 0.73171 0.85447 0.89126 0.0
C690 C 0.23178 0.35205 0.89599 0.0
C691 C 0.26338 0.32144 0.89375 0.0
H692 H 0.17799 0.34241 0.89951 0.0
C693 C 0.2642 0.2551 0.89135 0.0
H694 H 0.2302 0.40295 0.89812 0.0
C695 C 0.23411 0.22011 0.89177 0.0
C696 C 0.20251 0.25066 0.89493 0.0
H697 H 0.28814 0.22993 0.88959 0.0
H698 H 0.2357 0.16915 0.89028 0.0
C699 C 0.20176 0.31709 0.89679 0.0
C700 C 0.70178 0.25719 0.68596 0.0
C701 C 0.70266 0.32363 0.68764 0.0
H702 H 0.73014 0.17073 0.68488 0.0
C703 C 0.73423 0.35363 0.69057 0.0
H704 H 0.67794 0.23234 0.68356 0.0
C705 C 0.76423 0.31808 0.69104 0.0
C706 C 0.76335 0.25171 0.68887 0.0
H707 H 0.73589 0.40457 0.69194 0.0
H708 H 0.78816 0.34289 0.69278 0.0
C709 C 0.73175 0.22164 0.68676 0.0
C710 C 0.20143 0.75974 0.68817 0.0
C711 C 0.20234 0.82614 0.69002 0.0
H712 H 0.22967 0.67324 0.68666 0.0
C713 C 0.23396 0.856 0.69315 0.0
H714 H 0.17761 0.73496 0.6855 0.0
C715 C 0.26395 0.82033 0.69345 0.0
C716 C 0.26298 0.75403 0.69094 0.0
H717 H 0.23565 0.90693 0.69464 0.0
H718 H 0.28794 0.84496 0.69511 0.0
C719 C 0.23135 0.7241 0.68885 0.0
C720 C 0.06044 1.01619 0.30525 0.0
C721 C 0.09113 0.99147 0.31834 0.0
H722 H 0.03644 0.08241 0.27049 0.0
C723 C 0.12191 1.01563 0.30524 0.0
H724 H 0.03631 0.99872 0.31481 0.0
C725 C 0.12198 0.06368 0.27988 0.0
C726 C 0.09129 0.08851 0.26685 0.0
H727 H 0.14598 0.99748 0.3147 0.0
H728 H 0.14611 0.08134 0.27038 0.0
C729 C 0.06052 0.06442 0.28 0.0
C730 C 0.90498 0.06532 0.304 0.0
C731 C 0.87428 0.08947 0.31749 0.0
H732 H 0.9291 1.00031 0.26857 0.0
C733 C 0.84353 0.06591 0.3041 0.0
H734 H 0.92911 0.08238 0.31371 0.0
C735 C 0.84353 1.01897 0.2781 0.0
C736 C 0.87426 0.99435 0.26489 0.0
H737 H 0.81944 0.08363 0.31386 0.0
H738 H 0.81943 1.00146 0.26858 0.0
C739 C 0.90497 1.01805 0.27823 0.0
C740 C 0.84384 0.06665 0.78157 0.0
C741 C 0.87458 0.09023 0.76802 0.0
H742 H 0.81974 1.00215 0.81719 0.0
C743 C 0.90529 0.06597 0.78131 0.0
H744 H 0.81975 0.08444 0.77197 0.0
C745 C 0.90529 1.01859 0.80705 0.0
C746 C 0.87458 0.99488 0.82055 0.0
H747 H 0.92941 0.08303 0.77146 0.0
H748 H 0.92941 1.00076 0.81656 0.0
C749 C 0.84384 1.01963 0.80754 0.0
C750 C 0.12206 0.06344 0.80487 0.0
C751 C 0.09135 0.08843 0.81794 0.0
H752 H 0.14606 0.99691 0.77016 0.0
C753 C 0.0606 0.06435 0.80492 0.0
H754 H 0.14618 0.08108 0.81427 0.0
C755 C 0.06053 1.01598 0.77977 0.0
C756 C 0.09122 0.99106 0.76665 0.0
H757 H 0.03651 0.08245 0.81445 0.0
H758 H 0.03639 0.99855 0.7703 0.0
C759 C 0.12199 1.0152 0.77964 0.0
C760 C 0.62286 0.50727 0.30192 0.0
C761 C 0.59208 0.48469 0.31589 0.0
H762 H 0.64711 0.57177 0.26638 0.0
C763 C 0.56144 0.51018 0.30315 0.0
H764 H 0.6469 0.4885 0.3111 0.0
C765 C 0.56156 0.55788 0.27762 0.0
C766 C 0.59231 0.58082 0.2638 0.0
H767 H 0.53729 0.4939 0.31331 0.0
H768 H 0.53748 0.57666 0.26856 0.0
C769 C 0.62298 0.55483 0.27624 0.0
C770 C 0.34265 0.56172 0.30479 0.0
C771 C 0.37338 0.58501 0.31836 0.0
H772 H 0.3186 0.4984 0.26853 0.0
C773 C 0.40409 0.56077 0.30491 0.0
H774 H 0.31856 0.57965 0.31441 0.0
C775 C 0.40411 0.51399 0.27889 0.0
C776 C 0.37343 0.4908 0.2652 0.0
H777 H 0.42821 0.57754 0.31477 0.0
H778 H 0.42826 0.49627 0.26929 0.0
C779 C 0.34267 0.51539 0.27839 0.0
C780 C 0.34304 0.51381 0.80489 0.0
C781 C 0.3738 0.48942 0.81807 0.0
H782 H 0.31891 0.57799 0.76896 0.0
C783 C 0.40448 0.51278 0.80431 0.0
H784 H 0.31896 0.49664 0.81477 0.0
C785 C 0.40445 0.55966 0.77831 0.0
C786 C 0.37374 0.5838 0.76495 0.0
H787 H 0.42862 0.49519 0.81389 0.0
H788 H 0.42857 0.57662 0.76841 0.0
C789 C 0.34301 0.56021 0.77853 0.0
C790 C 0.56179 0.5584 0.80594 0.0
C791 C 0.59254 0.58212 0.81918 0.0
H792 H 0.53754 0.49366 0.77078 0.0
C793 C 0.62323 0.55707 0.80611 0.0
H794 H 0.53769 0.57644 0.81551 0.0
C795 C 0.62314 0.50974 0.78031 0.0
C796 C 0.59236 0.48615 0.76705 0.0
H797 H 0.64736 0.57454 0.81556 0.0
H798 H 0.6472 0.49171 0.77064 0.0
C799 C 0.56169 0.51071 0.78042 0.0
C800 C 0.14592 0.18019 1.02395 0.0
C801 C 0.11622 0.1659 1.00535 0.0
H802 H 0.17004 0.18492 0.07403 0.0
C803 C 0.08573 0.15768 1.02406 0.0
H804 H 0.16992 0.18501 1.01024 0.0
C805 C 0.08579 0.15764 0.06091 0.0
C806 C 0.11635 0.1658 0.07937 0.0
H807 H 0.06272 0.14447 1.01041 0.0
H808 H 0.06283 0.14441 0.07474 0.0
C809 C 0.14598 0.18014 0.06053 0.0
C810 C 0.80964 0.87953 1.02457 0.0
C811 C 0.83956 0.89176 1.00567 0.0
H812 H 0.78569 0.87393 0.07474 0.0
C813 C 0.87024 0.89856 1.02421 0.0
H814 H 0.78566 0.87379 1.01107 0.0
C815 C 0.87026 0.89862 0.06107 0.0
C816 C 0.8396 0.8919 0.0798 0.0
H817 H 0.89368 0.90839 1.01037 0.0
H818 H 0.89371 0.90851 0.07476 0.0
C819 C 0.80967 0.8796 0.06109 0.0
C820 C 0.08668 0.91966 0.52407 0.0
C821 C 0.11728 0.9119 0.50542 0.0
H822 H 0.06359 0.93249 0.57471 0.0
C823 C 0.14704 0.89774 0.52406 0.0
H824 H 0.06361 0.93272 0.51039 0.0
C825 C 0.14703 0.89759 0.56063 0.0
C826 C 0.11726 0.9116 0.57942 0.0
H827 H 0.17111 0.89321 0.5104 0.0
H828 H 0.17109 0.89296 0.57417 0.0
C829 C 0.08667 0.91952 0.56091 0.0
C830 C 0.87913 0.15803 0.56106 0.0
C831 C 0.84851 0.1649 0.5798 0.0
H832 H 0.90222 0.14597 0.51035 0.0
C833 C 0.81857 0.17789 0.56122 0.0
H834 H 0.90236 0.14585 0.5747 0.0
C835 C 0.81848 0.17795 0.52465 0.0
C836 C 0.84834 0.16504 0.50577 0.0
H837 H 0.7945 0.18171 0.57494 0.0
H838 H 0.79435 0.18181 0.51117 0.0
C839 C 0.87905 0.15811 0.52421 0.0
C840 C 0.59565 0.67678 0.06003 0.0
C841 C 0.62627 0.68431 0.07859 0.0
H842 H 0.57228 0.66632 1.00944 0.0
C843 C 0.6561 0.69727 0.05971 0.0
H844 H 0.57228 0.66633 0.07385 0.0
C845 C 0.6561 0.69728 1.02318 0.0
C846 C 0.62627 0.6843 1.00444 0.0
H847 H 0.68003 0.70356 0.07323 0.0
H848 H 0.68003 0.70357 1.00955 0.0
C849 C 0.59565 0.67677 1.02315 0.0
C850 C 0.37213 0.39674 1.02328 0.0
C851 C 0.34159 0.38851 1.00468 0.0
H852 H 0.3954 0.40752 0.07392 0.0
C853 C 0.31186 0.37472 1.02355 0.0
H854 H 0.39542 0.4079 1.00948 0.0
C855 C 0.31185 0.37448 0.06008 0.0
C856 C 0.34156 0.38805 0.07888 0.0
H857 H 0.28797 0.36793 1.01002 0.0
H858 H 0.28795 0.36752 0.07368 0.0
C859 C 0.37212 0.39651 0.06018 0.0
C860 C 0.58557 0.42026 0.52322 0.0
C861 C 0.61604 0.4118 0.50442 0.0
H862 H 0.56272 0.43324 0.57398 0.0
C863 C 0.64579 0.39708 0.52296 0.0
H864 H 0.56252 0.43378 0.50964 0.0
C865 C 0.6459 0.39671 0.55955 0.0
C866 C 0.61626 0.41107 0.5785 0.0
H867 H 0.66977 0.39204 0.5092 0.0
H868 H 0.66997 0.39146 0.573 0.0
C869 C 0.58568 0.4199 0.56008 0.0
C870 C 0.3705 0.67802 0.56015 0.0
C871 C 0.33988 0.68564 0.57891 0.0
H872 H 0.39386 0.66755 0.50942 0.0
C873 C 0.30997 0.6986 0.56018 0.0
H874 H 0.39393 0.66755 0.57384 0.0
C875 C 0.30993 0.69857 0.52365 0.0
C876 C 0.33979 0.6856 0.50473 0.0
H877 H 0.28603 0.70495 0.57384 0.0
H878 H 0.28595 0.70489 0.51016 0.0
C879 C 0.37045 0.67801 0.52327 0.0
C880 C 0.98027 0.97342 0.15714 0.0
C881 C 0.95055 1.01063 0.15913 0.0
H882 H 0.03467 0.97134 0.15703 0.0
C883 C 0.95349 0.07649 0.15966 0.0
H884 H 0.97896 0.92239 0.1566 0.0
C885 C -0.01445 0.10449 0.15953 0.0
C886 C 0.01529 0.06713 0.15929 0.0
H887 H 0.93113 0.10638 0.16108 0.0
H888 H -0.01308 0.15546 0.16099 0.0
C889 C 0.0123 1.00137 0.15742 0.0
C890 C 0.97957 0.10498 0.42872 0.0
C891 C 0.95022 0.0671 0.4276 0.0
H892 H 0.03395 0.10799 0.42806 0.0
C893 C 0.95379 1.00134 0.42859 0.0
H894 H 0.97776 0.15598 0.42812 0.0
C895 C -0.01391 0.97396 0.42894 0.0
C896 C 0.01545 1.01182 0.42786 0.0
H897 H 0.93171 0.97095 0.428 0.0
H898 H -0.01211 0.92295 0.42849 0.0
C899 C 0.01187 0.0776 0.42864 0.0
C900 C -0.01448 0.1048 0.92575 0.0
C901 C 0.01523 0.06735 0.9259 0.0
H902 H 0.93109 0.10683 0.92434 0.0
C903 C 0.0122 1.0016 0.92775 0.0
H904 H -0.01307 0.15577 0.92431 0.0
C905 C 0.98015 0.97375 0.9281 0.0
C906 C 0.95046 1.01104 0.92619 0.0
H907 H 0.03455 0.97153 0.92807 0.0
H908 H 0.97881 0.92272 0.92863 0.0
C909 C 0.95344 0.07688 0.92569 0.0
C910 C 0.97987 0.10495 0.65668 0.0
C911 C 0.95049 0.06714 0.65775 0.0
H912 H 0.03425 0.1078 0.6573 0.0
C913 C 0.95401 1.00138 0.65662 0.0
H914 H 0.9781 0.15595 0.6574 0.0
C915 C -0.01371 0.97391 0.65618 0.0
C916 C 0.01568 1.01169 0.6573 0.0
H917 H 0.93191 0.97104 0.65716 0.0
H918 H -0.01195 0.9229 0.65651 0.0
C919 C 0.01215 0.07748 0.65667 0.0
C920 C 0.45399 0.57273 0.15926 0.0
C921 C 0.4514 0.50685 0.16028 0.0
H922 H 0.48693 0.65239 0.15889 0.0
C923 C 0.48135 0.47009 0.15989 0.0
H924 H 0.43144 0.60228 0.15945 0.0
C925 C 0.51324 0.4987 0.15989 0.0
C926 C 0.51582 0.56461 0.1599 0.0
H927 H 0.48029 0.41905 0.16067 0.0
H928 H 0.53578 0.46918 0.16061 0.0
C929 C 0.48587 0.60133 0.15888 0.0
C930 C 0.47994 0.60354 0.42619 0.0
C931 C 0.4503 0.56656 0.42447 0.0
H932 H 0.53431 0.60511 0.42614 0.0
C933 C 0.45333 0.50068 0.42429 0.0
H934 H 0.47853 0.65459 0.42647 0.0
C935 C 0.48543 0.47238 0.42449 0.0
C936 C 0.51509 0.5095 0.42445 0.0
H937 H 0.43102 0.47098 0.42311 0.0
H938 H 0.48689 0.42138 0.4233 0.0
C939 C 0.512 0.5753 0.42598 0.0
C940 C 0.48144 0.4703 0.92292 0.0
C941 C 0.45151 0.50711 0.92257 0.0
H942 H 0.53587 0.4693 0.92225 0.0
C943 C 0.45412 0.57298 0.9236 0.0
H944 H 0.48035 0.41926 0.92211 0.0
C945 C 0.48601 0.60152 0.92404 0.0
C946 C 0.51594 0.56476 0.92305 0.0
H947 H 0.43159 0.60256 0.92343 0.0
H948 H 0.48708 0.65258 0.92408 0.0
C949 C 0.51334 0.49885 0.92297 0.0
C950 C 0.45373 0.5004 0.65915 0.0
C951 C 0.45062 0.56626 0.65882 0.0
H952 H 0.48737 0.42125 0.66034 0.0
C953 C 0.48023 0.60336 0.65703 0.0
H954 H 0.43145 0.47061 0.6604 0.0
C955 C 0.51233 0.57525 0.65733 0.0
C956 C 0.51547 0.50947 0.65901 0.0
H957 H 0.47876 0.6544 0.65663 0.0
H958 H 0.53461 0.60515 0.65709 0.0
C959 C 0.48586 0.47224 0.65904 0.0
C960 C 0.09173 0.69753 0.17136 0.0
C961 C 0.12585 0.71701 0.16998 0.0
H962 H 0.05697 0.62024 0.17297 0.0
C963 C 0.15146 0.67065 0.16733 0.0
H964 H 0.07136 0.73174 0.17407 0.0
C965 C 0.14318 0.60646 0.16678 0.0
C966 C 0.10907 0.58704 0.16881 0.0
H967 H 0.17798 0.68396 0.16573 0.0
H968 H 0.16351 0.57202 0.16476 0.0
C969 C 0.08346 0.63344 0.17076 0.0
C970 C 0.84543 0.39422 0.21212 0.0
C971 C 0.84965 0.35779 0.18165 0.0
H972 H 0.84954 0.48518 0.23612 0.0
C973 C 0.86107 0.38792 0.15106 0.0
H974 H 0.83709 0.37251 0.23627 0.0
C975 C 0.86806 0.45267 0.15092 0.0
C976 C 0.86391 0.48913 0.1814 0.0
H977 H 0.86401 0.36169 0.12695 0.0
H978 H 0.87628 0.47432 0.12671 0.0
C979 C 0.85248 0.45898 0.212 0.0
C980 C 0.15218 0.40792 0.41665 0.0
C981 C 0.12653 0.3619 0.41497 0.0
H982 H 0.16424 0.50642 0.41834 0.0
C983 C 0.09238 0.38186 0.41451 0.0
H984 H 0.17873 0.39426 0.41752 0.0
C985 C 0.0841 0.44607 0.41502 0.0
C986 C 0.10973 0.49212 0.41598 0.0
H987 H 0.07197 0.34791 0.41254 0.0
H988 H 0.05756 0.45962 0.41352 0.0
C989 C 0.14388 0.47224 0.41711 0.0
C990 C 0.82237 0.60712 0.4184 0.0
C991 C 0.85642 0.58697 0.41606 0.0
H992 H 0.7877 0.68537 0.41959 0.0
C993 C 0.88209 0.63281 0.41371 0.0
H994 H 0.802 0.57312 0.42072 0.0
C995 C 0.87391 0.69706 0.41305 0.0
C996 C 0.83984 0.71725 0.41473 0.0
H997 H 0.90854 0.61904 0.41124 0.0
H998 H 0.8943 0.73082 0.41003 0.0
C999 C 0.81418 0.67148 0.41777 0.0
C1000 C 0.88278 0.3795 0.90247 0.0
C1001 C 0.84891 0.35857 0.904 0.0
H1002 H 0.91664 0.45831 0.9007 0.0
C1003 C 0.82275 0.40413 0.90538 0.0
H1004 H 0.90358 0.34599 0.90082 0.0
C1005 C 0.83024 0.46869 0.90524 0.0
C1006 C 0.86411 0.48957 0.90384 0.0
H1007 H 0.79638 0.38995 0.9072 0.0
H1008 H 0.80946 0.50227 0.90688 0.0
C1009 C 0.89027 0.44406 0.9024 0.0
C1010 C 0.10821 0.62323 0.94041 0.0
C1011 C 0.1128 0.58547 0.91048 0.0
H1012 H 0.11273 0.71516 0.96333 0.0
C1013 C 0.12636 0.61344 0.88019 0.0
H1014 H 0.09827 0.60315 0.96435 0.0
C1015 C 0.13479 0.67742 0.87969 0.0
C1016 C 0.12982 0.71534 0.90943 0.0
H1017 H 0.12963 0.58634 0.85642 0.0
H1018 H 0.14435 0.69759 0.8556 0.0
C1019 C 0.11654 0.68743 0.93986 0.0
C1020 C 0.87207 0.69709 0.66926 0.0
C1021 C 0.83801 0.7172 0.67165 0.0
H1022 H 0.90679 0.61922 0.66764 0.0
C1023 C 0.81227 0.67126 0.67236 0.0
H1024 H 0.8926 0.73098 0.6693 0.0
C1025 C 0.82044 0.60691 0.67146 0.0
C1026 C 0.85456 0.58687 0.66978 0.0
H1027 H 0.78575 0.68502 0.67371 0.0
H1028 H 0.80001 0.57282 0.67211 0.0
C1029 C 0.88022 0.63284 0.66833 0.0
C1030 C 0.13479 0.40053 0.70522 0.0
C1031 C 0.13007 0.36294 0.67535 0.0
H1032 H 0.1294 0.49148 0.72871 0.0
C1033 C 0.11702 0.3913 0.64496 0.0
H1034 H 0.14416 0.38002 0.72929 0.0
C1035 C 0.10868 0.45563 0.64455 0.0
C1036 C 0.11302 0.49306 0.67459 0.0
H1037 H 0.11341 0.36382 0.62141 0.0
H1038 H 0.09893 0.47605 0.62062 0.0
C1039 C 0.12634 0.46463 0.70486 0.0
C1040 C 0.57621 0.13226 0.18263 0.0
C1041 C 0.60237 0.08678 0.18103 0.0
H1042 H 0.56287 0.23032 0.18426 0.0
C1043 C 0.63623 0.10769 0.17946 0.0
H1044 H 0.54986 0.11799 0.18448 0.0
C1045 C 0.6437 0.17227 0.17927 0.0
C1046 C 0.61753 0.21779 0.18077 0.0
H1047 H 0.65701 0.07413 0.1777 0.0
H1048 H 0.67005 0.18647 0.1773 0.0
C1049 C 0.58368 0.19683 0.18251 0.0
C1050 C 0.34918 0.88785 0.20968 0.0
C1051 C 0.34938 0.85472 0.17782 0.0
H1052 H 0.35594 0.97664 0.23558 0.0
C1053 C 0.35681 0.88801 0.14693 0.0
H1054 H 0.34323 0.86384 0.23391 0.0
C1055 C 0.36387 0.95265 0.14785 0.0
C1056 C 0.36356 0.98588 0.17967 0.0
H1057 H 0.35746 0.86396 0.12197 0.0
H1058 H 0.36927 0.97676 0.12352 0.0
C1059 C 0.35606 0.95268 0.21058 0.0
C1060 C 0.63736 0.9673 0.37867 0.0
C1061 C 0.61818 0.9921 0.40651 0.0
H1062 H 0.65996 0.88559 0.35542 0.0
C1063 C 0.6085 0.95175 0.43392 0.0
H1064 H 0.64572 0.99747 0.3575 0.0
C1065 C 0.61637 0.88725 0.4326 0.0
C1066 C 0.63424 0.86193 0.40391 0.0
H1067 H 0.59353 0.96949 0.45561 0.0
H1068 H 0.60718 0.85688 0.4533 0.0
C1069 C 0.64541 0.90313 0.37746 0.0
C1070 C 0.32969 0.11028 0.40415 0.0
C1071 C 0.36352 0.08886 0.40191 0.0
H1072 H 0.2959 0.18958 0.40678 0.0
C1073 C 0.38964 0.13391 0.39959 0.0
H1074 H 0.30896 0.07704 0.40646 0.0
C1075 C 0.38216 0.19858 0.39966 0.0
C1076 C 0.34834 0.22006 0.40205 0.0
H1077 H 0.41595 0.11921 0.39723 0.0
H1078 H 0.40291 0.23174 0.39733 0.0
C1079 C 0.32221 0.17496 0.40428 0.0
C1080 C 0.36125 0.88454 0.93297 0.0
C1081 C 0.3498 0.85439 0.90247 0.0
H1082 H 0.37646 0.97097 0.95716 0.0
C1083 C 0.34545 0.89078 0.87202 0.0
H1084 H 0.36428 0.85831 0.95706 0.0
C1085 C 0.35246 0.95555 0.87205 0.0
C1086 C 0.36397 0.98571 0.90256 0.0
H1087 H 0.33706 0.86903 0.84795 0.0
H1088 H 0.34944 0.98174 0.84795 0.0
C1089 C 0.36819 0.94929 0.93303 0.0
C1090 C 0.64398 0.17253 0.90405 0.0
C1091 C 0.61784 0.21807 0.90229 0.0
H1092 H 0.65724 0.07439 0.90595 0.0
C1093 C 0.58399 0.19712 0.90043 0.0
H1094 H 0.67031 0.18671 0.90613 0.0
C1095 C 0.5765 0.13256 0.90044 0.0
C1096 C 0.60263 0.08707 0.9023 0.0
H1097 H 0.56321 0.23062 0.89847 0.0
H1098 H 0.55017 0.1183 0.89849 0.0
C1099 C 0.63649 0.10795 0.90399 0.0
C1100 C 0.36762 0.12444 0.6505 0.0
C1101 C 0.36352 0.08812 0.68102 0.0
H1102 H 0.36361 0.21544 0.62645 0.0
C1103 C 0.35211 0.11851 0.7116 0.0
H1104 H 0.3758 0.1026 0.6263 0.0
C1105 C 0.34508 0.18337 0.71166 0.0
C1106 C 0.34931 0.21965 0.68115 0.0
H1107 H 0.34919 0.09241 0.73575 0.0
H1108 H 0.33676 0.20529 0.73579 0.0
C1109 C 0.36067 0.18929 0.65058 0.0
C1110 C 0.65187 0.90422 0.66633 0.0
C1111 C 0.62628 0.85835 0.66969 0.0
H1112 H 0.66392 1.00264 0.66322 0.0
C1113 C 0.59222 0.8785 0.67186 0.0
H1114 H 0.67833 0.89042 0.66414 0.0
C1115 C 0.58398 0.94273 0.67127 0.0
C1116 C 0.60957 0.98864 0.66856 0.0
H1117 H 0.57188 0.8447 0.67516 0.0
H1118 H 0.55755 0.95643 0.67407 0.0
C1119 C 0.64362 0.96858 0.66581 0.0
loop_
_geom_bond_atom_site_label_1
_geom_bond_atom_site_label_2
_geom_bond_distance
_geom_bond_site_symmetry_2
_ccdc_geom_bond_type
Tb0 C2 2.809 1_545 S
Tb0 O20 2.484 1_545 S
Tb0 O21 2.440 1_545 S
Tb0 O22 2.658 . S
Tb0 O23 2.409 . S
Tb0 O24 2.378 . S
Tb0 O28 2.325 . S
Tb0 O31 2.341 . S
Tb1 C11 2.809 . S
Tb1 O22 2.325 . S
Tb1 O25 2.341 . S
Tb1 O26 2.484 . S
Tb1 O27 2.440 . S
Tb1 O28 2.658 . S
Tb1 O29 2.409 . S
Tb1 O30 2.378 . S
C2 Tb0 2.809 1_565 S
C2 C3 1.514 . S
C2 O20 1.248 . S
C2 O21 1.266 . S
C3 C2 1.514 . S
C3 C4 1.359 . S
C3 C8 1.348 . S
C4 C3 1.359 . S
C4 C5 1.380 . S
C4 H32 0.929 . S
C5 C4 1.380 . S
C5 C6 1.347 . S
C5 H33 0.931 . S
C6 C5 1.347 . S
C6 C7 1.369 . S
C7 C6 1.369 . S
C7 C8 1.408 . S
C7 H34 0.930 . S
C8 C3 1.348 . S
C8 C7 1.408 . S
C8 H35 0.930 . S
C9 O22 1.281 . S
C9 O23 1.254 . S
C10 O24 1.236 . S
C10 O25 1.266 . S
C11 Tb1 2.809 . S
C11 C12 1.514 . S
C11 O26 1.248 . S
C11 O27 1.266 . S
C12 C11 1.514 . S
C12 C13 1.359 . S
C12 C17 1.348 . S
C13 C12 1.359 . S
C13 C14 1.380 . S
C13 H36 0.929 . S
C14 C13 1.380 . S
C14 C15 1.347 . S
C14 H37 0.931 . S
C15 C14 1.347 . S
C15 C16 1.369 . S
C16 C15 1.369 . S
C16 C17 1.408 . S
C16 H38 0.930 . S
C17 C12 1.348 . S
C17 C16 1.408 . S
C17 H39 0.930 . S
C18 O28 1.281 . S
C18 O29 1.254 . S
C19 O30 1.236 . S
C19 O31 1.266 . S
O20 Tb0 2.484 1_565 S
O20 C2 1.248 . S
O21 Tb0 2.440 1_565 S
O21 C2 1.266 . S
O22 Tb0 2.658 . S
O22 Tb1 2.325 . S
O22 C9 1.281 . S
O23 Tb0 2.409 . S
O23 C9 1.254 . S
O24 Tb0 2.378 . S
O24 C10 1.236 . S
O25 Tb1 2.341 . S
O25 C10 1.266 . S
O26 Tb1 2.484 . S
O26 C11 1.248 . S
O27 Tb1 2.440 . S
O27 C11 1.266 . S
O28 Tb0 2.325 . S
O28 Tb1 2.658 . S
O28 C18 1.281 . S
O29 Tb1 2.409 . S
O29 C18 1.254 . S
O30 Tb1 2.378 . S
O30 C19 1.236 . S
O31 Tb0 2.341 . S
O31 C19 1.266 . S
H32 C4 0.929 . S
H33 C5 0.931 . S
H34 C7 0.930 . S
H35 C8 0.930 . S
H36 C13 0.929 . S
H37 C14 0.931 . S
H38 C16 0.930 . S
H39 C17 0.930 . S
Tb40 C42 2.809 1_565 S
Tb40 O60 2.484 1_565 S
Tb40 O61 2.440 1_565 S
Tb40 O62 2.658 . S
Tb40 O63 2.409 . S
Tb40 O64 2.378 . S
Tb40 O68 2.325 . S
Tb40 O71 2.341 . S
Tb41 C51 2.809 . S
Tb41 O62 2.325 . S
Tb41 O65 2.341 . S
Tb41 O66 2.484 . S
Tb41 O67 2.440 . S
Tb41 O68 2.658 . S
Tb41 O69 2.409 . S
Tb41 O70 2.378 . S
C42 Tb40 2.809 1_545 S
C42 C43 1.514 . S
C42 O60 1.248 . S
C42 O61 1.266 . S
C43 C42 1.514 . S
C43 C44 1.359 . S
C43 C48 1.348 . S
C44 C43 1.359 . S
C44 C45 1.380 . S
C44 H72 0.929 . S
C45 C44 1.380 . S
C45 C46 1.347 . S
C45 H73 0.931 . S
C46 C45 1.347 . S
C46 C47 1.369 . S
C47 C46 1.369 . S
C47 C48 1.408 . S
C47 H74 0.930 . S
C48 C43 1.348 . S
C48 C47 1.408 . S
C48 H75 0.930 . S
C49 O62 1.281 . S
C49 O63 1.254 . S
C50 O64 1.236 . S
C50 O65 1.266 . S
C51 Tb41 2.809 . S
C51 C52 1.514 . S
C51 O66 1.248 . S
C51 O67 1.266 . S
C52 C51 1.514 . S
C52 C53 1.359 . S
C52 C57 1.348 . S
C53 C52 1.359 . S
C53 C54 1.380 . S
C53 H76 0.929 . S
C54 C53 1.380 . S
C54 C55 1.347 . S
C54 H77 0.931 . S
C55 C54 1.347 . S
C55 C56 1.369 . S
C56 C55 1.369 . S
C56 C57 1.408 . S
C56 H78 0.930 . S
C57 C52 1.348 . S
C57 C56 1.408 . S
C57 H79 0.930 . S
C58 O68 1.281 . S
C58 O69 1.254 . S
C59 O70 1.236 . S
C59 O71 1.266 . S
O60 Tb40 2.484 1_545 S
O60 C42 1.248 . S
O61 Tb40 2.440 1_545 S
O61 C42 1.266 . S
O62 Tb40 2.658 . S
O62 Tb41 2.325 . S
O62 C49 1.281 . S
O63 Tb40 2.409 . S
O63 C49 1.254 . S
O64 Tb40 2.378 . S
O64 C50 1.236 . S
O65 Tb41 2.341 . S
O65 C50 1.266 . S
O66 Tb41 2.484 . S
O66 C51 1.248 . S
O67 Tb41 2.440 . S
O67 C51 1.266 . S
O68 Tb40 2.325 . S
O68 Tb41 2.658 . S
O68 C58 1.281 . S
O69 Tb41 2.409 . S
O69 C58 1.254 . S
O70 Tb41 2.378 . S
O70 C59 1.236 . S
O71 Tb40 2.341 . S
O71 C59 1.266 . S
H72 C44 0.929 . S
H73 C45 0.931 . S
H74 C47 0.930 . S
H75 C48 0.930 . S
H76 C53 0.929 . S
H77 C54 0.931 . S
H78 C56 0.930 . S
H79 C57 0.930 . S
Tb80 C82 2.809 1_565 S
Tb80 O100 2.484 1_565 S
Tb80 O101 2.440 1_565 S
Tb80 O102 2.658 . S
Tb80 O103 2.409 . S
Tb80 O104 2.378 . S
Tb80 O108 2.325 . S
Tb80 O111 2.341 . S
Tb81 C91 2.809 . S
Tb81 O102 2.325 . S
Tb81 O105 2.341 . S
Tb81 O106 2.484 . S
Tb81 O107 2.440 . S
Tb81 O108 2.658 . S
Tb81 O109 2.409 . S
Tb81 O110 2.378 . S
C82 Tb80 2.809 1_545 S
C82 C83 1.514 . S
C82 O100 1.248 . S
C82 O101 1.266 . S
C83 C82 1.514 . S
C83 C84 1.359 . S
C83 C88 1.348 . S
C84 C83 1.359 . S
C84 C85 1.380 . S
C84 H112 0.929 . S
C85 C84 1.380 . S
C85 C86 1.347 . S
C85 H113 0.931 . S
C86 C85 1.347 . S
C86 C87 1.369 . S
C87 C86 1.369 . S
C87 C88 1.408 . S
C87 H114 0.930 . S
C88 C83 1.348 . S
C88 C87 1.408 . S
C88 H115 0.930 . S
C89 O102 1.281 . S
C89 O103 1.254 . S
C90 O104 1.236 . S
C90 O105 1.266 . S
C91 Tb81 2.809 . S
C91 C92 1.514 . S
C91 O106 1.248 . S
C91 O107 1.266 . S
C92 C91 1.514 . S
C92 C93 1.359 . S
C92 C97 1.348 . S
C93 C92 1.359 . S
C93 C94 1.380 . S
C93 H116 0.929 . S
C94 C93 1.380 . S
C94 C95 1.347 . S
C94 H117 0.931 . S
C95 C94 1.347 . S
C95 C96 1.369 . S
C96 C95 1.369 . S
C96 C97 1.408 . S
C96 H118 0.930 . S
C97 C92 1.348 . S
C97 C96 1.408 . S
C97 H119 0.930 . S
C98 O108 1.281 . S
C98 O109 1.254 . S
C99 O110 1.236 . S
C99 O111 1.266 . S
O100 Tb80 2.484 1_545 S
O100 C82 1.248 . S
O101 Tb80 2.440 1_545 S
O101 C82 1.266 . S
O102 Tb80 2.658 . S
O102 Tb81 2.325 . S
O102 C89 1.281 . S
O103 Tb80 2.409 . S
O103 C89 1.254 . S
O104 Tb80 2.378 . S
O104 C90 1.236 . S
O105 Tb81 2.341 . S
O105 C90 1.266 . S
O106 Tb81 2.484 . S
O106 C91 1.248 . S
O107 Tb81 2.440 . S
O107 C91 1.266 . S
O108 Tb80 2.325 . S
O108 Tb81 2.658 . S
O108 C98 1.281 . S
O109 Tb81 2.409 . S
O109 C98 1.254 . S
O110 Tb81 2.378 . S
O110 C99 1.236 . S
O111 Tb80 2.341 . S
O111 C99 1.266 . S
H112 C84 0.929 . S
H113 C85 0.931 . S
H114 C87 0.930 . S
H115 C88 0.930 . S
H116 C93 0.929 . S
H117 C94 0.931 . S
H118 C96 0.930 . S
H119 C97 0.930 . S
Tb120 C122 2.809 1_545 S
Tb120 O140 2.484 1_545 S
Tb120 O141 2.440 1_545 S
Tb120 O142 2.658 . S
Tb120 O143 2.409 . S
Tb120 O144 2.378 . S
Tb120 O148 2.325 . S
Tb120 O151 2.341 . S
Tb121 C131 2.809 . S
Tb121 O142 2.325 . S
Tb121 O145 2.341 . S
Tb121 O146 2.484 . S
Tb121 O147 2.440 . S
Tb121 O148 2.658 . S
Tb121 O149 2.409 . S
Tb121 O150 2.378 . S
C122 Tb120 2.809 1_565 S
C122 C123 1.514 . S
C122 O140 1.248 . S
C122 O141 1.266 . S
C123 C122 1.514 . S
C123 C124 1.359 . S
C123 C128 1.348 . S
C124 C123 1.359 . S
C124 C125 1.380 . S
C124 H152 0.929 . S
C125 C124 1.380 . S
C125 C126 1.347 . S
C125 H153 0.931 . S
C126 C125 1.347 . S
C126 C127 1.369 . S
C127 C126 1.369 . S
C127 C128 1.408 . S
C127 H154 0.930 . S
C128 C123 1.348 . S
C128 C127 1.408 . S
C128 H155 0.930 . S
C129 O142 1.281 . S
C129 O143 1.254 . S
C130 O144 1.236 . S
C130 O145 1.266 . S
C131 Tb121 2.809 . S
C131 C132 1.514 . S
C131 O146 1.248 . S
C131 O147 1.266 . S
C132 C131 1.514 . S
C132 C133 1.359 . S
C132 C137 1.348 . S
C133 C132 1.359 . S
C133 C134 1.380 . S
C133 H156 0.929 . S
C134 C133 1.380 . S
C134 C135 1.347 . S
C134 H157 0.931 . S
C135 C134 1.347 . S
C135 C136 1.369 . S
C136 C135 1.369 . S
C136 C137 1.408 . S
C136 H158 0.930 . S
C137 C132 1.348 . S
C137 C136 1.408 . S
C137 H159 0.930 . S
C138 O148 1.281 . S
C138 O149 1.254 . S
C139 O150 1.236 . S
C139 O151 1.266 . S
O140 Tb120 2.484 1_565 S
O140 C122 1.248 . S
O141 Tb120 2.440 1_565 S
O141 C122 1.266 . S
O142 Tb120 2.658 . S
O142 Tb121 2.325 . S
O142 C129 1.281 . S
O143 Tb120 2.409 . S
O143 C129 1.254 . S
O144 Tb120 2.378 . S
O144 C130 1.236 . S
O145 Tb121 2.341 . S
O145 C130 1.266 . S
O146 Tb121 2.484 . S
O146 C131 1.248 . S
O147 Tb121 2.440 . S
O147 C131 1.266 . S
O148 Tb120 2.325 . S
O148 Tb121 2.658 . S
O148 C138 1.281 . S
O149 Tb121 2.409 . S
O149 C138 1.254 . S
O150 Tb121 2.378 . S
O150 C139 1.236 . S
O151 Tb120 2.341 . S
O151 C139 1.266 . S
H152 C124 0.929 . S
H153 C125 0.931 . S
H154 C127 0.930 . S
H155 C128 0.930 . S
H156 C133 0.929 . S
H157 C134 0.931 . S
H158 C136 0.930 . S
H159 C137 0.930 . S
Tb160 C162 2.809 . S
Tb160 O180 2.484 . S
Tb160 O181 2.440 . S
Tb160 O182 2.658 . S
Tb160 O183 2.409 . S
Tb160 O184 2.378 . S
Tb160 O188 2.325 . S
Tb160 O191 2.341 . S
Tb161 C171 2.809 1_565 S
Tb161 O182 2.325 . S
Tb161 O185 2.341 . S
Tb161 O186 2.484 1_565 S
Tb161 O187 2.440 1_565 S
Tb161 O188 2.658 . S
Tb161 O189 2.409 . S
Tb161 O190 2.378 . S
C162 Tb160 2.809 . S
C162 C163 1.514 . S
C162 O180 1.248 . S
C162 O181 1.266 . S
C163 C162 1.514 . S
C163 C164 1.359 . S
C163 C168 1.348 . S
C164 C163 1.359 . S
C164 C165 1.380 . S
C164 H192 0.929 . S
C165 C164 1.380 . S
C165 C166 1.347 . S
C165 H193 0.931 . S
C166 C165 1.347 . S
C166 C167 1.369 . S
C167 C166 1.369 . S
C167 C168 1.408 . S
C167 H194 0.930 . S
C168 C163 1.348 . S
C168 C167 1.408 . S
C168 H195 0.930 . S
C169 O182 1.281 . S
C169 O183 1.254 . S
C170 O184 1.236 . S
C170 O185 1.266 . S
C171 Tb161 2.809 1_545 S
C171 C172 1.514 . S
C171 O186 1.248 . S
C171 O187 1.266 . S
C172 C171 1.514 . S
C172 C173 1.359 . S
C172 C177 1.348 . S
C173 C172 1.359 . S
C173 C174 1.380 . S
C173 H196 0.929 . S
C174 C173 1.380 . S
C174 C175 1.347 . S
C174 H197 0.931 . S
C175 C174 1.347 . S
C175 C176 1.369 . S
C176 C175 1.369 . S
C176 C177 1.408 . S
C176 H198 0.930 . S
C177 C172 1.348 . S
C177 C176 1.408 . S
C177 H199 0.930 . S
C178 O188 1.281 . S
C178 O189 1.254 . S
C179 O190 1.236 . S
C179 O191 1.266 . S
O180 Tb160 2.484 . S
O180 C162 1.248 . S
O181 Tb160 2.440 . S
O181 C162 1.266 . S
O182 Tb160 2.658 . S
O182 Tb161 2.325 . S
O182 C169 1.281 . S
O183 Tb160 2.409 . S
O183 C169 1.254 . S
O184 Tb160 2.378 . S
O184 C170 1.236 . S
O185 Tb161 2.341 . S
O185 C170 1.266 . S
O186 Tb161 2.484 1_545 S
O186 C171 1.248 . S
O187 Tb161 2.440 1_545 S
O187 C171 1.266 . S
O188 Tb160 2.325 . S
O188 Tb161 2.658 . S
O188 C178 1.281 . S
O189 Tb161 2.409 . S
O189 C178 1.254 . S
O190 Tb161 2.378 . S
O190 C179 1.236 . S
O191 Tb160 2.341 . S
O191 C179 1.266 . S
H192 C164 0.929 . S
H193 C165 0.931 . S
H194 C167 0.930 . S
H195 C168 0.930 . S
H196 C173 0.929 . S
H197 C174 0.931 . S
H198 C176 0.930 . S
H199 C177 0.930 . S
Tb200 C202 2.809 . S
Tb200 O220 2.484 . S
Tb200 O221 2.440 . S
Tb200 O222 2.658 . S
Tb200 O223 2.409 . S
Tb200 O224 2.378 . S
Tb200 O228 2.325 . S
Tb200 O231 2.341 . S
Tb201 C211 2.809 1_545 S
Tb201 O222 2.325 . S
Tb201 O225 2.341 . S
Tb201 O226 2.484 1_545 S
Tb201 O227 2.440 1_545 S
Tb201 O228 2.658 . S
Tb201 O229 2.409 . S
Tb201 O230 2.378 . S
C202 Tb200 2.809 . S
C202 C203 1.514 . S
C202 O220 1.248 . S
C202 O221 1.266 . S
C203 C202 1.514 . S
C203 C204 1.359 . S
C203 C208 1.348 . S
C204 C203 1.359 . S
C204 C205 1.380 . S
C204 H232 0.929 . S
C205 C204 1.380 . S
C205 C206 1.347 . S
C205 H233 0.931 . S
C206 C205 1.347 . S
C206 C207 1.369 . S
C207 C206 1.369 . S
C207 C208 1.408 . S
C207 H234 0.930 . S
C208 C203 1.348 . S
C208 C207 1.408 . S
C208 H235 0.930 . S
C209 O222 1.281 . S
C209 O223 1.254 . S
C210 O224 1.236 . S
C210 O225 1.266 . S
C211 Tb201 2.809 1_565 S
C211 C212 1.514 . S
C211 O226 1.248 . S
C211 O227 1.266 . S
C212 C211 1.514 . S
C212 C213 1.359 . S
C212 C217 1.348 . S
C213 C212 1.359 . S
C213 C214 1.380 . S
C213 H236 0.929 . S
C214 C213 1.380 . S
C214 C215 1.347 . S
C214 H237 0.931 . S
C215 C214 1.347 . S
C215 C216 1.369 . S
C216 C215 1.369 . S
C216 C217 1.408 . S
C216 H238 0.930 . S
C217 C212 1.348 . S
C217 C216 1.408 . S
C217 H239 0.930 . S
C218 O228 1.281 . S
C218 O229 1.254 . S
C219 O230 1.236 . S
C219 O231 1.266 . S
O220 Tb200 2.484 . S
O220 C202 1.248 . S
O221 Tb200 2.440 . S
O221 C202 1.266 . S
O222 Tb200 2.658 . S
O222 Tb201 2.325 . S
O222 C209 1.281 . S
O223 Tb200 2.409 . S
O223 C209 1.254 . S
O224 Tb200 2.378 . S
O224 C210 1.236 . S
O225 Tb201 2.341 . S
O225 C210 1.266 . S
O226 Tb201 2.484 1_565 S
O226 C211 1.248 . S
O227 Tb201 2.440 1_565 S
O227 C211 1.266 . S
O228 Tb200 2.325 . S
O228 Tb201 2.658 . S
O228 C218 1.281 . S
O229 Tb201 2.409 . S
O229 C218 1.254 . S
O230 Tb201 2.378 . S
O230 C219 1.236 . S
O231 Tb200 2.341 . S
O231 C219 1.266 . S
H232 C204 0.929 . S
H233 C205 0.931 . S
H234 C207 0.930 . S
H235 C208 0.930 . S
H236 C213 0.929 . S
H237 C214 0.931 . S
H238 C216 0.930 . S
H239 C217 0.930 . S
Tb240 C242 2.809 . S
Tb240 O260 2.484 . S
Tb240 O261 2.440 . S
Tb240 O262 2.658 . S
Tb240 O263 2.409 . S
Tb240 O264 2.378 . S
Tb240 O268 2.325 . S
Tb240 O271 2.341 . S
Tb241 C251 2.809 1_545 S
Tb241 O262 2.325 . S
Tb241 O265 2.341 . S
Tb241 O266 2.484 1_545 S
Tb241 O267 2.440 1_545 S
Tb241 O268 2.658 . S
Tb241 O269 2.409 . S
Tb241 O270 2.378 . S
C242 Tb240 2.809 . S
C242 C243 1.514 . S
C242 O260 1.248 . S
C242 O261 1.266 . S
C243 C242 1.514 . S
C243 C244 1.359 . S
C243 C248 1.348 . S
C244 C243 1.359 . S
C244 C245 1.380 . S
C244 H272 0.929 . S
C245 C244 1.380 . S
C245 C246 1.347 . S
C245 H273 0.931 . S
C246 C245 1.347 . S
C246 C247 1.369 . S
C247 C246 1.369 . S
C247 C248 1.408 . S
C247 H274 0.930 . S
C248 C243 1.348 . S
C248 C247 1.408 . S
C248 H275 0.930 . S
C249 O262 1.281 . S
C249 O263 1.254 . S
C250 O264 1.236 . S
C250 O265 1.266 . S
C251 Tb241 2.809 1_565 S
C251 C252 1.514 . S
C251 O266 1.248 . S
C251 O267 1.266 . S
C252 C251 1.514 . S
C252 C253 1.359 . S
C252 C257 1.348 . S
C253 C252 1.359 . S
C253 C254 1.380 . S
C253 H276 0.929 . S
C254 C253 1.380 . S
C254 C255 1.347 . S
C254 H277 0.931 . S
C255 C254 1.347 . S
C255 C256 1.369 . S
C256 C255 1.369 . S
C256 C257 1.408 . S
C256 H278 0.930 . S
C257 C252 1.348 . S
C257 C256 1.408 . S
C257 H279 0.930 . S
C258 O268 1.281 . S
C258 O269 1.254 . S
C259 O270 1.236 . S
C259 O271 1.266 . S
O260 Tb240 2.484 . S
O260 C242 1.248 . S
O261 Tb240 2.440 . S
O261 C242 1.266 . S
O262 Tb240 2.658 . S
O262 Tb241 2.325 . S
O262 C249 1.281 . S
O263 Tb240 2.409 . S
O263 C249 1.254 . S
O264 Tb240 2.378 . S
O264 C250 1.236 . S
O265 Tb241 2.341 . S
O265 C250 1.266 . S
O266 Tb241 2.484 1_565 S
O266 C251 1.248 . S
O267 Tb241 2.440 1_565 S
O267 C251 1.266 . S
O268 Tb240 2.325 . S
O268 Tb241 2.658 . S
O268 C258 1.281 . S
O269 Tb241 2.409 . S
O269 C258 1.254 . S
O270 Tb241 2.378 . S
O270 C259 1.236 . S
O271 Tb240 2.341 . S
O271 C259 1.266 . S
H272 C244 0.929 . S
H273 C245 0.931 . S
H274 C247 0.930 . S
H275 C248 0.930 . S
H276 C253 0.929 . S
H277 C254 0.931 . S
H278 C256 0.930 . S
H279 C257 0.930 . S
Tb280 C282 2.809 . S
Tb280 O300 2.484 . S
Tb280 O301 2.440 . S
Tb280 O302 2.658 . S
Tb280 O303 2.409 . S
Tb280 O304 2.378 . S
Tb280 O308 2.325 . S
Tb280 O311 2.341 . S
Tb281 C291 2.809 1_565 S
Tb281 O302 2.325 . S
Tb281 O305 2.341 . S
Tb281 O306 2.484 1_565 S
Tb281 O307 2.440 1_565 S
Tb281 O308 2.658 . S
Tb281 O309 2.409 . S
Tb281 O310 2.378 . S
C282 Tb280 2.809 . S
C282 C283 1.514 . S
C282 O300 1.248 . S
C282 O301 1.266 . S
C283 C282 1.514 . S
C283 C284 1.359 . S
C283 C288 1.348 . S
C284 C283 1.359 . S
C284 C285 1.380 . S
C284 H312 0.929 . S
C285 C284 1.380 . S
C285 C286 1.347 . S
C285 H313 0.931 . S
C286 C285 1.347 . S
C286 C287 1.369 . S
C287 C286 1.369 . S
C287 C288 1.408 . S
C287 H314 0.930 . S
C288 C283 1.348 . S
C288 C287 1.408 . S
C288 H315 0.930 . S
C289 O302 1.281 . S
C289 O303 1.254 . S
C290 O304 1.236 . S
C290 O305 1.266 . S
C291 Tb281 2.809 1_545 S
C291 C292 1.514 . S
C291 O306 1.248 . S
C291 O307 1.266 . S
C292 C291 1.514 . S
C292 C293 1.359 . S
C292 C297 1.348 . S
C293 C292 1.359 . S
C293 C294 1.380 . S
C293 H316 0.929 . S
C294 C293 1.380 . S
C294 C295 1.347 . S
C294 H317 0.931 . S
C295 C294 1.347 . S
C295 C296 1.369 . S
C296 C295 1.369 . S
C296 C297 1.408 . S
C296 H318 0.930 . S
C297 C292 1.348 . S
C297 C296 1.408 . S
C297 H319 0.930 . S
C298 O308 1.281 . S
C298 O309 1.254 . S
C299 O310 1.236 . S
C299 O311 1.266 . S
O300 Tb280 2.484 . S
O300 C282 1.248 . S
O301 Tb280 2.440 . S
O301 C282 1.266 . S
O302 Tb280 2.658 . S
O302 Tb281 2.325 . S
O302 C289 1.281 . S
O303 Tb280 2.409 . S
O303 C289 1.254 . S
O304 Tb280 2.378 . S
O304 C290 1.236 . S
O305 Tb281 2.341 . S
O305 C290 1.266 . S
O306 Tb281 2.484 1_545 S
O306 C291 1.248 . S
O307 Tb281 2.440 1_545 S
O307 C291 1.266 . S
O308 Tb280 2.325 . S
O308 Tb281 2.658 . S
O308 C298 1.281 . S
O309 Tb281 2.409 . S
O309 C298 1.254 . S
O310 Tb281 2.378 . S
O310 C299 1.236 . S
O311 Tb280 2.341 . S
O311 C299 1.266 . S
H312 C284 0.929 . S
H313 C285 0.931 . S
H314 C287 0.930 . S
H315 C288 0.930 . S
H316 C293 0.929 . S
H317 C294 0.931 . S
H318 C296 0.930 . S
H319 C297 0.930 . S
Tb320 C322 2.809 . S
Tb320 O340 2.484 . S
Tb320 O341 2.440 . S
Tb320 O342 2.658 . S
Tb320 O343 2.409 . S
Tb320 O344 2.378 . S
Tb320 O348 2.325 . S
Tb320 O351 2.341 . S
Tb321 C331 2.809 . S
Tb321 O342 2.325 . S
Tb321 O345 2.341 . S
Tb321 O346 2.484 . S
Tb321 O347 2.440 . S
Tb321 O348 2.658 . S
Tb321 O349 2.409 . S
Tb321 O350 2.378 . S
C322 Tb320 2.809 . S
C322 C323 1.514 . S
C322 O340 1.248 . S
C322 O341 1.266 . S
C323 C322 1.514 . S
C323 C324 1.359 . S
C323 C328 1.348 . S
C324 C323 1.359 . S
C324 C325 1.380 . S
C324 H352 0.929 . S
C325 C324 1.380 . S
C325 C326 1.347 . S
C325 H353 0.931 . S
C326 C325 1.347 . S
C326 C327 1.369 . S
C327 C326 1.369 . S
C327 C328 1.408 . S
C327 H354 0.930 . S
C328 C323 1.348 . S
C328 C327 1.408 . S
C328 H355 0.930 . S
C329 O342 1.281 . S
C329 O343 1.254 . S
C330 O344 1.236 . S
C330 O345 1.266 . S
C331 Tb321 2.809 . S
C331 C332 1.514 . S
C331 O346 1.248 . S
C331 O347 1.266 . S
C332 C331 1.514 . S
C332 C333 1.359 . S
C332 C337 1.348 . S
C333 C332 1.359 . S
C333 C334 1.380 . S
C333 H356 0.929 . S
C334 C333 1.380 . S
C334 C335 1.347 . S
C334 H357 0.931 . S
C335 C334 1.347 . S
C335 C336 1.369 . S
C336 C335 1.369 . S
C336 C337 1.408 . S
C336 H358 0.930 . S
C337 C332 1.348 . S
C337 C336 1.408 . S
C337 H359 0.930 . S
C338 O348 1.281 . S
C338 O349 1.254 . S
C339 O350 1.236 . S
C339 O351 1.266 . S
O340 Tb320 2.484 . S
O340 C322 1.248 . S
O341 Tb320 2.440 . S
O341 C322 1.266 . S
O342 Tb320 2.658 . S
O342 Tb321 2.325 . S
O342 C329 1.281 . S
O343 Tb320 2.409 . S
O343 C329 1.254 . S
O344 Tb320 2.378 . S
O344 C330 1.236 . S
O345 Tb321 2.341 . S
O345 C330 1.266 . S
O346 Tb321 2.484 . S
O346 C331 1.248 . S
O347 Tb321 2.440 . S
O347 C331 1.266 . S
O348 Tb320 2.325 . S
O348 Tb321 2.658 . S
O348 C338 1.281 . S
O349 Tb321 2.409 . S
O349 C338 1.254 . S
O350 Tb321 2.378 . S
O350 C339 1.236 . S
O351 Tb320 2.341 . S
O351 C339 1.266 . S
H352 C324 0.929 . S
H353 C325 0.931 . S
H354 C327 0.930 . S
H355 C328 0.930 . S
H356 C333 0.929 . S
H357 C334 0.931 . S
H358 C336 0.930 . S
H359 C337 0.930 . S
Tb360 C362 2.809 . S
Tb360 O380 2.484 . S
Tb360 O381 2.440 . S
Tb360 O382 2.658 . S
Tb360 O383 2.409 . S
Tb360 O384 2.378 . S
Tb360 O388 2.325 . S
Tb360 O391 2.341 . S
Tb361 C371 2.809 . S
Tb361 O382 2.325 . S
Tb361 O385 2.341 . S
Tb361 O386 2.484 . S
Tb361 O387 2.440 . S
Tb361 O388 2.658 . S
Tb361 O389 2.409 . S
Tb361 O390 2.378 . S
C362 Tb360 2.809 . S
C362 C363 1.514 . S
C362 O380 1.248 . S
C362 O381 1.266 . S
C363 C362 1.514 . S
C363 C364 1.359 . S
C363 C368 1.348 . S
C364 C363 1.359 . S
C364 C365 1.380 . S
C364 H392 0.929 . S
C365 C364 1.380 . S
C365 C366 1.347 . S
C365 H393 0.931 . S
C366 C365 1.347 . S
C366 C367 1.369 . S
C367 C366 1.369 . S
C367 C368 1.408 . S
C367 H394 0.930 . S
C368 C363 1.348 . S
C368 C367 1.408 . S
C368 H395 0.930 . S
C369 O382 1.281 . S
C369 O383 1.254 . S
C370 O384 1.236 . S
C370 O385 1.266 . S
C371 Tb361 2.809 . S
C371 C372 1.514 . S
C371 O386 1.248 . S
C371 O387 1.266 . S
C372 C371 1.514 . S
C372 C373 1.359 . S
C372 C377 1.348 . S
C373 C372 1.359 . S
C373 C374 1.380 . S
C373 H396 0.929 . S
C374 C373 1.380 . S
C374 C375 1.347 . S
C374 H397 0.931 . S
C375 C374 1.347 . S
C375 C376 1.369 . S
C376 C375 1.369 . S
C376 C377 1.408 . S
C376 H398 0.930 . S
C377 C372 1.348 . S
C377 C376 1.408 . S
C377 H399 0.930 . S
C378 O388 1.281 . S
C378 O389 1.254 . S
C379 O390 1.236 . S
C379 O391 1.266 . S
O380 Tb360 2.484 . S
O380 C362 1.248 . S
O381 Tb360 2.440 . S
O381 C362 1.266 . S
O382 Tb360 2.658 . S
O382 Tb361 2.325 . S
O382 C369 1.281 . S
O383 Tb360 2.409 . S
O383 C369 1.254 . S
O384 Tb360 2.378 . S
O384 C370 1.236 . S
O385 Tb361 2.341 . S
O385 C370 1.266 . S
O386 Tb361 2.484 . S
O386 C371 1.248 . S
O387 Tb361 2.440 . S
O387 C371 1.266 . S
O388 Tb360 2.325 . S
O388 Tb361 2.658 . S
O388 C378 1.281 . S
O389 Tb361 2.409 . S
O389 C378 1.254 . S
O390 Tb361 2.378 . S
O390 C379 1.236 . S
O391 Tb360 2.341 . S
O391 C379 1.266 . S
H392 C364 0.929 . S
H393 C365 0.931 . S
H394 C367 0.930 . S
H395 C368 0.930 . S
H396 C373 0.929 . S
H397 C374 0.931 . S
H398 C376 0.930 . S
H399 C377 0.930 . S
Tb400 C402 2.809 . S
Tb400 O420 2.484 . S
Tb400 O421 2.440 . S
Tb400 O422 2.658 . S
Tb400 O423 2.409 . S
Tb400 O424 2.378 . S
Tb400 O428 2.325 . S
Tb400 O431 2.341 . S
Tb401 C411 2.809 . S
Tb401 O422 2.325 . S
Tb401 O425 2.341 . S
Tb401 O426 2.484 . S
Tb401 O427 2.440 . S
Tb401 O428 2.658 . S
Tb401 O429 2.409 . S
Tb401 O430 2.378 . S
C402 Tb400 2.809 . S
C402 C403 1.514 . S
C402 O420 1.248 . S
C402 O421 1.266 . S
C403 C402 1.514 . S
C403 C404 1.359 . S
C403 C408 1.348 . S
C404 C403 1.359 . S
C404 C405 1.380 . S
C404 H432 0.929 . S
C405 C404 1.380 . S
C405 C406 1.347 . S
C405 H433 0.931 . S
C406 C405 1.347 . S
C406 C407 1.369 . S
C407 C406 1.369 . S
C407 C408 1.408 . S
C407 H434 0.930 . S
C408 C403 1.348 . S
C408 C407 1.408 . S
C408 H435 0.930 . S
C409 O422 1.281 . S
C409 O423 1.254 . S
C410 O424 1.236 . S
C410 O425 1.266 . S
C411 Tb401 2.809 . S
C411 C412 1.514 . S
C411 O426 1.248 . S
C411 O427 1.266 . S
C412 C411 1.514 . S
C412 C413 1.359 . S
C412 C417 1.348 . S
C413 C412 1.359 . S
C413 C414 1.380 . S
C413 H436 0.929 . S
C414 C413 1.380 . S
C414 C415 1.347 . S
C414 H437 0.931 . S
C415 C414 1.347 . S
C415 C416 1.369 . S
C416 C415 1.369 . S
C416 C417 1.408 . S
C416 H438 0.930 . S
C417 C412 1.348 . S
C417 C416 1.408 . S
C417 H439 0.930 . S
C418 O428 1.281 . S
C418 O429 1.254 . S
C419 O430 1.236 . S
C419 O431 1.266 . S
O420 Tb400 2.484 . S
O420 C402 1.248 . S
O421 Tb400 2.440 . S
O421 C402 1.266 . S
O422 Tb400 2.658 . S
O422 Tb401 2.325 . S
O422 C409 1.281 . S
O423 Tb400 2.409 . S
O423 C409 1.254 . S
O424 Tb400 2.378 . S
O424 C410 1.236 . S
O425 Tb401 2.341 . S
O425 C410 1.266 . S
O426 Tb401 2.484 . S
O426 C411 1.248 . S
O427 Tb401 2.440 . S
O427 C411 1.266 . S
O428 Tb400 2.325 . S
O428 Tb401 2.658 . S
O428 C418 1.281 . S
O429 Tb401 2.409 . S
O429 C418 1.254 . S
O430 Tb401 2.378 . S
O430 C419 1.236 . S
O431 Tb400 2.341 . S
O431 C419 1.266 . S
H432 C404 0.929 . S
H433 C405 0.931 . S
H434 C407 0.930 . S
H435 C408 0.930 . S
H436 C413 0.929 . S
H437 C414 0.931 . S
H438 C416 0.930 . S
H439 C417 0.930 . S
Tb440 C442 2.809 . S
Tb440 O460 2.484 . S
Tb440 O461 2.440 . S
Tb440 O462 2.658 . S
Tb440 O463 2.409 . S
Tb440 O464 2.378 . S
Tb440 O468 2.325 . S
Tb440 O471 2.341 . S
Tb441 C451 2.809 . S
Tb441 O462 2.325 . S
Tb441 O465 2.341 . S
Tb441 O466 2.484 . S
Tb441 O467 2.440 . S
Tb441 O468 2.658 . S
Tb441 O469 2.409 . S
Tb441 O470 2.378 . S
C442 Tb440 2.809 . S
C442 C443 1.514 . S
C442 O460 1.248 . S
C442 O461 1.266 . S
C443 C442 1.514 . S
C443 C444 1.359 . S
C443 C448 1.348 . S
C444 C443 1.359 . S
C444 C445 1.380 . S
C444 H472 0.929 . S
C445 C444 1.380 . S
C445 C446 1.347 . S
C445 H473 0.931 . S
C446 C445 1.347 . S
C446 C447 1.369 . S
C447 C446 1.369 . S
C447 C448 1.408 . S
C447 H474 0.930 . S
C448 C443 1.348 . S
C448 C447 1.408 . S
C448 H475 0.930 . S
C449 O462 1.281 . S
C449 O463 1.254 . S
C450 O464 1.236 . S
C450 O465 1.266 . S
C451 Tb441 2.809 . S
C451 C452 1.514 . S
C451 O466 1.248 . S
C451 O467 1.266 . S
C452 C451 1.514 . S
C452 C453 1.359 . S
C452 C457 1.348 . S
C453 C452 1.359 . S
C453 C454 1.380 . S
C453 H476 0.929 . S
C454 C453 1.380 . S
C454 C455 1.347 . S
C454 H477 0.931 . S
C455 C454 1.347 . S
C455 C456 1.369 . S
C456 C455 1.369 . S
C456 C457 1.408 . S
C456 H478 0.930 . S
C457 C452 1.348 . S
C457 C456 1.408 . S
C457 H479 0.930 . S
C458 O468 1.281 . S
C458 O469 1.254 . S
C459 O470 1.236 . S
C459 O471 1.266 . S
O460 Tb440 2.484 . S
O460 C442 1.248 . S
O461 Tb440 2.440 . S
O461 C442 1.266 . S
O462 Tb440 2.658 . S
O462 Tb441 2.325 . S
O462 C449 1.281 . S
O463 Tb440 2.409 . S
O463 C449 1.254 . S
O464 Tb440 2.378 . S
O464 C450 1.236 . S
O465 Tb441 2.341 . S
O465 C450 1.266 . S
O466 Tb441 2.484 . S
O466 C451 1.248 . S
O467 Tb441 2.440 . S
O467 C451 1.266 . S
O468 Tb440 2.325 . S
O468 Tb441 2.658 . S
O468 C458 1.281 . S
O469 Tb441 2.409 . S
O469 C458 1.254 . S
O470 Tb441 2.378 . S
O470 C459 1.236 . S
O471 Tb440 2.341 . S
O471 C459 1.266 . S
H472 C444 0.929 . S
H473 C445 0.931 . S
H474 C447 0.930 . S
H475 C448 0.930 . S
H476 C453 0.929 . S
H477 C454 0.931 . S
H478 C456 0.930 . S
H479 C457 0.930 . S
Tb480 C482 2.809 . S
Tb480 O500 2.484 . S
Tb480 O501 2.440 . S
Tb480 O502 2.658 . S
Tb480 O503 2.409 . S
Tb480 O504 2.378 . S
Tb480 O508 2.325 . S
Tb480 O511 2.341 . S
Tb481 C491 2.809 . S
Tb481 O502 2.325 . S
Tb481 O505 2.341 . S
Tb481 O506 2.484 . S
Tb481 O507 2.440 . S
Tb481 O508 2.658 . S
Tb481 O509 2.409 . S
Tb481 O510 2.378 . S
C482 Tb480 2.809 . S
C482 C483 1.514 . S
C482 O500 1.248 . S
C482 O501 1.266 . S
C483 C482 1.514 . S
C483 C484 1.359 . S
C483 C488 1.348 . S
C484 C483 1.359 . S
C484 C485 1.380 . S
C484 H512 0.929 . S
C485 C484 1.380 . S
C485 C486 1.347 . S
C485 H513 0.931 . S
C486 C485 1.347 . S
C486 C487 1.369 . S
C487 C486 1.369 . S
C487 C488 1.408 . S
C487 H514 0.930 . S
C488 C483 1.348 . S
C488 C487 1.408 . S
C488 H515 0.930 . S
C489 O502 1.281 . S
C489 O503 1.254 . S
C490 O504 1.236 . S
C490 O505 1.266 . S
C491 Tb481 2.809 . S
C491 C492 1.514 . S
C491 O506 1.248 . S
C491 O507 1.266 . S
C492 C491 1.514 . S
C492 C493 1.359 . S
C492 C497 1.348 . S
C493 C492 1.359 . S
C493 C494 1.380 . S
C493 H516 0.929 . S
C494 C493 1.380 . S
C494 C495 1.347 . S
C494 H517 0.931 . S
C495 C494 1.347 . S
C495 C496 1.369 . S
C496 C495 1.369 . S
C496 C497 1.408 . S
C496 H518 0.930 . S
C497 C492 1.348 . S
C497 C496 1.408 . S
C497 H519 0.930 . S
C498 O508 1.281 . S
C498 O509 1.254 . S
C499 O510 1.236 . S
C499 O511 1.266 . S
O500 Tb480 2.484 . S
O500 C482 1.248 . S
O501 Tb480 2.440 . S
O501 C482 1.266 . S
O502 Tb480 2.658 . S
O502 Tb481 2.325 . S
O502 C489 1.281 . S
O503 Tb480 2.409 . S
O503 C489 1.254 . S
O504 Tb480 2.378 . S
O504 C490 1.236 . S
O505 Tb481 2.341 . S
O505 C490 1.266 . S
O506 Tb481 2.484 . S
O506 C491 1.248 . S
O507 Tb481 2.440 . S
O507 C491 1.266 . S
O508 Tb480 2.325 . S
O508 Tb481 2.658 . S
O508 C498 1.281 . S
O509 Tb481 2.409 . S
O509 C498 1.254 . S
O510 Tb481 2.378 . S
O510 C499 1.236 . S
O511 Tb480 2.341 . S
O511 C499 1.266 . S
H512 C484 0.929 . S
H513 C485 0.931 . S
H514 C487 0.930 . S
H515 C488 0.930 . S
H516 C493 0.929 . S
H517 C494 0.931 . S
H518 C496 0.930 . S
H519 C497 0.930 . S
Tb520 C522 2.809 . S
Tb520 O540 2.484 . S
Tb520 O541 2.440 . S
Tb520 O542 2.658 . S
Tb520 O543 2.409 . S
Tb520 O544 2.378 . S
Tb520 O548 2.325 . S
Tb520 O551 2.341 . S
Tb521 C531 2.809 . S
Tb521 O542 2.325 . S
Tb521 O545 2.341 . S
Tb521 O546 2.484 . S
Tb521 O547 2.440 . S
Tb521 O548 2.658 . S
Tb521 O549 2.409 . S
Tb521 O550 2.378 . S
C522 Tb520 2.809 . S
C522 C523 1.514 . S
C522 O540 1.248 . S
C522 O541 1.266 . S
C523 C522 1.514 . S
C523 C524 1.359 . S
C523 C528 1.348 . S
C524 C523 1.359 . S
C524 C525 1.380 . S
C524 H552 0.929 . S
C525 C524 1.380 . S
C525 C526 1.347 . S
C525 H553 0.931 . S
C526 C525 1.347 . S
C526 C527 1.369 . S
C527 C526 1.369 . S
C527 C528 1.408 . S
C527 H554 0.930 . S
C528 C523 1.348 . S
C528 C527 1.408 . S
C528 H555 0.930 . S
C529 O542 1.281 . S
C529 O543 1.254 . S
C530 O544 1.236 . S
C530 O545 1.266 . S
C531 Tb521 2.809 . S
C531 C532 1.514 . S
C531 O546 1.248 . S
C531 O547 1.266 . S
C532 C531 1.514 . S
C532 C533 1.359 . S
C532 C537 1.348 . S
C533 C532 1.359 . S
C533 C534 1.380 . S
C533 H556 0.929 . S
C534 C533 1.380 . S
C534 C535 1.347 . S
C534 H557 0.931 . S
C535 C534 1.347 . S
C535 C536 1.369 . S
C536 C535 1.369 . S
C536 C537 1.408 . S
C536 H558 0.930 . S
C537 C532 1.348 . S
C537 C536 1.408 . S
C537 H559 0.930 . S
C538 O548 1.281 . S
C538 O549 1.254 . S
C539 O550 1.236 . S
C539 O551 1.266 . S
O540 Tb520 2.484 . S
O540 C522 1.248 . S
O541 Tb520 2.440 . S
O541 C522 1.266 . S
O542 Tb520 2.658 . S
O542 Tb521 2.325 . S
O542 C529 1.281 . S
O543 Tb520 2.409 . S
O543 C529 1.254 . S
O544 Tb520 2.378 . S
O544 C530 1.236 . S
O545 Tb521 2.341 . S
O545 C530 1.266 . S
O546 Tb521 2.484 . S
O546 C531 1.248 . S
O547 Tb521 2.440 . S
O547 C531 1.266 . S
O548 Tb520 2.325 . S
O548 Tb521 2.658 . S
O548 C538 1.281 . S
O549 Tb521 2.409 . S
O549 C538 1.254 . S
O550 Tb521 2.378 . S
O550 C539 1.236 . S
O551 Tb520 2.341 . S
O551 C539 1.266 . S
H552 C524 0.929 . S
H553 C525 0.931 . S
H554 C527 0.930 . S
H555 C528 0.930 . S
H556 C533 0.929 . S
H557 C534 0.931 . S
H558 C536 0.930 . S
H559 C537 0.930 . S
Tb560 C562 2.809 . S
Tb560 O580 2.484 . S
Tb560 O581 2.440 . S
Tb560 O582 2.658 . S
Tb560 O583 2.409 . S
Tb560 O584 2.378 . S
Tb560 O588 2.325 . S
Tb560 O591 2.341 . S
Tb561 C571 2.809 . S
Tb561 O582 2.325 . S
Tb561 O585 2.341 . S
Tb561 O586 2.484 . S
Tb561 O587 2.440 . S
Tb561 O588 2.658 . S
Tb561 O589 2.409 . S
Tb561 O590 2.378 . S
C562 Tb560 2.809 . S
C562 C563 1.514 . S
C562 O580 1.248 . S
C562 O581 1.266 . S
C563 C562 1.514 . S
C563 C564 1.359 . S
C563 C568 1.348 . S
C564 C563 1.359 . S
C564 C565 1.380 . S
C564 H592 0.929 . S
C565 C564 1.380 . S
C565 C566 1.347 . S
C565 H593 0.931 . S
C566 C565 1.347 . S
C566 C567 1.369 . S
C567 C566 1.369 . S
C567 C568 1.408 . S
C567 H594 0.930 . S
C568 C563 1.348 . S
C568 C567 1.408 . S
C568 H595 0.930 . S
C569 O582 1.281 . S
C569 O583 1.254 . S
C570 O584 1.236 . S
C570 O585 1.266 . S
C571 Tb561 2.809 . S
C571 C572 1.514 . S
C571 O586 1.248 . S
C571 O587 1.266 . S
C572 C571 1.514 . S
C572 C573 1.359 . S
C572 C577 1.348 . S
C573 C572 1.359 . S
C573 C574 1.380 . S
C573 H596 0.929 . S
C574 C573 1.380 . S
C574 C575 1.347 . S
C574 H597 0.931 . S
C575 C574 1.347 . S
C575 C576 1.369 . S
C576 C575 1.369 . S
C576 C577 1.408 . S
C576 H598 0.930 . S
C577 C572 1.348 . S
C577 C576 1.408 . S
C577 H599 0.930 . S
C578 O588 1.281 . S
C578 O589 1.254 . S
C579 O590 1.236 . S
C579 O591 1.266 . S
O580 Tb560 2.484 . S
O580 C562 1.248 . S
O581 Tb560 2.440 . S
O581 C562 1.266 . S
O582 Tb560 2.658 . S
O582 Tb561 2.325 . S
O582 C569 1.281 . S
O583 Tb560 2.409 . S
O583 C569 1.254 . S
O584 Tb560 2.378 . S
O584 C570 1.236 . S
O585 Tb561 2.341 . S
O585 C570 1.266 . S
O586 Tb561 2.484 . S
O586 C571 1.248 . S
O587 Tb561 2.440 . S
O587 C571 1.266 . S
O588 Tb560 2.325 . S
O588 Tb561 2.658 . S
O588 C578 1.281 . S
O589 Tb561 2.409 . S
O589 C578 1.254 . S
O590 Tb561 2.378 . S
O590 C579 1.236 . S
O591 Tb560 2.341 . S
O591 C579 1.266 . S
H592 C564 0.929 . S
H593 C565 0.931 . S
H594 C567 0.930 . S
H595 C568 0.930 . S
H596 C573 0.929 . S
H597 C574 0.931 . S
H598 C576 0.930 . S
H599 C577 0.930 . S
Tb600 C602 2.809 . S
Tb600 O620 2.484 . S
Tb600 O621 2.440 . S
Tb600 O622 2.658 . S
Tb600 O623 2.409 . S
Tb600 O624 2.378 . S
Tb600 O628 2.325 . S
Tb600 O631 2.341 . S
Tb601 C611 2.809 . S
Tb601 O622 2.325 . S
Tb601 O625 2.341 . S
Tb601 O626 2.484 . S
Tb601 O627 2.440 . S
Tb601 O628 2.658 . S
Tb601 O629 2.409 . S
Tb601 O630 2.378 . S
C602 Tb600 2.809 . S
C602 C603 1.514 . S
C602 O620 1.248 . S
C602 O621 1.266 . S
C603 C602 1.514 . S
C603 C604 1.359 . S
C603 C608 1.348 . S
C604 C603 1.359 . S
C604 C605 1.380 . S
C604 H632 0.929 . S
C605 C604 1.380 . S
C605 C606 1.347 . S
C605 H633 0.931 . S
C606 C605 1.347 . S
C606 C607 1.369 . S
C607 C606 1.369 . S
C607 C608 1.408 . S
C607 H634 0.930 . S
C608 C603 1.348 . S
C608 C607 1.408 . S
C608 H635 0.930 . S
C609 O622 1.281 . S
C609 O623 1.254 . S
C610 O624 1.236 . S
C610 O625 1.266 . S
C611 Tb601 2.809 . S
C611 C612 1.514 . S
C611 O626 1.248 . S
C611 O627 1.266 . S
C612 C611 1.514 . S
C612 C613 1.359 . S
C612 C617 1.348 . S
C613 C612 1.359 . S
C613 C614 1.380 . S
C613 H636 0.929 . S
C614 C613 1.380 . S
C614 C615 1.347 . S
C614 H637 0.931 . S
C615 C614 1.347 . S
C615 C616 1.369 . S
C616 C615 1.369 . S
C616 C617 1.408 . S
C616 H638 0.930 . S
C617 C612 1.348 . S
C617 C616 1.408 . S
C617 H639 0.930 . S
C618 O628 1.281 . S
C618 O629 1.254 . S
C619 O630 1.236 . S
C619 O631 1.266 . S
O620 Tb600 2.484 . S
O620 C602 1.248 . S
O621 Tb600 2.440 . S
O621 C602 1.266 . S
O622 Tb600 2.658 . S
O622 Tb601 2.325 . S
O622 C609 1.281 . S
O623 Tb600 2.409 . S
O623 C609 1.254 . S
O624 Tb600 2.378 . S
O624 C610 1.236 . S
O625 Tb601 2.341 . S
O625 C610 1.266 . S
O626 Tb601 2.484 . S
O626 C611 1.248 . S
O627 Tb601 2.440 . S
O627 C611 1.266 . S
O628 Tb600 2.325 . S
O628 Tb601 2.658 . S
O628 C618 1.281 . S
O629 Tb601 2.409 . S
O629 C618 1.254 . S
O630 Tb601 2.378 . S
O630 C619 1.236 . S
O631 Tb600 2.341 . S
O631 C619 1.266 . S
H632 C604 0.929 . S
H633 C605 0.931 . S
H634 C607 0.930 . S
H635 C608 0.930 . S
H636 C613 0.929 . S
H637 C614 0.931 . S
H638 C616 0.930 . S
H639 C617 0.930 . S
C640 C641 1.387 . S
C640 H644 0.950 . S
C640 C649 1.390 . S
C641 C640 1.387 . S
C641 C643 1.387 . S
H642 C649 0.950 . S
C643 C641 1.387 . S
C643 C645 1.390 . S
C643 H647 0.950 . S
H644 C640 0.950 . S
C645 C643 1.390 . S
C645 C646 1.387 . S
C645 H648 0.950 . S
C646 C645 1.387 . S
C646 C649 1.387 . S
H647 C643 0.950 . S
H648 C645 0.950 . S
C649 C640 1.390 . S
C649 H642 0.950 . S
C649 C646 1.387 . S
C650 C651 1.387 . S
C650 H654 0.950 . S
C650 C659 1.390 . S
C651 C650 1.387 . S
C651 C653 1.387 . S
H652 C659 0.950 . S
C653 C651 1.387 . S
C653 C655 1.390 . S
C653 H657 0.950 . S
H654 C650 0.950 . S
C655 C653 1.390 . S
C655 C656 1.387 . S
C655 H658 0.950 . S
C656 C655 1.387 . S
C656 C659 1.387 . S
H657 C653 0.950 . S
H658 C655 0.950 . S
C659 C650 1.390 . S
C659 H652 0.950 . S
C659 C656 1.387 . S
C660 C661 1.387 . S
C660 H664 0.950 . S
C660 C669 1.390 . S
C661 C660 1.387 . S
C661 C663 1.387 . S
H662 C669 0.950 . S
C663 C661 1.387 . S
C663 C665 1.390 . S
C663 H667 0.950 . S
H664 C660 0.950 . S
C665 C663 1.390 . S
C665 C666 1.387 . S
C665 H668 0.950 . S
C666 C665 1.387 . S
C666 C669 1.387 . S
H667 C663 0.950 . S
H668 C665 0.950 . S
C669 C660 1.390 . S
C669 H662 0.950 . S
C669 C666 1.387 . S
C670 C671 1.387 . S
C670 H674 0.950 . S
C670 C679 1.390 . S
C671 C670 1.387 . S
C671 C673 1.387 . S
H672 C679 0.950 . S
C673 C671 1.387 . S
C673 C675 1.390 . S
C673 H677 0.950 . S
H674 C670 0.950 . S
C675 C673 1.390 . S
C675 C676 1.387 . S
C675 H678 0.950 . S
C676 C675 1.387 . S
C676 C679 1.387 . S
H677 C673 0.950 . S
H678 C675 0.950 . S
C679 C670 1.390 . S
C679 H672 0.950 . S
C679 C676 1.387 . S
C680 C681 1.387 . S
C680 H684 0.950 . S
C680 C689 1.390 . S
C681 C680 1.387 . S
C681 C683 1.387 . S
H682 C689 0.950 . S
C683 C681 1.387 . S
C683 C685 1.390 . S
C683 H687 0.950 . S
H684 C680 0.950 . S
C685 C683 1.390 . S
C685 C686 1.387 . S
C685 H688 0.950 . S
C686 C685 1.387 . S
C686 C689 1.387 . S
H687 C683 0.950 . S
H688 C685 0.950 . S
C689 C680 1.390 . S
C689 H682 0.950 . S
C689 C686 1.387 . S
C690 C691 1.387 . S
C690 H694 0.950 . S
C690 C699 1.390 . S
C691 C690 1.387 . S
C691 C693 1.387 . S
H692 C699 0.950 . S
C693 C691 1.387 . S
C693 C695 1.390 . S
C693 H697 0.950 . S
H694 C690 0.950 . S
C695 C693 1.390 . S
C695 C696 1.387 . S
C695 H698 0.950 . S
C696 C695 1.387 . S
C696 C699 1.387 . S
H697 C693 0.950 . S
H698 C695 0.950 . S
C699 C690 1.390 . S
C699 H692 0.950 . S
C699 C696 1.387 . S
C700 C701 1.387 . S
C700 H704 0.950 . S
C700 C709 1.390 . S
C701 C700 1.387 . S
C701 C703 1.387 . S
H702 C709 0.950 . S
C703 C701 1.387 . S
C703 C705 1.390 . S
C703 H707 0.950 . S
H704 C700 0.950 . S
C705 C703 1.390 . S
C705 C706 1.387 . S
C705 H708 0.950 . S
C706 C705 1.387 . S
C706 C709 1.387 . S
H707 C703 0.950 . S
H708 C705 0.950 . S
C709 C700 1.390 . S
C709 H702 0.950 . S
C709 C706 1.387 . S
C710 C711 1.387 . S
C710 H714 0.950 . S
C710 C719 1.390 . S
C711 C710 1.387 . S
C711 C713 1.387 . S
H712 C719 0.950 . S
C713 C711 1.387 . S
C713 C715 1.390 . S
C713 H717 0.950 . S
H714 C710 0.950 . S
C715 C713 1.390 . S
C715 C716 1.387 . S
C715 H718 0.950 . S
C716 C715 1.387 . S
C716 C719 1.387 . S
H717 C713 0.950 . S
H718 C715 0.950 . S
C719 C710 1.390 . S
C719 H712 0.950 . S
C719 C716 1.387 . S
C720 C721 1.387 . S
C720 H724 0.950 . S
C720 C729 1.390 1_565 S
C721 C720 1.387 . S
C721 C723 1.387 . S
H722 C729 0.950 . S
C723 C721 1.387 . S
C723 C725 1.390 1_565 S
C723 H727 0.950 . S
H724 C720 0.950 . S
C725 C723 1.390 1_545 S
C725 C726 1.387 . S
C725 H728 0.950 . S
C726 C725 1.387 . S
C726 C729 1.387 . S
H727 C723 0.950 . S
H728 C725 0.950 . S
C729 C720 1.390 1_545 S
C729 H722 0.950 . S
C729 C726 1.387 . S
C730 C731 1.387 . S
C730 H734 0.950 . S
C730 C739 1.390 1_545 S
C731 C730 1.387 . S
C731 C733 1.387 . S
H732 C739 0.950 . S
C733 C731 1.387 . S
C733 C735 1.390 1_545 S
C733 H737 0.950 . S
H734 C730 0.950 . S
C735 C733 1.390 1_565 S
C735 C736 1.387 . S
C735 H738 0.950 . S
C736 C735 1.387 . S
C736 C739 1.387 . S
H737 C733 0.950 . S
H738 C735 0.950 . S
C739 C730 1.390 1_565 S
C739 H732 0.950 . S
C739 C736 1.387 . S
C740 C741 1.387 . S
C740 H744 0.950 . S
C740 C749 1.390 1_545 S
C741 C740 1.387 . S
C741 C743 1.387 . S
H742 C749 0.950 . S
C743 C741 1.387 . S
C743 C745 1.390 1_545 S
C743 H747 0.950 . S
H744 C740 0.950 . S
C745 C743 1.390 1_565 S
C745 C746 1.387 . S
C745 H748 0.950 . S
C746 C745 1.387 . S
C746 C749 1.387 . S
H747 C743 0.950 . S
H748 C745 0.950 . S
C749 C740 1.390 1_565 S
C749 H742 0.950 . S
C749 C746 1.387 . S
C750 C751 1.387 . S
C750 H754 0.950 . S
C750 C759 1.390 1_545 S
C751 C750 1.387 . S
C751 C753 1.387 . S
H752 C759 0.950 . S
C753 C751 1.387 . S
C753 C755 1.390 1_545 S
C753 H757 0.950 . S
H754 C750 0.950 . S
C755 C753 1.390 1_565 S
C755 C756 1.387 . S
C755 H758 0.950 . S
C756 C755 1.387 . S
C756 C759 1.387 . S
H757 C753 0.950 . S
H758 C755 0.950 . S
C759 C750 1.390 1_565 S
C759 H752 0.950 . S
C759 C756 1.387 . S
C760 C761 1.387 . S
C760 H764 0.950 . S
C760 C769 1.390 . S
C761 C760 1.387 . S
C761 C763 1.387 . S
H762 C769 0.950 . S
C763 C761 1.387 . S
C763 C765 1.390 . S
C763 H767 0.950 . S
H764 C760 0.950 . S
C765 C763 1.390 . S
C765 C766 1.387 . S
C765 H768 0.950 . S
C766 C765 1.387 . S
C766 C769 1.387 . S
H767 C763 0.950 . S
H768 C765 0.950 . S
C769 C760 1.390 . S
C769 H762 0.950 . S
C769 C766 1.387 . S
C770 C771 1.387 . S
C770 H774 0.950 . S
C770 C779 1.390 . S
C771 C770 1.387 . S
C771 C773 1.387 . S
H772 C779 0.950 . S
C773 C771 1.387 . S
C773 C775 1.390 . S
C773 H777 0.950 . S
H774 C770 0.950 . S
C775 C773 1.390 . S
C775 C776 1.387 . S
C775 H778 0.950 . S
C776 C775 1.387 . S
C776 C779 1.387 . S
H777 C773 0.950 . S
H778 C775 0.950 . S
C779 C770 1.390 . S
C779 H772 0.950 . S
C779 C776 1.387 . S
C780 C781 1.387 . S
C780 H784 0.950 . S
C780 C789 1.390 . S
C781 C780 1.387 . S
C781 C783 1.387 . S
H782 C789 0.950 . S
C783 C781 1.387 . S
C783 C785 1.390 . S
C783 H787 0.950 . S
H784 C780 0.950 . S
C785 C783 1.390 . S
C785 C786 1.387 . S
C785 H788 0.950 . S
C786 C785 1.387 . S
C786 C789 1.387 . S
H787 C783 0.950 . S
H788 C785 0.950 . S
C789 C780 1.390 . S
C789 H782 0.950 . S
C789 C786 1.387 . S
C790 C791 1.387 . S
C790 H794 0.950 . S
C790 C799 1.390 . S
C791 C790 1.387 . S
C791 C793 1.387 . S
H792 C799 0.950 . S
C793 C791 1.387 . S
C793 C795 1.390 . S
C793 H797 0.950 . S
H794 C790 0.950 . S
C795 C793 1.390 . S
C795 C796 1.387 . S
C795 H798 0.950 . S
C796 C795 1.387 . S
C796 C799 1.387 . S
H797 C793 0.950 . S
H798 C795 0.950 . S
C799 C790 1.390 . S
C799 H792 0.950 . S
C799 C796 1.387 . S
C800 C801 1.387 . S
C800 H804 0.950 . S
C800 C809 1.390 1_556 S
C801 C800 1.387 . S
C801 C803 1.387 . S
H802 C809 0.950 . S
C803 C801 1.387 . S
C803 C805 1.390 1_556 S
C803 H807 0.950 . S
H804 C800 0.950 . S
C805 C803 1.390 1_554 S
C805 C806 1.387 . S
C805 H808 0.950 . S
C806 C805 1.387 . S
C806 C809 1.387 . S
H807 C803 0.950 . S
H808 C805 0.950 . S
C809 C800 1.390 1_554 S
C809 H802 0.950 . S
C809 C806 1.387 . S
C810 C811 1.387 . S
C810 H814 0.950 . S
C810 C819 1.390 1_556 S
C811 C810 1.387 . S
C811 C813 1.387 . S
H812 C819 0.950 . S
C813 C811 1.387 . S
C813 C815 1.390 1_556 S
C813 H817 0.950 . S
H814 C810 0.950 . S
C815 C813 1.390 1_554 S
C815 C816 1.387 . S
C815 H818 0.950 . S
C816 C815 1.387 . S
C816 C819 1.387 . S
H817 C813 0.950 . S
H818 C815 0.950 . S
C819 C810 1.390 1_554 S
C819 H812 0.950 . S
C819 C816 1.387 . S
C820 C821 1.387 . S
C820 H824 0.950 . S
C820 C829 1.390 . S
C821 C820 1.387 . S
C821 C823 1.387 . S
H822 C829 0.950 . S
C823 C821 1.387 . S
C823 C825 1.390 . S
C823 H827 0.950 . S
H824 C820 0.950 . S
C825 C823 1.390 . S
C825 C826 1.387 . S
C825 H828 0.950 . S
C826 C825 1.387 . S
C826 C829 1.387 . S
H827 C823 0.950 . S
H828 C825 0.950 . S
C829 C820 1.390 . S
C829 H822 0.950 . S
C829 C826 1.387 . S
C830 C831 1.387 . S
C830 H834 0.950 . S
C830 C839 1.390 . S
C831 C830 1.387 . S
C831 C833 1.387 . S
H832 C839 0.950 . S
C833 C831 1.387 . S
C833 C835 1.390 . S
C833 H837 0.950 . S
H834 C830 0.950 . S
C835 C833 1.390 . S
C835 C836 1.387 . S
C835 H838 0.950 . S
C836 C835 1.387 . S
C836 C839 1.387 . S
H837 C833 0.950 . S
H838 C835 0.950 . S
C839 C830 1.390 . S
C839 H832 0.950 . S
C839 C836 1.387 . S
C840 C841 1.387 . S
C840 H844 0.950 . S
C840 C849 1.390 1_554 S
C841 C840 1.387 . S
C841 C843 1.387 . S
H842 C849 0.950 . S
C843 C841 1.387 . S
C843 C845 1.390 1_554 S
C843 H847 0.950 . S
H844 C840 0.950 . S
C845 C843 1.390 1_556 S
C845 C846 1.387 . S
C845 H848 0.950 . S
C846 C845 1.387 . S
C846 C849 1.387 . S
H847 C843 0.950 . S
H848 C845 0.950 . S
C849 C840 1.390 1_556 S
C849 H842 0.950 . S
C849 C846 1.387 . S
C850 C851 1.387 . S
C850 H854 0.950 . S
C850 C859 1.390 1_556 S
C851 C850 1.387 . S
C851 C853 1.387 . S
H852 C859 0.950 . S
C853 C851 1.387 . S
C853 C855 1.390 1_556 S
C853 H857 0.950 . S
H854 C850 0.950 . S
C855 C853 1.390 1_554 S
C855 C856 1.387 . S
C855 H858 0.950 . S
C856 C855 1.387 . S
C856 C859 1.387 . S
H857 C853 0.950 . S
H858 C855 0.950 . S
C859 C850 1.390 1_554 S
C859 H852 0.950 . S
C859 C856 1.387 . S
C860 C861 1.387 . S
C860 H864 0.950 . S
C860 C869 1.390 . S
C861 C860 1.387 . S
C861 C863 1.387 . S
H862 C869 0.950 . S
C863 C861 1.387 . S
C863 C865 1.390 . S
C863 H867 0.950 . S
H864 C860 0.950 . S
C865 C863 1.390 . S
C865 C866 1.387 . S
C865 H868 0.950 . S
C866 C865 1.387 . S
C866 C869 1.387 . S
H867 C863 0.950 . S
H868 C865 0.950 . S
C869 C860 1.390 . S
C869 H862 0.950 . S
C869 C866 1.387 . S
C870 C871 1.387 . S
C870 H874 0.950 . S
C870 C879 1.390 . S
C871 C870 1.387 . S
C871 C873 1.387 . S
H872 C879 0.950 . S
C873 C871 1.387 . S
C873 C875 1.390 . S
C873 H877 0.950 . S
H874 C870 0.950 . S
C875 C873 1.390 . S
C875 C876 1.387 . S
C875 H878 0.950 . S
C876 C875 1.387 . S
C876 C879 1.387 . S
H877 C873 0.950 . S
H878 C875 0.950 . S
C879 C870 1.390 . S
C879 H872 0.950 . S
C879 C876 1.387 . S
C880 C881 1.387 . S
C880 H884 0.950 . S
C880 C889 1.390 1_665 S
C881 C880 1.387 . S
C881 C883 1.387 . S
H882 C889 0.950 . S
C883 C881 1.387 . S
C883 C885 1.390 1_665 S
C883 H887 0.950 . S
H884 C880 0.950 . S
C885 C883 1.390 1_445 S
C885 C886 1.387 . S
C885 H888 0.950 . S
C886 C885 1.387 . S
C886 C889 1.387 . S
H887 C883 0.950 . S
H888 C885 0.950 . S
C889 C880 1.390 1_445 S
C889 H882 0.950 . S
C889 C886 1.387 . S
C890 C891 1.387 . S
C890 H894 0.950 . S
C890 C899 1.390 1_645 S
C891 C890 1.387 . S
C891 C893 1.387 . S
H892 C899 0.950 . S
C893 C891 1.387 . S
C893 C895 1.390 1_645 S
C893 H897 0.950 . S
H894 C890 0.950 . S
C895 C893 1.390 1_465 S
C895 C896 1.387 . S
C895 H898 0.950 . S
C896 C895 1.387 . S
C896 C899 1.387 . S
H897 C893 0.950 . S
H898 C895 0.950 . S
C899 C890 1.390 1_465 S
C899 H892 0.950 . S
C899 C896 1.387 . S
C900 C901 1.387 . S
C900 H904 0.950 . S
C900 C909 1.390 1_445 S
C901 C900 1.387 . S
C901 C903 1.387 . S
H902 C909 0.950 . S
C903 C901 1.387 . S
C903 C905 1.390 1_445 S
C903 H907 0.950 . S
H904 C900 0.950 . S
C905 C903 1.390 1_665 S
C905 C906 1.387 . S
C905 H908 0.950 . S
C906 C905 1.387 . S
C906 C909 1.387 . S
H907 C903 0.950 . S
H908 C905 0.950 . S
C909 C900 1.390 1_665 S
C909 H902 0.950 . S
C909 C906 1.387 . S
C910 C911 1.387 . S
C910 H914 0.950 . S
C910 C919 1.390 1_645 S
C911 C910 1.387 . S
C911 C913 1.387 . S
H912 C919 0.950 . S
C913 C911 1.387 . S
C913 C915 1.390 1_645 S
C913 H917 0.950 . S
H914 C910 0.950 . S
C915 C913 1.390 1_465 S
C915 C916 1.387 . S
C915 H918 0.950 . S
C916 C915 1.387 . S
C916 C919 1.387 . S
H917 C913 0.950 . S
H918 C915 0.950 . S
C919 C910 1.390 1_465 S
C919 H912 0.950 . S
C919 C916 1.387 . S
C920 C921 1.387 . S
C920 H924 0.950 . S
C920 C929 1.390 . S
C921 C920 1.387 . S
C921 C923 1.387 . S
H922 C929 0.950 . S
C923 C921 1.387 . S
C923 C925 1.390 . S
C923 H927 0.950 . S
H924 C920 0.950 . S
C925 C923 1.390 . S
C925 C926 1.387 . S
C925 H928 0.950 . S
C926 C925 1.387 . S
C926 C929 1.387 . S
H927 C923 0.950 . S
H928 C925 0.950 . S
C929 C920 1.390 . S
C929 H922 0.950 . S
C929 C926 1.387 . S
C930 C931 1.387 . S
C930 H934 0.950 . S
C930 C939 1.390 . S
C931 C930 1.387 . S
C931 C933 1.387 . S
H932 C939 0.950 . S
C933 C931 1.387 . S
C933 C935 1.390 . S
C933 H937 0.950 . S
H934 C930 0.950 . S
C935 C933 1.390 . S
C935 C936 1.387 . S
C935 H938 0.950 . S
C936 C935 1.387 . S
C936 C939 1.387 . S
H937 C933 0.950 . S
H938 C935 0.950 . S
C939 C930 1.390 . S
C939 H932 0.950 . S
C939 C936 1.387 . S
C940 C941 1.387 . S
C940 H944 0.950 . S
C940 C949 1.390 . S
C941 C940 1.387 . S
C941 C943 1.387 . S
H942 C949 0.950 . S
C943 C941 1.387 . S
C943 C945 1.390 . S
C943 H947 0.950 . S
H944 C940 0.950 . S
C945 C943 1.390 . S
C945 C946 1.387 . S
C945 H948 0.950 . S
C946 C945 1.387 . S
C946 C949 1.387 . S
H947 C943 0.950 . S
H948 C945 0.950 . S
C949 C940 1.390 . S
C949 H942 0.950 . S
C949 C946 1.387 . S
C950 C951 1.387 . S
C950 H954 0.950 . S
C950 C959 1.390 . S
C951 C950 1.387 . S
C951 C953 1.387 . S
H952 C959 0.950 . S
C953 C951 1.387 . S
C953 C955 1.390 . S
C953 H957 0.950 . S
H954 C950 0.950 . S
C955 C953 1.390 . S
C955 C956 1.387 . S
C955 H958 0.950 . S
C956 C955 1.387 . S
C956 C959 1.387 . S
H957 C953 0.950 . S
H958 C955 0.950 . S
C959 C950 1.390 . S
C959 H952 0.950 . S
C959 C956 1.387 . S
C960 C961 1.387 . S
C960 H964 0.950 . S
C960 C969 1.390 . S
C961 C960 1.387 . S
C961 C963 1.387 . S
H962 C969 0.950 . S
C963 C961 1.387 . S
C963 C965 1.390 . S
C963 H967 0.950 . S
H964 C960 0.950 . S
C965 C963 1.390 . S
C965 C966 1.387 . S
C965 H968 0.950 . S
C966 C965 1.387 . S
C966 C969 1.387 . S
H967 C963 0.950 . S
H968 C965 0.950 . S
C969 C960 1.390 . S
C969 H962 0.950 . S
C969 C966 1.387 . S
C970 C971 1.387 . S
C970 H974 0.950 . S
C970 C979 1.390 . S
C971 C970 1.387 . S
C971 C973 1.387 . S
H972 C979 0.950 . S
C973 C971 1.387 . S
C973 C975 1.390 . S
C973 H977 0.950 . S
H974 C970 0.950 . S
C975 C973 1.390 . S
C975 C976 1.387 . S
C975 H978 0.950 . S
C976 C975 1.387 . S
C976 C979 1.387 . S
H977 C973 0.950 . S
H978 C975 0.950 . S
C979 C970 1.390 . S
C979 H972 0.950 . S
C979 C976 1.387 . S
C980 C981 1.387 . S
C980 H984 0.950 . S
C980 C989 1.390 . S
C981 C980 1.387 . S
C981 C983 1.387 . S
H982 C989 0.950 . S
C983 C981 1.387 . S
C983 C985 1.390 . S
C983 H987 0.950 . S
H984 C980 0.950 . S
C985 C983 1.390 . S
C985 C986 1.387 . S
C985 H988 0.950 . S
C986 C985 1.387 . S
C986 C989 1.387 . S
H987 C983 0.950 . S
H988 C985 0.950 . S
C989 C980 1.390 . S
C989 H982 0.950 . S
C989 C986 1.387 . S
C990 C991 1.387 . S
C990 H994 0.950 . S
C990 C999 1.390 . S
C991 C990 1.387 . S
C991 C993 1.387 . S
H992 C999 0.950 . S
C993 C991 1.387 . S
C993 C995 1.390 . S
C993 H997 0.950 . S
H994 C990 0.950 . S
C995 C993 1.390 . S
C995 C996 1.387 . S
C995 H998 0.950 . S
C996 C995 1.387 . S
C996 C999 1.387 . S
H997 C993 0.950 . S
H998 C995 0.950 . S
C999 C990 1.390 . S
C999 H992 0.950 . S
C999 C996 1.387 . S
C1000 C1001 1.387 . S
C1000 H1004 0.950 . S
C1000 C1009 1.390 . S
C1001 C1000 1.387 . S
C1001 C1003 1.387 . S
H1002 C1009 0.950 . S
C1003 C1001 1.387 . S
C1003 C1005 1.390 . S
C1003 H1007 0.950 . S
H1004 C1000 0.950 . S
C1005 C1003 1.390 . S
C1005 C1006 1.387 . S
C1005 H1008 0.950 . S
C1006 C1005 1.387 . S
C1006 C1009 1.387 . S
H1007 C1003 0.950 . S
H1008 C1005 0.950 . S
C1009 C1000 1.390 . S
C1009 H1002 0.950 . S
C1009 C1006 1.387 . S
C1010 C1011 1.387 . S
C1010 H1014 0.950 . S
C1010 C1019 1.390 . S
C1011 C1010 1.387 . S
C1011 C1013 1.387 . S
H1012 C1019 0.950 . S
C1013 C1011 1.387 . S
C1013 C1015 1.390 . S
C1013 H1017 0.950 . S
H1014 C1010 0.950 . S
C1015 C1013 1.390 . S
C1015 C1016 1.387 . S
C1015 H1018 0.950 . S
C1016 C1015 1.387 . S
C1016 C1019 1.387 . S
H1017 C1013 0.950 . S
H1018 C1015 0.950 . S
C1019 C1010 1.390 . S
C1019 H1012 0.950 . S
C1019 C1016 1.387 . S
C1020 C1021 1.387 . S
C1020 H1024 0.950 . S
C1020 C1029 1.390 . S
C1021 C1020 1.387 . S
C1021 C1023 1.387 . S
H1022 C1029 0.950 . S
C1023 C1021 1.387 . S
C1023 C1025 1.390 . S
C1023 H1027 0.950 . S
H1024 C1020 0.950 . S
C1025 C1023 1.390 . S
C1025 C1026 1.387 . S
C1025 H1028 0.950 . S
C1026 C1025 1.387 . S
C1026 C1029 1.387 . S
H1027 C1023 0.950 . S
H1028 C1025 0.950 . S
C1029 C1020 1.390 . S
C1029 H1022 0.950 . S
C1029 C1026 1.387 . S
C1030 C1031 1.387 . S
C1030 H1034 0.950 . S
C1030 C1039 1.390 . S
C1031 C1030 1.387 . S
C1031 C1033 1.387 . S
H1032 C1039 0.950 . S
C1033 C1031 1.387 . S
C1033 C1035 1.390 . S
C1033 H1037 0.950 . S
H1034 C1030 0.950 . S
C1035 C1033 1.390 . S
C1035 C1036 1.387 . S
C1035 H1038 0.950 . S
C1036 C1035 1.387 . S
C1036 C1039 1.387 . S
H1037 C1033 0.950 . S
H1038 C1035 0.950 . S
C1039 C1030 1.390 . S
C1039 H1032 0.950 . S
C1039 C1036 1.387 . S
C1040 C1041 1.387 . S
C1040 H1044 0.950 . S
C1040 C1049 1.390 . S
C1041 C1040 1.387 . S
C1041 C1043 1.387 . S
H1042 C1049 0.950 . S
C1043 C1041 1.387 . S
C1043 C1045 1.390 . S
C1043 H1047 0.950 . S
H1044 C1040 0.950 . S
C1045 C1043 1.390 . S
C1045 C1046 1.387 . S
C1045 H1048 0.950 . S
C1046 C1045 1.387 . S
C1046 C1049 1.387 . S
H1047 C1043 0.950 . S
H1048 C1045 0.950 . S
C1049 C1040 1.390 . S
C1049 H1042 0.950 . S
C1049 C1046 1.387 . S
C1050 C1051 1.387 . S
C1050 H1054 0.950 . S
C1050 C1059 1.390 . S
C1051 C1050 1.387 . S
C1051 C1053 1.387 . S
H1052 C1059 0.950 . S
C1053 C1051 1.387 . S
C1053 C1055 1.390 . S
C1053 H1057 0.950 . S
H1054 C1050 0.950 . S
C1055 C1053 1.390 . S
C1055 C1056 1.387 . S
C1055 H1058 0.950 . S
C1056 C1055 1.387 . S
C1056 C1059 1.387 . S
H1057 C1053 0.950 . S
H1058 C1055 0.950 . S
C1059 C1050 1.390 . S
C1059 H1052 0.950 . S
C1059 C1056 1.387 . S
C1060 C1061 1.387 . S
C1060 H1064 0.950 . S
C1060 C1069 1.390 . S
C1061 C1060 1.387 . S
C1061 C1063 1.387 . S
H1062 C1069 0.950 . S
C1063 C1061 1.387 . S
C1063 C1065 1.390 . S
C1063 H1067 0.950 . S
H1064 C1060 0.950 . S
C1065 C1063 1.390 . S
C1065 C1066 1.387 . S
C1065 H1068 0.950 . S
C1066 C1065 1.387 . S
C1066 C1069 1.387 . S
H1067 C1063 0.950 . S
H1068 C1065 0.950 . S
C1069 C1060 1.390 . S
C1069 H1062 0.950 . S
C1069 C1066 1.387 . S
C1070 C1071 1.387 . S
C1070 H1074 0.950 . S
C1070 C1079 1.390 . S
C1071 C1070 1.387 . S
C1071 C1073 1.387 . S
H1072 C1079 0.950 . S
C1073 C1071 1.387 . S
C1073 C1075 1.390 . S
C1073 H1077 0.950 . S
H1074 C1070 0.950 . S
C1075 C1073 1.390 . S
C1075 C1076 1.387 . S
C1075 H1078 0.950 . S
C1076 C1075 1.387 . S
C1076 C1079 1.387 . S
H1077 C1073 0.950 . S
H1078 C1075 0.950 . S
C1079 C1070 1.390 . S
C1079 H1072 0.950 . S
C1079 C1076 1.387 . S
C1080 C1081 1.387 . S
C1080 H1084 0.950 . S
C1080 C1089 1.390 . S
C1081 C1080 1.387 . S
C1081 C1083 1.387 . S
H1082 C1089 0.950 . S
C1083 C1081 1.387 . S
C1083 C1085 1.390 . S
C1083 H1087 0.950 . S
H1084 C1080 0.950 . S
C1085 C1083 1.390 . S
C1085 C1086 1.387 . S
C1085 H1088 0.950 . S
C1086 C1085 1.387 . S
C1086 C1089 1.387 . S
H1087 C1083 0.950 . S
H1088 C1085 0.950 . S
C1089 C1080 1.390 . S
C1089 H1082 0.950 . S
C1089 C1086 1.387 . S
C1090 C1091 1.387 . S
C1090 H1094 0.950 . S
C1090 C1099 1.390 . S
C1091 C1090 1.387 . S
C1091 C1093 1.387 . S
H1092 C1099 0.950 . S
C1093 C1091 1.387 . S
C1093 C1095 1.390 . S
C1093 H1097 0.950 . S
H1094 C1090 0.950 . S
C1095 C1093 1.390 . S
C1095 C1096 1.387 . S
C1095 H1098 0.950 . S
C1096 C1095 1.387 . S
C1096 C1099 1.387 . S
H1097 C1093 0.950 . S
H1098 C1095 0.950 . S
C1099 C1090 1.390 . S
C1099 H1092 0.950 . S
C1099 C1096 1.387 . S
C1100 C1101 1.387 . S
C1100 H1104 0.950 . S
C1100 C1109 1.390 . S
C1101 C1100 1.387 . S
C1101 C1103 1.387 . S
H1102 C1109 0.950 . S
C1103 C1101 1.387 . S
C1103 C1105 1.390 . S
C1103 H1107 0.950 . S
H1104 C1100 0.950 . S
C1105 C1103 1.390 . S
C1105 C1106 1.387 . S
C1105 H1108 0.950 . S
C1106 C1105 1.387 . S
C1106 C1109 1.387 . S
H1107 C1103 0.950 . S
H1108 C1105 0.950 . S
C1109 C1100 1.390 . S
C1109 H1102 0.950 . S
C1109 C1106 1.387 . S
C1110 C1111 1.387 . S
C1110 H1114 0.950 . S
C1110 C1119 1.390 . S
C1111 C1110 1.387 . S
C1111 C1113 1.387 . S
H1112 C1119 0.950 . S
C1113 C1111 1.387 . S
C1113 C1115 1.390 . S
C1113 H1117 0.950 . S
H1114 C1110 0.950 . S
C1115 C1113 1.390 . S
C1115 C1116 1.387 . S
C1115 H1118 0.950 . S
C1116 C1115 1.387 . S
C1116 C1119 1.387 . S
H1117 C1113 0.950 . S
H1118 C1115 0.950 . S
C1119 C1110 1.390 . S
C1119 H1112 0.950 . S
C1119 C1116 1.387 . S
C641 C19 1.612 . S
C646 C379 1.612 . S
C651 C59 1.613 . S
C656 C339 1.613 . S
C661 C459 1.612 . S
C666 C99 1.612 . S
C671 C139 1.613 . S
C676 C419 1.613 . S
C681 C530 1.613 . S
C686 C170 1.613 . S
C691 C490 1.613 . S
C696 C210 1.613 . S
C701 C610 1.612 . S
C706 C250 1.612 . S
C711 C290 1.613 . S
C716 C570 1.613 . S
C721 C98 1.775 . S
C726 C18 1.775 . S
C731 C138 1.775 . S
C736 C58 1.775 . S
C741 C249 1.774 . S
C746 C169 1.774 . S
C751 C209 1.774 . S
C756 C289 1.774 . S
C761 C418 1.774 . S
C766 C338 1.774 . S
C771 C458 1.774 . S
C776 C378 1.774 . S
C781 C489 1.774 . S
C786 C569 1.774 . S
C791 C529 1.774 . S
C796 C609 1.774 . S
C801 C218 1.515 . S
C806 C9 1.515 . S
C811 C178 1.513 . S
C816 C49 1.516 . S
C821 C89 1.515 . S
C826 C298 1.515 . S
C831 C258 1.517 . S
C836 C129 1.513 . S
C841 C329 1.513 . S
C846 C538 1.517 . S
C851 C498 1.515 . S
C856 C369 1.514 . S
C861 C409 1.514 . S
C866 C618 1.515 . S
C871 C578 1.517 . S
C876 C449 1.513 . S
C881 C50 1.646 . S
C886 C10 1.646 . S
C891 C130 1.646 . S
C896 C90 1.646 . S
C901 C219 1.646 . S
C906 C179 1.646 . S
C911 C259 1.643 . S
C916 C299 1.643 . S
C921 C370 1.646 . S
C926 C330 1.646 . S
C931 C450 1.646 . S
C936 C410 1.646 . S
C941 C499 1.646 . S
C946 C539 1.646 . S
C951 C579 1.646 . S
C956 C619 1.646 . S
C961 C6 1.514 . S
C966 C15 1.514 . S
C971 C46 1.513 . S
C976 C55 1.513 . S
C981 C86 1.513 . S
C986 C95 1.513 . S
C991 C135 1.513 . S
C996 C126 1.513 . S
C1001 C175 1.513 . S
C1006 C166 1.513 . S
C1011 C206 1.513 . S
C1016 C215 1.513 . S
C1021 C255 1.513 . S
C1026 C246 1.513 . S
C1031 C295 1.515 . S
C1036 C286 1.515 . S
C1041 C335 1.515 1_545 S
C1046 C326 1.515 . S
C1051 C366 1.513 . S
C1056 C375 1.513 1_565 S
C1061 C415 1.513 1_565 S
C1066 C406 1.513 . S
C1071 C455 1.513 1_545 S
C1076 C446 1.513 . S
C1081 C495 1.513 . S
C1086 C486 1.513 1_565 S
C1091 C535 1.515 . S
C1096 C526 1.515 1_545 S
C1101 C566 1.513 1_545 S
C1106 C575 1.513 . S
C1111 C615 1.515 . S
C1116 C606 1.515 1_565 S
