# Generated by pormake.
# Topology fna, (5)-cn, num edge types: 1
# Building blocks:
#     Node 0, Type 0, BuildingBlock: XOMCOT_clean_sbu_1, # of connection points: 5
#     Node 1, Type 0, BuildingBlock: XOMCOT_clean_sbu_1, # of connection points: 5
#     Node 2, Type 0, BuildingBlock: XOMCOT_clean_sbu_1, # of connection points: 5
#     Node 3, Type 0, BuildingBlock: XOMCOT_clean_sbu_1, # of connection points: 5
#     Node 4, Type 0, BuildingBlock: XOMCOT_clean_sbu_1, # of connection points: 5
#     Node 5, Type 0, BuildingBlock: XOMCOT_clean_sbu_1, # of connection points: 5
#     Node 6, Type 0, BuildingBlock: XOMCOT_clean_sbu_1, # of connection points: 5
#     Node 7, Type 0, BuildingBlock: XOMCOT_clean_sbu_1, # of connection points: 5
#     Node 8, Type 0, BuildingBlock: XOMCOT_clean_sbu_1, # of connection points: 5
#     Node 9, Type 0, BuildingBlock: XOMCOT_clean_sbu_1, # of connection points: 5
#     Node 10, Type 0, BuildingBlock: XOMCOT_clean_sbu_1, # of connection points: 5
#     Node 11, Type 0, BuildingBlock: XOMCOT_clean_sbu_1, # of connection points: 5
#     Edge 12, Type (0, 0), BuildingBlock: KIFKEQ_clean_linker_1, # of connection points: 2
#     Edge 13, Type (0, 0), BuildingBlock: KIFKEQ_clean_linker_1, # of connection points: 2
#     Edge 14, Type (0, 0), BuildingBlock: KIFKEQ_clean_linker_1, # of connection points: 2
#     Edge 15, Type (0, 0), BuildingBlock: KIFKEQ_clean_linker_1, # of connection points: 2
#     Edge 16, Type (0, 0), BuildingBlock: KIFKEQ_clean_linker_1, # of connection points: 2
#     Edge 17, Type (0, 0), BuildingBlock: KIFKEQ_clean_linker_1, # of connection points: 2
#     Edge 18, Type (0, 0), BuildingBlock: KIFKEQ_clean_linker_1, # of connection points: 2
#     Edge 19, Type (0, 0), BuildingBlock: KIFKEQ_clean_linker_1, # of connection points: 2
#     Edge 20, Type (0, 0), BuildingBlock: KIFKEQ_clean_linker_1, # of connection points: 2
#     Edge 21, Type (0, 0), BuildingBlock: KIFKEQ_clean_linker_1, # of connection points: 2
#     Edge 22, Type (0, 0), BuildingBlock: KIFKEQ_clean_linker_1, # of connection points: 2
#     Edge 23, Type (0, 0), BuildingBlock: KIFKEQ_clean_linker_1, # of connection points: 2
#     Edge 24, Type (0, 0), BuildingBlock: KIFKEQ_clean_linker_1, # of connection points: 2
#     Edge 25, Type (0, 0), BuildingBlock: KIFKEQ_clean_linker_1, # of connection points: 2
#     Edge 26, Type (0, 0), BuildingBlock: KIFKEQ_clean_linker_1, # of connection points: 2
#     Edge 27, Type (0, 0), BuildingBlock: KIFKEQ_clean_linker_1, # of connection points: 2
#     Edge 28, Type (0, 0), BuildingBlock: KIFKEQ_clean_linker_1, # of connection points: 2
#     Edge 29, Type (0, 0), BuildingBlock: KIFKEQ_clean_linker_1, # of connection points: 2
#     Edge 30, Type (0, 0), BuildingBlock: KIFKEQ_clean_linker_1, # of connection points: 2
#     Edge 31, Type (0, 0), BuildingBlock: KIFKEQ_clean_linker_1, # of connection points: 2
#     Edge 32, Type (0, 0), BuildingBlock: KIFKEQ_clean_linker_1, # of connection points: 2
#     Edge 33, Type (0, 0), BuildingBlock: KIFKEQ_clean_linker_1, # of connection points: 2
#     Edge 34, Type (0, 0), BuildingBlock: KIFKEQ_clean_linker_1, # of connection points: 2
#     Edge 35, Type (0, 0), BuildingBlock: KIFKEQ_clean_linker_1, # of connection points: 2
#     Edge 36, Type (0, 0), BuildingBlock: KIFKEQ_clean_linker_1, # of connection points: 2
#     Edge 37, Type (0, 0), BuildingBlock: KIFKEQ_clean_linker_1, # of connection points: 2
#     Edge 38, Type (0, 0), BuildingBlock: KIFKEQ_clean_linker_1, # of connection points: 2
#     Edge 39, Type (0, 0), BuildingBlock: KIFKEQ_clean_linker_1, # of connection points: 2
#     Edge 40, Type (0, 0), BuildingBlock: KIFKEQ_clean_linker_1, # of connection points: 2
#     Edge 41, Type (0, 0), BuildingBlock: KIFKEQ_clean_linker_1, # of connection points: 2
# Relax obj value: 0.385
# Max RMSD: 0.208
# Mean RMSD: 0.208
data_MOF--net-fna--node1-XOMCOT_clean_sbu_1--edge1-KIFKEQ_clean_linker_1
_symmetry_space_group_name_H-M    P1
_symmetry_Int_Tables_number       1
_symmetry_cell_setting            triclinic
loop_
_symmetry_equiv_pos_as_xyz
'x, y, z'
_cell_length_a     46.814815
_cell_length_b     46.842564
_cell_length_c     42.794862
_cell_angle_alpha  90.017885
_cell_angle_beta   89.998395
_cell_angle_gamma 119.90499
loop_
_atom_site_label
_atom_site_type_symbol
_atom_site_fract_x
_atom_site_fract_y
_atom_site_fract_z
_atom_type_partial_charge
C0 C 0.39765 0.3428 0.50806 0.0
C1 C 0.40188 0.35357 0.53845 0.0
N2 N 0.37204 0.33996 0.55219 0.0
N3 N 0.36526 0.32282 0.50252 0.0
C4 C 0.35025 0.32132 0.52989 0.0
H5 H 0.41701 0.34851 0.49124 0.0
Co6 Co 0.34782 0.29992 0.46559 0.0
C7 C 0.28942 0.31003 0.45699 0.0
O8 O 0.2978 0.32138 0.42845 0.0
N9 N 0.33099 0.27583 0.42777 0.0
C10 C 0.32021 0.26156 0.37754 0.0
C11 C 0.32777 0.28611 0.39911 0.0
C12 C 0.32529 0.24488 0.42263 0.0
N13 N 0.31895 0.23563 0.39237 0.0
O14 O 0.32908 0.2599 0.4891 0.0
H15 H 0.33306 0.31073 0.39343 0.0
H16 H 0.32697 0.22961 0.44051 0.0
O17 O 0.30733 0.3016 0.47256 0.0
C18 C 0.35039 0.25176 0.49651 0.0
O19 O 0.38032 0.26913 0.48506 0.0
N20 N 0.36901 0.34011 0.44394 0.0
C21 C 0.41767 0.403 0.4253 0.0
C22 C 0.39006 0.39849 0.44234 0.0
C23 C 0.36628 0.3669 0.45191 0.0
C24 C 0.39473 0.34381 0.42607 0.0
C25 C 0.41917 0.37493 0.41633 0.0
H26 H 0.34745 0.36449 0.46801 0.0
H27 H 0.39767 0.32271 0.42144 0.0
H28 H 0.32393 0.30644 0.5335 0.0
H29 H 0.42523 0.36924 0.54985 0.0
H30 H 0.3181 0.26362 0.35256 0.0
H31 H 0.38772 0.41932 0.44979 0.0
H32 H 0.44028 0.37701 0.40392 0.0
C33 C 0.07711 0.38851 0.67463 0.0
C34 C 0.0721 0.39394 0.70523 0.0
N35 N 0.0539 0.36449 0.71921 0.0
N36 N 0.06163 0.3558 0.6693 0.0
C37 C 0.04803 0.3418 0.69695 0.0
H38 H 0.09124 0.40714 0.65736 0.0
Co39 Co 0.06196 0.3354 0.63227 0.0
C40 C 0.99011 0.28442 0.62796 0.0
O41 O 0.98747 0.29445 0.59997 0.0
N42 N 0.06443 0.31503 0.59509 0.0
C43 C 0.06238 0.27678 0.56271 0.0
C44 C 0.04566 0.28361 0.58512 0.0
C45 C 0.09265 0.32646 0.57841 0.0
N46 N 0.09222 0.3036 0.55883 0.0
O47 O 0.08127 0.31389 0.65424 0.0
H48 H 0.02304 0.26514 0.5956 0.0
H49 H 0.11447 0.34991 0.58302 0.0
O50 O 0.01797 0.29838 0.64199 0.0
C51 C 0.11237 0.33178 0.6568 0.0
O52 O 0.12695 0.36051 0.64266 0.0
N53 N 0.04478 0.35922 0.61134 0.0
C54 C 0.03455 0.41135 0.5949 0.0
C55 C 1.01283 0.38643 0.61517 0.0
C56 C 0.01874 0.36108 0.62357 0.0
C57 C 0.0649 0.382 0.58996 0.0
C58 C 0.06016 0.40819 0.58131 0.0
H59 H 1.0041 0.34484 0.64221 0.0
H60 H 0.0866 0.38185 0.58171 0.0
H61 H 0.03409 0.31546 0.70068 0.0
H62 H 0.08171 0.41768 0.71649 0.0
H63 H 0.05416 0.25299 0.55201 0.0
H64 H 0.99251 0.3875 0.62605 0.0
H65 H 0.07796 0.42706 0.56598 0.0
C66 C 0.70003 0.06696 0.83767 0.0
C67 C 0.68988 0.06258 0.86834 0.0
N68 N 0.69859 0.04208 0.8819 0.0
N69 N 0.71482 0.04912 0.83196 0.0
C70 C 0.71372 0.03435 0.85933 0.0
H71 H 0.69754 0.08277 0.82079 0.0
Co72 Co 0.73661 0.05021 0.79558 0.0
C73 C 0.71684 0.97898 0.78753 0.0
O74 O 0.70874 0.97867 0.75807 0.0
N75 N 0.76062 0.0536 0.75908 0.0
C76 C 0.79947 0.05384 0.72884 0.0
C77 C 0.77586 0.03661 0.75096 0.0
C78 C 0.77626 0.08156 0.74192 0.0
N79 N 0.80024 0.08252 0.72356 0.0
O80 O 0.77605 0.06633 0.8191 0.0
H81 H 0.77354 0.01529 0.76287 0.0
H82 H 0.77304 0.1026 0.74577 0.0
O83 O 0.72773 1.00535 0.80367 0.0
C84 C 0.79457 0.09728 0.8218 0.0
O85 O 0.78736 0.11694 0.80606 0.0
N86 N 0.69672 0.03539 0.77331 0.0
C87 C 0.63491 0.02611 0.75581 0.0
C88 C 0.6376 1.00224 0.7733 0.0
C89 C 0.66851 1.00773 0.7825 0.0
C90 C 0.69475 0.05789 0.75457 0.0
C91 C 0.66415 0.05374 0.74551 0.0
H92 H 0.66923 0.9911 0.79947 0.0
H93 H 0.7167 0.08076 0.74904 0.0
H94 H 0.72526 0.01956 0.86306 0.0
H95 H 0.67738 0.07386 0.87982 0.0
H96 H 0.81674 0.04701 0.71959 0.0
H97 H 0.61593 0.98029 0.78159 0.0
H98 H 0.66359 0.0733 0.73258 0.0
C99 C 0.63812 0.6911 0.00949 0.0
C100 C 0.63362 0.68174 0.04034 0.0
N101 N 0.66341 0.6914 0.05303 0.0
N102 N 0.67054 0.70644 0.00281 0.0
C103 C 0.68539 0.70627 0.02977 0.0
H104 H 0.61909 0.68792 0.9932 0.0
Co105 Co 0.6888 0.72764 0.96564 0.0
C106 C 0.75675 0.74209 0.96976 0.0
O107 O 0.76578 0.77242 0.96138 0.0
N108 N 0.70621 0.74947 0.92788 0.0
C109 C 0.72377 0.76251 0.87881 0.0
C110 C 0.71661 0.73994 0.90256 0.0
C111 C 0.70746 0.77771 0.91909 0.0
N112 N 0.71817 0.78627 0.88956 0.0
O113 O 0.71131 0.76803 0.98833 0.0
H114 H 0.71793 0.71758 0.90117 0.0
H115 H 0.69932 0.79121 0.93348 0.0
O116 O 0.72614 0.72077 0.97165 0.0
C117 C 0.69472 0.7818 0.99558 0.0
O118 O 0.66454 0.76945 0.98484 0.0
N119 N 0.66475 0.68772 0.94461 0.0
C120 C 0.61343 0.62606 0.92749 0.0
C121 C 0.64159 0.62912 0.94222 0.0
C122 C 0.66705 0.66034 0.95086 0.0
C123 C 0.63886 0.6854 0.92804 0.0
C124 C 0.61291 0.65475 0.91917 0.0
H125 H 0.68701 0.66207 0.96492 0.0
H126 H 0.63707 0.70726 0.92399 0.0
H127 H 0.71185 0.71834 0.03269 0.0
H128 H 0.61031 0.66926 0.05259 0.0
H129 H 0.73213 0.76142 0.85548 0.0
H130 H 0.64274 0.60752 0.94931 0.0
H131 H 0.59169 0.6534 0.90757 0.0
C132 C 0.95536 0.62776 0.17588 0.0
C133 C 0.96143 0.62288 0.20629 0.0
N134 N 0.9789 0.65255 0.22001 0.0
N135 N 0.96963 0.66039 0.17039 0.0
C136 C 0.98339 0.67487 0.19786 0.0
H137 H 0.94142 0.60878 0.15883 0.0
Co138 Co 0.96803 0.67999 0.1333 0.0
C139 C 0.04093 0.72973 0.12739 0.0
O140 O 0.04423 0.7188 0.1001 0.0
N141 N 0.9643 0.69932 0.09609 0.0
C142 C 0.96744 0.73385 0.0587 0.0
C143 C 0.98457 0.72814 0.08164 0.0
C144 C 0.93494 0.68843 0.08168 0.0
N145 N 0.93606 0.70898 0.05898 0.0
O146 O 0.95195 0.70398 0.15604 0.0
H147 H 1.00927 0.74574 0.08866 0.0
H148 H 0.91266 0.6665 0.08881 0.0
O149 O 1.01282 0.71629 0.14086 0.0
C150 C 0.92112 0.69032 0.16085 0.0
O151 O 0.90153 0.66148 0.14816 0.0
N152 N 0.98257 0.65439 0.11158 0.0
C153 C 0.99032 0.60167 0.09224 0.0
C154 C 1.01355 0.62603 0.11195 0.0
C155 C 1.00889 0.65182 0.12185 0.0
C156 C 0.96062 0.63171 0.09113 0.0
C157 C 0.96405 0.60515 0.08114 0.0
H158 H 0.0248 0.66786 0.14002 0.0
H159 H 0.93876 0.63243 0.08453 0.0
H160 H 0.99642 0.70124 0.20158 0.0
H161 H 0.95306 0.59938 0.21767 0.0
H162 H 0.9767 0.75602 0.04479 0.0
H163 H 0.03364 0.62372 0.12173 0.0
H164 H 0.9454 0.5866 0.06612 0.0
C165 C 0.33417 0.95406 0.33632 0.0
C166 C 0.34617 0.95961 0.36637 0.0
N167 N 0.33336 0.97567 0.3818 0.0
N168 N 0.31451 0.96725 0.33274 0.0
C169 C 0.31412 0.97985 0.36099 0.0
H170 H 0.33935 0.94114 0.31824 0.0
Co171 Co 0.29148 0.96572 0.29695 0.0
C172 C 0.30973 0.03683 0.29117 0.0
O173 O 0.31918 0.0385 0.26197 0.0
N174 N 0.26648 0.96196 0.26109 0.0
C175 C 0.22806 0.96179 0.23027 0.0
C176 C 0.25155 0.97911 0.25252 0.0
C177 C 0.25087 0.93392 0.24405 0.0
N178 N 0.22722 0.93302 0.22527 0.0
O179 O 0.25235 0.94793 0.32115 0.0
H180 H 0.25431 1.00086 0.26389 0.0
H181 H 0.25424 0.91298 0.24794 0.0
O182 O 0.29873 1.00983 0.30629 0.0
C183 C 0.23499 0.91686 0.32391 0.0
O184 O 0.24328 0.89805 0.3081 0.0
N185 N 0.33107 0.98223 0.27373 0.0
C186 C 0.39286 0.99286 0.25459 0.0
C187 C 0.39016 0.01578 0.27361 0.0
C188 C 0.35922 1.0097 0.28342 0.0
C189 C 0.3331 0.96085 0.25343 0.0
C190 C 0.36371 0.96574 0.24347 0.0
H191 H 0.35839 0.02544 0.30137 0.0
H192 H 0.31128 0.93812 0.24731 0.0
H193 H 0.29997 0.99178 0.36623 0.0
H194 H 0.36241 0.95179 0.37635 0.0
H195 H 0.21115 0.96881 0.22045 0.0
H196 H 0.41185 0.03724 0.28261 0.0
H197 H 0.36442 0.94698 0.22926 0.0
C198 C 0.70129 0.63744 0.32178 0.0
C199 C 0.69198 0.63175 0.29091 0.0
N200 N 0.70081 0.66093 0.2773 0.0
N201 N 0.7157 0.66999 0.32754 0.0
C202 C 0.71517 0.68371 0.30002 0.0
H203 H 0.69859 0.61918 0.3388 0.0
Co204 Co 0.73664 0.69003 0.36433 0.0
C205 C 0.7167 0.74147 0.37164 0.0
O206 O 0.70655 0.73223 0.40045 0.0
N207 N 0.75971 0.70955 0.40136 0.0
C208 C 0.79628 0.74504 0.43534 0.0
C209 C 0.77386 0.74074 0.41237 0.0
C210 C 0.77468 0.6959 0.41753 0.0
N211 N 0.79707 0.71686 0.4382 0.0
O212 O 0.77686 0.71286 0.34172 0.0
H213 H 0.77134 0.76046 0.40227 0.0
H214 H 0.77126 0.67182 0.4123 0.0
O215 O 0.72881 0.72674 0.356 0.0
C216 C 0.7942 0.69907 0.33872 0.0
O217 O 0.78517 0.67122 0.35339 0.0
N218 N 0.69607 0.66546 0.38572 0.0
C219 C 0.63409 0.61468 0.4042 0.0
C220 C 0.63691 0.63977 0.38446 0.0
C221 C 0.66805 0.66456 0.37503 0.0
C222 C 0.69367 0.642 0.40613 0.0
C223 C 0.66295 0.6165 0.41579 0.0
H224 H 0.66932 0.68116 0.35689 0.0
H225 H 0.71533 0.64111 0.41298 0.0
H226 H 0.72663 0.70998 0.29631 0.0
H227 H 0.67999 0.60806 0.27931 0.0
H228 H 0.81316 0.76811 0.4466 0.0
H229 H 0.61524 0.63875 0.37426 0.0
H230 H 0.66179 0.59736 0.43085 0.0
C231 C 0.06962 0.68578 0.48961 0.0
C232 C 0.06376 0.67445 0.45931 0.0
N233 N 0.04764 0.68768 0.44469 0.0
N234 N 0.05651 0.7054 0.49414 0.0
C235 C 0.04371 0.70646 0.46621 0.0
H236 H 0.08267 0.68017 0.5072 0.0
Co237 Co 0.05829 0.72784 0.53047 0.0
C238 C 0.98691 0.70815 0.53796 0.0
O239 O 0.98607 0.69877 0.56707 0.0
N240 N 0.0622 0.75236 0.56678 0.0
C241 C 0.06216 0.79065 0.59763 0.0
C242 C 0.0447 0.76681 0.57573 0.0
C243 C 0.09058 0.76859 0.5833 0.0
N244 N 0.09136 0.79223 0.60202 0.0
O245 O 0.07498 0.76715 0.50669 0.0
H246 H 0.02263 0.76365 0.56472 0.0
H247 H 0.11179 0.76576 0.57896 0.0
O248 O 1.01365 0.71969 0.52227 0.0
C249 C 0.10598 0.7849 0.50351 0.0
O250 O 0.12535 0.77683 0.51863 0.0
N251 N 0.04288 0.68811 0.55323 0.0
C252 C 0.0337 0.62654 0.5711 0.0
C253 C 1.01018 0.62899 0.55278 0.0
C254 C 1.01553 0.65982 0.5436 0.0
C255 C 0.06486 0.68631 0.5729 0.0
C256 C 0.06069 0.65579 0.58222 0.0
H257 H 0.9993 0.66051 0.52611 0.0
H258 H 0.08744 0.70833 0.579 0.0
H259 H 0.0318 0.72078 0.46169 0.0
H260 H 0.07141 0.65839 0.44861 0.0
H261 H 0.05491 0.80735 0.60753 0.0
H262 H 0.98878 0.6072 0.54383 0.0
H263 H 0.07985 0.65528 0.59595 0.0
C264 C 0.39735 0.06322 0.65176 0.0
C265 C 0.40203 0.05699 0.62132 0.0
N266 N 0.37239 0.04123 0.60724 0.0
N267 N 0.36482 0.05072 0.65688 0.0
C268 C 0.35029 0.03787 0.6292 0.0
H269 H 0.41639 0.07615 0.66904 0.0
Co270 Co 0.34513 0.05352 0.69354 0.0
C271 C 0.29309 0.98173 0.69884 0.0
O272 O 0.30375 0.9784 0.72626 0.0
N273 N 0.3256 0.05835 0.73025 0.0
C274 C 0.29079 0.05674 0.7667 0.0
C275 C 0.29641 0.03884 0.74451 0.0
C276 C 0.33681 0.08806 0.74404 0.0
N277 N 0.31609 0.08785 0.7661 0.0
O278 O 0.32453 0.07309 0.67032 0.0
H279 H 0.27852 0.01413 0.73784 0.0
H280 H 0.35916 0.10994 0.73697 0.0
O281 O 0.30714 1.00973 0.68513 0.0
C282 C 0.34421 0.10367 0.66602 0.0
O283 O 0.37368 0.11701 0.67869 0.0
N284 N 0.36824 0.0365 0.71591 0.0
C285 C 0.42043 0.02764 0.73486 0.0
C286 C 0.39593 1.00487 0.71492 0.0
C287 C 0.37037 1.01005 0.70527 0.0
C288 C 0.39076 0.05768 0.73693 0.0
C289 C 0.41703 0.05368 0.74674 0.0
H290 H 0.35437 0.99467 0.6868 0.0
H291 H 0.39036 0.0796 0.74393 0.0
H292 H 0.32402 0.02643 0.62517 0.0
H293 H 0.42542 0.06424 0.61015 0.0
H294 H 0.26852 0.04815 0.78035 0.0
H295 H 0.3981 0.98491 0.70462 0.0
H296 H 0.43559 0.07191 0.76206 0.0
C297 C 0.34551 0.38868 0.8259 0.0
C298 C 0.35573 0.39482 0.79535 0.0
N299 N 0.34184 0.36592 0.77984 0.0
N300 N 0.32561 0.35601 0.82981 0.0
C301 C 0.32378 0.34276 0.80136 0.0
H302 H 0.35137 0.40695 0.84395 0.0
Co303 Co 0.30148 0.3362 0.86572 0.0
C304 C 0.31564 0.27997 0.87144 0.0
O305 O 0.32882 0.28886 0.89929 0.0
N306 N 0.27603 0.31707 0.90221 0.0
C307 C 0.25857 0.30055 0.95087 0.0
C308 C 0.2837 0.3086 0.92985 0.0
C309 C 0.24635 0.31456 0.90753 0.0
N310 N 0.23503 0.3045 0.93682 0.0
O311 O 0.26226 0.31749 0.84083 0.0
H312 H 0.30715 0.31097 0.93573 0.0
H313 H 0.23424 0.32227 0.89094 0.0
O314 O 0.30503 0.29687 0.85724 0.0
C315 C 0.2541 0.33861 0.83277 0.0
O316 O 0.27067 0.36843 0.84463 0.0
N317 N 0.34065 0.35725 0.88909 0.0
C318 C 0.40138 0.40832 0.90924 0.0
C319 C 0.39972 0.38316 0.89021 0.0
C320 C 0.36902 0.35794 0.88006 0.0
C321 C 0.34181 0.38016 0.90948 0.0
C322 C 0.37191 0.40571 0.9201 0.0
H323 H 0.36839 0.34126 0.86228 0.0
H324 H 0.31946 0.38043 0.91528 0.0
H325 H 0.30797 0.3169 0.79618 0.0
H326 H 0.3717 0.41882 0.78527 0.0
H327 H 0.25858 0.29385 0.97505 0.0
H328 H 0.4219 0.38464 0.88082 0.0
H329 H 0.37216 0.42462 0.93487 0.0
C330 C 0.95248 0.3233 0.98591 0.0
C331 C 0.95772 0.33405 0.95547 0.0
N332 N 0.97698 0.32389 0.94156 0.0
N333 N 0.96872 0.30684 0.99137 0.0
C334 C 0.98316 0.30732 0.96395 0.0
H335 H 0.93772 0.32715 0.00302 0.0
Co336 Co 0.9678 0.28602 0.02843 0.0
C337 C 0.03992 0.30705 0.03402 0.0
O338 O 0.04283 0.32003 0.06189 0.0
N339 N 0.96467 0.26327 0.06568 0.0
C340 C 0.96638 0.22834 0.09989 0.0
C341 C 0.98347 0.2512 0.07706 0.0
C342 C 0.93611 0.24686 0.08183 0.0
N343 N 0.93633 0.22525 0.1026 0.0
O344 O 0.95088 0.2458 0.00612 0.0
H345 H 1.00658 0.25553 0.06755 0.0
H346 H 0.91435 0.24831 0.0762 0.0
O347 O 1.01214 0.2936 0.01997 0.0
C348 C 0.91992 0.22814 0.0025 0.0
O349 O 0.90042 0.23685 0.01642 0.0
N350 N 0.98343 0.32659 0.04962 0.0
C351 C 0.99321 0.38854 0.06711 0.0
C352 C 1.01599 0.3857 0.04796 0.0
C353 C 1.01022 0.35468 0.03885 0.0
C354 C 0.96206 0.32878 0.0698 0.0
C355 C 0.96648 0.35944 0.07888 0.0
H356 H 0.02584 0.35355 0.02093 0.0
H357 H 0.93977 0.30685 0.07672 0.0
H358 H 0.99715 0.2949 0.96036 0.0
H359 H 0.94811 0.34838 0.94461 0.0
H360 H 0.97465 0.21342 0.11187 0.0
H361 H 0.03723 0.40725 0.03848 0.0
H362 H 0.94772 0.36009 0.09313 0.0
C363 C 0.63484 0.94418 0.14873 0.0
C364 C 0.63034 0.94798 0.11759 0.0
N365 N 0.65976 0.96983 0.10528 0.0
N366 N 0.66687 0.96367 0.156 0.0
C367 C 0.68151 0.97893 0.12907 0.0
H368 H 0.61613 0.92779 0.16498 0.0
Co369 Co 0.68517 0.96373 0.19426 0.0
C370 C 0.73493 0.03617 0.19986 0.0
O371 O 0.72323 0.03926 0.22679 0.0
N372 N 0.70306 0.96126 0.23282 0.0
C373 C 0.73722 0.96308 0.27004 0.0
C374 C 0.73266 0.98046 0.24649 0.0
C375 C 0.69049 0.93235 0.24833 0.0
N376 N 0.71082 0.93258 0.27082 0.0
O377 O 0.70979 0.94676 0.17416 0.0
H378 H 0.75157 1.0041 0.23814 0.0
H379 H 0.66775 0.91065 0.24168 0.0
O380 O 0.72187 1.00815 0.18626 0.0
C381 C 0.69663 0.91577 0.17085 0.0
O382 O 0.66783 0.89647 0.18375 0.0
N383 N 0.65896 0.97935 0.21305 0.0
C384 C 0.60663 0.9898 0.22817 0.0
C385 C 0.63183 0.01125 0.20799 0.0
C386 C 0.65729 1.00524 0.20026 0.0
C387 C 0.63552 0.95909 0.23387 0.0
C388 C 0.60928 0.96397 0.2419 0.0
H389 H 0.67421 0.02004 0.18209 0.0
H390 H 0.63545 0.93742 0.24247 0.0
H391 H 0.70778 0.9953 0.12666 0.0
H392 H 0.60726 0.93551 0.10496 0.0
H393 H 0.75965 0.97118 0.28331 0.0
H394 H 0.63111 0.03168 0.19694 0.0
H395 H 0.59011 0.94627 0.25707 0.0
H396 H 0.2954 0.08199 0.62131 0.0
H397 H 0.37673 0.17001 0.66074 0.0
H398 H 0.2909 0.11531 0.57915 0.0
H399 H 0.37234 0.20265 0.61883 0.0
H400 H 0.39134 0.22964 0.51483 0.0
H401 H 0.3832 0.19154 0.5569 0.0
H402 H 0.28516 0.17528 0.57238 0.0
H403 H 0.29329 0.2142 0.53002 0.0
C404 C 0.3117 0.10842 0.62143 0.0
C405 C 0.33673 0.12337 0.64404 0.0
C406 C 0.3091 0.12738 0.59738 0.0
C407 C 0.33154 0.16134 0.59577 0.0
C408 C 0.35498 0.17643 0.61953 0.0
C409 C 0.35749 0.15769 0.64345 0.0
C410 C 0.36784 0.2178 0.52684 0.0
C411 C 0.34309 0.22526 0.5193 0.0
C412 C 0.36325 0.19598 0.55092 0.0
C413 C 0.33372 0.18085 0.56789 0.0
C414 C 0.30812 0.18672 0.55947 0.0
C415 C 0.31283 0.20896 0.53535 0.0
H416 H 0.089 0.28487 0.70324 0.0
H417 H 0.1788 0.36144 0.66155 0.0
H418 H 0.12129 0.28059 0.74645 0.0
H419 H 0.2105 0.35728 0.70458 0.0
H420 H 0.23602 0.38093 0.80917 0.0
H421 H 0.20003 0.37247 0.76507 0.0
H422 H 0.17899 0.27209 0.75642 0.0
H423 H 0.21587 0.28054 0.80084 0.0
C424 C 0.11559 0.30009 0.70284 0.0
C425 C 0.13135 0.32384 0.67926 0.0
C426 C 0.13397 0.29761 0.7275 0.0
C427 C 0.16819 0.31887 0.72879 0.0
C428 C 0.18406 0.34082 0.7041 0.0
C429 C 0.16587 0.3432 0.67953 0.0
C430 C 0.2236 0.35688 0.79822 0.0
C431 C 0.22905 0.33148 0.80837 0.0
C432 C 0.20304 0.35213 0.77292 0.0
C433 C 0.18714 0.32179 0.75733 0.0
C434 C 0.19112 0.29571 0.76819 0.0
C435 C 0.21216 0.30058 0.79349 0.0
H436 H 0.84797 0.1588 0.82446 0.0
H437 H 0.79733 0.06712 0.87534 0.0
H438 H 0.88334 0.18507 0.86961 0.0
H439 H 0.83252 0.09363 0.92074 0.0
H440 H 0.85732 0.17657 -0.00125 0.0
H441 H 0.83214 0.13944 0.95449 0.0
H442 H 0.92623 0.18434 0.90746 0.0
H443 H 0.95163 0.2213 0.952 0.0
C444 C 0.84495 0.14411 0.84505 0.0
C445 C 0.81983 0.11104 0.84651 0.0
C446 C 0.8653 0.15907 0.87081 0.0
C447 C 0.86051 0.14136 0.89866 0.0
C448 C 0.83662 0.10778 0.89953 0.0
C449 C 0.81663 0.09263 0.87353 0.0
C450 C 0.87278 0.17794 0.97931 0.0
C451 C 0.90632 0.20192 0.97868 0.0
C452 C 0.85843 0.15657 0.95408 0.0
C453 C 0.87727 0.15917 0.92756 0.0
C454 C 0.91121 0.18193 0.92764 0.0
C455 C 0.92571 0.20294 0.95315 0.0
H456 H 0.73477 0.79104 0.04534 0.0
H457 H 0.68146 0.83181 -0.00144 0.0
H458 H 0.74608 0.82896 0.08924 0.0
H459 H 0.69346 0.87013 0.04188 0.0
H460 H 0.732 0.94542 0.11834 0.0
H461 H 0.74203 0.91816 0.07432 0.0
H462 H 0.69989 0.8275 0.12683 0.0
H463 H 0.68919 0.85446 0.17054 0.0
C464 C 0.72644 0.80884 0.04402 0.0
C465 C 0.70714 0.80854 0.01875 0.0
C466 C 0.73281 0.83037 0.06911 0.0
C467 C 0.72069 0.85242 0.06881 0.0
C468 C 0.7034 0.85362 0.04249 0.0
C469 C 0.69637 0.83161 0.01783 0.0
C470 C 0.72585 0.91996 0.12082 0.0
C471 C 0.70963 0.9019 0.14769 0.0
C472 C 0.73147 0.90439 0.09562 0.0
C473 C 0.72166 0.87079 0.09726 0.0
C474 C 0.70795 0.85351 0.12512 0.0
C475 C 0.70168 0.86886 0.15003 0.0
H476 H 0.85927 0.6814 0.16356 0.0
H477 H 0.95274 0.72794 0.21181 0.0
H478 H 0.83413 0.6943 0.20728 0.0
H479 H 0.92736 0.7404 0.25591 0.0
H480 H 0.84655 0.68906 0.33745 0.0
H481 H 0.88279 0.69748 0.29314 0.0
H482 H 0.83554 0.74122 0.24074 0.0
H483 H 0.79951 0.73323 0.28532 0.0
C484 C 0.87457 0.69504 0.18324 0.0
C485 C 0.90784 0.70355 0.18442 0.0
C486 C 0.86026 0.70261 0.20816 0.0
C487 C 0.87883 0.71828 0.23496 0.0
C488 C 0.91255 0.7283 0.23549 0.0
C489 C 0.92706 0.7213 0.21024 0.0
C490 C 0.84454 0.7013 0.31677 0.0
C491 C 0.82016 0.71032 0.3147 0.0
C492 C 0.86539 0.70629 0.2915 0.0
C493 C 0.86182 0.71987 0.26351 0.0
C494 C 0.83871 0.73065 0.26207 0.0
C495 C 0.81825 0.72622 0.2876 0.0
H496 H 0.22985 0.94617 0.37709 0.0
H497 H 0.18335 0.85425 0.32622 0.0
H498 H 0.19375 0.91887 0.42174 0.0
H499 H 0.14708 0.82717 0.37064 0.0
H500 H 0.07571 0.78971 0.4509 0.0
H501 H 0.10212 0.82634 0.40635 0.0
H502 H 0.19426 0.87419 0.45678 0.0
H503 H 0.16807 0.8374 0.50106 0.0
C504 C 0.2113 0.92038 0.37513 0.0
C505 C 0.20948 0.9022 0.34832 0.0
C506 C 0.19079 0.90479 0.4007 0.0
C507 C 0.16774 0.87095 0.3996 0.0
C508 C 0.16443 0.85335 0.37198 0.0
C509 C 0.18531 0.86878 0.34666 0.0
C510 C 0.10138 0.80863 0.45274 0.0
C511 C 0.11997 0.81065 0.47929 0.0
C512 C 0.11647 0.82943 0.42723 0.0
C513 C 0.15019 0.85298 0.42816 0.0
C514 C 0.16815 0.85645 0.45557 0.0
C515 C 0.15324 0.83529 0.48081 0.0
H516 H 0.29073 0.20826 0.33658 0.0
H517 H 0.34071 0.19578 0.41587 0.0
H518 H 0.28782 0.15985 0.31199 0.0
H519 H 0.33728 0.14741 0.39152 0.0
H520 H 0.29585 0.04329 0.35202 0.0
H521 H 0.2965 0.09061 0.37653 0.0
H522 H 0.32591 0.14318 0.28889 0.0
H523 H 0.32502 0.09576 0.26423 0.0
C524 C 0.30112 0.19533 0.3488 0.0
C525 C 0.31588 0.20611 0.37833 0.0
C526 C 0.29945 0.16756 0.33468 0.0
C527 C 0.31231 0.14977 0.34981 0.0
C528 C 0.32668 0.16026 0.37944 0.0
C529 C 0.32854 0.18807 0.39347 0.0
C530 C 0.30247 0.06492 0.33794 0.0
C531 C 0.31045 0.06573 0.30616 0.0
C532 C 0.30295 0.09209 0.35204 0.0
C533 C 0.31123 0.12066 0.33465 0.0
C534 C 0.31904 0.1214 0.30283 0.0
C535 C 0.31876 0.0943 0.28877 0.0
H536 H 0.26032 0.28199 0.51282 0.0
H537 H 0.25319 0.33697 0.43506 0.0
H538 H 0.21282 0.28129 0.53728 0.0
H539 H 0.20575 0.33622 0.4596 0.0
H540 H 0.14367 0.35677 0.53196 0.0
H541 H 0.19214 0.35911 0.50732 0.0
H542 H 0.15244 0.25559 0.5262 0.0
H543 H 0.10457 0.25337 0.55093 0.0
C544 C 0.24865 0.29392 0.50093 0.0
C545 C 0.26051 0.30941 0.47191 0.0
C546 C 0.22137 0.29341 0.5149 0.0
C547 C 0.20553 0.30869 0.50034 0.0
C548 C 0.2176 0.32449 0.47151 0.0
C549 C 0.24465 0.32469 0.45737 0.0
C550 C 0.14538 0.33458 0.53075 0.0
C551 C 0.12015 0.30488 0.54316 0.0
C552 C 0.17298 0.33585 0.51654 0.0
C553 C 0.17612 0.30753 0.51491 0.0
C554 C 0.15089 0.27788 0.52733 0.0
C555 C 0.12322 0.27653 0.54115 0.0
H556 H 0.86387 0.09759 0.71649 0.0
H557 H 0.79651 0.13313 0.69692 0.0
H558 H 0.9086 0.14682 0.69326 0.0
H559 H 0.84194 0.1833 0.67416 0.0
H560 H 0.92694 0.25017 0.60566 0.0
H561 H 0.8801 0.20161 0.62845 0.0
H562 H 0.94105 0.20568 0.706 0.0
H563 H 0.98795 0.25393 0.68314 0.0
C564 C 0.85843 0.11571 0.70691 0.0
C565 C 0.8264 0.1112 0.70838 0.0
C566 C 0.88429 0.14426 0.69398 0.0
C567 C 0.87892 0.16912 0.68209 0.0
C568 C 0.84684 0.16451 0.68303 0.0
C569 C 0.82088 0.13591 0.69619 0.0
C570 C 0.93035 0.24077 0.62762 0.0
C571 C 0.96129 0.25582 0.64245 0.0
C572 C 0.90342 0.21305 0.64076 0.0
C573 C 0.9069 0.19966 0.66892 0.0
C574 C 0.93769 0.2151 0.68402 0.0
C575 C 0.96455 0.24287 0.67099 0.0
H576 H 0.72281 0.93075 0.75764 0.0
H577 H 0.70907 0.96133 0.84885 0.0
H578 H 0.72532 0.88464 0.78111 0.0
H579 H 0.70955 0.91434 0.87231 0.0
H580 H 0.74331 0.84775 0.91171 0.0
H581 H 0.74391 0.89438 0.88597 0.0
H582 H 0.69674 0.83339 0.80504 0.0
H583 H 0.69819 0.78743 0.83056 0.0
C584 C 0.7198 0.92726 0.78269 0.0
C585 C 0.71596 0.94971 0.80146 0.0
C586 C 0.72109 0.90071 0.7962 0.0
C587 C 0.71794 0.89567 0.82876 0.0
C588 C 0.71308 0.91777 0.84731 0.0
C589 C 0.7125 0.94464 0.83386 0.0
C590 C 0.73342 0.84461 0.88828 0.0
C591 C 0.72071 0.81416 0.87306 0.0
C592 C 0.73339 0.87118 0.87357 0.0
C593 C 0.71985 0.86774 0.84348 0.0
C594 C 0.70774 0.83727 0.82801 0.0
C595 C 0.70846 0.81085 0.84257 0.0
H596 H 0.74757 0.6838 0.99397 0.0
H597 H 0.8235 0.78142 0.96701 0.0
H598 H 0.78983 0.67169 0.01238 0.0
H599 H 0.86543 0.76967 0.98599 0.0
H600 H 0.93691 0.73396 0.00183 0.0
H601 H 0.89237 0.73834 0.97688 0.0
H602 H 0.82872 0.68757 0.05508 0.0
H603 H 0.8731 0.68288 0.07968 0.0
C604 C 0.77325 0.70258 0.99177 0.0
C605 C 0.78213 0.7336 0.97905 0.0
C606 C 0.79747 0.69572 0.00251 0.0
C607 C 0.83109 0.71969 0.00072 0.0
C608 C 0.83987 0.7504 0.98733 0.0
C609 C 0.81573 0.75725 0.97663 0.0
C610 C 0.91331 0.72352 0.01351 0.0
C611 C 0.90865 0.70823 0.04277 0.0
C612 C 0.88779 0.72609 -0.00071 0.0
C613 C 0.85699 0.7136 0.01408 0.0
C614 C 0.85193 0.69712 0.0428 0.0
C615 C 0.87744 0.69442 0.05694 0.0
H616 H 0.16411 0.91836 0.21498 0.0
H617 H 0.23194 0.88247 0.19971 0.0
H618 H 0.12029 0.86916 0.19068 0.0
H619 H 0.18745 0.8324 0.17597 0.0
H620 H 0.10472 0.76388 0.1064 0.0
H621 H 0.15077 0.81322 0.12922 0.0
H622 H 0.08746 0.81054 0.20393 0.0
H623 H 0.04145 0.76161 0.18108 0.0
C624 C 0.16986 0.90018 0.20613 0.0
C625 C 0.20171 0.90453 0.20924 0.0
C626 C 0.14452 0.87167 0.19256 0.0
C627 C 0.15027 0.84671 0.18164 0.0
C628 C 0.18225 0.85125 0.18406 0.0
C629 C 0.20767 0.8798 0.19784 0.0
C630 C 0.10065 0.77377 0.12774 0.0
C631 C 0.06932 0.75887 0.14179 0.0
C632 C 0.1271 0.80195 0.14089 0.0
C633 C 0.12273 0.81594 0.16826 0.0
C634 C 0.09153 0.80069 0.18255 0.0
C635 C 0.06517 0.7725 0.16952 0.0
H636 H 0.97687 0.7167 0.47662 0.0
H637 H 0.93069 0.6979 0.56749 0.0
H638 H 0.92941 0.71705 0.45362 0.0
H639 H 0.88312 0.69826 0.54433 0.0
H640 H 0.82596 0.74353 0.49355 0.0
H641 H 0.87107 0.73984 0.51867 0.0
H642 H 0.86973 0.67757 0.44361 0.0
H643 H 0.82522 0.68163 0.41845 0.0
C644 C 0.95656 0.71253 0.49168 0.0
C645 C 0.95758 0.70728 0.5239 0.0
C646 C 0.92929 0.71257 0.47846 0.0
C647 C 0.90253 0.70766 0.49718 0.0
C648 C 0.90349 0.70235 0.52938 0.0
C649 C 0.93065 0.70196 0.54258 0.0
C650 C 0.83525 0.72894 0.48261 0.0
C651 C 0.82192 0.71276 0.45416 0.0
C652 C 0.86088 0.72664 0.49703 0.0
C653 C 0.87398 0.70848 0.48304 0.0
C654 C 0.86032 0.69194 0.45482 0.0
C655 C 0.83452 0.69395 0.44061 0.0
H656 H 0.26123 0.98074 0.64486 0.0
H657 H 0.25931 0.91815 0.71997 0.0
H658 H 0.21286 0.93413 0.62171 0.0
H659 H 0.21071 0.87161 0.69689 0.0
H660 H 0.14306 0.78934 0.62722 0.0
H661 H 0.19287 0.83487 0.65033 0.0
H662 H 0.15407 0.90012 0.63434 0.0
H663 H 0.10511 0.85524 0.61073 0.0
C664 C 0.25052 0.95707 0.65645 0.0
C665 C 0.26408 0.95326 0.68438 0.0
C666 C 0.22269 0.93037 0.64325 0.0
C667 C 0.20782 0.89918 0.65755 0.0
C668 C 0.22172 0.89523 0.68517 0.0
C669 C 0.24946 0.92199 0.69849 0.0
C670 C 0.14525 0.81342 0.62867 0.0
C671 C 0.11996 0.81849 0.61725 0.0
C672 C 0.17365 0.83944 0.64206 0.0
C673 C 0.17749 0.87116 0.64403 0.0
C674 C 0.15209 0.87611 0.63284 0.0
C675 C 0.12372 0.85015 0.61968 0.0
H676 H 0.32943 0.23504 0.89744 0.0
H677 H 0.30097 0.2603 0.81023 0.0
H678 H 0.33033 0.18897 0.87203 0.0
H679 H 0.30174 0.21392 0.78483 0.0
H680 H 0.34294 0.15036 0.7442 0.0
H681 H 0.34271 0.19691 0.76969 0.0
H682 H 0.29113 0.13501 0.84854 0.0
H683 H 0.29186 0.08861 0.82322 0.0
C684 C 0.32327 0.23074 0.87285 0.0
C685 C 0.31514 0.25142 0.85588 0.0
C686 C 0.32364 0.2042 0.85834 0.0
C687 C 0.31613 0.19779 0.82643 0.0
C688 C 0.30797 0.21843 0.80939 0.0
C689 C 0.30731 0.24486 0.824 0.0
C690 C 0.33199 0.14681 0.76716 0.0
C691 C 0.31757 0.11582 0.7818 0.0
C692 C 0.33147 0.17337 0.78158 0.0
C693 C 0.3168 0.16963 0.81108 0.0
C694 C 0.30282 0.13876 0.8259 0.0
C695 C 0.30306 0.11214 0.81136 0.0
H696 H 0.03982 0.27282 0.98221 0.0
H697 H 0.10424 0.3396 0.05307 0.0
H698 H 0.08608 0.27029 0.95929 0.0
H699 H 0.15083 0.33816 0.02945 0.0
H700 H 0.22214 0.3052 -0.00106 0.0
H701 H 0.17449 0.3043 0.02223 0.0
H702 H 0.13483 0.30083 0.93024 0.0
H703 H 0.18134 0.29949 0.90697 0.0
C704 C 0.06394 0.28721 0.99275 0.0
C705 C 0.06832 0.30635 0.01954 0.0
C706 C 0.09056 0.2859 0.97949 0.0
C707 C 0.12233 0.30398 0.99247 0.0
C708 C 0.12668 0.32338 0.01912 0.0
C709 C 0.09998 0.32443 0.03256 0.0
C710 C 0.20312 0.3037 0.98357 0.0
C711 C 0.20602 0.30265 0.9509 0.0
C712 C 0.17587 0.30368 0.99701 0.0
C713 C 0.15082 0.30283 0.97819 0.0
C714 C 0.15341 0.30122 0.94557 0.0
C715 C 0.18049 0.30092 0.93214 0.0
H716 H 0.76649 0.10038 0.21968 0.0
H717 H 0.76935 0.03683 0.14801 0.0
H718 H 0.81545 0.1471 0.19708 0.0
H719 H 0.81801 0.08348 0.12545 0.0
H720 H 0.92516 0.16397 0.11626 0.0
H721 H 0.87641 0.11925 0.14048 0.0
H722 H 0.83372 0.18208 0.14865 0.0
H723 H 0.88315 0.22738 0.1248 0.0
C724 C 0.77747 0.09637 0.19908 0.0
C725 C 0.76407 0.0648 0.18576 0.0
C726 C 0.80541 0.12318 0.18606 0.0
C727 C 0.82071 0.11895 0.1596 0.0
C728 C 0.80708 0.08746 0.14611 0.0
C729 C 0.77906 0.06074 0.15896 0.0
C730 C 0.90571 0.16856 0.12365 0.0
C731 C 0.90817 0.19939 0.11867 0.0
C732 C 0.87753 0.14272 0.13718 0.0
C733 C 0.85108 0.14702 0.14627 0.0
C734 C 0.85375 0.17804 0.142 0.0
C735 C 0.88193 0.2039 0.12819 0.0
H736 H 0.68209 0.86968 0.24967 0.0
H737 H 0.73534 0.93175 0.32787 0.0
H738 H 0.68198 0.82303 0.27493 0.0
H739 H 0.7357 0.88498 0.35307 0.0
H740 H 0.70091 0.78402 0.40038 0.0
H741 H 0.69763 0.82986 0.37691 0.0
H742 H 0.72441 0.80759 0.28737 0.0
H743 H 0.72765 0.76184 0.3107 0.0
C744 C 0.69332 0.87328 0.2725 0.0
C745 C 0.70858 0.90444 0.28687 0.0
C746 C 0.69362 0.8466 0.2868 0.0
C747 C 0.70898 0.85034 0.31592 0.0
C748 C 0.72349 0.88127 0.33071 0.0
C749 C 0.72346 0.90807 0.31624 0.0
C750 C 0.70604 0.78886 0.37567 0.0
C751 C 0.71452 0.7692 0.35742 0.0
C752 C 0.70432 0.81523 0.36228 0.0
C753 C 0.71068 0.82231 0.33028 0.0
C754 C 0.71898 0.80254 0.31202 0.0
C755 C 0.72102 0.7764 0.32545 0.0
H756 H 0.4593 0.42573 0.37464 0.0
H757 H 0.44223 0.45633 0.46477 0.0
H758 H 0.51096 0.47779 0.37002 0.0
H759 H 0.4932 0.50874 0.45937 0.0
H760 H 0.57562 0.6108 0.42068 0.0
H761 H 0.52127 0.56095 0.42448 0.0
H762 H 0.56498 0.50145 0.40118 0.0
H763 H 0.61902 0.55097 0.39749 0.0
C764 C 0.46632 0.44357 0.39334 0.0
C765 C 0.44654 0.43655 0.42018 0.0
C766 C 0.49589 0.47341 0.39063 0.0
C767 C 0.50617 0.49713 0.41447 0.0
C768 C 0.48574 0.49095 0.44055 0.0
C769 C 0.45637 0.46093 0.44349 0.0
C770 C 0.57353 0.58701 0.41661 0.0
C771 C 0.60155 0.58471 0.40906 0.0
C772 C 0.54253 0.55856 0.4188 0.0
C773 C 0.53893 0.52742 0.41285 0.0
C774 C 0.56699 0.52517 0.40552 0.0
C775 C 0.59797 0.55347 0.40382 0.0
H776 H 0.04696 0.44932 0.54203 0.0
H777 H 0.0186 0.44355 0.63894 0.0
H778 H 0.04694 0.50114 0.53689 0.0
H779 H 0.0166 0.49403 0.63328 0.0
H780 H 0.05114 0.60346 0.6227 0.0
H781 H 0.05149 0.5518 0.62786 0.0
H782 H 1.0117 0.52398 0.5346 0.0
H783 H 1.01325 0.57622 0.52875 0.0
C784 C 0.04047 0.4589 0.56217 0.0
C785 C 0.03257 0.44197 0.59081 0.0
C786 C 0.0401 0.4885 0.55915 0.0
C787 C 0.03172 0.50188 0.58468 0.0
C788 C 0.02357 0.48479 0.61321 0.0
C789 C 0.02414 0.45538 0.61628 0.0
C790 C 0.04263 0.5864 0.60325 0.0
C791 C 0.03195 0.59408 0.57542 0.0
C792 C 0.04249 0.55656 0.60631 0.0
C793 C 0.03158 0.53356 0.58164 0.0
C794 C 0.02065 0.54116 0.55396 0.0
C795 C 0.02098 0.57101 0.55083 0.0
H796 H 0.61298 0.04738 0.70591 0.0
H797 H 0.58251 1.00077 0.79648 0.0
H798 H 0.56095 0.04742 0.70138 0.0
H799 H 0.53028 0.99955 0.79103 0.0
H800 H 0.42733 0.9749 0.75153 0.0
H801 H 0.47867 0.97305 0.75558 0.0
H802 H 0.53439 0.07617 0.73157 0.0
H803 H 0.48327 0.07808 0.72774 0.0
C804 C 0.5953 0.03701 0.72478 0.0
C805 C 0.60217 0.02394 0.75149 0.0
C806 C 0.56545 0.03696 0.7221 0.0
C807 C 0.5416 0.02343 0.74585 0.0
C808 C 0.54804 1.00974 0.77218 0.0
C809 C 0.57801 1.01025 0.77511 0.0
C810 C 0.4506 0.99717 0.74736 0.0
C811 C 0.45135 0.02669 0.73964 0.0
C812 C 0.47991 0.99613 0.74968 0.0
C813 C 0.51046 0.02444 0.74369 0.0
C814 C 0.51118 0.05393 0.73601 0.0
C815 C 0.48197 0.0551 0.73422 0.0
H816 H 0.55174 0.61035 0.94508 0.0
H817 H 0.60685 0.56807 0.9049 0.0
H818 H 0.50162 0.55727 0.9424 0.0
H819 H 0.55608 0.51458 0.90116 0.0
H820 H 0.46199 0.41664 0.92551 0.0
H821 H 0.51411 0.46875 0.93035 0.0
H822 H 0.464 0.52185 0.9049 0.0
H823 H 0.41242 0.47035 0.90105 0.0
C824 C 0.55297 0.58972 0.93512 0.0
C825 C 0.58309 0.59347 0.92467 0.0
C826 C 0.5242 0.55922 0.93357 0.0
C827 C 0.52461 0.53161 0.92118 0.0
C828 C 0.55488 0.53522 0.91107 0.0
C829 C 0.5839 0.56585 0.91298 0.0
C830 C 0.46227 0.43957 0.92123 0.0
C831 C 0.43303 0.43948 0.91354 0.0
C832 C 0.4921 0.46938 0.92377 0.0
C833 C 0.49328 0.49961 0.91831 0.0
C834 C 0.464 0.49923 0.91015 0.0
C835 C 0.43432 0.46964 0.90795 0.0
H836 H 0.97487 0.41101 0.11873 0.0
H837 H 1.01559 0.44021 0.02579 0.0
H838 H 0.97436 0.46268 0.12412 0.0
H839 H 0.01649 0.49219 0.03208 0.0
H840 H 0.04263 0.59537 0.07286 0.0
H841 H 0.04488 0.54436 0.06758 0.0
H842 H 0.94285 0.4879 0.09537 0.0
H843 H 0.9405 0.53872 0.10032 0.0
C844 C 0.98385 0.42833 0.09952 0.0
C845 C 0.99537 0.42119 0.07186 0.0
C846 C 0.98364 0.45798 0.10269 0.0
C847 C 0.99541 0.48138 0.07851 0.0
C848 C 1.00765 0.47474 0.05123 0.0
C849 C 1.00736 0.44493 0.04781 0.0
C850 C 0.02068 0.572 0.07757 0.0
C851 C 0.99132 0.57093 0.0867 0.0
C852 C 0.02195 0.5429 0.07456 0.0
C853 C 0.99409 0.51226 0.08128 0.0
C854 C 0.96475 0.51121 0.09034 0.0
C855 C 0.96331 0.54022 0.09279 0.0
H856 H 0.41572 0.9764 0.20217 0.0
H857 H 0.44383 0.01355 0.29626 0.0
H858 H 0.46729 0.97598 0.19622 0.0
H859 H 0.49601 0.01513 0.2896 0.0
H860 H 0.56914 0.9781 0.28122 0.0
H861 H 0.51796 0.97927 0.2868 0.0
H862 H 0.52515 1.01006 0.19055 0.0
H863 H 0.575 1.00685 0.18443 0.0
C864 C 0.43297 0.98478 0.22147 0.0
C865 C 0.4255 0.99515 0.24962 0.0
C866 C 0.46276 0.98489 0.21796 0.0
C867 C 0.48593 0.99549 0.24246 0.0
C868 C 0.47866 1.00636 0.27037 0.0
C869 C 0.44885 1.00603 0.27396 0.0
C870 C 0.55971 0.98491 0.26119 0.0
C871 C 0.57644 0.99251 0.23243 0.0
C872 C 0.5305 0.98597 0.26447 0.0
C873 C 0.51732 0.99482 0.23912 0.0
C874 C 0.53425 1.00275 0.21049 0.0
C875 C 0.56328 1.00146 0.20715 0.0
H876 H 0.35379 0.4101 0.73374 0.0
H877 H 0.33402 0.31097 0.75073 0.0
H878 H 0.35894 0.40307 0.67816 0.0
H879 H 0.33908 0.30388 0.69479 0.0
H880 H 0.32213 0.29498 0.58823 0.0
H881 H 0.31252 0.30052 0.64353 0.0
H882 H 0.3983 0.39788 0.64452 0.0
H883 H 0.40726 0.39269 0.58931 0.0
C884 C 0.3508 0.38688 0.72569 0.0
C885 C 0.34389 0.36124 0.74679 0.0
C886 C 0.35366 0.38282 0.69377 0.0
C887 C 0.34965 0.35302 0.68211 0.0
C888 C 0.34199 0.32705 0.70305 0.0
C889 C 0.33915 0.33112 0.73508 0.0
C890 C 0.33863 0.3177 0.6002 0.0
C891 C 0.36547 0.34342 0.58442 0.0
C892 C 0.33335 0.32073 0.63192 0.0
C893 C 0.35466 0.34963 0.64837 0.0
C894 C 0.38123 0.37543 0.63244 0.0
C895 C 0.38657 0.37234 0.60087 0.0
H896 H 0.04506 0.31335 0.75544 0.0
H897 H 0.03861 0.40212 0.75554 0.0
H898 H 0.02626 0.30296 0.80973 0.0
H899 H 0.02025 0.392 0.80988 0.0
H900 H 0.95077 0.34013 0.89264 0.0
H901 H 0.97002 0.35009 0.8389 0.0
H902 H 0.047 0.32879 0.86292 0.0
H903 H 0.02838 0.31954 0.91703 0.0
C904 C 0.03951 0.33056 0.76704 0.0
C905 C 0.04321 0.35851 0.75126 0.0
C906 C 0.02907 0.32478 0.79816 0.0
C907 C 0.02176 0.34665 0.81397 0.0
C908 C 0.02545 0.37459 0.79818 0.0
C909 C 0.03622 0.38054 0.7672 0.0
C910 C 0.97203 0.3379 0.88675 0.0
C911 C 0.98804 0.32914 0.90947 0.0
C912 C 0.983 0.34355 0.85584 0.0
C913 C 1.01004 0.3403 0.84677 0.0
C914 C 0.02586 0.33116 0.86923 0.0
C915 C 1.01509 0.32579 0.90026 0.0
H916 H 0.6903 0.9846 0.90471 0.0
H917 H 0.69724 0.07658 0.93206 0.0
H918 H 0.68259 0.96715 0.95935 0.0
H919 H 0.68899 0.05895 0.98658 0.0
H920 H 0.70719 0.02891 0.08363 0.0
H921 H 0.71824 0.04667 0.02907 0.0
H922 H 0.63871 0.95192 -0.0002 0.0
H923 H 0.62806 0.93405 0.05418 0.0
C924 C 0.69032 1.00112 0.92241 0.0
C925 C 0.69424 0.03189 0.9141 0.0
C926 C 0.68565 0.99104 0.95362 0.0
C927 C 0.68515 0.01169 0.97719 0.0
C928 C 0.68952 0.04264 0.96894 0.0
C929 C 0.69387 0.05257 0.9377 0.0
C930 C 0.6923 0.01184 0.0655 0.0
C931 C 0.66667 0.98016 0.07317 0.0
C932 C 0.69843 0.02207 0.03433 0.0
C933 C 0.67929 1.00068 0.01022 0.0
C934 C 0.65401 0.96884 0.01787 0.0
C935 C 0.64769 0.95874 0.04902 0.0
H936 H 0.62965 0.69317 0.10346 0.0
H937 H 0.71303 0.68353 0.07547 0.0
H938 H 0.64054 0.68716 0.1581 0.0
H939 H 0.72422 0.67785 0.13035 0.0
H940 H 0.70244 0.6261 0.22761 0.0
H941 H 0.69501 0.63515 0.17273 0.0
H942 H 0.68432 0.71843 0.19875 0.0
H943 H 0.69139 0.70911 0.25373 0.0
C944 C 0.65025 0.68967 0.10902 0.0
C945 C 0.67037 0.68858 0.08524 0.0
C946 C 0.65669 0.6866 0.14029 0.0
C947 C 0.68321 0.68206 0.14841 0.0
C948 C 0.70348 0.68113 0.12467 0.0
C949 C 0.69724 0.68459 0.09337 0.0
C950 C 0.69836 0.64623 0.2216 0.0
C951 C 0.69725 0.66677 0.24493 0.0
C952 C 0.69448 0.65162 0.19019 0.0
C953 C 0.68907 0.67746 0.18154 0.0
C954 C 0.68824 0.69819 0.20483 0.0
C955 C 0.69249 0.69301 0.23621 0.0
H956 H 0.97744 0.69715 0.25885 0.0
H957 H 1.00478 0.62207 0.2529 0.0
H958 H 0.99334 0.70586 0.31389 0.0
H959 H 0.02264 0.63179 0.30722 0.0
H960 H 0.02064 0.63101 0.4123 0.0
H961 H 1.00335 0.62285 0.35782 0.0
H962 H 0.03633 0.72686 0.34969 0.0
H963 H 0.05167 0.73416 0.40487 0.0
C964 C 0.98739 0.68292 0.26935 0.0
C965 C 0.98979 0.65884 0.2519 0.0
C966 C 0.99667 0.68794 0.30083 0.0
C967 C 1.00919 0.66943 0.31531 0.0
C968 C 1.0123 0.64592 0.29733 0.0
C969 C 1.00233 0.64044 0.26612 0.0
C970 C 0.02406 0.65199 0.39872 0.0
C971 C 0.03742 0.68314 0.41259 0.0
C972 C 1.01442 0.64747 0.36742 0.0
C973 C 0.01865 0.67424 0.349 0.0
C974 C 0.03211 0.70551 0.36309 0.0
C975 C 0.04107 0.70982 0.39465 0.0
H976 H 0.40142 0.01451 0.57317 0.0
H977 H 0.32881 0.04535 0.56899 0.0
H978 H 0.39095 0.99763 0.51858 0.0
H979 H 0.31932 0.03027 0.51383 0.0
H980 H 0.28801 0.97237 0.42275 0.0
H981 H 0.29651 0.98716 0.47803 0.0
H982 H 0.39987 0.01775 0.46802 0.0
H983 H 0.39055 1.00117 0.41334 0.0
C984 C 0.38344 0.01795 0.5603 0.0
C985 C 0.36591 0.03115 0.57512 0.0
C986 C 0.37753 1.00851 0.52896 0.0
C987 C 0.35441 0.01276 0.51149 0.0
C988 C 0.33686 0.02604 0.52652 0.0
C989 C 0.34235 0.03484 0.55808 0.0
C990 C 0.31248 0.98236 0.43255 0.0
C991 C 0.33863 0.98557 0.414 0.0
C992 C 0.31747 0.99099 0.46417 0.0
C993 C 0.34891 1.00362 0.47775 0.0
C994 C 0.37515 1.00736 0.45878 0.0
C995 C 0.36995 0.9981 0.42737 0.0
loop_
_geom_bond_atom_site_label_1
_geom_bond_atom_site_label_2
_geom_bond_distance
_geom_bond_site_symmetry_2
_ccdc_geom_bond_type
C0 C1 1.351 . S
C0 N3 1.368 . S
C0 H5 0.931 . S
C1 C0 1.351 . S
C1 N2 1.373 . S
C1 H29 0.930 . S
N2 C1 1.373 . S
N2 C4 1.340 . S
N3 C0 1.368 . S
N3 C4 1.321 . S
N3 Co6 2.135 . S
C4 N2 1.340 . S
C4 N3 1.321 . S
C4 H28 0.930 . S
H5 C0 0.931 . S
Co6 N3 2.135 . S
Co6 N9 2.121 . S
Co6 O14 2.055 . S
Co6 O17 2.039 . S
Co6 N20 2.140 . S
C7 O8 1.227 . S
C7 O17 1.265 . S
O8 C7 1.227 . S
N9 Co6 2.121 . S
N9 C11 1.375 . S
N9 C12 1.313 . S
C10 C11 1.338 . S
C10 N13 1.377 . S
C10 H30 0.930 . S
C11 N9 1.375 . S
C11 C10 1.338 . S
C11 H15 0.931 . S
C12 N9 1.313 . S
C12 N13 1.344 . S
C12 H16 0.930 . S
N13 C10 1.377 . S
N13 C12 1.344 . S
O14 Co6 2.055 . S
O14 C18 1.253 . S
H15 C11 0.931 . S
H16 C12 0.930 . S
O17 Co6 2.039 . S
O17 C7 1.265 . S
C18 O14 1.253 . S
C18 O19 1.227 . S
O19 C18 1.227 . S
N20 Co6 2.140 . S
N20 C23 1.346 . S
N20 C24 1.345 . S
C21 C22 1.387 . S
C21 C25 1.391 . S
C22 C21 1.387 . S
C22 C23 1.369 . S
C22 H31 0.929 . S
C23 N20 1.346 . S
C23 C22 1.369 . S
C23 H26 0.928 . S
C24 N20 1.345 . S
C24 C25 1.371 . S
C24 H27 0.931 . S
C25 C21 1.391 . S
C25 C24 1.371 . S
C25 H32 0.930 . S
H26 C23 0.928 . S
H27 C24 0.931 . S
H28 C4 0.930 . S
H29 C1 0.930 . S
H30 C10 0.930 . S
H31 C22 0.929 . S
H32 C25 0.930 . S
C33 C34 1.351 . S
C33 N36 1.368 . S
C33 H38 0.931 . S
C34 C33 1.351 . S
C34 N35 1.373 . S
C34 H62 0.930 . S
N35 C34 1.373 . S
N35 C37 1.340 . S
N36 C33 1.368 . S
N36 C37 1.321 . S
N36 Co39 2.135 . S
C37 N35 1.340 . S
C37 N36 1.321 . S
C37 H61 0.930 1_455 S
H38 C33 0.931 . S
Co39 N36 2.135 . S
Co39 N42 2.121 . S
Co39 O47 2.055 . S
Co39 O50 2.039 . S
Co39 N53 2.140 . S
C40 O41 1.227 . S
C40 O50 1.265 1_655 S
O41 C40 1.227 . S
N42 Co39 2.121 . S
N42 C44 1.375 . S
N42 C45 1.313 . S
C43 C44 1.338 . S
C43 N46 1.377 . S
C43 H63 0.930 . S
C44 N42 1.375 . S
C44 C43 1.338 . S
C44 H48 0.931 . S
C45 N42 1.313 . S
C45 N46 1.344 . S
C45 H49 0.930 . S
N46 C43 1.377 . S
N46 C45 1.344 . S
O47 Co39 2.055 . S
O47 C51 1.253 . S
H48 C44 0.931 . S
H49 C45 0.930 . S
O50 Co39 2.039 . S
O50 C40 1.265 1_455 S
C51 O47 1.253 . S
C51 O52 1.227 . S
O52 C51 1.227 . S
N53 Co39 2.140 . S
N53 C56 1.346 . S
N53 C57 1.345 . S
C54 C55 1.387 . S
C54 C58 1.391 . S
C55 C54 1.387 . S
C55 C56 1.369 . S
C55 H64 0.929 . S
C56 N53 1.346 . S
C56 C55 1.369 . S
C56 H59 0.928 . S
C57 N53 1.345 . S
C57 C58 1.371 . S
C57 H60 0.931 . S
C58 C54 1.391 . S
C58 C57 1.371 . S
C58 H65 0.930 . S
H59 C56 0.928 . S
H60 C57 0.931 . S
H61 C37 0.930 1_655 S
H62 C34 0.930 . S
H63 C43 0.930 . S
H64 C55 0.929 . S
H65 C58 0.930 . S
C66 C67 1.351 . S
C66 N69 1.368 . S
C66 H71 0.931 . S
C67 C66 1.351 . S
C67 N68 1.373 . S
C67 H95 0.930 . S
N68 C67 1.373 . S
N68 C70 1.340 . S
N69 C66 1.368 . S
N69 C70 1.321 . S
N69 Co72 2.135 . S
C70 N68 1.340 . S
C70 N69 1.321 . S
C70 H94 0.930 1_545 S
H71 C66 0.931 . S
Co72 N69 2.135 . S
Co72 N75 2.121 . S
Co72 O80 2.055 . S
Co72 O83 2.039 . S
Co72 N86 2.140 . S
C73 O74 1.227 . S
C73 O83 1.265 1_565 S
O74 C73 1.227 . S
N75 Co72 2.121 . S
N75 C77 1.375 . S
N75 C78 1.313 . S
C76 C77 1.338 . S
C76 N79 1.377 . S
C76 H96 0.930 . S
C77 N75 1.375 . S
C77 C76 1.338 . S
C77 H81 0.931 . S
C78 N75 1.313 . S
C78 N79 1.344 . S
C78 H82 0.930 . S
N79 C76 1.377 . S
N79 C78 1.344 . S
O80 Co72 2.055 . S
O80 C84 1.253 . S
H81 C77 0.931 . S
H82 C78 0.930 . S
O83 Co72 2.039 . S
O83 C73 1.265 1_545 S
C84 O80 1.253 . S
C84 O85 1.227 . S
O85 C84 1.227 . S
N86 Co72 2.140 . S
N86 C89 1.346 . S
N86 C90 1.345 . S
C87 C88 1.387 . S
C87 C91 1.391 . S
C88 C87 1.387 . S
C88 C89 1.369 . S
C88 H97 0.929 . S
C89 N86 1.346 . S
C89 C88 1.369 . S
C89 H92 0.928 . S
C90 N86 1.345 . S
C90 C91 1.371 . S
C90 H93 0.931 . S
C91 C87 1.391 . S
C91 C90 1.371 . S
C91 H98 0.930 . S
H92 C89 0.928 . S
H93 C90 0.931 . S
H94 C70 0.930 1_565 S
H95 C67 0.930 . S
H96 C76 0.930 . S
H97 C88 0.929 . S
H98 C91 0.930 . S
C99 C100 1.351 . S
C99 N102 1.368 . S
C99 H104 0.931 . S
C100 C99 1.351 . S
C100 N101 1.373 . S
C100 H128 0.930 . S
N101 C100 1.373 . S
N101 C103 1.340 . S
N102 C99 1.368 . S
N102 C103 1.321 . S
N102 Co105 2.135 1_554 S
C103 N101 1.340 . S
C103 N102 1.321 . S
C103 H127 0.930 . S
H104 C99 0.931 . S
Co105 N102 2.135 1_556 S
Co105 N108 2.121 . S
Co105 O113 2.055 1_556 S
Co105 O116 2.039 . S
Co105 N119 2.140 . S
C106 O107 1.227 . S
C106 O116 1.265 . S
O107 C106 1.227 . S
N108 Co105 2.121 . S
N108 C110 1.375 . S
N108 C111 1.313 . S
C109 C110 1.338 . S
C109 N112 1.377 . S
C109 H129 0.930 . S
C110 N108 1.375 . S
C110 C109 1.338 . S
C110 H114 0.931 . S
C111 N108 1.313 . S
C111 N112 1.344 . S
C111 H115 0.930 . S
N112 C109 1.377 . S
N112 C111 1.344 . S
O113 Co105 2.055 1_554 S
O113 C117 1.253 . S
H114 C110 0.931 . S
H115 C111 0.930 . S
O116 Co105 2.039 . S
O116 C106 1.265 . S
C117 O113 1.253 . S
C117 O118 1.227 1_554 S
O118 C117 1.227 1_556 S
N119 Co105 2.140 . S
N119 C122 1.346 . S
N119 C123 1.345 . S
C120 C121 1.387 . S
C120 C124 1.391 . S
C121 C120 1.387 . S
C121 C122 1.369 . S
C121 H130 0.929 . S
C122 N119 1.346 . S
C122 C121 1.369 . S
C122 H125 0.928 . S
C123 N119 1.345 . S
C123 C124 1.371 . S
C123 H126 0.931 . S
C124 C120 1.391 . S
C124 C123 1.371 . S
C124 H131 0.930 . S
H125 C122 0.928 . S
H126 C123 0.931 . S
H127 C103 0.930 . S
H128 C100 0.930 . S
H129 C109 0.930 . S
H130 C121 0.929 . S
H131 C124 0.930 . S
C132 C133 1.351 . S
C132 N135 1.368 . S
C132 H137 0.931 . S
C133 C132 1.351 . S
C133 N134 1.373 . S
C133 H161 0.930 . S
N134 C133 1.373 . S
N134 C136 1.340 . S
N135 C132 1.368 . S
N135 C136 1.321 . S
N135 Co138 2.135 . S
C136 N134 1.340 . S
C136 N135 1.321 . S
C136 H160 0.930 1_655 S
H137 C132 0.931 . S
Co138 N135 2.135 . S
Co138 N141 2.121 . S
Co138 O146 2.055 . S
Co138 O149 2.039 . S
Co138 N152 2.140 . S
C139 O140 1.227 . S
C139 O149 1.265 1_455 S
O140 C139 1.227 . S
N141 Co138 2.121 . S
N141 C143 1.375 . S
N141 C144 1.313 . S
C142 C143 1.338 . S
C142 N145 1.377 . S
C142 H162 0.930 . S
C143 N141 1.375 . S
C143 C142 1.338 . S
C143 H147 0.931 . S
C144 N141 1.313 . S
C144 N145 1.344 . S
C144 H148 0.930 . S
N145 C142 1.377 . S
N145 C144 1.344 . S
O146 Co138 2.055 . S
O146 C150 1.253 . S
H147 C143 0.931 . S
H148 C144 0.930 . S
O149 Co138 2.039 . S
O149 C139 1.265 1_655 S
C150 O146 1.253 . S
C150 O151 1.227 . S
O151 C150 1.227 . S
N152 Co138 2.140 . S
N152 C155 1.346 . S
N152 C156 1.345 . S
C153 C154 1.387 . S
C153 C157 1.391 . S
C154 C153 1.387 . S
C154 C155 1.369 . S
C154 H163 0.929 . S
C155 N152 1.346 . S
C155 C154 1.369 . S
C155 H158 0.928 . S
C156 N152 1.345 . S
C156 C157 1.371 . S
C156 H159 0.931 . S
C157 C153 1.391 . S
C157 C156 1.371 . S
C157 H164 0.930 . S
H158 C155 0.928 . S
H159 C156 0.931 . S
H160 C136 0.930 1_455 S
H161 C133 0.930 . S
H162 C142 0.930 . S
H163 C154 0.929 . S
H164 C157 0.930 . S
C165 C166 1.351 . S
C165 N168 1.368 . S
C165 H170 0.931 . S
C166 C165 1.351 . S
C166 N167 1.373 . S
C166 H194 0.930 . S
N167 C166 1.373 . S
N167 C169 1.340 . S
N168 C165 1.368 . S
N168 C169 1.321 . S
N168 Co171 2.135 . S
C169 N167 1.340 . S
C169 N168 1.321 . S
C169 H193 0.930 1_565 S
H170 C165 0.931 . S
Co171 N168 2.135 . S
Co171 N174 2.121 . S
Co171 O179 2.055 . S
Co171 O182 2.039 . S
Co171 N185 2.140 . S
C172 O173 1.227 . S
C172 O182 1.265 1_545 S
O173 C172 1.227 . S
N174 Co171 2.121 . S
N174 C176 1.375 . S
N174 C177 1.313 . S
C175 C176 1.338 . S
C175 N178 1.377 . S
C175 H195 0.930 . S
C176 N174 1.375 . S
C176 C175 1.338 . S
C176 H180 0.931 . S
C177 N174 1.313 . S
C177 N178 1.344 . S
C177 H181 0.930 . S
N178 C175 1.377 . S
N178 C177 1.344 . S
O179 Co171 2.055 . S
O179 C183 1.253 . S
H180 C176 0.931 . S
H181 C177 0.930 . S
O182 Co171 2.039 . S
O182 C172 1.265 1_565 S
C183 O179 1.253 . S
C183 O184 1.227 . S
O184 C183 1.227 . S
N185 Co171 2.140 . S
N185 C188 1.346 . S
N185 C189 1.345 . S
C186 C187 1.387 . S
C186 C190 1.391 . S
C187 C186 1.387 . S
C187 C188 1.369 . S
C187 H196 0.929 . S
C188 N185 1.346 . S
C188 C187 1.369 . S
C188 H191 0.928 . S
C189 N185 1.345 . S
C189 C190 1.371 . S
C189 H192 0.931 . S
C190 C186 1.391 . S
C190 C189 1.371 . S
C190 H197 0.930 . S
H191 C188 0.928 . S
H192 C189 0.931 . S
H193 C169 0.930 1_545 S
H194 C166 0.930 . S
H195 C175 0.930 . S
H196 C187 0.929 . S
H197 C190 0.930 . S
C198 C199 1.351 . S
C198 N201 1.368 . S
C198 H203 0.931 . S
C199 C198 1.351 . S
C199 N200 1.373 . S
C199 H227 0.930 . S
N200 C199 1.373 . S
N200 C202 1.340 . S
N201 C198 1.368 . S
N201 C202 1.321 . S
N201 Co204 2.135 . S
C202 N200 1.340 . S
C202 N201 1.321 . S
C202 H226 0.930 . S
H203 C198 0.931 . S
Co204 N201 2.135 . S
Co204 N207 2.121 . S
Co204 O212 2.055 . S
Co204 O215 2.039 . S
Co204 N218 2.140 . S
C205 O206 1.227 . S
C205 O215 1.265 . S
O206 C205 1.227 . S
N207 Co204 2.121 . S
N207 C209 1.375 . S
N207 C210 1.313 . S
C208 C209 1.338 . S
C208 N211 1.377 . S
C208 H228 0.930 . S
C209 N207 1.375 . S
C209 C208 1.338 . S
C209 H213 0.931 . S
C210 N207 1.313 . S
C210 N211 1.344 . S
C210 H214 0.930 . S
N211 C208 1.377 . S
N211 C210 1.344 . S
O212 Co204 2.055 . S
O212 C216 1.253 . S
H213 C209 0.931 . S
H214 C210 0.930 . S
O215 Co204 2.039 . S
O215 C205 1.265 . S
C216 O212 1.253 . S
C216 O217 1.227 . S
O217 C216 1.227 . S
N218 Co204 2.140 . S
N218 C221 1.346 . S
N218 C222 1.345 . S
C219 C220 1.387 . S
C219 C223 1.391 . S
C220 C219 1.387 . S
C220 C221 1.369 . S
C220 H229 0.929 . S
C221 N218 1.346 . S
C221 C220 1.369 . S
C221 H224 0.928 . S
C222 N218 1.345 . S
C222 C223 1.371 . S
C222 H225 0.931 . S
C223 C219 1.391 . S
C223 C222 1.371 . S
C223 H230 0.930 . S
H224 C221 0.928 . S
H225 C222 0.931 . S
H226 C202 0.930 . S
H227 C199 0.930 . S
H228 C208 0.930 . S
H229 C220 0.929 . S
H230 C223 0.930 . S
C231 C232 1.351 . S
C231 N234 1.368 . S
C231 H236 0.931 . S
C232 C231 1.351 . S
C232 N233 1.373 . S
C232 H260 0.930 . S
N233 C232 1.373 . S
N233 C235 1.340 . S
N234 C231 1.368 . S
N234 C235 1.321 . S
N234 Co237 2.135 . S
C235 N233 1.340 . S
C235 N234 1.321 . S
C235 H259 0.930 1_455 S
H236 C231 0.931 . S
Co237 N234 2.135 . S
Co237 N240 2.121 . S
Co237 O245 2.055 . S
Co237 O248 2.039 . S
Co237 N251 2.140 . S
C238 O239 1.227 . S
C238 O248 1.265 1_655 S
O239 C238 1.227 . S
N240 Co237 2.121 . S
N240 C242 1.375 . S
N240 C243 1.313 . S
C241 C242 1.338 . S
C241 N244 1.377 . S
C241 H261 0.930 . S
C242 N240 1.375 . S
C242 C241 1.338 . S
C242 H246 0.931 . S
C243 N240 1.313 . S
C243 N244 1.344 . S
C243 H247 0.930 . S
N244 C241 1.377 . S
N244 C243 1.344 . S
O245 Co237 2.055 . S
O245 C249 1.253 . S
H246 C242 0.931 . S
H247 C243 0.930 . S
O248 Co237 2.039 . S
O248 C238 1.265 1_455 S
C249 O245 1.253 . S
C249 O250 1.227 . S
O250 C249 1.227 . S
N251 Co237 2.140 . S
N251 C254 1.346 . S
N251 C255 1.345 . S
C252 C253 1.387 . S
C252 C256 1.391 . S
C253 C252 1.387 . S
C253 C254 1.369 . S
C253 H262 0.929 . S
C254 N251 1.346 . S
C254 C253 1.369 . S
C254 H257 0.928 . S
C255 N251 1.345 . S
C255 C256 1.371 . S
C255 H258 0.931 . S
C256 C252 1.391 . S
C256 C255 1.371 . S
C256 H263 0.930 . S
H257 C254 0.928 . S
H258 C255 0.931 . S
H259 C235 0.930 1_655 S
H260 C232 0.930 . S
H261 C241 0.930 . S
H262 C253 0.929 . S
H263 C256 0.930 . S
C264 C265 1.351 . S
C264 N267 1.368 . S
C264 H269 0.931 . S
C265 C264 1.351 . S
C265 N266 1.373 . S
C265 H293 0.930 . S
N266 C265 1.373 . S
N266 C268 1.340 . S
N267 C264 1.368 . S
N267 C268 1.321 . S
N267 Co270 2.135 . S
C268 N266 1.340 . S
C268 N267 1.321 . S
C268 H292 0.930 1_545 S
H269 C264 0.931 . S
Co270 N267 2.135 . S
Co270 N273 2.121 . S
Co270 O278 2.055 . S
Co270 O281 2.039 . S
Co270 N284 2.140 . S
C271 O272 1.227 . S
C271 O281 1.265 1_565 S
O272 C271 1.227 . S
N273 Co270 2.121 . S
N273 C275 1.375 . S
N273 C276 1.313 . S
C274 C275 1.338 . S
C274 N277 1.377 . S
C274 H294 0.930 . S
C275 N273 1.375 . S
C275 C274 1.338 . S
C275 H279 0.931 . S
C276 N273 1.313 . S
C276 N277 1.344 . S
C276 H280 0.930 . S
N277 C274 1.377 . S
N277 C276 1.344 . S
O278 Co270 2.055 . S
O278 C282 1.253 . S
H279 C275 0.931 . S
H280 C276 0.930 . S
O281 Co270 2.039 . S
O281 C271 1.265 1_545 S
C282 O278 1.253 . S
C282 O283 1.227 . S
O283 C282 1.227 . S
N284 Co270 2.140 . S
N284 C287 1.346 . S
N284 C288 1.345 . S
C285 C286 1.387 . S
C285 C289 1.391 . S
C286 C285 1.387 . S
C286 C287 1.369 . S
C286 H295 0.929 . S
C287 N284 1.346 . S
C287 C286 1.369 . S
C287 H290 0.928 . S
C288 N284 1.345 . S
C288 C289 1.371 . S
C288 H291 0.931 . S
C289 C285 1.391 . S
C289 C288 1.371 . S
C289 H296 0.930 . S
H290 C287 0.928 . S
H291 C288 0.931 . S
H292 C268 0.930 1_565 S
H293 C265 0.930 . S
H294 C274 0.930 . S
H295 C286 0.929 . S
H296 C289 0.930 . S
C297 C298 1.351 . S
C297 N300 1.368 . S
C297 H302 0.931 . S
C298 C297 1.351 . S
C298 N299 1.373 . S
C298 H326 0.930 . S
N299 C298 1.373 . S
N299 C301 1.340 . S
N300 C297 1.368 . S
N300 C301 1.321 . S
N300 Co303 2.135 . S
C301 N299 1.340 . S
C301 N300 1.321 . S
C301 H325 0.930 . S
H302 C297 0.931 . S
Co303 N300 2.135 . S
Co303 N306 2.121 . S
Co303 O311 2.055 . S
Co303 O314 2.039 . S
Co303 N317 2.140 . S
C304 O305 1.227 . S
C304 O314 1.265 . S
O305 C304 1.227 . S
N306 Co303 2.121 . S
N306 C308 1.375 . S
N306 C309 1.313 . S
C307 C308 1.338 . S
C307 N310 1.377 . S
C307 H327 0.930 . S
C308 N306 1.375 . S
C308 C307 1.338 . S
C308 H312 0.931 . S
C309 N306 1.313 . S
C309 N310 1.344 . S
C309 H313 0.930 . S
N310 C307 1.377 . S
N310 C309 1.344 . S
O311 Co303 2.055 . S
O311 C315 1.253 . S
H312 C308 0.931 . S
H313 C309 0.930 . S
O314 Co303 2.039 . S
O314 C304 1.265 . S
C315 O311 1.253 . S
C315 O316 1.227 . S
O316 C315 1.227 . S
N317 Co303 2.140 . S
N317 C320 1.346 . S
N317 C321 1.345 . S
C318 C319 1.387 . S
C318 C322 1.391 . S
C319 C318 1.387 . S
C319 C320 1.369 . S
C319 H328 0.929 . S
C320 N317 1.346 . S
C320 C319 1.369 . S
C320 H323 0.928 . S
C321 N317 1.345 . S
C321 C322 1.371 . S
C321 H324 0.931 . S
C322 C318 1.391 . S
C322 C321 1.371 . S
C322 H329 0.930 . S
H323 C320 0.928 . S
H324 C321 0.931 . S
H325 C301 0.930 . S
H326 C298 0.930 . S
H327 C307 0.930 . S
H328 C319 0.929 . S
H329 C322 0.930 . S
C330 C331 1.351 . S
C330 N333 1.368 . S
C330 H335 0.931 . S
C331 C330 1.351 . S
C331 N332 1.373 . S
C331 H359 0.930 . S
N332 C331 1.373 . S
N332 C334 1.340 . S
N333 C330 1.368 . S
N333 C334 1.321 . S
N333 Co336 2.135 1_556 S
C334 N332 1.340 . S
C334 N333 1.321 . S
C334 H358 0.930 1_655 S
H335 C330 0.931 . S
Co336 N333 2.135 1_554 S
Co336 N339 2.121 . S
Co336 O344 2.055 1_554 S
Co336 O347 2.039 . S
Co336 N350 2.140 . S
C337 O338 1.227 . S
C337 O347 1.265 1_455 S
O338 C337 1.227 . S
N339 Co336 2.121 . S
N339 C341 1.375 . S
N339 C342 1.313 . S
C340 C341 1.338 . S
C340 N343 1.377 . S
C340 H360 0.930 . S
C341 N339 1.375 . S
C341 C340 1.338 . S
C341 H345 0.931 . S
C342 N339 1.313 . S
C342 N343 1.344 . S
C342 H346 0.930 . S
N343 C340 1.377 . S
N343 C342 1.344 . S
O344 Co336 2.055 1_556 S
O344 C348 1.253 . S
H345 C341 0.931 . S
H346 C342 0.930 . S
O347 Co336 2.039 . S
O347 C337 1.265 1_655 S
C348 O344 1.253 . S
C348 O349 1.227 1_556 S
O349 C348 1.227 1_554 S
N350 Co336 2.140 . S
N350 C353 1.346 . S
N350 C354 1.345 . S
C351 C352 1.387 . S
C351 C355 1.391 . S
C352 C351 1.387 . S
C352 C353 1.369 . S
C352 H361 0.929 . S
C353 N350 1.346 . S
C353 C352 1.369 . S
C353 H356 0.928 . S
C354 N350 1.345 . S
C354 C355 1.371 . S
C354 H357 0.931 . S
C355 C351 1.391 . S
C355 C354 1.371 . S
C355 H362 0.930 . S
H356 C353 0.928 . S
H357 C354 0.931 . S
H358 C334 0.930 1_455 S
H359 C331 0.930 . S
H360 C340 0.930 . S
H361 C352 0.929 . S
H362 C355 0.930 . S
C363 C364 1.351 . S
C363 N366 1.368 . S
C363 H368 0.931 . S
C364 C363 1.351 . S
C364 N365 1.373 . S
C364 H392 0.930 . S
N365 C364 1.373 . S
N365 C367 1.340 . S
N366 C363 1.368 . S
N366 C367 1.321 . S
N366 Co369 2.135 . S
C367 N365 1.340 . S
C367 N366 1.321 . S
C367 H391 0.930 1_565 S
H368 C363 0.931 . S
Co369 N366 2.135 . S
Co369 N372 2.121 . S
Co369 O377 2.055 . S
Co369 O380 2.039 . S
Co369 N383 2.140 . S
C370 O371 1.227 . S
C370 O380 1.265 1_545 S
O371 C370 1.227 . S
N372 Co369 2.121 . S
N372 C374 1.375 . S
N372 C375 1.313 . S
C373 C374 1.338 . S
C373 N376 1.377 . S
C373 H393 0.930 . S
C374 N372 1.375 . S
C374 C373 1.338 . S
C374 H378 0.931 . S
C375 N372 1.313 . S
C375 N376 1.344 . S
C375 H379 0.930 . S
N376 C373 1.377 . S
N376 C375 1.344 . S
O377 Co369 2.055 . S
O377 C381 1.253 . S
H378 C374 0.931 . S
H379 C375 0.930 . S
O380 Co369 2.039 . S
O380 C370 1.265 1_565 S
C381 O377 1.253 . S
C381 O382 1.227 . S
O382 C381 1.227 . S
N383 Co369 2.140 . S
N383 C386 1.346 . S
N383 C387 1.345 . S
C384 C385 1.387 . S
C384 C388 1.391 . S
C385 C384 1.387 . S
C385 C386 1.369 . S
C385 H394 0.929 . S
C386 N383 1.346 . S
C386 C385 1.369 . S
C386 H389 0.928 . S
C387 N383 1.345 . S
C387 C388 1.371 . S
C387 H390 0.931 . S
C388 C384 1.391 . S
C388 C387 1.371 . S
C388 H395 0.930 . S
H389 C386 0.928 . S
H390 C387 0.931 . S
H391 C367 0.930 1_545 S
H392 C364 0.930 . S
H393 C373 0.930 . S
H394 C385 0.929 . S
H395 C388 0.930 . S
H396 C404 0.950 . S
H397 C409 0.950 . S
H398 C406 0.950 . S
H399 C408 0.950 . S
H400 C410 0.950 . S
H401 C412 0.950 . S
H402 C414 0.950 . S
H403 C415 0.950 . S
C404 H396 0.950 . S
C404 C405 1.386 . S
C404 C406 1.391 . S
C405 C404 1.386 . S
C405 C409 1.393 . S
C406 H398 0.950 . S
C406 C404 1.391 . S
C406 C407 1.400 . S
C407 C406 1.400 . S
C407 C408 1.398 . S
C407 C413 1.491 . S
C408 H399 0.950 . S
C408 C407 1.398 . S
C408 C409 1.391 . S
C409 H397 0.950 . S
C409 C405 1.393 . S
C409 C408 1.391 . S
C410 H400 0.950 . S
C410 C411 1.386 . S
C410 C412 1.391 . S
C411 C410 1.386 . S
C411 C415 1.393 . S
C412 H401 0.950 . S
C412 C410 1.391 . S
C412 C413 1.400 . S
C413 C407 1.491 . S
C413 C412 1.400 . S
C413 C414 1.398 . S
C414 H402 0.950 . S
C414 C413 1.398 . S
C414 C415 1.391 . S
C415 H403 0.950 . S
C415 C411 1.393 . S
C415 C414 1.391 . S
H416 C424 0.950 . S
H417 C429 0.950 . S
H418 C426 0.950 . S
H419 C428 0.950 . S
H420 C430 0.950 . S
H421 C432 0.950 . S
H422 C434 0.950 . S
H423 C435 0.950 . S
C424 H416 0.950 . S
C424 C425 1.386 . S
C424 C426 1.391 . S
C425 C424 1.386 . S
C425 C429 1.393 . S
C426 H418 0.950 . S
C426 C424 1.391 . S
C426 C427 1.400 . S
C427 C426 1.400 . S
C427 C428 1.398 . S
C427 C433 1.491 . S
C428 H419 0.950 . S
C428 C427 1.398 . S
C428 C429 1.391 . S
C429 H417 0.950 . S
C429 C425 1.393 . S
C429 C428 1.391 . S
C430 H420 0.950 . S
C430 C431 1.386 . S
C430 C432 1.391 . S
C431 C430 1.386 . S
C431 C435 1.393 . S
C432 H421 0.950 . S
C432 C430 1.391 . S
C432 C433 1.400 . S
C433 C427 1.491 . S
C433 C432 1.400 . S
C433 C434 1.398 . S
C434 H422 0.950 . S
C434 C433 1.398 . S
C434 C435 1.391 . S
C435 H423 0.950 . S
C435 C431 1.393 . S
C435 C434 1.391 . S
H436 C444 0.950 . S
H437 C449 0.950 . S
H438 C446 0.950 . S
H439 C448 0.950 . S
H440 C450 0.950 1_554 S
H441 C452 0.950 . S
H442 C454 0.950 . S
H443 C455 0.950 . S
C444 H436 0.950 . S
C444 C445 1.386 . S
C444 C446 1.391 . S
C445 C444 1.386 . S
C445 C449 1.393 . S
C446 H438 0.950 . S
C446 C444 1.391 . S
C446 C447 1.400 . S
C447 C446 1.400 . S
C447 C448 1.398 . S
C447 C453 1.491 . S
C448 H439 0.950 . S
C448 C447 1.398 . S
C448 C449 1.391 . S
C449 H437 0.950 . S
C449 C445 1.393 . S
C449 C448 1.391 . S
C450 H440 0.950 1_556 S
C450 C451 1.386 . S
C450 C452 1.391 . S
C451 C450 1.386 . S
C451 C455 1.393 . S
C452 H441 0.950 . S
C452 C450 1.391 . S
C452 C453 1.400 . S
C453 C447 1.491 . S
C453 C452 1.400 . S
C453 C454 1.398 . S
C454 H442 0.950 . S
C454 C453 1.398 . S
C454 C455 1.391 . S
C455 H443 0.950 . S
C455 C451 1.393 . S
C455 C454 1.391 . S
H456 C464 0.950 . S
H457 C469 0.950 1_556 S
H458 C466 0.950 . S
H459 C468 0.950 . S
H460 C470 0.950 . S
H461 C472 0.950 . S
H462 C474 0.950 . S
H463 C475 0.950 . S
C464 H456 0.950 . S
C464 C465 1.386 . S
C464 C466 1.391 . S
C465 C464 1.386 . S
C465 C469 1.393 . S
C466 H458 0.950 . S
C466 C464 1.391 . S
C466 C467 1.400 . S
C467 C466 1.400 . S
C467 C468 1.398 . S
C467 C473 1.491 . S
C468 H459 0.950 . S
C468 C467 1.398 . S
C468 C469 1.391 . S
C469 H457 0.950 1_554 S
C469 C465 1.393 . S
C469 C468 1.391 . S
C470 H460 0.950 . S
C470 C471 1.386 . S
C470 C472 1.391 . S
C471 C470 1.386 . S
C471 C475 1.393 . S
C472 H461 0.950 . S
C472 C470 1.391 . S
C472 C473 1.400 . S
C473 C467 1.491 . S
C473 C472 1.400 . S
C473 C474 1.398 . S
C474 H462 0.950 . S
C474 C473 1.398 . S
C474 C475 1.391 . S
C475 H463 0.950 . S
C475 C471 1.393 . S
C475 C474 1.391 . S
H476 C484 0.950 . S
H477 C489 0.950 . S
H478 C486 0.950 . S
H479 C488 0.950 . S
H480 C490 0.950 . S
H481 C492 0.950 . S
H482 C494 0.950 . S
H483 C495 0.950 . S
C484 H476 0.950 . S
C484 C485 1.386 . S
C484 C486 1.391 . S
C485 C484 1.386 . S
C485 C489 1.393 . S
C486 H478 0.950 . S
C486 C484 1.391 . S
C486 C487 1.400 . S
C487 C486 1.400 . S
C487 C488 1.398 . S
C487 C493 1.491 . S
C488 H479 0.950 . S
C488 C487 1.398 . S
C488 C489 1.391 . S
C489 H477 0.950 . S
C489 C485 1.393 . S
C489 C488 1.391 . S
C490 H480 0.950 . S
C490 C491 1.386 . S
C490 C492 1.391 . S
C491 C490 1.386 . S
C491 C495 1.393 . S
C492 H481 0.950 . S
C492 C490 1.391 . S
C492 C493 1.400 . S
C493 C487 1.491 . S
C493 C492 1.400 . S
C493 C494 1.398 . S
C494 H482 0.950 . S
C494 C493 1.398 . S
C494 C495 1.391 . S
C495 H483 0.950 . S
C495 C491 1.393 . S
C495 C494 1.391 . S
H496 C504 0.950 . S
H497 C509 0.950 . S
H498 C506 0.950 . S
H499 C508 0.950 . S
H500 C510 0.950 . S
H501 C512 0.950 . S
H502 C514 0.950 . S
H503 C515 0.950 . S
C504 H496 0.950 . S
C504 C505 1.386 . S
C504 C506 1.391 . S
C505 C504 1.386 . S
C505 C509 1.393 . S
C506 H498 0.950 . S
C506 C504 1.391 . S
C506 C507 1.400 . S
C507 C506 1.400 . S
C507 C508 1.398 . S
C507 C513 1.491 . S
C508 H499 0.950 . S
C508 C507 1.398 . S
C508 C509 1.391 . S
C509 H497 0.950 . S
C509 C505 1.393 . S
C509 C508 1.391 . S
C510 H500 0.950 . S
C510 C511 1.386 . S
C510 C512 1.391 . S
C511 C510 1.386 . S
C511 C515 1.393 . S
C512 H501 0.950 . S
C512 C510 1.391 . S
C512 C513 1.400 . S
C513 C507 1.491 . S
C513 C512 1.400 . S
C513 C514 1.398 . S
C514 H502 0.950 . S
C514 C513 1.398 . S
C514 C515 1.391 . S
C515 H503 0.950 . S
C515 C511 1.393 . S
C515 C514 1.391 . S
H516 C524 0.950 . S
H517 C529 0.950 . S
H518 C526 0.950 . S
H519 C528 0.950 . S
H520 C530 0.950 . S
H521 C532 0.950 . S
H522 C534 0.950 . S
H523 C535 0.950 . S
C524 H516 0.950 . S
C524 C525 1.386 . S
C524 C526 1.391 . S
C525 C524 1.386 . S
C525 C529 1.393 . S
C526 H518 0.950 . S
C526 C524 1.391 . S
C526 C527 1.400 . S
C527 C526 1.400 . S
C527 C528 1.398 . S
C527 C533 1.491 . S
C528 H519 0.950 . S
C528 C527 1.398 . S
C528 C529 1.391 . S
C529 H517 0.950 . S
C529 C525 1.393 . S
C529 C528 1.391 . S
C530 H520 0.950 . S
C530 C531 1.386 . S
C530 C532 1.391 . S
C531 C530 1.386 . S
C531 C535 1.393 . S
C532 H521 0.950 . S
C532 C530 1.391 . S
C532 C533 1.400 . S
C533 C527 1.491 . S
C533 C532 1.400 . S
C533 C534 1.398 . S
C534 H522 0.950 . S
C534 C533 1.398 . S
C534 C535 1.391 . S
C535 H523 0.950 . S
C535 C531 1.393 . S
C535 C534 1.391 . S
H536 C544 0.950 . S
H537 C549 0.950 . S
H538 C546 0.950 . S
H539 C548 0.950 . S
H540 C550 0.950 . S
H541 C552 0.950 . S
H542 C554 0.950 . S
H543 C555 0.950 . S
C544 H536 0.950 . S
C544 C545 1.386 . S
C544 C546 1.391 . S
C545 C544 1.386 . S
C545 C549 1.393 . S
C546 H538 0.950 . S
C546 C544 1.391 . S
C546 C547 1.400 . S
C547 C546 1.400 . S
C547 C548 1.398 . S
C547 C553 1.491 . S
C548 H539 0.950 . S
C548 C547 1.398 . S
C548 C549 1.391 . S
C549 H537 0.950 . S
C549 C545 1.393 . S
C549 C548 1.391 . S
C550 H540 0.950 . S
C550 C551 1.386 . S
C550 C552 1.391 . S
C551 C550 1.386 . S
C551 C555 1.393 . S
C552 H541 0.950 . S
C552 C550 1.391 . S
C552 C553 1.400 . S
C553 C547 1.491 . S
C553 C552 1.400 . S
C553 C554 1.398 . S
C554 H542 0.950 . S
C554 C553 1.398 . S
C554 C555 1.391 . S
C555 H543 0.950 . S
C555 C551 1.393 . S
C555 C554 1.391 . S
H556 C564 0.950 . S
H557 C569 0.950 . S
H558 C566 0.950 . S
H559 C568 0.950 . S
H560 C570 0.950 . S
H561 C572 0.950 . S
H562 C574 0.950 . S
H563 C575 0.950 . S
C564 H556 0.950 . S
C564 C565 1.386 . S
C564 C566 1.391 . S
C565 C564 1.386 . S
C565 C569 1.393 . S
C566 H558 0.950 . S
C566 C564 1.391 . S
C566 C567 1.400 . S
C567 C566 1.400 . S
C567 C568 1.398 . S
C567 C573 1.491 . S
C568 H559 0.950 . S
C568 C567 1.398 . S
C568 C569 1.391 . S
C569 H557 0.950 . S
C569 C565 1.393 . S
C569 C568 1.391 . S
C570 H560 0.950 . S
C570 C571 1.386 . S
C570 C572 1.391 . S
C571 C570 1.386 . S
C571 C575 1.393 . S
C572 H561 0.950 . S
C572 C570 1.391 . S
C572 C573 1.400 . S
C573 C567 1.491 . S
C573 C572 1.400 . S
C573 C574 1.398 . S
C574 H562 0.950 . S
C574 C573 1.398 . S
C574 C575 1.391 . S
C575 H563 0.950 . S
C575 C571 1.393 . S
C575 C574 1.391 . S
H576 C584 0.950 . S
H577 C589 0.950 . S
H578 C586 0.950 . S
H579 C588 0.950 . S
H580 C590 0.950 . S
H581 C592 0.950 . S
H582 C594 0.950 . S
H583 C595 0.950 . S
C584 H576 0.950 . S
C584 C585 1.386 . S
C584 C586 1.391 . S
C585 C584 1.386 . S
C585 C589 1.393 . S
C586 H578 0.950 . S
C586 C584 1.391 . S
C586 C587 1.400 . S
C587 C586 1.400 . S
C587 C588 1.398 . S
C587 C593 1.491 . S
C588 H579 0.950 . S
C588 C587 1.398 . S
C588 C589 1.391 . S
C589 H577 0.950 . S
C589 C585 1.393 . S
C589 C588 1.391 . S
C590 H580 0.950 . S
C590 C591 1.386 . S
C590 C592 1.391 . S
C591 C590 1.386 . S
C591 C595 1.393 . S
C592 H581 0.950 . S
C592 C590 1.391 . S
C592 C593 1.400 . S
C593 C587 1.491 . S
C593 C592 1.400 . S
C593 C594 1.398 . S
C594 H582 0.950 . S
C594 C593 1.398 . S
C594 C595 1.391 . S
C595 H583 0.950 . S
C595 C591 1.393 . S
C595 C594 1.391 . S
H596 C604 0.950 . S
H597 C609 0.950 . S
H598 C606 0.950 . S
H599 C608 0.950 . S
H600 C610 0.950 . S
H601 C612 0.950 . S
H602 C614 0.950 . S
H603 C615 0.950 . S
C604 H596 0.950 . S
C604 C605 1.386 1_554 S
C604 C606 1.391 . S
C605 C604 1.386 1_556 S
C605 C609 1.393 . S
C606 H598 0.950 . S
C606 C604 1.391 . S
C606 C607 1.400 . S
C607 C606 1.400 . S
C607 C608 1.398 1_554 S
C607 C613 1.491 . S
C608 H599 0.950 . S
C608 C607 1.398 1_556 S
C608 C609 1.391 . S
C609 H597 0.950 . S
C609 C605 1.393 . S
C609 C608 1.391 . S
C610 H600 0.950 . S
C610 C611 1.386 . S
C610 C612 1.391 . S
C611 C610 1.386 . S
C611 C615 1.393 . S
C612 H601 0.950 . S
C612 C610 1.391 . S
C612 C613 1.400 . S
C613 C607 1.491 . S
C613 C612 1.400 . S
C613 C614 1.398 . S
C614 H602 0.950 . S
C614 C613 1.398 . S
C614 C615 1.391 . S
C615 H603 0.950 . S
C615 C611 1.393 . S
C615 C614 1.391 . S
H616 C624 0.950 . S
H617 C629 0.950 . S
H618 C626 0.950 . S
H619 C628 0.950 . S
H620 C630 0.950 . S
H621 C632 0.950 . S
H622 C634 0.950 . S
H623 C635 0.950 . S
C624 H616 0.950 . S
C624 C625 1.386 . S
C624 C626 1.391 . S
C625 C624 1.386 . S
C625 C629 1.393 . S
C626 H618 0.950 . S
C626 C624 1.391 . S
C626 C627 1.400 . S
C627 C626 1.400 . S
C627 C628 1.398 . S
C627 C633 1.491 . S
C628 H619 0.950 . S
C628 C627 1.398 . S
C628 C629 1.391 . S
C629 H617 0.950 . S
C629 C625 1.393 . S
C629 C628 1.391 . S
C630 H620 0.950 . S
C630 C631 1.386 . S
C630 C632 1.391 . S
C631 C630 1.386 . S
C631 C635 1.393 . S
C632 H621 0.950 . S
C632 C630 1.391 . S
C632 C633 1.400 . S
C633 C627 1.491 . S
C633 C632 1.400 . S
C633 C634 1.398 . S
C634 H622 0.950 . S
C634 C633 1.398 . S
C634 C635 1.391 . S
C635 H623 0.950 . S
C635 C631 1.393 . S
C635 C634 1.391 . S
H636 C644 0.950 . S
H637 C649 0.950 . S
H638 C646 0.950 . S
H639 C648 0.950 . S
H640 C650 0.950 . S
H641 C652 0.950 . S
H642 C654 0.950 . S
H643 C655 0.950 . S
C644 H636 0.950 . S
C644 C645 1.386 . S
C644 C646 1.391 . S
C645 C644 1.386 . S
C645 C649 1.393 . S
C646 H638 0.950 . S
C646 C644 1.391 . S
C646 C647 1.400 . S
C647 C646 1.400 . S
C647 C648 1.398 . S
C647 C653 1.491 . S
C648 H639 0.950 . S
C648 C647 1.398 . S
C648 C649 1.391 . S
C649 H637 0.950 . S
C649 C645 1.393 . S
C649 C648 1.391 . S
C650 H640 0.950 . S
C650 C651 1.386 . S
C650 C652 1.391 . S
C651 C650 1.386 . S
C651 C655 1.393 . S
C652 H641 0.950 . S
C652 C650 1.391 . S
C652 C653 1.400 . S
C653 C647 1.491 . S
C653 C652 1.400 . S
C653 C654 1.398 . S
C654 H642 0.950 . S
C654 C653 1.398 . S
C654 C655 1.391 . S
C655 H643 0.950 . S
C655 C651 1.393 . S
C655 C654 1.391 . S
H656 C664 0.950 . S
H657 C669 0.950 . S
H658 C666 0.950 . S
H659 C668 0.950 . S
H660 C670 0.950 . S
H661 C672 0.950 . S
H662 C674 0.950 . S
H663 C675 0.950 . S
C664 H656 0.950 . S
C664 C665 1.386 . S
C664 C666 1.391 . S
C665 C664 1.386 . S
C665 C669 1.393 . S
C666 H658 0.950 . S
C666 C664 1.391 . S
C666 C667 1.400 . S
C667 C666 1.400 . S
C667 C668 1.398 . S
C667 C673 1.491 . S
C668 H659 0.950 . S
C668 C667 1.398 . S
C668 C669 1.391 . S
C669 H657 0.950 . S
C669 C665 1.393 . S
C669 C668 1.391 . S
C670 H660 0.950 . S
C670 C671 1.386 . S
C670 C672 1.391 . S
C671 C670 1.386 . S
C671 C675 1.393 . S
C672 H661 0.950 . S
C672 C670 1.391 . S
C672 C673 1.400 . S
C673 C667 1.491 . S
C673 C672 1.400 . S
C673 C674 1.398 . S
C674 H662 0.950 . S
C674 C673 1.398 . S
C674 C675 1.391 . S
C675 H663 0.950 . S
C675 C671 1.393 . S
C675 C674 1.391 . S
H676 C684 0.950 . S
H677 C689 0.950 . S
H678 C686 0.950 . S
H679 C688 0.950 . S
H680 C690 0.950 . S
H681 C692 0.950 . S
H682 C694 0.950 . S
H683 C695 0.950 . S
C684 H676 0.950 . S
C684 C685 1.386 . S
C684 C686 1.391 . S
C685 C684 1.386 . S
C685 C689 1.393 . S
C686 H678 0.950 . S
C686 C684 1.391 . S
C686 C687 1.400 . S
C687 C686 1.400 . S
C687 C688 1.398 . S
C687 C693 1.491 . S
C688 H679 0.950 . S
C688 C687 1.398 . S
C688 C689 1.391 . S
C689 H677 0.950 . S
C689 C685 1.393 . S
C689 C688 1.391 . S
C690 H680 0.950 . S
C690 C691 1.386 . S
C690 C692 1.391 . S
C691 C690 1.386 . S
C691 C695 1.393 . S
C692 H681 0.950 . S
C692 C690 1.391 . S
C692 C693 1.400 . S
C693 C687 1.491 . S
C693 C692 1.400 . S
C693 C694 1.398 . S
C694 H682 0.950 . S
C694 C693 1.398 . S
C694 C695 1.391 . S
C695 H683 0.950 . S
C695 C691 1.393 . S
C695 C694 1.391 . S
H696 C704 0.950 . S
H697 C709 0.950 . S
H698 C706 0.950 . S
H699 C708 0.950 . S
H700 C710 0.950 . S
H701 C712 0.950 1_554 S
H702 C714 0.950 . S
H703 C715 0.950 . S
C704 H696 0.950 . S
C704 C705 1.386 1_556 S
C704 C706 1.391 . S
C705 C704 1.386 1_554 S
C705 C709 1.393 . S
C706 H698 0.950 . S
C706 C704 1.391 . S
C706 C707 1.400 . S
C707 C706 1.400 . S
C707 C708 1.398 1_556 S
C707 C713 1.491 . S
C708 H699 0.950 . S
C708 C707 1.398 1_554 S
C708 C709 1.391 . S
C709 H697 0.950 . S
C709 C705 1.393 . S
C709 C708 1.391 . S
C710 H700 0.950 . S
C710 C711 1.386 . S
C710 C712 1.391 . S
C711 C710 1.386 . S
C711 C715 1.393 . S
C712 H701 0.950 1_556 S
C712 C710 1.391 . S
C712 C713 1.400 . S
C713 C707 1.491 . S
C713 C712 1.400 . S
C713 C714 1.398 . S
C714 H702 0.950 . S
C714 C713 1.398 . S
C714 C715 1.391 . S
C715 H703 0.950 . S
C715 C711 1.393 . S
C715 C714 1.391 . S
H716 C724 0.950 . S
H717 C729 0.950 . S
H718 C726 0.950 . S
H719 C728 0.950 . S
H720 C730 0.950 . S
H721 C732 0.950 . S
H722 C734 0.950 . S
H723 C735 0.950 . S
C724 H716 0.950 . S
C724 C725 1.386 . S
C724 C726 1.391 . S
C725 C724 1.386 . S
C725 C729 1.393 . S
C726 H718 0.950 . S
C726 C724 1.391 . S
C726 C727 1.400 . S
C727 C726 1.400 . S
C727 C728 1.398 . S
C727 C733 1.491 . S
C728 H719 0.950 . S
C728 C727 1.398 . S
C728 C729 1.391 . S
C729 H717 0.950 . S
C729 C725 1.393 . S
C729 C728 1.391 . S
C730 H720 0.950 . S
C730 C731 1.386 . S
C730 C732 1.391 . S
C731 C730 1.386 . S
C731 C735 1.393 . S
C732 H721 0.950 . S
C732 C730 1.391 . S
C732 C733 1.400 . S
C733 C727 1.491 . S
C733 C732 1.400 . S
C733 C734 1.398 . S
C734 H722 0.950 . S
C734 C733 1.398 . S
C734 C735 1.391 . S
C735 H723 0.950 . S
C735 C731 1.393 . S
C735 C734 1.391 . S
H736 C744 0.950 . S
H737 C749 0.950 . S
H738 C746 0.950 . S
H739 C748 0.950 . S
H740 C750 0.950 . S
H741 C752 0.950 . S
H742 C754 0.950 . S
H743 C755 0.950 . S
C744 H736 0.950 . S
C744 C745 1.386 . S
C744 C746 1.391 . S
C745 C744 1.386 . S
C745 C749 1.393 . S
C746 H738 0.950 . S
C746 C744 1.391 . S
C746 C747 1.400 . S
C747 C746 1.400 . S
C747 C748 1.398 . S
C747 C753 1.491 . S
C748 H739 0.950 . S
C748 C747 1.398 . S
C748 C749 1.391 . S
C749 H737 0.950 . S
C749 C745 1.393 . S
C749 C748 1.391 . S
C750 H740 0.950 . S
C750 C751 1.386 . S
C750 C752 1.391 . S
C751 C750 1.386 . S
C751 C755 1.393 . S
C752 H741 0.950 . S
C752 C750 1.391 . S
C752 C753 1.400 . S
C753 C747 1.491 . S
C753 C752 1.400 . S
C753 C754 1.398 . S
C754 H742 0.950 . S
C754 C753 1.398 . S
C754 C755 1.391 . S
C755 H743 0.950 . S
C755 C751 1.393 . S
C755 C754 1.391 . S
H756 C764 0.950 . S
H757 C769 0.950 . S
H758 C766 0.950 . S
H759 C768 0.950 . S
H760 C770 0.950 . S
H761 C772 0.950 . S
H762 C774 0.950 . S
H763 C775 0.950 . S
C764 H756 0.950 . S
C764 C765 1.386 . S
C764 C766 1.391 . S
C765 C764 1.386 . S
C765 C769 1.393 . S
C766 H758 0.950 . S
C766 C764 1.391 . S
C766 C767 1.400 . S
C767 C766 1.400 . S
C767 C768 1.398 . S
C767 C773 1.491 . S
C768 H759 0.950 . S
C768 C767 1.398 . S
C768 C769 1.391 . S
C769 H757 0.950 . S
C769 C765 1.393 . S
C769 C768 1.391 . S
C770 H760 0.950 . S
C770 C771 1.386 . S
C770 C772 1.391 . S
C771 C770 1.386 . S
C771 C775 1.393 . S
C772 H761 0.950 . S
C772 C770 1.391 . S
C772 C773 1.400 . S
C773 C767 1.491 . S
C773 C772 1.400 . S
C773 C774 1.398 . S
C774 H762 0.950 . S
C774 C773 1.398 . S
C774 C775 1.391 . S
C775 H763 0.950 . S
C775 C771 1.393 . S
C775 C774 1.391 . S
H776 C784 0.950 . S
H777 C789 0.950 . S
H778 C786 0.950 . S
H779 C788 0.950 . S
H780 C790 0.950 . S
H781 C792 0.950 . S
H782 C794 0.950 . S
H783 C795 0.950 . S
C784 H776 0.950 . S
C784 C785 1.386 . S
C784 C786 1.391 . S
C785 C784 1.386 . S
C785 C789 1.393 . S
C786 H778 0.950 . S
C786 C784 1.391 . S
C786 C787 1.400 . S
C787 C786 1.400 . S
C787 C788 1.398 . S
C787 C793 1.491 . S
C788 H779 0.950 . S
C788 C787 1.398 . S
C788 C789 1.391 . S
C789 H777 0.950 . S
C789 C785 1.393 . S
C789 C788 1.391 . S
C790 H780 0.950 . S
C790 C791 1.386 . S
C790 C792 1.391 . S
C791 C790 1.386 . S
C791 C795 1.393 . S
C792 H781 0.950 . S
C792 C790 1.391 . S
C792 C793 1.400 . S
C793 C787 1.491 . S
C793 C792 1.400 . S
C793 C794 1.398 . S
C794 H782 0.950 . S
C794 C793 1.398 . S
C794 C795 1.391 . S
C795 H783 0.950 . S
C795 C791 1.393 . S
C795 C794 1.391 . S
H796 C804 0.950 . S
H797 C809 0.950 . S
H798 C806 0.950 . S
H799 C808 0.950 . S
H800 C810 0.950 . S
H801 C812 0.950 . S
H802 C814 0.950 . S
H803 C815 0.950 . S
C804 H796 0.950 . S
C804 C805 1.386 . S
C804 C806 1.391 . S
C805 C804 1.386 . S
C805 C809 1.393 . S
C806 H798 0.950 . S
C806 C804 1.391 . S
C806 C807 1.400 . S
C807 C806 1.400 . S
C807 C808 1.398 . S
C807 C813 1.491 . S
C808 H799 0.950 . S
C808 C807 1.398 . S
C808 C809 1.391 . S
C809 H797 0.950 . S
C809 C805 1.393 . S
C809 C808 1.391 . S
C810 H800 0.950 . S
C810 C811 1.386 . S
C810 C812 1.391 . S
C811 C810 1.386 . S
C811 C815 1.393 . S
C812 H801 0.950 . S
C812 C810 1.391 . S
C812 C813 1.400 . S
C813 C807 1.491 . S
C813 C812 1.400 . S
C813 C814 1.398 . S
C814 H802 0.950 . S
C814 C813 1.398 . S
C814 C815 1.391 . S
C815 H803 0.950 . S
C815 C811 1.393 . S
C815 C814 1.391 . S
H816 C824 0.950 . S
H817 C829 0.950 . S
H818 C826 0.950 . S
H819 C828 0.950 . S
H820 C830 0.950 . S
H821 C832 0.950 . S
H822 C834 0.950 . S
H823 C835 0.950 . S
C824 H816 0.950 . S
C824 C825 1.386 . S
C824 C826 1.391 . S
C825 C824 1.386 . S
C825 C829 1.393 . S
C826 H818 0.950 . S
C826 C824 1.391 . S
C826 C827 1.400 . S
C827 C826 1.400 . S
C827 C828 1.398 . S
C827 C833 1.491 . S
C828 H819 0.950 . S
C828 C827 1.398 . S
C828 C829 1.391 . S
C829 H817 0.950 . S
C829 C825 1.393 . S
C829 C828 1.391 . S
C830 H820 0.950 . S
C830 C831 1.386 . S
C830 C832 1.391 . S
C831 C830 1.386 . S
C831 C835 1.393 . S
C832 H821 0.950 . S
C832 C830 1.391 . S
C832 C833 1.400 . S
C833 C827 1.491 . S
C833 C832 1.400 . S
C833 C834 1.398 . S
C834 H822 0.950 . S
C834 C833 1.398 . S
C834 C835 1.391 . S
C835 H823 0.950 . S
C835 C831 1.393 . S
C835 C834 1.391 . S
H836 C844 0.950 . S
H837 C849 0.950 . S
H838 C846 0.950 . S
H839 C848 0.950 . S
H840 C850 0.950 . S
H841 C852 0.950 . S
H842 C854 0.950 . S
H843 C855 0.950 . S
C844 H836 0.950 . S
C844 C845 1.386 . S
C844 C846 1.391 . S
C845 C844 1.386 . S
C845 C849 1.393 . S
C846 H838 0.950 . S
C846 C844 1.391 . S
C846 C847 1.400 . S
C847 C846 1.400 . S
C847 C848 1.398 . S
C847 C853 1.491 . S
C848 H839 0.950 . S
C848 C847 1.398 . S
C848 C849 1.391 . S
C849 H837 0.950 . S
C849 C845 1.393 . S
C849 C848 1.391 . S
C850 H840 0.950 . S
C850 C851 1.386 . S
C850 C852 1.391 . S
C851 C850 1.386 . S
C851 C855 1.393 . S
C852 H841 0.950 . S
C852 C850 1.391 . S
C852 C853 1.400 . S
C853 C847 1.491 . S
C853 C852 1.400 . S
C853 C854 1.398 . S
C854 H842 0.950 . S
C854 C853 1.398 . S
C854 C855 1.391 . S
C855 H843 0.950 . S
C855 C851 1.393 . S
C855 C854 1.391 . S
H856 C864 0.950 . S
H857 C869 0.950 . S
H858 C866 0.950 . S
H859 C868 0.950 . S
H860 C870 0.950 . S
H861 C872 0.950 . S
H862 C874 0.950 . S
H863 C875 0.950 . S
C864 H856 0.950 . S
C864 C865 1.386 . S
C864 C866 1.391 . S
C865 C864 1.386 . S
C865 C869 1.393 . S
C866 H858 0.950 . S
C866 C864 1.391 . S
C866 C867 1.400 . S
C867 C866 1.400 . S
C867 C868 1.398 . S
C867 C873 1.491 . S
C868 H859 0.950 . S
C868 C867 1.398 . S
C868 C869 1.391 . S
C869 H857 0.950 . S
C869 C865 1.393 . S
C869 C868 1.391 . S
C870 H860 0.950 . S
C870 C871 1.386 . S
C870 C872 1.391 . S
C871 C870 1.386 . S
C871 C875 1.393 . S
C872 H861 0.950 . S
C872 C870 1.391 . S
C872 C873 1.400 . S
C873 C867 1.491 . S
C873 C872 1.400 . S
C873 C874 1.398 . S
C874 H862 0.950 . S
C874 C873 1.398 . S
C874 C875 1.391 . S
C875 H863 0.950 . S
C875 C871 1.393 . S
C875 C874 1.391 . S
H876 C884 0.950 . S
H877 C889 0.950 . S
H878 C886 0.950 . S
H879 C888 0.950 . S
H880 C890 0.950 . S
H881 C892 0.950 . S
H882 C894 0.950 . S
H883 C895 0.950 . S
C884 H876 0.950 . S
C884 C885 1.386 . S
C884 C886 1.391 . S
C885 C884 1.386 . S
C885 C889 1.393 . S
C886 H878 0.950 . S
C886 C884 1.391 . S
C886 C887 1.400 . S
C887 C886 1.400 . S
C887 C888 1.398 . S
C887 C893 1.491 . S
C888 H879 0.950 . S
C888 C887 1.398 . S
C888 C889 1.391 . S
C889 H877 0.950 . S
C889 C885 1.393 . S
C889 C888 1.391 . S
C890 H880 0.950 . S
C890 C891 1.386 . S
C890 C892 1.391 . S
C891 C890 1.386 . S
C891 C895 1.393 . S
C892 H881 0.950 . S
C892 C890 1.391 . S
C892 C893 1.400 . S
C893 C887 1.491 . S
C893 C892 1.400 . S
C893 C894 1.398 . S
C894 H882 0.950 . S
C894 C893 1.398 . S
C894 C895 1.391 . S
C895 H883 0.950 . S
C895 C891 1.393 . S
C895 C894 1.391 . S
H896 C904 0.950 . S
H897 C909 0.950 . S
H898 C906 0.950 . S
H899 C908 0.950 . S
H900 C910 0.950 . S
H901 C912 0.950 . S
H902 C914 0.950 . S
H903 C915 0.950 . S
C904 H896 0.950 . S
C904 C905 1.386 . S
C904 C906 1.391 . S
C905 C904 1.386 . S
C905 C909 1.393 1_455 S
C906 H898 0.950 . S
C906 C904 1.391 . S
C906 C907 1.417 . S
C907 C906 1.417 . S
C907 C908 1.382 1_455 S
C907 C913 1.491 1_455 S
C908 H899 0.950 . S
C908 C907 1.382 1_655 S
C908 C909 1.391 . S
C909 H897 0.950 . S
C909 C905 1.393 1_655 S
C909 C908 1.391 . S
C910 H900 0.950 . S
C910 C911 1.386 . S
C910 C912 1.391 . S
C911 C910 1.386 . S
C911 C915 1.393 1_655 S
C912 H901 0.950 . S
C912 C910 1.391 . S
C912 C913 1.417 . S
C913 C907 1.491 1_655 S
C913 C912 1.417 . S
C913 C914 1.382 1_655 S
C914 H902 0.950 . S
C914 C913 1.382 1_455 S
C914 C915 1.391 . S
C915 H903 0.950 . S
C915 C911 1.393 1_455 S
C915 C914 1.391 . S
H916 C924 0.950 . S
H917 C929 0.950 . S
H918 C926 0.950 . S
H919 C928 0.950 . S
H920 C930 0.950 . S
H921 C932 0.950 . S
H922 C934 0.950 . S
H923 C935 0.950 . S
C924 H916 0.950 . S
C924 C925 1.386 1_565 S
C924 C926 1.391 . S
C925 C924 1.386 1_545 S
C925 C929 1.393 . S
C926 H918 0.950 . S
C926 C924 1.391 . S
C926 C927 1.391 1_565 S
C927 C926 1.391 1_545 S
C927 C928 1.408 . S
C927 C933 1.491 1_546 S
C928 H919 0.950 . S
C928 C927 1.408 . S
C928 C929 1.391 . S
C929 H917 0.950 . S
C929 C925 1.393 . S
C929 C928 1.391 . S
C930 H920 0.950 . S
C930 C931 1.386 1_545 S
C930 C932 1.391 . S
C931 C930 1.386 1_565 S
C931 C935 1.393 . S
C932 H921 0.950 . S
C932 C930 1.391 . S
C932 C933 1.391 1_545 S
C933 C927 1.491 1_564 S
C933 C932 1.391 1_565 S
C933 C934 1.407 . S
C934 H922 0.950 . S
C934 C933 1.407 . S
C934 C935 1.391 . S
C935 H923 0.950 . S
C935 C931 1.393 . S
C935 C934 1.391 . S
H936 C944 0.950 . S
H937 C949 0.950 . S
H938 C946 0.950 . S
H939 C948 0.950 . S
H940 C950 0.950 . S
H941 C952 0.950 . S
H942 C954 0.950 . S
H943 C955 0.950 . S
C944 H936 0.950 . S
C944 C945 1.386 . S
C944 C946 1.391 . S
C945 C944 1.386 . S
C945 C949 1.393 . S
C946 H938 0.950 . S
C946 C944 1.391 . S
C946 C947 1.400 . S
C947 C946 1.400 . S
C947 C948 1.398 . S
C947 C953 1.491 . S
C948 H939 0.950 . S
C948 C947 1.398 . S
C948 C949 1.391 . S
C949 H937 0.950 . S
C949 C945 1.393 . S
C949 C948 1.391 . S
C950 H940 0.950 . S
C950 C951 1.386 . S
C950 C952 1.391 . S
C951 C950 1.386 . S
C951 C955 1.393 . S
C952 H941 0.950 . S
C952 C950 1.391 . S
C952 C953 1.400 . S
C953 C947 1.491 . S
C953 C952 1.400 . S
C953 C954 1.398 . S
C954 H942 0.950 . S
C954 C953 1.398 . S
C954 C955 1.391 . S
C955 H943 0.950 . S
C955 C951 1.393 . S
C955 C954 1.391 . S
H956 C964 0.950 . S
H957 C969 0.950 . S
H958 C966 0.950 . S
H959 C968 0.950 . S
H960 C970 0.950 . S
H961 C972 0.950 . S
H962 C974 0.950 . S
H963 C975 0.950 . S
C964 H956 0.950 . S
C964 C965 1.386 . S
C964 C966 1.391 . S
C965 C964 1.386 . S
C965 C969 1.393 1_655 S
C966 H958 0.950 . S
C966 C964 1.391 . S
C966 C967 1.432 . S
C967 C966 1.432 . S
C967 C968 1.368 1_655 S
C967 C973 1.490 1_655 S
C968 H959 0.950 . S
C968 C967 1.368 1_455 S
C968 C969 1.391 . S
C969 H957 0.950 . S
C969 C965 1.393 1_455 S
C969 C968 1.391 . S
C970 H960 0.950 . S
C970 C971 1.386 . S
C970 C972 1.391 . S
C971 C970 1.386 . S
C971 C975 1.393 1_455 S
C972 H961 0.950 . S
C972 C970 1.391 . S
C972 C973 1.432 . S
C973 C967 1.490 1_455 S
C973 C972 1.432 . S
C973 C974 1.368 1_455 S
C974 H962 0.950 . S
C974 C973 1.368 1_655 S
C974 C975 1.391 . S
C975 H963 0.950 . S
C975 C971 1.393 1_655 S
C975 C974 1.391 . S
H976 C984 0.950 . S
H977 C989 0.950 . S
H978 C986 0.950 . S
H979 C988 0.950 . S
H980 C990 0.950 . S
H981 C992 0.950 . S
H982 C994 0.950 . S
H983 C995 0.950 . S
C984 H976 0.950 . S
C984 C985 1.386 . S
C984 C986 1.391 . S
C985 C984 1.386 . S
C985 C989 1.393 1_545 S
C986 H978 0.950 . S
C986 C984 1.391 . S
C986 C987 1.401 . S
C987 C986 1.401 . S
C987 C988 1.398 1_545 S
C987 C993 1.491 1_545 S
C988 H979 0.950 . S
C988 C987 1.398 1_565 S
C988 C989 1.391 . S
C989 H977 0.950 . S
C989 C985 1.393 1_565 S
C989 C988 1.391 . S
C990 H980 0.950 . S
C990 C991 1.386 . S
C990 C992 1.391 . S
C991 C990 1.386 . S
C991 C995 1.393 1_565 S
C992 H981 0.950 . S
C992 C990 1.391 . S
C992 C993 1.401 . S
C993 C987 1.491 1_565 S
C993 C992 1.401 . S
C993 C994 1.398 1_565 S
C994 H982 0.950 . S
C994 C993 1.398 1_545 S
C994 C995 1.391 . S
C995 H983 0.950 . S
C995 C991 1.393 1_545 S
C995 C994 1.391 . S
C405 C282 0.890 . S
C411 C18 0.896 . S
C425 C51 0.892 . S
C431 C315 0.897 . S
C445 C84 0.880 . S
C451 C348 0.874 . S
C465 C117 0.884 . S
C471 C381 0.890 . S
C485 C150 0.879 . S
C491 C216 0.873 . S
C505 C183 0.886 . S
C511 C249 0.892 . S
C525 N13 1.791 . S
C531 C172 1.734 . S
C545 C7 1.723 . S
C551 N46 1.789 . S
C565 N79 1.790 . S
C571 C40 1.723 . S
C585 C73 1.745 . S
C591 N112 1.785 . S
C605 C106 1.740 . S
C611 N145 1.781 . S
C625 N178 1.792 . S
C631 C139 1.728 . S
C645 C238 1.729 . S
C651 N211 1.784 . S
C665 C271 1.726 . S
C671 N244 1.792 . S
C685 C304 1.737 . S
C691 N277 1.790 . S
C705 C337 1.726 . S
C711 N310 1.785 . S
C725 C370 1.742 . S
C731 N343 1.781 . S
C745 N376 1.789 . S
C751 C205 1.722 . S
C765 C21 1.320 . S
C771 C219 1.320 . S
C785 C54 1.317 . S
C791 C252 1.317 . S
C805 C87 1.319 . S
C811 C285 1.319 . S
C825 C120 1.322 . S
C831 C318 1.322 . S
C845 C351 1.318 . S
C851 C153 1.318 . S
C865 C186 1.315 . S
C871 C384 1.315 . S
C885 N299 0.770 . S
C891 N2 0.736 . S
C905 N35 0.765 . S
C911 N332 0.729 . S
C925 N68 0.735 . S
C931 N365 0.770 . S
C945 N101 0.777 . S
C951 N200 0.744 . S
C965 N134 0.744 . S
C971 N233 0.712 . S
C985 N266 0.784 . S
C991 N167 0.759 . S
