# Generated by pormake.
# Topology mmt, (4)-cn, num edge types: 1
# Building blocks:
#     Node 0, Type 0, BuildingBlock: AZAVOO_clean_sbu_0, # of connection points: 4
#     Node 1, Type 0, BuildingBlock: AZAVOO_clean_sbu_0, # of connection points: 4
#     Node 2, Type 0, BuildingBlock: AZAVOO_clean_sbu_0, # of connection points: 4
#     Node 3, Type 0, BuildingBlock: AZAVOO_clean_sbu_0, # of connection points: 4
#     Node 4, Type 0, BuildingBlock: AZAVOO_clean_sbu_0, # of connection points: 4
#     Node 5, Type 0, BuildingBlock: AZAVOO_clean_sbu_0, # of connection points: 4
#     Node 6, Type 0, BuildingBlock: AZAVOO_clean_sbu_0, # of connection points: 4
#     Node 7, Type 0, BuildingBlock: AZAVOO_clean_sbu_0, # of connection points: 4
#     Edge 8, Type (0, 0), BuildingBlock: FUNLAD_clean_linker_0, # of connection points: 2
#     Edge 9, Type (0, 0), BuildingBlock: FUNLAD_clean_linker_0, # of connection points: 2
#     Edge 10, Type (0, 0), BuildingBlock: FUNLAD_clean_linker_0, # of connection points: 2
#     Edge 11, Type (0, 0), BuildingBlock: FUNLAD_clean_linker_0, # of connection points: 2
#     Edge 12, Type (0, 0), BuildingBlock: FUNLAD_clean_linker_0, # of connection points: 2
#     Edge 13, Type (0, 0), BuildingBlock: FUNLAD_clean_linker_0, # of connection points: 2
#     Edge 14, Type (0, 0), BuildingBlock: FUNLAD_clean_linker_0, # of connection points: 2
#     Edge 15, Type (0, 0), BuildingBlock: FUNLAD_clean_linker_0, # of connection points: 2
#     Edge 16, Type (0, 0), BuildingBlock: FUNLAD_clean_linker_0, # of connection points: 2
#     Edge 17, Type (0, 0), BuildingBlock: FUNLAD_clean_linker_0, # of connection points: 2
#     Edge 18, Type (0, 0), BuildingBlock: FUNLAD_clean_linker_0, # of connection points: 2
#     Edge 19, Type (0, 0), BuildingBlock: FUNLAD_clean_linker_0, # of connection points: 2
#     Edge 20, Type (0, 0), BuildingBlock: FUNLAD_clean_linker_0, # of connection points: 2
#     Edge 21, Type (0, 0), BuildingBlock: FUNLAD_clean_linker_0, # of connection points: 2
#     Edge 22, Type (0, 0), BuildingBlock: FUNLAD_clean_linker_0, # of connection points: 2
#     Edge 23, Type (0, 0), BuildingBlock: FUNLAD_clean_linker_0, # of connection points: 2
# Relax obj value: 0.099
# Max RMSD: 0.149
# Mean RMSD: 0.149
data_MOF--net-mmt--node1-AZAVOO_clean_sbu_0--edge1-FUNLAD_clean_linker_0
_symmetry_space_group_name_H-M    P1
_symmetry_Int_Tables_number       1
_symmetry_cell_setting            triclinic
loop_
_symmetry_equiv_pos_as_xyz
'x, y, z'
_cell_length_a     23.756058
_cell_length_b     46.999113
_cell_length_c     49.654017
_cell_angle_alpha  89.946658
_cell_angle_beta   89.95898
_cell_angle_gamma 90.002197
loop_
_atom_site_label
_atom_site_type_symbol
_atom_site_fract_x
_atom_site_fract_y
_atom_site_fract_z
_atom_type_partial_charge
Mg0 Mg 0.254 0.54458 0.3742 0.0
O1 O 0.18876 0.54721 0.34019 0.0
O2 O 0.22891 0.56868 0.30492 0.0
Mg3 Mg 0.32058 0.57861 0.3158 0.0
C4 C 0.18651 0.5569 0.31616 0.0
C5 C 0.19712 0.52061 0.42583 0.0
O6 O 0.24975 0.51305 0.4297 0.0
O7 O 0.24423 0.59231 0.38237 0.0
O8 O 0.29191 0.61069 0.3476 0.0
O9 O 0.28525 0.50261 0.35809 0.0
O10 O 0.31898 0.54437 0.34596 0.0
C11 C 0.26503 0.61354 0.36972 0.0
C12 C 0.31907 0.5172 0.34298 0.0
O13 O 0.1844 0.53397 0.40441 0.0
Mg14 Mg 0.23241 0.93625 0.37314 0.0
O15 O 0.30194 0.9364 0.341 0.0
O16 O 0.26878 0.91468 0.3043 0.0
Mg17 Mg 0.17711 0.90195 0.3123 0.0
C18 C 0.30825 0.92742 0.31691 0.0
C19 C 0.31636 0.97163 0.41043 0.0
O20 O 0.29849 0.99315 0.39587 0.0
O21 O 0.24568 0.88861 0.38065 0.0
O22 O 0.20447 0.86979 0.3443 0.0
O23 O 0.19826 0.97776 0.3567 0.0
O24 O 0.17113 0.93535 0.34313 0.0
C25 C 0.22866 0.86716 0.36712 0.0
C26 C 0.16805 0.96249 0.34051 0.0
O27 O 0.29739 0.94683 0.40567 0.0
Mg28 Mg 0.75214 0.43164 0.1404 0.0
O29 O 0.68869 0.42826 0.17505 0.0
O30 O 0.72996 0.4064 0.20976 0.0
Mg31 Mg 0.82097 0.39648 0.19754 0.0
C32 C 0.6872 0.4183 0.19898 0.0
C33 C 0.68747 0.46135 0.09319 0.0
O34 O 0.73652 0.4741 0.09109 0.0
O35 O 0.74159 0.38413 0.13157 0.0
O36 O 0.78996 0.36496 0.1657 0.0
O37 O 0.78406 0.47324 0.15701 0.0
O38 O 0.8185 0.43123 0.16788 0.0
C39 C 0.76217 0.36258 0.14381 0.0
C40 C 0.81857 0.45832 0.17145 0.0
O41 O 0.68047 0.44283 0.11158 0.0
Mg42 Mg 0.73906 0.03959 0.13091 0.0
O43 O 0.80227 0.04299 0.16584 0.0
O44 O 0.7572 0.06216 0.20094 0.0
Mg45 Mg 0.66524 0.06989 0.1891 0.0
C46 C 0.80169 0.05203 0.19011 0.0
C47 C 0.84331 0.01098 0.10168 0.0
O48 O 0.83742 0.99241 0.12128 0.0
O49 O 0.74421 0.08768 0.12431 0.0
O50 O 0.69305 0.10397 0.15884 0.0
O51 O 0.71164 -0.00372 0.14547 0.0
O52 O 0.6729 0.03663 0.15831 0.0
C53 C 0.72111 0.10808 0.13723 0.0
C54 C 0.67554 0.00942 0.16055 0.0
O55 O 0.81043 0.0323 0.10069 0.0
Mg56 Mg 0.75431 0.44994 0.64132 0.0
O57 O 0.8222 0.4486 0.67439 0.0
O58 O 0.7837 0.43024 0.71161 0.0
Mg59 Mg 0.69159 0.42014 0.70281 0.0
C60 C 0.82578 0.44056 0.69893 0.0
C61 C 0.8093 0.47263 0.58856 0.0
O62 O 0.75732 0.48165 0.58562 0.0
O63 O 0.76234 0.4016 0.63528 0.0
O64 O 0.72021 0.38639 0.67288 0.0
O65 O 0.72467 0.49296 0.65601 0.0
O66 O 0.69129 0.452 0.67049 0.0
C67 C 0.74451 0.38149 0.65041 0.0
C68 C 0.6915 0.47927 0.67216 0.0
O69 O 0.8221 0.45873 0.60967 0.0
Mg70 Mg 0.74649 0.05809 0.62947 0.0
O71 O 0.68338 0.05655 0.66487 0.0
O72 O 0.72706 0.07317 0.70152 0.0
Mg73 Mg 0.81592 0.08651 0.68976 0.0
C74 C 0.68365 0.06287 0.68993 0.0
C75 C 0.65351 0.02613 0.59513 0.0
O76 O 0.67142 0.00423 0.60918 0.0
O77 O 0.73412 0.10614 0.62595 0.0
O78 O 0.77651 0.12135 0.66356 0.0
O79 O 0.7795 0.01506 0.64139 0.0
O80 O 0.81331 0.0557 0.65655 0.0
C81 C 0.74937 0.12603 0.64183 0.0
C82 C 0.81365 0.02835 0.65734 0.0
O83 O 0.6753 0.05045 0.59924 0.0
Mg84 Mg 0.26449 0.55728 0.87441 0.0
O85 O 0.32886 0.56561 0.84094 0.0
O86 O 0.2866 0.58925 0.80759 0.0
Mg87 Mg 0.19388 0.59515 0.81928 0.0
C88 C 0.3302 0.57767 0.81789 0.0
C89 C 0.32909 0.52695 0.92129 0.0
O90 O 0.28 0.51423 0.9233 0.0
O91 O 0.2682 0.60409 0.88743 0.0
O92 O 0.21709 0.62401 0.85453 0.0
O93 O 0.23803 0.5164 0.85413 0.0
O94 O 0.19931 0.55814 0.84622 0.0
C95 C 0.24354 0.6255 0.87684 0.0
C96 C 0.20231 0.53151 0.84058 0.0
O97 O 0.33611 0.54567 0.9031 0.0
Mg98 Mg 0.25095 0.9425 0.87109 0.0
O99 O 0.18089 0.94632 0.83902 0.0
O100 O 0.21212 0.92579 0.80127 0.0
Mg101 Mg 0.29993 0.90813 0.80901 0.0
C102 C 0.17415 0.93908 0.8144 0.0
C103 C 0.15835 0.97699 0.90392 0.0
O104 O 0.16188 0.99434 0.88323 0.0
O105 O 0.23088 0.89548 0.87752 0.0
O106 O 0.26193 0.87642 0.83898 0.0
O107 O 0.28992 0.98301 0.8557 0.0
O108 O 0.31137 0.94017 0.8408 0.0
C109 C 0.23921 0.87412 0.86219 0.0
C110 C 0.31753 0.96727 0.83884 0.0
O111 O 0.18889 0.95478 0.90441 0.0
C112 C 0.35643 0.47395 0.31884 0.0
C113 C 0.35527 0.50366 0.3223 0.0
C114 C 0.39233 0.46158 0.29969 0.0
C115 C 0.42725 0.47879 0.28355 0.0
C116 C 0.42518 0.50838 0.28675 0.0
C117 C 0.3903 0.52063 0.30608 0.0
C118 C 0.46658 0.46708 0.26315 0.0
C119 C 0.49308 0.44191 0.26576 0.0
C120 C 0.53965 0.4334 0.24743 0.0
C121 C 0.58476 0.41752 0.25774 0.0
C122 C 0.63214 0.41194 0.24184 0.0
C123 C 0.63508 0.42189 0.21514 0.0
H124 H 0.50631 0.45344 0.21136 0.0
C125 C 0.58842 0.43638 0.20436 0.0
C126 C 0.5412 0.44202 0.22029 0.0
H127 H 0.58873 0.44397 0.18376 0.0
H128 H 0.32997 0.46028 0.33102 0.0
H129 H 0.39222 0.43868 0.29737 0.0
H130 H 0.45168 0.52213 0.27463 0.0
H131 H 0.39155 0.54347 0.30842 0.0
H132 H 0.47882 0.48131 0.24691 0.0
H133 H 0.48524 0.42885 0.28344 0.0
H134 H 0.58437 0.41036 0.27849 0.0
H135 H 0.66698 0.40043 0.25074 0.0
C136 C 0.90135 0.03546 0.19669 0.0
C137 C 0.85345 0.04953 0.2067 0.0
C138 C 0.94826 0.03098 0.21316 0.0
C139 C 0.94827 0.0404 0.24007 0.0
C140 C 0.90179 0.05582 0.24958 0.0
C141 C 0.85476 0.0602 0.23317 0.0
C142 C 0.99459 0.03326 0.25909 0.0
C143 C 0.02336 0.00865 0.25736 0.0
C144 C 0.062 -0.00192 0.27862 0.0
C145 C 0.06649 0.96861 0.28216 0.0
C146 C 0.10064 0.95733 0.30229 0.0
C147 C 0.13258 0.97518 0.31906 0.0
H148 H 0.092 0.03907 0.2928 0.0
C149 C 0.12898 0.00481 0.31532 0.0
C150 C 0.09379 0.01621 0.29532 0.0
H151 H 0.15302 0.01915 0.32792 0.0
H152 H 0.90221 0.0273 0.1763 0.0
H153 H 0.98415 0.01986 0.20482 0.0
H154 H 0.9009 0.06357 0.27013 0.0
H155 H 0.81895 0.07144 0.24149 0.0
H156 H 0.00022 0.0468 0.27661 0.0
H157 H 0.01345 0.99391 0.2412 0.0
H158 H 0.04239 0.95416 0.26967 0.0
H159 H 0.10117 0.93449 0.30482 0.0
C160 C 0.85544 0.50096 0.19668 0.0
C161 C 0.8553 0.47141 0.19215 0.0
C162 C 0.89154 0.51292 0.21596 0.0
C163 C 0.92779 0.49545 0.23113 0.0
C164 C 0.92681 0.466 0.22683 0.0
C165 C 0.89164 0.45417 0.2074 0.0
C166 C 0.96733 0.50677 0.25164 0.0
C167 C 0.99204 0.53249 0.24994 0.0
C168 C 0.03862 0.54097 0.26826 0.0
C169 C 0.08214 0.55819 0.25828 0.0
C170 C 0.12953 0.564 0.27404 0.0
C171 C 0.13407 0.553 0.30032 0.0
H172 H 0.00804 0.51866 0.30371 0.0
C173 C 0.08893 0.53711 0.31084 0.0
C174 C 0.04171 0.53119 0.29502 0.0
H175 H 0.09054 0.52862 0.33111 0.0
H176 H 0.82793 0.51483 0.18528 0.0
H177 H 0.8905 0.5357 0.21913 0.0
H178 H 0.95433 0.45206 0.23819 0.0
H179 H 0.89363 0.43145 0.20423 0.0
H180 H 0.98111 0.49199 0.26713 0.0
H181 H 0.98268 0.54626 0.23294 0.0
H182 H 0.08053 0.56626 0.23784 0.0
H183 H 0.16315 0.57659 0.26536 0.0
C184 C 0.5998 0.00942 0.1955 0.0
C185 C 0.63942 0.99419 0.1802 0.0
C186 C 0.56425 -0.00455 0.21352 0.0
C187 C 0.56712 0.96576 0.21669 0.0
C188 C 0.60622 0.95039 0.20122 0.0
C189 C 0.64241 0.96448 0.18329 0.0
C190 C 0.5268 0.95047 0.23448 0.0
C191 C 0.50517 0.96245 0.25689 0.0
C192 C 0.45837 0.95005 0.27298 0.0
C193 C 0.44983 0.95986 0.29937 0.0
C194 C 0.40232 0.95161 0.31405 0.0
C195 C 0.36171 0.93359 0.30252 0.0
H196 H 0.42313 0.92359 0.2413 0.0
C197 C 0.37114 0.92301 0.27639 0.0
C198 C 0.41888 0.93114 0.26177 0.0
H199 H 0.34079 0.90909 0.26686 0.0
H200 H 0.59513 0.03217 0.1932 0.0
H201 H 0.53324 0.00794 0.22426 0.0
H202 H 0.60871 0.92744 0.20298 0.0
H203 H 0.67212 0.95208 0.17163 0.0
H204 H 0.51472 0.92901 0.22885 0.0
H205 H 0.52187 0.98274 0.26368 0.0
H206 H 0.47934 0.97457 0.30846 0.0
H207 H 0.39655 0.96018 0.33411 0.0
C208 C 0.43103 0.56288 0.81235 0.0
C209 C 0.38283 0.57621 0.8018 0.0
C210 C 0.47821 0.55817 0.79614 0.0
C211 C 0.47816 0.56652 0.76892 0.0
C212 C 0.43174 0.58164 0.75891 0.0
C213 C 0.38442 0.58635 0.77512 0.0
C214 C 0.5239 0.55793 0.75012 0.0
C215 C 0.5501 0.53267 0.75262 0.0
C216 C 0.58747 0.52027 0.73176 0.0
C217 C 0.58795 0.49063 0.72899 0.0
C218 C 0.62128 0.47762 0.70951 0.0
C219 C 0.65648 0.49383 0.69269 0.0
H220 H 0.6233 0.55973 0.71679 0.0
C221 C 0.65665 0.52362 0.69556 0.0
C222 C 0.62216 0.53679 0.71487 0.0
H223 H 0.68318 0.53673 0.68286 0.0
H224 H 0.43181 0.55525 0.83294 0.0
H225 H 0.51415 0.54739 0.80483 0.0
H226 H 0.43088 0.58861 0.7381 0.0
H227 H 0.34834 0.59699 0.76638 0.0
H228 H 0.53074 0.57073 0.73218 0.0
H229 H 0.53862 0.51875 0.76923 0.0
H230 H 0.56145 0.47741 0.74163 0.0
H231 H 0.61874 0.45477 0.70758 0.0
C232 C 0.88848 0.02822 0.69272 0.0
C233 C 0.84977 0.01303 0.67689 0.0
C234 C 0.92325 0.01415 0.71103 0.0
C235 C 0.92035 0.98443 0.71395 0.0
C236 C 0.88218 0.96914 0.69791 0.0
C237 C 0.84693 0.9833 0.67967 0.0
C238 C 0.95968 0.96884 0.732 0.0
C239 C 0.98244 0.98065 0.75422 0.0
C240 C 0.02799 0.96719 0.77036 0.0
C241 C 0.03763 0.97673 0.79677 0.0
C242 C 0.08387 0.96687 0.81153 0.0
C243 C 0.12199 0.9475 0.80002 0.0
H244 H 0.0603 0.93974 0.73867 0.0
C245 C 0.11151 0.9374 0.77383 0.0
C246 C 0.06518 0.94713 0.75916 0.0
H247 H 0.13993 0.92246 0.7643 0.0
H248 H 0.89289 0.05103 0.69068 0.0
H249 H 0.9536 0.02661 0.72219 0.0
H250 H 0.87967 0.94618 0.69946 0.0
H251 H 0.81783 0.97095 0.66764 0.0
H252 H 0.96996 0.94705 0.72668 0.0
H253 H 0.96763 0.00136 0.76087 0.0
H254 H 0.00994 0.99234 0.80584 0.0
H255 H 0.09065 0.97515 0.83163 0.0
C256 C 0.16794 0.49 0.81295 0.0
C257 C 0.1671 0.51927 0.81884 0.0
C258 C 0.13226 0.47876 0.7931 0.0
C259 C 0.09567 0.49674 0.77866 0.0
C260 C 0.09605 0.52595 0.78413 0.0
C261 C 0.13059 0.53701 0.80419 0.0
C262 C 0.05549 0.48612 0.75815 0.0
C263 C 0.02897 0.46091 0.76016 0.0
C264 C 0.97986 0.45362 0.74296 0.0
C265 C 0.9362 0.43726 0.754 0.0
C266 C 0.88663 0.4326 0.73953 0.0
C267 C 0.87992 0.4439 0.71347 0.0
H268 H 0.00793 0.47578 0.70694 0.0
C269 C 0.92491 0.45901 0.70184 0.0
C270 C 0.97437 0.46382 0.71642 0.0
H271 H 0.92153 0.46769 0.6817 0.0
H272 H 0.19554 0.47575 0.82387 0.0
H273 H 0.13357 0.45615 0.78901 0.0
H274 H 0.06817 0.54025 0.77338 0.0
H275 H 0.12766 0.55949 0.80841 0.0
H276 H 0.04191 0.50125 0.74292 0.0
H277 H 0.03847 0.44696 0.77702 0.0
H278 H 0.93953 0.42895 0.7743 0.0
H279 H 0.85319 0.42053 0.74901 0.0
C280 C 0.35792 0.00919 0.81381 0.0
C281 C 0.35318 0.9796 0.8173 0.0
C282 C 0.39313 0.02041 0.79376 0.0
C283 C 0.42416 0.00217 0.77684 0.0
C284 C 0.41833 0.97269 0.78003 0.0
C285 C 0.38381 0.96154 0.80015 0.0
C286 C 0.46362 0.01274 0.75587 0.0
C287 C 0.49187 0.03747 0.75791 0.0
C288 C 0.53836 0.04532 0.73926 0.0
C289 C 0.58279 0.06194 0.74913 0.0
C290 C 0.62948 0.06792 0.73299 0.0
C291 C 0.63252 0.05771 0.7064 0.0
H292 H 0.50593 0.02386 0.70375 0.0
C293 C 0.58686 0.04212 0.69608 0.0
C294 C 0.54024 0.03597 0.71233 0.0
H295 H 0.5875 0.0342 0.6756 0.0
H296 H 0.33468 0.02367 0.82662 0.0
H297 H 0.39558 0.04328 0.79147 0.0
H298 H 0.44168 0.95814 0.76731 0.0
H299 H 0.38198 0.93867 0.80241 0.0
H300 H 0.47421 -0.00189 0.73972 0.0
H301 H 0.48533 0.05089 0.77543 0.0
H302 H 0.5822 0.06965 0.76969 0.0
H303 H 0.66351 0.0803 0.74154 0.0
C304 C 0.09755 0.52277 0.4429 0.0
C305 C 0.15371 0.51411 0.44643 0.0
C306 C 0.05697 0.517 0.46263 0.0
C307 C 0.07163 0.50224 0.48633 0.0
C308 C 0.12784 0.49375 0.48983 0.0
C309 C 0.16833 0.49951 0.47012 0.0
C310 C 0.03053 0.49604 0.50829 0.0
C311 C 0.97416 0.49579 0.50495 0.0
C312 C 0.93329 0.48969 0.52703 0.0
C313 C 0.87746 0.499 0.52409 0.0
C314 C 0.83739 0.49358 0.54408 0.0
C315 C 0.85208 0.47847 0.56749 0.0
H316 H 0.98987 0.46589 0.55318 0.0
C317 C 0.90778 0.46885 0.57038 0.0
C318 C 0.94792 0.4743 0.55038 0.0
H319 H 0.92039 0.45692 0.58805 0.0
H320 H 0.08495 0.53429 0.42498 0.0
H321 H 0.01469 0.52474 0.45933 0.0
H322 H 0.14057 0.48254 0.5079 0.0
H323 H 0.21121 0.49259 0.47358 0.0
H324 H 0.04807 0.4913 0.52796 0.0
H325 H 0.95647 0.5006 0.48535 0.0
H326 H 0.86477 0.51069 0.50628 0.0
H327 H 0.79483 0.50122 0.54112 0.0
C328 C 0.37795 0.00347 0.43845 0.0
C329 C 0.3577 0.97609 0.43243 0.0
C330 C 0.41662 0.00761 0.45936 0.0
C331 C 0.43576 0.98441 0.47485 0.0
C332 C 0.41598 0.95705 0.46855 0.0
C333 C 0.3773 0.95293 0.44771 0.0
C334 C 0.47745 0.98748 0.49712 0.0
C335 C 0.48767 0.01206 0.51027 0.0
C336 C 0.52967 0.01491 0.53242 0.0
C337 C 0.55154 0.04199 0.53821 0.0
C338 C 0.59137 0.04568 0.55865 0.0
C339 C 0.60999 0.02236 0.574 0.0
H340 H 0.53034 0.97056 0.54513 0.0
C341 C 0.58723 -0.00466 0.56865 0.0
C342 C 0.54744 0.99163 0.54818 0.0
H343 H 0.6002 0.97696 0.58026 0.0
H344 H 0.3641 0.02176 0.42694 0.0
H345 H 0.43194 0.02894 0.46287 0.0
H346 H 0.43024 0.93873 0.47993 0.0
H347 H 0.36282 0.93152 0.4436 0.0
H348 H 0.50011 0.96839 0.50291 0.0
H349 H 0.46529 0.03122 0.50446 0.0
H350 H 0.53827 0.06036 0.52665 0.0
H351 H 0.60777 0.06684 0.56228 0.0
C352 C 0.64891 0.48889 0.05402 0.0
C353 C 0.64119 0.46833 0.07427 0.0
C354 C 0.60543 0.49544 0.03606 0.0
C355 C 0.55317 0.48139 0.03782 0.0
C356 C 0.54534 0.46111 0.0583 0.0
C357 C 0.58882 0.45456 0.07624 0.0
C358 C 0.50529 0.48778 0.01938 0.0
C359 C 0.51132 0.4998 0.99484 0.0
C360 C 0.46346 0.5063 0.97642 0.0
C361 C 0.47141 0.52661 0.95599 0.0
C362 C 0.42791 0.53335 0.93812 0.0
C363 C 0.3754 0.51973 0.94012 0.0
H364 H 0.40346 0.47592 0.99298 0.0
C365 C 0.36756 0.49911 0.96031 0.0
C366 C 0.41105 0.49238 0.9782 0.0
H367 H 0.32781 0.48801 0.96226 0.0
H368 H 0.68854 0.50011 0.05208 0.0
H369 H 0.61292 0.51188 0.02125 0.0
H370 H 0.50546 0.45012 0.06034 0.0
H371 H 0.58131 0.43869 0.09166 0.0
H372 H 0.46363 0.48197 0.02645 0.0
H373 H 0.55299 0.50559 0.98777 0.0
H374 H 0.51139 0.53751 0.95394 0.0
H375 H 0.43553 0.54925 0.92275 0.0
C376 C 0.11553 0.96455 0.94866 0.0
C377 C 0.11927 0.98314 0.92652 0.0
C378 C 0.07859 0.97022 0.96995 0.0
C379 C 0.04463 0.99479 0.96969 0.0
C380 C 0.04807 0.01319 0.94742 0.0
C381 C 0.08505 0.00753 0.92614 0.0
C382 C 0.00367 0.0015 0.99159 0.0
C383 C 0.00685 0.99079 0.01679 0.0
C384 C 0.96505 -0.00305 0.03845 0.0
C385 C 0.9607 0.97798 0.06024 0.0
C386 C 0.92162 0.98263 0.08087 0.0
C387 C 0.88614 0.00655 0.08032 0.0
H388 H 0.93349 0.03701 0.02239 0.0
C389 C 0.89133 0.02593 0.05886 0.0
C390 C 0.93037 0.02127 0.03821 0.0
H391 H 0.86507 0.04475 0.05793 0.0
H392 H 0.1409 0.94542 0.94951 0.0
H393 H 0.07618 0.95491 0.98617 0.0
H394 H 0.02214 0.03213 0.9465 0.0
H395 H 0.08664 0.02226 0.90937 0.0
H396 H 0.96973 0.01595 0.98646 0.0
H397 H 0.04078 0.97634 0.02194 0.0
H398 H 0.98718 0.95923 0.06116 0.0
H399 H 0.919 0.96732 0.09714 0.0
C400 C 0.29761 0.6637 0.37336 0.0
C401 C 0.25844 0.64262 0.38054 0.0
C402 C 0.28961 0.69189 0.38108 0.0
C403 C 0.2419 0.69977 0.3961 0.0
C404 C 0.20358 0.67857 0.40405 0.0
C405 C 0.21212 0.65012 0.39663 0.0
C406 C 0.22735 0.7302 0.40003 0.0
C407 C 0.2662 0.75111 0.40018 0.0
C408 C 0.25188 0.78134 0.39493 0.0
C409 C 0.28814 0.80301 0.40383 0.0
C410 C 0.27966 0.83127 0.39575 0.0
C411 C 0.23562 0.83811 0.37802 0.0
H412 H 0.17866 0.77238 0.37008 0.0
C413 C 0.19871 0.81651 0.36965 0.0
C414 C 0.20656 0.78851 0.37804 0.0
H415 H 0.16413 0.82114 0.35612 0.0
H416 H 0.33396 0.65853 0.3611 0.0
H417 H 0.31932 0.70762 0.37389 0.0
H418 H 0.16612 0.68415 0.41532 0.0
H419 H 0.18121 0.63431 0.40241 0.0
H420 H 0.18291 0.73563 0.40071 0.0
H421 H 0.3105 0.7458 0.40222 0.0
H422 H 0.32383 0.79795 0.41654 0.0
H423 H 0.3088 0.8475 0.40247 0.0
C424 C 0.68891 0.15855 0.13594 0.0
C425 C 0.72734 0.13765 0.12749 0.0
C426 C 0.69685 0.18702 0.12906 0.0
C427 C 0.74369 0.19535 0.11362 0.0
C428 C 0.78124 0.17437 0.10446 0.0
C429 C 0.77283 0.14571 0.11107 0.0
C430 C 0.75827 0.22585 0.1102 0.0
C431 C 0.71977 0.24688 0.11122 0.0
C432 C 0.73507 0.27704 0.1162 0.0
C433 C 0.69789 0.29884 0.1085 0.0
C434 C 0.70766 0.32702 0.11641 0.0
C435 C 0.75408 0.33369 0.13275 0.0
H436 H 0.81148 0.26781 0.13867 0.0
C437 C 0.79194 0.31198 0.13984 0.0
C438 C 0.78269 0.28404 0.13163 0.0
H439 H 0.82828 0.31646 0.15231 0.0
H440 H 0.65324 0.15301 0.14851 0.0
H441 H 0.66779 0.20254 0.13717 0.0
H442 H 0.81803 0.18027 0.09282 0.0
H443 H 0.80321 0.13008 0.1043 0.0
H444 H 0.80267 0.23115 0.10856 0.0
H445 H 0.67524 0.24176 0.11012 0.0
H446 H 0.66051 0.29393 0.09691 0.0
H447 H 0.6777 0.34332 0.11072 0.0
C448 C 0.74988 0.16917 0.6122 0.0
C449 C 0.73319 0.15553 0.63608 0.0
C450 C 0.74112 0.1985 0.60903 0.0
C451 C 0.71442 0.2142 0.62951 0.0
C452 C 0.69488 0.19998 0.65255 0.0
C453 C 0.70498 0.17104 0.656 0.0
C454 C 0.70861 0.24553 0.62885 0.0
C455 C 0.7475 0.26319 0.61829 0.0
C456 C 0.74896 0.29364 0.62622 0.0
C457 C 0.76506 0.31486 0.60782 0.0
C458 C 0.7651 0.34361 0.61557 0.0
C459 C 0.74974 0.35137 0.64195 0.0
H460 H 0.72636 0.28554 0.66793 0.0
C461 C 0.73645 0.32982 0.66054 0.0
C462 C 0.73626 0.30143 0.65284 0.0
H463 H 0.72559 0.33482 0.6812 0.0
H464 H 0.77188 0.15745 0.59664 0.0
H465 H 0.75578 0.20884 0.59084 0.0
H466 H 0.67405 0.21157 0.66857 0.0
H467 H 0.6917 0.16085 0.67454 0.0
H468 H 0.67497 0.25451 0.64105 0.0
H469 H 0.78111 0.25507 0.60562 0.0
H470 H 0.77627 0.30927 0.58735 0.0
H471 H 0.77595 0.3597 0.60082 0.0
C472 C 0.19055 0.6668 0.89405 0.0
C473 C 0.24245 0.65302 0.89081 0.0
C474 C 0.18849 0.69531 0.90158 0.0
C475 C 0.2385 0.71083 0.90516 0.0
C476 C 0.29027 0.69631 0.90443 0.0
C477 C 0.29227 0.66746 0.8973 0.0
C478 C 0.23792 0.74243 0.90625 0.0
C479 C 0.20029 0.75751 0.89177 0.0
C480 C 0.20642 0.78822 0.88598 0.0
C481 C 0.22773 0.80769 0.90489 0.0
C482 C 0.23568 0.83625 0.89769 0.0
C483 C 0.22364 0.84541 0.87137 0.0
H484 H 0.17468 0.78332 0.84538 0.0
C485 C 0.20087 0.82609 0.85285 0.0
C486 C 0.19154 0.7979 0.86023 0.0
H487 H 0.19103 0.83272 0.83248 0.0
H488 H 0.15156 0.65583 0.88953 0.0
H489 H 0.14775 0.7055 0.90314 0.0
H490 H 0.32937 0.70773 0.90746 0.0
H491 H 0.33272 0.65712 0.89491 0.0
H492 H 0.27354 0.75322 0.91541 0.0
H493 H 0.16834 0.74633 0.88025 0.0
H494 H 0.23859 0.80084 0.92506 0.0
H495 H 0.25346 0.85084 0.91226 0.0
loop_
_geom_bond_atom_site_label_1
_geom_bond_atom_site_label_2
_geom_bond_distance
_geom_bond_site_symmetry_2
_ccdc_geom_bond_type
Mg0 O1 2.028 . S
Mg0 O7 1.986 . S
Mg0 O9 2.114 . S
Mg0 O10 2.251 . S
Mg0 O13 2.010 . S
O1 Mg0 2.028 . S
O1 C4 1.250 . S
O2 Mg3 2.028 . S
O2 C4 1.248 . S
Mg3 O2 2.028 . S
Mg3 O8 2.032 . S
Mg3 O10 2.079 . S
C4 O1 1.250 . S
C4 O2 1.248 . S
C5 O6 1.264 . S
C5 O13 1.249 . S
O6 C5 1.264 . S
O7 Mg0 1.986 . S
O7 C11 1.246 . S
O8 Mg3 2.032 . S
O8 C11 1.259 . S
O9 Mg0 2.114 . S
O9 C12 1.252 . S
O10 Mg0 2.251 . S
O10 Mg3 2.079 . S
O10 C12 1.273 . S
C11 O7 1.246 . S
C11 O8 1.259 . S
C12 O9 1.252 . S
C12 O10 1.273 . S
O13 Mg0 2.010 . S
O13 C5 1.249 . S
Mg14 O15 2.028 . S
Mg14 O21 1.986 . S
Mg14 O23 2.114 . S
Mg14 O24 2.251 . S
Mg14 O27 2.010 . S
O15 Mg14 2.028 . S
O15 C18 1.250 . S
O16 Mg17 2.028 . S
O16 C18 1.248 . S
Mg17 O16 2.028 . S
Mg17 O22 2.032 . S
Mg17 O24 2.079 . S
C18 O15 1.250 . S
C18 O16 1.248 . S
C19 O20 1.264 . S
C19 O27 1.249 . S
O20 C19 1.264 . S
O21 Mg14 1.986 . S
O21 C25 1.246 . S
O22 Mg17 2.032 . S
O22 C25 1.259 . S
O23 Mg14 2.114 . S
O23 C26 1.252 . S
O24 Mg14 2.251 . S
O24 Mg17 2.079 . S
O24 C26 1.273 . S
C25 O21 1.246 . S
C25 O22 1.259 . S
C26 O23 1.252 . S
C26 O24 1.273 . S
O27 Mg14 2.010 . S
O27 C19 1.249 . S
Mg28 O29 2.028 . S
Mg28 O35 1.986 . S
Mg28 O37 2.114 . S
Mg28 O38 2.251 . S
Mg28 O41 2.010 . S
O29 Mg28 2.028 . S
O29 C32 1.250 . S
O30 Mg31 2.028 . S
O30 C32 1.248 . S
Mg31 O30 2.028 . S
Mg31 O36 2.032 . S
Mg31 O38 2.079 . S
C32 O29 1.250 . S
C32 O30 1.248 . S
C33 O34 1.264 . S
C33 O41 1.249 . S
O34 C33 1.264 . S
O35 Mg28 1.986 . S
O35 C39 1.246 . S
O36 Mg31 2.032 . S
O36 C39 1.259 . S
O37 Mg28 2.114 . S
O37 C40 1.252 . S
O38 Mg28 2.251 . S
O38 Mg31 2.079 . S
O38 C40 1.273 . S
C39 O35 1.246 . S
C39 O36 1.259 . S
C40 O37 1.252 . S
C40 O38 1.273 . S
O41 Mg28 2.010 . S
O41 C33 1.249 . S
Mg42 O43 2.028 . S
Mg42 O49 1.986 . S
Mg42 O51 2.114 . S
Mg42 O52 2.251 . S
Mg42 O55 2.010 . S
O43 Mg42 2.028 . S
O43 C46 1.250 . S
O44 Mg45 2.028 . S
O44 C46 1.248 . S
Mg45 O44 2.028 . S
Mg45 O50 2.032 . S
Mg45 O52 2.079 . S
C46 O43 1.250 . S
C46 O44 1.248 . S
C47 O48 1.264 . S
C47 O55 1.249 . S
O48 C47 1.264 . S
O49 Mg42 1.986 . S
O49 C53 1.246 . S
O50 Mg45 2.032 . S
O50 C53 1.259 . S
O51 Mg42 2.114 . S
O51 C54 1.252 . S
O52 Mg42 2.251 . S
O52 Mg45 2.079 . S
O52 C54 1.273 . S
C53 O49 1.246 . S
C53 O50 1.259 . S
C54 O51 1.252 . S
C54 O52 1.273 . S
O55 Mg42 2.010 . S
O55 C47 1.249 . S
Mg56 O57 2.028 . S
Mg56 O63 1.986 . S
Mg56 O65 2.114 . S
Mg56 O66 2.251 . S
Mg56 O69 2.010 . S
O57 Mg56 2.028 . S
O57 C60 1.250 . S
O58 Mg59 2.028 . S
O58 C60 1.248 . S
Mg59 O58 2.028 . S
Mg59 O64 2.032 . S
Mg59 O66 2.079 . S
C60 O57 1.250 . S
C60 O58 1.248 . S
C61 O62 1.264 . S
C61 O69 1.249 . S
O62 C61 1.264 . S
O63 Mg56 1.986 . S
O63 C67 1.246 . S
O64 Mg59 2.032 . S
O64 C67 1.259 . S
O65 Mg56 2.114 . S
O65 C68 1.252 . S
O66 Mg56 2.251 . S
O66 Mg59 2.079 . S
O66 C68 1.273 . S
C67 O63 1.246 . S
C67 O64 1.259 . S
C68 O65 1.252 . S
C68 O66 1.273 . S
O69 Mg56 2.010 . S
O69 C61 1.249 . S
Mg70 O71 2.028 . S
Mg70 O77 1.986 . S
Mg70 O79 2.114 . S
Mg70 O80 2.251 . S
Mg70 O83 2.010 . S
O71 Mg70 2.028 . S
O71 C74 1.250 . S
O72 Mg73 2.028 . S
O72 C74 1.248 . S
Mg73 O72 2.028 . S
Mg73 O78 2.032 . S
Mg73 O80 2.079 . S
C74 O71 1.250 . S
C74 O72 1.248 . S
C75 O76 1.264 . S
C75 O83 1.249 . S
O76 C75 1.264 . S
O77 Mg70 1.986 . S
O77 C81 1.246 . S
O78 Mg73 2.032 . S
O78 C81 1.259 . S
O79 Mg70 2.114 . S
O79 C82 1.252 . S
O80 Mg70 2.251 . S
O80 Mg73 2.079 . S
O80 C82 1.273 . S
C81 O77 1.246 . S
C81 O78 1.259 . S
C82 O79 1.252 . S
C82 O80 1.273 . S
O83 Mg70 2.010 . S
O83 C75 1.249 . S
Mg84 O85 2.028 . S
Mg84 O91 1.986 . S
Mg84 O93 2.114 . S
Mg84 O94 2.251 . S
Mg84 O97 2.010 . S
O85 Mg84 2.028 . S
O85 C88 1.250 . S
O86 Mg87 2.028 . S
O86 C88 1.248 . S
Mg87 O86 2.028 . S
Mg87 O92 2.032 . S
Mg87 O94 2.079 . S
C88 O85 1.250 . S
C88 O86 1.248 . S
C89 O90 1.264 . S
C89 O97 1.249 . S
O90 C89 1.264 . S
O91 Mg84 1.986 . S
O91 C95 1.246 . S
O92 Mg87 2.032 . S
O92 C95 1.259 . S
O93 Mg84 2.114 . S
O93 C96 1.252 . S
O94 Mg84 2.251 . S
O94 Mg87 2.079 . S
O94 C96 1.273 . S
C95 O91 1.246 . S
C95 O92 1.259 . S
C96 O93 1.252 . S
C96 O94 1.273 . S
O97 Mg84 2.010 . S
O97 C89 1.249 . S
Mg98 O99 2.028 . S
Mg98 O105 1.986 . S
Mg98 O107 2.114 . S
Mg98 O108 2.251 . S
Mg98 O111 2.010 . S
O99 Mg98 2.028 . S
O99 C102 1.250 . S
O100 Mg101 2.028 . S
O100 C102 1.248 . S
Mg101 O100 2.028 . S
Mg101 O106 2.032 . S
Mg101 O108 2.079 . S
C102 O99 1.250 . S
C102 O100 1.248 . S
C103 O104 1.264 . S
C103 O111 1.249 . S
O104 C103 1.264 . S
O105 Mg98 1.986 . S
O105 C109 1.246 . S
O106 Mg101 2.032 . S
O106 C109 1.259 . S
O107 Mg98 2.114 . S
O107 C110 1.252 . S
O108 Mg98 2.251 . S
O108 Mg101 2.079 . S
O108 C110 1.273 . S
C109 O105 1.246 . S
C109 O106 1.259 . S
C110 O107 1.252 . S
C110 O108 1.273 . S
O111 Mg98 2.010 . S
O111 C103 1.249 . S
C112 C113 1.386 . S
C112 C114 1.383 . S
C112 H128 0.951 . S
C113 C112 1.386 . S
C113 C117 1.383 . S
C114 C112 1.383 . S
C114 C115 1.402 . S
C114 H129 0.951 . S
C115 C114 1.402 . S
C115 C116 1.375 . S
C115 C118 1.481 . S
C116 C115 1.375 . S
C116 C117 1.367 . S
C116 H130 0.951 . S
C117 C113 1.383 . S
C117 C116 1.367 . S
C117 H131 0.950 . S
C118 C115 1.481 . S
C118 C119 1.297 . S
C118 H132 0.950 . S
C119 C118 1.297 . S
C119 C120 1.479 . S
C119 H133 0.950 . S
C120 C119 1.479 . S
C120 C121 1.375 . S
C120 C126 1.404 . S
C121 C120 1.375 . S
C121 C122 1.369 . S
C121 H134 0.950 . S
C122 C121 1.369 . S
C122 C123 1.392 . S
C122 H135 0.951 . S
C123 C122 1.392 . S
C123 C125 1.384 . S
H124 C126 0.949 . S
C125 C123 1.384 . S
C125 C126 1.385 . S
C125 H127 0.950 . S
C126 C120 1.404 . S
C126 H124 0.949 . S
C126 C125 1.385 . S
H127 C125 0.950 . S
H128 C112 0.951 . S
H129 C114 0.951 . S
H130 C116 0.951 . S
H131 C117 0.950 . S
H132 C118 0.950 . S
H133 C119 0.950 . S
H134 C121 0.950 . S
H135 C122 0.951 . S
C136 C137 1.386 1_455 S
C136 C138 1.383 . S
C136 H152 0.951 . S
C137 C136 1.386 1_655 S
C137 C141 1.383 . S
C138 C136 1.383 . S
C138 C139 1.402 . S
C138 H153 0.951 . S
C139 C138 1.402 . S
C139 C140 1.375 1_455 S
C139 C142 1.481 . S
C140 C139 1.375 1_655 S
C140 C141 1.367 . S
C140 H154 0.951 . S
C141 C137 1.383 . S
C141 C140 1.367 . S
C141 H155 0.950 . S
C142 C139 1.481 . S
C142 C143 1.297 . S
C142 H156 0.950 . S
C143 C142 1.297 . S
C143 C144 1.479 . S
C143 H157 0.950 . S
C144 C143 1.479 . S
C144 C145 1.375 1_545 S
C144 C150 1.404 . S
C145 C144 1.375 1_565 S
C145 C146 1.369 . S
C145 H158 0.950 . S
C146 C145 1.369 . S
C146 C147 1.392 . S
C146 H159 0.951 . S
C147 C146 1.392 . S
C147 C149 1.384 . S
H148 C150 0.949 . S
C149 C147 1.384 . S
C149 C150 1.385 1_565 S
C149 H151 0.956 . S
C150 C144 1.404 . S
C150 H148 0.949 . S
C150 C149 1.385 1_545 S
H151 C149 0.956 . S
H152 C136 0.951 . S
H153 C138 0.951 . S
H154 C140 0.951 . S
H155 C141 0.950 . S
H156 C142 0.950 . S
H157 C143 0.950 . S
H158 C145 0.950 . S
H159 C146 0.951 . S
C160 C161 1.386 . S
C160 C162 1.383 . S
C160 H176 0.951 . S
C161 C160 1.386 . S
C161 C165 1.383 . S
C162 C160 1.383 . S
C162 C163 1.402 . S
C162 H177 0.951 . S
C163 C162 1.402 . S
C163 C164 1.375 . S
C163 C166 1.481 . S
C164 C163 1.375 . S
C164 C165 1.367 . S
C164 H178 0.951 . S
C165 C161 1.383 . S
C165 C164 1.367 . S
C165 H179 0.950 . S
C166 C163 1.481 . S
C166 C167 1.297 . S
C166 H180 0.950 . S
C167 C166 1.297 . S
C167 C168 1.479 . S
C167 H181 0.950 . S
C168 C167 1.479 . S
C168 C169 1.375 . S
C168 C174 1.404 . S
C169 C168 1.375 . S
C169 C170 1.369 1_655 S
C169 H182 0.950 . S
C170 C169 1.369 1_455 S
C170 C171 1.392 . S
C170 H183 0.951 . S
C171 C170 1.392 . S
C171 C173 1.384 1_455 S
H172 C174 0.949 . S
C173 C171 1.384 1_655 S
C173 C174 1.385 . S
C173 H175 0.950 . S
C174 C168 1.404 . S
C174 H172 0.949 . S
C174 C173 1.385 . S
H175 C173 0.950 . S
H176 C160 0.951 . S
H177 C162 0.951 . S
H178 C164 0.951 . S
H179 C165 0.950 . S
H180 C166 0.950 . S
H181 C167 0.950 . S
H182 C169 0.950 . S
H183 C170 0.951 . S
C184 C185 1.386 . S
C184 C186 1.383 . S
C184 H200 0.951 . S
C185 C184 1.386 . S
C185 C189 1.383 1_545 S
C186 C184 1.383 . S
C186 C187 1.386 1_545 S
C186 H201 0.951 . S
C187 C186 1.386 1_565 S
C187 C188 1.383 . S
C187 C190 1.489 . S
C188 C187 1.383 . S
C188 C189 1.367 . S
C188 H202 0.951 . S
C189 C185 1.383 1_565 S
C189 C188 1.367 . S
C189 H203 0.950 . S
C190 C187 1.489 . S
C190 C191 1.297 . S
C190 H204 0.950 . S
C191 C190 1.297 . S
C191 C192 1.479 . S
C191 H205 0.950 1_565 S
C192 C191 1.479 . S
C192 C193 1.375 . S
C192 C198 1.404 . S
C193 C192 1.375 . S
C193 C194 1.369 . S
C193 H206 0.950 1_565 S
C194 C193 1.369 . S
C194 C195 1.392 . S
C194 H207 0.951 . S
C195 C194 1.392 . S
C195 C197 1.384 . S
H196 C198 0.949 . S
C197 C195 1.384 . S
C197 C198 1.385 . S
C197 H199 0.950 . S
C198 C192 1.404 . S
C198 H196 0.949 . S
C198 C197 1.385 . S
H199 C197 0.950 . S
H200 C184 0.951 . S
H201 C186 0.951 . S
H202 C188 0.951 . S
H203 C189 0.950 . S
H204 C190 0.950 . S
H205 C191 0.950 1_545 S
H206 C193 0.950 1_545 S
H207 C194 0.951 . S
C208 C209 1.386 . S
C208 C210 1.383 . S
C208 H224 0.951 . S
C209 C208 1.386 . S
C209 C213 1.383 . S
C210 C208 1.383 . S
C210 C211 1.402 . S
C210 H225 0.951 . S
C211 C210 1.402 . S
C211 C212 1.375 . S
C211 C214 1.481 . S
C212 C211 1.375 . S
C212 C213 1.367 . S
C212 H226 0.951 . S
C213 C209 1.383 . S
C213 C212 1.367 . S
C213 H227 0.950 . S
C214 C211 1.481 . S
C214 C215 1.297 . S
C214 H228 0.950 . S
C215 C214 1.297 . S
C215 C216 1.479 . S
C215 H229 0.950 . S
C216 C215 1.479 . S
C216 C217 1.375 . S
C216 C222 1.404 . S
C217 C216 1.375 . S
C217 C218 1.369 . S
C217 H230 0.950 . S
C218 C217 1.369 . S
C218 C219 1.392 . S
C218 H231 0.951 . S
C219 C218 1.392 . S
C219 C221 1.384 . S
H220 C222 0.949 . S
C221 C219 1.384 . S
C221 C222 1.385 . S
C221 H223 0.950 . S
C222 C216 1.404 . S
C222 H220 0.949 . S
C222 C221 1.385 . S
H223 C221 0.950 . S
H224 C208 0.951 . S
H225 C210 0.951 . S
H226 C212 0.951 . S
H227 C213 0.950 . S
H228 C214 0.950 . S
H229 C215 0.950 . S
H230 C217 0.950 . S
H231 C218 0.951 . S
C232 C233 1.386 . S
C232 C234 1.383 . S
C232 H248 0.951 . S
C233 C232 1.386 . S
C233 C237 1.383 . S
C234 C232 1.383 . S
C234 C235 1.403 . S
C234 H249 0.951 1_545 S
C235 C234 1.403 . S
C235 C236 1.382 . S
C235 C238 1.474 1_545 S
C236 C235 1.382 . S
C236 C237 1.367 . S
C236 H250 0.951 . S
C237 C233 1.383 . S
C237 C236 1.367 . S
C237 H251 0.950 . S
C238 C235 1.474 1_565 S
C238 C239 1.297 . S
C238 H252 0.950 . S
C239 C238 1.297 . S
C239 C240 1.479 . S
C239 H253 0.950 . S
C240 C239 1.479 . S
C240 C241 1.375 . S
C240 C246 1.404 1_655 S
C241 C240 1.375 . S
C241 C242 1.369 . S
C241 H254 0.950 . S
C242 C241 1.369 . S
C242 C243 1.392 1_655 S
C242 H255 0.951 . S
C243 C242 1.392 1_455 S
C243 C245 1.384 . S
H244 C246 0.949 . S
C245 C243 1.384 . S
C245 C246 1.385 . S
C245 H247 0.950 . S
C246 C240 1.404 1_455 S
C246 H244 0.949 . S
C246 C245 1.385 . S
H247 C245 0.950 . S
H248 C232 0.951 . S
H249 C234 0.951 1_565 S
H250 C236 0.951 . S
H251 C237 0.950 . S
H252 C238 0.950 . S
H253 C239 0.950 . S
H254 C241 0.950 . S
H255 C242 0.951 . S
C256 C257 1.386 . S
C256 C258 1.383 . S
C256 H272 0.951 . S
C257 C256 1.386 . S
C257 C261 1.383 . S
C258 C256 1.383 . S
C258 C259 1.402 . S
C258 H273 0.951 . S
C259 C258 1.402 . S
C259 C260 1.375 . S
C259 C262 1.481 . S
C260 C259 1.375 . S
C260 C261 1.367 . S
C260 H274 0.951 . S
C261 C257 1.383 . S
C261 C260 1.367 . S
C261 H275 0.950 . S
C262 C259 1.481 . S
C262 C263 1.297 . S
C262 H276 0.950 . S
C263 C262 1.297 . S
C263 C264 1.479 . S
C263 H277 0.950 . S
C264 C263 1.479 . S
C264 C265 1.375 . S
C264 C270 1.404 1_455 S
C265 C264 1.375 . S
C265 C266 1.369 1_455 S
C265 H278 0.950 . S
C266 C265 1.369 1_655 S
C266 C267 1.392 . S
C266 H279 0.951 . S
C267 C266 1.392 . S
C267 C269 1.384 . S
H268 C270 0.949 1_455 S
C269 C267 1.384 . S
C269 C270 1.385 . S
C269 H271 0.950 . S
C270 C264 1.404 1_655 S
C270 H268 0.949 1_655 S
C270 C269 1.385 . S
H271 C269 0.950 . S
H272 C256 0.951 . S
H273 C258 0.951 . S
H274 C260 0.951 . S
H275 C261 0.950 . S
H276 C262 0.950 . S
H277 C263 0.950 . S
H278 C265 0.950 . S
H279 C266 0.951 . S
C280 C281 1.386 . S
C280 C282 1.383 1_565 S
C280 H296 0.951 1_565 S
C281 C280 1.386 . S
C281 C285 1.383 . S
C282 C280 1.383 1_545 S
C282 C283 1.402 1_545 S
C282 H297 0.951 . S
C283 C282 1.402 1_565 S
C283 C284 1.375 . S
C283 C286 1.481 . S
C284 C283 1.375 . S
C284 C285 1.367 . S
C284 H298 0.951 . S
C285 C281 1.383 . S
C285 C284 1.367 . S
C285 H299 0.950 . S
C286 C283 1.481 . S
C286 C287 1.297 1_565 S
C286 H300 0.950 . S
C287 C286 1.297 1_545 S
C287 C288 1.479 . S
C287 H301 0.950 . S
C288 C287 1.479 . S
C288 C289 1.375 . S
C288 C294 1.404 . S
C289 C288 1.375 . S
C289 C290 1.369 . S
C289 H302 0.950 . S
C290 C289 1.369 . S
C290 C291 1.392 . S
C290 H303 0.951 . S
C291 C290 1.392 . S
C291 C293 1.384 . S
H292 C294 0.949 1_565 S
C293 C291 1.384 . S
C293 C294 1.385 . S
C293 H295 0.950 . S
C294 C288 1.404 . S
C294 H292 0.949 1_545 S
C294 C293 1.385 . S
H295 C293 0.950 . S
H296 C280 0.951 1_545 S
H297 C282 0.951 . S
H298 C284 0.951 . S
H299 C285 0.950 . S
H300 C286 0.950 . S
H301 C287 0.950 . S
H302 C289 0.950 . S
H303 C290 0.951 . S
C304 C305 1.386 . S
C304 C306 1.383 . S
C304 H320 0.951 . S
C305 C304 1.386 . S
C305 C309 1.383 . S
C306 C304 1.383 . S
C306 C307 1.402 . S
C306 H321 0.951 1_455 S
C307 C306 1.402 . S
C307 C308 1.375 . S
C307 C310 1.481 . S
C308 C307 1.375 . S
C308 C309 1.367 . S
C308 H322 0.951 . S
C309 C305 1.383 . S
C309 C308 1.367 . S
C309 H323 0.950 . S
C310 C307 1.481 . S
C310 C311 1.297 1_455 S
C310 H324 0.950 . S
C311 C310 1.297 1_655 S
C311 C312 1.479 . S
C311 H325 0.950 . S
C312 C311 1.479 . S
C312 C313 1.375 . S
C312 C318 1.404 . S
C313 C312 1.375 . S
C313 C314 1.369 . S
C313 H326 0.950 . S
C314 C313 1.369 . S
C314 C315 1.392 . S
C314 H327 0.951 . S
C315 C314 1.392 . S
C315 C317 1.384 . S
H316 C318 0.949 . S
C317 C315 1.384 . S
C317 C318 1.385 . S
C317 H319 0.950 . S
C318 C312 1.404 . S
C318 H316 0.949 . S
C318 C317 1.385 . S
H319 C317 0.950 . S
H320 C304 0.951 . S
H321 C306 0.951 1_655 S
H322 C308 0.951 . S
H323 C309 0.950 . S
H324 C310 0.950 . S
H325 C311 0.950 . S
H326 C313 0.950 . S
H327 C314 0.951 . S
C328 C329 1.386 . S
C328 C330 1.383 1_565 S
C328 H344 0.951 1_565 S
C329 C328 1.386 . S
C329 C333 1.383 . S
C330 C328 1.383 1_545 S
C330 C331 1.402 1_545 S
C330 H345 0.951 . S
C331 C330 1.402 1_565 S
C331 C332 1.375 . S
C331 C334 1.481 . S
C332 C331 1.375 . S
C332 C333 1.367 . S
C332 H346 0.951 . S
C333 C329 1.383 . S
C333 C332 1.367 . S
C333 H347 0.950 . S
C334 C331 1.481 . S
C334 C335 1.297 1_565 S
C334 H348 0.950 . S
C335 C334 1.297 1_545 S
C335 C336 1.479 . S
C335 H349 0.950 . S
C336 C335 1.479 . S
C336 C337 1.375 . S
C336 C342 1.404 . S
C337 C336 1.375 . S
C337 C338 1.369 . S
C337 H350 0.950 . S
C338 C337 1.369 . S
C338 C339 1.392 . S
C338 H351 0.951 . S
C339 C338 1.392 . S
C339 C341 1.384 . S
H340 C342 0.949 1_565 S
C341 C339 1.384 . S
C341 C342 1.385 . S
C341 H343 0.950 1_545 S
C342 C336 1.404 . S
C342 H340 0.949 1_545 S
C342 C341 1.385 . S
H343 C341 0.950 1_565 S
H344 C328 0.951 1_545 S
H345 C330 0.951 . S
H346 C332 0.951 . S
H347 C333 0.950 . S
H348 C334 0.950 . S
H349 C335 0.950 . S
H350 C337 0.950 . S
H351 C338 0.951 . S
C352 C353 1.386 . S
C352 C354 1.383 . S
C352 H368 0.951 . S
C353 C352 1.386 . S
C353 C357 1.383 . S
C354 C352 1.383 . S
C354 C355 1.402 . S
C354 H369 0.951 . S
C355 C354 1.402 . S
C355 C356 1.375 . S
C355 C358 1.481 1_554 S
C356 C355 1.375 . S
C356 C357 1.367 . S
C356 H370 0.951 . S
C357 C353 1.383 . S
C357 C356 1.367 . S
C357 H371 0.950 . S
C358 C355 1.481 1_556 S
C358 C359 1.297 . S
C358 H372 0.950 . S
C359 C358 1.297 . S
C359 C360 1.479 . S
C359 H373 0.950 1_556 S
C360 C359 1.479 . S
C360 C361 1.375 . S
C360 C366 1.404 . S
C361 C360 1.375 . S
C361 C362 1.369 . S
C361 H374 0.950 . S
C362 C361 1.369 . S
C362 C363 1.392 . S
C362 H375 0.951 . S
C363 C362 1.392 . S
C363 C365 1.384 . S
H364 C366 0.949 . S
C365 C363 1.384 . S
C365 C366 1.385 . S
C365 H367 0.950 . S
C366 C360 1.404 . S
C366 H364 0.949 . S
C366 C365 1.385 . S
H367 C365 0.950 . S
H368 C352 0.951 . S
H369 C354 0.951 . S
H370 C356 0.951 . S
H371 C357 0.950 . S
H372 C358 0.950 . S
H373 C359 0.950 1_554 S
H374 C361 0.950 . S
H375 C362 0.951 . S
C376 C377 1.386 . S
C376 C378 1.383 . S
C376 H392 0.951 . S
C377 C376 1.386 . S
C377 C381 1.383 1_565 S
C378 C376 1.383 . S
C378 C379 1.402 . S
C378 H393 0.951 . S
C379 C378 1.402 . S
C379 C380 1.375 1_565 S
C379 C382 1.481 1_565 S
C380 C379 1.375 1_545 S
C380 C381 1.367 . S
C380 H394 0.951 . S
C381 C377 1.383 1_545 S
C381 C380 1.367 . S
C381 H395 0.950 . S
C382 C379 1.481 1_545 S
C382 C383 1.285 1_546 S
C382 H396 0.950 . S
C383 C382 1.285 1_564 S
C383 C384 1.469 1_465 S
C383 H397 0.975 . S
C384 C383 1.469 1_645 S
C384 C385 1.375 1_545 S
C384 C390 1.404 . S
C385 C384 1.375 1_565 S
C385 C386 1.369 1_565 S
C385 H398 0.950 . S
C386 C385 1.369 1_545 S
C386 C387 1.392 . S
C386 H399 0.951 1_545 S
C387 C386 1.392 . S
C387 C389 1.384 . S
H388 C390 0.949 . S
C389 C387 1.384 . S
C389 C390 1.385 . S
C389 H391 0.950 . S
C390 C384 1.404 . S
C390 H388 0.949 . S
C390 C389 1.385 . S
H391 C389 0.950 . S
H392 C376 0.951 . S
H393 C378 0.951 . S
H394 C380 0.951 . S
H395 C381 0.950 . S
H396 C382 0.950 . S
H397 C383 0.975 . S
H398 C385 0.950 . S
H399 C386 0.951 1_565 S
C400 C401 1.386 . S
C400 C402 1.383 . S
C400 H416 0.951 . S
C401 C400 1.386 . S
C401 C405 1.383 . S
C402 C400 1.383 . S
C402 C403 1.402 . S
C402 H417 0.951 . S
C403 C402 1.402 . S
C403 C404 1.375 . S
C403 C406 1.481 . S
C404 C403 1.375 . S
C404 C405 1.367 . S
C404 H418 0.951 . S
C405 C401 1.383 . S
C405 C404 1.367 . S
C405 H419 0.950 . S
C406 C403 1.481 . S
C406 C407 1.297 . S
C406 H420 0.950 . S
C407 C406 1.297 . S
C407 C408 1.479 . S
C407 H421 0.950 . S
C408 C407 1.479 . S
C408 C409 1.375 . S
C408 C414 1.404 . S
C409 C408 1.375 . S
C409 C410 1.369 . S
C409 H422 0.950 . S
C410 C409 1.369 . S
C410 C411 1.392 . S
C410 H423 0.951 . S
C411 C410 1.392 . S
C411 C413 1.384 . S
H412 C414 0.949 . S
C413 C411 1.384 . S
C413 C414 1.385 . S
C413 H415 0.950 . S
C414 C408 1.404 . S
C414 H412 0.949 . S
C414 C413 1.385 . S
H415 C413 0.950 . S
H416 C400 0.951 . S
H417 C402 0.951 . S
H418 C404 0.951 . S
H419 C405 0.950 . S
H420 C406 0.950 . S
H421 C407 0.950 . S
H422 C409 0.950 . S
H423 C410 0.951 . S
C424 C425 1.386 . S
C424 C426 1.383 . S
C424 H440 0.951 . S
C425 C424 1.386 . S
C425 C429 1.383 . S
C426 C424 1.383 . S
C426 C427 1.402 . S
C426 H441 0.951 . S
C427 C426 1.402 . S
C427 C428 1.375 . S
C427 C430 1.481 . S
C428 C427 1.375 . S
C428 C429 1.367 . S
C428 H442 0.951 . S
C429 C425 1.383 . S
C429 C428 1.367 . S
C429 H443 0.950 . S
C430 C427 1.481 . S
C430 C431 1.297 . S
C430 H444 0.950 . S
C431 C430 1.297 . S
C431 C432 1.479 . S
C431 H445 0.950 . S
C432 C431 1.479 . S
C432 C433 1.375 . S
C432 C438 1.404 . S
C433 C432 1.375 . S
C433 C434 1.369 . S
C433 H446 0.950 . S
C434 C433 1.369 . S
C434 C435 1.392 . S
C434 H447 0.951 . S
C435 C434 1.392 . S
C435 C437 1.384 . S
H436 C438 0.949 . S
C437 C435 1.384 . S
C437 C438 1.385 . S
C437 H439 0.950 . S
C438 C432 1.404 . S
C438 H436 0.949 . S
C438 C437 1.385 . S
H439 C437 0.950 . S
H440 C424 0.951 . S
H441 C426 0.951 . S
H442 C428 0.951 . S
H443 C429 0.950 . S
H444 C430 0.950 . S
H445 C431 0.950 . S
H446 C433 0.950 . S
H447 C434 0.951 . S
C448 C449 1.386 . S
C448 C450 1.383 . S
C448 H464 0.951 . S
C449 C448 1.386 . S
C449 C453 1.383 . S
C450 C448 1.383 . S
C450 C451 1.402 . S
C450 H465 0.951 . S
C451 C450 1.402 . S
C451 C452 1.375 . S
C451 C454 1.481 . S
C452 C451 1.375 . S
C452 C453 1.367 . S
C452 H466 0.951 . S
C453 C449 1.383 . S
C453 C452 1.367 . S
C453 H467 0.950 . S
C454 C451 1.481 . S
C454 C455 1.297 . S
C454 H468 0.950 . S
C455 C454 1.297 . S
C455 C456 1.479 . S
C455 H469 0.950 . S
C456 C455 1.479 . S
C456 C457 1.375 . S
C456 C462 1.404 . S
C457 C456 1.375 . S
C457 C458 1.369 . S
C457 H470 0.950 . S
C458 C457 1.369 . S
C458 C459 1.392 . S
C458 H471 0.951 . S
C459 C458 1.392 . S
C459 C461 1.384 . S
H460 C462 0.949 . S
C461 C459 1.384 . S
C461 C462 1.385 . S
C461 H463 0.950 . S
C462 C456 1.404 . S
C462 H460 0.949 . S
C462 C461 1.385 . S
H463 C461 0.950 . S
H464 C448 0.951 . S
H465 C450 0.951 . S
H466 C452 0.951 . S
H467 C453 0.950 . S
H468 C454 0.950 . S
H469 C455 0.950 . S
H470 C457 0.950 . S
H471 C458 0.951 . S
C472 C473 1.386 . S
C472 C474 1.383 . S
C472 H488 0.951 . S
C473 C472 1.386 . S
C473 C477 1.383 . S
C474 C472 1.383 . S
C474 C475 1.402 . S
C474 H489 0.951 . S
C475 C474 1.402 . S
C475 C476 1.375 . S
C475 C478 1.481 . S
C476 C475 1.375 . S
C476 C477 1.367 . S
C476 H490 0.951 . S
C477 C473 1.383 . S
C477 C476 1.367 . S
C477 H491 0.950 . S
C478 C475 1.481 . S
C478 C479 1.297 . S
C478 H492 0.950 . S
C479 C478 1.297 . S
C479 C480 1.479 . S
C479 H493 0.950 . S
C480 C479 1.479 . S
C480 C481 1.375 . S
C480 C486 1.404 . S
C481 C480 1.375 . S
C481 C482 1.369 . S
C481 H494 0.950 . S
C482 C481 1.369 . S
C482 C483 1.392 . S
C482 H495 0.951 . S
C483 C482 1.392 . S
C483 C485 1.384 . S
H484 C486 0.949 . S
C485 C483 1.384 . S
C485 C486 1.385 . S
C485 H487 0.950 . S
C486 C480 1.404 . S
C486 H484 0.949 . S
C486 C485 1.385 . S
H487 C485 0.950 . S
H488 C472 0.951 . S
H489 C474 0.951 . S
H490 C476 0.951 . S
H491 C477 0.950 . S
H492 C478 0.950 . S
H493 C479 0.950 . S
H494 C481 0.950 . S
H495 C482 0.951 . S
C113 C12 1.077 . S
C123 C32 1.113 . S
C137 C46 1.047 . S
C147 C26 1.076 . S
C161 C40 1.071 . S
C171 C4 1.089 . S
C185 C54 1.099 . S
C195 C18 1.004 . S
C209 C88 1.031 . S
C219 C68 1.096 . S
C233 C82 1.099 . S
C243 C102 1.052 . S
C257 C96 1.083 . S
C267 C60 1.001 . S
C281 C110 1.083 . S
C291 C74 1.000 . S
C305 C5 1.372 . S
C315 C61 1.278 . S
C329 C19 1.314 . S
C339 C75 1.414 . S
C353 C33 1.314 . S
C363 C89 1.412 . S
C377 C103 1.354 . S
C387 C47 1.432 . S
C401 C11 1.503 . S
C411 C25 1.439 . S
C425 C53 1.464 . S
C435 C39 1.481 . S
C449 C81 1.482 . S
C459 C67 1.462 . S
C473 C95 1.466 . S
C483 C109 1.440 . S
