# Generated by pormake.
# Topology uox, (4)-cn, num edge types: 1
# Building blocks:
#     Node 0, Type 0, BuildingBlock: CEKHIL_clean_sbu_0, # of connection points: 4
#     Node 1, Type 0, BuildingBlock: CEKHIL_clean_sbu_0, # of connection points: 4
#     Node 2, Type 0, BuildingBlock: CEKHIL_clean_sbu_0, # of connection points: 4
#     Node 3, Type 0, BuildingBlock: CEKHIL_clean_sbu_0, # of connection points: 4
#     Node 4, Type 0, BuildingBlock: CEKHIL_clean_sbu_0, # of connection points: 4
#     Node 5, Type 0, BuildingBlock: CEKHIL_clean_sbu_0, # of connection points: 4
#     Node 6, Type 0, BuildingBlock: CEKHIL_clean_sbu_0, # of connection points: 4
#     Node 7, Type 0, BuildingBlock: CEKHIL_clean_sbu_0, # of connection points: 4
#     Node 8, Type 0, BuildingBlock: CEKHIL_clean_sbu_0, # of connection points: 4
#     Node 9, Type 0, BuildingBlock: CEKHIL_clean_sbu_0, # of connection points: 4
#     Node 10, Type 0, BuildingBlock: CEKHIL_clean_sbu_0, # of connection points: 4
#     Node 11, Type 0, BuildingBlock: CEKHIL_clean_sbu_0, # of connection points: 4
#     Node 12, Type 0, BuildingBlock: CEKHIL_clean_sbu_0, # of connection points: 4
#     Node 13, Type 0, BuildingBlock: CEKHIL_clean_sbu_0, # of connection points: 4
#     Node 14, Type 0, BuildingBlock: CEKHIL_clean_sbu_0, # of connection points: 4
#     Node 15, Type 0, BuildingBlock: CEKHIL_clean_sbu_0, # of connection points: 4
#     Node 16, Type 0, BuildingBlock: CEKHIL_clean_sbu_0, # of connection points: 4
#     Node 17, Type 0, BuildingBlock: CEKHIL_clean_sbu_0, # of connection points: 4
#     Node 18, Type 0, BuildingBlock: CEKHIL_clean_sbu_0, # of connection points: 4
#     Node 19, Type 0, BuildingBlock: CEKHIL_clean_sbu_0, # of connection points: 4
#     Node 20, Type 0, BuildingBlock: CEKHIL_clean_sbu_0, # of connection points: 4
#     Node 21, Type 0, BuildingBlock: CEKHIL_clean_sbu_0, # of connection points: 4
#     Node 22, Type 0, BuildingBlock: CEKHIL_clean_sbu_0, # of connection points: 4
#     Node 23, Type 0, BuildingBlock: CEKHIL_clean_sbu_0, # of connection points: 4
#     Node 24, Type 0, BuildingBlock: CEKHIL_clean_sbu_0, # of connection points: 4
#     Node 25, Type 0, BuildingBlock: CEKHIL_clean_sbu_0, # of connection points: 4
#     Node 26, Type 0, BuildingBlock: CEKHIL_clean_sbu_0, # of connection points: 4
#     Node 27, Type 0, BuildingBlock: CEKHIL_clean_sbu_0, # of connection points: 4
#     Node 28, Type 0, BuildingBlock: CEKHIL_clean_sbu_0, # of connection points: 4
#     Node 29, Type 0, BuildingBlock: CEKHIL_clean_sbu_0, # of connection points: 4
#     Node 30, Type 0, BuildingBlock: CEKHIL_clean_sbu_0, # of connection points: 4
#     Node 31, Type 0, BuildingBlock: CEKHIL_clean_sbu_0, # of connection points: 4
#     Edge 32, Type (0, 0), BuildingBlock: CIFDUS_clean_linker_0, # of connection points: 2
#     Edge 33, Type (0, 0), BuildingBlock: CIFDUS_clean_linker_0, # of connection points: 2
#     Edge 34, Type (0, 0), BuildingBlock: CIFDUS_clean_linker_0, # of connection points: 2
#     Edge 35, Type (0, 0), BuildingBlock: CIFDUS_clean_linker_0, # of connection points: 2
#     Edge 36, Type (0, 0), BuildingBlock: CIFDUS_clean_linker_0, # of connection points: 2
#     Edge 37, Type (0, 0), BuildingBlock: CIFDUS_clean_linker_0, # of connection points: 2
#     Edge 38, Type (0, 0), BuildingBlock: CIFDUS_clean_linker_0, # of connection points: 2
#     Edge 39, Type (0, 0), BuildingBlock: CIFDUS_clean_linker_0, # of connection points: 2
#     Edge 40, Type (0, 0), BuildingBlock: CIFDUS_clean_linker_0, # of connection points: 2
#     Edge 41, Type (0, 0), BuildingBlock: CIFDUS_clean_linker_0, # of connection points: 2
#     Edge 42, Type (0, 0), BuildingBlock: CIFDUS_clean_linker_0, # of connection points: 2
#     Edge 43, Type (0, 0), BuildingBlock: CIFDUS_clean_linker_0, # of connection points: 2
#     Edge 44, Type (0, 0), BuildingBlock: CIFDUS_clean_linker_0, # of connection points: 2
#     Edge 45, Type (0, 0), BuildingBlock: CIFDUS_clean_linker_0, # of connection points: 2
#     Edge 46, Type (0, 0), BuildingBlock: CIFDUS_clean_linker_0, # of connection points: 2
#     Edge 47, Type (0, 0), BuildingBlock: CIFDUS_clean_linker_0, # of connection points: 2
#     Edge 48, Type (0, 0), BuildingBlock: CIFDUS_clean_linker_0, # of connection points: 2
#     Edge 49, Type (0, 0), BuildingBlock: CIFDUS_clean_linker_0, # of connection points: 2
#     Edge 50, Type (0, 0), BuildingBlock: CIFDUS_clean_linker_0, # of connection points: 2
#     Edge 51, Type (0, 0), BuildingBlock: CIFDUS_clean_linker_0, # of connection points: 2
#     Edge 52, Type (0, 0), BuildingBlock: CIFDUS_clean_linker_0, # of connection points: 2
#     Edge 53, Type (0, 0), BuildingBlock: CIFDUS_clean_linker_0, # of connection points: 2
#     Edge 54, Type (0, 0), BuildingBlock: CIFDUS_clean_linker_0, # of connection points: 2
#     Edge 55, Type (0, 0), BuildingBlock: CIFDUS_clean_linker_0, # of connection points: 2
#     Edge 56, Type (0, 0), BuildingBlock: CIFDUS_clean_linker_0, # of connection points: 2
#     Edge 57, Type (0, 0), BuildingBlock: CIFDUS_clean_linker_0, # of connection points: 2
#     Edge 58, Type (0, 0), BuildingBlock: CIFDUS_clean_linker_0, # of connection points: 2
#     Edge 59, Type (0, 0), BuildingBlock: CIFDUS_clean_linker_0, # of connection points: 2
#     Edge 60, Type (0, 0), BuildingBlock: CIFDUS_clean_linker_0, # of connection points: 2
#     Edge 61, Type (0, 0), BuildingBlock: CIFDUS_clean_linker_0, # of connection points: 2
#     Edge 62, Type (0, 0), BuildingBlock: CIFDUS_clean_linker_0, # of connection points: 2
#     Edge 63, Type (0, 0), BuildingBlock: CIFDUS_clean_linker_0, # of connection points: 2
#     Edge 64, Type (0, 0), BuildingBlock: CIFDUS_clean_linker_0, # of connection points: 2
#     Edge 65, Type (0, 0), BuildingBlock: CIFDUS_clean_linker_0, # of connection points: 2
#     Edge 66, Type (0, 0), BuildingBlock: CIFDUS_clean_linker_0, # of connection points: 2
#     Edge 67, Type (0, 0), BuildingBlock: CIFDUS_clean_linker_0, # of connection points: 2
#     Edge 68, Type (0, 0), BuildingBlock: CIFDUS_clean_linker_0, # of connection points: 2
#     Edge 69, Type (0, 0), BuildingBlock: CIFDUS_clean_linker_0, # of connection points: 2
#     Edge 70, Type (0, 0), BuildingBlock: CIFDUS_clean_linker_0, # of connection points: 2
#     Edge 71, Type (0, 0), BuildingBlock: CIFDUS_clean_linker_0, # of connection points: 2
#     Edge 72, Type (0, 0), BuildingBlock: CIFDUS_clean_linker_0, # of connection points: 2
#     Edge 73, Type (0, 0), BuildingBlock: CIFDUS_clean_linker_0, # of connection points: 2
#     Edge 74, Type (0, 0), BuildingBlock: CIFDUS_clean_linker_0, # of connection points: 2
#     Edge 75, Type (0, 0), BuildingBlock: CIFDUS_clean_linker_0, # of connection points: 2
#     Edge 76, Type (0, 0), BuildingBlock: CIFDUS_clean_linker_0, # of connection points: 2
#     Edge 77, Type (0, 0), BuildingBlock: CIFDUS_clean_linker_0, # of connection points: 2
#     Edge 78, Type (0, 0), BuildingBlock: CIFDUS_clean_linker_0, # of connection points: 2
#     Edge 79, Type (0, 0), BuildingBlock: CIFDUS_clean_linker_0, # of connection points: 2
#     Edge 80, Type (0, 0), BuildingBlock: CIFDUS_clean_linker_0, # of connection points: 2
#     Edge 81, Type (0, 0), BuildingBlock: CIFDUS_clean_linker_0, # of connection points: 2
#     Edge 82, Type (0, 0), BuildingBlock: CIFDUS_clean_linker_0, # of connection points: 2
#     Edge 83, Type (0, 0), BuildingBlock: CIFDUS_clean_linker_0, # of connection points: 2
#     Edge 84, Type (0, 0), BuildingBlock: CIFDUS_clean_linker_0, # of connection points: 2
#     Edge 85, Type (0, 0), BuildingBlock: CIFDUS_clean_linker_0, # of connection points: 2
#     Edge 86, Type (0, 0), BuildingBlock: CIFDUS_clean_linker_0, # of connection points: 2
#     Edge 87, Type (0, 0), BuildingBlock: CIFDUS_clean_linker_0, # of connection points: 2
#     Edge 88, Type (0, 0), BuildingBlock: CIFDUS_clean_linker_0, # of connection points: 2
#     Edge 89, Type (0, 0), BuildingBlock: CIFDUS_clean_linker_0, # of connection points: 2
#     Edge 90, Type (0, 0), BuildingBlock: CIFDUS_clean_linker_0, # of connection points: 2
#     Edge 91, Type (0, 0), BuildingBlock: CIFDUS_clean_linker_0, # of connection points: 2
#     Edge 92, Type (0, 0), BuildingBlock: CIFDUS_clean_linker_0, # of connection points: 2
#     Edge 93, Type (0, 0), BuildingBlock: CIFDUS_clean_linker_0, # of connection points: 2
#     Edge 94, Type (0, 0), BuildingBlock: CIFDUS_clean_linker_0, # of connection points: 2
#     Edge 95, Type (0, 0), BuildingBlock: CIFDUS_clean_linker_0, # of connection points: 2
# Relax obj value: 0.060
# Max RMSD: 0.089
# Mean RMSD: 0.089
data_MOF--net-uox--node1-CEKHIL_clean_sbu_0--edge1-CIFDUS_clean_linker_0
_symmetry_space_group_name_H-M    P1
_symmetry_Int_Tables_number       1
_symmetry_cell_setting            triclinic
loop_
_symmetry_equiv_pos_as_xyz
'x, y, z'
_cell_length_a     40.116206
_cell_length_b     40.092485
_cell_length_c     67.32315
_cell_angle_alpha  89.973755
_cell_angle_beta   89.985911
_cell_angle_gamma 89.997396
loop_
_atom_site_label
_atom_site_type_symbol
_atom_site_fract_x
_atom_site_fract_y
_atom_site_fract_z
_atom_type_partial_charge
Co0 Co 0.42044 0.06199 0.16976 0.0
O1 O 0.43175 0.02705 0.18837 0.0
O2 O 0.3939 0.06589 0.19401 0.0
C3 C 0.47309 0.07806 0.16204 0.0
O4 O 0.40344 0.10283 0.15401 0.0
Co5 Co 0.44003 0.05279 0.1256 0.0
O6 O 0.43058 0.1012 0.12474 0.0
C7 C 0.38269 0.01551 0.14108 0.0
C8 C 0.40978 0.03961 0.20033 0.0
C9 C 0.41251 0.11642 0.13741 0.0
O10 O 0.38562 0.03164 0.15753 0.0
O11 O 0.40311 0.01893 0.1266 0.0
O12 O 0.45853 0.08845 0.17812 0.0
O13 O 0.45713 0.05493 0.15253 0.0
Co14 Co 0.19627 0.16609 0.41751 0.0
O15 O 0.22894 0.17535 0.4379 0.0
O16 O 0.19112 0.13541 0.43972 0.0
C17 C 0.17921 0.21936 0.41315 0.0
O18 O 0.15745 0.15034 0.39981 0.0
Co19 Co 0.20485 0.19535 0.37508 0.0
O20 O 0.15763 0.18205 0.37224 0.0
C21 C 0.24454 0.1365 0.38686 0.0
C22 C 0.21543 0.15156 0.44817 0.0
C23 C 0.14377 0.16062 0.38352 0.0
O24 O 0.22895 0.13514 0.40362 0.0
O25 O 0.23976 0.15962 0.37404 0.0
O26 O 0.1677 0.20146 0.42767 0.0
O27 O 0.20311 0.20584 0.40307 0.0
Co28 Co 0.08235 0.94189 0.67038 0.0
O29 O 0.07083 0.97713 0.68874 0.0
O30 O 0.10661 0.93682 0.69541 0.0
C31 C 0.02969 0.92863 0.66104 0.0
O32 O 0.09931 0.90066 0.65496 0.0
Co33 Co 0.06603 0.95121 0.62557 0.0
O34 O 0.07438 0.90257 0.62499 0.0
C35 C 0.12327 0.98698 0.64266 0.0
C36 C 0.09125 0.96367 0.70131 0.0
C37 C 0.09136 0.88721 0.63813 0.0
O38 O 0.11909 0.97101 0.65911 0.0
O39 O 0.10357 0.98407 0.62781 0.0
O40 O 0.04222 0.91691 0.67741 0.0
O41 O 0.0478 0.95077 0.65218 0.0
Co42 Co 0.31092 0.84218 0.91534 0.0
O43 O 0.27667 0.83172 0.93476 0.0
O44 O 0.31436 0.8716 0.93803 0.0
C45 C 0.32841 0.78915 0.91002 0.0
O46 O 0.35097 0.85996 0.8997 0.0
Co47 Co 0.30851 0.81713 0.87187 0.0
O48 O 0.35519 0.83315 0.87055 0.0
C49 C 0.26516 0.87317 0.88404 0.0
C50 C 0.28945 0.85526 0.94561 0.0
C51 C 0.36676 0.85318 0.88351 0.0
O52 O 0.27932 0.87378 0.90124 0.0
O53 O 0.27189 0.85121 0.87082 0.0
O54 O 0.33871 0.80598 0.92532 0.0
O55 O 0.30568 0.8036 0.89946 0.0
Co56 Co 0.42187 0.95653 0.34315 0.0
O57 O 0.43174 0.99295 0.32525 0.0
O58 O 0.39269 0.95518 0.31993 0.0
C59 C 0.47496 0.93904 0.34803 0.0
O60 O 0.40594 0.91457 0.35819 0.0
Co61 Co 0.44787 0.96013 0.38664 0.0
O62 O 0.43724 0.91198 0.38593 0.0
C63 C 0.38884 0.99959 0.37549 0.0
C64 C 0.40859 0.9815 0.3137 0.0
C65 C 0.41689 0.89885 0.37367 0.0
O66 O 0.38922 0.9861 0.35809 0.0
O67 O 0.41118 0.99391 0.38864 0.0
O68 O 0.4585 0.93032 0.33227 0.0
O69 O 0.46046 0.96131 0.35893 0.0
Co70 Co 0.31022 0.16235 0.58937 0.0
O71 O 0.27709 0.17452 0.56958 0.0
O72 O 0.31824 0.13872 0.56476 0.0
C73 C 0.32277 0.21466 0.5998 0.0
O74 O 0.35009 0.14412 0.60502 0.0
Co75 Co 0.30177 0.17635 0.63431 0.0
O76 O 0.34974 0.16477 0.63599 0.0
C77 C 0.26382 0.12132 0.61583 0.0
C78 C 0.29262 0.15442 0.55759 0.0
C79 C 0.36406 0.14878 0.62204 0.0
O80 O 0.2799 0.12559 0.59943 0.0
O81 O 0.26758 0.14021 0.631 0.0
O82 O 0.33588 0.2026 0.58367 0.0
O83 O 0.30028 0.19615 0.60803 0.0
Co84 Co 0.08185 0.05116 0.84434 0.0
O85 O 0.06874 0.0142 0.82752 0.0
O86 O 0.10658 0.05175 0.81937 0.0
C87 C 0.02958 0.06809 0.85275 0.0
O88 O 0.1012 0.09338 0.85743 0.0
Co89 Co 0.06409 0.05134 0.88937 0.0
O90 O 0.07756 0.09874 0.88756 0.0
C91 C 0.12018 0.0099 0.87514 0.0
C92 C 0.08986 0.02518 0.81447 0.0
C93 C 0.09552 0.11013 0.87348 0.0
O94 O 0.11699 0.02201 0.85747 0.0
O95 O 0.10033 0.01698 0.88943 0.0
O96 O 0.04284 0.07711 0.83597 0.0
O97 O 0.04674 0.0467 0.86279 0.0
Co98 Co 0.18774 0.85209 0.08459 0.0
O99 O 0.21975 0.83951 0.06445 0.0
O100 O 0.18203 0.87932 0.06095 0.0
C101 C 0.17041 0.79999 0.09219 0.0
O102 O 0.14952 0.87093 0.10158 0.0
Co103 Co 0.19746 0.83113 0.12835 0.0
O104 O 0.15001 0.8441 0.1309 0.0
C105 C 0.23831 0.88587 0.11223 0.0
C106 C 0.20621 0.86203 0.05322 0.0
C107 C 0.13587 0.86329 0.11838 0.0
O108 O 0.22115 0.88477 0.09605 0.0
O109 O 0.23397 0.86536 0.12658 0.0
O110 O 0.15867 0.81568 0.07685 0.0
O111 O 0.19479 0.81473 0.10127 0.0
Co112 Co 0.59083 0.94829 0.83765 0.0
O113 O 0.57987 0.98451 0.81987 0.0
O114 O 0.62018 0.94794 0.8146 0.0
C115 C 0.53826 0.92941 0.84243 0.0
O116 O 0.60839 0.90686 0.85234 0.0
Co117 Co 0.56517 0.9498 0.88116 0.0
O118 O 0.57929 0.90251 0.88079 0.0
C119 C 0.62192 0.99245 0.87001 0.0
C120 C 0.60357 0.97382 0.80844 0.0
C121 C 0.59967 0.89062 0.8681 0.0
O122 O 0.62234 0.97877 0.85267 0.0
O123 O 0.5998 0.98577 0.88313 0.0
O124 O 0.55505 0.92105 0.82671 0.0
O125 O 0.5522 0.9518 0.85349 0.0
Co126 Co 0.80518 0.83397 0.5987 0.0
O127 O 0.77332 0.82453 0.57771 0.0
O128 O 0.81443 0.86093 0.57529 0.0
C129 C 0.81771 0.78029 0.60665 0.0
O130 O 0.84387 0.84951 0.61654 0.0
Co131 Co 0.79208 0.81139 0.64233 0.0
O132 O 0.8399 0.82218 0.64562 0.0
C133 C 0.75807 0.87151 0.62678 0.0
C134 C 0.7894 0.84593 0.56687 0.0
C135 C 0.85583 0.84093 0.63362 0.0
O136 O 0.77418 0.86936 0.61019 0.0
O137 O 0.76046 0.84983 0.64068 0.0
O138 O 0.83162 0.79473 0.59149 0.0
O139 O 0.79422 0.79724 0.615 0.0
Co140 Co 0.92072 0.04891 0.34879 0.0
O141 O 0.93603 0.01271 0.33217 0.0
O142 O 0.89663 0.04836 0.32361 0.0
C143 C 0.97252 0.06676 0.35744 0.0
O144 O 0.89995 0.09102 0.36098 0.0
Co145 Co 0.93726 0.05284 0.39387 0.0
O146 O 0.9252 0.10035 0.39023 0.0
C147 C 0.8828 0.00847 0.38013 0.0
C148 C 0.9155 0.02332 0.31868 0.0
C149 C 0.90669 0.10996 0.37595 0.0
O150 O 0.88608 0.01903 0.36205 0.0
O151 O 0.90201 0.01758 0.3943 0.0
O152 O 0.95941 0.0756 0.34058 0.0
O153 O 0.95521 0.04576 0.36763 0.0
Co154 Co 0.69796 0.16396 0.0833 0.0
O155 O 0.73375 0.1771 0.06567 0.0
O156 O 0.69658 0.13833 0.0586 0.0
C157 C 0.68015 0.21607 0.09121 0.0
O158 O 0.65695 0.14468 0.09775 0.0
Co159 Co 0.70265 0.1833 0.12795 0.0
O160 O 0.65586 0.16734 0.12834 0.0
C161 C 0.7441 0.12845 0.11283 0.0
C162 C 0.72256 0.15543 0.05305 0.0
C163 C 0.6426 0.14967 0.1147 0.0
O164 O 0.72817 0.12965 0.0962 0.0
O165 O 0.73978 0.14973 0.12677 0.0
O166 O 0.67091 0.20184 0.07478 0.0
O167 O 0.70274 0.20011 0.10105 0.0
Co168 Co 0.59294 0.06312 0.66704 0.0
O169 O 0.58068 0.02636 0.68414 0.0
O170 O 0.62105 0.06228 0.69061 0.0
C171 C 0.54061 0.08239 0.66162 0.0
O172 O 0.61194 0.1049 0.6534 0.0
Co173 Co 0.56989 0.06464 0.62312 0.0
O174 O 0.58504 0.1116 0.62438 0.0
C175 C 0.62494 0.01993 0.6346 0.0
C176 C 0.60388 0.03637 0.69615 0.0
C177 C 0.60484 0.1222 0.63777 0.0
O178 O 0.62482 0.03284 0.65215 0.0
O179 O 0.60365 0.02779 0.62122 0.0
O180 O 0.55673 0.09024 0.67767 0.0
O181 O 0.55514 0.0606 0.65041 0.0
Co182 Co 0.69376 0.84017 0.42568 0.0
O183 O 0.72716 0.82811 0.44542 0.0
O184 O 0.69115 0.86938 0.44862 0.0
C185 C 0.67421 0.78778 0.42013 0.0
O186 O 0.65473 0.85968 0.40972 0.0
Co187 Co 0.69578 0.81438 0.38217 0.0
O188 O 0.65012 0.83292 0.38054 0.0
C189 C 0.74024 0.86984 0.39413 0.0
C190 C 0.71498 0.85176 0.45643 0.0
C191 C 0.63919 0.85366 0.39331 0.0
O192 O 0.72677 0.87069 0.41159 0.0
O193 O 0.73268 0.848 0.38103 0.0
O194 O 0.66432 0.80489 0.43542 0.0
O195 O 0.69766 0.80146 0.4098 0.0
Co196 Co 0.91155 0.94329 0.17399 0.0
O197 O 0.92693 0.97408 0.19419 0.0
O198 O 0.88355 0.94056 0.19753 0.0
C199 C 0.96252 0.92279 0.16603 0.0
O200 O 0.88945 0.90616 0.15748 0.0
Co201 Co 0.93254 0.94939 0.12983 0.0
O202 O 0.91646 0.90275 0.12835 0.0
C203 C 0.88086 0.99441 0.14548 0.0
C204 C 0.9029 0.96305 0.20531 0.0
C205 C 0.89616 0.89088 0.14107 0.0
O206 O 0.88147 0.97896 0.16228 0.0
O207 O 0.90015 0.98743 0.13094 0.0
O208 O 0.94651 0.91176 0.1815 0.0
O209 O 0.94866 0.94759 0.15697 0.0
Co210 Co 0.80354 0.17308 0.90901 0.0
O211 O 0.76813 0.18323 0.9276 0.0
O212 O 0.80768 0.14609 0.93308 0.0
C213 C 0.81781 0.22657 0.90175 0.0
O214 O 0.84484 0.15682 0.89345 0.0
Co215 Co 0.79711 0.19524 0.86479 0.0
O216 O 0.84509 0.18387 0.86414 0.0
C217 C 0.75948 0.13645 0.87885 0.0
C218 C 0.7811 0.16132 0.93946 0.0
C219 C 0.85916 0.16511 0.87693 0.0
O220 O 0.77401 0.13816 0.89593 0.0
O221 O 0.76389 0.158 0.86506 0.0
O222 O 0.82912 0.21213 0.91767 0.0
O223 O 0.79575 0.20968 0.89209 0.0
Co224 Co 0.92487 0.5619 0.67317 0.0
O225 O 0.93766 0.52838 0.69225 0.0
O226 O 0.89694 0.56473 0.69687 0.0
C227 C 0.97666 0.58094 0.6662 0.0
O228 O 0.90591 0.60081 0.65655 0.0
Co229 Co 0.94703 0.55206 0.62956 0.0
O230 O 0.93374 0.59947 0.6275 0.0
C231 C 0.89205 0.51138 0.64493 0.0
C232 C 0.91418 0.53964 0.70362 0.0
C233 C 0.91427 0.61402 0.63971 0.0
O234 O 0.89281 0.52893 0.66092 0.0
O235 O 0.91299 0.51524 0.63076 0.0
O236 O 0.96064 0.59114 0.68181 0.0
O237 O 0.96268 0.55653 0.65671 0.0
Co238 Co 0.67891 0.66478 0.92226 0.0
O239 O 0.71119 0.67932 0.94174 0.0
O240 O 0.67436 0.63896 0.94645 0.0
C241 C 0.66035 0.71582 0.91324 0.0
O242 O 0.64086 0.64365 0.90624 0.0
Co243 Co 0.68754 0.68192 0.87791 0.0
O244 O 0.64074 0.66646 0.87577 0.0
C245 C 0.73006 0.63009 0.89558 0.0
C246 C 0.69867 0.65687 0.95347 0.0
C247 C 0.62717 0.6485 0.88914 0.0
O248 O 0.71258 0.63196 0.91156 0.0
O249 O 0.72542 0.64931 0.88063 0.0
O250 O 0.64927 0.70118 0.92913 0.0
O251 O 0.6849 0.70089 0.90443 0.0
Co252 Co 0.59602 0.4369 0.17356 0.0
O253 O 0.58177 0.46924 0.19313 0.0
O254 O 0.62273 0.43311 0.19755 0.0
C255 C 0.54461 0.41747 0.16573 0.0
O256 O 0.61674 0.39878 0.15718 0.0
Co257 Co 0.57623 0.44532 0.12967 0.0
O258 O 0.59185 0.39865 0.1273 0.0
C259 C 0.62958 0.48769 0.14577 0.0
C260 C 0.60451 0.45709 0.20474 0.0
C261 C 0.61083 0.38511 0.14015 0.0
O262 O 0.62806 0.47094 0.16208 0.0
O263 O 0.6097 0.48262 0.1312 0.0
O264 O 0.56045 0.4068 0.18129 0.0
O265 O 0.55867 0.44215 0.1565 0.0
Co266 Co 0.81671 0.33865 0.41752 0.0
O267 O 0.78567 0.31872 0.43572 0.0
O268 O 0.81644 0.3631 0.4425 0.0
C269 C 0.84109 0.29029 0.40816 0.0
O270 O 0.85341 0.36444 0.40281 0.0
Co271 Co 0.81128 0.32389 0.37305 0.0
O272 O 0.85774 0.34047 0.37281 0.0
C273 C 0.76526 0.37266 0.39022 0.0
C274 C 0.79468 0.34117 0.44846 0.0
C275 C 0.86916 0.35946 0.38636 0.0
O276 O 0.78056 0.36889 0.40686 0.0
O277 O 0.77269 0.35586 0.37468 0.0
O278 O 0.84973 0.30547 0.42438 0.0
O279 O 0.81548 0.30283 0.39902 0.0
Co280 Co 0.92041 0.45561 0.84706 0.0
O281 O 0.93338 0.49112 0.82933 0.0
O282 O 0.89759 0.45129 0.82159 0.0
C283 C 0.97205 0.44144 0.85762 0.0
O284 O 0.90217 0.41424 0.86169 0.0
Co285 Co 0.9331 0.46427 0.89221 0.0
O286 O 0.9242 0.41569 0.89245 0.0
C287 C 0.878 0.50107 0.87362 0.0
C288 C 0.91334 0.47829 0.81632 0.0
C289 C 0.90852 0.40051 0.87868 0.0
O290 O 0.88315 0.48475 0.85745 0.0
O291 O 0.8965 0.49806 0.88901 0.0
O292 O 0.96058 0.43038 0.84082 0.0
O293 O 0.95374 0.46378 0.86618 0.0
Co294 Co 0.81203 0.66472 0.08921 0.0
O295 O 0.77838 0.67827 0.07027 0.0
O296 O 0.81592 0.63874 0.06506 0.0
C297 C 0.83015 0.71647 0.09741 0.0
O298 O 0.85158 0.64479 0.10447 0.0
Co299 Co 0.80566 0.68234 0.13349 0.0
O300 O 0.85321 0.66907 0.13449 0.0
C301 C 0.76413 0.62824 0.11748 0.0
C302 C 0.79102 0.65618 0.05837 0.0
C303 C 0.86641 0.65097 0.12107 0.0
O304 O 0.77978 0.63109 0.10085 0.0
O305 O 0.76948 0.64758 0.13227 0.0
O306 O 0.84044 0.70158 0.08143 0.0
O307 O 0.80641 0.70128 0.10688 0.0
Co308 Co 0.58916 0.56341 0.34279 0.0
O309 O 0.57534 0.5311 0.32301 0.0
O310 O 0.61324 0.57035 0.31814 0.0
C311 C 0.53762 0.57867 0.35328 0.0
O312 O 0.6092 0.60198 0.35892 0.0
Co313 Co 0.57492 0.55294 0.38746 0.0
O314 O 0.58854 0.60032 0.38992 0.0
C315 C 0.62755 0.51307 0.36821 0.0
C316 C 0.59644 0.54531 0.31108 0.0
C317 C 0.60499 0.615 0.37628 0.0
O318 O 0.62438 0.53101 0.35243 0.0
O319 O 0.60866 0.51646 0.38341 0.0
O320 O 0.55041 0.59131 0.33722 0.0
O321 O 0.55473 0.55482 0.36129 0.0
Co322 Co 0.70036 0.3454 0.5893 0.0
O323 O 0.73149 0.3293 0.56974 0.0
O324 O 0.69899 0.37347 0.56585 0.0
C325 C 0.67769 0.29543 0.59706 0.0
O326 O 0.66351 0.36814 0.60539 0.0
Co327 Co 0.70688 0.32533 0.63325 0.0
O328 O 0.6601 0.3411 0.63451 0.0
C329 C 0.75221 0.37627 0.61745 0.0
C330 C 0.72158 0.35371 0.55853 0.0
C331 C 0.64813 0.36119 0.6217 0.0
O332 O 0.73601 0.3751 0.60098 0.0
O333 O 0.74562 0.35718 0.63218 0.0
O334 O 0.66818 0.31181 0.5814 0.0
O335 O 0.7031 0.30791 0.60635 0.0
Co336 Co 0.0962 0.44602 0.33863 0.0
O337 O 0.08255 0.47846 0.319 0.0
O338 O 0.12345 0.44192 0.31503 0.0
C339 C 0.04492 0.42668 0.34631 0.0
O340 O 0.11665 0.40789 0.35473 0.0
Co341 Co 0.07666 0.45332 0.38259 0.0
O342 O 0.09205 0.40648 0.38466 0.0
C343 C 0.13005 0.4958 0.36672 0.0
C344 C 0.10561 0.46601 0.30768 0.0
C345 C 0.11092 0.39356 0.37153 0.0
O346 O 0.12815 0.47958 0.35028 0.0
O347 O 0.11049 0.4904 0.38141 0.0
O348 O 0.06076 0.41621 0.33069 0.0
O349 O 0.05888 0.45125 0.35571 0.0
Co350 Co 0.31283 0.33965 0.0933 0.0
O351 O 0.27923 0.32567 0.07431 0.0
O352 O 0.31973 0.36157 0.06797 0.0
C353 C 0.32633 0.28826 0.10493 0.0
O354 O 0.35291 0.35938 0.1082 0.0
Co355 Co 0.30459 0.32868 0.13851 0.0
O356 O 0.35269 0.33996 0.13948 0.0
C357 C 0.26605 0.38201 0.11882 0.0
C358 C 0.29391 0.34517 0.06162 0.0
C359 C 0.367 0.35528 0.12525 0.0
O360 O 0.28228 0.37682 0.10258 0.0
O361 O 0.26991 0.36414 0.13442 0.0
O362 O 0.33895 0.29938 0.08843 0.0
O363 O 0.30363 0.30694 0.11281 0.0
Co364 Co 0.40448 0.55768 0.83726 0.0
O365 O 0.41851 0.52469 0.81807 0.0
O366 O 0.37665 0.5597 0.81367 0.0
C367 C 0.45569 0.57784 0.84456 0.0
O368 O 0.38388 0.59643 0.85301 0.0
Co369 Co 0.42494 0.552 0.88131 0.0
O370 O 0.40993 0.59905 0.8825 0.0
C371 C 0.37227 0.5079 0.86618 0.0
C372 C 0.39483 0.53555 0.80663 0.0
C373 C 0.39059 0.61156 0.86947 0.0
O374 O 0.37317 0.52398 0.84963 0.0
O375 O 0.39224 0.51397 0.88056 0.0
O376 O 0.43982 0.58764 0.82878 0.0
O377 O 0.44181 0.55361 0.85424 0.0
Co378 Co 0.20031 0.67126 0.58985 0.0
O379 O 0.23248 0.68662 0.57028 0.0
O380 O 0.19324 0.64911 0.56459 0.0
C381 C 0.1851 0.72203 0.60178 0.0
O382 O 0.16178 0.64986 0.60537 0.0
Co383 Co 0.20989 0.68293 0.635 0.0
O384 O 0.1625 0.66921 0.63666 0.0
C385 C 0.24903 0.63033 0.61497 0.0
C386 C 0.21804 0.66658 0.5578 0.0
C387 C 0.14833 0.65319 0.62267 0.0
O388 O 0.23265 0.63528 0.59874 0.0
O389 O 0.24493 0.64803 0.63061 0.0
O390 O 0.17228 0.71051 0.58544 0.0
O391 O 0.20892 0.70428 0.60922 0.0
Co392 Co 0.09576 0.57333 0.17057 0.0
O393 O 0.08286 0.54076 0.19029 0.0
O394 O 0.12267 0.57846 0.19425 0.0
C395 C 0.04391 0.59103 0.16271 0.0
O396 O 0.11519 0.61184 0.15426 0.0
Co397 Co 0.07656 0.5644 0.12666 0.0
O398 O 0.09032 0.61172 0.1244 0.0
C399 C 0.13086 0.52358 0.14294 0.0
C400 C 0.10545 0.55394 0.20163 0.0
C401 C 0.1088 0.62561 0.13737 0.0
O402 O 0.12874 0.54042 0.15916 0.0
O403 O 0.11101 0.52796 0.12828 0.0
O404 O 0.05934 0.60225 0.17827 0.0
O405 O 0.05869 0.56675 0.1535 0.0
Co406 Co 0.18855 0.33332 0.92342 0.0
O407 O 0.21977 0.32027 0.94387 0.0
O408 O 0.18353 0.36154 0.94673 0.0
C409 C 0.16893 0.28182 0.91603 0.0
O410 O 0.15153 0.35285 0.9057 0.0
Co411 Co 0.20079 0.31036 0.88018 0.0
O412 O 0.15397 0.32479 0.87682 0.0
C413 C 0.24055 0.3659 0.89591 0.0
C414 C 0.20716 0.3438 0.95473 0.0
C415 C 0.13919 0.34477 0.88863 0.0
O416 O 0.22308 0.36481 0.91195 0.0
O417 O 0.23682 0.34511 0.88166 0.0
O418 O 0.15789 0.29829 0.93126 0.0
O419 O 0.19452 0.29502 0.90726 0.0
Co420 Co 0.41627 0.43654 0.66737 0.0
O421 O 0.42861 0.4669 0.6883 0.0
O422 O 0.38743 0.4304 0.69041 0.0
C423 C 0.46853 0.41892 0.66064 0.0
O424 O 0.39816 0.39964 0.64897 0.0
Co425 Co 0.44019 0.45054 0.62463 0.0
O426 O 0.42824 0.4031 0.62087 0.0
C427 C 0.3839 0.48917 0.64024 0.0
C428 C 0.40511 0.45364 0.69884 0.0
C429 C 0.408 0.38754 0.63215 0.0
O430 O 0.38471 0.47101 0.65602 0.0
O431 O 0.40506 0.4862 0.62612 0.0
O432 O 0.45159 0.40633 0.67525 0.0
O433 O 0.45484 0.44424 0.65186 0.0
Co434 Co 0.31433 0.67726 0.4167 0.0
O435 O 0.28291 0.68956 0.43729 0.0
O436 O 0.3236 0.65299 0.44113 0.0
C437 C 0.32694 0.72958 0.4064 0.0
O438 O 0.35258 0.65929 0.39925 0.0
Co439 Co 0.29952 0.69349 0.3725 0.0
O440 O 0.34754 0.68339 0.36924 0.0
C441 C 0.26434 0.63753 0.39173 0.0
C442 C 0.29855 0.66899 0.44888 0.0
C443 C 0.36412 0.66636 0.38182 0.0
O444 O 0.2826 0.64108 0.40736 0.0
O445 O 0.26593 0.65719 0.37677 0.0
O446 O 0.34126 0.71685 0.42196 0.0
O447 O 0.30307 0.71193 0.39895 0.0
H448 H 0.40088 0.9508 0.2779 0.0
H449 H 0.40412 0.0476 0.30551 0.0
H450 H 0.40073 0.07457 0.27292 0.0
H451 H 0.40164 0.07064 0.23618 0.0
H452 H 0.40563 0.97372 0.20871 0.0
H453 H 0.4012 0.94687 0.24125 0.0
C454 C 0.40018 0.97778 0.27673 0.0
C455 C 0.40232 0.99721 0.29408 0.0
C456 C 0.39984 0.99312 0.25783 0.0
C457 C 0.4023 0.03215 0.29236 0.0
C458 C 0.40047 0.04757 0.27371 0.0
C459 C 0.40098 0.04367 0.23737 0.0
C460 C 0.40369 0.02418 0.22006 0.0
C461 C 0.39991 0.02835 0.25628 0.0
C462 C 0.40353 0.98924 0.22182 0.0
C463 C 0.40104 0.97387 0.24044 0.0
H464 H 0.23106 0.14312 0.54157 0.0
H465 H 0.33399 0.15933 0.52608 0.0
H466 H 0.31964 0.15894 0.49074 0.0
H467 H 0.27726 0.15678 0.46422 0.0
H468 H 0.17522 0.13472 0.47925 0.0
H469 H 0.18962 0.13403 0.51464 0.0
C470 C 0.25026 0.14635 0.53039 0.0
C471 C 0.28347 0.15166 0.53635 0.0
C472 C 0.24196 0.14491 0.51002 0.0
C473 C 0.30828 0.15527 0.5218 0.0
C474 C 0.30007 0.1551 0.5016 0.0
C475 C 0.25831 0.15135 0.47526 0.0
C476 C 0.22521 0.14597 0.46916 0.0
C477 C 0.26695 0.15029 0.49553 0.0
C478 C 0.20092 0.13872 0.48357 0.0
C479 C 0.20911 0.13858 0.50382 0.0
H480 H 0.10215 0.05366 0.77832 0.0
H481 H 0.08531 0.95881 0.80669 0.0
H482 H 0.08787 0.93063 0.77447 0.0
H483 H 0.09142 0.93326 0.73771 0.0
H484 H 0.1015 0.02897 0.70927 0.0
H485 H 0.1053 0.05636 0.74168 0.0
C486 C 0.09946 0.02679 0.77743 0.0
C487 C 0.09378 0.00834 0.7949 0.0
C488 C 0.09962 0.01087 0.7587 0.0
C489 C 0.0897 0.97359 0.79347 0.0
C490 C 0.09116 0.95744 0.77502 0.0
C491 C 0.09495 0.96003 0.73869 0.0
C492 C 0.09656 0.97905 0.72113 0.0
C493 C 0.09565 0.97583 0.75747 0.0
C494 C 0.10034 0.01381 0.72258 0.0
C495 C 0.10245 0.02949 0.74112 0.0
H496 H 0.22597 0.859 0.9601 0.0
H497 H 0.32915 0.86336 0.97767 0.0
H498 H 0.31278 0.86643 0.01264 0.0
H499 H 0.26901 0.86462 0.03842 0.0
H500 H 0.16575 0.8667 0.02097 0.0
H501 H 0.18199 0.86475 0.98585 0.0
C502 C 0.24474 0.86096 0.97163 0.0
C503 C 0.2787 0.86065 0.9664 0.0
C504 C 0.23509 0.86385 0.99171 0.0
C505 C 0.30287 0.86363 0.98138 0.0
C506 C 0.29352 0.86525 1.00137 0.0
C507 C 0.25015 0.8651 0.02687 0.0
C508 C 0.21627 0.86559 0.03219 0.0
C509 C 0.25973 0.86493 0.00674 0.0
C510 C 0.192 0.8665 0.01717 0.0
C511 C 0.20128 0.86517 0.99711 0.0
H512 H 0.60855 0.9441 0.77231 0.0
H513 H 0.61109 0.03988 0.80117 0.0
H514 H 0.61553 0.06782 0.76889 0.0
H515 H 0.61416 0.06521 0.73221 0.0
H516 H 0.60392 0.96983 0.70343 0.0
H517 H 0.60721 0.9415 0.73562 0.0
C518 C 0.61069 0.97103 0.77146 0.0
C519 C 0.60997 0.98996 0.78903 0.0
C520 C 0.61159 0.98698 0.75277 0.0
C521 C 0.61183 0.02487 0.7878 0.0
C522 C 0.61428 0.04082 0.76935 0.0
C523 C 0.61321 0.03821 0.73303 0.0
C524 C 0.60916 0.01956 0.7155 0.0
C525 C 0.61356 0.0222 0.7517 0.0
C526 C 0.60715 0.98465 0.71675 0.0
C527 C 0.60898 0.96846 0.73515 0.0
H528 H 0.77722 0.84708 0.47302 0.0
H529 H 0.67403 0.86436 0.48753 0.0
H530 H 0.68752 0.86423 0.52296 0.0
H531 H 0.72839 0.85611 0.55011 0.0
H532 H 0.83245 0.84552 0.53573 0.0
H533 H 0.81918 0.84635 0.50018 0.0
C534 C 0.75782 0.85119 0.48397 0.0
C535 C 0.72462 0.85549 0.47765 0.0
C536 C 0.76596 0.85216 0.5044 0.0
C537 C 0.69978 0.86113 0.49199 0.0
C538 C 0.70746 0.86088 0.51228 0.0
C539 C 0.74813 0.85437 0.53915 0.0
C540 C 0.78133 0.85052 0.54551 0.0
C541 C 0.74039 0.85598 0.5187 0.0
C542 C 0.80674 0.84863 0.53119 0.0
C543 C 0.79912 0.84894 0.51085 0.0
H544 H 0.86473 0.01536 0.2915 0.0
H545 H 0.97062 1.00249 0.29943 0.0
H546 H 0.97628 0.98437 0.26502 0.0
H547 H 0.95156 0.9726 0.2324 0.0
H548 H 0.84516 0.97863 0.2249 0.0
H549 H 0.83912 0.99887 0.25917 0.0
C550 C 0.88894 0.00841 0.28566 0.0
C551 C 0.91724 0.01038 0.29802 0.0
C552 C 0.89192 0.99687 0.26587 0.0
C553 C 0.94843 1.001 0.29031 0.0
C554 C 0.95174 0.99077 0.27057 0.0
C555 C 0.92707 0.97841 0.2383 0.0
C556 C 0.89889 0.97456 0.22612 0.0
C557 C 0.92374 0.98872 0.25819 0.0
C558 C 0.86722 0.9815 0.23402 0.0
C559 C 0.86379 0.9931 0.2536 0.0
H560 H 0.8122 0.15633 0.97546 0.0
H561 H 0.71556 0.1527 0.94772 0.0
H562 H 0.68887 0.14662 0.98024 0.0
H563 H 0.69259 0.14642 0.01696 0.0
H564 H 0.7887 0.15718 0.04474 0.0
H565 H 0.81592 0.15619 0.0122 0.0
C566 C 0.78536 0.15369 0.97659 0.0
C567 C 0.76589 0.15461 0.95921 0.0
C568 C 0.77004 0.15171 0.99548 0.0
C569 C 0.73107 0.15195 0.96089 0.0
C570 C 0.71579 0.14853 0.9795 0.0
C571 C 0.71951 0.14801 0.01585 0.0
C572 C 0.73863 0.15153 0.03326 0.0
C573 C 0.73493 0.14892 0.99696 0.0
C574 C 0.77345 0.15435 0.03157 0.0
C575 C 0.78904 0.15384 0.01294 0.0
H576 H 0.90866 0.56977 0.73974 0.0
H577 H 0.90715 0.47379 0.71109 0.0
H578 H 0.90312 0.44596 0.7434 0.0
H579 H 0.90446 0.44872 0.78011 0.0
H580 H 0.91272 0.54455 0.80863 0.0
H581 H 0.90954 0.57255 0.77642 0.0
C582 C 0.90683 0.54282 0.74064 0.0
C583 C 0.9078 0.52382 0.72313 0.0
C584 C 0.90607 0.52692 0.75935 0.0
C585 C 0.90627 0.48888 0.72444 0.0
C586 C 0.90407 0.47296 0.7429 0.0
C587 C 0.90511 0.47572 0.77922 0.0
C588 C 0.9087 0.49455 0.79671 0.0
C589 C 0.90459 0.49166 0.76051 0.0
C590 C 0.91007 0.52951 0.79535 0.0
C591 C 0.90824 0.54556 0.77693 0.0
H592 H 0.72707 0.65007 0.0457 0.0
H593 H 0.82849 0.65548 0.02491 0.0
H594 H 0.80903 0.65635 0.9904 0.0
H595 H 0.76276 0.65827 0.96619 0.0
H596 H 0.66173 0.64653 0.98675 0.0
H597 H 0.6812 0.64511 0.02126 0.0
C598 C 0.74481 0.6511 0.03355 0.0
C599 C 0.77909 0.65297 0.03771 0.0
C600 C 0.73345 0.65054 0.01376 0.0
C601 C 0.80198 0.65391 0.02196 0.0
C602 C 0.79086 0.65457 1.00227 0.0
C603 C 0.74512 0.65517 0.97826 0.0
C604 C 0.71087 0.65291 0.97405 0.0
C605 C 0.75662 0.65332 0.99799 0.0
C606 C 0.68822 0.64834 0.98971 0.0
C607 C 0.69933 0.64765 0.00941 0.0
H608 H 0.60591 0.48215 0.29751 0.0
H609 H 0.59546 0.58396 0.27803 0.0
H610 H 0.59731 0.5659 0.24326 0.0
H611 H 0.59946 0.52062 0.21837 0.0
H612 H 0.61619 0.41955 0.2377 0.0
H613 H 0.61474 0.43763 0.27248 0.0
C614 C 0.60424 0.50029 0.28559 0.0
C615 C 0.60015 0.53427 0.29022 0.0
C616 C 0.60651 0.4898 0.26564 0.0
C617 C 0.59857 0.55769 0.27475 0.0
C618 C 0.59955 0.54735 0.2549 0.0
C619 C 0.60312 0.50267 0.23023 0.0
C620 C 0.60768 0.46878 0.22554 0.0
C621 C 0.60317 0.51343 0.25016 0.0
C622 C 0.61278 0.44578 0.24098 0.0
C623 C 0.61175 0.4561 0.26086 0.0
H624 H 0.74373 0.30525 0.53426 0.0
H625 H 0.72897 0.41157 0.53728 0.0
H626 H 0.75225 0.41784 0.50374 0.0
H627 H 0.7765 0.39243 0.4732 0.0
H628 H 0.78541 0.28539 0.46983 0.0
H629 H 0.76493 0.27998 0.50378 0.0
C630 C 0.74572 0.32982 0.52759 0.0
C631 C 0.73495 0.35792 0.53822 0.0
C632 C 0.75813 0.33304 0.5082 0.0
C633 C 0.73711 0.38955 0.52931 0.0
C634 C 0.75049 0.39313 0.51018 0.0
C635 C 0.77405 0.36804 0.48002 0.0
C636 C 0.78264 0.33934 0.46915 0.0
C637 C 0.76108 0.365 0.49943 0.0
C638 C 0.77889 0.3078 0.47794 0.0
C639 C 0.76722 0.30467 0.49735 0.0
H640 H 0.10814 0.52968 0.29418 0.0
H641 H 0.11189 0.4273 0.27493 0.0
H642 H 0.11245 0.44528 0.24013 0.0
H643 H 0.10872 0.49037 0.21516 0.0
H644 H 0.11126 0.5928 0.23439 0.0
H645 H 0.11169 0.57483 0.2692 0.0
C646 C 0.10941 0.51144 0.28231 0.0
C647 C 0.10966 0.47727 0.28697 0.0
C648 C 0.11078 0.52202 0.26239 0.0
C649 C 0.11175 0.45374 0.2716 0.0
C650 C 0.11192 0.46401 0.25174 0.0
C651 C 0.10972 0.50864 0.22703 0.0
C652 C 0.10965 0.5428 0.22236 0.0
C653 C 0.11097 0.49808 0.24695 0.0
C654 C 0.11138 0.56637 0.23773 0.0
C655 C 0.11146 0.5561 0.2576 0.0
H656 H 0.23067 0.35271 0.04754 0.0
H657 H 0.33281 0.3421 0.0288 0.0
H658 H 0.31521 0.34098 0.99397 0.0
H659 H 0.27036 0.34061 0.96886 0.0
H660 H 0.16884 0.35749 0.98714 0.0
H661 H 0.18638 0.35897 0.02204 0.0
C662 C 0.24898 0.35035 0.03577 0.0
C663 C 0.28294 0.34709 0.04066 0.0
C664 C 0.23874 0.35091 0.01572 0.0
C665 C 0.30655 0.34461 0.02535 0.0
C666 C 0.29648 0.34388 0.00545 0.0
C667 C 0.25218 0.34494 0.98051 0.0
C668 C 0.21834 0.34868 0.97551 0.0
C669 C 0.26262 0.34668 1.00046 0.0
C670 C 0.19504 0.35467 0.99066 0.0
C671 C 0.20505 0.35532 0.01061 0.0
H672 H 0.42946 0.48544 0.78899 0.0
H673 H 0.34849 0.55411 0.77873 0.0
H674 H 0.34224 0.53288 0.74483 0.0
H675 H 0.36238 0.49689 0.71719 0.0
H676 H 0.44416 0.42961 0.72777 0.0
H677 H 0.44741 0.44792 0.76237 0.0
C678 C 0.41027 0.49567 0.77941 0.0
C679 C 0.38962 0.52151 0.78641 0.0
C680 C 0.40695 0.48346 0.75992 0.0
C681 C 0.36484 0.53432 0.77374 0.0
C682 C 0.36125 0.52217 0.75432 0.0
C683 C 0.38033 0.48584 0.72728 0.0
C684 C 0.40266 0.46156 0.72018 0.0
C685 C 0.38243 0.497 0.74714 0.0
C686 C 0.42643 0.44793 0.73312 0.0
C687 C 0.42843 0.45856 0.75283 0.0
H688 H 0.28085 0.66229 0.5424 0.0
H689 H 0.17731 0.66763 0.52574 0.0
H690 H 0.19285 0.66909 0.49056 0.0
H691 H 0.23612 0.67063 0.46448 0.0
H692 H 0.33932 0.65895 0.48075 0.0
H693 H 0.32391 0.65781 0.516 0.0
C694 C 0.26178 0.66362 0.53101 0.0
C695 C 0.22799 0.66521 0.53661 0.0
C696 C 0.2709 0.66326 0.51075 0.0
C697 C 0.20345 0.66639 0.52176 0.0
C698 C 0.21234 0.66731 0.50166 0.0
C699 C 0.25517 0.66763 0.47577 0.0
C700 C 0.28884 0.6652 0.47005 0.0
C701 C 0.24599 0.66602 0.49596 0.0
C702 C 0.31324 0.66082 0.48479 0.0
C703 C 0.30443 0.66033 0.50495 0.0
H704 H 0.35431 0.99271 0.10679 0.0
H705 H 0.34768 0.98461 0.1706 0.0
H706 H 0.30259 0.94405 0.16733 0.0
H707 H 0.26562 0.91006 0.14639 0.0
H708 H 0.27035 0.91994 0.08262 0.0
H709 H 0.3154 0.96064 0.08585 0.0
C710 C 0.34302 0.98206 0.11998 0.0
C711 C 0.35458 0.99161 0.13892 0.0
C712 C 0.31669 0.95904 0.11801 0.0
C713 C 0.3393 0.97783 0.15585 0.0
C714 C 0.31353 0.95454 0.15399 0.0
C715 C 0.27648 0.9211 0.13319 0.0
C716 C 0.26468 0.91173 0.11428 0.0
C717 C 0.30212 0.94484 0.13516 0.0
C718 C 0.27882 0.92669 0.09736 0.0
C719 C 0.3047 0.94991 0.09919 0.0
H720 H 0.28067 0.097 0.41209 0.0
H721 H 0.26369 0.11681 0.3499 0.0
H722 H 0.30542 0.07532 0.34084 0.0
H723 H 0.34831 0.03463 0.35044 0.0
H724 H 0.36753 0.01682 0.41262 0.0
H725 H 0.32359 0.05602 0.42171 0.0
C726 C 0.28595 0.09204 0.39657 0.0
C727 C 0.26906 0.11009 0.38173 0.0
C728 C 0.31058 0.06852 0.3914 0.0
C729 C 0.27645 0.10352 0.36167 0.0
C730 C 0.30031 0.07971 0.35643 0.0
C731 C 0.34275 0.03915 0.36598 0.0
C732 C 0.3613 0.02276 0.38078 0.0
C733 C 0.31778 0.06226 0.37116 0.0
C734 C 0.35386 0.02921 0.40087 0.0
C735 C 0.32864 0.05161 0.40611 0.0
H736 H 0.15151 0.01128 0.60874 0.0
H737 H 0.15935 0.01539 0.67266 0.0
H738 H 0.20409 0.05643 0.66991 0.0
H739 H 0.23938 0.0928 0.64948 0.0
H740 H 0.23282 0.0878 0.58555 0.0
H741 H 0.18933 0.04527 0.58822 0.0
C742 C 0.16304 0.02108 0.62209 0.0
C743 C 0.15182 0.0104 0.64089 0.0
C744 C 0.18896 0.04454 0.6204 0.0
C745 C 0.16742 0.02308 0.658 0.0
C746 C 0.19297 0.04666 0.65645 0.0
C747 C 0.22852 0.08238 0.6361 0.0
C748 C 0.23919 0.09376 0.61733 0.0
C749 C 0.20368 0.05782 0.63774 0.0
C750 C 0.22514 0.07955 0.60018 0.0
C751 C 0.20016 0.0553 0.6017 0.0
H752 H 0.15683 0.97218 0.84919 0.0
H753 H 0.1467 0.99594 0.91144 0.0
H754 H 0.19123 0.95703 0.9196 0.0
H755 H 0.23206 0.91482 0.90938 0.0
H756 H 0.241 0.88934 0.84731 0.0
H757 H 0.19823 0.93016 0.83891 0.0
C758 C 0.16452 0.96899 0.86451 0.0
C759 C 0.14827 0.98694 0.87963 0.0
C760 C 0.18995 0.94608 0.86923 0.0
C761 C 0.15849 0.98228 0.89945 0.0
C762 C 0.18406 0.96005 0.90419 0.0
C763 C 0.22482 0.91831 0.89401 0.0
C764 C 0.23979 0.89889 0.87906 0.0
C765 C 0.1998 0.94157 0.88923 0.0
C766 C 0.22983 0.90372 0.85921 0.0
C767 C 0.20535 0.92715 0.85433 0.0
H768 H 0.72353 0.09834 0.90503 0.0
H769 H 0.74402 0.1113 0.84255 0.0
H770 H 0.70463 0.06721 0.83438 0.0
H771 H 0.66271 0.02631 0.84466 0.0
H772 H 0.63993 0.01461 0.90694 0.0
H773 H 0.68166 0.0566 0.9154 0.0
C774 C 0.71956 0.09128 0.88965 0.0
C775 C 0.73669 0.10823 0.87445 0.0
C776 C 0.69625 0.06617 0.88496 0.0
C777 C 0.73101 0.09893 0.85457 0.0
C778 C 0.70849 0.07363 0.84985 0.0
C779 C 0.667 0.03274 0.86011 0.0
C780 C 0.64811 0.01726 0.8751 0.0
C781 C 0.69069 0.05731 0.86488 0.0
C782 C 0.65391 0.02621 0.89503 0.0
C783 C 0.67786 0.05022 0.89992 0.0
H784 H 0.66468 0.98519 0.66008 0.0
H785 H 0.64281 0.9971 0.59771 0.0
H786 H 0.68334 0.9538 0.58949 0.0
H787 H 0.72382 0.91064 0.60013 0.0
H788 H 0.74322 0.89788 0.66274 0.0
H789 H 0.70526 0.94328 0.67059 0.0
C790 C 0.66891 0.97854 0.64466 0.0
C791 C 0.65059 0.99446 0.62959 0.0
C792 C 0.6919 0.95324 0.64001 0.0
C793 C 0.65635 0.98521 0.60969 0.0
C794 C 0.67962 0.96042 0.60494 0.0
C795 C 0.71991 0.91804 0.61545 0.0
C796 C 0.73627 0.90069 0.63079 0.0
C797 C 0.69738 0.944 0.61999 0.0
C798 C 0.73074 0.9105 0.6506 0.0
C799 C 0.70903 0.93656 0.65515 0.0
H800 H 0.77477 0.9127 0.41827 0.0
H801 H 0.76208 0.88495 0.35678 0.0
H802 H 0.80366 0.92585 0.34678 0.0
H803 H 0.84512 0.96891 0.35542 0.0
H804 H 0.8586 0.99534 0.41708 0.0
H805 H 0.81557 0.956 0.42685 0.0
C806 C 0.78099 0.91567 0.40266 0.0
C807 C 0.76528 0.89553 0.38839 0.0
C808 C 0.80532 0.93913 0.39695 0.0
C809 C 0.77386 0.89979 0.36821 0.0
C810 C 0.79766 0.92332 0.36243 0.0
C811 C 0.8385 0.96619 0.37099 0.0
C812 C 0.85536 0.98508 0.38542 0.0
C813 C 0.81378 0.94303 0.37665 0.0
C814 C 0.84642 0.98103 0.40556 0.0
C815 C 0.82167 0.95849 0.41122 0.0
H816 H 0.79636 0.12653 0.13866 0.0
H817 H 0.74377 0.06688 0.09549 0.0
H818 H 0.78063 0.01974 0.10237 0.0
H819 H 0.82859 0.99558 0.12029 0.0
H820 H 0.88069 0.05472 0.16369 0.0
H821 H 0.84365 0.10213 0.15695 0.0
C822 C 0.79298 0.10322 0.13074 0.0
C823 C 0.76742 0.10035 0.11649 0.0
C824 C 0.81429 0.07618 0.13478 0.0
C825 C 0.76348 0.06996 0.10633 0.0
C826 C 0.78444 0.04291 0.11034 0.0
C827 C 0.83147 0.01882 0.12837 0.0
C828 C 0.85689 0.0218 0.1426 0.0
C829 C 0.80998 0.04575 0.12448 0.0
C830 C 0.86084 0.05191 0.15291 0.0
C831 C 0.83983 0.07898 0.14897 0.0
H832 H 0.77842 0.40241 0.65146 0.0
H833 H 0.78718 0.40629 0.5876 0.0
H834 H 0.83163 0.44761 0.59041 0.0
H835 H 0.86777 0.48323 0.61096 0.0
H836 H 0.857 0.4814 0.67474 0.0
H837 H 0.81373 0.43887 0.67197 0.0
C838 C 0.79016 0.41217 0.63816 0.0
C839 C 0.77951 0.4011 0.61936 0.0
C840 C 0.81536 0.43643 0.63985 0.0
C841 C 0.79477 0.41438 0.60227 0.0
C842 C 0.82027 0.438 0.60385 0.0
C843 C 0.85604 0.47344 0.62425 0.0
C844 C 0.86574 0.4855 0.64302 0.0
C845 C 0.83072 0.4493 0.62256 0.0
C846 C 0.84997 0.47274 0.66009 0.0
C847 C 0.82524 0.44832 0.65853 0.0
H848 H 0.84677 0.5257 0.90643 0.0
H849 H 0.84514 0.52959 0.84236 0.0
H850 H 0.79942 0.56978 0.84344 0.0
H851 H 0.76036 0.60457 0.86258 0.0
H852 H 0.76073 0.59891 0.92663 0.0
H853 H 0.80635 0.55872 0.9255 0.0
C854 C 0.83645 0.53535 0.89269 0.0
C855 C 0.84954 0.52471 0.87435 0.0
C856 C 0.80988 0.55819 0.8934 0.0
C857 C 0.83553 0.53721 0.8567 0.0
C858 C 0.80942 0.56031 0.85729 0.0
C859 C 0.77042 0.59456 0.87629 0.0
C860 C 0.75716 0.60491 0.89465 0.0
C861 C 0.79647 0.57109 0.87556 0.0
C862 C 0.77031 0.59135 0.91227 0.0
C863 C 0.79651 0.5684 0.91166 0.0
H864 H 0.73938 0.60093 0.15165 0.0
H865 H 0.73163 0.595 0.0878 0.0
H866 H 0.68926 0.55157 0.09088 0.0
H867 H 0.65409 0.51531 0.11166 0.0
H868 H 0.66359 0.51943 0.17547 0.0
H869 H 0.70549 0.56336 0.17241 0.0
C870 C 0.72839 0.5902 0.1384 0.0
C871 C 0.73868 0.60142 0.11951 0.0
C872 C 0.70429 0.56482 0.14026 0.0
C873 C 0.72435 0.58687 0.10252 0.0
C874 C 0.70001 0.56204 0.10427 0.0
C875 C 0.66525 0.52584 0.12491 0.0
C876 C 0.65549 0.51409 0.14377 0.0
C877 C 0.68974 0.55084 0.12305 0.0
C878 C 0.6706 0.52785 0.16075 0.0
C879 C 0.69455 0.55307 0.15903 0.0
H880 H 0.74019 0.4036 0.35717 0.0
H881 H 0.72984 0.3992 0.42095 0.0
H882 H 0.6865 0.44179 0.41971 0.0
H883 H 0.65177 0.48065 0.40073 0.0
H884 H 0.66317 0.487 0.33707 0.0
H885 H 0.70585 0.44351 0.33812 0.0
C886 C 0.72831 0.41181 0.37078 0.0
C887 C 0.73826 0.39802 0.38911 0.0
C888 C 0.70366 0.43684 0.37002 0.0
C889 C 0.72282 0.40934 0.40663 0.0
C890 C 0.69797 0.43373 0.40595 0.0
C891 C 0.6635 0.47254 0.38705 0.0
C892 C 0.6541 0.48714 0.36885 0.0
C893 C 0.68825 0.44773 0.38775 0.0
C894 C 0.66992 0.47639 0.35132 0.0
C895 C 0.6943 0.4514 0.35189 0.0
H896 H 0.15768 0.52178 0.40057 0.0
H897 H 0.16056 0.52914 0.33659 0.0
H898 H 0.2023 0.57311 0.33879 0.0
H899 H 0.23743 0.61 0.35865 0.0
H900 H 0.23697 0.60193 0.42257 0.0
H901 H 0.19507 0.55758 0.4206 0.0
C902 C 0.16742 0.53306 0.38712 0.0
C903 C 0.15582 0.52222 0.36844 0.0
C904 C 0.19192 0.55815 0.38846 0.0
C905 C 0.16904 0.53685 0.35116 0.0
C906 C 0.1929 0.56209 0.35239 0.0
C907 C 0.22819 0.5986 0.37219 0.0
C908 C 0.24018 0.6095 0.39074 0.0
C909 C 0.20443 0.57299 0.37094 0.0
C910 C 0.22824 0.59402 0.40809 0.0
C911 C 0.20418 0.56874 0.40697 0.0
H912 H 0.24115 0.41211 0.15178 0.0
H913 H 0.23563 0.41435 0.08777 0.0
H914 H 0.19323 0.45817 0.08949 0.0
H915 H 0.1568 0.49515 0.10931 0.0
H916 H 0.16435 0.49363 0.1733 0.0
H917 H 0.20678 0.45025 0.17138 0.0
C918 C 0.23071 0.42213 0.13817 0.0
C919 C 0.24147 0.40973 0.11968 0.0
C920 C 0.20659 0.44747 0.13926 0.0
C921 C 0.22791 0.42342 0.10222 0.0
C922 C 0.20355 0.44842 0.10319 0.0
C923 C 0.16771 0.48531 0.12283 0.0
C924 C 0.15721 0.49763 0.14143 0.0
C925 C 0.19254 0.46051 0.12165 0.0
C926 C 0.17194 0.48478 0.15878 0.0
C927 C 0.1962 0.45987 0.15772 0.0
H928 H 0.34786 0.48153 0.90068 0.0
H929 H 0.34006 0.47357 0.83691 0.0
H930 H 0.29949 0.42859 0.84047 0.0
H931 H 0.2661 0.39141 0.86162 0.0
H932 H 0.27156 0.40115 0.92536 0.0
H933 H 0.31308 0.44541 0.92187 0.0
C934 C 0.33734 0.46991 0.88756 0.0
C935 C 0.34716 0.48091 0.86855 0.0
C936 C 0.31356 0.44431 0.8897 0.0
C937 C 0.33293 0.46576 0.85172 0.0
C938 C 0.30976 0.43993 0.85374 0.0
C939 C 0.27647 0.4031 0.87476 0.0
C940 C 0.26583 0.39277 0.89373 0.0
C941 C 0.2999 0.42897 0.87264 0.0
C942 C 0.27922 0.40859 0.91058 0.0
C943 C 0.30303 0.43389 0.9086 0.0
H944 H 0.35987 0.51859 0.60646 0.0
H945 H 0.34814 0.51751 0.67023 0.0
H946 H 0.30546 0.56063 0.6679 0.0
H947 H 0.27212 0.59925 0.64801 0.0
H948 H 0.28157 0.5994 0.58416 0.0
H949 H 0.32431 0.55588 0.58628 0.0
C950 C 0.348 0.52783 0.61985 0.0
C951 C 0.35742 0.51491 0.63851 0.0
C952 C 0.32302 0.55241 0.6184 0.0
C953 C 0.34142 0.52689 0.65567 0.0
C954 C 0.31702 0.55163 0.65437 0.0
C955 C 0.28351 0.58984 0.63452 0.0
C956 C 0.27382 0.60283 0.61595 0.0
C957 C 0.30774 0.56466 0.63584 0.0
C958 C 0.28852 0.58987 0.59864 0.0
C959 C 0.31305 0.56506 0.59985 0.0
H960 H 0.35783 0.1528 0.1504 0.0
H961 H 0.44362 0.15775 0.11171 0.0
H962 H 0.42492 0.2109 0.09869 0.0
H963 H 0.38309 0.25475 0.09654 0.0
H964 H 0.29745 0.25241 0.13516 0.0
H965 H 0.3171 0.19993 0.14984 0.0
C966 C 0.37258 0.16576 0.13932 0.0
C967 C 0.40188 0.15082 0.1319 0.0
C968 C 0.36156 0.19676 0.13166 0.0
C969 C 0.42068 0.16815 0.11753 0.0
C970 C 0.41005 0.19871 0.11001 0.0
C971 C 0.3687 0.24282 0.1082 0.0
C972 C 0.33866 0.25727 0.11456 0.0
C973 C 0.38026 0.21293 0.11665 0.0
C974 C 0.32062 0.2417 0.1299 0.0
C975 C 0.33185 0.21166 0.13831 0.0
H976 H 0.10547 0.11142 0.40086 0.0
H977 H 0.10816 0.17886 0.35078 0.0
H978 H 0.05613 0.15612 0.33848 0.0
H979 H 0.00982 0.11658 0.34127 0.0
H980 H 0.00586 0.04933 0.39122 0.0
H981 H 0.05797 0.0724 0.40406 0.0
C982 C 0.09464 0.12121 0.3873 0.0
C983 C 0.11113 0.14678 0.37682 0.0
C984 C 0.06432 0.10797 0.38014 0.0
C985 C 0.09643 0.15911 0.35925 0.0
C986 C 0.0665 0.14612 0.35211 0.0
C987 C 0.02036 0.10696 0.35497 0.0
C988 C 0.004 0.08119 0.3652 0.0
C989 C 0.05029 0.12043 0.36233 0.0
C990 C 0.01794 0.06916 0.383 0.0
C991 C 0.04779 0.08235 0.39037 0.0
H992 H 0.14868 0.85387 0.64947 0.0
H993 H 0.05957 0.84384 0.61404 0.0
H994 H 0.08029 0.792 0.60003 0.0
H995 H 0.12509 0.75137 0.59576 0.0
H996 H 0.21421 0.75928 0.63116 0.0
H997 H 0.19231 0.80972 0.64712 0.0
C998 C 0.13361 0.83998 0.63898 0.0
C999 C 0.10274 0.85306 0.63269 0.0
C1000 C 0.1459 0.80995 0.63067 0.0
C1001 C 0.0836 0.8347 0.61899 0.0
C1002 C 0.09543 0.80498 0.61089 0.0
C1003 C 0.13974 0.76409 0.60699 0.0
C1004 C 0.17142 0.75184 0.61204 0.0
C1005 C 0.12686 0.79279 0.61622 0.0
C1006 C 0.1898 0.76833 0.62689 0.0
C1007 C 0.17727 0.79718 0.63604 0.0
H1008 H 0.49989 0.93802 0.87576 0.0
H1009 H 0.5055 0.88254 0.82092 0.0
H1010 H 0.45372 0.85394 0.82899 0.0
H1011 H 0.40665 0.84478 0.85122 0.0
H1012 H 0.39989 0.8997 0.90622 0.0
H1013 H 0.45225 0.92818 0.8985 0.0
C1014 C 0.48972 0.91971 0.86559 0.0
C1015 C 0.50657 0.91256 0.84772 0.0
C1016 C 0.45972 0.90315 0.87034 0.0
C1017 C 0.4931 0.88863 0.83475 0.0
C1018 C 0.46344 0.87219 0.83935 0.0
C1019 C 0.41651 0.86292 0.8616 0.0
C1020 C 0.39911 0.87003 0.87928 0.0
C1021 C 0.44652 0.87928 0.85706 0.0
C1022 C 0.4126 0.89364 0.89249 0.0
C1023 C 0.44258 0.91003 0.88808 0.0
H1024 H 0.38696 0.75865 0.41171 0.0
H1025 H 0.29487 0.76973 0.37947 0.0
H1026 H 0.31502 0.82223 0.36502 0.0
H1027 H 0.35826 0.86691 0.36316 0.0
H1028 H 0.45047 0.85312 0.39526 0.0
H1029 H 0.43103 0.79988 0.40781 0.0
C1030 C 0.37127 0.77252 0.40151 0.0
C1031 C 0.3393 0.76059 0.39691 0.0
C1032 C 0.38313 0.80232 0.39314 0.0
C1033 C 0.31954 0.77854 0.38336 0.0
C1034 C 0.33106 0.80857 0.37509 0.0
C1035 C 0.37421 0.85198 0.37265 0.0
C1036 C 0.40561 0.86442 0.37846 0.0
C1037 C 0.36277 0.82098 0.38005 0.0
C1038 C 0.42597 0.8446 0.39077 0.0
C1039 C 0.41491 0.81403 0.39801 0.0
H1040 H 0.40327 0.15822 0.65458 0.0
H1041 H 0.40073 0.10669 0.5983 0.0
H1042 H 0.45512 0.08183 0.60538 0.0
H1043 H 0.5032 0.07388 0.62795 0.0
H1044 H 0.50504 0.12613 0.68398 0.0
H1045 H 0.45124 0.15144 0.67655 0.0
C1046 C 0.4145 0.14157 0.6438 0.0
C1047 C 0.39764 0.1343 0.62595 0.0
C1048 C 0.44577 0.12738 0.64794 0.0
C1049 C 0.41296 0.11279 0.61217 0.0
C1050 C 0.44411 0.09849 0.61622 0.0
C1051 C 0.49181 0.09083 0.63851 0.0
C1052 C 0.50814 0.09796 0.65655 0.0
C1053 C 0.4607 0.10546 0.63412 0.0
C1054 C 0.49308 0.12012 0.67001 0.0
C1055 C 0.46225 0.13463 0.66578 0.0
H1056 H 0.07905 0.15565 0.90137 0.0
H1057 H 0.14816 0.13933 0.85325 0.0
H1058 H 0.17699 0.19154 0.86165 0.0
H1059 H 0.18402 0.24081 0.88413 0.0
H1060 H 0.11398 0.25422 0.93224 0.0
H1061 H 0.08443 0.20419 0.9224 0.0
C1062 C 0.10038 0.16337 0.89259 0.0
C1063 C 0.11151 0.14326 0.87679 0.0
C1064 C 0.11694 0.19296 0.89764 0.0
C1065 C 0.13896 0.15422 0.8655 0.0
C1066 C 0.15558 0.18402 0.87038 0.0
C1067 C 0.16228 0.23272 0.8924 0.0
C1068 C 0.15151 0.25126 0.90904 0.0
C1069 C 0.14509 0.20342 0.88666 0.0
C1070 C 0.12311 0.24051 0.91949 0.0
C1071 C 0.10603 0.21183 0.91386 0.0
H1072 H 0.09739 0.8465 0.15009 0.0
H1073 H 0.09952 0.91193 0.09914 0.0
H1074 H 0.04587 0.93577 0.10918 0.0
H1075 H 0.99882 0.93878 0.13296 0.0
H1076 H 0.99751 0.87266 0.18357 0.0
H1077 H 0.05042 0.84841 0.17308 0.0
C1078 C 0.08628 0.86601 0.14111 0.0
C1079 C 0.10279 0.87749 0.1239 0.0
C1080 C 0.05551 0.87954 0.14694 0.0
C1081 C 0.08756 0.90258 0.11246 0.0
C1082 C 0.05686 0.91627 0.11821 0.0
C1083 C 0.0101 0.91902 0.14166 0.0
C1084 C 0.99422 0.90766 0.1591 0.0
C1085 C 0.04067 0.90507 0.1355 0.0
C1086 C 0.00913 0.88194 0.17014 0.0
C1087 C 0.03944 0.86805 0.16415 0.0
H1088 H 0.67835 0.75436 0.88097 0.0
H1089 H 0.60788 0.74819 0.92937 0.0
H1090 H 0.58269 0.80045 0.91913 0.0
H1091 H 0.58108 0.84841 0.89741 0.0
H1092 H 0.65083 0.85723 0.84887 0.0
H1093 H 0.67557 0.80336 0.85808 0.0
C1094 C 0.65743 0.76448 0.8892 0.0
C1095 C 0.64518 0.74734 0.90601 0.0
C1096 C 0.64288 0.79501 0.88324 0.0
C1097 C 0.61798 0.76076 0.91646 0.0
C1098 C 0.60347 0.79073 0.91062 0.0
C1099 C 0.60171 0.83877 0.88873 0.0
C1100 C 0.61416 0.85718 0.87252 0.0
C1101 C 0.61584 0.80814 0.89417 0.0
C1102 C 0.6407 0.84374 0.86144 0.0
C1103 C 0.65492 0.81294 0.86674 0.0
H1104 H 0.98952 0.88147 0.67692 0.0
H1105 H 0.99876 0.94651 0.62621 0.0
H1106 H 0.94629 0.92478 0.61272 0.0
H1107 H 0.89695 0.88754 0.61577 0.0
H1108 H 0.88947 0.82296 0.66703 0.0
H1109 H 0.94181 0.84422 0.67966 0.0
C1110 C 0.98011 0.89095 0.6629 0.0
C1111 C 0.998 0.91569 0.65265 0.0
C1112 C 0.95006 0.87838 0.65527 0.0
C1113 C 0.98543 0.92755 0.63446 0.0
C1114 C 0.95542 0.91509 0.62673 0.0
C1115 C 0.90685 0.87802 0.62965 0.0
C1116 C 0.88888 0.85369 0.64037 0.0
C1117 C 0.93738 0.89051 0.63705 0.0
C1118 C 0.90232 0.84176 0.65837 0.0
C1119 C 0.93243 0.8539 0.6657 0.0
H1120 H 0.82304 0.24455 0.37939 0.0
H1121 H 0.89875 0.26653 0.42308 0.0
H1122 H 0.92615 0.21388 0.41616 0.0
H1123 H 0.92736 0.16038 0.39947 0.0
H1124 H 0.85273 0.1361 0.3557 0.0
H1125 H 0.82652 0.19082 0.36071 0.0
C1126 C 0.8457 0.23788 0.38721 0.0
C1127 C 0.85857 0.25941 0.40189 0.0
C1128 C 0.8615 0.20705 0.38324 0.0
C1129 C 0.88803 0.25042 0.41186 0.0
C1130 C 0.90382 0.22023 0.40793 0.0
C1131 C 0.90536 0.16692 0.39095 0.0
C1132 C 0.89182 0.14388 0.37742 0.0
C1133 C 0.89048 0.19814 0.39395 0.0
C1134 C 0.86366 0.15325 0.36628 0.0
C1135 C 0.8486 0.18453 0.36919 0.0
H1136 H 0.60497 0.15947 0.14757 0.0
H1137 H 0.6062 0.10373 0.09276 0.0
H1138 H 0.55378 0.07631 0.1023 0.0
H1139 H 0.50782 0.0675 0.12698 0.0
H1140 H 0.50939 0.12428 0.18149 0.0
H1141 H 0.56048 0.15161 0.17127 0.0
C1142 C 0.59399 0.14135 0.13756 0.0
C1143 C 0.60985 0.1337 0.11945 0.0
C1144 C 0.56422 0.12563 0.14319 0.0
C1145 C 0.5947 0.11023 0.10679 0.0
C1146 C 0.56472 0.09444 0.11228 0.0
C1147 C 0.51945 0.08579 0.13659 0.0
C1148 C 0.50466 0.09364 0.15506 0.0
C1149 C 0.5493 0.10177 0.13057 0.0
C1150 C 0.52003 0.11759 0.16725 0.0
C1151 C 0.54936 0.13335 0.16142 0.0
H1152 H 0.6918 0.25408 0.62872 0.0
H1153 H 0.62348 0.26774 0.57981 0.0
H1154 H 0.59452 0.21671 0.58873 0.0
H1155 H 0.58929 0.16741 0.60934 0.0
H1156 H 0.65684 0.15154 0.65832 0.0
H1157 H 0.68504 0.20428 0.65057 0.0
C1158 C 0.67052 0.24588 0.62009 0.0
C1159 C 0.66003 0.26472 0.60351 0.0
C1160 C 0.65378 0.2161 0.62528 0.0
C1161 C 0.63229 0.25379 0.59255 0.0
C1162 C 0.61562 0.22453 0.59764 0.0
C1163 C 0.61016 0.17532 0.61843 0.0
C1164 C 0.62101 0.1552 0.63432 0.0
C1165 C 0.6263 0.20536 0.61382 0.0
C1166 C 0.64789 0.16638 0.64598 0.0
C1167 C 0.66412 0.19653 0.64151 0.0
H1168 H 0.51095 0.94529 0.38261 0.0
H1169 H 0.50851 0.89265 0.32669 0.0
H1170 H 0.55815 0.86151 0.33598 0.0
H1171 H 0.60215 0.84892 0.35964 0.0
H1172 H 0.60613 0.90081 0.41576 0.0
H1173 H 0.556 0.93228 0.40676 0.0
C1174 C 0.5214 0.9271 0.37246 0.0
C1175 C 0.50598 0.92143 0.35394 0.0
C1176 C 0.55017 0.90899 0.37794 0.0
C1177 C 0.51978 0.89762 0.34101 0.0
C1178 C 0.54821 0.87971 0.34631 0.0
C1179 C 0.59218 0.86703 0.37002 0.0
C1180 C 0.60811 0.87236 0.3884 0.0
C1181 C 0.56356 0.88512 0.36472 0.0
C1182 C 0.59452 0.89607 0.40152 0.0
C1183 C 0.56583 0.91415 0.39636 0.0
H1184 H 0.81474 0.75552 0.13004 0.0
H1185 H 0.8802 0.74959 0.0792 0.0
H1186 H 0.90585 0.80216 0.0883 0.0
H1187 H 0.90994 0.85003 0.11008 0.0
H1188 H 0.84581 0.85807 0.16133 0.0
H1189 H 0.8196 0.80468 0.15269 0.0
C1190 C 0.83463 0.76579 0.12101 0.0
C1191 C 0.84536 0.7485 0.10389 0.0
C1192 C 0.84956 0.79649 0.12635 0.0
C1193 C 0.87126 0.76218 0.0924 0.0
C1194 C 0.88604 0.79238 0.09758 0.0
C1195 C 0.89017 0.84034 0.11944 0.0
C1196 C 0.87985 0.85836 0.13632 0.0
C1197 C 0.87536 0.80978 0.11443 0.0
C1198 C 0.85433 0.84491 0.14823 0.0
C1199 C 0.83929 0.81433 0.14328 0.0
H1200 H 0.99508 0.12042 0.8375 0.0
H1201 H 0.99406 0.04975 0.88576 0.0
H1202 H 0.9421 0.07403 0.89828 0.0
H1203 H 0.89559 0.11466 0.89483 0.0
H1204 H 0.89869 0.18552 0.84646 0.0
H1205 H 0.95086 0.16205 0.83495 0.0
C1206 C 0.98352 0.11029 0.85076 0.0
C1207 C 0.99834 0.08313 0.86055 0.0
C1208 C 0.95381 0.1245 0.85795 0.0
C1209 C 0.98313 0.07059 0.87785 0.0
C1210 C 0.95338 0.08448 0.88504 0.0
C1211 C 0.90782 0.12514 0.88189 0.0
C1212 C 0.89271 0.15172 0.87152 0.0
C1213 C 0.93829 0.1114 0.87515 0.0
C1214 C 0.90921 0.16489 0.85475 0.0
C1215 C 0.93924 0.15148 0.84806 0.0
H1216 H 0.87518 0.74863 0.59703 0.0
H1217 H 0.79085 0.74232 0.63653 0.0
H1218 H 0.81364 0.69125 0.65127 0.0
H1219 H 0.85739 0.64712 0.65225 0.0
H1220 H 0.94164 0.65564 0.61259 0.0
H1221 H 0.91925 0.70689 0.59893 0.0
C1222 C 0.86169 0.73607 0.60882 0.0
C1223 C 0.8312 0.74913 0.6155 0.0
C1224 C 0.87507 0.70698 0.61734 0.0
C1225 C 0.81431 0.7327 0.631 0.0
C1226 C 0.82738 0.7035 0.63948 0.0
C1227 C 0.87096 0.66041 0.64078 0.0
C1228 C 0.90104 0.64711 0.63339 0.0
C1229 C 0.85777 0.69025 0.63273 0.0
C1230 C 0.91823 0.66481 0.61846 0.0
C1231 C 0.90546 0.69428 0.61057 0.0
H1232 H 0.58869 0.65895 0.85656 0.0
H1233 H 0.59218 0.60179 0.91087 0.0
H1234 H 0.53938 0.57481 0.90208 0.0
H1235 H 0.49235 0.56693 0.87847 0.0
H1236 H 0.49012 0.6253 0.82457 0.0
H1237 H 0.54223 0.65215 0.83375 0.0
C1238 C 0.57807 0.64057 0.86656 0.0
C1239 C 0.59467 0.63237 0.88434 0.0
C1240 C 0.54781 0.62525 0.86144 0.0
C1241 C 0.5801 0.60865 0.89708 0.0
C1242 C 0.54988 0.59315 0.89204 0.0
C1243 C 0.50332 0.58552 0.86877 0.0
C1244 C 0.48732 0.59395 0.8508 0.0
C1245 C 0.53354 0.60115 0.87419 0.0
C1246 C 0.5018 0.61824 0.83846 0.0
C1247 C 0.53169 0.63366 0.84368 0.0
H1248 H 0.6003 0.34884 0.10673 0.0
H1249 H 0.65751 0.34826 0.16102 0.0
H1250 H 0.68409 0.29584 0.15087 0.0
H1251 H 0.69148 0.25026 0.12607 0.0
H1252 H 0.63332 0.25265 0.07212 0.0
H1253 H 0.60689 0.30424 0.0827 0.0
C1254 C 0.61858 0.33744 0.11645 0.0
C1255 C 0.62688 0.35279 0.13464 0.0
C1256 C 0.63373 0.30749 0.11053 0.0
C1257 C 0.65056 0.33718 0.14695 0.0
C1258 C 0.66583 0.30717 0.14112 0.0
C1259 C 0.67304 0.26213 0.11666 0.0
C1260 C 0.66452 0.24754 0.09826 0.0
C1261 C 0.6577 0.29212 0.12287 0.0
C1262 C 0.64046 0.26322 0.0863 0.0
C1263 C 0.62526 0.2928 0.09234 0.0
H1264 H 0.9126 0.34484 0.35704 0.0
H1265 H 0.89975 0.41064 0.40716 0.0
H1266 H 0.95342 0.43733 0.39959 0.0
H1267 H 0.00385 0.44241 0.37794 0.0
H1268 H 0.01435 0.37502 0.32825 0.0
H1269 H 0.9618 0.34869 0.33653 0.0
C1270 C 0.92127 0.36511 0.36637 0.0
C1271 C 0.90185 0.37587 0.38255 0.0
C1272 C 0.9519 0.38014 0.36198 0.0
C1273 C 0.91405 0.40187 0.39455 0.0
C1274 C 0.94475 0.41717 0.39021 0.0
C1275 C 0.99458 0.42194 0.369 0.0
C1276 C 0.01307 0.41091 0.35241 0.0
C1277 C 0.96389 0.4066 0.37385 0.0
C1278 C 1.00075 0.38422 0.34103 0.0
C1279 C 0.97059 0.36905 0.34573 0.0
H1280 H 0.85709 0.36459 0.8617 0.0
H1281 H 0.93405 0.35875 0.90641 0.0
H1282 H 0.91313 0.30495 0.91728 0.0
H1283 H 0.87173 0.26037 0.91541 0.0
H1284 H 0.79465 0.26456 0.87089 0.0
H1285 H 0.81669 0.31778 0.85876 0.0
C1286 C 0.86946 0.35134 0.87365 0.0
C1287 C 0.89693 0.36607 0.88331 0.0
C1288 C 0.85707 0.32011 0.88007 0.0
C1289 C 0.9126 0.34841 0.89882 0.0
C1290 C 0.90067 0.31751 0.9051 0.0
C1291 C 0.85972 0.27291 0.90306 0.0
C1292 C 0.83141 0.25863 0.89422 0.0
C1293 C 0.87263 0.30336 0.89609 0.0
C1294 C 0.81641 0.27508 0.87805 0.0
C1295 C 0.82904 0.30554 0.87108 0.0
H1296 H 0.00483 0.57484 0.13035 0.0
H1297 H 0.00994 0.64011 0.18129 0.0
H1298 H 0.9564 0.66422 0.17269 0.0
H1299 H 0.90777 0.66667 0.15142 0.0
H1300 H 0.90073 0.6027 0.10006 0.0
H1301 H 0.95526 0.57844 0.10806 0.0
C1302 C 0.99417 0.59435 0.13951 0.0
C1303 C 0.01145 0.60547 0.15651 0.0
C1304 C 0.96298 0.6084 0.13445 0.0
C1305 C 0.99732 0.63092 0.16817 0.0
C1306 C 0.9666 0.64481 0.16328 0.0
C1307 C 0.91796 0.64737 0.1419 0.0
C1308 C 0.89988 0.63643 0.12522 0.0
C1309 C 0.94915 0.63366 0.14655 0.0
C1310 C 0.91397 0.61164 0.11303 0.0
C1311 C 0.94517 0.5977 0.11762 0.0
H1312 H 0.59486 0.65303 0.40923 0.0
H1313 H 0.64977 0.65137 0.35408 0.0
H1314 H 0.67602 0.70454 0.3627 0.0
H1315 H 0.68408 0.75124 0.38628 0.0
H1316 H 0.62813 0.75249 0.44104 0.0
H1317 H 0.60175 0.69975 0.43217 0.0
C1318 C 0.61257 0.66417 0.39903 0.0
C1319 C 0.62037 0.64792 0.38104 0.0
C1320 C 0.62751 0.69474 0.40405 0.0
C1321 C 0.64322 0.66315 0.36803 0.0
C1322 C 0.65833 0.69358 0.37297 0.0
C1323 C 0.66612 0.73995 0.39627 0.0
C1324 C 0.65822 0.75581 0.41436 0.0
C1325 C 0.65079 0.70955 0.391 0.0
C1326 C 0.63473 0.7409 0.42705 0.0
C1327 C 0.61961 0.71068 0.42199 0.0
H1328 H 0.60529 0.3441 0.651 0.0
H1329 H 0.61617 0.41221 0.60176 0.0
H1330 H 0.56136 0.43627 0.60921 0.0
H1331 H 0.51015 0.43794 0.63012 0.0
H1332 H 0.50091 0.36831 0.6788 0.0
H1333 H 0.55519 0.34497 0.67106 0.0
C1334 C 0.59592 0.36433 0.64188 0.0
C1335 C 0.61508 0.37644 0.62592 0.0
C1336 C 0.56449 0.37779 0.64613 0.0
C1337 C 0.60207 0.40241 0.61418 0.0
C1338 C 0.57069 0.41619 0.61843 0.0
C1339 C 0.52008 0.41766 0.63898 0.0
C1340 C 0.50145 0.40502 0.65507 0.0
C1341 C 0.55164 0.40408 0.63442 0.0
C1342 C 0.51461 0.37862 0.66636 0.0
C1343 C 0.54575 0.3652 0.66198 0.0
H1344 H 0.10013 0.35411 0.4037 0.0
H1345 H 0.15802 0.35962 0.34972 0.0
H1346 H 0.18466 0.30643 0.35785 0.0
H1347 H 0.19158 0.25821 0.3805 0.0
H1348 H 0.13255 0.25343 0.43405 0.0
H1349 H 0.10647 0.30651 0.42585 0.0
C1350 C 0.11861 0.34384 0.39366 0.0
C1351 C 0.12707 0.36107 0.37614 0.0
C1352 C 0.13372 0.31329 0.39838 0.0
C1353 C 0.15096 0.34702 0.36332 0.0
C1354 C 0.16626 0.31658 0.36797 0.0
C1355 C 0.17307 0.26887 0.39037 0.0
C1356 C 0.16411 0.25188 0.40789 0.0
C1357 C 0.15788 0.29949 0.38549 0.0
C1358 C 0.13994 0.26593 0.42048 0.0
C1359 C 0.12497 0.29632 0.41581 0.0
H1360 H 0.40795 0.34171 0.15624 0.0
H1361 H 0.40244 0.40057 0.10268 0.0
H1362 H 0.45708 0.42502 0.11011 0.0
H1363 H 0.50617 0.43065 0.13261 0.0
H1364 H 0.51012 0.37025 0.1857 0.0
H1365 H 0.45652 0.34567 0.17763 0.0
C1366 C 0.41855 0.35991 0.14612 0.0
C1367 C 0.40081 0.36941 0.12899 0.0
C1368 C 0.44985 0.37374 0.15045 0.0
C1369 C 0.4154 0.39275 0.116 0.0
C1370 C 0.44666 0.40683 0.12028 0.0
C1371 C 0.49526 0.41208 0.14235 0.0
C1372 C 0.5122 0.40252 0.15981 0.0
C1373 C 0.46408 0.39769 0.13757 0.0
C1374 C 0.49776 0.37823 0.1722 0.0
C1375 C 0.467 0.36409 0.16762 0.0
H1376 H 0.31465 0.75008 0.87761 0.0
H1377 H 0.37498 0.75428 0.93065 0.0
H1378 H 0.39918 0.70019 0.92271 0.0
H1379 H 0.40329 0.65174 0.90106 0.0
H1380 H 0.34385 0.64642 0.8477 0.0
H1381 H 0.31934 0.70087 0.85542 0.0
C1382 C 0.33308 0.73912 0.88741 0.0
C1383 C 0.34291 0.75626 0.90474 0.0
C1384 C 0.34708 0.7078 0.88272 0.0
C1385 C 0.36691 0.74173 0.91724 0.0
C1386 C 0.38079 0.71073 0.91272 0.0
C1387 C 0.38491 0.66229 0.89106 0.0
C1388 C 0.3754 0.64471 0.87383 0.0
C1389 C 0.37103 0.69354 0.89555 0.0
C1390 C 0.35168 0.65921 0.86108 0.0
C1391 C 0.33762 0.69039 0.86549 0.0
H1392 H 0.01352 0.5709 0.63209 0.0
H1393 H 0.01097 0.62776 0.68654 0.0
H1394 H 0.06282 0.65517 0.67765 0.0
H1395 H 0.10928 0.66288 0.65502 0.0
H1396 H 0.11342 0.60745 0.60015 0.0
H1397 H 0.06065 0.57994 0.60853 0.0
C1398 C 0.0244 0.58925 0.64198 0.0
C1399 C 0.00835 0.59706 0.66003 0.0
C1400 C 0.05452 0.6053 0.63671 0.0
C1401 C 0.02268 0.62112 0.67259 0.0
C1402 C 0.05242 0.6369 0.66753 0.0
C1403 C 0.0988 0.64477 0.64481 0.0
C1404 C 0.11559 0.63717 0.62701 0.0
C1405 C 0.06861 0.62913 0.6497 0.0
C1406 C 0.10116 0.61385 0.61396 0.0
C1407 C 0.07098 0.59802 0.61878 0.0
H1408 H 0.09431 0.6646 0.10564 0.0
H1409 H 0.15658 0.66116 0.15788 0.0
H1410 H 0.1813 0.71492 0.14872 0.0
H1411 H 0.18566 0.76282 0.12534 0.0
H1412 H 0.12219 0.76476 0.07354 0.0
H1413 H 0.09769 0.71173 0.08312 0.0
C1414 C 0.11333 0.67543 0.11509 0.0
C1415 C 0.12364 0.6586 0.13238 0.0
C1416 C 0.12733 0.70621 0.10978 0.0
C1417 C 0.14813 0.67344 0.14446 0.0
C1418 C 0.16233 0.70421 0.13921 0.0
C1419 C 0.16649 0.75157 0.11619 0.0
C1420 C 0.15592 0.76776 0.0987 0.0
C1421 C 0.15222 0.7208 0.12183 0.0
C1422 C 0.1309 0.75294 0.08705 0.0
C1423 C 0.11681 0.72253 0.0925 0.0
H1424 H 0.10218 0.39674 0.9045 0.0
H1425 H 0.10303 0.32455 0.8568 0.0
H1426 H 0.0522 0.34793 0.84343 0.0
H1427 H 0.00798 0.38919 0.84433 0.0
H1428 H 0.00461 0.46168 0.89154 0.0
H1429 H 0.05562 0.43794 0.90594 0.0
C1430 C 0.09113 0.38606 0.89126 0.0
C1431 C 0.1069 0.35902 0.88167 0.0
C1432 C 0.0614 0.39976 0.88342 0.0
C1433 C 0.09198 0.34553 0.8645 0.0
C1434 C 0.06271 0.35886 0.85676 0.0
C1435 C 0.01835 0.3999 0.85777 0.0
C1436 C 1.00263 0.42732 0.86674 0.0
C1437 C 0.04739 0.38609 0.86595 0.0
C1438 C 0.01631 0.44062 0.88427 0.0
C1439 C 0.04548 0.42703 0.89251 0.0
H1440 H 0.37461 0.25284 0.58775 0.0
H1441 H 0.29767 0.24747 0.63234 0.0
H1442 H 0.31726 0.30002 0.64685 0.0
H1443 H 0.35619 0.34847 0.64641 0.0
H1444 H 0.43299 0.35168 0.60139 0.0
H1445 H 0.41362 0.29933 0.58778 0.0
C1446 C 0.36207 0.26312 0.60065 0.0
C1447 C 0.33462 0.2463 0.60885 0.0
C1448 C 0.3735 0.29317 0.60893 0.0
C1449 C 0.31885 0.25995 0.62567 0.0
C1450 C 0.33006 0.29003 0.63399 0.0
C1451 C 0.36873 0.33763 0.63369 0.0
C1452 C 0.39588 0.3545 0.62493 0.0
C1453 C 0.35737 0.30702 0.6257 0.0
C1454 C 0.4118 0.33981 0.60843 0.0
C1455 C 0.4008 0.30965 0.60056 0.0
H1456 H 0.4999 0.62972 0.33959 0.0
H1457 H 0.50463 0.55701 0.38669 0.0
H1458 H 0.45208 0.57821 0.4004 0.0
H1459 H 0.40357 0.61688 0.39833 0.0
H1460 H 0.40049 0.68892 0.3506 0.0
H1461 H 0.45334 0.66862 0.33804 0.0
C1462 C 0.48953 0.61848 0.35289 0.0
C1463 C 0.50616 0.5917 0.36202 0.0
C1464 C 0.45939 0.63073 0.36063 0.0
C1465 C 0.49232 0.5776 0.3793 0.0
C1466 C 0.46224 0.58974 0.38715 0.0
C1467 C 0.41459 0.62825 0.38528 0.0
C1468 C 0.39764 0.6543 0.37542 0.0
C1469 C 0.44536 0.61624 0.37788 0.0
C1470 C 0.41249 0.66864 0.35847 0.0
C1471 C 0.4429 0.65709 0.35121 0.0
loop_
_geom_bond_atom_site_label_1
_geom_bond_atom_site_label_2
_geom_bond_distance
_geom_bond_site_symmetry_2
_ccdc_geom_bond_type
Co0 O1 2.216 . S
Co0 O2 2.091 . S
Co0 O4 2.004 . S
Co0 O10 2.021 . S
Co0 O12 2.137 . S
Co0 O13 2.244 . S
O1 Co0 2.216 . S
O1 C8 1.247 . S
O2 Co0 2.091 . S
O2 C8 1.261 . S
C3 O12 1.247 . S
C3 O13 1.272 . S
O4 Co0 2.004 . S
O4 C9 1.259 . S
Co5 O6 2.061 . S
Co5 O11 2.052 . S
Co5 O13 2.135 . S
O6 Co5 2.061 . S
O6 C9 1.235 . S
C7 O10 1.238 . S
C7 O11 1.241 . S
C8 O1 1.247 . S
C8 O2 1.261 . S
C9 O4 1.259 . S
C9 O6 1.235 . S
O10 Co0 2.021 . S
O10 C7 1.238 . S
O11 Co5 2.052 . S
O11 C7 1.241 . S
O12 Co0 2.137 . S
O12 C3 1.247 . S
O13 Co0 2.244 . S
O13 C3 1.272 . S
O13 Co5 2.135 . S
Co14 O15 2.216 . S
Co14 O16 2.091 . S
Co14 O18 2.004 . S
Co14 O24 2.021 . S
Co14 O26 2.137 . S
Co14 O27 2.244 . S
O15 Co14 2.216 . S
O15 C22 1.247 . S
O16 Co14 2.091 . S
O16 C22 1.261 . S
C17 O26 1.247 . S
C17 O27 1.272 . S
O18 Co14 2.004 . S
O18 C23 1.259 . S
Co19 O20 2.061 . S
Co19 O25 2.052 . S
Co19 O27 2.135 . S
O20 Co19 2.061 . S
O20 C23 1.235 . S
C21 O24 1.238 . S
C21 O25 1.241 . S
C22 O15 1.247 . S
C22 O16 1.261 . S
C23 O18 1.259 . S
C23 O20 1.235 . S
O24 Co14 2.021 . S
O24 C21 1.238 . S
O25 Co19 2.052 . S
O25 C21 1.241 . S
O26 Co14 2.137 . S
O26 C17 1.247 . S
O27 Co14 2.244 . S
O27 C17 1.272 . S
O27 Co19 2.135 . S
Co28 O29 2.216 . S
Co28 O30 2.091 . S
Co28 O32 2.004 . S
Co28 O38 2.021 . S
Co28 O40 2.137 . S
Co28 O41 2.244 . S
O29 Co28 2.216 . S
O29 C36 1.247 . S
O30 Co28 2.091 . S
O30 C36 1.261 . S
C31 O40 1.247 . S
C31 O41 1.272 . S
O32 Co28 2.004 . S
O32 C37 1.259 . S
Co33 O34 2.061 . S
Co33 O39 2.052 . S
Co33 O41 2.135 . S
O34 Co33 2.061 . S
O34 C37 1.235 . S
C35 O38 1.238 . S
C35 O39 1.241 . S
C36 O29 1.247 . S
C36 O30 1.261 . S
C37 O32 1.259 . S
C37 O34 1.235 . S
O38 Co28 2.021 . S
O38 C35 1.238 . S
O39 Co33 2.052 . S
O39 C35 1.241 . S
O40 Co28 2.137 . S
O40 C31 1.247 . S
O41 Co28 2.244 . S
O41 C31 1.272 . S
O41 Co33 2.135 . S
Co42 O43 2.216 . S
Co42 O44 2.091 . S
Co42 O46 2.004 . S
Co42 O52 2.021 . S
Co42 O54 2.137 . S
Co42 O55 2.244 . S
O43 Co42 2.216 . S
O43 C50 1.247 . S
O44 Co42 2.091 . S
O44 C50 1.261 . S
C45 O54 1.247 . S
C45 O55 1.272 . S
O46 Co42 2.004 . S
O46 C51 1.259 . S
Co47 O48 2.061 . S
Co47 O53 2.052 . S
Co47 O55 2.135 . S
O48 Co47 2.061 . S
O48 C51 1.235 . S
C49 O52 1.238 . S
C49 O53 1.241 . S
C50 O43 1.247 . S
C50 O44 1.261 . S
C51 O46 1.259 . S
C51 O48 1.235 . S
O52 Co42 2.021 . S
O52 C49 1.238 . S
O53 Co47 2.052 . S
O53 C49 1.241 . S
O54 Co42 2.137 . S
O54 C45 1.247 . S
O55 Co42 2.244 . S
O55 C45 1.272 . S
O55 Co47 2.135 . S
Co56 O57 2.216 . S
Co56 O58 2.091 . S
Co56 O60 2.004 . S
Co56 O66 2.021 . S
Co56 O68 2.137 . S
Co56 O69 2.244 . S
O57 Co56 2.216 . S
O57 C64 1.247 . S
O58 Co56 2.091 . S
O58 C64 1.261 . S
C59 O68 1.247 . S
C59 O69 1.272 . S
O60 Co56 2.004 . S
O60 C65 1.259 . S
Co61 O62 2.061 . S
Co61 O67 2.052 . S
Co61 O69 2.135 . S
O62 Co61 2.061 . S
O62 C65 1.235 . S
C63 O66 1.238 . S
C63 O67 1.241 . S
C64 O57 1.247 . S
C64 O58 1.261 . S
C65 O60 1.259 . S
C65 O62 1.235 . S
O66 Co56 2.021 . S
O66 C63 1.238 . S
O67 Co61 2.052 . S
O67 C63 1.241 . S
O68 Co56 2.137 . S
O68 C59 1.247 . S
O69 Co56 2.244 . S
O69 C59 1.272 . S
O69 Co61 2.135 . S
Co70 O71 2.216 . S
Co70 O72 2.091 . S
Co70 O74 2.004 . S
Co70 O80 2.021 . S
Co70 O82 2.137 . S
Co70 O83 2.244 . S
O71 Co70 2.216 . S
O71 C78 1.247 . S
O72 Co70 2.091 . S
O72 C78 1.261 . S
C73 O82 1.247 . S
C73 O83 1.272 . S
O74 Co70 2.004 . S
O74 C79 1.259 . S
Co75 O76 2.061 . S
Co75 O81 2.052 . S
Co75 O83 2.135 . S
O76 Co75 2.061 . S
O76 C79 1.235 . S
C77 O80 1.238 . S
C77 O81 1.241 . S
C78 O71 1.247 . S
C78 O72 1.261 . S
C79 O74 1.259 . S
C79 O76 1.235 . S
O80 Co70 2.021 . S
O80 C77 1.238 . S
O81 Co75 2.052 . S
O81 C77 1.241 . S
O82 Co70 2.137 . S
O82 C73 1.247 . S
O83 Co70 2.244 . S
O83 C73 1.272 . S
O83 Co75 2.135 . S
Co84 O85 2.216 . S
Co84 O86 2.091 . S
Co84 O88 2.004 . S
Co84 O94 2.021 . S
Co84 O96 2.137 . S
Co84 O97 2.244 . S
O85 Co84 2.216 . S
O85 C92 1.247 . S
O86 Co84 2.091 . S
O86 C92 1.261 . S
C87 O96 1.247 . S
C87 O97 1.272 . S
O88 Co84 2.004 . S
O88 C93 1.259 . S
Co89 O90 2.061 . S
Co89 O95 2.052 . S
Co89 O97 2.135 . S
O90 Co89 2.061 . S
O90 C93 1.235 . S
C91 O94 1.238 . S
C91 O95 1.241 . S
C92 O85 1.247 . S
C92 O86 1.261 . S
C93 O88 1.259 . S
C93 O90 1.235 . S
O94 Co84 2.021 . S
O94 C91 1.238 . S
O95 Co89 2.052 . S
O95 C91 1.241 . S
O96 Co84 2.137 . S
O96 C87 1.247 . S
O97 Co84 2.244 . S
O97 C87 1.272 . S
O97 Co89 2.135 . S
Co98 O99 2.216 . S
Co98 O100 2.091 . S
Co98 O102 2.004 . S
Co98 O108 2.021 . S
Co98 O110 2.137 . S
Co98 O111 2.244 . S
O99 Co98 2.216 . S
O99 C106 1.247 . S
O100 Co98 2.091 . S
O100 C106 1.261 . S
C101 O110 1.247 . S
C101 O111 1.272 . S
O102 Co98 2.004 . S
O102 C107 1.259 . S
Co103 O104 2.061 . S
Co103 O109 2.052 . S
Co103 O111 2.135 . S
O104 Co103 2.061 . S
O104 C107 1.235 . S
C105 O108 1.238 . S
C105 O109 1.241 . S
C106 O99 1.247 . S
C106 O100 1.261 . S
C107 O102 1.259 . S
C107 O104 1.235 . S
O108 Co98 2.021 . S
O108 C105 1.238 . S
O109 Co103 2.052 . S
O109 C105 1.241 . S
O110 Co98 2.137 . S
O110 C101 1.247 . S
O111 Co98 2.244 . S
O111 C101 1.272 . S
O111 Co103 2.135 . S
Co112 O113 2.216 . S
Co112 O114 2.091 . S
Co112 O116 2.004 . S
Co112 O122 2.021 . S
Co112 O124 2.137 . S
Co112 O125 2.244 . S
O113 Co112 2.216 . S
O113 C120 1.247 . S
O114 Co112 2.091 . S
O114 C120 1.261 . S
C115 O124 1.247 . S
C115 O125 1.272 . S
O116 Co112 2.004 . S
O116 C121 1.259 . S
Co117 O118 2.061 . S
Co117 O123 2.052 . S
Co117 O125 2.135 . S
O118 Co117 2.061 . S
O118 C121 1.235 . S
C119 O122 1.238 . S
C119 O123 1.241 . S
C120 O113 1.247 . S
C120 O114 1.261 . S
C121 O116 1.259 . S
C121 O118 1.235 . S
O122 Co112 2.021 . S
O122 C119 1.238 . S
O123 Co117 2.052 . S
O123 C119 1.241 . S
O124 Co112 2.137 . S
O124 C115 1.247 . S
O125 Co112 2.244 . S
O125 C115 1.272 . S
O125 Co117 2.135 . S
Co126 O127 2.216 . S
Co126 O128 2.091 . S
Co126 O130 2.004 . S
Co126 O136 2.021 . S
Co126 O138 2.137 . S
Co126 O139 2.244 . S
O127 Co126 2.216 . S
O127 C134 1.247 . S
O128 Co126 2.091 . S
O128 C134 1.261 . S
C129 O138 1.247 . S
C129 O139 1.272 . S
O130 Co126 2.004 . S
O130 C135 1.259 . S
Co131 O132 2.061 . S
Co131 O137 2.052 . S
Co131 O139 2.135 . S
O132 Co131 2.061 . S
O132 C135 1.235 . S
C133 O136 1.238 . S
C133 O137 1.241 . S
C134 O127 1.247 . S
C134 O128 1.261 . S
C135 O130 1.259 . S
C135 O132 1.235 . S
O136 Co126 2.021 . S
O136 C133 1.238 . S
O137 Co131 2.052 . S
O137 C133 1.241 . S
O138 Co126 2.137 . S
O138 C129 1.247 . S
O139 Co126 2.244 . S
O139 C129 1.272 . S
O139 Co131 2.135 . S
Co140 O141 2.216 . S
Co140 O142 2.091 . S
Co140 O144 2.004 . S
Co140 O150 2.021 . S
Co140 O152 2.137 . S
Co140 O153 2.244 . S
O141 Co140 2.216 . S
O141 C148 1.247 . S
O142 Co140 2.091 . S
O142 C148 1.261 . S
C143 O152 1.247 . S
C143 O153 1.272 . S
O144 Co140 2.004 . S
O144 C149 1.259 . S
Co145 O146 2.061 . S
Co145 O151 2.052 . S
Co145 O153 2.135 . S
O146 Co145 2.061 . S
O146 C149 1.235 . S
C147 O150 1.238 . S
C147 O151 1.241 . S
C148 O141 1.247 . S
C148 O142 1.261 . S
C149 O144 1.259 . S
C149 O146 1.235 . S
O150 Co140 2.021 . S
O150 C147 1.238 . S
O151 Co145 2.052 . S
O151 C147 1.241 . S
O152 Co140 2.137 . S
O152 C143 1.247 . S
O153 Co140 2.244 . S
O153 C143 1.272 . S
O153 Co145 2.135 . S
Co154 O155 2.216 . S
Co154 O156 2.091 . S
Co154 O158 2.004 . S
Co154 O164 2.021 . S
Co154 O166 2.137 . S
Co154 O167 2.244 . S
O155 Co154 2.216 . S
O155 C162 1.247 . S
O156 Co154 2.091 . S
O156 C162 1.261 . S
C157 O166 1.247 . S
C157 O167 1.272 . S
O158 Co154 2.004 . S
O158 C163 1.259 . S
Co159 O160 2.061 . S
Co159 O165 2.052 . S
Co159 O167 2.135 . S
O160 Co159 2.061 . S
O160 C163 1.235 . S
C161 O164 1.238 . S
C161 O165 1.241 . S
C162 O155 1.247 . S
C162 O156 1.261 . S
C163 O158 1.259 . S
C163 O160 1.235 . S
O164 Co154 2.021 . S
O164 C161 1.238 . S
O165 Co159 2.052 . S
O165 C161 1.241 . S
O166 Co154 2.137 . S
O166 C157 1.247 . S
O167 Co154 2.244 . S
O167 C157 1.272 . S
O167 Co159 2.135 . S
Co168 O169 2.216 . S
Co168 O170 2.091 . S
Co168 O172 2.004 . S
Co168 O178 2.021 . S
Co168 O180 2.137 . S
Co168 O181 2.244 . S
O169 Co168 2.216 . S
O169 C176 1.247 . S
O170 Co168 2.091 . S
O170 C176 1.261 . S
C171 O180 1.247 . S
C171 O181 1.272 . S
O172 Co168 2.004 . S
O172 C177 1.259 . S
Co173 O174 2.061 . S
Co173 O179 2.052 . S
Co173 O181 2.135 . S
O174 Co173 2.061 . S
O174 C177 1.235 . S
C175 O178 1.238 . S
C175 O179 1.241 . S
C176 O169 1.247 . S
C176 O170 1.261 . S
C177 O172 1.259 . S
C177 O174 1.235 . S
O178 Co168 2.021 . S
O178 C175 1.238 . S
O179 Co173 2.052 . S
O179 C175 1.241 . S
O180 Co168 2.137 . S
O180 C171 1.247 . S
O181 Co168 2.244 . S
O181 C171 1.272 . S
O181 Co173 2.135 . S
Co182 O183 2.216 . S
Co182 O184 2.091 . S
Co182 O186 2.004 . S
Co182 O192 2.021 . S
Co182 O194 2.137 . S
Co182 O195 2.244 . S
O183 Co182 2.216 . S
O183 C190 1.247 . S
O184 Co182 2.091 . S
O184 C190 1.261 . S
C185 O194 1.247 . S
C185 O195 1.272 . S
O186 Co182 2.004 . S
O186 C191 1.259 . S
Co187 O188 2.061 . S
Co187 O193 2.052 . S
Co187 O195 2.135 . S
O188 Co187 2.061 . S
O188 C191 1.235 . S
C189 O192 1.238 . S
C189 O193 1.241 . S
C190 O183 1.247 . S
C190 O184 1.261 . S
C191 O186 1.259 . S
C191 O188 1.235 . S
O192 Co182 2.021 . S
O192 C189 1.238 . S
O193 Co187 2.052 . S
O193 C189 1.241 . S
O194 Co182 2.137 . S
O194 C185 1.247 . S
O195 Co182 2.244 . S
O195 C185 1.272 . S
O195 Co187 2.135 . S
Co196 O197 2.216 . S
Co196 O198 2.091 . S
Co196 O200 2.004 . S
Co196 O206 2.021 . S
Co196 O208 2.137 . S
Co196 O209 2.244 . S
O197 Co196 2.216 . S
O197 C204 1.247 . S
O198 Co196 2.091 . S
O198 C204 1.261 . S
C199 O208 1.247 . S
C199 O209 1.272 . S
O200 Co196 2.004 . S
O200 C205 1.259 . S
Co201 O202 2.061 . S
Co201 O207 2.052 . S
Co201 O209 2.135 . S
O202 Co201 2.061 . S
O202 C205 1.235 . S
C203 O206 1.238 . S
C203 O207 1.241 . S
C204 O197 1.247 . S
C204 O198 1.261 . S
C205 O200 1.259 . S
C205 O202 1.235 . S
O206 Co196 2.021 . S
O206 C203 1.238 . S
O207 Co201 2.052 . S
O207 C203 1.241 . S
O208 Co196 2.137 . S
O208 C199 1.247 . S
O209 Co196 2.244 . S
O209 C199 1.272 . S
O209 Co201 2.135 . S
Co210 O211 2.216 . S
Co210 O212 2.091 . S
Co210 O214 2.004 . S
Co210 O220 2.021 . S
Co210 O222 2.137 . S
Co210 O223 2.244 . S
O211 Co210 2.216 . S
O211 C218 1.247 . S
O212 Co210 2.091 . S
O212 C218 1.261 . S
C213 O222 1.247 . S
C213 O223 1.272 . S
O214 Co210 2.004 . S
O214 C219 1.259 . S
Co215 O216 2.061 . S
Co215 O221 2.052 . S
Co215 O223 2.135 . S
O216 Co215 2.061 . S
O216 C219 1.235 . S
C217 O220 1.238 . S
C217 O221 1.241 . S
C218 O211 1.247 . S
C218 O212 1.261 . S
C219 O214 1.259 . S
C219 O216 1.235 . S
O220 Co210 2.021 . S
O220 C217 1.238 . S
O221 Co215 2.052 . S
O221 C217 1.241 . S
O222 Co210 2.137 . S
O222 C213 1.247 . S
O223 Co210 2.244 . S
O223 C213 1.272 . S
O223 Co215 2.135 . S
Co224 O225 2.216 . S
Co224 O226 2.091 . S
Co224 O228 2.004 . S
Co224 O234 2.021 . S
Co224 O236 2.137 . S
Co224 O237 2.244 . S
O225 Co224 2.216 . S
O225 C232 1.247 . S
O226 Co224 2.091 . S
O226 C232 1.261 . S
C227 O236 1.247 . S
C227 O237 1.272 . S
O228 Co224 2.004 . S
O228 C233 1.259 . S
Co229 O230 2.061 . S
Co229 O235 2.052 . S
Co229 O237 2.135 . S
O230 Co229 2.061 . S
O230 C233 1.235 . S
C231 O234 1.238 . S
C231 O235 1.241 . S
C232 O225 1.247 . S
C232 O226 1.261 . S
C233 O228 1.259 . S
C233 O230 1.235 . S
O234 Co224 2.021 . S
O234 C231 1.238 . S
O235 Co229 2.052 . S
O235 C231 1.241 . S
O236 Co224 2.137 . S
O236 C227 1.247 . S
O237 Co224 2.244 . S
O237 C227 1.272 . S
O237 Co229 2.135 . S
Co238 O239 2.216 . S
Co238 O240 2.091 . S
Co238 O242 2.004 . S
Co238 O248 2.021 . S
Co238 O250 2.137 . S
Co238 O251 2.244 . S
O239 Co238 2.216 . S
O239 C246 1.247 . S
O240 Co238 2.091 . S
O240 C246 1.261 . S
C241 O250 1.247 . S
C241 O251 1.272 . S
O242 Co238 2.004 . S
O242 C247 1.259 . S
Co243 O244 2.061 . S
Co243 O249 2.052 . S
Co243 O251 2.135 . S
O244 Co243 2.061 . S
O244 C247 1.235 . S
C245 O248 1.238 . S
C245 O249 1.241 . S
C246 O239 1.247 . S
C246 O240 1.261 . S
C247 O242 1.259 . S
C247 O244 1.235 . S
O248 Co238 2.021 . S
O248 C245 1.238 . S
O249 Co243 2.052 . S
O249 C245 1.241 . S
O250 Co238 2.137 . S
O250 C241 1.247 . S
O251 Co238 2.244 . S
O251 C241 1.272 . S
O251 Co243 2.135 . S
Co252 O253 2.216 . S
Co252 O254 2.091 . S
Co252 O256 2.004 . S
Co252 O262 2.021 . S
Co252 O264 2.137 . S
Co252 O265 2.244 . S
O253 Co252 2.216 . S
O253 C260 1.247 . S
O254 Co252 2.091 . S
O254 C260 1.261 . S
C255 O264 1.247 . S
C255 O265 1.272 . S
O256 Co252 2.004 . S
O256 C261 1.259 . S
Co257 O258 2.061 . S
Co257 O263 2.052 . S
Co257 O265 2.135 . S
O258 Co257 2.061 . S
O258 C261 1.235 . S
C259 O262 1.238 . S
C259 O263 1.241 . S
C260 O253 1.247 . S
C260 O254 1.261 . S
C261 O256 1.259 . S
C261 O258 1.235 . S
O262 Co252 2.021 . S
O262 C259 1.238 . S
O263 Co257 2.052 . S
O263 C259 1.241 . S
O264 Co252 2.137 . S
O264 C255 1.247 . S
O265 Co252 2.244 . S
O265 C255 1.272 . S
O265 Co257 2.135 . S
Co266 O267 2.216 . S
Co266 O268 2.091 . S
Co266 O270 2.004 . S
Co266 O276 2.021 . S
Co266 O278 2.137 . S
Co266 O279 2.244 . S
O267 Co266 2.216 . S
O267 C274 1.247 . S
O268 Co266 2.091 . S
O268 C274 1.261 . S
C269 O278 1.247 . S
C269 O279 1.272 . S
O270 Co266 2.004 . S
O270 C275 1.259 . S
Co271 O272 2.061 . S
Co271 O277 2.052 . S
Co271 O279 2.135 . S
O272 Co271 2.061 . S
O272 C275 1.235 . S
C273 O276 1.238 . S
C273 O277 1.241 . S
C274 O267 1.247 . S
C274 O268 1.261 . S
C275 O270 1.259 . S
C275 O272 1.235 . S
O276 Co266 2.021 . S
O276 C273 1.238 . S
O277 Co271 2.052 . S
O277 C273 1.241 . S
O278 Co266 2.137 . S
O278 C269 1.247 . S
O279 Co266 2.244 . S
O279 C269 1.272 . S
O279 Co271 2.135 . S
Co280 O281 2.216 . S
Co280 O282 2.091 . S
Co280 O284 2.004 . S
Co280 O290 2.021 . S
Co280 O292 2.137 . S
Co280 O293 2.244 . S
O281 Co280 2.216 . S
O281 C288 1.247 . S
O282 Co280 2.091 . S
O282 C288 1.261 . S
C283 O292 1.247 . S
C283 O293 1.272 . S
O284 Co280 2.004 . S
O284 C289 1.259 . S
Co285 O286 2.061 . S
Co285 O291 2.052 . S
Co285 O293 2.135 . S
O286 Co285 2.061 . S
O286 C289 1.235 . S
C287 O290 1.238 . S
C287 O291 1.241 . S
C288 O281 1.247 . S
C288 O282 1.261 . S
C289 O284 1.259 . S
C289 O286 1.235 . S
O290 Co280 2.021 . S
O290 C287 1.238 . S
O291 Co285 2.052 . S
O291 C287 1.241 . S
O292 Co280 2.137 . S
O292 C283 1.247 . S
O293 Co280 2.244 . S
O293 C283 1.272 . S
O293 Co285 2.135 . S
Co294 O295 2.216 . S
Co294 O296 2.091 . S
Co294 O298 2.004 . S
Co294 O304 2.021 . S
Co294 O306 2.137 . S
Co294 O307 2.244 . S
O295 Co294 2.216 . S
O295 C302 1.247 . S
O296 Co294 2.091 . S
O296 C302 1.261 . S
C297 O306 1.247 . S
C297 O307 1.272 . S
O298 Co294 2.004 . S
O298 C303 1.259 . S
Co299 O300 2.061 . S
Co299 O305 2.052 . S
Co299 O307 2.135 . S
O300 Co299 2.061 . S
O300 C303 1.235 . S
C301 O304 1.238 . S
C301 O305 1.241 . S
C302 O295 1.247 . S
C302 O296 1.261 . S
C303 O298 1.259 . S
C303 O300 1.235 . S
O304 Co294 2.021 . S
O304 C301 1.238 . S
O305 Co299 2.052 . S
O305 C301 1.241 . S
O306 Co294 2.137 . S
O306 C297 1.247 . S
O307 Co294 2.244 . S
O307 C297 1.272 . S
O307 Co299 2.135 . S
Co308 O309 2.216 . S
Co308 O310 2.091 . S
Co308 O312 2.004 . S
Co308 O318 2.021 . S
Co308 O320 2.137 . S
Co308 O321 2.244 . S
O309 Co308 2.216 . S
O309 C316 1.247 . S
O310 Co308 2.091 . S
O310 C316 1.261 . S
C311 O320 1.247 . S
C311 O321 1.272 . S
O312 Co308 2.004 . S
O312 C317 1.259 . S
Co313 O314 2.061 . S
Co313 O319 2.052 . S
Co313 O321 2.135 . S
O314 Co313 2.061 . S
O314 C317 1.235 . S
C315 O318 1.238 . S
C315 O319 1.241 . S
C316 O309 1.247 . S
C316 O310 1.261 . S
C317 O312 1.259 . S
C317 O314 1.235 . S
O318 Co308 2.021 . S
O318 C315 1.238 . S
O319 Co313 2.052 . S
O319 C315 1.241 . S
O320 Co308 2.137 . S
O320 C311 1.247 . S
O321 Co308 2.244 . S
O321 C311 1.272 . S
O321 Co313 2.135 . S
Co322 O323 2.216 . S
Co322 O324 2.091 . S
Co322 O326 2.004 . S
Co322 O332 2.021 . S
Co322 O334 2.137 . S
Co322 O335 2.244 . S
O323 Co322 2.216 . S
O323 C330 1.247 . S
O324 Co322 2.091 . S
O324 C330 1.261 . S
C325 O334 1.247 . S
C325 O335 1.272 . S
O326 Co322 2.004 . S
O326 C331 1.259 . S
Co327 O328 2.061 . S
Co327 O333 2.052 . S
Co327 O335 2.135 . S
O328 Co327 2.061 . S
O328 C331 1.235 . S
C329 O332 1.238 . S
C329 O333 1.241 . S
C330 O323 1.247 . S
C330 O324 1.261 . S
C331 O326 1.259 . S
C331 O328 1.235 . S
O332 Co322 2.021 . S
O332 C329 1.238 . S
O333 Co327 2.052 . S
O333 C329 1.241 . S
O334 Co322 2.137 . S
O334 C325 1.247 . S
O335 Co322 2.244 . S
O335 C325 1.272 . S
O335 Co327 2.135 . S
Co336 O337 2.216 . S
Co336 O338 2.091 . S
Co336 O340 2.004 . S
Co336 O346 2.021 . S
Co336 O348 2.137 . S
Co336 O349 2.244 . S
O337 Co336 2.216 . S
O337 C344 1.247 . S
O338 Co336 2.091 . S
O338 C344 1.261 . S
C339 O348 1.247 . S
C339 O349 1.272 . S
O340 Co336 2.004 . S
O340 C345 1.259 . S
Co341 O342 2.061 . S
Co341 O347 2.052 . S
Co341 O349 2.135 . S
O342 Co341 2.061 . S
O342 C345 1.235 . S
C343 O346 1.238 . S
C343 O347 1.241 . S
C344 O337 1.247 . S
C344 O338 1.261 . S
C345 O340 1.259 . S
C345 O342 1.235 . S
O346 Co336 2.021 . S
O346 C343 1.238 . S
O347 Co341 2.052 . S
O347 C343 1.241 . S
O348 Co336 2.137 . S
O348 C339 1.247 . S
O349 Co336 2.244 . S
O349 C339 1.272 . S
O349 Co341 2.135 . S
Co350 O351 2.216 . S
Co350 O352 2.091 . S
Co350 O354 2.004 . S
Co350 O360 2.021 . S
Co350 O362 2.137 . S
Co350 O363 2.244 . S
O351 Co350 2.216 . S
O351 C358 1.247 . S
O352 Co350 2.091 . S
O352 C358 1.261 . S
C353 O362 1.247 . S
C353 O363 1.272 . S
O354 Co350 2.004 . S
O354 C359 1.259 . S
Co355 O356 2.061 . S
Co355 O361 2.052 . S
Co355 O363 2.135 . S
O356 Co355 2.061 . S
O356 C359 1.235 . S
C357 O360 1.238 . S
C357 O361 1.241 . S
C358 O351 1.247 . S
C358 O352 1.261 . S
C359 O354 1.259 . S
C359 O356 1.235 . S
O360 Co350 2.021 . S
O360 C357 1.238 . S
O361 Co355 2.052 . S
O361 C357 1.241 . S
O362 Co350 2.137 . S
O362 C353 1.247 . S
O363 Co350 2.244 . S
O363 C353 1.272 . S
O363 Co355 2.135 . S
Co364 O365 2.216 . S
Co364 O366 2.091 . S
Co364 O368 2.004 . S
Co364 O374 2.021 . S
Co364 O376 2.137 . S
Co364 O377 2.244 . S
O365 Co364 2.216 . S
O365 C372 1.247 . S
O366 Co364 2.091 . S
O366 C372 1.261 . S
C367 O376 1.247 . S
C367 O377 1.272 . S
O368 Co364 2.004 . S
O368 C373 1.259 . S
Co369 O370 2.061 . S
Co369 O375 2.052 . S
Co369 O377 2.135 . S
O370 Co369 2.061 . S
O370 C373 1.235 . S
C371 O374 1.238 . S
C371 O375 1.241 . S
C372 O365 1.247 . S
C372 O366 1.261 . S
C373 O368 1.259 . S
C373 O370 1.235 . S
O374 Co364 2.021 . S
O374 C371 1.238 . S
O375 Co369 2.052 . S
O375 C371 1.241 . S
O376 Co364 2.137 . S
O376 C367 1.247 . S
O377 Co364 2.244 . S
O377 C367 1.272 . S
O377 Co369 2.135 . S
Co378 O379 2.216 . S
Co378 O380 2.091 . S
Co378 O382 2.004 . S
Co378 O388 2.021 . S
Co378 O390 2.137 . S
Co378 O391 2.244 . S
O379 Co378 2.216 . S
O379 C386 1.247 . S
O380 Co378 2.091 . S
O380 C386 1.261 . S
C381 O390 1.247 . S
C381 O391 1.272 . S
O382 Co378 2.004 . S
O382 C387 1.259 . S
Co383 O384 2.061 . S
Co383 O389 2.052 . S
Co383 O391 2.135 . S
O384 Co383 2.061 . S
O384 C387 1.235 . S
C385 O388 1.238 . S
C385 O389 1.241 . S
C386 O379 1.247 . S
C386 O380 1.261 . S
C387 O382 1.259 . S
C387 O384 1.235 . S
O388 Co378 2.021 . S
O388 C385 1.238 . S
O389 Co383 2.052 . S
O389 C385 1.241 . S
O390 Co378 2.137 . S
O390 C381 1.247 . S
O391 Co378 2.244 . S
O391 C381 1.272 . S
O391 Co383 2.135 . S
Co392 O393 2.216 . S
Co392 O394 2.091 . S
Co392 O396 2.004 . S
Co392 O402 2.021 . S
Co392 O404 2.137 . S
Co392 O405 2.244 . S
O393 Co392 2.216 . S
O393 C400 1.247 . S
O394 Co392 2.091 . S
O394 C400 1.261 . S
C395 O404 1.247 . S
C395 O405 1.272 . S
O396 Co392 2.004 . S
O396 C401 1.259 . S
Co397 O398 2.061 . S
Co397 O403 2.052 . S
Co397 O405 2.135 . S
O398 Co397 2.061 . S
O398 C401 1.235 . S
C399 O402 1.238 . S
C399 O403 1.241 . S
C400 O393 1.247 . S
C400 O394 1.261 . S
C401 O396 1.259 . S
C401 O398 1.235 . S
O402 Co392 2.021 . S
O402 C399 1.238 . S
O403 Co397 2.052 . S
O403 C399 1.241 . S
O404 Co392 2.137 . S
O404 C395 1.247 . S
O405 Co392 2.244 . S
O405 C395 1.272 . S
O405 Co397 2.135 . S
Co406 O407 2.216 . S
Co406 O408 2.091 . S
Co406 O410 2.004 . S
Co406 O416 2.021 . S
Co406 O418 2.137 . S
Co406 O419 2.244 . S
O407 Co406 2.216 . S
O407 C414 1.247 . S
O408 Co406 2.091 . S
O408 C414 1.261 . S
C409 O418 1.247 . S
C409 O419 1.272 . S
O410 Co406 2.004 . S
O410 C415 1.259 . S
Co411 O412 2.061 . S
Co411 O417 2.052 . S
Co411 O419 2.135 . S
O412 Co411 2.061 . S
O412 C415 1.235 . S
C413 O416 1.238 . S
C413 O417 1.241 . S
C414 O407 1.247 . S
C414 O408 1.261 . S
C415 O410 1.259 . S
C415 O412 1.235 . S
O416 Co406 2.021 . S
O416 C413 1.238 . S
O417 Co411 2.052 . S
O417 C413 1.241 . S
O418 Co406 2.137 . S
O418 C409 1.247 . S
O419 Co406 2.244 . S
O419 C409 1.272 . S
O419 Co411 2.135 . S
Co420 O421 2.216 . S
Co420 O422 2.091 . S
Co420 O424 2.004 . S
Co420 O430 2.021 . S
Co420 O432 2.137 . S
Co420 O433 2.244 . S
O421 Co420 2.216 . S
O421 C428 1.247 . S
O422 Co420 2.091 . S
O422 C428 1.261 . S
C423 O432 1.247 . S
C423 O433 1.272 . S
O424 Co420 2.004 . S
O424 C429 1.259 . S
Co425 O426 2.061 . S
Co425 O431 2.052 . S
Co425 O433 2.135 . S
O426 Co425 2.061 . S
O426 C429 1.235 . S
C427 O430 1.238 . S
C427 O431 1.241 . S
C428 O421 1.247 . S
C428 O422 1.261 . S
C429 O424 1.259 . S
C429 O426 1.235 . S
O430 Co420 2.021 . S
O430 C427 1.238 . S
O431 Co425 2.052 . S
O431 C427 1.241 . S
O432 Co420 2.137 . S
O432 C423 1.247 . S
O433 Co420 2.244 . S
O433 C423 1.272 . S
O433 Co425 2.135 . S
Co434 O435 2.216 . S
Co434 O436 2.091 . S
Co434 O438 2.004 . S
Co434 O444 2.021 . S
Co434 O446 2.137 . S
Co434 O447 2.244 . S
O435 Co434 2.216 . S
O435 C442 1.247 . S
O436 Co434 2.091 . S
O436 C442 1.261 . S
C437 O446 1.247 . S
C437 O447 1.272 . S
O438 Co434 2.004 . S
O438 C443 1.259 . S
Co439 O440 2.061 . S
Co439 O445 2.052 . S
Co439 O447 2.135 . S
O440 Co439 2.061 . S
O440 C443 1.235 . S
C441 O444 1.238 . S
C441 O445 1.241 . S
C442 O435 1.247 . S
C442 O436 1.261 . S
C443 O438 1.259 . S
C443 O440 1.235 . S
O444 Co434 2.021 . S
O444 C441 1.238 . S
O445 Co439 2.052 . S
O445 C441 1.241 . S
O446 Co434 2.137 . S
O446 C437 1.247 . S
O447 Co434 2.244 . S
O447 C437 1.272 . S
O447 Co439 2.135 . S
H448 C454 0.930 . S
H449 C457 0.930 . S
H450 C458 0.930 . S
H451 C459 0.930 . S
H452 C462 0.930 . S
H453 C463 0.930 . S
C454 H448 0.930 . S
C454 C455 1.355 . S
C454 C456 1.415 . S
C455 C454 1.355 . S
C455 C457 1.419 1_565 S
C456 C454 1.415 . S
C456 C461 1.425 1_565 S
C456 C463 1.409 . S
C457 H449 0.930 . S
C457 C455 1.419 1_545 S
C457 C458 1.362 . S
C458 H450 0.930 . S
C458 C457 1.362 . S
C458 C461 1.409 . S
C459 H451 0.930 . S
C459 C460 1.355 . S
C459 C461 1.415 . S
C460 C459 1.355 . S
C460 C462 1.419 1_545 S
C461 C456 1.425 1_545 S
C461 C458 1.409 . S
C461 C459 1.415 . S
C462 H452 0.930 . S
C462 C460 1.419 1_565 S
C462 C463 1.362 . S
C463 H453 0.930 . S
C463 C456 1.409 . S
C463 C462 1.362 . S
H464 C470 0.930 . S
H465 C473 0.930 . S
H466 C474 0.930 . S
H467 C475 0.930 . S
H468 C478 0.930 . S
H469 C479 0.930 . S
C470 H464 0.930 . S
C470 C471 1.355 . S
C470 C472 1.415 . S
C471 C470 1.355 . S
C471 C473 1.419 . S
C472 C470 1.415 . S
C472 C477 1.425 . S
C472 C479 1.409 . S
C473 H465 0.930 . S
C473 C471 1.419 . S
C473 C474 1.362 . S
C474 H466 0.930 . S
C474 C473 1.362 . S
C474 C477 1.409 . S
C475 H467 0.930 . S
C475 C476 1.355 . S
C475 C477 1.415 . S
C476 C475 1.355 . S
C476 C478 1.419 . S
C477 C472 1.425 . S
C477 C474 1.409 . S
C477 C475 1.415 . S
C478 H468 0.930 . S
C478 C476 1.419 . S
C478 C479 1.362 . S
C479 H469 0.930 . S
C479 C472 1.409 . S
C479 C478 1.362 . S
H480 C486 0.930 . S
H481 C489 0.930 . S
H482 C490 0.930 . S
H483 C491 0.930 . S
H484 C494 0.930 . S
H485 C495 0.930 . S
C486 H480 0.930 . S
C486 C487 1.355 . S
C486 C488 1.415 . S
C487 C486 1.355 . S
C487 C489 1.419 1_545 S
C488 C486 1.415 . S
C488 C493 1.425 1_545 S
C488 C495 1.409 . S
C489 H481 0.930 . S
C489 C487 1.419 1_565 S
C489 C490 1.362 . S
C490 H482 0.930 . S
C490 C489 1.362 . S
C490 C493 1.409 . S
C491 H483 0.930 . S
C491 C492 1.355 . S
C491 C493 1.415 . S
C492 C491 1.355 . S
C492 C494 1.419 1_565 S
C493 C488 1.425 1_565 S
C493 C490 1.409 . S
C493 C491 1.415 . S
C494 H484 0.930 . S
C494 C492 1.419 1_545 S
C494 C495 1.362 . S
C495 H485 0.930 . S
C495 C488 1.409 . S
C495 C494 1.362 . S
H496 C502 0.930 . S
H497 C505 0.930 . S
H498 C506 0.930 1_554 S
H499 C507 0.930 . S
H500 C510 0.930 . S
H501 C511 0.930 1_556 S
C502 H496 0.930 . S
C502 C503 1.355 . S
C502 C504 1.415 . S
C503 C502 1.355 . S
C503 C505 1.419 . S
C504 C502 1.415 . S
C504 C509 1.425 1_556 S
C504 C511 1.409 1_556 S
C505 H497 0.930 . S
C505 C503 1.419 . S
C505 C506 1.362 . S
C506 H498 0.930 1_556 S
C506 C505 1.362 . S
C506 C509 1.409 1_556 S
C507 H499 0.930 . S
C507 C508 1.355 . S
C507 C509 1.415 . S
C508 C507 1.355 . S
C508 C510 1.419 . S
C509 C504 1.425 1_554 S
C509 C506 1.409 1_554 S
C509 C507 1.415 . S
C510 H500 0.930 . S
C510 C508 1.419 . S
C510 C511 1.362 . S
C511 H501 0.930 1_554 S
C511 C504 1.409 1_554 S
C511 C510 1.362 . S
H512 C518 0.930 . S
H513 C521 0.930 . S
H514 C522 0.930 . S
H515 C523 0.930 . S
H516 C526 0.930 . S
H517 C527 0.930 . S
C518 H512 0.930 . S
C518 C519 1.355 . S
C518 C520 1.415 . S
C519 C518 1.355 . S
C519 C521 1.419 1_565 S
C520 C518 1.415 . S
C520 C525 1.425 1_565 S
C520 C527 1.409 . S
C521 H513 0.930 . S
C521 C519 1.419 1_545 S
C521 C522 1.362 . S
C522 H514 0.930 . S
C522 C521 1.362 . S
C522 C525 1.409 . S
C523 H515 0.930 . S
C523 C524 1.355 . S
C523 C525 1.415 . S
C524 C523 1.355 . S
C524 C526 1.419 1_545 S
C525 C520 1.425 1_545 S
C525 C522 1.409 . S
C525 C523 1.415 . S
C526 H516 0.930 . S
C526 C524 1.419 1_565 S
C526 C527 1.362 . S
C527 H517 0.930 . S
C527 C520 1.409 . S
C527 C526 1.362 . S
H528 C534 0.930 . S
H529 C537 0.930 . S
H530 C538 0.930 . S
H531 C539 0.930 . S
H532 C542 0.930 . S
H533 C543 0.930 . S
C534 H528 0.930 . S
C534 C535 1.355 . S
C534 C536 1.415 . S
C535 C534 1.355 . S
C535 C537 1.419 . S
C536 C534 1.415 . S
C536 C541 1.425 . S
C536 C543 1.409 . S
C537 H529 0.930 . S
C537 C535 1.419 . S
C537 C538 1.362 . S
C538 H530 0.930 . S
C538 C537 1.362 . S
C538 C541 1.409 . S
C539 H531 0.930 . S
C539 C540 1.355 . S
C539 C541 1.415 . S
C540 C539 1.355 . S
C540 C542 1.419 . S
C541 C536 1.425 . S
C541 C538 1.409 . S
C541 C539 1.415 . S
C542 H532 0.930 . S
C542 C540 1.419 . S
C542 C543 1.362 . S
C543 H533 0.930 . S
C543 C536 1.409 . S
C543 C542 1.362 . S
H544 C550 0.930 . S
H545 C553 0.930 . S
H546 C554 0.930 . S
H547 C555 0.930 . S
H548 C558 0.930 . S
H549 C559 0.930 . S
C550 H544 0.930 . S
C550 C551 1.355 . S
C550 C552 1.415 . S
C551 C550 1.355 . S
C551 C553 1.419 . S
C552 C550 1.415 . S
C552 C557 1.425 1_545 S
C552 C559 1.409 . S
C553 H545 0.930 . S
C553 C551 1.419 . S
C553 C554 1.362 1_545 S
C554 H546 0.930 . S
C554 C553 1.362 1_565 S
C554 C557 1.409 . S
C555 H547 0.930 . S
C555 C556 1.355 . S
C555 C557 1.415 . S
C556 C555 1.355 . S
C556 C558 1.419 . S
C557 C552 1.425 1_565 S
C557 C554 1.409 . S
C557 C555 1.415 . S
C558 H548 0.930 . S
C558 C556 1.419 . S
C558 C559 1.362 1_565 S
C559 H549 0.930 . S
C559 C552 1.409 . S
C559 C558 1.362 1_545 S
H560 C566 0.930 . S
H561 C569 0.930 . S
H562 C570 0.930 . S
H563 C571 0.930 . S
H564 C574 0.930 . S
H565 C575 0.930 . S
C566 H560 0.930 . S
C566 C567 1.355 . S
C566 C568 1.415 . S
C567 C566 1.355 . S
C567 C569 1.419 . S
C568 C566 1.415 . S
C568 C573 1.425 1_556 S
C568 C575 1.409 1_556 S
C569 H561 0.930 . S
C569 C567 1.419 . S
C569 C570 1.362 . S
C570 H562 0.930 . S
C570 C569 1.362 . S
C570 C573 1.409 1_556 S
C571 H563 0.930 . S
C571 C572 1.355 . S
C571 C573 1.415 . S
C572 C571 1.355 . S
C572 C574 1.419 . S
C573 C568 1.425 1_554 S
C573 C570 1.409 1_554 S
C573 C571 1.415 . S
C574 H564 0.930 . S
C574 C572 1.419 . S
C574 C575 1.362 . S
C575 H565 0.930 . S
C575 C568 1.409 1_554 S
C575 C574 1.362 . S
H576 C582 0.930 . S
H577 C585 0.930 . S
H578 C586 0.930 . S
H579 C587 0.930 . S
H580 C590 0.930 . S
H581 C591 0.930 . S
C582 H576 0.930 . S
C582 C583 1.355 . S
C582 C584 1.415 . S
C583 C582 1.355 . S
C583 C585 1.419 . S
C584 C582 1.415 . S
C584 C589 1.425 . S
C584 C591 1.409 . S
C585 H577 0.930 . S
C585 C583 1.419 . S
C585 C586 1.362 . S
C586 H578 0.930 . S
C586 C585 1.362 . S
C586 C589 1.409 . S
C587 H579 0.930 . S
C587 C588 1.355 . S
C587 C589 1.415 . S
C588 C587 1.355 . S
C588 C590 1.419 . S
C589 C584 1.425 . S
C589 C586 1.409 . S
C589 C587 1.415 . S
C590 H580 0.930 . S
C590 C588 1.419 . S
C590 C591 1.362 . S
C591 H581 0.930 . S
C591 C584 1.409 . S
C591 C590 1.362 . S
H592 C598 0.930 . S
H593 C601 0.930 . S
H594 C602 0.930 1_556 S
H595 C603 0.930 . S
H596 C606 0.930 . S
H597 C607 0.930 1_554 S
C598 H592 0.930 . S
C598 C599 1.355 . S
C598 C600 1.415 . S
C599 C598 1.355 . S
C599 C601 1.419 . S
C600 C598 1.415 . S
C600 C605 1.425 1_554 S
C600 C607 1.409 1_554 S
C601 H593 0.930 . S
C601 C599 1.419 . S
C601 C602 1.362 . S
C602 H594 0.930 1_554 S
C602 C601 1.362 . S
C602 C605 1.409 1_554 S
C603 H595 0.930 . S
C603 C604 1.355 . S
C603 C605 1.415 . S
C604 C603 1.355 . S
C604 C606 1.419 . S
C605 C600 1.425 1_556 S
C605 C602 1.409 1_556 S
C605 C603 1.415 . S
C606 H596 0.930 . S
C606 C604 1.419 . S
C606 C607 1.362 . S
C607 H597 0.930 1_556 S
C607 C600 1.409 1_556 S
C607 C606 1.362 . S
H608 C614 0.930 . S
H609 C617 0.930 . S
H610 C618 0.930 . S
H611 C619 0.930 . S
H612 C622 0.930 . S
H613 C623 0.930 . S
C614 H608 0.930 . S
C614 C615 1.355 . S
C614 C616 1.415 . S
C615 C614 1.355 . S
C615 C617 1.419 . S
C616 C614 1.415 . S
C616 C621 1.425 . S
C616 C623 1.409 . S
C617 H609 0.930 . S
C617 C615 1.419 . S
C617 C618 1.362 . S
C618 H610 0.930 . S
C618 C617 1.362 . S
C618 C621 1.409 . S
C619 H611 0.930 . S
C619 C620 1.355 . S
C619 C621 1.415 . S
C620 C619 1.355 . S
C620 C622 1.419 . S
C621 C616 1.425 . S
C621 C618 1.409 . S
C621 C619 1.415 . S
C622 H612 0.930 . S
C622 C620 1.419 . S
C622 C623 1.362 . S
C623 H613 0.930 . S
C623 C616 1.409 . S
C623 C622 1.362 . S
H624 C630 0.930 . S
H625 C633 0.930 . S
H626 C634 0.930 . S
H627 C635 0.930 . S
H628 C638 0.930 . S
H629 C639 0.930 . S
C630 H624 0.930 . S
C630 C631 1.355 . S
C630 C632 1.415 . S
C631 C630 1.355 . S
C631 C633 1.419 . S
C632 C630 1.415 . S
C632 C637 1.425 . S
C632 C639 1.409 . S
C633 H625 0.930 . S
C633 C631 1.419 . S
C633 C634 1.362 . S
C634 H626 0.930 . S
C634 C633 1.362 . S
C634 C637 1.409 . S
C635 H627 0.930 . S
C635 C636 1.355 . S
C635 C637 1.415 . S
C636 C635 1.355 . S
C636 C638 1.419 . S
C637 C632 1.425 . S
C637 C634 1.409 . S
C637 C635 1.415 . S
C638 H628 0.930 . S
C638 C636 1.419 . S
C638 C639 1.362 . S
C639 H629 0.930 . S
C639 C632 1.409 . S
C639 C638 1.362 . S
H640 C646 0.930 . S
H641 C649 0.930 . S
H642 C650 0.930 . S
H643 C651 0.930 . S
H644 C654 0.930 . S
H645 C655 0.930 . S
C646 H640 0.930 . S
C646 C647 1.355 . S
C646 C648 1.415 . S
C647 C646 1.355 . S
C647 C649 1.419 . S
C648 C646 1.415 . S
C648 C653 1.425 . S
C648 C655 1.409 . S
C649 H641 0.930 . S
C649 C647 1.419 . S
C649 C650 1.362 . S
C650 H642 0.930 . S
C650 C649 1.362 . S
C650 C653 1.409 . S
C651 H643 0.930 . S
C651 C652 1.355 . S
C651 C653 1.415 . S
C652 C651 1.355 . S
C652 C654 1.419 . S
C653 C648 1.425 . S
C653 C650 1.409 . S
C653 C651 1.415 . S
C654 H644 0.930 . S
C654 C652 1.419 . S
C654 C655 1.362 . S
C655 H645 0.930 . S
C655 C648 1.409 . S
C655 C654 1.362 . S
H656 C662 0.930 . S
H657 C665 0.930 . S
H658 C666 0.930 1_556 S
H659 C667 0.930 . S
H660 C670 0.930 . S
H661 C671 0.930 1_554 S
C662 H656 0.930 . S
C662 C663 1.355 . S
C662 C664 1.415 . S
C663 C662 1.355 . S
C663 C665 1.419 . S
C664 C662 1.415 . S
C664 C669 1.425 1_554 S
C664 C671 1.409 1_554 S
C665 H657 0.930 . S
C665 C663 1.419 . S
C665 C666 1.362 . S
C666 H658 0.930 1_554 S
C666 C665 1.362 . S
C666 C669 1.409 1_554 S
C667 H659 0.930 . S
C667 C668 1.355 . S
C667 C669 1.415 . S
C668 C667 1.355 . S
C668 C670 1.419 . S
C669 C664 1.425 1_556 S
C669 C666 1.409 1_556 S
C669 C667 1.415 . S
C670 H660 0.930 . S
C670 C668 1.419 . S
C670 C671 1.362 . S
C671 H661 0.930 1_556 S
C671 C664 1.409 1_556 S
C671 C670 1.362 . S
H672 C678 0.930 . S
H673 C681 0.930 . S
H674 C682 0.930 . S
H675 C683 0.930 . S
H676 C686 0.930 . S
H677 C687 0.930 . S
C678 H672 0.930 . S
C678 C679 1.355 . S
C678 C680 1.415 . S
C679 C678 1.355 . S
C679 C681 1.419 . S
C680 C678 1.415 . S
C680 C685 1.425 . S
C680 C687 1.409 . S
C681 H673 0.930 . S
C681 C679 1.419 . S
C681 C682 1.362 . S
C682 H674 0.930 . S
C682 C681 1.362 . S
C682 C685 1.409 . S
C683 H675 0.930 . S
C683 C684 1.355 . S
C683 C685 1.415 . S
C684 C683 1.355 . S
C684 C686 1.419 . S
C685 C680 1.425 . S
C685 C682 1.409 . S
C685 C683 1.415 . S
C686 H676 0.930 . S
C686 C684 1.419 . S
C686 C687 1.362 . S
C687 H677 0.930 . S
C687 C680 1.409 . S
C687 C686 1.362 . S
H688 C694 0.930 . S
H689 C697 0.930 . S
H690 C698 0.930 . S
H691 C699 0.930 . S
H692 C702 0.930 . S
H693 C703 0.930 . S
C694 H688 0.930 . S
C694 C695 1.355 . S
C694 C696 1.415 . S
C695 C694 1.355 . S
C695 C697 1.419 . S
C696 C694 1.415 . S
C696 C701 1.425 . S
C696 C703 1.409 . S
C697 H689 0.930 . S
C697 C695 1.419 . S
C697 C698 1.362 . S
C698 H690 0.930 . S
C698 C697 1.362 . S
C698 C701 1.409 . S
C699 H691 0.930 . S
C699 C700 1.355 . S
C699 C701 1.415 . S
C700 C699 1.355 . S
C700 C702 1.419 . S
C701 C696 1.425 . S
C701 C698 1.409 . S
C701 C699 1.415 . S
C702 H692 0.930 . S
C702 C700 1.419 . S
C702 C703 1.362 . S
C703 H693 0.930 . S
C703 C696 1.409 . S
C703 C702 1.362 . S
H704 C710 0.930 1_545 S
H705 C713 0.930 . S
H706 C714 0.930 . S
H707 C715 0.930 . S
H708 C718 0.930 . S
H709 C719 0.930 . S
C710 H704 0.930 1_565 S
C710 C711 1.355 . S
C710 C712 1.415 . S
C711 C710 1.355 . S
C711 C713 1.419 . S
C712 C710 1.415 . S
C712 C717 1.425 . S
C712 C719 1.409 . S
C713 H705 0.930 . S
C713 C711 1.419 . S
C713 C714 1.362 . S
C714 H706 0.930 . S
C714 C713 1.362 . S
C714 C717 1.409 . S
C715 H707 0.930 . S
C715 C716 1.355 . S
C715 C717 1.415 . S
C716 C715 1.355 . S
C716 C718 1.419 . S
C717 C712 1.425 . S
C717 C714 1.409 . S
C717 C715 1.415 . S
C718 H708 0.930 . S
C718 C716 1.419 . S
C718 C719 1.362 . S
C719 H709 0.930 . S
C719 C712 1.409 . S
C719 C718 1.362 . S
H720 C726 0.930 . S
H721 C729 0.930 . S
H722 C730 0.930 . S
H723 C731 0.925 1_565 S
H724 C734 0.930 . S
H725 C735 0.930 . S
C726 H720 0.930 . S
C726 C727 1.355 . S
C726 C728 1.415 . S
C727 C726 1.355 . S
C727 C729 1.419 . S
C728 C726 1.415 . S
C728 C733 1.425 . S
C728 C735 1.409 . S
C729 H721 0.930 . S
C729 C727 1.419 . S
C729 C730 1.362 . S
C730 H722 0.930 . S
C730 C729 1.362 . S
C730 C733 1.409 . S
C731 H723 0.925 1_545 S
C731 C732 1.355 . S
C731 C733 1.415 . S
C732 C731 1.355 . S
C732 C734 1.419 . S
C733 C728 1.425 . S
C733 C730 1.409 . S
C733 C731 1.415 . S
C734 H724 0.930 . S
C734 C732 1.419 . S
C734 C735 1.362 . S
C735 H725 0.930 . S
C735 C728 1.409 . S
C735 C734 1.362 . S
H736 C742 0.930 . S
H737 C745 0.930 . S
H738 C746 0.930 . S
H739 C747 0.930 . S
H740 C750 0.930 . S
H741 C751 0.930 . S
C742 H736 0.930 . S
C742 C743 1.355 . S
C742 C744 1.415 . S
C743 C742 1.355 . S
C743 C745 1.419 1_545 S
C744 C742 1.415 . S
C744 C749 1.425 . S
C744 C751 1.409 . S
C745 H737 0.930 . S
C745 C743 1.419 1_565 S
C745 C746 1.362 1_565 S
C746 H738 0.930 . S
C746 C745 1.362 1_545 S
C746 C749 1.409 . S
C747 H739 0.930 . S
C747 C748 1.355 . S
C747 C749 1.415 . S
C748 C747 1.355 . S
C748 C750 1.419 . S
C749 C744 1.425 . S
C749 C746 1.409 . S
C749 C747 1.415 . S
C750 H740 0.930 . S
C750 C748 1.419 . S
C750 C751 1.362 . S
C751 H741 0.930 . S
C751 C744 1.409 . S
C751 C750 1.362 . S
H752 C758 0.930 . S
H753 C761 0.930 . S
H754 C762 0.930 1_545 S
H755 C763 0.930 . S
H756 C766 0.930 . S
H757 C767 0.930 . S
C758 H752 0.930 . S
C758 C759 1.355 . S
C758 C760 1.415 . S
C759 C758 1.355 . S
C759 C761 1.419 1_565 S
C760 C758 1.415 . S
C760 C765 1.425 . S
C760 C767 1.409 . S
C761 H753 0.930 . S
C761 C759 1.419 1_545 S
C761 C762 1.362 1_545 S
C762 H754 0.930 1_565 S
C762 C761 1.362 1_565 S
C762 C765 1.409 . S
C763 H755 0.930 . S
C763 C764 1.355 . S
C763 C765 1.415 . S
C764 C763 1.355 . S
C764 C766 1.419 . S
C765 C760 1.425 . S
C765 C762 1.409 . S
C765 C763 1.415 . S
C766 H756 0.930 . S
C766 C764 1.419 . S
C766 C767 1.362 . S
C767 H757 0.930 . S
C767 C760 1.409 . S
C767 C766 1.362 . S
H768 C774 0.930 . S
H769 C777 0.930 . S
H770 C778 0.930 . S
H771 C779 0.930 . S
H772 C782 0.930 . S
H773 C783 0.930 1_565 S
C774 H768 0.930 . S
C774 C775 1.355 . S
C774 C776 1.415 . S
C775 C774 1.355 . S
C775 C777 1.419 . S
C776 C774 1.415 . S
C776 C781 1.425 . S
C776 C783 1.409 . S
C777 H769 0.930 . S
C777 C775 1.419 . S
C777 C778 1.362 . S
C778 H770 0.930 . S
C778 C777 1.362 . S
C778 C781 1.409 . S
C779 H771 0.930 . S
C779 C780 1.355 . S
C779 C781 1.415 . S
C780 C779 1.355 . S
C780 C782 1.419 1_545 S
C781 C776 1.425 . S
C781 C778 1.409 . S
C781 C779 1.415 . S
C782 H772 0.930 . S
C782 C780 1.419 1_565 S
C782 C783 1.362 1_565 S
C783 H773 0.930 1_545 S
C783 C776 1.409 . S
C783 C782 1.362 1_545 S
H784 C790 0.930 . S
H785 C793 0.930 . S
H786 C794 0.929 . S
H787 C795 0.930 . S
H788 C798 0.930 . S
H789 C799 0.930 . S
C790 H784 0.930 . S
C790 C791 1.355 . S
C790 C792 1.415 . S
C791 C790 1.355 . S
C791 C793 1.419 1_565 S
C792 C790 1.415 . S
C792 C797 1.425 . S
C792 C799 1.409 . S
C793 H785 0.930 . S
C793 C791 1.419 1_545 S
C793 C794 1.362 1_545 S
C794 H786 0.929 . S
C794 C793 1.362 1_565 S
C794 C797 1.409 . S
C795 H787 0.930 . S
C795 C796 1.355 . S
C795 C797 1.415 . S
C796 C795 1.355 . S
C796 C798 1.419 . S
C797 C792 1.425 . S
C797 C794 1.409 . S
C797 C795 1.415 . S
C798 H788 0.930 . S
C798 C796 1.419 . S
C798 C799 1.362 . S
C799 H789 0.930 . S
C799 C792 1.409 . S
C799 C798 1.362 . S
H800 C806 0.930 . S
H801 C809 0.930 . S
H802 C810 0.930 . S
H803 C811 0.930 . S
H804 C814 0.930 . S
H805 C815 0.930 . S
C806 H800 0.930 . S
C806 C807 1.355 . S
C806 C808 1.415 . S
C807 C806 1.355 . S
C807 C809 1.419 . S
C808 C806 1.415 . S
C808 C813 1.425 . S
C808 C815 1.409 . S
C809 H801 0.930 . S
C809 C807 1.419 . S
C809 C810 1.362 . S
C810 H802 0.930 . S
C810 C809 1.362 . S
C810 C813 1.409 . S
C811 H803 0.930 . S
C811 C812 1.355 . S
C811 C813 1.415 . S
C812 C811 1.355 . S
C812 C814 1.419 . S
C813 C808 1.425 . S
C813 C810 1.409 . S
C813 C811 1.415 . S
C814 H804 0.930 . S
C814 C812 1.419 . S
C814 C815 1.362 . S
C815 H805 0.930 . S
C815 C808 1.409 . S
C815 C814 1.362 . S
H816 C822 0.930 . S
H817 C825 0.930 . S
H818 C826 0.930 . S
H819 C827 0.930 1_565 S
H820 C830 0.930 . S
H821 C831 0.930 . S
C822 H816 0.930 . S
C822 C823 1.355 . S
C822 C824 1.415 . S
C823 C822 1.355 . S
C823 C825 1.419 . S
C824 C822 1.415 . S
C824 C829 1.425 . S
C824 C831 1.409 . S
C825 H817 0.930 . S
C825 C823 1.419 . S
C825 C826 1.362 . S
C826 H818 0.930 . S
C826 C825 1.362 . S
C826 C829 1.409 . S
C827 H819 0.930 1_545 S
C827 C828 1.355 . S
C827 C829 1.415 . S
C828 C827 1.355 . S
C828 C830 1.419 . S
C829 C824 1.425 . S
C829 C826 1.409 . S
C829 C827 1.415 . S
C830 H820 0.930 . S
C830 C828 1.419 . S
C830 C831 1.362 . S
C831 H821 0.930 . S
C831 C824 1.409 . S
C831 C830 1.362 . S
H832 C838 0.930 . S
H833 C841 0.930 . S
H834 C842 0.930 . S
H835 C843 0.930 . S
H836 C846 0.930 . S
H837 C847 0.930 . S
C838 H832 0.930 . S
C838 C839 1.355 . S
C838 C840 1.415 . S
C839 C838 1.355 . S
C839 C841 1.419 . S
C840 C838 1.415 . S
C840 C845 1.425 . S
C840 C847 1.409 . S
C841 H833 0.930 . S
C841 C839 1.419 . S
C841 C842 1.362 . S
C842 H834 0.930 . S
C842 C841 1.362 . S
C842 C845 1.409 . S
C843 H835 0.930 . S
C843 C844 1.355 . S
C843 C845 1.415 . S
C844 C843 1.355 . S
C844 C846 1.419 . S
C845 C840 1.425 . S
C845 C842 1.409 . S
C845 C843 1.415 . S
C846 H836 0.930 . S
C846 C844 1.419 . S
C846 C847 1.362 . S
C847 H837 0.930 . S
C847 C840 1.409 . S
C847 C846 1.362 . S
H848 C854 0.930 . S
H849 C857 0.930 . S
H850 C858 0.930 . S
H851 C859 0.930 . S
H852 C862 0.930 . S
H853 C863 0.930 . S
C854 H848 0.930 . S
C854 C855 1.355 . S
C854 C856 1.415 . S
C855 C854 1.355 . S
C855 C857 1.419 . S
C856 C854 1.415 . S
C856 C861 1.425 . S
C856 C863 1.409 . S
C857 H849 0.930 . S
C857 C855 1.419 . S
C857 C858 1.362 . S
C858 H850 0.930 . S
C858 C857 1.362 . S
C858 C861 1.409 . S
C859 H851 0.930 . S
C859 C860 1.355 . S
C859 C861 1.415 . S
C860 C859 1.355 . S
C860 C862 1.419 . S
C861 C856 1.425 . S
C861 C858 1.409 . S
C861 C859 1.415 . S
C862 H852 0.930 . S
C862 C860 1.419 . S
C862 C863 1.362 . S
C863 H853 0.930 . S
C863 C856 1.409 . S
C863 C862 1.362 . S
H864 C870 0.930 . S
H865 C873 0.930 . S
H866 C874 0.930 . S
H867 C875 0.930 . S
H868 C878 0.930 . S
H869 C879 0.930 . S
C870 H864 0.930 . S
C870 C871 1.355 . S
C870 C872 1.415 . S
C871 C870 1.355 . S
C871 C873 1.419 . S
C872 C870 1.415 . S
C872 C877 1.425 . S
C872 C879 1.409 . S
C873 H865 0.930 . S
C873 C871 1.419 . S
C873 C874 1.362 . S
C874 H866 0.930 . S
C874 C873 1.362 . S
C874 C877 1.409 . S
C875 H867 0.930 . S
C875 C876 1.355 . S
C875 C877 1.415 . S
C876 C875 1.355 . S
C876 C878 1.419 . S
C877 C872 1.425 . S
C877 C874 1.409 . S
C877 C875 1.415 . S
C878 H868 0.930 . S
C878 C876 1.419 . S
C878 C879 1.362 . S
C879 H869 0.930 . S
C879 C872 1.409 . S
C879 C878 1.362 . S
H880 C886 0.930 . S
H881 C889 0.930 . S
H882 C890 0.930 . S
H883 C891 0.930 . S
H884 C894 0.930 . S
H885 C895 0.930 . S
C886 H880 0.930 . S
C886 C887 1.355 . S
C886 C888 1.415 . S
C887 C886 1.355 . S
C887 C889 1.419 . S
C888 C886 1.415 . S
C888 C893 1.425 . S
C888 C895 1.409 . S
C889 H881 0.930 . S
C889 C887 1.419 . S
C889 C890 1.362 . S
C890 H882 0.930 . S
C890 C889 1.362 . S
C890 C893 1.409 . S
C891 H883 0.930 . S
C891 C892 1.355 . S
C891 C893 1.415 . S
C892 C891 1.355 . S
C892 C894 1.419 . S
C893 C888 1.425 . S
C893 C890 1.409 . S
C893 C891 1.415 . S
C894 H884 0.930 . S
C894 C892 1.419 . S
C894 C895 1.362 . S
C895 H885 0.930 . S
C895 C888 1.409 . S
C895 C894 1.362 . S
H896 C902 0.930 . S
H897 C905 0.930 . S
H898 C906 0.930 . S
H899 C907 0.930 . S
H900 C910 0.930 . S
H901 C911 0.930 . S
C902 H896 0.930 . S
C902 C903 1.355 . S
C902 C904 1.415 . S
C903 C902 1.355 . S
C903 C905 1.419 . S
C904 C902 1.415 . S
C904 C909 1.425 . S
C904 C911 1.409 . S
C905 H897 0.930 . S
C905 C903 1.419 . S
C905 C906 1.362 . S
C906 H898 0.930 . S
C906 C905 1.362 . S
C906 C909 1.409 . S
C907 H899 0.930 . S
C907 C908 1.355 . S
C907 C909 1.415 . S
C908 C907 1.355 . S
C908 C910 1.419 . S
C909 C904 1.425 . S
C909 C906 1.409 . S
C909 C907 1.415 . S
C910 H900 0.930 . S
C910 C908 1.419 . S
C910 C911 1.362 . S
C911 H901 0.930 . S
C911 C904 1.409 . S
C911 C910 1.362 . S
H912 C918 0.930 . S
H913 C921 0.930 . S
H914 C922 0.930 . S
H915 C923 0.930 . S
H916 C926 0.930 . S
H917 C927 0.930 . S
C918 H912 0.930 . S
C918 C919 1.355 . S
C918 C920 1.415 . S
C919 C918 1.355 . S
C919 C921 1.419 . S
C920 C918 1.415 . S
C920 C925 1.425 . S
C920 C927 1.409 . S
C921 H913 0.930 . S
C921 C919 1.419 . S
C921 C922 1.362 . S
C922 H914 0.930 . S
C922 C921 1.362 . S
C922 C925 1.409 . S
C923 H915 0.930 . S
C923 C924 1.355 . S
C923 C925 1.415 . S
C924 C923 1.355 . S
C924 C926 1.419 . S
C925 C920 1.425 . S
C925 C922 1.409 . S
C925 C923 1.415 . S
C926 H916 0.930 . S
C926 C924 1.419 . S
C926 C927 1.362 . S
C927 H917 0.930 . S
C927 C920 1.409 . S
C927 C926 1.362 . S
H928 C934 0.930 . S
H929 C937 0.930 . S
H930 C938 0.930 . S
H931 C939 0.930 . S
H932 C942 0.930 . S
H933 C943 0.930 . S
C934 H928 0.930 . S
C934 C935 1.355 . S
C934 C936 1.415 . S
C935 C934 1.355 . S
C935 C937 1.419 . S
C936 C934 1.415 . S
C936 C941 1.425 . S
C936 C943 1.409 . S
C937 H929 0.930 . S
C937 C935 1.419 . S
C937 C938 1.362 . S
C938 H930 0.930 . S
C938 C937 1.362 . S
C938 C941 1.409 . S
C939 H931 0.930 . S
C939 C940 1.355 . S
C939 C941 1.415 . S
C940 C939 1.355 . S
C940 C942 1.419 . S
C941 C936 1.425 . S
C941 C938 1.409 . S
C941 C939 1.415 . S
C942 H932 0.930 . S
C942 C940 1.419 . S
C942 C943 1.362 . S
C943 H933 0.930 . S
C943 C936 1.409 . S
C943 C942 1.362 . S
H944 C950 0.930 . S
H945 C953 0.930 . S
H946 C954 0.930 . S
H947 C955 0.930 . S
H948 C958 0.930 . S
H949 C959 0.930 . S
C950 H944 0.930 . S
C950 C951 1.355 . S
C950 C952 1.415 . S
C951 C950 1.355 . S
C951 C953 1.419 . S
C952 C950 1.415 . S
C952 C957 1.425 . S
C952 C959 1.409 . S
C953 H945 0.930 . S
C953 C951 1.419 . S
C953 C954 1.362 . S
C954 H946 0.930 . S
C954 C953 1.362 . S
C954 C957 1.409 . S
C955 H947 0.930 . S
C955 C956 1.355 . S
C955 C957 1.415 . S
C956 C955 1.355 . S
C956 C958 1.419 . S
C957 C952 1.425 . S
C957 C954 1.409 . S
C957 C955 1.415 . S
C958 H948 0.930 . S
C958 C956 1.419 . S
C958 C959 1.362 . S
C959 H949 0.930 . S
C959 C952 1.409 . S
C959 C958 1.362 . S
H960 C966 0.930 . S
H961 C969 0.930 . S
H962 C970 0.930 . S
H963 C971 0.930 . S
H964 C974 0.930 . S
H965 C975 0.930 . S
C966 H960 0.930 . S
C966 C967 1.355 . S
C966 C968 1.415 . S
C967 C966 1.355 . S
C967 C969 1.419 . S
C968 C966 1.415 . S
C968 C973 1.425 . S
C968 C975 1.409 . S
C969 H961 0.930 . S
C969 C967 1.419 . S
C969 C970 1.362 . S
C970 H962 0.930 . S
C970 C969 1.362 . S
C970 C973 1.409 . S
C971 H963 0.930 . S
C971 C972 1.355 . S
C971 C973 1.415 . S
C972 C971 1.355 . S
C972 C974 1.419 . S
C973 C968 1.425 . S
C973 C970 1.409 . S
C973 C971 1.415 . S
C974 H964 0.930 . S
C974 C972 1.419 . S
C974 C975 1.362 . S
C975 H965 0.930 . S
C975 C968 1.409 . S
C975 C974 1.362 . S
H976 C982 0.930 . S
H977 C985 0.930 . S
H978 C986 0.930 . S
H979 C987 0.930 . S
H980 C990 0.930 1_655 S
H981 C991 0.930 . S
C982 H976 0.930 . S
C982 C983 1.355 . S
C982 C984 1.415 . S
C983 C982 1.355 . S
C983 C985 1.419 . S
C984 C982 1.415 . S
C984 C989 1.425 . S
C984 C991 1.409 . S
C985 H977 0.930 . S
C985 C983 1.419 . S
C985 C986 1.362 . S
C986 H978 0.930 . S
C986 C985 1.362 . S
C986 C989 1.409 . S
C987 H979 0.930 . S
C987 C988 1.355 1_455 S
C987 C989 1.415 . S
C988 C987 1.355 1_655 S
C988 C990 1.419 1_655 S
C989 C984 1.425 . S
C989 C986 1.409 . S
C989 C987 1.415 . S
C990 H980 0.930 1_455 S
C990 C988 1.419 1_455 S
C990 C991 1.362 . S
C991 H981 0.930 . S
C991 C984 1.409 . S
C991 C990 1.362 . S
H992 C998 0.930 . S
H993 C1001 0.930 . S
H994 C1002 0.930 . S
H995 C1003 0.930 . S
H996 C1006 0.930 . S
H997 C1007 0.930 . S
C998 H992 0.930 . S
C998 C999 1.355 . S
C998 C1000 1.415 . S
C999 C998 1.355 . S
C999 C1001 1.419 . S
C1000 C998 1.415 . S
C1000 C1005 1.425 . S
C1000 C1007 1.409 . S
C1001 H993 0.930 . S
C1001 C999 1.419 . S
C1001 C1002 1.362 . S
C1002 H994 0.930 . S
C1002 C1001 1.362 . S
C1002 C1005 1.409 . S
C1003 H995 0.930 . S
C1003 C1004 1.355 . S
C1003 C1005 1.415 . S
C1004 C1003 1.355 . S
C1004 C1006 1.419 . S
C1005 C1000 1.425 . S
C1005 C1002 1.409 . S
C1005 C1003 1.415 . S
C1006 H996 0.930 . S
C1006 C1004 1.419 . S
C1006 C1007 1.362 . S
C1007 H997 0.930 . S
C1007 C1000 1.409 . S
C1007 C1006 1.362 . S
H1008 C1014 0.930 . S
H1009 C1017 0.930 . S
H1010 C1018 0.930 . S
H1011 C1019 0.930 . S
H1012 C1022 0.930 . S
H1013 C1023 0.930 . S
C1014 H1008 0.930 . S
C1014 C1015 1.355 . S
C1014 C1016 1.415 . S
C1015 C1014 1.355 . S
C1015 C1017 1.419 . S
C1016 C1014 1.415 . S
C1016 C1021 1.425 . S
C1016 C1023 1.409 . S
C1017 H1009 0.930 . S
C1017 C1015 1.419 . S
C1017 C1018 1.362 . S
C1018 H1010 0.930 . S
C1018 C1017 1.362 . S
C1018 C1021 1.409 . S
C1019 H1011 0.930 . S
C1019 C1020 1.355 . S
C1019 C1021 1.415 . S
C1020 C1019 1.355 . S
C1020 C1022 1.419 . S
C1021 C1016 1.425 . S
C1021 C1018 1.409 . S
C1021 C1019 1.415 . S
C1022 H1012 0.930 . S
C1022 C1020 1.419 . S
C1022 C1023 1.362 . S
C1023 H1013 0.930 . S
C1023 C1016 1.409 . S
C1023 C1022 1.362 . S
H1024 C1030 0.930 . S
H1025 C1033 0.930 . S
H1026 C1034 0.930 . S
H1027 C1035 0.930 . S
H1028 C1038 0.930 . S
H1029 C1039 0.930 . S
C1030 H1024 0.930 . S
C1030 C1031 1.355 . S
C1030 C1032 1.415 . S
C1031 C1030 1.355 . S
C1031 C1033 1.419 . S
C1032 C1030 1.415 . S
C1032 C1037 1.425 . S
C1032 C1039 1.409 . S
C1033 H1025 0.930 . S
C1033 C1031 1.419 . S
C1033 C1034 1.362 . S
C1034 H1026 0.930 . S
C1034 C1033 1.362 . S
C1034 C1037 1.409 . S
C1035 H1027 0.930 . S
C1035 C1036 1.355 . S
C1035 C1037 1.415 . S
C1036 C1035 1.355 . S
C1036 C1038 1.419 . S
C1037 C1032 1.425 . S
C1037 C1034 1.409 . S
C1037 C1035 1.415 . S
C1038 H1028 0.930 . S
C1038 C1036 1.419 . S
C1038 C1039 1.362 . S
C1039 H1029 0.930 . S
C1039 C1032 1.409 . S
C1039 C1038 1.362 . S
H1040 C1046 0.930 . S
H1041 C1049 0.930 . S
H1042 C1050 0.930 . S
H1043 C1051 0.930 . S
H1044 C1054 0.930 . S
H1045 C1055 0.930 . S
C1046 H1040 0.930 . S
C1046 C1047 1.355 . S
C1046 C1048 1.415 . S
C1047 C1046 1.355 . S
C1047 C1049 1.419 . S
C1048 C1046 1.415 . S
C1048 C1053 1.425 . S
C1048 C1055 1.409 . S
C1049 H1041 0.930 . S
C1049 C1047 1.419 . S
C1049 C1050 1.362 . S
C1050 H1042 0.930 . S
C1050 C1049 1.362 . S
C1050 C1053 1.409 . S
C1051 H1043 0.930 . S
C1051 C1052 1.355 . S
C1051 C1053 1.415 . S
C1052 C1051 1.355 . S
C1052 C1054 1.419 . S
C1053 C1048 1.425 . S
C1053 C1050 1.409 . S
C1053 C1051 1.415 . S
C1054 H1044 0.930 . S
C1054 C1052 1.419 . S
C1054 C1055 1.362 . S
C1055 H1045 0.930 . S
C1055 C1048 1.409 . S
C1055 C1054 1.362 . S
H1056 C1062 0.930 . S
H1057 C1065 0.930 . S
H1058 C1066 0.930 . S
H1059 C1067 0.930 . S
H1060 C1070 0.930 . S
H1061 C1071 0.930 . S
C1062 H1056 0.930 . S
C1062 C1063 1.355 . S
C1062 C1064 1.415 . S
C1063 C1062 1.355 . S
C1063 C1065 1.419 . S
C1064 C1062 1.415 . S
C1064 C1069 1.425 . S
C1064 C1071 1.409 . S
C1065 H1057 0.930 . S
C1065 C1063 1.419 . S
C1065 C1066 1.362 . S
C1066 H1058 0.930 . S
C1066 C1065 1.362 . S
C1066 C1069 1.409 . S
C1067 H1059 0.930 . S
C1067 C1068 1.355 . S
C1067 C1069 1.415 . S
C1068 C1067 1.355 . S
C1068 C1070 1.419 . S
C1069 C1064 1.425 . S
C1069 C1066 1.409 . S
C1069 C1067 1.415 . S
C1070 H1060 0.930 . S
C1070 C1068 1.419 . S
C1070 C1071 1.362 . S
C1071 H1061 0.930 . S
C1071 C1064 1.409 . S
C1071 C1070 1.362 . S
H1072 C1078 0.930 . S
H1073 C1081 0.930 . S
H1074 C1082 0.930 . S
H1075 C1083 0.930 . S
H1076 C1086 0.930 . S
H1077 C1087 0.930 . S
C1078 H1072 0.930 . S
C1078 C1079 1.355 . S
C1078 C1080 1.415 . S
C1079 C1078 1.355 . S
C1079 C1081 1.419 . S
C1080 C1078 1.415 . S
C1080 C1085 1.425 . S
C1080 C1087 1.409 . S
C1081 H1073 0.930 . S
C1081 C1079 1.419 . S
C1081 C1082 1.362 . S
C1082 H1074 0.930 . S
C1082 C1081 1.362 . S
C1082 C1085 1.409 . S
C1083 H1075 0.930 . S
C1083 C1084 1.355 1_455 S
C1083 C1085 1.415 . S
C1084 C1083 1.355 1_655 S
C1084 C1086 1.419 . S
C1085 C1080 1.425 . S
C1085 C1082 1.409 . S
C1085 C1083 1.415 . S
C1086 H1076 0.930 . S
C1086 C1084 1.419 . S
C1086 C1087 1.362 1_655 S
C1087 H1077 0.930 . S
C1087 C1080 1.409 . S
C1087 C1086 1.362 1_455 S
H1088 C1094 0.930 . S
H1089 C1097 0.930 . S
H1090 C1098 0.930 . S
H1091 C1099 0.930 . S
H1092 C1102 0.930 . S
H1093 C1103 0.930 . S
C1094 H1088 0.930 . S
C1094 C1095 1.355 . S
C1094 C1096 1.415 . S
C1095 C1094 1.355 . S
C1095 C1097 1.419 . S
C1096 C1094 1.415 . S
C1096 C1101 1.425 . S
C1096 C1103 1.409 . S
C1097 H1089 0.930 . S
C1097 C1095 1.419 . S
C1097 C1098 1.362 . S
C1098 H1090 0.930 . S
C1098 C1097 1.362 . S
C1098 C1101 1.409 . S
C1099 H1091 0.930 . S
C1099 C1100 1.355 . S
C1099 C1101 1.415 . S
C1100 C1099 1.355 . S
C1100 C1102 1.419 . S
C1101 C1096 1.425 . S
C1101 C1098 1.409 . S
C1101 C1099 1.415 . S
C1102 H1092 0.930 . S
C1102 C1100 1.419 . S
C1102 C1103 1.362 . S
C1103 H1093 0.930 . S
C1103 C1096 1.409 . S
C1103 C1102 1.362 . S
H1104 C1110 0.930 . S
H1105 C1113 0.930 . S
H1106 C1114 0.930 . S
H1107 C1115 0.930 . S
H1108 C1118 0.930 . S
H1109 C1119 0.930 . S
C1110 H1104 0.930 . S
C1110 C1111 1.355 1_655 S
C1110 C1112 1.415 . S
C1111 C1110 1.355 1_455 S
C1111 C1113 1.419 . S
C1112 C1110 1.415 . S
C1112 C1117 1.425 . S
C1112 C1119 1.409 . S
C1113 H1105 0.930 . S
C1113 C1111 1.419 . S
C1113 C1114 1.362 1_455 S
C1114 H1106 0.930 . S
C1114 C1113 1.362 1_655 S
C1114 C1117 1.409 . S
C1115 H1107 0.930 . S
C1115 C1116 1.355 . S
C1115 C1117 1.415 . S
C1116 C1115 1.355 . S
C1116 C1118 1.419 . S
C1117 C1112 1.425 . S
C1117 C1114 1.409 . S
C1117 C1115 1.415 . S
C1118 H1108 0.930 . S
C1118 C1116 1.419 . S
C1118 C1119 1.362 . S
C1119 H1109 0.930 . S
C1119 C1112 1.409 . S
C1119 C1118 1.362 . S
H1120 C1126 0.930 . S
H1121 C1129 0.930 . S
H1122 C1130 0.930 . S
H1123 C1131 0.930 . S
H1124 C1134 0.930 . S
H1125 C1135 0.930 . S
C1126 H1120 0.930 . S
C1126 C1127 1.355 . S
C1126 C1128 1.415 . S
C1127 C1126 1.355 . S
C1127 C1129 1.419 . S
C1128 C1126 1.415 . S
C1128 C1133 1.425 . S
C1128 C1135 1.409 . S
C1129 H1121 0.930 . S
C1129 C1127 1.419 . S
C1129 C1130 1.362 . S
C1130 H1122 0.930 . S
C1130 C1129 1.362 . S
C1130 C1133 1.409 . S
C1131 H1123 0.930 . S
C1131 C1132 1.355 . S
C1131 C1133 1.415 . S
C1132 C1131 1.355 . S
C1132 C1134 1.419 . S
C1133 C1128 1.425 . S
C1133 C1130 1.409 . S
C1133 C1131 1.415 . S
C1134 H1124 0.930 . S
C1134 C1132 1.419 . S
C1134 C1135 1.362 . S
C1135 H1125 0.930 . S
C1135 C1128 1.409 . S
C1135 C1134 1.362 . S
H1136 C1142 0.930 . S
H1137 C1145 0.930 . S
H1138 C1146 0.930 . S
H1139 C1147 0.930 . S
H1140 C1150 0.930 . S
H1141 C1151 0.930 . S
C1142 H1136 0.930 . S
C1142 C1143 1.355 . S
C1142 C1144 1.415 . S
C1143 C1142 1.355 . S
C1143 C1145 1.419 . S
C1144 C1142 1.415 . S
C1144 C1149 1.425 . S
C1144 C1151 1.409 . S
C1145 H1137 0.930 . S
C1145 C1143 1.419 . S
C1145 C1146 1.362 . S
C1146 H1138 0.930 . S
C1146 C1145 1.362 . S
C1146 C1149 1.409 . S
C1147 H1139 0.930 . S
C1147 C1148 1.355 . S
C1147 C1149 1.415 . S
C1148 C1147 1.355 . S
C1148 C1150 1.419 . S
C1149 C1144 1.425 . S
C1149 C1146 1.409 . S
C1149 C1147 1.415 . S
C1150 H1140 0.930 . S
C1150 C1148 1.419 . S
C1150 C1151 1.362 . S
C1151 H1141 0.930 . S
C1151 C1144 1.409 . S
C1151 C1150 1.362 . S
H1152 C1158 0.930 . S
H1153 C1161 0.930 . S
H1154 C1162 0.930 . S
H1155 C1163 0.930 . S
H1156 C1166 0.930 . S
H1157 C1167 0.930 . S
C1158 H1152 0.930 . S
C1158 C1159 1.355 . S
C1158 C1160 1.415 . S
C1159 C1158 1.355 . S
C1159 C1161 1.419 . S
C1160 C1158 1.415 . S
C1160 C1165 1.425 . S
C1160 C1167 1.409 . S
C1161 H1153 0.930 . S
C1161 C1159 1.419 . S
C1161 C1162 1.362 . S
C1162 H1154 0.930 . S
C1162 C1161 1.362 . S
C1162 C1165 1.409 . S
C1163 H1155 0.930 . S
C1163 C1164 1.355 . S
C1163 C1165 1.415 . S
C1164 C1163 1.355 . S
C1164 C1166 1.419 . S
C1165 C1160 1.425 . S
C1165 C1162 1.409 . S
C1165 C1163 1.415 . S
C1166 H1156 0.930 . S
C1166 C1164 1.419 . S
C1166 C1167 1.362 . S
C1167 H1157 0.930 . S
C1167 C1160 1.409 . S
C1167 C1166 1.362 . S
H1168 C1174 0.930 . S
H1169 C1177 0.930 . S
H1170 C1178 0.930 . S
H1171 C1179 0.930 . S
H1172 C1182 0.930 . S
H1173 C1183 0.930 . S
C1174 H1168 0.930 . S
C1174 C1175 1.355 . S
C1174 C1176 1.415 . S
C1175 C1174 1.355 . S
C1175 C1177 1.419 . S
C1176 C1174 1.415 . S
C1176 C1181 1.425 . S
C1176 C1183 1.409 . S
C1177 H1169 0.930 . S
C1177 C1175 1.419 . S
C1177 C1178 1.362 . S
C1178 H1170 0.930 . S
C1178 C1177 1.362 . S
C1178 C1181 1.409 . S
C1179 H1171 0.930 . S
C1179 C1180 1.355 . S
C1179 C1181 1.415 . S
C1180 C1179 1.355 . S
C1180 C1182 1.419 . S
C1181 C1176 1.425 . S
C1181 C1178 1.409 . S
C1181 C1179 1.415 . S
C1182 H1172 0.930 . S
C1182 C1180 1.419 . S
C1182 C1183 1.362 . S
C1183 H1173 0.930 . S
C1183 C1176 1.409 . S
C1183 C1182 1.362 . S
H1184 C1190 0.930 . S
H1185 C1193 0.930 . S
H1186 C1194 0.930 . S
H1187 C1195 0.930 . S
H1188 C1198 0.930 . S
H1189 C1199 0.930 . S
C1190 H1184 0.930 . S
C1190 C1191 1.355 . S
C1190 C1192 1.415 . S
C1191 C1190 1.355 . S
C1191 C1193 1.419 . S
C1192 C1190 1.415 . S
C1192 C1197 1.425 . S
C1192 C1199 1.409 . S
C1193 H1185 0.930 . S
C1193 C1191 1.419 . S
C1193 C1194 1.362 . S
C1194 H1186 0.930 . S
C1194 C1193 1.362 . S
C1194 C1197 1.409 . S
C1195 H1187 0.930 . S
C1195 C1196 1.355 . S
C1195 C1197 1.415 . S
C1196 C1195 1.355 . S
C1196 C1198 1.419 . S
C1197 C1192 1.425 . S
C1197 C1194 1.409 . S
C1197 C1195 1.415 . S
C1198 H1188 0.930 . S
C1198 C1196 1.419 . S
C1198 C1199 1.362 . S
C1199 H1189 0.930 . S
C1199 C1192 1.409 . S
C1199 C1198 1.362 . S
H1200 C1206 0.930 . S
H1201 C1209 0.930 . S
H1202 C1210 0.930 . S
H1203 C1211 0.930 . S
H1204 C1214 0.930 . S
H1205 C1215 0.930 . S
C1206 H1200 0.930 . S
C1206 C1207 1.355 1_655 S
C1206 C1208 1.415 . S
C1207 C1206 1.355 1_455 S
C1207 C1209 1.419 . S
C1208 C1206 1.415 . S
C1208 C1213 1.425 . S
C1208 C1215 1.409 . S
C1209 H1201 0.930 . S
C1209 C1207 1.419 . S
C1209 C1210 1.362 1_455 S
C1210 H1202 0.930 . S
C1210 C1209 1.362 1_655 S
C1210 C1213 1.409 . S
C1211 H1203 0.930 . S
C1211 C1212 1.355 . S
C1211 C1213 1.415 . S
C1212 C1211 1.355 . S
C1212 C1214 1.419 . S
C1213 C1208 1.425 . S
C1213 C1210 1.409 . S
C1213 C1211 1.415 . S
C1214 H1204 0.930 . S
C1214 C1212 1.419 . S
C1214 C1215 1.362 . S
C1215 H1205 0.930 . S
C1215 C1208 1.409 . S
C1215 C1214 1.362 . S
H1216 C1222 0.930 . S
H1217 C1225 0.930 . S
H1218 C1226 0.930 . S
H1219 C1227 0.930 . S
H1220 C1230 0.930 . S
H1221 C1231 0.930 . S
C1222 H1216 0.930 . S
C1222 C1223 1.355 . S
C1222 C1224 1.415 . S
C1223 C1222 1.355 . S
C1223 C1225 1.419 . S
C1224 C1222 1.415 . S
C1224 C1229 1.425 . S
C1224 C1231 1.409 . S
C1225 H1217 0.930 . S
C1225 C1223 1.419 . S
C1225 C1226 1.362 . S
C1226 H1218 0.930 . S
C1226 C1225 1.362 . S
C1226 C1229 1.409 . S
C1227 H1219 0.930 . S
C1227 C1228 1.355 . S
C1227 C1229 1.415 . S
C1228 C1227 1.355 . S
C1228 C1230 1.419 . S
C1229 C1224 1.425 . S
C1229 C1226 1.409 . S
C1229 C1227 1.415 . S
C1230 H1220 0.930 . S
C1230 C1228 1.419 . S
C1230 C1231 1.362 . S
C1231 H1221 0.930 . S
C1231 C1224 1.409 . S
C1231 C1230 1.362 . S
H1232 C1238 0.930 . S
H1233 C1241 0.930 . S
H1234 C1242 0.930 . S
H1235 C1243 0.930 . S
H1236 C1246 0.930 . S
H1237 C1247 0.930 . S
C1238 H1232 0.930 . S
C1238 C1239 1.355 . S
C1238 C1240 1.415 . S
C1239 C1238 1.355 . S
C1239 C1241 1.419 . S
C1240 C1238 1.415 . S
C1240 C1245 1.425 . S
C1240 C1247 1.409 . S
C1241 H1233 0.930 . S
C1241 C1239 1.419 . S
C1241 C1242 1.362 . S
C1242 H1234 0.930 . S
C1242 C1241 1.362 . S
C1242 C1245 1.409 . S
C1243 H1235 0.930 . S
C1243 C1244 1.355 . S
C1243 C1245 1.415 . S
C1244 C1243 1.355 . S
C1244 C1246 1.419 . S
C1245 C1240 1.425 . S
C1245 C1242 1.409 . S
C1245 C1243 1.415 . S
C1246 H1236 0.930 . S
C1246 C1244 1.419 . S
C1246 C1247 1.362 . S
C1247 H1237 0.930 . S
C1247 C1240 1.409 . S
C1247 C1246 1.362 . S
H1248 C1254 0.930 . S
H1249 C1257 0.930 . S
H1250 C1258 0.930 . S
H1251 C1259 0.930 . S
H1252 C1262 0.930 . S
H1253 C1263 0.930 . S
C1254 H1248 0.930 . S
C1254 C1255 1.355 . S
C1254 C1256 1.415 . S
C1255 C1254 1.355 . S
C1255 C1257 1.419 . S
C1256 C1254 1.415 . S
C1256 C1261 1.425 . S
C1256 C1263 1.409 . S
C1257 H1249 0.930 . S
C1257 C1255 1.419 . S
C1257 C1258 1.362 . S
C1258 H1250 0.930 . S
C1258 C1257 1.362 . S
C1258 C1261 1.409 . S
C1259 H1251 0.930 . S
C1259 C1260 1.355 . S
C1259 C1261 1.415 . S
C1260 C1259 1.355 . S
C1260 C1262 1.419 . S
C1261 C1256 1.425 . S
C1261 C1258 1.409 . S
C1261 C1259 1.415 . S
C1262 H1252 0.930 . S
C1262 C1260 1.419 . S
C1262 C1263 1.362 . S
C1263 H1253 0.930 . S
C1263 C1256 1.409 . S
C1263 C1262 1.362 . S
H1264 C1270 0.930 . S
H1265 C1273 0.930 . S
H1266 C1274 0.930 . S
H1267 C1275 0.930 . S
H1268 C1278 0.930 . S
H1269 C1279 0.930 . S
C1270 H1264 0.930 . S
C1270 C1271 1.355 . S
C1270 C1272 1.415 . S
C1271 C1270 1.355 . S
C1271 C1273 1.419 . S
C1272 C1270 1.415 . S
C1272 C1277 1.425 . S
C1272 C1279 1.409 . S
C1273 H1265 0.930 . S
C1273 C1271 1.419 . S
C1273 C1274 1.362 . S
C1274 H1266 0.930 . S
C1274 C1273 1.362 . S
C1274 C1277 1.409 . S
C1275 H1267 0.930 . S
C1275 C1276 1.355 1_655 S
C1275 C1277 1.415 . S
C1276 C1275 1.355 1_455 S
C1276 C1278 1.419 . S
C1277 C1272 1.425 . S
C1277 C1274 1.409 . S
C1277 C1275 1.415 . S
C1278 H1268 0.930 . S
C1278 C1276 1.419 . S
C1278 C1279 1.362 1_455 S
C1279 H1269 0.930 . S
C1279 C1272 1.409 . S
C1279 C1278 1.362 1_655 S
H1280 C1286 0.930 . S
H1281 C1289 0.930 . S
H1282 C1290 0.930 . S
H1283 C1291 0.930 . S
H1284 C1294 0.930 . S
H1285 C1295 0.930 . S
C1286 H1280 0.930 . S
C1286 C1287 1.355 . S
C1286 C1288 1.415 . S
C1287 C1286 1.355 . S
C1287 C1289 1.419 . S
C1288 C1286 1.415 . S
C1288 C1293 1.425 . S
C1288 C1295 1.409 . S
C1289 H1281 0.930 . S
C1289 C1287 1.419 . S
C1289 C1290 1.362 . S
C1290 H1282 0.930 . S
C1290 C1289 1.362 . S
C1290 C1293 1.409 . S
C1291 H1283 0.930 . S
C1291 C1292 1.355 . S
C1291 C1293 1.415 . S
C1292 C1291 1.355 . S
C1292 C1294 1.419 . S
C1293 C1288 1.425 . S
C1293 C1290 1.409 . S
C1293 C1291 1.415 . S
C1294 H1284 0.930 . S
C1294 C1292 1.419 . S
C1294 C1295 1.362 . S
C1295 H1285 0.930 . S
C1295 C1288 1.409 . S
C1295 C1294 1.362 . S
H1296 C1302 0.930 . S
H1297 C1305 0.930 . S
H1298 C1306 0.930 . S
H1299 C1307 0.930 . S
H1300 C1310 0.930 . S
H1301 C1311 0.930 . S
C1302 H1296 0.930 . S
C1302 C1303 1.355 1_655 S
C1302 C1304 1.415 . S
C1303 C1302 1.355 1_455 S
C1303 C1305 1.419 . S
C1304 C1302 1.415 . S
C1304 C1309 1.425 . S
C1304 C1311 1.409 . S
C1305 H1297 0.930 . S
C1305 C1303 1.419 . S
C1305 C1306 1.362 1_455 S
C1306 H1298 0.930 . S
C1306 C1305 1.362 1_655 S
C1306 C1309 1.409 . S
C1307 H1299 0.930 . S
C1307 C1308 1.355 . S
C1307 C1309 1.415 . S
C1308 C1307 1.355 . S
C1308 C1310 1.419 . S
C1309 C1304 1.425 . S
C1309 C1306 1.409 . S
C1309 C1307 1.415 . S
C1310 H1300 0.930 . S
C1310 C1308 1.419 . S
C1310 C1311 1.362 . S
C1311 H1301 0.930 . S
C1311 C1304 1.409 . S
C1311 C1310 1.362 . S
H1312 C1318 0.930 . S
H1313 C1321 0.930 . S
H1314 C1322 0.930 . S
H1315 C1323 0.930 . S
H1316 C1326 0.930 . S
H1317 C1327 0.930 . S
C1318 H1312 0.930 . S
C1318 C1319 1.355 . S
C1318 C1320 1.415 . S
C1319 C1318 1.355 . S
C1319 C1321 1.419 . S
C1320 C1318 1.415 . S
C1320 C1325 1.425 . S
C1320 C1327 1.409 . S
C1321 H1313 0.930 . S
C1321 C1319 1.419 . S
C1321 C1322 1.362 . S
C1322 H1314 0.930 . S
C1322 C1321 1.362 . S
C1322 C1325 1.409 . S
C1323 H1315 0.930 . S
C1323 C1324 1.355 . S
C1323 C1325 1.415 . S
C1324 C1323 1.355 . S
C1324 C1326 1.419 . S
C1325 C1320 1.425 . S
C1325 C1322 1.409 . S
C1325 C1323 1.415 . S
C1326 H1316 0.930 . S
C1326 C1324 1.419 . S
C1326 C1327 1.362 . S
C1327 H1317 0.930 . S
C1327 C1320 1.409 . S
C1327 C1326 1.362 . S
H1328 C1334 0.930 . S
H1329 C1337 0.930 . S
H1330 C1338 0.930 . S
H1331 C1339 0.930 . S
H1332 C1342 0.930 . S
H1333 C1343 0.930 . S
C1334 H1328 0.930 . S
C1334 C1335 1.355 . S
C1334 C1336 1.415 . S
C1335 C1334 1.355 . S
C1335 C1337 1.419 . S
C1336 C1334 1.415 . S
C1336 C1341 1.425 . S
C1336 C1343 1.409 . S
C1337 H1329 0.930 . S
C1337 C1335 1.419 . S
C1337 C1338 1.362 . S
C1338 H1330 0.930 . S
C1338 C1337 1.362 . S
C1338 C1341 1.409 . S
C1339 H1331 0.930 . S
C1339 C1340 1.355 . S
C1339 C1341 1.415 . S
C1340 C1339 1.355 . S
C1340 C1342 1.419 . S
C1341 C1336 1.425 . S
C1341 C1338 1.409 . S
C1341 C1339 1.415 . S
C1342 H1332 0.930 . S
C1342 C1340 1.419 . S
C1342 C1343 1.362 . S
C1343 H1333 0.930 . S
C1343 C1336 1.409 . S
C1343 C1342 1.362 . S
H1344 C1350 0.930 . S
H1345 C1353 0.930 . S
H1346 C1354 0.930 . S
H1347 C1355 0.930 . S
H1348 C1358 0.930 . S
H1349 C1359 0.930 . S
C1350 H1344 0.930 . S
C1350 C1351 1.355 . S
C1350 C1352 1.415 . S
C1351 C1350 1.355 . S
C1351 C1353 1.419 . S
C1352 C1350 1.415 . S
C1352 C1357 1.425 . S
C1352 C1359 1.409 . S
C1353 H1345 0.930 . S
C1353 C1351 1.419 . S
C1353 C1354 1.362 . S
C1354 H1346 0.930 . S
C1354 C1353 1.362 . S
C1354 C1357 1.409 . S
C1355 H1347 0.930 . S
C1355 C1356 1.355 . S
C1355 C1357 1.415 . S
C1356 C1355 1.355 . S
C1356 C1358 1.419 . S
C1357 C1352 1.425 . S
C1357 C1354 1.409 . S
C1357 C1355 1.415 . S
C1358 H1348 0.930 . S
C1358 C1356 1.419 . S
C1358 C1359 1.362 . S
C1359 H1349 0.930 . S
C1359 C1352 1.409 . S
C1359 C1358 1.362 . S
H1360 C1366 0.930 . S
H1361 C1369 0.930 . S
H1362 C1370 0.930 . S
H1363 C1371 0.930 . S
H1364 C1374 0.930 . S
H1365 C1375 0.930 . S
C1366 H1360 0.930 . S
C1366 C1367 1.355 . S
C1366 C1368 1.415 . S
C1367 C1366 1.355 . S
C1367 C1369 1.419 . S
C1368 C1366 1.415 . S
C1368 C1373 1.425 . S
C1368 C1375 1.409 . S
C1369 H1361 0.930 . S
C1369 C1367 1.419 . S
C1369 C1370 1.362 . S
C1370 H1362 0.930 . S
C1370 C1369 1.362 . S
C1370 C1373 1.409 . S
C1371 H1363 0.930 . S
C1371 C1372 1.355 . S
C1371 C1373 1.415 . S
C1372 C1371 1.355 . S
C1372 C1374 1.419 . S
C1373 C1368 1.425 . S
C1373 C1370 1.409 . S
C1373 C1371 1.415 . S
C1374 H1364 0.930 . S
C1374 C1372 1.419 . S
C1374 C1375 1.362 . S
C1375 H1365 0.930 . S
C1375 C1368 1.409 . S
C1375 C1374 1.362 . S
H1376 C1382 0.930 . S
H1377 C1385 0.930 . S
H1378 C1386 0.930 . S
H1379 C1387 0.930 . S
H1380 C1390 0.930 . S
H1381 C1391 0.930 . S
C1382 H1376 0.930 . S
C1382 C1383 1.355 . S
C1382 C1384 1.415 . S
C1383 C1382 1.355 . S
C1383 C1385 1.419 . S
C1384 C1382 1.415 . S
C1384 C1389 1.425 . S
C1384 C1391 1.409 . S
C1385 H1377 0.930 . S
C1385 C1383 1.419 . S
C1385 C1386 1.362 . S
C1386 H1378 0.930 . S
C1386 C1385 1.362 . S
C1386 C1389 1.409 . S
C1387 H1379 0.930 . S
C1387 C1388 1.355 . S
C1387 C1389 1.415 . S
C1388 C1387 1.355 . S
C1388 C1390 1.419 . S
C1389 C1384 1.425 . S
C1389 C1386 1.409 . S
C1389 C1387 1.415 . S
C1390 H1380 0.930 . S
C1390 C1388 1.419 . S
C1390 C1391 1.362 . S
C1391 H1381 0.930 . S
C1391 C1384 1.409 . S
C1391 C1390 1.362 . S
H1392 C1398 0.930 . S
H1393 C1401 0.930 . S
H1394 C1402 0.930 . S
H1395 C1403 0.930 . S
H1396 C1406 0.930 . S
H1397 C1407 0.930 . S
C1398 H1392 0.930 . S
C1398 C1399 1.355 1_455 S
C1398 C1400 1.415 . S
C1399 C1398 1.355 1_655 S
C1399 C1401 1.419 . S
C1400 C1398 1.415 . S
C1400 C1405 1.425 . S
C1400 C1407 1.409 . S
C1401 H1393 0.930 . S
C1401 C1399 1.419 . S
C1401 C1402 1.362 1_655 S
C1402 H1394 0.930 . S
C1402 C1401 1.362 1_455 S
C1402 C1405 1.409 . S
C1403 H1395 0.930 . S
C1403 C1404 1.355 . S
C1403 C1405 1.415 . S
C1404 C1403 1.355 . S
C1404 C1406 1.419 . S
C1405 C1400 1.425 . S
C1405 C1402 1.409 . S
C1405 C1403 1.415 . S
C1406 H1396 0.930 . S
C1406 C1404 1.419 . S
C1406 C1407 1.362 . S
C1407 H1397 0.930 . S
C1407 C1400 1.409 . S
C1407 C1406 1.362 . S
H1408 C1414 0.930 . S
H1409 C1417 0.930 . S
H1410 C1418 0.930 . S
H1411 C1419 0.930 . S
H1412 C1422 0.930 . S
H1413 C1423 0.930 . S
C1414 H1408 0.930 . S
C1414 C1415 1.355 . S
C1414 C1416 1.415 . S
C1415 C1414 1.355 . S
C1415 C1417 1.419 . S
C1416 C1414 1.415 . S
C1416 C1421 1.425 . S
C1416 C1423 1.409 . S
C1417 H1409 0.930 . S
C1417 C1415 1.419 . S
C1417 C1418 1.362 . S
C1418 H1410 0.930 . S
C1418 C1417 1.362 . S
C1418 C1421 1.409 . S
C1419 H1411 0.930 . S
C1419 C1420 1.355 . S
C1419 C1421 1.415 . S
C1420 C1419 1.355 . S
C1420 C1422 1.419 . S
C1421 C1416 1.425 . S
C1421 C1418 1.409 . S
C1421 C1419 1.415 . S
C1422 H1412 0.930 . S
C1422 C1420 1.419 . S
C1422 C1423 1.362 . S
C1423 H1413 0.930 . S
C1423 C1416 1.409 . S
C1423 C1422 1.362 . S
H1424 C1430 0.930 . S
H1425 C1433 0.930 . S
H1426 C1434 0.930 . S
H1427 C1435 0.930 . S
H1428 C1438 0.930 1_655 S
H1429 C1439 0.930 . S
C1430 H1424 0.930 . S
C1430 C1431 1.355 . S
C1430 C1432 1.415 . S
C1431 C1430 1.355 . S
C1431 C1433 1.419 . S
C1432 C1430 1.415 . S
C1432 C1437 1.425 . S
C1432 C1439 1.409 . S
C1433 H1425 0.930 . S
C1433 C1431 1.419 . S
C1433 C1434 1.362 . S
C1434 H1426 0.930 . S
C1434 C1433 1.362 . S
C1434 C1437 1.409 . S
C1435 H1427 0.930 . S
C1435 C1436 1.355 1_455 S
C1435 C1437 1.415 . S
C1436 C1435 1.355 1_655 S
C1436 C1438 1.419 1_655 S
C1437 C1432 1.425 . S
C1437 C1434 1.409 . S
C1437 C1435 1.415 . S
C1438 H1428 0.930 1_455 S
C1438 C1436 1.419 1_455 S
C1438 C1439 1.362 . S
C1439 H1429 0.930 . S
C1439 C1432 1.409 . S
C1439 C1438 1.362 . S
H1440 C1446 0.930 . S
H1441 C1449 0.930 . S
H1442 C1450 0.930 . S
H1443 C1451 0.930 . S
H1444 C1454 0.930 . S
H1445 C1455 0.930 . S
C1446 H1440 0.930 . S
C1446 C1447 1.355 . S
C1446 C1448 1.415 . S
C1447 C1446 1.355 . S
C1447 C1449 1.419 . S
C1448 C1446 1.415 . S
C1448 C1453 1.425 . S
C1448 C1455 1.409 . S
C1449 H1441 0.930 . S
C1449 C1447 1.419 . S
C1449 C1450 1.362 . S
C1450 H1442 0.930 . S
C1450 C1449 1.362 . S
C1450 C1453 1.409 . S
C1451 H1443 0.930 . S
C1451 C1452 1.355 . S
C1451 C1453 1.415 . S
C1452 C1451 1.355 . S
C1452 C1454 1.419 . S
C1453 C1448 1.425 . S
C1453 C1450 1.409 . S
C1453 C1451 1.415 . S
C1454 H1444 0.930 . S
C1454 C1452 1.419 . S
C1454 C1455 1.362 . S
C1455 H1445 0.930 . S
C1455 C1448 1.409 . S
C1455 C1454 1.362 . S
H1456 C1462 0.930 . S
H1457 C1465 0.930 . S
H1458 C1466 0.930 . S
H1459 C1467 0.930 . S
H1460 C1470 0.930 . S
H1461 C1471 0.930 . S
C1462 H1456 0.930 . S
C1462 C1463 1.355 . S
C1462 C1464 1.415 . S
C1463 C1462 1.355 . S
C1463 C1465 1.419 . S
C1464 C1462 1.415 . S
C1464 C1469 1.425 . S
C1464 C1471 1.409 . S
C1465 H1457 0.930 . S
C1465 C1463 1.419 . S
C1465 C1466 1.362 . S
C1466 H1458 0.930 . S
C1466 C1465 1.362 . S
C1466 C1469 1.409 . S
C1467 H1459 0.930 . S
C1467 C1468 1.355 . S
C1467 C1469 1.415 . S
C1468 C1467 1.355 . S
C1468 C1470 1.419 . S
C1469 C1464 1.425 . S
C1469 C1466 1.409 . S
C1469 C1467 1.415 . S
C1470 H1460 0.930 . S
C1470 C1468 1.419 . S
C1470 C1471 1.362 . S
C1471 H1461 0.930 . S
C1471 C1464 1.409 . S
C1471 C1470 1.362 . S
C455 C64 1.520 . S
C460 C8 1.514 . S
C471 C78 1.497 . S
C476 C22 1.496 . S
C487 C92 1.520 . S
C492 C36 1.522 . S
C503 C50 1.496 . S
C508 C106 1.498 . S
C519 C120 1.515 . S
C524 C176 1.521 . S
C535 C190 1.498 . S
C540 C134 1.496 . S
C551 C148 1.519 . S
C556 C204 1.512 . S
C567 C218 1.510 . S
C572 C162 1.518 . S
C583 C232 1.521 . S
C588 C288 1.521 . S
C599 C302 1.500 . S
C604 C246 1.496 . S
C615 C316 1.496 . S
C620 C260 1.502 . S
C631 C330 1.515 . S
C636 C274 1.521 . S
C647 C344 1.497 . S
C652 C400 1.496 . S
C663 C358 1.499 . S
C668 C414 1.496 . S
C679 C372 1.503 . S
C684 C428 1.512 . S
C695 C386 1.509 . S
C700 C442 1.501 . S
C711 C7 1.300 1_565 S
C716 C105 1.293 . S
C727 C21 1.273 . S
C732 C63 1.276 1_545 S
C743 C35 1.288 1_545 S
C748 C77 1.294 . S
C759 C91 1.274 1_565 S
C764 C49 1.278 . S
C775 C217 1.280 . S
C780 C119 1.276 1_545 S
C791 C175 1.283 1_565 S
C796 C133 1.289 . S
C807 C189 1.280 . S
C812 C147 1.285 1_565 S
C823 C161 1.291 . S
C828 C203 1.297 1_545 S
C839 C329 1.315 . S
C844 C231 1.313 . S
C855 C287 1.296 . S
C860 C245 1.302 . S
C871 C301 1.290 . S
C876 C259 1.297 . S
C887 C273 1.314 . S
C892 C315 1.312 . S
C903 C343 1.287 . S
C908 C441 1.281 . S
C919 C357 1.304 . S
C924 C399 1.298 . S
C935 C371 1.314 . S
C940 C413 1.315 . S
C951 C427 1.306 . S
C956 C385 1.311 . S
C967 C9 1.438 . S
C972 C353 1.474 . S
C983 C23 1.438 . S
C988 C143 1.470 . S
C999 C37 1.442 . S
C1004 C381 1.475 . S
C1015 C115 1.453 . S
C1020 C51 1.473 . S
C1031 C437 1.473 . S
C1036 C65 1.438 . S
C1047 C79 1.468 . S
C1052 C171 1.459 . S
C1063 C93 1.465 . S
C1068 C409 1.445 . S
C1079 C107 1.467 . S
C1084 C199 1.444 . S
C1095 C241 1.474 . S
C1100 C121 1.448 . S
C1111 C31 1.445 . S
C1116 C135 1.464 . S
C1127 C269 1.474 . S
C1132 C149 1.448 . S
C1143 C163 1.465 . S
C1148 C3 1.462 . S
C1159 C325 1.474 . S
C1164 C177 1.446 . S
C1175 C59 1.445 . S
C1180 C191 1.473 . S
C1191 C297 1.444 . S
C1196 C205 1.467 . S
C1207 C87 1.448 . S
C1212 C219 1.458 . S
C1223 C129 1.465 . S
C1228 C233 1.440 . S
C1239 C247 1.445 . S
C1244 C367 1.475 . S
C1255 C261 1.468 . S
C1260 C157 1.444 . S
C1271 C275 1.472 . S
C1276 C339 1.444 . S
C1287 C289 1.447 . S
C1292 C213 1.457 . S
C1303 C395 1.449 . S
C1308 C303 1.457 . S
C1319 C317 1.453 . S
C1324 C185 1.471 . S
C1335 C331 1.468 . S
C1340 C423 1.444 . S
C1351 C345 1.455 . S
C1356 C17 1.450 . S
C1367 C359 1.466 . S
C1372 C255 1.461 . S
C1383 C45 1.458 . S
C1388 C373 1.469 . S
C1399 C227 1.444 . S
C1404 C387 1.467 . S
C1415 C401 1.466 . S
C1420 C101 1.444 . S
C1431 C415 1.438 . S
C1436 C283 1.473 . S
C1447 C73 1.473 . S
C1452 C429 1.438 . S
C1463 C311 1.448 . S
C1468 C443 1.458 . S
