# Generated by pormake.
# Topology sod, (4)-cn, num edge types: 1
# Building blocks:
#     Node 0, Type 0, BuildingBlock: UXUYUI_clean_sbu_0, # of connection points: 4
#     Node 1, Type 0, BuildingBlock: UXUYUI_clean_sbu_0, # of connection points: 4
#     Node 2, Type 0, BuildingBlock: UXUYUI_clean_sbu_0, # of connection points: 4
#     Node 3, Type 0, BuildingBlock: UXUYUI_clean_sbu_0, # of connection points: 4
#     Node 4, Type 0, BuildingBlock: UXUYUI_clean_sbu_0, # of connection points: 4
#     Node 5, Type 0, BuildingBlock: UXUYUI_clean_sbu_0, # of connection points: 4
#     Node 6, Type 0, BuildingBlock: UXUYUI_clean_sbu_0, # of connection points: 4
#     Node 7, Type 0, BuildingBlock: UXUYUI_clean_sbu_0, # of connection points: 4
#     Node 8, Type 0, BuildingBlock: UXUYUI_clean_sbu_0, # of connection points: 4
#     Node 9, Type 0, BuildingBlock: UXUYUI_clean_sbu_0, # of connection points: 4
#     Node 10, Type 0, BuildingBlock: UXUYUI_clean_sbu_0, # of connection points: 4
#     Node 11, Type 0, BuildingBlock: UXUYUI_clean_sbu_0, # of connection points: 4
#     Edge 12, Type (0, 0), BuildingBlock: XUDNAN_clean_linker_2, # of connection points: 2
#     Edge 13, Type (0, 0), BuildingBlock: XUDNAN_clean_linker_2, # of connection points: 2
#     Edge 14, Type (0, 0), BuildingBlock: XUDNAN_clean_linker_2, # of connection points: 2
#     Edge 15, Type (0, 0), BuildingBlock: XUDNAN_clean_linker_2, # of connection points: 2
#     Edge 16, Type (0, 0), BuildingBlock: XUDNAN_clean_linker_2, # of connection points: 2
#     Edge 17, Type (0, 0), BuildingBlock: XUDNAN_clean_linker_2, # of connection points: 2
#     Edge 18, Type (0, 0), BuildingBlock: XUDNAN_clean_linker_2, # of connection points: 2
#     Edge 19, Type (0, 0), BuildingBlock: XUDNAN_clean_linker_2, # of connection points: 2
#     Edge 20, Type (0, 0), BuildingBlock: XUDNAN_clean_linker_2, # of connection points: 2
#     Edge 21, Type (0, 0), BuildingBlock: XUDNAN_clean_linker_2, # of connection points: 2
#     Edge 22, Type (0, 0), BuildingBlock: XUDNAN_clean_linker_2, # of connection points: 2
#     Edge 23, Type (0, 0), BuildingBlock: XUDNAN_clean_linker_2, # of connection points: 2
#     Edge 24, Type (0, 0), BuildingBlock: XUDNAN_clean_linker_2, # of connection points: 2
#     Edge 25, Type (0, 0), BuildingBlock: XUDNAN_clean_linker_2, # of connection points: 2
#     Edge 26, Type (0, 0), BuildingBlock: XUDNAN_clean_linker_2, # of connection points: 2
#     Edge 27, Type (0, 0), BuildingBlock: XUDNAN_clean_linker_2, # of connection points: 2
#     Edge 28, Type (0, 0), BuildingBlock: XUDNAN_clean_linker_2, # of connection points: 2
#     Edge 29, Type (0, 0), BuildingBlock: XUDNAN_clean_linker_2, # of connection points: 2
#     Edge 30, Type (0, 0), BuildingBlock: XUDNAN_clean_linker_2, # of connection points: 2
#     Edge 31, Type (0, 0), BuildingBlock: XUDNAN_clean_linker_2, # of connection points: 2
#     Edge 32, Type (0, 0), BuildingBlock: XUDNAN_clean_linker_2, # of connection points: 2
#     Edge 33, Type (0, 0), BuildingBlock: XUDNAN_clean_linker_2, # of connection points: 2
#     Edge 34, Type (0, 0), BuildingBlock: XUDNAN_clean_linker_2, # of connection points: 2
#     Edge 35, Type (0, 0), BuildingBlock: XUDNAN_clean_linker_2, # of connection points: 2
# Relax obj value: 0.150
# Max RMSD: 0.167
# Mean RMSD: 0.167
data_MOF--net-sod--node1-UXUYUI_clean_sbu_0--edge1-XUDNAN_clean_linker_2
_symmetry_space_group_name_H-M    P1
_symmetry_Int_Tables_number       1
_symmetry_cell_setting            triclinic
loop_
_symmetry_equiv_pos_as_xyz
'x, y, z'
_cell_length_a     62.173632
_cell_length_b     62.177001
_cell_length_c     62.184316
_cell_angle_alpha  89.984346
_cell_angle_beta   90.012925
_cell_angle_gamma 90.012146
loop_
_atom_site_label
_atom_site_type_symbol
_atom_site_fract_x
_atom_site_fract_y
_atom_site_fract_z
_atom_type_partial_charge
Li0 Li 0.97725 0.23575 0.49766 0.0
Li1 Li 0.99514 0.25989 0.52314 0.0
Li2 Li 0.00059 0.26375 0.4831 0.0
Li3 Li 0.01714 0.23373 0.50317 0.0
C4 C 0.95274 0.27065 0.49598 0.0
N5 N 0.90966 0.27643 0.48684 0.0
C6 C 0.9379 0.27304 0.51267 0.0
C7 C 0.94574 0.27148 0.47464 0.0
C8 C 0.91616 0.27587 0.50772 0.0
C9 C 0.92387 0.27434 0.47035 0.0
C10 C 0.99525 0.22244 0.5453 0.0
C11 C 0.01627 0.22001 0.5778 0.0
N12 N 0.999 0.21151 0.5882 0.0
C13 C 0.97776 0.21354 0.55625 0.0
C14 C 0.0147 0.22558 0.5561 0.0
C15 C 0.97996 0.20818 0.57797 0.0
C16 C 0.95045 0.20739 0.47443 0.0
N17 N 0.95195 0.21906 0.49284 0.0
C18 C 0.91781 0.20588 0.50472 0.0
C19 C 0.93613 0.21851 0.50794 0.0
C20 C 0.91577 0.19381 0.48574 0.0
C21 C 0.93236 0.19472 0.47045 0.0
H22 H 0.96346 0.20762 0.46295 0.0
H23 H 0.9378 0.2278 0.52254 0.0
C24 C 0.00545 0.29291 0.5522 0.0
N25 N 0.99213 0.27586 0.5491 0.0
C26 C 0.003 0.30611 0.5702 0.0
C27 C 0.97322 0.28387 0.5816 0.0
C28 C 0.97627 0.27109 0.56337 0.0
C29 C 0.98654 0.30182 0.58507 0.0
H30 H 0.01763 0.29663 0.54037 0.0
H31 H 0.96566 0.25766 0.56036 0.0
C32 C 0.00525 0.23084 0.45439 0.0
N33 N 0.01495 0.22749 0.41115 0.0
C34 C 0.02575 0.2243 0.44788 0.0
C35 C 0.98965 0.23556 0.4389 0.0
C36 C 0.03034 0.22273 0.42595 0.0
C37 C 0.99488 0.23381 0.41712 0.0
C38 C 0.04365 0.26953 0.50776 0.0
C39 C 0.05489 0.27495 0.48907 0.0
C40 C 0.05446 0.26898 0.52746 0.0
C41 C 0.07687 0.27944 0.49036 0.0
C42 C 0.07646 0.27353 0.52808 0.0
N43 N 0.08712 0.27861 0.50967 0.0
C44 C 0.99359 0.30441 0.46682 0.0
C45 C 0.01487 0.2837 0.44296 0.0
C46 C 0.99488 0.32218 0.4532 0.0
N47 N 0.00348 0.28564 0.46156 0.0
C48 C 0.01637 0.30105 0.4287 0.0
C49 C 0.00645 0.32065 0.4339 0.0
H50 H 0.98487 0.30566 0.48181 0.0
H51 H 0.02325 0.26897 0.43933 0.0
C52 C 0.03535 0.19482 0.51568 0.0
N53 N 0.04047 0.2137 0.5059 0.0
C54 C 0.05108 0.17928 0.51939 0.0
C55 C 0.07705 0.20231 0.50194 0.0
C56 C 0.0608 0.21755 0.49875 0.0
C57 C 0.07229 0.183 0.51265 0.0
H58 H 0.01898 0.19184 0.52071 0.0
H59 H 0.06448 0.23232 0.49047 0.0
O60 O 0.97403 0.26747 0.50049 0.0
O61 O 0.99333 0.22806 0.52411 0.0
O62 O 0.00042 0.23228 0.47581 0.0
O63 O 0.02207 0.26528 0.50683 0.0
H64 H 0.94307 0.27251 0.52927 0.0
H65 H 0.95708 0.26993 0.46155 0.0
H66 H 0.90446 0.27759 0.52048 0.0
H67 H 0.91821 0.27491 0.45391 0.0
H68 H 0.03123 0.22241 0.58637 0.0
H69 H 0.96262 0.21086 0.54811 0.0
H70 H 0.02844 0.23221 0.54778 0.0
H71 H 0.96652 0.20136 0.58667 0.0
H72 H 0.90533 0.20564 0.51687 0.0
H73 H 0.9316 0.18534 0.4558 0.0
H74 H 0.01337 0.31999 0.57198 0.0
H75 H 0.96041 0.27989 0.5927 0.0
H76 H 0.03797 0.22048 0.45961 0.0
H77 H 0.97369 0.24057 0.44361 0.0
H78 H 0.04616 0.21773 0.42069 0.0
H79 H 0.98298 0.23749 0.40496 0.0
H80 H 0.04681 0.27545 0.4737 0.0
H81 H 0.04596 0.26521 0.54216 0.0
H82 H 0.0858 0.28352 0.47599 0.0
H83 H 0.08504 0.27309 0.54321 0.0
H84 H 0.98692 0.33699 0.45775 0.0
H85 H 0.02573 0.29937 0.41411 0.0
H86 H 0.04663 0.16441 0.5273 0.0
H87 H 0.09321 0.20575 0.49642 0.0
Li88 Li 0.73622 0.00192 0.51989 0.0
Li89 Li 0.76385 0.98091 0.50097 0.0
Li90 Li 0.76127 0.02096 0.49536 0.0
Li91 Li 0.73506 0.99608 0.48003 0.0
C92 C 0.77648 0.01235 0.54075 0.0
N93 N 0.794 0.02813 0.57846 0.0
C94 C 0.78737 0.99859 0.55482 0.0
C95 C 0.77486 0.03422 0.54572 0.0
C96 C 0.796 0.00685 0.57385 0.0
C97 C 0.78373 0.04187 0.56489 0.0
C98 C 0.73198 0.95336 0.5089 0.0
C99 C 0.73705 0.91606 0.49951 0.0
N100 N 0.73159 0.9103 0.5199 0.0
C101 C 0.72627 0.94706 0.52971 0.0
C102 C 0.73726 0.93774 0.49362 0.0
C103 C 0.72622 0.92521 0.53497 0.0
C104 C 0.69812 0.00905 0.54289 0.0
N105 N 0.71923 0.00386 0.54528 0.0
C106 C 0.71492 0.00093 0.58336 0.0
C107 C 0.72773 0.9996 0.56497 0.0
C108 C 0.69311 0.00642 0.5814 0.0
C109 C 0.68469 0.01043 0.56083 0.0
H110 H 0.69175 0.01213 0.52699 0.0
H111 H 0.74433 0.99484 0.56644 0.0
C112 C 0.79833 0.95358 0.48891 0.0
N113 N 0.7836 0.95774 0.50451 0.0
C114 C 0.81378 0.93753 0.49192 0.0
C115 C 0.79832 0.93013 0.52681 0.0
C116 C 0.78327 0.94635 0.52316 0.0
C117 C 0.81406 0.92572 0.51121 0.0
H118 H 0.79841 0.96307 0.47434 0.0
H119 H 0.77152 0.95011 0.53539 0.0
C120 C 0.72147 0.04317 0.49995 0.0
N121 N 0.70536 0.08403 0.5069 0.0
C122 C 0.71115 0.05426 0.48333 0.0
C123 C 0.72322 0.05273 0.52021 0.0
C124 C 0.70323 0.07494 0.48713 0.0
C125 C 0.71507 0.07342 0.52338 0.0
C126 C 0.76667 0.9963 0.45205 0.0
C127 C 0.76908 0.01483 0.43955 0.0
C128 C 0.76408 0.97636 0.44203 0.0
C129 C 0.76856 0.01311 0.41716 0.0
C130 C 0.7636 0.97532 0.41959 0.0
N131 N 0.76582 0.99357 0.40772 0.0
C132 C 0.79846 0.04608 0.4986 0.0
C133 C 0.77004 0.06366 0.48029 0.0
C134 C 0.81179 0.06394 0.49589 0.0
N135 N 0.77796 0.04633 0.49103 0.0
C136 C 0.78285 0.08185 0.47711 0.0
C137 C 0.80403 0.08215 0.48501 0.0
H138 H 0.80451 0.03191 0.50668 0.0
H139 H 0.7539 0.06328 0.47391 0.0
C140 C 0.70476 0.97307 0.45515 0.0
N141 N 0.71617 0.99168 0.45627 0.0
C142 C 0.69055 0.9695 0.43815 0.0
C143 C 0.6999 0.00441 0.42383 0.0
C144 C 0.71403 0.00726 0.44107 0.0
C145 C 0.68793 0.98532 0.42223 0.0
H146 H 0.70652 0.96107 0.46758 0.0
H147 H 0.72332 0.02189 0.44231 0.0
O148 O 0.76799 0.00449 0.522 0.0
O149 O 0.73229 0.97469 0.50351 0.0
O150 O 0.72926 0.02285 0.49647 0.0
O151 O 0.76676 0.99771 0.474 0.0
H152 H 0.78906 0.9817 0.55118 0.0
H153 H 0.76716 0.04528 0.53477 0.0
H154 H 0.80432 0.99633 0.58494 0.0
H155 H 0.78256 0.05875 0.56891 0.0
H156 H 0.74125 0.90382 0.48789 0.0
H157 H 0.72202 0.95889 0.54171 0.0
H158 H 0.74165 0.94233 0.47744 0.0
H159 H 0.72193 0.9201 0.55104 0.0
H160 H 0.72193 0.99733 0.59889 0.0
H161 H 0.66798 0.01484 0.55864 0.0
H162 H 0.82577 0.93489 0.47958 0.0
H163 H 0.79773 0.92126 0.54179 0.0
H164 H 0.70935 0.04705 0.46763 0.0
H165 H 0.73051 0.04421 0.53345 0.0
H166 H 0.69536 0.08375 0.47435 0.0
H167 H 0.71638 0.08101 0.53898 0.0
H168 H 0.77115 0.03038 0.44706 0.0
H169 H 0.7623 0.96186 0.45147 0.0
H170 H 0.77028 0.02733 0.40728 0.0
H171 H 0.76145 0.96001 0.41161 0.0
H172 H 0.82814 0.0633 0.50187 0.0
H173 H 0.77622 0.09555 0.46865 0.0
H174 H 0.68141 0.95468 0.43769 0.0
H175 H 0.69852 0.01692 0.41179 0.0
Li176 Li 0.02482 0.76345 0.49535 0.0
Li177 Li 0.0041 0.73721 0.51636 0.0
Li178 Li 0.00108 0.73966 0.47615 0.0
Li179 Li 0.9848 0.76748 0.49914 0.0
C180 C 0.04802 0.72832 0.49479 0.0
N181 N 0.09209 0.72293 0.49651 0.0
C182 C 0.05791 0.72232 0.51406 0.0
C183 C 0.0605 0.73141 0.47635 0.0
C184 C 0.08023 0.7197 0.51461 0.0
C185 C 0.08277 0.72867 0.47757 0.0
C186 C 0.00574 0.77317 0.54332 0.0
C187 C 0.984 0.7779 0.57511 0.0
N188 N 0.00203 0.78241 0.58665 0.0
C189 C 0.02401 0.77811 0.55545 0.0
C190 C 0.98554 0.7733 0.55318 0.0
C191 C 0.02182 0.78263 0.57735 0.0
C192 C 0.05331 0.79224 0.47559 0.0
N193 N 0.05111 0.77938 0.49312 0.0
C194 C 0.08576 0.79014 0.50604 0.0
C195 C 0.06687 0.77811 0.50827 0.0
C196 C 0.08848 0.80334 0.48792 0.0
C197 C 0.07198 0.80427 0.47256 0.0
H198 H 0.04048 0.79333 0.46397 0.0
H199 H 0.06484 0.7677 0.52203 0.0
C200 C 0.99118 0.6991 0.53513 0.0
N201 N 0.00286 0.71704 0.53951 0.0
C202 C 0.98744 0.68379 0.55106 0.0
C203 C 0.00904 0.7049 0.57552 0.0
C204 C 0.01218 0.71999 0.5591 0.0
C205 C 0.99614 0.68676 0.57166 0.0
H206 H 0.98436 0.69689 0.51929 0.0
H207 H 0.02187 0.73407 0.5621 0.0
C208 C 0.99929 0.7744 0.45175 0.0
N209 N 0.99134 0.77964 0.40834 0.0
C210 C 0.97995 0.78351 0.44482 0.0
C211 C 0.01468 0.76815 0.43659 0.0
C212 C 0.97621 0.78599 0.4228 0.0
C213 C 0.01033 0.77086 0.41472 0.0
C214 C 0.957 0.73172 0.50263 0.0
C215 C 0.94261 0.7261 0.48629 0.0
C216 C 0.94993 0.73205 0.52396 0.0
C217 C 0.92126 0.72142 0.49152 0.0
C218 C 0.92847 0.72725 0.52855 0.0
N219 N 0.91469 0.72211 0.51237 0.0
C220 C 0.01218 0.70688 0.44723 0.0
C221 C 0.98085 0.72608 0.43709 0.0
C222 C 0.01052 0.69383 0.42905 0.0
N223 N 0.99752 0.72267 0.45085 0.0
C224 C 0.97862 0.71346 0.41865 0.0
C225 C 0.99357 0.69704 0.41447 0.0
H226 H 0.02517 0.70436 0.45849 0.0
H227 H 0.9693 0.73863 0.44041 0.0
C228 C 0.96682 0.80592 0.51389 0.0
N229 N 0.96207 0.7878 0.50264 0.0
C230 C 0.95097 0.82126 0.51791 0.0
C231 C 0.92574 0.79952 0.49786 0.0
C232 C 0.9421 0.78451 0.49433 0.0
C233 C 0.93004 0.81807 0.51002 0.0
H234 H 0.98296 0.80838 0.5199 0.0
H235 H 0.93884 0.77032 0.4849 0.0
O236 O 0.02624 0.73125 0.49402 0.0
O237 O 0.00763 0.76865 0.52184 0.0
O238 O 0.00317 0.7717 0.47324 0.0
O239 O 0.97799 0.73633 0.49775 0.0
H240 H 0.04849 0.71987 0.52847 0.0
H241 H 0.05308 0.73604 0.46132 0.0
H242 H 0.08812 0.71515 0.52943 0.0
H243 H 0.09264 0.73115 0.46346 0.0
H244 H 0.96846 0.77799 0.58293 0.0
H245 H 0.03974 0.77834 0.5481 0.0
H246 H 0.97116 0.77014 0.54398 0.0
H247 H 0.03586 0.78634 0.58694 0.0
H248 H 0.09819 0.78896 0.51819 0.0
H249 H 0.07333 0.81453 0.45855 0.0
H250 H 0.97777 0.6698 0.54731 0.0
H251 H 0.01611 0.70769 0.5912 0.0
H252 H 0.96793 0.78858 0.4563 0.0
H253 H 0.02973 0.76105 0.44167 0.0
H254 H 0.96127 0.79295 0.41721 0.0
H255 H 0.02202 0.76594 0.40282 0.0
H256 H 0.9478 0.72548 0.46973 0.0
H257 H 0.96093 0.73567 0.5369 0.0
H258 H 0.90993 0.71722 0.47901 0.0
H259 H 0.92281 0.7275 0.545 0.0
H260 H 0.02253 0.68152 0.42635 0.0
H261 H 0.96516 0.71631 0.40796 0.0
H262 H 0.95509 0.83554 0.52698 0.0
H263 H 0.90983 0.79647 0.49145 0.0
Li264 Li 0.23644 0.01799 0.5016 0.0
Li265 Li 0.26524 0.99874 0.52067 0.0
Li266 Li 0.26522 0.00306 0.48045 0.0
Li267 Li 0.24039 0.97786 0.49747 0.0
C268 C 0.26736 0.047 0.50728 0.0
N269 N 0.266 0.09056 0.51601 0.0
C270 C 0.27325 0.05464 0.52757 0.0
C271 C 0.26102 0.06154 0.49134 0.0
C272 C 0.27241 0.07672 0.53169 0.0
C273 C 0.26036 0.08349 0.49609 0.0
C274 C 0.2258 0.987 0.54256 0.0
C275 C 0.22072 0.95749 0.56727 0.0
N276 N 0.20958 0.97072 0.58065 0.0
C277 C 0.21403 0.00021 0.55644 0.0
C278 C 0.22895 0.9654 0.54792 0.0
C279 C 0.20608 0.99172 0.57566 0.0
C280 C 0.2016 0.04528 0.48945 0.0
N281 N 0.21626 0.04082 0.50505 0.0
C282 C 0.20164 0.06821 0.52767 0.0
C283 C 0.21661 0.05197 0.52384 0.0
C284 C 0.18602 0.07297 0.51205 0.0
C285 C 0.18627 0.06144 0.49261 0.0
H286 H 0.20155 0.03603 0.47474 0.0
H287 H 0.2284 0.04805 0.536 0.0
C288 C 0.3037 0.99394 0.54433 0.0
N289 N 0.28246 0.99887 0.54601 0.0
C290 C 0.31706 0.99509 0.56237 0.0
C291 C 0.28643 0.0063 0.58349 0.0
C292 C 0.2737 0.00499 0.56506 0.0
C293 C 0.30849 0.00152 0.58227 0.0
H294 H 0.31031 0.98946 0.52888 0.0
H295 H 0.25695 0.0094 0.5659 0.0
C296 C 0.23273 0.00046 0.45341 0.0
N297 N 0.23202 0.00113 0.40899 0.0
C298 C 0.23047 0.98131 0.44187 0.0
C299 C 0.23438 0.01998 0.44237 0.0
C300 C 0.23019 0.98198 0.41941 0.0
C301 C 0.23408 0.01997 0.41991 0.0
C302 C 0.28143 0.95746 0.50186 0.0
C303 C 0.29172 0.94623 0.48532 0.0
C304 C 0.28095 0.94865 0.52254 0.0
C305 C 0.30081 0.92614 0.48961 0.0
C306 C 0.29024 0.92853 0.5262 0.0
N307 N 0.29987 0.91776 0.50979 0.0
C308 C 0.29364 0.02612 0.45323 0.0
C309 C 0.28516 0.99094 0.44128 0.0
C310 C 0.30682 0.02942 0.43535 0.0
N311 N 0.2831 0.00714 0.45582 0.0
C312 C 0.2983 0.99348 0.42324 0.0
C313 C 0.30934 0.01294 0.42011 0.0
H314 H 0.29194 0.03866 0.46513 0.0
H315 H 0.27652 0.97605 0.44365 0.0
C316 C 0.20426 0.95125 0.50214 0.0
N317 N 0.22469 0.95166 0.49437 0.0
C318 C 0.19163 0.93282 0.49993 0.0
C319 C 0.22116 0.91564 0.48139 0.0
C320 C 0.23325 0.93439 0.48406 0.0
C321 C 0.20002 0.9147 0.48935 0.0
H322 H 0.19769 0.96537 0.50988 0.0
H323 H 0.24929 0.93527 0.4775 0.0
O324 O 0.26782 0.02541 0.50304 0.0
O325 O 0.23363 0.9951 0.52362 0.0
O326 O 0.23343 8e-05 0.47539 0.0
O327 O 0.27253 0.97722 0.4979 0.0
H328 H 0.27835 0.04367 0.54006 0.0
H329 H 0.25647 0.05592 0.47554 0.0
H330 H 0.27683 0.08284 0.54736 0.0
H331 H 0.25532 0.09489 0.48396 0.0
H332 H 0.22308 0.9408 0.57158 0.0
H333 H 0.21111 0.01687 0.55248 0.0
H334 H 0.23731 0.9547 0.53712 0.0
H335 H 0.19708 0.00183 0.58659 0.0
H336 H 0.20224 0.07688 0.54276 0.0
H337 H 0.17437 0.06441 0.48024 0.0
H338 H 0.33403 0.99158 0.56058 0.0
H339 H 0.27907 0.01115 0.5985 0.0
H340 H 0.22911 0.96608 0.45014 0.0
H341 H 0.23603 0.03495 0.45105 0.0
H342 H 0.22857 0.96727 0.41026 0.0
H343 H 0.23549 0.03495 0.41116 0.0
H344 H 0.29259 0.95288 0.46929 0.0
H345 H 0.27375 0.95733 0.53572 0.0
H346 H 0.30866 0.91722 0.4769 0.0
H347 H 0.28991 0.92153 0.54213 0.0
H348 H 0.31527 0.04457 0.43369 0.0
H349 H 0.29963 0.98046 0.41176 0.0
H350 H 0.17529 0.93296 0.50593 0.0
H351 H 0.22827 0.90204 0.47316 0.0
Li352 Li 0.50053 0.01622 0.23429 0.0
Li353 Li 0.47898 0.99937 0.26162 0.0
Li354 Li 0.51777 0.99699 0.2632 0.0
Li355 Li 0.49831 0.97747 0.23605 0.0
C356 C 0.48881 0.04206 0.26908 0.0
N357 N 0.46618 0.07956 0.27656 0.0
C358 C 0.47179 0.04789 0.25559 0.0
C359 C 0.49432 0.05531 0.28637 0.0
C360 C 0.46054 0.06691 0.25964 0.0
C361 C 0.48269 0.07421 0.28988 0.0
C362 C 0.45648 0.98684 0.22474 0.0
C363 C 0.4308 0.95872 0.23215 0.0
N364 N 0.41971 0.96425 0.21412 0.0
C365 C 0.44484 0.99225 0.2063 0.0
C366 C 0.44942 0.96994 0.23779 0.0
C367 C 0.42629 0.98064 0.2012 0.0
C368 C 0.49964 0.03191 0.19313 0.0
N369 N 0.50305 0.03863 0.21362 0.0
C370 C 0.51129 0.07415 0.20135 0.0
C371 C 0.50879 0.05928 0.21807 0.0
C372 C 0.50824 0.06748 0.17997 0.0
C373 C 0.50218 0.0461 0.17599 0.0
H374 H 0.49526 0.01534 0.19013 0.0
H375 H 0.51178 0.06412 0.2345 0.0
C376 C 0.45533 0.99601 0.29988 0.0
N377 N 0.45389 0.00225 0.27899 0.0
C378 C 0.43792 0.99887 0.31379 0.0
C379 C 0.41783 0.01443 0.28436 0.0
C380 C 0.43559 0.01118 0.27101 0.0
C381 C 0.41891 0.0084 0.30611 0.0
H382 H 0.47018 0.98917 0.30582 0.0
H383 H 0.43487 0.01607 0.25434 0.0
C384 C 0.54311 0.00621 0.22785 0.0
N385 N 0.58076 0.0282 0.21912 0.0
C386 C 0.5576 0.99824 0.21263 0.0
C387 C 0.54783 0.02535 0.23868 0.0
C388 C 0.57654 0.00959 0.20844 0.0
C389 C 0.56693 0.03623 0.23402 0.0
C390 C 0.50683 0.95513 0.27418 0.0
C391 C 0.52461 0.94745 0.26277 0.0
C392 C 0.49965 0.94402 0.29234 0.0
C393 C 0.53496 0.92878 0.26977 0.0
C394 C 0.51042 0.9254 0.29884 0.0
N395 N 0.52771 0.91824 0.28752 0.0
C396 C 0.54029 0.00292 0.30243 0.0
C397 C 0.56004 0.98507 0.27516 0.0
C398 C 0.55724 0.00015 0.31698 0.0
N399 N 0.54194 0.99522 0.28204 0.0
C400 C 0.57727 0.98189 0.28914 0.0
C401 C 0.57591 0.9892 0.31045 0.0
H402 H 0.52562 0.01077 0.30752 0.0
H403 H 0.56097 0.97897 0.25892 0.0
C404 C 0.511 0.9539 0.20057 0.0
N405 N 0.49869 0.95234 0.21855 0.0
C406 C 0.51442 0.93595 0.18762 0.0
C407 C 0.49138 0.91529 0.21118 0.0
C408 C 0.48873 0.93361 0.22398 0.0
C409 C 0.50474 0.91632 0.19302 0.0
H410 H 0.51854 0.96904 0.19657 0.0
H411 H 0.47921 0.93274 0.23851 0.0
O412 O 0.49998 0.02342 0.26566 0.0
O413 O 0.47468 0.99811 0.22982 0.0
O414 O 0.52447 0.99522 0.23203 0.0
O415 O 0.49641 0.97342 0.26775 0.0
H416 H 0.46728 0.03788 0.24211 0.0
H417 H 0.50744 0.051 0.29698 0.0
H418 H 0.44733 0.0716 0.24933 0.0
H419 H 0.48677 0.08461 0.30322 0.0
H420 H 0.42516 0.94561 0.2421 0.0
H421 H 0.45011 0.0053 0.19604 0.0
H422 H 0.45817 0.96552 0.25215 0.0
H423 H 0.41712 0.98465 0.18697 0.0
H424 H 0.51616 0.09047 0.20501 0.0
H425 H 0.49948 0.0404 0.15975 0.0
H426 H 0.43956 0.99424 0.3305 0.0
H427 H 0.40341 0.02162 0.27773 0.0
H428 H 0.55431 0.98339 0.20419 0.0
H429 H 0.53696 0.03179 0.25059 0.0
H430 H 0.58788 0.00359 0.1967 0.0
H431 H 0.57075 0.05107 0.24227 0.0
H432 H 0.53042 0.9558 0.24868 0.0
H433 H 0.48588 0.94974 0.30133 0.0
H434 H 0.54875 0.92269 0.26111 0.0
H435 H 0.50505 0.91665 0.31288 0.0
H436 H 0.55546 0.00588 0.33333 0.0
H437 H 0.59147 0.97364 0.28334 0.0
H438 H 0.52467 0.93733 0.17359 0.0
H439 H 0.48375 0.90032 0.21581 0.0
Li440 Li 0.97848 0.49778 0.23846 0.0
Li441 Li 0.00385 0.48247 0.26607 0.0
Li442 Li 0.99894 0.52088 0.2626 0.0
Li443 Li 0.01897 0.50161 0.2362 0.0
C444 C 0.96807 0.50743 0.28835 0.0
N445 N 0.95186 0.52625 0.32519 0.0
C446 C 0.97852 0.50456 0.30805 0.0
C447 C 0.94937 0.51987 0.28739 0.0
C448 C 0.97007 0.51421 0.32649 0.0
C449 C 0.94142 0.52924 0.3062 0.0
C450 C 0.99921 0.45313 0.23538 0.0
C451 C 0.01506 0.4179 0.23878 0.0
N452 N 0.99514 0.40893 0.23746 0.0
C453 C 0.97891 0.44358 0.23392 0.0
C454 C 0.01746 0.44021 0.23768 0.0
C455 C 0.97719 0.4212 0.23505 0.0
C456 C 0.95483 0.49531 0.20034 0.0
N457 N 0.95293 0.49495 0.2221 0.0
C458 C 0.9146 0.49538 0.21953 0.0
C459 C 0.93337 0.49442 0.23184 0.0
C460 C 0.91607 0.49663 0.19701 0.0
C461 C 0.9365 0.49608 0.18739 0.0
H462 H 0.97064 0.49584 0.19309 0.0
H463 H 0.93236 0.49379 0.24917 0.0
C464 C 0.02498 0.4607 0.2996 0.0
N465 N 0.0074 0.4599 0.28664 0.0
C466 C 0.02714 0.44636 0.31671 0.0
C467 C 0.99324 0.43022 0.30666 0.0
C468 C 0.99165 0.44504 0.2898 0.0
C469 C 0.01098 0.4311 0.32063 0.0
H470 H 0.03694 0.47306 0.29726 0.0
H471 H 0.97747 0.4452 0.27975 0.0
C472 C 0.99252 0.54447 0.22674 0.0
N473 N 0.9851 0.5875 0.21839 0.0
C474 C 0.00833 0.55979 0.23134 0.0
C475 C 0.97293 0.55106 0.21786 0.0
C476 C 0.00426 0.58146 0.22704 0.0
C477 C 0.9695 0.57288 0.21375 0.0
C478 C 0.04795 0.50666 0.26547 0.0
C479 C 0.05815 0.52662 0.26731 0.0
C480 C 0.06023 0.48827 0.2614 0.0
C481 C 0.08047 0.52784 0.26497 0.0
C482 C 0.0825 0.49016 0.25913 0.0
N483 N 0.09207 0.50975 0.26095 0.0
C484 C 0.01058 0.55014 0.29534 0.0
C485 C 0.97991 0.56085 0.27544 0.0
C486 C 0.00921 0.56857 0.30808 0.0
N487 N 0.99628 0.54682 0.27915 0.0
C488 C 0.97793 0.57949 0.28777 0.0
C489 C 0.99278 0.58361 0.30429 0.0
H490 H 0.02296 0.53836 0.29851 0.0
H491 H 0.96819 0.55746 0.26308 0.0
C492 C 0.04534 0.48605 0.20215 0.0
N493 N 0.04171 0.50298 0.2155 0.0
C494 C 0.06071 0.48759 0.18579 0.0
C495 C 0.06868 0.52372 0.19765 0.0
C496 C 0.05309 0.52154 0.21357 0.0
C497 C 0.07239 0.50679 0.18317 0.0
H498 H 0.0359 0.47154 0.20383 0.0
H499 H 0.0499 0.53482 0.22422 0.0
O500 O 0.97649 0.49863 0.27002 0.0
O501 O 0.00119 0.47502 0.23454 0.0
O502 O 0.99613 0.52315 0.23084 0.0
O503 O 0.02607 0.50512 0.26745 0.0
H504 H 0.99318 0.49527 0.30906 0.0
H505 H 0.94131 0.52266 0.27223 0.0
H506 H 0.97805 0.5122 0.34182 0.0
H507 H 0.92705 0.53903 0.30566 0.0
H508 H 0.02903 0.40771 0.24067 0.0
H509 H 0.96462 0.45332 0.23215 0.0
H510 H 0.03329 0.44733 0.23866 0.0
H511 H 0.96157 0.41358 0.23406 0.0
H512 H 0.89913 0.49548 0.22752 0.0
H513 H 0.93832 0.49721 0.17011 0.0
H514 H 0.0411 0.44754 0.32707 0.0
H515 H 0.98027 0.4189 0.30936 0.0
H516 H 0.02332 0.5551 0.23875 0.0
H517 H 0.96046 0.53948 0.21426 0.0
H518 H 0.01628 0.59349 0.23071 0.0
H519 H 0.95441 0.5782 0.20691 0.0
H520 H 0.04895 0.5411 0.27011 0.0
H521 H 0.05261 0.47272 0.25987 0.0
H522 H 0.08855 0.5432 0.26623 0.0
H523 H 0.09216 0.47607 0.25589 0.0
H524 H 0.02103 0.57108 0.32063 0.0
H525 H 0.96469 0.59036 0.28464 0.0
H526 H 0.06286 0.4742 0.17487 0.0
H527 H 0.07756 0.53867 0.19656 0.0
Li528 Li 0.4805 0.99862 0.73862 0.0
Li529 Li 0.50309 0.98182 0.76603 0.0
Li530 Li 0.50019 0.02097 0.76329 0.0
Li531 Li 0.51967 7e-05 0.73628 0.0
C532 C 0.4683 0.00971 0.78756 0.0
N533 N 0.45237 0.03109 0.8231 0.0
C534 C 0.47396 0.003 0.80826 0.0
C535 C 0.4545 0.02727 0.78495 0.0
C536 C 0.46572 0.01401 0.82602 0.0
C537 C 0.44665 0.03789 0.80312 0.0
C538 C 0.49892 0.95272 0.7361 0.0
C539 C 0.51418 0.91761 0.74228 0.0
N540 N 0.49427 0.90874 0.74035 0.0
C541 C 0.47862 0.94327 0.73411 0.0
C542 C 0.51687 0.93981 0.74013 0.0
C543 C 0.4766 0.921 0.73632 0.0
C544 C 0.45672 0.99133 0.70073 0.0
N545 N 0.45493 0.99637 0.72192 0.0
C546 C 0.41721 0.00241 0.71805 0.0
C547 C 0.43561 0.0013 0.73085 0.0
C548 C 0.41872 0.99835 0.69586 0.0
C549 C 0.43874 0.99229 0.68731 0.0
H550 H 0.47231 0.98737 0.69411 0.0
H551 H 0.43459 0.0049 0.7478 0.0
C552 C 0.52335 0.95753 0.79841 0.0
N553 N 0.50516 0.95901 0.78641 0.0
C554 C 0.52458 0.94289 0.81534 0.0
C555 C 0.48847 0.93113 0.80701 0.0
C556 C 0.48792 0.94609 0.79023 0.0
C557 C 0.50684 0.92975 0.82011 0.0
H558 H 0.53664 0.96828 0.79537 0.0
H559 H 0.47344 0.948 0.78078 0.0
C560 C 0.48906 0.03218 0.71424 0.0
N561 N 0.46778 0.04725 0.67824 0.0
C562 C 0.49743 0.02835 0.69374 0.0
C563 C 0.4699 0.04375 0.71643 0.0
C564 C 0.48644 0.03612 0.67574 0.0
C565 C 0.45935 0.05118 0.69803 0.0
C566 C 0.54788 0.00665 0.76687 0.0
C567 C 0.55607 0.02747 0.76914 0.0
C568 C 0.56195 0.98952 0.76313 0.0
C569 C 0.57824 0.0308 0.76754 0.0
C570 C 0.584 0.99353 0.76158 0.0
N571 N 0.59162 0.01391 0.7638 0.0
C572 C 0.50893 0.04593 0.79986 0.0
C573 C 0.49281 0.06545 0.77137 0.0
C574 C 0.50977 0.0644 0.81257 0.0
N575 N 0.50056 0.0468 0.77969 0.0
C576 C 0.49314 0.08428 0.78359 0.0
C577 C 0.5018 0.08396 0.80449 0.0
H578 H 0.51513 0.03087 0.80598 0.0
H579 H 0.48636 0.06573 0.75526 0.0
C580 C 0.55096 0.98343 0.70703 0.0
N581 N 0.54372 0.00122 0.71745 0.0
C582 C 0.5692 0.98468 0.69394 0.0
C583 C 0.57196 0.02252 0.70251 0.0
C584 C 0.55357 0.0206 0.71518 0.0
C585 C 0.58005 0.00439 0.69179 0.0
H586 H 0.5427 0.96826 0.70901 0.0
H587 H 0.54722 0.03452 0.72343 0.0
O588 O 0.47666 0.99951 0.76994 0.0
O589 O 0.50118 0.97452 0.73432 0.0
O590 O 0.49935 0.02433 0.73205 0.0
O591 O 0.52617 0.00311 0.7679 0.0
H592 H 0.48477 0.9896 0.81063 0.0
H593 H 0.45025 0.03294 0.76906 0.0
H594 H 0.47003 0.00904 0.84213 0.0
H595 H 0.4361 0.0516 0.80132 0.0
H596 H 0.52791 0.90743 0.74553 0.0
H597 H 0.46454 0.95304 0.73108 0.0
H598 H 0.53268 0.94689 0.74182 0.0
H599 H 0.46098 0.91347 0.73491 0.0
H600 H 0.40201 0.00671 0.7254 0.0
H601 H 0.44071 0.9892 0.67029 0.0
H602 H 0.53911 0.94222 0.82493 0.0
H603 H 0.47434 0.92149 0.81032 0.0
H604 H 0.51213 0.0193 0.69169 0.0
H605 H 0.46296 0.04654 0.73213 0.0
H606 H 0.4927 0.03321 0.65977 0.0
H607 H 0.4444 0.05996 0.69948 0.0
H608 H 0.54543 0.04096 0.77179 0.0
H609 H 0.55588 0.97334 0.7611 0.0
H610 H 0.58478 0.04684 0.76915 0.0
H611 H 0.59506 0.98045 0.75853 0.0
H612 H 0.51693 0.06339 0.82841 0.0
H613 H 0.48652 0.09887 0.77677 0.0
H614 H 0.575 0.97034 0.68594 0.0
H615 H 0.57969 0.03806 0.70099 0.0
Li616 Li 0.99914 0.51875 0.73289 0.0
Li617 Li 0.98043 0.50063 0.76277 0.0
Li618 Li 0.02102 0.50074 0.75947 0.0
Li619 Li 0.99905 0.47842 0.73545 0.0
C620 C 0.00014 0.5472 0.76455 0.0
N621 N 0.99841 0.59161 0.76456 0.0
C622 C 0.9818 0.55778 0.77206 0.0
C623 C 0.01772 0.55921 0.75732 0.0
C624 C 0.9812 0.58025 0.77187 0.0
C625 C 0.0165 0.58165 0.75736 0.0
C626 C 0.9535 0.49344 0.72732 0.0
C627 C 0.92409 0.46816 0.72852 0.0
N628 N 0.91116 0.48288 0.71879 0.0
C629 C 0.93999 0.50822 0.71709 0.0
C630 C 0.94554 0.47317 0.73289 0.0
C631 C 0.91861 0.50262 0.71302 0.0
C632 C 0.01168 0.54543 0.69788 0.0
N633 N 0.99679 0.54244 0.7136 0.0
C634 C 0.97667 0.57279 0.70133 0.0
C635 C 0.97956 0.55573 0.71561 0.0
C636 C 0.99156 0.57611 0.68466 0.0
C637 C 0.0094 0.5623 0.68318 0.0
H638 H 0.02511 0.53448 0.69651 0.0
H639 H 0.96791 0.55293 0.72821 0.0
C640 C 0.95758 0.49341 0.80167 0.0
N641 N 0.95652 0.5026 0.78185 0.0
C642 C 0.94048 0.49557 0.8161 0.0
C643 C 0.92158 0.51665 0.78946 0.0
C644 C 0.93902 0.5141 0.7756 0.0
C645 C 0.92221 0.50748 0.81011 0.0
H646 H 0.97188 0.48469 0.8064 0.0
H647 H 0.9388 0.52177 0.76003 0.0
C648 C 0.04458 0.49568 0.72403 0.0
N649 N 0.08824 0.49051 0.7176 0.0
C650 C 0.05302 0.47531 0.71973 0.0
C651 C 0.0583 0.51347 0.72482 0.0
C652 C 0.07515 0.47302 0.71657 0.0
C653 C 0.08035 0.51051 0.72161 0.0
C654 C 0.99988 0.45592 0.7747 0.0
C655 C 0.01855 0.44429 0.77933 0.0
C656 C 0.97979 0.44639 0.77804 0.0
C657 C 0.01683 0.42313 0.78668 0.0
C658 C 0.97873 0.4252 0.78542 0.0
N659 N 0.99711 0.41408 0.78952 0.0
C660 C 0.04865 0.52045 0.78906 0.0
C661 C 0.06309 0.48821 0.77484 0.0
C662 C 0.06702 0.52368 0.8015 0.0
N663 N 0.04705 0.50306 0.77591 0.0
C664 C 0.08173 0.49069 0.78722 0.0
C665 C 0.08387 0.5087 0.80067 0.0
H666 H 0.03556 0.53181 0.79004 0.0
H667 H 0.0615 0.47445 0.76437 0.0
C668 C 0.98398 0.45491 0.7005 0.0
N669 N 0.99641 0.45284 0.71837 0.0
C670 C 0.97982 0.4372 0.68741 0.0
C671 C 0.00258 0.41567 0.71039 0.0
C672 C 0.00599 0.43379 0.72332 0.0
C673 C 0.98903 0.41723 0.6924 0.0
H674 H 0.97709 0.47035 0.69647 0.0
H675 H 0.01634 0.4326 0.73718 0.0
O676 O 0.00092 0.5252 0.76433 0.0
O677 O 0.97446 0.49873 0.73156 0.0
O678 O 0.02297 0.49821 0.72728 0.0
O679 O 0.0013 0.47672 0.76759 0.0
H680 H 0.96813 0.54878 0.77791 0.0
H681 H 0.0321 0.55129 0.75163 0.0
H682 H 0.96706 0.58864 0.77753 0.0
H683 H 0.02993 0.59113 0.75167 0.0
H684 H 0.91774 0.45253 0.73278 0.0
H685 H 0.9459 0.52388 0.7124 0.0
H686 H 0.9559 0.46133 0.74021 0.0
H687 H 0.90795 0.51396 0.70525 0.0
H688 H 0.96284 0.58319 0.70327 0.0
H689 H 0.02112 0.56408 0.67042 0.0
H690 H 0.94182 0.48853 0.83197 0.0
H691 H 0.90779 0.52583 0.78408 0.0
H692 H 0.04263 0.46139 0.71896 0.0
H693 H 0.05203 0.52937 0.72795 0.0
H694 H 0.08192 0.45732 0.71333 0.0
H695 H 0.09117 0.52412 0.72231 0.0
H696 H 0.03422 0.45143 0.77709 0.0
H697 H 0.96515 0.4553 0.77522 0.0
H698 H 0.03116 0.4139 0.79014 0.0
H699 H 0.96328 0.41762 0.78798 0.0
H700 H 0.06786 0.53758 0.81197 0.0
H701 H 0.09441 0.4788 0.7861 0.0
H702 H 0.96963 0.43913 0.67341 0.0
H703 H 0.0101 0.40053 0.71463 0.0
Li704 Li 0.23341 0.4952 0.0141 0.0
Li705 Li 0.26278 0.47754 0.99509 0.0
Li706 Li 0.2619 0.51676 0.99861 0.0
Li707 Li 0.23705 0.49886 0.974 0.0
C708 C 0.26667 0.49022 0.0429 0.0
N709 N 0.27129 0.48061 0.08605 0.0
C710 C 0.2732 0.46967 0.04928 0.0
C711 C 0.26267 0.50594 0.05848 0.0
C712 C 0.27538 0.46511 0.07117 0.0
C713 C 0.26506 0.50075 0.08021 0.0
C714 C 0.22491 0.45209 0.99627 0.0
C715 C 0.20907 0.41828 0.98575 0.0
N716 N 0.21203 0.41071 0.00606 0.0
C717 C 0.22781 0.44397 0.017 0.0
C718 C 0.21548 0.43917 0.98047 0.0
C719 C 0.22119 0.42301 0.02165 0.0
C720 C 0.19386 0.50605 0.03062 0.0
N721 N 0.21175 0.49474 0.03607 0.0
C722 C 0.1974 0.48794 0.07115 0.0
C723 C 0.21353 0.48521 0.0557 0.0
C724 C 0.17921 0.50043 0.06625 0.0
C725 C 0.17735 0.50908 0.04546 0.0
H726 H 0.19258 0.51312 0.01479 0.0
H727 H 0.22758 0.47585 0.05968 0.0
C728 C 0.30357 0.46179 0.99377 0.0
N729 N 0.28295 0.45456 0.9936 0.0
C730 C 0.32062 0.44749 0.99133 0.0
C731 C 0.29502 0.41828 0.98931 0.0
C732 C 0.27835 0.43326 0.99146 0.0
C733 C 0.31643 0.42546 0.98891 0.0
H734 H 0.30669 0.47883 0.9954 0.0
H735 H 0.26188 0.42785 0.99098 0.0
C736 C 0.22842 0.54272 0.99836 0.0
N737 N 0.22529 0.58669 0.00374 0.0
C738 C 0.22598 0.55612 0.98048 0.0
C739 C 0.22903 0.55162 0.01898 0.0
C740 C 0.22448 0.57833 0.98354 0.0
C741 C 0.2275 0.57391 0.02136 0.0
C742 C 0.27563 0.48993 0.95398 0.0
C743 C 0.29299 0.4983 0.94243 0.0
C744 C 0.26537 0.47129 0.9467 0.0
C745 C 0.29982 0.48788 0.92374 0.0
C746 C 0.27268 0.46133 0.92795 0.0
N747 N 0.2896 0.46976 0.91695 0.0
C748 C 0.29066 0.5436 0.021 0.0
C749 C 0.2807 0.55689 0.98671 0.0
C750 C 0.30354 0.56159 0.02468 0.0
N751 N 0.27936 0.54171 0.00241 0.0
C752 C 0.29342 0.57521 0.98971 0.0
C753 C 0.30496 0.57778 0.00899 0.0
H754 H 0.28989 0.53103 0.03293 0.0
H755 H 0.27186 0.55478 0.97188 0.0
C756 C 0.20157 0.49203 0.94703 0.0
N757 N 0.22126 0.50145 0.94805 0.0
C758 C 0.18884 0.49438 0.92868 0.0
C759 C 0.217 0.51594 0.91272 0.0
C760 C 0.22919 0.51316 0.93139 0.0
C761 C 0.19643 0.50663 0.91126 0.0
H762 H 0.19559 0.48304 0.96067 0.0
H763 H 0.24486 0.5206 0.93274 0.0
O764 O 0.26471 0.49505 0.02152 0.0
O765 O 0.2313 0.47254 0.99132 0.0
O766 O 0.23032 0.521 0.99568 0.0
O767 O 0.26893 0.49993 0.97239 0.0
H768 H 0.27649 0.45734 0.03747 0.0
H769 H 0.25762 0.52193 0.05386 0.0
H770 H 0.28034 0.44925 0.07633 0.0
H771 H 0.26192 0.51272 0.09243 0.0
H772 H 0.20177 0.40809 0.97369 0.0
H773 H 0.23532 0.45365 0.02928 0.0
H774 H 0.21322 0.44519 0.9643 0.0
H775 H 0.22339 0.41651 0.03764 0.0
H776 H 0.19953 0.48096 0.08696 0.0
H777 H 0.16337 0.51832 0.04074 0.0
H778 H 0.33694 0.4536 0.99127 0.0
H779 H 0.29122 0.4014 0.9873 0.0
H780 H 0.22546 0.54944 0.96442 0.0
H781 H 0.23077 0.54142 0.03297 0.0
H782 H 0.22272 0.58892 0.96985 0.0
H783 H 0.22807 0.58104 0.03721 0.0
H784 H 0.30112 0.51271 0.94789 0.0
H785 H 0.25194 0.46453 0.95542 0.0
H786 H 0.31324 0.49418 0.91464 0.0
H787 H 0.2649 0.44689 0.92215 0.0
H788 H 0.31257 0.5626 0.03954 0.0
H789 H 0.29404 0.58731 0.9772 0.0
H790 H 0.17296 0.48722 0.92843 0.0
H791 H 0.22357 0.52534 0.89961 0.0
Li792 Li 0.52507 0.26191 0.00067 0.0
Li793 Li 0.50283 0.23393 0.01672 0.0
Li794 Li 0.50465 0.23913 0.97768 0.0
Li795 Li 0.48551 0.26556 0.99863 0.0
C796 C 0.54915 0.22733 0.00036 0.0
N797 N 0.59286 0.22227 0.00646 0.0
C798 C 0.55721 0.22252 0.02078 0.0
C799 C 0.56326 0.22934 0.98299 0.0
C800 C 0.57937 0.22008 0.02354 0.0
C801 C 0.58532 0.22679 0.98642 0.0
C802 C 0.49229 0.26924 0.04281 0.0
C803 C 0.46002 0.26417 0.06371 0.0
N804 N 0.46768 0.27814 0.0787 0.0
C805 C 0.49983 0.28357 0.05839 0.0
C806 C 0.47222 0.25946 0.04545 0.0
C807 C 0.48715 0.28785 0.07643 0.0
C808 C 0.55804 0.29136 0.98922 0.0
N809 N 0.55075 0.27804 0.00494 0.0
C810 C 0.57828 0.2901 0.02889 0.0
C811 C 0.56049 0.27712 0.02448 0.0
C812 C 0.58592 0.30441 0.01313 0.0
C813 C 0.57572 0.3047 0.99296 0.0
H814 H 0.54972 0.29222 0.97403 0.0
H815 H 0.55411 0.26664 0.03681 0.0
C816 C 0.50085 0.19202 0.03125 0.0
N817 N 0.50214 0.21254 0.0386 0.0
C818 C 0.50266 0.17474 0.04541 0.0
C819 C 0.50713 0.19997 0.07464 0.0
C820 C 0.50518 0.21682 0.05985 0.0
C821 C 0.50621 0.17857 0.0674 0.0
H822 H 0.49919 0.18909 0.0142 0.0
H823 H 0.50694 0.23323 0.06526 0.0
C824 C 0.50789 0.27586 0.95473 0.0
N825 N 0.50919 0.28561 0.91139 0.0
C826 C 0.49056 0.28637 0.94498 0.0
C827 C 0.52593 0.27046 0.94246 0.0
C828 C 0.49152 0.29114 0.92304 0.0
C829 C 0.52626 0.27547 0.92057 0.0
C830 C 0.46381 0.22578 0.98189 0.0
C831 C 0.45322 0.23868 0.96682 0.0
C832 C 0.45979 0.20367 0.98233 0.0
C833 C 0.43882 0.22923 0.9524 0.0
C834 C 0.44529 0.19482 0.96761 0.0
N835 N 0.4352 0.20768 0.95307 0.0
C836 C 0.51589 0.20413 0.95162 0.0
C837 C 0.49338 0.22913 0.93373 0.0
C838 C 0.51629 0.19094 0.93346 0.0
N839 N 0.50465 0.22289 0.95143 0.0
C840 C 0.49354 0.21658 0.91515 0.0
C841 C 0.50508 0.1972 0.91489 0.0
H842 H 0.52445 0.19933 0.96598 0.0
H843 H 0.48405 0.24374 0.93401 0.0
C844 C 0.46963 0.3069 0.99652 0.0
N845 N 0.4631 0.28625 0.99927 0.0
C846 C 0.45456 0.3233 0.99411 0.0
C847 C 0.4262 0.29705 0.99857 0.0
C848 C 0.4419 0.2811 0.00095 0.0
C849 C 0.4325 0.3184 0.99453 0.0
H850 H 0.48663 0.31048 0.99544 0.0
H851 H 0.43717 0.26454 0.00338 0.0
O852 O 0.52754 0.23014 0.99738 0.0
O853 O 0.50453 0.26505 0.02503 0.0
O854 O 0.50726 0.27112 0.97621 0.0
O855 O 0.47816 0.23474 0.99598 0.0
H856 H 0.54651 0.22094 0.03439 0.0
H857 H 0.55725 0.23284 0.96705 0.0
H858 H 0.58586 0.21649 0.03928 0.0
H859 H 0.59645 0.22839 0.97315 0.0
H860 H 0.44446 0.2567 0.06598 0.0
H861 H 0.51533 0.29129 0.05654 0.0
H862 H 0.46611 0.24831 0.0336 0.0
H863 H 0.49279 0.2989 0.08863 0.0
H864 H 0.58574 0.28919 0.04461 0.0
H865 H 0.58072 0.31576 0.98047 0.0
H866 H 0.50164 0.15854 0.03912 0.0
H867 H 0.5102 0.20365 0.09138 0.0
H868 H 0.47644 0.29066 0.95417 0.0
H869 H 0.53947 0.26232 0.94974 0.0
H870 H 0.47819 0.29918 0.91527 0.0
H871 H 0.54007 0.27127 0.91087 0.0
H872 H 0.45641 0.25575 0.96596 0.0
H873 H 0.46773 0.19343 0.9939 0.0
H874 H 0.43063 0.23903 0.94057 0.0
H875 H 0.44206 0.17772 0.96775 0.0
H876 H 0.52543 0.17612 0.93386 0.0
H877 H 0.4844 0.22178 0.90126 0.0
H878 H 0.46015 0.3396 0.99155 0.0
H879 H 0.40938 0.29257 0.999 0.0
Li880 Li 0.73507 0.51936 0.99875 0.0
Li881 Li 0.76231 0.50302 0.02281 0.0
Li882 Li 0.76488 0.50071 0.98241 0.0
Li883 Li 0.73806 0.47931 0.00194 0.0
C884 C 0.76577 0.54841 0.00262 0.0
N885 N 0.76414 0.59272 0.00528 0.0
C886 C 0.76922 0.55866 0.02232 0.0
C887 C 0.76167 0.56069 0.98424 0.0
C888 C 0.7683 0.58109 0.02334 0.0
C889 C 0.76084 0.58307 0.98593 0.0
C890 C 0.72186 0.4968 0.04403 0.0
C891 C 0.71638 0.47293 0.07412 0.0
N892 N 0.70413 0.48821 0.08386 0.0
C893 C 0.7091 0.51221 0.05427 0.0
C894 C 0.72545 0.47696 0.05397 0.0
C895 C 0.70034 0.50758 0.07443 0.0
C896 C 0.70247 0.54196 0.97742 0.0
N897 N 0.71496 0.54232 0.99534 0.0
C898 C 0.69882 0.57535 0.00668 0.0
C899 C 0.71318 0.55837 0.01009 0.0
C900 C 0.68596 0.57562 0.98806 0.0
C901 C 0.6878 0.55845 0.97347 0.0
H902 H 0.70383 0.5288 0.96618 0.0
H903 H 0.72307 0.55813 0.02438 0.0
C904 C 0.8003 0.50172 0.04652 0.0
N905 N 0.77889 0.50559 0.04848 0.0
C906 C 0.81373 0.50273 0.0645 0.0
C907 C 0.7828 0.51171 0.08622 0.0
C908 C 0.77004 0.5108 0.06777 0.0
C909 C 0.80501 0.50762 0.08479 0.0
H910 H 0.80694 0.4978 0.03093 0.0
H911 H 0.75309 0.51425 0.06895 0.0
C912 C 0.73395 0.493 0.95428 0.0
N913 N 0.73516 0.48449 0.91071 0.0
C914 C 0.73088 0.47203 0.9468 0.0
C915 C 0.73748 0.50967 0.93962 0.0
C916 C 0.73157 0.46806 0.9247 0.0
C917 C 0.7381 0.50503 0.91765 0.0
C918 C 0.77763 0.45801 0.00929 0.0
C919 C 0.78576 0.44468 0.99313 0.0
C920 C 0.77788 0.45098 0.03064 0.0
C921 C 0.79357 0.42432 0.99854 0.0
C922 C 0.78582 0.43051 0.03541 0.0
N923 N 0.79342 0.4177 0.01939 0.0
C924 C 0.79693 0.52002 0.95764 0.0
C925 C 0.78667 0.48592 0.9441 0.0
C926 C 0.81102 0.52305 0.94048 0.0
N927 N 0.78483 0.50187 0.95897 0.0
C928 C 0.80064 0.48827 0.92662 0.0
C929 C 0.81282 0.50721 0.92451 0.0
H930 H 0.79556 0.53227 0.96984 0.0
H931 H 0.777 0.47155 0.94555 0.0
C932 C 0.70042 0.4578 0.01102 0.0
N933 N 0.72073 0.454 0.00391 0.0
C934 C 0.68645 0.44078 0.01513 0.0
C935 C 0.71392 0.41612 0.00299 0.0
C936 C 0.72756 0.43369 0.99943 0.0
C937 C 0.69326 0.41961 0.0114 0.0
H938 H 0.6952 0.47412 0.01396 0.0
H939 H 0.74357 0.43104 0.99332 0.0
O940 O 0.76642 0.52647 0.00135 0.0
O941 O 0.73056 0.50112 0.0243 0.0
O942 O 0.73346 0.49718 0.97586 0.0
O943 O 0.77007 0.47805 0.00427 0.0
H944 H 0.77244 0.5494 0.0367 0.0
H945 H 0.75894 0.55298 0.96887 0.0
H946 H 0.77084 0.58924 0.03849 0.0
H947 H 0.75753 0.59277 0.97187 0.0
H948 H 0.71903 0.45764 0.08199 0.0
H949 H 0.70606 0.5276 0.04675 0.0
H950 H 0.73494 0.46471 0.04613 0.0
H951 H 0.6905 0.51939 0.08258 0.0
H952 H 0.69806 0.58825 0.01834 0.0
H953 H 0.67787 0.55761 0.9592 0.0
H954 H 0.83078 0.49992 0.06241 0.0
H955 H 0.77522 0.51531 0.10147 0.0
H956 H 0.72811 0.45896 0.95795 0.0
H957 H 0.73991 0.52599 0.94517 0.0
H958 H 0.7293 0.4519 0.91867 0.0
H959 H 0.74095 0.51774 0.90612 0.0
H960 H 0.78589 0.44993 0.97656 0.0
H961 H 0.77217 0.46125 0.04344 0.0
H962 H 0.79976 0.41378 0.98617 0.0
H963 H 0.78603 0.42484 0.05186 0.0
H964 H 0.82045 0.53768 0.93977 0.0
H965 H 0.8015 0.47568 0.91462 0.0
H966 H 0.67047 0.44413 0.02122 0.0
H967 H 0.71965 0.39998 0.9998 0.0
Li968 Li 0.49988 0.75987 0.02377 0.0
Li969 Li 0.47527 0.73588 0.00428 0.0
Li970 Li 0.51551 0.73413 0.99899 0.0
Li971 Li 0.49453 0.76414 0.98398 0.0
C972 C 0.49983 0.72399 0.04676 0.0
N973 N 0.50294 0.71691 0.0905 0.0
C974 C 0.48141 0.71937 0.05877 0.0
C975 C 0.51986 0.72475 0.05692 0.0
C976 C 0.48331 0.71589 0.08089 0.0
C977 C 0.52109 0.72121 0.07907 0.0
C978 C 0.45309 0.77574 0.00586 0.0
C979 C 0.42208 0.78433 0.9842 0.0
N980 N 0.41206 0.79233 0.00191 0.0
C981 C 0.44259 0.78427 0.0238 0.0
C982 C 0.44286 0.77595 0.98585 0.0
C983 C 0.4218 0.79249 0.0215 0.0
C984 C 0.52123 0.78918 0.05055 0.0
N985 N 0.504 0.77578 0.04965 0.0
C986 C 0.4925 0.78722 0.08454 0.0
C987 C 0.48964 0.77465 0.06611 0.0
C988 C 0.51021 0.80122 0.08592 0.0
C989 C 0.52468 0.80205 0.06858 0.0
H990 H 0.53209 0.79026 0.03705 0.0
H991 H 0.4758 0.76421 0.06482 0.0
C992 C 0.44961 0.69967 0.99597 0.0
N993 N 0.44983 0.71895 0.00627 0.0
C994 C 0.43193 0.68594 0.99794 0.0
C995 C 0.41493 0.71226 0.02092 0.0
C996 C 0.43298 0.7254 0.01861 0.0
C997 C 0.4143 0.6921 0.0107 0.0
H998 H 0.4634 0.69478 0.98656 0.0
H999 H 0.43374 0.74051 0.0271 0.0
C1000 C 0.54298 0.76783 0.99712 0.0
N1001 N 0.58646 0.77216 0.98904 0.0
C1002 C 0.55002 0.77684 0.97777 0.0
C1003 C 0.55804 0.76125 0.01246 0.0
C1004 C 0.57208 0.77884 0.97397 0.0
C1005 C 0.57995 0.7635 0.00804 0.0
C1006 C 0.48636 0.72873 0.9564 0.0
C1007 C 0.50195 0.7227 0.94137 0.0
C1008 C 0.46479 0.72984 0.95018 0.0
C1009 C 0.49575 0.71838 0.92022 0.0
C1010 C 0.45923 0.72538 0.92888 0.0
N1011 N 0.4747 0.71982 0.91445 0.0
C1012 C 0.54108 0.69746 0.00669 0.0
C1013 C 0.55313 0.71902 0.97769 0.0
C1014 C 0.55793 0.68296 0.00341 0.0
N1015 N 0.53904 0.71509 0.99393 0.0
C1016 C 0.5704 0.70516 0.97406 0.0
C1017 C 0.57296 0.68671 0.98692 0.0
H1018 H 0.52945 0.69451 0.01927 0.0
H1019 H 0.55097 0.73292 0.96751 0.0
C1020 C 0.48707 0.80539 0.96904 0.0
N1021 N 0.49298 0.78555 0.96208 0.0
C1022 C 0.48777 0.82297 0.95514 0.0
C1023 C 0.50029 0.79938 0.92692 0.0
C1024 C 0.49933 0.7822 0.94141 0.0
C1025 C 0.49488 0.82019 0.93389 0.0
H1026 H 0.48242 0.80768 0.98564 0.0
H1027 H 0.50457 0.76646 0.93638 0.0
O1028 O 0.49826 0.72769 0.02514 0.0
O1029 O 0.47342 0.76759 0.00788 0.0
O1030 O 0.52144 0.76565 0.00109 0.0
O1031 O 0.49216 0.73287 0.97721 0.0
H1032 H 0.4658 0.71863 0.05114 0.0
H1033 H 0.53429 0.72807 0.04781 0.0
H1034 H 0.46917 0.71242 0.09042 0.0
H1035 H 0.53647 0.72186 0.08717 0.0
H1036 H 0.41396 0.78455 0.96881 0.0
H1037 H 0.45035 0.7844 0.03937 0.0
H1038 H 0.45095 0.76993 0.97172 0.0
H1039 H 0.41342 0.799 0.03528 0.0
H1040 H 0.48096 0.78601 0.09753 0.0
H1041 H 0.53825 0.81297 0.06863 0.0
H1042 H 0.43238 0.67042 0.99007 0.0
H1043 H 0.40168 0.71779 0.03077 0.0
H1044 H 0.53862 0.78215 0.96578 0.0
H1045 H 0.55287 0.75442 0.02758 0.0
H1046 H 0.57776 0.7857 0.95902 0.0
H1047 H 0.59178 0.75837 0.01972 0.0
H1048 H 0.51869 0.72153 0.94595 0.0
H1049 H 0.45242 0.73388 0.9617 0.0
H1050 H 0.50767 0.71386 0.90839 0.0
H1051 H 0.44259 0.72624 0.92383 0.0
H1052 H 0.55888 0.66878 0.01347 0.0
H1053 H 0.58166 0.70897 0.96134 0.0
H1054 H 0.48321 0.83868 0.96113 0.0
H1055 H 0.50616 0.79658 0.91077 0.0
H1056 H 0.0009 0.32294 0.39007 0.0
H1057 H 0.0172 0.36137 0.44599 0.0
H1058 H 0.02059 0.39353 0.42294 0.0
H1059 H 0.03668 0.34958 0.3525 0.0
H1060 H 0.01799 0.34817 0.33038 0.0
H1061 H 0.01738 0.32798 0.35116 0.0
H1062 H 0.97707 0.33607 0.35792 0.0
H1063 H 0.97756 0.35632 0.3372 0.0
H1064 H 0.96881 0.3632 0.36396 0.0
H1065 H 0.02226 0.42135 0.39417 0.0
H1066 H 0.02095 0.44366 0.3614 0.0
H1067 H 0.00289 0.38762 0.32389 0.0
C1068 C 0.00536 0.33811 0.39738 0.0
C1069 C 0.0088 0.33972 0.4198 0.0
C1070 C 0.01432 0.35987 0.42887 0.0
C1071 C 0.01638 0.37817 0.41591 0.0
C1072 C 0.01275 0.3761 0.39391 0.0
C1073 C 0.00728 0.35664 0.38468 0.0
C1074 C 0.00369 0.35902 0.36067 0.0
C1075 C 0.01991 0.34538 0.34793 0.0
C1076 C 0.98039 0.35332 0.35459 0.0
C1077 C 0.00801 0.38285 0.35789 0.0
C1078 C 0.01335 0.39232 0.37727 0.0
C1079 C 0.01816 0.41413 0.37887 0.0
C1080 C 0.01749 0.42663 0.36016 0.0
C1081 C 0.01195 0.41735 0.3401 0.0
C1082 C 0.00709 0.39516 0.33903 0.0
H1083 H 0.65901 0.01421 0.40547 0.0
H1084 H 0.68224 0.94877 0.39839 0.0
H1085 H 0.6562 0.94276 0.36898 0.0
H1086 H 0.60347 0.00263 0.39611 0.0
H1087 H 0.59837 0.02706 0.38135 0.0
H1088 H 0.61913 0.02643 0.40155 0.0
H1089 H 0.64707 0.03941 0.37348 0.0
H1090 H 0.62637 0.04018 0.35322 0.0
H1091 H 0.65041 0.02459 0.3488 0.0
H1092 H 0.62764 0.94378 0.3406 0.0
H1093 H 0.59812 0.95158 0.31526 0.0
H1094 H 0.5935 0.01647 0.3406 0.0
C1095 C 0.65877 0.99869 0.39757 0.0
C1096 C 0.67265 0.98194 0.4042 0.0
C1097 C 0.6716 0.96175 0.3937 0.0
C1098 C 0.65695 0.95822 0.37693 0.0
C1099 C 0.64343 0.97503 0.37088 0.0
C1100 C 0.64418 0.99486 0.38086 0.0
C1101 C 0.62761 0.01009 0.3715 0.0
C1102 C 0.61117 0.01695 0.38865 0.0
C1103 C 0.63852 0.02973 0.36113 0.0
C1104 C 0.61741 0.9957 0.3547 0.0
C1105 C 0.62684 0.97558 0.35458 0.0
C1106 C 0.62019 0.9595 0.34048 0.0
C1107 C 0.60349 0.96413 0.32607 0.0
C1108 C 0.59358 0.98466 0.32587 0.0
C1109 C 0.60065 0.00059 0.34047 0.0
H1110 H 0.99887 0.58756 0.34786 0.0
H1111 H 0.98291 0.62445 0.29076 0.0
H1112 H 0.98038 0.65739 0.31281 0.0
H1113 H 0.96425 0.61597 0.38454 0.0
H1114 H 0.98307 0.61464 0.40655 0.0
H1115 H 0.98298 0.59392 0.38632 0.0
H1116 H 0.02346 0.60077 0.37901 0.0
H1117 H 0.02367 0.62151 0.39921 0.0
H1118 H 0.03238 0.62751 0.37221 0.0
H1119 H 0.98035 0.68647 0.34111 0.0
H1120 H 0.98316 0.70946 0.37342 0.0
H1121 H 0.99939 0.6534 0.41174 0.0
C1122 C 0.99498 0.60257 0.33994 0.0
C1123 C 0.99107 0.6034 0.31756 0.0
C1124 C 0.98569 0.62335 0.30791 0.0
C1125 C 0.98432 0.64217 0.32028 0.0
C1126 C 0.98836 0.64077 0.34228 0.0
C1127 C 0.99357 0.62148 0.35201 0.0
C1128 C 0.99742 0.62433 0.37587 0.0
C1129 C 0.98094 0.61145 0.38909 0.0
C1130 C 0.02061 0.61817 0.38192 0.0
C1131 C 0.99375 0.64828 0.37802 0.0
C1132 C 0.98844 0.65747 0.3585 0.0
C1133 C 0.98442 0.67943 0.3565 0.0
C1134 C 0.98594 0.69234 0.37495 0.0
C1135 C 0.9915 0.68324 0.3951 0.0
C1136 C 0.99535 0.66089 0.39654 0.0
H1137 H 0.33887 0.98452 0.4038 0.0
H1138 H 0.3122 0.04825 0.39392 0.0
H1139 H 0.33663 0.05366 0.36303 0.0
H1140 H 0.39313 0.9982 0.3918 0.0
H1141 H 0.39906 0.97321 0.37837 0.0
H1142 H 0.37889 0.97402 0.39913 0.0
H1143 H 0.35087 0.95798 0.37277 0.0
H1144 H 0.37097 0.95706 0.35193 0.0
H1145 H 0.34603 0.97112 0.34738 0.0
H1146 H 0.36435 0.05229 0.33359 0.0
H1147 H 0.39406 0.04469 0.30836 0.0
H1148 H 0.40257 0.98179 0.33744 0.0
C1149 C 0.33799 0.99951 0.39496 0.0
C1150 C 0.32361 0.01596 0.40121 0.0
C1151 C 0.32322 0.03551 0.3895 0.0
C1152 C 0.33694 0.03867 0.37187 0.0
C1153 C 0.35099 0.02216 0.36621 0.0
C1154 C 0.35164 0.00298 0.37742 0.0
C1155 C 0.36869 0.98807 0.36845 0.0
C1156 C 0.38596 0.98309 0.38545 0.0
C1157 C 0.35853 0.96733 0.3596 0.0
C1158 C 0.37762 0.00192 0.35052 0.0
C1159 C 0.36709 0.02146 0.3494 0.0
C1160 C 0.37264 0.037 0.33424 0.0
C1161 C 0.38945 0.03249 0.3199 0.0
C1162 C 0.40061 0.01263 0.32088 0.0
C1163 C 0.39448 0.99718 0.33639 0.0
H1164 H 0.02147 0.60323 0.66623 0.0
H1165 H 0.95342 0.58746 0.6659 0.0
H1166 H 0.94714 0.61518 0.63829 0.0
H1167 H 0.01534 0.6608 0.65815 0.0
H1168 H 0.03843 0.66289 0.64076 0.0
H1169 H 0.03757 0.64244 0.66127 0.0
H1170 H 0.04408 0.61307 0.63245 0.0
H1171 H 0.045 0.63342 0.61186 0.0
H1172 H 0.02631 0.61137 0.60959 0.0
H1173 H 0.94832 0.6432 0.60968 0.0
H1174 H 0.95687 0.67028 0.58194 0.0
H1175 H 0.02415 0.66802 0.60039 0.0
C1176 C 0.00525 0.60561 0.66035 0.0
C1177 C 0.98791 0.59324 0.66838 0.0
C1178 C 0.96691 0.59697 0.66033 0.0
C1179 C 0.96318 0.6126 0.64455 0.0
C1180 C 0.98061 0.62444 0.63697 0.0
C1181 C 0.00123 0.6212 0.6446 0.0
C1182 C 0.01717 0.63582 0.63332 0.0
C1183 C 0.02775 0.65141 0.64934 0.0
C1184 C 0.03414 0.62263 0.62108 0.0
C1185 C 0.0023 0.64759 0.618 0.0
C1186 C 0.98128 0.64077 0.62042 0.0
C1187 C 0.96469 0.64874 0.60768 0.0
C1188 C 0.96972 0.66402 0.59191 0.0
C1189 C 0.99116 0.67119 0.58903 0.0
C1190 C 0.0076 0.66299 0.60242 0.0
H1191 H 0.40601 0.97351 0.66142 0.0
H1192 H 0.38895 0.0307 0.69768 0.0
H1193 H 0.3583 0.03697 0.67331 0.0
H1194 H 0.39435 0.99521 0.60958 0.0
H1195 H 0.38368 0.97045 0.59892 0.0
H1196 H 0.40368 0.96975 0.61986 0.0
H1197 H 0.37828 0.94669 0.64354 0.0
H1198 H 0.35821 0.94728 0.62264 0.0
H1199 H 0.35156 0.95634 0.64936 0.0
H1200 H 0.3305 0.03798 0.64426 0.0
H1201 H 0.30708 0.03344 0.61261 0.0
H1202 H 0.34199 0.9755 0.59519 0.0
C1203 C 0.39583 0.98735 0.66425 0.0
C1204 C 0.39981 0.00153 0.68159 0.0
C1205 C 0.386 0.01938 0.68478 0.0
C1206 C 0.36862 0.02317 0.67094 0.0
C1207 C 0.36524 0.00897 0.65397 0.0
C1208 C 0.3784 0.99139 0.65058 0.0
C1209 C 0.37145 0.97886 0.63087 0.0
C1210 C 0.38936 0.97856 0.6138 0.0
C1211 C 0.36445 0.95593 0.63698 0.0
C1212 C 0.35247 0.99228 0.62359 0.0
C1213 C 0.34914 0.00953 0.63719 0.0
C1214 C 0.33281 0.02442 0.6336 0.0
C1215 C 0.3195 0.02161 0.61564 0.0
C1216 C 0.32255 0.00402 0.60146 0.0
C1217 C 0.33929 0.98919 0.6056 0.0
H1218 H 0.01631 0.32192 0.61104 0.0
H1219 H 0.94761 0.31609 0.59989 0.0
H1220 H 0.94078 0.34296 0.62822 0.0
H1221 H 0.01324 0.33026 0.66953 0.0
H1222 H 0.0349 0.34953 0.66958 0.0
H1223 H 0.03437 0.32839 0.64977 0.0
H1224 H 0.03659 0.35678 0.61933 0.0
H1225 H 0.0371 0.37798 0.63902 0.0
H1226 H 0.01688 0.37802 0.61823 0.0
H1227 H 0.94145 0.37282 0.6551 0.0
H1228 H 0.94962 0.40289 0.67978 0.0
H1229 H 0.01778 0.3893 0.67394 0.0
C1230 C 0.99982 0.32616 0.61468 0.0
C1231 C 0.98249 0.31677 0.60329 0.0
C1232 C 0.96114 0.32273 0.60862 0.0
C1233 C 0.95709 0.33808 0.62462 0.0
C1234 C 0.97454 0.34723 0.63528 0.0
C1235 C 0.99548 0.34141 0.63067 0.0
C1236 C 0.01136 0.35439 0.64386 0.0
C1237 C 0.02422 0.33977 0.65909 0.0
C1238 C 0.02636 0.36757 0.62923 0.0
C1239 C 0.99608 0.36878 0.65623 0.0
C1240 C 0.97491 0.36432 0.65108 0.0
C1241 C 0.95794 0.37628 0.65947 0.0
C1242 C 0.96272 0.39336 0.67337 0.0
C1243 C 0.98429 0.39826 0.67881 0.0
C1244 C 0.00114 0.38562 0.67032 0.0
H1245 H 0.58654 0.98891 0.65103 0.0
H1246 H 0.61784 0.024 0.70257 0.0
H1247 H 0.65045 0.02789 0.68015 0.0
H1248 H 0.63369 0.96012 0.63237 0.0
H1249 H 0.6263 0.96216 0.60441 0.0
H1250 H 0.60574 0.96158 0.62481 0.0
H1251 H 0.59028 0.99746 0.61027 0.0
H1252 H 0.61085 0.9982 0.58989 0.0
H1253 H 0.60765 0.02058 0.60803 0.0
H1254 H 0.67948 0.02811 0.65208 0.0
H1255 H 0.70264 0.02551 0.61989 0.0
H1256 H 0.65221 0.99064 0.58652 0.0
C1257 C 0.60036 0.99719 0.65765 0.0
C1258 C 0.59974 0.00613 0.67851 0.0
C1259 C 0.61798 0.01718 0.68654 0.0
C1260 C 0.63657 0.01938 0.67398 0.0
C1261 C 0.6366 0.01052 0.65341 0.0
C1262 C 0.61897 0.99969 0.64526 0.0
C1263 C 0.62296 0.99223 0.62243 0.0
C1264 C 0.62213 0.96756 0.62093 0.0
C1265 C 0.60699 0.00275 0.60673 0.0
C1266 C 0.64557 0.00058 0.619 0.0
C1267 C 0.6532 0.01097 0.6371 0.0
C1268 C 0.67371 0.01998 0.63781 0.0
C1269 C 0.68676 0.01835 0.61951 0.0
C1270 C 0.67921 0.0079 0.60072 0.0
C1271 C 0.65833 0.99892 0.60056 0.0
H1272 H 0.3933 0.32552 0.01418 0.0
H1273 H 0.43514 0.34952 0.96366 0.0
H1274 H 0.40925 0.37847 0.95594 0.0
H1275 H 0.34267 0.33661 0.98623 0.0
H1276 H 0.32882 0.34447 0.01045 0.0
H1277 H 0.35033 0.32508 0.01171 0.0
H1278 H 0.37009 0.3487 0.03978 0.0
H1279 H 0.34867 0.36815 0.03861 0.0
H1280 H 0.37599 0.37639 0.03347 0.0
H1281 H 0.38007 0.40569 0.95468 0.0
H1282 H 0.34871 0.42952 0.95972 0.0
H1283 H 0.32487 0.38761 0.01015 0.0
C1284 C 0.39688 0.3367 0.00132 0.0
C1285 C 0.41637 0.33535 0.98967 0.0
C1286 C 0.42054 0.35046 0.97311 0.0
C1287 C 0.40585 0.36687 0.96846 0.0
C1288 C 0.38695 0.36789 0.98038 0.0
C1289 C 0.38232 0.3532 0.9964 0.0
C1290 C 0.36102 0.35834 0.00711 0.0
C1291 C 0.34475 0.34004 0.00366 0.0
C1292 C 0.36414 0.36318 0.03116 0.0
C1293 C 0.35458 0.37836 0.99476 0.0
C1294 C 0.36979 0.38351 0.97939 0.0
C1295 C 0.36796 0.40176 0.96653 0.0
C1296 C 0.35018 0.41522 0.96957 0.0
C1297 C 0.33444 0.41034 0.98527 0.0
C1298 C 0.33656 0.39152 0.99784 0.0
H1299 H 0.33201 0.59801 0.98036 0.0
H1300 H 0.30911 0.60086 0.04625 0.0
H1301 H 0.3336 0.63125 0.05341 0.0
H1302 H 0.38649 0.60905 0.99148 0.0
H1303 H 0.39088 0.62543 0.96797 0.0
H1304 H 0.3707 0.60467 0.96756 0.0
H1305 H 0.3418 0.63266 0.95671 0.0
H1306 H 0.36193 0.65352 0.95695 0.0
H1307 H 0.33799 0.6563 0.97306 0.0
H1308 H 0.36189 0.65986 0.05404 0.0
H1309 H 0.39174 0.6852 0.04798 0.0
H1310 H 0.39534 0.66485 0.98125 0.0
C1311 C 0.33185 0.60527 0.99618 0.0
C1312 C 0.31867 0.59699 0.01277 0.0
C1313 C 0.31926 0.60673 0.03337 0.0
C1314 C 0.33301 0.62409 0.03756 0.0
C1315 C 0.346 0.63164 0.02096 0.0
C1316 C 0.34547 0.62265 0.00064 0.0
C1317 C 0.36158 0.6334 0.98585 0.0
C1318 C 0.37841 0.61717 0.97775 0.0
C1319 C 0.35014 0.64464 0.96703 0.0
C1320 C 0.37149 0.64958 0.00113 0.0
C1321 C 0.36219 0.64835 0.02126 0.0
C1322 C 0.3691 0.66118 0.03826 0.0
C1323 C 0.38601 0.67564 0.0346 0.0
C1324 C 0.39584 0.67723 0.01408 0.0
C1325 C 0.3883 0.66401 0.99715 0.0
H1326 H 0.61887 0.31811 0.98677 0.0
H1327 H 0.59188 0.32676 0.0506 0.0
H1328 H 0.61871 0.35491 0.05808 0.0
H1329 H 0.67542 0.32853 0.00139 0.0
H1330 H 0.6808 0.34287 0.97678 0.0
H1331 H 0.661 0.32169 0.97718 0.0
H1332 H 0.63243 0.34805 0.96215 0.0
H1333 H 0.65209 0.36929 0.96174 0.0
H1334 H 0.62722 0.37288 0.97619 0.0
H1335 H 0.64571 0.38448 0.05748 0.0
H1336 H 0.67197 0.41309 0.04904 0.0
H1337 H 0.68165 0.38565 0.98567 0.0
C1338 C 0.61873 0.32577 0.0024 0.0
C1339 C 0.60332 0.32005 0.01815 0.0
C1340 C 0.60375 0.33048 0.03842 0.0
C1341 C 0.61887 0.3466 0.0428 0.0
C1342 C 0.63356 0.35208 0.0268 0.0
C1343 C 0.63373 0.34191 0.00706 0.0
C1344 C 0.65045 0.35172 0.99226 0.0
C1345 C 0.66796 0.33522 0.98657 0.0
C1346 C 0.63991 0.36104 0.97189 0.0
C1347 C 0.65925 0.36935 0.00659 0.0
C1348 C 0.64935 0.36916 0.0265 0.0
C1349 C 0.65378 0.38463 0.04206 0.0
C1350 C 0.66861 0.40085 0.0371 0.0
C1351 C 0.67884 0.40145 0.01677 0.0
C1352 C 0.67431 0.38531 0.00145 0.0
H1353 H 0.66075 0.59764 0.01719 0.0
H1354 H 0.6765 0.59431 0.94921 0.0
H1355 H 0.64976 0.62255 0.94167 0.0
H1356 H 0.6048 0.60604 0.0114 0.0
H1357 H 0.60264 0.62485 0.03334 0.0
H1358 H 0.62338 0.60465 0.03362 0.0
H1359 H 0.65245 0.63423 0.03788 0.0
H1360 H 0.63177 0.65452 0.03778 0.0
H1361 H 0.65357 0.65597 0.01873 0.0
H1362 H 0.62004 0.64971 0.9412 0.0
H1363 H 0.5905 0.67516 0.94798 0.0
H1364 H 0.59595 0.6629 0.01659 0.0
C1365 C 0.65886 0.60305 0.00076 0.0
C1366 C 0.67066 0.59353 0.98379 0.0
C1367 C 0.66738 0.60097 0.96246 0.0
C1368 C 0.65233 0.61714 0.95801 0.0
C1369 C 0.64081 0.62593 0.97507 0.0
C1370 C 0.64403 0.61932 0.99603 0.0
C1371 C 0.62941 0.63134 0.01138 0.0
C1372 C 0.61415 0.61579 0.02312 0.0
C1373 C 0.64259 0.64482 0.02738 0.0
C1374 C 0.61728 0.64552 0.9957 0.0
C1375 C 0.6241 0.64212 0.97485 0.0
C1376 C 0.61478 0.65277 0.9575 0.0
C1377 C 0.59807 0.66734 0.96157 0.0
C1378 C 0.5909 0.67132 0.98286 0.0
C1379 C 0.60081 0.6602 0.0001 0.0
H1380 H 0.485 0.82413 0.89078 0.0
H1381 H 0.51232 0.85896 0.9448 0.0
H1382 H 0.51813 0.89051 0.92156 0.0
H1383 H 0.52133 0.84502 0.85063 0.0
H1384 H 0.50111 0.84672 0.82993 0.0
H1385 H 0.49878 0.82679 0.85082 0.0
H1386 H 0.46089 0.84118 0.86046 0.0
H1387 H 0.4631 0.86116 0.8396 0.0
H1388 H 0.45752 0.86926 0.86686 0.0
H1389 H 0.52147 0.91802 0.89278 0.0
H1390 H 0.52141 0.9404 0.86007 0.0
H1391 H 0.4923 0.88802 0.82423 0.0
C1392 C 0.49227 0.83838 0.89768 0.0
C1393 C 0.49804 0.83913 0.91967 0.0
C1394 C 0.50739 0.85813 0.92812 0.0
C1395 C 0.51091 0.87609 0.91501 0.0
C1396 C 0.505 0.87484 0.89346 0.0
C1397 C 0.49584 0.85654 0.88481 0.0
C1398 C 0.49095 0.85957 0.8611 0.0
C1399 C 0.50382 0.84357 0.84731 0.0
C1400 C 0.46667 0.85768 0.85676 0.0
C1401 C 0.49881 0.88242 0.85784 0.0
C1402 C 0.50692 0.89085 0.87673 0.0
C1403 C 0.51524 0.9116 0.87785 0.0
C1404 C 0.51526 0.92413 0.85915 0.0
C1405 C 0.50701 0.91591 0.83956 0.0
C1406 C 0.49862 0.89477 0.83899 0.0
H1407 H 0.16989 0.47775 0.89069 0.0
H1408 H 0.19116 0.54424 0.8889 0.0
H1409 H 0.16658 0.55124 0.85855 0.0
H1410 H 0.16269 0.47106 0.83258 0.0
H1411 H 0.13898 0.45466 0.83566 0.0
H1412 H 0.15955 0.45438 0.85609 0.0
H1413 H 0.13121 0.46464 0.88487 0.0
H1414 H 0.11059 0.46493 0.86457 0.0
H1415 H 0.115 0.48837 0.88104 0.0
H1416 H 0.13774 0.55181 0.83042 0.0
H1417 H 0.10699 0.5457 0.80599 0.0
H1418 H 0.10426 0.47894 0.82612 0.0
C1419 C 0.16947 0.49376 0.88385 0.0
C1420 C 0.18256 0.51042 0.89214 0.0
C1421 C 0.18159 0.53112 0.88262 0.0
C1422 C 0.1676 0.53528 0.86543 0.0
C1423 C 0.15475 0.51857 0.85784 0.0
C1424 C 0.15562 0.49819 0.86666 0.0
C1425 C 0.13945 0.48331 0.85611 0.0
C1426 C 0.15086 0.46476 0.84442 0.0
C1427 C 0.1231 0.47482 0.87263 0.0
C1428 C 0.12902 0.49864 0.84031 0.0
C1429 C 0.13817 0.51887 0.84149 0.0
C1430 C 0.13058 0.53599 0.8292 0.0
C1431 C 0.11307 0.5324 0.81546 0.0
C1432 C 0.10332 0.51184 0.81412 0.0
C1433 C 0.11163 0.49472 0.82654 0.0
H1434 H 0.49582 0.08804 0.84819 0.0
H1435 H 0.5102 0.12515 0.79075 0.0
H1436 H 0.51185 0.15819 0.81259 0.0
H1437 H 0.4633 0.12759 0.87468 0.0
H1438 H 0.47364 0.12155 0.90108 0.0
H1439 H 0.47283 0.10089 0.8808 0.0
H1440 H 0.51371 0.09436 0.8857 0.0
H1441 H 0.51465 0.11499 0.90601 0.0
H1442 H 0.53213 0.11659 0.88294 0.0
H1443 H 0.51198 0.18725 0.84072 0.0
H1444 H 0.51165 0.21 0.87334 0.0
H1445 H 0.49885 0.15365 0.91246 0.0
C1446 C 0.4995 0.10305 0.84016 0.0
C1447 C 0.50276 0.10392 0.81766 0.0
C1448 C 0.50722 0.12404 0.80786 0.0
C1449 C 0.50835 0.14291 0.82016 0.0
C1450 C 0.50512 0.14141 0.84227 0.0
C1451 C 0.50088 0.12199 0.8522 0.0
C1452 C 0.49844 0.1247 0.87627 0.0
C1453 C 0.4757 0.11831 0.88363 0.0
C1454 C 0.51577 0.1119 0.88844 0.0
C1455 C 0.50202 0.14868 0.87833 0.0
C1456 C 0.50571 0.15805 0.85852 0.0
C1457 C 0.50915 0.18009 0.85632 0.0
C1458 C 0.50885 0.19288 0.8749 0.0
C1459 C 0.5053 0.18355 0.89537 0.0
C1460 C 0.50187 0.16116 0.89703 0.0
H1461 H 0.90437 0.4786 0.83869 0.0
H1462 H 0.89978 0.54476 0.81674 0.0
H1463 H 0.87032 0.55121 0.84243 0.0
H1464 H 0.84734 0.47017 0.84747 0.0
H1465 H 0.85123 0.4542 0.87135 0.0
H1466 H 0.87145 0.45438 0.8506 0.0
H1467 H 0.90016 0.46609 0.87845 0.0
H1468 H 0.88006 0.46588 0.89929 0.0
H1469 H 0.89563 0.48985 0.89443 0.0
H1470 H 0.84224 0.55097 0.87103 0.0
H1471 H 0.81738 0.54413 0.90115 0.0
H1472 H 0.84054 0.47839 0.90538 0.0
C1473 C 0.8972 0.49446 0.83931 0.0
C1474 C 0.90431 0.51113 0.82554 0.0
C1475 C 0.89437 0.53161 0.82679 0.0
C1476 C 0.87769 0.53548 0.84142 0.0
C1477 C 0.87109 0.51872 0.85472 0.0
C1478 C 0.88051 0.49862 0.85385 0.0
C1479 C 0.87065 0.48357 0.87031 0.0
C1480 C 0.85951 0.46445 0.85927 0.0
C1481 C 0.88764 0.4759 0.88659 0.0
C1482 C 0.85441 0.49845 0.88073 0.0
C1483 C 0.8549 0.51862 0.87141 0.0
C1484 C 0.8417 0.53525 0.87847 0.0
C1485 C 0.82773 0.53124 0.89567 0.0
C1486 C 0.82709 0.51077 0.9057 0.0
C1487 C 0.8405 0.49413 0.89792 0.0
H1488 H 0.49328 0.10886 0.1751 0.0
H1489 H 0.53128 0.05954 0.1436 0.0
H1490 H 0.536 0.08324 0.11211 0.0
H1491 H 0.46542 0.12619 0.12842 0.0
H1492 H 0.46532 0.15429 0.13555 0.0
H1493 H 0.46606 0.13412 0.15631 0.0
H1494 H 0.5007 0.15124 0.17192 0.0
H1495 H 0.50003 0.17152 0.15123 0.0
H1496 H 0.5237 0.15514 0.1547 0.0
H1497 H 0.53562 0.11139 0.08373 0.0
H1498 H 0.52994 0.14236 0.05972 0.0
H1499 H 0.49138 0.17346 0.10895 0.0
C1500 C 0.50286 0.10323 0.16169 0.0
C1501 C 0.51192 0.08238 0.16173 0.0
C1502 C 0.52406 0.0754 0.14378 0.0
C1503 C 0.52692 0.08877 0.12589 0.0
C1504 C 0.51753 0.10909 0.12619 0.0
C1505 C 0.50576 0.11635 0.14359 0.0
C1506 C 0.49662 0.13857 0.13931 0.0
C1507 C 0.47189 0.13826 0.13993 0.0
C1508 C 0.50582 0.15509 0.15524 0.0
C1509 C 0.50491 0.1425 0.11671 0.0
C1510 C 0.51704 0.12532 0.10956 0.0
C1511 C 0.52613 0.12494 0.08912 0.0
C1512 C 0.52265 0.14255 0.07553 0.0
C1513 C 0.51004 0.16029 0.08234 0.0
C1514 C 0.50122 0.16025 0.10332 0.0
H1515 H 0.90518 0.47632 0.15931 0.0
H1516 H 0.8832 0.52477 0.20444 0.0
H1517 H 0.85188 0.53225 0.18115 0.0
H1518 H 0.89106 0.50422 0.11162 0.0
H1519 H 0.88232 0.48061 0.09724 0.0
H1520 H 0.90248 0.47832 0.1179 0.0
H1521 H 0.87923 0.44996 0.13774 0.0
H1522 H 0.85905 0.45206 0.11705 0.0
H1523 H 0.85185 0.45639 0.14479 0.0
H1524 H 0.82448 0.53623 0.15176 0.0
H1525 H 0.80161 0.53497 0.11945 0.0
H1526 H 0.84037 0.48252 0.09433 0.0
C1527 C 0.8937 0.48841 0.16432 0.0
C1528 C 0.89656 0.49993 0.1837 0.0
C1529 C 0.88114 0.51556 0.1898 0.0
C1530 C 0.86339 0.52001 0.17662 0.0
C1531 C 0.86117 0.50854 0.15751 0.0
C1532 C 0.87577 0.4929 0.15147 0.0
C1533 C 0.86972 0.48301 0.13005 0.0
C1534 C 0.88745 0.48677 0.11321 0.0
C1535 C 0.86466 0.45893 0.13257 0.0
C1536 C 0.84965 0.49579 0.12482 0.0
C1537 C 0.84503 0.51045 0.14084 0.0
C1538 C 0.82773 0.52458 0.13926 0.0
C1539 C 0.81473 0.52363 0.12085 0.0
C1540 C 0.81896 0.50852 0.10428 0.0
C1541 C 0.8367 0.49442 0.10648 0.0
H1542 H 0.47935 0.82337 0.1087 0.0
H1543 H 0.54816 0.81172 0.10576 0.0
H1544 H 0.55385 0.83826 0.13465 0.0
H1545 H 0.4818 0.8787 0.11669 0.0
H1546 H 0.45964 0.88015 0.13531 0.0
H1547 H 0.46062 0.85891 0.1157 0.0
H1548 H 0.4578 0.83045 0.14601 0.0
H1549 H 0.45667 0.85164 0.16576 0.0
H1550 H 0.47685 0.83094 0.16787 0.0
H1551 H 0.55254 0.86849 0.16091 0.0
H1552 H 0.54402 0.8994 0.18444 0.0
H1553 H 0.47603 0.89028 0.17202 0.0
C1554 C 0.49557 0.82596 0.11449 0.0
C1555 C 0.51332 0.8155 0.10485 0.0
C1556 C 0.53432 0.81975 0.11264 0.0
C1557 C 0.53772 0.83468 0.12917 0.0
C1558 C 0.51993 0.84504 0.13796 0.0
C1559 C 0.49924 0.84072 0.13111 0.0
C1560 C 0.48302 0.85481 0.14264 0.0
C1561 C 0.47055 0.86898 0.12663 0.0
C1562 C 0.46768 0.84114 0.15639 0.0
C1563 C 0.4979 0.86814 0.1566 0.0
C1564 C 0.51913 0.86217 0.15368 0.0
C1565 C 0.53598 0.87307 0.16364 0.0
C1566 C 0.53102 0.89061 0.17687 0.0
C1567 C 0.50941 0.89696 0.18011 0.0
C1568 C 0.49264 0.88541 0.17007 0.0
H1569 H 0.16265 0.47333 0.09738 0.0
H1570 H 0.15853 0.53864 0.07289 0.0
H1571 H 0.13072 0.54696 0.09977 0.0
H1572 H 0.10655 0.46651 0.10899 0.0
H1573 H 0.11092 0.4516 0.13347 0.0
H1574 H 0.13051 0.45049 0.11215 0.0
H1575 H 0.16021 0.46304 0.13856 0.0
H1576 H 0.14073 0.46411 0.15997 0.0
H1577 H 0.1565 0.48758 0.15354 0.0
H1578 H 0.10322 0.54831 0.12866 0.0
H1579 H 0.07801 0.54288 0.15865 0.0
H1580 H 0.10082 0.47723 0.16597 0.0
C1581 C 0.15602 0.48942 0.09777 0.0
C1582 C 0.16265 0.50525 0.08281 0.0
C1583 C 0.15341 0.52608 0.08381 0.0
C1584 C 0.1377 0.53103 0.09913 0.0
C1585 C 0.13144 0.51505 0.11348 0.0
C1586 C 0.14033 0.4947 0.11305 0.0
C1587 C 0.13073 0.48058 0.13049 0.0
C1588 C 0.11898 0.46115 0.12068 0.0
C1589 C 0.14808 0.47341 0.14659 0.0
C1590 C 0.11504 0.4962 0.14069 0.0
C1591 C 0.11574 0.51597 0.13057 0.0
C1592 C 0.10264 0.53297 0.13686 0.0
C1593 C 0.08847 0.52975 0.15404 0.0
C1594 C 0.08756 0.5097 0.1649 0.0
C1595 C 0.10102 0.49271 0.15799 0.0
H1596 H 0.8317 0.89642 0.48299 0.0
H1597 H 0.83557 0.91884 0.54902 0.0
H1598 H 0.86458 0.89281 0.55615 0.0
H1599 H 0.84237 0.84018 0.49399 0.0
H1600 H 0.85841 0.83645 0.47014 0.0
H1601 H 0.83722 0.85621 0.47038 0.0
H1602 H 0.86449 0.88574 0.45931 0.0
H1603 H 0.88574 0.86607 0.459 0.0
H1604 H 0.88829 0.88987 0.47535 0.0
H1605 H 0.89401 0.86542 0.55589 0.0
H1606 H 0.92182 0.83816 0.54825 0.0
H1607 H 0.8995 0.83397 0.48223 0.0
C1608 C 0.83866 0.89589 0.49895 0.0
C1609 C 0.83121 0.90961 0.51549 0.0
C1610 C 0.84068 0.90824 0.53619 0.0
C1611 C 0.85728 0.89359 0.54038 0.0
C1612 C 0.86426 0.88039 0.52371 0.0
C1613 C 0.85527 0.88135 0.50342 0.0
C1614 C 0.8661 0.86566 0.48824 0.0
C1615 C 0.85007 0.84862 0.48022 0.0
C1616 C 0.87679 0.87755 0.46936 0.0
C1617 C 0.88271 0.85588 0.50315 0.0
C1618 C 0.88133 0.86459 0.52354 0.0
C1619 C 0.89524 0.85846 0.53999 0.0
C1620 C 0.91106 0.84307 0.53546 0.0
C1621 C 0.91286 0.83398 0.51464 0.0
C1622 C 0.89836 0.84044 0.49836 0.0
H1623 H 0.89692 0.1659 0.51419 0.0
H1624 H 0.89212 0.18983 0.44882 0.0
H1625 H 0.86179 0.16503 0.44199 0.0
H1626 H 0.88697 0.11139 0.50181 0.0
H1627 H 0.87157 0.10595 0.52575 0.0
H1628 H 0.89183 0.12663 0.52599 0.0
H1629 H 0.86353 0.15449 0.53863 0.0
H1630 H 0.84317 0.13386 0.53853 0.0
H1631 H 0.83924 0.15816 0.52321 0.0
H1632 H 0.83297 0.13664 0.44189 0.0
H1633 H 0.80832 0.10612 0.44825 0.0
H1634 H 0.83199 0.10077 0.5137 0.0
C1635 C 0.88922 0.16619 0.49857 0.0
C1636 C 0.89678 0.17983 0.48205 0.0
C1637 C 0.88662 0.17941 0.46166 0.0
C1638 C 0.86934 0.16547 0.45767 0.0
C1639 C 0.86243 0.15204 0.47423 0.0
C1640 C 0.87205 0.15228 0.49427 0.0
C1641 C 0.86224 0.13552 0.50898 0.0
C1642 C 0.87916 0.11889 0.51604 0.0
C1643 C 0.8514 0.14615 0.52849 0.0
C1644 C 0.84579 0.12564 0.49399 0.0
C1645 C 0.84602 0.13552 0.47409 0.0
C1646 C 0.83252 0.12888 0.45747 0.0
C1647 C 0.81851 0.11161 0.46126 0.0
C1648 C 0.81818 0.10108 0.48148 0.0
C1649 C 0.83196 0.10837 0.49803 0.0
H1650 H 0.10756 0.83003 0.51732 0.0
H1651 H 0.11318 0.80683 0.45181 0.0
H1652 H 0.14411 0.8311 0.44584 0.0
H1653 H 0.1179 0.8842 0.50556 0.0
H1654 H 0.13298 0.88963 0.52972 0.0
H1655 H 0.11283 0.86886 0.52964 0.0
H1656 H 0.1411 0.84107 0.54252 0.0
H1657 H 0.16135 0.86182 0.54277 0.0
H1658 H 0.16561 0.8376 0.52742 0.0
H1659 H 0.17277 0.85942 0.44627 0.0
H1660 H 0.19672 0.89041 0.45277 0.0
H1661 H 0.17233 0.89547 0.51798 0.0
C1662 C 0.11565 0.82974 0.5019 0.0
C1663 C 0.10813 0.8165 0.48505 0.0
C1664 C 0.11872 0.8169 0.46489 0.0
C1665 C 0.13633 0.83054 0.4614 0.0
C1666 C 0.14311 0.8437 0.47822 0.0
C1667 C 0.13313 0.84341 0.49808 0.0
C1668 C 0.14267 0.86018 0.51297 0.0
C1669 C 0.12557 0.87669 0.51987 0.0
C1670 C 0.15332 0.84953 0.53258 0.0
C1671 C 0.15928 0.8702 0.49823 0.0
C1672 C 0.15945 0.86029 0.47836 0.0
C1673 C 0.17296 0.86716 0.46186 0.0
C1674 C 0.18657 0.88472 0.46573 0.0
C1675 C 0.18647 0.89532 0.4859 0.0
C1676 C 0.17271 0.88778 0.50236 0.0
H1677 H 0.10324 0.16787 0.4849 0.0
H1678 H 0.07947 0.16144 0.5502 0.0
H1679 H 0.10662 0.13336 0.55734 0.0
H1680 H 0.11296 0.11219 0.47607 0.0
H1681 H 0.13712 0.11618 0.46054 0.0
H1682 H 0.11654 0.13656 0.46077 0.0
H1683 H 0.14442 0.16481 0.4735 0.0
H1684 H 0.16511 0.14453 0.47322 0.0
H1685 H 0.16002 0.15968 0.4974 0.0
H1686 H 0.13543 0.10542 0.55716 0.0
H1687 H 0.16397 0.07897 0.54962 0.0
H1688 H 0.16941 0.10348 0.48445 0.0
C1689 C 0.10396 0.16074 0.50077 0.0
C1690 C 0.08925 0.1668 0.51701 0.0
C1691 C 0.09046 0.15687 0.53748 0.0
C1692 C 0.10588 0.141 0.54172 0.0
C1693 C 0.11998 0.13522 0.52531 0.0
C1694 C 0.1192 0.14476 0.50525 0.0
C1695 C 0.13579 0.13504 0.49026 0.0
C1696 C 0.12495 0.12436 0.47076 0.0
C1697 C 0.15232 0.15203 0.48318 0.0
C1698 C 0.14588 0.11845 0.505 0.0
C1699 C 0.13659 0.11894 0.52517 0.0
C1700 C 0.14296 0.10498 0.54148 0.0
C1701 C 0.15927 0.09009 0.53707 0.0
C1702 C 0.16905 0.08921 0.51649 0.0
C1703 C 0.16219 0.10365 0.50029 0.0
loop_
_geom_bond_atom_site_label_1
_geom_bond_atom_site_label_2
_geom_bond_distance
_geom_bond_site_symmetry_2
_ccdc_geom_bond_type
Li0 N17 1.990 . S
Li0 O60 1.956 . S
Li0 O61 1.973 . S
Li0 O62 1.950 1_655 S
Li1 N25 1.991 . S
Li1 O60 1.955 1_455 S
Li1 O61 1.956 1_455 S
Li1 O63 1.976 . S
Li2 N47 1.991 . S
Li2 O60 1.967 . S
Li2 O62 1.956 1_655 S
Li2 O63 1.964 1_655 S
Li3 N53 1.990 . S
Li3 O61 1.959 1_455 S
Li3 O62 1.981 . S
Li3 O63 1.956 . S
C4 C6 1.348 . S
C4 C7 1.356 . S
C4 O60 1.325 . S
N5 C8 1.314 . S
N5 C9 1.279 . S
C6 C4 1.348 . S
C6 C8 1.353 . S
C6 H64 0.929 . S
C7 C4 1.356 . S
C7 C9 1.358 . S
C7 H65 0.930 . S
C8 N5 1.314 . S
C8 C6 1.353 . S
C8 H66 0.930 . S
C9 N5 1.279 . S
C9 C7 1.358 . S
C9 H67 0.930 . S
C10 C13 1.345 1_455 S
C10 C14 1.359 . S
C10 O61 1.325 1_455 S
C11 N12 1.279 . S
C11 C14 1.358 . S
C11 H68 0.930 . S
N12 C11 1.279 . S
N12 C15 1.314 1_455 S
C13 C10 1.345 1_655 S
C13 C15 1.353 . S
C13 H69 0.929 . S
C14 C10 1.359 . S
C14 C11 1.358 . S
C14 H70 0.930 . S
C15 N12 1.314 1_655 S
C15 C13 1.353 . S
C15 H71 0.930 . S
C16 N17 1.314 . S
C16 C21 1.353 . S
C16 H22 0.930 . S
N17 Li0 1.990 . S
N17 C16 1.314 . S
N17 C19 1.279 . S
C18 C19 1.358 . S
C18 C20 1.356 . S
C18 H72 0.930 . S
C19 N17 1.279 . S
C19 C18 1.358 . S
C19 H23 0.930 . S
C20 C18 1.356 . S
C20 C21 1.348 . S
C21 C16 1.353 . S
C21 C20 1.348 . S
C21 H73 0.929 . S
H22 C16 0.930 . S
H23 C19 0.930 . S
C24 N25 1.314 . S
C24 C26 1.353 . S
C24 H30 0.930 . S
N25 Li1 1.991 . S
N25 C24 1.314 . S
N25 C28 1.279 1_455 S
C26 C24 1.353 . S
C26 C29 1.346 . S
C26 H74 0.929 . S
C27 C28 1.358 . S
C27 C29 1.357 1_655 S
C27 H75 0.930 . S
C28 N25 1.279 1_655 S
C28 C27 1.358 . S
C28 H31 0.930 . S
C29 C26 1.346 . S
C29 C27 1.357 1_455 S
H30 C24 0.930 . S
H31 C28 0.930 . S
C32 C34 1.345 . S
C32 C35 1.359 1_455 S
C32 O62 1.325 . S
N33 C36 1.277 1_655 S
N33 C37 1.316 . S
C34 C32 1.345 . S
C34 C36 1.353 . S
C34 H76 0.929 . S
C35 C32 1.359 1_655 S
C35 C37 1.358 . S
C35 H77 0.930 . S
C36 N33 1.277 1_455 S
C36 C34 1.353 . S
C36 H78 0.930 . S
C37 N33 1.316 . S
C37 C35 1.358 . S
C37 H79 0.930 . S
C38 C39 1.348 . S
C38 C40 1.356 . S
C38 O63 1.325 . S
C39 C38 1.348 . S
C39 C41 1.353 . S
C39 H80 0.929 . S
C40 C38 1.356 . S
C40 C42 1.358 . S
C40 H81 0.930 . S
C41 C39 1.353 . S
C41 N43 1.314 . S
C41 H82 0.930 . S
C42 C40 1.358 . S
C42 N43 1.279 . S
C42 H83 0.930 . S
N43 C41 1.314 . S
N43 C42 1.279 . S
C44 C46 1.353 . S
C44 N47 1.314 . S
C44 H50 0.930 . S
C45 N47 1.279 1_455 S
C45 C48 1.358 . S
C45 H51 0.930 . S
C46 C44 1.353 . S
C46 C49 1.346 1_655 S
C46 H84 0.929 . S
N47 Li2 1.991 . S
N47 C44 1.314 . S
N47 C45 1.279 1_655 S
C48 C45 1.358 . S
C48 C49 1.357 . S
C48 H85 0.930 . S
C49 C46 1.346 1_455 S
C49 C48 1.357 . S
H50 C44 0.930 . S
H51 C45 0.930 . S
C52 N53 1.314 . S
C52 C54 1.353 . S
C52 H58 0.930 . S
N53 Li3 1.990 . S
N53 C52 1.314 . S
N53 C56 1.279 . S
C54 C52 1.353 . S
C54 C57 1.348 . S
C54 H86 0.929 . S
C55 C56 1.358 . S
C55 C57 1.356 . S
C55 H87 0.930 . S
C56 N53 1.279 . S
C56 C55 1.358 . S
C56 H59 0.930 . S
C57 C54 1.348 . S
C57 C55 1.356 . S
H58 C52 0.930 . S
H59 C56 0.930 . S
O60 Li0 1.956 . S
O60 Li1 1.955 1_655 S
O60 Li2 1.967 . S
O60 C4 1.325 . S
O61 Li0 1.973 . S
O61 Li1 1.956 1_655 S
O61 Li3 1.959 1_655 S
O61 C10 1.325 1_655 S
O62 Li0 1.950 1_455 S
O62 Li2 1.956 1_455 S
O62 Li3 1.981 . S
O62 C32 1.325 . S
O63 Li1 1.976 . S
O63 Li2 1.964 1_455 S
O63 Li3 1.956 . S
O63 C38 1.325 . S
H64 C6 0.929 . S
H65 C7 0.930 . S
H66 C8 0.930 . S
H67 C9 0.930 . S
H68 C11 0.930 . S
H69 C13 0.929 . S
H70 C14 0.930 . S
H71 C15 0.930 . S
H72 C18 0.930 . S
H73 C21 0.929 . S
H74 C26 0.929 . S
H75 C27 0.930 . S
H76 C34 0.929 . S
H77 C35 0.930 . S
H78 C36 0.930 . S
H79 C37 0.930 . S
H80 C39 0.929 . S
H81 C40 0.930 . S
H82 C41 0.930 . S
H83 C42 0.930 . S
H84 C46 0.929 . S
H85 C48 0.930 . S
H86 C54 0.929 . S
H87 C55 0.930 . S
Li88 N105 1.991 . S
Li88 O148 1.956 1_545 S
Li88 O149 1.955 1_545 S
Li88 O150 1.976 . S
Li89 N113 1.990 . S
Li89 O148 1.973 . S
Li89 O149 1.956 . S
Li89 O151 1.950 1_565 S
Li90 N135 1.990 . S
Li90 O148 1.959 1_545 S
Li90 O150 1.956 . S
Li90 O151 1.981 . S
Li91 N141 1.991 . S
Li91 O149 1.967 . S
Li91 O150 1.964 1_565 S
Li91 O151 1.956 1_565 S
C92 C94 1.345 1_545 S
C92 C95 1.359 . S
C92 O148 1.325 1_545 S
N93 C96 1.314 1_545 S
N93 C97 1.279 . S
C94 C92 1.345 1_565 S
C94 C96 1.353 . S
C94 H152 0.929 . S
C95 C92 1.359 . S
C95 C97 1.358 . S
C95 H153 0.930 . S
C96 N93 1.314 1_565 S
C96 C94 1.353 . S
C96 H154 0.930 . S
C97 N93 1.279 . S
C97 C95 1.358 . S
C97 H155 0.930 . S
C98 C101 1.348 . S
C98 C102 1.356 . S
C98 O149 1.325 . S
C99 N100 1.279 . S
C99 C102 1.358 . S
C99 H156 0.930 . S
N100 C99 1.279 . S
N100 C103 1.314 . S
C101 C98 1.348 . S
C101 C103 1.353 . S
C101 H157 0.929 . S
C102 C98 1.356 . S
C102 C99 1.358 . S
C102 H158 0.930 . S
C103 N100 1.314 . S
C103 C101 1.353 . S
C103 H159 0.930 . S
C104 N105 1.314 . S
C104 C109 1.353 . S
C104 H110 0.930 . S
N105 Li88 1.991 . S
N105 C104 1.314 . S
N105 C107 1.279 1_545 S
C106 C107 1.358 . S
C106 C108 1.357 1_565 S
C106 H160 0.930 . S
C107 N105 1.279 1_565 S
C107 C106 1.358 . S
C107 H111 0.930 . S
C108 C106 1.357 1_545 S
C108 C109 1.346 . S
C109 C104 1.353 . S
C109 C108 1.346 . S
C109 H161 0.929 . S
H110 C104 0.930 . S
H111 C107 0.930 . S
C112 N113 1.314 . S
C112 C114 1.353 . S
C112 H118 0.930 . S
N113 Li89 1.990 . S
N113 C112 1.314 . S
N113 C116 1.279 . S
C114 C112 1.353 . S
C114 C117 1.348 . S
C114 H162 0.929 . S
C115 C116 1.358 . S
C115 C117 1.356 . S
C115 H163 0.930 . S
C116 N113 1.279 . S
C116 C115 1.358 . S
C116 H119 0.930 . S
C117 C114 1.348 . S
C117 C115 1.356 . S
H118 C112 0.930 . S
H119 C116 0.930 . S
C120 C122 1.348 . S
C120 C123 1.356 . S
C120 O150 1.325 . S
N121 C124 1.314 . S
N121 C125 1.279 . S
C122 C120 1.348 . S
C122 C124 1.353 . S
C122 H164 0.929 . S
C123 C120 1.356 . S
C123 C125 1.358 . S
C123 H165 0.930 . S
C124 N121 1.314 . S
C124 C122 1.353 . S
C124 H166 0.930 . S
C125 N121 1.279 . S
C125 C123 1.358 . S
C125 H167 0.930 . S
C126 C127 1.345 . S
C126 C128 1.359 1_545 S
C126 O151 1.325 . S
C127 C126 1.345 . S
C127 C129 1.353 . S
C127 H168 0.929 . S
C128 C126 1.359 1_565 S
C128 C130 1.358 . S
C128 H169 0.930 . S
C129 C127 1.353 . S
C129 N131 1.277 1_545 S
C129 H170 0.930 . S
C130 C128 1.358 . S
C130 N131 1.316 . S
C130 H171 0.930 . S
N131 C129 1.277 1_565 S
N131 C130 1.316 . S
C132 C134 1.353 . S
C132 N135 1.314 . S
C132 H138 0.930 . S
C133 N135 1.279 . S
C133 C136 1.358 . S
C133 H139 0.930 . S
C134 C132 1.353 . S
C134 C137 1.348 . S
C134 H172 0.929 . S
N135 Li90 1.990 . S
N135 C132 1.314 . S
N135 C133 1.279 . S
C136 C133 1.358 . S
C136 C137 1.356 . S
C136 H173 0.930 . S
C137 C134 1.348 . S
C137 C136 1.356 . S
H138 C132 0.930 . S
H139 C133 0.930 . S
C140 N141 1.314 . S
C140 C142 1.353 . S
C140 H146 0.930 . S
N141 Li91 1.991 . S
N141 C140 1.314 . S
N141 C144 1.279 1_565 S
C142 C140 1.353 . S
C142 C145 1.346 1_565 S
C142 H174 0.929 . S
C143 C144 1.358 . S
C143 C145 1.357 . S
C143 H175 0.930 . S
C144 N141 1.279 1_545 S
C144 C143 1.358 . S
C144 H147 0.930 . S
C145 C142 1.346 1_545 S
C145 C143 1.357 . S
H146 C140 0.930 . S
H147 C144 0.930 . S
O148 Li88 1.956 1_565 S
O148 Li89 1.973 . S
O148 Li90 1.959 1_565 S
O148 C92 1.325 1_565 S
O149 Li88 1.955 1_565 S
O149 Li89 1.956 . S
O149 Li91 1.967 . S
O149 C98 1.325 . S
O150 Li88 1.976 . S
O150 Li90 1.956 . S
O150 Li91 1.964 1_545 S
O150 C120 1.325 . S
O151 Li89 1.950 1_545 S
O151 Li90 1.981 . S
O151 Li91 1.956 1_545 S
O151 C126 1.325 . S
H152 C94 0.929 . S
H153 C95 0.930 . S
H154 C96 0.930 . S
H155 C97 0.930 . S
H156 C99 0.930 . S
H157 C101 0.929 . S
H158 C102 0.930 . S
H159 C103 0.930 . S
H160 C106 0.930 . S
H161 C109 0.929 . S
H162 C114 0.929 . S
H163 C115 0.930 . S
H164 C122 0.929 . S
H165 C123 0.930 . S
H166 C124 0.930 . S
H167 C125 0.930 . S
H168 C127 0.929 . S
H169 C128 0.930 . S
H170 C129 0.930 . S
H171 C130 0.930 . S
H172 C134 0.929 . S
H173 C136 0.930 . S
H174 C142 0.929 . S
H175 C143 0.930 . S
Li176 N193 1.990 . S
Li176 O236 1.956 . S
Li176 O237 1.981 . S
Li176 O238 1.959 1_455 S
Li177 N201 1.991 . S
Li177 O236 1.964 1_655 S
Li177 O237 1.956 1_655 S
Li177 O239 1.967 . S
Li178 N223 1.991 . S
Li178 O236 1.976 . S
Li178 O238 1.956 1_455 S
Li178 O239 1.955 1_455 S
Li179 N229 1.990 . S
Li179 O237 1.950 1_655 S
Li179 O238 1.973 . S
Li179 O239 1.956 . S
C180 C182 1.348 . S
C180 C183 1.356 . S
C180 O236 1.325 . S
N181 C184 1.314 . S
N181 C185 1.279 . S
C182 C180 1.348 . S
C182 C184 1.353 . S
C182 H240 0.929 . S
C183 C180 1.356 . S
C183 C185 1.358 . S
C183 H241 0.930 . S
C184 N181 1.314 . S
C184 C182 1.353 . S
C184 H242 0.930 . S
C185 N181 1.279 . S
C185 C183 1.358 . S
C185 H243 0.930 . S
C186 C189 1.345 . S
C186 C190 1.359 1_455 S
C186 O237 1.325 . S
C187 N188 1.316 . S
C187 C190 1.358 . S
C187 H244 0.930 . S
N188 C187 1.316 . S
N188 C191 1.277 1_655 S
C189 C186 1.345 . S
C189 C191 1.353 . S
C189 H245 0.929 . S
C190 C186 1.359 1_655 S
C190 C187 1.358 . S
C190 H246 0.930 . S
C191 N188 1.277 1_455 S
C191 C189 1.353 . S
C191 H247 0.930 . S
C192 N193 1.314 . S
C192 C197 1.353 . S
C192 H198 0.930 . S
N193 Li176 1.990 . S
N193 C192 1.314 . S
N193 C195 1.279 . S
C194 C195 1.358 . S
C194 C196 1.356 . S
C194 H248 0.930 . S
C195 N193 1.279 . S
C195 C194 1.358 . S
C195 H199 0.930 . S
C196 C194 1.356 . S
C196 C197 1.348 . S
C197 C192 1.353 . S
C197 C196 1.348 . S
C197 H249 0.929 . S
H198 C192 0.930 . S
H199 C195 0.930 . S
C200 N201 1.314 . S
C200 C202 1.353 . S
C200 H206 0.930 . S
N201 Li177 1.991 . S
N201 C200 1.314 . S
N201 C204 1.279 1_655 S
C202 C200 1.353 . S
C202 C205 1.346 1_655 S
C202 H250 0.929 . S
C203 C204 1.358 . S
C203 C205 1.357 . S
C203 H251 0.930 . S
C204 N201 1.279 1_455 S
C204 C203 1.358 . S
C204 H207 0.930 . S
C205 C202 1.346 1_455 S
C205 C203 1.357 . S
H206 C200 0.930 . S
H207 C204 0.930 . S
C208 C210 1.345 1_455 S
C208 C211 1.359 . S
C208 O238 1.325 1_455 S
N209 C212 1.314 1_455 S
N209 C213 1.279 . S
C210 C208 1.345 1_655 S
C210 C212 1.353 . S
C210 H252 0.929 . S
C211 C208 1.359 . S
C211 C213 1.358 . S
C211 H253 0.930 . S
C212 N209 1.314 1_655 S
C212 C210 1.353 . S
C212 H254 0.930 . S
C213 N209 1.279 . S
C213 C211 1.358 . S
C213 H255 0.930 . S
C214 C215 1.348 . S
C214 C216 1.356 . S
C214 O239 1.325 . S
C215 C214 1.348 . S
C215 C217 1.353 . S
C215 H256 0.929 . S
C216 C214 1.356 . S
C216 C218 1.358 . S
C216 H257 0.930 . S
C217 C215 1.353 . S
C217 N219 1.314 . S
C217 H258 0.930 . S
C218 C216 1.358 . S
C218 N219 1.279 . S
C218 H259 0.930 . S
N219 C217 1.314 . S
N219 C218 1.279 . S
C220 C222 1.353 . S
C220 N223 1.314 . S
C220 H226 0.930 . S
C221 N223 1.279 1_655 S
C221 C224 1.358 . S
C221 H227 0.930 . S
C222 C220 1.353 . S
C222 C225 1.346 . S
C222 H260 0.929 . S
N223 Li178 1.991 . S
N223 C220 1.314 . S
N223 C221 1.279 1_455 S
C224 C221 1.358 . S
C224 C225 1.357 1_655 S
C224 H261 0.930 . S
C225 C222 1.346 . S
C225 C224 1.357 1_455 S
H226 C220 0.930 . S
H227 C221 0.930 . S
C228 N229 1.314 . S
C228 C230 1.353 . S
C228 H234 0.930 . S
N229 Li179 1.990 . S
N229 C228 1.314 . S
N229 C232 1.279 . S
C230 C228 1.353 . S
C230 C233 1.348 . S
C230 H262 0.929 . S
C231 C232 1.358 . S
C231 C233 1.356 . S
C231 H263 0.930 . S
C232 N229 1.279 . S
C232 C231 1.358 . S
C232 H235 0.930 . S
C233 C230 1.348 . S
C233 C231 1.356 . S
H234 C228 0.930 . S
H235 C232 0.930 . S
O236 Li176 1.956 . S
O236 Li177 1.964 1_455 S
O236 Li178 1.976 . S
O236 C180 1.325 . S
O237 Li176 1.981 . S
O237 Li177 1.956 1_455 S
O237 Li179 1.950 1_455 S
O237 C186 1.325 . S
O238 Li176 1.959 1_655 S
O238 Li178 1.956 1_655 S
O238 Li179 1.973 . S
O238 C208 1.325 1_655 S
O239 Li177 1.967 . S
O239 Li178 1.955 1_655 S
O239 Li179 1.956 . S
O239 C214 1.325 . S
H240 C182 0.929 . S
H241 C183 0.930 . S
H242 C184 0.930 . S
H243 C185 0.930 . S
H244 C187 0.930 . S
H245 C189 0.929 . S
H246 C190 0.930 . S
H247 C191 0.930 . S
H248 C194 0.930 . S
H249 C197 0.929 . S
H250 C202 0.929 . S
H251 C203 0.930 . S
H252 C210 0.929 . S
H253 C211 0.930 . S
H254 C212 0.930 . S
H255 C213 0.930 . S
H256 C215 0.929 . S
H257 C216 0.930 . S
H258 C217 0.930 . S
H259 C218 0.930 . S
H260 C222 0.929 . S
H261 C224 0.930 . S
H262 C230 0.929 . S
H263 C231 0.930 . S
Li264 N281 1.990 . S
Li264 O324 1.956 . S
Li264 O325 1.981 . S
Li264 O326 1.959 1_545 S
Li265 N289 1.991 . S
Li265 O324 1.964 1_565 S
Li265 O325 1.956 1_565 S
Li265 O327 1.967 . S
Li266 N311 1.991 . S
Li266 O324 1.976 . S
Li266 O326 1.956 1_545 S
Li266 O327 1.955 1_545 S
Li267 N317 1.990 . S
Li267 O325 1.950 1_565 S
Li267 O326 1.973 . S
Li267 O327 1.956 . S
C268 C270 1.348 . S
C268 C271 1.356 . S
C268 O324 1.325 . S
N269 C272 1.314 . S
N269 C273 1.279 . S
C270 C268 1.348 . S
C270 C272 1.353 . S
C270 H328 0.929 . S
C271 C268 1.356 . S
C271 C273 1.358 . S
C271 H329 0.930 . S
C272 N269 1.314 . S
C272 C270 1.353 . S
C272 H330 0.930 . S
C273 N269 1.279 . S
C273 C271 1.358 . S
C273 H331 0.930 . S
C274 C277 1.345 . S
C274 C278 1.359 1_545 S
C274 O325 1.325 . S
C275 N276 1.316 . S
C275 C278 1.358 . S
C275 H332 0.930 . S
N276 C275 1.316 . S
N276 C279 1.277 1_565 S
C277 C274 1.345 . S
C277 C279 1.353 . S
C277 H333 0.929 . S
C278 C274 1.359 1_565 S
C278 C275 1.358 . S
C278 H334 0.930 . S
C279 N276 1.277 1_545 S
C279 C277 1.353 . S
C279 H335 0.930 . S
C280 N281 1.314 . S
C280 C285 1.353 . S
C280 H286 0.930 . S
N281 Li264 1.990 . S
N281 C280 1.314 . S
N281 C283 1.279 . S
C282 C283 1.358 . S
C282 C284 1.356 . S
C282 H336 0.930 . S
C283 N281 1.279 . S
C283 C282 1.358 . S
C283 H287 0.930 . S
C284 C282 1.356 . S
C284 C285 1.348 . S
C285 C280 1.353 . S
C285 C284 1.348 . S
C285 H337 0.929 . S
H286 C280 0.930 . S
H287 C283 0.930 . S
C288 N289 1.314 . S
C288 C290 1.353 . S
C288 H294 0.930 . S
N289 Li265 1.991 . S
N289 C288 1.314 . S
N289 C292 1.279 1_565 S
C290 C288 1.353 . S
C290 C293 1.346 1_565 S
C290 H338 0.929 . S
C291 C292 1.358 . S
C291 C293 1.357 . S
C291 H339 0.930 . S
C292 N289 1.279 1_545 S
C292 C291 1.358 . S
C292 H295 0.930 . S
C293 C290 1.346 1_545 S
C293 C291 1.357 . S
H294 C288 0.930 . S
H295 C292 0.930 . S
C296 C298 1.345 1_545 S
C296 C299 1.359 . S
C296 O326 1.325 1_545 S
N297 C300 1.314 1_545 S
N297 C301 1.279 . S
C298 C296 1.345 1_565 S
C298 C300 1.353 . S
C298 H340 0.929 . S
C299 C296 1.359 . S
C299 C301 1.358 . S
C299 H341 0.930 . S
C300 N297 1.314 1_565 S
C300 C298 1.353 . S
C300 H342 0.930 . S
C301 N297 1.279 . S
C301 C299 1.358 . S
C301 H343 0.930 . S
C302 C303 1.348 . S
C302 C304 1.356 . S
C302 O327 1.325 . S
C303 C302 1.348 . S
C303 C305 1.353 . S
C303 H344 0.929 . S
C304 C302 1.356 . S
C304 C306 1.358 . S
C304 H345 0.930 . S
C305 C303 1.353 . S
C305 N307 1.314 . S
C305 H346 0.930 . S
C306 C304 1.358 . S
C306 N307 1.279 . S
C306 H347 0.930 . S
N307 C305 1.314 . S
N307 C306 1.279 . S
C308 C310 1.353 . S
C308 N311 1.314 . S
C308 H314 0.930 . S
C309 N311 1.279 1_565 S
C309 C312 1.358 . S
C309 H315 0.930 . S
C310 C308 1.353 . S
C310 C313 1.346 . S
C310 H348 0.929 . S
N311 Li266 1.991 . S
N311 C308 1.314 . S
N311 C309 1.279 1_545 S
C312 C309 1.358 . S
C312 C313 1.357 1_565 S
C312 H349 0.930 . S
C313 C310 1.346 . S
C313 C312 1.357 1_545 S
H314 C308 0.930 . S
H315 C309 0.930 . S
C316 N317 1.314 . S
C316 C318 1.353 . S
C316 H322 0.930 . S
N317 Li267 1.990 . S
N317 C316 1.314 . S
N317 C320 1.279 . S
C318 C316 1.353 . S
C318 C321 1.348 . S
C318 H350 0.929 . S
C319 C320 1.358 . S
C319 C321 1.356 . S
C319 H351 0.930 . S
C320 N317 1.279 . S
C320 C319 1.358 . S
C320 H323 0.930 . S
C321 C318 1.348 . S
C321 C319 1.356 . S
H322 C316 0.930 . S
H323 C320 0.930 . S
O324 Li264 1.956 . S
O324 Li265 1.964 1_545 S
O324 Li266 1.976 . S
O324 C268 1.325 . S
O325 Li264 1.981 . S
O325 Li265 1.956 1_545 S
O325 Li267 1.950 1_545 S
O325 C274 1.325 . S
O326 Li264 1.959 1_565 S
O326 Li266 1.956 1_565 S
O326 Li267 1.973 . S
O326 C296 1.325 1_565 S
O327 Li265 1.967 . S
O327 Li266 1.955 1_565 S
O327 Li267 1.956 . S
O327 C302 1.325 . S
H328 C270 0.929 . S
H329 C271 0.930 . S
H330 C272 0.930 . S
H331 C273 0.930 . S
H332 C275 0.930 . S
H333 C277 0.929 . S
H334 C278 0.930 . S
H335 C279 0.930 . S
H336 C282 0.930 . S
H337 C285 0.929 . S
H338 C290 0.929 . S
H339 C291 0.930 . S
H340 C298 0.929 . S
H341 C299 0.930 . S
H342 C300 0.930 . S
H343 C301 0.930 . S
H344 C303 0.929 . S
H345 C304 0.930 . S
H346 C305 0.930 . S
H347 C306 0.930 . S
H348 C310 0.929 . S
H349 C312 0.930 . S
H350 C318 0.929 . S
H351 C319 0.930 . S
Li352 N369 1.990 . S
Li352 O412 1.956 . S
Li352 O413 1.981 . S
Li352 O414 1.959 1_545 S
Li353 N377 1.991 . S
Li353 O412 1.964 1_565 S
Li353 O413 1.956 1_565 S
Li353 O415 1.967 . S
Li354 N399 1.991 . S
Li354 O412 1.976 . S
Li354 O414 1.956 1_545 S
Li354 O415 1.955 1_545 S
Li355 N405 1.990 . S
Li355 O413 1.950 1_565 S
Li355 O414 1.973 . S
Li355 O415 1.956 . S
C356 C358 1.348 . S
C356 C359 1.356 . S
C356 O412 1.325 . S
N357 C360 1.314 . S
N357 C361 1.279 . S
C358 C356 1.348 . S
C358 C360 1.353 . S
C358 H416 0.929 . S
C359 C356 1.356 . S
C359 C361 1.358 . S
C359 H417 0.930 . S
C360 N357 1.314 . S
C360 C358 1.353 . S
C360 H418 0.930 . S
C361 N357 1.279 . S
C361 C359 1.358 . S
C361 H419 0.930 . S
C362 C365 1.345 . S
C362 C366 1.359 1_545 S
C362 O413 1.325 . S
C363 N364 1.317 . S
C363 C366 1.358 . S
C363 H420 0.930 . S
N364 C363 1.317 . S
N364 C367 1.277 1_565 S
C365 C362 1.345 . S
C365 C367 1.353 . S
C365 H421 0.929 . S
C366 C362 1.359 1_565 S
C366 C363 1.358 . S
C366 H422 0.930 . S
C367 N364 1.277 1_545 S
C367 C365 1.353 . S
C367 H423 0.930 . S
C368 N369 1.314 . S
C368 C373 1.353 . S
C368 H374 0.930 . S
N369 Li352 1.990 . S
N369 C368 1.314 . S
N369 C371 1.279 . S
C370 C371 1.358 . S
C370 C372 1.356 . S
C370 H424 0.930 . S
C371 N369 1.279 . S
C371 C370 1.358 . S
C371 H375 0.930 . S
C372 C370 1.356 . S
C372 C373 1.348 . S
C373 C368 1.353 . S
C373 C372 1.348 . S
C373 H425 0.929 . S
H374 C368 0.930 . S
H375 C371 0.930 . S
C376 N377 1.314 . S
C376 C378 1.353 . S
C376 H382 0.930 . S
N377 Li353 1.991 . S
N377 C376 1.314 . S
N377 C380 1.279 1_565 S
C378 C376 1.353 . S
C378 C381 1.346 1_565 S
C378 H426 0.929 . S
C379 C380 1.358 . S
C379 C381 1.357 . S
C379 H427 0.930 . S
C380 N377 1.279 1_545 S
C380 C379 1.358 . S
C380 H383 0.930 . S
C381 C378 1.346 1_545 S
C381 C379 1.357 . S
H382 C376 0.930 . S
H383 C380 0.930 . S
C384 C386 1.345 1_545 S
C384 C387 1.359 . S
C384 O414 1.325 1_545 S
N385 C388 1.314 1_545 S
N385 C389 1.279 . S
C386 C384 1.345 1_565 S
C386 C388 1.353 . S
C386 H428 0.929 . S
C387 C384 1.359 . S
C387 C389 1.358 . S
C387 H429 0.930 . S
C388 N385 1.314 1_565 S
C388 C386 1.353 . S
C388 H430 0.930 . S
C389 N385 1.279 . S
C389 C387 1.358 . S
C389 H431 0.930 . S
C390 C391 1.348 . S
C390 C392 1.356 . S
C390 O415 1.325 . S
C391 C390 1.348 . S
C391 C393 1.353 . S
C391 H432 0.929 . S
C392 C390 1.356 . S
C392 C394 1.358 . S
C392 H433 0.930 . S
C393 C391 1.353 . S
C393 N395 1.314 . S
C393 H434 0.930 . S
C394 C392 1.358 . S
C394 N395 1.279 . S
C394 H435 0.930 . S
N395 C393 1.314 . S
N395 C394 1.279 . S
C396 C398 1.353 . S
C396 N399 1.314 . S
C396 H402 0.930 . S
C397 N399 1.279 1_565 S
C397 C400 1.358 . S
C397 H403 0.930 . S
C398 C396 1.353 . S
C398 C401 1.346 . S
C398 H436 0.929 . S
N399 Li354 1.991 . S
N399 C396 1.314 . S
N399 C397 1.279 1_545 S
C400 C397 1.358 . S
C400 C401 1.357 1_565 S
C400 H437 0.930 . S
C401 C398 1.346 . S
C401 C400 1.357 1_545 S
H402 C396 0.930 . S
H403 C397 0.930 . S
C404 N405 1.314 . S
C404 C406 1.353 . S
C404 H410 0.930 . S
N405 Li355 1.990 . S
N405 C404 1.314 . S
N405 C408 1.279 . S
C406 C404 1.353 . S
C406 C409 1.348 . S
C406 H438 0.929 . S
C407 C408 1.358 . S
C407 C409 1.356 . S
C407 H439 0.930 . S
C408 N405 1.279 . S
C408 C407 1.358 . S
C408 H411 0.930 . S
C409 C406 1.348 . S
C409 C407 1.356 . S
H410 C404 0.930 . S
H411 C408 0.930 . S
O412 Li352 1.956 . S
O412 Li353 1.964 1_545 S
O412 Li354 1.976 . S
O412 C356 1.325 . S
O413 Li352 1.981 . S
O413 Li353 1.956 1_545 S
O413 Li355 1.950 1_545 S
O413 C362 1.325 . S
O414 Li352 1.959 1_565 S
O414 Li354 1.956 1_565 S
O414 Li355 1.973 . S
O414 C384 1.325 1_565 S
O415 Li353 1.967 . S
O415 Li354 1.955 1_565 S
O415 Li355 1.956 . S
O415 C390 1.325 . S
H416 C358 0.929 . S
H417 C359 0.930 . S
H418 C360 0.930 . S
H419 C361 0.930 . S
H420 C363 0.930 . S
H421 C365 0.929 . S
H422 C366 0.930 . S
H423 C367 0.930 . S
H424 C370 0.930 . S
H425 C373 0.929 . S
H426 C378 0.929 . S
H427 C379 0.930 . S
H428 C386 0.929 . S
H429 C387 0.930 . S
H430 C388 0.930 . S
H431 C389 0.930 . S
H432 C391 0.929 . S
H433 C392 0.930 . S
H434 C393 0.930 . S
H435 C394 0.930 . S
H436 C398 0.929 . S
H437 C400 0.930 . S
H438 C406 0.929 . S
H439 C407 0.930 . S
Li440 N457 1.990 . S
Li440 O500 1.956 . S
Li440 O501 1.973 . S
Li440 O502 1.950 1_655 S
Li441 N465 1.991 . S
Li441 O500 1.955 1_455 S
Li441 O501 1.956 1_455 S
Li441 O503 1.976 . S
Li442 N487 1.991 . S
Li442 O500 1.967 . S
Li442 O502 1.956 1_655 S
Li442 O503 1.964 1_655 S
Li443 N493 1.990 . S
Li443 O501 1.959 1_455 S
Li443 O502 1.981 . S
Li443 O503 1.956 . S
C444 C446 1.348 . S
C444 C447 1.356 . S
C444 O500 1.325 . S
N445 C448 1.314 . S
N445 C449 1.279 . S
C446 C444 1.348 . S
C446 C448 1.353 . S
C446 H504 0.929 . S
C447 C444 1.356 . S
C447 C449 1.358 . S
C447 H505 0.930 . S
C448 N445 1.314 . S
C448 C446 1.353 . S
C448 H506 0.930 . S
C449 N445 1.279 . S
C449 C447 1.358 . S
C449 H507 0.930 . S
C450 C453 1.345 1_455 S
C450 C454 1.359 . S
C450 O501 1.325 1_455 S
C451 N452 1.279 . S
C451 C454 1.358 . S
C451 H508 0.930 . S
N452 C451 1.279 . S
N452 C455 1.314 1_455 S
C453 C450 1.345 1_655 S
C453 C455 1.353 . S
C453 H509 0.929 . S
C454 C450 1.359 . S
C454 C451 1.358 . S
C454 H510 0.930 . S
C455 N452 1.314 1_655 S
C455 C453 1.353 . S
C455 H511 0.930 . S
C456 N457 1.314 . S
C456 C461 1.353 . S
C456 H462 0.930 . S
N457 Li440 1.990 . S
N457 C456 1.314 . S
N457 C459 1.279 . S
C458 C459 1.358 . S
C458 C460 1.356 . S
C458 H512 0.930 . S
C459 N457 1.279 . S
C459 C458 1.358 . S
C459 H463 0.930 . S
C460 C458 1.356 . S
C460 C461 1.348 . S
C461 C456 1.353 . S
C461 C460 1.348 . S
C461 H513 0.929 . S
H462 C456 0.930 . S
H463 C459 0.930 . S
C464 N465 1.314 . S
C464 C466 1.353 . S
C464 H470 0.930 . S
N465 Li441 1.991 . S
N465 C464 1.314 . S
N465 C468 1.279 1_455 S
C466 C464 1.353 . S
C466 C469 1.346 . S
C466 H514 0.929 . S
C467 C468 1.358 . S
C467 C469 1.357 1_655 S
C467 H515 0.930 . S
C468 N465 1.279 1_655 S
C468 C467 1.358 . S
C468 H471 0.930 . S
C469 C466 1.346 . S
C469 C467 1.357 1_455 S
H470 C464 0.930 . S
H471 C468 0.930 . S
C472 C474 1.345 . S
C472 C475 1.359 1_455 S
C472 O502 1.325 . S
N473 C476 1.277 1_655 S
N473 C477 1.317 . S
C474 C472 1.345 . S
C474 C476 1.353 . S
C474 H516 0.929 . S
C475 C472 1.359 1_655 S
C475 C477 1.358 . S
C475 H517 0.930 . S
C476 N473 1.277 1_455 S
C476 C474 1.353 . S
C476 H518 0.930 . S
C477 N473 1.317 . S
C477 C475 1.358 . S
C477 H519 0.930 . S
C478 C479 1.348 . S
C478 C480 1.356 . S
C478 O503 1.325 . S
C479 C478 1.348 . S
C479 C481 1.353 . S
C479 H520 0.929 . S
C480 C478 1.356 . S
C480 C482 1.358 . S
C480 H521 0.930 . S
C481 C479 1.353 . S
C481 N483 1.314 . S
C481 H522 0.930 . S
C482 C480 1.358 . S
C482 N483 1.279 . S
C482 H523 0.930 . S
N483 C481 1.314 . S
N483 C482 1.279 . S
C484 C486 1.353 . S
C484 N487 1.314 . S
C484 H490 0.930 . S
C485 N487 1.279 1_455 S
C485 C488 1.358 . S
C485 H491 0.930 . S
C486 C484 1.353 . S
C486 C489 1.346 1_655 S
C486 H524 0.929 . S
N487 Li442 1.991 . S
N487 C484 1.314 . S
N487 C485 1.279 1_655 S
C488 C485 1.358 . S
C488 C489 1.357 . S
C488 H525 0.930 . S
C489 C486 1.346 1_455 S
C489 C488 1.357 . S
H490 C484 0.930 . S
H491 C485 0.930 . S
C492 N493 1.314 . S
C492 C494 1.353 . S
C492 H498 0.930 . S
N493 Li443 1.990 . S
N493 C492 1.314 . S
N493 C496 1.279 . S
C494 C492 1.353 . S
C494 C497 1.348 . S
C494 H526 0.929 . S
C495 C496 1.358 . S
C495 C497 1.356 . S
C495 H527 0.930 . S
C496 N493 1.279 . S
C496 C495 1.358 . S
C496 H499 0.930 . S
C497 C494 1.348 . S
C497 C495 1.356 . S
H498 C492 0.930 . S
H499 C496 0.930 . S
O500 Li440 1.956 . S
O500 Li441 1.955 1_655 S
O500 Li442 1.967 . S
O500 C444 1.325 . S
O501 Li440 1.973 . S
O501 Li441 1.956 1_655 S
O501 Li443 1.959 1_655 S
O501 C450 1.325 1_655 S
O502 Li440 1.950 1_455 S
O502 Li442 1.956 1_455 S
O502 Li443 1.981 . S
O502 C472 1.325 . S
O503 Li441 1.976 . S
O503 Li442 1.964 1_455 S
O503 Li443 1.956 . S
O503 C478 1.325 . S
H504 C446 0.929 . S
H505 C447 0.930 . S
H506 C448 0.930 . S
H507 C449 0.930 . S
H508 C451 0.930 . S
H509 C453 0.929 . S
H510 C454 0.930 . S
H511 C455 0.930 . S
H512 C458 0.930 . S
H513 C461 0.929 . S
H514 C466 0.929 . S
H515 C467 0.930 . S
H516 C474 0.929 . S
H517 C475 0.930 . S
H518 C476 0.930 . S
H519 C477 0.930 . S
H520 C479 0.929 . S
H521 C480 0.930 . S
H522 C481 0.930 . S
H523 C482 0.930 . S
H524 C486 0.929 . S
H525 C488 0.930 . S
H526 C494 0.929 . S
H527 C495 0.930 . S
Li528 N545 1.991 . S
Li528 O588 1.956 1_545 S
Li528 O589 1.955 1_545 S
Li528 O590 1.976 . S
Li529 N553 1.990 . S
Li529 O588 1.973 . S
Li529 O589 1.956 . S
Li529 O591 1.950 1_565 S
Li530 N575 1.990 . S
Li530 O588 1.959 1_545 S
Li530 O590 1.956 . S
Li530 O591 1.981 . S
Li531 N581 1.991 . S
Li531 O589 1.967 . S
Li531 O590 1.964 1_565 S
Li531 O591 1.956 1_565 S
C532 C534 1.345 1_545 S
C532 C535 1.359 . S
C532 O588 1.325 1_545 S
N533 C536 1.314 1_545 S
N533 C537 1.279 . S
C534 C532 1.345 1_565 S
C534 C536 1.353 . S
C534 H592 0.929 . S
C535 C532 1.359 . S
C535 C537 1.358 . S
C535 H593 0.930 . S
C536 N533 1.314 1_565 S
C536 C534 1.353 . S
C536 H594 0.930 . S
C537 N533 1.279 . S
C537 C535 1.358 . S
C537 H595 0.930 . S
C538 C541 1.348 . S
C538 C542 1.356 . S
C538 O589 1.325 . S
C539 N540 1.279 . S
C539 C542 1.358 . S
C539 H596 0.930 . S
N540 C539 1.279 . S
N540 C543 1.314 . S
C541 C538 1.348 . S
C541 C543 1.353 . S
C541 H597 0.929 . S
C542 C538 1.356 . S
C542 C539 1.358 . S
C542 H598 0.930 . S
C543 N540 1.314 . S
C543 C541 1.353 . S
C543 H599 0.930 . S
C544 N545 1.314 . S
C544 C549 1.353 . S
C544 H550 0.930 . S
N545 Li528 1.991 . S
N545 C544 1.314 . S
N545 C547 1.279 1_545 S
C546 C547 1.358 . S
C546 C548 1.357 1_565 S
C546 H600 0.930 . S
C547 N545 1.279 1_565 S
C547 C546 1.358 . S
C547 H551 0.930 . S
C548 C546 1.357 1_545 S
C548 C549 1.346 . S
C549 C544 1.353 . S
C549 C548 1.346 . S
C549 H601 0.929 . S
H550 C544 0.930 . S
H551 C547 0.930 . S
C552 N553 1.314 . S
C552 C554 1.353 . S
C552 H558 0.930 . S
N553 Li529 1.990 . S
N553 C552 1.314 . S
N553 C556 1.279 . S
C554 C552 1.353 . S
C554 C557 1.348 . S
C554 H602 0.929 . S
C555 C556 1.358 . S
C555 C557 1.356 . S
C555 H603 0.930 . S
C556 N553 1.279 . S
C556 C555 1.358 . S
C556 H559 0.930 . S
C557 C554 1.348 . S
C557 C555 1.356 . S
H558 C552 0.930 . S
H559 C556 0.930 . S
C560 C562 1.348 . S
C560 C563 1.356 . S
C560 O590 1.325 . S
N561 C564 1.314 . S
N561 C565 1.279 . S
C562 C560 1.348 . S
C562 C564 1.353 . S
C562 H604 0.929 . S
C563 C560 1.356 . S
C563 C565 1.358 . S
C563 H605 0.930 . S
C564 N561 1.314 . S
C564 C562 1.353 . S
C564 H606 0.930 . S
C565 N561 1.279 . S
C565 C563 1.358 . S
C565 H607 0.930 . S
C566 C567 1.345 . S
C566 C568 1.359 1_545 S
C566 O591 1.325 . S
C567 C566 1.345 . S
C567 C569 1.353 . S
C567 H608 0.929 . S
C568 C566 1.359 1_565 S
C568 C570 1.358 . S
C568 H609 0.930 . S
C569 C567 1.353 . S
C569 N571 1.277 1_545 S
C569 H610 0.930 . S
C570 C568 1.358 . S
C570 N571 1.316 . S
C570 H611 0.930 . S
N571 C569 1.277 1_565 S
N571 C570 1.316 . S
C572 C574 1.353 . S
C572 N575 1.314 . S
C572 H578 0.930 . S
C573 N575 1.279 . S
C573 C576 1.358 . S
C573 H579 0.930 . S
C574 C572 1.353 . S
C574 C577 1.348 . S
C574 H612 0.929 . S
N575 Li530 1.990 . S
N575 C572 1.314 . S
N575 C573 1.279 . S
C576 C573 1.358 . S
C576 C577 1.356 . S
C576 H613 0.930 . S
C577 C574 1.348 . S
C577 C576 1.356 . S
H578 C572 0.930 . S
H579 C573 0.930 . S
C580 N581 1.314 . S
C580 C582 1.353 . S
C580 H586 0.930 . S
N581 Li531 1.991 . S
N581 C580 1.314 . S
N581 C584 1.279 1_565 S
C582 C580 1.353 . S
C582 C585 1.346 1_565 S
C582 H614 0.929 . S
C583 C584 1.358 . S
C583 C585 1.357 . S
C583 H615 0.930 . S
C584 N581 1.279 1_545 S
C584 C583 1.358 . S
C584 H587 0.930 . S
C585 C582 1.346 1_545 S
C585 C583 1.357 . S
H586 C580 0.930 . S
H587 C584 0.930 . S
O588 Li528 1.956 1_565 S
O588 Li529 1.973 . S
O588 Li530 1.959 1_565 S
O588 C532 1.325 1_565 S
O589 Li528 1.955 1_565 S
O589 Li529 1.956 . S
O589 Li531 1.967 . S
O589 C538 1.325 . S
O590 Li528 1.976 . S
O590 Li530 1.956 . S
O590 Li531 1.964 1_545 S
O590 C560 1.325 . S
O591 Li529 1.950 1_545 S
O591 Li530 1.981 . S
O591 Li531 1.956 1_545 S
O591 C566 1.325 . S
H592 C534 0.929 . S
H593 C535 0.930 . S
H594 C536 0.930 . S
H595 C537 0.930 . S
H596 C539 0.930 . S
H597 C541 0.929 . S
H598 C542 0.930 . S
H599 C543 0.930 . S
H600 C546 0.930 . S
H601 C549 0.929 . S
H602 C554 0.929 . S
H603 C555 0.930 . S
H604 C562 0.929 . S
H605 C563 0.930 . S
H606 C564 0.930 . S
H607 C565 0.930 . S
H608 C567 0.929 . S
H609 C568 0.930 . S
H610 C569 0.930 . S
H611 C570 0.930 . S
H612 C574 0.929 . S
H613 C576 0.930 . S
H614 C582 0.929 . S
H615 C583 0.930 . S
Li616 N633 1.991 . S
Li616 O676 1.956 1_455 S
Li616 O677 1.955 1_455 S
Li616 O678 1.976 . S
Li617 N641 1.990 . S
Li617 O676 1.973 . S
Li617 O677 1.956 . S
Li617 O679 1.950 1_655 S
Li618 N663 1.990 . S
Li618 O676 1.959 1_455 S
Li618 O678 1.956 . S
Li618 O679 1.981 . S
Li619 N669 1.991 . S
Li619 O677 1.967 . S
Li619 O678 1.964 1_655 S
Li619 O679 1.956 1_655 S
C620 C622 1.345 1_455 S
C620 C623 1.359 . S
C620 O676 1.325 1_455 S
N621 C624 1.314 1_455 S
N621 C625 1.279 . S
C622 C620 1.345 1_655 S
C622 C624 1.353 . S
C622 H680 0.929 . S
C623 C620 1.359 . S
C623 C625 1.358 . S
C623 H681 0.930 . S
C624 N621 1.314 1_655 S
C624 C622 1.353 . S
C624 H682 0.930 . S
C625 N621 1.279 . S
C625 C623 1.358 . S
C625 H683 0.930 . S
C626 C629 1.348 . S
C626 C630 1.356 . S
C626 O677 1.325 . S
C627 N628 1.279 . S
C627 C630 1.358 . S
C627 H684 0.930 . S
N628 C627 1.279 . S
N628 C631 1.314 . S
C629 C626 1.348 . S
C629 C631 1.353 . S
C629 H685 0.929 . S
C630 C626 1.356 . S
C630 C627 1.358 . S
C630 H686 0.930 . S
C631 N628 1.314 . S
C631 C629 1.353 . S
C631 H687 0.930 . S
C632 N633 1.314 . S
C632 C637 1.353 . S
C632 H638 0.930 . S
N633 Li616 1.991 . S
N633 C632 1.314 . S
N633 C635 1.279 1_455 S
C634 C635 1.358 . S
C634 C636 1.357 1_655 S
C634 H688 0.930 . S
C635 N633 1.279 1_655 S
C635 C634 1.358 . S
C635 H639 0.930 . S
C636 C634 1.357 1_455 S
C636 C637 1.346 . S
C637 C632 1.353 . S
C637 C636 1.346 . S
C637 H689 0.929 . S
H638 C632 0.930 . S
H639 C635 0.930 . S
C640 N641 1.314 . S
C640 C642 1.353 . S
C640 H646 0.930 . S
N641 Li617 1.990 . S
N641 C640 1.314 . S
N641 C644 1.279 . S
C642 C640 1.353 . S
C642 C645 1.348 . S
C642 H690 0.929 . S
C643 C644 1.358 . S
C643 C645 1.356 . S
C643 H691 0.930 . S
C644 N641 1.279 . S
C644 C643 1.358 . S
C644 H647 0.930 . S
C645 C642 1.348 . S
C645 C643 1.356 . S
H646 C640 0.930 . S
H647 C644 0.930 . S
C648 C650 1.348 . S
C648 C651 1.356 . S
C648 O678 1.325 . S
N649 C652 1.314 . S
N649 C653 1.279 . S
C650 C648 1.348 . S
C650 C652 1.353 . S
C650 H692 0.929 . S
C651 C648 1.356 . S
C651 C653 1.358 . S
C651 H693 0.930 . S
C652 N649 1.314 . S
C652 C650 1.353 . S
C652 H694 0.930 . S
C653 N649 1.279 . S
C653 C651 1.358 . S
C653 H695 0.930 . S
C654 C655 1.345 . S
C654 C656 1.359 1_455 S
C654 O679 1.325 . S
C655 C654 1.345 . S
C655 C657 1.353 . S
C655 H696 0.929 . S
C656 C654 1.359 1_655 S
C656 C658 1.358 . S
C656 H697 0.930 . S
C657 C655 1.353 . S
C657 N659 1.277 1_455 S
C657 H698 0.930 . S
C658 C656 1.358 . S
C658 N659 1.317 . S
C658 H699 0.930 . S
N659 C657 1.277 1_655 S
N659 C658 1.317 . S
C660 C662 1.353 . S
C660 N663 1.314 . S
C660 H666 0.930 . S
C661 N663 1.279 . S
C661 C664 1.358 . S
C661 H667 0.930 . S
C662 C660 1.353 . S
C662 C665 1.348 . S
C662 H700 0.929 . S
N663 Li618 1.990 . S
N663 C660 1.314 . S
N663 C661 1.279 . S
C664 C661 1.358 . S
C664 C665 1.356 . S
C664 H701 0.930 . S
C665 C662 1.348 . S
C665 C664 1.356 . S
H666 C660 0.930 . S
H667 C661 0.930 . S
C668 N669 1.314 . S
C668 C670 1.353 . S
C668 H674 0.930 . S
N669 Li619 1.991 . S
N669 C668 1.314 . S
N669 C672 1.279 1_655 S
C670 C668 1.353 . S
C670 C673 1.346 1_655 S
C670 H702 0.929 . S
C671 C672 1.358 . S
C671 C673 1.357 . S
C671 H703 0.930 . S
C672 N669 1.279 1_455 S
C672 C671 1.358 . S
C672 H675 0.930 . S
C673 C670 1.346 1_455 S
C673 C671 1.357 . S
H674 C668 0.930 . S
H675 C672 0.930 . S
O676 Li616 1.956 1_655 S
O676 Li617 1.973 . S
O676 Li618 1.959 1_655 S
O676 C620 1.325 1_655 S
O677 Li616 1.955 1_655 S
O677 Li617 1.956 . S
O677 Li619 1.967 . S
O677 C626 1.325 . S
O678 Li616 1.976 . S
O678 Li618 1.956 . S
O678 Li619 1.964 1_455 S
O678 C648 1.325 . S
O679 Li617 1.950 1_455 S
O679 Li618 1.981 . S
O679 Li619 1.956 1_455 S
O679 C654 1.325 . S
H680 C622 0.929 . S
H681 C623 0.930 . S
H682 C624 0.930 . S
H683 C625 0.930 . S
H684 C627 0.930 . S
H685 C629 0.929 . S
H686 C630 0.930 . S
H687 C631 0.930 . S
H688 C634 0.930 . S
H689 C637 0.929 . S
H690 C642 0.929 . S
H691 C643 0.930 . S
H692 C650 0.929 . S
H693 C651 0.930 . S
H694 C652 0.930 . S
H695 C653 0.930 . S
H696 C655 0.929 . S
H697 C656 0.930 . S
H698 C657 0.930 . S
H699 C658 0.930 . S
H700 C662 0.929 . S
H701 C664 0.930 . S
H702 C670 0.929 . S
H703 C671 0.930 . S
Li704 N721 1.990 . S
Li704 O764 1.956 . S
Li704 O765 1.981 . S
Li704 O766 1.959 1_554 S
Li705 N729 1.991 . S
Li705 O764 1.964 1_556 S
Li705 O765 1.956 1_556 S
Li705 O767 1.967 . S
Li706 N751 1.991 . S
Li706 O764 1.976 . S
Li706 O766 1.956 1_554 S
Li706 O767 1.955 1_554 S
Li707 N757 1.990 . S
Li707 O765 1.950 1_556 S
Li707 O766 1.973 . S
Li707 O767 1.956 . S
C708 C710 1.348 . S
C708 C711 1.356 . S
C708 O764 1.325 . S
N709 C712 1.314 . S
N709 C713 1.279 . S
C710 C708 1.348 . S
C710 C712 1.353 . S
C710 H768 0.929 . S
C711 C708 1.356 . S
C711 C713 1.358 . S
C711 H769 0.930 . S
C712 N709 1.314 . S
C712 C710 1.353 . S
C712 H770 0.930 . S
C713 N709 1.279 . S
C713 C711 1.358 . S
C713 H771 0.930 . S
C714 C717 1.345 . S
C714 C718 1.359 1_554 S
C714 O765 1.325 . S
C715 N716 1.317 . S
C715 C718 1.358 . S
C715 H772 0.930 . S
N716 C715 1.317 . S
N716 C719 1.277 1_556 S
C717 C714 1.345 . S
C717 C719 1.353 . S
C717 H773 0.929 . S
C718 C714 1.359 1_556 S
C718 C715 1.358 . S
C718 H774 0.930 . S
C719 N716 1.277 1_554 S
C719 C717 1.353 . S
C719 H775 0.930 . S
C720 N721 1.314 . S
C720 C725 1.353 . S
C720 H726 0.930 . S
N721 Li704 1.990 . S
N721 C720 1.314 . S
N721 C723 1.279 . S
C722 C723 1.358 . S
C722 C724 1.356 . S
C722 H776 0.930 . S
C723 N721 1.279 . S
C723 C722 1.358 . S
C723 H727 0.930 . S
C724 C722 1.356 . S
C724 C725 1.348 . S
C725 C720 1.353 . S
C725 C724 1.348 . S
C725 H777 0.929 . S
H726 C720 0.930 . S
H727 C723 0.930 . S
C728 N729 1.314 . S
C728 C730 1.353 . S
C728 H734 0.930 . S
N729 Li705 1.991 . S
N729 C728 1.314 . S
N729 C732 1.279 1_556 S
C730 C728 1.353 . S
C730 C733 1.346 1_556 S
C730 H778 0.929 . S
C731 C732 1.358 . S
C731 C733 1.357 . S
C731 H779 0.930 . S
C732 N729 1.279 1_554 S
C732 C731 1.358 . S
C732 H735 0.930 . S
C733 C730 1.346 1_554 S
C733 C731 1.357 . S
H734 C728 0.930 . S
H735 C732 0.930 . S
C736 C738 1.345 1_554 S
C736 C739 1.359 . S
C736 O766 1.325 1_554 S
N737 C740 1.314 1_554 S
N737 C741 1.279 . S
C738 C736 1.345 1_556 S
C738 C740 1.353 . S
C738 H780 0.929 . S
C739 C736 1.359 . S
C739 C741 1.358 . S
C739 H781 0.930 . S
C740 N737 1.314 1_556 S
C740 C738 1.353 . S
C740 H782 0.930 . S
C741 N737 1.279 . S
C741 C739 1.358 . S
C741 H783 0.930 . S
C742 C743 1.348 . S
C742 C744 1.356 . S
C742 O767 1.325 . S
C743 C742 1.348 . S
C743 C745 1.353 . S
C743 H784 0.929 . S
C744 C742 1.356 . S
C744 C746 1.358 . S
C744 H785 0.930 . S
C745 C743 1.353 . S
C745 N747 1.314 . S
C745 H786 0.930 . S
C746 C744 1.358 . S
C746 N747 1.279 . S
C746 H787 0.930 . S
N747 C745 1.314 . S
N747 C746 1.279 . S
C748 C750 1.353 . S
C748 N751 1.314 . S
C748 H754 0.930 . S
C749 N751 1.279 1_556 S
C749 C752 1.358 . S
C749 H755 0.930 . S
C750 C748 1.353 . S
C750 C753 1.346 . S
C750 H788 0.929 . S
N751 Li706 1.991 . S
N751 C748 1.314 . S
N751 C749 1.279 1_554 S
C752 C749 1.358 . S
C752 C753 1.357 1_556 S
C752 H789 0.930 . S
C753 C750 1.346 . S
C753 C752 1.357 1_554 S
H754 C748 0.930 . S
H755 C749 0.930 . S
C756 N757 1.314 . S
C756 C758 1.353 . S
C756 H762 0.930 . S
N757 Li707 1.990 . S
N757 C756 1.314 . S
N757 C760 1.279 . S
C758 C756 1.353 . S
C758 C761 1.348 . S
C758 H790 0.929 . S
C759 C760 1.358 . S
C759 C761 1.356 . S
C759 H791 0.930 . S
C760 N757 1.279 . S
C760 C759 1.358 . S
C760 H763 0.930 . S
C761 C758 1.348 . S
C761 C759 1.356 . S
H762 C756 0.930 . S
H763 C760 0.930 . S
O764 Li704 1.956 . S
O764 Li705 1.964 1_554 S
O764 Li706 1.976 . S
O764 C708 1.325 . S
O765 Li704 1.981 . S
O765 Li705 1.956 1_554 S
O765 Li707 1.950 1_554 S
O765 C714 1.325 . S
O766 Li704 1.959 1_556 S
O766 Li706 1.956 1_556 S
O766 Li707 1.973 . S
O766 C736 1.325 1_556 S
O767 Li705 1.967 . S
O767 Li706 1.955 1_556 S
O767 Li707 1.956 . S
O767 C742 1.325 . S
H768 C710 0.929 . S
H769 C711 0.930 . S
H770 C712 0.930 . S
H771 C713 0.930 . S
H772 C715 0.930 . S
H773 C717 0.929 . S
H774 C718 0.930 . S
H775 C719 0.930 . S
H776 C722 0.930 . S
H777 C725 0.929 . S
H778 C730 0.929 . S
H779 C731 0.930 . S
H780 C738 0.929 . S
H781 C739 0.930 . S
H782 C740 0.930 . S
H783 C741 0.930 . S
H784 C743 0.929 . S
H785 C744 0.930 . S
H786 C745 0.930 . S
H787 C746 0.930 . S
H788 C750 0.929 . S
H789 C752 0.930 . S
H790 C758 0.929 . S
H791 C759 0.930 . S
Li792 N809 1.991 . S
Li792 O852 1.956 1_556 S
Li792 O853 1.964 1_556 S
Li792 O854 1.967 . S
Li793 N817 1.990 . S
Li793 O852 1.981 . S
Li793 O853 1.956 . S
Li793 O855 1.959 1_554 S
Li794 N839 1.990 . S
Li794 O852 1.950 1_556 S
Li794 O854 1.956 . S
Li794 O855 1.973 . S
Li795 N845 1.991 . S
Li795 O853 1.976 . S
Li795 O854 1.955 1_554 S
Li795 O855 1.956 1_554 S
C796 C798 1.345 . S
C796 C799 1.359 1_554 S
C796 O852 1.325 . S
N797 C800 1.277 1_556 S
N797 C801 1.316 . S
C798 C796 1.345 . S
C798 C800 1.353 . S
C798 H856 0.929 . S
C799 C796 1.359 1_556 S
C799 C801 1.358 . S
C799 H857 0.930 . S
C800 N797 1.277 1_554 S
C800 C798 1.353 . S
C800 H858 0.930 . S
C801 N797 1.316 . S
C801 C799 1.358 . S
C801 H859 0.930 . S
C802 C805 1.348 . S
C802 C806 1.356 . S
C802 O853 1.325 . S
C803 N804 1.279 . S
C803 C806 1.358 . S
C803 H860 0.930 . S
N804 C803 1.279 . S
N804 C807 1.314 . S
C805 C802 1.348 . S
C805 C807 1.353 . S
C805 H861 0.929 . S
C806 C802 1.356 . S
C806 C803 1.358 . S
C806 H862 0.930 . S
C807 N804 1.314 . S
C807 C805 1.353 . S
C807 H863 0.930 . S
C808 N809 1.314 . S
C808 C813 1.353 . S
C808 H814 0.930 . S
N809 Li792 1.991 . S
N809 C808 1.314 . S
N809 C811 1.279 1_556 S
C810 C811 1.358 . S
C810 C812 1.357 . S
C810 H864 0.930 . S
C811 N809 1.279 1_554 S
C811 C810 1.358 . S
C811 H815 0.930 . S
C812 C810 1.357 . S
C812 C813 1.346 1_554 S
C813 C808 1.353 . S
C813 C812 1.346 1_556 S
C813 H865 0.929 . S
H814 C808 0.930 . S
H815 C811 0.930 . S
C816 N817 1.314 . S
C816 C818 1.353 . S
C816 H822 0.930 . S
N817 Li793 1.990 . S
N817 C816 1.314 . S
N817 C820 1.279 . S
C818 C816 1.353 . S
C818 C821 1.348 . S
C818 H866 0.929 . S
C819 C820 1.358 . S
C819 C821 1.356 . S
C819 H867 0.930 . S
C820 N817 1.279 . S
C820 C819 1.358 . S
C820 H823 0.930 . S
C821 C818 1.348 . S
C821 C819 1.356 . S
H822 C816 0.930 . S
H823 C820 0.930 . S
C824 C826 1.348 . S
C824 C827 1.356 . S
C824 O854 1.325 . S
N825 C828 1.314 . S
N825 C829 1.279 . S
C826 C824 1.348 . S
C826 C828 1.353 . S
C826 H868 0.929 . S
C827 C824 1.356 . S
C827 C829 1.358 . S
C827 H869 0.930 . S
C828 N825 1.314 . S
C828 C826 1.353 . S
C828 H870 0.930 . S
C829 N825 1.279 . S
C829 C827 1.358 . S
C829 H871 0.930 . S
C830 C831 1.345 1_554 S
C830 C832 1.359 . S
C830 O855 1.325 1_554 S
C831 C830 1.345 1_556 S
C831 C833 1.353 . S
C831 H872 0.929 . S
C832 C830 1.359 . S
C832 C834 1.358 . S
C832 H873 0.930 . S
C833 C831 1.353 . S
C833 N835 1.314 1_556 S
C833 H874 0.930 . S
C834 C832 1.358 . S
C834 N835 1.279 . S
C834 H875 0.930 . S
N835 C833 1.314 1_554 S
N835 C834 1.279 . S
C836 C838 1.353 . S
C836 N839 1.314 . S
C836 H842 0.930 . S
C837 N839 1.279 . S
C837 C840 1.358 . S
C837 H843 0.930 . S
C838 C836 1.353 . S
C838 C841 1.348 . S
C838 H876 0.929 . S
N839 Li794 1.990 . S
N839 C836 1.314 . S
N839 C837 1.279 . S
C840 C837 1.358 . S
C840 C841 1.356 . S
C840 H877 0.930 . S
C841 C838 1.348 . S
C841 C840 1.356 . S
H842 C836 0.930 . S
H843 C837 0.930 . S
C844 N845 1.314 . S
C844 C846 1.353 . S
C844 H850 0.930 . S
N845 Li795 1.991 . S
N845 C844 1.314 . S
N845 C848 1.279 1_554 S
C846 C844 1.353 . S
C846 C849 1.346 . S
C846 H878 0.929 . S
C847 C848 1.358 . S
C847 C849 1.357 1_556 S
C847 H879 0.930 . S
C848 N845 1.279 1_556 S
C848 C847 1.358 . S
C848 H851 0.930 . S
C849 C846 1.346 . S
C849 C847 1.357 1_554 S
H850 C844 0.930 . S
H851 C848 0.930 . S
O852 Li792 1.956 1_554 S
O852 Li793 1.981 . S
O852 Li794 1.950 1_554 S
O852 C796 1.325 . S
O853 Li792 1.964 1_554 S
O853 Li793 1.956 . S
O853 Li795 1.976 . S
O853 C802 1.325 . S
O854 Li792 1.967 . S
O854 Li794 1.956 . S
O854 Li795 1.955 1_556 S
O854 C824 1.325 . S
O855 Li793 1.959 1_556 S
O855 Li794 1.973 . S
O855 Li795 1.956 1_556 S
O855 C830 1.325 1_556 S
H856 C798 0.929 . S
H857 C799 0.930 . S
H858 C800 0.930 . S
H859 C801 0.930 . S
H860 C803 0.930 . S
H861 C805 0.929 . S
H862 C806 0.930 . S
H863 C807 0.930 . S
H864 C810 0.930 . S
H865 C813 0.929 . S
H866 C818 0.929 . S
H867 C819 0.930 . S
H868 C826 0.929 . S
H869 C827 0.930 . S
H870 C828 0.930 . S
H871 C829 0.930 . S
H872 C831 0.929 . S
H873 C832 0.930 . S
H874 C833 0.930 . S
H875 C834 0.930 . S
H876 C838 0.929 . S
H877 C840 0.930 . S
H878 C846 0.929 . S
H879 C847 0.930 . S
Li880 N897 1.991 . S
Li880 O940 1.956 1_556 S
Li880 O941 1.964 1_556 S
Li880 O942 1.967 . S
Li881 N905 1.990 . S
Li881 O940 1.981 . S
Li881 O941 1.956 . S
Li881 O943 1.959 1_554 S
Li882 N927 1.990 . S
Li882 O940 1.950 1_556 S
Li882 O942 1.956 . S
Li882 O943 1.973 . S
Li883 N933 1.991 . S
Li883 O941 1.976 . S
Li883 O942 1.955 1_554 S
Li883 O943 1.956 1_554 S
C884 C886 1.345 . S
C884 C887 1.359 1_554 S
C884 O940 1.325 . S
N885 C888 1.277 1_556 S
N885 C889 1.316 . S
C886 C884 1.345 . S
C886 C888 1.353 . S
C886 H944 0.929 . S
C887 C884 1.359 1_556 S
C887 C889 1.358 . S
C887 H945 0.930 . S
C888 N885 1.277 1_554 S
C888 C886 1.353 . S
C888 H946 0.930 . S
C889 N885 1.316 . S
C889 C887 1.358 . S
C889 H947 0.930 . S
C890 C893 1.348 . S
C890 C894 1.356 . S
C890 O941 1.325 . S
C891 N892 1.279 . S
C891 C894 1.358 . S
C891 H948 0.930 . S
N892 C891 1.279 . S
N892 C895 1.314 . S
C893 C890 1.348 . S
C893 C895 1.353 . S
C893 H949 0.929 . S
C894 C890 1.356 . S
C894 C891 1.358 . S
C894 H950 0.930 . S
C895 N892 1.314 . S
C895 C893 1.353 . S
C895 H951 0.930 . S
C896 N897 1.314 . S
C896 C901 1.353 . S
C896 H902 0.930 . S
N897 Li880 1.991 . S
N897 C896 1.314 . S
N897 C899 1.279 1_556 S
C898 C899 1.358 . S
C898 C900 1.357 . S
C898 H952 0.930 . S
C899 N897 1.279 1_554 S
C899 C898 1.358 . S
C899 H903 0.930 . S
C900 C898 1.357 . S
C900 C901 1.346 1_554 S
C901 C896 1.353 . S
C901 C900 1.346 1_556 S
C901 H953 0.929 . S
H902 C896 0.930 . S
H903 C899 0.930 . S
C904 N905 1.314 . S
C904 C906 1.353 . S
C904 H910 0.930 . S
N905 Li881 1.990 . S
N905 C904 1.314 . S
N905 C908 1.279 . S
C906 C904 1.353 . S
C906 C909 1.348 . S
C906 H954 0.929 . S
C907 C908 1.358 . S
C907 C909 1.356 . S
C907 H955 0.930 . S
C908 N905 1.279 . S
C908 C907 1.358 . S
C908 H911 0.930 . S
C909 C906 1.348 . S
C909 C907 1.356 . S
H910 C904 0.930 . S
H911 C908 0.930 . S
C912 C914 1.348 . S
C912 C915 1.356 . S
C912 O942 1.325 . S
N913 C916 1.314 . S
N913 C917 1.279 . S
C914 C912 1.348 . S
C914 C916 1.353 . S
C914 H956 0.929 . S
C915 C912 1.356 . S
C915 C917 1.358 . S
C915 H957 0.930 . S
C916 N913 1.314 . S
C916 C914 1.353 . S
C916 H958 0.930 . S
C917 N913 1.279 . S
C917 C915 1.358 . S
C917 H959 0.930 . S
C918 C919 1.345 1_554 S
C918 C920 1.359 . S
C918 O943 1.325 1_554 S
C919 C918 1.345 1_556 S
C919 C921 1.353 . S
C919 H960 0.929 . S
C920 C918 1.359 . S
C920 C922 1.358 . S
C920 H961 0.930 . S
C921 C919 1.353 . S
C921 N923 1.314 1_556 S
C921 H962 0.930 . S
C922 C920 1.358 . S
C922 N923 1.279 . S
C922 H963 0.930 . S
N923 C921 1.314 1_554 S
N923 C922 1.279 . S
C924 C926 1.353 . S
C924 N927 1.314 . S
C924 H930 0.930 . S
C925 N927 1.279 . S
C925 C928 1.358 . S
C925 H931 0.930 . S
C926 C924 1.353 . S
C926 C929 1.348 . S
C926 H964 0.929 . S
N927 Li882 1.990 . S
N927 C924 1.314 . S
N927 C925 1.279 . S
C928 C925 1.358 . S
C928 C929 1.356 . S
C928 H965 0.930 . S
C929 C926 1.348 . S
C929 C928 1.356 . S
H930 C924 0.930 . S
H931 C925 0.930 . S
C932 N933 1.314 . S
C932 C934 1.353 . S
C932 H938 0.930 . S
N933 Li883 1.991 . S
N933 C932 1.314 . S
N933 C936 1.279 1_554 S
C934 C932 1.353 . S
C934 C937 1.346 . S
C934 H966 0.929 . S
C935 C936 1.358 . S
C935 C937 1.357 1_556 S
C935 H967 0.930 . S
C936 N933 1.279 1_556 S
C936 C935 1.358 . S
C936 H939 0.930 . S
C937 C934 1.346 . S
C937 C935 1.357 1_554 S
H938 C932 0.930 . S
H939 C936 0.930 . S
O940 Li880 1.956 1_554 S
O940 Li881 1.981 . S
O940 Li882 1.950 1_554 S
O940 C884 1.325 . S
O941 Li880 1.964 1_554 S
O941 Li881 1.956 . S
O941 Li883 1.976 . S
O941 C890 1.325 . S
O942 Li880 1.967 . S
O942 Li882 1.956 . S
O942 Li883 1.955 1_556 S
O942 C912 1.325 . S
O943 Li881 1.959 1_556 S
O943 Li882 1.973 . S
O943 Li883 1.956 1_556 S
O943 C918 1.325 1_556 S
H944 C886 0.929 . S
H945 C887 0.930 . S
H946 C888 0.930 . S
H947 C889 0.930 . S
H948 C891 0.930 . S
H949 C893 0.929 . S
H950 C894 0.930 . S
H951 C895 0.930 . S
H952 C898 0.930 . S
H953 C901 0.929 . S
H954 C906 0.929 . S
H955 C907 0.930 . S
H956 C914 0.929 . S
H957 C915 0.930 . S
H958 C916 0.930 . S
H959 C917 0.930 . S
H960 C919 0.929 . S
H961 C920 0.930 . S
H962 C921 0.930 . S
H963 C922 0.930 . S
H964 C926 0.929 . S
H965 C928 0.930 . S
H966 C934 0.929 . S
H967 C935 0.930 . S
Li968 N985 1.990 . S
Li968 O1028 1.956 . S
Li968 O1029 1.981 . S
Li968 O1030 1.959 1_554 S
Li969 N993 1.991 . S
Li969 O1028 1.964 1_556 S
Li969 O1029 1.956 1_556 S
Li969 O1031 1.967 . S
Li970 N1015 1.991 . S
Li970 O1028 1.976 . S
Li970 O1030 1.956 1_554 S
Li970 O1031 1.955 1_554 S
Li971 N1021 1.990 . S
Li971 O1029 1.950 1_556 S
Li971 O1030 1.973 . S
Li971 O1031 1.956 . S
C972 C974 1.348 . S
C972 C975 1.356 . S
C972 O1028 1.325 . S
N973 C976 1.314 . S
N973 C977 1.279 . S
C974 C972 1.348 . S
C974 C976 1.353 . S
C974 H1032 0.929 . S
C975 C972 1.356 . S
C975 C977 1.358 . S
C975 H1033 0.930 . S
C976 N973 1.314 . S
C976 C974 1.353 . S
C976 H1034 0.930 . S
C977 N973 1.279 . S
C977 C975 1.358 . S
C977 H1035 0.930 . S
C978 C981 1.345 . S
C978 C982 1.359 1_554 S
C978 O1029 1.325 . S
C979 N980 1.317 . S
C979 C982 1.358 . S
C979 H1036 0.930 . S
N980 C979 1.317 . S
N980 C983 1.277 1_556 S
C981 C978 1.345 . S
C981 C983 1.353 . S
C981 H1037 0.929 . S
C982 C978 1.359 1_556 S
C982 C979 1.358 . S
C982 H1038 0.930 . S
C983 N980 1.277 1_554 S
C983 C981 1.353 . S
C983 H1039 0.930 . S
C984 N985 1.314 . S
C984 C989 1.353 . S
C984 H990 0.930 . S
N985 Li968 1.990 . S
N985 C984 1.314 . S
N985 C987 1.279 . S
C986 C987 1.358 . S
C986 C988 1.356 . S
C986 H1040 0.930 . S
C987 N985 1.279 . S
C987 C986 1.358 . S
C987 H991 0.930 . S
C988 C986 1.356 . S
C988 C989 1.348 . S
C989 C984 1.353 . S
C989 C988 1.348 . S
C989 H1041 0.929 . S
H990 C984 0.930 . S
H991 C987 0.930 . S
C992 N993 1.314 . S
C992 C994 1.353 . S
C992 H998 0.930 . S
N993 Li969 1.991 . S
N993 C992 1.314 . S
N993 C996 1.279 1_556 S
C994 C992 1.353 . S
C994 C997 1.346 1_556 S
C994 H1042 0.929 . S
C995 C996 1.358 . S
C995 C997 1.357 . S
C995 H1043 0.930 . S
C996 N993 1.279 1_554 S
C996 C995 1.358 . S
C996 H999 0.930 . S
C997 C994 1.346 1_554 S
C997 C995 1.357 . S
H998 C992 0.930 . S
H999 C996 0.930 . S
C1000 C1002 1.345 1_554 S
C1000 C1003 1.359 . S
C1000 O1030 1.325 1_554 S
N1001 C1004 1.314 1_554 S
N1001 C1005 1.279 . S
C1002 C1000 1.345 1_556 S
C1002 C1004 1.353 . S
C1002 H1044 0.929 . S
C1003 C1000 1.359 . S
C1003 C1005 1.358 . S
C1003 H1045 0.930 . S
C1004 N1001 1.314 1_556 S
C1004 C1002 1.353 . S
C1004 H1046 0.930 . S
C1005 N1001 1.279 . S
C1005 C1003 1.358 . S
C1005 H1047 0.930 . S
C1006 C1007 1.348 . S
C1006 C1008 1.356 . S
C1006 O1031 1.325 . S
C1007 C1006 1.348 . S
C1007 C1009 1.353 . S
C1007 H1048 0.929 . S
C1008 C1006 1.356 . S
C1008 C1010 1.358 . S
C1008 H1049 0.930 . S
C1009 C1007 1.353 . S
C1009 N1011 1.314 . S
C1009 H1050 0.930 . S
C1010 C1008 1.358 . S
C1010 N1011 1.279 . S
C1010 H1051 0.930 . S
N1011 C1009 1.314 . S
N1011 C1010 1.279 . S
C1012 C1014 1.353 . S
C1012 N1015 1.314 . S
C1012 H1018 0.930 . S
C1013 N1015 1.279 1_556 S
C1013 C1016 1.358 . S
C1013 H1019 0.930 . S
C1014 C1012 1.353 . S
C1014 C1017 1.346 . S
C1014 H1052 0.929 . S
N1015 Li970 1.991 . S
N1015 C1012 1.314 . S
N1015 C1013 1.279 1_554 S
C1016 C1013 1.358 . S
C1016 C1017 1.357 1_556 S
C1016 H1053 0.930 . S
C1017 C1014 1.346 . S
C1017 C1016 1.357 1_554 S
H1018 C1012 0.930 . S
H1019 C1013 0.930 . S
C1020 N1021 1.314 . S
C1020 C1022 1.353 . S
C1020 H1026 0.930 . S
N1021 Li971 1.990 . S
N1021 C1020 1.314 . S
N1021 C1024 1.279 . S
C1022 C1020 1.353 . S
C1022 C1025 1.348 . S
C1022 H1054 0.929 . S
C1023 C1024 1.358 . S
C1023 C1025 1.356 . S
C1023 H1055 0.930 . S
C1024 N1021 1.279 . S
C1024 C1023 1.358 . S
C1024 H1027 0.930 . S
C1025 C1022 1.348 . S
C1025 C1023 1.356 . S
H1026 C1020 0.930 . S
H1027 C1024 0.930 . S
O1028 Li968 1.956 . S
O1028 Li969 1.964 1_554 S
O1028 Li970 1.976 . S
O1028 C972 1.325 . S
O1029 Li968 1.981 . S
O1029 Li969 1.956 1_554 S
O1029 Li971 1.950 1_554 S
O1029 C978 1.325 . S
O1030 Li968 1.959 1_556 S
O1030 Li970 1.956 1_556 S
O1030 Li971 1.973 . S
O1030 C1000 1.325 1_556 S
O1031 Li969 1.967 . S
O1031 Li970 1.955 1_556 S
O1031 Li971 1.956 . S
O1031 C1006 1.325 . S
H1032 C974 0.929 . S
H1033 C975 0.930 . S
H1034 C976 0.930 . S
H1035 C977 0.930 . S
H1036 C979 0.930 . S
H1037 C981 0.929 . S
H1038 C982 0.930 . S
H1039 C983 0.930 . S
H1040 C986 0.930 . S
H1041 C989 0.929 . S
H1042 C994 0.929 . S
H1043 C995 0.930 . S
H1044 C1002 0.929 . S
H1045 C1003 0.930 . S
H1046 C1004 0.930 . S
H1047 C1005 0.930 . S
H1048 C1007 0.929 . S
H1049 C1008 0.930 . S
H1050 C1009 0.930 . S
H1051 C1010 0.930 . S
H1052 C1014 0.929 . S
H1053 C1016 0.930 . S
H1054 C1022 0.929 . S
H1055 C1023 0.930 . S
H1056 C1068 0.930 . S
H1057 C1070 0.930 . S
H1058 C1071 0.930 . S
H1059 C1075 0.959 . S
H1060 C1075 0.946 1_655 S
H1061 C1075 0.961 . S
H1062 C1076 0.960 . S
H1063 C1076 0.961 . S
H1064 C1076 0.959 . S
H1065 C1079 0.929 . S
H1066 C1080 0.931 . S
H1067 C1082 0.930 . S
C1068 H1056 0.930 . S
C1068 C1069 1.400 1_655 S
C1068 C1073 1.399 . S
C1069 C1068 1.400 1_455 S
C1069 C1070 1.375 . S
C1070 H1057 0.930 . S
C1070 C1069 1.375 . S
C1070 C1071 1.388 . S
C1071 H1058 0.930 . S
C1071 C1070 1.388 . S
C1071 C1072 1.396 . S
C1072 C1071 1.396 . S
C1072 C1073 1.388 1_455 S
C1072 C1078 1.465 . S
C1073 C1068 1.399 . S
C1073 C1072 1.388 1_655 S
C1073 C1074 1.516 . S
C1074 C1073 1.516 . S
C1074 C1075 1.502 1_655 S
C1074 C1076 1.561 . S
C1074 C1077 1.526 . S
C1075 H1059 0.959 . S
C1075 H1060 0.946 1_455 S
C1075 H1061 0.961 . S
C1075 C1074 1.502 1_455 S
C1076 H1062 0.960 . S
C1076 H1063 0.961 . S
C1076 H1064 0.959 . S
C1076 C1074 1.561 . S
C1077 C1074 1.526 . S
C1077 C1078 1.386 1_655 S
C1077 C1082 1.390 . S
C1078 C1072 1.465 . S
C1078 C1077 1.386 1_455 S
C1078 C1079 1.409 . S
C1079 H1065 0.929 . S
C1079 C1078 1.409 . S
C1079 C1080 1.385 . S
C1080 H1066 0.931 . S
C1080 C1079 1.385 . S
C1080 C1081 1.389 . S
C1081 C1080 1.389 . S
C1081 C1082 1.387 1_455 S
C1082 H1067 0.930 . S
C1082 C1077 1.390 . S
C1082 C1081 1.387 1_655 S
H1083 C1095 0.930 . S
H1084 C1097 0.930 . S
H1085 C1098 0.930 . S
H1086 C1102 0.959 . S
H1087 C1102 0.959 . S
H1088 C1102 0.961 . S
H1089 C1103 0.960 . S
H1090 C1103 0.961 . S
H1091 C1103 0.959 . S
H1092 C1106 0.929 . S
H1093 C1107 0.931 . S
H1094 C1109 0.930 . S
C1095 H1083 0.930 . S
C1095 C1096 1.399 1_545 S
C1095 C1100 1.399 . S
C1096 C1095 1.399 1_565 S
C1096 C1097 1.376 . S
C1097 H1084 0.930 . S
C1097 C1096 1.376 . S
C1097 C1098 1.388 . S
C1098 H1085 0.930 . S
C1098 C1097 1.388 . S
C1098 C1099 1.390 . S
C1099 C1098 1.390 . S
C1099 C1100 1.394 1_565 S
C1099 C1105 1.465 . S
C1100 C1095 1.399 . S
C1100 C1099 1.394 1_545 S
C1100 C1101 1.516 . S
C1101 C1100 1.516 . S
C1101 C1102 1.502 . S
C1101 C1103 1.561 . S
C1101 C1104 1.526 . S
C1102 H1086 0.959 . S
C1102 H1087 0.959 . S
C1102 H1088 0.961 . S
C1102 C1101 1.502 . S
C1103 H1089 0.960 . S
C1103 H1090 0.961 . S
C1103 H1091 0.959 . S
C1103 C1101 1.561 . S
C1104 C1101 1.526 . S
C1104 C1105 1.396 1_545 S
C1104 C1109 1.390 . S
C1105 C1099 1.465 . S
C1105 C1104 1.396 1_565 S
C1105 C1106 1.399 . S
C1106 H1092 0.929 . S
C1106 C1105 1.399 . S
C1106 C1107 1.385 . S
C1107 H1093 0.931 . S
C1107 C1106 1.385 . S
C1107 C1108 1.389 . S
C1108 C1107 1.389 . S
C1108 C1109 1.387 1_565 S
C1109 H1094 0.930 . S
C1109 C1104 1.390 . S
C1109 C1108 1.387 1_545 S
H1110 C1122 0.930 . S
H1111 C1124 0.930 . S
H1112 C1125 0.930 . S
H1113 C1129 0.959 . S
H1114 C1129 0.959 . S
H1115 C1129 0.961 . S
H1116 C1130 0.960 . S
H1117 C1130 0.961 . S
H1118 C1130 0.959 . S
H1119 C1133 0.929 . S
H1120 C1134 0.931 . S
H1121 C1136 0.930 . S
C1122 H1110 0.930 . S
C1122 C1123 1.399 1_655 S
C1122 C1127 1.399 . S
C1123 C1122 1.399 1_455 S
C1123 C1124 1.376 . S
C1124 H1111 0.930 . S
C1124 C1123 1.376 . S
C1124 C1125 1.388 . S
C1125 H1112 0.930 . S
C1125 C1124 1.388 . S
C1125 C1126 1.390 . S
C1126 C1125 1.390 . S
C1126 C1127 1.394 1_455 S
C1126 C1132 1.465 . S
C1127 C1122 1.399 . S
C1127 C1126 1.394 1_655 S
C1127 C1128 1.516 . S
C1128 C1127 1.516 . S
C1128 C1129 1.502 . S
C1128 C1130 1.561 1_655 S
C1128 C1131 1.526 . S
C1129 H1113 0.959 . S
C1129 H1114 0.959 . S
C1129 H1115 0.961 . S
C1129 C1128 1.502 . S
C1130 H1116 0.960 . S
C1130 H1117 0.961 . S
C1130 H1118 0.959 . S
C1130 C1128 1.561 1_455 S
C1131 C1128 1.526 . S
C1131 C1132 1.396 1_655 S
C1131 C1136 1.390 . S
C1132 C1126 1.465 . S
C1132 C1131 1.396 1_455 S
C1132 C1133 1.399 . S
C1133 H1119 0.929 . S
C1133 C1132 1.399 . S
C1133 C1134 1.385 . S
C1134 H1120 0.931 . S
C1134 C1133 1.385 . S
C1134 C1135 1.404 . S
C1135 C1134 1.404 . S
C1135 C1136 1.378 1_455 S
C1136 H1121 0.930 . S
C1136 C1131 1.390 . S
C1136 C1135 1.378 1_655 S
H1137 C1149 0.930 . S
H1138 C1151 0.930 . S
H1139 C1152 0.930 . S
H1140 C1156 0.959 . S
H1141 C1156 0.959 . S
H1142 C1156 0.961 . S
H1143 C1157 0.960 . S
H1144 C1157 0.961 . S
H1145 C1157 0.959 . S
H1146 C1160 0.929 . S
H1147 C1161 0.931 . S
H1148 C1163 0.930 . S
C1149 H1137 0.930 . S
C1149 C1150 1.399 1_565 S
C1149 C1154 1.399 . S
C1150 C1149 1.399 1_545 S
C1150 C1151 1.376 . S
C1151 H1138 0.930 . S
C1151 C1150 1.376 . S
C1151 C1152 1.388 . S
C1152 H1139 0.930 . S
C1152 C1151 1.388 . S
C1152 C1153 1.390 . S
C1153 C1152 1.390 . S
C1153 C1154 1.394 1_545 S
C1153 C1159 1.465 . S
C1154 C1149 1.399 . S
C1154 C1153 1.394 1_565 S
C1154 C1155 1.516 . S
C1155 C1154 1.516 . S
C1155 C1156 1.502 . S
C1155 C1157 1.561 . S
C1155 C1158 1.526 . S
C1156 H1140 0.959 . S
C1156 H1141 0.959 . S
C1156 H1142 0.961 . S
C1156 C1155 1.502 . S
C1157 H1143 0.960 . S
C1157 H1144 0.961 . S
C1157 H1145 0.959 . S
C1157 C1155 1.561 . S
C1158 C1155 1.526 . S
C1158 C1159 1.396 1_565 S
C1158 C1163 1.390 . S
C1159 C1153 1.465 . S
C1159 C1158 1.396 1_545 S
C1159 C1160 1.399 . S
C1160 H1146 0.929 . S
C1160 C1159 1.399 . S
C1160 C1161 1.385 . S
C1161 H1147 0.931 . S
C1161 C1160 1.385 . S
C1161 C1162 1.389 . S
C1162 C1161 1.389 . S
C1162 C1163 1.387 1_545 S
C1163 H1148 0.930 . S
C1163 C1158 1.390 . S
C1163 C1162 1.387 1_565 S
H1164 C1176 0.930 . S
H1165 C1178 0.930 . S
H1166 C1179 0.930 . S
H1167 C1183 0.959 . S
H1168 C1183 0.959 . S
H1169 C1183 0.961 . S
H1170 C1184 0.960 . S
H1171 C1184 0.961 . S
H1172 C1184 0.959 . S
H1173 C1187 0.929 . S
H1174 C1188 0.931 . S
H1175 C1190 0.930 . S
C1176 H1164 0.930 . S
C1176 C1177 1.399 1_455 S
C1176 C1181 1.399 . S
C1177 C1176 1.399 1_655 S
C1177 C1178 1.376 . S
C1178 H1165 0.930 . S
C1178 C1177 1.376 . S
C1178 C1179 1.388 . S
C1179 H1166 0.930 . S
C1179 C1178 1.388 . S
C1179 C1180 1.390 . S
C1180 C1179 1.390 . S
C1180 C1181 1.394 1_655 S
C1180 C1186 1.465 . S
C1181 C1176 1.399 . S
C1181 C1180 1.394 1_455 S
C1181 C1182 1.516 . S
C1182 C1181 1.516 . S
C1182 C1183 1.502 . S
C1182 C1184 1.561 . S
C1182 C1185 1.526 . S
C1183 H1167 0.959 . S
C1183 H1168 0.959 . S
C1183 H1169 0.961 . S
C1183 C1182 1.502 . S
C1184 H1170 0.960 . S
C1184 H1171 0.961 . S
C1184 H1172 0.959 . S
C1184 C1182 1.561 . S
C1185 C1182 1.526 . S
C1185 C1186 1.396 1_455 S
C1185 C1190 1.390 . S
C1186 C1180 1.465 . S
C1186 C1185 1.396 1_655 S
C1186 C1187 1.399 . S
C1187 H1173 0.929 . S
C1187 C1186 1.399 . S
C1187 C1188 1.385 . S
C1188 H1174 0.931 . S
C1188 C1187 1.385 . S
C1188 C1189 1.389 . S
C1189 C1188 1.389 . S
C1189 C1190 1.387 1_655 S
C1190 H1175 0.930 . S
C1190 C1185 1.390 . S
C1190 C1189 1.387 1_455 S
H1191 C1203 0.930 . S
H1192 C1205 0.930 . S
H1193 C1206 0.930 . S
H1194 C1210 0.959 . S
H1195 C1210 0.959 . S
H1196 C1210 0.961 . S
H1197 C1211 0.960 . S
H1198 C1211 0.961 . S
H1199 C1211 0.959 . S
H1200 C1214 0.929 . S
H1201 C1215 0.931 . S
H1202 C1217 0.930 . S
C1203 H1191 0.930 . S
C1203 C1204 1.378 1_565 S
C1203 C1208 1.399 . S
C1204 C1203 1.378 1_545 S
C1204 C1205 1.403 . S
C1205 H1192 0.930 . S
C1205 C1204 1.403 . S
C1205 C1206 1.388 . S
C1206 H1193 0.930 . S
C1206 C1205 1.388 . S
C1206 C1207 1.390 . S
C1207 C1206 1.390 . S
C1207 C1208 1.394 1_545 S
C1207 C1213 1.465 . S
C1208 C1203 1.399 . S
C1208 C1207 1.394 1_565 S
C1208 C1209 1.516 . S
C1209 C1208 1.516 . S
C1209 C1210 1.502 . S
C1209 C1211 1.561 . S
C1209 C1212 1.526 . S
C1210 H1194 0.959 . S
C1210 H1195 0.959 . S
C1210 H1196 0.961 . S
C1210 C1209 1.502 . S
C1211 H1197 0.960 . S
C1211 H1198 0.961 . S
C1211 H1199 0.959 . S
C1211 C1209 1.561 . S
C1212 C1209 1.526 . S
C1212 C1213 1.396 1_565 S
C1212 C1217 1.390 . S
C1213 C1207 1.465 . S
C1213 C1212 1.396 1_545 S
C1213 C1214 1.399 . S
C1214 H1200 0.929 . S
C1214 C1213 1.399 . S
C1214 C1215 1.385 . S
C1215 H1201 0.931 . S
C1215 C1214 1.385 . S
C1215 C1216 1.389 . S
C1216 C1215 1.389 . S
C1216 C1217 1.387 1_545 S
C1217 H1202 0.930 . S
C1217 C1212 1.390 . S
C1217 C1216 1.387 1_565 S
H1218 C1230 0.930 . S
H1219 C1232 0.930 . S
H1220 C1233 0.930 . S
H1221 C1237 0.959 . S
H1222 C1237 0.959 . S
H1223 C1237 0.961 . S
H1224 C1238 0.960 . S
H1225 C1238 0.961 . S
H1226 C1238 0.959 . S
H1227 C1241 0.929 . S
H1228 C1242 0.931 . S
H1229 C1244 0.930 . S
C1230 H1218 0.930 . S
C1230 C1231 1.399 1_455 S
C1230 C1235 1.399 . S
C1231 C1230 1.399 1_655 S
C1231 C1232 1.376 . S
C1232 H1219 0.930 . S
C1232 C1231 1.376 . S
C1232 C1233 1.388 . S
C1233 H1220 0.930 . S
C1233 C1232 1.388 . S
C1233 C1234 1.390 . S
C1234 C1233 1.390 . S
C1234 C1235 1.394 1_655 S
C1234 C1240 1.465 . S
C1235 C1230 1.399 . S
C1235 C1234 1.394 1_455 S
C1235 C1236 1.516 . S
C1236 C1235 1.516 . S
C1236 C1237 1.502 . S
C1236 C1238 1.561 . S
C1236 C1239 1.526 . S
C1237 H1221 0.959 . S
C1237 H1222 0.959 . S
C1237 H1223 0.961 . S
C1237 C1236 1.502 . S
C1238 H1224 0.960 . S
C1238 H1225 0.961 . S
C1238 H1226 0.959 . S
C1238 C1236 1.561 . S
C1239 C1236 1.526 . S
C1239 C1240 1.396 1_455 S
C1239 C1244 1.390 . S
C1240 C1234 1.465 . S
C1240 C1239 1.396 1_655 S
C1240 C1241 1.399 . S
C1241 H1227 0.929 . S
C1241 C1240 1.399 . S
C1241 C1242 1.385 . S
C1242 H1228 0.931 . S
C1242 C1241 1.385 . S
C1242 C1243 1.389 . S
C1243 C1242 1.389 . S
C1243 C1244 1.387 1_655 S
C1244 H1229 0.930 . S
C1244 C1239 1.390 . S
C1244 C1243 1.387 1_455 S
H1245 C1257 0.930 . S
H1246 C1259 0.930 . S
H1247 C1260 0.930 . S
H1248 C1264 0.959 . S
H1249 C1264 0.954 1_545 S
H1250 C1264 0.961 . S
H1251 C1265 0.960 . S
H1252 C1265 0.961 . S
H1253 C1265 0.959 . S
H1254 C1268 0.929 . S
H1255 C1269 0.931 . S
H1256 C1271 0.930 . S
C1257 H1245 0.930 . S
C1257 C1258 1.408 . S
C1257 C1262 1.399 . S
C1258 C1257 1.408 . S
C1258 C1259 1.368 1_545 S
C1259 H1246 0.930 . S
C1259 C1258 1.368 1_565 S
C1259 C1260 1.388 . S
C1260 H1247 0.930 . S
C1260 C1259 1.388 . S
C1260 C1261 1.390 . S
C1261 C1260 1.390 . S
C1261 C1262 1.393 1_565 S
C1261 C1267 1.465 . S
C1262 C1257 1.399 . S
C1262 C1261 1.393 1_545 S
C1262 C1263 1.516 . S
C1263 C1262 1.516 . S
C1263 C1264 1.502 1_545 S
C1263 C1265 1.561 . S
C1263 C1266 1.526 . S
C1264 H1248 0.959 . S
C1264 H1249 0.954 1_565 S
C1264 H1250 0.961 . S
C1264 C1263 1.502 1_565 S
C1265 H1251 0.960 . S
C1265 H1252 0.961 . S
C1265 H1253 0.959 . S
C1265 C1263 1.561 . S
C1266 C1263 1.526 . S
C1266 C1267 1.389 1_545 S
C1266 C1271 1.390 . S
C1267 C1261 1.465 . S
C1267 C1266 1.389 1_565 S
C1267 C1268 1.406 . S
C1268 H1254 0.929 . S
C1268 C1267 1.406 . S
C1268 C1269 1.385 . S
C1269 H1255 0.931 . S
C1269 C1268 1.385 . S
C1269 C1270 1.395 . S
C1270 C1269 1.395 . S
C1270 C1271 1.382 1_565 S
C1271 H1256 0.930 . S
C1271 C1266 1.390 . S
C1271 C1270 1.382 1_545 S
H1272 C1284 0.930 . S
H1273 C1286 0.930 . S
H1274 C1287 0.930 . S
H1275 C1291 0.959 1_556 S
H1276 C1291 0.959 . S
H1277 C1291 0.961 . S
H1278 C1292 0.960 . S
H1279 C1292 0.961 . S
H1280 C1292 0.959 . S
H1281 C1295 0.929 . S
H1282 C1296 0.931 . S
H1283 C1298 0.930 . S
C1284 H1272 0.930 . S
C1284 C1285 1.391 1_554 S
C1284 C1289 1.399 . S
C1285 C1284 1.391 1_556 S
C1285 C1286 1.386 . S
C1286 H1273 0.930 . S
C1286 C1285 1.386 . S
C1286 C1287 1.388 . S
C1287 H1274 0.930 . S
C1287 C1286 1.388 . S
C1287 C1288 1.390 . S
C1288 C1287 1.390 . S
C1288 C1289 1.394 1_556 S
C1288 C1294 1.465 . S
C1289 C1284 1.399 . S
C1289 C1288 1.394 1_554 S
C1289 C1290 1.516 . S
C1290 C1289 1.516 . S
C1290 C1291 1.502 . S
C1290 C1292 1.561 . S
C1290 C1293 1.526 . S
C1291 H1275 0.959 1_554 S
C1291 H1276 0.959 . S
C1291 H1277 0.961 . S
C1291 C1290 1.502 . S
C1292 H1278 0.960 . S
C1292 H1279 0.961 . S
C1292 H1280 0.959 . S
C1292 C1290 1.561 . S
C1293 C1290 1.526 . S
C1293 C1294 1.396 1_554 S
C1293 C1298 1.390 . S
C1294 C1288 1.465 . S
C1294 C1293 1.396 1_556 S
C1294 C1295 1.399 . S
C1295 H1281 0.929 . S
C1295 C1294 1.399 . S
C1295 C1296 1.385 . S
C1296 H1282 0.931 . S
C1296 C1295 1.385 . S
C1296 C1297 1.401 . S
C1297 C1296 1.401 . S
C1297 C1298 1.377 1_556 S
C1298 H1283 0.930 . S
C1298 C1293 1.390 . S
C1298 C1297 1.377 1_554 S
H1299 C1311 0.930 . S
H1300 C1313 0.930 . S
H1301 C1314 0.930 . S
H1302 C1318 0.959 . S
H1303 C1318 0.959 . S
H1304 C1318 0.961 . S
H1305 C1319 0.960 . S
H1306 C1319 0.961 . S
H1307 C1319 0.959 . S
H1308 C1322 0.929 . S
H1309 C1323 0.931 . S
H1310 C1325 0.930 . S
C1311 H1299 0.930 . S
C1311 C1312 1.399 1_556 S
C1311 C1316 1.399 . S
C1312 C1311 1.399 1_554 S
C1312 C1313 1.376 . S
C1313 H1300 0.930 . S
C1313 C1312 1.376 . S
C1313 C1314 1.388 . S
C1314 H1301 0.930 . S
C1314 C1313 1.388 . S
C1314 C1315 1.390 . S
C1315 C1314 1.390 . S
C1315 C1316 1.394 1_554 S
C1315 C1321 1.465 . S
C1316 C1311 1.399 . S
C1316 C1315 1.394 1_556 S
C1316 C1317 1.516 . S
C1317 C1316 1.516 . S
C1317 C1318 1.502 . S
C1317 C1319 1.561 . S
C1317 C1320 1.526 . S
C1318 H1302 0.959 . S
C1318 H1303 0.959 . S
C1318 H1304 0.961 . S
C1318 C1317 1.502 . S
C1319 H1305 0.960 . S
C1319 H1306 0.961 . S
C1319 H1307 0.959 . S
C1319 C1317 1.561 . S
C1320 C1317 1.526 . S
C1320 C1321 1.396 1_556 S
C1320 C1325 1.390 . S
C1321 C1315 1.465 . S
C1321 C1320 1.396 1_554 S
C1321 C1322 1.399 . S
C1322 H1308 0.929 . S
C1322 C1321 1.399 . S
C1322 C1323 1.385 . S
C1323 H1309 0.931 . S
C1323 C1322 1.385 . S
C1323 C1324 1.389 . S
C1324 C1323 1.389 . S
C1324 C1325 1.387 1_554 S
C1325 H1310 0.930 . S
C1325 C1320 1.390 . S
C1325 C1324 1.387 1_556 S
H1326 C1338 0.930 . S
H1327 C1340 0.930 . S
H1328 C1341 0.930 . S
H1329 C1345 0.959 . S
H1330 C1345 0.959 . S
H1331 C1345 0.961 . S
H1332 C1346 0.960 . S
H1333 C1346 0.961 . S
H1334 C1346 0.959 . S
H1335 C1349 0.929 . S
H1336 C1350 0.931 . S
H1337 C1352 0.930 . S
C1338 H1326 0.930 . S
C1338 C1339 1.399 1_556 S
C1338 C1343 1.399 . S
C1339 C1338 1.399 1_554 S
C1339 C1340 1.376 . S
C1340 H1327 0.930 . S
C1340 C1339 1.376 . S
C1340 C1341 1.388 . S
C1341 H1328 0.930 . S
C1341 C1340 1.388 . S
C1341 C1342 1.390 . S
C1342 C1341 1.390 . S
C1342 C1343 1.394 1_554 S
C1342 C1348 1.465 . S
C1343 C1338 1.399 . S
C1343 C1342 1.394 1_556 S
C1343 C1344 1.516 . S
C1344 C1343 1.516 . S
C1344 C1345 1.502 . S
C1344 C1346 1.561 . S
C1344 C1347 1.526 . S
C1345 H1329 0.959 . S
C1345 H1330 0.959 . S
C1345 H1331 0.961 . S
C1345 C1344 1.502 . S
C1346 H1332 0.960 . S
C1346 H1333 0.961 . S
C1346 H1334 0.959 . S
C1346 C1344 1.561 . S
C1347 C1344 1.526 . S
C1347 C1348 1.396 1_556 S
C1347 C1352 1.390 . S
C1348 C1342 1.465 . S
C1348 C1347 1.396 1_554 S
C1348 C1349 1.399 . S
C1349 H1335 0.929 . S
C1349 C1348 1.399 . S
C1349 C1350 1.385 . S
C1350 H1336 0.931 . S
C1350 C1349 1.385 . S
C1350 C1351 1.389 . S
C1351 C1350 1.389 . S
C1351 C1352 1.387 1_554 S
C1352 H1337 0.930 . S
C1352 C1347 1.390 . S
C1352 C1351 1.387 1_556 S
H1353 C1365 0.930 . S
H1354 C1367 0.930 . S
H1355 C1368 0.930 . S
H1356 C1372 0.959 . S
H1357 C1372 0.959 . S
H1358 C1372 0.961 . S
H1359 C1373 0.960 . S
H1360 C1373 0.961 . S
H1361 C1373 0.959 . S
H1362 C1376 0.929 . S
H1363 C1377 0.931 . S
H1364 C1379 0.930 . S
C1365 H1353 0.930 . S
C1365 C1366 1.399 1_554 S
C1365 C1370 1.399 . S
C1366 C1365 1.399 1_556 S
C1366 C1367 1.376 . S
C1367 H1354 0.930 . S
C1367 C1366 1.376 . S
C1367 C1368 1.388 . S
C1368 H1355 0.930 . S
C1368 C1367 1.388 . S
C1368 C1369 1.390 . S
C1369 C1368 1.390 . S
C1369 C1370 1.394 1_556 S
C1369 C1375 1.465 . S
C1370 C1365 1.399 . S
C1370 C1369 1.394 1_554 S
C1370 C1371 1.516 . S
C1371 C1370 1.516 . S
C1371 C1372 1.502 . S
C1371 C1373 1.561 . S
C1371 C1374 1.526 . S
C1372 H1356 0.959 . S
C1372 H1357 0.959 . S
C1372 H1358 0.961 . S
C1372 C1371 1.502 . S
C1373 H1359 0.960 . S
C1373 H1360 0.961 . S
C1373 H1361 0.959 . S
C1373 C1371 1.561 . S
C1374 C1371 1.526 . S
C1374 C1375 1.396 1_554 S
C1374 C1379 1.390 . S
C1375 C1369 1.465 . S
C1375 C1374 1.396 1_556 S
C1375 C1376 1.399 . S
C1376 H1362 0.929 . S
C1376 C1375 1.399 . S
C1376 C1377 1.385 . S
C1377 H1363 0.931 . S
C1377 C1376 1.385 . S
C1377 C1378 1.389 . S
C1378 C1377 1.389 . S
C1378 C1379 1.387 1_556 S
C1379 H1364 0.930 . S
C1379 C1374 1.390 . S
C1379 C1378 1.387 1_554 S
H1380 C1392 0.930 . S
H1381 C1394 0.930 . S
H1382 C1395 0.930 . S
H1383 C1399 0.959 . S
H1384 C1399 0.959 . S
H1385 C1399 0.961 . S
H1386 C1400 0.960 . S
H1387 C1400 0.961 . S
H1388 C1400 0.959 . S
H1389 C1403 0.929 . S
H1390 C1404 0.931 . S
H1391 C1406 0.930 . S
C1392 H1380 0.930 . S
C1392 C1393 1.399 . S
C1392 C1397 1.399 . S
C1393 C1392 1.399 . S
C1393 C1394 1.376 . S
C1394 H1381 0.930 . S
C1394 C1393 1.376 . S
C1394 C1395 1.388 . S
C1395 H1382 0.930 . S
C1395 C1394 1.388 . S
C1395 C1396 1.390 . S
C1396 C1395 1.390 . S
C1396 C1397 1.394 . S
C1396 C1402 1.465 . S
C1397 C1392 1.399 . S
C1397 C1396 1.394 . S
C1397 C1398 1.516 . S
C1398 C1397 1.516 . S
C1398 C1399 1.502 . S
C1398 C1400 1.561 . S
C1398 C1401 1.526 . S
C1399 H1383 0.959 . S
C1399 H1384 0.959 . S
C1399 H1385 0.961 . S
C1399 C1398 1.502 . S
C1400 H1386 0.960 . S
C1400 H1387 0.961 . S
C1400 H1388 0.959 . S
C1400 C1398 1.561 . S
C1401 C1398 1.526 . S
C1401 C1402 1.396 . S
C1401 C1406 1.390 . S
C1402 C1396 1.465 . S
C1402 C1401 1.396 . S
C1402 C1403 1.399 . S
C1403 H1389 0.929 . S
C1403 C1402 1.399 . S
C1403 C1404 1.385 . S
C1404 H1390 0.931 . S
C1404 C1403 1.385 . S
C1404 C1405 1.389 . S
C1405 C1404 1.389 . S
C1405 C1406 1.387 . S
C1406 H1391 0.930 . S
C1406 C1401 1.390 . S
C1406 C1405 1.387 . S
H1407 C1419 0.930 . S
H1408 C1421 0.930 . S
H1409 C1422 0.930 . S
H1410 C1426 0.959 . S
H1411 C1426 0.959 . S
H1412 C1426 0.961 . S
H1413 C1427 0.960 . S
H1414 C1427 0.961 . S
H1415 C1427 0.959 . S
H1416 C1430 0.929 . S
H1417 C1431 0.931 . S
H1418 C1433 0.930 . S
C1419 H1407 0.930 . S
C1419 C1420 1.399 . S
C1419 C1424 1.399 . S
C1420 C1419 1.399 . S
C1420 C1421 1.376 . S
C1421 H1408 0.930 . S
C1421 C1420 1.376 . S
C1421 C1422 1.388 . S
C1422 H1409 0.930 . S
C1422 C1421 1.388 . S
C1422 C1423 1.390 . S
C1423 C1422 1.390 . S
C1423 C1424 1.394 . S
C1423 C1429 1.465 . S
C1424 C1419 1.399 . S
C1424 C1423 1.394 . S
C1424 C1425 1.516 . S
C1425 C1424 1.516 . S
C1425 C1426 1.502 . S
C1425 C1427 1.561 . S
C1425 C1428 1.526 . S
C1426 H1410 0.959 . S
C1426 H1411 0.959 . S
C1426 H1412 0.961 . S
C1426 C1425 1.502 . S
C1427 H1413 0.960 . S
C1427 H1414 0.961 . S
C1427 H1415 0.959 . S
C1427 C1425 1.561 . S
C1428 C1425 1.526 . S
C1428 C1429 1.396 . S
C1428 C1433 1.390 . S
C1429 C1423 1.465 . S
C1429 C1428 1.396 . S
C1429 C1430 1.399 . S
C1430 H1416 0.929 . S
C1430 C1429 1.399 . S
C1430 C1431 1.385 . S
C1431 H1417 0.931 . S
C1431 C1430 1.385 . S
C1431 C1432 1.389 . S
C1432 C1431 1.389 . S
C1432 C1433 1.387 . S
C1433 H1418 0.930 . S
C1433 C1428 1.390 . S
C1433 C1432 1.387 . S
H1434 C1446 0.930 . S
H1435 C1448 0.930 . S
H1436 C1449 0.930 . S
H1437 C1453 0.959 . S
H1438 C1453 0.959 . S
H1439 C1453 0.961 . S
H1440 C1454 0.960 . S
H1441 C1454 0.961 . S
H1442 C1454 0.959 . S
H1443 C1457 0.929 . S
H1444 C1458 0.931 . S
H1445 C1460 0.930 . S
C1446 H1434 0.930 . S
C1446 C1447 1.399 . S
C1446 C1451 1.399 . S
C1447 C1446 1.399 . S
C1447 C1448 1.376 . S
C1448 H1435 0.930 . S
C1448 C1447 1.376 . S
C1448 C1449 1.388 . S
C1449 H1436 0.930 . S
C1449 C1448 1.388 . S
C1449 C1450 1.390 . S
C1450 C1449 1.390 . S
C1450 C1451 1.394 . S
C1450 C1456 1.465 . S
C1451 C1446 1.399 . S
C1451 C1450 1.394 . S
C1451 C1452 1.516 . S
C1452 C1451 1.516 . S
C1452 C1453 1.502 . S
C1452 C1454 1.561 . S
C1452 C1455 1.526 . S
C1453 H1437 0.959 . S
C1453 H1438 0.959 . S
C1453 H1439 0.961 . S
C1453 C1452 1.502 . S
C1454 H1440 0.960 . S
C1454 H1441 0.961 . S
C1454 H1442 0.959 . S
C1454 C1452 1.561 . S
C1455 C1452 1.526 . S
C1455 C1456 1.396 . S
C1455 C1460 1.390 . S
C1456 C1450 1.465 . S
C1456 C1455 1.396 . S
C1456 C1457 1.399 . S
C1457 H1443 0.929 . S
C1457 C1456 1.399 . S
C1457 C1458 1.385 . S
C1458 H1444 0.931 . S
C1458 C1457 1.385 . S
C1458 C1459 1.389 . S
C1459 C1458 1.389 . S
C1459 C1460 1.387 . S
C1460 H1445 0.930 . S
C1460 C1455 1.390 . S
C1460 C1459 1.387 . S
H1461 C1473 0.930 . S
H1462 C1475 0.930 . S
H1463 C1476 0.930 . S
H1464 C1480 0.959 . S
H1465 C1480 0.959 . S
H1466 C1480 0.961 . S
H1467 C1481 0.960 . S
H1468 C1481 0.961 . S
H1469 C1481 0.959 . S
H1470 C1484 0.929 . S
H1471 C1485 0.931 . S
H1472 C1487 0.930 . S
C1473 H1461 0.930 . S
C1473 C1474 1.399 . S
C1473 C1478 1.399 . S
C1474 C1473 1.399 . S
C1474 C1475 1.376 . S
C1475 H1462 0.930 . S
C1475 C1474 1.376 . S
C1475 C1476 1.388 . S
C1476 H1463 0.930 . S
C1476 C1475 1.388 . S
C1476 C1477 1.390 . S
C1477 C1476 1.390 . S
C1477 C1478 1.394 . S
C1477 C1483 1.465 . S
C1478 C1473 1.399 . S
C1478 C1477 1.394 . S
C1478 C1479 1.516 . S
C1479 C1478 1.516 . S
C1479 C1480 1.502 . S
C1479 C1481 1.561 . S
C1479 C1482 1.526 . S
C1480 H1464 0.959 . S
C1480 H1465 0.959 . S
C1480 H1466 0.961 . S
C1480 C1479 1.502 . S
C1481 H1467 0.960 . S
C1481 H1468 0.961 . S
C1481 H1469 0.959 . S
C1481 C1479 1.561 . S
C1482 C1479 1.526 . S
C1482 C1483 1.396 . S
C1482 C1487 1.390 . S
C1483 C1477 1.465 . S
C1483 C1482 1.396 . S
C1483 C1484 1.399 . S
C1484 H1470 0.929 . S
C1484 C1483 1.399 . S
C1484 C1485 1.385 . S
C1485 H1471 0.931 . S
C1485 C1484 1.385 . S
C1485 C1486 1.389 . S
C1486 C1485 1.389 . S
C1486 C1487 1.387 . S
C1487 H1472 0.930 . S
C1487 C1482 1.390 . S
C1487 C1486 1.387 . S
H1488 C1500 0.930 . S
H1489 C1502 0.930 . S
H1490 C1503 0.930 . S
H1491 C1507 0.959 . S
H1492 C1507 0.959 . S
H1493 C1507 0.961 . S
H1494 C1508 0.960 . S
H1495 C1508 0.961 . S
H1496 C1508 0.959 . S
H1497 C1511 0.929 . S
H1498 C1512 0.931 . S
H1499 C1514 0.930 . S
C1500 H1488 0.930 . S
C1500 C1501 1.399 . S
C1500 C1505 1.399 . S
C1501 C1500 1.399 . S
C1501 C1502 1.376 . S
C1502 H1489 0.930 . S
C1502 C1501 1.376 . S
C1502 C1503 1.388 . S
C1503 H1490 0.930 . S
C1503 C1502 1.388 . S
C1503 C1504 1.390 . S
C1504 C1503 1.390 . S
C1504 C1505 1.394 . S
C1504 C1510 1.465 . S
C1505 C1500 1.399 . S
C1505 C1504 1.394 . S
C1505 C1506 1.516 . S
C1506 C1505 1.516 . S
C1506 C1507 1.502 . S
C1506 C1508 1.561 . S
C1506 C1509 1.526 . S
C1507 H1491 0.959 . S
C1507 H1492 0.959 . S
C1507 H1493 0.961 . S
C1507 C1506 1.502 . S
C1508 H1494 0.960 . S
C1508 H1495 0.961 . S
C1508 H1496 0.959 . S
C1508 C1506 1.561 . S
C1509 C1506 1.526 . S
C1509 C1510 1.396 . S
C1509 C1514 1.390 . S
C1510 C1504 1.465 . S
C1510 C1509 1.396 . S
C1510 C1511 1.399 . S
C1511 H1497 0.929 . S
C1511 C1510 1.399 . S
C1511 C1512 1.385 . S
C1512 H1498 0.931 . S
C1512 C1511 1.385 . S
C1512 C1513 1.389 . S
C1513 C1512 1.389 . S
C1513 C1514 1.387 . S
C1514 H1499 0.930 . S
C1514 C1509 1.390 . S
C1514 C1513 1.387 . S
H1515 C1527 0.930 . S
H1516 C1529 0.930 . S
H1517 C1530 0.930 . S
H1518 C1534 0.959 . S
H1519 C1534 0.959 . S
H1520 C1534 0.961 . S
H1521 C1535 0.960 . S
H1522 C1535 0.961 . S
H1523 C1535 0.959 . S
H1524 C1538 0.929 . S
H1525 C1539 0.931 . S
H1526 C1541 0.930 . S
C1527 H1515 0.930 . S
C1527 C1528 1.399 . S
C1527 C1532 1.399 . S
C1528 C1527 1.399 . S
C1528 C1529 1.376 . S
C1529 H1516 0.930 . S
C1529 C1528 1.376 . S
C1529 C1530 1.388 . S
C1530 H1517 0.930 . S
C1530 C1529 1.388 . S
C1530 C1531 1.390 . S
C1531 C1530 1.390 . S
C1531 C1532 1.394 . S
C1531 C1537 1.465 . S
C1532 C1527 1.399 . S
C1532 C1531 1.394 . S
C1532 C1533 1.516 . S
C1533 C1532 1.516 . S
C1533 C1534 1.502 . S
C1533 C1535 1.561 . S
C1533 C1536 1.526 . S
C1534 H1518 0.959 . S
C1534 H1519 0.959 . S
C1534 H1520 0.961 . S
C1534 C1533 1.502 . S
C1535 H1521 0.960 . S
C1535 H1522 0.961 . S
C1535 H1523 0.959 . S
C1535 C1533 1.561 . S
C1536 C1533 1.526 . S
C1536 C1537 1.396 . S
C1536 C1541 1.390 . S
C1537 C1531 1.465 . S
C1537 C1536 1.396 . S
C1537 C1538 1.399 . S
C1538 H1524 0.929 . S
C1538 C1537 1.399 . S
C1538 C1539 1.385 . S
C1539 H1525 0.931 . S
C1539 C1538 1.385 . S
C1539 C1540 1.389 . S
C1540 C1539 1.389 . S
C1540 C1541 1.387 . S
C1541 H1526 0.930 . S
C1541 C1536 1.390 . S
C1541 C1540 1.387 . S
H1542 C1554 0.930 . S
H1543 C1556 0.930 . S
H1544 C1557 0.930 . S
H1545 C1561 0.959 . S
H1546 C1561 0.959 . S
H1547 C1561 0.961 . S
H1548 C1562 0.960 . S
H1549 C1562 0.961 . S
H1550 C1562 0.959 . S
H1551 C1565 0.929 . S
H1552 C1566 0.931 . S
H1553 C1568 0.930 . S
C1554 H1542 0.930 . S
C1554 C1555 1.399 . S
C1554 C1559 1.399 . S
C1555 C1554 1.399 . S
C1555 C1556 1.376 . S
C1556 H1543 0.930 . S
C1556 C1555 1.376 . S
C1556 C1557 1.388 . S
C1557 H1544 0.930 . S
C1557 C1556 1.388 . S
C1557 C1558 1.390 . S
C1558 C1557 1.390 . S
C1558 C1559 1.394 . S
C1558 C1564 1.465 . S
C1559 C1554 1.399 . S
C1559 C1558 1.394 . S
C1559 C1560 1.516 . S
C1560 C1559 1.516 . S
C1560 C1561 1.502 . S
C1560 C1562 1.561 . S
C1560 C1563 1.526 . S
C1561 H1545 0.959 . S
C1561 H1546 0.959 . S
C1561 H1547 0.961 . S
C1561 C1560 1.502 . S
C1562 H1548 0.960 . S
C1562 H1549 0.961 . S
C1562 H1550 0.959 . S
C1562 C1560 1.561 . S
C1563 C1560 1.526 . S
C1563 C1564 1.396 . S
C1563 C1568 1.390 . S
C1564 C1558 1.465 . S
C1564 C1563 1.396 . S
C1564 C1565 1.399 . S
C1565 H1551 0.929 . S
C1565 C1564 1.399 . S
C1565 C1566 1.385 . S
C1566 H1552 0.931 . S
C1566 C1565 1.385 . S
C1566 C1567 1.389 . S
C1567 C1566 1.389 . S
C1567 C1568 1.387 . S
C1568 H1553 0.930 . S
C1568 C1563 1.390 . S
C1568 C1567 1.387 . S
H1569 C1581 0.930 . S
H1570 C1583 0.930 . S
H1571 C1584 0.930 . S
H1572 C1588 0.959 . S
H1573 C1588 0.959 . S
H1574 C1588 0.961 . S
H1575 C1589 0.960 . S
H1576 C1589 0.961 . S
H1577 C1589 0.959 . S
H1578 C1592 0.929 . S
H1579 C1593 0.931 . S
H1580 C1595 0.930 . S
C1581 H1569 0.930 . S
C1581 C1582 1.399 . S
C1581 C1586 1.399 . S
C1582 C1581 1.399 . S
C1582 C1583 1.376 . S
C1583 H1570 0.930 . S
C1583 C1582 1.376 . S
C1583 C1584 1.388 . S
C1584 H1571 0.930 . S
C1584 C1583 1.388 . S
C1584 C1585 1.390 . S
C1585 C1584 1.390 . S
C1585 C1586 1.394 . S
C1585 C1591 1.465 . S
C1586 C1581 1.399 . S
C1586 C1585 1.394 . S
C1586 C1587 1.516 . S
C1587 C1586 1.516 . S
C1587 C1588 1.502 . S
C1587 C1589 1.561 . S
C1587 C1590 1.526 . S
C1588 H1572 0.959 . S
C1588 H1573 0.959 . S
C1588 H1574 0.961 . S
C1588 C1587 1.502 . S
C1589 H1575 0.960 . S
C1589 H1576 0.961 . S
C1589 H1577 0.959 . S
C1589 C1587 1.561 . S
C1590 C1587 1.526 . S
C1590 C1591 1.396 . S
C1590 C1595 1.390 . S
C1591 C1585 1.465 . S
C1591 C1590 1.396 . S
C1591 C1592 1.399 . S
C1592 H1578 0.929 . S
C1592 C1591 1.399 . S
C1592 C1593 1.385 . S
C1593 H1579 0.931 . S
C1593 C1592 1.385 . S
C1593 C1594 1.389 . S
C1594 C1593 1.389 . S
C1594 C1595 1.387 . S
C1595 H1580 0.930 . S
C1595 C1590 1.390 . S
C1595 C1594 1.387 . S
H1596 C1608 0.930 . S
H1597 C1610 0.930 . S
H1598 C1611 0.930 . S
H1599 C1615 0.959 . S
H1600 C1615 0.959 . S
H1601 C1615 0.961 . S
H1602 C1616 0.960 . S
H1603 C1616 0.961 . S
H1604 C1616 0.959 . S
H1605 C1619 0.929 . S
H1606 C1620 0.931 . S
H1607 C1622 0.930 . S
C1608 H1596 0.930 . S
C1608 C1609 1.399 . S
C1608 C1613 1.399 . S
C1609 C1608 1.399 . S
C1609 C1610 1.376 . S
C1610 H1597 0.930 . S
C1610 C1609 1.376 . S
C1610 C1611 1.388 . S
C1611 H1598 0.930 . S
C1611 C1610 1.388 . S
C1611 C1612 1.390 . S
C1612 C1611 1.390 . S
C1612 C1613 1.394 . S
C1612 C1618 1.465 . S
C1613 C1608 1.399 . S
C1613 C1612 1.394 . S
C1613 C1614 1.516 . S
C1614 C1613 1.516 . S
C1614 C1615 1.502 . S
C1614 C1616 1.561 . S
C1614 C1617 1.526 . S
C1615 H1599 0.959 . S
C1615 H1600 0.959 . S
C1615 H1601 0.961 . S
C1615 C1614 1.502 . S
C1616 H1602 0.960 . S
C1616 H1603 0.961 . S
C1616 H1604 0.959 . S
C1616 C1614 1.561 . S
C1617 C1614 1.526 . S
C1617 C1618 1.396 . S
C1617 C1622 1.390 . S
C1618 C1612 1.465 . S
C1618 C1617 1.396 . S
C1618 C1619 1.399 . S
C1619 H1605 0.929 . S
C1619 C1618 1.399 . S
C1619 C1620 1.385 . S
C1620 H1606 0.931 . S
C1620 C1619 1.385 . S
C1620 C1621 1.389 . S
C1621 C1620 1.389 . S
C1621 C1622 1.387 . S
C1622 H1607 0.930 . S
C1622 C1617 1.390 . S
C1622 C1621 1.387 . S
H1623 C1635 0.930 . S
H1624 C1637 0.930 . S
H1625 C1638 0.930 . S
H1626 C1642 0.959 . S
H1627 C1642 0.959 . S
H1628 C1642 0.961 . S
H1629 C1643 0.960 . S
H1630 C1643 0.961 . S
H1631 C1643 0.959 . S
H1632 C1646 0.929 . S
H1633 C1647 0.931 . S
H1634 C1649 0.930 . S
C1635 H1623 0.930 . S
C1635 C1636 1.399 . S
C1635 C1640 1.399 . S
C1636 C1635 1.399 . S
C1636 C1637 1.376 . S
C1637 H1624 0.930 . S
C1637 C1636 1.376 . S
C1637 C1638 1.388 . S
C1638 H1625 0.930 . S
C1638 C1637 1.388 . S
C1638 C1639 1.390 . S
C1639 C1638 1.390 . S
C1639 C1640 1.394 . S
C1639 C1645 1.465 . S
C1640 C1635 1.399 . S
C1640 C1639 1.394 . S
C1640 C1641 1.516 . S
C1641 C1640 1.516 . S
C1641 C1642 1.502 . S
C1641 C1643 1.561 . S
C1641 C1644 1.526 . S
C1642 H1626 0.959 . S
C1642 H1627 0.959 . S
C1642 H1628 0.961 . S
C1642 C1641 1.502 . S
C1643 H1629 0.960 . S
C1643 H1630 0.961 . S
C1643 H1631 0.959 . S
C1643 C1641 1.561 . S
C1644 C1641 1.526 . S
C1644 C1645 1.396 . S
C1644 C1649 1.390 . S
C1645 C1639 1.465 . S
C1645 C1644 1.396 . S
C1645 C1646 1.399 . S
C1646 H1632 0.929 . S
C1646 C1645 1.399 . S
C1646 C1647 1.385 . S
C1647 H1633 0.931 . S
C1647 C1646 1.385 . S
C1647 C1648 1.389 . S
C1648 C1647 1.389 . S
C1648 C1649 1.387 . S
C1649 H1634 0.930 . S
C1649 C1644 1.390 . S
C1649 C1648 1.387 . S
H1650 C1662 0.930 . S
H1651 C1664 0.930 . S
H1652 C1665 0.930 . S
H1653 C1669 0.959 . S
H1654 C1669 0.959 . S
H1655 C1669 0.961 . S
H1656 C1670 0.960 . S
H1657 C1670 0.961 . S
H1658 C1670 0.959 . S
H1659 C1673 0.929 . S
H1660 C1674 0.931 . S
H1661 C1676 0.930 . S
C1662 H1650 0.930 . S
C1662 C1663 1.399 . S
C1662 C1667 1.399 . S
C1663 C1662 1.399 . S
C1663 C1664 1.376 . S
C1664 H1651 0.930 . S
C1664 C1663 1.376 . S
C1664 C1665 1.388 . S
C1665 H1652 0.930 . S
C1665 C1664 1.388 . S
C1665 C1666 1.390 . S
C1666 C1665 1.390 . S
C1666 C1667 1.394 . S
C1666 C1672 1.465 . S
C1667 C1662 1.399 . S
C1667 C1666 1.394 . S
C1667 C1668 1.516 . S
C1668 C1667 1.516 . S
C1668 C1669 1.502 . S
C1668 C1670 1.561 . S
C1668 C1671 1.526 . S
C1669 H1653 0.959 . S
C1669 H1654 0.959 . S
C1669 H1655 0.961 . S
C1669 C1668 1.502 . S
C1670 H1656 0.960 . S
C1670 H1657 0.961 . S
C1670 H1658 0.959 . S
C1670 C1668 1.561 . S
C1671 C1668 1.526 . S
C1671 C1672 1.396 . S
C1671 C1676 1.390 . S
C1672 C1666 1.465 . S
C1672 C1671 1.396 . S
C1672 C1673 1.399 . S
C1673 H1659 0.929 . S
C1673 C1672 1.399 . S
C1673 C1674 1.385 . S
C1674 H1660 0.931 . S
C1674 C1673 1.385 . S
C1674 C1675 1.389 . S
C1675 C1674 1.389 . S
C1675 C1676 1.387 . S
C1676 H1661 0.930 . S
C1676 C1671 1.390 . S
C1676 C1675 1.387 . S
H1677 C1689 0.930 . S
H1678 C1691 0.930 . S
H1679 C1692 0.930 . S
H1680 C1696 0.959 . S
H1681 C1696 0.959 . S
H1682 C1696 0.961 . S
H1683 C1697 0.960 . S
H1684 C1697 0.961 . S
H1685 C1697 0.959 . S
H1686 C1700 0.929 . S
H1687 C1701 0.931 . S
H1688 C1703 0.930 . S
C1689 H1677 0.930 . S
C1689 C1690 1.399 . S
C1689 C1694 1.399 . S
C1690 C1689 1.399 . S
C1690 C1691 1.376 . S
C1691 H1678 0.930 . S
C1691 C1690 1.376 . S
C1691 C1692 1.388 . S
C1692 H1679 0.930 . S
C1692 C1691 1.388 . S
C1692 C1693 1.390 . S
C1693 C1692 1.390 . S
C1693 C1694 1.394 . S
C1693 C1699 1.465 . S
C1694 C1689 1.399 . S
C1694 C1693 1.394 . S
C1694 C1695 1.516 . S
C1695 C1694 1.516 . S
C1695 C1696 1.502 . S
C1695 C1697 1.561 . S
C1695 C1698 1.526 . S
C1696 H1680 0.959 . S
C1696 H1681 0.959 . S
C1696 H1682 0.961 . S
C1696 C1695 1.502 . S
C1697 H1683 0.960 . S
C1697 H1684 0.961 . S
C1697 H1685 0.959 . S
C1697 C1695 1.561 . S
C1698 C1695 1.526 . S
C1698 C1699 1.396 . S
C1698 C1703 1.390 . S
C1699 C1693 1.465 . S
C1699 C1698 1.396 . S
C1699 C1700 1.399 . S
C1700 H1686 0.929 . S
C1700 C1699 1.399 . S
C1700 C1701 1.385 . S
C1701 H1687 0.931 . S
C1701 C1700 1.385 . S
C1701 C1702 1.389 . S
C1702 C1701 1.389 . S
C1702 C1703 1.387 . S
C1703 H1688 0.930 . S
C1703 C1698 1.390 . S
C1703 C1702 1.387 . S
C1069 C49 1.200 . S
C1081 C469 1.200 . S
C1096 C145 1.219 1_565 S
C1108 C401 1.222 1_565 S
C1123 C489 1.224 . S
C1135 C225 1.222 . S
C1150 C313 1.220 . S
C1162 C381 1.222 . S
C1177 C636 1.208 1_655 S
C1189 C205 1.205 1_655 S
C1204 C548 1.222 . S
C1216 C293 1.224 . S
C1231 C29 1.210 1_655 S
C1243 C673 1.208 1_655 S
C1258 C585 1.225 . S
C1270 C108 1.225 1_565 S
C1285 C849 1.200 1_556 S
C1297 C733 1.200 1_556 S
C1312 C753 1.220 . S
C1324 C997 1.222 . S
C1339 C812 1.206 . S
C1351 C937 1.205 . S
C1366 C900 1.216 1_556 S
C1378 C1017 1.218 1_556 S
C1393 C1025 1.200 . S
C1405 C557 1.205 . S
C1420 C761 1.205 . S
C1432 C665 1.205 . S
C1447 C577 1.220 . S
C1459 C841 1.220 . S
C1474 C645 1.207 . S
C1486 C929 1.210 . S
C1501 C372 1.203 . S
C1513 C821 1.201 . S
C1528 C460 1.220 . S
C1540 C909 1.221 . S
C1555 C988 1.209 . S
C1567 C409 1.210 . S
C1582 C724 1.218 . S
C1594 C497 1.216 . S
C1609 C117 1.207 . S
C1621 C233 1.209 . S
C1636 C20 1.217 . S
C1648 C137 1.218 . S
C1663 C196 1.215 . S
C1675 C321 1.217 . S
C1690 C57 1.220 . S
C1702 C284 1.218 . S
