# Generated by pormake.
# Topology snz, (6)-cn, num edge types: 1
# Building blocks:
#     Node 0, Type 0, BuildingBlock: BETDAH_clean_sbu_0, # of connection points: 6
#     Node 1, Type 0, BuildingBlock: BETDAH_clean_sbu_0, # of connection points: 6
#     Node 2, Type 0, BuildingBlock: BETDAH_clean_sbu_0, # of connection points: 6
#     Node 3, Type 0, BuildingBlock: BETDAH_clean_sbu_0, # of connection points: 6
#     Node 4, Type 0, BuildingBlock: BETDAH_clean_sbu_0, # of connection points: 6
#     Node 5, Type 0, BuildingBlock: BETDAH_clean_sbu_0, # of connection points: 6
#     Node 6, Type 0, BuildingBlock: BETDAH_clean_sbu_0, # of connection points: 6
#     Node 7, Type 0, BuildingBlock: BETDAH_clean_sbu_0, # of connection points: 6
#     Node 8, Type 0, BuildingBlock: BETDAH_clean_sbu_0, # of connection points: 6
#     Edge 9, Type (0, 0), BuildingBlock: EZIPEK_clean_linker_0, # of connection points: 2
#     Edge 10, Type (0, 0), BuildingBlock: EZIPEK_clean_linker_0, # of connection points: 2
#     Edge 11, Type (0, 0), BuildingBlock: EZIPEK_clean_linker_0, # of connection points: 2
#     Edge 12, Type (0, 0), BuildingBlock: EZIPEK_clean_linker_0, # of connection points: 2
#     Edge 13, Type (0, 0), BuildingBlock: EZIPEK_clean_linker_0, # of connection points: 2
#     Edge 14, Type (0, 0), BuildingBlock: EZIPEK_clean_linker_0, # of connection points: 2
#     Edge 15, Type (0, 0), BuildingBlock: EZIPEK_clean_linker_0, # of connection points: 2
#     Edge 16, Type (0, 0), BuildingBlock: EZIPEK_clean_linker_0, # of connection points: 2
#     Edge 17, Type (0, 0), BuildingBlock: EZIPEK_clean_linker_0, # of connection points: 2
#     Edge 18, Type (0, 0), BuildingBlock: EZIPEK_clean_linker_0, # of connection points: 2
#     Edge 19, Type (0, 0), BuildingBlock: EZIPEK_clean_linker_0, # of connection points: 2
#     Edge 20, Type (0, 0), BuildingBlock: EZIPEK_clean_linker_0, # of connection points: 2
#     Edge 21, Type (0, 0), BuildingBlock: EZIPEK_clean_linker_0, # of connection points: 2
#     Edge 22, Type (0, 0), BuildingBlock: EZIPEK_clean_linker_0, # of connection points: 2
#     Edge 23, Type (0, 0), BuildingBlock: EZIPEK_clean_linker_0, # of connection points: 2
#     Edge 24, Type (0, 0), BuildingBlock: EZIPEK_clean_linker_0, # of connection points: 2
#     Edge 25, Type (0, 0), BuildingBlock: EZIPEK_clean_linker_0, # of connection points: 2
#     Edge 26, Type (0, 0), BuildingBlock: EZIPEK_clean_linker_0, # of connection points: 2
#     Edge 27, Type (0, 0), BuildingBlock: EZIPEK_clean_linker_0, # of connection points: 2
#     Edge 28, Type (0, 0), BuildingBlock: EZIPEK_clean_linker_0, # of connection points: 2
#     Edge 29, Type (0, 0), BuildingBlock: EZIPEK_clean_linker_0, # of connection points: 2
#     Edge 30, Type (0, 0), BuildingBlock: EZIPEK_clean_linker_0, # of connection points: 2
#     Edge 31, Type (0, 0), BuildingBlock: EZIPEK_clean_linker_0, # of connection points: 2
#     Edge 32, Type (0, 0), BuildingBlock: EZIPEK_clean_linker_0, # of connection points: 2
#     Edge 33, Type (0, 0), BuildingBlock: EZIPEK_clean_linker_0, # of connection points: 2
#     Edge 34, Type (0, 0), BuildingBlock: EZIPEK_clean_linker_0, # of connection points: 2
#     Edge 35, Type (0, 0), BuildingBlock: EZIPEK_clean_linker_0, # of connection points: 2
# Relax obj value: 0.619
# Max RMSD: 0.285
# Mean RMSD: 0.190
data_MOF--net-snz--node1-BETDAH_clean_sbu_0--edge1-EZIPEK_clean_linker_0
_symmetry_space_group_name_H-M    P1
_symmetry_Int_Tables_number       1
_symmetry_cell_setting            triclinic
loop_
_symmetry_equiv_pos_as_xyz
'x, y, z'
_cell_length_a     53.58806
_cell_length_b     41.374531
_cell_length_c     12.950052
_cell_angle_alpha  96.625894
_cell_angle_beta   98.091438
_cell_angle_gamma 120.92467
loop_
_atom_site_label
_atom_site_type_symbol
_atom_site_fract_x
_atom_site_fract_y
_atom_site_fract_z
_atom_type_partial_charge
Ho0 Ho 0.12317 0.4912 0.17318 0.0
Ho1 Ho 0.09143 0.49682 0.16071 0.0
C2 C 0.0652 0.41037 0.09224 0.0
C3 C 0.1611 0.46746 0.20302 0.0
C4 C 0.16191 0.43055 0.20446 0.0
C5 C 0.14822 0.40409 0.26984 0.0
C6 C 0.15389 0.37419 0.28194 0.0
C7 C 0.17268 0.36749 0.22591 0.0
C8 C 0.18658 0.39519 0.16312 0.0
C9 C 0.18093 0.4248 0.15116 0.0
C10 C 0.09934 0.47732 0.90969 0.0
C11 C 0.14271 0.58179 0.20707 0.0
C12 C 0.04446 0.49943 0.15903 0.0
C13 C 1.03279 0.52006 0.11251 0.0
C14 C 0.04303 0.53772 1.02812 0.0
C15 C 1.03549 0.56343 0.99918 0.0
C16 C 1.01808 0.57138 1.05526 0.0
C17 C 1.00893 0.55462 0.14143 0.0
C18 C 1.01622 0.52899 0.16977 0.0
C19 C 0.09299 0.47633 0.39669 0.0
O20 O 0.0913 0.42671 0.15459 0.0
O21 O 0.05864 0.43476 1.0666 0.0
O22 O 0.15272 0.4745 0.11384 0.0
O23 O 0.15226 0.47961 0.27774 0.0
O24 O 0.11191 0.50287 1.00354 0.0
O25 O 0.1118 0.50214 1.00609 0.0
O26 O 0.11477 0.56011 0.15434 0.0
O27 O 0.15333 0.56001 0.2359 0.0
O28 O 0.06992 0.52265 0.2262 0.0
O29 O 0.04399 0.47208 0.09631 0.0
O30 O 0.10978 0.49947 0.33809 0.0
O31 O 0.10947 0.49924 0.33566 0.0
H32 H 0.1339 0.40732 0.31572 0.0
H33 H 0.1443 0.35811 0.34051 0.0
H34 H 0.20337 0.39558 0.1251 0.0
H35 H 0.19288 0.4448 0.10296 0.0
H36 H 0.05704 0.53213 0.98636 0.0
H37 H 0.04246 0.57633 0.93191 0.0
H38 H 0.99408 0.55859 0.18111 0.0
H39 H 1.00921 0.51642 0.23738 0.0
Ho40 Ho 0.69063 0.50433 0.1865 0.0
Ho41 Ho 0.6619 0.50752 0.17453 0.0
C42 C 0.70773 0.5942 0.23781 0.0
C43 C 0.74089 0.50763 0.19854 0.0
C44 C 0.76526 0.52734 0.14437 0.0
C45 C 0.76434 0.55119 0.07687 0.0
C46 C 0.78678 0.56888 1.02199 0.0
C47 C 0.8103 0.56285 1.03388 0.0
C48 C 0.81251 0.5414 0.10711 0.0
C49 C 0.79002 0.52366 0.16225 0.0
C50 C 0.6877 0.51996 0.44095 0.0
C51 C 0.62596 0.42181 1.05959 0.0
C52 C 0.6102 0.48562 0.20943 0.0
C53 C 0.57803 0.45656 0.19447 0.0
C54 C 0.56984 0.42461 0.24289 0.0
C55 C 0.54055 0.40007 0.24847 0.0
C56 C 0.51855 0.40666 0.20635 0.0
C57 C 0.52604 0.43741 0.15458 0.0
C58 C 0.55578 0.46235 0.14865 0.0
C59 C 0.67005 0.49212 0.9237 0.0
O60 O 0.71887 0.5731 0.21184 0.0
O61 O 0.67943 0.57176 0.23618 0.0
O62 O 0.73735 0.53084 0.26162 0.0
O63 O 0.71535 0.47885 0.13922 0.0
O64 O 0.67655 0.49447 0.34782 0.0
O65 O 0.67741 0.49607 0.34407 0.0
O66 O 0.62381 0.45153 1.06281 0.0
O67 O 0.65444 0.43528 0.10851 0.0
O68 O 0.62241 0.51323 0.15616 0.0
O69 O 0.62635 0.47158 0.23648 0.0
O70 O 0.67955 0.51745 1.01691 0.0
O71 O 0.67882 0.51617 1.01864 0.0
H72 H 0.74608 0.55577 1.06562 0.0
H73 H 0.7857 0.58687 0.9693 0.0
H74 H 0.83124 0.53775 0.11963 0.0
H75 H 0.79173 0.50672 0.21748 0.0
H76 H 0.58627 0.41945 0.28257 0.0
H77 H 0.53542 0.37731 0.29186 0.0
H78 H 0.50922 0.44314 0.12357 0.0
H79 H 0.56156 0.48687 0.11252 0.0
Ho80 Ho 0.65154 0.11697 0.15466 0.0
Ho81 Ho 0.68348 0.15667 0.17761 0.0
C82 C 0.62084 0.15815 0.07852 0.0
C83 C 0.60119 0.06884 0.19394 0.0
C84 C 0.57011 0.05572 0.19635 0.0
C85 C 0.56522 0.06414 0.2972 0.0
C86 C 0.53656 0.04962 0.31133 0.0
C87 C 0.51199 0.02726 0.2243 0.0
C88 C 0.51675 0.02162 0.12101 0.0
C89 C 0.5458 0.03516 0.10727 0.0
C90 C 0.67003 0.12557 0.91785 0.0
C91 C 0.69034 0.08532 0.21201 0.0
C92 C 0.74015 0.1885 0.16659 0.0
C93 C 0.76937 0.19928 0.12965 0.0
C94 C 0.76832 0.18643 1.02196 0.0
C95 C 0.79269 0.18627 0.98944 0.0
C96 C 0.81957 0.19743 1.06263 0.0
C97 C 0.82075 0.21031 0.17132 0.0
C98 C 0.79657 0.21159 0.20353 0.0
C99 C 0.67628 0.13697 0.41842 0.0
O100 O 0.61327 0.1246 0.09707 0.0
O101 O 0.65158 0.18179 0.10951 0.0
O102 O 0.61002 0.05856 0.11316 0.0
O103 O 0.6196 0.10447 0.24593 0.0
O104 O 0.6598 0.13716 0.99268 0.0
O105 O 0.66008 0.13641 0.99548 0.0
O106 O 0.70338 0.12246 0.24509 0.0
O107 O 0.66435 0.07133 0.14885 0.0
O108 O 0.72969 0.21038 0.19607 0.0
O109 O 0.71897 0.15211 0.13654 0.0
O110 O 0.67205 0.15575 0.34649 0.0
O111 O 0.67253 0.15406 0.34017 0.0
H112 H 0.5837 0.08086 0.36706 0.0
H113 H 0.53351 0.05491 0.39119 0.0
H114 H 0.49786 1.0045 1.05285 0.0
H115 H 0.54913 0.02888 1.02872 0.0
H116 H 0.74781 0.17479 0.96211 0.0
H117 H 0.7899 0.17557 0.90566 0.0
H118 H 0.84011 0.21836 0.23289 0.0
H119 H 0.79855 0.22006 0.2881 0.0
Ho120 Ho 0.82437 0.85791 0.3752 0.0
Ho121 Ho 0.79121 0.86285 0.3572 0.0
C122 C 0.77072 0.7726 0.33154 0.0
C123 C 0.871 0.85363 0.38852 0.0
C124 C 0.87172 0.81896 0.37529 0.0
C125 C 0.8547 0.79001 0.42792 0.0
C126 C 0.86089 0.76226 0.44037 0.0
C127 C 0.88506 0.76467 0.40482 0.0
C128 C 0.89776 0.78788 0.3333 0.0
C129 C 0.89141 0.81604 0.32011 0.0
C130 C 0.81888 0.87441 0.13258 0.0
C131 C 0.84954 0.94311 0.41329 0.0
C132 C 0.75859 0.89341 0.31715 0.0
C133 C 0.75526 0.92858 0.33011 0.0
C134 C 0.77402 0.96217 0.29261 0.0
C135 C 0.76707 0.9907 0.28004 0.0
C136 C 0.74075 0.9871 0.30276 0.0
C137 C 0.72318 0.95501 0.34665 0.0
C138 C 0.73015 0.92648 0.35943 0.0
C139 C 0.80161 0.84955 0.60662 0.0
O140 O 0.7988 0.79432 0.38239 0.0
O141 O 0.75996 0.79397 0.30191 0.0
O142 O 0.8592 0.85911 0.30399 0.0
O143 O 0.86147 0.85964 0.47043 0.0
O144 O 0.80449 0.85046 0.19445 0.0
O145 O 0.80495 0.85095 0.19751 0.0
O146 O 0.82374 0.92473 0.347 0.0
O147 O 0.85619 0.92087 0.4534 0.0
O148 O 0.7529 0.86915 0.38102 0.0
O149 O 0.78011 0.89742 0.27446 0.0
O150 O 0.81251 0.87362 0.54043 0.0
O151 O 0.81164 0.8724 0.53638 0.0
H152 H 0.83947 0.7914 0.47195 0.0
H153 H 0.8506 0.74374 0.49446 0.0
H154 H 0.91639 0.78929 0.30569 0.0
H155 H 0.90428 0.83793 0.27797 0.0
H156 H 0.79369 0.96583 0.26818 0.0
H157 H 0.78186 0.01504 0.24852 0.0
H158 H 0.7032 0.95123 0.36821 0.0
H159 H 0.715 0.90171 0.38844 0.0
Ho160 Ho 0.25643 0.84563 0.34655 0.0
Ho161 Ho 0.22585 0.85073 0.33437 0.0
C162 C 0.29153 0.93474 0.42883 0.0
C163 C 0.30665 0.85754 0.31527 0.0
C164 C 0.33743 0.89146 0.33005 0.0
C165 C 0.3435 0.91587 0.2565 0.0
C166 C 0.37265 0.94306 0.2543 0.0
C167 C 0.39639 0.94685 0.32641 0.0
C168 C 0.3907 0.92572 0.40721 0.0
C169 C 0.36126 0.89779 0.4083 0.0
C170 C 0.23447 0.83444 0.57956 0.0
C171 C 0.20723 0.76043 0.31331 0.0
C172 C 0.17553 0.84877 0.31652 0.0
C173 C 0.14976 0.82934 0.36548 0.0
C174 C 0.15035 0.80851 0.44261 0.0
C175 C 0.12656 0.7911 0.49233 0.0
C176 C 0.10105 0.79264 0.4616 0.0
C177 C 0.09878 0.8088 0.3735 0.0
C178 C 0.12332 0.82802 0.32788 0.0
C179 C 0.24322 0.86563 0.09994 0.0
O180 O 0.29628 0.90764 0.40337 0.0
O181 O 0.26193 0.91993 0.40215 0.0
O182 O 0.29627 0.84303 0.3961 0.0
O183 O 0.28713 0.85905 0.24798 0.0
O184 O 0.24799 0.85884 0.51661 0.0
O185 O 0.24747 0.85732 0.51327 0.0
O186 O 0.19756 0.78362 0.33774 0.0
O187 O 0.2354 0.78037 0.31233 0.0
O188 O 0.17933 0.82515 0.25794 0.0
O189 O 0.20098 0.87704 0.37689 0.0
O190 O 0.23328 0.8406 0.16322 0.0
O191 O 0.2335 0.84159 0.1676 0.0
H192 H 0.32587 0.91257 0.19577 0.0
H193 H 0.37668 0.95927 0.1918 0.0
H194 H 0.40905 0.92855 0.4634 0.0
H195 H 0.35721 0.87984 0.46625 0.0
H196 H 0.16953 0.80639 0.46468 0.0
H197 H 0.12822 0.77694 0.5559 0.0
H198 H 0.07876 0.80879 0.34495 0.0
H199 H 0.12174 0.84211 0.26405 0.0
Ho200 Ho 0.23305 0.20069 0.3521 0.0
Ho201 Ho 0.26548 0.24147 0.37357 0.0
C202 C 0.22593 0.2723 0.3206 0.0
C203 C 0.17671 0.16871 0.36698 0.0
C204 C 0.14784 0.15989 0.40444 0.0
C205 C 0.15022 0.18553 0.49392 0.0
C206 C 0.12511 0.18464 0.52129 0.0
C207 C 0.09553 0.15806 0.46137 0.0
C208 C 0.09264 0.13211 0.37074 0.0
C209 C 0.1181 0.13297 0.34306 0.0
C210 C 0.23829 0.21818 0.10675 0.0
C211 C 0.29472 0.1972 0.44275 0.0
C212 C 0.31631 0.29215 0.33951 0.0
C213 C 0.34686 0.30148 0.33859 0.0
C214 C 0.35114 0.28308 0.25044 0.0
C215 C 0.37952 0.29535 0.23601 0.0
C216 C 0.40527 0.3243 0.31386 0.0
C217 C 0.40067 0.34396 0.39913 0.0
C218 C 0.37195 0.33234 0.41208 0.0
C219 C 0.2445 0.22863 0.60916 0.0
O220 O 0.21243 0.23493 0.29076 0.0
O221 O 0.25278 0.28701 0.3771 0.0
O222 O 0.18665 0.14644 0.33524 0.0
O223 O 0.19797 0.20501 0.39339 0.0
O224 O 0.24459 0.20222 0.18318 0.0
O225 O 0.24401 0.20359 0.18892 0.0
O226 O 0.30253 0.23014 0.41853 0.0
O227 O 0.26402 0.17471 0.41978 0.0
O228 O 0.30802 0.29902 0.42607 0.0
O229 O 0.29608 0.25925 0.27683 0.0
O230 O 0.25797 0.222 0.53726 0.0
O231 O 0.25742 0.22272 0.53395 0.0
H232 H 0.17213 0.20771 0.54273 0.0
H233 H 0.12901 0.20553 0.59022 0.0
H234 H 0.0706 0.1113 0.32003 0.0
H235 H 0.11449 0.11351 0.27096 0.0
H236 H 0.33248 0.26016 0.18807 0.0
H237 H 0.38026 0.28281 0.15981 0.0
H238 H 0.41896 0.3698 0.45412 0.0
H239 H 0.3694 0.34846 0.47719 0.0
Ho240 Ho 0.46785 0.18432 0.6992 0.0
Ho241 Ho 0.44781 0.16936 0.8103 0.0
C242 C 0.40569 0.18892 0.66991 0.0
C243 C 0.4776 0.21145 0.53311 0.0
C244 C 0.45839 0.22059 0.46977 0.0
C245 C 0.42777 0.19294 0.4247 0.0
C246 C 0.41291 0.20139 0.34512 0.0
C247 C 0.43229 0.22522 0.2859 0.0
C248 C 0.45484 0.26074 0.35654 0.0
C249 C 0.47047 0.25766 0.44775 0.0
C250 C 0.51342 0.25158 0.85341 0.0
C251 C 0.50989 0.16498 0.8429 0.0
C252 C 0.43745 0.14364 0.97752 0.0
C253 C 0.45645 0.13536 1.04472 0.0
C254 C 0.48707 0.1632 0.09053 0.0
C255 C 0.50072 0.15669 0.17895 0.0
C256 C 0.48021 0.13574 0.23929 0.0
C257 C 0.45806 0.099 0.17291 0.0
C258 C 0.44361 0.09962 0.07474 0.0
C259 C 0.40276 0.10181 0.655 0.0
O260 O 0.42358 0.18298 0.62105 0.0
O261 O 0.41417 0.19053 0.7728 0.0
O262 O 0.48914 0.233 0.62788 0.0
O263 O 0.46815 0.17516 0.53121 0.0
O264 O 0.51622 0.22859 0.78658 0.0
O265 O 0.48424 0.2347 0.84188 0.0
O266 O 0.49146 0.16999 0.89066 0.0
O267 O 0.50194 0.16387 0.73977 0.0
O268 O 0.42641 0.12137 0.88375 0.0
O269 O 0.44682 0.17973 0.97694 0.0
O270 O 0.39965 0.12468 0.72083 0.0
O271 O 0.43197 0.11877 0.66811 0.0
H272 H 0.41725 0.16378 0.43636 0.0
H273 H 0.38982 0.1794 0.30679 0.0
H274 H 0.46526 0.28739 0.32926 0.0
H275 H 0.49266 0.28159 0.48966 0.0
H276 H 0.49828 0.19164 0.0735 0.0
H277 H 0.52382 0.1785 0.21742 0.0
H278 H 0.44665 0.07366 0.20522 0.0
H279 H 0.4214 0.07545 1.03381 0.0
Ho280 Ho 0.96127 0.1577 0.8077 0.0
Ho281 Ho 0.95281 0.19501 0.71906 0.0
C282 C 0.91058 0.17838 0.86955 0.0
C283 C 0.97771 0.12995 0.94713 0.0
C284 C 0.96852 0.13512 1.04656 0.0
C285 C 0.95788 0.16941 1.02742 0.0
C286 C 0.93933 0.1817 0.11009 0.0
C287 C 0.92965 0.1556 0.2405 0.0
C288 C 0.94462 0.11743 0.25603 0.0
C289 C 0.96227 0.10956 0.15846 0.0
C290 C 0.92397 0.10482 0.63217 0.0
C291 C 1.00357 0.17402 0.65532 0.0
C292 C 0.93495 0.22289 0.58244 0.0
C293 C 0.94128 0.2161 0.47717 0.0
C294 C 0.95222 0.18205 0.4938 0.0
C295 C 0.97101 0.17054 0.41075 0.0
C296 C 0.9802 0.19672 0.28068 0.0
C297 C 0.96469 0.23479 0.2658 0.0
C298 C 0.94694 0.24199 0.36527 0.0
C299 C 0.99292 0.24687 0.89486 0.0
O300 O 0.9174 0.15127 0.86448 0.0
O301 O 0.92591 0.205 0.82114 0.0
O302 O 0.95376 0.10884 0.87109 0.0
O303 O 0.9965 0.16339 0.92905 0.0
O304 O 0.95038 0.1132 0.66995 0.0
O305 O 0.91972 0.12951 0.68118 0.0
O306 O 0.99403 0.19827 0.649 0.0
O307 O 0.99181 0.1516 0.71866 0.0
O308 O 0.9602 0.24331 0.6527 0.0
O309 O 0.91641 0.19042 0.6061 0.0
O310 O 0.96621 0.2389 0.86612 0.0
O311 O 0.99543 0.2222 0.83742 0.0
H312 H 0.96512 0.18612 0.96885 0.0
H313 H 0.93188 0.20014 0.09079 0.0
H314 H 0.9389 0.09992 0.31261 0.0
H315 H 0.96681 0.12045 0.09664 0.0
H316 H 0.94541 0.16534 0.5526 0.0
H317 H 0.97942 0.15268 0.43064 0.0
H318 H 0.96855 0.2516 0.205 0.0
H319 H 0.94268 0.2311 0.42786 0.0
Ho320 Ho 0.95082 0.66547 0.67106 0.0
Ho321 Ho 0.9741 0.71917 0.87819 0.0
C322 C 1.01157 0.74265 0.71216 0.0
C323 C 0.95206 0.65319 0.4796 0.0
C324 C 0.95498 0.63255 0.38623 0.0
C325 C 0.95218 0.63799 0.19837 0.0
C326 C 0.94945 0.60064 0.13512 0.0
C327 C 0.94947 0.56799 0.18726 0.0
C328 C 0.95229 0.57043 0.32004 0.0
C329 C 0.95511 0.5994 0.42644 0.0
C330 C 0.97587 0.64433 0.81093 0.0
C331 C 0.90581 0.63564 0.81351 0.0
C332 C 0.99235 0.75642 0.07405 0.0
C333 C 0.97914 0.75967 0.16224 0.0
C334 C 0.99755 0.77569 0.2656 0.0
C335 C 0.98608 0.75858 0.34932 0.0
C336 C 0.95874 0.72311 0.32221 0.0
C337 C 0.93783 0.72034 0.23672 0.0
C338 C 0.94823 0.73602 0.15044 0.0
C339 C 0.94194 0.73145 0.73201 0.0
O340 O 0.98435 0.72436 0.65345 0.0
O341 O 1.01531 0.7417 0.81352 0.0
O342 O 0.92642 0.63731 0.50908 0.0
O343 O 0.97618 0.67376 0.55523 0.0
O344 O 0.95693 0.62122 0.72295 0.0
O345 O 0.98524 0.67908 0.80985 0.0
O346 O 0.92709 0.67018 0.8763 0.0
O347 O 0.90858 0.62534 0.71769 0.0
O348 O 0.98809 0.77074 0.99364 0.0
O349 O 0.98849 0.72241 1.04438 0.0
O350 O 0.96762 0.75908 0.79245 0.0
O351 O 0.936 0.69967 0.7487 0.0
H352 H 0.95755 0.66162 0.15783 0.0
H353 H 0.94536 0.59718 1.05089 0.0
H354 H 0.95203 0.54536 0.34499 0.0
H355 H 0.95596 0.59442 0.50688 0.0
H356 H 1.02135 0.79653 0.27828 0.0
H357 H 1.00088 0.76767 0.42693 0.0
H358 H 0.91428 0.69966 0.22325 0.0
H359 H 0.93286 0.72547 0.0728 0.0
C360 C 0.11802 0.51771 0.73846 0.0
C361 C 0.09915 0.48394 0.78116 0.0
C362 C 0.07887 0.44971 0.57664 0.0
C363 C 0.09782 0.48246 0.53227 0.0
N364 N 0.13329 0.5509 0.58717 0.0
N365 N 0.05315 0.42213 0.71624 0.0
C366 C 0.11674 0.51727 0.61893 0.0
C367 C 0.07764 0.45155 0.69209 0.0
N368 N 0.13685 0.55134 0.81277 0.0
N369 N 0.06117 0.41462 0.50662 0.0
H370 H 0.04973 0.42248 0.79352 0.0
H371 H 1.03432 0.40033 0.65861 0.0
H372 H 0.0594 0.41094 0.42437 0.0
H373 H 0.05027 0.38858 0.53098 0.0
H374 H 0.15176 0.57761 0.79606 0.0
H375 H 0.13719 0.55283 0.89386 0.0
H376 H 0.14687 0.57802 0.63797 0.0
H377 H 0.13253 0.55171 0.50675 0.0
C378 C 0.67582 0.47322 0.71944 0.0
C379 C 0.67724 0.50181 0.80303 0.0
C380 C 0.685 0.53963 0.64868 0.0
C381 C 0.68201 0.51039 0.56322 0.0
N382 N 0.68136 0.45157 0.54135 0.0
N383 N 0.67953 0.56162 0.82551 0.0
C384 C 0.67894 0.47772 0.60632 0.0
C385 C 0.6812 0.5348 0.76056 0.0
N386 N 0.6709 0.44004 0.74815 0.0
N387 N 0.69291 0.57436 0.62416 0.0
H388 H 0.67732 0.56005 0.90345 0.0
H389 H 0.67761 0.58333 0.79993 0.0
H390 H 0.69427 0.57919 0.5473 0.0
H391 H 0.70052 0.59931 0.6811 0.0
H392 H 0.6654 0.41535 0.69457 0.0
H393 H 0.67082 0.43642 0.82655 0.0
H394 H 0.684 0.43032 0.56662 0.0
H395 H 0.68338 0.4533 0.46308 0.0
C396 C 0.66609 0.10224 0.70824 0.0
C397 C 0.66895 0.13181 0.7903 0.0
C398 C 0.67438 0.16768 0.62951 0.0
C399 C 0.67129 0.13736 0.54687 0.0
N400 N 0.66358 0.07432 0.52573 0.0
N401 N 0.67445 0.19367 0.81483 0.0
C402 C 0.66692 0.10473 0.59368 0.0
C403 C 0.67253 0.1646 0.74553 0.0
N404 N 0.66078 0.06911 0.73908 0.0
N405 N 0.68056 0.20089 0.59868 0.0
H406 H 0.67444 0.19308 0.89513 0.0
H407 H 0.67483 0.21735 0.79354 0.0
H408 H 0.68175 0.20371 0.52026 0.0
H409 H 0.68569 0.22587 0.64978 0.0
H410 H 0.65383 0.04341 0.68732 0.0
H411 H 0.66128 0.06583 0.81781 0.0
H412 H 0.66716 0.05367 0.5501 0.0
H413 H 0.65839 0.07053 0.44287 0.0
C414 C 0.80957 0.83156 0.80546 0.0
C415 C 0.80996 0.8597 0.7444 0.0
C416 C 0.81687 0.89613 0.93791 0.0
C417 C 0.81281 0.86598 0.99631 0.0
N418 N 0.8158 0.81 0.97397 0.0
N419 N 0.81222 0.91944 0.77277 0.0
C420 C 0.81169 0.83497 0.92514 0.0
C421 C 0.81347 0.8921 0.81794 0.0
N422 N 0.80743 0.80023 0.74731 0.0
N423 N 0.82595 0.93108 0.99938 0.0
H424 H 0.81001 0.91781 0.69109 0.0
H425 H 0.81082 0.94142 0.81374 0.0
H426 H 0.82769 0.93559 0.08173 0.0
H427 H 0.83445 0.95638 0.97102 0.0
H428 H 0.80277 0.77556 0.77508 0.0
H429 H 0.80978 0.79883 0.66871 0.0
H430 H 0.82043 0.79064 0.93701 0.0
H431 H 0.81739 0.8113 1.05573 0.0
C432 C 0.26419 0.87138 0.79736 0.0
C433 C 0.237 0.84597 0.71351 0.0
C434 C 0.21285 0.83113 0.88172 0.0
C435 C 0.24036 0.85505 0.96549 0.0
N436 N 0.29107 0.90696 0.98437 0.0
N437 N 0.18489 0.79817 0.69377 0.0
C438 C 0.26534 0.87729 0.91611 0.0
C439 C 0.21152 0.82532 0.76267 0.0
N440 N 0.29025 0.88912 0.76459 0.0
N441 N 0.18682 0.81577 0.91519 0.0
H442 H 0.18269 0.79262 0.61163 0.0
H443 H 0.16575 0.77899 0.71726 0.0
H444 H 0.18661 0.81838 0.9961 0.0
H445 H 0.16591 0.80407 0.86448 0.0
H446 H 0.31131 0.90302 0.81624 0.0
H447 H 0.29068 0.88703 0.68403 0.0
H448 H 0.30898 0.92816 0.95943 0.0
H449 H 0.29321 0.91265 1.06664 0.0
C450 C 0.27061 0.24408 0.82623 0.0
C451 C 0.24573 0.21959 0.7339 0.0
C452 C 0.21796 0.18921 0.88373 0.0
C453 C 0.24267 0.21427 0.97753 0.0
N454 N 0.29453 0.26501 1.0198 0.0
N455 N 0.19365 0.17005 0.68951 0.0
C456 C 0.26927 0.24126 0.94152 0.0
C457 C 0.21915 0.19256 0.76866 0.0
N458 N 0.29591 0.27284 0.80438 0.0
N459 N 0.19257 0.16021 0.90423 0.0
H460 H 0.19386 0.16919 0.60878 0.0
H461 H 0.1723 0.15393 0.70283 0.0
H462 H 0.19064 0.15713 0.98209 0.0
H463 H 0.1747 0.1375 0.84563 0.0
H464 H 0.31391 0.29585 0.8617 0.0
H465 H 0.29812 0.27482 0.72617 0.0
H466 H 0.31588 0.28136 1.00678 0.0
H467 H 0.29397 0.26624 0.09961 0.0
C468 C 0.42566 0.16285 0.20139 0.0
C469 C 0.44384 0.20381 0.22305 0.0
C470 C 0.48656 0.20033 0.29989 0.0
C471 C 0.46798 0.15939 0.28534 0.0
N472 N 0.41665 0.10798 0.27213 0.0
N473 N 0.49451 0.25599 0.23457 0.0
C474 C 0.43654 0.14288 0.25391 0.0
C475 C 0.47522 0.22019 0.24912 0.0
N476 N 0.3966 0.14415 0.1468 0.0
N477 N 0.51568 0.21951 0.35453 0.0
H478 H 0.48716 0.27157 0.19663 0.0
H479 H 0.48716 0.27157 0.19663 0.0
H480 H 0.52422 0.20516 0.39292 0.0
H481 H 0.53009 0.24935 0.36508 0.0
H482 H 0.38221 0.1142 0.13347 0.0
H483 H 0.38805 0.1592 0.11274 0.0
H484 H 0.42331 0.09307 0.31656 0.0
H485 H 0.42331 0.09307 0.31656 0.0
C486 C 0.9239 0.11968 0.09758 0.0
C487 C 0.97566 0.17424 0.20475 0.0
C488 C 0.98573 0.23243 0.42362 0.0
C489 C 0.93421 0.17786 0.31703 0.0
N490 N 0.87832 0.11148 0.19186 0.0
N491 N 1.03125 0.24191 0.32692 0.0
C492 C 0.91033 0.1353 0.20248 0.0
C493 C 0.99935 0.21723 0.31813 0.0
N494 N 0.90792 0.08734 1.01664 0.0
N495 N 1.00141 0.26604 0.50031 0.0
H496 H 0.04084 0.23603 0.26851 0.0
H497 H 0.04464 0.26701 0.38677 0.0
H498 H 0.99195 0.2782 0.54209 0.0
H499 H 1.02467 0.28271 0.51389 0.0
H500 H 0.9171 0.07636 0.96908 0.0
H501 H 0.88465 0.07112 1.00264 0.0
H502 H 0.86468 0.08721 0.12954 0.0
H503 H 0.86865 0.11763 0.24951 0.0
C504 C 0.99138 0.63943 0.29896 0.0
C505 C 0.95191 0.58978 0.24977 0.0
C506 C 0.91889 0.63976 0.29029 0.0
C507 C 0.95825 0.68644 0.32684 0.0
N508 N 1.02038 0.71603 0.34537 0.0
N509 N 0.88558 0.55531 0.22325 0.0
C510 C 0.99268 0.68455 0.33308 0.0
C511 C 0.91392 0.58942 0.25195 0.0
N512 N 1.01675 0.64148 0.28788 0.0
N513 N 0.89407 0.64104 0.30702 0.0
H514 H 0.88313 0.52855 0.20249 0.0
H515 H 0.9057 0.57868 0.24293 0.0
H516 H 0.8973 0.66692 0.34413 0.0
H517 H 0.91105 0.64001 0.29543 0.0
H518 H 1.0366 0.6681 0.29794 0.0
H519 H 1.01704 0.6168 0.26773 0.0
H520 H 1.02612 0.7444 0.35837 0.0
H521 H 1.02612 0.7444 0.35837 0.0
C522 C 0.18992 0.29542 0.35032 0.0
C523 C 0.21064 0.29467 0.29303 0.0
C524 C 0.19595 0.32709 0.16775 0.0
C525 C 0.18094 0.33592 0.23869 0.0
N526 N 0.1455 0.2981 0.3377 0.0
N527 N 0.23146 0.30882 0.13901 0.0
C528 C 0.17289 0.31206 0.31552 0.0
C529 C 0.21304 0.3103 0.19954 0.0
N530 N 0.18597 0.27968 0.43814 0.0
N531 N 0.18919 0.32771 1.06271 0.0
H532 H 0.24318 0.29556 0.15625 0.0
H533 H 0.23655 0.32307 0.07642 0.0
H534 H 0.17242 0.33234 1.03274 0.0
H535 H 0.19632 0.31753 1.00345 0.0
H536 H 0.17322 0.28209 0.48871 0.0
H537 H 0.19745 0.26702 0.46501 0.0
H538 H 0.13714 0.27844 0.38646 0.0
H539 H 0.12895 0.29947 0.28917 0.0
C540 C 0.72336 0.66021 0.17861 0.0
C541 C 0.7253 0.64025 0.26019 0.0
C542 C 0.75746 0.70633 0.38627 0.0
C543 C 0.75401 0.7264 0.30646 0.0
N544 N 0.73737 0.72073 0.11962 0.0
N545 N 0.75181 0.64749 0.43498 0.0
C546 C 0.73783 0.70254 0.20077 0.0
C547 C 0.74467 0.66448 0.36177 0.0
N548 N 0.70872 0.63838 0.07716 0.0
N549 N 0.77209 0.72718 0.48863 0.0
H550 H 0.74264 0.61776 0.42097 0.0
H551 H 0.76858 0.66269 0.5049 0.0
H552 H 0.78004 0.75636 0.51124 0.0
H553 H 0.77417 0.71537 0.55348 0.0
H554 H 0.7062 0.64893 1.01016 0.0
H555 H 0.69943 0.60868 1.0589 0.0
H556 H 0.72628 0.70695 1.04039 0.0
H557 H 0.74911 0.7507 0.13088 0.0
C558 C 0.46504 0.96573 0.22756 0.0
C559 C 0.48165 1.00674 0.24596 0.0
C560 C 0.44358 0.00876 0.32762 0.0
C561 C 0.42648 0.96781 0.30435 0.0
N562 N 0.42 0.90652 0.23593 0.0
N563 N 0.48813 0.0679 0.31464 0.0
C564 C 0.43688 0.94607 0.25461 0.0
C565 C 0.47126 0.02845 0.29649 0.0
N566 N 0.4765 0.94566 0.18559 0.0
N567 N 0.43306 0.02845 0.37899 0.0
H568 H 0.50618 0.0829 0.28017 0.0
H569 H 0.48435 0.08622 0.36206 0.0
H570 H 0.41309 0.01467 0.40401 0.0
H571 H 0.44399 0.05831 0.39965 0.0
H572 H 0.46439 0.91601 0.15547 0.0
H573 H 0.49872 0.95856 0.18051 0.0
H574 H 0.42729 0.88855 0.21245 0.0
H575 H 0.3982 0.89072 0.24576 0.0
C576 C 0.58938 0.19377 1.04732 0.0
C577 C 0.59413 0.16301 1.01545 0.0
C578 C 0.54347 0.13318 0.87584 0.0
C579 C 0.53902 0.16427 0.90535 0.0
N580 N 0.55686 0.21953 1.04743 0.0
N581 N 0.56994 0.09966 0.90132 0.0
C582 C 0.56187 0.19303 0.99925 0.0
C583 C 0.56932 0.13194 0.93067 0.0
N584 N 0.61146 0.22456 0.12534 0.0
N585 N 0.52225 0.10344 0.7935 0.0
H586 H 0.58945 0.09946 0.91663 0.0
H587 H 0.55098 0.0727 0.86409 0.0
H588 H 0.50254 0.10134 0.75884 0.0
H589 H 0.52428 0.08147 0.75682 0.0
H590 H 0.61228 0.2502 0.14635 0.0
H591 H 0.63026 0.22528 0.16386 0.0
H592 H 0.56891 0.23752 0.12274 0.0
H593 H 0.53943 0.22224 1.0135 0.0
C594 C 1.02094 0.30024 1.05686 0.0
C595 C 1.01703 0.2876 0.9465 0.0
C596 C 0.04778 0.35533 0.93435 0.0
C597 C 0.04741 0.36796 1.04072 0.0
N598 N 1.02975 0.35096 0.1992 0.0
N599 N 1.02464 0.30385 0.77584 0.0
C600 C 1.03293 0.33994 0.10103 0.0
C601 C 1.02975 0.31537 0.88378 0.0
N602 N 1.01426 0.27433 0.12055 0.0
N603 N 0.06717 0.3811 0.88415 0.0
H604 H 1.01475 0.2751 0.73763 0.0
H605 H 1.02929 0.32289 0.72461 0.0
H606 H 0.08294 0.4095 0.9235 0.0
H607 H 0.0701 0.37332 0.80953 0.0
H608 H 1.01981 0.28268 0.20354 0.0
H609 H 1.00668 0.24552 0.09058 0.0
H610 H 1.01656 0.33122 0.24161 0.0
H611 H 0.03799 0.37971 0.23307 0.0
C612 C 0.88408 0.62329 0.97069 0.0
C613 C 0.87966 0.61048 0.86048 0.0
C614 C 0.82867 0.5596 0.8661 0.0
C615 C 0.8329 0.57953 0.97026 0.0
N616 N 0.86464 0.63732 0.11023 0.0
N617 N 0.84398 0.56444 0.69807 0.0
C618 C 0.86016 0.61387 1.01769 0.0
C619 C 0.85086 0.57775 0.80567 0.0
N620 N 0.91173 0.64262 1.03385 0.0
N621 N 0.80393 0.52333 0.82611 0.0
H622 H 0.85915 0.57613 0.65067 0.0
H623 H 0.82228 0.54333 0.65514 0.0
H624 H 0.78739 0.50984 0.86816 0.0
H625 H 0.80113 0.50565 0.75572 0.0
H626 H 0.91572 0.65616 0.11121 0.0
H627 H 0.92869 0.64067 1.00891 0.0
H628 H 0.84803 0.63256 0.15115 0.0
H629 H 0.84803 0.63256 0.15115 0.0
C630 C 0.96526 0.59121 0.8992 0.0
C631 C 0.98604 0.62991 0.89319 0.0
C632 C 1.02525 0.63257 1.02025 0.0
C633 C 1.0059 0.59259 1.01266 0.0
N634 N 0.95666 0.53391 0.95952 0.0
N635 N 0.03735 0.68569 0.93598 0.0
C636 C 0.97563 0.57174 0.95577 0.0
C637 C 1.01632 0.65063 0.95185 0.0
N638 N 0.93532 0.57378 0.85443 0.0
N639 N 0.05212 0.65328 0.09354 0.0
H640 H 1.03293 0.70157 0.88916 0.0
H641 H 0.06026 0.69819 0.9637 0.0
H642 H 0.05937 0.64063 0.14517 0.0
H643 H 0.06558 0.68337 0.11067 0.0
H644 H 0.91911 0.54465 0.84351 0.0
H645 H 0.92587 0.58943 0.83485 0.0
H646 H 0.93355 0.51821 0.93232 0.0
H647 H 0.96357 0.51723 0.99229 0.0
C648 C 0.56688 0.36876 0.96115 0.0
C649 C 0.59682 0.37762 1.00936 0.0
C650 C 0.57235 0.30451 0.94688 0.0
C651 C 0.54188 0.29519 0.91069 0.0
N652 N 0.51264 0.32359 0.8923 0.0
N653 N 0.62188 0.34603 1.06793 0.0
C654 C 0.54021 0.32893 0.92162 0.0
C655 C 0.59747 0.3431 1.00774 0.0
N656 N 0.56294 0.39822 0.9475 0.0
N657 N 0.57863 0.27704 0.91976 0.0
H658 H 0.64023 0.37196 0.11417 0.0
H659 H 0.6223 0.32196 0.08193 0.0
H660 H 0.56291 0.24917 0.87662 0.0
H661 H 0.60036 0.28298 0.93214 0.0
H662 H 0.54508 0.39441 0.89199 0.0
H663 H 0.57722 0.42685 0.98586 0.0
H664 H 0.5083 0.34503 0.91175 0.0
H665 H 0.49351 0.29714 0.85297 0.0
C666 C 0.89655 0.21838 0.99645 0.0
C667 C 0.88812 0.18202 0.9299 0.0
C668 C 0.83682 0.15582 0.9647 0.0
C669 C 0.84436 0.19246 1.02366 0.0
N670 N 0.8849 0.25699 0.11378 0.0
N671 N 0.8469 0.1192 0.83443 0.0
C672 C 0.87524 0.2232 1.04428 0.0
C673 C 0.85742 0.15165 0.91091 0.0
N674 N 0.92527 0.24926 1.0134 0.0
N675 N 0.8103 0.12365 0.96619 0.0
H676 H 0.86063 0.11483 0.79301 0.0
H677 H 0.82415 0.09857 0.80467 0.0
H678 H 0.79556 0.12461 1.00927 0.0
H679 H 0.8047 0.09572 0.93616 0.0
H680 H 0.93232 0.27776 1.04402 0.0
H681 H 0.94262 0.24653 0.99774 0.0
H682 H 0.90731 0.27748 0.15016 0.0
H683 H 0.87043 0.2638 0.14077 0.0
C684 C 0.71607 0.06162 0.34437 0.0
C685 C 0.70588 0.06288 0.23715 0.0
C686 C 0.7236 0.02021 0.17422 0.0
C687 C 0.73116 0.01598 0.28037 0.0
N688 N 0.74298 0.04289 0.46784 0.0
N689 N 0.71233 0.05595 1.0583 0.0
C690 C 0.72963 0.03959 0.36575 0.0
C691 C 0.71319 0.04565 0.15458 0.0
N692 N 0.71326 0.08215 0.42694 0.0
N693 N 0.7255 0.99901 0.09033 0.0
H694 H 0.70542 0.07461 1.04175 0.0
H695 H 0.7217 0.04981 0.99984 0.0
H696 H 0.73288 0.98041 0.09969 0.0
H697 H 0.71786 0.99779 1.01064 0.0
H698 H 0.71667 0.07967 0.50592 0.0
H699 H 0.70688 0.10156 0.41573 0.0
H700 H 0.74586 0.06217 0.53441 0.0
H701 H 0.7539 0.02864 0.48525 0.0
C702 C 0.16443 0.6904 0.19812 0.0
C703 C 0.18859 0.71441 0.29045 0.0
C704 C 0.18189 0.65217 0.33265 0.0
C705 C 0.15936 0.62809 0.23553 0.0
N706 N 0.13253 0.62839 0.06881 0.0
N707 N 0.21651 0.71607 0.454 0.0
C708 C 0.15133 0.64851 0.16758 0.0
C709 C 0.19639 0.69442 0.3586 0.0
N710 N 0.15378 0.70782 0.13844 0.0
N711 N 0.18932 0.63457 0.40271 0.0
H712 H 0.22643 0.74587 0.47668 0.0
H713 H 0.22222 0.70504 0.51458 0.0
H714 H 0.17662 0.60499 0.39791 0.0
H715 H 0.20801 0.64882 0.46627 0.0
H716 H 0.1341 0.693 0.07871 0.0
H717 H 0.16347 0.73764 0.15468 0.0
H718 H 0.1262 0.64046 1.01275 0.0
H719 H 0.1256 0.60011 1.03618 0.0
C720 C 0.4657 0.34971 0.16391 0.0
C721 C 0.48926 0.38471 0.23374 0.0
C722 C 0.4621 0.36784 0.37517 0.0
C723 C 0.43643 0.33772 0.2987 0.0
N724 N 0.42584 0.28523 0.1603 0.0
N725 N 0.50971 0.42811 0.4078 0.0
C726 C 0.44121 0.3239 0.2031 0.0
C727 C 0.48748 0.39405 0.34028 0.0
N728 N 0.46604 0.34136 1.05948 0.0
N729 N 0.46396 0.36735 0.4809 0.0
H730 H 0.52886 0.44822 0.38558 0.0
H731 H 0.50771 0.43763 0.48252 0.0
H732 H 0.44717 0.34442 0.50604 0.0
H733 H 0.48345 0.38623 0.54007 0.0
H734 H 0.44775 0.3174 1.00462 0.0
H735 H 0.48313 0.36043 1.02669 0.0
H736 H 0.43101 0.27341 0.0975 0.0
H737 H 0.41117 0.2651 0.19858 0.0
C738 C 0.93007 0.77448 0.65966 0.0
C739 C 0.92259 0.73661 0.65457 0.0
C740 C 0.88922 0.71552 0.47898 0.0
C741 C 0.90241 0.75493 0.47548 0.0
N742 N 0.93769 0.82313 0.56315 0.0
N743 N 0.88838 0.66849 0.57381 0.0
C744 C 0.92398 0.78483 0.56513 0.0
C745 C 0.90029 0.70611 0.56815 0.0
N746 N 0.94063 0.79962 0.75658 0.0
N747 N 0.86452 0.68765 0.40159 0.0
H748 H 0.88772 0.66042 0.64676 0.0
H749 H 0.87655 0.64542 0.50755 0.0
H750 H 0.85694 0.69346 0.33168 0.0
H751 H 0.85118 0.65899 0.40706 0.0
H752 H 0.94377 0.82691 0.76562 0.0
H753 H 0.94189 0.79091 0.82868 0.0
H754 H 0.95559 0.84473 0.62431 0.0
H755 H 0.93347 0.83376 0.49881 0.0
C756 C 0.34484 0.0506 0.54902 0.0
C757 C 0.37435 0.05851 0.59557 0.0
C758 C 0.34662 0.98461 0.55596 0.0
C759 C 0.3194 0.97791 0.48967 0.0
N760 N 0.29783 0.01078 0.41306 0.0
N761 N 0.40006 0.02734 0.64679 0.0
C762 C 0.32031 0.01281 0.48337 0.0
C763 C 0.37419 0.02363 0.59764 0.0
N764 N 0.33845 0.07802 0.57389 0.0
N765 N 0.34556 0.95374 0.58846 0.0
H766 H 0.41901 0.05388 0.68756 0.0
H767 H 0.40328 1.00453 0.64325 0.0
H768 H 0.32575 0.92691 0.57545 0.0
H769 H 0.36305 0.95552 0.64064 0.0
H770 H 0.31698 0.07271 0.55141 0.0
H771 H 0.35331 0.10455 0.62589 0.0
H772 H 0.29878 0.03538 0.39597 0.0
H773 H 0.27994 0.98481 0.36441 0.0
C774 C 0.04647 0.19765 0.54674 0.0
C775 C 1.02498 0.16827 0.59194 0.0
C776 C 0.04686 0.12871 0.53487 0.0
C777 C 0.06889 0.15908 0.49556 0.0
N778 N 0.08061 0.21518 0.42681 0.0
N779 N 1.0051 0.10267 0.61892 0.0
C780 C 0.06595 0.19135 0.49108 0.0
C781 C 1.02524 0.13293 0.58177 0.0
N782 N 0.05013 0.23311 0.56232 0.0
N783 N 0.04508 0.09423 0.52089 0.0
H784 H 0.98396 0.09674 0.62054 0.0
H785 H 1.0088 0.08205 0.6432 0.0
H786 H 0.0608 0.09034 0.49255 0.0
H787 H 1.02695 0.06848 0.52926 0.0
H788 H 0.06776 0.25697 0.54393 0.0
H789 H 0.0377 0.24014 0.60348 0.0
H790 H 0.07731 0.23677 0.40899 0.0
H791 H 0.09346 0.21035 0.38138 0.0
C792 C 0.35382 0.16231 0.51402 0.0
C793 C 0.37654 0.19006 0.60962 0.0
C794 C 0.34617 0.2225 0.5897 0.0
C795 C 0.32134 0.19197 0.50423 0.0
N796 N 0.30376 0.13075 0.39176 0.0
N797 N 0.39237 0.2491 0.72945 0.0
C798 C 0.32608 0.16147 0.46933 0.0
C799 C 0.37174 0.22054 0.6437 0.0
N800 N 0.3591 0.13694 0.46067 0.0
N801 N 0.34602 0.25509 0.61992 0.0
H802 H 0.41203 0.25107 0.76387 0.0
H803 H 0.38963 0.26994 0.76942 0.0
H804 H 0.32702 0.25627 0.60094 0.0
H805 H 0.3651 0.28156 0.66006 0.0
H806 H 0.34708 0.12012 0.38401 0.0
H807 H 0.37647 0.1338 0.49221 0.0
H808 H 0.30307 0.10524 0.36946 0.0
H809 H 0.28462 0.12981 0.35589 0.0
C810 C 0.88934 0.01181 0.42072 0.0
C811 C 0.86587 0.98519 0.46161 0.0
C812 C 0.87837 0.03745 0.61243 0.0
C813 C 0.90141 0.06465 0.56887 0.0
N814 N 0.93598 0.0724 0.45875 0.0
N815 N 0.83431 0.97313 0.58569 0.0
C816 C 0.90865 0.05042 0.47982 0.0
C817 C 0.85938 0.99817 0.55457 0.0
N818 N 0.89283 1.00073 0.32309 0.0
N819 N 0.87693 0.04766 0.71463 0.0
H820 H 0.81957 0.94461 0.54364 0.0
H821 H 0.8266 0.98161 0.64617 0.0
H822 H 0.89085 0.07553 0.76169 0.0
H823 H 0.86423 0.02758 0.75713 0.0
H824 H 0.9074 0.02047 0.28374 0.0
H825 H 0.87916 0.97251 0.27745 0.0
H826 H 0.945 0.06087 0.41156 0.0
H827 H 0.95004 0.1019 0.48996 0.0
C828 C 0.0466 0.73268 0.62396 0.0
C829 C 1.0362 0.75679 0.65664 0.0
C830 C 0.06878 0.80467 0.56515 0.0
C831 C 0.07794 0.77969 0.52631 0.0
N832 N 0.06814 0.71503 0.49377 0.0
N833 N 1.03076 0.80987 0.63221 0.0
C834 C 0.06506 0.7424 0.54974 0.0
C835 C 0.04515 0.79088 0.61877 0.0
N836 N 0.0382 0.6998 0.66091 0.0
N837 N 0.08361 0.84236 0.55662 0.0
H838 H 1.01423 0.80182 0.67546 0.0
H839 H 1.03331 0.83138 0.59191 0.0
H840 H 0.10292 0.85531 0.52779 0.0
H841 H 0.07885 0.86214 0.58996 0.0
H842 H 0.04777 0.68359 0.64966 0.0
H843 H 1.02279 0.68978 0.70793 0.0
H844 H 0.05619 0.68604 0.4978 0.0
H845 H 0.07954 0.72003 0.43263 0.0
loop_
_geom_bond_atom_site_label_1
_geom_bond_atom_site_label_2
_geom_bond_distance
_geom_bond_site_symmetry_2
_ccdc_geom_bond_type
Ho0 C3 2.811 . S
Ho0 O20 2.322 . S
Ho0 O22 2.378 . S
Ho0 O23 2.524 . S
Ho0 O24 2.381 1_554 S
Ho0 O25 2.669 1_554 S
Ho0 O27 2.346 . S
Ho0 O31 2.305 . S
Ho1 C12 2.811 1_455 S
Ho1 O21 2.354 1_455 S
Ho1 O25 2.305 1_554 S
Ho1 O26 2.322 . S
Ho1 O28 2.378 1_455 S
Ho1 O29 2.524 1_554 S
Ho1 O30 2.381 . S
Ho1 O31 2.669 . S
C2 O20 1.259 . S
C2 O21 1.247 1_455 S
C3 Ho0 2.811 . S
C3 C4 1.488 . S
C3 O22 1.215 . S
C3 O23 1.289 . S
C4 C3 1.488 . S
C4 C5 1.348 . S
C4 C9 1.413 . S
C5 C4 1.348 . S
C5 C6 1.442 . S
C5 H32 0.930 . S
C6 C5 1.442 . S
C6 C7 1.381 . S
C6 H33 0.931 . S
C7 C6 1.381 . S
C7 C8 1.321 . S
C8 C7 1.321 . S
C8 C9 1.403 . S
C8 H34 0.934 . S
C9 C4 1.413 . S
C9 C8 1.403 . S
C9 H35 0.930 . S
C10 O24 1.275 . S
C10 O25 1.256 . S
C11 O26 1.259 . S
C11 O27 1.268 . S
C12 Ho1 2.811 1_655 S
C12 C13 1.488 . S
C12 O28 1.215 . S
C12 O29 1.289 1_654 S
C13 C12 1.488 . S
C13 C14 1.349 1_554 S
C13 C18 1.412 . S
C14 C13 1.349 1_556 S
C14 C15 1.442 . S
C14 H36 0.930 1_655 S
C15 C14 1.442 . S
C15 C16 1.381 . S
C15 H37 0.931 . S
C16 C15 1.381 . S
C16 C17 1.321 1_556 S
C17 C16 1.321 1_554 S
C17 C18 1.403 . S
C17 H38 0.934 . S
C18 C13 1.412 . S
C18 C17 1.403 . S
C18 H39 0.930 . S
C19 O30 1.275 . S
C19 O31 1.256 . S
O20 Ho0 2.322 . S
O20 C2 1.259 . S
O21 Ho1 2.354 1_655 S
O21 C2 1.247 1_655 S
O22 Ho0 2.378 . S
O22 C3 1.215 . S
O23 Ho0 2.524 . S
O23 C3 1.289 . S
O24 Ho0 2.381 1_556 S
O24 C10 1.275 . S
O25 Ho0 2.669 1_556 S
O25 Ho1 2.305 1_556 S
O25 C10 1.256 . S
O26 Ho1 2.322 . S
O26 C11 1.259 . S
O27 Ho0 2.346 . S
O27 C11 1.268 . S
O28 Ho1 2.378 1_655 S
O28 C12 1.215 . S
O29 Ho1 2.524 1_556 S
O29 C12 1.289 1_456 S
O30 Ho1 2.381 . S
O30 C19 1.275 . S
O31 Ho0 2.305 . S
O31 Ho1 2.669 . S
O31 C19 1.256 . S
H32 C5 0.930 . S
H33 C6 0.931 . S
H34 C8 0.934 . S
H35 C9 0.930 . S
H36 C14 0.930 1_455 S
H37 C15 0.931 . S
H38 C17 0.934 . S
H39 C18 0.930 . S
Ho40 C43 2.811 . S
Ho40 O60 2.322 . S
Ho40 O62 2.378 . S
Ho40 O63 2.524 . S
Ho40 O64 2.381 . S
Ho40 O65 2.669 . S
Ho40 O67 2.346 . S
Ho40 O71 2.305 . S
Ho41 C52 2.811 . S
Ho41 O61 2.346 . S
Ho41 O65 2.305 . S
Ho41 O66 2.322 . S
Ho41 O68 2.378 . S
Ho41 O69 2.524 . S
Ho41 O70 2.381 1_554 S
Ho41 O71 2.669 . S
C42 O60 1.259 . S
C42 O61 1.268 . S
C43 Ho40 2.811 . S
C43 C44 1.488 . S
C43 O62 1.215 . S
C43 O63 1.289 . S
C44 C43 1.488 . S
C44 C45 1.348 . S
C44 C49 1.413 . S
C45 C44 1.348 . S
C45 C46 1.442 . S
C45 H72 0.930 . S
C46 C45 1.442 . S
C46 C47 1.381 . S
C46 H73 0.931 . S
C47 C46 1.381 . S
C47 C48 1.321 . S
C48 C47 1.321 . S
C48 C49 1.403 . S
C48 H74 0.934 . S
C49 C44 1.413 . S
C49 C48 1.403 . S
C49 H75 0.930 . S
C50 O64 1.275 . S
C50 O65 1.256 . S
C51 O66 1.259 . S
C51 O67 1.268 . S
C52 Ho41 2.811 . S
C52 C53 1.488 . S
C52 O68 1.215 . S
C52 O69 1.289 . S
C53 C52 1.488 . S
C53 C54 1.348 . S
C53 C58 1.413 . S
C54 C53 1.348 . S
C54 C55 1.442 . S
C54 H76 0.930 . S
C55 C54 1.442 . S
C55 C56 1.381 . S
C55 H77 0.931 . S
C56 C55 1.381 . S
C56 C57 1.321 . S
C57 C56 1.321 . S
C57 C58 1.403 . S
C57 H78 0.934 . S
C58 C53 1.413 . S
C58 C57 1.403 . S
C58 H79 0.930 . S
C59 O70 1.275 . S
C59 O71 1.256 1_556 S
O60 Ho40 2.322 . S
O60 C42 1.259 . S
O61 Ho41 2.346 . S
O61 C42 1.268 . S
O62 Ho40 2.378 . S
O62 C43 1.215 . S
O63 Ho40 2.524 . S
O63 C43 1.289 . S
O64 Ho40 2.381 . S
O64 C50 1.275 . S
O65 Ho40 2.669 . S
O65 Ho41 2.305 . S
O65 C50 1.256 . S
O66 Ho41 2.322 . S
O66 C51 1.259 . S
O67 Ho40 2.346 . S
O67 C51 1.268 . S
O68 Ho41 2.378 . S
O68 C52 1.215 . S
O69 Ho41 2.524 . S
O69 C52 1.289 . S
O70 Ho41 2.381 1_556 S
O70 C59 1.275 . S
O71 Ho40 2.305 . S
O71 Ho41 2.669 . S
O71 C59 1.256 1_554 S
H72 C45 0.930 . S
H73 C46 0.931 . S
H74 C48 0.934 . S
H75 C49 0.930 . S
H76 C54 0.930 . S
H77 C55 0.931 . S
H78 C57 0.934 . S
H79 C58 0.930 . S
Ho80 C83 2.811 . S
Ho80 O100 2.322 . S
Ho80 O102 2.378 . S
Ho80 O103 2.524 . S
Ho80 O104 2.381 1_554 S
Ho80 O105 2.669 . S
Ho80 O107 2.346 . S
Ho80 O111 2.305 . S
Ho81 C92 2.811 . S
Ho81 O101 2.346 . S
Ho81 O105 2.305 . S
Ho81 O106 2.322 . S
Ho81 O108 2.378 . S
Ho81 O109 2.524 . S
Ho81 O110 2.381 . S
Ho81 O111 2.669 . S
C82 O100 1.259 . S
C82 O101 1.268 . S
C83 Ho80 2.811 . S
C83 C84 1.488 . S
C83 O102 1.215 . S
C83 O103 1.289 . S
C84 C83 1.488 . S
C84 C85 1.348 . S
C84 C89 1.413 . S
C85 C84 1.348 . S
C85 C86 1.442 . S
C85 H112 0.930 . S
C86 C85 1.442 . S
C86 C87 1.381 . S
C86 H113 0.931 . S
C87 C86 1.381 . S
C87 C88 1.321 . S
C88 C87 1.321 . S
C88 C89 1.403 . S
C88 H114 0.934 1_545 S
C89 C84 1.413 . S
C89 C88 1.403 . S
C89 H115 0.930 . S
C90 O104 1.275 . S
C90 O105 1.256 1_556 S
C91 O106 1.259 . S
C91 O107 1.268 . S
C92 Ho81 2.811 . S
C92 C93 1.488 . S
C92 O108 1.215 . S
C92 O109 1.289 . S
C93 C92 1.488 . S
C93 C94 1.348 . S
C93 C98 1.413 . S
C94 C93 1.348 . S
C94 C95 1.442 . S
C94 H116 0.930 . S
C95 C94 1.442 . S
C95 C96 1.381 . S
C95 H117 0.931 . S
C96 C95 1.381 . S
C96 C97 1.321 . S
C97 C96 1.321 . S
C97 C98 1.403 . S
C97 H118 0.934 . S
C98 C93 1.413 . S
C98 C97 1.403 . S
C98 H119 0.930 . S
C99 O110 1.275 . S
C99 O111 1.256 . S
O100 Ho80 2.322 . S
O100 C82 1.259 . S
O101 Ho81 2.346 . S
O101 C82 1.268 . S
O102 Ho80 2.378 . S
O102 C83 1.215 . S
O103 Ho80 2.524 . S
O103 C83 1.289 . S
O104 Ho80 2.381 1_556 S
O104 C90 1.275 . S
O105 Ho80 2.669 . S
O105 Ho81 2.305 . S
O105 C90 1.256 1_554 S
O106 Ho81 2.322 . S
O106 C91 1.259 . S
O107 Ho80 2.346 . S
O107 C91 1.268 . S
O108 Ho81 2.378 . S
O108 C92 1.215 . S
O109 Ho81 2.524 . S
O109 C92 1.289 . S
O110 Ho81 2.381 . S
O110 C99 1.275 . S
O111 Ho80 2.305 . S
O111 Ho81 2.669 . S
O111 C99 1.256 . S
H112 C85 0.930 . S
H113 C86 0.931 . S
H114 C88 0.934 1_565 S
H115 C89 0.930 . S
H116 C94 0.930 . S
H117 C95 0.931 . S
H118 C97 0.934 . S
H119 C98 0.930 . S
Ho120 C123 2.811 . S
Ho120 O140 2.322 . S
Ho120 O142 2.378 . S
Ho120 O143 2.524 . S
Ho120 O144 2.381 . S
Ho120 O145 2.669 . S
Ho120 O147 2.346 . S
Ho120 O151 2.305 . S
Ho121 C132 2.811 . S
Ho121 O141 2.346 . S
Ho121 O145 2.305 . S
Ho121 O146 2.322 . S
Ho121 O148 2.378 . S
Ho121 O149 2.524 . S
Ho121 O150 2.381 . S
Ho121 O151 2.669 . S
C122 O140 1.259 . S
C122 O141 1.268 . S
C123 Ho120 2.811 . S
C123 C124 1.488 . S
C123 O142 1.215 . S
C123 O143 1.289 . S
C124 C123 1.488 . S
C124 C125 1.348 . S
C124 C129 1.413 . S
C125 C124 1.348 . S
C125 C126 1.442 . S
C125 H152 0.930 . S
C126 C125 1.442 . S
C126 C127 1.381 . S
C126 H153 0.931 . S
C127 C126 1.381 . S
C127 C128 1.321 . S
C128 C127 1.321 . S
C128 C129 1.403 . S
C128 H154 0.934 . S
C129 C124 1.413 . S
C129 C128 1.403 . S
C129 H155 0.930 . S
C130 O144 1.275 . S
C130 O145 1.256 . S
C131 O146 1.259 . S
C131 O147 1.268 . S
C132 Ho121 2.811 . S
C132 C133 1.488 . S
C132 O148 1.215 . S
C132 O149 1.289 . S
C133 C132 1.488 . S
C133 C134 1.348 . S
C133 C138 1.413 . S
C134 C133 1.348 . S
C134 C135 1.442 1_565 S
C134 H156 0.930 . S
C135 C134 1.442 1_545 S
C135 C136 1.381 . S
C135 H157 0.931 . S
C136 C135 1.381 . S
C136 C137 1.321 1_545 S
C137 C136 1.321 1_565 S
C137 C138 1.403 . S
C137 H158 0.934 . S
C138 C133 1.413 . S
C138 C137 1.403 . S
C138 H159 0.930 . S
C139 O150 1.275 . S
C139 O151 1.256 . S
O140 Ho120 2.322 . S
O140 C122 1.259 . S
O141 Ho121 2.346 . S
O141 C122 1.268 . S
O142 Ho120 2.378 . S
O142 C123 1.215 . S
O143 Ho120 2.524 . S
O143 C123 1.289 . S
O144 Ho120 2.381 . S
O144 C130 1.275 . S
O145 Ho120 2.669 . S
O145 Ho121 2.305 . S
O145 C130 1.256 . S
O146 Ho121 2.322 . S
O146 C131 1.259 . S
O147 Ho120 2.346 . S
O147 C131 1.268 . S
O148 Ho121 2.378 . S
O148 C132 1.215 . S
O149 Ho121 2.524 . S
O149 C132 1.289 . S
O150 Ho121 2.381 . S
O150 C139 1.275 . S
O151 Ho120 2.305 . S
O151 Ho121 2.669 . S
O151 C139 1.256 . S
H152 C125 0.930 . S
H153 C126 0.931 . S
H154 C128 0.934 . S
H155 C129 0.930 . S
H156 C134 0.930 . S
H157 C135 0.931 . S
H158 C137 0.934 . S
H159 C138 0.930 . S
Ho160 C163 2.811 . S
Ho160 O180 2.322 . S
Ho160 O182 2.378 . S
Ho160 O183 2.524 . S
Ho160 O184 2.381 . S
Ho160 O185 2.669 . S
Ho160 O187 2.346 . S
Ho160 O191 2.305 . S
Ho161 C172 2.811 . S
Ho161 O181 2.346 . S
Ho161 O185 2.305 . S
Ho161 O186 2.322 . S
Ho161 O188 2.378 . S
Ho161 O189 2.524 . S
Ho161 O190 2.381 . S
Ho161 O191 2.669 . S
C162 O180 1.259 . S
C162 O181 1.268 . S
C163 Ho160 2.811 . S
C163 C164 1.488 . S
C163 O182 1.215 . S
C163 O183 1.289 . S
C164 C163 1.488 . S
C164 C165 1.348 . S
C164 C169 1.413 . S
C165 C164 1.348 . S
C165 C166 1.442 . S
C165 H192 0.930 . S
C166 C165 1.442 . S
C166 C167 1.381 . S
C166 H193 0.931 . S
C167 C166 1.381 . S
C167 C168 1.321 . S
C168 C167 1.321 . S
C168 C169 1.403 . S
C168 H194 0.934 . S
C169 C164 1.413 . S
C169 C168 1.403 . S
C169 H195 0.930 . S
C170 O184 1.275 . S
C170 O185 1.256 . S
C171 O186 1.259 . S
C171 O187 1.268 . S
C172 Ho161 2.811 . S
C172 C173 1.488 . S
C172 O188 1.215 . S
C172 O189 1.289 . S
C173 C172 1.488 . S
C173 C174 1.348 . S
C173 C178 1.413 . S
C174 C173 1.348 . S
C174 C175 1.442 . S
C174 H196 0.930 . S
C175 C174 1.442 . S
C175 C176 1.381 . S
C175 H197 0.931 . S
C176 C175 1.381 . S
C176 C177 1.321 . S
C177 C176 1.321 . S
C177 C178 1.403 . S
C177 H198 0.934 . S
C178 C173 1.413 . S
C178 C177 1.403 . S
C178 H199 0.930 . S
C179 O190 1.275 . S
C179 O191 1.256 . S
O180 Ho160 2.322 . S
O180 C162 1.259 . S
O181 Ho161 2.346 . S
O181 C162 1.268 . S
O182 Ho160 2.378 . S
O182 C163 1.215 . S
O183 Ho160 2.524 . S
O183 C163 1.289 . S
O184 Ho160 2.381 . S
O184 C170 1.275 . S
O185 Ho160 2.669 . S
O185 Ho161 2.305 . S
O185 C170 1.256 . S
O186 Ho161 2.322 . S
O186 C171 1.259 . S
O187 Ho160 2.346 . S
O187 C171 1.268 . S
O188 Ho161 2.378 . S
O188 C172 1.215 . S
O189 Ho161 2.524 . S
O189 C172 1.289 . S
O190 Ho161 2.381 . S
O190 C179 1.275 . S
O191 Ho160 2.305 . S
O191 Ho161 2.669 . S
O191 C179 1.256 . S
H192 C165 0.930 . S
H193 C166 0.931 . S
H194 C168 0.934 . S
H195 C169 0.930 . S
H196 C174 0.930 . S
H197 C175 0.931 . S
H198 C177 0.934 . S
H199 C178 0.930 . S
Ho200 C203 2.811 . S
Ho200 O220 2.322 . S
Ho200 O222 2.378 . S
Ho200 O223 2.524 . S
Ho200 O224 2.381 . S
Ho200 O225 2.669 . S
Ho200 O227 2.346 . S
Ho200 O231 2.305 . S
Ho201 C212 2.811 . S
Ho201 O221 2.346 . S
Ho201 O225 2.305 . S
Ho201 O226 2.322 . S
Ho201 O228 2.378 . S
Ho201 O229 2.524 . S
Ho201 O230 2.381 . S
Ho201 O231 2.669 . S
C202 O220 1.259 . S
C202 O221 1.268 . S
C203 Ho200 2.811 . S
C203 C204 1.488 . S
C203 O222 1.215 . S
C203 O223 1.289 . S
C204 C203 1.488 . S
C204 C205 1.348 . S
C204 C209 1.413 . S
C205 C204 1.348 . S
C205 C206 1.442 . S
C205 H232 0.930 . S
C206 C205 1.442 . S
C206 C207 1.381 . S
C206 H233 0.931 . S
C207 C206 1.381 . S
C207 C208 1.321 . S
C208 C207 1.321 . S
C208 C209 1.403 . S
C208 H234 0.934 . S
C209 C204 1.413 . S
C209 C208 1.403 . S
C209 H235 0.930 . S
C210 O224 1.275 . S
C210 O225 1.256 . S
C211 O226 1.259 . S
C211 O227 1.268 . S
C212 Ho201 2.811 . S
C212 C213 1.488 . S
C212 O228 1.215 . S
C212 O229 1.289 . S
C213 C212 1.488 . S
C213 C214 1.348 . S
C213 C218 1.413 . S
C214 C213 1.348 . S
C214 C215 1.442 . S
C214 H236 0.930 . S
C215 C214 1.442 . S
C215 C216 1.381 . S
C215 H237 0.931 . S
C216 C215 1.381 . S
C216 C217 1.321 . S
C217 C216 1.321 . S
C217 C218 1.403 . S
C217 H238 0.934 . S
C218 C213 1.413 . S
C218 C217 1.403 . S
C218 H239 0.930 . S
C219 O230 1.275 . S
C219 O231 1.256 . S
O220 Ho200 2.322 . S
O220 C202 1.259 . S
O221 Ho201 2.346 . S
O221 C202 1.268 . S
O222 Ho200 2.378 . S
O222 C203 1.215 . S
O223 Ho200 2.524 . S
O223 C203 1.289 . S
O224 Ho200 2.381 . S
O224 C210 1.275 . S
O225 Ho200 2.669 . S
O225 Ho201 2.305 . S
O225 C210 1.256 . S
O226 Ho201 2.322 . S
O226 C211 1.259 . S
O227 Ho200 2.346 . S
O227 C211 1.268 . S
O228 Ho201 2.378 . S
O228 C212 1.215 . S
O229 Ho201 2.524 . S
O229 C212 1.289 . S
O230 Ho201 2.381 . S
O230 C219 1.275 . S
O231 Ho200 2.305 . S
O231 Ho201 2.669 . S
O231 C219 1.256 . S
H232 C205 0.930 . S
H233 C206 0.931 . S
H234 C208 0.934 . S
H235 C209 0.930 . S
H236 C214 0.930 . S
H237 C215 0.931 . S
H238 C217 0.934 . S
H239 C218 0.930 . S
Ho240 C243 2.811 . S
Ho240 O260 2.322 . S
Ho240 O262 2.378 . S
Ho240 O263 2.524 . S
Ho240 O264 2.381 . S
Ho240 O265 2.669 . S
Ho240 O267 2.346 . S
Ho240 O271 2.305 . S
Ho241 C252 2.811 . S
Ho241 O261 2.346 . S
Ho241 O265 2.305 . S
Ho241 O266 2.322 . S
Ho241 O268 2.378 . S
Ho241 O269 2.524 . S
Ho241 O270 2.381 . S
Ho241 O271 2.669 . S
C242 O260 1.259 . S
C242 O261 1.268 . S
C243 Ho240 2.811 . S
C243 C244 1.488 . S
C243 O262 1.215 . S
C243 O263 1.289 . S
C244 C243 1.488 . S
C244 C245 1.348 . S
C244 C249 1.413 . S
C245 C244 1.348 . S
C245 C246 1.442 . S
C245 H272 0.930 . S
C246 C245 1.442 . S
C246 C247 1.381 . S
C246 H273 0.931 . S
C247 C246 1.381 . S
C247 C248 1.321 . S
C248 C247 1.321 . S
C248 C249 1.403 . S
C248 H274 0.934 . S
C249 C244 1.413 . S
C249 C248 1.403 . S
C249 H275 0.930 . S
C250 O264 1.275 . S
C250 O265 1.256 . S
C251 O266 1.259 . S
C251 O267 1.268 . S
C252 Ho241 2.811 . S
C252 C253 1.488 1_556 S
C252 O268 1.215 . S
C252 O269 1.289 . S
C253 C252 1.488 1_554 S
C253 C254 1.348 . S
C253 C258 1.413 . S
C254 C253 1.348 . S
C254 C255 1.442 . S
C254 H276 0.930 . S
C255 C254 1.442 . S
C255 C256 1.381 . S
C255 H277 0.931 . S
C256 C255 1.381 . S
C256 C257 1.321 . S
C257 C256 1.321 . S
C257 C258 1.403 . S
C257 H278 0.934 . S
C258 C253 1.413 . S
C258 C257 1.403 . S
C258 H279 0.930 . S
C259 O270 1.275 . S
C259 O271 1.256 . S
O260 Ho240 2.322 . S
O260 C242 1.259 . S
O261 Ho241 2.346 . S
O261 C242 1.268 . S
O262 Ho240 2.378 . S
O262 C243 1.215 . S
O263 Ho240 2.524 . S
O263 C243 1.289 . S
O264 Ho240 2.381 . S
O264 C250 1.275 . S
O265 Ho240 2.669 . S
O265 Ho241 2.305 . S
O265 C250 1.256 . S
O266 Ho241 2.322 . S
O266 C251 1.259 . S
O267 Ho240 2.346 . S
O267 C251 1.268 . S
O268 Ho241 2.378 . S
O268 C252 1.215 . S
O269 Ho241 2.524 . S
O269 C252 1.289 . S
O270 Ho241 2.381 . S
O270 C259 1.275 . S
O271 Ho240 2.305 . S
O271 Ho241 2.669 . S
O271 C259 1.256 . S
H272 C245 0.930 . S
H273 C246 0.931 . S
H274 C248 0.934 . S
H275 C249 0.930 . S
H276 C254 0.930 . S
H277 C255 0.931 . S
H278 C257 0.934 . S
H279 C258 0.930 . S
Ho280 C283 2.811 . S
Ho280 O300 2.322 . S
Ho280 O302 2.378 . S
Ho280 O303 2.524 . S
Ho280 O304 2.381 . S
Ho280 O305 2.669 . S
Ho280 O307 2.346 . S
Ho280 O311 2.305 . S
Ho281 C292 2.811 . S
Ho281 O301 2.346 . S
Ho281 O305 2.305 . S
Ho281 O306 2.322 . S
Ho281 O308 2.378 . S
Ho281 O309 2.524 . S
Ho281 O310 2.381 . S
Ho281 O311 2.669 . S
C282 O300 1.259 . S
C282 O301 1.268 . S
C283 Ho280 2.811 . S
C283 C284 1.488 1_556 S
C283 O302 1.215 . S
C283 O303 1.289 . S
C284 C283 1.488 1_554 S
C284 C285 1.348 . S
C284 C289 1.413 . S
C285 C284 1.348 . S
C285 C286 1.442 . S
C285 H312 0.930 . S
C286 C285 1.442 . S
C286 C287 1.381 . S
C286 H313 0.931 . S
C287 C286 1.381 . S
C287 C288 1.321 . S
C288 C287 1.321 . S
C288 C289 1.403 . S
C288 H314 0.934 . S
C289 C284 1.413 . S
C289 C288 1.403 . S
C289 H315 0.930 . S
C290 O304 1.275 . S
C290 O305 1.256 . S
C291 O306 1.259 . S
C291 O307 1.268 . S
C292 Ho281 2.811 . S
C292 C293 1.488 . S
C292 O308 1.215 . S
C292 O309 1.289 . S
C293 C292 1.488 . S
C293 C294 1.348 . S
C293 C298 1.413 . S
C294 C293 1.348 . S
C294 C295 1.442 . S
C294 H316 0.930 . S
C295 C294 1.442 . S
C295 C296 1.381 . S
C295 H317 0.931 . S
C296 C295 1.381 . S
C296 C297 1.321 . S
C297 C296 1.321 . S
C297 C298 1.403 . S
C297 H318 0.934 . S
C298 C293 1.413 . S
C298 C297 1.403 . S
C298 H319 0.930 . S
C299 O310 1.275 . S
C299 O311 1.256 . S
O300 Ho280 2.322 . S
O300 C282 1.259 . S
O301 Ho281 2.346 . S
O301 C282 1.268 . S
O302 Ho280 2.378 . S
O302 C283 1.215 . S
O303 Ho280 2.524 . S
O303 C283 1.289 . S
O304 Ho280 2.381 . S
O304 C290 1.275 . S
O305 Ho280 2.669 . S
O305 Ho281 2.305 . S
O305 C290 1.256 . S
O306 Ho281 2.322 . S
O306 C291 1.259 . S
O307 Ho280 2.346 . S
O307 C291 1.268 . S
O308 Ho281 2.378 . S
O308 C292 1.215 . S
O309 Ho281 2.524 . S
O309 C292 1.289 . S
O310 Ho281 2.381 . S
O310 C299 1.275 . S
O311 Ho280 2.305 . S
O311 Ho281 2.669 . S
O311 C299 1.256 . S
H312 C285 0.930 . S
H313 C286 0.931 . S
H314 C288 0.934 . S
H315 C289 0.930 . S
H316 C294 0.930 . S
H317 C295 0.931 . S
H318 C297 0.934 . S
H319 C298 0.930 . S
Ho320 C323 2.811 . S
Ho320 O340 2.322 . S
Ho320 O342 2.378 . S
Ho320 O343 2.524 . S
Ho320 O344 2.381 . S
Ho320 O345 2.669 . S
Ho320 O347 2.346 . S
Ho320 O351 2.305 . S
Ho321 C332 2.810 . S
Ho321 O341 2.346 . S
Ho321 O345 2.305 . S
Ho321 O346 2.322 . S
Ho321 O348 2.378 . S
Ho321 O349 2.524 . S
Ho321 O350 2.381 . S
Ho321 O351 2.669 . S
C322 O340 1.259 . S
C322 O341 1.268 . S
C323 Ho320 2.811 . S
C323 C324 1.488 . S
C323 O342 1.215 . S
C323 O343 1.289 . S
C324 C323 1.488 . S
C324 C325 1.348 . S
C324 C329 1.413 . S
C325 C324 1.348 . S
C325 C326 1.442 . S
C325 H352 0.930 . S
C326 C325 1.442 . S
C326 C327 1.381 . S
C326 H353 0.931 . S
C327 C326 1.381 . S
C327 C328 1.321 . S
C328 C327 1.321 . S
C328 C329 1.403 . S
C328 H354 0.934 . S
C329 C324 1.413 . S
C329 C328 1.403 . S
C329 H355 0.930 . S
C330 O344 1.275 . S
C330 O345 1.256 . S
C331 O346 1.259 . S
C331 O347 1.268 . S
C332 Ho321 2.810 . S
C332 C333 1.489 1_556 S
C332 O348 1.215 . S
C332 O349 1.289 . S
C333 C332 1.489 1_554 S
C333 C334 1.348 . S
C333 C338 1.413 . S
C334 C333 1.348 . S
C334 C335 1.442 . S
C334 H356 0.930 . S
C335 C334 1.442 . S
C335 C336 1.381 . S
C335 H357 0.931 . S
C336 C335 1.381 . S
C336 C337 1.321 . S
C337 C336 1.321 . S
C337 C338 1.403 . S
C337 H358 0.934 . S
C338 C333 1.413 . S
C338 C337 1.403 . S
C338 H359 0.930 . S
C339 O350 1.275 . S
C339 O351 1.256 . S
O340 Ho320 2.322 . S
O340 C322 1.259 . S
O341 Ho321 2.346 . S
O341 C322 1.268 . S
O342 Ho320 2.378 . S
O342 C323 1.215 . S
O343 Ho320 2.524 . S
O343 C323 1.289 . S
O344 Ho320 2.381 . S
O344 C330 1.275 . S
O345 Ho320 2.669 . S
O345 Ho321 2.305 . S
O345 C330 1.256 . S
O346 Ho321 2.322 . S
O346 C331 1.259 . S
O347 Ho320 2.346 . S
O347 C331 1.268 . S
O348 Ho321 2.378 . S
O348 C332 1.215 . S
O349 Ho321 2.524 . S
O349 C332 1.289 . S
O350 Ho321 2.381 . S
O350 C339 1.275 . S
O351 Ho320 2.305 . S
O351 Ho321 2.669 . S
O351 C339 1.256 . S
H352 C325 0.930 . S
H353 C326 0.931 . S
H354 C328 0.934 . S
H355 C329 0.930 . S
H356 C334 0.930 . S
H357 C335 0.931 . S
H358 C337 0.934 . S
H359 C338 0.930 . S
C360 C361 1.363 . S
C360 C366 1.379 . S
C360 N368 1.356 . S
C361 C360 1.363 . S
C361 C367 1.363 . S
C362 C363 1.363 . S
C362 C367 1.379 . S
C362 N369 1.356 . S
C363 C362 1.363 . S
C363 C366 1.363 . S
N364 C366 1.356 . S
N364 H376 0.984 . S
N364 H377 0.985 . S
N365 C367 1.356 . S
N365 H370 0.984 . S
N365 H371 0.985 . S
C366 C360 1.379 . S
C366 C363 1.363 . S
C366 N364 1.356 . S
C367 C361 1.363 . S
C367 C362 1.379 . S
C367 N365 1.356 . S
N368 C360 1.356 . S
N368 H374 0.984 . S
N368 H375 0.984 . S
N369 C362 1.356 . S
N369 H372 0.984 . S
N369 H373 0.985 1_455 S
H370 N365 0.984 . S
H371 N365 0.985 . S
H372 N369 0.984 . S
H373 N369 0.985 1_655 S
H374 N368 0.984 . S
H375 N368 0.984 . S
H376 N364 0.984 . S
H377 N364 0.985 . S
C378 C379 1.363 . S
C378 C384 1.379 . S
C378 N386 1.356 . S
C379 C378 1.363 . S
C379 C385 1.363 . S
C380 C381 1.363 . S
C380 C385 1.379 . S
C380 N387 1.356 . S
C381 C380 1.363 . S
C381 C384 1.363 . S
N382 C384 1.356 . S
N382 H394 0.984 . S
N382 H395 0.985 . S
N383 C385 1.356 . S
N383 H388 0.984 . S
N383 H389 0.985 . S
C384 C378 1.379 . S
C384 C381 1.363 . S
C384 N382 1.356 . S
C385 C379 1.363 . S
C385 C380 1.379 . S
C385 N383 1.356 . S
N386 C378 1.356 . S
N386 H392 0.984 . S
N386 H393 0.984 . S
N387 C380 1.356 . S
N387 H390 0.984 . S
N387 H391 0.985 . S
H388 N383 0.984 . S
H389 N383 0.985 . S
H390 N387 0.984 . S
H391 N387 0.985 . S
H392 N386 0.984 . S
H393 N386 0.984 . S
H394 N382 0.984 . S
H395 N382 0.985 . S
C396 C397 1.363 . S
C396 C402 1.379 . S
C396 N404 1.356 . S
C397 C396 1.363 . S
C397 C403 1.363 . S
C398 C399 1.363 . S
C398 C403 1.379 . S
C398 N405 1.356 . S
C399 C398 1.363 . S
C399 C402 1.363 . S
N400 C402 1.356 . S
N400 H412 0.984 . S
N400 H413 0.985 . S
N401 C403 1.356 . S
N401 H406 0.984 . S
N401 H407 0.985 . S
C402 C396 1.379 . S
C402 C399 1.363 . S
C402 N400 1.356 . S
C403 C397 1.363 . S
C403 C398 1.379 . S
C403 N401 1.356 . S
N404 C396 1.356 . S
N404 H410 0.984 . S
N404 H411 0.984 . S
N405 C398 1.356 . S
N405 H408 0.984 . S
N405 H409 0.985 . S
H406 N401 0.984 . S
H407 N401 0.985 . S
H408 N405 0.984 . S
H409 N405 0.985 . S
H410 N404 0.984 . S
H411 N404 0.984 . S
H412 N400 0.984 . S
H413 N400 0.985 . S
C414 C415 1.363 . S
C414 C420 1.379 . S
C414 N422 1.356 . S
C415 C414 1.363 . S
C415 C421 1.363 . S
C416 C417 1.363 . S
C416 C421 1.379 . S
C416 N423 1.356 . S
C417 C416 1.363 . S
C417 C420 1.363 . S
N418 C420 1.356 . S
N418 H430 0.984 . S
N418 H431 0.985 . S
N419 C421 1.356 . S
N419 H424 0.984 . S
N419 H425 0.985 . S
C420 C414 1.379 . S
C420 C417 1.363 . S
C420 N418 1.356 . S
C421 C415 1.363 . S
C421 C416 1.379 . S
C421 N419 1.356 . S
N422 C414 1.356 . S
N422 H428 0.984 . S
N422 H429 0.984 . S
N423 C416 1.356 . S
N423 H426 0.984 1_556 S
N423 H427 0.985 . S
H424 N419 0.984 . S
H425 N419 0.985 . S
H426 N423 0.984 1_554 S
H427 N423 0.985 . S
H428 N422 0.984 . S
H429 N422 0.984 . S
H430 N418 0.984 . S
H431 N418 0.985 . S
C432 C433 1.363 . S
C432 C438 1.379 . S
C432 N440 1.356 . S
C433 C432 1.363 . S
C433 C439 1.363 . S
C434 C435 1.363 . S
C434 C439 1.379 . S
C434 N441 1.356 . S
C435 C434 1.363 . S
C435 C438 1.363 . S
N436 C438 1.356 . S
N436 H448 0.984 . S
N436 H449 0.985 . S
N437 C439 1.356 . S
N437 H442 0.984 . S
N437 H443 0.985 . S
C438 C432 1.379 . S
C438 C435 1.363 . S
C438 N436 1.356 . S
C439 C433 1.363 . S
C439 C434 1.379 . S
C439 N437 1.356 . S
N440 C432 1.356 . S
N440 H446 0.984 . S
N440 H447 0.984 . S
N441 C434 1.356 . S
N441 H444 0.984 . S
N441 H445 0.985 . S
H442 N437 0.984 . S
H443 N437 0.985 . S
H444 N441 0.984 . S
H445 N441 0.985 . S
H446 N440 0.984 . S
H447 N440 0.984 . S
H448 N436 0.984 . S
H449 N436 0.985 . S
C450 C451 1.363 . S
C450 C456 1.379 . S
C450 N458 1.356 . S
C451 C450 1.363 . S
C451 C457 1.363 . S
C452 C453 1.363 . S
C452 C457 1.379 . S
C452 N459 1.356 . S
C453 C452 1.363 . S
C453 C456 1.363 . S
N454 C456 1.356 . S
N454 H466 0.984 . S
N454 H467 0.985 . S
N455 C457 1.356 . S
N455 H460 0.984 . S
N455 H461 0.985 . S
C456 C450 1.379 . S
C456 C453 1.363 . S
C456 N454 1.356 . S
C457 C451 1.363 . S
C457 C452 1.379 . S
C457 N455 1.356 . S
N458 C450 1.356 . S
N458 H464 0.984 . S
N458 H465 0.984 . S
N459 C452 1.356 . S
N459 H462 0.984 . S
N459 H463 0.985 . S
H460 N455 0.984 . S
H461 N455 0.985 . S
H462 N459 0.984 . S
H463 N459 0.985 . S
H464 N458 0.984 . S
H465 N458 0.984 . S
H466 N454 0.984 . S
H467 N454 0.985 . S
C468 C469 1.363 . S
C468 C474 1.379 . S
C468 N476 1.356 . S
C469 C468 1.363 . S
C469 C475 1.363 . S
C470 C471 1.363 . S
C470 C475 1.379 . S
C470 N477 1.356 . S
C471 C470 1.363 . S
C471 C474 1.363 . S
N472 C474 1.356 . S
N472 H484 0.984 . S
N472 H485 0.985 . S
N473 C475 1.356 . S
N473 H478 0.984 . S
N473 H479 0.985 . S
C474 C468 1.379 . S
C474 C471 1.363 . S
C474 N472 1.356 . S
C475 C469 1.363 . S
C475 C470 1.379 . S
C475 N473 1.356 . S
N476 C468 1.356 . S
N476 H482 0.984 . S
N476 H483 0.984 1_554 S
N477 C470 1.356 . S
N477 H480 0.984 . S
N477 H481 0.985 . S
H478 N473 0.984 . S
H479 N473 0.985 . S
H480 N477 0.984 . S
H481 N477 0.985 . S
H482 N476 0.984 . S
H483 N476 0.984 1_556 S
H484 N472 0.984 . S
H485 N472 0.985 . S
C486 C487 1.363 . S
C486 C492 1.379 . S
C486 N494 1.356 . S
C487 C486 1.363 . S
C487 C493 1.363 . S
C488 C489 1.363 . S
C488 C493 1.379 . S
C488 N495 1.356 . S
C489 C488 1.363 . S
C489 C492 1.363 . S
N490 C492 1.356 . S
N490 H502 0.984 . S
N490 H503 0.985 . S
N491 C493 1.356 . S
N491 H496 0.984 . S
N491 H497 0.985 . S
C492 C486 1.379 . S
C492 C489 1.363 . S
C492 N490 1.356 . S
C493 C487 1.363 . S
C493 C488 1.379 . S
C493 N491 1.356 . S
N494 C486 1.356 . S
N494 H500 0.984 1_554 S
N494 H501 0.984 1_554 S
N495 C488 1.356 . S
N495 H498 0.984 . S
N495 H499 0.985 . S
H496 N491 0.984 . S
H497 N491 0.985 . S
H498 N495 0.984 . S
H499 N495 0.985 . S
H500 N494 0.984 1_556 S
H501 N494 0.984 1_556 S
H502 N490 0.984 . S
H503 N490 0.985 . S
C504 C505 1.363 . S
C504 C510 1.379 . S
C504 N512 1.356 . S
C505 C504 1.363 . S
C505 C511 1.363 . S
C506 C507 1.363 . S
C506 C511 1.379 . S
C506 N513 1.356 . S
C507 C506 1.363 . S
C507 C510 1.363 . S
N508 C510 1.356 . S
N508 H520 0.984 . S
N508 H521 0.985 . S
N509 C511 1.356 . S
N509 H514 0.984 . S
N509 H515 0.985 . S
C510 C504 1.379 . S
C510 C507 1.363 . S
C510 N508 1.356 . S
C511 C505 1.363 . S
C511 C506 1.379 . S
C511 N509 1.356 . S
N512 C504 1.356 . S
N512 H518 0.984 . S
N512 H519 0.984 1_554 S
N513 C506 1.356 . S
N513 H516 0.984 . S
N513 H517 0.985 . S
H514 N509 0.984 . S
H515 N509 0.985 . S
H516 N513 0.984 . S
H517 N513 0.985 . S
H518 N512 0.984 . S
H519 N512 0.984 1_556 S
H520 N508 0.984 . S
H521 N508 0.985 . S
C522 C523 1.363 . S
C522 C528 1.379 . S
C522 N530 1.356 . S
C523 C522 1.363 . S
C523 C529 1.363 . S
C524 C525 1.363 . S
C524 C529 1.379 . S
C524 N531 1.356 . S
C525 C524 1.363 . S
C525 C528 1.363 . S
N526 C528 1.356 . S
N526 H538 0.984 . S
N526 H539 0.985 . S
N527 C529 1.356 . S
N527 H532 0.984 . S
N527 H533 0.985 . S
C528 C522 1.379 . S
C528 C525 1.363 . S
C528 N526 1.356 . S
C529 C523 1.363 . S
C529 C524 1.379 . S
C529 N527 1.356 . S
N530 C522 1.356 . S
N530 H536 0.984 . S
N530 H537 0.984 . S
N531 C524 1.356 . S
N531 H534 0.984 . S
N531 H535 0.985 1_554 S
H532 N527 0.984 . S
H533 N527 0.985 . S
H534 N531 0.984 . S
H535 N531 0.985 1_556 S
H536 N530 0.984 . S
H537 N530 0.984 . S
H538 N526 0.984 . S
H539 N526 0.985 . S
C540 C541 1.363 . S
C540 C546 1.379 . S
C540 N548 1.356 . S
C541 C540 1.363 . S
C541 C547 1.363 . S
C542 C543 1.363 . S
C542 C547 1.379 . S
C542 N549 1.356 . S
C543 C542 1.363 . S
C543 C546 1.363 . S
N544 C546 1.356 . S
N544 H556 0.984 . S
N544 H557 0.985 . S
N545 C547 1.356 . S
N545 H550 0.984 . S
N545 H551 0.985 . S
C546 C540 1.379 . S
C546 C543 1.363 . S
C546 N544 1.356 . S
C547 C541 1.363 . S
C547 C542 1.379 . S
C547 N545 1.356 . S
N548 C540 1.356 . S
N548 H554 0.984 . S
N548 H555 0.984 . S
N549 C542 1.356 . S
N549 H552 0.984 . S
N549 H553 0.985 . S
H550 N545 0.984 . S
H551 N545 0.985 . S
H552 N549 0.984 . S
H553 N549 0.985 . S
H554 N548 0.984 . S
H555 N548 0.984 . S
H556 N544 0.984 . S
H557 N544 0.985 . S
C558 C559 1.363 1_565 S
C558 C564 1.379 . S
C558 N566 1.356 . S
C559 C558 1.363 1_545 S
C559 C565 1.363 . S
C560 C561 1.363 1_545 S
C560 C565 1.379 . S
C560 N567 1.356 . S
C561 C560 1.363 1_565 S
C561 C564 1.363 . S
N562 C564 1.356 . S
N562 H574 0.984 . S
N562 H575 0.985 . S
N563 C565 1.356 . S
N563 H568 0.984 . S
N563 H569 0.985 . S
C564 C558 1.379 . S
C564 C561 1.363 . S
C564 N562 1.356 . S
C565 C559 1.363 . S
C565 C560 1.379 . S
C565 N563 1.356 . S
N566 C558 1.356 . S
N566 H572 0.984 . S
N566 H573 0.984 . S
N567 C560 1.356 . S
N567 H570 0.994 . S
N567 H571 0.985 . S
H568 N563 0.984 . S
H569 N563 0.985 . S
H570 N567 0.994 . S
H571 N567 0.985 . S
H572 N566 0.984 . S
H573 N566 0.984 . S
H574 N562 0.984 . S
H575 N562 0.985 . S
C576 C577 1.363 . S
C576 C582 1.379 1_554 S
C576 N584 1.356 . S
C577 C576 1.363 . S
C577 C583 1.363 1_554 S
C578 C579 1.363 . S
C578 C583 1.379 . S
C578 N585 1.356 . S
C579 C578 1.363 . S
C579 C582 1.363 . S
N580 C582 1.356 . S
N580 H592 0.984 1_556 S
N580 H593 0.985 . S
N581 C583 1.356 . S
N581 H586 0.984 1_556 S
N581 H587 0.985 . S
C582 C576 1.379 1_556 S
C582 C579 1.363 . S
C582 N580 1.356 . S
C583 C577 1.363 1_556 S
C583 C578 1.379 . S
C583 N581 1.356 . S
N584 C576 1.356 . S
N584 H590 0.984 . S
N584 H591 0.984 . S
N585 C578 1.356 . S
N585 H588 0.984 . S
N585 H589 0.985 . S
H586 N581 0.984 1_554 S
H587 N581 0.985 . S
H588 N585 0.984 . S
H589 N585 0.985 . S
H590 N584 0.984 . S
H591 N584 0.984 . S
H592 N580 0.984 1_554 S
H593 N580 0.985 . S
C594 C595 1.363 . S
C594 C600 1.379 . S
C594 N602 1.356 . S
C595 C594 1.363 . S
C595 C601 1.363 . S
C596 C597 1.361 . S
C596 C601 1.379 1_455 S
C596 N603 1.357 . S
C597 C596 1.361 . S
C597 C600 1.364 1_455 S
N598 C600 1.356 1_554 S
N598 H610 0.984 . S
N598 H611 0.985 1_655 S
N599 C601 1.356 . S
N599 H604 0.984 . S
N599 H605 0.985 . S
C600 C594 1.379 . S
C600 C597 1.364 1_655 S
C600 N598 1.356 1_556 S
C601 C595 1.363 . S
C601 C596 1.379 1_655 S
C601 N599 1.356 . S
N602 C594 1.356 . S
N602 H608 0.984 . S
N602 H609 0.984 . S
N603 C596 1.357 . S
N603 H606 0.984 . S
N603 H607 0.985 . S
H604 N599 0.984 . S
H605 N599 0.985 . S
H606 N603 0.984 . S
H607 N603 0.985 . S
H608 N602 0.984 . S
H609 N602 0.984 . S
H610 N598 0.984 . S
H611 N598 0.985 1_455 S
C612 C613 1.363 . S
C612 C618 1.379 1_556 S
C612 N620 1.356 . S
C613 C612 1.363 . S
C613 C619 1.363 . S
C614 C615 1.363 1_556 S
C614 C619 1.379 . S
C614 N621 1.356 1_556 S
C615 C614 1.363 1_554 S
C615 C618 1.363 . S
N616 C618 1.356 . S
N616 H628 0.984 . S
N616 H629 0.985 . S
N617 C619 1.356 . S
N617 H622 0.984 . S
N617 H623 0.985 . S
C618 C612 1.379 1_554 S
C618 C615 1.363 . S
C618 N616 1.356 . S
C619 C613 1.363 . S
C619 C614 1.379 . S
C619 N617 1.356 . S
N620 C612 1.356 . S
N620 H626 0.984 . S
N620 H627 0.984 . S
N621 C614 1.356 1_554 S
N621 H624 0.984 . S
N621 H625 0.985 1_554 S
H622 N617 0.984 . S
H623 N617 0.985 . S
H624 N621 0.984 . S
H625 N621 0.985 1_556 S
H626 N620 0.984 . S
H627 N620 0.984 . S
H628 N616 0.984 . S
H629 N616 0.985 . S
C630 C631 1.363 . S
C630 C636 1.379 . S
C630 N638 1.356 . S
C631 C630 1.363 . S
C631 C637 1.363 . S
C632 C633 1.363 . S
C632 C637 1.379 . S
C632 N639 1.356 1_655 S
C633 C632 1.363 . S
C633 C636 1.363 . S
N634 C636 1.356 . S
N634 H646 0.984 . S
N634 H647 0.985 1_556 S
N635 C637 1.356 . S
N635 H640 0.984 . S
N635 H641 0.980 1_655 S
C636 C630 1.379 . S
C636 C633 1.363 . S
C636 N634 1.356 . S
C637 C631 1.363 . S
C637 C632 1.379 . S
C637 N635 1.356 . S
N638 C630 1.356 . S
N638 H644 0.984 . S
N638 H645 0.984 . S
N639 C632 1.356 1_455 S
N639 H642 0.984 1_556 S
N639 H643 0.985 . S
H640 N635 0.984 . S
H641 N635 0.980 1_455 S
H642 N639 0.984 1_554 S
H643 N639 0.985 . S
H644 N638 0.984 . S
H645 N638 0.984 . S
H646 N634 0.984 . S
H647 N634 0.985 1_554 S
C648 C649 1.362 1_556 S
C648 C654 1.379 . S
C648 N656 1.356 . S
C649 C648 1.362 1_554 S
C649 C655 1.363 1_554 S
C650 C651 1.363 . S
C650 C655 1.379 . S
C650 N657 1.356 . S
C651 C650 1.363 . S
C651 C654 1.363 . S
N652 C654 1.356 . S
N652 H664 0.984 . S
N652 H665 0.985 . S
N653 C655 1.356 1_554 S
N653 H658 0.984 . S
N653 H659 0.985 . S
C654 C648 1.379 . S
C654 C651 1.363 . S
C654 N652 1.356 . S
C655 C649 1.363 1_556 S
C655 C650 1.379 . S
C655 N653 1.356 1_556 S
N656 C648 1.356 . S
N656 H662 0.984 . S
N656 H663 0.984 1_556 S
N657 C650 1.356 . S
N657 H660 0.984 . S
N657 H661 0.985 . S
H658 N653 0.984 . S
H659 N653 0.985 . S
H660 N657 0.984 . S
H661 N657 0.985 . S
H662 N656 0.984 . S
H663 N656 0.984 1_554 S
H664 N652 0.984 . S
H665 N652 0.985 . S
C666 C667 1.363 . S
C666 C672 1.379 1_556 S
C666 N674 1.356 . S
C667 C666 1.363 . S
C667 C673 1.363 . S
C668 C669 1.363 1_556 S
C668 C673 1.379 . S
C668 N675 1.356 1_556 S
C669 C668 1.363 1_554 S
C669 C672 1.363 . S
N670 C672 1.356 . S
N670 H682 0.984 . S
N670 H683 0.985 . S
N671 C673 1.356 . S
N671 H676 0.984 . S
N671 H677 0.985 . S
C672 C666 1.379 1_554 S
C672 C669 1.363 . S
C672 N670 1.356 . S
C673 C667 1.363 . S
C673 C668 1.379 . S
C673 N671 1.356 . S
N674 C666 1.356 . S
N674 H680 0.984 1_556 S
N674 H681 0.984 . S
N675 C668 1.356 1_554 S
N675 H678 0.984 . S
N675 H679 0.985 1_554 S
H676 N671 0.984 . S
H677 N671 0.985 . S
H678 N675 0.984 . S
H679 N675 0.985 1_556 S
H680 N674 0.984 1_554 S
H681 N674 0.984 . S
H682 N670 0.984 . S
H683 N670 0.985 . S
C684 C685 1.363 . S
C684 C690 1.379 . S
C684 N692 1.356 . S
C685 C684 1.363 . S
C685 C691 1.363 . S
C686 C687 1.363 . S
C686 C691 1.379 . S
C686 N693 1.356 . S
C687 C686 1.363 . S
C687 C690 1.363 . S
N688 C690 1.356 . S
N688 H700 0.984 . S
N688 H701 0.985 . S
N689 C691 1.356 . S
N689 H694 0.984 . S
N689 H695 0.985 1_554 S
C690 C684 1.379 . S
C690 C687 1.363 . S
C690 N688 1.356 . S
C691 C685 1.363 . S
C691 C686 1.379 . S
C691 N689 1.356 . S
N692 C684 1.356 . S
N692 H698 0.984 . S
N692 H699 0.984 . S
N693 C686 1.356 . S
N693 H696 0.984 . S
N693 H697 0.985 . S
H694 N689 0.984 . S
H695 N689 0.985 1_556 S
H696 N693 0.984 . S
H697 N693 0.985 . S
H698 N692 0.984 . S
H699 N692 0.984 . S
H700 N688 0.984 . S
H701 N688 0.985 . S
C702 C703 1.363 . S
C702 C708 1.379 . S
C702 N710 1.356 . S
C703 C702 1.363 . S
C703 C709 1.363 . S
C704 C705 1.363 . S
C704 C709 1.379 . S
C704 N711 1.356 . S
C705 C704 1.363 . S
C705 C708 1.363 . S
N706 C708 1.356 . S
N706 H718 0.984 1_554 S
N706 H719 0.985 . S
N707 C709 1.356 . S
N707 H712 0.984 . S
N707 H713 0.985 . S
C708 C702 1.379 . S
C708 C705 1.363 . S
C708 N706 1.356 . S
C709 C703 1.363 . S
C709 C704 1.379 . S
C709 N707 1.356 . S
N710 C702 1.356 . S
N710 H716 0.984 1_554 S
N710 H717 0.984 . S
N711 C704 1.356 . S
N711 H714 0.984 . S
N711 H715 0.985 . S
H712 N707 0.984 . S
H713 N707 0.985 . S
H714 N711 0.984 . S
H715 N711 0.985 . S
H716 N710 0.984 1_556 S
H717 N710 0.984 . S
H718 N706 0.984 1_556 S
H719 N706 0.985 . S
C720 C721 1.363 . S
C720 C726 1.379 . S
C720 N728 1.356 . S
C721 C720 1.363 . S
C721 C727 1.363 . S
C722 C723 1.363 . S
C722 C727 1.379 . S
C722 N729 1.356 . S
C723 C722 1.363 . S
C723 C726 1.363 . S
N724 C726 1.356 . S
N724 H736 0.984 . S
N724 H737 0.985 . S
N725 C727 1.356 . S
N725 H730 0.984 . S
N725 H731 0.985 . S
C726 C720 1.379 . S
C726 C723 1.363 . S
C726 N724 1.356 . S
C727 C721 1.363 . S
C727 C722 1.379 . S
C727 N725 1.356 . S
N728 C720 1.356 . S
N728 H734 0.984 1_554 S
N728 H735 0.984 1_554 S
N729 C722 1.356 . S
N729 H732 0.984 . S
N729 H733 0.985 . S
H730 N725 0.984 . S
H731 N725 0.985 . S
H732 N729 0.984 . S
H733 N729 0.985 . S
H734 N728 0.984 1_556 S
H735 N728 0.984 1_556 S
H736 N724 0.984 . S
H737 N724 0.985 . S
C738 C739 1.363 . S
C738 C744 1.379 . S
C738 N746 1.356 . S
C739 C738 1.363 . S
C739 C745 1.363 . S
C740 C741 1.363 . S
C740 C745 1.379 . S
C740 N747 1.356 . S
C741 C740 1.363 . S
C741 C744 1.363 . S
N742 C744 1.356 . S
N742 H754 0.984 . S
N742 H755 0.985 . S
N743 C745 1.356 . S
N743 H748 0.984 . S
N743 H749 0.985 . S
C744 C738 1.379 . S
C744 C741 1.363 . S
C744 N742 1.356 . S
C745 C739 1.363 . S
C745 C740 1.379 . S
C745 N743 1.356 . S
N746 C738 1.356 . S
N746 H752 0.984 . S
N746 H753 0.984 . S
N747 C740 1.356 . S
N747 H750 0.984 . S
N747 H751 0.985 . S
H748 N743 0.984 . S
H749 N743 0.985 . S
H750 N747 0.984 . S
H751 N747 0.985 . S
H752 N746 0.984 . S
H753 N746 0.984 . S
H754 N742 0.984 . S
H755 N742 0.985 . S
C756 C757 1.363 . S
C756 C762 1.379 . S
C756 N764 1.356 . S
C757 C756 1.363 . S
C757 C763 1.363 . S
C758 C759 1.363 . S
C758 C763 1.379 1_565 S
C758 N765 1.356 . S
C759 C758 1.363 . S
C759 C762 1.363 1_565 S
N760 C762 1.356 . S
N760 H772 0.984 . S
N760 H773 0.985 1_545 S
N761 C763 1.356 . S
N761 H766 0.984 . S
N761 H767 0.985 1_545 S
C762 C756 1.379 . S
C762 C759 1.363 1_545 S
C762 N760 1.356 . S
C763 C757 1.363 . S
C763 C758 1.379 1_545 S
C763 N761 1.356 . S
N764 C756 1.356 . S
N764 H770 0.984 . S
N764 H771 0.984 . S
N765 C758 1.356 . S
N765 H768 0.984 . S
N765 H769 0.985 . S
H766 N761 0.984 . S
H767 N761 0.985 1_565 S
H768 N765 0.984 . S
H769 N765 0.985 . S
H770 N764 0.984 . S
H771 N764 0.984 . S
H772 N760 0.984 . S
H773 N760 0.985 1_565 S
C774 C775 1.363 . S
C774 C780 1.379 . S
C774 N782 1.356 . S
C775 C774 1.363 . S
C775 C781 1.363 . S
C776 C777 1.363 . S
C776 C781 1.379 . S
C776 N783 1.356 . S
C777 C776 1.363 . S
C777 C780 1.363 . S
N778 C780 1.356 1_455 S
N778 H790 0.984 . S
N778 H791 0.985 . S
N779 C781 1.356 . S
N779 H784 0.984 . S
N779 H785 0.985 . S
C780 C774 1.379 . S
C780 C777 1.363 . S
C780 N778 1.356 1_655 S
C781 C775 1.363 . S
C781 C776 1.379 . S
C781 N779 1.356 . S
N782 C774 1.356 . S
N782 H788 0.984 . S
N782 H789 0.984 . S
N783 C776 1.356 . S
N783 H786 0.984 . S
N783 H787 0.985 . S
H784 N779 0.984 . S
H785 N779 0.985 . S
H786 N783 0.984 . S
H787 N783 0.985 . S
H788 N782 0.984 . S
H789 N782 0.984 . S
H790 N778 0.984 . S
H791 N778 0.985 . S
C792 C793 1.363 . S
C792 C798 1.379 . S
C792 N800 1.356 . S
C793 C792 1.363 . S
C793 C799 1.363 . S
C794 C795 1.363 . S
C794 C799 1.379 . S
C794 N801 1.356 . S
C795 C794 1.363 . S
C795 C798 1.363 . S
N796 C798 1.356 . S
N796 H808 0.984 . S
N796 H809 0.985 . S
N797 C799 1.356 . S
N797 H802 0.984 . S
N797 H803 0.985 . S
C798 C792 1.379 . S
C798 C795 1.363 . S
C798 N796 1.356 . S
C799 C793 1.363 . S
C799 C794 1.379 . S
C799 N797 1.356 . S
N800 C792 1.356 . S
N800 H806 0.984 . S
N800 H807 0.984 . S
N801 C794 1.356 . S
N801 H804 0.984 . S
N801 H805 0.985 . S
H802 N797 0.984 . S
H803 N797 0.985 . S
H804 N801 0.984 . S
H805 N801 0.985 . S
H806 N800 0.984 . S
H807 N800 0.984 . S
H808 N796 0.984 . S
H809 N796 0.985 . S
C810 C811 1.363 1_545 S
C810 C816 1.379 . S
C810 N818 1.356 . S
C811 C810 1.363 1_565 S
C811 C817 1.363 . S
C812 C813 1.363 . S
C812 C817 1.379 1_545 S
C812 N819 1.356 . S
C813 C812 1.363 . S
C813 C816 1.363 . S
N814 C816 1.356 . S
N814 H826 0.984 . S
N814 H827 0.985 . S
N815 C817 1.356 . S
N815 H820 0.984 . S
N815 H821 0.985 . S
C816 C810 1.379 . S
C816 C813 1.363 . S
C816 N814 1.356 . S
C817 C811 1.363 . S
C817 C812 1.379 1_565 S
C817 N815 1.356 . S
N818 C810 1.356 . S
N818 H824 0.984 . S
N818 H825 0.984 1_545 S
N819 C812 1.356 . S
N819 H822 0.984 . S
N819 H823 0.985 . S
H820 N815 0.984 . S
H821 N815 0.985 . S
H822 N819 0.984 . S
H823 N819 0.985 . S
H824 N818 0.984 . S
H825 N818 0.984 1_565 S
H826 N814 0.984 . S
H827 N814 0.985 . S
C828 C829 1.363 . S
C828 C834 1.379 . S
C828 N836 1.356 . S
C829 C828 1.363 . S
C829 C835 1.363 . S
C830 C831 1.363 . S
C830 C835 1.379 . S
C830 N837 1.356 . S
C831 C830 1.363 . S
C831 C834 1.363 . S
N832 C834 1.356 1_455 S
N832 H844 0.984 . S
N832 H845 0.985 . S
N833 C835 1.356 . S
N833 H838 0.984 . S
N833 H839 0.985 . S
C834 C828 1.379 . S
C834 C831 1.363 . S
C834 N832 1.356 1_655 S
C835 C829 1.363 . S
C835 C830 1.379 . S
C835 N833 1.356 . S
N836 C828 1.356 . S
N836 H842 0.984 . S
N836 H843 0.984 . S
N837 C830 1.356 . S
N837 H840 0.984 . S
N837 H841 0.985 . S
H838 N833 0.984 . S
H839 N833 0.985 . S
H840 N837 0.984 . S
H841 N837 0.985 . S
H842 N836 0.984 . S
H843 N836 0.984 . S
H844 N832 0.984 . S
H845 N832 0.985 . S
C361 C10 3.616 . S
C363 C19 3.616 . S
C379 C59 3.712 . S
C381 C50 3.712 . S
C397 C90 3.755 . S
C399 C99 3.755 . S
C415 C139 3.616 . S
C417 C130 3.616 1_556 S
C433 C170 3.712 . S
C435 C179 3.712 1_556 S
C451 C219 3.755 . S
C453 C210 3.755 1_556 S
C469 C247 0.326 . S
C471 C256 0.326 . S
C487 C296 0.286 . S
C489 C287 0.286 . S
C505 C327 0.710 . S
C507 C336 0.710 . S
C523 C202 1.601 . S
C525 C7 1.628 . S
C541 C42 2.681 . S
C543 C122 2.722 . S
C559 C87 1.224 . S
C561 C167 1.239 . S
C577 C82 3.119 . S
C579 C251 3.309 . S
C595 C299 1.379 . S
C597 C2 1.264 1_556 S
C613 C331 2.262 . S
C615 C47 2.053 . S
C631 C330 1.166 . S
C633 C16 1.061 . S
C649 C51 2.394 . S
C651 C250 2.486 . S
C667 C282 3.213 . S
C669 C96 2.945 . S
C685 C91 1.601 . S
C687 C136 1.628 . S
C703 C171 2.681 . S
C705 C11 2.721 . S
C721 C56 1.239 . S
C723 C216 1.224 . S
C739 C339 1.167 . S
C741 C127 1.062 . S
C757 C259 2.486 . S
C759 C162 2.393 . S
C775 C291 3.213 . S
C777 C207 2.945 1_655 S
C793 C242 3.308 . S
C795 C211 3.119 . S
C811 C131 1.264 . S
C813 C290 1.379 . S
C829 C322 2.262 . S
C831 C176 2.053 1_655 S
