# Generated by pormake.
# Topology sxc, (6)-cn, num edge types: 1
# Building blocks:
#     Node 0, Type 0, BuildingBlock: PAMTUU_clean_sbu_0, # of connection points: 6
#     Node 1, Type 0, BuildingBlock: PAMTUU_clean_sbu_0, # of connection points: 6
#     Node 2, Type 0, BuildingBlock: PAMTUU_clean_sbu_0, # of connection points: 6
#     Edge 3, Type (0, 0), BuildingBlock: FUNLAD_clean_linker_1, # of connection points: 2
#     Edge 4, Type (0, 0), BuildingBlock: FUNLAD_clean_linker_1, # of connection points: 2
#     Edge 5, Type (0, 0), BuildingBlock: FUNLAD_clean_linker_1, # of connection points: 2
#     Edge 6, Type (0, 0), BuildingBlock: FUNLAD_clean_linker_1, # of connection points: 2
#     Edge 7, Type (0, 0), BuildingBlock: FUNLAD_clean_linker_1, # of connection points: 2
#     Edge 8, Type (0, 0), BuildingBlock: FUNLAD_clean_linker_1, # of connection points: 2
#     Edge 9, Type (0, 0), BuildingBlock: FUNLAD_clean_linker_1, # of connection points: 2
#     Edge 10, Type (0, 0), BuildingBlock: FUNLAD_clean_linker_1, # of connection points: 2
#     Edge 11, Type (0, 0), BuildingBlock: FUNLAD_clean_linker_1, # of connection points: 2
# Relax obj value: 0.320
# Max RMSD: 0.125
# Mean RMSD: 0.096
data_MOF--net-sxc--node1-PAMTUU_clean_sbu_0--edge1-FUNLAD_clean_linker_1
_symmetry_space_group_name_H-M    P1
_symmetry_Int_Tables_number       1
_symmetry_cell_setting            triclinic
loop_
_symmetry_equiv_pos_as_xyz
'x, y, z'
_cell_length_a     23.963646
_cell_length_b     17.210121
_cell_length_c     48.153716
_cell_angle_alpha  88.935423
_cell_angle_beta   98.215356
_cell_angle_gamma 125.06196
loop_
_atom_site_label
_atom_site_type_symbol
_atom_site_fract_x
_atom_site_fract_y
_atom_site_fract_z
_atom_type_partial_charge
Tb0 Tb 0.98151 1.03077 0.97338 0.0
Tb1 Tb 0.14509 0.18107 -0.01544 0.0
C2 C 0.06371 0.1138 0.92266 0.0
C3 C 0.80571 0.81011 0.97278 0.0
C4 C 0.72035 0.62004 -0.01348 0.0
C5 C 0.72715 0.6407 0.95842 0.0
C6 C 0.76884 0.73498 0.95157 0.0
C7 C 0.79927 0.78915 0.00101 0.0
C8 C 0.75707 0.69488 0.0078 0.0
C9 C 0.85236 0.90885 0.96512 0.0
O10 O 1.01389 0.93078 0.97219 0.0
O11 O 0.13054 1.039 -0.01405 0.0
O12 O 0.11254 0.17571 0.02541 0.0
O13 O 1.01295 1.02625 0.01785 0.0
O14 O 0.23636 0.29686 0.97256 0.0
O15 O 0.23943 0.22671 0.00983 0.0
O16 O 0.11256 0.28136 0.97977 0.0
O17 O 0.99592 0.1721 0.97857 0.0
O18 O 1.00854 0.08933 0.93299 0.0
O19 O 0.11994 0.1359 0.93944 0.0
C20 C 0.07612 0.94869 0.97946 0.0
O21 O 0.88536 0.97646 -0.0145 0.0
O22 O 0.89233 0.92096 0.94725 0.0
C23 C 0.06227 0.099 0.03515 0.0
C24 C 0.32344 0.39253 0.01153 0.0
C25 C 0.42173 0.57041 0.0417 0.0
C26 C 0.42349 0.4915 0.04761 0.0
C27 C 0.3753 0.40372 0.03239 0.0
C28 C 0.31953 0.47025 0.00659 0.0
C29 C 0.36827 0.55844 0.02166 0.0
C30 C 0.27457 0.29962 -0.00475 0.0
C31 C 1.05029 0.26285 0.97913 0.0
H32 H 0.69956 0.58384 0.94174 0.0
H33 H 0.77296 0.74917 0.92967 0.0
H34 H 0.82747 0.84522 0.0179 0.0
H35 H 0.75428 0.68049 0.02972 0.0
H36 H 0.46241 0.49774 0.06381 0.0
H37 H 0.37872 0.3445 0.03685 0.0
H38 H 0.27946 0.46339 -0.00911 0.0
H39 H 0.36546 0.61809 0.01707 0.0
Tb40 Tb 0.16013 0.18633 0.32469 0.0
Tb41 Tb 1.00044 0.07881 0.30244 0.0
C42 C 0.05666 0.12061 0.36786 0.0
C43 C 0.33265 0.24522 0.34377 0.0
C44 C 0.40911 0.16771 0.35108 0.0
C45 C 0.43167 0.25122 0.36698 0.0
C46 C 0.39358 0.28982 0.36337 0.0
C47 C 0.31006 0.16201 0.32783 0.0
C48 C 0.34754 0.12304 0.33157 0.0
C49 C 0.28813 0.27803 0.34209 0.0
O50 O 0.13456 1.03881 0.32175 0.0
O51 O 1.02098 0.96527 0.30273 0.0
O52 O 1.04231 0.11789 0.26322 0.0
O53 O 0.15042 0.15608 0.2794 0.0
O54 O 0.90564 0.95114 0.30568 0.0
O55 O 0.91161 1.05121 0.27642 0.0
O56 O 1.02743 0.22765 0.30646 0.0
O57 O 0.14292 0.3028 0.32306 0.0
O58 O 0.11282 0.13184 0.36248 0.0
O59 O 1.01129 0.1138 0.34735 0.0
C60 C 0.07395 0.95971 0.31158 0.0
O61 O 0.26182 0.2807 0.3168 0.0
O62 O 0.24161 0.2371 0.35843 0.0
C63 C 0.10195 0.13912 0.25855 0.0
C64 C 0.81052 0.95797 0.29641 0.0
C65 C 0.69323 0.93023 0.31314 0.0
C66 C 0.68785 0.88719 0.28749 0.0
C67 C 0.74611 0.90057 0.27924 0.0
C68 C 0.81635 1.0005 0.32216 0.0
C69 C 0.75817 0.98682 0.33051 0.0
C70 C 0.87105 0.97163 0.28752 0.0
C71 C 0.08921 0.30765 0.31535 0.0
H72 H 0.47873 0.28649 0.38226 0.0
H73 H 0.41091 0.35319 0.37617 0.0
H74 H 0.26245 0.12578 0.3129 0.0
H75 H 0.32693 0.05685 0.31961 0.0
H76 H 0.63871 0.84456 0.27356 0.0
H77 H 0.74104 0.86707 0.25931 0.0
H78 H 0.86603 1.04528 0.3356 0.0
H79 H 0.76526 1.02396 0.34998 0.0
Tb80 Tb 0.07133 0.17231 0.64614 0.0
Tb81 Tb 0.08677 1.01407 0.64576 0.0
C82 C 0.06006 0.08059 0.58956 0.0
C83 C 0.97327 0.27425 0.64884 0.0
C84 C 0.84421 0.23034 0.65737 0.0
C85 C 0.87495 0.28148 0.63449 0.0
C86 C 0.93889 0.30308 0.63029 0.0
C87 C 0.94386 0.22618 0.67226 0.0
C88 C 0.88028 0.20544 0.67663 0.0
C89 C 1.03444 0.28352 0.64154 0.0
O90 O 0.95239 1.03175 0.64571 0.0
O91 O 0.96327 0.91056 0.64725 0.0
O92 O 0.09767 1.03874 0.69101 0.0
O93 O 0.08423 0.15939 0.69168 0.0
O94 O 0.11131 0.94363 0.62024 0.0
O95 O 0.09841 0.90986 0.66307 0.0
O96 O 0.20558 0.15459 0.64589 0.0
O97 O 0.19618 0.27658 0.64826 0.0
O98 O 0.09321 0.16267 0.60403 0.0
O99 O 1.03506 1.00519 0.60364 0.0
C100 C 0.91688 0.93362 0.64656 0.0
O101 O 0.07959 0.29204 0.66228 0.0
O102 O 1.02043 0.22236 0.62146 0.0
C103 C 0.09374 0.0996 0.70491 0.0
C104 C 0.18774 0.91512 0.64537 0.0
C105 C 0.32223 0.96129 0.64717 0.0
C106 C 0.31053 1.01472 0.66427 0.0
C107 C 0.24402 0.99197 0.66324 0.0
C108 C 0.19858 0.85967 0.62912 0.0
C109 C 0.26507 0.88238 0.63007 0.0
C110 C 0.11994 0.90001 0.64092 0.0
C111 C 0.24189 0.25321 0.6471 0.0
H112 H 0.8496 0.30432 0.61969 0.0
H113 H 0.9605 0.33973 0.61202 0.0
H114 H 0.96887 0.2019 0.68668 0.0
H115 H 0.85797 0.1666 0.69452 0.0
H116 H 0.35208 0.0754 0.67805 0.0
H117 H 0.23692 1.03633 0.67581 0.0
H118 H 0.15595 0.80068 0.61496 0.0
H119 H 0.27208 0.83955 0.61674 0.0
H120 H 0.98319 0.31643 0.9766 0.0
C121 C 1.03723 0.34334 0.97861 0.0
H122 H 0.13775 0.46934 0.98123 0.0
H123 H 0.12189 0.80694 0.93898 0.0
H124 H 0.18555 0.79429 0.90683 0.0
H125 H 0.19644 0.66059 0.90688 0.0
H126 H 0.14337 0.53724 0.93886 0.0
C127 C 0.08394 0.44286 0.98001 0.0
C128 C 0.06945 0.52308 0.97863 0.0
C129 C 0.10095 0.59887 0.96013 0.0
C130 C 0.09494 0.67915 0.96017 0.0
C131 C 0.12578 0.74748 0.94043 0.0
C132 C 0.16224 0.74074 0.9217 0.0
C133 C 0.1684 0.66534 0.92173 0.0
C134 C 0.13804 0.59518 0.94046 0.0
H135 H 0.1433 0.89494 -0.01522 0.0
C136 C 0.08918 0.86818 0.98036 0.0
H137 H 0.98817 0.74137 0.97384 0.0
H138 H 1.0079 0.40822 0.01964 0.0
H139 H 0.94352 0.42049 0.05145 0.0
H140 H 0.93007 0.55193 0.05042 0.0
H141 H 0.98189 0.67396 0.01789 0.0
C142 C 1.0424 0.76862 0.97701 0.0
C143 C 0.05745 0.68907 0.97886 0.0
C144 C 1.02581 0.61328 -0.00269 0.0
C145 C 1.0324 0.53348 -0.0025 0.0
C146 C 1.00271 0.46641 0.01766 0.0
C147 C 0.966 0.47315 0.03628 0.0
C148 C 0.95847 0.54735 0.03572 0.0
C149 C 0.98814 0.61672 0.01673 0.0
H150 H 0.48681 0.15064 0.37498 0.0
C151 C 0.45054 0.12871 0.35546 0.0
H152 H 0.41523 1.05193 0.31548 0.0
H153 H 0.71941 0.12632 0.35221 0.0
H154 H 0.7673 0.29331 0.34834 0.0
H155 H 0.69136 0.34762 0.33969 0.0
H156 H 0.56728 0.23528 0.33512 0.0
C157 C 0.44924 0.07388 0.33555 0.0
C158 C 0.49515 1.04196 0.34004 0.0
C159 C 0.56767 0.10923 0.34221 0.0
C160 C 0.61125 0.07781 0.34622 0.0
C161 C 0.68368 0.14612 0.3487 0.0
C162 C 0.71197 0.24236 0.34657 0.0
C163 C 0.66921 0.27289 0.34177 0.0
C164 C 0.59791 0.20747 0.33947 0.0
H165 H 0.59447 0.9133 0.30129 0.0
C166 C 0.63264 0.92548 0.3192 0.0
H167 H 0.66323 0.95945 0.36334 0.0
H168 H 0.35821 0.89537 0.33714 0.0
H169 H 0.31042 0.72731 0.33906 0.0
H170 H 0.38645 0.67272 0.34431 0.0
H171 H 0.51112 0.78639 0.34808 0.0
C172 C 0.62693 0.9473 0.34476 0.0
C173 C 0.58193 0.97919 0.34653 0.0
C174 C 0.50969 0.9121 0.34451 0.0
C175 C 0.46606 0.94359 0.34133 0.0
C176 C 0.39382 0.87524 0.33941 0.0
C177 C 0.36572 0.77859 0.34048 0.0
C178 C 0.40854 0.74786 0.34345 0.0
C179 C 0.47981 0.81358 0.34548 0.0
H180 H 0.80836 0.90344 0.64667 0.0
C181 C 0.82464 0.85625 0.64681 0.0
H182 H 0.77832 0.70722 0.64745 0.0
H183 H 0.47011 0.36148 0.66896 0.0
H184 H 0.54971 0.32491 0.68953 0.0
H185 H 0.67447 0.43807 0.6912 0.0
H186 H 0.72415 0.5913 0.67319 0.0
C187 C 0.75976 0.75148 0.64749 0.0
C188 C 0.66691 0.6737 0.64803 0.0
C189 C 0.62745 0.57473 0.65806 0.0
C190 C 0.54786 0.50202 0.65731 0.0
C191 C 0.52457 0.41466 0.66884 0.0
C192 C 0.56987 0.393 0.6808 0.0
C193 C 0.64051 0.45705 0.68167 0.0
C194 C 0.66859 0.54533 0.67073 0.0
H195 H 0.35032 0.28359 0.64629 0.0
C196 C 0.3342 0.33077 0.64705 0.0
H197 H 0.38097 0.48026 0.64787 0.0
H198 H 0.6891 0.82805 0.62716 0.0
H199 H 0.60991 0.86747 0.6086 0.0
H200 H 0.48504 0.75359 0.60644 0.0
H201 H 0.43498 0.59742 0.62235 0.0
C202 C 0.39924 0.43583 0.6471 0.0
C203 C 0.49205 0.51363 0.64653 0.0
C204 C 0.53157 0.61306 0.63685 0.0
C205 C 0.61117 0.68587 0.63766 0.0
C206 C 0.63463 0.77468 0.62715 0.0
C207 C 0.58956 0.79802 0.61637 0.0
C208 C 0.51887 0.73357 0.61523 0.0
C209 C 0.49056 0.64352 0.62493 0.0
H210 H 0.76274 0.19092 0.68288 0.0
C211 C 0.77449 0.20091 0.66157 0.0
H212 H 0.7337 0.18623 0.61849 0.0
H213 H 0.45446 0.92551 0.68069 0.0
H214 H 0.49302 0.82383 0.69154 0.0
H215 H 0.60401 0.86666 0.67999 0.0
H216 H 0.67774 1.01236 0.65805 0.0
C217 C 0.72398 0.1791 0.64005 0.0
C218 C 0.65391 0.14773 0.64477 0.0
C219 C 0.61 0.05999 0.65648 0.0
C220 C 0.54422 1.0327 0.66176 0.0
C221 C 0.50348 0.94778 0.67509 0.0
C222 C 0.5252 0.88898 0.68162 0.0
C223 C 0.58783 0.91329 0.67523 0.0
C224 C 0.62992 0.99762 0.66281 0.0
H225 H 0.39604 0.94172 0.63123 0.0
C226 C 0.39262 0.98675 0.64543 0.0
H227 H 0.45245 0.11331 0.67273 0.0
H228 H 0.7244 0.31922 0.62154 0.0
H229 H 0.68163 0.41398 0.60686 0.0
H230 H 0.56411 0.36036 0.61251 0.0
H231 H 0.48936 0.21315 0.63365 0.0
C232 C 0.45216 0.06351 0.6592 0.0
C233 C 0.52076 0.09044 0.6538 0.0
C234 C 0.56341 0.17585 0.64089 0.0
C235 C 0.63033 0.20516 0.63674 0.0
C236 C 0.67256 0.29241 0.62464 0.0
C237 C 0.64869 0.3476 0.61611 0.0
C238 C 0.58255 0.31745 0.61931 0.0
C239 C 0.54026 0.23286 0.63159 0.0
H240 H 0.68225 0.46871 -0.01627 0.0
C241 C 0.67618 0.51958 -0.00671 0.0
H242 H 0.59748 0.41225 0.01364 0.0
H243 H 0.60854 0.69118 0.10197 0.0
H244 H 0.66475 0.63212 0.13195 0.0
H245 H 0.69622 0.53433 0.11164 0.0
H246 H 0.67135 0.49455 0.06125 0.0
C247 C 0.62639 0.4868 0.00932 0.0
C248 C 0.60813 0.54713 0.02134 0.0
C249 C 0.62348 0.57028 0.05079 0.0
C250 C 0.60594 0.62737 0.06247 0.0
C251 C 0.62109 0.64846 0.09199 0.0
C252 C 0.65336 0.61507 0.10943 0.0
C253 C 0.67105 0.55997 0.098 0.0
C254 C 0.65641 0.53758 0.06904 0.0
H255 H 0.46022 0.70802 0.06383 0.0
C256 C 0.47616 0.6663 0.05579 0.0
H257 H 0.58078 0.77717 0.06832 0.0
H258 H 0.56569 0.50934 0.9642 0.0
H259 H 0.51519 0.57543 0.93412 0.0
H260 H 0.49366 0.68518 0.9541 0.0
H261 H 0.52125 0.7277 0.00443 0.0
C262 C 0.54437 0.70702 0.05736 0.0
C263 C 0.57235 0.66019 0.04471 0.0
C264 C 0.56014 0.64103 0.01512 0.0
C265 C 0.57587 0.5818 0.00348 0.0
C266 C 0.55772 0.55739 0.97408 0.0
C267 C 0.52825 0.59434 0.95657 0.0
C268 C 0.51592 0.65586 0.96782 0.0
C269 C 0.53161 0.67923 -0.00326 0.0
H270 H 0.15481 0.46503 0.32795 0.0
C271 C 0.10285 0.40892 0.31799 0.0
H272 H 1.00677 0.38129 0.30043 0.0
H273 H 0.99422 0.71729 0.34104 0.0
H274 H 0.90186 0.57998 0.36018 0.0
H275 H 0.888 0.42699 0.35847 0.0
H276 H 0.96573 0.40874 0.33738 0.0
C277 C 0.05931 0.43776 0.30968 0.0
C278 C 0.07484 0.54112 0.31317 0.0
C279 C 1.02842 0.55441 0.32479 0.0
C280 C 1.0364 0.64556 0.32569 0.0
C281 C 0.98986 0.65165 0.33884 0.0
C282 C 0.93677 0.57328 0.35019 0.0
C283 C 0.92882 0.4869 0.34917 0.0
C284 C 0.9738 0.47731 0.33679 0.0
H285 H 1.00983 0.8025 0.29867 0.0
C286 C 0.06127 0.85909 0.30898 0.0
H287 H 0.15741 0.88866 0.32753 0.0
H288 H 0.17239 0.5534 0.28718 0.0
H289 H 0.26809 0.69276 0.27016 0.0
H290 H 0.28415 0.84712 0.27324 0.0
H291 H 0.20382 0.8637 0.29275 0.0
C292 C 0.10543 0.83162 0.31786 0.0
C293 C 0.091 0.7289 0.31472 0.0
C294 C 0.13835 0.71624 0.30365 0.0
C295 C 0.12996 0.6248 0.30249 0.0
C296 C 0.17721 0.61925 0.28973 0.0
C297 C 0.23219 0.69881 0.27956 0.0
C298 C 0.24121 0.78585 0.28127 0.0
C299 C 0.19484 0.79455 0.29282 0.0
H300 H 0.16579 0.16182 0.22581 0.0
C301 C 0.11585 0.14434 0.22889 0.0
H302 H 1.02081 0.1156 0.20904 0.0
H303 H 0.09906 0.29909 0.09497 0.0
H304 H 0.09188 0.414 0.11943 0.0
H305 H 0.08223 0.40603 0.16985 0.0
H306 H 0.07938 0.28273 0.19618 0.0
C307 C 0.06982 0.12969 0.20599 0.0
C308 C 0.08456 0.14018 0.17607 0.0
C309 C 0.08724 0.21338 0.16074 0.0
C310 C 0.09408 0.219 0.13157 0.0
C311 C 0.09513 0.29214 0.1171 0.0
C312 C 0.09082 0.35853 0.13087 0.0
C313 C 0.08525 0.35393 0.15925 0.0
C314 C 0.08342 0.28247 0.17409 0.0
H315 H 1.01336 1.02803 0.07213 0.0
C316 C 0.05847 0.09211 0.066 0.0
H317 H 0.15104 0.22528 0.08062 0.0
H318 H 0.07765 0.98757 0.19773 0.0
H319 H 0.0901 0.87687 0.17389 0.0
H320 H 0.10953 0.89279 0.12457 0.0
H321 H 0.11536 1.01844 0.09854 0.0
C322 C 0.10668 0.15965 0.08649 0.0
C323 C 0.0987 0.15173 0.11732 0.0
C324 C 0.09807 0.08006 0.13285 0.0
C325 C 0.08979 0.07329 0.16192 0.0
C326 C 0.08596 0.99801 0.1761 0.0
C327 C 0.09278 0.93366 0.16262 0.0
C328 C 0.10351 0.94245 0.13481 0.0
C329 C 0.10628 1.01463 0.12003 0.0
H330 H 1.00268 0.12283 0.40145 0.0
C331 C 1.04482 0.11924 0.39771 0.0
H332 H 0.12751 0.11395 0.41617 0.0
H333 H 0.19584 0.28013 0.53942 0.0
H334 H 0.2985 0.39798 0.52045 0.0
H335 H 0.30122 0.39379 0.46955 0.0
H336 H 0.20151 0.27086 0.4373 0.0
C337 C 0.0846 0.11558 0.42003 0.0
C338 C 0.0779 0.1233 0.45059 0.0
C339 C 0.13585 0.19733 0.46944 0.0
C340 C 0.13345 0.20168 0.4989 0.0
C341 C 0.19361 0.27456 0.51691 0.0
C342 C 0.25325 0.34267 0.50632 0.0
C343 C 0.25486 0.34015 0.47768 0.0
C344 C 0.19717 0.26866 0.45939 0.0
H345 H 1.04036 1.00303 0.54912 0.0
C346 C 0.05586 0.07114 0.55831 0.0
H347 H 0.08701 0.2101 0.55047 0.0
H348 H 0.95958 0.96479 0.42223 0.0
H349 H 0.85365 0.8544 0.44044 0.0
H350 H 0.84464 0.87411 0.48982 0.0
H351 H 0.94223 1.00253 0.52157 0.0
C352 C 0.07077 0.14174 0.54115 0.0
C353 C 0.07227 0.13376 0.5099 0.0
C354 C 1.01322 0.06202 0.49085 0.0
C355 C 1.01683 1.05472 0.46158 0.0
C356 C 0.95878 0.97722 0.44403 0.0
C357 C 0.89767 0.91272 0.45428 0.0
C358 C 0.89272 0.92351 0.48213 0.0
C359 C 0.94951 0.99713 0.50025 0.0
H360 H 0.11091 1.04914 0.74575 0.0
C361 C 0.09958 0.09743 0.7363 0.0
H362 H 0.0797 0.19866 0.74442 0.0
H363 H 1.01142 0.95626 0.86043 0.0
H364 H 0.92121 0.81849 0.8293 0.0
H365 H 0.90711 0.82817 0.7779 0.0
H366 H 0.9842 0.97503 0.75723 0.0
C367 C 0.08948 0.1484 0.7534 0.0
C368 C 0.09494 0.14252 0.78504 0.0
C369 C 1.04744 0.05722 0.79714 0.0
C370 C 1.05312 1.0531 0.82711 0.0
C371 C 1.00759 0.96503 0.83811 0.0
C372 C 0.95581 0.885 0.82044 0.0
C373 C 0.94806 0.89033 0.79149 0.0
C374 C 0.99309 0.97511 0.77988 0.0
H375 H 1.01257 0.1012 0.87926 0.0
C376 C 0.06001 0.11586 0.89134 0.0
H377 H 0.15891 0.15036 0.88891 0.0
H378 H 0.1949 0.31705 0.76985 0.0
H379 H 0.28201 0.45692 0.80104 0.0
H380 H 0.28825 0.45203 0.85253 0.0
H381 H 0.20772 0.30716 0.87327 0.0
C382 C 0.11042 0.13301 0.87714 0.0
C383 C 0.10407 0.13562 0.84538 0.0
C384 C 0.15097 0.22105 0.83326 0.0
C385 C 0.14657 0.22437 0.80331 0.0
C386 C 0.19504 0.3107 0.79225 0.0
C387 C 0.24549 0.39157 0.80993 0.0
C388 C 0.24908 0.38877 0.83893 0.0
C389 C 0.20257 0.3049 0.85056 0.0
loop_
_geom_bond_atom_site_label_1
_geom_bond_atom_site_label_2
_geom_bond_distance
_geom_bond_site_symmetry_2
_ccdc_geom_bond_type
Tb0 C9 2.764 . S
Tb0 O10 2.325 . S
Tb0 O13 2.303 1_666 S
Tb0 O17 2.322 1_565 S
Tb0 O18 2.349 1_565 S
Tb0 O21 2.415 1_556 S
Tb0 O22 2.399 . S
Tb1 O11 2.322 1_545 S
Tb1 O12 2.349 . S
Tb1 O14 2.415 1_554 S
Tb1 O15 2.399 . S
Tb1 O16 2.325 . S
Tb1 O19 2.303 1_554 S
Tb1 C30 2.764 . S
C2 O18 1.261 1_455 S
C2 O19 1.257 . S
C3 C6 1.357 1_554 S
C3 C7 1.333 . S
C3 C9 1.503 1_554 S
C4 C5 1.373 1_554 S
C4 C8 1.308 . S
C5 C4 1.373 1_556 S
C5 C6 1.429 . S
C5 H32 0.932 . S
C6 C3 1.357 1_556 S
C6 C5 1.429 . S
C6 H33 0.930 . S
C7 C3 1.333 . S
C7 C8 1.394 . S
C7 H34 0.932 . S
C8 C4 1.308 . S
C8 C7 1.394 . S
C8 H35 0.929 . S
C9 Tb0 2.764 . S
C9 C3 1.503 1_556 S
C9 O21 1.239 1_556 S
C9 O22 1.263 . S
O10 Tb0 2.325 . S
O10 C20 1.236 1_656 S
O11 Tb1 2.322 1_565 S
O11 C20 1.257 . S
O12 Tb1 2.349 . S
O12 C23 1.261 . S
O13 Tb0 2.303 1_444 S
O13 C23 1.257 . S
O14 Tb1 2.415 1_556 S
O14 C30 1.239 1_556 S
O15 Tb1 2.399 . S
O15 C30 1.263 . S
O16 Tb1 2.325 . S
O16 C31 1.236 . S
O17 Tb0 2.322 1_545 S
O17 C31 1.257 1_656 S
O18 Tb0 2.349 1_545 S
O18 C2 1.261 1_655 S
O19 Tb1 2.303 1_556 S
O19 C2 1.257 . S
C20 O10 1.236 1_454 S
C20 O11 1.257 . S
O21 Tb0 2.415 1_554 S
O21 C9 1.239 1_554 S
O22 Tb0 2.399 . S
O22 C9 1.263 . S
C23 O12 1.261 . S
C23 O13 1.257 . S
C24 C27 1.358 . S
C24 C28 1.332 1_554 S
C24 C30 1.504 . S
C25 C26 1.373 . S
C25 C29 1.308 1_554 S
C26 C25 1.373 . S
C26 C27 1.429 . S
C26 H36 0.932 . S
C27 C24 1.358 . S
C27 C26 1.429 . S
C27 H37 0.930 . S
C28 C24 1.332 1_556 S
C28 C29 1.394 . S
C28 H38 0.932 . S
C29 C25 1.308 1_556 S
C29 C28 1.394 . S
C29 H39 0.929 . S
C30 Tb1 2.764 . S
C30 O14 1.239 1_554 S
C30 O15 1.263 . S
C30 C24 1.504 . S
C31 O16 1.236 . S
C31 O17 1.257 1_454 S
H32 C5 0.932 . S
H33 C6 0.930 . S
H34 C7 0.932 . S
H35 C8 0.929 . S
H36 C26 0.932 . S
H37 C27 0.930 . S
H38 C28 0.932 . S
H39 C29 0.929 . S
Tb40 C49 2.764 . S
Tb40 O50 2.325 1_545 S
Tb40 O53 2.303 . S
Tb40 O57 2.322 . S
Tb40 O58 2.349 . S
Tb40 O61 2.415 . S
Tb40 O62 2.399 . S
Tb41 O51 2.322 . S
Tb41 O52 2.349 . S
Tb41 O54 2.415 . S
Tb41 O55 2.399 . S
Tb41 O56 2.325 1_565 S
Tb41 O59 2.303 . S
Tb41 C70 2.764 . S
C42 O58 1.261 . S
C42 O59 1.257 1_445 S
C43 C46 1.358 . S
C43 C47 1.332 1_545 S
C43 C49 1.504 . S
C44 C45 1.373 . S
C44 C48 1.308 1_545 S
C45 C44 1.373 . S
C45 C46 1.429 . S
C45 H72 0.932 . S
C46 C43 1.358 . S
C46 C45 1.429 . S
C46 H73 0.930 . S
C47 C43 1.332 1_565 S
C47 C48 1.394 . S
C47 H74 0.932 . S
C48 C44 1.308 1_565 S
C48 C47 1.394 . S
C48 H75 0.929 . S
C49 Tb40 2.764 . S
C49 C43 1.504 . S
C49 O61 1.239 . S
C49 O62 1.263 . S
O50 Tb40 2.325 1_565 S
O50 C60 1.236 1_455 S
O51 Tb41 2.322 . S
O51 C60 1.257 . S
O52 Tb41 2.349 . S
O52 C63 1.261 . S
O53 Tb40 2.303 . S
O53 C63 1.257 1_445 S
O54 Tb41 2.415 . S
O54 C70 1.239 . S
O55 Tb41 2.399 . S
O55 C70 1.263 . S
O56 Tb41 2.325 1_545 S
O56 C71 1.236 1_655 S
O57 Tb40 2.322 . S
O57 C71 1.257 . S
O58 Tb40 2.349 . S
O58 C42 1.261 . S
O59 Tb41 2.303 . S
O59 C42 1.257 1_665 S
C60 O50 1.236 1_655 S
C60 O51 1.257 . S
O61 Tb40 2.415 . S
O61 C49 1.239 . S
O62 Tb40 2.399 . S
O62 C49 1.263 . S
C63 O52 1.261 . S
C63 O53 1.257 1_665 S
C64 C67 1.358 . S
C64 C68 1.332 1_565 S
C64 C70 1.504 . S
C65 C66 1.373 . S
C65 C69 1.308 1_565 S
C66 C65 1.373 . S
C66 C67 1.429 . S
C66 H76 0.932 . S
C67 C64 1.358 . S
C67 C66 1.429 . S
C67 H77 0.930 . S
C68 C64 1.332 1_545 S
C68 C69 1.394 . S
C68 H78 0.932 . S
C69 C65 1.308 1_545 S
C69 C68 1.394 . S
C69 H79 0.929 . S
C70 Tb41 2.764 . S
C70 O54 1.239 . S
C70 O55 1.263 . S
C70 C64 1.504 . S
C71 O56 1.236 1_455 S
C71 O57 1.257 . S
H72 C45 0.932 . S
H73 C46 0.930 . S
H74 C47 0.932 . S
H75 C48 0.929 . S
H76 C66 0.932 . S
H77 C67 0.930 . S
H78 C68 0.932 . S
H79 C69 0.929 . S
Tb80 C89 2.764 . S
Tb80 O90 2.325 . S
Tb80 O93 2.303 1_655 S
Tb80 O97 2.322 1_655 S
Tb80 O98 2.349 . S
Tb80 O101 2.415 . S
Tb80 O102 2.399 . S
Tb81 O91 2.322 1_445 S
Tb81 O92 2.349 . S
Tb81 O94 2.415 . S
Tb81 O95 2.399 . S
Tb81 O96 2.325 . S
Tb81 O99 2.303 . S
Tb81 C110 2.764 . S
C82 O98 1.261 1_455 S
C82 O99 1.257 . S
C83 C86 1.358 . S
C83 C87 1.332 . S
C83 C89 1.504 . S
C84 C85 1.373 . S
C84 C88 1.308 . S
C85 C84 1.373 . S
C85 C86 1.429 . S
C85 H112 0.932 . S
C86 C83 1.358 . S
C86 C85 1.429 . S
C86 H113 0.930 . S
C87 C83 1.332 . S
C87 C88 1.394 . S
C87 H114 0.932 . S
C88 C84 1.308 . S
C88 C87 1.394 . S
C88 H115 0.929 . S
C89 Tb80 2.764 . S
C89 C83 1.504 . S
C89 O101 1.239 . S
C89 O102 1.263 . S
O90 Tb80 2.325 . S
O90 C100 1.236 1_545 S
O91 Tb81 2.322 1_665 S
O91 C100 1.257 . S
O92 Tb81 2.349 . S
O92 C103 1.261 . S
O93 Tb80 2.303 1_455 S
O93 C103 1.257 . S
O94 Tb81 2.415 . S
O94 C110 1.239 . S
O95 Tb81 2.399 . S
O95 C110 1.263 . S
O96 Tb81 2.325 . S
O96 C111 1.236 . S
O97 Tb80 2.322 1_455 S
O97 C111 1.257 . S
O98 Tb80 2.349 . S
O98 C82 1.261 1_655 S
O99 Tb81 2.303 . S
O99 C82 1.257 . S
C100 O90 1.236 1_565 S
C100 O91 1.257 . S
O101 Tb80 2.415 . S
O101 C89 1.239 . S
O102 Tb80 2.399 . S
O102 C89 1.263 . S
C103 O92 1.261 . S
C103 O93 1.257 . S
C104 C107 1.358 . S
C104 C108 1.332 . S
C104 C110 1.504 . S
C105 C106 1.374 . S
C105 C109 1.308 . S
C106 C105 1.374 . S
C106 C107 1.436 . S
C106 H116 0.924 1_545 S
C107 C104 1.358 . S
C107 C106 1.436 . S
C107 H117 0.930 1_545 S
C108 C104 1.332 . S
C108 C109 1.394 . S
C108 H118 0.932 . S
C109 C105 1.308 . S
C109 C108 1.394 . S
C109 H119 0.929 . S
C110 Tb81 2.764 . S
C110 O94 1.239 . S
C110 O95 1.263 . S
C110 C104 1.504 . S
C111 O96 1.236 . S
C111 O97 1.257 . S
H112 C85 0.932 . S
H113 C86 0.930 . S
H114 C87 0.932 . S
H115 C88 0.929 . S
H116 C106 0.924 1_565 S
H117 C107 0.930 1_565 S
H118 C108 0.932 . S
H119 C109 0.929 . S
H120 C121 0.951 1_656 S
C121 H120 0.951 1_454 S
C121 C127 1.265 . S
H122 C127 0.950 . S
H123 C131 0.949 . S
H124 C132 0.950 . S
H125 C133 0.951 . S
H126 C134 0.951 . S
C127 C121 1.265 . S
C127 H122 0.950 . S
C127 C128 1.478 . S
C128 C127 1.478 . S
C128 C129 1.397 1_554 S
C128 C145 1.394 . S
C129 C128 1.397 1_556 S
C129 C130 1.438 . S
C129 C134 1.429 . S
C130 C129 1.438 . S
C130 C131 1.428 . S
C130 C143 1.394 1_556 S
C131 H123 0.949 . S
C131 C130 1.428 . S
C131 C132 1.345 . S
C132 H124 0.950 . S
C132 C131 1.345 . S
C132 C133 1.424 . S
C133 H125 0.951 . S
C133 C132 1.424 . S
C133 C134 1.347 . S
C134 H126 0.951 . S
C134 C129 1.429 . S
C134 C133 1.347 . S
H135 C136 0.951 . S
C136 H135 0.951 . S
C136 C142 1.265 1_455 S
H137 C142 0.950 1_556 S
H138 C146 0.949 . S
H139 C147 0.950 . S
H140 C148 0.951 . S
H141 C149 0.951 . S
C142 C136 1.265 1_655 S
C142 H137 0.950 1_554 S
C142 C143 1.478 1_655 S
C143 C130 1.394 1_554 S
C143 C142 1.478 1_455 S
C143 C144 1.397 1_455 S
C144 C143 1.397 1_655 S
C144 C145 1.438 1_655 S
C144 C149 1.429 . S
C145 C128 1.394 . S
C145 C144 1.438 1_455 S
C145 C146 1.428 1_455 S
C146 H138 0.949 . S
C146 C145 1.428 1_655 S
C146 C147 1.345 . S
C147 H139 0.950 . S
C147 C146 1.345 . S
C147 C148 1.424 . S
C148 H140 0.951 . S
C148 C147 1.424 . S
C148 C149 1.347 . S
C149 H141 0.951 . S
C149 C144 1.429 . S
C149 C148 1.347 . S
H150 C151 0.951 . S
C151 H150 0.951 . S
C151 C157 1.265 . S
H152 C157 0.950 . S
H153 C161 0.949 . S
H154 C162 0.950 . S
H155 C163 0.951 . S
H156 C164 0.951 . S
C157 C151 1.265 . S
C157 H152 0.950 . S
C157 C158 1.478 . S
C158 C157 1.478 . S
C158 C159 1.397 . S
C158 C175 1.394 1_545 S
C159 C158 1.397 . S
C159 C160 1.438 . S
C159 C164 1.429 . S
C160 C159 1.438 . S
C160 C161 1.428 . S
C160 C173 1.394 1_545 S
C161 H153 0.949 . S
C161 C160 1.428 . S
C161 C162 1.345 . S
C162 H154 0.950 . S
C162 C161 1.345 . S
C162 C163 1.424 . S
C163 H155 0.951 . S
C163 C162 1.424 . S
C163 C164 1.347 . S
C164 H156 0.951 . S
C164 C159 1.429 . S
C164 C163 1.347 . S
H165 C166 0.951 . S
C166 H165 0.951 . S
C166 C172 1.265 . S
H167 C172 0.950 . S
H168 C176 0.949 . S
H169 C177 0.950 . S
H170 C178 0.951 . S
H171 C179 0.951 . S
C172 C166 1.265 . S
C172 H167 0.950 . S
C172 C173 1.478 . S
C173 C160 1.394 1_565 S
C173 C172 1.478 . S
C173 C174 1.397 . S
C174 C173 1.397 . S
C174 C175 1.438 . S
C174 C179 1.429 . S
C175 C158 1.394 1_565 S
C175 C174 1.438 . S
C175 C176 1.428 . S
C176 H168 0.949 . S
C176 C175 1.428 . S
C176 C177 1.345 . S
C177 H169 0.950 . S
C177 C176 1.345 . S
C177 C178 1.424 . S
C178 H170 0.951 . S
C178 C177 1.424 . S
C178 C179 1.347 . S
C179 H171 0.951 . S
C179 C174 1.429 . S
C179 C178 1.347 . S
H180 C181 0.951 . S
C181 H180 0.951 . S
C181 C187 1.265 . S
H182 C187 0.950 . S
H183 C191 0.949 . S
H184 C192 0.950 . S
H185 C193 0.951 . S
H186 C194 0.951 . S
C187 C181 1.265 . S
C187 H182 0.950 . S
C187 C188 1.478 . S
C188 C187 1.478 . S
C188 C189 1.397 . S
C188 C205 1.394 . S
C189 C188 1.397 . S
C189 C190 1.438 . S
C189 C194 1.429 . S
C190 C189 1.438 . S
C190 C191 1.428 . S
C190 C203 1.394 . S
C191 H183 0.949 . S
C191 C190 1.428 . S
C191 C192 1.345 . S
C192 H184 0.950 . S
C192 C191 1.345 . S
C192 C193 1.424 . S
C193 H185 0.951 . S
C193 C192 1.424 . S
C193 C194 1.347 . S
C194 H186 0.951 . S
C194 C189 1.429 . S
C194 C193 1.347 . S
H195 C196 0.951 . S
C196 H195 0.951 . S
C196 C202 1.265 . S
H197 C202 0.950 . S
H198 C206 0.949 . S
H199 C207 0.950 . S
H200 C208 0.951 . S
H201 C209 0.951 . S
C202 C196 1.265 . S
C202 H197 0.950 . S
C202 C203 1.478 . S
C203 C190 1.394 . S
C203 C202 1.478 . S
C203 C204 1.397 . S
C204 C203 1.397 . S
C204 C205 1.438 . S
C204 C209 1.429 . S
C205 C188 1.394 . S
C205 C204 1.438 . S
C205 C206 1.428 . S
C206 H198 0.949 . S
C206 C205 1.428 . S
C206 C207 1.345 . S
C207 H199 0.950 . S
C207 C206 1.345 . S
C207 C208 1.424 . S
C208 H200 0.951 . S
C208 C207 1.424 . S
C208 C209 1.347 . S
C209 H201 0.951 . S
C209 C204 1.429 . S
C209 C208 1.347 . S
H210 C211 0.951 . S
C211 H210 0.951 . S
C211 C217 1.265 . S
H212 C217 0.950 . S
H213 C221 0.949 . S
H214 C222 0.950 . S
H215 C223 0.951 . S
H216 C224 0.951 . S
C217 C211 1.265 . S
C217 H212 0.950 . S
C217 C218 1.478 . S
C218 C217 1.478 . S
C218 C219 1.397 . S
C218 C235 1.394 . S
C219 C218 1.397 . S
C219 C220 1.438 . S
C219 C224 1.429 . S
C220 C219 1.438 . S
C220 C221 1.428 1_545 S
C220 C233 1.394 . S
C221 H213 0.949 . S
C221 C220 1.428 1_565 S
C221 C222 1.345 . S
C222 H214 0.950 . S
C222 C221 1.345 . S
C222 C223 1.424 . S
C223 H215 0.951 . S
C223 C222 1.424 . S
C223 C224 1.347 1_565 S
C224 H216 0.951 . S
C224 C219 1.429 . S
C224 C223 1.347 1_545 S
H225 C226 0.951 1_565 S
C226 H225 0.951 1_545 S
C226 C232 1.265 . S
H227 C232 0.950 . S
H228 C236 0.949 . S
H229 C237 0.950 . S
H230 C238 0.951 . S
H231 C239 0.951 . S
C232 C226 1.265 . S
C232 H227 0.950 . S
C232 C233 1.478 . S
C233 C220 1.394 . S
C233 C232 1.478 . S
C233 C234 1.397 . S
C234 C233 1.397 . S
C234 C235 1.438 . S
C234 C239 1.429 . S
C235 C218 1.394 . S
C235 C234 1.438 . S
C235 C236 1.428 . S
C236 H228 0.949 . S
C236 C235 1.428 . S
C236 C237 1.345 . S
C237 H229 0.950 . S
C237 C236 1.345 . S
C237 C238 1.424 . S
C238 H230 0.951 . S
C238 C237 1.424 . S
C238 C239 1.347 . S
C239 H231 0.951 . S
C239 C234 1.429 . S
C239 C238 1.347 . S
H240 C241 0.951 . S
C241 H240 0.951 . S
C241 C247 1.265 1_554 S
H242 C247 0.950 . S
H243 C251 0.949 . S
H244 C252 0.950 . S
H245 C253 0.951 . S
H246 C254 0.951 . S
C247 C241 1.265 1_556 S
C247 H242 0.950 . S
C247 C248 1.479 1_556 S
C248 C247 1.479 1_554 S
C248 C249 1.395 . S
C248 C265 1.395 1_554 S
C249 C248 1.395 . S
C249 C250 1.438 . S
C249 C254 1.429 . S
C250 C249 1.438 . S
C250 C251 1.428 . S
C250 C263 1.394 . S
C251 H243 0.949 . S
C251 C250 1.428 . S
C251 C252 1.345 . S
C252 H244 0.950 . S
C252 C251 1.345 . S
C252 C253 1.424 . S
C253 H245 0.951 . S
C253 C252 1.424 . S
C253 C254 1.347 . S
C254 H246 0.951 . S
C254 C249 1.429 . S
C254 C253 1.347 . S
H255 C256 0.951 1_556 S
C256 H255 0.951 1_554 S
C256 C262 1.265 . S
H257 C262 0.950 . S
H258 C266 0.949 . S
H259 C267 0.950 . S
H260 C268 0.951 . S
H261 C269 0.951 . S
C262 C256 1.265 . S
C262 H257 0.950 . S
C262 C263 1.478 . S
C263 C250 1.394 . S
C263 C262 1.478 . S
C263 C264 1.397 1_554 S
C264 C263 1.397 1_556 S
C264 C265 1.438 . S
C264 C269 1.429 . S
C265 C248 1.395 1_556 S
C265 C264 1.438 . S
C265 C266 1.428 . S
C266 H258 0.949 . S
C266 C265 1.428 . S
C266 C267 1.345 . S
C267 H259 0.950 . S
C267 C266 1.345 . S
C267 C268 1.424 . S
C268 H260 0.951 . S
C268 C267 1.424 . S
C268 C269 1.347 . S
C269 H261 0.951 . S
C269 C264 1.429 . S
C269 C268 1.347 . S
H270 C271 0.951 . S
C271 H270 0.951 . S
C271 C277 1.265 1_455 S
H272 C277 0.950 . S
H273 C281 0.949 . S
H274 C282 0.950 . S
H275 C283 0.951 . S
H276 C284 0.951 . S
C277 C271 1.265 1_655 S
C277 H272 0.950 . S
C277 C278 1.478 . S
C278 C277 1.478 . S
C278 C279 1.397 . S
C278 C295 1.394 1_655 S
C279 C278 1.397 . S
C279 C280 1.438 . S
C279 C284 1.429 . S
C280 C279 1.438 . S
C280 C281 1.428 . S
C280 C293 1.394 1_655 S
C281 H273 0.949 . S
C281 C280 1.428 . S
C281 C282 1.345 . S
C282 H274 0.950 . S
C282 C281 1.345 . S
C282 C283 1.424 . S
C283 H275 0.951 . S
C283 C282 1.424 . S
C283 C284 1.347 . S
C284 H276 0.951 . S
C284 C279 1.429 . S
C284 C283 1.347 . S
H285 C286 0.951 . S
C286 H285 0.951 . S
C286 C292 1.265 1_655 S
H287 C292 0.950 . S
H288 C296 0.949 . S
H289 C297 0.950 . S
H290 C298 0.951 . S
H291 C299 0.951 . S
C292 C286 1.265 1_455 S
C292 H287 0.950 . S
C292 C293 1.478 . S
C293 C280 1.394 1_455 S
C293 C292 1.478 . S
C293 C294 1.397 . S
C294 C293 1.397 . S
C294 C295 1.438 . S
C294 C299 1.429 . S
C295 C278 1.394 1_455 S
C295 C294 1.438 . S
C295 C296 1.428 . S
C296 H288 0.949 . S
C296 C295 1.428 . S
C296 C297 1.345 . S
C297 H289 0.950 . S
C297 C296 1.345 . S
C297 C298 1.424 . S
C298 H290 0.951 . S
C298 C297 1.424 . S
C298 C299 1.347 . S
C299 H291 0.951 . S
C299 C294 1.429 . S
C299 C298 1.347 . S
H300 C301 0.951 . S
C301 H300 0.951 . S
C301 C307 1.265 1_465 S
H302 C307 0.950 . S
H303 C311 0.949 . S
H304 C312 0.950 . S
H305 C313 0.951 . S
H306 C314 0.951 . S
C307 C301 1.265 1_645 S
C307 H302 0.950 . S
C307 C308 1.485 . S
C308 C307 1.485 . S
C308 C309 1.398 1_655 S
C308 C325 1.386 1_545 S
C309 C308 1.398 1_455 S
C309 C310 1.438 . S
C309 C314 1.429 . S
C310 C309 1.438 . S
C310 C311 1.428 . S
C310 C323 1.394 . S
C311 H303 0.949 . S
C311 C310 1.428 . S
C311 C312 1.345 . S
C312 H304 0.950 . S
C312 C311 1.345 . S
C312 C313 1.424 . S
C313 H305 0.951 . S
C313 C312 1.424 . S
C313 C314 1.347 . S
C314 H306 0.951 . S
C314 C309 1.429 . S
C314 C313 1.347 . S
H315 C316 0.951 1_655 S
C316 H315 0.951 1_455 S
C316 C322 1.265 . S
H317 C322 0.950 . S
H318 C326 0.949 . S
H319 C327 0.950 . S
H320 C328 0.951 . S
H321 C329 0.951 . S
C322 C316 1.265 . S
C322 H317 0.950 . S
C322 C323 1.478 . S
C323 C310 1.394 . S
C323 C322 1.478 . S
C323 C324 1.397 1_545 S
C324 C323 1.397 1_565 S
C324 C325 1.438 1_455 S
C324 C329 1.429 . S
C325 C308 1.386 1_565 S
C325 C324 1.438 1_655 S
C325 C326 1.428 . S
C326 H318 0.949 . S
C326 C325 1.428 . S
C326 C327 1.345 . S
C327 H319 0.950 . S
C327 C326 1.345 . S
C327 C328 1.424 . S
C328 H320 0.951 . S
C328 C327 1.424 . S
C328 C329 1.347 1_655 S
C329 H321 0.951 . S
C329 C324 1.429 . S
C329 C328 1.347 1_455 S
H330 C331 0.964 . S
C331 H330 0.964 . S
C331 C337 1.258 1_655 S
H332 C337 0.950 . S
H333 C341 0.949 . S
H334 C342 0.950 . S
H335 C343 0.951 . S
H336 C344 0.951 . S
C337 C331 1.258 1_455 S
C337 H332 0.950 . S
C337 C338 1.478 . S
C338 C337 1.478 . S
C338 C339 1.397 . S
C338 C355 1.394 1_445 S
C339 C338 1.397 . S
C339 C340 1.438 . S
C339 C344 1.429 . S
C340 C339 1.438 . S
C340 C341 1.428 . S
C340 C353 1.394 . S
C341 H333 0.949 . S
C341 C340 1.428 . S
C341 C342 1.345 . S
C342 H334 0.950 . S
C342 C341 1.345 . S
C342 C343 1.424 . S
C343 H335 0.951 . S
C343 C342 1.424 . S
C343 C344 1.347 . S
C344 H336 0.951 . S
C344 C339 1.429 . S
C344 C343 1.347 . S
H345 C346 0.951 . S
C346 H345 0.951 . S
C346 C352 1.265 1_455 S
H347 C352 0.950 . S
H348 C356 0.949 . S
H349 C357 0.950 . S
H350 C358 0.951 . S
H351 C359 0.951 . S
C352 C346 1.265 1_655 S
C352 H347 0.950 . S
C352 C353 1.478 1_655 S
C353 C340 1.394 . S
C353 C352 1.478 1_455 S
C353 C354 1.397 1_445 S
C354 C353 1.397 1_665 S
C354 C355 1.438 . S
C354 C359 1.429 . S
C355 C338 1.394 1_665 S
C355 C354 1.438 . S
C355 C356 1.428 . S
C356 H348 0.949 . S
C356 C355 1.428 . S
C356 C357 1.345 . S
C357 H349 0.950 . S
C357 C356 1.345 . S
C357 C358 1.424 . S
C358 H350 0.951 . S
C358 C357 1.424 . S
C358 C359 1.347 . S
C359 H351 0.951 . S
C359 C354 1.429 . S
C359 C358 1.347 . S
H360 C361 0.951 . S
C361 H360 0.951 . S
C361 C367 1.265 . S
H362 C367 0.950 1_655 S
H363 C371 0.949 . S
H364 C372 0.950 . S
H365 C373 0.951 . S
H366 C374 0.951 . S
C367 C361 1.265 . S
C367 H362 0.950 1_455 S
C367 C368 1.478 . S
C368 C367 1.478 . S
C368 C369 1.397 1_455 S
C368 C385 1.394 . S
C369 C368 1.397 1_655 S
C369 C370 1.438 . S
C369 C374 1.429 1_545 S
C370 C369 1.438 . S
C370 C371 1.428 1_545 S
C370 C383 1.394 1_655 S
C371 H363 0.949 . S
C371 C370 1.428 1_565 S
C371 C372 1.345 . S
C372 H364 0.950 . S
C372 C371 1.345 . S
C372 C373 1.424 . S
C373 H365 0.951 . S
C373 C372 1.424 . S
C373 C374 1.347 . S
C374 H366 0.951 . S
C374 C369 1.429 1_565 S
C374 C373 1.347 . S
H375 C376 0.951 1_655 S
C376 H375 0.951 1_455 S
C376 C382 1.265 . S
H377 C382 0.950 . S
H378 C386 0.949 . S
H379 C387 0.950 . S
H380 C388 0.951 . S
H381 C389 0.951 . S
C382 C376 1.265 . S
C382 H377 0.950 . S
C382 C383 1.478 . S
C383 C370 1.394 1_455 S
C383 C382 1.478 . S
C383 C384 1.397 . S
C384 C383 1.397 . S
C384 C385 1.438 . S
C384 C389 1.429 . S
C385 C368 1.394 . S
C385 C384 1.438 . S
C385 C386 1.428 . S
C386 H378 0.949 . S
C386 C385 1.428 . S
C386 C387 1.345 . S
C387 H379 0.950 . S
C387 C386 1.345 . S
C387 C388 1.424 . S
C388 H380 0.951 . S
C388 C387 1.424 . S
C388 C389 1.347 . S
C389 H381 0.951 . S
C389 C384 1.429 . S
C389 C388 1.347 . S
C121 C31 2.880 . S
C136 C20 2.880 . S
C151 C44 0.473 . S
C166 C65 0.473 . S
C181 C100 4.809 . S
C196 C111 4.809 . S
C211 C84 0.816 . S
C226 C105 0.816 . S
C241 C4 0.990 . S
C256 C25 0.990 . S
C271 C71 2.850 . S
C286 C60 2.850 . S
C301 C63 1.516 1_455 S
C316 C23 1.507 . S
C331 C42 1.506 1_655 S
C346 C82 1.520 . S
C361 C103 1.420 . S
C376 C2 1.443 . S
