# Generated by pormake.
# Topology umc, (4)-cn, num edge types: 1
# Building blocks:
#     Node 0, Type 0, BuildingBlock: MUDLON_clean_sbu_0, # of connection points: 4
#     Node 1, Type 0, BuildingBlock: MUDLON_clean_sbu_0, # of connection points: 4
#     Node 2, Type 0, BuildingBlock: MUDLON_clean_sbu_0, # of connection points: 4
#     Node 3, Type 0, BuildingBlock: MUDLON_clean_sbu_0, # of connection points: 4
#     Node 4, Type 0, BuildingBlock: MUDLON_clean_sbu_0, # of connection points: 4
#     Node 5, Type 0, BuildingBlock: MUDLON_clean_sbu_0, # of connection points: 4
#     Node 6, Type 0, BuildingBlock: MUDLON_clean_sbu_0, # of connection points: 4
#     Node 7, Type 0, BuildingBlock: MUDLON_clean_sbu_0, # of connection points: 4
#     Node 8, Type 0, BuildingBlock: MUDLON_clean_sbu_0, # of connection points: 4
#     Node 9, Type 0, BuildingBlock: MUDLON_clean_sbu_0, # of connection points: 4
#     Node 10, Type 0, BuildingBlock: MUDLON_clean_sbu_0, # of connection points: 4
#     Node 11, Type 0, BuildingBlock: MUDLON_clean_sbu_0, # of connection points: 4
#     Node 12, Type 0, BuildingBlock: MUDLON_clean_sbu_0, # of connection points: 4
#     Node 13, Type 0, BuildingBlock: MUDLON_clean_sbu_0, # of connection points: 4
#     Node 14, Type 0, BuildingBlock: MUDLON_clean_sbu_0, # of connection points: 4
#     Node 15, Type 0, BuildingBlock: MUDLON_clean_sbu_0, # of connection points: 4
#     Edge 16, Type (0, 0), BuildingBlock: EZIPEK_clean_linker_0, # of connection points: 2
#     Edge 17, Type (0, 0), BuildingBlock: EZIPEK_clean_linker_0, # of connection points: 2
#     Edge 18, Type (0, 0), BuildingBlock: EZIPEK_clean_linker_0, # of connection points: 2
#     Edge 19, Type (0, 0), BuildingBlock: EZIPEK_clean_linker_0, # of connection points: 2
#     Edge 20, Type (0, 0), BuildingBlock: EZIPEK_clean_linker_0, # of connection points: 2
#     Edge 21, Type (0, 0), BuildingBlock: EZIPEK_clean_linker_0, # of connection points: 2
#     Edge 22, Type (0, 0), BuildingBlock: EZIPEK_clean_linker_0, # of connection points: 2
#     Edge 23, Type (0, 0), BuildingBlock: EZIPEK_clean_linker_0, # of connection points: 2
#     Edge 24, Type (0, 0), BuildingBlock: EZIPEK_clean_linker_0, # of connection points: 2
#     Edge 25, Type (0, 0), BuildingBlock: EZIPEK_clean_linker_0, # of connection points: 2
#     Edge 26, Type (0, 0), BuildingBlock: EZIPEK_clean_linker_0, # of connection points: 2
#     Edge 27, Type (0, 0), BuildingBlock: EZIPEK_clean_linker_0, # of connection points: 2
#     Edge 28, Type (0, 0), BuildingBlock: EZIPEK_clean_linker_0, # of connection points: 2
#     Edge 29, Type (0, 0), BuildingBlock: EZIPEK_clean_linker_0, # of connection points: 2
#     Edge 30, Type (0, 0), BuildingBlock: EZIPEK_clean_linker_0, # of connection points: 2
#     Edge 31, Type (0, 0), BuildingBlock: EZIPEK_clean_linker_0, # of connection points: 2
#     Edge 32, Type (0, 0), BuildingBlock: EZIPEK_clean_linker_0, # of connection points: 2
#     Edge 33, Type (0, 0), BuildingBlock: EZIPEK_clean_linker_0, # of connection points: 2
#     Edge 34, Type (0, 0), BuildingBlock: EZIPEK_clean_linker_0, # of connection points: 2
#     Edge 35, Type (0, 0), BuildingBlock: EZIPEK_clean_linker_0, # of connection points: 2
#     Edge 36, Type (0, 0), BuildingBlock: EZIPEK_clean_linker_0, # of connection points: 2
#     Edge 37, Type (0, 0), BuildingBlock: EZIPEK_clean_linker_0, # of connection points: 2
#     Edge 38, Type (0, 0), BuildingBlock: EZIPEK_clean_linker_0, # of connection points: 2
#     Edge 39, Type (0, 0), BuildingBlock: EZIPEK_clean_linker_0, # of connection points: 2
#     Edge 40, Type (0, 0), BuildingBlock: EZIPEK_clean_linker_0, # of connection points: 2
#     Edge 41, Type (0, 0), BuildingBlock: EZIPEK_clean_linker_0, # of connection points: 2
#     Edge 42, Type (0, 0), BuildingBlock: EZIPEK_clean_linker_0, # of connection points: 2
#     Edge 43, Type (0, 0), BuildingBlock: EZIPEK_clean_linker_0, # of connection points: 2
#     Edge 44, Type (0, 0), BuildingBlock: EZIPEK_clean_linker_0, # of connection points: 2
#     Edge 45, Type (0, 0), BuildingBlock: EZIPEK_clean_linker_0, # of connection points: 2
#     Edge 46, Type (0, 0), BuildingBlock: EZIPEK_clean_linker_0, # of connection points: 2
#     Edge 47, Type (0, 0), BuildingBlock: EZIPEK_clean_linker_0, # of connection points: 2
# Relax obj value: 0.000
# Max RMSD: 0.076
# Mean RMSD: 0.076
data_MOF--net-umc--node1-MUDLON_clean_sbu_0--edge1-EZIPEK_clean_linker_0
_symmetry_space_group_name_H-M    P1
_symmetry_Int_Tables_number       1
_symmetry_cell_setting            triclinic
loop_
_symmetry_equiv_pos_as_xyz
'x, y, z'
_cell_length_a     44.019723
_cell_length_b     11.130226
_cell_length_c     45.35179
_cell_angle_alpha  90.056682
_cell_angle_beta   90.005048
_cell_angle_gamma 90.091628
loop_
_atom_site_label
_atom_site_type_symbol
_atom_site_fract_x
_atom_site_fract_y
_atom_site_fract_z
_atom_type_partial_charge
Mg0 Mg 0.38279 0.02267 0.39083 0.0
C1 C 0.3687 0.96418 0.45329 0.0
O2 O 0.35765 0.07276 0.44989 0.0
C3 C 0.38016 0.03588 0.32692 0.0
O4 O 0.3844 0.14658 0.33612 0.0
C5 C 0.31884 0.10829 0.3901 0.0
O6 O 0.31625 0.99235 0.38527 0.0
O7 O 0.34532 0.15344 0.39349 0.0
O8 O 0.37949 0.91021 0.43077 0.0
O9 O 0.43077 0.08034 0.39096 0.0
C10 C 0.44946 0.99269 0.39231 0.0
O11 O 0.43858 0.88308 0.39455 0.0
O12 O 0.37798 0.95188 0.34598 0.0
Mg13 Mg 0.64855 0.98632 0.3892 0.0
C14 C 0.65347 0.04413 0.45177 0.0
O15 O 0.64514 0.93093 0.45042 0.0
C16 C 0.64413 0.96912 0.32444 0.0
O17 O 0.62903 0.87601 0.33457 0.0
C18 C 0.71081 0.89419 0.39327 0.0
O19 O 0.71386 0.01097 0.39033 0.0
O20 O 0.68409 0.84919 0.39402 0.0
O21 O 0.65712 0.10222 0.42774 0.0
O22 O 0.59961 0.94322 0.39276 0.0
C23 C 0.58149 0.02656 0.38463 0.0
O24 O 0.59293 0.12659 0.37399 0.0
O25 O 0.65553 0.04266 0.34309 0.0
Mg26 Mg 0.38049 0.9741 0.13569 0.0
C27 C 0.37033 0.02377 0.07312 0.0
O28 O 0.36387 0.90945 0.07669 0.0
C29 C 0.3767 0.96839 0.20023 0.0
O30 O 0.37726 0.85493 0.19232 0.0
C31 C 0.31644 0.89219 0.13193 0.0
O32 O 0.314 0.00979 0.13158 0.0
O33 O 0.3428 0.84513 0.13335 0.0
O34 O 0.37706 0.08599 0.09584 0.0
O35 O 0.42725 0.90731 0.1329 0.0
C36 C 0.4471 0.99077 0.13448 0.0
O37 O 0.43795 0.10233 0.13757 0.0
O38 O 0.37749 0.04934 0.18031 0.0
Mg39 Mg 0.64474 -0.00537 0.13134 0.0
C40 C 0.64755 0.93912 0.0683 0.0
O41 O 0.63551 0.04672 0.07013 0.0
C42 C 0.63886 -0.00205 0.19655 0.0
O43 O 0.61874 0.07675 0.18748 0.0
C44 C 0.70532 0.09742 0.12671 0.0
O45 O 0.70942 0.98062 0.12776 0.0
O46 O 0.67827 0.13847 0.12723 0.0
O47 O 0.65427 0.88382 0.09209 0.0
O48 O 0.59599 0.0355 0.1288 0.0
C49 C 0.57846 0.94499 0.13202 0.0
O50 O 0.59054 0.83847 0.13616 0.0
O51 O 0.65335 0.93741 0.17717 0.0
Mg52 Mg 0.64571 0.95738 0.63228 0.0
C53 C 0.66508 0.12284 0.57607 0.0
O54 O 0.68366 0.18924 0.59186 0.0
C55 C 0.64454 0.96026 0.69664 0.0
O56 O 0.63265 0.85688 0.68868 0.0
C57 C 0.70712 0.85924 0.62435 0.0
O58 O 0.71034 0.97379 0.61832 0.0
O59 O 0.68084 0.81893 0.631 0.0
O60 O 0.64921 0.04117 0.58831 0.0
O61 O 0.59751 0.90896 0.63348 0.0
C62 C 0.58021 0.00073 0.63465 0.0
O63 O 0.59246 0.10838 0.63502 0.0
O64 O 0.65282 0.03395 0.67651 0.0
Mg65 Mg 0.38167 0.01076 0.63486 0.0
C66 C 0.38813 0.86463 0.57729 0.0
O67 O 0.4161 0.84897 0.58645 0.0
C68 C 0.37931 0.03408 0.6989 0.0
O69 O 0.38036 0.14423 0.68857 0.0
C70 C 0.3198 0.10347 0.63643 0.0
O71 O 0.31713 0.98672 0.63975 0.0
O72 O 0.34628 0.14902 0.63363 0.0
O73 O 0.36871 0.90823 0.59513 0.0
O74 O 0.43001 0.05956 0.63061 0.0
C75 C 0.44838 0.97683 0.63848 0.0
O76 O 0.43719 0.87484 0.64824 0.0
O77 O 0.37858 0.94693 0.68053 0.0
Mg78 Mg 0.64055 0.03819 0.88785 0.0
C79 C 0.66353 0.88512 0.94352 0.0
O80 O 0.68676 0.84614 0.92809 0.0
C81 C 0.64797 0.04793 0.82352 0.0
O82 O 0.65043 0.15973 0.83252 0.0
C83 C 0.7033 0.12593 0.88443 0.0
O84 O 0.70518 0.0115 0.87758 0.0
O85 O 0.67729 0.17068 0.89019 0.0
O86 O 0.64302 0.94769 0.93106 0.0
O87 O 0.59274 0.09166 0.88782 0.0
C88 C 0.57515 0.00033 0.8879 0.0
O89 O 0.58711 0.89231 0.88799 0.0
O90 O 0.645 0.96503 0.84287 0.0
Mg91 Mg 0.37646 0.98867 0.89097 0.0
C92 C 0.38396 0.13293 0.94888 0.0
O93 O 0.41141 0.15353 0.93883 0.0
C94 C 0.38194 0.9766 0.82661 0.0
O95 O 0.39477 0.87787 0.83636 0.0
C96 C 0.31484 0.88932 0.89736 0.0
O97 O 0.31133 0.00487 0.90208 0.0
O98 O 0.34142 0.84858 0.89206 0.0
O99 O 0.36431 0.08746 0.93155 0.0
O100 O 0.42499 0.94121 0.89463 0.0
C101 C 0.44338 0.02395 0.88667 0.0
O102 O 0.43226 0.12593 0.87694 0.0
O103 O 0.37169 0.0525 0.84531 0.0
Mg104 Mg 0.8801 0.49317 0.38937 0.0
C105 C 0.8846 0.37678 0.44943 0.0
O106 O 0.91266 0.41325 0.44559 0.0
C107 C 0.88446 0.50142 0.32416 0.0
O108 O 0.90399 0.58257 0.33329 0.0
C109 C 0.82146 0.61176 0.39688 0.0
O110 O 0.81578 0.49615 0.39857 0.0
O111 O 0.84895 0.6467 0.39353 0.0
O112 O 0.86592 0.38567 0.428 0.0
O113 O 0.93019 0.50402 0.39357 0.0
C114 C 0.94972 0.58542 0.38804 0.0
O115 O 0.94075 0.69051 0.3782 0.0
O116 O 0.87053 0.43861 0.3435 0.0
Mg117 Mg 0.14632 0.49043 0.39001 0.0
C118 C 0.15714 0.54038 0.4531 0.0
O119 O 0.15362 0.42341 0.45139 0.0
C120 C 0.14791 0.47658 0.32563 0.0
O121 O 0.13607 0.37428 0.33441 0.0
C122 C 0.2073 0.38818 0.39283 0.0
O123 O 0.21106 0.50524 0.39188 0.0
O124 O 0.18026 0.34603 0.39303 0.0
O125 O 0.15564 0.60214 0.42942 0.0
O126 O 0.09658 0.46169 0.38736 0.0
C127 C 0.07829 0.48434 0.40844 0.0
O128 O 0.08925 0.50421 0.43491 0.0
O129 O 0.15555 0.55428 0.34506 0.0
Mg130 Mg 0.8775 0.47767 0.13172 0.0
C131 C 0.88081 0.53834 0.06919 0.0
O132 O 0.89805 0.44336 0.07286 0.0
C133 C 0.88287 0.47033 0.19643 0.0
O134 O 0.90049 0.38349 0.18686 0.0
C135 C 0.81561 0.38429 0.12484 0.0
O136 O 0.81256 0.50159 0.12395 0.0
O137 O 0.84219 0.33972 0.12761 0.0
O138 O 0.8688 0.58628 0.09196 0.0
O139 O 0.92607 0.42976 0.13016 0.0
C140 C 0.94438 0.5177 0.12674 0.0
O141 O 0.93326 0.62629 0.1234 0.0
O142 O 0.86979 0.53739 0.17742 0.0
Mg143 Mg 0.14234 0.51891 0.1338 0.0
C144 C 0.15156 0.46721 0.07099 0.0
O145 O 0.15561 0.58347 0.07401 0.0
C146 C 0.15158 0.53892 0.19818 0.0
O147 O 0.15478 0.6493 0.18843 0.0
C148 C 0.20485 0.61378 0.12745 0.0
O149 O 0.20835 0.49694 0.12517 0.0
O150 O 0.17811 0.65611 0.13045 0.0
O151 O 0.14697 0.40467 0.09416 0.0
O152 O 0.09429 0.57102 0.13142 0.0
C153 C 0.07618 0.48134 0.13013 0.0
O154 O 0.08758 0.37234 0.13018 0.0
O155 O 0.14707 0.45446 0.17953 0.0
Mg156 Mg 0.14372 0.45759 0.6323 0.0
C157 C 0.16896 0.60777 0.57749 0.0
O158 O 0.19206 0.64248 0.59375 0.0
C159 C 0.14782 0.44976 0.69634 0.0
O160 O 0.14638 0.33775 0.68727 0.0
C161 C 0.20623 0.36692 0.63609 0.0
O162 O 0.20857 0.48168 0.64248 0.0
O163 O 0.18 0.32308 0.63076 0.0
O164 O 0.14731 0.54849 0.58916 0.0
O165 O 0.09605 0.4007 0.63225 0.0
C166 C 0.07767 0.48932 0.63189 0.0
O167 O 0.08873 0.59899 0.63147 0.0
O168 O 0.14812 0.53342 0.67701 0.0
Mg169 Mg 0.88004 0.48086 0.63216 0.0
C170 C 0.85628 0.36491 0.57413 0.0
O171 O 0.82999 0.40779 0.5826 0.0
C172 C 0.88151 0.50339 0.69622 0.0
O173 O 0.89088 0.60741 0.68599 0.0
C174 C 0.81721 0.57516 0.63327 0.0
O175 O 0.81393 0.46193 0.64081 0.0
O176 O 0.84384 0.61491 0.62782 0.0
O177 O 0.87857 0.36718 0.5921 0.0
O178 O 0.92764 0.53911 0.63161 0.0
C179 C 0.94619 0.45114 0.63071 0.0
O180 O 0.93541 0.34114 0.62965 0.0
O181 O 0.8748 0.42 0.67791 0.0
Mg182 Mg 0.14514 0.49329 0.88855 0.0
C183 C 0.13987 0.34714 0.94692 0.0
O184 O 0.11342 0.31337 0.93648 0.0
C185 C 0.14492 0.50904 0.82392 0.0
O186 O 0.13553 0.61443 0.83322 0.0
C187 C 0.20563 0.59795 0.89196 0.0
O188 O 0.20989 0.48123 0.89263 0.0
O189 O 0.17858 0.63848 0.89009 0.0
O190 O 0.1583 0.40141 0.92985 0.0
O191 O 0.09642 0.53735 0.89171 0.0
C192 C 0.07792 0.45332 0.8849 0.0
O193 O 0.0887 0.34923 0.87623 0.0
O194 O 0.15133 0.4283 0.843 0.0
Mg195 Mg 0.88086 0.47768 0.88766 0.0
C196 C 0.86 0.61368 0.94441 0.0
O197 O 0.83274 0.60865 0.93281 0.0
C198 C 0.87831 0.45668 0.82403 0.0
O199 O 0.87968 0.34676 0.83448 0.0
C200 C 0.81653 0.39322 0.88495 0.0
O201 O 0.81454 0.504 0.87525 0.0
O202 O 0.84252 0.35145 0.89201 0.0
O203 O 0.88273 0.58438 0.92865 0.0
O204 O 0.92751 0.41031 0.88696 0.0
C205 C 0.94656 0.49653 0.88493 0.0
O206 O 0.93636 0.60721 0.88352 0.0
O207 O 0.87741 0.54427 0.84228 0.0
C208 C 0.39542 -2e-05 0.50083 0.0
C209 C 0.37622 0.92474 0.4838 0.0
C210 C 0.36702 0.79922 0.52764 0.0
C211 C 0.38322 0.88369 0.54514 0.0
N212 N 0.40692 0.07897 0.54913 0.0
N213 N 0.34177 0.75707 0.48092 0.0
C214 C 0.39585 0.98794 0.53192 0.0
C215 C 0.3616 0.82469 0.49712 0.0
N216 N 0.41384 0.08183 0.48718 0.0
N217 N 0.35713 0.69465 0.54014 0.0
H218 H 0.33799 0.77217 0.45851 0.0
H219 H 0.32787 0.69085 0.48993 0.0
H220 H 0.36017 0.67564 0.56247 0.0
H221 H 0.34775 0.62397 0.52814 0.0
H222 H 0.4306 0.13041 0.49823 0.0
H223 H 0.41461 0.09172 0.46432 0.0
H224 H 0.41351 0.16208 0.54071 0.0
H225 H 0.40651 0.07669 0.57211 0.0
C226 C 0.68993 0.10449 0.52579 0.0
C227 C 0.664 0.13316 0.54321 0.0
C228 C 0.63202 0.12873 0.49874 0.0
C229 C 0.65783 0.09925 0.48144 0.0
N230 N 0.71211 0.08655 0.47683 0.0
N231 N 0.61226 0.20205 0.54544 0.0
C232 C 0.68709 0.09743 0.49446 0.0
C233 C 0.63564 0.15503 0.52932 0.0
N234 N 0.71672 0.07497 0.5392 0.0
N235 N 0.60383 0.12651 0.48613 0.0
H236 H 0.61442 0.22338 0.56776 0.0
H237 H 0.59178 0.23007 0.53627 0.0
H238 H 0.60061 0.1123 0.46362 0.0
H239 H 0.58368 0.13231 0.49805 0.0
H240 H 0.73522 0.03865 0.52803 0.0
H241 H 0.71992 0.07826 0.56193 0.0
H242 H 0.73429 0.09568 0.48448 0.0
H243 H 0.71056 0.07922 0.45394 0.0
C244 C 0.35902 0.16218 0.02982 0.0
C245 C 0.37619 0.06748 0.04259 0.0
C246 C 0.39521 0.01136 0.99382 0.0
C247 C 0.38034 0.11174 0.98113 0.0
N248 N 0.35092 0.29204 0.98729 0.0
N249 N 0.41739 0.92617 0.03773 0.0
C250 C 0.36311 0.19042 0.99924 0.0
C251 C 0.39644 -5e-05 0.02486 0.0
N252 N 0.33798 0.22137 0.04648 0.0
N253 N 0.40672 0.92265 0.97623 0.0
H254 H 0.4197 0.91833 0.06055 0.0
H255 H 0.4346 0.88374 0.02588 0.0
H256 H 0.40462 0.92331 0.95333 0.0
H257 H 0.41523 0.84212 0.98451 0.0
H258 H 0.32246 0.28232 0.0378 0.0
H259 H 0.33482 0.20377 0.06886 0.0
H260 H 0.34063 0.35917 0.99976 0.0
H261 H 0.35297 0.31274 0.96494 0.0
C262 C 0.68644 0.9163 0.99444 0.0
C263 C 0.66246 0.87104 0.97639 0.0
C264 C 0.6306 0.84489 0.02062 0.0
C265 C 0.65449 0.89045 0.03842 0.0
N266 N 0.70734 0.94016 0.04373 0.0
N267 N 0.61484 0.765 0.9731 0.0
C268 C 0.68322 0.9152 0.02575 0.0
C269 C 0.63552 0.82648 0.98982 0.0
N270 N 0.71125 0.96967 0.98185 0.0
N271 N 0.60286 0.82325 0.03306 0.0
H272 H 0.61811 0.74824 0.95068 0.0
H273 H 0.59597 0.72123 0.98183 0.0
H274 H 0.59914 0.82911 0.05575 0.0
H275 H 0.58332 0.80489 0.02091 0.0
H276 H 0.72741 0.01773 0.99379 0.0
H277 H 0.71467 0.97539 0.9592 0.0
H278 H 0.72961 0.9476 0.0362 0.0
H279 H 0.70545 0.94184 0.06665 0.0
C280 C 0.86234 0.25507 0.52549 0.0
C281 C 0.86284 0.36369 0.54194 0.0
C282 C 0.87033 0.47853 0.49632 0.0
C283 C 0.87329 0.36971 0.48029 0.0
N284 N 0.87411 0.15376 0.47922 0.0
N285 N 0.87222 0.57746 0.54381 0.0
C286 C 0.86968 0.25751 0.49474 0.0
C287 C 0.8681 0.47509 0.52754 0.0
N288 N 0.85448 0.15031 0.53919 0.0
N289 N 0.86916 0.58562 0.48158 0.0
H290 H 0.87114 0.57931 0.56677 0.0
H291 H 0.87948 0.6586 0.53481 0.0
H292 H 0.87078 0.59203 0.45868 0.0
H293 H 0.8636 0.66676 0.49167 0.0
H294 H 0.85074 0.06979 0.52807 0.0
H295 H 0.84983 0.14582 0.56173 0.0
H296 H 0.87508 0.06908 0.48889 0.0
H297 H 0.87837 0.15332 0.45658 0.0
C298 C 0.14564 0.67614 0.52955 0.0
C299 C 0.16992 0.6186 0.5446 0.0
C300 C 0.19123 0.55608 0.49679 0.0
C301 C 0.16428 0.59368 0.48252 0.0
N302 N 0.11628 0.69609 0.48435 0.0
N303 N 0.21554 0.49762 0.54239 0.0
C304 C 0.14183 0.65768 0.49855 0.0
C305 C 0.19303 0.55907 0.52815 0.0
N306 N 0.12651 0.74958 0.54496 0.0
N307 N 0.21515 0.51732 0.48011 0.0
H308 H 0.21806 0.49648 0.5652 0.0
H309 H 0.23057 0.43996 0.53174 0.0
H310 H 0.21435 0.51558 0.45711 0.0
H311 H 0.23659 0.49898 0.4887 0.0
H312 H 0.10987 0.80259 0.53519 0.0
H313 H 0.12903 0.76541 0.56752 0.0
H314 H 0.09714 0.72914 0.49509 0.0
H315 H 0.11395 0.69142 0.46151 0.0
C316 C 0.87161 0.70048 0.99495 0.0
C317 C 0.86299 0.60146 0.97701 0.0
C318 C 0.85847 0.47507 0.0211 0.0
C319 C 0.87101 0.56859 0.03859 0.0
N320 N 0.8915 0.76881 0.0422 0.0
N321 N 0.85301 0.38867 0.97252 0.0
C322 C 0.87781 0.68169 0.02562 0.0
C323 C 0.85756 0.48736 0.98999 0.0
N324 N 0.8737 0.81218 0.98267 0.0
N325 N 0.84688 0.3746 0.03433 0.0
H326 H 0.8526 0.39241 0.94958 0.0
H327 H 0.85247 0.30115 0.98062 0.0
H328 H 0.847 0.362 0.05711 0.0
H329 H 0.83434 0.30967 0.02307 0.0
H330 H 0.877 0.89034 0.99489 0.0
H331 H 0.86991 0.8275 0.96027 0.0
H332 H 0.90013 0.84827 0.03345 0.0
H333 H 0.89588 0.75837 0.06465 0.0
C334 C 0.12456 0.47944 0.02278 0.0
C335 C 0.14619 0.41936 0.04064 0.0
C336 C 0.16127 0.29764 0.99758 0.0
C337 C 0.1425 0.36969 0.97927 0.0
N338 N 0.11158 0.54745 0.9739 0.0
N339 N 0.18708 0.27678 0.04481 0.0
C340 C 0.12552 0.46535 0.99174 0.0
C341 C 0.16493 0.32883 0.02807 0.0
N342 N 0.10257 0.54874 0.03557 0.0
N343 N 0.17536 0.19935 0.98588 0.0
H344 H 0.19002 0.2965 0.06712 0.0
H345 H 0.20363 0.21987 0.03627 0.0
H346 H 0.1736 0.17664 0.96361 0.0
H347 H 0.18697 0.13621 0.99849 0.0
H348 H 0.08434 0.58442 0.02384 0.0
H349 H 0.10066 0.55959 0.05835 0.0
H350 H 0.10156 0.62583 0.98184 0.0
H351 H 0.11282 0.54433 0.95096 0.0
C352 C 0.53171 0.09085 0.40747 0.0
C353 C 0.54775 0.01516 0.3875 0.0
C354 C 0.49903 0.94371 0.36747 0.0
C355 C 0.48308 0.00931 0.3895 0.0
N356 N 0.48458 0.1317 0.43336 0.0
N357 N 0.54673 0.8588 0.35069 0.0
C358 C 0.49949 0.07989 0.41019 0.0
C359 C 0.5314 0.93788 0.36829 0.0
N360 N 0.5472 0.17421 0.42377 0.0
N361 N 0.48326 0.89177 0.3448 0.0
H362 H 0.57035 0.85508 0.34971 0.0
H363 H 0.53611 0.79065 0.33877 0.0
H364 H 0.4597 0.89736 0.34282 0.0
H365 H 0.49359 0.85383 0.32636 0.0
H366 H 0.53658 0.24145 0.43596 0.0
H367 H 0.57079 0.18166 0.42358 0.0
H368 H 0.49561 0.17174 0.45115 0.0
H369 H 0.46112 0.12643 0.43609 0.0
C370 C 0.49586 0.91555 0.15665 0.0
C371 C 0.4803 0.96653 0.13231 0.0
C372 C 0.52908 -0.00329 0.1067 0.0
C373 C 0.54475 0.95751 0.13231 0.0
N374 N 0.54338 0.89735 0.18337 0.0
N375 N 0.48173 0.06411 0.08486 0.0
C376 C 0.5282 0.92098 0.1577 0.0
C377 C 0.49685 0.00972 0.10755 0.0
N378 N 0.47975 0.86183 0.17879 0.0
N379 N 0.54484 0.01633 0.08116 0.0
H380 H 0.45808 0.06781 0.08365 0.0
H381 H 0.49255 0.11096 0.068 0.0
H382 H 0.56838 0.00799 0.07967 0.0
H383 H 0.53451 0.03157 0.06087 0.0
H384 H 0.48976 0.81209 0.1956 0.0
H385 H 0.45609 0.85791 0.17903 0.0
H386 H 0.53259 0.88306 0.2035 0.0
H387 H 0.56694 0.90321 0.18529 0.0
C388 C 0.52957 0.02166 0.60965 0.0
C389 C 0.54655 0.98978 0.63509 0.0
C390 C 0.49927 0.97141 0.66352 0.0
C391 C 0.48209 0.99226 0.63745 0.0
N392 N 0.48088 0.02175 0.58474 0.0
N393 N 0.54802 0.92293 0.68556 0.0
C394 C 0.49723 0.01426 0.61027 0.0
C395 C 0.53149 0.96081 0.6618 0.0
N396 N 0.54439 0.0599 0.58486 0.0
N397 N 0.48482 0.9673 0.69021 0.0
H398 H 0.57168 0.91884 0.68551 0.0
H399 H 0.53833 0.88731 0.70458 0.0
H400 H 0.46139 0.97737 0.69246 0.0
H401 H 0.49611 0.96529 0.71036 0.0
H402 H 0.53347 0.09927 0.56695 0.0
H403 H 0.56799 0.05885 0.5828 0.0
H404 H 0.49063 0.02261 0.56383 0.0
H405 H 0.45729 0.0183 0.58419 0.0
C406 C 0.5258 0.03367 0.86133 0.0
C407 C 0.54151 0.01184 0.8881 0.0
C408 C 0.4928 0.9924 0.91425 0.0
C409 C 0.47704 0.00783 0.88715 0.0
N410 N 0.47842 0.01945 0.83412 0.0
N411 N 0.54054 0.95304 0.93924 0.0
C412 C 0.49356 0.02234 0.86046 0.0
C413 C 0.52514 0.98567 0.9143 0.0
N414 N 0.54179 0.06499 0.83667 0.0
N415 N 0.47701 0.99009 0.94016 0.0
H416 H 0.5642 0.95409 0.94072 0.0
H417 H 0.53002 0.91795 0.95791 0.0
H418 H 0.45345 0.99258 0.941 0.0
H419 H 0.48718 -0.00582 0.96086 0.0
H420 H 0.53174 0.09554 0.8173 0.0
H421 H 0.56543 0.06825 0.83623 0.0
H422 H 0.48916 0.01813 0.81368 0.0
H423 H 0.455 0.00649 0.83263 0.0
C424 C 0.99643 0.45652 0.37977 0.0
C425 C 0.9828 0.56014 0.3926 0.0
C426 C 0.03278 0.62151 0.41146 0.0
C427 C 0.0455 0.5101 0.40228 0.0
N428 N 0.03788 0.31313 0.38133 0.0
N429 N 0.98736 0.72811 0.42606 0.0
C430 C 0.0269 0.42521 0.38737 0.0
C431 C 1.0008 0.63904 0.40995 0.0
N432 N 0.9808 0.39071 0.35931 0.0
N433 N 0.05131 0.71351 0.42025 0.0
H434 H 0.96394 0.74194 0.42646 0.0
H435 H 0.99914 0.77995 0.44144 0.0
H436 H 0.07494 0.70782 0.41996 0.0
H437 H 0.04336 0.80001 0.42444 0.0
H438 H 0.99065 0.32175 0.34707 0.0
H439 H 0.95896 0.41279 0.35228 0.0
H440 H 0.02435 0.24343 0.37337 0.0
H441 H 0.05987 0.28643 0.38682 0.0
C442 C 0.02662 0.54552 0.15329 0.0
C443 C 0.04252 0.49599 0.12891 0.0
C444 C 0.99383 0.44322 0.10535 0.0
C445 C 0.97799 0.50203 0.12849 0.0
N446 N 0.97894 0.61665 0.17369 0.0
N447 N 0.0417 0.41157 0.07995 0.0
C448 C 0.99434 0.5559 0.15214 0.0
C449 C 0.02621 0.44813 0.10451 0.0
N450 N 0.04222 0.57621 0.17827 0.0
N451 N 0.97796 0.38179 0.08426 0.0
H452 H 0.06533 0.41328 0.0785 0.0
H453 H 0.03129 0.38894 0.0601 0.0
H454 H 0.95433 0.3793 0.08356 0.0
H455 H 0.98805 0.3256 0.06875 0.0
H456 H 0.03185 0.59982 0.19806 0.0
H457 H 0.06574 0.56882 0.18004 0.0
H458 H 0.98948 0.67146 0.18924 0.0
H459 H 0.9553 0.61696 0.17528 0.0
C460 C 0.99654 0.43795 0.6051 0.0
C461 C 0.97969 0.46886 0.6307 0.0
C462 C 0.0272 0.51091 0.65733 0.0
C463 C 0.0441 0.47272 0.63228 0.0
N464 N 0.04539 0.38802 0.58337 0.0
N465 N 0.97842 0.51942 0.68235 0.0
C466 C 0.02889 0.43218 0.60651 0.0
C467 C 0.99487 0.50188 0.65712 0.0
N468 N 0.98152 0.41865 0.5791 0.0
N469 N 0.04213 0.55657 0.68132 0.0
H470 H 0.95475 0.51653 0.68288 0.0
H471 H 0.9881 0.52916 0.70315 0.0
H472 H 0.06574 0.55669 0.68325 0.0
H473 H 0.03129 0.59981 0.69874 0.0
H474 H 0.9923 0.40783 0.55886 0.0
H475 H 0.95793 0.42349 0.57724 0.0
H476 H 0.03579 0.34466 0.56528 0.0
H477 H 0.06907 0.38722 0.58304 0.0
C478 C 0.02777 0.45083 0.9116 0.0
C479 C 0.0444 0.47141 0.88524 0.0
C480 C 0.99664 0.50537 0.85838 0.0
C481 C 0.97997 0.47657 0.8843 0.0
N482 N 0.97912 0.40918 0.93478 0.0
N483 N 0.04519 0.50657 0.83285 0.0
C484 C 0.99541 0.44495 0.91064 0.0
C485 C 0.02894 0.49532 0.85842 0.0
N486 N 0.04295 0.4405 0.93774 0.0
N487 N 0.98157 0.54459 0.83383 0.0
H488 H 0.06888 0.50773 0.83234 0.0
H489 H 0.03538 0.50863 0.81198 0.0
H490 H 0.95795 0.54718 0.83236 0.0
H491 H 0.99233 0.58077 0.81543 0.0
H492 H 0.0324 0.43793 0.95826 0.0
H493 H 0.06649 0.44489 0.93911 0.0
H494 H 0.98887 0.37205 0.95357 0.0
H495 H 0.95544 0.40853 0.93537 0.0
C496 C 0.25493 0.32048 0.36725 0.0
C497 C 0.23474 0.3097 0.39161 0.0
C498 C 0.26958 0.16519 0.41481 0.0
C499 C 0.29078 0.18306 0.39151 0.0
N500 N 0.30514 0.28529 0.3468 0.0
N501 N 0.22458 0.2356 0.44052 0.0
C502 C 0.28392 0.26342 0.36816 0.0
C503 C 0.24242 0.23504 0.41584 0.0
N504 N 0.24579 0.38148 0.34262 0.0
N505 N 0.27537 0.08085 0.43599 0.0
H506 H 0.2044 0.28406 0.44199 0.0
H507 H 0.23075 0.19534 0.46034 0.0
H508 H 0.2958 0.03388 0.4373 0.0
H509 H 0.25932 0.05232 0.45133 0.0
H510 H 0.25771 0.3816 0.32281 0.0
H511 H 0.2248 0.42425 0.34103 0.0
H512 H 0.30318 0.35333 0.33119 0.0
H513 H 0.32587 0.24043 0.3457 0.0
C514 C 0.74898 0.76984 0.42118 0.0
C515 C 0.73869 0.81841 0.39401 0.0
C516 C 0.78422 0.73971 0.36899 0.0
C517 C 0.79517 0.69589 0.39639 0.0
N518 N 0.7905 0.6808 0.44909 0.0
N519 N 0.7475 0.86179 0.34262 0.0
C520 C 0.77818 0.71419 0.42265 0.0
C521 C 0.75671 0.80725 0.36812 0.0
N522 N 0.73069 0.77647 0.44551 0.0
N523 N 0.79937 0.71149 0.34358 0.0
H524 H 0.72646 0.90385 0.34038 0.0
H525 H 0.76121 0.8708 0.32405 0.0
H526 H 0.81988 0.66477 0.34338 0.0
H527 H 0.79088 0.72753 0.32253 0.0
H528 H 0.7352 0.73306 0.46533 0.0
H529 H 0.70972 0.81995 0.44543 0.0
H530 H 0.78093 0.70056 0.46949 0.0
H531 H 0.81183 0.64062 0.45078 0.0
C532 C 0.23981 0.77081 0.10613 0.0
C533 C 0.23231 0.69162 0.12954 0.0
C534 C 0.27976 0.74603 0.15512 0.0
C535 C 0.28839 0.81748 0.13057 0.0
N536 N 0.27897 0.88537 0.08096 0.0
N537 N 0.24533 0.59794 0.1758 0.0
C538 C 0.26895 0.82699 0.10566 0.0
C539 C 0.25243 0.67735 0.15384 0.0
N540 N 0.21904 0.79279 0.0844 0.0
N541 N 0.29695 0.74847 0.18024 0.0
H542 H 0.22433 0.55484 0.17725 0.0
H543 H 0.2606 0.57062 0.19197 0.0
H544 H 0.31731 0.79579 0.1819 0.0
H545 H 0.29017 0.71077 0.20017 0.0
H546 H 0.22164 0.85951 0.06853 0.0
H547 H 0.19794 0.75051 0.08348 0.0
H548 H 0.26747 0.88474 0.06091 0.0
H549 H 0.30025 0.92626 0.07962 0.0
C550 C 0.75228 0.176 0.15157 0.0
C551 C 0.7324 0.17759 0.12684 0.0
C552 C 0.76822 0.30747 0.10003 0.0
C553 C 0.78775 0.30818 0.12505 0.0
N554 N 0.79602 0.26273 0.17638 0.0
N555 N 0.71949 0.25176 0.07857 0.0
C556 C 0.77925 0.24703 0.15125 0.0
C557 C 0.73976 0.24593 0.10141 0.0
N558 N 0.74531 0.10635 0.17549 0.0
N559 N 0.77743 0.36282 0.07463 0.0
H560 H 0.69925 0.20304 0.07813 0.0
H561 H 0.72166 0.30948 0.06068 0.0
H562 H 0.79753 0.41191 0.07311 0.0
H563 H 0.76627 0.35526 0.0545 0.0
H564 H 0.76057 0.08741 0.19238 0.0
H565 H 0.7245 0.06256 0.17797 0.0
H566 H 0.78937 0.23232 0.19708 0.0
H567 H 0.8157 0.31486 0.17716 0.0
C568 C 0.74569 0.74847 0.65452 0.0
C569 C 0.73471 0.78337 0.62646 0.0
C570 C 0.78046 0.69936 0.60323 0.0
C571 C 0.78974 0.65271 0.63103 0.0
N572 N 0.77858 0.618 0.68259 0.0
N573 N 0.73951 0.78236 0.5736 0.0
C574 C 0.77148 0.6723 0.65647 0.0
C575 C 0.75159 0.75653 0.60065 0.0
N576 N 0.7326 0.79415 0.67944 0.0
N577 N 0.79911 0.68901 0.57928 0.0
H578 H 0.71848 0.82415 0.57098 0.0
H579 H 0.74899 0.75409 0.55375 0.0
H580 H 0.81969 0.64332 0.57981 0.0
H581 H 0.79529 0.73272 0.55935 0.0
H582 H 0.74163 0.78277 0.70048 0.0
H583 H 0.71444 0.8541 0.67882 0.0
H584 H 0.76407 0.61757 0.70074 0.0
H585 H 0.79794 0.56588 0.68564 0.0
C586 C 0.24447 0.23503 0.61002 0.0
C587 C 0.2342 0.29179 0.63626 0.0
C588 C 0.28224 0.24057 0.66095 0.0
C589 C 0.29173 0.17749 0.63538 0.0
N590 N 0.28089 0.10163 0.58668 0.0
N591 N 0.24036 0.32802 0.68831 0.0
C592 C 0.27248 0.17075 0.61026 0.0
C593 C 0.25236 0.28923 0.66215 0.0
N594 N 0.22815 0.24689 0.58454 0.0
N595 N 0.30182 0.25403 0.68411 0.0
H596 H 0.21815 0.35961 0.69024 0.0
H597 H 0.25113 0.31799 0.70858 0.0
H598 H 0.32344 0.21622 0.68439 0.0
H599 H 0.29763 0.31011 0.70203 0.0
H600 H 0.23616 0.22081 0.56392 0.0
H601 H 0.20722 0.29036 0.58356 0.0
H602 H 0.26639 0.08022 0.56932 0.0
H603 H 0.30203 0.05982 0.58518 0.0
C604 C 0.74255 0.24871 0.91153 0.0
C605 C 0.7315 0.19968 0.88468 0.0
C606 C 0.77851 0.26128 0.8595 0.0
C607 C 0.78858 0.31795 0.88578 0.0
N608 N 0.77896 0.37884 0.93591 0.0
N609 N 0.73647 0.17471 0.83209 0.0
C610 C 0.77025 0.31527 0.91156 0.0
C611 C 0.74887 0.20985 0.85839 0.0
N612 N 0.72726 0.22741 0.93726 0.0
N613 N 0.79754 0.25515 0.83571 0.0
H614 H 0.71467 0.13855 0.83032 0.0
H615 H 0.74651 0.19088 0.8117 0.0
H616 H 0.81914 0.29371 0.83561 0.0
H617 H 0.79305 0.20399 0.81699 0.0
H618 H 0.73597 0.24755 0.95803 0.0
H619 H 0.70661 0.18154 0.93811 0.0
H620 H 0.76501 0.39344 0.95409 0.0
H621 H 0.79969 0.42346 0.93722 0.0
C622 C 0.24036 0.73848 0.91942 0.0
C623 C 0.23256 0.67838 0.89285 0.0
C624 C 0.27778 0.7624 0.86882 0.0
C625 C 0.28735 0.81166 0.89613 0.0
N626 N 0.27982 0.83564 0.94842 0.0
N627 N 0.24634 0.61636 0.84358 0.0
C628 C 0.26911 0.79713 0.92172 0.0
C629 C 0.25209 0.68498 0.86797 0.0
N630 N 0.22031 0.7393 0.94245 0.0
N631 N 0.29209 0.79547 0.84336 0.0
H632 H 0.22734 0.5609 0.84168 0.0
H633 H 0.26162 0.60751 0.82618 0.0
H634 H 0.30997 0.85692 0.84305 0.0
H635 H 0.28424 0.77233 0.82244 0.0
H636 H 0.22313 0.79193 0.96124 0.0
H637 H 0.19959 0.69375 0.94192 0.0
H638 H 0.26918 0.81721 0.96841 0.0
H639 H 0.30085 0.8778 0.95092 0.0
C640 C 0.35158 0.98577 0.28039 0.0
C641 C 0.37955 0.0125 0.2946 0.0
C642 C 0.40538 0.01968 0.24642 0.0
C643 C 0.37718 -0.00212 0.23221 0.0
N644 N 0.32286 0.9779 0.23454 0.0
N645 N 0.43261 0.06587 0.29163 0.0
C646 C 0.3501 0.98558 0.24893 0.0
C647 C 0.40631 0.03282 0.2777 0.0
N648 N 0.32646 0.9606 0.29704 0.0
N649 N 0.43143 0.02385 0.23 0.0
H650 H 0.43487 0.06797 0.31451 0.0
H651 H 0.4519 0.09651 0.28069 0.0
H652 H 0.43138 0.02178 0.20701 0.0
H653 H 0.45319 0.02372 0.23895 0.0
H654 H 0.30612 0.92846 0.2884 0.0
H655 H 0.32642 0.96459 0.32001 0.0
H656 H 0.30184 0.97897 0.24501 0.0
H657 H 0.32114 0.98067 0.21161 0.0
C658 C 0.64832 0.87808 0.24365 0.0
C659 C 0.64562 0.99005 0.22893 0.0
C660 C 0.64381 0.0928 0.27704 0.0
C661 C 0.64824 0.98158 0.29173 0.0
N662 N 0.66567 0.77643 0.28767 0.0
N663 N 0.65232 0.20526 0.23219 0.0
C664 C 0.65396 0.8767 0.27459 0.0
C665 C 0.64701 0.09788 0.24582 0.0
N666 N 0.64388 0.7728 0.22876 0.0
N667 N 0.63483 0.19247 0.2923 0.0
H668 H 0.65679 0.21191 0.20965 0.0
H669 H 0.65604 0.28486 0.24378 0.0
H670 H 0.63085 0.19287 0.31492 0.0
H671 H 0.62837 0.27191 0.2819 0.0
H672 H 0.64257 0.68986 0.23935 0.0
H673 H 0.63853 0.7688 0.20642 0.0
H674 H 0.67259 0.70119 0.27575 0.0
H675 H 0.67194 0.77436 0.30986 0.0
C676 C 0.62698 0.09021 0.77273 0.0
C677 C 0.64708 0.02325 0.79107 0.0
C678 C 0.66501 0.91303 0.74745 0.0
C679 C 0.64712 0.98798 0.72881 0.0
N680 N 0.61336 0.15716 0.72358 0.0
N681 N 0.68984 0.88905 0.79481 0.0
C682 C 0.62905 0.08013 0.74143 0.0
C683 C 0.66732 0.93935 0.77816 0.0
N684 N 0.60459 0.15849 0.78522 0.0
N685 N 0.67953 0.81506 0.73603 0.0
H686 H 0.69277 0.90759 0.81717 0.0
H687 H 0.70742 0.83812 0.78589 0.0
H688 H 0.67938 0.79368 0.71369 0.0
H689 H 0.68979 0.74956 0.74904 0.0
H690 H 0.58703 0.19768 0.77326 0.0
H691 H 0.60167 0.16694 0.8079 0.0
H692 H 0.60299 0.23523 0.73123 0.0
H693 H 0.61234 0.14809 0.70074 0.0
C694 C 0.36154 0.91766 0.77655 0.0
C695 C 0.37978 -0.00437 0.79411 0.0
C696 C 0.40133 0.08183 0.74892 0.0
C697 C 0.38019 0.01539 0.73154 0.0
N698 N 0.33548 0.88946 0.73004 0.0
N699 N 0.41411 0.16442 0.79681 0.0
C700 C 0.35901 0.93834 0.74566 0.0
C701 C 0.39855 0.08233 0.78022 0.0
N702 N 0.34696 0.82225 0.78914 0.0
N703 N 0.42525 0.13886 0.7357 0.0
H704 H 0.41358 0.16529 0.81978 0.0
H705 H 0.42552 0.23764 0.78773 0.0
H706 H 0.42925 0.13558 0.71307 0.0
H707 H 0.44306 0.1779 0.74744 0.0
H708 H 0.33607 0.75566 0.77689 0.0
H709 H 0.34804 0.80339 0.81159 0.0
H710 H 0.31762 0.84305 0.73995 0.0
H711 H 0.33199 0.90568 0.70766 0.0
C712 C 0.87318 0.3756 0.24597 0.0
C713 C 0.87759 0.48176 0.22897 0.0
C714 C 0.87578 0.59881 0.27479 0.0
C715 C 0.87823 0.49159 0.29175 0.0
N716 N 0.8832 0.27516 0.2922 0.0
N717 N 0.88721 0.69578 0.22841 0.0
C718 C 0.87766 0.37891 0.27707 0.0
C719 C 0.87969 0.59416 0.24364 0.0
N720 N 0.86398 0.27179 0.23255 0.0
N721 N 0.869 0.70513 0.28834 0.0
H722 H 0.89142 0.6968 0.20583 0.0
H723 H 0.89217 0.77709 0.23879 0.0
H724 H 0.8645 0.71139 0.31086 0.0
H725 H 0.86431 0.78367 0.2767 0.0
H726 H 0.85781 0.19501 0.24426 0.0
H727 H 0.85908 0.2669 0.21009 0.0
H728 H 0.88625 0.19256 0.28177 0.0
H729 H 0.88767 0.27264 0.31473 0.0
C730 C 0.16988 0.42341 0.27588 0.0
C731 C 0.1509 0.49896 0.2933 0.0
C732 C 0.12967 0.58663 0.24807 0.0
C733 C 0.15044 0.51864 0.23074 0.0
N734 N 0.1937 0.38657 0.22843 0.0
N735 N 0.11532 0.66319 0.29617 0.0
C736 C 0.17141 0.44045 0.24471 0.0
C737 C 0.13179 0.58449 0.27943 0.0
N738 N 0.18626 0.33412 0.28908 0.0
N739 N 0.1067 0.64822 0.23455 0.0
H740 H 0.11469 0.66044 0.31913 0.0
H741 H 0.10397 0.73703 0.28743 0.0
H742 H 0.10376 0.6498 0.21176 0.0
H743 H 0.08876 0.68806 0.24586 0.0
H744 H 0.19749 0.26692 0.27742 0.0
H745 H 0.18716 0.32241 0.31187 0.0
H746 H 0.21188 0.34028 0.23769 0.0
H747 H 0.19546 0.39595 0.20563 0.0
C748 C 0.169 0.55307 0.77452 0.0
C749 C 0.14724 0.48811 0.79146 0.0
C750 C 0.12288 0.42018 0.74562 0.0
C751 C 0.14656 0.47375 0.72877 0.0
N752 N 0.19482 0.57637 0.72755 0.0
N753 N 0.10571 0.34681 0.79313 0.0
C754 C 0.17031 0.53675 0.7433 0.0
C755 C 0.12498 0.41712 0.77697 0.0
N756 N 0.18825 0.63183 0.7882 0.0
N757 N 0.09752 0.37748 0.73165 0.0
H758 H 0.10594 0.3445 0.8161 0.0
H759 H 0.09121 0.28337 0.78377 0.0
H760 H 0.09455 0.38246 0.70886 0.0
H761 H 0.0781 0.34899 0.74274 0.0
H762 H 0.20214 0.69188 0.77686 0.0
H763 H 0.18885 0.64324 0.81101 0.0
H764 H 0.21451 0.60984 0.73731 0.0
H765 H 0.19654 0.56724 0.70474 0.0
C766 C 0.90108 0.41378 0.74348 0.0
C767 C 0.87948 0.48675 0.72878 0.0
C768 C 0.85632 0.53888 0.77657 0.0
C769 C 0.87951 0.47442 0.79141 0.0
N770 N 0.92767 0.37124 0.78908 0.0
N771 N 0.84006 0.6372 0.73166 0.0
C772 C 0.90286 0.41711 0.77486 0.0
C773 C 0.85822 0.55513 0.74545 0.0
N774 N 0.92016 0.34201 0.72751 0.0
N775 N 0.83162 0.57944 0.79187 0.0
H776 H 0.84006 0.65005 0.70891 0.0
H777 H 0.82669 0.69908 0.74299 0.0
H778 H 0.82905 0.5679 0.81454 0.0
H779 H 0.81237 0.61474 0.78173 0.0
H780 H 0.93396 0.27666 0.73699 0.0
H781 H 0.92066 0.34119 0.70453 0.0
H782 H 0.94697 0.3404 0.7782 0.0
H783 H 0.93042 0.37507 0.81189 0.0
loop_
_geom_bond_atom_site_label_1
_geom_bond_atom_site_label_2
_geom_bond_distance
_geom_bond_site_symmetry_2
_ccdc_geom_bond_type
Mg0 O7 2.141 . S
Mg0 O8 2.048 . S
Mg0 O9 2.048 1_545 S
Mg0 O12 2.141 . S
C1 O2 1.313 . S
C1 O8 1.195 . S
O2 C1 1.313 . S
C3 O4 1.245 . S
C3 O12 1.289 . S
O4 C3 1.245 . S
C5 O6 1.245 . S
C5 O7 1.289 . S
O6 C5 1.245 . S
O7 Mg0 2.141 . S
O7 C5 1.289 . S
O8 Mg0 2.048 . S
O8 C1 1.195 . S
O9 Mg0 2.048 1_565 S
O9 C10 1.195 1_565 S
C10 O9 1.195 1_545 S
C10 O11 1.313 . S
O11 C10 1.313 . S
O12 Mg0 2.141 . S
O12 C3 1.289 . S
Mg13 O20 2.141 . S
Mg13 O21 2.048 . S
Mg13 O22 2.048 1_565 S
Mg13 O25 2.142 . S
C14 O15 1.313 . S
C14 O21 1.195 . S
O15 C14 1.313 . S
C16 O17 1.245 . S
C16 O25 1.295 . S
O17 C16 1.245 . S
C18 O19 1.245 . S
C18 O20 1.289 . S
O19 C18 1.245 . S
O20 Mg13 2.141 . S
O20 C18 1.289 . S
O21 Mg13 2.048 . S
O21 C14 1.195 . S
O22 Mg13 2.048 1_545 S
O22 C23 1.195 1_545 S
C23 O22 1.195 1_565 S
C23 O24 1.313 . S
O24 C23 1.313 . S
O25 Mg13 2.142 . S
O25 C16 1.295 . S
Mg26 O33 2.141 . S
Mg26 O34 2.048 . S
Mg26 O35 2.048 1_565 S
Mg26 O38 2.141 . S
C27 O28 1.313 . S
C27 O34 1.195 . S
O28 C27 1.313 . S
C29 O30 1.245 . S
C29 O38 1.289 . S
O30 C29 1.245 . S
C31 O32 1.245 . S
C31 O33 1.289 . S
O32 C31 1.245 . S
O33 Mg26 2.141 . S
O33 C31 1.289 . S
O34 Mg26 2.048 . S
O34 C27 1.195 . S
O35 Mg26 2.048 1_545 S
O35 C36 1.195 1_545 S
C36 O35 1.195 1_565 S
C36 O37 1.313 . S
O37 C36 1.313 . S
O38 Mg26 2.141 . S
O38 C29 1.289 . S
Mg39 O46 2.141 . S
Mg39 O47 2.048 . S
Mg39 O48 2.048 1_545 S
Mg39 O51 2.142 . S
C40 O41 1.313 . S
C40 O47 1.195 . S
O41 C40 1.313 . S
C42 O43 1.245 . S
C42 O51 1.295 . S
O43 C42 1.245 . S
C44 O45 1.245 . S
C44 O46 1.289 . S
O45 C44 1.245 . S
O46 Mg39 2.141 . S
O46 C44 1.289 . S
O47 Mg39 2.048 . S
O47 C40 1.195 . S
O48 Mg39 2.048 1_565 S
O48 C49 1.195 1_565 S
C49 O48 1.195 1_545 S
C49 O50 1.313 . S
O50 C49 1.313 . S
O51 Mg39 2.142 . S
O51 C42 1.295 . S
Mg52 O59 2.141 . S
Mg52 O60 2.048 . S
Mg52 O61 2.048 . S
Mg52 O64 2.141 . S
C53 O54 1.313 1_565 S
C53 O60 1.195 . S
O54 C53 1.313 1_545 S
C55 O56 1.245 1_565 S
C55 O64 1.289 . S
O56 C55 1.245 1_545 S
C57 O58 1.245 . S
C57 O59 1.289 . S
O58 C57 1.245 . S
O59 Mg52 2.141 . S
O59 C57 1.289 . S
O60 Mg52 2.048 . S
O60 C53 1.195 . S
O61 Mg52 2.048 . S
O61 C62 1.195 . S
C62 O61 1.195 . S
C62 O63 1.313 1_565 S
O63 C62 1.313 1_545 S
O64 Mg52 2.141 . S
O64 C55 1.289 . S
Mg65 O72 2.141 . S
Mg65 O73 2.048 . S
Mg65 O74 2.048 . S
Mg65 O77 2.141 . S
C66 O67 1.313 1_545 S
C66 O73 1.195 . S
O67 C66 1.313 1_565 S
C68 O69 1.245 1_545 S
C68 O77 1.289 . S
O69 C68 1.245 1_565 S
C70 O71 1.245 . S
C70 O72 1.289 . S
O71 C70 1.245 . S
O72 Mg65 2.141 . S
O72 C70 1.289 . S
O73 Mg65 2.048 . S
O73 C66 1.195 . S
O74 Mg65 2.048 . S
O74 C75 1.195 . S
C75 O74 1.195 . S
C75 O76 1.313 1_545 S
O76 C75 1.313 1_565 S
O77 Mg65 2.141 . S
O77 C68 1.289 . S
Mg78 O85 2.141 . S
Mg78 O86 2.048 . S
Mg78 O87 2.048 . S
Mg78 O90 2.141 . S
C79 O80 1.313 1_545 S
C79 O86 1.195 . S
O80 C79 1.313 1_565 S
C81 O82 1.245 1_545 S
C81 O90 1.289 . S
O82 C81 1.245 1_565 S
C83 O84 1.245 . S
C83 O85 1.289 . S
O84 C83 1.245 . S
O85 Mg78 2.141 . S
O85 C83 1.289 . S
O86 Mg78 2.048 . S
O86 C79 1.195 . S
O87 Mg78 2.048 . S
O87 C88 1.195 . S
C88 O87 1.195 . S
C88 O89 1.313 1_545 S
O89 C88 1.313 1_565 S
O90 Mg78 2.141 . S
O90 C81 1.289 . S
Mg91 O98 2.141 . S
Mg91 O99 2.048 . S
Mg91 O100 2.048 . S
Mg91 O103 2.141 . S
C92 O93 1.313 1_565 S
C92 O99 1.195 . S
O93 C92 1.313 1_545 S
C94 O95 1.245 1_565 S
C94 O103 1.289 . S
O95 C94 1.245 1_545 S
C96 O97 1.245 . S
C96 O98 1.289 . S
O97 C96 1.245 . S
O98 Mg91 2.141 . S
O98 C96 1.289 . S
O99 Mg91 2.048 . S
O99 C92 1.195 . S
O100 Mg91 2.048 . S
O100 C101 1.195 . S
C101 O100 1.195 . S
C101 O102 1.313 1_565 S
O102 C101 1.313 1_545 S
O103 Mg91 2.141 . S
O103 C94 1.289 . S
Mg104 O111 2.141 . S
Mg104 O112 2.048 . S
Mg104 O113 2.048 . S
Mg104 O116 2.141 . S
C105 O106 1.313 . S
C105 O112 1.195 . S
O106 C105 1.313 . S
C107 O108 1.245 . S
C107 O116 1.289 . S
O108 C107 1.245 . S
C109 O110 1.245 . S
C109 O111 1.289 . S
O110 C109 1.245 . S
O111 Mg104 2.141 . S
O111 C109 1.289 . S
O112 Mg104 2.048 . S
O112 C105 1.195 . S
O113 Mg104 2.048 . S
O113 C114 1.195 . S
C114 O113 1.195 . S
C114 O115 1.313 . S
O115 C114 1.313 . S
O116 Mg104 2.141 . S
O116 C107 1.289 . S
Mg117 O124 2.141 . S
Mg117 O125 2.048 . S
Mg117 O126 2.048 . S
Mg117 O129 2.141 . S
C118 O119 1.313 . S
C118 O125 1.195 . S
O119 C118 1.313 . S
C120 O121 1.245 . S
C120 O129 1.289 . S
O121 C120 1.245 . S
C122 O123 1.245 . S
C122 O124 1.289 . S
O123 C122 1.245 . S
O124 Mg117 2.141 . S
O124 C122 1.289 . S
O125 Mg117 2.048 . S
O125 C118 1.195 . S
O126 Mg117 2.048 . S
O126 C127 1.195 . S
C127 O126 1.195 . S
C127 O128 1.313 . S
O128 C127 1.313 . S
O129 Mg117 2.141 . S
O129 C120 1.289 . S
Mg130 O137 2.141 . S
Mg130 O138 2.048 . S
Mg130 O139 2.048 . S
Mg130 O142 2.141 . S
C131 O132 1.313 . S
C131 O138 1.195 . S
O132 C131 1.313 . S
C133 O134 1.245 . S
C133 O142 1.289 . S
O134 C133 1.245 . S
C135 O136 1.245 . S
C135 O137 1.289 . S
O136 C135 1.245 . S
O137 Mg130 2.141 . S
O137 C135 1.289 . S
O138 Mg130 2.048 . S
O138 C131 1.195 . S
O139 Mg130 2.048 . S
O139 C140 1.195 . S
C140 O139 1.195 . S
C140 O141 1.313 . S
O141 C140 1.313 . S
O142 Mg130 2.141 . S
O142 C133 1.289 . S
Mg143 O150 2.141 . S
Mg143 O151 2.048 . S
Mg143 O152 2.048 . S
Mg143 O155 2.141 . S
C144 O145 1.313 . S
C144 O151 1.195 . S
O145 C144 1.313 . S
C146 O147 1.245 . S
C146 O155 1.289 . S
O147 C146 1.245 . S
C148 O149 1.245 . S
C148 O150 1.289 . S
O149 C148 1.245 . S
O150 Mg143 2.141 . S
O150 C148 1.289 . S
O151 Mg143 2.048 . S
O151 C144 1.195 . S
O152 Mg143 2.048 . S
O152 C153 1.195 . S
C153 O152 1.195 . S
C153 O154 1.313 . S
O154 C153 1.313 . S
O155 Mg143 2.141 . S
O155 C146 1.289 . S
Mg156 O163 2.141 . S
Mg156 O164 2.048 . S
Mg156 O165 2.048 . S
Mg156 O168 2.141 . S
C157 O158 1.313 . S
C157 O164 1.195 . S
O158 C157 1.313 . S
C159 O160 1.245 . S
C159 O168 1.289 . S
O160 C159 1.245 . S
C161 O162 1.245 . S
C161 O163 1.289 . S
O162 C161 1.245 . S
O163 Mg156 2.141 . S
O163 C161 1.289 . S
O164 Mg156 2.048 . S
O164 C157 1.195 . S
O165 Mg156 2.048 . S
O165 C166 1.195 . S
C166 O165 1.195 . S
C166 O167 1.313 . S
O167 C166 1.313 . S
O168 Mg156 2.141 . S
O168 C159 1.289 . S
Mg169 O176 2.141 . S
Mg169 O177 2.048 . S
Mg169 O178 2.048 . S
Mg169 O181 2.141 . S
C170 O171 1.313 . S
C170 O177 1.195 . S
O171 C170 1.313 . S
C172 O173 1.245 . S
C172 O181 1.289 . S
O173 C172 1.245 . S
C174 O175 1.245 . S
C174 O176 1.289 . S
O175 C174 1.245 . S
O176 Mg169 2.141 . S
O176 C174 1.289 . S
O177 Mg169 2.048 . S
O177 C170 1.195 . S
O178 Mg169 2.048 . S
O178 C179 1.195 . S
C179 O178 1.195 . S
C179 O180 1.313 . S
O180 C179 1.313 . S
O181 Mg169 2.141 . S
O181 C172 1.289 . S
Mg182 O189 2.141 . S
Mg182 O190 2.048 . S
Mg182 O191 2.048 . S
Mg182 O194 2.141 . S
C183 O184 1.313 . S
C183 O190 1.195 . S
O184 C183 1.313 . S
C185 O186 1.245 . S
C185 O194 1.289 . S
O186 C185 1.245 . S
C187 O188 1.245 . S
C187 O189 1.289 . S
O188 C187 1.245 . S
O189 Mg182 2.141 . S
O189 C187 1.289 . S
O190 Mg182 2.048 . S
O190 C183 1.195 . S
O191 Mg182 2.048 . S
O191 C192 1.195 . S
C192 O191 1.195 . S
C192 O193 1.313 . S
O193 C192 1.313 . S
O194 Mg182 2.141 . S
O194 C185 1.289 . S
Mg195 O202 2.141 . S
Mg195 O203 2.048 . S
Mg195 O204 2.048 . S
Mg195 O207 2.141 . S
C196 O197 1.313 . S
C196 O203 1.195 . S
O197 C196 1.313 . S
C198 O199 1.245 . S
C198 O207 1.289 . S
O199 C198 1.245 . S
C200 O201 1.245 . S
C200 O202 1.289 . S
O201 C200 1.245 . S
O202 Mg195 2.141 . S
O202 C200 1.289 . S
O203 Mg195 2.048 . S
O203 C196 1.195 . S
O204 Mg195 2.048 . S
O204 C205 1.195 . S
C205 O204 1.195 . S
C205 O206 1.313 . S
O206 C205 1.313 . S
O207 Mg195 2.141 . S
O207 C198 1.289 . S
C208 C209 1.363 . S
C208 C214 1.379 . S
C208 N216 1.356 . S
C209 C208 1.363 . S
C209 C215 1.363 . S
C210 C211 1.363 . S
C210 C215 1.379 . S
C210 N217 1.356 1_545 S
C211 C210 1.363 . S
C211 C214 1.363 . S
N212 C214 1.356 . S
N212 H224 0.984 . S
N212 H225 0.985 . S
N213 C215 1.356 1_565 S
N213 H218 0.984 . S
N213 H219 0.985 . S
C214 C208 1.379 . S
C214 C211 1.363 . S
C214 N212 1.356 . S
C215 C209 1.363 . S
C215 C210 1.379 . S
C215 N213 1.356 1_545 S
N216 C208 1.356 . S
N216 H222 0.984 . S
N216 H223 0.984 . S
N217 C210 1.356 1_565 S
N217 H220 0.984 . S
N217 H221 0.985 . S
H218 N213 0.984 . S
H219 N213 0.985 . S
H220 N217 0.984 . S
H221 N217 0.985 . S
H222 N216 0.984 . S
H223 N216 0.984 . S
H224 N212 0.984 . S
H225 N212 0.985 . S
C226 C227 1.363 . S
C226 C232 1.379 . S
C226 N234 1.356 . S
C227 C226 1.363 . S
C227 C233 1.363 . S
C228 C229 1.363 . S
C228 C233 1.379 . S
C228 N235 1.356 1_565 S
C229 C228 1.363 . S
C229 C232 1.363 . S
N230 C232 1.356 . S
N230 H242 0.984 . S
N230 H243 0.985 . S
N231 C233 1.356 1_545 S
N231 H236 0.984 . S
N231 H237 0.985 . S
C232 C226 1.379 . S
C232 C229 1.363 . S
C232 N230 1.356 . S
C233 C227 1.363 . S
C233 C228 1.379 . S
C233 N231 1.356 1_565 S
N234 C226 1.356 . S
N234 H240 0.984 . S
N234 H241 0.984 . S
N235 C228 1.356 1_545 S
N235 H238 0.984 . S
N235 H239 0.985 . S
H236 N231 0.984 . S
H237 N231 0.985 . S
H238 N235 0.984 . S
H239 N235 0.985 . S
H240 N234 0.984 . S
H241 N234 0.984 . S
H242 N230 0.984 . S
H243 N230 0.985 . S
C244 C245 1.363 . S
C244 C250 1.379 1_554 S
C244 N252 1.356 1_565 S
C245 C244 1.363 . S
C245 C251 1.363 . S
C246 C247 1.363 . S
C246 C251 1.379 1_556 S
C246 N253 1.356 . S
C247 C246 1.363 . S
C247 C250 1.363 . S
N248 C250 1.356 1_545 S
N248 H260 0.984 . S
N248 H261 0.985 . S
N249 C251 1.356 . S
N249 H254 0.984 . S
N249 H255 0.985 . S
C250 C244 1.379 1_556 S
C250 C247 1.363 . S
C250 N248 1.356 1_565 S
C251 C245 1.363 . S
C251 C246 1.379 1_554 S
C251 N249 1.356 . S
N252 C244 1.356 1_545 S
N252 H258 0.984 . S
N252 H259 0.984 . S
N253 C246 1.356 . S
N253 H256 0.984 . S
N253 H257 0.985 . S
H254 N249 0.984 . S
H255 N249 0.985 . S
H256 N253 0.984 . S
H257 N253 0.985 . S
H258 N252 0.984 . S
H259 N252 0.984 . S
H260 N248 0.984 . S
H261 N248 0.985 . S
C262 C263 1.363 . S
C262 C268 1.379 1_556 S
C262 N270 1.356 . S
C263 C262 1.363 . S
C263 C269 1.363 . S
C264 C265 1.363 . S
C264 C269 1.379 1_554 S
C264 N271 1.356 1_545 S
C265 C264 1.363 . S
C265 C268 1.363 . S
N266 C268 1.356 . S
N266 H278 0.984 . S
N266 H279 0.985 . S
N267 C269 1.356 1_565 S
N267 H272 0.984 . S
N267 H273 0.985 . S
C268 C262 1.379 1_554 S
C268 C265 1.363 . S
C268 N266 1.356 . S
C269 C263 1.363 . S
C269 C264 1.379 1_556 S
C269 N267 1.356 1_545 S
N270 C262 1.356 . S
N270 H276 0.984 . S
N270 H277 0.984 . S
N271 C264 1.356 1_565 S
N271 H274 0.984 . S
N271 H275 0.985 . S
H272 N267 0.984 . S
H273 N267 0.985 . S
H274 N271 0.984 . S
H275 N271 0.985 . S
H276 N270 0.984 . S
H277 N270 0.984 . S
H278 N266 0.984 . S
H279 N266 0.985 . S
C280 C281 1.363 . S
C280 C286 1.379 . S
C280 N288 1.356 . S
C281 C280 1.363 . S
C281 C287 1.363 . S
C282 C283 1.363 . S
C282 C287 1.379 . S
C282 N289 1.356 . S
C283 C282 1.363 . S
C283 C286 1.363 . S
N284 C286 1.356 . S
N284 H296 0.984 . S
N284 H297 0.985 . S
N285 C287 1.356 . S
N285 H290 0.984 . S
N285 H291 0.985 . S
C286 C280 1.379 . S
C286 C283 1.363 . S
C286 N284 1.356 . S
C287 C281 1.363 . S
C287 C282 1.379 . S
C287 N285 1.356 . S
N288 C280 1.356 . S
N288 H294 0.984 . S
N288 H295 0.984 . S
N289 C282 1.356 . S
N289 H292 0.984 . S
N289 H293 0.985 . S
H290 N285 0.984 . S
H291 N285 0.985 . S
H292 N289 0.984 . S
H293 N289 0.985 . S
H294 N288 0.984 . S
H295 N288 0.984 . S
H296 N284 0.984 . S
H297 N284 0.985 . S
C298 C299 1.363 . S
C298 C304 1.379 . S
C298 N306 1.356 . S
C299 C298 1.363 . S
C299 C305 1.363 . S
C300 C301 1.363 . S
C300 C305 1.379 . S
C300 N307 1.356 . S
C301 C300 1.363 . S
C301 C304 1.363 . S
N302 C304 1.356 . S
N302 H314 0.984 . S
N302 H315 0.985 . S
N303 C305 1.356 . S
N303 H308 0.984 . S
N303 H309 0.985 . S
C304 C298 1.379 . S
C304 C301 1.363 . S
C304 N302 1.356 . S
C305 C299 1.363 . S
C305 C300 1.379 . S
C305 N303 1.356 . S
N306 C298 1.356 . S
N306 H312 0.984 . S
N306 H313 0.984 . S
N307 C300 1.356 . S
N307 H310 0.984 . S
N307 H311 0.985 . S
H308 N303 0.984 . S
H309 N303 0.985 . S
H310 N307 0.984 . S
H311 N307 0.985 . S
H312 N306 0.984 . S
H313 N306 0.984 . S
H314 N302 0.984 . S
H315 N302 0.985 . S
C316 C317 1.363 . S
C316 C322 1.379 1_556 S
C316 N324 1.356 . S
C317 C316 1.363 . S
C317 C323 1.363 . S
C318 C319 1.363 . S
C318 C323 1.379 1_554 S
C318 N325 1.356 . S
C319 C318 1.363 . S
C319 C322 1.363 . S
N320 C322 1.356 . S
N320 H332 0.984 . S
N320 H333 0.985 . S
N321 C323 1.356 . S
N321 H326 0.984 . S
N321 H327 0.985 . S
C322 C316 1.379 1_554 S
C322 C319 1.363 . S
C322 N320 1.356 . S
C323 C317 1.363 . S
C323 C318 1.379 1_556 S
C323 N321 1.356 . S
N324 C316 1.356 . S
N324 H330 0.984 . S
N324 H331 0.984 . S
N325 C318 1.356 . S
N325 H328 0.984 . S
N325 H329 0.985 . S
H326 N321 0.984 . S
H327 N321 0.985 . S
H328 N325 0.984 . S
H329 N325 0.985 . S
H330 N324 0.984 . S
H331 N324 0.984 . S
H332 N320 0.984 . S
H333 N320 0.985 . S
C334 C335 1.363 . S
C334 C340 1.379 1_554 S
C334 N342 1.356 . S
C335 C334 1.363 . S
C335 C341 1.363 . S
C336 C337 1.363 . S
C336 C341 1.379 1_556 S
C336 N343 1.356 . S
C337 C336 1.363 . S
C337 C340 1.363 . S
N338 C340 1.356 . S
N338 H350 0.984 . S
N338 H351 0.985 . S
N339 C341 1.356 . S
N339 H344 0.984 . S
N339 H345 0.985 . S
C340 C334 1.379 1_556 S
C340 C337 1.363 . S
C340 N338 1.356 . S
C341 C335 1.363 . S
C341 C336 1.379 1_554 S
C341 N339 1.356 . S
N342 C334 1.356 . S
N342 H348 0.984 . S
N342 H349 0.984 . S
N343 C336 1.356 . S
N343 H346 0.984 . S
N343 H347 0.985 . S
H344 N339 0.984 . S
H345 N339 0.985 . S
H346 N343 0.984 . S
H347 N343 0.985 . S
H348 N342 0.984 . S
H349 N342 0.984 . S
H350 N338 0.984 . S
H351 N338 0.985 . S
C352 C353 1.363 1_545 S
C352 C358 1.379 . S
C352 N360 1.356 . S
C353 C352 1.363 1_565 S
C353 C359 1.363 . S
C354 C355 1.363 1_565 S
C354 C359 1.379 . S
C354 N361 1.356 . S
C355 C354 1.363 1_545 S
C355 C358 1.363 . S
N356 C358 1.356 . S
N356 H368 0.984 . S
N356 H369 0.985 . S
N357 C359 1.356 . S
N357 H362 0.984 . S
N357 H363 0.985 . S
C358 C352 1.379 . S
C358 C355 1.363 . S
C358 N356 1.356 . S
C359 C353 1.363 . S
C359 C354 1.379 . S
C359 N357 1.356 . S
N360 C352 1.356 . S
N360 H366 0.984 . S
N360 H367 0.984 . S
N361 C354 1.356 . S
N361 H364 0.984 . S
N361 H365 0.985 . S
H362 N357 0.984 . S
H363 N357 0.985 . S
H364 N361 0.984 . S
H365 N361 0.985 . S
H366 N360 0.984 . S
H367 N360 0.984 . S
H368 N356 0.984 . S
H369 N356 0.985 . S
C370 C371 1.363 . S
C370 C376 1.379 . S
C370 N378 1.356 . S
C371 C370 1.363 . S
C371 C377 1.363 1_565 S
C372 C373 1.363 . S
C372 C377 1.379 . S
C372 N379 1.356 . S
C373 C372 1.363 . S
C373 C376 1.363 1_545 S
N374 C376 1.356 . S
N374 H386 0.984 . S
N374 H387 0.985 . S
N375 C377 1.356 . S
N375 H380 0.984 . S
N375 H381 0.985 . S
C376 C370 1.379 . S
C376 C373 1.363 1_565 S
C376 N374 1.356 . S
C377 C371 1.363 1_545 S
C377 C372 1.379 . S
C377 N375 1.356 . S
N378 C370 1.356 . S
N378 H384 0.984 . S
N378 H385 0.984 . S
N379 C372 1.356 . S
N379 H382 0.984 . S
N379 H383 0.985 . S
H380 N375 0.984 . S
H381 N375 0.985 . S
H382 N379 0.984 . S
H383 N379 0.985 . S
H384 N378 0.984 . S
H385 N378 0.984 . S
H386 N374 0.984 . S
H387 N374 0.985 . S
C388 C389 1.363 1_545 S
C388 C394 1.379 . S
C388 N396 1.356 . S
C389 C388 1.363 1_565 S
C389 C395 1.363 . S
C390 C391 1.363 1_565 S
C390 C395 1.379 . S
C390 N397 1.356 . S
C391 C390 1.363 1_545 S
C391 C394 1.363 . S
N392 C394 1.356 . S
N392 H404 0.984 . S
N392 H405 0.985 . S
N393 C395 1.356 . S
N393 H398 0.984 . S
N393 H399 0.985 . S
C394 C388 1.379 . S
C394 C391 1.363 . S
C394 N392 1.356 . S
C395 C389 1.363 . S
C395 C390 1.379 . S
C395 N393 1.356 . S
N396 C388 1.356 . S
N396 H402 0.984 . S
N396 H403 0.984 . S
N397 C390 1.356 . S
N397 H400 0.984 . S
N397 H401 0.985 . S
H398 N393 0.984 . S
H399 N393 0.985 . S
H400 N397 0.984 . S
H401 N397 0.985 . S
H402 N396 0.984 . S
H403 N396 0.984 . S
H404 N392 0.984 . S
H405 N392 0.985 . S
C406 C407 1.363 . S
C406 C412 1.379 . S
C406 N414 1.356 . S
C407 C406 1.363 . S
C407 C413 1.363 1_545 S
C408 C409 1.363 . S
C408 C413 1.379 . S
C408 N415 1.356 . S
C409 C408 1.363 . S
C409 C412 1.363 1_565 S
N410 C412 1.356 . S
N410 H422 0.984 . S
N410 H423 0.985 . S
N411 C413 1.356 . S
N411 H416 0.984 . S
N411 H417 0.985 . S
C412 C406 1.379 . S
C412 C409 1.363 1_545 S
C412 N410 1.356 . S
C413 C407 1.363 1_565 S
C413 C408 1.379 . S
C413 N411 1.356 . S
N414 C406 1.356 . S
N414 H420 0.984 . S
N414 H421 0.984 . S
N415 C408 1.356 . S
N415 H418 0.984 . S
N415 H419 0.985 . S
H416 N411 0.984 . S
H417 N411 0.985 . S
H418 N415 0.984 . S
H419 N415 0.985 . S
H420 N414 0.984 . S
H421 N414 0.984 . S
H422 N410 0.984 . S
H423 N410 0.985 . S
C424 C425 1.363 . S
C424 C430 1.379 1_655 S
C424 N432 1.356 . S
C425 C424 1.363 . S
C425 C431 1.363 . S
C426 C427 1.363 . S
C426 C431 1.379 1_455 S
C426 N433 1.356 . S
C427 C426 1.363 . S
C427 C430 1.363 . S
N428 C430 1.356 . S
N428 H440 0.984 . S
N428 H441 0.985 . S
N429 C431 1.356 . S
N429 H434 0.984 . S
N429 H435 0.985 . S
C430 C424 1.379 1_455 S
C430 C427 1.363 . S
C430 N428 1.356 . S
C431 C425 1.363 . S
C431 C426 1.379 1_655 S
C431 N429 1.356 . S
N432 C424 1.356 . S
N432 H438 0.984 . S
N432 H439 0.984 . S
N433 C426 1.356 . S
N433 H436 0.984 . S
N433 H437 0.985 . S
H434 N429 0.984 . S
H435 N429 0.985 . S
H436 N433 0.984 . S
H437 N433 0.985 . S
H438 N432 0.984 . S
H439 N432 0.984 . S
H440 N428 0.984 . S
H441 N428 0.985 . S
C442 C443 1.363 . S
C442 C448 1.379 1_455 S
C442 N450 1.356 . S
C443 C442 1.363 . S
C443 C449 1.363 . S
C444 C445 1.363 . S
C444 C449 1.379 1_655 S
C444 N451 1.356 . S
C445 C444 1.363 . S
C445 C448 1.363 . S
N446 C448 1.356 . S
N446 H458 0.984 . S
N446 H459 0.985 . S
N447 C449 1.356 . S
N447 H452 0.984 . S
N447 H453 0.985 . S
C448 C442 1.379 1_655 S
C448 C445 1.363 . S
C448 N446 1.356 . S
C449 C443 1.363 . S
C449 C444 1.379 1_455 S
C449 N447 1.356 . S
N450 C442 1.356 . S
N450 H456 0.984 . S
N450 H457 0.984 . S
N451 C444 1.356 . S
N451 H454 0.984 . S
N451 H455 0.985 . S
H452 N447 0.984 . S
H453 N447 0.985 . S
H454 N451 0.984 . S
H455 N451 0.985 . S
H456 N450 0.984 . S
H457 N450 0.984 . S
H458 N446 0.984 . S
H459 N446 0.985 . S
C460 C461 1.363 . S
C460 C466 1.379 1_655 S
C460 N468 1.356 . S
C461 C460 1.363 . S
C461 C467 1.363 . S
C462 C463 1.363 . S
C462 C467 1.379 1_455 S
C462 N469 1.356 . S
C463 C462 1.363 . S
C463 C466 1.363 . S
N464 C466 1.356 . S
N464 H476 0.984 . S
N464 H477 0.985 . S
N465 C467 1.356 . S
N465 H470 0.984 . S
N465 H471 0.985 . S
C466 C460 1.379 1_455 S
C466 C463 1.363 . S
C466 N464 1.356 . S
C467 C461 1.363 . S
C467 C462 1.379 1_655 S
C467 N465 1.356 . S
N468 C460 1.356 . S
N468 H474 0.984 . S
N468 H475 0.984 . S
N469 C462 1.356 . S
N469 H472 0.984 . S
N469 H473 0.985 . S
H470 N465 0.984 . S
H471 N465 0.985 . S
H472 N469 0.984 . S
H473 N469 0.985 . S
H474 N468 0.984 . S
H475 N468 0.984 . S
H476 N464 0.984 . S
H477 N464 0.985 . S
C478 C479 1.363 . S
C478 C484 1.379 1_455 S
C478 N486 1.356 . S
C479 C478 1.363 . S
C479 C485 1.363 . S
C480 C481 1.363 . S
C480 C485 1.379 1_655 S
C480 N487 1.356 . S
C481 C480 1.363 . S
C481 C484 1.363 . S
N482 C484 1.356 . S
N482 H494 0.984 . S
N482 H495 0.985 . S
N483 C485 1.356 . S
N483 H488 0.984 . S
N483 H489 0.985 . S
C484 C478 1.379 1_655 S
C484 C481 1.363 . S
C484 N482 1.356 . S
C485 C479 1.363 . S
C485 C480 1.379 1_455 S
C485 N483 1.356 . S
N486 C478 1.356 . S
N486 H492 0.984 . S
N486 H493 0.984 . S
N487 C480 1.356 . S
N487 H490 0.984 . S
N487 H491 0.985 . S
H488 N483 0.984 . S
H489 N483 0.985 . S
H490 N487 0.984 . S
H491 N487 0.985 . S
H492 N486 0.984 . S
H493 N486 0.984 . S
H494 N482 0.984 . S
H495 N482 0.985 . S
C496 C497 1.363 . S
C496 C502 1.379 . S
C496 N504 1.356 . S
C497 C496 1.363 . S
C497 C503 1.363 . S
C498 C499 1.363 . S
C498 C503 1.379 . S
C498 N505 1.356 . S
C499 C498 1.363 . S
C499 C502 1.363 . S
N500 C502 1.356 . S
N500 H512 0.984 . S
N500 H513 0.985 . S
N501 C503 1.356 . S
N501 H506 0.984 . S
N501 H507 0.985 . S
C502 C496 1.379 . S
C502 C499 1.363 . S
C502 N500 1.356 . S
C503 C497 1.363 . S
C503 C498 1.379 . S
C503 N501 1.356 . S
N504 C496 1.356 . S
N504 H510 0.984 . S
N504 H511 0.984 . S
N505 C498 1.356 . S
N505 H508 0.984 . S
N505 H509 0.985 . S
H506 N501 0.984 . S
H507 N501 0.985 . S
H508 N505 0.984 . S
H509 N505 0.985 . S
H510 N504 0.984 . S
H511 N504 0.984 . S
H512 N500 0.984 . S
H513 N500 0.985 . S
C514 C515 1.363 . S
C514 C520 1.379 . S
C514 N522 1.356 . S
C515 C514 1.363 . S
C515 C521 1.363 . S
C516 C517 1.363 . S
C516 C521 1.379 . S
C516 N523 1.356 . S
C517 C516 1.363 . S
C517 C520 1.363 . S
N518 C520 1.356 . S
N518 H530 0.984 . S
N518 H531 0.985 . S
N519 C521 1.356 . S
N519 H524 0.984 . S
N519 H525 0.985 . S
C520 C514 1.379 . S
C520 C517 1.363 . S
C520 N518 1.356 . S
C521 C515 1.363 . S
C521 C516 1.379 . S
C521 N519 1.356 . S
N522 C514 1.356 . S
N522 H528 0.984 . S
N522 H529 0.984 . S
N523 C516 1.356 . S
N523 H526 0.984 . S
N523 H527 0.985 . S
H524 N519 0.984 . S
H525 N519 0.985 . S
H526 N523 0.984 . S
H527 N523 0.985 . S
H528 N522 0.984 . S
H529 N522 0.984 . S
H530 N518 0.984 . S
H531 N518 0.985 . S
C532 C533 1.363 . S
C532 C538 1.379 . S
C532 N540 1.356 . S
C533 C532 1.363 . S
C533 C539 1.363 . S
C534 C535 1.363 . S
C534 C539 1.379 . S
C534 N541 1.356 . S
C535 C534 1.363 . S
C535 C538 1.363 . S
N536 C538 1.356 . S
N536 H548 0.984 . S
N536 H549 0.985 . S
N537 C539 1.356 . S
N537 H542 0.984 . S
N537 H543 0.985 . S
C538 C532 1.379 . S
C538 C535 1.363 . S
C538 N536 1.356 . S
C539 C533 1.363 . S
C539 C534 1.379 . S
C539 N537 1.356 . S
N540 C532 1.356 . S
N540 H546 0.984 . S
N540 H547 0.984 . S
N541 C534 1.356 . S
N541 H544 0.984 . S
N541 H545 0.985 . S
H542 N537 0.984 . S
H543 N537 0.985 . S
H544 N541 0.984 . S
H545 N541 0.985 . S
H546 N540 0.984 . S
H547 N540 0.984 . S
H548 N536 0.984 . S
H549 N536 0.985 . S
C550 C551 1.363 . S
C550 C556 1.379 . S
C550 N558 1.356 . S
C551 C550 1.363 . S
C551 C557 1.363 . S
C552 C553 1.363 . S
C552 C557 1.379 . S
C552 N559 1.356 . S
C553 C552 1.363 . S
C553 C556 1.363 . S
N554 C556 1.356 . S
N554 H566 0.984 . S
N554 H567 0.985 . S
N555 C557 1.356 . S
N555 H560 0.984 . S
N555 H561 0.985 . S
C556 C550 1.379 . S
C556 C553 1.363 . S
C556 N554 1.356 . S
C557 C551 1.363 . S
C557 C552 1.379 . S
C557 N555 1.356 . S
N558 C550 1.356 . S
N558 H564 0.984 . S
N558 H565 0.984 . S
N559 C552 1.356 . S
N559 H562 0.984 . S
N559 H563 0.985 . S
H560 N555 0.984 . S
H561 N555 0.985 . S
H562 N559 0.984 . S
H563 N559 0.985 . S
H564 N558 0.984 . S
H565 N558 0.984 . S
H566 N554 0.984 . S
H567 N554 0.985 . S
C568 C569 1.363 . S
C568 C574 1.379 . S
C568 N576 1.356 . S
C569 C568 1.363 . S
C569 C575 1.363 . S
C570 C571 1.363 . S
C570 C575 1.379 . S
C570 N577 1.356 . S
C571 C570 1.363 . S
C571 C574 1.363 . S
N572 C574 1.356 . S
N572 H584 0.984 . S
N572 H585 0.985 . S
N573 C575 1.356 . S
N573 H578 0.984 . S
N573 H579 0.985 . S
C574 C568 1.379 . S
C574 C571 1.363 . S
C574 N572 1.356 . S
C575 C569 1.363 . S
C575 C570 1.379 . S
C575 N573 1.356 . S
N576 C568 1.356 . S
N576 H582 0.984 . S
N576 H583 0.984 . S
N577 C570 1.356 . S
N577 H580 0.984 . S
N577 H581 0.985 . S
H578 N573 0.984 . S
H579 N573 0.985 . S
H580 N577 0.984 . S
H581 N577 0.985 . S
H582 N576 0.984 . S
H583 N576 0.984 . S
H584 N572 0.984 . S
H585 N572 0.985 . S
C586 C587 1.363 . S
C586 C592 1.379 . S
C586 N594 1.356 . S
C587 C586 1.363 . S
C587 C593 1.363 . S
C588 C589 1.363 . S
C588 C593 1.379 . S
C588 N595 1.356 . S
C589 C588 1.363 . S
C589 C592 1.363 . S
N590 C592 1.356 . S
N590 H602 0.984 . S
N590 H603 0.985 . S
N591 C593 1.356 . S
N591 H596 0.984 . S
N591 H597 0.985 . S
C592 C586 1.379 . S
C592 C589 1.363 . S
C592 N590 1.356 . S
C593 C587 1.363 . S
C593 C588 1.379 . S
C593 N591 1.356 . S
N594 C586 1.356 . S
N594 H600 0.984 . S
N594 H601 0.984 . S
N595 C588 1.356 . S
N595 H598 0.984 . S
N595 H599 0.985 . S
H596 N591 0.984 . S
H597 N591 0.985 . S
H598 N595 0.984 . S
H599 N595 0.985 . S
H600 N594 0.984 . S
H601 N594 0.984 . S
H602 N590 0.984 . S
H603 N590 0.985 . S
C604 C605 1.363 . S
C604 C610 1.379 . S
C604 N612 1.356 . S
C605 C604 1.363 . S
C605 C611 1.363 . S
C606 C607 1.363 . S
C606 C611 1.379 . S
C606 N613 1.356 . S
C607 C606 1.363 . S
C607 C610 1.363 . S
N608 C610 1.356 . S
N608 H620 0.984 . S
N608 H621 0.985 . S
N609 C611 1.356 . S
N609 H614 0.984 . S
N609 H615 0.985 . S
C610 C604 1.379 . S
C610 C607 1.363 . S
C610 N608 1.356 . S
C611 C605 1.363 . S
C611 C606 1.379 . S
C611 N609 1.356 . S
N612 C604 1.356 . S
N612 H618 0.984 . S
N612 H619 0.984 . S
N613 C606 1.356 . S
N613 H616 0.984 . S
N613 H617 0.985 . S
H614 N609 0.984 . S
H615 N609 0.985 . S
H616 N613 0.984 . S
H617 N613 0.985 . S
H618 N612 0.984 . S
H619 N612 0.984 . S
H620 N608 0.984 . S
H621 N608 0.985 . S
C622 C623 1.363 . S
C622 C628 1.379 . S
C622 N630 1.356 . S
C623 C622 1.363 . S
C623 C629 1.363 . S
C624 C625 1.363 . S
C624 C629 1.379 . S
C624 N631 1.356 . S
C625 C624 1.363 . S
C625 C628 1.363 . S
N626 C628 1.356 . S
N626 H638 0.984 . S
N626 H639 0.985 . S
N627 C629 1.356 . S
N627 H632 0.984 . S
N627 H633 0.985 . S
C628 C622 1.379 . S
C628 C625 1.363 . S
C628 N626 1.356 . S
C629 C623 1.363 . S
C629 C624 1.379 . S
C629 N627 1.356 . S
N630 C622 1.356 . S
N630 H636 0.984 . S
N630 H637 0.984 . S
N631 C624 1.356 . S
N631 H634 0.984 . S
N631 H635 0.985 . S
H632 N627 0.984 . S
H633 N627 0.985 . S
H634 N631 0.984 . S
H635 N631 0.985 . S
H636 N630 0.984 . S
H637 N630 0.984 . S
H638 N626 0.984 . S
H639 N626 0.985 . S
C640 C641 1.363 . S
C640 C646 1.379 . S
C640 N648 1.356 . S
C641 C640 1.363 . S
C641 C647 1.363 1_545 S
C642 C643 1.363 . S
C642 C647 1.379 . S
C642 N649 1.356 . S
C643 C642 1.363 . S
C643 C646 1.363 1_565 S
N644 C646 1.356 . S
N644 H656 0.984 . S
N644 H657 0.985 . S
N645 C647 1.356 . S
N645 H650 0.984 . S
N645 H651 0.985 . S
C646 C640 1.379 . S
C646 C643 1.363 1_545 S
C646 N644 1.356 . S
C647 C641 1.363 1_565 S
C647 C642 1.379 . S
C647 N645 1.356 . S
N648 C640 1.356 . S
N648 H654 0.984 . S
N648 H655 0.984 . S
N649 C642 1.356 . S
N649 H652 0.984 . S
N649 H653 0.985 . S
H650 N645 0.984 . S
H651 N645 0.985 . S
H652 N649 0.984 . S
H653 N649 0.985 . S
H654 N648 0.984 . S
H655 N648 0.984 . S
H656 N644 0.984 . S
H657 N644 0.985 . S
C658 C659 1.363 1_565 S
C658 C664 1.379 . S
C658 N666 1.356 . S
C659 C658 1.363 1_545 S
C659 C665 1.363 . S
C660 C661 1.363 1_545 S
C660 C665 1.379 . S
C660 N667 1.356 . S
C661 C660 1.363 1_565 S
C661 C664 1.363 . S
N662 C664 1.356 . S
N662 H674 0.984 . S
N662 H675 0.985 . S
N663 C665 1.356 . S
N663 H668 0.984 . S
N663 H669 0.985 . S
C664 C658 1.379 . S
C664 C661 1.363 . S
C664 N662 1.356 . S
C665 C659 1.363 . S
C665 C660 1.379 . S
C665 N663 1.356 . S
N666 C658 1.356 . S
N666 H672 0.984 . S
N666 H673 0.984 . S
N667 C660 1.356 . S
N667 H670 0.984 . S
N667 H671 0.985 . S
H668 N663 0.984 . S
H669 N663 0.985 . S
H670 N667 0.984 . S
H671 N667 0.985 . S
H672 N666 0.984 . S
H673 N666 0.984 . S
H674 N662 0.984 . S
H675 N662 0.985 . S
C676 C677 1.363 . S
C676 C682 1.379 . S
C676 N684 1.356 . S
C677 C676 1.363 . S
C677 C683 1.363 1_545 S
C678 C679 1.363 . S
C678 C683 1.379 . S
C678 N685 1.356 . S
C679 C678 1.363 . S
C679 C682 1.363 1_565 S
N680 C682 1.356 . S
N680 H692 0.984 . S
N680 H693 0.985 1_545 S
N681 C683 1.356 . S
N681 H686 0.984 1_565 S
N681 H687 0.985 . S
C682 C676 1.379 . S
C682 C679 1.363 1_545 S
C682 N680 1.356 . S
C683 C677 1.363 1_565 S
C683 C678 1.379 . S
C683 N681 1.356 . S
N684 C676 1.356 . S
N684 H690 0.984 . S
N684 H691 0.984 . S
N685 C678 1.356 . S
N685 H688 0.984 . S
N685 H689 0.985 . S
H686 N681 0.984 1_545 S
H687 N681 0.985 . S
H688 N685 0.984 . S
H689 N685 0.985 . S
H690 N684 0.984 . S
H691 N684 0.984 . S
H692 N680 0.984 . S
H693 N680 0.985 1_565 S
C694 C695 1.363 . S
C694 C700 1.379 . S
C694 N702 1.356 . S
C695 C694 1.363 . S
C695 C701 1.363 1_565 S
C696 C697 1.363 . S
C696 C701 1.379 . S
C696 N703 1.356 . S
C697 C696 1.363 . S
C697 C700 1.363 1_545 S
N698 C700 1.356 . S
N698 H710 0.984 . S
N698 H711 0.985 . S
N699 C701 1.356 . S
N699 H704 0.984 . S
N699 H705 0.985 . S
C700 C694 1.379 . S
C700 C697 1.363 1_565 S
C700 N698 1.356 . S
C701 C695 1.363 1_545 S
C701 C696 1.379 . S
C701 N699 1.356 . S
N702 C694 1.356 . S
N702 H708 0.984 . S
N702 H709 0.984 . S
N703 C696 1.356 . S
N703 H706 0.984 . S
N703 H707 0.985 . S
H704 N699 0.984 . S
H705 N699 0.985 . S
H706 N703 0.984 . S
H707 N703 0.985 . S
H708 N702 0.984 . S
H709 N702 0.984 . S
H710 N698 0.984 . S
H711 N698 0.985 . S
C712 C713 1.363 . S
C712 C718 1.379 . S
C712 N720 1.356 . S
C713 C712 1.363 . S
C713 C719 1.363 . S
C714 C715 1.363 . S
C714 C719 1.379 . S
C714 N721 1.356 . S
C715 C714 1.363 . S
C715 C718 1.363 . S
N716 C718 1.356 . S
N716 H728 0.984 . S
N716 H729 0.985 . S
N717 C719 1.356 . S
N717 H722 0.984 . S
N717 H723 0.985 . S
C718 C712 1.379 . S
C718 C715 1.363 . S
C718 N716 1.356 . S
C719 C713 1.363 . S
C719 C714 1.379 . S
C719 N717 1.356 . S
N720 C712 1.356 . S
N720 H726 0.984 . S
N720 H727 0.984 . S
N721 C714 1.356 . S
N721 H724 0.984 . S
N721 H725 0.985 . S
H722 N717 0.984 . S
H723 N717 0.985 . S
H724 N721 0.984 . S
H725 N721 0.985 . S
H726 N720 0.984 . S
H727 N720 0.984 . S
H728 N716 0.984 . S
H729 N716 0.985 . S
C730 C731 1.363 . S
C730 C736 1.379 . S
C730 N738 1.356 . S
C731 C730 1.363 . S
C731 C737 1.363 . S
C732 C733 1.363 . S
C732 C737 1.379 . S
C732 N739 1.356 . S
C733 C732 1.363 . S
C733 C736 1.363 . S
N734 C736 1.356 . S
N734 H746 0.984 . S
N734 H747 0.985 . S
N735 C737 1.356 . S
N735 H740 0.984 . S
N735 H741 0.985 . S
C736 C730 1.379 . S
C736 C733 1.363 . S
C736 N734 1.356 . S
C737 C731 1.363 . S
C737 C732 1.379 . S
C737 N735 1.356 . S
N738 C730 1.356 . S
N738 H744 0.984 . S
N738 H745 0.984 . S
N739 C732 1.356 . S
N739 H742 0.984 . S
N739 H743 0.985 . S
H740 N735 0.984 . S
H741 N735 0.985 . S
H742 N739 0.984 . S
H743 N739 0.985 . S
H744 N738 0.984 . S
H745 N738 0.984 . S
H746 N734 0.984 . S
H747 N734 0.985 . S
C748 C749 1.363 . S
C748 C754 1.379 . S
C748 N756 1.356 . S
C749 C748 1.363 . S
C749 C755 1.363 . S
C750 C751 1.363 . S
C750 C755 1.379 . S
C750 N757 1.356 . S
C751 C750 1.363 . S
C751 C754 1.363 . S
N752 C754 1.356 . S
N752 H764 0.984 . S
N752 H765 0.985 . S
N753 C755 1.356 . S
N753 H758 0.984 . S
N753 H759 0.985 . S
C754 C748 1.379 . S
C754 C751 1.363 . S
C754 N752 1.356 . S
C755 C749 1.363 . S
C755 C750 1.379 . S
C755 N753 1.356 . S
N756 C748 1.356 . S
N756 H762 0.984 . S
N756 H763 0.984 . S
N757 C750 1.356 . S
N757 H760 0.984 . S
N757 H761 0.985 . S
H758 N753 0.984 . S
H759 N753 0.985 . S
H760 N757 0.984 . S
H761 N757 0.985 . S
H762 N756 0.984 . S
H763 N756 0.984 . S
H764 N752 0.984 . S
H765 N752 0.985 . S
C766 C767 1.363 . S
C766 C772 1.379 . S
C766 N774 1.356 . S
C767 C766 1.363 . S
C767 C773 1.363 . S
C768 C769 1.363 . S
C768 C773 1.379 . S
C768 N775 1.356 . S
C769 C768 1.363 . S
C769 C772 1.363 . S
N770 C772 1.356 . S
N770 H782 0.984 . S
N770 H783 0.985 . S
N771 C773 1.356 . S
N771 H776 0.984 . S
N771 H777 0.985 . S
C772 C766 1.379 . S
C772 C769 1.363 . S
C772 N770 1.356 . S
C773 C767 1.363 . S
C773 C768 1.379 . S
C773 N771 1.356 . S
N774 C766 1.356 . S
N774 H780 0.984 . S
N774 H781 0.984 . S
N775 C768 1.356 . S
N775 H778 0.984 . S
N775 H779 0.985 . S
H776 N771 0.984 . S
H777 N771 0.985 . S
H778 N775 0.984 . S
H779 N775 0.985 . S
H780 N774 0.984 . S
H781 N774 0.984 . S
H782 N770 0.984 . S
H783 N770 0.985 . S
C209 C1 1.520 . S
C211 C66 1.510 . S
C227 C53 1.510 . S
C229 C14 1.520 . S
C245 C27 1.520 . S
C247 C92 1.510 . S
C263 C79 1.510 . S
C265 C40 1.520 . S
C281 C170 1.510 . S
C283 C105 1.520 . S
C299 C157 1.510 . S
C301 C118 1.520 . S
C317 C196 1.510 . S
C319 C131 1.520 . S
C335 C144 1.520 . S
C337 C183 1.510 . S
C353 C23 1.509 . S
C355 C10 1.509 . S
C371 C36 1.509 . S
C373 C49 1.509 . S
C389 C62 1.535 . S
C391 C75 1.535 . S
C407 C88 1.535 . S
C409 C101 1.535 . S
C425 C114 1.509 . S
C427 C127 1.509 . S
C443 C153 1.509 . S
C445 C140 1.509 . S
C461 C179 1.535 . S
C463 C166 1.535 . S
C479 C192 1.535 . S
C481 C205 1.535 . S
C497 C122 1.501 . S
C499 C5 1.501 . S
C515 C18 1.501 . S
C517 C109 1.501 . S
C533 C148 1.501 . S
C535 C31 1.501 . S
C551 C44 1.501 . S
C553 C135 1.501 . S
C569 C57 1.536 . S
C571 C174 1.536 . S
C587 C161 1.536 . S
C589 C70 1.536 . S
C605 C83 1.536 . S
C607 C200 1.536 . S
C623 C187 1.536 . S
C625 C96 1.536 . S
C641 C3 1.540 . S
C643 C29 1.540 . S
C659 C42 1.540 . S
C661 C16 1.540 . S
C677 C81 1.503 . S
C679 C55 1.503 . S
C695 C94 1.503 . S
C697 C68 1.503 . S
C713 C133 1.540 . S
C715 C107 1.540 . S
C731 C120 1.540 . S
C733 C146 1.540 . S
C749 C185 1.503 . S
C751 C159 1.503 . S
C767 C172 1.503 . S
C769 C198 1.503 . S
