# Generated by pormake.
# Topology uoz, (4)-cn, num edge types: 1
# Building blocks:
#     Node 0, Type 0, BuildingBlock: CEKHIL_clean_sbu_0, # of connection points: 4
#     Node 1, Type 0, BuildingBlock: CEKHIL_clean_sbu_0, # of connection points: 4
#     Node 2, Type 0, BuildingBlock: CEKHIL_clean_sbu_0, # of connection points: 4
#     Node 3, Type 0, BuildingBlock: CEKHIL_clean_sbu_0, # of connection points: 4
#     Node 4, Type 0, BuildingBlock: CEKHIL_clean_sbu_0, # of connection points: 4
#     Node 5, Type 0, BuildingBlock: CEKHIL_clean_sbu_0, # of connection points: 4
#     Node 6, Type 0, BuildingBlock: CEKHIL_clean_sbu_0, # of connection points: 4
#     Node 7, Type 0, BuildingBlock: CEKHIL_clean_sbu_0, # of connection points: 4
#     Node 8, Type 0, BuildingBlock: CEKHIL_clean_sbu_0, # of connection points: 4
#     Node 9, Type 0, BuildingBlock: CEKHIL_clean_sbu_0, # of connection points: 4
#     Node 10, Type 0, BuildingBlock: CEKHIL_clean_sbu_0, # of connection points: 4
#     Node 11, Type 0, BuildingBlock: CEKHIL_clean_sbu_0, # of connection points: 4
#     Node 12, Type 0, BuildingBlock: CEKHIL_clean_sbu_0, # of connection points: 4
#     Node 13, Type 0, BuildingBlock: CEKHIL_clean_sbu_0, # of connection points: 4
#     Node 14, Type 0, BuildingBlock: CEKHIL_clean_sbu_0, # of connection points: 4
#     Node 15, Type 0, BuildingBlock: CEKHIL_clean_sbu_0, # of connection points: 4
#     Edge 16, Type (0, 0), BuildingBlock: XUDNAN_clean_linker_2, # of connection points: 2
#     Edge 17, Type (0, 0), BuildingBlock: XUDNAN_clean_linker_2, # of connection points: 2
#     Edge 18, Type (0, 0), BuildingBlock: XUDNAN_clean_linker_2, # of connection points: 2
#     Edge 19, Type (0, 0), BuildingBlock: XUDNAN_clean_linker_2, # of connection points: 2
#     Edge 20, Type (0, 0), BuildingBlock: XUDNAN_clean_linker_2, # of connection points: 2
#     Edge 21, Type (0, 0), BuildingBlock: XUDNAN_clean_linker_2, # of connection points: 2
#     Edge 22, Type (0, 0), BuildingBlock: XUDNAN_clean_linker_2, # of connection points: 2
#     Edge 23, Type (0, 0), BuildingBlock: XUDNAN_clean_linker_2, # of connection points: 2
#     Edge 24, Type (0, 0), BuildingBlock: XUDNAN_clean_linker_2, # of connection points: 2
#     Edge 25, Type (0, 0), BuildingBlock: XUDNAN_clean_linker_2, # of connection points: 2
#     Edge 26, Type (0, 0), BuildingBlock: XUDNAN_clean_linker_2, # of connection points: 2
#     Edge 27, Type (0, 0), BuildingBlock: XUDNAN_clean_linker_2, # of connection points: 2
#     Edge 28, Type (0, 0), BuildingBlock: XUDNAN_clean_linker_2, # of connection points: 2
#     Edge 29, Type (0, 0), BuildingBlock: XUDNAN_clean_linker_2, # of connection points: 2
#     Edge 30, Type (0, 0), BuildingBlock: XUDNAN_clean_linker_2, # of connection points: 2
#     Edge 31, Type (0, 0), BuildingBlock: XUDNAN_clean_linker_2, # of connection points: 2
#     Edge 32, Type (0, 0), BuildingBlock: XUDNAN_clean_linker_2, # of connection points: 2
#     Edge 33, Type (0, 0), BuildingBlock: XUDNAN_clean_linker_2, # of connection points: 2
#     Edge 34, Type (0, 0), BuildingBlock: XUDNAN_clean_linker_2, # of connection points: 2
#     Edge 35, Type (0, 0), BuildingBlock: XUDNAN_clean_linker_2, # of connection points: 2
#     Edge 36, Type (0, 0), BuildingBlock: XUDNAN_clean_linker_2, # of connection points: 2
#     Edge 37, Type (0, 0), BuildingBlock: XUDNAN_clean_linker_2, # of connection points: 2
#     Edge 38, Type (0, 0), BuildingBlock: XUDNAN_clean_linker_2, # of connection points: 2
#     Edge 39, Type (0, 0), BuildingBlock: XUDNAN_clean_linker_2, # of connection points: 2
#     Edge 40, Type (0, 0), BuildingBlock: XUDNAN_clean_linker_2, # of connection points: 2
#     Edge 41, Type (0, 0), BuildingBlock: XUDNAN_clean_linker_2, # of connection points: 2
#     Edge 42, Type (0, 0), BuildingBlock: XUDNAN_clean_linker_2, # of connection points: 2
#     Edge 43, Type (0, 0), BuildingBlock: XUDNAN_clean_linker_2, # of connection points: 2
#     Edge 44, Type (0, 0), BuildingBlock: XUDNAN_clean_linker_2, # of connection points: 2
#     Edge 45, Type (0, 0), BuildingBlock: XUDNAN_clean_linker_2, # of connection points: 2
#     Edge 46, Type (0, 0), BuildingBlock: XUDNAN_clean_linker_2, # of connection points: 2
#     Edge 47, Type (0, 0), BuildingBlock: XUDNAN_clean_linker_2, # of connection points: 2
# Relax obj value: 0.187
# Max RMSD: 0.171
# Mean RMSD: 0.171
data_MOF--net-uoz--node1-CEKHIL_clean_sbu_0--edge1-XUDNAN_clean_linker_2
_symmetry_space_group_name_H-M    P1
_symmetry_Int_Tables_number       1
_symmetry_cell_setting            triclinic
loop_
_symmetry_equiv_pos_as_xyz
'x, y, z'
_cell_length_a     59.752335
_cell_length_b     59.835631
_cell_length_c     20.620106
_cell_angle_alpha  90.038534
_cell_angle_beta   89.930199
_cell_angle_gamma 89.966396
loop_
_atom_site_label
_atom_site_type_symbol
_atom_site_fract_x
_atom_site_fract_y
_atom_site_fract_z
_atom_type_partial_charge
Co0 Co 0.03109 0.58795 0.32002 0.0
O1 O 0.01889 0.56395 0.37371 0.0
O2 O 0.05267 0.57788 0.3854 0.0
C3 C 1.00056 0.61089 0.32053 0.0
O4 O 0.04917 0.61292 0.27519 0.0
Co5 Co 0.00758 0.60024 0.18779 0.0
O6 O 0.03067 0.62391 0.18507 0.0
C7 C 0.0426 0.56503 0.1928 0.0
C8 C 0.03777 0.5634 0.40452 0.0
C9 C 0.04715 0.62532 0.22412 0.0
O10 O 0.04423 0.56605 0.25515 0.0
O11 O 0.02851 0.5763 0.15958 0.0
O12 O 0.01447 0.61103 0.36906 0.0
O13 O 1.00399 0.59532 0.27895 0.0
Co14 Co 0.71232 0.74326 0.55558 0.0
O15 O 0.73714 0.72612 0.59152 0.0
O16 O 0.72224 0.75525 0.63996 0.0
C17 C 0.69192 0.71281 0.52144 0.0
O18 O 0.68648 0.76508 0.53485 0.0
Co19 Co 0.69606 0.73943 0.41092 0.0
O20 O 0.66873 0.75401 0.44418 0.0
C21 C 0.73587 0.76717 0.4459 0.0
C22 C 0.73737 0.73959 0.64089 0.0
C23 C 0.67011 0.76648 0.49397 0.0
O24 O 0.73375 0.76363 0.50746 0.0
O25 O 0.72341 0.75807 0.40291 0.0
O26 O 0.69061 0.71931 0.58173 0.0
O27 O 0.7058 0.72394 0.48715 0.0
Co28 Co 0.54338 0.42453 0.80399 0.0
O29 O 0.55839 0.45133 0.83512 0.0
O30 O 0.53275 0.43328 0.89083 0.0
C31 C 0.57441 0.40652 0.76451 0.0
O32 O 0.52405 0.39639 0.78777 0.0
Co33 Co 0.5451 0.41046 0.6569 0.0
O34 O 0.53157 0.38252 0.68847 0.0
C35 C 0.51417 0.44626 0.701 0.0
C36 C 0.54621 0.45033 0.8872 0.0
C37 C 0.52165 0.38134 0.74304 0.0
O38 O 0.51977 0.44392 0.76108 0.0
O39 O 0.52314 0.43539 0.65426 0.0
O40 O 0.56958 0.40536 0.82608 0.0
O41 O 0.56176 0.41965 0.7319 0.0
Co42 Co 0.87817 0.26559 0.0768 0.0
O43 O 0.85388 0.2835 0.1123 0.0
O44 O 0.8646 0.25145 0.15381 0.0
C45 C 0.90257 0.29441 0.06125 0.0
O46 O 0.90314 0.24281 0.05512 0.0
Co47 Co 0.89671 0.27416 0.93569 0.0
O48 O 0.91895 0.25115 0.95853 0.0
C49 C 0.85393 0.25009 0.95545 0.0
C50 C 0.85113 0.26852 0.15707 0.0
C51 C 0.91767 0.23921 1.00951 0.0
O52 O 0.85664 0.24937 0.0175 0.0
O53 O 0.86694 0.26075 0.91712 0.0
O54 O 0.9003 0.28553 0.11851 0.0
O55 O 0.88896 0.28705 0.01816 0.0
Co56 Co 0.03643 0.42269 0.83642 0.0
O57 O 0.02407 0.44861 0.79066 0.0
O58 O 0.05214 0.42826 0.75481 0.0
C59 C 1.00323 0.40671 0.86655 0.0
O60 O 0.05345 0.39455 0.86724 0.0
Co61 Co 0.02674 0.41285 0.98371 0.0
O62 O 0.03949 0.38325 0.9636 0.0
C63 C 0.06057 0.44681 0.94548 0.0
C64 C 0.03919 0.44551 0.74623 0.0
C65 C 0.05192 0.38029 0.91421 0.0
O66 O 0.05827 0.4427 0.88436 0.0
O67 O 0.04873 0.43757 0.9897 0.0
O68 O 0.01103 0.40337 0.80824 0.0
O69 O 0.0145 0.42062 0.90052 0.0
Co70 Co 0.87934 0.7431 0.07436 0.0
O71 O 0.85444 0.72607 0.03908 0.0
O72 O 0.86554 0.75809 0.99863 0.0
C73 C 0.90293 0.71325 0.0856 0.0
O74 O 0.90487 0.76505 0.09684 0.0
Co75 Co 0.89966 0.73161 0.21164 0.0
O76 O 0.92292 0.7534 0.18676 0.0
C77 C 0.86007 0.76173 0.1994 0.0
C78 C 0.85179 0.74124 0.99492 0.0
C79 C 0.9207 0.76693 0.1395 0.0
O80 O 0.85911 0.75983 0.13698 0.0
O81 O 0.8739 0.75103 0.23511 0.0
O82 O 0.90114 0.7233 0.02991 0.0
O83 O 0.88963 0.72037 0.12972 0.0
Co84 Co 0.54644 0.58909 0.32703 0.0
O85 O 0.56024 0.56272 0.28611 0.0
O86 O 0.52947 0.57901 0.25184 0.0
C87 C 0.57832 0.60981 0.33899 0.0
O88 O 0.52675 0.61599 0.3523 0.0
Co89 Co 0.55862 0.60846 0.4638 0.0
O90 O 0.54108 0.63488 0.43688 0.0
C91 C 0.52876 0.56869 0.45135 0.0
C92 C 0.54423 0.56334 0.24343 0.0
C93 C 0.52678 0.63282 0.39161 0.0
O94 O 0.52856 0.5696 0.38868 0.0
O95 O 0.54066 0.58158 0.48687 0.0
O96 O 0.56813 0.60893 0.2833 0.0
O97 O 0.57009 0.5971 0.38314 0.0
Co98 Co 0.70533 0.26597 0.57911 0.0
O99 O 0.73011 0.28379 0.54641 0.0
O100 O 0.72042 0.25139 0.50513 0.0
C101 C 0.6808 0.29513 0.58864 0.0
O102 O 0.68049 0.24289 0.59879 0.0
Co103 Co 0.68228 0.27502 0.7136 0.0
O104 O 0.65796 0.25666 0.67679 0.0
C105 C 0.72429 0.24829 0.70542 0.0
C106 C 0.73373 0.26858 0.50277 0.0
C107 C 0.66249 0.24209 0.63378 0.0
O108 O 0.72547 0.25019 0.64314 0.0
O109 O 0.70917 0.25755 0.74034 0.0
O110 O 0.68394 0.28551 0.53271 0.0
O111 O 0.69334 0.28791 0.63459 0.0
Co112 Co 0.37186 0.24584 0.58154 0.0
O113 O 0.34894 0.23215 0.52667 0.0
O114 O 0.36176 0.26626 0.51337 0.0
C115 C 0.39601 0.21641 0.58693 0.0
O116 O 0.39557 0.26545 0.62691 0.0
Co117 Co 0.3835 0.22506 0.71782 0.0
O118 O 0.40656 0.2487 0.71987 0.0
C119 C 0.34602 0.25723 0.70417 0.0
C120 C 0.34788 0.25076 0.49459 0.0
C121 C 0.40773 0.26456 0.67878 0.0
O122 O 0.34837 0.25848 0.64215 0.0
O123 O 0.35761 0.24445 0.74072 0.0
O124 O 0.39626 0.22965 0.53683 0.0
O125 O 0.3798 0.21973 0.62663 0.0
Co126 Co 0.20081 0.76508 0.07461 0.0
O127 O 0.2263 0.77953 0.03088 0.0
O128 O 0.2114 0.74753 1.00133 0.0
C129 C 0.17874 0.7958 0.08774 0.0
O130 O 0.17477 0.7447 0.10274 0.0
Co131 Co 0.18401 0.77718 0.21481 0.0
O132 O 0.1603 0.75486 0.19922 0.0
C133 C 0.22521 0.75033 0.19627 0.0
C134 C 0.22676 0.76251 0.99155 0.0
C135 C 0.16052 0.74226 0.14948 0.0
O136 O 0.22196 0.7487 0.13463 0.0
O137 O 0.21305 0.76229 0.23382 0.0
O138 O 0.17957 0.7857 0.03178 0.0
O139 O 0.19244 0.78845 0.1306 0.0
Co140 Co 0.20012 0.24321 0.08178 0.0
O141 O 0.22658 0.23107 0.12581 0.0
O142 O 0.20959 0.26219 0.15389 0.0
C143 C 0.1805 0.21058 0.07213 0.0
O144 O 0.17234 0.26099 0.05102 0.0
Co145 Co 0.18566 0.22734 0.94252 0.0
O146 O 0.15812 0.24425 0.9621 0.0
C147 C 0.22266 0.25975 0.95818 0.0
C148 C 0.22596 0.24828 0.16419 0.0
C149 C 0.15706 0.25881 1.00698 0.0
O150 O 0.21979 0.2608 0.02013 0.0
O151 O 0.21181 0.24646 0.92121 0.0
O152 O 0.18049 0.22147 0.12684 0.0
O153 O 0.19382 0.2184 0.02886 0.0
Co154 Co 0.37515 0.76762 0.57929 0.0
O155 O 0.35122 0.78195 0.6297 0.0
O156 O 0.36295 0.74749 0.64461 0.0
C157 C 0.39988 0.79664 0.5796 0.0
O158 O 0.39908 0.74681 0.54045 0.0
Co159 Co 0.39376 0.78607 0.44754 0.0
O160 O 0.41802 0.7639 0.4601 0.0
C161 C 0.35314 0.75722 0.4506 0.0
C162 C 0.34912 0.76329 0.66135 0.0
C163 C 0.41516 0.74753 0.4986 0.0
O164 O 0.35311 0.75598 0.51307 0.0
O165 O 0.36716 0.76877 0.41776 0.0
O166 O 0.3986 0.78328 0.62933 0.0
O167 O 0.38526 0.7932 0.53521 0.0
Co168 Co 0.52559 0.09325 0.83361 0.0
O169 O 0.50749 0.07101 0.87754 0.0
O170 O 0.54186 0.07918 0.90654 0.0
C171 C 0.49803 0.11952 0.82552 0.0
O172 O 0.54909 0.11573 0.79984 0.0
Co173 Co 0.51164 0.11126 0.69586 0.0
O174 O 0.5344 0.13437 0.71474 0.0
C175 C 0.53573 0.06799 0.70947 0.0
C176 C 0.52403 0.06712 0.91653 0.0
C177 C 0.54978 0.13144 0.75665 0.0
O178 O 0.53765 0.07013 0.77147 0.0
O179 O 0.52484 0.08165 0.67363 0.0
O180 O 0.50964 0.11791 0.87872 0.0
O181 O 0.50231 0.10463 0.78268 0.0
Co182 Co 0.04671 0.92529 0.31446 0.0
O183 O 0.05872 0.94989 0.36646 0.0
O184 O 0.02879 0.9306 0.39281 0.0
C185 C 0.08027 0.90837 0.29086 0.0
O186 O 0.02938 0.89895 0.2735 0.0
Co187 Co 0.0622 0.91866 0.16881 0.0
O188 O 0.04321 0.8917 0.17354 0.0
C189 C 0.02515 0.95004 0.20254 0.0
C190 C 0.04223 0.94708 0.40654 0.0
C191 C 0.02966 0.88767 0.21986 0.0
O192 O 0.02658 0.94634 0.26407 0.0
O193 O 0.03865 0.94186 0.16055 0.0
O194 O 0.07042 0.90427 0.34602 0.0
O195 O 0.07076 0.92346 0.25689 0.0
Co196 Co 0.53086 0.91883 0.32992 0.0
O197 O 0.51203 0.9421 0.29363 0.0
O198 O 0.54481 0.93304 0.2533 0.0
C199 C 0.50275 0.89351 0.34484 0.0
O200 O 0.55485 0.89538 0.354 0.0
Co201 Co 0.52222 0.89903 0.46901 0.0
O202 O 0.54238 0.87503 0.4387 0.0
C203 C 0.5482 0.9411 0.45164 0.0
C204 C 0.52718 0.94581 0.2499 0.0
C205 C 0.5564 0.8786 0.39338 0.0
O206 O 0.54587 0.94097 0.38949 0.0
O207 O 0.53953 0.9266 0.48973 0.0
O208 O 0.51243 0.89525 0.28845 0.0
O209 O 0.50929 0.90761 0.38756 0.0
Co210 Co 0.04539 0.08248 0.85198 0.0
O211 O 0.057 0.05797 0.79902 0.0
O212 O 0.02854 0.07904 0.77074 0.0
C213 C 0.07919 0.09769 0.88116 0.0
O214 O 0.029 0.1093 0.89485 0.0
Co215 Co 0.0587 0.08504 0.99983 0.0
O216 O 0.04455 0.11473 0.99331 0.0
C217 C 0.01942 0.0584 0.95743 0.0
C218 C 0.0414 0.06205 0.75711 0.0
C219 C 0.03072 0.12021 0.94905 0.0
O220 O 0.02326 0.0619 0.89674 0.0
O221 O 0.03196 0.0654 1.00332 0.0
O222 O 0.07038 0.10258 0.82517 0.0
O223 O 0.06879 0.08234 0.91224 0.0
H224 H 0.13656 0.72474 0.25134 0.0
H225 H 0.14791 0.7168 0.04452 0.0
H226 H 0.12113 0.68529 0.04306 0.0
H227 H 0.13253 0.6657 0.28791 0.0
H228 H 0.11112 0.66941 0.34864 0.0
H229 H 0.1311 0.69135 0.33362 0.0
H230 H 0.09875 0.71919 0.31202 0.0
H231 H 0.07867 0.69737 0.32717 0.0
H232 H 0.07798 0.71252 0.25168 0.0
H233 H 0.09212 0.65591 0.06311 0.0
H234 H 0.06348 0.62971 0.10303 0.0
H235 H 0.07196 0.65515 0.29849 0.0
C236 C 0.13339 0.71646 0.20555 0.0
C237 C 0.14428 0.72342 0.14777 0.0
C238 C 0.13981 0.71187 0.08927 0.0
C239 C 0.12462 0.69394 0.08804 0.0
C240 C 0.11425 0.68756 0.14585 0.0
C241 C 0.11852 0.69837 0.20361 0.0
C242 C 0.10524 0.68809 0.25899 0.0
C243 C 0.12094 0.67804 0.31032 0.0
C244 C 0.08921 0.70532 0.28923 0.0
C245 C 0.09252 0.66996 0.22319 0.0
C246 C 0.098 0.67005 0.15791 0.0
C247 C 0.08786 0.65558 0.11412 0.0
C248 C 0.07156 0.64081 0.13731 0.0
C249 C 0.06558 0.64034 0.20387 0.0
C250 C 0.07645 0.65493 0.2476 0.0
H251 H 0.55968 0.83309 0.39492 0.0
H252 H 0.59909 0.89373 0.40448 0.0
H253 H 0.63197 0.87171 0.44029 0.0
H254 H 0.58157 0.80603 0.53054 0.0
H255 H 0.5823 0.77842 0.4956 0.0
H256 H 0.56215 0.79856 0.46727 0.0
H257 H 0.57651 0.79413 0.34937 0.0
H258 H 0.59617 0.77341 0.37698 0.0
H259 H 0.60594 0.79744 0.33254 0.0
H260 H 0.65914 0.8433 0.48791 0.0
H261 H 0.68146 0.80988 0.5167 0.0
H262 H 0.62527 0.76745 0.46699 0.0
C263 C 0.57547 0.84157 0.40244 0.0
C264 C 0.57703 0.86504 0.39602 0.0
C265 C 0.59777 0.8757 0.40758 0.0
C266 C 0.6164 0.86336 0.42894 0.0
C267 C 0.61408 0.84033 0.43729 0.0
C268 C 0.59437 0.82944 0.42211 0.0
C269 C 0.59643 0.80447 0.43331 0.0
C270 C 0.57961 0.79641 0.48474 0.0
C271 C 0.5936 0.7916 0.36924 0.0
C272 C 0.62025 0.80303 0.4582 0.0
C273 C 0.63001 0.82394 0.46148 0.0
C274 C 0.65173 0.82684 0.48481 0.0
C275 C 0.66418 0.80779 0.50204 0.0
C276 C 0.65502 0.78612 0.49469 0.0
C277 C 0.6326 0.78384 0.47376 0.0
H278 H 0.51058 0.34929 0.65344 0.0
H279 H 0.49348 0.37273 0.84674 0.0
H280 H 0.46228 0.3455 0.85027 0.0
H281 H 0.45541 0.34351 0.59651 0.0
H282 H 0.46091 0.31877 0.54912 0.0
H283 H 0.48298 0.33861 0.56376 0.0
H284 H 0.50774 0.3074 0.61302 0.0
H285 H 0.48588 0.28737 0.59763 0.0
H286 H 0.49691 0.29058 0.67841 0.0
H287 H 0.43233 0.31632 0.8309 0.0
H288 H 0.40652 0.28699 0.79198 0.0
H289 H 0.44199 0.28421 0.60872 0.0
C290 C 0.50057 0.34859 0.6972 0.0
C291 C 0.50468 0.36322 0.75014 0.0
C292 C 0.49088 0.36168 0.80583 0.0
C293 C 0.47304 0.34631 0.80809 0.0
C294 C 0.46917 0.33267 0.7542 0.0
C295 C 0.48265 0.3336 0.69995 0.0
C296 C 0.47459 0.31768 0.64754 0.0
C297 C 0.46809 0.33041 0.58558 0.0
C298 C 0.49234 0.29969 0.63334 0.0
C299 C 0.45422 0.30772 0.68036 0.0
C300 C 0.45153 0.31648 0.74211 0.0
C301 C 0.43428 0.30946 0.78265 0.0
C302 C 0.41968 0.29286 0.76005 0.0
C303 C 0.42214 0.28362 0.69713 0.0
C304 C 0.43949 0.29134 0.65647 0.0
H305 H 0.93753 0.21664 0.90911 0.0
H306 H 0.9338 0.21863 0.11929 0.0
H307 H 0.9622 0.1885 0.12494 0.0
H308 H 0.94378 0.1561 0.89612 0.0
H309 H 0.96252 0.15775 0.82771 0.0
H310 H 0.94174 0.17917 0.84024 0.0
H311 H 0.97281 0.2093 0.83884 0.0
H312 H 0.99371 0.18799 0.82679 0.0
H313 H 0.996 0.207 0.89431 0.0
H314 H 0.9924 0.16035 0.10783 0.0
H315 H 0.02008 0.13302 0.07142 0.0
H316 H 1.0034 0.14716 0.87039 0.0
C317 C 0.94263 0.21071 0.95645 0.0
C318 C 0.93355 0.22015 1.01401 0.0
C319 C 0.94046 0.21168 0.07476 0.0
C320 C 0.95664 0.19464 0.07832 0.0
C321 C 0.96544 0.18601 0.02066 0.0
C322 C 0.95845 0.19349 0.96082 0.0
C323 C 0.97037 0.1811 0.90625 0.0
C324 C 0.9536 0.16773 0.86516 0.0
C325 C 0.98403 0.19732 0.86407 0.0
C326 C 0.98554 0.16569 0.94477 0.0
C327 C 0.98241 0.16902 1.01063 0.0
C328 C 0.99485 0.1575 0.05647 0.0
C329 C 0.01074 0.14204 0.03485 0.0
C330 C 0.01419 0.13784 0.96761 0.0
C331 C 1.00124 0.14987 0.92194 0.0
H332 H 0.0965 0.37631 0.94249 0.0
H333 H 0.03722 0.33821 0.89392 0.0
H334 H 0.05741 0.30308 0.91835 0.0
H335 H 0.13809 0.33586 0.87983 0.0
H336 H 0.15742 0.34109 0.94514 0.0
H337 H 0.13883 0.36291 0.91831 0.0
H338 H 0.12413 0.36717 0.03586 0.0
H339 H 0.14226 0.34496 0.06272 0.0
H340 H 0.11254 0.34323 0.07691 0.0
H341 H 0.08311 0.27248 0.95257 0.0
H342 H 0.11406 0.24753 0.98436 0.0
H343 H 0.15698 0.30497 0.01526 0.0
C344 C 0.08813 0.36047 0.93486 0.0
C345 C 0.06557 0.35977 0.91428 0.0
C346 C 0.05471 0.33892 0.90772 0.0
C347 C 0.06597 0.31896 0.92219 0.0
C348 C 0.08801 0.32017 0.94407 0.0
C349 C 0.09913 0.34033 0.94973 0.0
C350 C 0.12262 0.33686 0.97628 0.0
C351 C 0.14029 0.34464 0.92694 0.0
C352 C 0.12555 0.34877 0.04183 0.0
C353 C 0.12298 0.31162 0.9845 0.0
C354 C 0.10274 0.30243 0.96585 0.0
C355 C 0.099 0.27948 0.9674 0.0
C356 C 0.11662 0.26546 0.98603 0.0
C357 C 0.13777 0.27432 1.00338 0.0
C358 C 0.14082 0.29777 1.00403 0.0
H359 H 0.0158 0.8485 0.28116 0.0
H360 H 1.00177 0.89254 0.11938 0.0
H361 H 0.97264 0.86666 0.08035 0.0
H362 H 0.00984 0.7976 0.19171 0.0
H363 H 0.99671 0.78222 0.25653 0.0
H364 H 0.01557 0.80482 0.27495 0.0
H365 H 0.9848 0.82417 0.3436 0.0
H366 H 0.96595 0.80148 0.32597 0.0
H367 H 0.9579 0.82982 0.30763 0.0
H368 H 0.94574 0.83552 0.05616 0.0
H369 H 0.92205 0.80166 0.05141 0.0
H370 H 0.95409 0.77707 0.22649 0.0
C371 C 1.00626 0.85278 0.23832 0.0
C372 C 0.01087 0.87257 0.20346 0.0
C373 C 0.9984 0.87745 0.14677 0.0
C374 C 0.98185 0.86286 0.12414 0.0
C375 C 0.97796 0.84324 0.15842 0.0
C376 C 0.9897 0.83816 0.21442 0.0
C377 C 0.98258 0.81554 0.24054 0.0
C378 C 1.00235 0.79908 0.24094 0.0
C379 C 0.97219 0.8179 0.30846 0.0
C380 C 0.96513 0.80885 0.19057 0.0
C381 C 0.96269 0.82507 0.14366 0.0
C382 C 0.94748 0.82267 0.0927 0.0
C383 C 0.93414 0.80332 0.09019 0.0
C384 C 0.93611 0.78654 0.13823 0.0
C385 C 0.95208 0.78942 0.18858 0.0
H386 H 0.46089 0.74455 0.48847 0.0
H387 H 0.40001 0.70535 0.47931 0.0
H388 H 0.42182 0.67259 0.44173 0.0
H389 H 0.48893 0.7214 0.35167 0.0
H390 H 0.51623 0.72073 0.38874 0.0
H391 H 0.49598 0.7413 0.41408 0.0
H392 H 0.49941 0.72797 0.53314 0.0
H393 H 0.52003 0.70771 0.50837 0.0
H394 H 0.49541 0.69882 0.55189 0.0
H395 H 0.44992 0.64512 0.39657 0.0
H396 H 0.48312 0.62207 0.37075 0.0
H397 H 0.52634 0.67771 0.42039 0.0
C398 C 0.45229 0.72893 0.47944 0.0
C399 C 0.42882 0.72734 0.48692 0.0
C400 C 0.41802 0.70674 0.47465 0.0
C401 C 0.43023 0.68816 0.45257 0.0
C402 C 0.4533 0.69035 0.44431 0.0
C403 C 0.46433 0.71 0.45929 0.0
C404 C 0.48941 0.70747 0.45001 0.0
C405 C 0.49814 0.72369 0.39803 0.0
C406 C 0.50179 0.71067 0.5147 0.0
C407 C 0.49072 0.68342 0.42685 0.0
C408 C 0.46965 0.67404 0.42242 0.0
C409 C 0.46652 0.65221 0.40047 0.0
C410 C 0.48547 0.63933 0.38517 0.0
C411 C 0.50728 0.64812 0.39329 0.0
C412 C 0.50985 0.67059 0.41345 0.0
H413 H 0.61693 0.23915 0.63867 0.0
H414 H 0.67732 0.19908 0.64129 0.0
H415 H 0.65531 0.16637 0.67819 0.0
H416 H 0.59189 0.21799 0.77662 0.0
H417 H 0.56366 0.21762 0.7459 0.0
H418 H 0.58359 0.23731 0.71403 0.0
H419 H 0.57693 0.22271 0.59735 0.0
H420 H 0.55641 0.20346 0.62857 0.0
H421 H 0.57953 0.19323 0.58083 0.0
H422 H 0.62697 0.13945 0.72944 0.0
H423 H 0.59363 0.1183 0.76673 0.0
H424 H 0.55171 0.17551 0.72359 0.0
C425 C 0.62535 0.22325 0.64471 0.0
C426 C 0.64877 0.22152 0.6362 0.0
C427 C 0.65932 0.2006 0.64594 0.0
C428 C 0.64699 0.18203 0.66787 0.0
C429 C 0.62404 0.18457 0.67859 0.0
C430 C 0.61322 0.20447 0.66515 0.0
C431 C 0.58844 0.20289 0.68016 0.0
C432 C 0.58151 0.21997 0.73227 0.0
C433 C 0.5745 0.20573 0.61803 0.0
C434 C 0.58705 0.17921 0.7058 0.0
C435 C 0.60777 0.16895 0.70539 0.0
C436 C 0.61063 0.14726 0.72909 0.0
C437 C 0.59167 0.13547 0.75106 0.0
C438 C 0.57014 0.1453 0.74832 0.0
C439 C 0.56799 0.16759 0.72641 0.0
H440 H 0.98273 0.36653 0.82712 0.0
H441 H 0.98528 0.41496 0.98408 0.0
H442 H 0.96217 0.3906 0.05172 0.0
H443 H 0.92382 0.35115 0.85657 0.0
H444 H 0.92806 0.32213 0.8365 0.0
H445 H 0.94525 0.34328 0.79929 0.0
H446 H 0.98072 0.32279 0.84013 0.0
H447 H 0.96363 0.30178 0.87843 0.0
H448 H 0.98383 0.31716 0.92551 0.0
H449 H 0.94138 0.36013 0.10724 0.0
H450 H 0.91766 0.32803 0.13922 0.0
H451 H 0.92467 0.30045 0.94569 0.0
C452 C 0.97811 0.37211 0.87526 0.0
C453 C 0.98623 0.39262 0.90025 0.0
C454 C 0.97969 0.39924 0.96372 0.0
C455 C 0.96654 0.38547 1.00297 0.0
C456 C 0.95947 0.36513 0.97814 0.0
C457 C 0.96443 0.35862 0.91529 0.0
C458 C 0.95366 0.33617 0.90057 0.0
C459 C 0.93669 0.33831 0.84494 0.0
C460 C 0.97153 0.31843 0.88525 0.0
C461 C 0.94204 0.33129 0.96483 0.0
C462 C 0.94606 0.34803 1.00926 0.0
C463 C 0.93785 0.347 0.07266 0.0
C464 C 0.92455 0.32865 0.09064 0.0
C465 C 0.91921 0.31188 0.045 0.0
C466 C 0.92832 0.31314 0.98152 0.0
H467 H 0.45463 0.11965 0.78897 0.0
H468 H 0.51227 0.16272 0.81092 0.0
H469 H 0.49339 0.19183 0.74482 0.0
H470 H 0.44198 0.13217 0.62955 0.0
H471 H 0.41198 0.13211 0.63883 0.0
H472 H 0.42909 0.11551 0.69211 0.0
H473 H 0.41206 0.13507 0.79291 0.0
H474 H 0.39425 0.15111 0.74007 0.0
H475 H 0.41212 0.16516 0.79745 0.0
H476 H 0.46923 0.21432 0.66391 0.0
H477 H 0.43918 0.23137 0.59712 0.0
H478 H 0.39667 0.17433 0.63569 0.0
C479 C 0.46286 0.1356 0.7821 0.0
C480 C 0.48467 0.13919 0.80616 0.0
C481 C 0.49529 0.15994 0.79448 0.0
C482 C 0.4848 0.1764 0.75611 0.0
C483 C 0.46357 0.17194 0.73079 0.0
C484 C 0.45244 0.15231 0.74529 0.0
C485 C 0.42971 0.15146 0.71285 0.0
C486 C 0.42812 0.13163 0.66555 0.0
C487 C 0.41093 0.15067 0.76386 0.0
C488 C 0.42983 0.1735 0.67681 0.0
C489 C 0.44962 0.18498 0.68667 0.0
C490 C 0.45364 0.2055 0.65645 0.0
C491 C 0.43664 0.21491 0.61768 0.0
C492 C 0.41581 0.20394 0.61031 0.0
C493 C 0.4126 0.18286 0.63958 0.0
H494 H 0.59005 0.62656 0.45906 0.0
H495 H 0.60728 0.63021 0.2548 0.0
H496 H 0.63828 0.65605 0.28161 0.0
H497 H 0.60057 0.68558 0.49248 0.0
H498 H 0.61109 0.6804 0.57298 0.0
H499 H 0.59059 0.66189 0.53807 0.0
H500 H 0.61702 0.62831 0.55793 0.0
H501 H 0.6377 0.64672 0.59234 0.0
H502 H 0.645 0.62885 0.52513 0.0
H503 H 0.66862 0.67866 0.33074 0.0
H504 H 0.694 0.70149 0.3949 0.0
H505 H 0.65532 0.68747 0.56896 0.0
C506 C 0.6002 0.63284 0.41973 0.0
C507 C 0.59625 0.62621 0.35452 0.0
C508 C 0.60995 0.63502 0.30485 0.0
C509 C 0.62762 0.64964 0.31976 0.0
C510 C 0.63109 0.65566 0.38448 0.0
C511 C 0.61752 0.64793 0.43361 0.0
C512 C 0.62443 0.65781 0.49882 0.0
C513 C 0.60555 0.67228 0.52726 0.0
C514 C 0.63146 0.63931 0.54635 0.0
C515 C 0.64437 0.67204 0.47884 0.0
C516 C 0.64789 0.67018 0.41265 0.0
C517 C 0.66572 0.68063 0.38225 0.0
C518 C 0.68008 0.6937 0.41972 0.0
C519 C 0.67653 0.69695 0.48736 0.0
C520 C 0.65843 0.68566 0.5175 0.0
H521 H 0.15235 0.79889 0.19633 0.0
H522 H 0.16948 0.8335 0.01851 0.0
H523 H 0.14765 0.86638 0.05561 0.0
H524 H 0.09447 0.82076 0.20458 0.0
H525 H 0.0946 0.8221 0.2919 0.0
H526 H 0.11119 0.80134 0.25057 0.0
H527 H 0.14642 0.81556 0.3107 0.0
H528 H 0.13004 0.83667 0.3512 0.0
H529 H 0.15423 0.84457 0.30418 0.0
H530 H 0.1279 0.89642 0.11682 0.0
H531 H 0.10432 0.91994 0.18588 0.0
H532 H 0.09581 0.86506 0.32152 0.0
C533 C 0.15122 0.81327 0.16479 0.0
C534 C 0.16264 0.81374 0.10443 0.0
C535 C 0.16069 0.83277 0.06442 0.0
C536 C 0.14851 0.85154 0.08549 0.0
C537 C 0.13797 0.85076 0.14603 0.0
C538 C 0.13857 0.83189 0.18429 0.0
C539 C 0.12497 0.83522 0.24616 0.0
C540 C 0.10513 0.81888 0.24842 0.0
C541 C 0.13981 0.83286 0.30663 0.0
C542 C 0.11704 0.85919 0.23751 0.0
C543 C 0.12513 0.86778 0.17971 0.0
C544 C 0.12108 0.88971 0.16139 0.0
C545 C 0.10766 0.90298 0.20144 0.0
C546 C 0.09782 0.89437 0.25902 0.0
C547 C 0.10302 0.8722 0.27805 0.0
H548 H 0.95757 0.61186 0.27767 0.0
H549 H 0.01553 0.65385 0.30941 0.0
H550 H 0.9981 0.68373 0.24316 0.0
H551 H 0.94649 0.62647 0.1176 0.0
H552 H 0.91643 0.62704 0.125 0.0
H553 H 0.93274 0.6094 0.17762 0.0
H554 H 0.91538 0.62816 0.27924 0.0
H555 H 0.89838 0.64524 0.22694 0.0
H556 H 0.91612 0.65817 0.28682 0.0
H557 H 0.9757 0.7072 0.1615 0.0
H558 H 0.94659 0.72606 0.09552 0.0
H559 H 0.90192 0.67016 0.12677 0.0
C560 C 0.96619 0.62768 0.27262 0.0
C561 C 0.98771 0.63073 0.29948 0.0
C562 C 0.99878 0.65142 0.29063 0.0
C563 C 0.98914 0.66832 0.25215 0.0
C564 C 0.96823 0.66442 0.22408 0.0
C565 C 0.95654 0.64492 0.236 0.0
C566 C 0.93404 0.64505 0.20202 0.0
C567 C 0.93234 0.62585 0.15264 0.0
C568 C 0.91485 0.64411 0.25171 0.0
C569 C 0.93498 0.66752 0.16821 0.0
C570 C 0.95503 0.67826 0.18024 0.0
C571 C 0.95988 0.69899 0.15244 0.0
C572 C 0.94339 0.70945 0.11422 0.0
C573 C 0.92221 0.69937 0.10521 0.0
C574 C 0.91818 0.67799 0.13172 0.0
H575 H 0.10087 0.13696 0.84138 0.0
H576 H 0.09629 0.08977 1.00082 0.0
H577 H 0.11972 0.11408 0.06796 0.0
H578 H 0.16005 0.15011 0.87113 0.0
H579 H 0.15708 0.17905 0.84846 0.0
H580 H 0.13916 0.15823 0.81267 0.0
H581 H 0.10441 0.18059 0.85087 0.0
H582 H 0.12224 0.20128 0.88768 0.0
H583 H 0.10128 0.18729 0.93565 0.0
H584 H 0.1411 0.14516 0.12273 0.0
H585 H 0.16499 0.1775 0.15265 0.0
H586 H 0.16036 0.20174 0.955 0.0
C587 C 0.10499 0.13166 0.89012 0.0
C588 C 0.09612 0.11161 0.91595 0.0
C589 C 0.10224 0.10525 0.97994 0.0
C590 C 0.11564 0.11897 0.01885 0.0
C591 C 0.12351 0.13889 0.99299 0.0
C592 C 0.11899 0.14497 0.92953 0.0
C593 C 0.1307 0.16676 0.91308 0.0
C594 C 0.14776 0.16332 0.85808 0.0
C595 C 0.11364 0.18506 0.8958 0.0
C596 C 0.14227 0.17185 0.9771 0.0
C597 C 0.13748 0.15585 0.02306 0.0
C598 C 0.14527 0.15765 0.0868 0.0
C599 C 0.15871 0.17611 0.10356 0.0
C600 C 0.1647 0.19216 0.05638 0.0
C601 C 0.15627 0.18986 0.99244 0.0
H602 H 0.66319 0.30718 0.70668 0.0
H603 H 0.65882 0.32184 0.50102 0.0
H604 H 0.63162 0.35205 0.52506 0.0
H605 H 0.60384 0.31639 0.74101 0.0
H606 H 0.60915 0.32804 0.82014 0.0
H607 H 0.62804 0.30759 0.78646 0.0
H608 H 0.66107 0.33505 0.80217 0.0
H609 H 0.64228 0.35568 0.83523 0.0
H610 H 0.65964 0.36252 0.7665 0.0
H611 H 0.60721 0.38203 0.57218 0.0
H612 H 0.5837 0.40738 0.63593 0.0
H613 H 0.60139 0.37184 0.81225 0.0
C614 C 0.65642 0.31657 0.66645 0.0
C615 C 0.66322 0.31215 0.60171 0.0
C616 C 0.65382 0.32486 0.55077 0.0
C617 C 0.63845 0.34209 0.5641 0.0
C618 C 0.63236 0.34613 0.62854 0.0
C619 C 0.64074 0.33349 0.67881 0.0
C620 C 0.63105 0.34096 0.74363 0.0
C621 C 0.61719 0.32212 0.77463 0.0
C622 C 0.64962 0.34903 0.78958 0.0
C623 C 0.61621 0.36019 0.72223 0.0
C624 C 0.61741 0.36287 0.65561 0.0
C625 C 0.6059 0.37984 0.62415 0.0
C626 C 0.59252 0.39421 0.6612 0.0
C627 C 0.59032 0.39153 0.7294 0.0
C628 C 0.60255 0.37431 0.76035 0.0
H629 H 0.4016 0.83985 0.54057 0.0
H630 H 0.44303 0.78148 0.57168 0.0
H631 H 0.47326 0.79875 0.5061 0.0
H632 H 0.41602 0.85108 0.3821 0.0
H633 H 0.41703 0.88108 0.3895 0.0
H634 H 0.39934 0.86506 0.44273 0.0
H635 H 0.41872 0.88199 0.54378 0.0
H636 H 0.43583 0.89878 0.49092 0.0
H637 H 0.44878 0.88085 0.55023 0.0
H638 H 0.49682 0.82094 0.42306 0.0
H639 H 0.51552 0.84972 0.3553 0.0
H640 H 0.46004 0.89483 0.38878 0.0
C641 C 0.41741 0.83114 0.53585 0.0
C642 C 0.42013 0.80948 0.56187 0.0
C643 C 0.44082 0.7983 0.55339 0.0
C644 C 0.45793 0.80786 0.5153 0.0
C645 C 0.45427 0.82886 0.48755 0.0
C646 C 0.43484 0.84073 0.49976 0.0
C647 C 0.43511 0.86319 0.46585 0.0
C648 C 0.41572 0.8652 0.41717 0.0
C649 C 0.43459 0.88234 0.51566 0.0
C650 C 0.45746 0.86199 0.43126 0.0
C651 C 0.46813 0.8419 0.44318 0.0
C652 C 0.48869 0.83681 0.41425 0.0
C653 C 0.49905 0.8531 0.37501 0.0
C654 C 0.48904 0.87432 0.36611 0.0
C655 C 0.46783 0.87857 0.39378 0.0
H656 H 0.06098 0.52409 0.22216 0.0
H657 H 0.05985 0.57612 0.07641 0.0
H658 H 0.07936 0.55159 0.99991 0.0
H659 H 0.11694 0.4953 0.15466 0.0
H660 H 0.10546 0.46833 0.17486 0.0
H661 H 0.09985 0.49213 0.22617 0.0
H662 H 0.05726 0.48521 0.21474 0.0
H663 H 0.06275 0.46152 0.16456 0.0
H664 H 0.04511 0.48372 0.13477 0.0
H665 H 0.08444 0.51966 0.93026 0.0
H666 H 0.07473 0.48392 0.87838 0.0
H667 H 0.07802 0.45116 0.06523 0.0
C668 C 0.06593 0.53049 0.1752 0.0
C669 C 0.05865 0.55169 0.15468 0.0
C670 C 0.06495 0.55966 0.09263 0.0
C671 C 0.07637 0.54596 0.04902 0.0
C672 C 0.08183 0.52439 0.06834 0.0
C673 C 0.07739 0.51682 0.13073 0.0
C674 C 0.081 0.49185 0.13529 0.0
C675 C 0.10207 0.4866 0.17509 0.0
C676 C 0.06029 0.47991 0.16387 0.0
C677 C 0.08465 0.48629 0.06421 0.0
C678 C 0.08615 0.50537 0.02664 0.0
C679 C 0.08425 0.50453 0.95899 0.0
C680 C 0.07878 0.48411 0.92957 0.0
C681 C 0.07534 0.46495 0.9681 0.0
C682 C 0.08056 0.46571 0.03491 0.0
H683 H 0.817 0.7735 0.16756 0.0
H684 H 0.86849 0.7829 0.3127 0.0
H685 H 0.84071 0.79768 0.38877 0.0
H686 H 0.7789 0.82395 0.23237 0.0
H687 H 0.75435 0.80788 0.21234 0.0
H688 H 0.7789 0.80629 0.1615 0.0
H689 H 0.77921 0.76327 0.17459 0.0
H690 H 0.75498 0.76469 0.22524 0.0
H691 H 0.78003 0.75138 0.25497 0.0
H692 H 0.80793 0.7963 0.45882 0.0
H693 H 0.77302 0.78337 0.5107 0.0
H694 H 0.74142 0.78056 0.32155 0.0
C695 C 0.82247 0.7799 0.21401 0.0
C696 C 0.84465 0.77666 0.23473 0.0
C697 C 0.85138 0.78485 0.29624 0.0
C698 C 0.83576 0.79354 0.33975 0.0
C699 C 0.81352 0.79463 0.3205 0.0
C700 C 0.80694 0.78889 0.25806 0.0
C701 C 0.78171 0.78809 0.25312 0.0
C702 C 0.77295 0.80773 0.21244 0.0
C703 C 0.77355 0.76552 0.22549 0.0
C704 C 0.7755 0.79098 0.32392 0.0
C705 C 0.79396 0.79547 0.36194 0.0
C706 C 0.79309 0.79383 0.42965 0.0
C707 C 0.77321 0.78638 0.45891 0.0
C708 C 0.75458 0.78073 0.42023 0.0
C709 C 0.7554 0.78471 0.35262 0.0
H710 H 0.52702 0.56249 0.58171 0.0
H711 H 0.50005 0.53661 0.40133 0.0
H712 H 0.48111 0.50658 0.46291 0.0
H713 H 0.54419 0.51468 0.639 0.0
H714 H 0.53843 0.52015 0.72344 0.0
H715 H 0.54309 0.54296 0.66921 0.0
H716 H 0.50472 0.55979 0.70246 0.0
H717 H 0.49986 0.53652 0.75621 0.0
H718 H 0.47966 0.54327 0.69439 0.0
H719 H 0.47261 0.47563 0.53782 0.0
H720 H 0.48168 0.44421 0.6098 0.0
H721 H 0.51538 0.48919 0.74146 0.0
C722 C 0.51659 0.55097 0.55493 0.0
C723 C 0.51505 0.55194 0.48648 0.0
C724 C 0.50144 0.53628 0.45374 0.0
C725 C 0.4904 0.51933 0.48851 0.0
C726 C 0.49299 0.51844 0.55594 0.0
C727 C 0.50586 0.53392 0.58866 0.0
C728 C 0.51013 0.52699 0.65817 0.0
C729 C 0.53543 0.52611 0.6732 0.0
C730 C 0.49785 0.54257 0.7056 0.0
C731 C 0.49962 0.50401 0.65785 0.0
C732 C 0.48866 0.49995 0.59965 0.0
C733 C 0.48062 0.4788 0.58394 0.0
C734 C 0.48575 0.46103 0.62539 0.0
C735 C 0.49923 0.46449 0.68089 0.0
C736 C 0.50454 0.48638 0.7002 0.0
H737 H 0.84577 0.2456 0.82654 0.0
H738 H 0.81779 0.23012 0.01563 0.0
H739 H 0.78296 0.21748 0.96262 0.0
H740 H 0.80184 0.27195 0.77069 0.0
H741 H 0.80375 0.26294 0.68741 0.0
H742 H 0.82839 0.26361 0.73668 0.0
H743 H 0.8356 0.22171 0.71236 0.0
H744 H 0.81082 0.22093 0.66255 0.0
H745 H 0.81399 0.20145 0.72857 0.0
H746 H 0.74934 0.21516 0.89404 0.0
H747 H 0.7193 0.22594 0.81898 0.0
H748 H 0.76855 0.24443 0.67426 0.0
C749 C 0.83263 0.23889 0.85696 0.0
C750 C 0.83448 0.23892 0.92533 0.0
C751 C 0.8168 0.23016 0.96315 0.0
C752 C 0.79703 0.22279 0.93336 0.0
C753 C 0.79538 0.22408 0.86584 0.0
C754 C 0.81283 0.2318 0.8281 0.0
C755 C 0.8057 0.23566 0.75855 0.0
C756 C 0.81016 0.25997 0.7372 0.0
C757 C 0.81721 0.21893 0.71281 0.0
C758 C 0.78098 0.23081 0.76414 0.0
C759 C 0.77555 0.22323 0.82573 0.0
C760 C 0.75344 0.22053 0.84535 0.0
C761 C 0.7365 0.22683 0.80245 0.0
C762 C 0.74175 0.23606 0.74101 0.0
C763 C 0.76418 0.23695 0.72038 0.0
H764 H 0.22706 0.26771 0.82957 0.0
H765 H 0.2583 0.2814 0.01503 0.0
H766 H 0.29193 0.29502 0.95811 0.0
H767 H 0.26773 0.24098 0.76826 0.0
H768 H 0.26589 0.25019 0.68516 0.0
H769 H 0.2416 0.2511 0.73572 0.0
H770 H 0.23696 0.29339 0.71286 0.0
H771 H 0.26134 0.29257 0.66119 0.0
H772 H 0.25998 0.31218 0.72747 0.0
H773 H 0.32459 0.29524 0.88786 0.0
H774 H 0.35327 0.28056 0.81373 0.0
H775 H 0.30235 0.26469 0.67205 0.0
C776 C 0.24065 0.27443 0.85822 0.0
C777 C 0.24021 0.2733 0.92667 0.0
C778 C 0.25824 0.28219 0.96255 0.0
C779 C 0.27738 0.29008 0.93043 0.0
C780 C 0.27802 0.28917 0.86266 0.0
C781 C 0.25992 0.28184 0.82683 0.0
C782 C 0.26623 0.27748 0.75671 0.0
C783 C 0.26003 0.25353 0.73537 0.0
C784 C 0.2555 0.29496 0.71192 0.0
C785 C 0.29127 0.28077 0.76042 0.0
C786 C 0.29753 0.28873 0.82102 0.0
C787 C 0.31986 0.2897 0.83982 0.0
C788 C 0.33602 0.28117 0.79759 0.0
C789 C 0.32977 0.27157 0.73757 0.0
C790 C 0.30737 0.2725 0.71712 0.0
H791 H 0.30906 0.7497 0.4796 0.0
H792 H 0.36005 0.73751 0.33431 0.0
H793 H 0.33142 0.72409 0.25829 0.0
H794 H 0.26835 0.70252 0.42184 0.0
H795 H 0.24473 0.72033 0.43899 0.0
H796 H 0.26943 0.72178 0.48902 0.0
H797 H 0.27211 0.76433 0.46709 0.0
H798 H 0.24766 0.76301 0.41713 0.0
H799 H 0.27333 0.77417 0.38448 0.0
H800 H 0.29798 0.72256 0.18975 0.0
H801 H 0.26242 0.73257 0.13627 0.0
H802 H 0.23237 0.74422 0.325 0.0
C803 C 0.31417 0.74312 0.43294 0.0
C804 C 0.33658 0.74464 0.41258 0.0
C805 C 0.34282 0.73657 0.35055 0.0
C806 C 0.32671 0.72868 0.30721 0.0
C807 C 0.30444 0.72872 0.32685 0.0
C808 C 0.29815 0.73534 0.38876 0.0
C809 C 0.27301 0.73758 0.39391 0.0
C810 C 0.26331 0.71947 0.43858 0.0
C811 C 0.26616 0.76117 0.41691 0.0
C812 C 0.26649 0.73345 0.32398 0.0
C813 C 0.28472 0.72758 0.28642 0.0
C814 C 0.28338 0.72638 0.21883 0.0
C815 C 0.26314 0.73216 0.18874 0.0
C816 C 0.24469 0.73929 0.22643 0.0
C817 C 0.24618 0.73877 0.29483 0.0
H818 H 0.54606 0.98509 0.42057 0.0
H819 H 0.57493 0.93843 0.55721 0.0
H820 H 0.5831 0.96928 0.63238 0.0
H821 H 0.58253 0.03699 0.47317 0.0
H822 H 0.5585 0.05476 0.4617 0.0
H823 H 0.56287 0.03103 0.40922 0.0
H824 H 0.52316 0.01685 0.43779 0.0
H825 H 0.51882 0.03996 0.49149 0.0
H826 H 0.51599 0.01182 0.52154 0.0
H827 H 0.5768 1.0014 0.70453 0.0
H828 H 0.56057 0.03369 0.76279 0.0
H829 H 0.53597 0.05979 0.57973 0.0
C830 C 0.5554 0.98172 0.46446 0.0
C831 C 0.55992 0.95962 0.4834 0.0
C832 C 0.57141 0.95542 0.54211 0.0
C833 C 0.57619 0.97284 0.58501 0.0
C834 C 0.56961 0.99435 0.56794 0.0
C835 C 0.56005 0.999 0.50812 0.0
C836 C 0.55079 0.0225 0.5063 0.0
C837 C 0.5645 0.03719 0.45985 0.0
C838 C 0.52572 0.02276 0.4883 0.0
C839 C 0.55451 0.02933 0.57603 0.0
C840 C 0.56598 0.01322 0.61045 0.0
C841 C 0.56852 0.01454 0.67769 0.0
C842 C 0.55902 0.03279 0.71052 0.0
C843 C 0.54693 0.04924 0.67597 0.0
C844 C 0.54521 0.04761 0.60777 0.0
H845 H 0.0071 0.01706 0.91722 0.0
H846 H 0.98989 0.07016 0.04967 0.0
H847 H 0.9735 0.04317 0.12496 0.0
H848 H 0.95679 0.97496 0.98851 0.0
H849 H 0.9755 0.95196 0.97263 0.0
H850 H 0.97355 0.97479 0.91578 0.0
H851 H 0.01631 0.98008 0.92285 0.0
H852 H 0.01839 0.95781 0.97961 0.0
H853 H 0.0291 0.98503 1.00092 0.0
H854 H 0.98074 0.01385 0.20214 0.0
H855 H 1.00201 0.98483 0.26076 0.0
H856 H 0.00838 0.94726 0.08234 0.0
C857 C 0.99807 0.02288 0.9595 0.0
C858 C 1.0 0.0453 0.97869 0.0
C859 C 0.98861 0.05284 0.0347 0.0
C860 C 0.97921 0.03756 0.07786 0.0
C861 C 0.98066 0.0149 0.06305 0.0
C862 C 0.9884 0.00756 1.00294 0.0
C863 C 0.99235 0.98256 1.00392 0.0
C864 C 0.97341 0.97035 0.96812 0.0
C865 C 0.01541 0.97606 0.97535 0.0
C866 C 0.99084 0.97831 0.07623 0.0
C867 C 0.98299 0.99681 0.1095 0.0
C868 C 0.98579 0.99882 0.17684 0.0
C869 C 0.99804 0.98235 0.21002 0.0
C870 C 0.00716 0.96415 0.17557 0.0
C871 C 1.00176 0.96128 0.10945 0.0
H872 H 0.00845 0.474 0.68702 0.0
H873 H 0.07829 0.45438 0.68248 0.0
H874 H 0.08566 0.48283 0.59821 0.0
H875 H 1.00396 0.48248 0.51166 0.0
H876 H 0.985 0.50579 0.51893 0.0
H877 H 0.98531 0.48436 0.58025 0.0
H878 H 0.99236 0.51441 0.66821 0.0
H879 H 0.99223 0.53591 0.60708 0.0
H880 H 0.01598 0.53295 0.66022 0.0
H881 H 0.086 0.51544 0.51835 0.0
H882 H 0.0783 0.54561 0.4393 0.0
H883 H 0.00764 0.54195 0.48606 0.0
C884 C 0.02528 0.47565 0.66809 0.0
C885 C 0.04283 0.46188 0.69195 0.0
C886 C 0.06453 0.46455 0.66517 0.0
C887 C 0.06892 0.48081 0.61738 0.0
C888 C 0.05135 0.49419 0.59527 0.0
C889 C 0.02984 0.49148 0.61879 0.0
C890 C 0.0138 0.50735 0.58436 0.0
C891 C 0.99596 0.49421 0.54656 0.0
C892 C 1.00295 0.52361 0.63287 0.0
C893 C 0.02965 0.51958 0.53848 0.0
C894 C 0.05131 0.51195 0.54637 0.0
C895 C 0.06904 0.52131 0.51139 0.0
C896 C 0.06452 0.53858 0.4667 0.0
C897 C 0.04238 0.5462 0.45588 0.0
C898 C 0.02476 0.53645 0.49264 0.0
H899 H 0.8274 0.77302 0.92208 0.0
H900 H 0.83754 0.70172 0.94665 0.0
H901 H 0.80997 0.69418 0.86089 0.0
H902 H 0.76698 0.76884 0.89622 0.0
H903 H 0.76578 0.79088 0.83679 0.0
H904 H 0.78712 0.79125 0.89851 0.0
H905 H 0.81774 0.79344 0.80999 0.0
H906 H 0.79649 0.79312 0.74803 0.0
H907 H 0.81855 0.77256 0.74695 0.0
H908 H 0.78254 0.69374 0.76955 0.0
H909 H 0.75464 0.70039 0.68371 0.0
H910 H 0.7582 0.7717 0.72024 0.0
C911 C 0.82389 0.75586 0.90901 0.0
C912 C 0.83497 0.73795 0.94133 0.0
C913 C 0.82947 0.71576 0.92315 0.0
C914 C 0.81378 0.71127 0.87414 0.0
C915 C 0.80311 0.72909 0.84359 0.0
C916 C 0.80765 0.75098 0.86059 0.0
C917 C 0.79287 0.76683 0.82107 0.0
C918 C 0.77726 0.78025 0.86582 0.0
C919 C 0.80728 0.78241 0.77902 0.0
C920 C 0.7796 0.75042 0.77907 0.0
C921 C 0.78609 0.72876 0.79274 0.0
C922 C 0.77717 0.71062 0.75898 0.0
C923 C 0.76128 0.71458 0.71004 0.0
C924 C 0.75387 0.73649 0.69529 0.0
C925 C 0.76315 0.75469 0.73091 0.0
H926 H 0.54938 0.5169 0.23173 0.0
H927 H 0.53819 0.57719 0.11996 0.0
H928 H 0.53822 0.55501 0.01892 0.0
H929 H 0.58448 0.48744 0.1161 0.0
H930 H 0.57191 0.46046 0.12964 0.0
H931 H 0.57213 0.48098 0.19368 0.0
H932 H 0.52908 0.478 0.20369 0.0
H933 H 0.52873 0.45745 0.13975 0.0
H934 H 0.51193 0.48237 0.13295 0.0
H935 H 0.54165 0.52687 0.92896 0.0
H936 H 0.5434 0.49407 0.85647 0.0
H937 H 0.54769 0.4503 0.02349 0.0
C938 C 0.54704 0.52536 0.18586 0.0
C939 C 0.54404 0.54895 0.18383 0.0
C940 C 0.54058 0.55927 0.1229 0.0
C941 C 0.54063 0.54677 0.0651 0.0
C942 C 0.5436 0.52367 0.06847 0.0
C943 C 0.54629 0.51292 0.12727 0.0
C944 C 0.5478 0.48766 0.11672 0.0
C945 C 0.57043 0.4786 0.14045 0.0
C946 C 0.52822 0.47566 0.15028 0.0
C947 C 0.54589 0.486 0.04294 0.0
C948 C 0.54384 0.50711 0.01636 0.0
C949 C 0.54295 0.51026 0.94938 0.0
C950 C 0.54404 0.49149 0.90845 0.0
C951 C 0.54547 0.46955 0.93392 0.0
C952 C 0.54628 0.46681 1.00242 0.0
H953 H 0.82769 0.23659 0.23084 0.0
H954 H 0.83549 0.30802 0.20278 0.0
H955 H 0.80737 0.31514 0.2877 0.0
H956 H 0.76734 0.23867 0.25455 0.0
H957 H 0.76666 0.21699 0.31515 0.0
H958 H 0.78835 0.21703 0.25434 0.0
H959 H 0.81851 0.21658 0.34423 0.0
H960 H 0.7969 0.21652 0.40531 0.0
H961 H 0.81814 0.2379 0.40607 0.0
H962 H 0.77929 0.31512 0.37746 0.0
H963 H 0.75063 0.30803 0.46076 0.0
H964 H 0.75723 0.23664 0.42881 0.0
C965 C 0.82356 0.25371 0.24302 0.0
C966 C 0.83409 0.27178 0.21003 0.0
C967 C 0.82783 0.29389 0.22692 0.0
C968 C 0.81184 0.29812 0.27543 0.0
C969 C 0.80171 0.28011 0.30667 0.0
C970 C 0.80707 0.2583 0.29088 0.0
C971 C 0.7927 0.24216 0.3306 0.0
C972 C 0.77789 0.22786 0.28599 0.0
C973 C 0.80745 0.22741 0.37413 0.0
C974 C 0.77859 0.25832 0.37108 0.0
C975 C 0.78441 0.28012 0.35673 0.0
C976 C 0.77449 0.29812 0.38867 0.0
C977 C 0.75819 0.29389 0.43626 0.0
C978 C 0.75139 0.27181 0.45154 0.0
C979 C 0.76179 0.25375 0.418 0.0
H980 H 0.32432 0.21945 0.42169 0.0
H981 H 0.33174 0.29085 0.45066 0.0
H982 H 0.30139 0.29774 0.37171 0.0
H983 H 0.31399 0.22302 0.24686 0.0
H984 H 0.2942 0.2003 0.24644 0.0
H985 H 0.31628 0.20091 0.30585 0.0
H986 H 0.2869 0.19803 0.39774 0.0
H987 H 0.26472 0.19755 0.33864 0.0
H988 H 0.2646 0.21829 0.40206 0.0
H989 H 0.26824 0.29685 0.29413 0.0
H990 H 0.2383 0.2886 0.21508 0.0
H991 H 0.25393 0.21796 0.22745 0.0
C992 C 0.31965 0.23655 0.41114 0.0
C993 C 0.33054 0.25463 0.44292 0.0
C994 C 0.32387 0.27671 0.42713 0.0
C995 C 0.3065 0.28078 0.38241 0.0
C996 C 0.29601 0.26265 0.35245 0.0
C997 C 0.30259 0.24096 0.36528 0.0
C998 C 0.28899 0.22452 0.32466 0.0
C999 C 0.30428 0.21141 0.27819 0.0
C1000 C 0.2755 0.20866 0.3684 0.0
C1001 C 0.27359 0.24031 0.28755 0.0
C1002 C 0.27775 0.26222 0.30509 0.0
C1003 C 0.26508 0.27976 0.27963 0.0
C1004 C 0.24796 0.27489 0.2348 0.0
C1005 C 0.24369 0.25267 0.21436 0.0
C1006 C 0.25682 0.23517 0.24138 0.0
H1007 H 0.32523 0.79453 0.7352 0.0
H1008 H 0.33188 0.72334 0.70008 0.0
H1009 H 0.30142 0.71598 0.778 0.0
H1010 H 0.3148 0.78915 0.90928 0.0
H1011 H 0.29508 0.81193 0.91256 0.0
H1012 H 0.31702 0.81194 0.8525 0.0
H1013 H 0.28746 0.816 0.76169 0.0
H1014 H 0.26543 0.81593 0.82144 0.0
H1015 H 0.26506 0.79593 0.75605 0.0
H1016 H 0.26906 0.71607 0.85594 0.0
H1017 H 0.23948 0.72318 0.93665 0.0
H1018 H 0.25461 0.79407 0.93117 0.0
C1019 C 0.32026 0.7774 0.744 0.0
C1020 C 0.33105 0.75949 0.7109 0.0
C1021 C 0.32408 0.73735 0.72455 0.0
C1022 C 0.30666 0.73299 0.76872 0.0
C1023 C 0.29638 0.75089 0.80032 0.0
C1024 C 0.30308 0.77267 0.78942 0.0
C1025 C 0.28962 0.78868 0.83209 0.0
C1026 C 0.30505 0.80116 0.87942 0.0
C1027 C 0.27609 0.80511 0.79031 0.0
C1028 C 0.27422 0.77252 0.86809 0.0
C1029 C 0.27832 0.75084 0.84815 0.0
C1030 C 0.26588 0.73297 0.87226 0.0
C1031 C 0.24897 0.73722 0.91814 0.0
C1032 C 0.24461 0.75916 0.94096 0.0
C1033 C 0.25756 0.77707 0.91537 0.0
H1034 H 0.55866 0.96874 0.17206 0.0
H1035 H 0.48759 0.9639 0.21378 0.0
H1036 H 0.48 0.99394 0.13571 0.0
H1037 H 0.55943 0.02943 0.15642 0.0
H1038 H 0.57939 0.02997 0.09084 0.0
H1039 H 0.57983 0.00738 0.1486 0.0
H1040 H 0.57608 0.97874 0.05526 0.0
H1041 H 0.57572 1.00124 0.9972 0.0
H1042 H 0.55318 0.98125 0.99887 0.0
H1043 H 0.47923 0.02388 0.05292 0.0
H1044 H 0.48538 0.05301 0.97095 0.0
H1045 H 0.55705 0.04172 0.98144 0.0
C1046 C 0.54151 0.97391 0.16426 0.0
C1047 C 0.52369 0.96366 0.1994 0.0
C1048 C 0.50157 0.97128 0.18805 0.0
C1049 C 0.49704 0.98842 0.14352 0.0
C1050 C 0.51479 0.99827 0.11032 0.0
C1051 C 0.53663 0.99147 0.12002 0.0
C1052 C 0.55244 1.00559 0.07829 0.0
C1053 C 0.56874 0.01888 0.1211 0.0
C1054 C 0.56511 0.99082 0.02951 0.0
C1055 C 0.53601 0.02118 0.04369 0.0
C1056 C 0.51439 0.01641 0.06311 0.0
C1057 C 0.49609 0.02783 0.0376 0.0
C1058 C 0.4998 0.04443 0.99077 0.0
C1059 C 0.52168 0.04996 0.9695 0.0
C1060 C 0.54012 0.03819 0.99703 0.0
H1061 H 0.07222 0.03679 0.68775 0.0
H1062 H 1.00137 0.05178 0.69943 0.0
H1063 H 0.99381 0.02337 0.61477 0.0
H1064 H 0.0729 0.02957 0.5107 0.0
H1065 H 0.09359 0.00766 0.51296 0.0
H1066 H 0.09326 0.02884 0.57509 0.0
H1067 H 0.0906 0.99808 0.66289 0.0
H1068 H 0.09066 0.97681 0.601 0.0
H1069 H 0.06818 0.97796 0.65927 0.0
H1070 H 0.99377 0.99055 0.53427 0.0
H1071 H 1.00163 0.9612 0.45257 0.0
H1072 H 0.07281 0.97023 0.48278 0.0
C1073 C 0.05512 0.03423 0.67204 0.0
C1074 C 0.03735 0.04661 0.7007 0.0
C1075 C 0.01528 0.04274 0.67825 0.0
C1076 C 0.01082 0.02646 0.63036 0.0
C1077 C 0.02864 0.01435 0.60377 0.0
C1078 C 0.05044 0.01846 0.6227 0.0
C1079 C 0.06666 1.00386 0.58423 0.0
C1080 C 0.08254 0.01835 0.54331 0.0
C1081 C 0.0798 0.98826 0.62956 0.0
C1082 C 0.05062 0.99067 0.54133 0.0
C1083 C 0.02872 0.99669 0.55432 0.0
C1084 C 0.01089 0.98601 0.52327 0.0
C1085 C 0.01551 0.96918 0.47711 0.0
C1086 C 0.03781 0.96334 0.46075 0.0
C1087 C 0.05556 0.97434 0.4937 0.0
loop_
_geom_bond_atom_site_label_1
_geom_bond_atom_site_label_2
_geom_bond_distance
_geom_bond_site_symmetry_2
_ccdc_geom_bond_type
Co0 O1 2.216 . S
Co0 O2 2.091 . S
Co0 O4 2.004 . S
Co0 O10 2.021 . S
Co0 O12 2.137 . S
Co0 O13 2.244 . S
O1 Co0 2.216 . S
O1 C8 1.247 . S
O2 Co0 2.091 . S
O2 C8 1.261 . S
C3 O12 1.247 1_655 S
C3 O13 1.272 1_655 S
O4 Co0 2.004 . S
O4 C9 1.259 . S
Co5 O6 2.061 . S
Co5 O11 2.052 . S
Co5 O13 2.135 . S
O6 Co5 2.061 . S
O6 C9 1.235 . S
C7 O10 1.238 . S
C7 O11 1.241 . S
C8 O1 1.247 . S
C8 O2 1.261 . S
C9 O4 1.259 . S
C9 O6 1.235 . S
O10 Co0 2.021 . S
O10 C7 1.238 . S
O11 Co5 2.052 . S
O11 C7 1.241 . S
O12 Co0 2.137 . S
O12 C3 1.247 1_455 S
O13 Co0 2.244 . S
O13 C3 1.272 1_455 S
O13 Co5 2.135 . S
Co14 O15 2.216 . S
Co14 O16 2.091 . S
Co14 O18 2.004 . S
Co14 O24 2.021 . S
Co14 O26 2.137 . S
Co14 O27 2.244 . S
O15 Co14 2.216 . S
O15 C22 1.247 . S
O16 Co14 2.091 . S
O16 C22 1.261 . S
C17 O26 1.247 . S
C17 O27 1.272 . S
O18 Co14 2.004 . S
O18 C23 1.259 . S
Co19 O20 2.061 . S
Co19 O25 2.052 . S
Co19 O27 2.135 . S
O20 Co19 2.061 . S
O20 C23 1.235 . S
C21 O24 1.238 . S
C21 O25 1.241 . S
C22 O15 1.247 . S
C22 O16 1.261 . S
C23 O18 1.259 . S
C23 O20 1.235 . S
O24 Co14 2.021 . S
O24 C21 1.238 . S
O25 Co19 2.052 . S
O25 C21 1.241 . S
O26 Co14 2.137 . S
O26 C17 1.247 . S
O27 Co14 2.244 . S
O27 C17 1.272 . S
O27 Co19 2.135 . S
Co28 O29 2.216 . S
Co28 O30 2.091 . S
Co28 O32 2.004 . S
Co28 O38 2.021 . S
Co28 O40 2.137 . S
Co28 O41 2.244 . S
O29 Co28 2.216 . S
O29 C36 1.247 . S
O30 Co28 2.091 . S
O30 C36 1.261 . S
C31 O40 1.247 . S
C31 O41 1.272 . S
O32 Co28 2.004 . S
O32 C37 1.259 . S
Co33 O34 2.061 . S
Co33 O39 2.052 . S
Co33 O41 2.135 . S
O34 Co33 2.061 . S
O34 C37 1.235 . S
C35 O38 1.238 . S
C35 O39 1.241 . S
C36 O29 1.247 . S
C36 O30 1.261 . S
C37 O32 1.259 . S
C37 O34 1.235 . S
O38 Co28 2.021 . S
O38 C35 1.238 . S
O39 Co33 2.052 . S
O39 C35 1.241 . S
O40 Co28 2.137 . S
O40 C31 1.247 . S
O41 Co28 2.244 . S
O41 C31 1.272 . S
O41 Co33 2.135 . S
Co42 O43 2.216 . S
Co42 O44 2.091 . S
Co42 O46 2.004 . S
Co42 O52 2.021 1_554 S
Co42 O54 2.137 . S
Co42 O55 2.244 1_554 S
O43 Co42 2.216 . S
O43 C50 1.247 . S
O44 Co42 2.091 . S
O44 C50 1.261 . S
C45 O54 1.247 . S
C45 O55 1.272 1_554 S
O46 Co42 2.004 . S
O46 C51 1.259 1_554 S
Co47 O48 2.061 . S
Co47 O53 2.052 . S
Co47 O55 2.135 . S
O48 Co47 2.061 . S
O48 C51 1.235 . S
C49 O52 1.238 . S
C49 O53 1.241 . S
C50 O43 1.247 . S
C50 O44 1.261 . S
C51 O46 1.259 1_556 S
C51 O48 1.235 . S
O52 Co42 2.021 1_556 S
O52 C49 1.238 . S
O53 Co47 2.052 . S
O53 C49 1.241 . S
O54 Co42 2.137 . S
O54 C45 1.247 . S
O55 Co42 2.244 1_556 S
O55 C45 1.272 1_556 S
O55 Co47 2.135 . S
Co56 O57 2.216 . S
Co56 O58 2.091 . S
Co56 O60 2.004 . S
Co56 O66 2.021 . S
Co56 O68 2.137 . S
Co56 O69 2.244 . S
O57 Co56 2.216 . S
O57 C64 1.247 . S
O58 Co56 2.091 . S
O58 C64 1.261 . S
C59 O68 1.247 1_655 S
C59 O69 1.272 1_655 S
O60 Co56 2.004 . S
O60 C65 1.259 . S
Co61 O62 2.061 . S
Co61 O67 2.052 . S
Co61 O69 2.135 . S
O62 Co61 2.061 . S
O62 C65 1.235 . S
C63 O66 1.238 . S
C63 O67 1.241 . S
C64 O57 1.247 . S
C64 O58 1.261 . S
C65 O60 1.259 . S
C65 O62 1.235 . S
O66 Co56 2.021 . S
O66 C63 1.238 . S
O67 Co61 2.052 . S
O67 C63 1.241 . S
O68 Co56 2.137 . S
O68 C59 1.247 1_455 S
O69 Co56 2.244 . S
O69 C59 1.272 1_455 S
O69 Co61 2.135 . S
Co70 O71 2.216 . S
Co70 O72 2.091 1_554 S
Co70 O74 2.004 . S
Co70 O80 2.021 . S
Co70 O82 2.137 . S
Co70 O83 2.244 . S
O71 Co70 2.216 . S
O71 C78 1.247 1_554 S
O72 Co70 2.091 1_556 S
O72 C78 1.261 . S
C73 O82 1.247 . S
C73 O83 1.272 . S
O74 Co70 2.004 . S
O74 C79 1.259 . S
Co75 O76 2.061 . S
Co75 O81 2.052 . S
Co75 O83 2.135 . S
O76 Co75 2.061 . S
O76 C79 1.235 . S
C77 O80 1.238 . S
C77 O81 1.241 . S
C78 O71 1.247 1_556 S
C78 O72 1.261 . S
C79 O74 1.259 . S
C79 O76 1.235 . S
O80 Co70 2.021 . S
O80 C77 1.238 . S
O81 Co75 2.052 . S
O81 C77 1.241 . S
O82 Co70 2.137 . S
O82 C73 1.247 . S
O83 Co70 2.244 . S
O83 C73 1.272 . S
O83 Co75 2.135 . S
Co84 O85 2.216 . S
Co84 O86 2.091 . S
Co84 O88 2.004 . S
Co84 O94 2.021 . S
Co84 O96 2.137 . S
Co84 O97 2.244 . S
O85 Co84 2.216 . S
O85 C92 1.247 . S
O86 Co84 2.091 . S
O86 C92 1.261 . S
C87 O96 1.247 . S
C87 O97 1.272 . S
O88 Co84 2.004 . S
O88 C93 1.259 . S
Co89 O90 2.061 . S
Co89 O95 2.052 . S
Co89 O97 2.135 . S
O90 Co89 2.061 . S
O90 C93 1.235 . S
C91 O94 1.238 . S
C91 O95 1.241 . S
C92 O85 1.247 . S
C92 O86 1.261 . S
C93 O88 1.259 . S
C93 O90 1.235 . S
O94 Co84 2.021 . S
O94 C91 1.238 . S
O95 Co89 2.052 . S
O95 C91 1.241 . S
O96 Co84 2.137 . S
O96 C87 1.247 . S
O97 Co84 2.244 . S
O97 C87 1.272 . S
O97 Co89 2.135 . S
Co98 O99 2.216 . S
Co98 O100 2.091 . S
Co98 O102 2.004 . S
Co98 O108 2.021 . S
Co98 O110 2.137 . S
Co98 O111 2.244 . S
O99 Co98 2.216 . S
O99 C106 1.247 . S
O100 Co98 2.091 . S
O100 C106 1.261 . S
C101 O110 1.247 . S
C101 O111 1.272 . S
O102 Co98 2.004 . S
O102 C107 1.259 . S
Co103 O104 2.061 . S
Co103 O109 2.052 . S
Co103 O111 2.135 . S
O104 Co103 2.061 . S
O104 C107 1.235 . S
C105 O108 1.238 . S
C105 O109 1.241 . S
C106 O99 1.247 . S
C106 O100 1.261 . S
C107 O102 1.259 . S
C107 O104 1.235 . S
O108 Co98 2.021 . S
O108 C105 1.238 . S
O109 Co103 2.052 . S
O109 C105 1.241 . S
O110 Co98 2.137 . S
O110 C101 1.247 . S
O111 Co98 2.244 . S
O111 C101 1.272 . S
O111 Co103 2.135 . S
Co112 O113 2.216 . S
Co112 O114 2.091 . S
Co112 O116 2.004 . S
Co112 O122 2.021 . S
Co112 O124 2.137 . S
Co112 O125 2.244 . S
O113 Co112 2.216 . S
O113 C120 1.247 . S
O114 Co112 2.091 . S
O114 C120 1.261 . S
C115 O124 1.247 . S
C115 O125 1.272 . S
O116 Co112 2.004 . S
O116 C121 1.259 . S
Co117 O118 2.061 . S
Co117 O123 2.052 . S
Co117 O125 2.135 . S
O118 Co117 2.061 . S
O118 C121 1.235 . S
C119 O122 1.238 . S
C119 O123 1.241 . S
C120 O113 1.247 . S
C120 O114 1.261 . S
C121 O116 1.259 . S
C121 O118 1.235 . S
O122 Co112 2.021 . S
O122 C119 1.238 . S
O123 Co117 2.052 . S
O123 C119 1.241 . S
O124 Co112 2.137 . S
O124 C115 1.247 . S
O125 Co112 2.244 . S
O125 C115 1.272 . S
O125 Co117 2.135 . S
Co126 O127 2.216 . S
Co126 O128 2.091 1_554 S
Co126 O130 2.004 . S
Co126 O136 2.021 . S
Co126 O138 2.137 . S
Co126 O139 2.244 . S
O127 Co126 2.216 . S
O127 C134 1.247 1_554 S
O128 Co126 2.091 1_556 S
O128 C134 1.261 . S
C129 O138 1.247 . S
C129 O139 1.272 . S
O130 Co126 2.004 . S
O130 C135 1.259 . S
Co131 O132 2.061 . S
Co131 O137 2.052 . S
Co131 O139 2.135 . S
O132 Co131 2.061 . S
O132 C135 1.235 . S
C133 O136 1.238 . S
C133 O137 1.241 . S
C134 O127 1.247 1_556 S
C134 O128 1.261 . S
C135 O130 1.259 . S
C135 O132 1.235 . S
O136 Co126 2.021 . S
O136 C133 1.238 . S
O137 Co131 2.052 . S
O137 C133 1.241 . S
O138 Co126 2.137 . S
O138 C129 1.247 . S
O139 Co126 2.244 . S
O139 C129 1.272 . S
O139 Co131 2.135 . S
Co140 O141 2.216 . S
Co140 O142 2.091 . S
Co140 O144 2.004 . S
Co140 O150 2.021 1_554 S
Co140 O152 2.137 . S
Co140 O153 2.244 1_554 S
O141 Co140 2.216 . S
O141 C148 1.247 . S
O142 Co140 2.091 . S
O142 C148 1.261 . S
C143 O152 1.247 . S
C143 O153 1.272 1_554 S
O144 Co140 2.004 . S
O144 C149 1.259 1_554 S
Co145 O146 2.061 . S
Co145 O151 2.052 . S
Co145 O153 2.135 . S
O146 Co145 2.061 . S
O146 C149 1.235 . S
C147 O150 1.238 . S
C147 O151 1.241 . S
C148 O141 1.247 . S
C148 O142 1.261 . S
C149 O144 1.259 1_556 S
C149 O146 1.235 . S
O150 Co140 2.021 1_556 S
O150 C147 1.238 . S
O151 Co145 2.052 . S
O151 C147 1.241 . S
O152 Co140 2.137 . S
O152 C143 1.247 . S
O153 Co140 2.244 1_556 S
O153 C143 1.272 1_556 S
O153 Co145 2.135 . S
Co154 O155 2.216 . S
Co154 O156 2.091 . S
Co154 O158 2.004 . S
Co154 O164 2.021 . S
Co154 O166 2.137 . S
Co154 O167 2.244 . S
O155 Co154 2.216 . S
O155 C162 1.247 . S
O156 Co154 2.091 . S
O156 C162 1.261 . S
C157 O166 1.247 . S
C157 O167 1.272 . S
O158 Co154 2.004 . S
O158 C163 1.259 . S
Co159 O160 2.061 . S
Co159 O165 2.052 . S
Co159 O167 2.135 . S
O160 Co159 2.061 . S
O160 C163 1.235 . S
C161 O164 1.238 . S
C161 O165 1.241 . S
C162 O155 1.247 . S
C162 O156 1.261 . S
C163 O158 1.259 . S
C163 O160 1.235 . S
O164 Co154 2.021 . S
O164 C161 1.238 . S
O165 Co159 2.052 . S
O165 C161 1.241 . S
O166 Co154 2.137 . S
O166 C157 1.247 . S
O167 Co154 2.244 . S
O167 C157 1.272 . S
O167 Co159 2.135 . S
Co168 O169 2.216 . S
Co168 O170 2.091 . S
Co168 O172 2.004 . S
Co168 O178 2.021 . S
Co168 O180 2.137 . S
Co168 O181 2.244 . S
O169 Co168 2.216 . S
O169 C176 1.247 . S
O170 Co168 2.091 . S
O170 C176 1.261 . S
C171 O180 1.247 . S
C171 O181 1.272 . S
O172 Co168 2.004 . S
O172 C177 1.259 . S
Co173 O174 2.061 . S
Co173 O179 2.052 . S
Co173 O181 2.135 . S
O174 Co173 2.061 . S
O174 C177 1.235 . S
C175 O178 1.238 . S
C175 O179 1.241 . S
C176 O169 1.247 . S
C176 O170 1.261 . S
C177 O172 1.259 . S
C177 O174 1.235 . S
O178 Co168 2.021 . S
O178 C175 1.238 . S
O179 Co173 2.052 . S
O179 C175 1.241 . S
O180 Co168 2.137 . S
O180 C171 1.247 . S
O181 Co168 2.244 . S
O181 C171 1.272 . S
O181 Co173 2.135 . S
Co182 O183 2.216 . S
Co182 O184 2.091 . S
Co182 O186 2.004 . S
Co182 O192 2.021 . S
Co182 O194 2.137 . S
Co182 O195 2.244 . S
O183 Co182 2.216 . S
O183 C190 1.247 . S
O184 Co182 2.091 . S
O184 C190 1.261 . S
C185 O194 1.247 . S
C185 O195 1.272 . S
O186 Co182 2.004 . S
O186 C191 1.259 . S
Co187 O188 2.061 . S
Co187 O193 2.052 . S
Co187 O195 2.135 . S
O188 Co187 2.061 . S
O188 C191 1.235 . S
C189 O192 1.238 . S
C189 O193 1.241 . S
C190 O183 1.247 . S
C190 O184 1.261 . S
C191 O186 1.259 . S
C191 O188 1.235 . S
O192 Co182 2.021 . S
O192 C189 1.238 . S
O193 Co187 2.052 . S
O193 C189 1.241 . S
O194 Co182 2.137 . S
O194 C185 1.247 . S
O195 Co182 2.244 . S
O195 C185 1.272 . S
O195 Co187 2.135 . S
Co196 O197 2.216 . S
Co196 O198 2.091 . S
Co196 O200 2.004 . S
Co196 O206 2.021 . S
Co196 O208 2.137 . S
Co196 O209 2.244 . S
O197 Co196 2.216 . S
O197 C204 1.247 . S
O198 Co196 2.091 . S
O198 C204 1.261 . S
C199 O208 1.247 . S
C199 O209 1.272 . S
O200 Co196 2.004 . S
O200 C205 1.259 . S
Co201 O202 2.061 . S
Co201 O207 2.052 . S
Co201 O209 2.135 . S
O202 Co201 2.061 . S
O202 C205 1.235 . S
C203 O206 1.238 . S
C203 O207 1.241 . S
C204 O197 1.247 . S
C204 O198 1.261 . S
C205 O200 1.259 . S
C205 O202 1.235 . S
O206 Co196 2.021 . S
O206 C203 1.238 . S
O207 Co201 2.052 . S
O207 C203 1.241 . S
O208 Co196 2.137 . S
O208 C199 1.247 . S
O209 Co196 2.244 . S
O209 C199 1.272 . S
O209 Co201 2.135 . S
Co210 O211 2.216 . S
Co210 O212 2.091 . S
Co210 O214 2.004 . S
Co210 O220 2.021 . S
Co210 O222 2.137 . S
Co210 O223 2.244 . S
O211 Co210 2.216 . S
O211 C218 1.247 . S
O212 Co210 2.091 . S
O212 C218 1.261 . S
C213 O222 1.247 . S
C213 O223 1.272 . S
O214 Co210 2.004 . S
O214 C219 1.259 . S
Co215 O216 2.061 . S
Co215 O221 2.052 . S
Co215 O223 2.135 . S
O216 Co215 2.061 . S
O216 C219 1.235 . S
C217 O220 1.238 . S
C217 O221 1.241 . S
C218 O211 1.247 . S
C218 O212 1.261 . S
C219 O214 1.259 . S
C219 O216 1.235 . S
O220 Co210 2.021 . S
O220 C217 1.238 . S
O221 Co215 2.052 . S
O221 C217 1.241 . S
O222 Co210 2.137 . S
O222 C213 1.247 . S
O223 Co210 2.244 . S
O223 C213 1.272 . S
O223 Co215 2.135 . S
H224 C236 0.930 . S
H225 C238 0.930 . S
H226 C239 0.930 . S
H227 C243 0.959 . S
H228 C243 0.959 . S
H229 C243 0.961 . S
H230 C244 0.960 . S
H231 C244 0.961 . S
H232 C244 0.959 . S
H233 C247 0.929 . S
H234 C248 0.931 . S
H235 C250 0.930 . S
C236 H224 0.930 . S
C236 C237 1.399 . S
C236 C241 1.399 . S
C237 C236 1.399 . S
C237 C238 1.376 . S
C238 H225 0.930 . S
C238 C237 1.376 . S
C238 C239 1.388 . S
C239 H226 0.930 . S
C239 C238 1.388 . S
C239 C240 1.390 . S
C240 C239 1.390 . S
C240 C241 1.394 . S
C240 C246 1.465 . S
C241 C236 1.399 . S
C241 C240 1.394 . S
C241 C242 1.516 . S
C242 C241 1.516 . S
C242 C243 1.502 . S
C242 C244 1.561 . S
C242 C245 1.526 . S
C243 H227 0.959 . S
C243 H228 0.959 . S
C243 H229 0.961 . S
C243 C242 1.502 . S
C244 H230 0.960 . S
C244 H231 0.961 . S
C244 H232 0.959 . S
C244 C242 1.561 . S
C245 C242 1.526 . S
C245 C246 1.396 . S
C245 C250 1.390 . S
C246 C240 1.465 . S
C246 C245 1.396 . S
C246 C247 1.399 . S
C247 H233 0.929 . S
C247 C246 1.399 . S
C247 C248 1.385 . S
C248 H234 0.931 . S
C248 C247 1.385 . S
C248 C249 1.389 . S
C249 C248 1.389 . S
C249 C250 1.387 . S
C250 H235 0.930 . S
C250 C245 1.390 . S
C250 C249 1.387 . S
H251 C263 0.930 . S
H252 C265 0.930 . S
H253 C266 0.930 . S
H254 C270 0.959 . S
H255 C270 0.959 . S
H256 C270 0.961 . S
H257 C271 0.960 . S
H258 C271 0.961 . S
H259 C271 0.959 . S
H260 C274 0.929 . S
H261 C275 0.931 . S
H262 C277 0.930 . S
C263 H251 0.930 . S
C263 C264 1.399 . S
C263 C268 1.399 . S
C264 C263 1.399 . S
C264 C265 1.376 . S
C265 H252 0.930 . S
C265 C264 1.376 . S
C265 C266 1.388 . S
C266 H253 0.930 . S
C266 C265 1.388 . S
C266 C267 1.390 . S
C267 C266 1.390 . S
C267 C268 1.394 . S
C267 C273 1.465 . S
C268 C263 1.399 . S
C268 C267 1.394 . S
C268 C269 1.516 . S
C269 C268 1.516 . S
C269 C270 1.502 . S
C269 C271 1.561 . S
C269 C272 1.526 . S
C270 H254 0.959 . S
C270 H255 0.959 . S
C270 H256 0.961 . S
C270 C269 1.502 . S
C271 H257 0.960 . S
C271 H258 0.961 . S
C271 H259 0.959 . S
C271 C269 1.561 . S
C272 C269 1.526 . S
C272 C273 1.396 . S
C272 C277 1.390 . S
C273 C267 1.465 . S
C273 C272 1.396 . S
C273 C274 1.399 . S
C274 H260 0.929 . S
C274 C273 1.399 . S
C274 C275 1.385 . S
C275 H261 0.931 . S
C275 C274 1.385 . S
C275 C276 1.389 . S
C276 C275 1.389 . S
C276 C277 1.387 . S
C277 H262 0.930 . S
C277 C272 1.390 . S
C277 C276 1.387 . S
H278 C290 0.930 . S
H279 C292 0.930 . S
H280 C293 0.930 . S
H281 C297 0.959 . S
H282 C297 0.959 . S
H283 C297 0.961 . S
H284 C298 0.960 . S
H285 C298 0.961 . S
H286 C298 0.959 . S
H287 C301 0.929 . S
H288 C302 0.931 . S
H289 C304 0.930 . S
C290 H278 0.930 . S
C290 C291 1.399 . S
C290 C295 1.399 . S
C291 C290 1.399 . S
C291 C292 1.376 . S
C292 H279 0.930 . S
C292 C291 1.376 . S
C292 C293 1.388 . S
C293 H280 0.930 . S
C293 C292 1.388 . S
C293 C294 1.390 . S
C294 C293 1.390 . S
C294 C295 1.394 . S
C294 C300 1.465 . S
C295 C290 1.399 . S
C295 C294 1.394 . S
C295 C296 1.516 . S
C296 C295 1.516 . S
C296 C297 1.502 . S
C296 C298 1.561 . S
C296 C299 1.526 . S
C297 H281 0.959 . S
C297 H282 0.959 . S
C297 H283 0.961 . S
C297 C296 1.502 . S
C298 H284 0.960 . S
C298 H285 0.961 . S
C298 H286 0.959 . S
C298 C296 1.561 . S
C299 C296 1.526 . S
C299 C300 1.396 . S
C299 C304 1.390 . S
C300 C294 1.465 . S
C300 C299 1.396 . S
C300 C301 1.399 . S
C301 H287 0.929 . S
C301 C300 1.399 . S
C301 C302 1.385 . S
C302 H288 0.931 . S
C302 C301 1.385 . S
C302 C303 1.389 . S
C303 C302 1.389 . S
C303 C304 1.387 . S
C304 H289 0.930 . S
C304 C299 1.390 . S
C304 C303 1.387 . S
H305 C317 0.930 . S
H306 C319 0.930 . S
H307 C320 0.930 . S
H308 C324 0.959 . S
H309 C324 0.959 . S
H310 C324 0.961 . S
H311 C325 0.960 . S
H312 C325 0.961 . S
H313 C325 0.959 . S
H314 C328 0.929 1_554 S
H315 C329 0.931 1_455 S
H316 C331 0.930 . S
C317 H305 0.930 . S
C317 C318 1.399 . S
C317 C322 1.399 . S
C318 C317 1.399 . S
C318 C319 1.376 1_556 S
C319 H306 0.930 . S
C319 C318 1.376 1_554 S
C319 C320 1.388 . S
C320 H307 0.930 . S
C320 C319 1.388 . S
C320 C321 1.390 1_554 S
C321 C320 1.390 1_556 S
C321 C322 1.394 . S
C321 C327 1.465 . S
C322 C317 1.399 . S
C322 C321 1.394 . S
C322 C323 1.516 . S
C323 C322 1.516 . S
C323 C324 1.502 . S
C323 C325 1.561 . S
C323 C326 1.526 . S
C324 H308 0.959 . S
C324 H309 0.959 . S
C324 H310 0.961 . S
C324 C323 1.502 . S
C325 H311 0.960 . S
C325 H312 0.961 . S
C325 H313 0.959 . S
C325 C323 1.561 . S
C326 C323 1.526 . S
C326 C327 1.396 . S
C326 C331 1.390 . S
C327 C321 1.465 . S
C327 C326 1.396 . S
C327 C328 1.399 . S
C328 H314 0.929 1_556 S
C328 C327 1.399 . S
C328 C329 1.385 . S
C329 H315 0.931 1_655 S
C329 C328 1.385 . S
C329 C330 1.389 . S
C330 C329 1.389 . S
C330 C331 1.387 . S
C331 H316 0.930 . S
C331 C326 1.390 . S
C331 C330 1.387 . S
H332 C344 0.930 . S
H333 C346 0.930 . S
H334 C347 0.930 . S
H335 C351 0.959 . S
H336 C351 0.959 . S
H337 C351 0.961 . S
H338 C352 0.960 . S
H339 C352 0.961 . S
H340 C352 0.959 . S
H341 C355 0.929 . S
H342 C356 0.931 . S
H343 C358 0.930 . S
C344 H332 0.930 . S
C344 C345 1.399 . S
C344 C349 1.399 . S
C345 C344 1.399 . S
C345 C346 1.376 . S
C346 H333 0.930 . S
C346 C345 1.376 . S
C346 C347 1.388 . S
C347 H334 0.930 . S
C347 C346 1.388 . S
C347 C348 1.390 . S
C348 C347 1.390 . S
C348 C349 1.394 . S
C348 C354 1.465 . S
C349 C344 1.399 . S
C349 C348 1.394 . S
C349 C350 1.516 . S
C350 C349 1.516 . S
C350 C351 1.502 . S
C350 C352 1.561 1_556 S
C350 C353 1.526 . S
C351 H335 0.959 . S
C351 H336 0.959 . S
C351 H337 0.961 . S
C351 C350 1.502 . S
C352 H338 0.960 . S
C352 H339 0.961 . S
C352 H340 0.959 . S
C352 C350 1.561 1_554 S
C353 C350 1.526 . S
C353 C354 1.396 . S
C353 C358 1.390 . S
C354 C348 1.465 . S
C354 C353 1.396 . S
C354 C355 1.399 . S
C355 H341 0.929 . S
C355 C354 1.399 . S
C355 C356 1.385 . S
C356 H342 0.931 . S
C356 C355 1.385 . S
C356 C357 1.389 . S
C357 C356 1.389 . S
C357 C358 1.387 . S
C358 H343 0.930 . S
C358 C353 1.390 . S
C358 C357 1.387 . S
H359 C371 0.930 . S
H360 C373 0.930 . S
H361 C374 0.930 . S
H362 C378 0.959 . S
H363 C378 0.959 . S
H364 C378 0.961 . S
H365 C379 0.960 . S
H366 C379 0.961 . S
H367 C379 0.959 . S
H368 C382 0.929 . S
H369 C383 0.931 . S
H370 C385 0.930 . S
C371 H359 0.930 . S
C371 C372 1.399 . S
C371 C376 1.399 . S
C372 C371 1.399 . S
C372 C373 1.376 . S
C373 H360 0.930 . S
C373 C372 1.376 . S
C373 C374 1.388 . S
C374 H361 0.930 . S
C374 C373 1.388 . S
C374 C375 1.390 . S
C375 C374 1.390 . S
C375 C376 1.394 . S
C375 C381 1.465 . S
C376 C371 1.399 . S
C376 C375 1.394 . S
C376 C377 1.516 . S
C377 C376 1.516 . S
C377 C378 1.502 . S
C377 C379 1.561 . S
C377 C380 1.526 . S
C378 H362 0.959 . S
C378 H363 0.959 . S
C378 H364 0.961 . S
C378 C377 1.502 . S
C379 H365 0.960 . S
C379 H366 0.961 . S
C379 H367 0.959 . S
C379 C377 1.561 . S
C380 C377 1.526 . S
C380 C381 1.396 . S
C380 C385 1.390 . S
C381 C375 1.465 . S
C381 C380 1.396 . S
C381 C382 1.399 . S
C382 H368 0.929 . S
C382 C381 1.399 . S
C382 C383 1.385 . S
C383 H369 0.931 . S
C383 C382 1.385 . S
C383 C384 1.389 . S
C384 C383 1.389 . S
C384 C385 1.387 . S
C385 H370 0.930 . S
C385 C380 1.390 . S
C385 C384 1.387 . S
H386 C398 0.930 . S
H387 C400 0.930 . S
H388 C401 0.930 . S
H389 C405 0.959 . S
H390 C405 0.959 . S
H391 C405 0.961 . S
H392 C406 0.960 . S
H393 C406 0.961 . S
H394 C406 0.959 . S
H395 C409 0.929 . S
H396 C410 0.931 . S
H397 C412 0.930 . S
C398 H386 0.930 . S
C398 C399 1.399 . S
C398 C403 1.399 . S
C399 C398 1.399 . S
C399 C400 1.376 . S
C400 H387 0.930 . S
C400 C399 1.376 . S
C400 C401 1.388 . S
C401 H388 0.930 . S
C401 C400 1.388 . S
C401 C402 1.390 . S
C402 C401 1.390 . S
C402 C403 1.394 . S
C402 C408 1.465 . S
C403 C398 1.399 . S
C403 C402 1.394 . S
C403 C404 1.516 . S
C404 C403 1.516 . S
C404 C405 1.502 . S
C404 C406 1.561 . S
C404 C407 1.526 . S
C405 H389 0.959 . S
C405 H390 0.959 . S
C405 H391 0.961 . S
C405 C404 1.502 . S
C406 H392 0.960 . S
C406 H393 0.961 . S
C406 H394 0.959 . S
C406 C404 1.561 . S
C407 C404 1.526 . S
C407 C408 1.396 . S
C407 C412 1.390 . S
C408 C402 1.465 . S
C408 C407 1.396 . S
C408 C409 1.399 . S
C409 H395 0.929 . S
C409 C408 1.399 . S
C409 C410 1.385 . S
C410 H396 0.931 . S
C410 C409 1.385 . S
C410 C411 1.389 . S
C411 C410 1.389 . S
C411 C412 1.387 . S
C412 H397 0.930 . S
C412 C407 1.390 . S
C412 C411 1.387 . S
H413 C425 0.930 . S
H414 C427 0.930 . S
H415 C428 0.930 . S
H416 C432 0.959 . S
H417 C432 0.959 . S
H418 C432 0.961 . S
H419 C433 0.960 . S
H420 C433 0.961 . S
H421 C433 0.959 . S
H422 C436 0.929 . S
H423 C437 0.931 . S
H424 C439 0.930 . S
C425 H413 0.930 . S
C425 C426 1.399 . S
C425 C430 1.399 . S
C426 C425 1.399 . S
C426 C427 1.376 . S
C427 H414 0.930 . S
C427 C426 1.376 . S
C427 C428 1.388 . S
C428 H415 0.930 . S
C428 C427 1.388 . S
C428 C429 1.390 . S
C429 C428 1.390 . S
C429 C430 1.394 . S
C429 C435 1.465 . S
C430 C425 1.399 . S
C430 C429 1.394 . S
C430 C431 1.516 . S
C431 C430 1.516 . S
C431 C432 1.502 . S
C431 C433 1.561 . S
C431 C434 1.526 . S
C432 H416 0.959 . S
C432 H417 0.959 . S
C432 H418 0.961 . S
C432 C431 1.502 . S
C433 H419 0.960 . S
C433 H420 0.961 . S
C433 H421 0.959 . S
C433 C431 1.561 . S
C434 C431 1.526 . S
C434 C435 1.396 . S
C434 C439 1.390 . S
C435 C429 1.465 . S
C435 C434 1.396 . S
C435 C436 1.399 . S
C436 H422 0.929 . S
C436 C435 1.399 . S
C436 C437 1.385 . S
C437 H423 0.931 . S
C437 C436 1.385 . S
C437 C438 1.389 . S
C438 C437 1.389 . S
C438 C439 1.387 . S
C439 H424 0.930 . S
C439 C434 1.390 . S
C439 C438 1.387 . S
H440 C452 0.930 . S
H441 C454 0.930 . S
H442 C455 0.930 1_554 S
H443 C459 0.959 . S
H444 C459 0.959 . S
H445 C459 0.961 . S
H446 C460 0.960 . S
H447 C460 0.961 . S
H448 C460 0.959 . S
H449 C463 0.929 . S
H450 C464 0.931 . S
H451 C466 0.930 . S
C452 H440 0.930 . S
C452 C453 1.399 . S
C452 C457 1.399 . S
C453 C452 1.399 . S
C453 C454 1.376 . S
C454 H441 0.930 . S
C454 C453 1.376 . S
C454 C455 1.388 . S
C455 H442 0.930 1_556 S
C455 C454 1.388 . S
C455 C456 1.390 . S
C456 C455 1.390 . S
C456 C457 1.394 . S
C456 C462 1.465 . S
C457 C452 1.399 . S
C457 C456 1.394 . S
C457 C458 1.516 . S
C458 C457 1.516 . S
C458 C459 1.502 . S
C458 C460 1.561 . S
C458 C461 1.526 . S
C459 H443 0.959 . S
C459 H444 0.959 . S
C459 H445 0.961 . S
C459 C458 1.502 . S
C460 H446 0.960 . S
C460 H447 0.961 . S
C460 H448 0.959 . S
C460 C458 1.561 . S
C461 C458 1.526 . S
C461 C462 1.396 . S
C461 C466 1.390 . S
C462 C456 1.465 . S
C462 C461 1.396 . S
C462 C463 1.399 1_556 S
C463 H449 0.929 . S
C463 C462 1.399 1_554 S
C463 C464 1.385 . S
C464 H450 0.931 . S
C464 C463 1.385 . S
C464 C465 1.389 . S
C465 C464 1.389 . S
C465 C466 1.387 1_554 S
C466 H451 0.930 . S
C466 C461 1.390 . S
C466 C465 1.387 1_556 S
H467 C479 0.930 . S
H468 C481 0.930 . S
H469 C482 0.930 . S
H470 C486 0.959 . S
H471 C486 0.959 . S
H472 C486 0.961 . S
H473 C487 0.960 . S
H474 C487 0.961 . S
H475 C487 0.959 . S
H476 C490 0.929 . S
H477 C491 0.931 . S
H478 C493 0.930 . S
C479 H467 0.930 . S
C479 C480 1.399 . S
C479 C484 1.399 . S
C480 C479 1.399 . S
C480 C481 1.376 . S
C481 H468 0.930 . S
C481 C480 1.376 . S
C481 C482 1.388 . S
C482 H469 0.930 . S
C482 C481 1.388 . S
C482 C483 1.390 . S
C483 C482 1.390 . S
C483 C484 1.394 . S
C483 C489 1.465 . S
C484 C479 1.399 . S
C484 C483 1.394 . S
C484 C485 1.516 . S
C485 C484 1.516 . S
C485 C486 1.502 . S
C485 C487 1.561 . S
C485 C488 1.526 . S
C486 H470 0.959 . S
C486 H471 0.959 . S
C486 H472 0.961 . S
C486 C485 1.502 . S
C487 H473 0.960 . S
C487 H474 0.961 . S
C487 H475 0.959 . S
C487 C485 1.561 . S
C488 C485 1.526 . S
C488 C489 1.396 . S
C488 C493 1.390 . S
C489 C483 1.465 . S
C489 C488 1.396 . S
C489 C490 1.399 . S
C490 H476 0.929 . S
C490 C489 1.399 . S
C490 C491 1.385 . S
C491 H477 0.931 . S
C491 C490 1.385 . S
C491 C492 1.389 . S
C492 C491 1.389 . S
C492 C493 1.387 . S
C493 H478 0.930 . S
C493 C488 1.390 . S
C493 C492 1.387 . S
H494 C506 0.930 . S
H495 C508 0.930 . S
H496 C509 0.930 . S
H497 C513 0.959 . S
H498 C513 0.959 . S
H499 C513 0.961 . S
H500 C514 0.960 . S
H501 C514 0.961 . S
H502 C514 0.959 . S
H503 C517 0.929 . S
H504 C518 0.931 . S
H505 C520 0.930 . S
C506 H494 0.930 . S
C506 C507 1.399 . S
C506 C511 1.399 . S
C507 C506 1.399 . S
C507 C508 1.376 . S
C508 H495 0.930 . S
C508 C507 1.376 . S
C508 C509 1.388 . S
C509 H496 0.930 . S
C509 C508 1.388 . S
C509 C510 1.390 . S
C510 C509 1.390 . S
C510 C511 1.394 . S
C510 C516 1.465 . S
C511 C506 1.399 . S
C511 C510 1.394 . S
C511 C512 1.516 . S
C512 C511 1.516 . S
C512 C513 1.502 . S
C512 C514 1.561 . S
C512 C515 1.526 . S
C513 H497 0.959 . S
C513 H498 0.959 . S
C513 H499 0.961 . S
C513 C512 1.502 . S
C514 H500 0.960 . S
C514 H501 0.961 . S
C514 H502 0.959 . S
C514 C512 1.561 . S
C515 C512 1.526 . S
C515 C516 1.396 . S
C515 C520 1.390 . S
C516 C510 1.465 . S
C516 C515 1.396 . S
C516 C517 1.399 . S
C517 H503 0.929 . S
C517 C516 1.399 . S
C517 C518 1.385 . S
C518 H504 0.931 . S
C518 C517 1.385 . S
C518 C519 1.389 . S
C519 C518 1.389 . S
C519 C520 1.387 . S
C520 H505 0.930 . S
C520 C515 1.390 . S
C520 C519 1.387 . S
H521 C533 0.930 . S
H522 C535 0.930 . S
H523 C536 0.930 . S
H524 C540 0.959 . S
H525 C540 0.959 . S
H526 C540 0.961 . S
H527 C541 0.960 . S
H528 C541 0.961 . S
H529 C541 0.959 . S
H530 C544 0.929 . S
H531 C545 0.931 . S
H532 C547 0.930 . S
C533 H521 0.930 . S
C533 C534 1.399 . S
C533 C538 1.399 . S
C534 C533 1.399 . S
C534 C535 1.376 . S
C535 H522 0.930 . S
C535 C534 1.376 . S
C535 C536 1.388 . S
C536 H523 0.930 . S
C536 C535 1.388 . S
C536 C537 1.390 . S
C537 C536 1.390 . S
C537 C538 1.394 . S
C537 C543 1.465 . S
C538 C533 1.399 . S
C538 C537 1.394 . S
C538 C539 1.516 . S
C539 C538 1.516 . S
C539 C540 1.502 . S
C539 C541 1.561 . S
C539 C542 1.526 . S
C540 H524 0.959 . S
C540 H525 0.959 . S
C540 H526 0.961 . S
C540 C539 1.502 . S
C541 H527 0.960 . S
C541 H528 0.961 . S
C541 H529 0.959 . S
C541 C539 1.561 . S
C542 C539 1.526 . S
C542 C543 1.396 . S
C542 C547 1.390 . S
C543 C537 1.465 . S
C543 C542 1.396 . S
C543 C544 1.399 . S
C544 H530 0.929 . S
C544 C543 1.399 . S
C544 C545 1.385 . S
C545 H531 0.931 . S
C545 C544 1.385 . S
C545 C546 1.389 . S
C546 C545 1.389 . S
C546 C547 1.387 . S
C547 H532 0.930 . S
C547 C542 1.390 . S
C547 C546 1.387 . S
H548 C560 0.930 . S
H549 C562 0.908 1_455 S
H550 C563 0.930 . S
H551 C567 0.959 . S
H552 C567 0.959 . S
H553 C567 0.961 . S
H554 C568 0.960 . S
H555 C568 0.961 . S
H556 C568 0.959 . S
H557 C571 0.929 . S
H558 C572 0.931 . S
H559 C574 0.930 . S
C560 H548 0.930 . S
C560 C561 1.399 . S
C560 C565 1.399 . S
C561 C560 1.399 . S
C561 C562 1.376 . S
C562 H549 0.908 1_655 S
C562 C561 1.376 . S
C562 C563 1.388 . S
C563 H550 0.930 . S
C563 C562 1.388 . S
C563 C564 1.390 . S
C564 C563 1.390 . S
C564 C565 1.394 . S
C564 C570 1.465 . S
C565 C560 1.399 . S
C565 C564 1.394 . S
C565 C566 1.516 . S
C566 C565 1.516 . S
C566 C567 1.502 . S
C566 C568 1.561 . S
C566 C569 1.526 . S
C567 H551 0.959 . S
C567 H552 0.959 . S
C567 H553 0.961 . S
C567 C566 1.502 . S
C568 H554 0.960 . S
C568 H555 0.961 . S
C568 H556 0.959 . S
C568 C566 1.561 . S
C569 C566 1.526 . S
C569 C570 1.396 . S
C569 C574 1.390 . S
C570 C564 1.465 . S
C570 C569 1.396 . S
C570 C571 1.399 . S
C571 H557 0.929 . S
C571 C570 1.399 . S
C571 C572 1.385 . S
C572 H558 0.931 . S
C572 C571 1.385 . S
C572 C573 1.389 . S
C573 C572 1.389 . S
C573 C574 1.387 . S
C574 H559 0.930 . S
C574 C569 1.390 . S
C574 C573 1.387 . S
H575 C587 0.930 . S
H576 C589 0.930 . S
H577 C590 0.930 1_554 S
H578 C594 0.959 . S
H579 C594 0.959 . S
H580 C594 0.961 . S
H581 C595 0.960 . S
H582 C595 0.961 . S
H583 C595 0.959 . S
H584 C598 0.929 . S
H585 C599 0.931 . S
H586 C601 0.930 . S
C587 H575 0.930 . S
C587 C588 1.399 . S
C587 C592 1.399 . S
C588 C587 1.399 . S
C588 C589 1.376 . S
C589 H576 0.930 . S
C589 C588 1.376 . S
C589 C590 1.388 . S
C590 H577 0.930 1_556 S
C590 C589 1.388 . S
C590 C591 1.390 . S
C591 C590 1.390 . S
C591 C592 1.394 . S
C591 C597 1.465 . S
C592 C587 1.399 . S
C592 C591 1.394 . S
C592 C593 1.516 . S
C593 C592 1.516 . S
C593 C594 1.502 . S
C593 C595 1.561 . S
C593 C596 1.526 . S
C594 H578 0.959 . S
C594 H579 0.959 . S
C594 H580 0.961 . S
C594 C593 1.502 . S
C595 H581 0.960 . S
C595 H582 0.961 . S
C595 H583 0.959 . S
C595 C593 1.561 . S
C596 C593 1.526 . S
C596 C597 1.396 . S
C596 C601 1.390 . S
C597 C591 1.465 . S
C597 C596 1.396 . S
C597 C598 1.399 1_556 S
C598 H584 0.929 . S
C598 C597 1.399 1_554 S
C598 C599 1.385 . S
C599 H585 0.931 . S
C599 C598 1.385 . S
C599 C600 1.389 . S
C600 C599 1.389 . S
C600 C601 1.387 1_554 S
C601 H586 0.930 . S
C601 C596 1.390 . S
C601 C600 1.387 1_556 S
H602 C614 0.930 . S
H603 C616 0.930 . S
H604 C617 0.930 . S
H605 C621 0.959 . S
H606 C621 0.959 . S
H607 C621 0.961 . S
H608 C622 0.960 . S
H609 C622 0.961 . S
H610 C622 0.959 . S
H611 C625 0.929 . S
H612 C626 0.931 . S
H613 C628 0.930 . S
C614 H602 0.930 . S
C614 C615 1.399 . S
C614 C619 1.399 . S
C615 C614 1.399 . S
C615 C616 1.376 . S
C616 H603 0.930 . S
C616 C615 1.376 . S
C616 C617 1.388 . S
C617 H604 0.930 . S
C617 C616 1.388 . S
C617 C618 1.390 . S
C618 C617 1.390 . S
C618 C619 1.394 . S
C618 C624 1.465 . S
C619 C614 1.399 . S
C619 C618 1.394 . S
C619 C620 1.516 . S
C620 C619 1.516 . S
C620 C621 1.502 . S
C620 C622 1.561 . S
C620 C623 1.526 . S
C621 H605 0.959 . S
C621 H606 0.959 . S
C621 H607 0.961 . S
C621 C620 1.502 . S
C622 H608 0.960 . S
C622 H609 0.961 . S
C622 H610 0.959 . S
C622 C620 1.561 . S
C623 C620 1.526 . S
C623 C624 1.396 . S
C623 C628 1.390 . S
C624 C618 1.465 . S
C624 C623 1.396 . S
C624 C625 1.399 . S
C625 H611 0.929 . S
C625 C624 1.399 . S
C625 C626 1.385 . S
C626 H612 0.931 . S
C626 C625 1.385 . S
C626 C627 1.389 . S
C627 C626 1.389 . S
C627 C628 1.387 . S
C628 H613 0.930 . S
C628 C623 1.390 . S
C628 C627 1.387 . S
H629 C641 0.930 . S
H630 C643 0.930 . S
H631 C644 0.930 . S
H632 C648 0.959 . S
H633 C648 0.959 . S
H634 C648 0.961 . S
H635 C649 0.960 . S
H636 C649 0.961 . S
H637 C649 0.959 . S
H638 C652 0.929 . S
H639 C653 0.931 . S
H640 C655 0.930 . S
C641 H629 0.930 . S
C641 C642 1.399 . S
C641 C646 1.399 . S
C642 C641 1.399 . S
C642 C643 1.376 . S
C643 H630 0.930 . S
C643 C642 1.376 . S
C643 C644 1.388 . S
C644 H631 0.930 . S
C644 C643 1.388 . S
C644 C645 1.390 . S
C645 C644 1.390 . S
C645 C646 1.394 . S
C645 C651 1.465 . S
C646 C641 1.399 . S
C646 C645 1.394 . S
C646 C647 1.516 . S
C647 C646 1.516 . S
C647 C648 1.502 . S
C647 C649 1.561 . S
C647 C650 1.526 . S
C648 H632 0.959 . S
C648 H633 0.959 . S
C648 H634 0.961 . S
C648 C647 1.502 . S
C649 H635 0.960 . S
C649 H636 0.961 . S
C649 H637 0.959 . S
C649 C647 1.561 . S
C650 C647 1.526 . S
C650 C651 1.396 . S
C650 C655 1.390 . S
C651 C645 1.465 . S
C651 C650 1.396 . S
C651 C652 1.399 . S
C652 H638 0.929 . S
C652 C651 1.399 . S
C652 C653 1.385 . S
C653 H639 0.931 . S
C653 C652 1.385 . S
C653 C654 1.389 . S
C654 C653 1.389 . S
C654 C655 1.387 . S
C655 H640 0.930 . S
C655 C650 1.390 . S
C655 C654 1.387 . S
H656 C668 0.930 . S
H657 C670 0.930 . S
H658 C671 0.930 . S
H659 C675 0.959 . S
H660 C675 0.959 . S
H661 C675 0.961 . S
H662 C676 0.960 . S
H663 C676 0.961 . S
H664 C676 0.975 . S
H665 C679 0.929 . S
H666 C680 0.931 . S
H667 C682 0.930 . S
C668 H656 0.930 . S
C668 C669 1.399 . S
C668 C673 1.399 . S
C669 C668 1.399 . S
C669 C670 1.376 . S
C670 H657 0.930 . S
C670 C669 1.376 . S
C670 C671 1.388 . S
C671 H658 0.930 . S
C671 C670 1.388 . S
C671 C672 1.390 . S
C672 C671 1.390 . S
C672 C673 1.394 . S
C672 C678 1.465 . S
C673 C668 1.399 . S
C673 C672 1.394 . S
C673 C674 1.516 . S
C674 C673 1.516 . S
C674 C675 1.502 . S
C674 C676 1.561 . S
C674 C677 1.526 . S
C675 H659 0.959 . S
C675 H660 0.959 . S
C675 H661 0.961 . S
C675 C674 1.502 . S
C676 H662 0.960 . S
C676 H663 0.961 . S
C676 H664 0.975 . S
C676 C674 1.561 . S
C677 C674 1.526 . S
C677 C678 1.396 . S
C677 C682 1.390 . S
C678 C672 1.465 . S
C678 C677 1.396 . S
C678 C679 1.399 1_554 S
C679 H665 0.929 . S
C679 C678 1.399 1_556 S
C679 C680 1.385 . S
C680 H666 0.931 . S
C680 C679 1.385 . S
C680 C681 1.389 . S
C681 C680 1.389 . S
C681 C682 1.387 1_556 S
C682 H667 0.930 . S
C682 C677 1.390 . S
C682 C681 1.387 1_554 S
H683 C695 0.930 . S
H684 C697 0.930 . S
H685 C698 0.930 . S
H686 C702 0.959 . S
H687 C702 0.959 . S
H688 C702 0.961 . S
H689 C703 0.960 . S
H690 C703 0.961 . S
H691 C703 0.959 . S
H692 C706 0.929 . S
H693 C707 0.931 . S
H694 C709 0.930 . S
C695 H683 0.930 . S
C695 C696 1.399 . S
C695 C700 1.399 . S
C696 C695 1.399 . S
C696 C697 1.376 . S
C697 H684 0.930 . S
C697 C696 1.376 . S
C697 C698 1.388 . S
C698 H685 0.930 . S
C698 C697 1.388 . S
C698 C699 1.390 . S
C699 C698 1.390 . S
C699 C700 1.394 . S
C699 C705 1.465 . S
C700 C695 1.399 . S
C700 C699 1.394 . S
C700 C701 1.516 . S
C701 C700 1.516 . S
C701 C702 1.502 . S
C701 C703 1.561 . S
C701 C704 1.526 . S
C702 H686 0.959 . S
C702 H687 0.959 . S
C702 H688 0.961 . S
C702 C701 1.502 . S
C703 H689 0.960 . S
C703 H690 0.961 . S
C703 H691 0.959 . S
C703 C701 1.561 . S
C704 C701 1.526 . S
C704 C705 1.396 . S
C704 C709 1.390 . S
C705 C699 1.465 . S
C705 C704 1.396 . S
C705 C706 1.399 . S
C706 H692 0.929 . S
C706 C705 1.399 . S
C706 C707 1.385 . S
C707 H693 0.931 . S
C707 C706 1.385 . S
C707 C708 1.389 . S
C708 C707 1.389 . S
C708 C709 1.387 . S
C709 H694 0.930 . S
C709 C704 1.390 . S
C709 C708 1.387 . S
H710 C722 0.930 . S
H711 C724 0.930 . S
H712 C725 0.930 . S
H713 C729 0.959 . S
H714 C729 0.959 . S
H715 C729 0.961 . S
H716 C730 0.960 . S
H717 C730 0.961 . S
H718 C730 0.959 . S
H719 C733 0.929 . S
H720 C734 0.931 . S
H721 C736 0.930 . S
C722 H710 0.930 . S
C722 C723 1.399 . S
C722 C727 1.399 . S
C723 C722 1.399 . S
C723 C724 1.376 . S
C724 H711 0.930 . S
C724 C723 1.376 . S
C724 C725 1.388 . S
C725 H712 0.930 . S
C725 C724 1.388 . S
C725 C726 1.390 . S
C726 C725 1.390 . S
C726 C727 1.394 . S
C726 C732 1.465 . S
C727 C722 1.399 . S
C727 C726 1.394 . S
C727 C728 1.516 . S
C728 C727 1.516 . S
C728 C729 1.502 . S
C728 C730 1.561 . S
C728 C731 1.526 . S
C729 H713 0.959 . S
C729 H714 0.959 . S
C729 H715 0.961 . S
C729 C728 1.502 . S
C730 H716 0.960 . S
C730 H717 0.961 . S
C730 H718 0.959 . S
C730 C728 1.561 . S
C731 C728 1.526 . S
C731 C732 1.396 . S
C731 C736 1.390 . S
C732 C726 1.465 . S
C732 C731 1.396 . S
C732 C733 1.399 . S
C733 H719 0.929 . S
C733 C732 1.399 . S
C733 C734 1.385 . S
C734 H720 0.931 . S
C734 C733 1.385 . S
C734 C735 1.389 . S
C735 C734 1.389 . S
C735 C736 1.387 . S
C736 H721 0.930 . S
C736 C731 1.390 . S
C736 C735 1.387 . S
H737 C749 0.930 . S
H738 C751 0.930 . S
H739 C752 0.930 . S
H740 C756 0.959 . S
H741 C756 0.959 . S
H742 C756 0.961 . S
H743 C757 0.960 . S
H744 C757 0.961 . S
H745 C757 0.959 . S
H746 C760 0.929 . S
H747 C761 0.931 . S
H748 C763 0.930 . S
C749 H737 0.930 . S
C749 C750 1.399 . S
C749 C754 1.399 . S
C750 C749 1.399 . S
C750 C751 1.376 . S
C751 H738 0.930 . S
C751 C750 1.376 . S
C751 C752 1.388 . S
C752 H739 0.930 . S
C752 C751 1.388 . S
C752 C753 1.390 . S
C753 C752 1.390 . S
C753 C754 1.394 . S
C753 C759 1.465 . S
C754 C749 1.399 . S
C754 C753 1.394 . S
C754 C755 1.516 . S
C755 C754 1.516 . S
C755 C756 1.502 . S
C755 C757 1.561 . S
C755 C758 1.526 . S
C756 H740 0.959 . S
C756 H741 0.959 . S
C756 H742 0.961 . S
C756 C755 1.502 . S
C757 H743 0.960 . S
C757 H744 0.961 . S
C757 H745 0.959 . S
C757 C755 1.561 . S
C758 C755 1.526 . S
C758 C759 1.396 . S
C758 C763 1.390 . S
C759 C753 1.465 . S
C759 C758 1.396 . S
C759 C760 1.399 . S
C760 H746 0.929 . S
C760 C759 1.399 . S
C760 C761 1.385 . S
C761 H747 0.931 . S
C761 C760 1.385 . S
C761 C762 1.389 . S
C762 C761 1.389 . S
C762 C763 1.387 . S
C763 H748 0.930 . S
C763 C758 1.390 . S
C763 C762 1.387 . S
H764 C776 0.930 . S
H765 C778 0.930 . S
H766 C779 0.930 . S
H767 C783 0.959 . S
H768 C783 0.959 . S
H769 C783 0.961 . S
H770 C784 0.960 . S
H771 C784 0.961 . S
H772 C784 0.959 . S
H773 C787 0.929 . S
H774 C788 0.931 . S
H775 C790 0.930 . S
C776 H764 0.930 . S
C776 C777 1.399 . S
C776 C781 1.399 . S
C777 C776 1.399 . S
C777 C778 1.376 . S
C778 H765 0.930 . S
C778 C777 1.376 . S
C778 C779 1.388 . S
C779 H766 0.930 . S
C779 C778 1.388 . S
C779 C780 1.390 . S
C780 C779 1.390 . S
C780 C781 1.394 . S
C780 C786 1.465 . S
C781 C776 1.399 . S
C781 C780 1.394 . S
C781 C782 1.516 . S
C782 C781 1.516 . S
C782 C783 1.502 . S
C782 C784 1.561 . S
C782 C785 1.526 . S
C783 H767 0.959 . S
C783 H768 0.959 . S
C783 H769 0.961 . S
C783 C782 1.502 . S
C784 H770 0.960 . S
C784 H771 0.961 . S
C784 H772 0.959 . S
C784 C782 1.561 . S
C785 C782 1.526 . S
C785 C786 1.396 . S
C785 C790 1.390 . S
C786 C780 1.465 . S
C786 C785 1.396 . S
C786 C787 1.399 . S
C787 H773 0.929 . S
C787 C786 1.399 . S
C787 C788 1.385 . S
C788 H774 0.931 . S
C788 C787 1.385 . S
C788 C789 1.389 . S
C789 C788 1.389 . S
C789 C790 1.387 . S
C790 H775 0.930 . S
C790 C785 1.390 . S
C790 C789 1.387 . S
H791 C803 0.930 . S
H792 C805 0.930 . S
H793 C806 0.930 . S
H794 C810 0.959 . S
H795 C810 0.959 . S
H796 C810 0.961 . S
H797 C811 0.960 . S
H798 C811 0.961 . S
H799 C811 0.959 . S
H800 C814 0.929 . S
H801 C815 0.931 . S
H802 C817 0.930 . S
C803 H791 0.930 . S
C803 C804 1.399 . S
C803 C808 1.399 . S
C804 C803 1.399 . S
C804 C805 1.376 . S
C805 H792 0.930 . S
C805 C804 1.376 . S
C805 C806 1.388 . S
C806 H793 0.930 . S
C806 C805 1.388 . S
C806 C807 1.390 . S
C807 C806 1.390 . S
C807 C808 1.394 . S
C807 C813 1.465 . S
C808 C803 1.399 . S
C808 C807 1.394 . S
C808 C809 1.516 . S
C809 C808 1.516 . S
C809 C810 1.502 . S
C809 C811 1.561 . S
C809 C812 1.526 . S
C810 H794 0.959 . S
C810 H795 0.959 . S
C810 H796 0.961 . S
C810 C809 1.502 . S
C811 H797 0.960 . S
C811 H798 0.961 . S
C811 H799 0.959 . S
C811 C809 1.561 . S
C812 C809 1.526 . S
C812 C813 1.396 . S
C812 C817 1.390 . S
C813 C807 1.465 . S
C813 C812 1.396 . S
C813 C814 1.399 . S
C814 H800 0.929 . S
C814 C813 1.399 . S
C814 C815 1.385 . S
C815 H801 0.931 . S
C815 C814 1.385 . S
C815 C816 1.389 . S
C816 C815 1.389 . S
C816 C817 1.387 . S
C817 H802 0.930 . S
C817 C812 1.390 . S
C817 C816 1.387 . S
H818 C830 0.930 . S
H819 C832 0.930 . S
H820 C833 0.930 . S
H821 C837 0.959 . S
H822 C837 0.959 . S
H823 C837 0.961 . S
H824 C838 0.960 . S
H825 C838 0.961 . S
H826 C838 0.959 . S
H827 C841 0.925 1_565 S
H828 C842 0.931 . S
H829 C844 0.930 . S
C830 H818 0.930 . S
C830 C831 1.399 . S
C830 C835 1.399 . S
C831 C830 1.399 . S
C831 C832 1.376 . S
C832 H819 0.930 . S
C832 C831 1.376 . S
C832 C833 1.388 . S
C833 H820 0.930 . S
C833 C832 1.388 . S
C833 C834 1.390 . S
C834 C833 1.390 . S
C834 C835 1.394 . S
C834 C840 1.465 1_565 S
C835 C830 1.399 . S
C835 C834 1.394 . S
C835 C836 1.516 1_565 S
C836 C835 1.516 1_545 S
C836 C837 1.502 . S
C836 C838 1.561 . S
C836 C839 1.526 . S
C837 H821 0.959 . S
C837 H822 0.959 . S
C837 H823 0.961 . S
C837 C836 1.502 . S
C838 H824 0.960 . S
C838 H825 0.961 . S
C838 H826 0.959 . S
C838 C836 1.561 . S
C839 C836 1.526 . S
C839 C840 1.396 . S
C839 C844 1.390 . S
C840 C834 1.465 1_545 S
C840 C839 1.396 . S
C840 C841 1.399 . S
C841 H827 0.925 1_545 S
C841 C840 1.399 . S
C841 C842 1.389 . S
C842 H828 0.931 . S
C842 C841 1.389 . S
C842 C843 1.389 . S
C843 C842 1.389 . S
C843 C844 1.387 . S
C844 H829 0.930 . S
C844 C839 1.390 . S
C844 C843 1.387 . S
H845 C857 0.930 . S
H846 C859 0.930 . S
H847 C860 0.930 . S
H848 C864 0.959 1_554 S
H849 C864 0.959 . S
H850 C864 0.961 . S
H851 C865 0.960 . S
H852 C865 0.961 . S
H853 C865 0.959 . S
H854 C868 0.929 1_545 S
H855 C869 0.931 . S
H856 C871 0.930 . S
C857 H845 0.930 . S
C857 C858 1.399 . S
C857 C862 1.400 1_556 S
C858 C857 1.399 . S
C858 C859 1.376 1_556 S
C859 H846 0.930 . S
C859 C858 1.376 1_554 S
C859 C860 1.388 . S
C860 H847 0.930 . S
C860 C859 1.388 . S
C860 C861 1.390 . S
C861 C860 1.390 . S
C861 C862 1.393 . S
C861 C867 1.465 1_545 S
C862 C857 1.400 1_554 S
C862 C861 1.393 . S
C862 C863 1.516 1_545 S
C863 C862 1.516 1_565 S
C863 C864 1.502 1_454 S
C863 C865 1.561 1_554 S
C863 C866 1.526 . S
C864 H848 0.959 1_556 S
C864 H849 0.959 . S
C864 H850 0.961 . S
C864 C863 1.502 1_656 S
C865 H851 0.960 . S
C865 H852 0.961 . S
C865 H853 0.959 . S
C865 C863 1.561 1_556 S
C866 C863 1.526 . S
C866 C867 1.396 . S
C866 C871 1.390 . S
C867 C861 1.465 1_565 S
C867 C866 1.396 . S
C867 C868 1.399 . S
C868 H854 0.929 1_565 S
C868 C867 1.399 . S
C868 C869 1.385 . S
C869 H855 0.931 . S
C869 C868 1.385 . S
C869 C870 1.389 . S
C870 C869 1.389 . S
C870 C871 1.387 . S
C871 H856 0.930 . S
C871 C866 1.390 . S
C871 C870 1.387 . S
H872 C884 0.930 . S
H873 C886 0.930 . S
H874 C887 0.930 . S
H875 C891 0.959 . S
H876 C891 0.959 . S
H877 C891 0.961 . S
H878 C892 0.960 . S
H879 C892 0.961 . S
H880 C892 0.959 . S
H881 C895 0.929 . S
H882 C896 0.931 . S
H883 C898 0.930 . S
C884 H872 0.930 . S
C884 C885 1.399 . S
C884 C889 1.399 . S
C885 C884 1.399 . S
C885 C886 1.376 . S
C886 H873 0.930 . S
C886 C885 1.376 . S
C886 C887 1.388 . S
C887 H874 0.930 . S
C887 C886 1.388 . S
C887 C888 1.390 . S
C888 C887 1.390 . S
C888 C889 1.394 . S
C888 C894 1.465 . S
C889 C884 1.399 . S
C889 C888 1.394 . S
C889 C890 1.516 . S
C890 C889 1.516 . S
C890 C891 1.502 1_455 S
C890 C892 1.561 . S
C890 C893 1.526 . S
C891 H875 0.959 . S
C891 H876 0.959 . S
C891 H877 0.961 . S
C891 C890 1.502 1_655 S
C892 H878 0.960 . S
C892 H879 0.961 . S
C892 H880 0.959 . S
C892 C890 1.561 . S
C893 C890 1.526 . S
C893 C894 1.396 . S
C893 C898 1.390 . S
C894 C888 1.465 . S
C894 C893 1.396 . S
C894 C895 1.399 . S
C895 H881 0.929 . S
C895 C894 1.399 . S
C895 C896 1.385 . S
C896 H882 0.931 . S
C896 C895 1.385 . S
C896 C897 1.389 . S
C897 C896 1.389 . S
C897 C898 1.387 . S
C898 H883 0.930 . S
C898 C893 1.390 . S
C898 C897 1.387 . S
H899 C911 0.930 . S
H900 C913 0.930 . S
H901 C914 0.930 . S
H902 C918 0.959 . S
H903 C918 0.959 . S
H904 C918 0.961 . S
H905 C919 0.960 . S
H906 C919 0.961 . S
H907 C919 0.959 . S
H908 C922 0.929 . S
H909 C923 0.931 . S
H910 C925 0.930 . S
C911 H899 0.930 . S
C911 C912 1.399 . S
C911 C916 1.399 . S
C912 C911 1.399 . S
C912 C913 1.376 . S
C913 H900 0.930 . S
C913 C912 1.376 . S
C913 C914 1.388 . S
C914 H901 0.930 . S
C914 C913 1.388 . S
C914 C915 1.390 . S
C915 C914 1.390 . S
C915 C916 1.394 . S
C915 C921 1.465 . S
C916 C911 1.399 . S
C916 C915 1.394 . S
C916 C917 1.516 . S
C917 C916 1.516 . S
C917 C918 1.502 . S
C917 C919 1.561 . S
C917 C920 1.526 . S
C918 H902 0.959 . S
C918 H903 0.959 . S
C918 H904 0.961 . S
C918 C917 1.502 . S
C919 H905 0.960 . S
C919 H906 0.961 . S
C919 H907 0.959 . S
C919 C917 1.561 . S
C920 C917 1.526 . S
C920 C921 1.396 . S
C920 C925 1.390 . S
C921 C915 1.465 . S
C921 C920 1.396 . S
C921 C922 1.399 . S
C922 H908 0.929 . S
C922 C921 1.399 . S
C922 C923 1.385 . S
C923 H909 0.931 . S
C923 C922 1.385 . S
C923 C924 1.389 . S
C924 C923 1.389 . S
C924 C925 1.387 . S
C925 H910 0.930 . S
C925 C920 1.390 . S
C925 C924 1.387 . S
H926 C938 0.930 . S
H927 C940 0.930 . S
H928 C941 0.930 . S
H929 C945 0.959 . S
H930 C945 0.959 . S
H931 C945 0.961 . S
H932 C946 0.960 . S
H933 C946 0.961 . S
H934 C946 0.959 . S
H935 C949 0.929 . S
H936 C950 0.931 . S
H937 C952 0.930 1_554 S
C938 H926 0.930 . S
C938 C939 1.399 . S
C938 C943 1.399 . S
C939 C938 1.399 . S
C939 C940 1.376 . S
C940 H927 0.930 . S
C940 C939 1.376 . S
C940 C941 1.388 . S
C941 H928 0.930 . S
C941 C940 1.388 . S
C941 C942 1.390 . S
C942 C941 1.390 . S
C942 C943 1.394 . S
C942 C948 1.465 . S
C943 C938 1.399 . S
C943 C942 1.394 . S
C943 C944 1.516 . S
C944 C943 1.516 . S
C944 C945 1.502 . S
C944 C946 1.561 . S
C944 C947 1.526 . S
C945 H929 0.959 . S
C945 H930 0.959 . S
C945 H931 0.961 . S
C945 C944 1.502 . S
C946 H932 0.960 . S
C946 H933 0.961 . S
C946 H934 0.959 . S
C946 C944 1.561 . S
C947 C944 1.526 . S
C947 C948 1.396 . S
C947 C952 1.390 1_554 S
C948 C942 1.465 . S
C948 C947 1.396 . S
C948 C949 1.399 1_554 S
C949 H935 0.929 . S
C949 C948 1.399 1_556 S
C949 C950 1.385 . S
C950 H936 0.931 . S
C950 C949 1.385 . S
C950 C951 1.389 . S
C951 C950 1.389 . S
C951 C952 1.387 . S
C952 H937 0.930 1_556 S
C952 C947 1.390 1_556 S
C952 C951 1.387 . S
H953 C965 0.930 . S
H954 C967 0.930 . S
H955 C968 0.930 . S
H956 C972 0.959 . S
H957 C972 0.959 . S
H958 C972 0.961 . S
H959 C973 0.960 . S
H960 C973 0.961 . S
H961 C973 0.959 . S
H962 C976 0.929 . S
H963 C977 0.931 . S
H964 C979 0.930 . S
C965 H953 0.930 . S
C965 C966 1.399 . S
C965 C970 1.399 . S
C966 C965 1.399 . S
C966 C967 1.376 . S
C967 H954 0.930 . S
C967 C966 1.376 . S
C967 C968 1.388 . S
C968 H955 0.930 . S
C968 C967 1.388 . S
C968 C969 1.390 . S
C969 C968 1.390 . S
C969 C970 1.394 . S
C969 C975 1.465 . S
C970 C965 1.399 . S
C970 C969 1.394 . S
C970 C971 1.516 . S
C971 C970 1.516 . S
C971 C972 1.502 . S
C971 C973 1.561 . S
C971 C974 1.526 . S
C972 H956 0.959 . S
C972 H957 0.959 . S
C972 H958 0.961 . S
C972 C971 1.502 . S
C973 H959 0.960 . S
C973 H960 0.961 . S
C973 H961 0.959 . S
C973 C971 1.561 . S
C974 C971 1.526 . S
C974 C975 1.396 . S
C974 C979 1.390 . S
C975 C969 1.465 . S
C975 C974 1.396 . S
C975 C976 1.399 . S
C976 H962 0.929 . S
C976 C975 1.399 . S
C976 C977 1.385 . S
C977 H963 0.931 . S
C977 C976 1.385 . S
C977 C978 1.389 . S
C978 C977 1.389 . S
C978 C979 1.387 . S
C979 H964 0.930 . S
C979 C974 1.390 . S
C979 C978 1.387 . S
H980 C992 0.930 . S
H981 C994 0.930 . S
H982 C995 0.930 . S
H983 C999 0.959 . S
H984 C999 0.959 . S
H985 C999 0.961 . S
H986 C1000 0.960 . S
H987 C1000 0.961 . S
H988 C1000 0.959 . S
H989 C1003 0.929 . S
H990 C1004 0.931 . S
H991 C1006 0.930 . S
C992 H980 0.930 . S
C992 C993 1.399 . S
C992 C997 1.399 . S
C993 C992 1.399 . S
C993 C994 1.376 . S
C994 H981 0.930 . S
C994 C993 1.376 . S
C994 C995 1.388 . S
C995 H982 0.930 . S
C995 C994 1.388 . S
C995 C996 1.390 . S
C996 C995 1.390 . S
C996 C997 1.394 . S
C996 C1002 1.465 . S
C997 C992 1.399 . S
C997 C996 1.394 . S
C997 C998 1.516 . S
C998 C997 1.516 . S
C998 C999 1.502 . S
C998 C1000 1.561 . S
C998 C1001 1.526 . S
C999 H983 0.959 . S
C999 H984 0.959 . S
C999 H985 0.961 . S
C999 C998 1.502 . S
C1000 H986 0.960 . S
C1000 H987 0.961 . S
C1000 H988 0.959 . S
C1000 C998 1.561 . S
C1001 C998 1.526 . S
C1001 C1002 1.396 . S
C1001 C1006 1.390 . S
C1002 C996 1.465 . S
C1002 C1001 1.396 . S
C1002 C1003 1.399 . S
C1003 H989 0.929 . S
C1003 C1002 1.399 . S
C1003 C1004 1.385 . S
C1004 H990 0.931 . S
C1004 C1003 1.385 . S
C1004 C1005 1.389 . S
C1005 C1004 1.389 . S
C1005 C1006 1.387 . S
C1006 H991 0.930 . S
C1006 C1001 1.390 . S
C1006 C1005 1.387 . S
H1007 C1019 0.930 . S
H1008 C1021 0.930 . S
H1009 C1022 0.930 . S
H1010 C1026 0.959 . S
H1011 C1026 0.959 . S
H1012 C1026 0.961 . S
H1013 C1027 0.960 . S
H1014 C1027 0.961 . S
H1015 C1027 0.959 . S
H1016 C1030 0.929 . S
H1017 C1031 0.931 . S
H1018 C1033 0.930 . S
C1019 H1007 0.930 . S
C1019 C1020 1.399 . S
C1019 C1024 1.399 . S
C1020 C1019 1.399 . S
C1020 C1021 1.376 . S
C1021 H1008 0.930 . S
C1021 C1020 1.376 . S
C1021 C1022 1.388 . S
C1022 H1009 0.930 . S
C1022 C1021 1.388 . S
C1022 C1023 1.390 . S
C1023 C1022 1.390 . S
C1023 C1024 1.394 . S
C1023 C1029 1.465 . S
C1024 C1019 1.399 . S
C1024 C1023 1.394 . S
C1024 C1025 1.516 . S
C1025 C1024 1.516 . S
C1025 C1026 1.502 . S
C1025 C1027 1.561 . S
C1025 C1028 1.526 . S
C1026 H1010 0.959 . S
C1026 H1011 0.959 . S
C1026 H1012 0.961 . S
C1026 C1025 1.502 . S
C1027 H1013 0.960 . S
C1027 H1014 0.961 . S
C1027 H1015 0.959 . S
C1027 C1025 1.561 . S
C1028 C1025 1.526 . S
C1028 C1029 1.396 . S
C1028 C1033 1.390 . S
C1029 C1023 1.465 . S
C1029 C1028 1.396 . S
C1029 C1030 1.399 . S
C1030 H1016 0.929 . S
C1030 C1029 1.399 . S
C1030 C1031 1.385 . S
C1031 H1017 0.931 . S
C1031 C1030 1.385 . S
C1031 C1032 1.389 . S
C1032 C1031 1.389 . S
C1032 C1033 1.387 . S
C1033 H1018 0.930 . S
C1033 C1028 1.390 . S
C1033 C1032 1.387 . S
H1034 C1046 0.930 . S
H1035 C1048 0.930 . S
H1036 C1049 0.930 1_545 S
H1037 C1053 0.977 . S
H1038 C1053 0.959 1_556 S
H1039 C1053 0.961 . S
H1040 C1054 0.960 . S
H1041 C1054 0.961 . S
H1042 C1054 0.959 . S
H1043 C1057 0.929 . S
H1044 C1058 0.931 . S
H1045 C1060 0.930 . S
C1046 H1034 0.930 . S
C1046 C1047 1.399 . S
C1046 C1051 1.399 . S
C1047 C1046 1.399 . S
C1047 C1048 1.376 . S
C1048 H1035 0.930 . S
C1048 C1047 1.376 . S
C1048 C1049 1.388 . S
C1049 H1036 0.930 1_565 S
C1049 C1048 1.388 . S
C1049 C1050 1.390 . S
C1050 C1049 1.390 . S
C1050 C1051 1.394 . S
C1050 C1056 1.465 1_565 S
C1051 C1046 1.399 . S
C1051 C1050 1.394 . S
C1051 C1052 1.516 . S
C1052 C1051 1.516 . S
C1052 C1053 1.502 . S
C1052 C1054 1.561 1_554 S
C1052 C1055 1.526 1_565 S
C1053 H1037 0.977 . S
C1053 H1038 0.959 1_554 S
C1053 H1039 0.961 . S
C1053 C1052 1.502 . S
C1054 H1040 0.960 . S
C1054 H1041 0.961 . S
C1054 H1042 0.959 . S
C1054 C1052 1.561 1_556 S
C1055 C1052 1.526 1_545 S
C1055 C1056 1.396 . S
C1055 C1060 1.390 1_554 S
C1056 C1050 1.465 1_545 S
C1056 C1055 1.396 . S
C1056 C1057 1.399 . S
C1057 H1043 0.929 . S
C1057 C1056 1.399 . S
C1057 C1058 1.385 1_554 S
C1058 H1044 0.931 . S
C1058 C1057 1.385 1_556 S
C1058 C1059 1.389 . S
C1059 C1058 1.389 . S
C1059 C1060 1.387 . S
C1060 H1045 0.930 . S
C1060 C1055 1.390 1_556 S
C1060 C1059 1.387 . S
H1061 C1073 0.930 . S
H1062 C1075 0.930 . S
H1063 C1076 0.930 . S
H1064 C1080 0.959 . S
H1065 C1080 0.959 . S
H1066 C1080 0.961 . S
H1067 C1081 0.960 . S
H1068 C1081 0.961 . S
H1069 C1081 0.959 . S
H1070 C1084 0.929 . S
H1071 C1085 0.931 . S
H1072 C1087 0.930 . S
C1073 H1061 0.930 . S
C1073 C1074 1.399 . S
C1073 C1078 1.399 . S
C1074 C1073 1.399 . S
C1074 C1075 1.376 . S
C1075 H1062 0.930 . S
C1075 C1074 1.376 . S
C1075 C1076 1.388 . S
C1076 H1063 0.930 . S
C1076 C1075 1.388 . S
C1076 C1077 1.390 . S
C1077 C1076 1.390 . S
C1077 C1078 1.394 . S
C1077 C1083 1.445 1_545 S
C1078 C1073 1.399 . S
C1078 C1077 1.394 . S
C1078 C1079 1.516 1_545 S
C1079 C1078 1.516 1_565 S
C1079 C1080 1.502 . S
C1079 C1081 1.561 . S
C1079 C1082 1.526 . S
C1080 H1064 0.959 . S
C1080 H1065 0.959 . S
C1080 H1066 0.961 . S
C1080 C1079 1.502 . S
C1081 H1067 0.960 . S
C1081 H1068 0.961 . S
C1081 H1069 0.959 . S
C1081 C1079 1.561 . S
C1082 C1079 1.526 . S
C1082 C1083 1.424 . S
C1082 C1087 1.390 . S
C1083 C1077 1.445 1_565 S
C1083 C1082 1.424 . S
C1083 C1084 1.396 1_565 S
C1084 H1070 0.929 . S
C1084 C1083 1.396 1_545 S
C1084 C1085 1.385 1_545 S
C1085 H1071 0.931 . S
C1085 C1084 1.385 1_565 S
C1085 C1086 1.389 . S
C1086 C1085 1.389 . S
C1086 C1087 1.387 . S
C1087 H1072 0.930 . S
C1087 C1082 1.390 . S
C1087 C1086 1.387 . S
C237 C135 1.444 . S
C249 C9 1.441 . S
C264 C205 1.473 . S
C276 C23 1.477 . S
C291 C37 1.471 . S
C303 C121 1.462 . S
C318 C51 1.449 . S
C330 C219 1.443 1_655 S
C345 C65 1.441 . S
C357 C149 1.441 . S
C372 C191 1.467 1_655 S
C384 C79 1.475 . S
C399 C163 1.476 . S
C411 C93 1.478 . S
C426 C107 1.466 . S
C438 C177 1.474 . S
C453 C59 1.534 . S
C465 C45 1.580 . S
C480 C171 1.552 . S
C492 C115 1.556 . S
C507 C87 1.581 . S
C519 C17 1.535 . S
C534 C129 1.566 . S
C546 C185 1.556 . S
C561 C3 1.568 . S
C573 C73 1.541 . S
C588 C213 1.534 . S
C600 C143 1.580 . S
C615 C101 1.572 . S
C627 C31 1.549 . S
C642 C157 1.551 . S
C654 C199 1.557 . S
C669 C7 0.529 . S
C681 C63 0.678 . S
C696 C77 0.545 . S
C708 C21 0.650 . S
C723 C91 0.676 . S
C735 C35 0.587 . S
C750 C49 0.627 . S
C762 C105 0.565 . S
C777 C147 0.660 . S
C789 C119 0.540 . S
C804 C161 0.638 . S
C816 C133 0.555 . S
C831 C203 0.530 . S
C843 C175 0.680 . S
C858 C217 0.536 . S
C870 C189 0.662 . S
C885 C64 1.745 . S
C897 C8 1.741 . S
C912 C78 1.762 . S
C924 C22 1.763 . S
C939 C92 1.750 . S
C951 C36 1.745 . S
C966 C50 1.763 . S
C978 C106 1.760 . S
C993 C120 1.745 . S
C1005 C148 1.751 . S
C1020 C162 1.742 . S
C1032 C134 1.747 . S
C1047 C204 1.760 . S
C1059 C176 1.763 . S
C1074 C218 1.747 . S
C1086 C190 1.742 . S
