# Generated by pormake.
# Topology ilc, (8)-cn, num edge types: 1
# Building blocks:
#     Node 0, Type 0, BuildingBlock: NUHRAL_clean_sbu_3, # of connection points: 8
#     Node 1, Type 0, BuildingBlock: NUHRAL_clean_sbu_3, # of connection points: 8
#     Node 2, Type 0, BuildingBlock: NUHRAL_clean_sbu_3, # of connection points: 8
#     Edge 3, Type (0, 0), BuildingBlock: ZUJKAS_clean_linker_0, # of connection points: 2
#     Edge 4, Type (0, 0), BuildingBlock: ZUJKAS_clean_linker_0, # of connection points: 2
#     Edge 5, Type (0, 0), BuildingBlock: ZUJKAS_clean_linker_0, # of connection points: 2
#     Edge 6, Type (0, 0), BuildingBlock: ZUJKAS_clean_linker_0, # of connection points: 2
#     Edge 7, Type (0, 0), BuildingBlock: ZUJKAS_clean_linker_0, # of connection points: 2
#     Edge 8, Type (0, 0), BuildingBlock: ZUJKAS_clean_linker_0, # of connection points: 2
#     Edge 9, Type (0, 0), BuildingBlock: ZUJKAS_clean_linker_0, # of connection points: 2
#     Edge 10, Type (0, 0), BuildingBlock: ZUJKAS_clean_linker_0, # of connection points: 2
#     Edge 11, Type (0, 0), BuildingBlock: ZUJKAS_clean_linker_0, # of connection points: 2
#     Edge 12, Type (0, 0), BuildingBlock: ZUJKAS_clean_linker_0, # of connection points: 2
#     Edge 13, Type (0, 0), BuildingBlock: ZUJKAS_clean_linker_0, # of connection points: 2
#     Edge 14, Type (0, 0), BuildingBlock: ZUJKAS_clean_linker_0, # of connection points: 2
# Relax obj value: 0.143
# Max RMSD: 0.201
# Mean RMSD: 0.201
data_MOF--net-ilc--node1-NUHRAL_clean_sbu_3--edge1-ZUJKAS_clean_linker_0
_symmetry_space_group_name_H-M    P1
_symmetry_Int_Tables_number       1
_symmetry_cell_setting            triclinic
loop_
_symmetry_equiv_pos_as_xyz
'x, y, z'
_cell_length_a     27.454776
_cell_length_b     38.023901
_cell_length_c     23.628563
_cell_angle_alpha  100.46809
_cell_angle_beta   78.431709
_cell_angle_gamma 139.87654
loop_
_atom_site_label
_atom_site_type_symbol
_atom_site_fract_x
_atom_site_fract_y
_atom_site_fract_z
_atom_type_partial_charge
C0 C 0.13563 1.0072 0.14138 0.0
C1 C 0.17232 0.05329 0.17916 0.0
C2 C 0.21587 0.06707 0.22036 0.0
C3 C 0.22435 0.03523 0.22169 0.0
C4 C 0.18738 0.98878 0.18492 0.0
C5 C 0.14239 0.97453 0.14485 0.0
O6 O 0.93814 0.96663 0.04025 0.0
Tb7 Tb 0.04478 0.02648 0.07771 0.0
O8 O 0.06829 0.08512 0.14318 0.0
O9 O 0.82349 0.89181 0.01482 0.0
Eu10 Eu 0.88995 0.93102 0.9289 0.0
O11 O 0.12628 0.03033 0.06168 0.0
C12 C 0.86939 0.98059 0.89646 0.0
O13 O 1.02244 0.97059 0.11966 0.0
O14 O 1.01154 0.98505 0.94415 0.0
O15 O 0.09787 0.06614 0.99504 0.0
C16 C 0.08926 0.99272 0.09901 0.0
C17 C 0.87886 0.84503 0.86799 0.0
O18 O 0.88099 0.84195 0.92178 0.0
C19 C 0.86745 0.92156 0.05706 0.0
C20 C 0.06844 0.03895 0.94544 0.0
O21 O 0.88027 0.87847 0.85672 0.0
C22 C 0.89253 1.01031 0.84644 0.0
C23 C 0.88106 0.05203 0.79168 0.0
C24 C 0.85498 0.02074 0.83805 0.0
C25 C 0.95355 0.0292 0.8071 0.0
C26 C 0.97979 0.0607 0.76161 0.0
C27 C 0.94419 0.07248 0.75446 0.0
C28 C 0.05575 0.11072 0.13419 0.0
O29 O 0.02835 0.09952 0.08589 0.0
O30 O 0.82228 0.92783 0.88757 0.0
O31 O 0.92426 1.00466 0.9274 0.0
H32 H 0.16505 0.07737 0.17752 0.0
H33 H 0.25445 0.04361 0.25512 0.0
H34 H 0.11233 0.93803 0.11698 0.0
H35 H 0.80661 1.00518 0.86749 0.0
H36 H 0.98062 0.01952 0.81196 0.0
H37 H 0.96387 0.09586 0.71806 0.0
C38 C 0.80885 0.34604 0.45634 0.0
C39 C 0.83565 0.38232 0.50524 0.0
C40 C 0.851 0.37582 0.55295 0.0
C41 C 0.83755 0.33215 0.55245 0.0
C42 C 0.80812 0.29442 0.50547 0.0
C43 C 0.79398 0.30139 0.45696 0.0
O44 O 0.6464 0.34776 0.42961 0.0
Tb45 Tb 0.7568 0.39162 0.38431 0.0
O46 O 0.80511 0.4611 0.44357 0.0
O47 O 0.5742 0.2617 0.38835 0.0
Eu48 Eu 0.61329 0.28588 0.29601 0.0
O49 O 0.84577 0.40815 0.3967 0.0
C50 C 0.57437 0.32368 0.26566 0.0
O51 O 0.73041 0.32391 0.39218 0.0
O52 O 0.73014 0.3347 0.25365 0.0
O53 O 0.78777 0.41664 0.29633 0.0
C54 C 0.80005 0.35651 0.40406 0.0
C55 C 0.58771 0.19145 0.24636 0.0
O56 O 0.64234 0.21888 0.27937 0.0
C57 C 0.58708 0.29423 0.43198 0.0
C58 C 0.78269 0.3879 0.25189 0.0
O59 O 0.56044 0.20843 0.24521 0.0
C60 C 0.59799 0.35383 0.21586 0.0
C61 C 0.59343 0.40135 0.16473 0.0
C62 C 0.56885 0.37171 0.21225 0.0
C63 C 0.65077 0.36522 0.17159 0.0
C64 C 0.67628 0.39576 0.12506 0.0
C65 C 0.64774 0.4138 0.12213 0.0
C66 C 0.8219 0.50117 0.42799 0.0
O67 O 0.81342 0.5003 0.37479 0.0
O68 O 0.53656 0.27298 0.25407 0.0
O69 O 0.62691 0.35071 0.30081 0.0
H70 H 0.84558 0.41602 0.50604 0.0
H71 H 0.84709 0.32604 0.59018 0.0
H72 H 0.7722 0.27268 0.42005 0.0
H73 H 0.52713 0.36226 0.24563 0.0
H74 H 0.67197 0.35048 0.17348 0.0
H75 H 0.66617 0.4363 0.08526 0.0
C76 C 0.43349 0.65624 0.8491 0.0
C77 C 0.38429 0.64883 0.8938 0.0
C78 C 0.37476 0.63354 0.94799 0.0
C79 C 0.41588 0.62716 0.95838 0.0
C80 C 0.46425 0.63343 0.9143 0.0
C81 C 0.47273 0.64765 0.85918 0.0
O82 O 0.32804 0.67162 0.70983 0.0
Tb83 Tb 0.42878 0.72094 0.7538 0.0
O84 O 0.43181 0.76995 0.82106 0.0
O85 O 0.22613 0.59251 0.66922 0.0
Eu86 Eu 0.30249 0.63444 0.58744 0.0
O87 O 0.4994 0.72333 0.78134 0.0
C88 C 0.29061 0.68951 0.55628 0.0
O89 O 0.37842 0.6466 0.77372 0.0
O90 O 0.40847 0.68056 0.62718 0.0
O91 O 0.5017 0.76126 0.67325 0.0
C92 C 0.44145 0.67092 0.79162 0.0
C93 C 0.26271 0.5345 0.53511 0.0
O94 O 0.29347 0.54655 0.5816 0.0
C95 C 0.2591 0.62098 0.71685 0.0
C96 C 0.47308 0.73304 0.62402 0.0
O97 O 0.25715 0.56418 0.52507 0.0
C98 C 0.23754 0.67425 0.52137 0.0
C99 C 0.19141 0.6969 0.47761 0.0
C100 C 0.24277 0.71243 0.51134 0.0
C101 C 0.18156 0.62081 0.49722 0.0
C102 C 0.13204 0.60542 0.46148 0.0
C103 C 0.13634 0.64349 0.45347 0.0
C104 C 0.4927 0.8234 0.82474 0.0
O105 O 0.55254 0.84694 0.78765 0.0
O106 O 0.25901 0.66506 0.60543 0.0
O107 O 0.33805 0.69027 0.52845 0.0
H108 H 0.35233 0.65388 0.88627 0.0
H109 H 0.40653 0.61388 1.00021 0.0
H110 H 0.50903 0.65164 0.82449 0.0
H111 H 0.2868 0.75394 0.52917 0.0
H112 H 0.17901 0.59202 0.50426 0.0
H113 H 0.10146 0.63348 0.42364 0.0
H114 H 0.96884 0.99698 0.67837 0.0
H115 H 0.05596 0.02759 0.59173 0.0
H116 H 0.2126 0.19454 0.65887 0.0
H117 H 0.12278 0.1637 0.74441 0.0
H118 H 0.20111 0.19406 0.55916 0.0
H119 H 0.23242 0.06507 0.54247 0.0
H120 H 0.1348 0.02349 0.55135 0.0
H121 H 0.19376 0.07226 0.60853 0.0
C122 C 0.02341 0.03994 0.67543 0.0
C123 C 0.04032 0.07806 0.71794 0.0
C124 C 0.07382 0.05754 0.62615 0.0
C125 C 0.14324 0.11343 0.61952 0.0
C126 C 0.16085 0.15123 0.66348 0.0
H127 H 0.34809 0.14 0.27297 0.0
H128 H 0.36223 0.17606 0.37295 0.0
C129 C 0.10976 0.1337 0.71235 0.0
C130 C 0.19137 0.1325 0.56349 0.0
H131 H 0.2454 0.0947 0.45114 0.0
C132 C 0.21295 0.17344 0.53642 0.0
C133 C 0.20839 0.1066 0.53354 0.0
C134 C 0.19192 0.06503 0.56095 0.0
C135 C 0.24351 0.18492 0.47851 0.0
C136 C 0.2519 0.15438 0.44685 0.0
C137 C 0.2381 0.11774 0.47542 0.0
C138 C 0.2588 0.1507 0.38299 0.0
C139 C 0.26215 0.22724 0.45069 0.0
C140 C 0.19846 0.12758 0.35463 0.0
C141 C 0.18939 0.10604 0.29808 0.0
C142 C 0.24058 0.10723 0.26908 0.0
C143 C 0.30663 0.13722 0.29484 0.0
C144 C 0.31511 0.15812 0.35181 0.0
H145 H 0.27953 0.2597 0.48292 0.0
H146 H 0.3083 0.24634 0.41491 0.0
H147 H 0.21085 0.20745 0.43277 0.0
H148 H 0.15383 0.12084 0.37813 0.0
H149 H 0.13783 0.08323 0.27985 0.0
H150 H 0.77873 0.3948 0.61728 0.0
H151 H 0.79296 0.4265 0.71868 0.0
H152 H 0.9885 0.46531 0.71123 0.0
H153 H 0.97294 0.43213 0.60991 0.0
H154 H 0.88387 0.39495 0.79034 0.0
H155 H 0.92057 0.5609 0.82268 0.0
H156 H 0.84288 0.50604 0.78008 0.0
H157 H 0.93748 0.54209 0.75225 0.0
C158 C 0.82672 0.4124 0.63662 0.0
C159 C 0.87443 0.41077 0.60626 0.0
C160 C 0.83506 0.4307 0.6946 0.0
C161 C 0.89204 0.44849 0.72262 0.0
C162 C 0.94427 0.45182 0.69049 0.0
H163 H 0.81741 0.49407 0.09091 0.0
H164 H 0.8887 0.51318 0.99664 0.0
C165 C 0.93546 0.43301 0.63271 0.0
C166 C 0.88752 0.45321 0.78662 0.0
H167 H 0.8509 0.49993 0.90287 0.0
C168 C 0.87872 0.41908 0.81523 0.0
C169 C 0.88203 0.48521 0.81929 0.0
C170 C 0.89714 0.52604 0.79185 0.0
C171 C 0.85866 0.41281 0.875 0.0
C172 C 0.8453 0.44052 0.90689 0.0
C173 C 0.86 0.47792 0.87881 0.0
C174 C 0.81016 0.42835 0.96771 0.0
C175 C 0.84986 0.37518 0.90247 0.0
C176 C 0.7426 0.37415 0.98347 0.0
C177 C 0.70264 0.36321 0.03772 0.0
C178 C 0.72846 0.4063 0.07639 0.0
C179 C 0.79733 0.46026 0.0619 0.0
C180 C 0.83786 0.47114 0.00808 0.0
H181 H 0.88898 0.37495 0.8793 0.0
H182 H 0.8606 0.38692 0.94863 0.0
H183 H 0.79132 0.33278 0.89913 0.0
H184 H 0.71767 0.34029 0.95261 0.0
H185 H 0.64852 0.32137 0.04758 0.0
H186 H 0.22463 0.54067 0.94685 0.0
H187 H 0.12782 0.5024 0.02941 0.0
H188 H 0.29652 0.64925 0.13214 0.0
H189 H 0.39334 0.68672 0.05031 0.0
H190 H 0.11728 0.47642 0.12653 0.0
H191 H 0.13282 0.63204 0.17535 0.0
H192 H 0.1736 0.62869 0.10751 0.0
H193 H 0.22595 0.66431 0.17044 0.0
C194 C 0.23968 0.56546 0.98641 0.0
C195 C 0.31517 0.61707 0.99225 0.0
C196 C 0.18459 0.54369 0.03326 0.0
C197 C 0.20377 0.57387 0.08593 0.0
C198 C 0.27936 0.62615 0.09116 0.0
H199 H 0.17468 0.56072 0.4088 0.0
H200 H 0.14435 0.51766 0.31329 0.0
C201 C 0.33473 0.64756 0.04464 0.0
C202 C 0.14749 0.54882 0.1374 0.0
H203 H 0.09475 0.58192 0.25725 0.0
C204 C 0.11042 0.49866 0.15439 0.0
C205 C 0.1367 0.57685 0.17317 0.0
C206 C 0.16876 0.6281 0.15521 0.0
C207 C 0.07014 0.47922 0.20917 0.0
C208 C 0.0677 0.51096 0.24761 0.0
C209 C 0.09723 0.55769 0.22799 0.0
C210 C 0.05431 0.50603 0.31087 0.0
C211 C 0.03513 0.42697 0.22698 0.0
C212 C 1.00792 0.50804 0.34392 0.0
C213 C 0.02419 0.53185 0.39986 0.0
C214 C 0.08908 0.55597 0.42186 0.0
C215 C 0.12531 0.54385 0.39309 0.0
C216 C 0.10775 0.51882 0.33787 0.0
H217 H 1.01526 0.39785 0.18916 0.0
H218 H 0.07859 0.43615 0.24473 0.0
H219 H 0.98659 0.4072 0.26064 0.0
H220 H 0.96565 0.49767 0.32411 0.0
H221 H 0.9927 0.53818 0.42227 0.0
H222 H 0.31927 0.79642 0.4318 0.0
H223 H 0.32466 0.85049 0.3814 0.0
H224 H 0.0849 0.73814 0.42905 0.0
H225 H 0.07983 0.68513 0.48057 0.0
H226 H 0.24616 0.81004 0.28778 0.0
H227 H 0.16597 0.88292 0.45965 0.0
H228 H 0.19537 0.85683 0.47554 0.0
H229 H 0.09946 0.81062 0.45974 0.0
C230 C 0.26851 0.78462 0.43342 0.0
C231 C 0.19922 0.73673 0.46023 0.0
C232 C 0.2714 0.81511 0.40406 0.0
C233 C 0.20526 0.7985 0.40152 0.0
C234 C 0.13697 0.7524 0.43113 0.0
H235 H 0.06713 0.88227 0.21309 0.0
H236 H 0.0719 0.83212 0.25905 0.0
C237 C 0.13407 0.72202 0.46046 0.0
C238 C 0.20569 0.82595 0.36362 0.0
H239 H 0.15745 0.88609 0.36226 0.0
C240 C 0.2277 0.82731 0.30417 0.0
C241 C 0.18086 0.84797 0.38493 0.0
C242 C 0.15978 0.85004 0.44854 0.0
C243 C 0.22399 0.84907 0.26538 0.0
C244 C 0.19792 0.87013 0.28665 0.0
C245 C 0.17662 0.86927 0.34605 0.0
C246 C 0.1945 0.89507 0.24863 0.0
C247 C 0.24534 0.8478 0.20168 0.0
C248 C 0.26175 0.9461 0.22575 0.0
C249 C 0.25907 0.97465 0.19948 0.0
C250 C 0.18909 0.95255 0.19562 0.0
C251 C 0.12162 0.89972 0.21462 0.0
C252 C 0.12435 0.87135 0.24135 0.0
H253 H 0.25718 0.82505 0.19133 0.0
H254 H 0.19888 0.82858 0.17658 0.0
H255 H 0.2967 0.89011 0.18733 0.0
H256 H 0.31648 0.96541 0.23152 0.0
H257 H 0.31189 0.01558 0.1857 0.0
H258 H 0.26867 0.46728 0.54409 0.0
H259 H 0.23028 0.39455 0.47584 0.0
H260 H 0.15902 0.42544 0.36605 0.0
H261 H 0.19824 0.49898 0.43391 0.0
H262 H 0.08866 0.29956 0.43673 0.0
H263 H 0.30232 0.43315 0.2552 0.0
H264 H 0.30821 0.45985 0.32823 0.0
H265 H 0.24349 0.43958 0.28352 0.0
C266 C 0.24491 0.45875 0.50542 0.0
C267 C 0.23704 0.48927 0.49429 0.0
C268 C 0.22289 0.41704 0.46648 0.0
C269 C 0.19287 0.40508 0.41543 0.0
C270 C 0.18349 0.4347 0.40462 0.0
H271 H 0.03967 0.1722 0.1263 0.0
H272 H 0.0705 0.2418 0.19582 0.0
C273 C 0.20556 0.47653 0.44361 0.0
C274 C 0.17119 0.36137 0.37391 0.0
H275 H 0.21126 0.33782 0.23575 0.0
C276 C 0.11552 0.3079 0.3928 0.0
C277 C 0.20644 0.37237 0.31666 0.0
C278 C 0.26892 0.42939 0.29465 0.0
C279 C 0.09338 0.26498 0.35576 0.0
C280 C 0.12873 0.27602 0.29856 0.0
C281 C 0.18421 0.32944 0.27961 0.0
C282 C 0.10863 0.2327 0.25737 0.0
C283 C 0.03131 0.20801 0.37783 0.0
C284 C 0.12036 0.20466 0.26866 0.0
C285 C 0.10275 0.16472 0.22892 0.0
C286 C 0.0734 0.15229 0.17701 0.0
C287 C 0.06197 0.1806 0.16587 0.0
C288 C 0.07965 0.22049 0.20554 0.0
H289 H 0.99726 0.20398 0.41688 0.0
H290 H 0.9926 0.17733 0.34406 0.0
H291 H 0.05723 0.19842 0.38967 0.0
H292 H 0.14405 0.21415 0.30787 0.0
H293 H 0.11262 0.14391 0.23873 0.0
H294 H 0.43324 0.68162 0.5171 0.0
H295 H 0.50853 0.71966 0.42416 0.0
H296 H 0.68597 0.87757 0.50879 0.0
H297 H 0.60979 0.84 0.60231 0.0
H298 H 0.65866 0.88332 0.40518 0.0
H299 H 0.69263 0.7548 0.37433 0.0
H300 H 0.5951 0.71562 0.38668 0.0
H301 H 0.65733 0.76223 0.44276 0.0
C302 C 0.48775 0.72466 0.51603 0.0
C303 C 0.51547 0.75778 0.56722 0.0
C304 C 0.53114 0.74621 0.46283 0.0
C305 C 0.60369 0.80113 0.45966 0.0
C306 C 0.63042 0.83493 0.51031 0.0
H307 H 0.9334 0.98496 0.1559 0.0
H308 H 0.87668 0.95933 0.25606 0.0
C309 C 0.58677 0.81341 0.56369 0.0
C310 C 0.65159 0.82273 0.40348 0.0
H311 H 0.72735 0.80057 0.2917 0.0
C312 C 0.67449 0.86571 0.38061 0.0
C313 C 0.67268 0.79996 0.37166 0.0
C314 C 0.65386 0.75598 0.39532 0.0
C315 C 0.71492 0.88482 0.32562 0.0
C316 C 0.73374 0.86075 0.29306 0.0
C317 C 0.71264 0.81882 0.31663 0.0
C318 C 0.77119 0.87613 0.23307 0.0
C319 C 0.73458 0.92912 0.30182 0.0
C320 C 0.73199 0.83745 0.18711 0.0
C321 C 0.76463 0.85194 0.13008 0.0
C322 C 0.83752 0.90528 0.11783 0.0
C323 C 0.87774 0.9435 0.164 0.0
C324 C 0.84494 0.92904 0.22119 0.0
H325 H 0.70333 0.93579 0.32734 0.0
H326 H 0.79631 0.96802 0.30301 0.0
H327 H 0.72162 0.91886 0.25613 0.0
H328 H 0.67518 0.79634 0.19529 0.0
H329 H 0.73206 0.82154 0.09546 0.0
H330 H 0.67205 0.19375 0.54068 0.0
H331 H 0.65439 0.13137 0.58701 0.0
H332 H 0.88939 0.23069 0.53682 0.0
H333 H 0.90685 0.29283 0.49052 0.0
H334 H 0.78499 0.11345 0.53602 0.0
H335 H 0.75687 0.19791 0.74101 0.0
H336 H 0.69141 0.16645 0.68902 0.0
H337 H 0.7908 0.22829 0.67246 0.0
C338 C 0.71869 0.2005 0.537 0.0
C339 C 0.79044 0.24744 0.51126 0.0
C340 C 0.70893 0.16539 0.56421 0.0
C341 C 0.77093 0.17696 0.56625 0.0
C342 C 0.84079 0.22098 0.5358 0.0
H343 H 0.93916 0.15011 0.7943 0.0
H344 H 0.89587 0.17212 0.74385 0.0
C345 C 0.8506 0.25616 0.50881 0.0
C346 C 0.7665 0.14818 0.60585 0.0
H347 H 0.75974 0.13895 0.74915 0.0
C348 C 0.77809 0.11811 0.58262 0.0
C349 C 0.75875 0.15517 0.6667 0.0
C350 C 0.74929 0.18898 0.69411 0.0
C351 C 0.78379 0.09584 0.61857 0.0
C352 C 0.77712 0.10351 0.6794 0.0
C353 C 0.76372 0.13247 0.70261 0.0
C354 C 0.79403 0.08819 0.71889 0.0
C355 C 0.80094 0.06675 0.59118 0.0
C356 C 0.74894 0.03342 0.72444 0.0
C357 C 0.77327 0.02076 0.75407 0.0
C358 C 0.84294 0.06273 0.77837 0.0
C359 C 0.88477 0.11706 0.77657 0.0
C360 C 0.86033 0.12964 0.74739 0.0
H361 H 0.81542 0.0713 0.54367 0.0
H362 H 0.84895 0.0827 0.61055 0.0
H363 H 0.7505 0.02255 0.59936 0.0
H364 H 0.69705 1.00076 0.70342 0.0
H365 H 0.74068 0.97865 0.75416 0.0
H366 H 0.85908 0.58891 0.40989 0.0
H367 H 0.87953 0.65307 0.4825 0.0
H368 H 0.84899 0.57291 0.61671 0.0
H369 H 0.82933 0.50891 0.54433 0.0
H370 H 0.77292 0.62339 0.57365 0.0
H371 H 0.03995 0.73481 0.65653 0.0
H372 H 1.0097 0.69534 0.58873 0.0
H373 H 0.96815 0.66174 0.65586 0.0
C374 C 0.85775 0.58533 0.45475 0.0
C375 C 0.84222 0.54355 0.47125 0.0
C376 C 0.86939 0.62206 0.49622 0.0
C377 C 0.86629 0.61809 0.55503 0.0
C378 C 0.85295 0.57741 0.57151 0.0
H379 H 0.86449 0.76689 0.87851 0.0
H380 H 0.86212 0.71329 0.80134 0.0
C381 C 0.84134 0.54064 0.53004 0.0
C382 C 0.87136 0.65382 0.59937 0.0
H383 H 0.9708 0.74739 0.71089 0.0
C384 C 0.81658 0.65087 0.60336 0.0
C385 C 0.92815 0.68949 0.63823 0.0
C386 C 0.9903 0.69607 0.63448 0.0
C387 C 0.81579 0.6815 0.64604 0.0
C388 C 0.87226 0.71693 0.68522 0.0
C389 C 0.92748 0.72023 0.68092 0.0
C390 C 0.87403 0.75001 0.73175 0.0
C391 C 0.753 0.67428 0.64988 0.0
C392 C 0.88209 0.7889 0.71843 0.0
C393 C 0.88302 0.81947 0.76257 0.0
C394 C 0.87665 0.81214 0.82095 0.0
C395 C 0.86941 0.77358 0.83407 0.0
C396 C 0.86822 0.74294 0.78996 0.0
H397 H 0.70403 0.63591 0.62697 0.0
H398 H 0.73251 0.67381 0.69563 0.0
H399 H 0.77496 0.70893 0.62947 0.0
H400 H 0.88826 0.79593 0.67383 0.0
H401 H 0.88941 0.84917 0.75088 0.0
H402 H 0.44392 0.1892 0.44451 0.0
H403 H 0.35552 0.14939 0.53132 0.0
H404 H 0.51956 0.30362 0.62602 0.0
H405 H 0.60845 0.34443 0.53877 0.0
H406 H 0.36224 0.13489 0.63209 0.0
H407 H 0.34319 0.27297 0.67107 0.0
H408 H 0.38046 0.26743 0.60242 0.0
H409 H 0.43741 0.30673 0.66254 0.0
C410 C 0.46103 0.2149 0.48362 0.0
C411 C 0.53292 0.27017 0.48455 0.0
C412 C 0.41 0.19206 0.53327 0.0
C413 C 0.42921 0.22379 0.58485 0.0
C414 C 0.50178 0.27876 0.58623 0.0
H415 H 0.20194 0.14794 0.93244 0.0
H416 H 0.28689 0.19245 0.84412 0.0
C417 C 0.55289 0.30192 0.53638 0.0
C418 C 0.37433 0.19838 0.63749 0.0
H419 H 0.28154 0.21011 0.74283 0.0
C420 C 0.34409 0.15109 0.65597 0.0
C421 C 0.35118 0.21982 0.66903 0.0
C422 C 0.37908 0.26919 0.65009 0.0
C423 C 0.29173 0.12475 0.70509 0.0
C424 C 0.26777 0.14573 0.73625 0.0
C425 C 0.29915 0.19366 0.7185 0.0
C426 C 0.21224 0.11951 0.78849 0.0
C427 C 0.26439 0.07556 0.72388 0.0
C428 C 0.1405 0.06415 0.78635 0.0
C429 C 0.09236 0.03821 0.8371 0.0
C430 C 0.11403 0.06757 0.89072 0.0
C431 C 0.18355 0.12392 0.89201 0.0
C432 C 0.23224 0.14954 0.84145 0.0
H433 H 0.30402 0.07459 0.70602 0.0
H434 H 0.25783 0.07497 0.77173 0.0
H435 H 0.20842 0.03786 0.70764 0.0
H436 H 0.12258 0.04058 0.74564 0.0
H437 H 0.03895 0.99489 0.8344 0.0
H438 H 0.48173 0.34894 0.09831 0.0
H439 H 0.46056 0.3905 0.05658 0.0
H440 H 0.61919 0.53611 0.16483 0.0
H441 H 0.64142 0.49473 0.20572 0.0
H442 H 0.41669 0.43721 0.09566 0.0
H443 H 0.71762 0.59202 1.00192 0.0
H444 H 0.67201 0.5324 0.03559 0.0
H445 H 0.70541 0.59044 0.07931 0.0
C446 C 0.50963 0.38895 0.11475 0.0
C447 C 0.56226 0.41846 0.15573 0.0
C448 C 0.49817 0.41289 0.09053 0.0
C449 C 0.53973 0.46692 0.10652 0.0
C450 C 0.58775 0.4948 0.15095 0.0
H451 H 0.56409 0.68363 0.99291 0.0
H452 H 0.58782 0.64394 0.03515 0.0
C453 C 0.59943 0.47088 0.17506 0.0
C454 C 0.53696 0.4951 0.07359 0.0
H455 H 0.64652 0.60246 0.98674 0.0
C456 C 0.46688 0.47325 0.07177 0.0
C457 C 0.60243 0.54183 0.04181 0.0
C458 C 0.67853 0.56535 0.03914 0.0
C459 C 0.46081 0.49753 0.04011 0.0
C460 C 0.52638 0.5445 0.00888 0.0
C461 C 0.5964 0.56634 0.01058 0.0
C462 C 0.52344 0.57273 0.97649 0.0
C463 C 0.38456 0.47346 0.04117 0.0
C464 C 0.48302 0.54731 0.92749 0.0
C465 C 0.47052 0.57044 0.9027 0.0
C466 C 0.49808 0.61913 0.9268 0.0
C467 C 0.54323 0.64645 0.97313 0.0
C468 C 0.55622 0.6236 0.99754 0.0
H469 H 0.34272 0.4433 0.0753 0.0
H470 H 0.39027 0.50614 0.04849 0.0
H471 H 0.36179 0.45242 0.99873 0.0
H472 H 0.45792 0.50825 0.9103 0.0
H473 H 0.43441 0.54816 0.86772 0.0
H474 H 0.37675 0.78841 0.905 0.0
H475 H 0.37791 0.84405 0.97727 0.0
H476 H 0.61166 0.98916 0.91881 0.0
H477 H 0.61061 0.93414 0.84583 0.0
H478 H 0.46356 0.90938 0.06735 0.0
H479 H 0.51693 0.03328 0.9158 0.0
H480 H 0.48944 0.97246 0.89232 0.0
H481 H 0.58682 0.03644 0.90361 0.0
C482 C 0.42834 0.83221 0.90733 0.0
C483 C 0.49345 0.85682 0.86933 0.0
C484 C 0.4289 0.86396 0.94872 0.0
C485 C 0.49439 0.92096 0.95284 0.0
C486 C 0.55981 0.94547 0.91555 0.0
H487 H 0.64177 0.15284 0.23366 0.0
H488 H 0.60847 0.08215 0.16512 0.0
C489 C 0.55927 0.91383 0.87407 0.0
C490 C 0.49524 0.95468 0.99717 0.0
H491 H 0.5369 0.06655 0.01471 0.0
C492 C 0.47882 0.94339 0.05577 0.0
C493 C 0.51367 0.99846 0.9822 0.0
C494 C 0.52693 1.01058 0.92003 0.0
C495 C 0.48378 0.97614 0.09977 0.0
C496 C 0.5069 0.02198 0.08488 0.0
C497 C 0.5199 0.03177 0.02623 0.0
C498 C 0.52261 0.0622 0.12927 0.0
C499 C 0.46465 0.96148 0.16181 0.0
C500 C 0.4861 0.07519 0.13167 0.0
C501 C 0.50557 0.11619 0.17073 0.0
C502 C 0.56229 0.14516 0.20786 0.0
C503 C 0.59764 0.13129 0.20595 0.0
C504 C 0.5783 0.09052 0.16694 0.0
H505 H 0.42403 0.91705 0.16507 0.0
H506 H 0.51728 0.98376 0.17987 0.0
H507 H 0.43985 0.97286 0.18875 0.0
H508 H 0.44312 0.05402 0.10288 0.0
H509 H 0.47716 0.12578 0.17109 0.0
H510 H 0.30395 0.67057 0.82478 0.0
H511 H 0.22805 0.63232 0.91794 0.0
H512 H 0.03969 0.48139 0.82968 0.0
H513 H 0.11687 0.51804 0.73749 0.0
H514 H 0.10237 0.6001 0.95655 0.0
H515 H 0.03998 0.42284 0.95215 0.0
H516 H 0.10941 0.47573 0.90075 0.0
H517 H 1.01061 0.4213 0.88973 0.0
C518 C 0.2473 0.62882 0.82549 0.0
C519 C 0.21722 0.59718 0.77388 0.0
C520 C 0.20357 0.6071 0.87865 0.0
C521 C 0.12847 0.5536 0.88096 0.0
C522 C 0.09816 0.52209 0.82934 0.0
H523 H 0.75893 0.34127 0.14327 0.0
H524 H 0.84228 0.38515 0.05473 0.0
C525 C 0.14238 0.54335 0.77651 0.0
C526 C 0.08036 0.53162 0.93683 0.0
H527 H 0.96503 0.42319 0.0222 0.0
C528 C 0.07233 0.56144 0.97117 0.0
C529 C 0.04125 0.48121 0.95567 0.0
C530 C 0.05132 0.44876 0.92299 0.0
C531 C 0.02458 0.54166 0.0231 0.0
C532 C 0.98428 0.49061 0.04174 0.0
C533 C 0.99395 0.46154 1.00768 0.0
C534 C 0.9313 0.46561 0.09568 0.0
C535 C 1.01746 0.57577 0.05585 0.0
C536 C 0.95207 0.49578 0.14871 0.0
C537 C 0.90335 0.47092 0.19939 0.0
C538 C 0.83367 0.41487 0.19839 0.0
C539 C 0.81275 0.3845 0.14557 0.0
C540 C 0.86059 0.40968 0.09479 0.0
H541 H 0.02564 0.59972 0.02598 0.0
H542 H 0.96165 0.55074 0.08142 0.0
H543 H 0.06264 0.60551 0.08567 0.0
H544 H 1.00618 0.53852 0.15131 0.0
H545 H 0.92101 0.49538 0.2395 0.0
loop_
_geom_bond_atom_site_label_1
_geom_bond_atom_site_label_2
_geom_bond_distance
_geom_bond_site_symmetry_2
_ccdc_geom_bond_type
C0 C1 1.387 . S
C0 C5 1.380 1_545 S
C0 C16 1.494 . S
C1 C0 1.387 . S
C1 C2 1.386 1_545 S
C1 H32 0.930 . S
C2 C1 1.386 1_565 S
C2 C3 1.397 . S
C3 C2 1.397 . S
C3 C4 1.393 . S
C3 H33 0.930 . S
C4 C3 1.393 . S
C4 C5 1.395 . S
C5 C0 1.380 1_565 S
C5 C4 1.395 . S
C5 H34 0.930 . S
O6 Tb7 2.295 1_655 S
O6 C19 1.242 1_545 S
Tb7 O6 2.295 1_455 S
Tb7 O8 2.312 . S
Tb7 O11 2.438 . S
Tb7 O13 2.472 . S
Tb7 O15 2.308 1_554 S
Tb7 C16 2.821 . S
O8 Tb7 2.312 . S
O8 C28 1.264 . S
O9 Eu10 2.308 1_554 S
O9 C19 1.243 . S
Eu10 O9 2.308 1_556 S
Eu10 C12 2.821 . S
Eu10 O14 2.295 1_655 S
Eu10 O21 2.312 . S
Eu10 O30 2.438 . S
Eu10 O31 2.472 . S
O11 Tb7 2.438 . S
O11 C16 1.263 . S
C12 Eu10 2.821 . S
C12 C22 1.494 . S
C12 O30 1.263 . S
C12 O31 1.264 . S
O13 Tb7 2.472 . S
O13 C16 1.264 . S
O14 Eu10 2.295 1_455 S
O14 C20 1.242 1_565 S
O15 Tb7 2.308 1_556 S
O15 C20 1.243 . S
C16 C0 1.494 . S
C16 Tb7 2.821 . S
C16 O11 1.263 . S
C16 O13 1.264 . S
C17 O18 1.260 . S
C17 O21 1.264 . S
O18 C17 1.260 . S
C19 O6 1.242 1_565 S
C19 O9 1.243 . S
C20 O14 1.242 1_545 S
C20 O15 1.243 . S
O21 Eu10 2.312 . S
O21 C17 1.264 . S
C22 C12 1.494 . S
C22 C24 1.380 1_565 S
C22 C25 1.387 . S
C23 C24 1.395 . S
C23 C27 1.393 . S
C24 C22 1.380 1_545 S
C24 C23 1.395 . S
C24 H35 0.930 . S
C25 C22 1.387 . S
C25 C26 1.386 1_565 S
C25 H36 0.930 . S
C26 C25 1.386 1_545 S
C26 C27 1.397 . S
C27 C23 1.393 . S
C27 C26 1.397 . S
C27 H37 0.930 . S
C28 O8 1.264 . S
C28 O29 1.260 . S
O29 C28 1.260 . S
O30 Eu10 2.438 . S
O30 C12 1.263 . S
O31 Eu10 2.472 . S
O31 C12 1.264 . S
H32 C1 0.930 . S
H33 C3 0.930 . S
H34 C5 0.930 . S
H35 C24 0.930 . S
H36 C25 0.930 . S
H37 C27 0.930 . S
C38 C39 1.387 . S
C38 C43 1.380 . S
C38 C54 1.494 . S
C39 C38 1.387 . S
C39 C40 1.386 . S
C39 H70 0.930 . S
C40 C39 1.386 . S
C40 C41 1.397 . S
C41 C40 1.397 . S
C41 C42 1.393 . S
C41 H71 0.930 . S
C42 C41 1.393 . S
C42 C43 1.395 . S
C43 C38 1.380 . S
C43 C42 1.395 . S
C43 H72 0.930 . S
O44 Tb45 2.295 . S
O44 C57 1.242 . S
Tb45 O44 2.295 . S
Tb45 O46 2.312 . S
Tb45 O49 2.438 . S
Tb45 O51 2.472 . S
Tb45 O53 2.308 . S
Tb45 C54 2.821 . S
O46 Tb45 2.312 . S
O46 C66 1.264 . S
O47 Eu48 2.308 . S
O47 C57 1.243 . S
Eu48 O47 2.308 . S
Eu48 C50 2.821 . S
Eu48 O52 2.295 . S
Eu48 O59 2.312 . S
Eu48 O68 2.438 . S
Eu48 O69 2.472 . S
O49 Tb45 2.438 . S
O49 C54 1.263 . S
C50 Eu48 2.821 . S
C50 C60 1.494 . S
C50 O68 1.263 . S
C50 O69 1.264 . S
O51 Tb45 2.472 . S
O51 C54 1.264 . S
O52 Eu48 2.295 . S
O52 C58 1.242 . S
O53 Tb45 2.308 . S
O53 C58 1.243 . S
C54 C38 1.494 . S
C54 Tb45 2.821 . S
C54 O49 1.263 . S
C54 O51 1.264 . S
C55 O56 1.260 . S
C55 O59 1.264 . S
O56 C55 1.260 . S
C57 O44 1.242 . S
C57 O47 1.243 . S
C58 O52 1.242 . S
C58 O53 1.243 . S
O59 Eu48 2.312 . S
O59 C55 1.264 . S
C60 C50 1.494 . S
C60 C62 1.380 . S
C60 C63 1.387 . S
C61 C62 1.395 . S
C61 C65 1.393 . S
C62 C60 1.380 . S
C62 C61 1.395 . S
C62 H73 0.930 . S
C63 C60 1.387 . S
C63 C64 1.386 . S
C63 H74 0.930 . S
C64 C63 1.386 . S
C64 C65 1.397 . S
C65 C61 1.393 . S
C65 C64 1.397 . S
C65 H75 0.930 . S
C66 O46 1.264 . S
C66 O67 1.260 . S
O67 C66 1.260 . S
O68 Eu48 2.438 . S
O68 C50 1.263 . S
O69 Eu48 2.472 . S
O69 C50 1.264 . S
H70 C39 0.930 . S
H71 C41 0.930 . S
H72 C43 0.930 . S
H73 C62 0.930 . S
H74 C63 0.930 . S
H75 C65 0.930 . S
C76 C77 1.387 . S
C76 C81 1.380 . S
C76 C92 1.494 . S
C77 C76 1.387 . S
C77 C78 1.386 . S
C77 H108 0.930 . S
C78 C77 1.386 . S
C78 C79 1.397 . S
C79 C78 1.397 . S
C79 C80 1.393 . S
C79 H109 0.930 . S
C80 C79 1.393 . S
C80 C81 1.395 . S
C81 C76 1.380 . S
C81 C80 1.395 . S
C81 H110 0.930 . S
O82 Tb83 2.295 . S
O82 C95 1.242 . S
Tb83 O82 2.295 . S
Tb83 O84 2.312 . S
Tb83 O87 2.438 . S
Tb83 O89 2.472 . S
Tb83 O91 2.308 . S
Tb83 C92 2.821 . S
O84 Tb83 2.312 . S
O84 C104 1.264 . S
O85 Eu86 2.308 . S
O85 C95 1.243 . S
Eu86 O85 2.308 . S
Eu86 C88 2.821 . S
Eu86 O90 2.295 . S
Eu86 O97 2.312 . S
Eu86 O106 2.438 . S
Eu86 O107 2.472 . S
O87 Tb83 2.438 . S
O87 C92 1.263 . S
C88 Eu86 2.821 . S
C88 C98 1.494 . S
C88 O106 1.263 . S
C88 O107 1.264 . S
O89 Tb83 2.472 . S
O89 C92 1.264 . S
O90 Eu86 2.295 . S
O90 C96 1.242 . S
O91 Tb83 2.308 . S
O91 C96 1.243 . S
C92 C76 1.494 . S
C92 Tb83 2.821 . S
C92 O87 1.263 . S
C92 O89 1.264 . S
C93 O94 1.260 . S
C93 O97 1.264 . S
O94 C93 1.260 . S
C95 O82 1.242 . S
C95 O85 1.243 . S
C96 O90 1.242 . S
C96 O91 1.243 . S
O97 Eu86 2.312 . S
O97 C93 1.264 . S
C98 C88 1.494 . S
C98 C100 1.380 . S
C98 C101 1.387 . S
C99 C100 1.395 . S
C99 C103 1.393 . S
C100 C98 1.380 . S
C100 C99 1.395 . S
C100 H111 0.930 . S
C101 C98 1.387 . S
C101 C102 1.386 . S
C101 H112 0.930 . S
C102 C101 1.386 . S
C102 C103 1.397 . S
C103 C99 1.393 . S
C103 C102 1.397 . S
C103 H113 0.930 . S
C104 O84 1.264 . S
C104 O105 1.260 . S
O105 C104 1.260 . S
O106 Eu86 2.438 . S
O106 C88 1.263 . S
O107 Eu86 2.472 . S
O107 C88 1.264 . S
H108 C77 0.930 . S
H109 C79 0.930 . S
H110 C81 0.930 . S
H111 C100 0.930 . S
H112 C101 0.930 . S
H113 C103 0.930 . S
H114 C122 0.929 . S
H115 C124 0.930 . S
H116 C126 0.930 . S
H117 C129 0.929 1_455 S
H118 C132 0.930 . S
H119 C134 0.960 . S
H120 C134 0.960 1_565 S
H121 C134 0.960 . S
C122 H114 0.929 . S
C122 C123 1.377 1_565 S
C122 C124 1.384 . S
C123 C122 1.377 1_545 S
C123 C129 1.390 . S
C124 H115 0.930 . S
C124 C122 1.384 . S
C124 C125 1.372 1_565 S
C125 C124 1.372 1_545 S
C125 C126 1.400 1_655 S
C125 C130 1.490 1_545 S
C126 H116 0.930 . S
C126 C125 1.400 1_455 S
C126 C129 1.386 1_455 S
H127 C143 0.930 . S
H128 C144 0.931 . S
C129 H117 0.929 1_655 S
C129 C123 1.390 . S
C129 C126 1.386 1_655 S
C130 C125 1.490 1_565 S
C130 C132 1.395 . S
C130 C133 1.403 1_665 S
H131 C137 0.930 . S
C132 H118 0.930 . S
C132 C130 1.395 . S
C132 C135 1.403 . S
C133 C130 1.403 1_445 S
C133 C134 1.524 . S
C133 C137 1.400 . S
C134 H119 0.960 . S
C134 H120 0.960 1_545 S
C134 H121 0.960 . S
C134 C133 1.524 . S
C135 C132 1.403 . S
C135 C136 1.392 1_655 S
C135 C139 1.495 . S
C136 C135 1.392 1_455 S
C136 C137 1.385 1_565 S
C136 C138 1.478 . S
C137 H131 0.930 . S
C137 C133 1.400 . S
C137 C136 1.385 1_545 S
C138 C136 1.478 . S
C138 C140 1.381 1_455 S
C138 C144 1.383 1_565 S
C139 C135 1.495 . S
C139 H145 0.959 . S
C139 H146 0.961 1_565 S
C139 H147 0.960 . S
C140 C138 1.381 1_655 S
C140 C141 1.394 1_655 S
C140 H148 0.930 . S
C141 C140 1.394 1_455 S
C141 C142 1.383 . S
C141 H149 0.929 1_455 S
C142 C141 1.383 . S
C142 C143 1.377 1_565 S
C143 H127 0.930 . S
C143 C142 1.377 1_545 S
C143 C144 1.379 . S
C144 H128 0.931 . S
C144 C138 1.383 1_545 S
C144 C143 1.379 . S
H145 C139 0.959 . S
H146 C139 0.961 1_545 S
H147 C139 0.960 . S
H148 C140 0.930 . S
H149 C141 0.929 1_655 S
H150 C158 0.929 . S
H151 C160 0.930 . S
H152 C162 0.930 . S
H153 C165 0.929 . S
H154 C168 0.930 . S
H155 C170 0.960 . S
H156 C170 0.960 . S
H157 C170 0.960 . S
C158 H150 0.929 . S
C158 C159 1.377 . S
C158 C160 1.384 . S
C159 C158 1.377 . S
C159 C165 1.390 . S
C160 H151 0.930 . S
C160 C158 1.384 . S
C160 C161 1.372 . S
C161 C160 1.372 . S
C161 C162 1.400 . S
C161 C166 1.490 . S
C162 H152 0.930 . S
C162 C161 1.400 . S
C162 C165 1.386 . S
H163 C179 0.930 . S
H164 C180 0.931 . S
C165 H153 0.929 . S
C165 C159 1.390 . S
C165 C162 1.386 . S
C166 C161 1.490 . S
C166 C168 1.395 . S
C166 C169 1.403 . S
H167 C173 0.930 . S
C168 H154 0.930 . S
C168 C166 1.395 . S
C168 C171 1.403 . S
C169 C166 1.403 . S
C169 C170 1.524 . S
C169 C173 1.400 . S
C170 H155 0.960 . S
C170 H156 0.960 . S
C170 H157 0.960 . S
C170 C169 1.524 . S
C171 C168 1.403 . S
C171 C172 1.392 . S
C171 C175 1.495 . S
C172 C171 1.392 . S
C172 C173 1.385 . S
C172 C174 1.478 . S
C173 H167 0.930 . S
C173 C169 1.400 . S
C173 C172 1.385 . S
C174 C172 1.478 . S
C174 C176 1.381 . S
C174 C180 1.383 . S
C175 C171 1.495 . S
C175 H181 0.959 . S
C175 H182 0.961 . S
C175 H183 0.960 . S
C176 C174 1.381 . S
C176 C177 1.394 1_556 S
C176 H184 0.930 . S
C177 C176 1.394 1_554 S
C177 C178 1.383 . S
C177 H185 0.929 . S
C178 C177 1.383 . S
C178 C179 1.377 . S
C179 H163 0.930 . S
C179 C178 1.377 . S
C179 C180 1.379 1_554 S
C180 H164 0.931 . S
C180 C174 1.383 . S
C180 C179 1.379 1_556 S
H181 C175 0.959 . S
H182 C175 0.961 . S
H183 C175 0.960 . S
H184 C176 0.930 . S
H185 C177 0.929 . S
H186 C194 0.929 . S
H187 C196 0.930 . S
H188 C198 0.930 . S
H189 C201 0.929 . S
H190 C204 0.930 . S
H191 C206 0.960 . S
H192 C206 0.960 . S
H193 C206 0.960 . S
C194 H186 0.929 . S
C194 C195 1.377 . S
C194 C196 1.384 1_556 S
C195 C194 1.377 . S
C195 C201 1.390 . S
C196 H187 0.930 . S
C196 C194 1.384 1_554 S
C196 C197 1.372 . S
C197 C196 1.372 . S
C197 C198 1.400 . S
C197 C202 1.490 . S
C198 H188 0.930 . S
C198 C197 1.400 . S
C198 C201 1.386 1_554 S
H199 C215 0.930 . S
H200 C216 0.931 . S
C201 H189 0.929 . S
C201 C195 1.390 . S
C201 C198 1.386 1_556 S
C202 C197 1.490 . S
C202 C204 1.395 . S
C202 C205 1.403 . S
H203 C209 0.930 . S
C204 H190 0.930 . S
C204 C202 1.395 . S
C204 C207 1.403 . S
C205 C202 1.403 . S
C205 C206 1.524 . S
C205 C209 1.400 . S
C206 H191 0.960 . S
C206 H192 0.960 . S
C206 H193 0.960 . S
C206 C205 1.524 . S
C207 C204 1.403 . S
C207 C208 1.392 . S
C207 C211 1.495 . S
C208 C207 1.392 . S
C208 C209 1.385 . S
C208 C210 1.478 . S
C209 H203 0.930 . S
C209 C205 1.400 . S
C209 C208 1.385 . S
C210 C208 1.478 . S
C210 C212 1.381 . S
C210 C216 1.383 . S
C211 C207 1.495 . S
C211 H217 0.959 . S
C211 H218 0.961 . S
C211 H219 0.960 . S
C212 C210 1.381 . S
C212 C213 1.394 . S
C212 H220 0.930 . S
C213 C212 1.394 . S
C213 C214 1.383 . S
C213 H221 0.929 . S
C214 C213 1.383 . S
C214 C215 1.377 . S
C215 H199 0.930 . S
C215 C214 1.377 . S
C215 C216 1.379 . S
C216 H200 0.931 . S
C216 C210 1.383 . S
C216 C215 1.379 . S
H217 C211 0.959 . S
H218 C211 0.961 . S
H219 C211 0.960 . S
H220 C212 0.930 . S
H221 C213 0.929 . S
H222 C230 0.929 . S
H223 C232 0.930 . S
H224 C234 0.930 . S
H225 C237 0.929 . S
H226 C240 0.930 . S
H227 C242 0.960 . S
H228 C242 0.960 . S
H229 C242 0.960 . S
C230 H222 0.929 . S
C230 C231 1.377 . S
C230 C232 1.384 . S
C231 C230 1.377 . S
C231 C237 1.390 . S
C232 H223 0.930 . S
C232 C230 1.384 . S
C232 C233 1.372 . S
C233 C232 1.372 . S
C233 C234 1.400 . S
C233 C238 1.490 . S
C234 H224 0.930 . S
C234 C233 1.400 . S
C234 C237 1.386 . S
H235 C251 0.930 . S
H236 C252 0.931 . S
C237 H225 0.929 . S
C237 C231 1.390 . S
C237 C234 1.386 . S
C238 C233 1.490 . S
C238 C240 1.395 . S
C238 C241 1.403 . S
H239 C245 0.930 . S
C240 H226 0.930 . S
C240 C238 1.395 . S
C240 C243 1.403 . S
C241 C238 1.403 . S
C241 C242 1.524 . S
C241 C245 1.400 . S
C242 H227 0.960 . S
C242 H228 0.960 . S
C242 H229 0.960 . S
C242 C241 1.524 . S
C243 C240 1.403 . S
C243 C244 1.392 . S
C243 C247 1.495 . S
C244 C243 1.392 . S
C244 C245 1.385 . S
C244 C246 1.478 . S
C245 H239 0.930 . S
C245 C241 1.400 . S
C245 C244 1.385 . S
C246 C244 1.478 . S
C246 C248 1.381 . S
C246 C252 1.383 . S
C247 C243 1.495 . S
C247 H253 0.959 . S
C247 H254 0.961 . S
C247 H255 0.960 . S
C248 C246 1.381 . S
C248 C249 1.394 . S
C248 H256 0.930 . S
C249 C248 1.394 . S
C249 C250 1.383 . S
C249 H257 0.929 . S
C250 C249 1.383 . S
C250 C251 1.377 . S
C251 H235 0.930 . S
C251 C250 1.377 . S
C251 C252 1.379 . S
C252 H236 0.931 . S
C252 C246 1.383 . S
C252 C251 1.379 . S
H253 C247 0.959 . S
H254 C247 0.961 . S
H255 C247 0.960 . S
H256 C248 0.930 . S
H257 C249 0.929 . S
H258 C266 0.929 . S
H259 C268 0.930 . S
H260 C270 0.930 . S
H261 C273 0.929 . S
H262 C276 0.930 . S
H263 C278 0.960 . S
H264 C278 0.960 . S
H265 C278 0.960 . S
C266 H258 0.929 . S
C266 C267 1.377 . S
C266 C268 1.384 . S
C267 C266 1.377 . S
C267 C273 1.390 . S
C268 H259 0.930 . S
C268 C266 1.384 . S
C268 C269 1.372 . S
C269 C268 1.372 . S
C269 C270 1.400 . S
C269 C274 1.490 . S
C270 H260 0.930 . S
C270 C269 1.400 . S
C270 C273 1.386 . S
H271 C287 0.930 . S
H272 C288 0.931 . S
C273 H261 0.929 . S
C273 C267 1.390 . S
C273 C270 1.386 . S
C274 C269 1.490 . S
C274 C276 1.395 . S
C274 C277 1.403 . S
H275 C281 0.930 . S
C276 H262 0.930 . S
C276 C274 1.395 . S
C276 C279 1.403 . S
C277 C274 1.403 . S
C277 C278 1.524 . S
C277 C281 1.400 . S
C278 H263 0.960 . S
C278 H264 0.960 . S
C278 H265 0.960 . S
C278 C277 1.524 . S
C279 C276 1.403 . S
C279 C280 1.392 . S
C279 C283 1.495 . S
C280 C279 1.392 . S
C280 C281 1.385 . S
C280 C282 1.478 . S
C281 H275 0.930 . S
C281 C277 1.400 . S
C281 C280 1.385 . S
C282 C280 1.478 . S
C282 C284 1.381 . S
C282 C288 1.383 . S
C283 C279 1.495 . S
C283 H289 0.959 1_455 S
C283 H290 0.961 1_455 S
C283 H291 0.960 . S
C284 C282 1.381 . S
C284 C285 1.394 . S
C284 H292 0.930 . S
C285 C284 1.394 . S
C285 C286 1.383 . S
C285 H293 0.929 . S
C286 C285 1.383 . S
C286 C287 1.377 . S
C287 H271 0.930 . S
C287 C286 1.377 . S
C287 C288 1.379 . S
C288 H272 0.931 . S
C288 C282 1.383 . S
C288 C287 1.379 . S
H289 C283 0.959 1_655 S
H290 C283 0.961 1_655 S
H291 C283 0.960 . S
H292 C284 0.930 . S
H293 C285 0.929 . S
H294 C302 0.929 . S
H295 C304 0.930 . S
H296 C306 0.930 . S
H297 C309 0.929 . S
H298 C312 0.930 . S
H299 C314 0.960 . S
H300 C314 0.960 . S
H301 C314 0.960 . S
C302 H294 0.929 . S
C302 C303 1.377 . S
C302 C304 1.384 . S
C303 C302 1.377 . S
C303 C309 1.390 . S
C304 H295 0.930 . S
C304 C302 1.384 . S
C304 C305 1.372 . S
C305 C304 1.372 . S
C305 C306 1.400 . S
C305 C310 1.490 . S
C306 H296 0.930 . S
C306 C305 1.400 . S
C306 C309 1.386 . S
H307 C323 0.930 . S
H308 C324 0.931 . S
C309 H297 0.929 . S
C309 C303 1.390 . S
C309 C306 1.386 . S
C310 C305 1.490 . S
C310 C312 1.395 . S
C310 C313 1.403 . S
H311 C317 0.930 . S
C312 H298 0.930 . S
C312 C310 1.395 . S
C312 C315 1.403 . S
C313 C310 1.403 . S
C313 C314 1.524 . S
C313 C317 1.400 . S
C314 H299 0.960 . S
C314 H300 0.960 . S
C314 H301 0.960 . S
C314 C313 1.524 . S
C315 C312 1.403 . S
C315 C316 1.392 . S
C315 C319 1.495 . S
C316 C315 1.392 . S
C316 C317 1.385 . S
C316 C318 1.478 . S
C317 H311 0.930 . S
C317 C313 1.400 . S
C317 C316 1.385 . S
C318 C316 1.478 . S
C318 C320 1.381 . S
C318 C324 1.383 . S
C319 C315 1.495 . S
C319 H325 0.959 . S
C319 H326 0.961 . S
C319 H327 0.960 . S
C320 C318 1.381 . S
C320 C321 1.394 . S
C320 H328 0.930 . S
C321 C320 1.394 . S
C321 C322 1.383 . S
C321 H329 0.929 . S
C322 C321 1.383 . S
C322 C323 1.377 . S
C323 H307 0.930 . S
C323 C322 1.377 . S
C323 C324 1.379 . S
C324 H308 0.931 . S
C324 C318 1.383 . S
C324 C323 1.379 . S
H325 C319 0.959 . S
H326 C319 0.961 . S
H327 C319 0.960 . S
H328 C320 0.930 . S
H329 C321 0.929 . S
H330 C338 0.929 . S
H331 C340 0.930 . S
H332 C342 0.930 . S
H333 C345 0.929 . S
H334 C348 0.930 . S
H335 C350 0.960 . S
H336 C350 0.960 . S
H337 C350 0.960 . S
C338 H330 0.929 . S
C338 C339 1.377 . S
C338 C340 1.384 . S
C339 C338 1.377 . S
C339 C345 1.390 . S
C340 H331 0.930 . S
C340 C338 1.384 . S
C340 C341 1.372 . S
C341 C340 1.372 . S
C341 C342 1.400 . S
C341 C346 1.490 . S
C342 H332 0.930 . S
C342 C341 1.400 . S
C342 C345 1.386 . S
H343 C359 0.930 . S
H344 C360 0.931 . S
C345 H333 0.929 . S
C345 C339 1.390 . S
C345 C342 1.386 . S
C346 C341 1.490 . S
C346 C348 1.395 . S
C346 C349 1.403 . S
H347 C353 0.930 . S
C348 H334 0.930 . S
C348 C346 1.395 . S
C348 C351 1.403 . S
C349 C346 1.403 . S
C349 C350 1.524 . S
C349 C353 1.400 . S
C350 H335 0.960 . S
C350 H336 0.960 . S
C350 H337 0.960 . S
C350 C349 1.524 . S
C351 C348 1.403 . S
C351 C352 1.392 . S
C351 C355 1.495 . S
C352 C351 1.392 . S
C352 C353 1.385 . S
C352 C354 1.478 . S
C353 H347 0.930 . S
C353 C349 1.400 . S
C353 C352 1.385 . S
C354 C352 1.478 . S
C354 C356 1.381 . S
C354 C360 1.383 . S
C355 C351 1.495 . S
C355 H361 0.959 . S
C355 H362 0.961 . S
C355 H363 0.960 . S
C356 C354 1.381 . S
C356 C357 1.394 . S
C356 H364 0.930 . S
C357 C356 1.394 . S
C357 C358 1.383 . S
C357 H365 0.929 . S
C358 C357 1.383 . S
C358 C359 1.377 . S
C359 H343 0.930 . S
C359 C358 1.377 . S
C359 C360 1.379 . S
C360 H344 0.931 . S
C360 C354 1.383 . S
C360 C359 1.379 . S
H361 C355 0.959 . S
H362 C355 0.961 . S
H363 C355 0.960 . S
H364 C356 0.930 . S
H365 C357 0.929 . S
H366 C374 0.929 . S
H367 C376 0.930 . S
H368 C378 0.930 . S
H369 C381 0.929 . S
H370 C384 0.930 . S
H371 C386 0.960 . S
H372 C386 0.960 . S
H373 C386 0.960 . S
C374 H366 0.929 . S
C374 C375 1.377 . S
C374 C376 1.384 . S
C375 C374 1.377 . S
C375 C381 1.390 . S
C376 H367 0.930 . S
C376 C374 1.384 . S
C376 C377 1.372 . S
C377 C376 1.372 . S
C377 C378 1.400 . S
C377 C382 1.490 . S
C378 H368 0.930 . S
C378 C377 1.400 . S
C378 C381 1.386 . S
H379 C395 0.930 . S
H380 C396 0.931 . S
C381 H369 0.929 . S
C381 C375 1.390 . S
C381 C378 1.386 . S
C382 C377 1.490 . S
C382 C384 1.395 . S
C382 C385 1.403 . S
H383 C389 0.930 . S
C384 H370 0.930 . S
C384 C382 1.395 . S
C384 C387 1.403 . S
C385 C382 1.403 . S
C385 C386 1.524 . S
C385 C389 1.400 . S
C386 H371 0.960 . S
C386 H372 0.960 . S
C386 H373 0.960 . S
C386 C385 1.524 . S
C387 C384 1.403 . S
C387 C388 1.392 . S
C387 C391 1.495 . S
C388 C387 1.392 . S
C388 C389 1.385 . S
C388 C390 1.478 . S
C389 H383 0.930 . S
C389 C385 1.400 . S
C389 C388 1.385 . S
C390 C388 1.478 . S
C390 C392 1.381 . S
C390 C396 1.383 . S
C391 C387 1.495 . S
C391 H397 0.959 . S
C391 H398 0.961 . S
C391 H399 0.960 . S
C392 C390 1.381 . S
C392 C393 1.394 . S
C392 H400 0.930 . S
C393 C392 1.394 . S
C393 C394 1.383 . S
C393 H401 0.929 1_655 S
C394 C393 1.383 . S
C394 C395 1.377 . S
C395 H379 0.930 . S
C395 C394 1.377 . S
C395 C396 1.379 . S
C396 H380 0.931 . S
C396 C390 1.383 . S
C396 C395 1.379 . S
H397 C391 0.959 . S
H398 C391 0.961 . S
H399 C391 0.960 . S
H400 C392 0.930 . S
H401 C393 0.929 1_455 S
H402 C410 0.929 . S
H403 C412 0.930 . S
H404 C414 0.930 . S
H405 C417 0.929 . S
H406 C420 0.930 . S
H407 C422 0.960 . S
H408 C422 0.960 . S
H409 C422 0.960 . S
C410 H402 0.929 . S
C410 C411 1.377 . S
C410 C412 1.384 . S
C411 C410 1.377 . S
C411 C417 1.390 . S
C412 H403 0.930 . S
C412 C410 1.384 . S
C412 C413 1.372 . S
C413 C412 1.372 . S
C413 C414 1.400 . S
C413 C418 1.490 . S
C414 H404 0.930 . S
C414 C413 1.400 . S
C414 C417 1.386 . S
H415 C431 0.930 . S
H416 C432 0.931 . S
C417 H405 0.929 . S
C417 C411 1.390 . S
C417 C414 1.386 . S
C418 C413 1.490 . S
C418 C420 1.395 . S
C418 C421 1.403 . S
H419 C425 0.930 . S
C420 H406 0.930 . S
C420 C418 1.395 . S
C420 C423 1.403 . S
C421 C418 1.403 . S
C421 C422 1.524 . S
C421 C425 1.400 . S
C422 H407 0.960 . S
C422 H408 0.960 . S
C422 H409 0.960 . S
C422 C421 1.524 . S
C423 C420 1.403 . S
C423 C424 1.392 . S
C423 C427 1.495 . S
C424 C423 1.392 . S
C424 C425 1.385 . S
C424 C426 1.478 . S
C425 H419 0.930 . S
C425 C421 1.400 . S
C425 C424 1.385 . S
C426 C424 1.478 . S
C426 C428 1.381 . S
C426 C432 1.383 . S
C427 C423 1.495 . S
C427 H433 0.959 . S
C427 H434 0.961 . S
C427 H435 0.960 . S
C428 C426 1.381 . S
C428 C429 1.394 . S
C428 H436 0.930 . S
C429 C428 1.394 . S
C429 C430 1.383 . S
C429 H437 0.929 . S
C430 C429 1.383 . S
C430 C431 1.377 . S
C431 H415 0.930 . S
C431 C430 1.377 . S
C431 C432 1.379 . S
C432 H416 0.931 . S
C432 C426 1.383 . S
C432 C431 1.379 . S
H433 C427 0.959 . S
H434 C427 0.961 . S
H435 C427 0.960 . S
H436 C428 0.930 . S
H437 C429 0.929 . S
H438 C446 0.929 . S
H439 C448 0.930 . S
H440 C450 0.930 . S
H441 C453 0.929 . S
H442 C456 0.930 . S
H443 C458 0.960 . S
H444 C458 0.960 . S
H445 C458 0.960 . S
C446 H438 0.929 . S
C446 C447 1.377 . S
C446 C448 1.384 . S
C447 C446 1.377 . S
C447 C453 1.390 . S
C448 H439 0.930 . S
C448 C446 1.384 . S
C448 C449 1.372 . S
C449 C448 1.372 . S
C449 C450 1.400 . S
C449 C454 1.490 . S
C450 H440 0.930 . S
C450 C449 1.400 . S
C450 C453 1.386 . S
H451 C467 0.930 . S
H452 C468 0.931 . S
C453 H441 0.929 . S
C453 C447 1.390 . S
C453 C450 1.386 . S
C454 C449 1.490 . S
C454 C456 1.395 . S
C454 C457 1.403 . S
H455 C461 0.930 . S
C456 H442 0.930 . S
C456 C454 1.395 . S
C456 C459 1.403 1_554 S
C457 C454 1.403 . S
C457 C458 1.524 . S
C457 C461 1.400 1_554 S
C458 H443 0.960 . S
C458 H444 0.960 . S
C458 H445 0.960 . S
C458 C457 1.524 . S
C459 C456 1.403 1_556 S
C459 C460 1.392 . S
C459 C463 1.495 . S
C460 C459 1.392 . S
C460 C461 1.385 . S
C460 C462 1.478 . S
C461 H455 0.930 . S
C461 C457 1.400 1_556 S
C461 C460 1.385 . S
C462 C460 1.478 . S
C462 C464 1.381 . S
C462 C468 1.383 . S
C463 C459 1.495 . S
C463 H469 0.959 . S
C463 H470 0.961 . S
C463 H471 0.960 . S
C464 C462 1.381 . S
C464 C465 1.394 . S
C464 H472 0.930 . S
C465 C464 1.394 . S
C465 C466 1.383 . S
C465 H473 0.929 . S
C466 C465 1.383 . S
C466 C467 1.377 . S
C467 H451 0.930 . S
C467 C466 1.377 . S
C467 C468 1.379 . S
C468 H452 0.931 . S
C468 C462 1.383 . S
C468 C467 1.379 . S
H469 C463 0.959 . S
H470 C463 0.961 . S
H471 C463 0.960 . S
H472 C464 0.930 . S
H473 C465 0.929 . S
H474 C482 0.929 . S
H475 C484 0.930 . S
H476 C486 0.930 . S
H477 C489 0.929 . S
H478 C492 0.930 . S
H479 C494 0.960 . S
H480 C494 0.960 1_565 S
H481 C494 0.960 . S
C482 H474 0.929 . S
C482 C483 1.377 . S
C482 C484 1.384 . S
C483 C482 1.377 . S
C483 C489 1.390 . S
C484 H475 0.930 . S
C484 C482 1.384 . S
C484 C485 1.372 . S
C485 C484 1.372 . S
C485 C486 1.400 . S
C485 C490 1.490 . S
C486 H476 0.930 . S
C486 C485 1.400 . S
C486 C489 1.386 . S
H487 C503 0.930 . S
H488 C504 0.931 . S
C489 H477 0.929 . S
C489 C483 1.390 . S
C489 C486 1.386 . S
C490 C485 1.490 . S
C490 C492 1.395 1_556 S
C490 C493 1.403 1_565 S
H491 C497 0.930 . S
C492 H478 0.930 . S
C492 C490 1.395 1_554 S
C492 C495 1.403 . S
C493 C490 1.403 1_545 S
C493 C494 1.524 . S
C493 C497 1.400 . S
C494 H479 0.960 . S
C494 H480 0.960 1_545 S
C494 H481 0.960 . S
C494 C493 1.524 . S
C495 C492 1.403 . S
C495 C496 1.392 1_565 S
C495 C499 1.495 . S
C496 C495 1.392 1_545 S
C496 C497 1.385 1_554 S
C496 C498 1.478 . S
C497 H491 0.930 . S
C497 C493 1.400 . S
C497 C496 1.385 1_556 S
C498 C496 1.478 . S
C498 C500 1.381 . S
C498 C504 1.383 . S
C499 C495 1.495 . S
C499 H505 0.959 . S
C499 H506 0.961 1_565 S
C499 H507 0.960 . S
C500 C498 1.381 . S
C500 C501 1.394 . S
C500 H508 0.930 . S
C501 C500 1.394 . S
C501 C502 1.383 . S
C501 H509 0.929 . S
C502 C501 1.383 . S
C502 C503 1.377 . S
C503 H487 0.930 . S
C503 C502 1.377 . S
C503 C504 1.379 . S
C504 H488 0.931 . S
C504 C498 1.383 . S
C504 C503 1.379 . S
H505 C499 0.959 . S
H506 C499 0.961 1_545 S
H507 C499 0.960 . S
H508 C500 0.930 . S
H509 C501 0.929 . S
H510 C518 0.929 . S
H511 C520 0.930 . S
H512 C522 0.930 . S
H513 C525 0.929 . S
H514 C528 0.930 . S
H515 C530 0.960 . S
H516 C530 0.960 . S
H517 C530 0.960 . S
C518 H510 0.929 . S
C518 C519 1.377 . S
C518 C520 1.384 . S
C519 C518 1.377 . S
C519 C525 1.390 . S
C520 H511 0.930 . S
C520 C518 1.384 . S
C520 C521 1.372 . S
C521 C520 1.372 . S
C521 C522 1.400 . S
C521 C526 1.490 . S
C522 H512 0.930 . S
C522 C521 1.400 . S
C522 C525 1.386 . S
H523 C539 0.930 . S
H524 C540 0.931 . S
C525 H513 0.929 . S
C525 C519 1.390 . S
C525 C522 1.386 . S
C526 C521 1.490 . S
C526 C528 1.395 . S
C526 C529 1.403 . S
H527 C533 0.930 . S
C528 H514 0.930 . S
C528 C526 1.395 . S
C528 C531 1.403 1_456 S
C529 C526 1.403 . S
C529 C530 1.524 . S
C529 C533 1.400 1_456 S
C530 H515 0.960 . S
C530 H516 0.960 . S
C530 H517 0.960 . S
C530 C529 1.524 . S
C531 C528 1.403 1_654 S
C531 C532 1.392 . S
C531 C535 1.495 . S
C532 C531 1.392 . S
C532 C533 1.385 . S
C532 C534 1.478 . S
C533 H527 0.930 . S
C533 C529 1.400 1_654 S
C533 C532 1.385 . S
C534 C532 1.478 . S
C534 C536 1.381 . S
C534 C540 1.383 . S
C535 C531 1.495 . S
C535 H541 0.959 . S
C535 H542 0.961 . S
C535 H543 0.960 . S
C536 C534 1.381 . S
C536 C537 1.394 . S
C536 H544 0.930 . S
C537 C536 1.394 . S
C537 C538 1.383 . S
C537 H545 0.929 . S
C538 C537 1.383 . S
C538 C539 1.377 . S
C539 H523 0.930 . S
C539 C538 1.377 . S
C539 C540 1.379 . S
C540 H524 0.931 . S
C540 C534 1.383 . S
C540 C539 1.379 . S
H541 C535 0.959 . S
H542 C535 0.961 . S
H543 C535 0.960 . S
H544 C536 0.930 . S
H545 C537 0.929 . S
C123 C26 0.328 . S
C142 C2 0.289 . S
C159 C40 0.323 . S
C178 C64 0.362 . S
C195 C78 0.331 . S
C214 C102 0.384 . S
C231 C99 2.635 . S
C250 C4 2.642 . S
C267 C93 1.165 . S
C286 C28 1.197 . S
C303 C96 1.420 . S
C322 C19 1.426 . S
C339 C42 2.630 . S
C358 C23 2.604 . S
C375 C66 1.152 . S
C394 C17 1.160 . S
C411 C57 1.421 . S
C430 C20 1.426 . S
C447 C61 2.627 . S
C466 C80 2.635 . S
C483 C104 1.166 . S
C502 C55 1.149 . S
C519 C95 1.417 . S
C538 C58 1.403 . S
