# Generated by pormake.
# Topology lcy-e, (6)-cn, num edge types: 1
# Building blocks:
#     Node 0, Type 0, BuildingBlock: VOLQOD_clean_sbu_1, # of connection points: 6
#     Node 1, Type 0, BuildingBlock: VOLQOD_clean_sbu_1, # of connection points: 6
#     Node 2, Type 0, BuildingBlock: VOLQOD_clean_sbu_1, # of connection points: 6
#     Node 3, Type 0, BuildingBlock: VOLQOD_clean_sbu_1, # of connection points: 6
#     Node 4, Type 0, BuildingBlock: VOLQOD_clean_sbu_1, # of connection points: 6
#     Node 5, Type 0, BuildingBlock: VOLQOD_clean_sbu_1, # of connection points: 6
#     Node 6, Type 0, BuildingBlock: VOLQOD_clean_sbu_1, # of connection points: 6
#     Node 7, Type 0, BuildingBlock: VOLQOD_clean_sbu_1, # of connection points: 6
#     Node 8, Type 0, BuildingBlock: VOLQOD_clean_sbu_1, # of connection points: 6
#     Node 9, Type 0, BuildingBlock: VOLQOD_clean_sbu_1, # of connection points: 6
#     Node 10, Type 0, BuildingBlock: VOLQOD_clean_sbu_1, # of connection points: 6
#     Node 11, Type 0, BuildingBlock: VOLQOD_clean_sbu_1, # of connection points: 6
#     Edge 12, Type (0, 0), BuildingBlock: TEMPAE_clean_linker_10, # of connection points: 2
#     Edge 13, Type (0, 0), BuildingBlock: TEMPAE_clean_linker_10, # of connection points: 2
#     Edge 14, Type (0, 0), BuildingBlock: TEMPAE_clean_linker_10, # of connection points: 2
#     Edge 15, Type (0, 0), BuildingBlock: TEMPAE_clean_linker_10, # of connection points: 2
#     Edge 16, Type (0, 0), BuildingBlock: TEMPAE_clean_linker_10, # of connection points: 2
#     Edge 17, Type (0, 0), BuildingBlock: TEMPAE_clean_linker_10, # of connection points: 2
#     Edge 18, Type (0, 0), BuildingBlock: TEMPAE_clean_linker_10, # of connection points: 2
#     Edge 19, Type (0, 0), BuildingBlock: TEMPAE_clean_linker_10, # of connection points: 2
#     Edge 20, Type (0, 0), BuildingBlock: TEMPAE_clean_linker_10, # of connection points: 2
#     Edge 21, Type (0, 0), BuildingBlock: TEMPAE_clean_linker_10, # of connection points: 2
#     Edge 22, Type (0, 0), BuildingBlock: TEMPAE_clean_linker_10, # of connection points: 2
#     Edge 23, Type (0, 0), BuildingBlock: TEMPAE_clean_linker_10, # of connection points: 2
#     Edge 24, Type (0, 0), BuildingBlock: TEMPAE_clean_linker_10, # of connection points: 2
#     Edge 25, Type (0, 0), BuildingBlock: TEMPAE_clean_linker_10, # of connection points: 2
#     Edge 26, Type (0, 0), BuildingBlock: TEMPAE_clean_linker_10, # of connection points: 2
#     Edge 27, Type (0, 0), BuildingBlock: TEMPAE_clean_linker_10, # of connection points: 2
#     Edge 28, Type (0, 0), BuildingBlock: TEMPAE_clean_linker_10, # of connection points: 2
#     Edge 29, Type (0, 0), BuildingBlock: TEMPAE_clean_linker_10, # of connection points: 2
#     Edge 30, Type (0, 0), BuildingBlock: TEMPAE_clean_linker_10, # of connection points: 2
#     Edge 31, Type (0, 0), BuildingBlock: TEMPAE_clean_linker_10, # of connection points: 2
#     Edge 32, Type (0, 0), BuildingBlock: TEMPAE_clean_linker_10, # of connection points: 2
#     Edge 33, Type (0, 0), BuildingBlock: TEMPAE_clean_linker_10, # of connection points: 2
#     Edge 34, Type (0, 0), BuildingBlock: TEMPAE_clean_linker_10, # of connection points: 2
#     Edge 35, Type (0, 0), BuildingBlock: TEMPAE_clean_linker_10, # of connection points: 2
#     Edge 36, Type (0, 0), BuildingBlock: TEMPAE_clean_linker_10, # of connection points: 2
#     Edge 37, Type (0, 0), BuildingBlock: TEMPAE_clean_linker_10, # of connection points: 2
#     Edge 38, Type (0, 0), BuildingBlock: TEMPAE_clean_linker_10, # of connection points: 2
#     Edge 39, Type (0, 0), BuildingBlock: TEMPAE_clean_linker_10, # of connection points: 2
#     Edge 40, Type (0, 0), BuildingBlock: TEMPAE_clean_linker_10, # of connection points: 2
#     Edge 41, Type (0, 0), BuildingBlock: TEMPAE_clean_linker_10, # of connection points: 2
#     Edge 42, Type (0, 0), BuildingBlock: TEMPAE_clean_linker_10, # of connection points: 2
#     Edge 43, Type (0, 0), BuildingBlock: TEMPAE_clean_linker_10, # of connection points: 2
#     Edge 44, Type (0, 0), BuildingBlock: TEMPAE_clean_linker_10, # of connection points: 2
#     Edge 45, Type (0, 0), BuildingBlock: TEMPAE_clean_linker_10, # of connection points: 2
#     Edge 46, Type (0, 0), BuildingBlock: TEMPAE_clean_linker_10, # of connection points: 2
#     Edge 47, Type (0, 0), BuildingBlock: TEMPAE_clean_linker_10, # of connection points: 2
# Relax obj value: 0.403
# Max RMSD: 0.291
# Mean RMSD: 0.282
data_MOF--net-lcy-e--node1-VOLQOD_clean_sbu_1--edge1-TEMPAE_clean_linker_10
_symmetry_space_group_name_H-M    P1
_symmetry_Int_Tables_number       1
_symmetry_cell_setting            triclinic
loop_
_symmetry_equiv_pos_as_xyz
'x, y, z'
_cell_length_a     37.905568
_cell_length_b     38.002206
_cell_length_c     38.083758
_cell_angle_alpha  90.347059
_cell_angle_beta   90.548666
_cell_angle_gamma 90.193069
loop_
_atom_site_label
_atom_site_type_symbol
_atom_site_fract_x
_atom_site_fract_y
_atom_site_fract_z
_atom_type_partial_charge
O0 O 0.26258 0.14136 0.45182 0.0
Zn1 Zn 0.22674 0.14824 0.49094 0.0
O2 O 0.18149 0.16439 0.4711 0.0
Zn3 Zn 0.16558 0.20834 0.49107 0.0
Zn4 Zn 0.18466 0.16985 0.42102 0.0
Zn5 Zn 0.14532 0.13077 0.48105 0.0
O6 O 0.12473 0.2027 0.52359 0.0
O7 O 0.11739 0.14481 0.52381 0.0
O8 O 0.24638 0.1858 0.52446 0.0
O9 O 0.20416 0.22647 0.52144 0.0
O10 O 0.15536 0.2452 0.4547 0.0
O11 O 0.17925 0.22043 0.40766 0.0
O12 O 0.146 0.14362 0.39573 0.0
O13 O 0.22009 0.10032 0.51497 0.0
O14 O 0.11373 0.1227 0.43928 0.0
O15 O 0.16746 0.08548 0.49277 0.0
C16 C 0.2598 0.1436 0.41848 0.0
C17 C 0.11057 0.1752 0.53614 0.0
C18 C 0.16522 0.24671 0.4229 0.0
C19 C 0.23373 0.2157 0.53311 0.0
C20 C 0.11869 0.12766 0.40664 0.0
C21 C 0.19578 0.07761 0.50894 0.0
O22 O 0.23116 0.1533 0.40384 0.0
O23 O 0.04101 0.72577 0.63429 0.0
Zn24 Zn 0.00102 0.76109 0.64015 0.0
O25 O 0.02066 0.80739 0.65352 0.0
Zn26 Zn 0.0065 0.82117 0.70001 0.0
Zn27 Zn 0.07122 0.80687 0.65038 0.0
Zn28 Zn 0.00485 0.84419 0.62303 0.0
O29 O 0.96793 0.85718 0.69898 0.0
O30 O 0.96199 0.869 0.64239 0.0
O31 O 0.96978 0.74211 0.67983 0.0
O32 O 0.98301 0.78076 0.72225 0.0
O33 O 0.0477 0.83588 0.73056 0.0
O34 O 0.09211 0.81909 0.69683 0.0
O35 O 0.09042 0.84373 0.61857 0.0
O36 O 0.97589 0.76531 0.59211 0.0
O37 O 0.04409 0.87843 0.6112 0.0
O38 O 0.9895 0.82101 0.57923 0.0
C39 C 0.07443 0.72951 0.63257 0.0
C40 C 0.95133 0.8719 0.67388 0.0
C41 C 0.08059 0.8316 0.72553 0.0
C42 C 0.96785 0.75268 0.71172 0.0
C43 C 0.07706 0.87256 0.60824 0.0
C44 C 0.97722 0.79098 0.57057 0.0
O45 O 0.08897 0.75947 0.63686 0.0
O46 O 0.40276 0.83732 0.97056 0.0
Zn47 Zn 0.36969 0.80949 0.00218 0.0
O48 O 0.32041 0.82228 0.9939 0.0
Zn49 Zn 0.29669 0.83749 0.03631 0.0
Zn50 Zn 0.31983 0.86006 0.96139 0.0
Zn51 Zn 0.2949 0.78485 0.97163 0.0
O52 O 0.25168 0.80877 0.04525 0.0
O53 O 0.25671 0.7691 0.00237 0.0
O54 O 0.38128 0.81332 0.05446 0.0
O55 O 0.32929 0.82874 0.07663 0.0
O56 O 0.29112 0.89073 0.03707 0.0
O57 O 0.31902 0.90501 0.98807 0.0
O58 O 0.27822 0.85797 0.92903 0.0
O59 O 0.37808 0.75966 0.98577 0.0
O60 O 0.2697 0.80031 0.92804 0.0
O61 O 0.32653 0.74439 0.96159 0.0
C62 C 0.3949 0.85041 0.94069 0.0
C63 C 0.24093 0.78109 0.02913 0.0
C64 C 0.30517 0.91371 0.01717 0.0
C65 C 0.36161 0.82054 0.08061 0.0
C66 C 0.26284 0.83087 0.91645 0.0
C67 C 0.35853 0.73766 0.9693 0.0
O68 O 0.36321 0.85772 0.93231 0.0
O69 O 0.45175 0.11375 0.14325 0.0
Zn70 Zn 0.48325 0.14479 0.17334 0.0
O71 O 0.48537 0.1921 0.15322 0.0
Zn72 Zn 0.53406 0.20672 0.14422 0.0
Zn73 Zn 0.45811 0.19405 0.10992 0.0
Zn74 Zn 0.46396 0.22432 0.18531 0.0
O75 O 0.54919 0.24893 0.17498 0.0
O76 O 0.49968 0.25649 0.20474 0.0
O77 O 0.53219 0.12383 0.17728 0.0
O78 O 0.56602 0.16711 0.15715 0.0
O79 O 0.54256 0.21228 0.09189 0.0
O80 O 0.49098 0.19486 0.06941 0.0
O81 O 0.42708 0.23686 0.10674 0.0
O82 O 0.46045 0.14492 0.22141 0.0
O83 O 0.42882 0.25489 0.16209 0.0
O84 O 0.44189 0.2 0.22581 0.0
C85 C 0.42951 0.12062 0.11893 0.0
C86 C 0.53146 0.26479 0.19862 0.0
C87 C 0.52314 0.20369 0.0656 0.0
C88 C 0.56237 0.13626 0.16941 0.0
C89 C 0.41756 0.25807 0.13077 0.0
C90 C 0.44384 0.16891 0.23784 0.0
O91 O 0.42758 0.15103 0.10519 0.0
O92 O 0.68893 0.25444 0.46074 0.0
Zn93 Zn 0.64742 0.27418 0.48516 0.0
O94 O 0.66299 0.31565 0.50982 0.0
Zn95 Zn 0.66714 0.30508 0.55859 0.0
Zn96 Zn 0.70653 0.33439 0.49058 0.0
Zn97 Zn 0.628 0.35066 0.50355 0.0
O98 O 0.62903 0.32946 0.58631 0.0
O99 O 0.59543 0.35361 0.54493 0.0
O100 O 0.63022 0.23637 0.51788 0.0
O101 O 0.65975 0.25347 0.56581 0.0
O102 O 0.71493 0.31959 0.57646 0.0
O103 O 0.74064 0.34445 0.5304 0.0
O104 O 0.69675 0.38115 0.46542 0.0
O105 O 0.61289 0.28617 0.44711 0.0
O106 O 0.65165 0.39674 0.49881 0.0
O107 O 0.60314 0.34295 0.45709 0.0
C108 C 0.71928 0.26569 0.45218 0.0
C109 C 0.60121 0.34587 0.57702 0.0
C110 C 0.74085 0.3357 0.56266 0.0
C111 C 0.64186 0.23047 0.54879 0.0
C112 C 0.67555 0.40455 0.47696 0.0
C113 C 0.59946 0.31545 0.43812 0.0
O114 O 0.72994 0.29661 0.46043 0.0
O115 O 0.9448 0.24215 0.83927 0.0
Zn116 Zn 0.9873 0.27331 0.83271 0.0
O117 O 0.97183 0.32076 0.82 0.0
Zn118 Zn 0.99579 0.33641 0.77812 0.0
Zn119 Zn 0.92159 0.32267 0.81357 0.0
Zn120 Zn 0.98292 0.35254 0.85783 0.0
O121 O 0.03523 0.36993 0.79073 0.0
O122 O 0.02801 0.37832 0.848 0.0
O123 O 0.0144 0.25079 0.79267 0.0
O124 O 0.01838 0.29511 0.75493 0.0
O125 O 0.96144 0.35596 0.74224 0.0
O126 O 0.91025 0.33935 0.76534 0.0
O127 O 0.89847 0.35701 0.84558 0.0
O128 O 0.01492 0.27454 0.87915 0.0
O129 O 0.94337 0.38584 0.86989 0.0
O130 O 0.99298 0.32462 0.90024 0.0
C131 C 0.91196 0.24677 0.83367 0.0
C132 C 0.04552 0.3829 0.82004 0.0
C133 C 0.92793 0.35328 0.74078 0.0
C134 C 0.02409 0.26329 0.7633 0.0
C135 C 0.91033 0.38182 0.86484 0.0
C136 C 0.00937 0.29583 0.90455 0.0
O137 O 0.89984 0.27595 0.82275 0.0
O138 O 0.87591 0.63376 0.03591 0.0
Zn139 Zn 0.84862 0.66737 0.00513 0.0
O140 O 0.79788 0.65848 0.00784 0.0
Zn141 Zn 0.77782 0.65002 0.96135 0.0
Zn142 Zn 0.79048 0.61831 0.03771 0.0
Zn143 Zn 0.77399 0.6973 0.02888 0.0
O144 O 0.73745 0.68357 0.94923 0.0
O145 O 0.74285 0.72021 0.99459 0.0
O146 O 0.86547 0.66646 0.95454 0.0
O147 O 0.815 0.65872 0.92536 0.0
O148 O 0.76654 0.59845 0.9555 0.0
O149 O 0.78436 0.57608 0.00654 0.0
O150 O 0.74851 0.62406 0.06936 0.0
O151 O 0.8603 0.71457 0.02691 0.0
O152 O 0.74159 0.68196 0.06685 0.0
O153 O 0.80834 0.73304 0.04646 0.0
C154 C 0.86578 0.61673 0.06276 0.0
C155 C 0.72882 0.71176 0.96535 0.0
C156 C 0.77384 0.57209 0.97486 0.0
C157 C 0.84823 0.66369 0.92568 0.0
C158 C 0.73296 0.65209 0.07899 0.0
C159 C 0.84144 0.73705 0.04294 0.0
O160 O 0.83321 0.61118 0.06857 0.0
O161 O 0.54005 0.61111 0.35542 0.0
Zn162 Zn 0.51076 0.64644 0.32842 0.0
O163 O 0.51007 0.69135 0.35367 0.0
Zn164 Zn 0.46225 0.70438 0.36595 0.0
Zn165 Zn 0.54019 0.68898 0.3947 0.0
Zn166 Zn 0.52914 0.72755 0.32512 0.0
O167 O 0.44575 0.74816 0.33997 0.0
O168 O 0.4907 0.75503 0.30349 0.0
O169 O 0.46091 0.62787 0.31897 0.0
O170 O 0.42908 0.66808 0.34681 0.0
O171 O 0.45606 0.70382 0.41893 0.0
O172 O 0.50896 0.68497 0.43623 0.0
O173 O 0.57124 0.73206 0.40155 0.0
O174 O 0.53715 0.65182 0.28276 0.0
O175 O 0.55848 0.76118 0.35284 0.0
O176 O 0.55832 0.70636 0.28723 0.0
C177 C 0.56514 0.61586 0.37756 0.0
C178 C 0.45967 0.7626 0.31324 0.0
C179 C 0.477 0.69262 0.44286 0.0
C180 C 0.43113 0.64008 0.32851 0.0
C181 C 0.57403 0.75928 0.38245 0.0
C182 C 0.5571 0.67649 0.27195 0.0
O183 O 0.57029 0.64555 0.39253 0.0
O184 O 0.1348 0.46614 0.24675 0.0
Zn185 Zn 0.14023 0.50447 0.21039 0.0
O186 O 0.15051 0.48289 0.16496 0.0
Zn187 Zn 0.19407 0.5 0.14621 0.0
Zn188 Zn 0.1514 0.4327 0.16759 0.0
Zn189 Zn 0.11462 0.49426 0.13174 0.0
O190 O 0.18547 0.53863 0.11176 0.0
O191 O 0.12714 0.53899 0.1065 0.0
O192 O 0.18267 0.53392 0.22719 0.0
O193 O 0.22139 0.52295 0.18485 0.0
O194 O 0.22347 0.46078 0.12631 0.0
O195 O 0.19842 0.4153 0.15288 0.0
O196 O 0.11888 0.40954 0.13304 0.0
O197 O 0.0927 0.53073 0.20719 0.0
O198 O 0.10406 0.45383 0.09838 0.0
O199 O 0.07178 0.50499 0.15841 0.0
C200 C 0.13498 0.43265 0.24473 0.0
C201 C 0.15716 0.55264 0.1004 0.0
C202 C 0.22276 0.4282 0.13403 0.0
C203 C 0.21368 0.53642 0.21446 0.0
C204 C 0.10507 0.42094 0.1048 0.0
C205 C 0.06718 0.52306 0.1862 0.0
O206 O 0.14049 0.41655 0.21592 0.0
O207 O 0.72284 0.9759 0.78063 0.0
Zn208 Zn 0.69403 0.99417 0.8197 0.0
O209 O 0.6498 0.00634 0.80019 0.0
Zn210 Zn 0.6493 0.05555 0.79348 0.0
Zn211 Zn 0.63917 0.97852 0.75848 0.0
Zn212 Zn 0.61486 0.99545 0.83301 0.0
O213 O 0.62333 0.08068 0.83229 0.0
O214 O 0.60459 0.03634 0.86485 0.0
O215 O 0.72016 0.03689 0.83737 0.0
O216 O 0.69907 0.07327 0.79673 0.0
O217 O 0.62771 0.06505 0.74651 0.0
O218 O 0.62193 0.01227 0.72087 0.0
O219 O 0.59903 0.9439 0.77098 0.0
O220 O 0.68826 0.95497 0.85439 0.0
O221 O 0.57224 0.98195 0.80601 0.0
O222 O 0.62998 0.95281 0.85992 0.0
C223 C 0.71648 0.96059 0.75146 0.0
C224 C 0.60851 0.06924 0.85987 0.0
C225 C 0.61856 0.04571 0.72045 0.0
C226 C 0.72241 0.06515 0.81962 0.0
C227 C 0.57175 0.95366 0.78803 0.0
C228 C 0.66051 0.94032 0.86621 0.0
O229 O 0.68493 0.95592 0.74005 0.0
O230 O 0.86376 0.94135 0.38168 0.0
Zn231 Zn 0.82949 0.97129 0.35406 0.0
O232 O 0.84192 0.97037 0.3043 0.0
Zn233 Zn 0.84784 0.01736 0.28633 0.0
Zn234 Zn 0.88546 0.94542 0.29803 0.0
Zn235 Zn 0.80623 0.94617 0.2774 0.0
O236 O 0.81067 0.02912 0.25008 0.0
O237 O 0.77786 0.98051 0.24944 0.0
O238 O 0.82699 0.02159 0.37307 0.0
O239 O 0.83964 0.05159 0.32495 0.0
O240 O 0.89783 0.02698 0.27162 0.0
O241 O 0.92481 0.98005 0.29358 0.0
O242 O 0.88479 0.91571 0.25438 0.0
O243 O 0.78281 0.94639 0.36156 0.0
O244 O 0.82719 0.91153 0.24389 0.0
O245 O 0.77361 0.92121 0.30945 0.0
C246 C 0.8849 0.91733 0.37161 0.0
C247 C 0.78333 0.0121 0.23996 0.0
C248 C 0.92594 0.01075 0.28036 0.0
C249 C 0.83187 0.05076 0.35732 0.0
C250 C 0.85886 0.90335 0.23682 0.0
C251 C 0.76573 0.92514 0.34165 0.0
O252 O 0.89385 0.91411 0.33959 0.0
O253 O 0.35425 0.53672 0.63527 0.0
Zn254 Zn 0.32218 0.5069 0.66477 0.0
O255 O 0.33987 0.5066 0.71306 0.0
Zn256 Zn 0.34388 0.45895 0.73086 0.0
Zn257 Zn 0.38571 0.52829 0.71596 0.0
Zn258 Zn 0.30919 0.53399 0.74186 0.0
O259 O 0.30983 0.45005 0.77099 0.0
O260 O 0.28357 0.50214 0.77391 0.0
O261 O 0.31858 0.45722 0.64504 0.0
O262 O 0.32972 0.4257 0.69277 0.0
O263 O 0.39491 0.44484 0.739 0.0
O264 O 0.42217 0.49062 0.71516 0.0
O265 O 0.39195 0.55708 0.76012 0.0
O266 O 0.27448 0.53108 0.66148 0.0
O267 O 0.33579 0.56873 0.77156 0.0
O268 O 0.27215 0.55807 0.71324 0.0
C269 C 0.37912 0.55808 0.64324 0.0
C270 C 0.28626 0.47031 0.78365 0.0
C271 C 0.42265 0.45926 0.72677 0.0
C272 C 0.32182 0.4276 0.66033 0.0
C273 C 0.36856 0.57316 0.77769 0.0
C274 C 0.25968 0.55255 0.68253 0.0
O275 O 0.39244 0.5595 0.67407 0.0
C276 C 0.28899 0.24732 0.55086 0.0
C277 C 0.25333 0.2398 0.55649 0.0
C278 C 0.3053 0.27608 0.56794 0.0
C279 C 0.28537 0.29714 0.59128 0.0
C280 C 0.25007 0.28789 0.59881 0.0
C281 C 0.23444 0.25948 0.58111 0.0
C282 C 0.34301 0.28517 0.55939 0.0
C283 C 0.2281 0.30917 0.6241 0.0
C284 C 0.32414 0.36203 0.65662 0.0
C285 C 0.31616 0.39432 0.64063 0.0
C286 C 0.31635 0.33 0.63987 0.0
C287 C 0.30011 0.33021 0.60634 0.0
C288 C 0.2938 0.36261 0.58918 0.0
C289 C 0.30193 0.39434 0.60654 0.0
C290 C 0.32364 0.29602 0.65895 0.0
C291 C 0.27669 0.36381 0.55324 0.0
H292 H 0.30341 0.23224 0.5315 0.0
H293 H 0.20684 0.25342 0.5855 0.0
H294 H 0.34354 0.30931 0.54316 0.0
H295 H 0.35839 0.29082 0.58371 0.0
H296 H 0.3562 0.26368 0.54464 0.0
H297 H 0.20203 0.29679 0.62903 0.0
H298 H 0.24222 0.31237 0.64957 0.0
H299 H 0.22365 0.33586 0.61331 0.0
H300 H 0.33573 0.36166 0.68275 0.0
H301 H 0.29602 0.41912 0.59387 0.0
H302 H 0.33643 0.2767 0.64127 0.0
H303 H 0.29835 0.28427 0.66757 0.0
H304 H 0.34078 0.30011 0.68246 0.0
H305 H 0.29024 0.3456 0.53496 0.0
H306 H 0.2771 0.39069 0.54194 0.0
H307 H 0.24883 0.35499 0.55504 0.0
C308 C 0.74962 0.9167 0.71495 0.0
C309 C 0.74732 0.95003 0.73057 0.0
C310 C 0.78184 0.90484 0.70107 0.0
C311 C 0.81196 0.92715 0.70248 0.0
C312 C 0.80876 0.96179 0.71579 0.0
C313 C 0.77661 0.97265 0.72993 0.0
C314 C 0.78427 0.86767 0.68722 0.0
C315 C 0.83991 0.98668 0.71735 0.0
C316 C 0.9025 0.88666 0.71505 0.0
C317 C 0.91673 0.88858 0.68121 0.0
C318 C 0.86829 0.89854 0.72198 0.0
C319 C 0.8477 0.91315 0.69454 0.0
C320 C 0.86199 0.91581 0.66043 0.0
C321 C 0.89631 0.90337 0.65412 0.0
C322 C 0.85411 0.89523 0.75878 0.0
C323 C 0.84099 0.93164 0.63063 0.0
H324 H 0.727 0.89919 0.71557 0.0
H325 H 0.77469 -0.00136 0.74169 0.0
H326 H 0.79822 0.8671 0.66176 0.0
H327 H 0.79979 0.85152 0.70595 0.0
H328 H 0.75784 0.85535 0.68365 0.0
H329 H 0.83195 0.01399 0.7241 0.0
H330 H 0.85903 0.97755 0.73754 0.0
H331 H 0.85378 0.98701 0.69184 0.0
H332 H 0.91782 0.87509 0.73617 0.0
H333 H 0.90693 0.90481 0.62784 0.0
H334 H 0.82909 0.87999 0.75833 0.0
H335 H 0.84815 0.92171 0.76957 0.0
H336 H 0.873 0.88205 0.77685 0.0
H337 H 0.81606 0.91672 0.62661 0.0
H338 H 0.8558 0.93166 0.6056 0.0
H339 H 0.83371 0.95912 0.63726 0.0
C340 C 0.1901 0.74169 0.01833 0.0
C341 C 0.21197 0.75931 0.04264 0.0
C342 C 0.17213 0.71093 0.02757 0.0
C343 C 0.17634 0.69758 0.06191 0.0
C344 C 0.19439 0.71797 0.08777 0.0
C345 C 0.21211 0.74884 0.07778 0.0
C346 C 0.15262 0.69046 -0.00067 0.0
C347 C 0.1987 0.70502 0.12492 0.0
C348 C 0.13174 0.61223 0.0892 0.0
C349 C 0.15942 0.58814 0.08498 0.0
C350 C 0.13636 0.64801 0.08116 0.0
C351 C 0.16928 0.65968 0.06836 0.0
C352 C 0.19655 0.63502 0.06217 0.0
C353 C 0.19131 0.59963 0.07072 0.0
C354 C 0.10671 0.67342 0.08816 0.0
C355 C 0.23185 0.64618 0.04774 0.0
H356 H 0.18976 0.75008 0.99115 0.0
H357 H 0.22905 0.76244 0.09658 0.0
H358 H 0.1697 0.66887 0.9897 0.0
H359 H 0.12823 0.67838 0.00976 0.0
H360 H 0.14553 0.70738 0.97666 0.0
H361 H 0.20724 0.72646 0.14309 0.0
H362 H 0.17366 0.69356 0.13454 0.0
H363 H 0.21896 0.684 0.12558 0.0
H364 H 0.10713 0.60357 0.10062 0.0
H365 H 0.21269 0.58107 0.0673 0.0
H366 H 0.10363 0.6923 0.06625 0.0
H367 H 0.11296 0.68892 0.11222 0.0
H368 H 0.08118 0.65961 0.09212 0.0
H369 H 0.22811 0.6603 0.02257 0.0
H370 H 0.24964 0.62348 0.04312 0.0
H371 H 0.24509 0.66458 0.0664 0.0
C372 C 0.59728 0.09266 0.20381 0.0
C373 C 0.59432 0.11496 0.17484 0.0
C374 C 0.62905 0.07521 0.2111 0.0
C375 C 0.65804 0.07944 0.18824 0.0
C376 C 0.6545 0.10054 0.15795 0.0
C377 C 0.62282 0.11851 0.15192 0.0
C378 C 0.63208 0.05346 0.24405 0.0
C379 C 0.68442 0.10479 0.1324 0.0
C380 C 0.74857 0.06634 0.22895 0.0
C381 C 0.7547 0.03075 0.22145 0.0
C382 C 0.71753 0.0828 0.2175 0.0
C383 C 0.6926 0.06342 0.19723 0.0
C384 C 0.69984 0.02819 0.18752 0.0
C385 C 0.73062 0.01207 0.20024 0.0
C386 C 0.71047 0.12023 0.22893 0.0
C387 C 0.67442 0.0071 0.16497 0.0
H388 H 0.57527 0.09011 0.2216 0.0
H389 H 0.62035 0.1355 0.12925 0.0
H390 H 0.64022 0.02624 0.23742 0.0
H391 H 0.65276 0.06481 0.2616 0.0
H392 H 0.60689 0.05229 0.25868 0.0
H393 H 0.67617 0.11914 0.10837 0.0
H394 H 0.70641 0.11952 0.14515 0.0
H395 H 0.6948 0.07865 0.12459 0.0
H396 H 0.76695 0.08072 0.24571 0.0
H397 H 0.73541 0.98456 0.19434 0.0
H398 H 0.687 0.12086 0.24613 0.0
H399 H 0.70448 0.13686 0.20582 0.0
H400 H 0.73315 0.13205 0.24351 0.0
H401 H 0.6502 0.00137 0.18004 0.0
H402 H 0.68597 0.98173 0.15618 0.0
H403 H 0.66639 0.02239 0.14151 0.0
C404 C 0.77807 0.23692 0.446 0.0
C405 C 0.74294 0.2405 0.43483 0.0
C406 C 0.79828 0.20793 0.43508 0.0
C407 C 0.78299 0.18251 0.41215 0.0
C408 C 0.74825 0.18741 0.39912 0.0
C409 C 0.72857 0.21616 0.4109 0.0
C410 C 0.83515 0.20348 0.44963 0.0
C411 C 0.73123 0.16145 0.3739 0.0
C412 C 0.83361 0.11643 0.35821 0.0
C413 C 0.82546 0.08481 0.37537 0.0
C414 C 0.82217 0.14892 0.37131 0.0
C415 C 0.80226 0.14991 0.40246 0.0
C416 C 0.79651 0.11849 0.42151 0.0
C417 C 0.80814 0.08622 0.40769 0.0
C418 C 0.82899 0.18175 0.35024 0.0
C419 C 0.77585 0.11863 0.4552 0.0
H420 H 0.78898 0.25551 0.46492 0.0
H421 H 0.70139 0.21902 0.40226 0.0
H422 H 0.83547 0.18128 0.46842 0.0
H423 H 0.85383 0.1969 0.42835 0.0
H424 H 0.84471 0.22753 0.46352 0.0
H425 H 0.70489 0.17035 0.36457 0.0
H426 H 0.7483 0.15732 0.35075 0.0
H427 H 0.72805 0.13563 0.38695 0.0
H428 H 0.84755 0.11575 0.33349 0.0
H429 H 0.80201 0.06202 0.42129 0.0
H430 H 0.83764 0.20375 0.36759 0.0
H431 H 0.80416 0.18997 0.33702 0.0
H432 H 0.84931 0.17748 0.32984 0.0
H433 H 0.78525 0.14005 0.4729 0.0
H434 H 0.77792 0.09319 0.46928 0.0
H435 H 0.74761 0.12363 0.4492 0.0
C436 C 0.09675 0.41266 0.79217 0.0
C437 C 0.08081 0.39943 0.82238 0.0
C438 C 0.13192 0.42411 0.7929 0.0
C439 C 0.15184 0.42171 0.82449 0.0
C440 C 0.13564 0.40926 0.85536 0.0
C441 C 0.10017 0.3985 0.85399 0.0
C442 C 0.14801 0.43799 0.75955 0.0
C443 C 0.15608 0.40588 0.88939 0.0
C444 C 0.24883 0.41977 0.80297 0.0
C445 C 0.25701 0.45575 0.80464 0.0
C446 C 0.21537 0.40753 0.81281 0.0
C447 C 0.18972 0.43191 0.82443 0.0
C448 C 0.19932 0.46748 0.8301 0.0
C449 C 0.23296 0.47893 0.82034 0.0
C450 C 0.20638 0.36916 0.80735 0.0
C451 C 0.17294 0.49428 0.84277 0.0
H452 H 0.08187 0.41349 0.76774 0.0
H453 H 0.08812 0.38783 0.87736 0.0
H454 H 0.15931 0.4646 0.76424 0.0
H455 H 0.16989 0.4206 0.75123 0.0
H456 H 0.12849 0.43958 0.73768 0.0
H457 H 0.13869 0.39957 0.91183 0.0
H458 H 0.17586 0.3846 0.88676 0.0
H459 H 0.17071 0.43053 0.89547 0.0
H460 H 0.26733 0.40161 0.79118 0.0
H461 H 0.23933 0.50671 0.82239 0.0
H462 H 0.19004 0.36615 0.78318 0.0
H463 H 0.19076 0.35901 0.82962 0.0
H464 H 0.23042 0.35279 0.80443 0.0
H465 H 0.1544 0.50062 0.82099 0.0
H466 H 0.18597 0.51906 0.85161 0.0
H467 H 0.15712 0.48371 0.86469 0.0
C468 C 0.69658 0.89431 0.89586 0.0
C469 C 0.66365 0.90583 0.88365 0.0
C470 C 0.70103 0.86005 0.90843 0.0
C471 C 0.67189 0.8366 0.90852 0.0
C472 C 0.63831 0.84832 0.89719 0.0
C473 C 0.63457 0.88285 0.88486 0.0
C474 C 0.73712 0.84884 0.92124 0.0
C475 C 0.60654 0.82428 0.89662 0.0
C476 C 0.70431 0.74278 0.91279 0.0
C477 C 0.70505 0.73782 0.94919 0.0
C478 C 0.69028 0.77383 0.89854 0.0
C479 C 0.67711 0.80018 0.92135 0.0
C480 C 0.67418 0.79337 0.95762 0.0
C481 C 0.68809 0.76217 0.97109 0.0
C482 C 0.69228 0.77973 0.85948 0.0
C483 C 0.65939 0.82041 0.98265 0.0
H484 H 0.7191 0.91194 0.89507 0.0
H485 H 0.60908 0.89136 0.87499 0.0
H486 H 0.73556 0.83949 0.94873 0.0
H487 H 0.74676 0.8266 0.90498 0.0
H488 H 0.75679 0.87054 0.92017 0.0
H489 H 0.58174 0.83951 0.89894 0.0
H490 H 0.60573 0.80978 0.87124 0.0
H491 H 0.60745 0.80464 0.91803 0.0
H492 H 0.71714 0.72388 0.89577 0.0
H493 H 0.68792 0.758 -0.00076 0.0
H494 H 0.71334 0.79923 0.85396 0.0
H495 H 0.66703 0.79063 0.84943 0.0
H496 H 0.69823 0.75505 0.84494 0.0
H497 H 0.67801 0.84293 0.985 0.0
H498 H 0.65512 0.80945 0.00927 0.0
H499 H 0.63396 0.83076 0.97249 0.0
C500 C 0.36668 0.64356 0.31522 0.0
C501 C 0.39778 0.62354 0.31602 0.0
C502 C 0.33518 0.62978 0.30123 0.0
C503 C 0.33445 0.59485 0.28826 0.0
C504 C 0.36537 0.574 0.29015 0.0
C505 C 0.39683 0.58874 0.30366 0.0
C506 C 0.30311 0.65319 0.29892 0.0
C507 C 0.36545 0.53645 0.27704 0.0
C508 C 0.24508 0.55147 0.27086 0.0
C509 C 0.24233 0.55429 0.23427 0.0
C510 C 0.27501 0.56446 0.28894 0.0
C511 C 0.30224 0.58126 0.26998 0.0
C512 C 0.29878 0.58534 0.2332 0.0
C513 C 0.26909 0.57148 0.21579 0.0
C514 C 0.27801 0.55928 0.32811 0.0
C515 C 0.32671 0.60392 0.21208 0.0
H516 H 0.36719 0.67061 0.32441 0.0
H517 H 0.42067 0.57309 0.30438 0.0
H518 H 0.2963 0.65791 0.27094 0.0
H519 H 0.28005 0.64015 0.31102 0.0
H520 H 0.30744 0.67905 0.31207 0.0
H521 H 0.39054 0.52276 0.2834 0.0
H522 H 0.34327 0.52154 0.28869 0.0
H523 H 0.36156 0.53598 0.24813 0.0
H524 H 0.2246 0.5378 0.28511 0.0
H525 H 0.26691 0.57383 0.18749 0.0
H526 H 0.28182 0.585 0.34156 0.0
H527 H 0.3015 0.543 0.33421 0.0
H528 H 0.25431 0.54621 0.33908 0.0
H529 H 0.33146 0.63073 0.22286 0.0
H530 H 0.31924 0.60621 0.18391 0.0
H531 H 0.35198 0.58938 0.21397 0.0
C532 C 0.52661 0.31337 0.24169 0.0
C533 C 0.54822 0.28933 0.22394 0.0
C534 C 0.53613 0.32639 0.27491 0.0
C535 C 0.56833 0.31554 0.29029 0.0
C536 C 0.59262 0.29582 0.27009 0.0
C537 C 0.58218 0.28268 0.23699 0.0
C538 C 0.50959 0.34769 0.29523 0.0
C539 C 0.62791 0.28507 0.2851 0.0
C540 C 0.59483 0.34774 0.38164 0.0
C541 C 0.58557 0.31856 0.40204 0.0
C542 C 0.58903 0.34763 0.34514 0.0
C543 C 0.57295 0.31791 0.32903 0.0
C544 C 0.56156 0.28938 0.34999 0.0
C545 C 0.5685 0.28985 0.38617 0.0
C546 C 0.60217 0.37826 0.32381 0.0
C547 C 0.54318 0.25765 0.33405 0.0
H548 H 0.50053 0.31908 0.23127 0.0
H549 H 0.59908 0.26433 0.22325 0.0
H550 H 0.49599 0.33027 0.31412 0.0
H551 H 0.5227 0.36901 0.31054 0.0
H552 H 0.48934 0.35951 0.27766 0.0
H553 H 0.64622 0.27626 0.26423 0.0
H554 H 0.64028 0.30718 0.29992 0.0
H555 H 0.62411 0.26299 0.30365 0.0
H556 H 0.60874 0.36969 0.39381 0.0
H557 H 0.5615 0.26728 0.40197 0.0
H558 H 0.58306 0.38532 0.3028 0.0
H559 H 0.62718 0.37071 0.31091 0.0
H560 H 0.60736 0.40186 0.34046 0.0
H561 H 0.52019 0.26605 0.31794 0.0
H562 H 0.53382 0.23898 0.3543 0.0
H563 H 0.56153 0.24348 0.31643 0.0
C564 C 0.09802 0.15598 0.59708 0.0
C565 C 0.0908 0.17872 0.56909 0.0
C566 C 0.08627 0.1638 0.63112 0.0
C567 C 0.06603 0.1945 0.63687 0.0
C568 C 0.05619 0.21583 0.60801 0.0
C569 C 0.06927 0.20804 0.57456 0.0
C570 C 0.09799 0.14082 0.66121 0.0
C571 C 0.03362 0.24816 0.6128 0.0
C572 C 0.01764 0.21313 0.72181 0.0
C573 C 0.03865 0.24005 0.73618 0.0
C574 C 0.02696 0.19663 0.69012 0.0
C575 C 0.05845 0.20684 0.67316 0.0
C576 C 0.08109 0.23207 0.68928 0.0
C577 C 0.07051 0.24892 0.72027 0.0
C578 C 0.00171 0.17054 0.67343 0.0
C579 C 0.11544 0.24293 0.67266 0.0
H580 H 0.11513 0.13354 0.59293 0.0
H581 H 0.0637 0.22558 0.55286 0.0
H582 H 0.11853 0.15492 0.67684 0.0
H583 H 0.07572 0.13523 0.67902 0.0
H584 H 0.10918 0.11547 0.65193 0.0
H585 H 0.02431 0.25894 0.5873 0.0
H586 H 0.01033 0.242 0.62912 0.0
H587 H 0.04909 0.26888 0.62671 0.0
H588 H 0.99261 0.20689 0.7339 0.0
H589 H 0.0865 0.27001 0.73139 0.0
H590 H 0.01599 0.14717 0.66344 0.0
H591 H 0.98839 0.18302 0.65063 0.0
H592 H 0.98119 0.16169 0.69208 0.0
H593 H 0.1306 0.21941 0.66441 0.0
H594 H 0.13212 0.25901 0.6908 0.0
H595 H 0.10991 0.25867 0.6488 0.0
C596 C 0.94687 0.69701 0.74038 0.0
C597 C 0.94652 0.73376 0.73781 0.0
C598 C 0.93085 0.68013 0.76902 0.0
C599 C 0.9139 0.70062 0.79513 0.0
C600 C 0.91205 0.73759 0.79146 0.0
C601 C 0.92849 0.75362 0.76301 0.0
C602 C 0.93335 0.64067 0.77215 0.0
C603 C 0.89372 0.76047 0.81824 0.0
C604 C 0.84698 0.66701 0.86002 0.0
C605 C 0.86646 0.66803 0.8916 0.0
C606 C 0.86272 0.67507 0.82785 0.0
C607 C 0.89889 0.68425 0.82713 0.0
C608 C 0.91926 0.68301 0.8585 0.0
C609 C 0.90279 0.67501 0.8904 0.0
C610 C 0.84002 0.67617 0.79508 0.0
C611 C 0.95801 0.69232 0.85876 0.0
H612 H 0.96105 0.68169 0.72103 0.0
H613 H 0.9279 0.78207 0.76084 0.0
H614 H 0.95066 0.63396 0.79477 0.0
H615 H 0.907 0.62912 0.7773 0.0
H616 H 0.94426 0.62828 0.74811 0.0
H617 H 0.89316 0.78861 0.8105 0.0
H618 H 0.86618 0.75134 0.82189 0.0
H619 H 0.90745 0.75844 0.844 0.0
H620 H 0.81897 0.66126 0.86047 0.0
H621 H 0.91819 0.67545 0.91452 0.0
H622 H 0.85344 0.66304 0.77283 0.0
H623 H 0.83552 0.70397 0.78755 0.0
H624 H 0.81396 0.66338 0.79895 0.0
H625 H 0.97173 0.67861 0.83705 0.0
H626 H 0.9711 0.68539 0.884 0.0
H627 H 0.96116 0.72103 0.85459 0.0
C628 C 0.45339 0.8105 0.26989 0.0
C629 C 0.43794 0.78279 0.28841 0.0
C630 C 0.4386 0.82224 0.23822 0.0
C631 C 0.40826 0.8051 0.22444 0.0
C632 C 0.39083 0.77922 0.24464 0.0
C633 C 0.40572 0.76866 0.27675 0.0
C634 C 0.4573 0.85073 0.21807 0.0
C635 C 0.35858 0.76009 0.23074 0.0
C636 C 0.36052 0.83905 0.14349 0.0
C637 C 0.37572 0.81862 0.11681 0.0
C638 C 0.37147 0.8357 0.17858 0.0
C639 C 0.39765 0.81075 0.18725 0.0
C640 C 0.41353 0.79047 0.16032 0.0
C641 C 0.40264 0.79497 0.12531 0.0
C642 C 0.35469 0.85846 0.2064 0.0
C643 C 0.44134 0.7633 0.1686 0.0
H644 H 0.4784 0.82133 0.27896 0.0
H645 H 0.39408 0.74683 0.29082 0.0
H646 H 0.47204 0.83869 0.19604 0.0
H647 H 0.43807 0.8695 0.20662 0.0
H648 H 0.47632 0.86556 0.23494 0.0
H649 H 0.34577 0.74395 0.25128 0.0
H650 H 0.339 0.77894 0.22013 0.0
H651 H 0.36636 0.7424 0.20886 0.0
H652 H 0.33989 0.85764 0.13692 0.0
H653 H 0.41425 0.77902 0.10478 0.0
H654 H 0.37535 0.87229 0.22209 0.0
H655 H 0.33955 0.84177 0.22474 0.0
H656 H 0.33657 0.87835 0.19497 0.0
H657 H 0.4508 0.7495 0.14469 0.0
H658 H 0.43055 0.74345 0.18689 0.0
H659 H 0.46427 0.77599 0.1819 0.0
C660 C 0.13145 0.30164 0.41006 0.0
C661 C 0.15975 0.2792 0.40269 0.0
C662 C 0.12416 0.33063 0.3885 0.0
C663 C 0.14616 0.33749 0.3595 0.0
C664 C 0.17591 0.316 0.35324 0.0
C665 C 0.1821 0.28689 0.37469 0.0
C666 C 0.09196 0.3527 0.39564 0.0
C667 C 0.20046 0.32288 0.32299 0.0
C668 C 0.11569 0.3782 0.27462 0.0
C669 C 0.13151 0.41148 0.27672 0.0
C670 C 0.11763 0.35488 0.30285 0.0
C671 C 0.13668 0.36484 0.33349 0.0
C672 C 0.15073 0.39931 0.33663 0.0
C673 C 0.14763 0.42247 0.30819 0.0
C674 C 0.10153 0.31865 0.29881 0.0
C675 C 0.17155 0.41073 0.36872 0.0
H676 H 0.1141 0.29565 0.43171 0.0
H677 H 0.2043 0.26983 0.36927 0.0
H678 H 0.09862 0.38112 0.39488 0.0
H679 H 0.07183 0.34768 0.37485 0.0
H680 H 0.08013 0.34664 0.4215 0.0
H681 H 0.22421 0.30585 0.32387 0.0
H682 H 0.18634 0.31794 0.29777 0.0
H683 H 0.20912 0.3508 0.32316 0.0
H684 H 0.10287 0.36991 0.25035 0.0
H685 H 0.16 0.44821 0.30972 0.0
H686 H 0.08673 0.31143 0.32271 0.0
H687 H 0.1228 0.29897 0.29536 0.0
H688 H 0.08341 0.31688 0.27575 0.0
H689 H 0.15807 0.40257 0.39309 0.0
H690 H 0.17573 0.43967 0.36953 0.0
H691 H 0.19774 0.39776 0.3685 0.0
C692 C 0.98553 0.79961 0.50764 0.0
C693 C 0.9635 0.78808 0.53456 0.0
C694 C 0.97141 0.81358 0.47669 0.0
C695 C 0.93433 0.81555 0.47258 0.0
C696 C 0.91217 0.79919 0.49751 0.0
C697 C 0.9271 0.78578 0.5286 0.0
C698 C 0.99613 0.83071 0.45099 0.0
C699 C 0.87257 0.79961 0.49342 0.0
C700 C 0.90266 0.90092 0.43245 0.0
C701 C 0.89739 0.8912 0.39731 0.0
C702 C 0.91414 0.87628 0.45725 0.0
C703 C 0.9194 0.84079 0.44682 0.0
C704 C 0.91292 0.83056 0.41157 0.0
C705 C 0.90254 0.85607 0.38705 0.0
C706 C 0.92143 0.88848 0.49448 0.0
C707 C 0.91707 0.79282 0.3998 0.0
H708 H 0.01373 0.80147 0.51253 0.0
H709 H 0.91008 0.77714 0.54961 0.0
H710 H 0.98801 0.82495 0.42352 0.0
H711 H 0.99531 0.8597 0.45472 0.0
H712 H 0.02381 0.82189 0.45486 0.0
H713 H 0.85996 0.77895 0.50963 0.0
H714 H 0.86239 0.82556 0.50209 0.0
H715 H 0.86458 0.79568 0.46556 0.0
H716 H 0.89854 0.92803 0.44039 0.0
H717 H 0.89776 0.84838 0.35996 0.0
H718 H 0.94941 0.88337 0.50157 0.0
H719 H 0.90481 0.87353 0.51303 0.0
H720 H 0.91616 0.917 0.49819 0.0
H721 H 0.9452 0.78507 0.40156 0.0
H722 H 0.90773 0.78858 0.37235 0.0
H723 H 0.90213 0.77508 0.41734 0.0
C724 C 0.36098 0.6283 0.81126 0.0
C725 C 0.37898 0.59663 0.80671 0.0
C726 C 0.36665 0.64903 0.8412 0.0
C727 C 0.39012 0.63712 0.86775 0.0
C728 C 0.40967 0.60587 0.86253 0.0
C729 C 0.4041 0.58606 0.83169 0.0
C730 C 0.34598 0.68276 0.8452 0.0
C731 C 0.43449 0.59206 0.89036 0.0
C732 C 0.40474 0.71046 0.93277 0.0
C733 C 0.37434 0.7065 0.953 0.0
C734 C 0.41305 0.68555 0.90684 0.0
C735 C 0.39074 0.65594 0.90195 0.0
C736 C 0.3632 0.64944 0.92595 0.0
C737 C 0.35487 0.67524 0.95087 0.0
C738 C 0.44268 0.69341 0.88189 0.0
C739 C 0.33968 0.61745 0.92249 0.0
H740 H 0.34178 0.63646 0.79165 0.0
H741 H 0.4178 0.56131 0.82811 0.0
H742 H 0.32616 0.67966 0.86622 0.0
H743 H 0.36378 0.70476 0.85296 0.0
H744 H 0.33191 0.69008 0.82059 0.0
H745 H 0.45329 0.57261 0.87937 0.0
H746 H 0.44965 0.61371 0.90313 0.0
H747 H 0.41892 0.57885 0.91103 0.0
H748 H 0.41972 0.7348 0.93443 0.0
H749 H 0.33154 0.67216 0.96685 0.0
H750 H 0.43158 0.70546 0.85773 0.0
H751 H 0.4566 0.66902 0.87403 0.0
H752 H 0.4621 0.71214 0.89365 0.0
H753 H 0.32056 0.62146 0.90063 0.0
H754 H 0.32458 0.61267 0.94688 0.0
H755 H 0.35539 0.59368 0.91629 0.0
C756 C 0.57515 0.1893 0.02838 0.0
C757 C 0.53922 0.19754 0.03085 0.0
C758 C 0.5886 0.17363 -0.00217 0.0
C759 C 0.56559 0.16642 0.96913 0.0
C760 C 0.53022 0.17812 0.97019 0.0
C761 C 0.51743 0.19347 0.00109 0.0
C762 C 0.62656 0.16178 -0.00235 0.0
C763 C 0.50494 0.17145 0.93998 0.0
C764 C 0.60212 0.13085 0.88325 0.0
C765 C 0.59684 0.09448 0.88724 0.0
C766 C 0.5922 0.15475 0.90966 0.0
C767 C 0.57671 0.14194 0.94074 0.0
C768 C 0.57119 0.10532 0.94483 0.0
C769 C 0.58127 0.08209 0.91806 0.0
C770 C 0.59836 0.19361 0.90438 0.0
C771 C 0.55466 0.09056 0.97759 0.0
H772 H 0.59218 0.19237 0.05123 0.0
H773 H 0.48972 0.20022 0.00266 0.0
H774 H 0.62756 0.13283 0.00117 0.0
H775 H 0.63907 0.16782 0.97217 0.0
H776 H 0.64229 0.17436 0.01909 0.0
H777 H 0.48038 0.18711 0.9425 0.0
H778 H 0.51745 0.17778 0.91457 0.0
H779 H 0.49765 0.14314 0.93927 0.0
H780 H 0.6142 0.14071 0.85956 0.0
H781 H 0.57709 0.05409 0.92147 0.0
H782 H 0.61583 0.2041 0.92554 0.0
H783 H 0.573 0.20799 0.90607 0.0
H784 H 0.61055 0.19934 0.87862 0.0
H785 H 0.57057 0.09827 0.00103 0.0
H786 H 0.55252 0.06141 0.97679 0.0
H787 H 0.52786 0.10164 0.98099 0.0
C788 C 0.60442 0.17662 0.55709 0.0
C789 C 0.63439 0.19664 0.56602 0.0
C790 C 0.59558 0.14646 0.57639 0.0
C791 C 0.61744 0.13623 0.60487 0.0
C792 C 0.64885 0.15521 0.61243 0.0
C793 C 0.65679 0.18524 0.59305 0.0
C794 C 0.56194 0.12689 0.5675 0.0
C795 C 0.67332 0.14491 0.6422 0.0
C796 C 0.59075 0.09602 0.68993 0.0
C797 C 0.60794 0.06354 0.68785 0.0
C798 C 0.58945 0.11847 0.66099 0.0
C799 C 0.60642 0.10835 0.62958 0.0
C800 C 0.61996 0.07383 0.62607 0.0
C801 C 0.62039 0.0516 0.65539 0.0
C802 C 0.57379 0.15468 0.66552 0.0
C803 C 0.63774 0.06188 0.59282 0.0
H804 H 0.5871 0.18534 0.5361 0.0
H805 H 0.68034 0.20028 0.59958 0.0
H806 H 0.56547 0.09806 0.57017 0.0
H807 H 0.54105 0.13504 0.58603 0.0
H808 H 0.55263 0.13267 0.5404 0.0
H809 H 0.698 0.16077 0.64273 0.0
H810 H 0.65978 0.14863 0.66766 0.0
H811 H 0.68048 0.11671 0.63997 0.0
H812 H 0.58052 0.10495 0.71494 0.0
H813 H 0.63352 0.02635 0.6537 0.0
H814 H 0.55858 0.16236 0.64178 0.0
H815 H 0.59539 0.17417 0.66934 0.0
H816 H 0.55619 0.15608 0.68864 0.0
H817 H 0.62358 0.07175 0.56926 0.0
H818 H 0.63933 0.03273 0.59123 0.0
H819 H 0.66499 0.07264 0.59235 0.0
C820 C 0.09597 0.3588 0.08421 0.0
C821 C 0.092 0.3951 0.0784 0.0
C822 C 0.08519 0.33395 0.05887 0.0
C823 C 0.06997 0.34566 0.02705 0.0
C824 C 0.06581 0.38221 0.02102 0.0
C825 C 0.07688 0.40647 0.04676 0.0
C826 C 0.09018 0.29525 0.06606 0.0
C827 C 0.0496 0.39577 0.98732 0.0
C828 C 0.06338 0.29701 0.94075 0.0
C829 C 0.02686 0.29184 0.93869 0.0
C830 C 0.07891 0.31128 0.9713 0.0
C831 C 0.0572 0.32012 0.00011 0.0
C832 C 0.0212 0.31015 -0.00031 0.0
C833 C 0.0064 0.2962 0.96878 0.0
C834 C 0.1175 0.32111 0.97083 0.0
C835 C -0.00281 0.31861 0.02998 0.0
H836 H 0.10782 0.34969 0.1085 0.0
H837 H 0.07382 0.43439 0.04198 0.0
H838 H 0.06431 0.28151 0.06521 0.0
H839 H 0.10675 0.28324 0.04537 0.0
H840 H 0.10281 0.29047 0.09203 0.0
H841 H 0.04844 0.42496 0.98668 0.0
H842 H 0.06512 0.38653 0.96451 0.0
H843 H 0.02241 0.38525 0.98406 0.0
H844 H 0.07906 0.29411 0.91724 0.0
H845 H 0.97805 0.29245 0.96691 0.0
H846 H 0.1301 0.31674 0.99684 0.0
H847 H 0.12011 0.34949 0.9646 0.0
H848 H 0.13201 0.30585 0.95064 0.0
H849 H 0.01034 0.31313 0.05549 0.0
H850 H 0.97217 0.30335 0.0284 0.0
H851 H 0.99062 0.34705 0.02948 0.0
C852 C 0.89384 0.8846 0.18486 0.0
C853 C 0.86532 0.87921 0.20737 0.0
C854 C 0.89803 0.8635 0.15481 0.0
C855 C 0.87359 0.83603 0.14795 0.0
C856 C 0.84585 0.82946 0.17175 0.0
C857 C 0.84175 0.85153 0.20088 0.0
C858 C 0.92737 0.87175 0.12962 0.0
C859 C 0.81973 0.79979 0.1659 0.0
C860 C 0.84333 0.79949 0.06126 0.0
C861 C 0.85832 0.76597 0.06236 0.0
C862 C 0.85188 0.82469 0.08691 0.0
C863 C 0.87479 0.81536 0.1149 0.0
C864 C 0.89264 0.7827 0.11409 0.0
C865 C 0.88446 0.7584 0.08737 0.0
C866 C 0.83332 0.85976 0.08616 0.0
C867 C 0.91694 0.77162 0.1436 0.0
H868 H 0.91193 0.90625 0.18992 0.0
H869 H 0.81996 0.84722 0.21862 0.0
H870 H 0.94102 0.84738 0.12124 0.0
H871 H 0.91603 0.884 0.10569 0.0
H872 H 0.94711 0.89018 0.14129 0.0
H873 H 0.80192 0.79626 0.18862 0.0
H874 H 0.80331 0.80524 0.1423 0.0
H875 H 0.83383 0.77469 0.16116 0.0
H876 H 0.82323 0.8052 0.04167 0.0
H877 H 0.89579 0.73224 0.0882 0.0
H878 H 0.85158 0.88131 0.09413 0.0
H879 H 0.81121 0.85944 0.10505 0.0
H880 H 0.82236 0.8656 0.05968 0.0
H881 H 0.93392 0.79379 0.15256 0.0
H882 H 0.934 0.74926 0.13571 0.0
H883 H 0.90086 0.7632 0.16628 0.0
C884 C 0.39104 0.57239 0.58076 0.0
C885 C 0.39215 0.58234 0.6162 0.0
C886 C 0.40387 0.59485 0.55476 0.0
C887 C 0.4172 0.62845 0.56441 0.0
C888 C 0.41718 0.63916 0.60006 0.0
C889 C 0.40514 0.6157 0.62566 0.0
C890 C 0.40418 0.58215 0.51709 0.0
C891 C 0.43024 0.67515 0.61115 0.0
C892 C 0.4843 0.66354 0.5009 0.0
C893 C 0.46299 0.68289 0.47769 0.0
C894 C 0.47 0.64716 0.53035 0.0
C895 C 0.43365 0.65094 0.53733 0.0
C896 C 0.41262 0.67303 0.51592 0.0
C897 C 0.42747 0.68853 0.48606 0.0
C898 C 0.49328 0.62349 0.55226 0.0
C899 C 0.37398 0.67856 0.52327 0.0
H900 H 0.381 0.54659 0.57344 0.0
H901 H 0.40546 0.62364 0.65305 0.0
H902 H 0.38935 0.60065 0.50012 0.0
H903 H 0.43172 0.58139 0.50748 0.0
H904 H 0.39241 0.55549 0.51396 0.0
H905 H 0.42528 0.68065 0.63936 0.0
H906 H 0.459 0.67727 0.6065 0.0
H907 H 0.41718 0.69575 0.59516 0.0
H908 H 0.51185 0.6592 0.49494 0.0
H909 H 0.41088 0.70373 0.46851 0.0
H910 H 0.4848 0.59572 0.54855 0.0
H911 H 0.49071 0.62988 0.58056 0.0
H912 H 0.52154 0.62565 0.54507 0.0
H913 H 0.35897 0.65447 0.51591 0.0
H914 H 0.36298 0.70098 0.50817 0.0
H915 H 0.36976 0.68342 0.55168 0.0
C916 C 0.28592 0.13496 0.35931 0.0
C917 C 0.29077 0.13746 0.39581 0.0
C918 C 0.31468 0.13494 0.33656 0.0
C919 C 0.3493 0.13732 0.35059 0.0
C920 C 0.3546 0.13708 0.38746 0.0
C921 C 0.32519 0.13721 0.40973 0.0
C922 C 0.30778 0.13496 0.29741 0.0
C923 C 0.39116 0.13896 0.40338 0.0
C924 C 0.41931 0.12554 0.28096 0.0
C925 C 0.42439 0.1605 0.27035 0.0
C926 C 0.3968 0.11749 0.30896 0.0
C927 C 0.37893 0.14504 0.32649 0.0
C928 C 0.38589 0.18043 0.31742 0.0
C929 C 0.40856 0.1877 0.28957 0.0
C930 C 0.39051 0.07947 0.31829 0.0
C931 C 0.3675 0.21066 0.33549 0.0
H932 H 0.25944 0.13448 0.34828 0.0
H933 H 0.3292 0.13887 0.43792 0.0
H934 H 0.31513 0.16096 0.2865 0.0
H935 H 0.3242 0.11484 0.2842 0.0
H936 H 0.27963 0.1297 0.29079 0.0
H937 H 0.39122 0.13188 0.43164 0.0
H938 H 0.40944 0.1212 0.38924 0.0
H939 H 0.40157 0.16615 0.40095 0.0
H940 H 0.43169 0.10434 0.26648 0.0
H941 H 0.41275 0.21484 0.28201 0.0
H942 H 0.36443 0.07096 0.30778 0.0
H943 H 0.39006 0.07607 0.3472 0.0
H944 H 0.411 0.06194 0.30712 0.0
H945 H 0.33895 0.20996 0.32878 0.0
H946 H 0.37829 0.23663 0.32763 0.0
H947 H 0.36999 0.20825 0.36441 0.0
C948 C 0.19699 0.03853 0.56073 0.0
C949 C 0.19684 0.04227 0.52421 0.0
C950 C 0.18343 0.00786 0.57612 0.0
C951 C 0.16978 0.9806 0.55427 0.0
C952 C 0.1736 0.98275 0.51743 0.0
C953 C 0.18693 0.01373 0.50283 0.0
C954 C 0.18015 0.00641 0.61553 0.0
C955 C 0.15993 0.95414 0.49316 0.0
C956 C 0.13731 0.89415 0.59206 0.0
C957 C 0.10078 0.90007 0.59411 0.0
C958 C 0.16029 0.92024 0.5797 0.0
C959 C 0.14644 0.95302 0.5691 0.0
C960 C 0.10966 0.95923 0.57119 0.0
C961 C 0.08729 0.93269 0.58364 0.0
C962 C 0.19931 0.91267 0.57776 0.0
C963 C 0.09382 0.99389 0.56002 0.0
H964 H 0.20416 0.06086 0.5772 0.0
H965 H 0.18664 0.01687 0.47453 0.0
H966 H 0.15251 0.01226 0.62287 0.0
H967 H 0.18652 0.97977 0.62545 0.0
H968 H 0.1977 0.02592 0.62882 0.0
H969 H 0.17021 0.95703 0.4661 0.0
H970 H 0.16722 0.92775 0.5031 0.0
H971 H 0.13069 0.95538 0.4919 0.0
H972 H 0.14809 0.86908 0.60019 0.0
H973 H 0.0592 0.93759 0.58522 0.0
H974 H 0.21441 0.93278 0.59293 0.0
H975 H 0.20814 0.91425 0.55013 0.0
H976 H 0.20603 0.88623 0.5881 0.0
H977 H 0.10629 0.01583 0.575 0.0
H978 H 0.06486 0.99483 0.56413 0.0
H979 H 0.09905 -0.00157 0.53178 0.0
C980 C 0.14244 0.83992 0.74629 0.0
C981 C 0.10628 0.83952 0.75383 0.0
C982 C 0.1677 0.84278 0.77313 0.0
C983 C 0.15648 0.84532 0.80832 0.0
C984 C 0.12007 0.84713 0.81602 0.0
C985 C 0.09528 0.84424 0.78856 0.0
C986 C 0.20634 0.84095 0.76391 0.0
C987 C 0.10729 0.85005 0.85334 0.0
C988 C 0.21839 0.8051 0.875 0.0
C989 C 0.23562 0.83489 0.8888 0.0
C990 C 0.19209 0.80831 0.84925 0.0
C991 C 0.1828 0.84214 0.83702 0.0
C992 C 0.1998 0.87238 0.85094 0.0
C993 C 0.22612 0.8684 0.87671 0.0
C994 C 0.17458 0.77542 0.83481 0.0
C995 C 0.19046 0.90881 0.83835 0.0
H996 H 0.15116 0.83684 0.71942 0.0
H997 H 0.06737 0.84415 0.79451 0.0
H998 H 0.22126 0.86251 0.7771 0.0
H999 H 0.21751 0.81572 0.77337 0.0
H1000 H 0.21068 0.84265 0.73516 0.0
H1001 H 0.07855 0.8555 0.85457 0.0
H1002 H 0.11262 0.82505 0.86728 0.0
H1003 H 0.12173 0.87124 0.86764 0.0
H1004 H 0.22548 0.77912 0.88426 0.0
H1005 H 0.23921 0.89156 0.88736 0.0
H1006 H 0.17977 0.773 0.80627 0.0
H1007 H 0.14557 0.77707 0.83803 0.0
H1008 H 0.18413 0.75119 0.84797 0.0
H1009 H 0.19647 0.91119 0.81001 0.0
H1010 H 0.20513 0.92971 0.85294 0.0
H1011 H 0.16176 0.91345 0.84131 0.0
C1012 C 0.41531 0.05731 0.10852 0.0
C1013 C 0.40538 0.09267 0.10622 0.0
C1014 C 0.39355 0.0306 0.09478 0.0
C1015 C 0.3607 0.03947 0.07919 0.0
C1016 C 0.34981 0.07502 0.07827 0.0
C1017 C 0.37255 0.1013 0.09136 0.0
C1018 C 0.40639 0.99301 0.09572 0.0
C1019 C 0.31454 0.08533 0.06278 0.0
C1020 C 0.33154 0.97338 0.01052 0.0
C1021 C 0.31146 0.9499 0.03055 0.0
C1022 C 0.346 0.00392 0.02555 0.0
C1023 C 0.3395 0.01167 0.06127 0.0
C1024 C 0.31623 0.99013 0.08059 0.0
C1025 C 0.30265 0.95925 0.06507 0.0
C1026 C 0.37084 0.02607 0.00403 0.0
C1027 C 0.30777 -0.00175 0.11842 0.0
H1028 H 0.44068 0.05058 0.11998 0.0
H1029 H 0.36458 0.12864 0.09003 0.0
H1030 H 0.38685 0.97605 0.10904 0.0
H1031 H 0.40924 0.98283 0.06852 0.0
H1032 H 0.43219 0.99048 0.10955 0.0
H1033 H 0.30825 0.11341 0.06789 0.0
H1034 H 0.3146 0.08089 0.03397 0.0
H1035 H 0.29324 0.0687 0.07374 0.0
H1036 H 0.33815 0.96671 0.98367 0.0
H1037 H 0.28684 0.94152 0.08067 0.0
H1038 H 0.39816 0.02302 0.0143 0.0
H1039 H 0.36398 0.05433 0.00617 0.0
H1040 H 0.37046 0.0184 0.97583 0.0
H1041 H 0.33061 0.99112 0.13532 0.0
H1042 H 0.28436 0.98327 0.12745 0.0
H1043 H 0.30282 0.02678 0.12216 0.0
C1044 C 0.8768 0.38191 0.71238 0.0
C1045 C 0.90856 0.36363 0.70901 0.0
C1046 C 0.8529 0.38383 0.68424 0.0
C1047 C 0.86061 0.36596 0.65253 0.0
C1048 C 0.89413 0.35025 0.64802 0.0
C1049 C 0.91802 0.3496 0.6764 0.0
C1050 C 0.8179 0.40177 0.68979 0.0
C1051 C 0.90324 0.33066 0.61476 0.0
C1052 C 0.78018 0.32149 0.61302 0.0
C1053 C 0.77229 0.34326 0.58452 0.0
C1054 C 0.80965 0.32802 0.63445 0.0
C1055 C 0.83135 0.3576 0.62771 0.0
C1056 C 0.82376 0.37958 0.59877 0.0
C1057 C 0.79442 0.3719 0.57719 0.0
C1058 C 0.81719 0.3035 0.66471 0.0
C1059 C 0.8459 0.41171 0.5913 0.0
H1060 H 0.86974 0.39291 0.7377 0.0
H1061 H 0.94258 0.33525 0.67403 0.0
H1062 H 0.80993 0.41681 0.66615 0.0
H1063 H 0.79727 0.3816 0.6945 0.0
H1064 H 0.81875 0.41994 0.71275 0.0
H1065 H 0.93207 0.32596 0.61275 0.0
H1066 H 0.88959 0.30477 0.61457 0.0
H1067 H 0.89419 0.34524 0.59122 0.0
H1068 H 0.76339 0.29906 0.61845 0.0
H1069 H 0.78826 0.38882 0.55516 0.0
H1070 H 0.8142 0.31783 0.68996 0.0
H1071 H 0.84477 0.29393 0.6635 0.0
H1072 H 0.7992 0.28036 0.66475 0.0
H1073 H 0.84264 0.43126 0.61277 0.0
H1074 H 0.8384 0.42428 0.56605 0.0
H1075 H 0.87427 0.40474 0.59052 0.0
C1076 C 0.89673 0.43773 0.89683 0.0
C1077 C 0.88501 0.40622 0.88137 0.0
C1078 C 0.87279 0.46139 0.91176 0.0
C1079 C 0.83629 0.45312 0.91157 0.0
C1080 C 0.82431 0.42111 0.89656 0.0
C1081 C 0.84881 0.39811 0.88145 0.0
C1082 C 0.88654 0.49548 0.92738 0.0
C1083 C 0.78568 0.41127 0.89632 0.0
C1084 C 0.7884 0.50821 0.97845 0.0
C1085 C 0.77861 0.53726 0.95801 0.0
C1086 C 0.80448 0.4788 0.96312 0.0
C1087 C 0.81095 0.47864 0.9266 0.0
C1088 C 0.79741 0.50596 0.90535 0.0
C1089 C 0.78109 0.53487 0.92132 0.0
C1090 C 0.81769 0.44967 0.98654 0.0
C1091 C 0.80353 0.50663 0.86624 0.0
H1092 H 0.92461 0.4442 0.89682 0.0
H1093 H 0.83953 0.37365 0.86978 0.0
H1094 H 0.87424 0.51813 0.91374 0.0
H1095 H 0.87928 0.49732 0.95548 0.0
H1096 H 0.91567 0.49792 0.92537 0.0
H1097 H 0.78084 0.38477 0.88474 0.0
H1098 H 0.77535 0.41169 0.92347 0.0
H1099 H 0.77038 0.43085 0.88104 0.0
H1100 H 0.78604 0.50955 0.00678 0.0
H1101 H 0.77329 0.55698 0.90519 0.0
H1102 H 0.8466 0.45259 0.99046 0.0
H1103 H 0.81283 0.42353 0.97427 0.0
H1104 H 0.80499 0.45034 0.0127 0.0
H1105 H 0.83156 0.51333 0.86128 0.0
H1106 H 0.78667 0.52642 0.85288 0.0
H1107 H 0.7983 0.48044 0.85426 0.0
C1108 C 0.70507 0.62613 0.13209 0.0
C1109 C 0.7042 0.65047 0.10464 0.0
C1110 C 0.67962 0.62717 0.15864 0.0
C1111 C 0.65235 0.65252 0.15696 0.0
C1112 C 0.65027 0.67573 0.12811 0.0
C1113 C 0.67653 0.67474 0.10254 0.0
C1114 C 0.68308 0.60252 0.1894 0.0
C1115 C 0.62114 0.70258 0.12497 0.0
C1116 C 0.57294 0.64459 0.2166 0.0
C1117 C 0.58111 0.66985 0.24242 0.0
C1118 C 0.59595 0.63844 0.18854 0.0
C1119 C 0.62812 0.65738 0.18695 0.0
C1120 C 0.63677 0.68232 0.21342 0.0
C1121 C 0.61296 0.68855 0.24058 0.0
C1122 C 0.58555 0.61229 0.16027 0.0
C1123 C 0.67114 0.70258 0.21302 0.0
H1124 H 0.72656 0.60744 0.13371 0.0
H1125 H 0.67562 0.69325 0.081 0.0
H1126 H 0.68975 0.61788 0.21345 0.0
H1127 H 0.65768 0.58889 0.19422 0.0
H1128 H 0.70389 0.58244 0.1853 0.0
H1129 H 0.62096 0.71572 0.09898 0.0
H1130 H 0.59507 0.68996 0.129 0.0
H1131 H 0.62455 0.72304 0.14564 0.0
H1132 H 0.54828 0.63016 0.21798 0.0
H1133 H 0.61959 0.70775 0.26078 0.0
H1134 H 0.60616 0.59182 0.15762 0.0
H1135 H 0.58345 0.62586 0.13462 0.0
H1136 H 0.55995 0.5992 0.16577 0.0
H1137 H 0.69369 0.68412 0.21138 0.0
H1138 H 0.67475 0.71943 0.23673 0.0
H1139 H 0.67204 0.71962 0.18949 0.0
C1140 C 0.6824 0.446 0.42643 0.0
C1141 C 0.67378 0.44012 0.46162 0.0
C1142 C 0.67126 0.47685 0.40936 0.0
C1143 C 0.65076 0.50179 0.42795 0.0
C1144 C 0.64488 0.49728 0.46427 0.0
C1145 C 0.65684 0.46673 0.48069 0.0
C1146 C 0.67912 0.48132 0.3709 0.0
C1147 C 0.62306 0.52306 0.48517 0.0
C1148 C 0.62326 0.5926 0.39825 0.0
C1149 C 0.5886 0.58622 0.38656 0.0
C1150 C 0.6451 0.56486 0.40906 0.0
C1151 C 0.63149 0.53016 0.40924 0.0
C1152 C 0.59703 0.52343 0.396 0.0
C1153 C 0.57615 0.55154 0.3844 0.0
C1154 C 0.68214 0.57289 0.42169 0.0
C1155 C 0.58134 0.48683 0.39613 0.0
H1156 H 0.69553 0.42554 0.41156 0.0
H1157 H 0.65061 0.4625 0.50808 0.0
H1158 H 0.65587 0.47282 0.35506 0.0
H1159 H 0.68456 0.5093 0.36466 0.0
H1160 H 0.70204 0.46514 0.36281 0.0
H1161 H 0.62298 0.51687 0.51365 0.0
H1162 H 0.63315 0.55023 0.48189 0.0
H1163 H 0.5954 0.52253 0.47533 0.0
H1164 H 0.63324 0.61936 0.39927 0.0
H1165 H 0.54943 0.54651 0.37521 0.0
H1166 H 0.70098 0.55341 0.41093 0.0
H1167 H 0.68341 0.57105 0.45073 0.0
H1168 H 0.69077 0.59972 0.41407 0.0
H1169 H 0.5991 0.46807 0.38268 0.0
H1170 H 0.55503 0.48572 0.38306 0.0
H1171 H 0.57848 0.47779 0.42363 0.0
C1172 C 0.28227 0.41808 0.10771 0.0
C1173 C 0.25109 0.40462 0.12201 0.0
C1174 C 0.31092 0.39586 0.10087 0.0
C1175 C 0.30813 0.35963 0.10878 0.0
C1176 C 0.27572 0.34554 0.12034 0.0
C1177 C 0.24757 0.36821 0.12675 0.0
C1178 C 0.34489 0.41157 0.08772 0.0
C1179 C 0.27161 0.30698 0.12896 0.0
C1180 C 0.37608 0.28942 0.08991 0.0
C1181 C 0.39253 0.28669 0.12294 0.0
C1182 C 0.34998 0.31487 0.08384 0.0
C1183 C 0.34013 0.33764 0.11157 0.0
C1184 C 0.35811 0.33628 0.14423 0.0
C1185 C 0.38413 0.31093 0.14945 0.0
C1186 C 0.33175 0.31611 0.04847 0.0
C1187 C 0.34838 0.36014 0.17454 0.0
H1188 H 0.28495 0.44613 0.10343 0.0
H1189 H 0.22324 0.35746 0.13696 0.0
H1190 H 0.36378 0.41459 0.10998 0.0
H1191 H 0.35725 0.39406 0.06797 0.0
H1192 H 0.34064 0.43788 0.07588 0.0
H1193 H 0.24367 0.29959 0.13362 0.0
H1194 H 0.2819 0.29032 0.10739 0.0
H1195 H 0.28718 0.30091 0.15299 0.0
H1196 H 0.38275 0.27105 0.06915 0.0
H1197 H 0.39712 0.30946 0.17488 0.0
H1198 H 0.32747 0.3437 0.04012 0.0
H1199 H 0.30549 0.30332 0.05027 0.0
H1200 H 0.34709 0.30216 0.02797 0.0
H1201 H 0.34849 0.38803 0.16615 0.0
H1202 H 0.3667 0.35741 0.1973 0.0
H1203 H 0.3213 0.35377 0.18338 0.0
C1204 C 0.8976 0.18273 0.83238 0.0
C1205 C 0.88716 0.21748 0.83877 0.0
C1206 C 0.87282 0.15525 0.83259 0.0
C1207 C 0.83714 0.16287 0.84011 0.0
C1208 C 0.82706 0.19759 0.84897 0.0
C1209 C 0.85216 0.22459 0.84778 0.0
C1210 C 0.88434 0.1186 0.82249 0.0
C1211 C 0.78938 0.20659 0.85784 0.0
C1212 C 0.76377 0.11026 0.79725 0.0
C1213 C 0.75291 0.08868 0.82482 0.0
C1214 C 0.79213 0.13352 0.80161 0.0
C1215 C 0.80953 0.13574 0.83459 0.0
C1216 C 0.79907 0.11365 0.86242 0.0
C1217 C 0.77099 0.09001 0.85707 0.0
C1218 C 0.80296 0.15625 0.77109 0.0
C1219 C 0.81671 0.11585 0.89807 0.0
H1220 H 0.9247 0.17729 0.82534 0.0
H1221 H 0.84423 0.25146 0.85322 0.0
H1222 H 0.87407 0.09901 0.84131 0.0
H1223 H 0.87329 0.11178 0.79622 0.0
H1224 H 0.91352 0.11626 0.82146 0.0
H1225 H 0.78687 0.23376 0.86842 0.0
H1226 H 0.77263 0.20428 0.83387 0.0
H1227 H 0.77886 0.18787 0.87742 0.0
H1228 H 0.75012 0.10889 0.77213 0.0
H1229 H 0.76252 0.07333 0.87842 0.0
H1230 H 0.83165 0.1535 0.76627 0.0
H1231 H 0.79794 0.18432 0.77739 0.0
H1232 H 0.78839 0.1494 0.74652 0.0
H1233 H 0.8457 0.1131 0.89555 0.0
H1234 H 0.80695 0.0953 0.91623 0.0
H1235 H 0.81171 0.14206 0.90997 0.0
C1236 C 0.02831 0.5753 0.19029 0.0
C1237 C 0.03199 0.53868 0.1898 0.0
C1238 C -0.00277 0.59094 0.1774 0.0
C1239 C 0.96988 0.56923 0.16356 0.0
C1240 C 0.97182 0.53231 0.16769 0.0
C1241 C 0.00285 0.51751 0.18107 0.0
C1242 C 0.99558 0.63047 0.17469 0.0
C1243 C 0.94345 0.50803 0.15333 0.0
C1244 C 0.88379 0.60275 0.12444 0.0
C1245 C 0.89233 0.60493 0.08872 0.0
C1246 C 0.9092 0.59282 0.14957 0.0
C1247 C 0.94352 0.58383 0.13847 0.0
C1248 C 0.95226 0.58617 0.10242 0.0
C1249 C 0.92667 0.59716 0.07808 0.0
C1250 C 0.8993 0.59178 0.18784 0.0
C1251 C 0.98843 0.57624 0.08933 0.0
H1252 H 0.05091 0.59169 0.1969 0.0
H1253 H 0.00582 0.48912 0.18083 0.0
H1254 H 0.00376 0.63853 0.14801 0.0
H1255 H 0.96834 0.64013 0.17887 0.0
H1256 H 0.01358 0.64339 0.19406 0.0
H1257 H 0.94612 0.48092 0.16376 0.0
H1258 H 0.9168 0.51797 0.15968 0.0
H1259 H 0.94547 0.50675 0.12429 0.0
H1260 H 0.85739 0.60943 0.13284 0.0
H1261 H 0.93334 0.59895 0.05052 0.0
H1262 H 0.91891 0.6067 0.20388 0.0
H1263 H 0.89959 0.56423 0.19726 0.0
H1264 H 0.87269 0.60293 0.19252 0.0
H1265 H 0.00887 0.5928 0.10241 0.0
H1266 H 0.99084 0.57941 0.06047 0.0
H1267 H 0.99416 0.54843 0.09597 0.0
C1268 C 0.72304 0.90989 0.38947 0.0
C1269 C 0.73703 0.90326 0.35608 0.0
C1270 C 0.69566 0.88887 0.40273 0.0
C1271 C 0.6823 0.86064 0.3821 0.0
C1272 C 0.6969 0.85345 0.34876 0.0
C1273 C 0.7239 0.87489 0.33617 0.0
C1274 C 0.68052 0.89742 0.43826 0.0
C1275 C 0.68363 0.8234 0.32593 0.0
C1276 C 0.63033 0.78106 0.40933 0.0
C1277 C 0.59815 0.78815 0.39249 0.0
C1278 C 0.65741 0.80637 0.40993 0.0
C1279 C 0.65172 0.83932 0.39363 0.0
C1280 C 0.61771 0.848 0.38085 0.0
C1281 C 0.59137 0.82214 0.38015 0.0
C1282 C 0.69321 0.79629 0.42421 0.0
C1283 C 0.61026 0.8831 0.36401 0.0
H1284 H 0.73312 0.93175 0.40503 0.0
H1285 H 0.73479 0.86925 0.31053 0.0
H1286 H 0.65387 0.90894 0.4348 0.0
H1287 H 0.6775 0.87322 0.4541 0.0
H1288 H 0.69721 0.91653 0.45314 0.0
H1289 H 0.69901 0.82045 0.3014 0.0
H1290 H 0.68503 0.79829 0.34058 0.0
H1291 H 0.65559 0.82781 0.31864 0.0
H1292 H 0.63549 0.75483 0.41913 0.0
H1293 H 0.56616 0.82783 0.36777 0.0
H1294 H 0.70593 0.81877 0.43812 0.0
H1295 H 0.71048 0.78866 0.40208 0.0
H1296 H 0.69147 0.77367 0.44247 0.0
H1297 H 0.6229 0.90483 0.37914 0.0
H1298 H 0.58149 0.88828 0.36191 0.0
H1299 H 0.62139 0.8833 0.33716 0.0
C1300 C 0.54479 0.37491 0.59439 0.0
C1301 C 0.57577 0.35728 0.60417 0.0
C1302 C 0.52151 0.38785 0.61973 0.0
C1303 C 0.52934 0.38311 0.65585 0.0
C1304 C 0.55996 0.36441 0.66596 0.0
C1305 C 0.58283 0.35171 0.64 0.0
C1306 C 0.48898 0.40749 0.60781 0.0
C1307 C 0.56908 0.35872 0.70418 0.0
C1308 C 0.48577 0.45381 0.71009 0.0
C1309 C 0.45384 0.43741 0.71873 0.0
C1310 C 0.51213 0.43541 0.69217 0.0
C1311 C 0.50632 0.3998 0.68258 0.0
C1312 C 0.47574 0.38214 0.69442 0.0
C1313 C 0.44985 0.40117 0.71254 0.0
C1314 C 0.54462 0.45511 0.68057 0.0
C1315 C 0.46869 0.34411 0.68502 0.0
H1316 H 0.53892 0.37918 0.56683 0.0
H1317 H 0.60663 0.33801 0.64788 0.0
H1318 H 0.46505 0.39554 0.61938 0.0
H1319 H 0.49045 0.43519 0.61711 0.0
H1320 H 0.48586 0.40748 0.57877 0.0
H1321 H 0.59196 0.34085 0.70764 0.0
H1322 H 0.57552 0.38435 0.71682 0.0
H1323 H 0.54614 0.34755 0.7182 0.0
H1324 H 0.48919 0.48173 0.71516 0.0
H1325 H 0.42524 0.38826 0.71908 0.0
H1326 H 0.54274 0.46014 0.65193 0.0
H1327 H 0.56869 0.43925 0.68527 0.0
H1328 H 0.54764 0.48078 0.69439 0.0
H1329 H 0.46021 0.34228 0.6571 0.0
H1330 H 0.44756 0.33257 0.70144 0.0
H1331 H 0.49293 0.32811 0.68808 0.0
C1332 C 0.21174 0.59565 0.69481 0.0
C1333 C 0.22809 0.5726 0.67113 0.0
C1334 C 0.18377 0.61718 0.68419 0.0
C1335 C 0.17155 0.61563 0.64898 0.0
C1336 C 0.1867 0.59127 0.62528 0.0
C1337 C 0.21492 0.57007 0.63661 0.0
C1338 C 0.16837 0.64279 0.71038 0.0
C1339 C 0.17408 0.58858 0.58765 0.0
C1340 C 0.08524 0.66452 0.63729 0.0
C1341 C 0.09761 0.69835 0.62929 0.0
C1342 C 0.10881 0.63625 0.64107 0.0
C1343 C 0.14543 0.6421 0.63674 0.0
C1344 C 0.15758 0.67546 0.6257 0.0
C1345 C 0.13354 0.70313 0.62209 0.0
C1346 C 0.09478 0.60091 0.65233 0.0
C1347 C 0.19638 0.68282 0.62053 0.0
H1348 H 0.22137 0.59762 0.72164 0.0
H1349 H 0.22718 0.55217 0.61816 0.0
H1350 H 0.17393 0.67016 0.70201 0.0
H1351 H 0.13929 0.63965 0.71142 0.0
H1352 H 0.17936 0.63919 0.73726 0.0
H1353 H 0.18486 0.56504 0.57411 0.0
H1354 H 0.14484 0.58747 0.58637 0.0
H1355 H 0.1825 0.61235 0.57314 0.0
H1356 H 0.05749 0.66053 0.64268 0.0
H1357 H 0.14327 0.72904 0.61529 0.0
H1358 H 0.10057 0.59712 0.68067 0.0
H1359 H 0.10786 0.57931 0.63775 0.0
H1360 H 0.0658 0.59877 0.6482 0.0
H1361 H 0.21011 0.68285 0.6464 0.0
H1362 H 0.20103 0.70866 0.60787 0.0
H1363 H 0.2085 0.66195 0.60418 0.0
C1364 C 0.41504 0.84864 0.87882 0.0
C1365 C 0.42245 0.85614 0.91426 0.0
C1366 C 0.43934 0.85678 0.85253 0.0
C1367 C 0.47119 0.87402 0.86184 0.0
C1368 C 0.47958 0.87998 0.89782 0.0
C1369 C 0.45522 0.87046 0.92371 0.0
C1370 C 0.43 0.84866 0.81472 0.0
C1371 C 0.51315 0.89867 0.90885 0.0
C1372 C 0.54847 0.89391 0.80228 0.0
C1373 C 0.54219 0.9295 0.79514 0.0
C1374 C 0.52406 0.87419 0.82177 0.0
C1375 C 0.49314 0.89073 0.83435 0.0
C1376 C 0.48519 0.9255 0.8239 0.0
C1377 C 0.50964 0.94426 0.80406 0.0
C1378 C 0.53224 0.83643 0.83063 0.0
C1379 C 0.45259 0.94428 0.83665 0.0
H1380 H 0.38989 0.83683 0.87159 0.0
H1381 H 0.46096 0.87608 0.95113 0.0
H1382 H 0.42128 0.87308 0.80146 0.0
H1383 H 0.45329 0.83859 0.80046 0.0
H1384 H 0.40834 0.82897 0.81252 0.0
H1385 H 0.51767 0.89767 0.9377 0.0
H1386 H 0.53623 0.88695 0.89554 0.0
H1387 H 0.51166 0.92668 0.90086 0.0
H1388 H 0.57362 0.88241 0.79539 0.0
H1389 H 0.5047 0.97174 0.79828 0.0
H1390 H 0.51229 0.81896 0.81799 0.0
H1391 H 0.53058 0.83217 0.85935 0.0
H1392 H 0.55883 0.82842 0.8216 0.0
H1393 H 0.42867 0.92822 0.83123 0.0
H1394 H 0.44912 0.97038 0.82413 0.0
H1395 H 0.45449 0.94823 0.86551 0.0
C1396 C 0.95966 0.06719 0.28242 0.0
C1397 C 0.95968 0.03027 0.28201 0.0
C1398 C 0.98886 0.08603 0.29545 0.0
C1399 C 0.01863 0.06739 0.30797 0.0
C1400 C 0.02056 0.03052 0.30307 0.0
C1401 C 0.99095 0.01233 0.29013 0.0
C1402 C 0.98605 0.12544 0.29969 0.0
C1403 C 0.05216 0.00974 0.3154 0.0
C1404 C 0.09936 0.11474 0.34473 0.0
C1405 C 0.09255 0.11394 0.38092 0.0
C1406 C 0.07527 0.10034 0.32034 0.0
C1407 C 0.04376 0.08486 0.33253 0.0
C1408 C 0.03639 0.08473 0.36893 0.0
C1409 C 0.06088 0.09921 0.39264 0.0
C1410 C 0.08393 0.10089 0.28174 0.0
C1411 C 0.00285 0.06868 0.38299 0.0
H1412 H 0.93575 0.08133 0.27573 0.0
H1413 H 0.99141 0.98381 0.28912 0.0
H1414 H 0.01153 0.13854 0.29403 0.0
H1415 H 0.9653 0.13655 0.28223 0.0
H1416 H 0.97913 0.13175 0.32727 0.0
H1417 H 0.05246 0.98284 0.3038 0.0
H1418 H 0.07708 0.02336 0.30864 0.0
H1419 H 0.05141 0.00728 0.34441 0.0
H1420 H 0.1238 0.12609 0.33544 0.0
H1421 H 0.05527 0.09869 0.42049 0.0
H1422 H 0.06124 0.11094 0.26621 0.0
H1423 H 0.08918 0.0737 0.27245 0.0
H1424 H 0.10746 0.11739 0.27624 0.0
H1425 H 0.97951 0.08113 0.37049 0.0
H1426 H 0.00069 0.07174 0.41192 0.0
H1427 H 0.00189 0.04019 0.37647 0.0
loop_
_geom_bond_atom_site_label_1
_geom_bond_atom_site_label_2
_geom_bond_distance
_geom_bond_site_symmetry_2
_ccdc_geom_bond_type
O0 Zn1 1.953 . S
O0 C16 1.225 . S
Zn1 O0 1.953 . S
Zn1 O2 1.949 . S
Zn1 O8 1.919 . S
Zn1 O13 1.924 . S
O2 Zn1 1.949 . S
O2 Zn3 1.923 . S
O2 Zn4 1.950 . S
O2 Zn5 1.945 . S
Zn3 O2 1.923 . S
Zn3 O6 1.933 . S
Zn3 O9 1.941 . S
Zn3 O10 1.965 . S
Zn4 O2 1.950 . S
Zn4 O11 1.938 . S
Zn4 O12 1.906 . S
Zn4 O22 1.953 . S
Zn5 O2 1.945 . S
Zn5 O7 1.932 . S
Zn5 O14 1.977 . S
Zn5 O15 1.910 . S
O6 Zn3 1.933 . S
O6 C17 1.226 . S
O7 Zn5 1.932 . S
O7 C17 1.307 . S
O8 Zn1 1.919 . S
O8 C19 1.253 . S
O9 Zn3 1.941 . S
O9 C19 1.283 . S
O10 Zn3 1.965 . S
O10 C18 1.303 . S
O11 Zn4 1.938 . S
O11 C18 1.247 . S
O12 Zn4 1.906 . S
O12 C20 1.304 . S
O13 Zn1 1.924 . S
O13 C21 1.311 . S
O14 Zn5 1.977 . S
O14 C20 1.272 . S
O15 Zn5 1.910 . S
O15 C21 1.231 . S
C16 O0 1.225 . S
C16 O22 1.298 . S
C17 O6 1.226 . S
C17 O7 1.307 . S
C18 O10 1.303 . S
C18 O11 1.247 . S
C19 O8 1.253 . S
C19 O9 1.283 . S
C20 O12 1.304 . S
C20 O14 1.272 . S
C21 O13 1.311 . S
C21 O15 1.231 . S
O22 Zn4 1.953 . S
O22 C16 1.298 . S
O23 Zn24 1.953 . S
O23 C39 1.225 . S
Zn24 O23 1.953 . S
Zn24 O25 1.949 . S
Zn24 O31 1.919 . S
Zn24 O36 1.924 1_455 S
O25 Zn24 1.949 . S
O25 Zn26 1.923 . S
O25 Zn27 1.950 . S
O25 Zn28 1.945 . S
Zn26 O25 1.923 . S
Zn26 O29 1.933 . S
Zn26 O32 1.941 . S
Zn26 O33 1.965 . S
Zn27 O25 1.950 . S
Zn27 O34 1.938 . S
Zn27 O35 1.906 . S
Zn27 O45 1.953 . S
Zn28 O25 1.945 . S
Zn28 O30 1.932 1_455 S
Zn28 O37 1.977 . S
Zn28 O38 1.910 1_455 S
O29 Zn26 1.933 . S
O29 C40 1.226 1_455 S
O30 Zn28 1.932 1_655 S
O30 C40 1.307 . S
O31 Zn24 1.919 . S
O31 C42 1.254 . S
O32 Zn26 1.941 . S
O32 C42 1.287 . S
O33 Zn26 1.965 . S
O33 C41 1.303 . S
O34 Zn27 1.938 . S
O34 C41 1.247 . S
O35 Zn27 1.906 . S
O35 C43 1.304 . S
O36 Zn24 1.924 1_655 S
O36 C44 1.311 . S
O37 Zn28 1.977 . S
O37 C43 1.272 . S
O38 Zn28 1.910 1_655 S
O38 C44 1.231 . S
C39 O23 1.225 . S
C39 O45 1.298 . S
C40 O29 1.226 1_655 S
C40 O30 1.307 . S
C41 O33 1.303 . S
C41 O34 1.247 . S
C42 O31 1.254 . S
C42 O32 1.287 . S
C43 O35 1.304 . S
C43 O37 1.272 . S
C44 O36 1.311 . S
C44 O38 1.231 . S
O45 Zn27 1.953 . S
O45 C39 1.298 . S
O46 Zn47 1.953 . S
O46 C62 1.225 . S
Zn47 O46 1.953 . S
Zn47 O48 1.949 . S
Zn47 O54 1.919 . S
Zn47 O59 1.924 . S
O48 Zn47 1.949 . S
O48 Zn49 1.923 1_556 S
O48 Zn50 1.950 . S
O48 Zn51 1.945 . S
Zn49 O48 1.923 1_554 S
Zn49 O52 1.933 . S
Zn49 O55 1.941 . S
Zn49 O56 1.965 . S
Zn50 O48 1.950 . S
Zn50 O57 1.938 . S
Zn50 O58 1.906 . S
Zn50 O68 1.953 . S
Zn51 O48 1.945 . S
Zn51 O53 1.932 . S
Zn51 O60 1.977 . S
Zn51 O61 1.910 . S
O52 Zn49 1.933 . S
O52 C63 1.226 1_554 S
O53 Zn51 1.932 . S
O53 C63 1.307 . S
O54 Zn47 1.919 . S
O54 C65 1.253 1_556 S
O55 Zn49 1.941 . S
O55 C65 1.283 . S
O56 Zn49 1.965 . S
O56 C64 1.303 . S
O57 Zn50 1.938 . S
O57 C64 1.247 1_556 S
O58 Zn50 1.906 . S
O58 C66 1.304 . S
O59 Zn47 1.924 . S
O59 C67 1.311 . S
O60 Zn51 1.977 . S
O60 C66 1.272 . S
O61 Zn51 1.910 . S
O61 C67 1.231 . S
C62 O46 1.225 . S
C62 O68 1.298 . S
C63 O52 1.226 1_556 S
C63 O53 1.307 . S
C64 O56 1.303 . S
C64 O57 1.247 1_554 S
C65 O54 1.253 1_554 S
C65 O55 1.283 . S
C66 O58 1.304 . S
C66 O60 1.272 . S
C67 O59 1.311 . S
C67 O61 1.231 . S
O68 Zn50 1.953 . S
O68 C62 1.298 . S
O69 Zn70 1.953 . S
O69 C85 1.225 . S
Zn70 O69 1.953 . S
Zn70 O71 1.949 . S
Zn70 O77 1.919 . S
Zn70 O82 1.924 . S
O71 Zn70 1.949 . S
O71 Zn72 1.923 . S
O71 Zn73 1.950 . S
O71 Zn74 1.945 . S
Zn72 O71 1.923 . S
Zn72 O75 1.933 . S
Zn72 O78 1.941 . S
Zn72 O79 1.965 . S
Zn73 O71 1.950 . S
Zn73 O80 1.938 . S
Zn73 O81 1.906 . S
Zn73 O91 1.953 . S
Zn74 O71 1.945 . S
Zn74 O76 1.932 . S
Zn74 O83 1.977 . S
Zn74 O84 1.910 . S
O75 Zn72 1.933 . S
O75 C86 1.226 . S
O76 Zn74 1.932 . S
O76 C86 1.307 . S
O77 Zn70 1.919 . S
O77 C88 1.253 . S
O78 Zn72 1.941 . S
O78 C88 1.283 . S
O79 Zn72 1.965 . S
O79 C87 1.303 . S
O80 Zn73 1.938 . S
O80 C87 1.247 . S
O81 Zn73 1.906 . S
O81 C89 1.304 . S
O82 Zn70 1.924 . S
O82 C90 1.311 . S
O83 Zn74 1.977 . S
O83 C89 1.272 . S
O84 Zn74 1.910 . S
O84 C90 1.231 . S
C85 O69 1.225 . S
C85 O91 1.298 . S
C86 O75 1.226 . S
C86 O76 1.307 . S
C87 O79 1.303 . S
C87 O80 1.247 . S
C88 O77 1.253 . S
C88 O78 1.283 . S
C89 O81 1.304 . S
C89 O83 1.272 . S
C90 O82 1.311 . S
C90 O84 1.231 . S
O91 Zn73 1.953 . S
O91 C85 1.298 . S
O92 Zn93 1.953 . S
O92 C108 1.225 . S
Zn93 O92 1.953 . S
Zn93 O94 1.949 . S
Zn93 O100 1.919 . S
Zn93 O105 1.924 . S
O94 Zn93 1.949 . S
O94 Zn95 1.923 . S
O94 Zn96 1.950 . S
O94 Zn97 1.945 . S
Zn95 O94 1.923 . S
Zn95 O98 1.933 . S
Zn95 O101 1.941 . S
Zn95 O102 1.965 . S
Zn96 O94 1.950 . S
Zn96 O103 1.938 . S
Zn96 O104 1.906 . S
Zn96 O114 1.953 . S
Zn97 O94 1.945 . S
Zn97 O99 1.932 . S
Zn97 O106 1.977 . S
Zn97 O107 1.910 . S
O98 Zn95 1.933 . S
O98 C109 1.226 . S
O99 Zn97 1.932 . S
O99 C109 1.307 . S
O100 Zn93 1.919 . S
O100 C111 1.253 . S
O101 Zn95 1.941 . S
O101 C111 1.283 . S
O102 Zn95 1.965 . S
O102 C110 1.303 . S
O103 Zn96 1.938 . S
O103 C110 1.247 . S
O104 Zn96 1.906 . S
O104 C112 1.304 . S
O105 Zn93 1.924 . S
O105 C113 1.311 . S
O106 Zn97 1.977 . S
O106 C112 1.272 . S
O107 Zn97 1.910 . S
O107 C113 1.231 . S
C108 O92 1.225 . S
C108 O114 1.298 . S
C109 O98 1.226 . S
C109 O99 1.307 . S
C110 O102 1.303 . S
C110 O103 1.247 . S
C111 O100 1.253 . S
C111 O101 1.283 . S
C112 O104 1.304 . S
C112 O106 1.272 . S
C113 O105 1.311 . S
C113 O107 1.231 . S
O114 Zn96 1.953 . S
O114 C108 1.298 . S
O115 Zn116 1.953 . S
O115 C131 1.225 . S
Zn116 O115 1.953 . S
Zn116 O117 1.949 . S
Zn116 O123 1.919 . S
Zn116 O128 1.935 . S
O117 Zn116 1.949 . S
O117 Zn118 1.923 . S
O117 Zn119 1.950 . S
O117 Zn120 1.945 . S
Zn118 O117 1.923 . S
Zn118 O121 1.933 . S
Zn118 O124 1.941 . S
Zn118 O125 1.965 . S
Zn119 O117 1.950 . S
Zn119 O126 1.938 . S
Zn119 O127 1.906 . S
Zn119 O137 1.953 . S
Zn120 O117 1.945 . S
Zn120 O122 1.932 1_655 S
Zn120 O129 1.977 . S
Zn120 O130 1.910 1_655 S
O121 Zn118 1.933 . S
O121 C132 1.226 1_655 S
O122 Zn120 1.932 1_455 S
O122 C132 1.307 . S
O123 Zn116 1.919 . S
O123 C134 1.253 . S
O124 Zn118 1.941 . S
O124 C134 1.283 . S
O125 Zn118 1.965 . S
O125 C133 1.303 . S
O126 Zn119 1.938 . S
O126 C133 1.247 . S
O127 Zn119 1.906 . S
O127 C135 1.304 . S
O128 Zn116 1.935 . S
O128 C136 1.306 1_655 S
O129 Zn120 1.977 . S
O129 C135 1.272 . S
O130 Zn120 1.910 1_455 S
O130 C136 1.231 . S
C131 O115 1.225 . S
C131 O137 1.298 . S
C132 O121 1.226 1_455 S
C132 O122 1.307 . S
C133 O125 1.303 . S
C133 O126 1.247 . S
C134 O123 1.253 . S
C134 O124 1.283 . S
C135 O127 1.304 . S
C135 O129 1.272 . S
C136 O128 1.306 1_455 S
C136 O130 1.231 . S
O137 Zn119 1.953 . S
O137 C131 1.298 . S
O138 Zn139 1.953 . S
O138 C154 1.225 . S
Zn139 O138 1.953 . S
Zn139 O140 1.949 . S
Zn139 O146 1.919 . S
Zn139 O151 1.924 . S
O140 Zn139 1.949 . S
O140 Zn141 1.923 1_554 S
O140 Zn142 1.950 . S
O140 Zn143 1.945 . S
Zn141 O140 1.923 1_556 S
Zn141 O144 1.933 . S
Zn141 O147 1.941 . S
Zn141 O148 1.965 . S
Zn142 O140 1.950 . S
Zn142 O149 1.938 . S
Zn142 O150 1.906 . S
Zn142 O160 1.953 . S
Zn143 O140 1.945 . S
Zn143 O145 1.932 . S
Zn143 O152 1.977 . S
Zn143 O153 1.910 . S
O144 Zn141 1.933 . S
O144 C155 1.226 . S
O145 Zn143 1.932 . S
O145 C155 1.307 1_554 S
O146 Zn139 1.919 . S
O146 C157 1.253 1_554 S
O147 Zn141 1.941 . S
O147 C157 1.283 . S
O148 Zn141 1.965 . S
O148 C156 1.303 . S
O149 Zn142 1.938 . S
O149 C156 1.247 1_554 S
O150 Zn142 1.906 . S
O150 C158 1.304 . S
O151 Zn139 1.924 . S
O151 C159 1.311 . S
O152 Zn143 1.977 . S
O152 C158 1.272 . S
O153 Zn143 1.910 . S
O153 C159 1.231 . S
C154 O138 1.225 . S
C154 O160 1.298 . S
C155 O144 1.226 . S
C155 O145 1.307 1_556 S
C156 O148 1.303 . S
C156 O149 1.247 1_556 S
C157 O146 1.253 1_556 S
C157 O147 1.283 . S
C158 O150 1.304 . S
C158 O152 1.272 . S
C159 O151 1.311 . S
C159 O153 1.231 . S
O160 Zn142 1.953 . S
O160 C154 1.298 . S
O161 Zn162 1.953 . S
O161 C177 1.225 . S
Zn162 O161 1.953 . S
Zn162 O163 1.949 . S
Zn162 O169 1.919 . S
Zn162 O174 1.924 . S
O163 Zn162 1.949 . S
O163 Zn164 1.923 . S
O163 Zn165 1.950 . S
O163 Zn166 1.945 . S
Zn164 O163 1.923 . S
Zn164 O167 1.933 . S
Zn164 O170 1.941 . S
Zn164 O171 1.965 . S
Zn165 O163 1.950 . S
Zn165 O172 1.938 . S
Zn165 O173 1.906 . S
Zn165 O183 1.953 . S
Zn166 O163 1.945 . S
Zn166 O168 1.932 . S
Zn166 O175 1.977 . S
Zn166 O176 1.910 . S
O167 Zn164 1.933 . S
O167 C178 1.226 . S
O168 Zn166 1.932 . S
O168 C178 1.307 . S
O169 Zn162 1.919 . S
O169 C180 1.253 . S
O170 Zn164 1.941 . S
O170 C180 1.283 . S
O171 Zn164 1.965 . S
O171 C179 1.303 . S
O172 Zn165 1.938 . S
O172 C179 1.247 . S
O173 Zn165 1.906 . S
O173 C181 1.304 . S
O174 Zn162 1.924 . S
O174 C182 1.311 . S
O175 Zn166 1.977 . S
O175 C181 1.272 . S
O176 Zn166 1.910 . S
O176 C182 1.231 . S
C177 O161 1.225 . S
C177 O183 1.298 . S
C178 O167 1.226 . S
C178 O168 1.307 . S
C179 O171 1.303 . S
C179 O172 1.247 . S
C180 O169 1.253 . S
C180 O170 1.283 . S
C181 O173 1.304 . S
C181 O175 1.272 . S
C182 O174 1.311 . S
C182 O176 1.231 . S
O183 Zn165 1.953 . S
O183 C177 1.298 . S
O184 Zn185 1.953 . S
O184 C200 1.225 . S
Zn185 O184 1.953 . S
Zn185 O186 1.949 . S
Zn185 O192 1.919 . S
Zn185 O197 1.924 . S
O186 Zn185 1.949 . S
O186 Zn187 1.923 . S
O186 Zn188 1.950 . S
O186 Zn189 1.945 . S
Zn187 O186 1.923 . S
Zn187 O190 1.933 . S
Zn187 O193 1.941 . S
Zn187 O194 1.965 . S
Zn188 O186 1.950 . S
Zn188 O195 1.938 . S
Zn188 O196 1.906 . S
Zn188 O206 1.953 . S
Zn189 O186 1.945 . S
Zn189 O191 1.932 . S
Zn189 O198 1.977 . S
Zn189 O199 1.910 . S
O190 Zn187 1.933 . S
O190 C201 1.226 . S
O191 Zn189 1.932 . S
O191 C201 1.307 . S
O192 Zn185 1.919 . S
O192 C203 1.253 . S
O193 Zn187 1.941 . S
O193 C203 1.283 . S
O194 Zn187 1.965 . S
O194 C202 1.303 . S
O195 Zn188 1.938 . S
O195 C202 1.247 . S
O196 Zn188 1.906 . S
O196 C204 1.304 . S
O197 Zn185 1.924 . S
O197 C205 1.311 . S
O198 Zn189 1.977 . S
O198 C204 1.272 . S
O199 Zn189 1.910 . S
O199 C205 1.231 . S
C200 O184 1.225 . S
C200 O206 1.298 . S
C201 O190 1.226 . S
C201 O191 1.307 . S
C202 O194 1.303 . S
C202 O195 1.247 . S
C203 O192 1.253 . S
C203 O193 1.283 . S
C204 O196 1.304 . S
C204 O198 1.272 . S
C205 O197 1.311 . S
C205 O199 1.231 . S
O206 Zn188 1.953 . S
O206 C200 1.298 . S
O207 Zn208 1.953 . S
O207 C223 1.225 . S
Zn208 O207 1.953 . S
Zn208 O209 1.949 . S
Zn208 O215 1.919 . S
Zn208 O220 1.924 . S
O209 Zn208 1.949 . S
O209 Zn210 1.923 . S
O209 Zn211 1.950 . S
O209 Zn212 1.945 . S
Zn210 O209 1.923 . S
Zn210 O213 1.933 . S
Zn210 O216 1.941 . S
Zn210 O217 1.965 . S
Zn211 O209 1.950 . S
Zn211 O218 1.938 . S
Zn211 O219 1.906 1_545 S
Zn211 O229 1.953 1_545 S
Zn212 O209 1.945 . S
Zn212 O214 1.932 . S
Zn212 O221 1.977 1_545 S
Zn212 O222 1.910 1_545 S
O213 Zn210 1.933 . S
O213 C224 1.226 . S
O214 Zn212 1.932 . S
O214 C224 1.307 . S
O215 Zn208 1.919 . S
O215 C226 1.253 . S
O216 Zn210 1.941 . S
O216 C226 1.283 . S
O217 Zn210 1.965 . S
O217 C225 1.303 . S
O218 Zn211 1.938 . S
O218 C225 1.247 . S
O219 Zn211 1.906 1_565 S
O219 C227 1.304 . S
O220 Zn208 1.924 . S
O220 C228 1.311 1_545 S
O221 Zn212 1.977 1_565 S
O221 C227 1.272 . S
O222 Zn212 1.910 1_565 S
O222 C228 1.231 . S
C223 O207 1.225 . S
C223 O229 1.298 1_545 S
C224 O213 1.226 . S
C224 O214 1.307 . S
C225 O217 1.303 . S
C225 O218 1.247 . S
C226 O215 1.253 . S
C226 O216 1.283 . S
C227 O219 1.304 . S
C227 O221 1.272 . S
C228 O220 1.311 1_565 S
C228 O222 1.231 . S
O229 Zn211 1.953 1_565 S
O229 C223 1.298 1_565 S
O230 Zn231 1.953 . S
O230 C246 1.225 . S
Zn231 O230 1.953 . S
Zn231 O232 1.949 . S
Zn231 O238 1.919 . S
Zn231 O243 1.924 . S
O232 Zn231 1.949 . S
O232 Zn233 1.923 1_565 S
O232 Zn234 1.950 . S
O232 Zn235 1.945 . S
Zn233 O232 1.923 1_545 S
Zn233 O236 1.933 . S
Zn233 O239 1.941 . S
Zn233 O240 1.965 . S
Zn234 O232 1.950 . S
Zn234 O241 1.938 . S
Zn234 O242 1.906 . S
Zn234 O252 1.953 . S
Zn235 O232 1.945 . S
Zn235 O237 1.932 . S
Zn235 O244 1.977 . S
Zn235 O245 1.910 . S
O236 Zn233 1.933 . S
O236 C247 1.226 1_545 S
O237 Zn235 1.932 . S
O237 C247 1.307 . S
O238 Zn231 1.919 . S
O238 C249 1.253 1_565 S
O239 Zn233 1.941 . S
O239 C249 1.283 . S
O240 Zn233 1.965 . S
O240 C248 1.303 . S
O241 Zn234 1.938 . S
O241 C248 1.247 1_565 S
O242 Zn234 1.906 . S
O242 C250 1.304 . S
O243 Zn231 1.924 . S
O243 C251 1.311 . S
O244 Zn235 1.977 . S
O244 C250 1.272 . S
O245 Zn235 1.910 . S
O245 C251 1.231 . S
C246 O230 1.225 . S
C246 O252 1.298 . S
C247 O236 1.226 1_565 S
C247 O237 1.307 . S
C248 O240 1.303 . S
C248 O241 1.247 1_545 S
C249 O238 1.253 1_545 S
C249 O239 1.283 . S
C250 O242 1.304 . S
C250 O244 1.272 . S
C251 O243 1.311 . S
C251 O245 1.231 . S
O252 Zn234 1.953 . S
O252 C246 1.298 . S
O253 Zn254 1.953 . S
O253 C269 1.225 . S
Zn254 O253 1.953 . S
Zn254 O255 1.949 . S
Zn254 O261 1.919 . S
Zn254 O266 1.924 . S
O255 Zn254 1.949 . S
O255 Zn256 1.923 . S
O255 Zn257 1.950 . S
O255 Zn258 1.945 . S
Zn256 O255 1.923 . S
Zn256 O259 1.933 . S
Zn256 O262 1.941 . S
Zn256 O263 1.965 . S
Zn257 O255 1.950 . S
Zn257 O264 1.938 . S
Zn257 O265 1.906 . S
Zn257 O275 1.953 . S
Zn258 O255 1.945 . S
Zn258 O260 1.932 . S
Zn258 O267 1.977 . S
Zn258 O268 1.910 . S
O259 Zn256 1.933 . S
O259 C270 1.226 . S
O260 Zn258 1.932 . S
O260 C270 1.307 . S
O261 Zn254 1.919 . S
O261 C272 1.253 . S
O262 Zn256 1.941 . S
O262 C272 1.283 . S
O263 Zn256 1.965 . S
O263 C271 1.303 . S
O264 Zn257 1.938 . S
O264 C271 1.247 . S
O265 Zn257 1.906 . S
O265 C273 1.304 . S
O266 Zn254 1.924 . S
O266 C274 1.311 . S
O267 Zn258 1.977 . S
O267 C273 1.272 . S
O268 Zn258 1.910 . S
O268 C274 1.231 . S
C269 O253 1.225 . S
C269 O275 1.298 . S
C270 O259 1.226 . S
C270 O260 1.307 . S
C271 O263 1.303 . S
C271 O264 1.247 . S
C272 O261 1.253 . S
C272 O262 1.283 . S
C273 O265 1.304 . S
C273 O267 1.272 . S
C274 O266 1.311 . S
C274 O268 1.231 . S
O275 Zn257 1.953 . S
O275 C269 1.298 . S
C276 C277 1.391 . S
C276 C278 1.394 . S
C276 H292 0.931 . S
C277 C276 1.391 . S
C277 C281 1.376 . S
C278 C276 1.394 . S
C278 C279 1.369 . S
C278 C282 1.531 . S
C279 C278 1.369 . S
C279 C280 1.410 . S
C279 C287 1.503 . S
C280 C279 1.410 . S
C280 C281 1.392 . S
C280 C283 1.511 . S
C281 C277 1.376 . S
C281 C280 1.392 . S
C281 H293 0.929 . S
C282 C278 1.531 . S
C282 H294 0.960 . S
C282 H295 0.962 . S
C282 H296 0.960 . S
C283 C280 1.511 . S
C283 H297 0.961 . S
C283 H298 0.961 . S
C283 H299 0.961 . S
C284 C285 1.370 . S
C284 C286 1.363 . S
C284 H300 0.931 . S
C285 C284 1.370 . S
C285 C289 1.408 . S
C286 C284 1.363 . S
C286 C287 1.370 . S
C286 C290 1.524 . S
C287 C279 1.503 . S
C287 C286 1.370 . S
C287 C288 1.403 . S
C288 C287 1.403 . S
C288 C289 1.404 . S
C288 C291 1.539 . S
C289 C285 1.408 . S
C289 C288 1.404 . S
C289 H301 0.930 . S
C290 C286 1.524 . S
C290 H302 0.956 . S
C290 H303 0.961 . S
C290 H304 0.961 . S
C291 C288 1.539 . S
C291 H305 0.958 . S
C291 H306 0.961 . S
C291 H307 0.960 . S
H292 C276 0.931 . S
H293 C281 0.929 . S
H294 C282 0.960 . S
H295 C282 0.962 . S
H296 C282 0.960 . S
H297 C283 0.961 . S
H298 C283 0.961 . S
H299 C283 0.961 . S
H300 C284 0.931 . S
H301 C289 0.930 . S
H302 C290 0.956 . S
H303 C290 0.961 . S
H304 C290 0.961 . S
H305 C291 0.958 . S
H306 C291 0.961 . S
H307 C291 0.960 . S
C308 C309 1.391 . S
C308 C310 1.394 . S
C308 H324 0.931 . S
C309 C308 1.391 . S
C309 C313 1.376 1_565 S
C310 C308 1.394 . S
C310 C311 1.369 . S
C310 C314 1.531 . S
C311 C310 1.369 . S
C311 C312 1.410 1_565 S
C311 C319 1.503 . S
C312 C311 1.410 1_545 S
C312 C313 1.392 . S
C312 C315 1.511 . S
C313 C309 1.376 1_545 S
C313 C312 1.392 . S
C313 H325 0.929 . S
C314 C310 1.531 . S
C314 H326 0.960 . S
C314 H327 0.962 . S
C314 H328 0.960 . S
C315 C312 1.511 . S
C315 H329 0.961 . S
C315 H330 0.961 . S
C315 H331 0.961 . S
C316 C317 1.370 . S
C316 C318 1.363 . S
C316 H332 0.931 . S
C317 C316 1.370 . S
C317 C321 1.408 . S
C318 C316 1.363 . S
C318 C319 1.370 . S
C318 C322 1.524 . S
C319 C311 1.503 . S
C319 C318 1.370 . S
C319 C320 1.403 . S
C320 C319 1.403 . S
C320 C321 1.404 . S
C320 C323 1.539 . S
C321 C317 1.408 . S
C321 C320 1.404 . S
C321 H333 0.930 . S
C322 C318 1.524 . S
C322 H334 0.956 . S
C322 H335 0.961 . S
C322 H336 0.961 . S
C323 C320 1.539 . S
C323 H337 0.958 . S
C323 H338 0.961 . S
C323 H339 0.960 . S
H324 C308 0.931 . S
H325 C313 0.929 . S
H326 C314 0.960 . S
H327 C314 0.962 . S
H328 C314 0.960 . S
H329 C315 0.961 . S
H330 C315 0.961 . S
H331 C315 0.961 . S
H332 C316 0.931 . S
H333 C321 0.930 . S
H334 C322 0.956 . S
H335 C322 0.961 . S
H336 C322 0.961 . S
H337 C323 0.958 . S
H338 C323 0.961 . S
H339 C323 0.960 . S
C340 C341 1.391 1_556 S
C340 C342 1.394 . S
C340 H356 0.931 . S
C341 C340 1.391 1_554 S
C341 C345 1.376 . S
C342 C340 1.394 . S
C342 C343 1.369 1_556 S
C342 C346 1.531 . S
C343 C342 1.369 1_554 S
C343 C344 1.410 . S
C343 C351 1.503 . S
C344 C343 1.410 . S
C344 C345 1.392 . S
C344 C347 1.511 . S
C345 C341 1.376 . S
C345 C344 1.392 . S
C345 H357 0.929 . S
C346 C342 1.531 . S
C346 H358 0.960 . S
C346 H359 0.962 . S
C346 H360 0.960 . S
C347 C344 1.511 . S
C347 H361 0.961 . S
C347 H362 0.961 . S
C347 H363 0.961 . S
C348 C349 1.370 . S
C348 C350 1.363 . S
C348 H364 0.931 . S
C349 C348 1.370 . S
C349 C353 1.408 . S
C350 C348 1.363 . S
C350 C351 1.370 . S
C350 C354 1.524 . S
C351 C343 1.503 . S
C351 C350 1.370 . S
C351 C352 1.403 . S
C352 C351 1.403 . S
C352 C353 1.404 . S
C352 C355 1.539 1_554 S
C353 C349 1.408 . S
C353 C352 1.404 . S
C353 H365 0.930 . S
C354 C350 1.524 . S
C354 H366 0.956 . S
C354 H367 0.961 . S
C354 H368 0.961 . S
C355 C352 1.539 1_556 S
C355 H369 0.958 . S
C355 H370 0.961 . S
C355 H371 0.960 . S
H356 C340 0.931 . S
H357 C345 0.929 . S
H358 C346 0.960 . S
H359 C346 0.962 . S
H360 C346 0.960 . S
H361 C347 0.961 . S
H362 C347 0.961 . S
H363 C347 0.961 . S
H364 C348 0.931 . S
H365 C353 0.930 . S
H366 C354 0.956 . S
H367 C354 0.961 . S
H368 C354 0.961 . S
H369 C355 0.958 . S
H370 C355 0.961 . S
H371 C355 0.960 . S
C372 C373 1.391 . S
C372 C374 1.394 . S
C372 H388 0.931 . S
C373 C372 1.391 . S
C373 C377 1.376 . S
C374 C372 1.394 . S
C374 C375 1.369 . S
C374 C378 1.531 . S
C375 C374 1.369 . S
C375 C376 1.410 . S
C375 C383 1.503 . S
C376 C375 1.410 . S
C376 C377 1.392 . S
C376 C379 1.511 1_545 S
C377 C373 1.376 . S
C377 C376 1.392 . S
C377 H389 0.929 . S
C378 C374 1.531 . S
C378 H390 0.960 . S
C378 H391 0.962 . S
C378 H392 0.960 . S
C379 C376 1.511 1_565 S
C379 H393 0.961 . S
C379 H394 0.961 . S
C379 H395 0.961 . S
C380 C381 1.370 . S
C380 C382 1.363 . S
C380 H396 0.931 . S
C381 C380 1.370 . S
C381 C385 1.408 . S
C382 C380 1.363 . S
C382 C383 1.370 . S
C382 C386 1.524 . S
C383 C375 1.503 . S
C383 C382 1.370 . S
C383 C384 1.403 . S
C384 C383 1.403 . S
C384 C385 1.404 . S
C384 C387 1.539 . S
C385 C381 1.408 . S
C385 C384 1.404 . S
C385 H397 0.930 1_545 S
C386 C382 1.524 . S
C386 H398 0.956 . S
C386 H399 0.961 . S
C386 H400 0.961 . S
C387 C384 1.539 . S
C387 H401 0.958 . S
C387 H402 0.961 1_545 S
C387 H403 0.960 . S
H388 C372 0.931 . S
H389 C377 0.929 . S
H390 C378 0.960 . S
H391 C378 0.962 . S
H392 C378 0.960 . S
H393 C379 0.961 . S
H394 C379 0.961 . S
H395 C379 0.961 . S
H396 C380 0.931 . S
H397 C385 0.930 1_565 S
H398 C386 0.956 . S
H399 C386 0.961 . S
H400 C386 0.961 . S
H401 C387 0.958 . S
H402 C387 0.961 1_565 S
H403 C387 0.960 . S
C404 C405 1.391 . S
C404 C406 1.394 . S
C404 H420 0.931 . S
C405 C404 1.391 . S
C405 C409 1.376 . S
C406 C404 1.394 . S
C406 C407 1.369 . S
C406 C410 1.531 . S
C407 C406 1.369 . S
C407 C408 1.410 . S
C407 C415 1.503 . S
C408 C407 1.410 . S
C408 C409 1.392 . S
C408 C411 1.511 . S
C409 C405 1.376 . S
C409 C408 1.392 . S
C409 H421 0.929 . S
C410 C406 1.531 . S
C410 H422 0.960 . S
C410 H423 0.962 . S
C410 H424 0.960 . S
C411 C408 1.511 . S
C411 H425 0.961 . S
C411 H426 0.961 . S
C411 H427 0.961 . S
C412 C413 1.370 . S
C412 C414 1.363 . S
C412 H428 0.931 . S
C413 C412 1.370 . S
C413 C417 1.408 . S
C414 C412 1.363 . S
C414 C415 1.370 . S
C414 C418 1.524 . S
C415 C407 1.503 . S
C415 C414 1.370 . S
C415 C416 1.403 . S
C416 C415 1.403 . S
C416 C417 1.404 . S
C416 C419 1.539 . S
C417 C413 1.408 . S
C417 C416 1.404 . S
C417 H429 0.930 . S
C418 C414 1.524 . S
C418 H430 0.956 . S
C418 H431 0.961 . S
C418 H432 0.961 . S
C419 C416 1.539 . S
C419 H433 0.958 . S
C419 H434 0.961 . S
C419 H435 0.960 . S
H420 C404 0.931 . S
H421 C409 0.929 . S
H422 C410 0.960 . S
H423 C410 0.962 . S
H424 C410 0.960 . S
H425 C411 0.961 . S
H426 C411 0.961 . S
H427 C411 0.961 . S
H428 C412 0.931 . S
H429 C417 0.930 . S
H430 C418 0.956 . S
H431 C418 0.961 . S
H432 C418 0.961 . S
H433 C419 0.958 . S
H434 C419 0.961 . S
H435 C419 0.960 . S
C436 C437 1.391 . S
C436 C438 1.394 . S
C436 H452 0.931 . S
C437 C436 1.391 . S
C437 C441 1.376 . S
C438 C436 1.394 . S
C438 C439 1.369 . S
C438 C442 1.531 . S
C439 C438 1.369 . S
C439 C440 1.410 . S
C439 C447 1.503 . S
C440 C439 1.410 . S
C440 C441 1.392 . S
C440 C443 1.511 . S
C441 C437 1.376 . S
C441 C440 1.392 . S
C441 H453 0.929 . S
C442 C438 1.531 . S
C442 H454 0.960 . S
C442 H455 0.962 . S
C442 H456 0.960 . S
C443 C440 1.511 . S
C443 H457 0.961 . S
C443 H458 0.961 . S
C443 H459 0.961 . S
C444 C445 1.370 . S
C444 C446 1.363 . S
C444 H460 0.931 . S
C445 C444 1.370 . S
C445 C449 1.408 . S
C446 C444 1.363 . S
C446 C447 1.370 . S
C446 C450 1.524 . S
C447 C439 1.503 . S
C447 C446 1.370 . S
C447 C448 1.403 . S
C448 C447 1.403 . S
C448 C449 1.404 . S
C448 C451 1.539 . S
C449 C445 1.408 . S
C449 C448 1.404 . S
C449 H461 0.930 . S
C450 C446 1.524 . S
C450 H462 0.956 . S
C450 H463 0.961 . S
C450 H464 0.961 . S
C451 C448 1.539 . S
C451 H465 0.958 . S
C451 H466 0.961 . S
C451 H467 0.960 . S
H452 C436 0.931 . S
H453 C441 0.929 . S
H454 C442 0.960 . S
H455 C442 0.962 . S
H456 C442 0.960 . S
H457 C443 0.961 . S
H458 C443 0.961 . S
H459 C443 0.961 . S
H460 C444 0.931 . S
H461 C449 0.930 . S
H462 C450 0.956 . S
H463 C450 0.961 . S
H464 C450 0.961 . S
H465 C451 0.958 . S
H466 C451 0.961 . S
H467 C451 0.960 . S
C468 C469 1.391 . S
C468 C470 1.394 . S
C468 H484 0.931 . S
C469 C468 1.391 . S
C469 C473 1.376 . S
C470 C468 1.394 . S
C470 C471 1.369 . S
C470 C474 1.531 . S
C471 C470 1.369 . S
C471 C472 1.410 . S
C471 C479 1.503 . S
C472 C471 1.410 . S
C472 C473 1.392 . S
C472 C475 1.511 . S
C473 C469 1.376 . S
C473 C472 1.392 . S
C473 H485 0.929 . S
C474 C470 1.531 . S
C474 H486 0.960 1_556 S
C474 H487 0.962 . S
C474 H488 0.960 1_556 S
C475 C472 1.511 . S
C475 H489 0.961 . S
C475 H490 0.961 . S
C475 H491 0.961 . S
C476 C477 1.370 . S
C476 C478 1.363 . S
C476 H492 0.931 . S
C477 C476 1.370 . S
C477 C481 1.408 1_556 S
C478 C476 1.363 . S
C478 C479 1.370 . S
C478 C482 1.524 . S
C479 C471 1.503 . S
C479 C478 1.370 . S
C479 C480 1.403 . S
C480 C479 1.403 . S
C480 C481 1.404 1_556 S
C480 C483 1.539 1_556 S
C481 C477 1.408 1_554 S
C481 C480 1.404 1_554 S
C481 H493 0.930 . S
C482 C478 1.524 . S
C482 H494 0.956 . S
C482 H495 0.961 . S
C482 H496 0.961 . S
C483 C480 1.539 1_554 S
C483 H497 0.958 . S
C483 H498 0.961 . S
C483 H499 0.960 . S
H484 C468 0.931 . S
H485 C473 0.929 . S
H486 C474 0.960 1_554 S
H487 C474 0.962 . S
H488 C474 0.960 1_554 S
H489 C475 0.961 . S
H490 C475 0.961 . S
H491 C475 0.961 . S
H492 C476 0.931 . S
H493 C481 0.930 . S
H494 C482 0.956 . S
H495 C482 0.961 . S
H496 C482 0.961 . S
H497 C483 0.958 . S
H498 C483 0.961 . S
H499 C483 0.960 . S
C500 C501 1.391 . S
C500 C502 1.394 . S
C500 H516 0.931 . S
C501 C500 1.391 . S
C501 C505 1.376 . S
C502 C500 1.394 . S
C502 C503 1.369 . S
C502 C506 1.531 . S
C503 C502 1.369 . S
C503 C504 1.410 . S
C503 C511 1.503 . S
C504 C503 1.410 . S
C504 C505 1.392 . S
C504 C507 1.511 . S
C505 C501 1.376 . S
C505 C504 1.392 . S
C505 H517 0.929 . S
C506 C502 1.531 . S
C506 H518 0.960 . S
C506 H519 0.962 . S
C506 H520 0.960 . S
C507 C504 1.511 . S
C507 H521 0.961 . S
C507 H522 0.961 . S
C507 H523 0.961 . S
C508 C509 1.370 . S
C508 C510 1.363 . S
C508 H524 0.931 . S
C509 C508 1.370 . S
C509 C513 1.408 . S
C510 C508 1.363 . S
C510 C511 1.370 . S
C510 C514 1.524 . S
C511 C503 1.503 . S
C511 C510 1.370 . S
C511 C512 1.403 . S
C512 C511 1.403 . S
C512 C513 1.404 . S
C512 C515 1.539 . S
C513 C509 1.408 . S
C513 C512 1.404 . S
C513 H525 0.930 . S
C514 C510 1.524 . S
C514 H526 0.956 . S
C514 H527 0.961 . S
C514 H528 0.961 . S
C515 C512 1.539 . S
C515 H529 0.958 . S
C515 H530 0.961 . S
C515 H531 0.960 . S
H516 C500 0.931 . S
H517 C505 0.929 . S
H518 C506 0.960 . S
H519 C506 0.962 . S
H520 C506 0.960 . S
H521 C507 0.961 . S
H522 C507 0.961 . S
H523 C507 0.961 . S
H524 C508 0.931 . S
H525 C513 0.930 . S
H526 C514 0.956 . S
H527 C514 0.961 . S
H528 C514 0.961 . S
H529 C515 0.958 . S
H530 C515 0.961 . S
H531 C515 0.960 . S
C532 C533 1.391 . S
C532 C534 1.394 . S
C532 H548 0.931 . S
C533 C532 1.391 . S
C533 C537 1.376 . S
C534 C532 1.394 . S
C534 C535 1.369 . S
C534 C538 1.531 . S
C535 C534 1.369 . S
C535 C536 1.410 . S
C535 C543 1.503 . S
C536 C535 1.410 . S
C536 C537 1.392 . S
C536 C539 1.511 . S
C537 C533 1.376 . S
C537 C536 1.392 . S
C537 H549 0.929 . S
C538 C534 1.531 . S
C538 H550 0.960 . S
C538 H551 0.962 . S
C538 H552 0.960 . S
C539 C536 1.511 . S
C539 H553 0.961 . S
C539 H554 0.961 . S
C539 H555 0.961 . S
C540 C541 1.370 . S
C540 C542 1.363 . S
C540 H556 0.931 . S
C541 C540 1.370 . S
C541 C545 1.408 . S
C542 C540 1.363 . S
C542 C543 1.370 . S
C542 C546 1.524 . S
C543 C535 1.503 . S
C543 C542 1.370 . S
C543 C544 1.403 . S
C544 C543 1.403 . S
C544 C545 1.404 . S
C544 C547 1.539 . S
C545 C541 1.408 . S
C545 C544 1.404 . S
C545 H557 0.930 . S
C546 C542 1.524 . S
C546 H558 0.956 . S
C546 H559 0.961 . S
C546 H560 0.961 . S
C547 C544 1.539 . S
C547 H561 0.958 . S
C547 H562 0.961 . S
C547 H563 0.960 . S
H548 C532 0.931 . S
H549 C537 0.929 . S
H550 C538 0.960 . S
H551 C538 0.962 . S
H552 C538 0.960 . S
H553 C539 0.961 . S
H554 C539 0.961 . S
H555 C539 0.961 . S
H556 C540 0.931 . S
H557 C545 0.930 . S
H558 C546 0.956 . S
H559 C546 0.961 . S
H560 C546 0.961 . S
H561 C547 0.958 . S
H562 C547 0.961 . S
H563 C547 0.960 . S
C564 C565 1.391 . S
C564 C566 1.394 . S
C564 H580 0.931 . S
C565 C564 1.391 . S
C565 C569 1.376 . S
C566 C564 1.394 . S
C566 C567 1.369 . S
C566 C570 1.531 . S
C567 C566 1.369 . S
C567 C568 1.410 . S
C567 C575 1.503 . S
C568 C567 1.410 . S
C568 C569 1.392 . S
C568 C571 1.511 1_455 S
C569 C565 1.376 . S
C569 C568 1.392 . S
C569 H581 0.929 . S
C570 C566 1.531 . S
C570 H582 0.960 . S
C570 H583 0.962 . S
C570 H584 0.960 . S
C571 C568 1.511 1_655 S
C571 H585 0.961 . S
C571 H586 0.961 . S
C571 H587 0.957 1_655 S
C572 C573 1.370 . S
C572 C574 1.363 . S
C572 H588 0.931 1_455 S
C573 C572 1.370 . S
C573 C577 1.408 . S
C574 C572 1.363 . S
C574 C575 1.370 . S
C574 C578 1.524 1_455 S
C575 C567 1.503 . S
C575 C574 1.370 . S
C575 C576 1.403 . S
C576 C575 1.403 . S
C576 C577 1.404 . S
C576 C579 1.539 . S
C577 C573 1.408 . S
C577 C576 1.404 . S
C577 H589 0.930 . S
C578 C574 1.524 1_655 S
C578 H590 0.956 1_655 S
C578 H591 0.961 . S
C578 H592 0.961 . S
C579 C576 1.539 . S
C579 H593 0.958 . S
C579 H594 0.961 . S
C579 H595 0.960 . S
H580 C564 0.931 . S
H581 C569 0.929 . S
H582 C570 0.960 . S
H583 C570 0.962 . S
H584 C570 0.960 . S
H585 C571 0.961 . S
H586 C571 0.961 . S
H587 C571 0.957 1_455 S
H588 C572 0.931 1_655 S
H589 C577 0.930 . S
H590 C578 0.956 1_455 S
H591 C578 0.961 . S
H592 C578 0.961 . S
H593 C579 0.958 . S
H594 C579 0.961 . S
H595 C579 0.960 . S
C596 C597 1.391 . S
C596 C598 1.394 . S
C596 H612 0.931 . S
C597 C596 1.391 . S
C597 C601 1.376 1_655 S
C598 C596 1.394 . S
C598 C599 1.369 . S
C598 C602 1.531 . S
C599 C598 1.369 . S
C599 C600 1.410 . S
C599 C607 1.503 . S
C600 C599 1.410 . S
C600 C601 1.392 1_655 S
C600 C603 1.511 1_655 S
C601 C597 1.376 1_455 S
C601 C600 1.392 1_455 S
C601 H613 0.929 . S
C602 C598 1.531 . S
C602 H614 0.960 . S
C602 H615 0.962 . S
C602 H616 0.960 . S
C603 C600 1.511 1_455 S
C603 H617 0.961 . S
C603 H618 0.961 . S
C603 H619 0.961 . S
C604 C605 1.370 . S
C604 C606 1.363 . S
C604 H620 0.931 . S
C605 C604 1.370 . S
C605 C609 1.408 . S
C606 C604 1.363 . S
C606 C607 1.370 . S
C606 C610 1.524 . S
C607 C599 1.503 . S
C607 C606 1.370 . S
C607 C608 1.403 . S
C608 C607 1.403 . S
C608 C609 1.404 . S
C608 C611 1.539 . S
C609 C605 1.408 . S
C609 C608 1.404 . S
C609 H621 0.930 . S
C610 C606 1.524 . S
C610 H622 0.956 . S
C610 H623 0.961 . S
C610 H624 0.961 . S
C611 C608 1.539 . S
C611 H625 0.958 . S
C611 H626 0.961 . S
C611 H627 0.960 . S
H612 C596 0.931 . S
H613 C601 0.929 . S
H614 C602 0.960 . S
H615 C602 0.962 . S
H616 C602 0.960 . S
H617 C603 0.961 . S
H618 C603 0.961 . S
H619 C603 0.961 . S
H620 C604 0.931 . S
H621 C609 0.930 . S
H622 C610 0.956 . S
H623 C610 0.961 . S
H624 C610 0.961 . S
H625 C611 0.958 . S
H626 C611 0.961 . S
H627 C611 0.960 . S
C628 C629 1.391 . S
C628 C630 1.394 . S
C628 H644 0.931 . S
C629 C628 1.391 . S
C629 C633 1.376 . S
C630 C628 1.394 . S
C630 C631 1.369 . S
C630 C634 1.531 . S
C631 C630 1.369 . S
C631 C632 1.410 . S
C631 C639 1.503 . S
C632 C631 1.410 . S
C632 C633 1.392 . S
C632 C635 1.511 . S
C633 C629 1.376 . S
C633 C632 1.392 . S
C633 H645 0.929 . S
C634 C630 1.531 . S
C634 H646 0.960 . S
C634 H647 0.962 . S
C634 H648 0.960 . S
C635 C632 1.511 . S
C635 H649 0.961 . S
C635 H650 0.961 . S
C635 H651 0.961 . S
C636 C637 1.370 . S
C636 C638 1.363 . S
C636 H652 0.931 . S
C637 C636 1.370 . S
C637 C641 1.408 . S
C638 C636 1.363 . S
C638 C639 1.370 . S
C638 C642 1.524 . S
C639 C631 1.503 . S
C639 C638 1.370 . S
C639 C640 1.403 . S
C640 C639 1.403 . S
C640 C641 1.404 . S
C640 C643 1.539 . S
C641 C637 1.408 . S
C641 C640 1.404 . S
C641 H653 0.930 . S
C642 C638 1.524 . S
C642 H654 0.956 . S
C642 H655 0.961 . S
C642 H656 0.961 . S
C643 C640 1.539 . S
C643 H657 0.958 . S
C643 H658 0.961 . S
C643 H659 0.960 . S
H644 C628 0.931 . S
H645 C633 0.929 . S
H646 C634 0.960 . S
H647 C634 0.962 . S
H648 C634 0.960 . S
H649 C635 0.961 . S
H650 C635 0.961 . S
H651 C635 0.961 . S
H652 C636 0.931 . S
H653 C641 0.930 . S
H654 C642 0.956 . S
H655 C642 0.961 . S
H656 C642 0.961 . S
H657 C643 0.958 . S
H658 C643 0.961 . S
H659 C643 0.960 . S
C660 C661 1.391 . S
C660 C662 1.394 . S
C660 H676 0.931 . S
C661 C660 1.391 . S
C661 C665 1.376 . S
C662 C660 1.394 . S
C662 C663 1.369 . S
C662 C666 1.531 . S
C663 C662 1.369 . S
C663 C664 1.410 . S
C663 C671 1.503 . S
C664 C663 1.410 . S
C664 C665 1.392 . S
C664 C667 1.511 . S
C665 C661 1.376 . S
C665 C664 1.392 . S
C665 H677 0.929 . S
C666 C662 1.531 . S
C666 H678 0.960 . S
C666 H679 0.962 . S
C666 H680 0.960 . S
C667 C664 1.511 . S
C667 H681 0.961 . S
C667 H682 0.961 . S
C667 H683 0.961 . S
C668 C669 1.370 . S
C668 C670 1.363 . S
C668 H684 0.931 . S
C669 C668 1.370 . S
C669 C673 1.408 . S
C670 C668 1.363 . S
C670 C671 1.370 . S
C670 C674 1.524 . S
C671 C663 1.503 . S
C671 C670 1.370 . S
C671 C672 1.403 . S
C672 C671 1.403 . S
C672 C673 1.404 . S
C672 C675 1.539 . S
C673 C669 1.408 . S
C673 C672 1.404 . S
C673 H685 0.930 . S
C674 C670 1.524 . S
C674 H686 0.956 . S
C674 H687 0.961 . S
C674 H688 0.961 . S
C675 C672 1.539 . S
C675 H689 0.958 . S
C675 H690 0.961 . S
C675 H691 0.960 . S
H676 C660 0.931 . S
H677 C665 0.929 . S
H678 C666 0.960 . S
H679 C666 0.962 . S
H680 C666 0.960 . S
H681 C667 0.961 . S
H682 C667 0.961 . S
H683 C667 0.961 . S
H684 C668 0.931 . S
H685 C673 0.930 . S
H686 C674 0.956 . S
H687 C674 0.961 . S
H688 C674 0.961 . S
H689 C675 0.958 . S
H690 C675 0.961 . S
H691 C675 0.960 . S
C692 C693 1.391 . S
C692 C694 1.394 . S
C692 H708 0.931 . S
C693 C692 1.391 . S
C693 C697 1.376 . S
C694 C692 1.394 . S
C694 C695 1.369 . S
C694 C698 1.531 . S
C695 C694 1.369 . S
C695 C696 1.410 . S
C695 C703 1.503 . S
C696 C695 1.410 . S
C696 C697 1.392 . S
C696 C699 1.511 . S
C697 C693 1.376 . S
C697 C696 1.392 . S
C697 H709 0.929 . S
C698 C694 1.531 . S
C698 H710 0.960 . S
C698 H711 0.962 . S
C698 H712 0.960 . S
C699 C696 1.511 . S
C699 H713 0.961 . S
C699 H714 0.961 . S
C699 H715 0.961 . S
C700 C701 1.370 . S
C700 C702 1.363 . S
C700 H716 0.931 . S
C701 C700 1.370 . S
C701 C705 1.408 . S
C702 C700 1.363 . S
C702 C703 1.370 . S
C702 C706 1.524 . S
C703 C695 1.503 . S
C703 C702 1.370 . S
C703 C704 1.403 . S
C704 C703 1.403 . S
C704 C705 1.404 . S
C704 C707 1.539 . S
C705 C701 1.408 . S
C705 C704 1.404 . S
C705 H717 0.930 . S
C706 C702 1.524 . S
C706 H718 0.956 . S
C706 H719 0.961 . S
C706 H720 0.961 . S
C707 C704 1.539 . S
C707 H721 0.958 . S
C707 H722 0.961 . S
C707 H723 0.960 . S
H708 C692 0.931 . S
H709 C697 0.929 . S
H710 C698 0.960 . S
H711 C698 0.962 . S
H712 C698 0.960 . S
H713 C699 0.961 . S
H714 C699 0.961 . S
H715 C699 0.961 . S
H716 C700 0.931 . S
H717 C705 0.930 . S
H718 C706 0.956 . S
H719 C706 0.961 . S
H720 C706 0.961 . S
H721 C707 0.958 . S
H722 C707 0.961 . S
H723 C707 0.960 . S
C724 C725 1.391 . S
C724 C726 1.394 . S
C724 H740 0.931 . S
C725 C724 1.391 . S
C725 C729 1.376 . S
C726 C724 1.394 . S
C726 C727 1.369 . S
C726 C730 1.531 . S
C727 C726 1.369 . S
C727 C728 1.410 . S
C727 C735 1.503 . S
C728 C727 1.410 . S
C728 C729 1.392 . S
C728 C731 1.511 . S
C729 C725 1.376 . S
C729 C728 1.392 . S
C729 H741 0.929 . S
C730 C726 1.531 . S
C730 H742 0.960 . S
C730 H743 0.962 . S
C730 H744 0.960 . S
C731 C728 1.511 . S
C731 H745 0.961 . S
C731 H746 0.961 . S
C731 H747 0.961 . S
C732 C733 1.370 . S
C732 C734 1.363 . S
C732 H748 0.931 . S
C733 C732 1.370 . S
C733 C737 1.408 . S
C734 C732 1.363 . S
C734 C735 1.370 . S
C734 C738 1.524 . S
C735 C727 1.503 . S
C735 C734 1.370 . S
C735 C736 1.403 . S
C736 C735 1.403 . S
C736 C737 1.404 . S
C736 C739 1.539 . S
C737 C733 1.408 . S
C737 C736 1.404 . S
C737 H749 0.930 . S
C738 C734 1.524 . S
C738 H750 0.956 . S
C738 H751 0.961 . S
C738 H752 0.961 . S
C739 C736 1.539 . S
C739 H753 0.958 . S
C739 H754 0.961 . S
C739 H755 0.960 . S
H740 C724 0.931 . S
H741 C729 0.929 . S
H742 C730 0.960 . S
H743 C730 0.962 . S
H744 C730 0.960 . S
H745 C731 0.961 . S
H746 C731 0.961 . S
H747 C731 0.961 . S
H748 C732 0.931 . S
H749 C737 0.930 . S
H750 C738 0.956 . S
H751 C738 0.961 . S
H752 C738 0.961 . S
H753 C739 0.958 . S
H754 C739 0.961 . S
H755 C739 0.960 . S
C756 C757 1.391 . S
C756 C758 1.394 . S
C756 H772 0.931 . S
C757 C756 1.391 . S
C757 C761 1.376 . S
C758 C756 1.394 . S
C758 C759 1.369 . S
C758 C762 1.531 . S
C759 C758 1.369 . S
C759 C760 1.410 . S
C759 C767 1.503 . S
C760 C759 1.410 . S
C760 C761 1.392 . S
C760 C763 1.511 . S
C761 C757 1.376 . S
C761 C760 1.392 . S
C761 H773 0.929 . S
C762 C758 1.531 . S
C762 H774 0.960 . S
C762 H775 0.962 . S
C762 H776 0.960 . S
C763 C760 1.511 . S
C763 H777 0.961 . S
C763 H778 0.961 1_554 S
C763 H779 0.961 . S
C764 C765 1.370 . S
C764 C766 1.363 . S
C764 H780 0.931 . S
C765 C764 1.370 . S
C765 C769 1.408 . S
C766 C764 1.363 . S
C766 C767 1.370 1_556 S
C766 C770 1.524 . S
C767 C759 1.503 . S
C767 C766 1.370 1_554 S
C767 C768 1.403 . S
C768 C767 1.403 . S
C768 C769 1.404 1_554 S
C768 C771 1.539 . S
C769 C765 1.408 . S
C769 C768 1.404 1_556 S
C769 H781 0.930 . S
C770 C766 1.524 . S
C770 H782 0.956 1_556 S
C770 H783 0.961 . S
C770 H784 0.961 . S
C771 C768 1.539 . S
C771 H785 0.958 . S
C771 H786 0.961 . S
C771 H787 0.960 . S
H772 C756 0.931 . S
H773 C761 0.929 . S
H774 C762 0.960 . S
H775 C762 0.962 . S
H776 C762 0.960 . S
H777 C763 0.961 . S
H778 C763 0.961 1_556 S
H779 C763 0.961 . S
H780 C764 0.931 . S
H781 C769 0.930 . S
H782 C770 0.956 1_554 S
H783 C770 0.961 . S
H784 C770 0.961 . S
H785 C771 0.958 . S
H786 C771 0.961 . S
H787 C771 0.960 . S
C788 C789 1.391 . S
C788 C790 1.394 . S
C788 H804 0.931 . S
C789 C788 1.391 . S
C789 C793 1.376 . S
C790 C788 1.394 . S
C790 C791 1.369 . S
C790 C794 1.531 . S
C791 C790 1.369 . S
C791 C792 1.410 . S
C791 C799 1.503 . S
C792 C791 1.410 . S
C792 C793 1.392 . S
C792 C795 1.511 . S
C793 C789 1.376 . S
C793 C792 1.392 . S
C793 H805 0.929 . S
C794 C790 1.531 . S
C794 H806 0.960 . S
C794 H807 0.962 . S
C794 H808 0.960 . S
C795 C792 1.511 . S
C795 H809 0.961 . S
C795 H810 0.961 . S
C795 H811 0.961 . S
C796 C797 1.370 . S
C796 C798 1.363 . S
C796 H812 0.931 . S
C797 C796 1.370 . S
C797 C801 1.408 . S
C798 C796 1.363 . S
C798 C799 1.370 . S
C798 C802 1.524 . S
C799 C791 1.503 . S
C799 C798 1.370 . S
C799 C800 1.403 . S
C800 C799 1.403 . S
C800 C801 1.404 . S
C800 C803 1.539 . S
C801 C797 1.408 . S
C801 C800 1.404 . S
C801 H813 0.930 . S
C802 C798 1.524 . S
C802 H814 0.956 . S
C802 H815 0.961 . S
C802 H816 0.961 . S
C803 C800 1.539 . S
C803 H817 0.958 . S
C803 H818 0.961 . S
C803 H819 0.960 . S
H804 C788 0.931 . S
H805 C793 0.929 . S
H806 C794 0.960 . S
H807 C794 0.962 . S
H808 C794 0.960 . S
H809 C795 0.961 . S
H810 C795 0.961 . S
H811 C795 0.961 . S
H812 C796 0.931 . S
H813 C801 0.930 . S
H814 C802 0.956 . S
H815 C802 0.961 . S
H816 C802 0.961 . S
H817 C803 0.958 . S
H818 C803 0.961 . S
H819 C803 0.960 . S
C820 C821 1.391 . S
C820 C822 1.394 1_554 S
C820 H836 0.931 . S
C821 C820 1.391 . S
C821 C825 1.376 . S
C822 C820 1.394 1_556 S
C822 C823 1.369 . S
C822 C826 1.531 . S
C823 C822 1.369 . S
C823 C824 1.410 1_556 S
C823 C831 1.503 . S
C824 C823 1.410 1_554 S
C824 C825 1.392 . S
C824 C827 1.511 . S
C825 C821 1.376 . S
C825 C824 1.392 . S
C825 H837 0.929 . S
C826 C822 1.531 . S
C826 H838 0.960 . S
C826 H839 0.962 . S
C826 H840 0.960 . S
C827 C824 1.511 . S
C827 H841 0.961 . S
C827 H842 0.961 . S
C827 H843 0.961 . S
C828 C829 1.370 . S
C828 C830 1.363 . S
C828 H844 0.931 . S
C829 C828 1.370 . S
C829 C833 1.408 . S
C830 C828 1.363 . S
C830 C831 1.370 . S
C830 C834 1.524 . S
C831 C823 1.503 . S
C831 C830 1.370 . S
C831 C832 1.403 . S
C832 C831 1.403 . S
C832 C833 1.404 . S
C832 C835 1.539 . S
C833 C829 1.408 . S
C833 C832 1.404 . S
C833 H845 0.930 . S
C834 C830 1.524 . S
C834 H846 0.956 . S
C834 H847 0.961 . S
C834 H848 0.961 . S
C835 C832 1.539 . S
C835 H849 0.958 . S
C835 H850 0.961 . S
C835 H851 0.960 1_556 S
H836 C820 0.931 . S
H837 C825 0.929 . S
H838 C826 0.960 . S
H839 C826 0.962 . S
H840 C826 0.960 . S
H841 C827 0.961 . S
H842 C827 0.961 . S
H843 C827 0.961 . S
H844 C828 0.931 . S
H845 C833 0.930 . S
H846 C834 0.956 . S
H847 C834 0.961 . S
H848 C834 0.961 . S
H849 C835 0.958 . S
H850 C835 0.961 . S
H851 C835 0.960 1_554 S
C852 C853 1.391 . S
C852 C854 1.394 . S
C852 H868 0.931 . S
C853 C852 1.391 . S
C853 C857 1.376 . S
C854 C852 1.394 . S
C854 C855 1.369 . S
C854 C858 1.531 . S
C855 C854 1.369 . S
C855 C856 1.410 . S
C855 C863 1.503 . S
C856 C855 1.410 . S
C856 C857 1.392 . S
C856 C859 1.511 . S
C857 C853 1.376 . S
C857 C856 1.392 . S
C857 H869 0.929 . S
C858 C854 1.531 . S
C858 H870 0.960 . S
C858 H871 0.962 . S
C858 H872 0.960 . S
C859 C856 1.511 . S
C859 H873 0.961 . S
C859 H874 0.961 . S
C859 H875 0.961 . S
C860 C861 1.370 . S
C860 C862 1.363 . S
C860 H876 0.931 . S
C861 C860 1.370 . S
C861 C865 1.408 . S
C862 C860 1.363 . S
C862 C863 1.370 . S
C862 C866 1.524 . S
C863 C855 1.503 . S
C863 C862 1.370 . S
C863 C864 1.403 . S
C864 C863 1.403 . S
C864 C865 1.404 . S
C864 C867 1.539 . S
C865 C861 1.408 . S
C865 C864 1.404 . S
C865 H877 0.930 . S
C866 C862 1.524 . S
C866 H878 0.956 . S
C866 H879 0.961 . S
C866 H880 0.961 . S
C867 C864 1.539 . S
C867 H881 0.958 . S
C867 H882 0.961 . S
C867 H883 0.960 . S
H868 C852 0.931 . S
H869 C857 0.929 . S
H870 C858 0.960 . S
H871 C858 0.962 . S
H872 C858 0.960 . S
H873 C859 0.961 . S
H874 C859 0.961 . S
H875 C859 0.961 . S
H876 C860 0.931 . S
H877 C865 0.930 . S
H878 C866 0.956 . S
H879 C866 0.961 . S
H880 C866 0.961 . S
H881 C867 0.958 . S
H882 C867 0.961 . S
H883 C867 0.960 . S
C884 C885 1.391 . S
C884 C886 1.394 . S
C884 H900 0.931 . S
C885 C884 1.391 . S
C885 C889 1.376 . S
C886 C884 1.394 . S
C886 C887 1.369 . S
C886 C890 1.531 . S
C887 C886 1.369 . S
C887 C888 1.410 . S
C887 C895 1.503 . S
C888 C887 1.410 . S
C888 C889 1.392 . S
C888 C891 1.511 . S
C889 C885 1.376 . S
C889 C888 1.392 . S
C889 H901 0.929 . S
C890 C886 1.531 . S
C890 H902 0.960 . S
C890 H903 0.962 . S
C890 H904 0.960 . S
C891 C888 1.511 . S
C891 H905 0.961 . S
C891 H906 0.961 . S
C891 H907 0.961 . S
C892 C893 1.370 . S
C892 C894 1.363 . S
C892 H908 0.931 . S
C893 C892 1.370 . S
C893 C897 1.408 . S
C894 C892 1.363 . S
C894 C895 1.370 . S
C894 C898 1.524 . S
C895 C887 1.503 . S
C895 C894 1.370 . S
C895 C896 1.403 . S
C896 C895 1.403 . S
C896 C897 1.404 . S
C896 C899 1.539 . S
C897 C893 1.408 . S
C897 C896 1.404 . S
C897 H909 0.930 . S
C898 C894 1.524 . S
C898 H910 0.956 . S
C898 H911 0.961 . S
C898 H912 0.961 . S
C899 C896 1.539 . S
C899 H913 0.958 . S
C899 H914 0.961 . S
C899 H915 0.960 . S
H900 C884 0.931 . S
H901 C889 0.929 . S
H902 C890 0.960 . S
H903 C890 0.962 . S
H904 C890 0.960 . S
H905 C891 0.961 . S
H906 C891 0.961 . S
H907 C891 0.961 . S
H908 C892 0.931 . S
H909 C897 0.930 . S
H910 C898 0.956 . S
H911 C898 0.961 . S
H912 C898 0.961 . S
H913 C899 0.958 . S
H914 C899 0.961 . S
H915 C899 0.960 . S
C916 C917 1.391 . S
C916 C918 1.394 . S
C916 H932 0.931 . S
C917 C916 1.391 . S
C917 C921 1.376 . S
C918 C916 1.394 . S
C918 C919 1.369 . S
C918 C922 1.531 . S
C919 C918 1.369 . S
C919 C920 1.410 . S
C919 C927 1.503 . S
C920 C919 1.410 . S
C920 C921 1.392 . S
C920 C923 1.511 . S
C921 C917 1.376 . S
C921 C920 1.392 . S
C921 H933 0.929 . S
C922 C918 1.531 . S
C922 H934 0.960 . S
C922 H935 0.962 . S
C922 H936 0.960 . S
C923 C920 1.511 . S
C923 H937 0.961 . S
C923 H938 0.961 . S
C923 H939 0.961 . S
C924 C925 1.370 . S
C924 C926 1.363 . S
C924 H940 0.931 . S
C925 C924 1.370 . S
C925 C929 1.408 . S
C926 C924 1.363 . S
C926 C927 1.370 . S
C926 C930 1.524 . S
C927 C919 1.503 . S
C927 C926 1.370 . S
C927 C928 1.403 . S
C928 C927 1.403 . S
C928 C929 1.404 . S
C928 C931 1.539 . S
C929 C925 1.408 . S
C929 C928 1.404 . S
C929 H941 0.930 . S
C930 C926 1.524 . S
C930 H942 0.956 . S
C930 H943 0.961 . S
C930 H944 0.961 . S
C931 C928 1.539 . S
C931 H945 0.958 . S
C931 H946 0.961 . S
C931 H947 0.960 . S
H932 C916 0.931 . S
H933 C921 0.929 . S
H934 C922 0.960 . S
H935 C922 0.962 . S
H936 C922 0.960 . S
H937 C923 0.961 . S
H938 C923 0.961 . S
H939 C923 0.961 . S
H940 C924 0.931 . S
H941 C929 0.930 . S
H942 C930 0.956 . S
H943 C930 0.961 . S
H944 C930 0.961 . S
H945 C931 0.958 . S
H946 C931 0.961 . S
H947 C931 0.960 . S
C948 C949 1.391 . S
C948 C950 1.394 . S
C948 H964 0.931 . S
C949 C948 1.391 . S
C949 C953 1.376 . S
C950 C948 1.394 . S
C950 C951 1.369 . S
C950 C954 1.531 . S
C951 C950 1.369 . S
C951 C952 1.410 . S
C951 C959 1.503 . S
C952 C951 1.410 . S
C952 C953 1.392 . S
C952 C955 1.511 . S
C953 C949 1.376 . S
C953 C952 1.392 . S
C953 H965 0.929 . S
C954 C950 1.531 . S
C954 H966 0.960 . S
C954 H967 0.962 . S
C954 H968 0.960 . S
C955 C952 1.511 . S
C955 H969 0.961 . S
C955 H970 0.961 . S
C955 H971 0.961 . S
C956 C957 1.370 . S
C956 C958 1.363 1_565 S
C956 H972 0.927 1_565 S
C957 C956 1.370 . S
C957 C961 1.408 . S
C958 C956 1.363 1_545 S
C958 C959 1.370 . S
C958 C962 1.524 . S
C959 C951 1.503 . S
C959 C958 1.370 . S
C959 C960 1.403 1_545 S
C960 C959 1.403 1_565 S
C960 C961 1.404 . S
C960 C963 1.539 . S
C961 C957 1.408 . S
C961 C960 1.404 . S
C961 H973 0.930 . S
C962 C958 1.524 . S
C962 H974 0.956 . S
C962 H975 0.961 . S
C962 H976 0.961 . S
C963 C960 1.539 . S
C963 H977 0.958 . S
C963 H978 0.961 . S
C963 H979 0.960 . S
H964 C948 0.931 . S
H965 C953 0.929 . S
H966 C954 0.960 . S
H967 C954 0.962 . S
H968 C954 0.960 . S
H969 C955 0.961 . S
H970 C955 0.961 . S
H971 C955 0.961 . S
H972 C956 0.927 1_545 S
H973 C961 0.930 . S
H974 C962 0.956 . S
H975 C962 0.961 . S
H976 C962 0.961 . S
H977 C963 0.958 . S
H978 C963 0.961 . S
H979 C963 0.960 . S
C980 C981 1.391 . S
C980 C982 1.394 . S
C980 H996 0.931 . S
C981 C980 1.391 . S
C981 C985 1.376 . S
C982 C980 1.394 . S
C982 C983 1.369 . S
C982 C986 1.531 . S
C983 C982 1.369 . S
C983 C984 1.410 . S
C983 C991 1.503 . S
C984 C983 1.410 . S
C984 C985 1.392 . S
C984 C987 1.511 . S
C985 C981 1.376 . S
C985 C984 1.392 . S
C985 H997 0.929 . S
C986 C982 1.531 . S
C986 H998 0.960 . S
C986 H999 0.962 . S
C986 H1000 0.960 . S
C987 C984 1.511 . S
C987 H1001 0.961 . S
C987 H1002 0.961 . S
C987 H1003 0.961 . S
C988 C989 1.370 . S
C988 C990 1.363 . S
C988 H1004 0.931 . S
C989 C988 1.370 . S
C989 C993 1.408 . S
C990 C988 1.363 . S
C990 C991 1.370 . S
C990 C994 1.524 . S
C991 C983 1.503 . S
C991 C990 1.370 . S
C991 C992 1.403 . S
C992 C991 1.403 . S
C992 C993 1.404 . S
C992 C995 1.539 . S
C993 C989 1.408 . S
C993 C992 1.404 . S
C993 H1005 0.930 . S
C994 C990 1.524 . S
C994 H1006 0.956 . S
C994 H1007 0.961 . S
C994 H1008 0.961 . S
C995 C992 1.539 . S
C995 H1009 0.958 . S
C995 H1010 0.961 . S
C995 H1011 0.960 . S
H996 C980 0.931 . S
H997 C985 0.929 . S
H998 C986 0.960 . S
H999 C986 0.962 . S
H1000 C986 0.960 . S
H1001 C987 0.961 . S
H1002 C987 0.961 . S
H1003 C987 0.961 . S
H1004 C988 0.931 . S
H1005 C993 0.930 . S
H1006 C994 0.956 . S
H1007 C994 0.961 . S
H1008 C994 0.961 . S
H1009 C995 0.958 . S
H1010 C995 0.961 . S
H1011 C995 0.960 . S
C1012 C1013 1.391 . S
C1012 C1014 1.394 . S
C1012 H1028 0.931 . S
C1013 C1012 1.391 . S
C1013 C1017 1.376 . S
C1014 C1012 1.394 . S
C1014 C1015 1.369 1_545 S
C1014 C1018 1.531 . S
C1015 C1014 1.369 1_565 S
C1015 C1016 1.410 . S
C1015 C1023 1.503 . S
C1016 C1015 1.410 . S
C1016 C1017 1.392 1_565 S
C1016 C1019 1.511 . S
C1017 C1013 1.376 . S
C1017 C1016 1.392 1_545 S
C1017 H1029 0.929 . S
C1018 C1014 1.531 . S
C1018 H1030 0.960 1_545 S
C1018 H1031 0.962 . S
C1018 H1032 0.960 . S
C1019 C1016 1.511 . S
C1019 H1033 0.961 . S
C1019 H1034 0.961 . S
C1019 H1035 0.961 . S
C1020 C1021 1.370 . S
C1020 C1022 1.363 . S
C1020 H1036 0.931 . S
C1021 C1020 1.370 . S
C1021 C1025 1.408 . S
C1022 C1020 1.363 . S
C1022 C1023 1.370 . S
C1022 C1026 1.524 . S
C1023 C1015 1.503 . S
C1023 C1022 1.370 . S
C1023 C1024 1.403 . S
C1024 C1023 1.403 . S
C1024 C1025 1.404 . S
C1024 C1027 1.539 . S
C1025 C1021 1.408 . S
C1025 C1024 1.404 . S
C1025 H1037 0.930 . S
C1026 C1022 1.524 . S
C1026 H1038 0.955 1_565 S
C1026 H1039 0.961 . S
C1026 H1040 0.961 . S
C1027 C1024 1.539 . S
C1027 H1041 0.958 . S
C1027 H1042 0.961 . S
C1027 H1043 0.960 . S
H1028 C1012 0.931 . S
H1029 C1017 0.929 . S
H1030 C1018 0.960 1_565 S
H1031 C1018 0.962 . S
H1032 C1018 0.960 . S
H1033 C1019 0.961 . S
H1034 C1019 0.961 . S
H1035 C1019 0.961 . S
H1036 C1020 0.931 . S
H1037 C1025 0.930 . S
H1038 C1026 0.955 1_545 S
H1039 C1026 0.961 . S
H1040 C1026 0.961 . S
H1041 C1027 0.958 . S
H1042 C1027 0.961 . S
H1043 C1027 0.960 . S
C1044 C1045 1.391 . S
C1044 C1046 1.394 . S
C1044 H1060 0.931 . S
C1045 C1044 1.391 . S
C1045 C1049 1.376 . S
C1046 C1044 1.394 . S
C1046 C1047 1.369 . S
C1046 C1050 1.531 . S
C1047 C1046 1.369 . S
C1047 C1048 1.410 . S
C1047 C1055 1.503 . S
C1048 C1047 1.410 . S
C1048 C1049 1.392 . S
C1048 C1051 1.511 . S
C1049 C1045 1.376 . S
C1049 C1048 1.392 . S
C1049 H1061 0.929 . S
C1050 C1046 1.531 . S
C1050 H1062 0.960 . S
C1050 H1063 0.962 . S
C1050 H1064 0.960 . S
C1051 C1048 1.511 . S
C1051 H1065 0.961 . S
C1051 H1066 0.961 . S
C1051 H1067 0.961 . S
C1052 C1053 1.370 . S
C1052 C1054 1.363 . S
C1052 H1068 0.931 . S
C1053 C1052 1.370 . S
C1053 C1057 1.408 . S
C1054 C1052 1.363 . S
C1054 C1055 1.370 . S
C1054 C1058 1.524 . S
C1055 C1047 1.503 . S
C1055 C1054 1.370 . S
C1055 C1056 1.403 . S
C1056 C1055 1.403 . S
C1056 C1057 1.404 . S
C1056 C1059 1.539 . S
C1057 C1053 1.408 . S
C1057 C1056 1.404 . S
C1057 H1069 0.930 . S
C1058 C1054 1.524 . S
C1058 H1070 0.956 . S
C1058 H1071 0.961 . S
C1058 H1072 0.961 . S
C1059 C1056 1.539 . S
C1059 H1073 0.958 . S
C1059 H1074 0.961 . S
C1059 H1075 0.960 . S
H1060 C1044 0.931 . S
H1061 C1049 0.929 . S
H1062 C1050 0.960 . S
H1063 C1050 0.962 . S
H1064 C1050 0.960 . S
H1065 C1051 0.961 . S
H1066 C1051 0.961 . S
H1067 C1051 0.961 . S
H1068 C1052 0.931 . S
H1069 C1057 0.930 . S
H1070 C1058 0.956 . S
H1071 C1058 0.961 . S
H1072 C1058 0.961 . S
H1073 C1059 0.958 . S
H1074 C1059 0.961 . S
H1075 C1059 0.960 . S
C1076 C1077 1.391 . S
C1076 C1078 1.394 . S
C1076 H1092 0.931 . S
C1077 C1076 1.391 . S
C1077 C1081 1.376 . S
C1078 C1076 1.394 . S
C1078 C1079 1.369 . S
C1078 C1082 1.531 . S
C1079 C1078 1.369 . S
C1079 C1080 1.410 . S
C1079 C1087 1.503 . S
C1080 C1079 1.410 . S
C1080 C1081 1.392 . S
C1080 C1083 1.511 . S
C1081 C1077 1.376 . S
C1081 C1080 1.392 . S
C1081 H1093 0.929 . S
C1082 C1078 1.531 . S
C1082 H1094 0.960 . S
C1082 H1095 0.962 . S
C1082 H1096 0.960 . S
C1083 C1080 1.511 . S
C1083 H1097 0.961 . S
C1083 H1098 0.961 . S
C1083 H1099 0.961 . S
C1084 C1085 1.370 . S
C1084 C1086 1.363 . S
C1084 H1100 0.931 1_556 S
C1085 C1084 1.370 . S
C1085 C1089 1.408 . S
C1086 C1084 1.363 . S
C1086 C1087 1.370 . S
C1086 C1090 1.524 . S
C1087 C1079 1.503 . S
C1087 C1086 1.370 . S
C1087 C1088 1.403 . S
C1088 C1087 1.403 . S
C1088 C1089 1.404 . S
C1088 C1091 1.539 . S
C1089 C1085 1.408 . S
C1089 C1088 1.404 . S
C1089 H1101 0.930 . S
C1090 C1086 1.524 . S
C1090 H1102 0.956 . S
C1090 H1103 0.961 . S
C1090 H1104 0.961 . S
C1091 C1088 1.539 . S
C1091 H1105 0.958 . S
C1091 H1106 0.961 . S
C1091 H1107 0.960 . S
H1092 C1076 0.931 . S
H1093 C1081 0.929 . S
H1094 C1082 0.960 . S
H1095 C1082 0.962 . S
H1096 C1082 0.960 . S
H1097 C1083 0.961 . S
H1098 C1083 0.961 . S
H1099 C1083 0.961 . S
H1100 C1084 0.931 1_554 S
H1101 C1089 0.930 . S
H1102 C1090 0.956 . S
H1103 C1090 0.961 . S
H1104 C1090 0.961 . S
H1105 C1091 0.958 . S
H1106 C1091 0.961 . S
H1107 C1091 0.960 . S
C1108 C1109 1.391 . S
C1108 C1110 1.394 . S
C1108 H1124 0.931 . S
C1109 C1108 1.391 . S
C1109 C1113 1.376 . S
C1110 C1108 1.394 . S
C1110 C1111 1.369 . S
C1110 C1114 1.531 . S
C1111 C1110 1.369 . S
C1111 C1112 1.410 . S
C1111 C1119 1.503 . S
C1112 C1111 1.410 . S
C1112 C1113 1.392 . S
C1112 C1115 1.511 . S
C1113 C1109 1.376 . S
C1113 C1112 1.392 . S
C1113 H1125 0.929 . S
C1114 C1110 1.531 . S
C1114 H1126 0.960 . S
C1114 H1127 0.962 . S
C1114 H1128 0.960 . S
C1115 C1112 1.511 . S
C1115 H1129 0.961 . S
C1115 H1130 0.961 . S
C1115 H1131 0.961 . S
C1116 C1117 1.370 . S
C1116 C1118 1.363 . S
C1116 H1132 0.931 . S
C1117 C1116 1.370 . S
C1117 C1121 1.408 . S
C1118 C1116 1.363 . S
C1118 C1119 1.370 . S
C1118 C1122 1.524 . S
C1119 C1111 1.503 . S
C1119 C1118 1.370 . S
C1119 C1120 1.403 . S
C1120 C1119 1.403 . S
C1120 C1121 1.404 . S
C1120 C1123 1.539 . S
C1121 C1117 1.408 . S
C1121 C1120 1.404 . S
C1121 H1133 0.930 . S
C1122 C1118 1.524 . S
C1122 H1134 0.956 . S
C1122 H1135 0.961 . S
C1122 H1136 0.961 . S
C1123 C1120 1.539 . S
C1123 H1137 0.958 . S
C1123 H1138 0.961 . S
C1123 H1139 0.960 . S
H1124 C1108 0.931 . S
H1125 C1113 0.929 . S
H1126 C1114 0.960 . S
H1127 C1114 0.962 . S
H1128 C1114 0.960 . S
H1129 C1115 0.961 . S
H1130 C1115 0.961 . S
H1131 C1115 0.961 . S
H1132 C1116 0.931 . S
H1133 C1121 0.930 . S
H1134 C1122 0.956 . S
H1135 C1122 0.961 . S
H1136 C1122 0.961 . S
H1137 C1123 0.958 . S
H1138 C1123 0.961 . S
H1139 C1123 0.960 . S
C1140 C1141 1.391 . S
C1140 C1142 1.394 . S
C1140 H1156 0.931 . S
C1141 C1140 1.391 . S
C1141 C1145 1.376 . S
C1142 C1140 1.394 . S
C1142 C1143 1.369 . S
C1142 C1146 1.531 . S
C1143 C1142 1.369 . S
C1143 C1144 1.410 . S
C1143 C1151 1.503 . S
C1144 C1143 1.410 . S
C1144 C1145 1.392 . S
C1144 C1147 1.511 . S
C1145 C1141 1.376 . S
C1145 C1144 1.392 . S
C1145 H1157 0.929 . S
C1146 C1142 1.531 . S
C1146 H1158 0.960 . S
C1146 H1159 0.962 . S
C1146 H1160 0.960 . S
C1147 C1144 1.511 . S
C1147 H1161 0.961 . S
C1147 H1162 0.961 . S
C1147 H1163 0.961 . S
C1148 C1149 1.370 . S
C1148 C1150 1.363 . S
C1148 H1164 0.931 . S
C1149 C1148 1.370 . S
C1149 C1153 1.408 . S
C1150 C1148 1.363 . S
C1150 C1151 1.370 . S
C1150 C1154 1.524 . S
C1151 C1143 1.503 . S
C1151 C1150 1.370 . S
C1151 C1152 1.403 . S
C1152 C1151 1.403 . S
C1152 C1153 1.404 . S
C1152 C1155 1.539 . S
C1153 C1149 1.408 . S
C1153 C1152 1.404 . S
C1153 H1165 0.930 . S
C1154 C1150 1.524 . S
C1154 H1166 0.956 . S
C1154 H1167 0.961 . S
C1154 H1168 0.961 . S
C1155 C1152 1.539 . S
C1155 H1169 0.958 . S
C1155 H1170 0.961 . S
C1155 H1171 0.960 . S
H1156 C1140 0.931 . S
H1157 C1145 0.929 . S
H1158 C1146 0.960 . S
H1159 C1146 0.962 . S
H1160 C1146 0.960 . S
H1161 C1147 0.961 . S
H1162 C1147 0.961 . S
H1163 C1147 0.961 . S
H1164 C1148 0.931 . S
H1165 C1153 0.930 . S
H1166 C1154 0.956 . S
H1167 C1154 0.961 . S
H1168 C1154 0.961 . S
H1169 C1155 0.958 . S
H1170 C1155 0.961 . S
H1171 C1155 0.960 . S
C1172 C1173 1.391 . S
C1172 C1174 1.394 . S
C1172 H1188 0.931 . S
C1173 C1172 1.391 . S
C1173 C1177 1.376 . S
C1174 C1172 1.394 . S
C1174 C1175 1.369 . S
C1174 C1178 1.531 . S
C1175 C1174 1.369 . S
C1175 C1176 1.410 . S
C1175 C1183 1.503 . S
C1176 C1175 1.410 . S
C1176 C1177 1.392 . S
C1176 C1179 1.511 . S
C1177 C1173 1.376 . S
C1177 C1176 1.392 . S
C1177 H1189 0.929 . S
C1178 C1174 1.531 . S
C1178 H1190 0.960 . S
C1178 H1191 0.962 . S
C1178 H1192 0.960 . S
C1179 C1176 1.511 . S
C1179 H1193 0.961 . S
C1179 H1194 0.961 . S
C1179 H1195 0.961 . S
C1180 C1181 1.370 . S
C1180 C1182 1.363 . S
C1180 H1196 0.931 . S
C1181 C1180 1.370 . S
C1181 C1185 1.408 . S
C1182 C1180 1.363 . S
C1182 C1183 1.370 . S
C1182 C1186 1.524 . S
C1183 C1175 1.503 . S
C1183 C1182 1.370 . S
C1183 C1184 1.403 . S
C1184 C1183 1.403 . S
C1184 C1185 1.404 . S
C1184 C1187 1.539 . S
C1185 C1181 1.408 . S
C1185 C1184 1.404 . S
C1185 H1197 0.930 . S
C1186 C1182 1.524 . S
C1186 H1198 0.956 . S
C1186 H1199 0.961 . S
C1186 H1200 0.961 . S
C1187 C1184 1.539 . S
C1187 H1201 0.958 . S
C1187 H1202 0.961 . S
C1187 H1203 0.960 . S
H1188 C1172 0.931 . S
H1189 C1177 0.929 . S
H1190 C1178 0.960 . S
H1191 C1178 0.962 . S
H1192 C1178 0.960 . S
H1193 C1179 0.961 . S
H1194 C1179 0.961 . S
H1195 C1179 0.961 . S
H1196 C1180 0.931 . S
H1197 C1185 0.930 . S
H1198 C1186 0.956 . S
H1199 C1186 0.961 . S
H1200 C1186 0.961 . S
H1201 C1187 0.958 . S
H1202 C1187 0.961 . S
H1203 C1187 0.960 . S
C1204 C1205 1.391 . S
C1204 C1206 1.394 . S
C1204 H1220 0.931 . S
C1205 C1204 1.391 . S
C1205 C1209 1.376 . S
C1206 C1204 1.394 . S
C1206 C1207 1.369 . S
C1206 C1210 1.531 . S
C1207 C1206 1.369 . S
C1207 C1208 1.410 . S
C1207 C1215 1.503 . S
C1208 C1207 1.410 . S
C1208 C1209 1.392 . S
C1208 C1211 1.511 . S
C1209 C1205 1.376 . S
C1209 C1208 1.392 . S
C1209 H1221 0.929 . S
C1210 C1206 1.531 . S
C1210 H1222 0.960 . S
C1210 H1223 0.962 . S
C1210 H1224 0.960 . S
C1211 C1208 1.511 . S
C1211 H1225 0.961 . S
C1211 H1226 0.961 . S
C1211 H1227 0.961 . S
C1212 C1213 1.370 . S
C1212 C1214 1.363 . S
C1212 H1228 0.931 . S
C1213 C1212 1.370 . S
C1213 C1217 1.408 . S
C1214 C1212 1.363 . S
C1214 C1215 1.370 . S
C1214 C1218 1.524 . S
C1215 C1207 1.503 . S
C1215 C1214 1.370 . S
C1215 C1216 1.403 . S
C1216 C1215 1.403 . S
C1216 C1217 1.404 . S
C1216 C1219 1.539 . S
C1217 C1213 1.408 . S
C1217 C1216 1.404 . S
C1217 H1229 0.930 . S
C1218 C1214 1.524 . S
C1218 H1230 0.956 . S
C1218 H1231 0.961 . S
C1218 H1232 0.961 . S
C1219 C1216 1.539 . S
C1219 H1233 0.958 . S
C1219 H1234 0.961 . S
C1219 H1235 0.960 . S
H1220 C1204 0.931 . S
H1221 C1209 0.929 . S
H1222 C1210 0.960 . S
H1223 C1210 0.962 . S
H1224 C1210 0.960 . S
H1225 C1211 0.961 . S
H1226 C1211 0.961 . S
H1227 C1211 0.961 . S
H1228 C1212 0.931 . S
H1229 C1217 0.930 . S
H1230 C1218 0.956 . S
H1231 C1218 0.961 . S
H1232 C1218 0.961 . S
H1233 C1219 0.958 . S
H1234 C1219 0.961 . S
H1235 C1219 0.960 . S
C1236 C1237 1.391 . S
C1236 C1238 1.394 . S
C1236 H1252 0.931 . S
C1237 C1236 1.391 . S
C1237 C1241 1.376 . S
C1238 C1236 1.394 . S
C1238 C1239 1.369 . S
C1238 C1242 1.531 . S
C1239 C1238 1.369 . S
C1239 C1240 1.410 . S
C1239 C1247 1.503 . S
C1240 C1239 1.410 . S
C1240 C1241 1.392 . S
C1240 C1243 1.511 1_455 S
C1241 C1237 1.376 . S
C1241 C1240 1.392 . S
C1241 H1253 0.929 . S
C1242 C1238 1.531 . S
C1242 H1254 0.960 . S
C1242 H1255 0.962 . S
C1242 H1256 0.960 . S
C1243 C1240 1.511 1_655 S
C1243 H1257 0.960 . S
C1243 H1258 0.961 . S
C1243 H1259 0.961 . S
C1244 C1245 1.370 . S
C1244 C1246 1.363 1_655 S
C1244 H1260 0.931 . S
C1245 C1244 1.370 . S
C1245 C1249 1.408 . S
C1246 C1244 1.363 1_455 S
C1246 C1247 1.370 . S
C1246 C1250 1.524 . S
C1247 C1239 1.503 . S
C1247 C1246 1.370 . S
C1247 C1248 1.403 1_455 S
C1248 C1247 1.403 1_655 S
C1248 C1249 1.404 . S
C1248 C1251 1.539 . S
C1249 C1245 1.408 . S
C1249 C1248 1.404 . S
C1249 H1261 0.930 . S
C1250 C1246 1.524 . S
C1250 H1262 0.956 . S
C1250 H1263 0.961 . S
C1250 H1264 0.961 . S
C1251 C1248 1.539 . S
C1251 H1265 0.958 . S
C1251 H1266 0.961 . S
C1251 H1267 0.960 . S
H1252 C1236 0.931 . S
H1253 C1241 0.929 . S
H1254 C1242 0.960 . S
H1255 C1242 0.962 . S
H1256 C1242 0.960 . S
H1257 C1243 0.960 . S
H1258 C1243 0.961 . S
H1259 C1243 0.961 . S
H1260 C1244 0.931 . S
H1261 C1249 0.930 . S
H1262 C1250 0.956 . S
H1263 C1250 0.961 . S
H1264 C1250 0.961 . S
H1265 C1251 0.958 . S
H1266 C1251 0.961 . S
H1267 C1251 0.960 . S
C1268 C1269 1.391 . S
C1268 C1270 1.394 . S
C1268 H1284 0.931 . S
C1269 C1268 1.391 . S
C1269 C1273 1.376 . S
C1270 C1268 1.394 . S
C1270 C1271 1.369 . S
C1270 C1274 1.531 . S
C1271 C1270 1.369 . S
C1271 C1272 1.410 . S
C1271 C1279 1.503 . S
C1272 C1271 1.410 . S
C1272 C1273 1.392 . S
C1272 C1275 1.511 . S
C1273 C1269 1.376 . S
C1273 C1272 1.392 . S
C1273 H1285 0.929 . S
C1274 C1270 1.531 . S
C1274 H1286 0.960 . S
C1274 H1287 0.962 . S
C1274 H1288 0.960 . S
C1275 C1272 1.511 . S
C1275 H1289 0.961 . S
C1275 H1290 0.961 . S
C1275 H1291 0.961 . S
C1276 C1277 1.370 . S
C1276 C1278 1.363 . S
C1276 H1292 0.931 . S
C1277 C1276 1.370 . S
C1277 C1281 1.408 . S
C1278 C1276 1.363 . S
C1278 C1279 1.370 . S
C1278 C1282 1.524 . S
C1279 C1271 1.503 . S
C1279 C1278 1.370 . S
C1279 C1280 1.403 . S
C1280 C1279 1.403 . S
C1280 C1281 1.404 . S
C1280 C1283 1.539 . S
C1281 C1277 1.408 . S
C1281 C1280 1.404 . S
C1281 H1293 0.930 . S
C1282 C1278 1.524 . S
C1282 H1294 0.956 . S
C1282 H1295 0.961 . S
C1282 H1296 0.961 . S
C1283 C1280 1.539 . S
C1283 H1297 0.958 . S
C1283 H1298 0.961 . S
C1283 H1299 0.960 . S
H1284 C1268 0.931 . S
H1285 C1273 0.929 . S
H1286 C1274 0.960 . S
H1287 C1274 0.962 . S
H1288 C1274 0.960 . S
H1289 C1275 0.961 . S
H1290 C1275 0.961 . S
H1291 C1275 0.961 . S
H1292 C1276 0.931 . S
H1293 C1281 0.930 . S
H1294 C1282 0.956 . S
H1295 C1282 0.961 . S
H1296 C1282 0.961 . S
H1297 C1283 0.958 . S
H1298 C1283 0.961 . S
H1299 C1283 0.960 . S
C1300 C1301 1.391 . S
C1300 C1302 1.394 . S
C1300 H1316 0.931 . S
C1301 C1300 1.391 . S
C1301 C1305 1.376 . S
C1302 C1300 1.394 . S
C1302 C1303 1.369 . S
C1302 C1306 1.531 . S
C1303 C1302 1.369 . S
C1303 C1304 1.410 . S
C1303 C1311 1.503 . S
C1304 C1303 1.410 . S
C1304 C1305 1.392 . S
C1304 C1307 1.511 . S
C1305 C1301 1.376 . S
C1305 C1304 1.392 . S
C1305 H1317 0.929 . S
C1306 C1302 1.531 . S
C1306 H1318 0.960 . S
C1306 H1319 0.962 . S
C1306 H1320 0.960 . S
C1307 C1304 1.511 . S
C1307 H1321 0.961 . S
C1307 H1322 0.961 . S
C1307 H1323 0.961 . S
C1308 C1309 1.370 . S
C1308 C1310 1.363 . S
C1308 H1324 0.931 . S
C1309 C1308 1.370 . S
C1309 C1313 1.408 . S
C1310 C1308 1.363 . S
C1310 C1311 1.370 . S
C1310 C1314 1.524 . S
C1311 C1303 1.503 . S
C1311 C1310 1.370 . S
C1311 C1312 1.403 . S
C1312 C1311 1.403 . S
C1312 C1313 1.404 . S
C1312 C1315 1.539 . S
C1313 C1309 1.408 . S
C1313 C1312 1.404 . S
C1313 H1325 0.930 . S
C1314 C1310 1.524 . S
C1314 H1326 0.956 . S
C1314 H1327 0.961 . S
C1314 H1328 0.961 . S
C1315 C1312 1.539 . S
C1315 H1329 0.958 . S
C1315 H1330 0.961 . S
C1315 H1331 0.960 . S
H1316 C1300 0.931 . S
H1317 C1305 0.929 . S
H1318 C1306 0.960 . S
H1319 C1306 0.962 . S
H1320 C1306 0.960 . S
H1321 C1307 0.961 . S
H1322 C1307 0.961 . S
H1323 C1307 0.961 . S
H1324 C1308 0.931 . S
H1325 C1313 0.930 . S
H1326 C1314 0.956 . S
H1327 C1314 0.961 . S
H1328 C1314 0.961 . S
H1329 C1315 0.958 . S
H1330 C1315 0.961 . S
H1331 C1315 0.960 . S
C1332 C1333 1.391 . S
C1332 C1334 1.394 . S
C1332 H1348 0.931 . S
C1333 C1332 1.391 . S
C1333 C1337 1.376 . S
C1334 C1332 1.394 . S
C1334 C1335 1.369 . S
C1334 C1338 1.531 . S
C1335 C1334 1.369 . S
C1335 C1336 1.410 . S
C1335 C1343 1.503 . S
C1336 C1335 1.410 . S
C1336 C1337 1.392 . S
C1336 C1339 1.511 . S
C1337 C1333 1.376 . S
C1337 C1336 1.392 . S
C1337 H1349 0.929 . S
C1338 C1334 1.531 . S
C1338 H1350 0.960 . S
C1338 H1351 0.962 . S
C1338 H1352 0.960 . S
C1339 C1336 1.511 . S
C1339 H1353 0.961 . S
C1339 H1354 0.961 . S
C1339 H1355 0.961 . S
C1340 C1341 1.370 . S
C1340 C1342 1.363 . S
C1340 H1356 0.931 . S
C1341 C1340 1.370 . S
C1341 C1345 1.408 . S
C1342 C1340 1.363 . S
C1342 C1343 1.370 . S
C1342 C1346 1.524 . S
C1343 C1335 1.503 . S
C1343 C1342 1.370 . S
C1343 C1344 1.403 . S
C1344 C1343 1.403 . S
C1344 C1345 1.404 . S
C1344 C1347 1.539 . S
C1345 C1341 1.408 . S
C1345 C1344 1.404 . S
C1345 H1357 0.930 . S
C1346 C1342 1.524 . S
C1346 H1358 0.956 . S
C1346 H1359 0.961 . S
C1346 H1360 0.961 . S
C1347 C1344 1.539 . S
C1347 H1361 0.958 . S
C1347 H1362 0.961 . S
C1347 H1363 0.960 . S
H1348 C1332 0.931 . S
H1349 C1337 0.929 . S
H1350 C1338 0.960 . S
H1351 C1338 0.962 . S
H1352 C1338 0.960 . S
H1353 C1339 0.961 . S
H1354 C1339 0.961 . S
H1355 C1339 0.961 . S
H1356 C1340 0.931 . S
H1357 C1345 0.930 . S
H1358 C1346 0.956 . S
H1359 C1346 0.961 . S
H1360 C1346 0.961 . S
H1361 C1347 0.958 . S
H1362 C1347 0.961 . S
H1363 C1347 0.960 . S
C1364 C1365 1.391 . S
C1364 C1366 1.394 . S
C1364 H1380 0.931 . S
C1365 C1364 1.391 . S
C1365 C1369 1.376 . S
C1366 C1364 1.394 . S
C1366 C1367 1.369 . S
C1366 C1370 1.531 . S
C1367 C1366 1.369 . S
C1367 C1368 1.410 . S
C1367 C1375 1.503 . S
C1368 C1367 1.410 . S
C1368 C1369 1.392 . S
C1368 C1371 1.511 . S
C1369 C1365 1.376 . S
C1369 C1368 1.392 . S
C1369 H1381 0.929 . S
C1370 C1366 1.531 . S
C1370 H1382 0.960 . S
C1370 H1383 0.962 . S
C1370 H1384 0.960 . S
C1371 C1368 1.511 . S
C1371 H1385 0.961 . S
C1371 H1386 0.961 . S
C1371 H1387 0.961 . S
C1372 C1373 1.370 . S
C1372 C1374 1.363 . S
C1372 H1388 0.931 . S
C1373 C1372 1.370 . S
C1373 C1377 1.408 . S
C1374 C1372 1.363 . S
C1374 C1375 1.370 . S
C1374 C1378 1.524 . S
C1375 C1367 1.503 . S
C1375 C1374 1.370 . S
C1375 C1376 1.403 . S
C1376 C1375 1.403 . S
C1376 C1377 1.404 . S
C1376 C1379 1.539 . S
C1377 C1373 1.408 . S
C1377 C1376 1.404 . S
C1377 H1389 0.930 . S
C1378 C1374 1.524 . S
C1378 H1390 0.956 . S
C1378 H1391 0.961 . S
C1378 H1392 0.961 . S
C1379 C1376 1.539 . S
C1379 H1393 0.958 . S
C1379 H1394 0.961 . S
C1379 H1395 0.960 . S
H1380 C1364 0.931 . S
H1381 C1369 0.929 . S
H1382 C1370 0.960 . S
H1383 C1370 0.962 . S
H1384 C1370 0.960 . S
H1385 C1371 0.961 . S
H1386 C1371 0.961 . S
H1387 C1371 0.961 . S
H1388 C1372 0.931 . S
H1389 C1377 0.930 . S
H1390 C1378 0.956 . S
H1391 C1378 0.961 . S
H1392 C1378 0.961 . S
H1393 C1379 0.958 . S
H1394 C1379 0.961 . S
H1395 C1379 0.960 . S
C1396 C1397 1.391 . S
C1396 C1398 1.394 . S
C1396 H1412 0.931 . S
C1397 C1396 1.391 . S
C1397 C1401 1.376 . S
C1398 C1396 1.394 . S
C1398 C1399 1.369 . S
C1398 C1402 1.531 . S
C1399 C1398 1.369 . S
C1399 C1400 1.410 . S
C1399 C1407 1.503 . S
C1400 C1399 1.410 . S
C1400 C1401 1.392 . S
C1400 C1403 1.511 . S
C1401 C1397 1.376 . S
C1401 C1400 1.392 . S
C1401 H1413 0.929 1_545 S
C1402 C1398 1.531 . S
C1402 H1414 0.960 . S
C1402 H1415 0.962 . S
C1402 H1416 0.960 . S
C1403 C1400 1.511 . S
C1403 H1417 0.961 1_645 S
C1403 H1418 0.961 1_655 S
C1403 H1419 0.960 1_655 S
C1404 C1405 1.370 . S
C1404 C1406 1.363 1_455 S
C1404 H1420 0.931 . S
C1405 C1404 1.370 . S
C1405 C1409 1.408 . S
C1406 C1404 1.363 1_655 S
C1406 C1407 1.370 . S
C1406 C1410 1.524 . S
C1407 C1399 1.503 . S
C1407 C1406 1.370 . S
C1407 C1408 1.403 . S
C1408 C1407 1.403 . S
C1408 C1409 1.404 1_655 S
C1408 C1411 1.539 . S
C1409 C1405 1.408 . S
C1409 C1408 1.404 1_455 S
C1409 H1421 0.930 . S
C1410 C1406 1.524 . S
C1410 H1422 0.956 . S
C1410 H1423 0.961 . S
C1410 H1424 0.961 1_655 S
C1411 C1408 1.539 . S
C1411 H1425 0.958 . S
C1411 H1426 0.961 . S
C1411 H1427 0.960 . S
H1412 C1396 0.931 . S
H1413 C1401 0.929 1_565 S
H1414 C1402 0.960 . S
H1415 C1402 0.962 . S
H1416 C1402 0.960 . S
H1417 C1403 0.961 1_465 S
H1418 C1403 0.961 1_455 S
H1419 C1403 0.960 1_455 S
H1420 C1404 0.931 . S
H1421 C1409 0.930 . S
H1422 C1410 0.956 . S
H1423 C1410 0.961 . S
H1424 C1410 0.961 1_455 S
H1425 C1411 0.958 . S
H1426 C1411 0.961 . S
H1427 C1411 0.960 . S
C277 C19 1.304 . S
C285 C272 1.364 . S
C309 C223 1.623 1_565 S
C317 C40 1.633 . S
C341 C63 1.367 1_554 S
C349 C201 1.429 . S
C373 C88 1.442 . S
C381 C247 1.397 1_545 S
C405 C108 1.331 . S
C413 C249 1.408 . S
C437 C132 1.475 . S
C445 C270 1.486 . S
C469 C228 1.476 . S
C477 C155 1.452 . S
C501 C180 1.331 . S
C509 C203 1.301 . S
C533 C86 1.204 . S
C541 C113 1.287 . S
C565 C17 1.351 . S
C573 C134 1.340 1_455 S
C597 C42 1.434 1_655 S
C605 C157 1.433 . S
C629 C178 1.341 . S
C637 C65 1.332 . S
C661 C18 1.058 . S
C669 C200 1.045 . S
C693 C44 0.988 . S
C701 C246 1.020 . S
C725 C273 0.917 . S
C733 C67 0.905 . S
C757 C87 1.000 . S
C765 C224 0.964 . S
C789 C111 1.005 . S
C797 C225 1.134 . S
C821 C204 1.051 . S
C829 C136 1.036 . S
C853 C250 1.005 . S
C861 C159 1.026 . S
C885 C269 1.031 . S
C893 C179 1.072 . S
C917 C16 1.258 . S
C925 C90 1.217 . S
C949 C21 1.086 . S
C957 C43 1.094 . S
C981 C41 0.912 . S
C989 C66 0.863 . S
C1013 C85 0.953 . S
C1021 C64 0.992 . S
C1045 C133 0.961 . S
C1053 C110 0.978 . S
C1077 C135 0.992 . S
C1085 C156 0.971 . S
C1109 C158 1.119 . S
C1117 C182 1.106 . S
C1141 C112 1.049 . S
C1149 C177 1.070 . S
C1173 C202 1.033 . S
C1181 C89 0.989 . S
C1205 C131 1.120 . S
C1213 C226 1.070 . S
C1237 C205 1.127 . S
C1245 C154 1.206 . S
C1269 C251 0.972 . S
C1277 C181 1.043 . S
C1301 C109 1.119 . S
C1309 C271 1.102 . S
C1333 C274 1.066 . S
C1341 C39 1.061 . S
C1365 C62 1.019 . S
C1373 C227 1.004 . S
C1397 C248 0.844 . S
C1405 C20 0.820 . S
