# Generated by pormake.
# Topology rac, (4)-cn, num edge types: 1
# Building blocks:
#     Node 0, Type 0, BuildingBlock: AZAVOO_clean_sbu_0, # of connection points: 4
#     Node 1, Type 0, BuildingBlock: AZAVOO_clean_sbu_0, # of connection points: 4
#     Node 2, Type 0, BuildingBlock: AZAVOO_clean_sbu_0, # of connection points: 4
#     Node 3, Type 0, BuildingBlock: AZAVOO_clean_sbu_0, # of connection points: 4
#     Node 4, Type 0, BuildingBlock: AZAVOO_clean_sbu_0, # of connection points: 4
#     Node 5, Type 0, BuildingBlock: AZAVOO_clean_sbu_0, # of connection points: 4
#     Node 6, Type 0, BuildingBlock: AZAVOO_clean_sbu_0, # of connection points: 4
#     Node 7, Type 0, BuildingBlock: AZAVOO_clean_sbu_0, # of connection points: 4
#     Edge 8, Type (0, 0), BuildingBlock: UVAHIK_clean_linker_0, # of connection points: 2
#     Edge 9, Type (0, 0), BuildingBlock: UVAHIK_clean_linker_0, # of connection points: 2
#     Edge 10, Type (0, 0), BuildingBlock: UVAHIK_clean_linker_0, # of connection points: 2
#     Edge 11, Type (0, 0), BuildingBlock: UVAHIK_clean_linker_0, # of connection points: 2
#     Edge 12, Type (0, 0), BuildingBlock: UVAHIK_clean_linker_0, # of connection points: 2
#     Edge 13, Type (0, 0), BuildingBlock: UVAHIK_clean_linker_0, # of connection points: 2
#     Edge 14, Type (0, 0), BuildingBlock: UVAHIK_clean_linker_0, # of connection points: 2
#     Edge 15, Type (0, 0), BuildingBlock: UVAHIK_clean_linker_0, # of connection points: 2
#     Edge 16, Type (0, 0), BuildingBlock: UVAHIK_clean_linker_0, # of connection points: 2
#     Edge 17, Type (0, 0), BuildingBlock: UVAHIK_clean_linker_0, # of connection points: 2
#     Edge 18, Type (0, 0), BuildingBlock: UVAHIK_clean_linker_0, # of connection points: 2
#     Edge 19, Type (0, 0), BuildingBlock: UVAHIK_clean_linker_0, # of connection points: 2
#     Edge 20, Type (0, 0), BuildingBlock: UVAHIK_clean_linker_0, # of connection points: 2
#     Edge 21, Type (0, 0), BuildingBlock: UVAHIK_clean_linker_0, # of connection points: 2
#     Edge 22, Type (0, 0), BuildingBlock: UVAHIK_clean_linker_0, # of connection points: 2
#     Edge 23, Type (0, 0), BuildingBlock: UVAHIK_clean_linker_0, # of connection points: 2
# Relax obj value: 0.244
# Max RMSD: 0.131
# Mean RMSD: 0.131
data_MOF--net-rac--node1-AZAVOO_clean_sbu_0--edge1-UVAHIK_clean_linker_0
_symmetry_space_group_name_H-M    P1
_symmetry_Int_Tables_number       1
_symmetry_cell_setting            triclinic
loop_
_symmetry_equiv_pos_as_xyz
'x, y, z'
_cell_length_a     49.437437
_cell_length_b     25.198363
_cell_length_c     58.511564
_cell_angle_alpha  90.009752
_cell_angle_beta   89.999596
_cell_angle_gamma 89.997399
loop_
_atom_site_label
_atom_site_type_symbol
_atom_site_fract_x
_atom_site_fract_y
_atom_site_fract_z
_atom_type_partial_charge
Mg0 Mg 0.39288 0.21492 0.07667 0.0
O1 O 0.356 0.26871 0.0812 0.0
O2 O 0.32264 0.22252 0.09751 0.0
Mg3 Mg 0.33913 0.13851 0.1042 0.0
C4 C 0.33196 0.26551 0.08903 0.0
C5 C 0.43333 0.28167 0.05001 0.0
O6 O 0.43481 0.23509 0.03998 0.0
O7 O 0.40195 0.22411 0.11472 0.0
O8 O 0.3697 0.17272 0.13 0.0
O9 O 0.37647 0.18683 0.04317 0.0
O10 O 0.36845 0.14797 0.07635 0.0
C11 C 0.39051 0.20253 0.13196 0.0
C12 C 0.36395 0.15058 0.05472 0.0
O13 O 0.41788 0.28704 0.06719 0.0
Mg14 Mg 0.10591 0.78876 0.07605 0.0
O15 O 0.14244 0.73451 0.0813 0.0
O16 O 0.17597 0.78121 0.0971 0.0
Mg17 Mg 0.16 0.86613 0.10262 0.0
C18 C 0.16647 0.73783 0.08912 0.0
C19 C 0.06387 0.72277 0.05094 0.0
O20 O 0.06165 0.76978 0.0414 0.0
O21 O 0.09662 0.78255 0.11424 0.0
O22 O 0.12887 0.83537 0.12869 0.0
O23 O 0.12267 0.81418 0.04223 0.0
O24 O 0.13066 0.85516 0.07494 0.0
C25 C 0.10797 0.806 0.13107 0.0
C26 C 0.13527 0.85099 0.05339 0.0
O27 O 0.08045 0.71678 0.06733 0.0
Mg28 Mg 0.3922 0.29001 0.42263 0.0
O29 O 0.35569 0.23557 0.41751 0.0
O30 O 0.32201 0.2823 0.40195 0.0
Mg31 Mg 0.33783 0.36731 0.39646 0.0
C32 C 0.3316 0.23889 0.40982 0.0
C33 C 0.43532 0.2246 0.44674 0.0
O34 O 0.43807 0.27188 0.45594 0.0
O35 O 0.40119 0.28414 0.3844 0.0
O36 O 0.36877 0.33686 0.37016 0.0
O37 O 0.37567 0.31508 0.45659 0.0
O38 O 0.36738 0.35624 0.42397 0.0
C39 C 0.38969 0.30759 0.36765 0.0
C40 C 0.36294 0.3519 0.44554 0.0
O41 O 0.41793 0.2182 0.43101 0.0
Mg42 Mg 0.10539 0.71553 0.42214 0.0
O43 O 0.1422 0.7695 0.4176 0.0
O44 O 0.17558 0.72345 0.40123 0.0
Mg45 Mg 0.1592 0.63938 0.39451 0.0
C46 C 0.16623 0.76639 0.40975 0.0
C47 C 0.0653 0.78179 0.44926 0.0
O48 O 0.06427 0.73515 0.45927 0.0
O49 O 0.09622 0.72475 0.38408 0.0
O50 O 0.1285 0.67341 0.36879 0.0
O51 O 0.12187 0.68736 0.4556 0.0
O52 O 0.12991 0.64865 0.42239 0.0
C53 C 0.10766 0.70313 0.36684 0.0
C54 C 0.13441 0.65118 0.44402 0.0
O55 O 0.08031 0.78746 0.43181 0.0
Mg56 Mg 0.60795 0.79283 0.92167 0.0
O57 O 0.64264 0.73274 0.91823 0.0
O58 O 0.67775 0.77398 0.90192 0.0
Mg59 Mg 0.66578 0.86092 0.89581 0.0
C60 C 0.66681 0.73255 0.91049 0.0
C61 C 0.56292 0.73189 0.94628 0.0
O62 O 0.56254 0.77789 0.95687 0.0
O63 O 0.60036 0.78583 0.88325 0.0
O64 O 0.63444 0.83436 0.86912 0.0
O65 O 0.62311 0.81755 0.95614 0.0
O66 O 0.63614 0.8537 0.9235 0.0
C67 C 0.6128 0.80732 0.86651 0.0
C68 C 0.63904 0.84954 0.9453 0.0
O69 O 0.5791 0.72544 0.92965 0.0
Mg70 Mg 0.89018 0.20593 0.9251 0.0
O71 O 0.8529 0.25951 0.92201 0.0
O72 O 0.81791 0.21172 0.90937 0.0
Mg73 Mg 0.83396 0.12777 0.90241 0.0
C74 C 0.82808 0.25551 0.91624 0.0
C75 C 0.93381 0.27235 0.9476 0.0
O76 O 0.93679 0.22525 0.95691 0.0
O77 O 0.89621 0.21181 0.88639 0.0
O78 O 0.86152 0.16205 0.87448 0.0
O79 O 0.87638 0.18076 0.95995 0.0
O80 O 0.86593 0.13923 0.92784 0.0
C81 C 0.88235 0.19059 0.87036 0.0
C82 C 0.86313 0.14355 0.94961 0.0
O83 O 0.91601 0.27839 0.93216 0.0
Mg84 Mg 0.6072 0.70777 0.57564 0.0
O85 O 0.64518 0.75833 0.58045 0.0
O86 O 0.67761 0.70883 0.59635 0.0
Mg87 Mg 0.65934 0.62612 0.60255 0.0
C88 C 0.66917 0.75284 0.58818 0.0
C89 C 0.56609 0.77583 0.55079 0.0
O90 O 0.56271 0.72844 0.54186 0.0
O91 O 0.59855 0.71652 0.61375 0.0
O92 O 0.62979 0.66237 0.62875 0.0
O93 O 0.62282 0.68001 0.54187 0.0
O94 O 0.63033 0.63923 0.57474 0.0
C95 C 0.60966 0.69387 0.63089 0.0
C96 C 0.63477 0.64249 0.55311 0.0
O97 O 0.58331 0.78163 0.5667 0.0
Mg98 Mg 0.8903 0.28912 0.57907 0.0
O99 O 0.85653 0.22727 0.58412 0.0
O100 O 0.82079 0.26896 0.5992 0.0
Mg101 Mg 0.83134 0.35703 0.6033 0.0
C102 C 0.83231 0.22697 0.59178 0.0
C103 C 0.93609 0.22935 0.55539 0.0
O104 O 0.93565 0.27488 0.54445 0.0
O105 O 0.89842 0.2877 0.61767 0.0
O106 O 0.86291 0.33435 0.63021 0.0
O107 O 0.87427 0.30863 0.54413 0.0
O108 O 0.86119 0.34807 0.57602 0.0
C109 C 0.88513 0.30987 0.6338 0.0
C110 C 0.85807 0.3411 0.5544 0.0
O111 O 0.92015 0.22271 0.57218 0.0
C112 C 0.32975 0.13166 0.02411 0.0
C113 C 0.34325 0.11634 0.04419 0.0
C114 C 0.3082 0.10126 0.01574 0.0
C115 C 0.27477 0.97021 0.02033 0.0
H116 H 0.20759 0.04943 0.01798 0.0
C117 C 0.16295 0.93309 0.05249 0.0
C118 C 0.15627 0.88407 0.04263 0.0
C119 C 0.18454 0.96271 0.04408 0.0
C120 C 0.22624 0.02684 0.01813 0.0
H121 H 0.346 0.05597 0.07047 0.0
H122 H 0.30879 0.00284 0.05579 0.0
H123 H 0.25064 0.09698 0.01866 0.0
H124 H 0.16619 0.82824 0.01573 0.0
H125 H 0.20482 0.87972 0.00134 0.0
H126 H 0.2503 0.90018 0.02136 0.0
C127 C 0.3147 0.03817 0.0465 0.0
C128 C 0.25086 0.05399 0.01837 0.0
C129 C 0.33583 0.06888 0.05505 0.0
C130 C 0.17095 0.86602 0.02359 0.0
C131 C 0.19299 0.89533 0.0154 0.0
C132 C 0.25016 0.94303 0.01988 0.0
C133 C 0.30028 0.05459 0.02707 0.0
C134 C 0.27527 0.02597 0.02062 0.0
C135 C 0.20019 0.94359 0.02582 0.0
C136 C 0.22566 0.97123 0.01991 0.0
H137 H 0.3351 0.16815 0.01543 0.0
H138 H 0.29734 0.11478 0.00075 0.0
H139 H 0.29336 0.94771 0.02187 0.0
H140 H 0.15187 0.94803 0.06711 0.0
H141 H 0.18986 0.99934 0.05268 0.0
C142 C 0.16267 0.56963 0.44359 0.0
C143 C 0.1551 0.61689 0.45454 0.0
C144 C 0.18373 0.53883 0.45219 0.0
C145 C 0.24724 0.55422 0.4809 0.0
H146 H 0.24789 0.40048 0.47733 0.0
C147 C 0.32722 0.36638 0.47536 0.0
C148 C 0.34199 0.38484 0.45644 0.0
C149 C 0.30515 0.39554 0.4836 0.0
C150 C 0.248 0.4433 0.47899 0.0
H151 H 0.16293 0.66824 0.48352 0.0
H152 H 0.20057 0.61472 0.49831 0.0
H153 H 0.20482 0.44797 0.47666 0.0
H154 H 0.34653 0.44934 0.43226 0.0
H155 H 0.30851 0.5004 0.4468 0.0
H156 H 0.29051 0.5497 0.48163 0.0
C157 C 0.18988 0.60143 0.48319 0.0
C158 C 0.22338 0.47046 0.47843 0.0
C159 C 0.16839 0.63192 0.47476 0.0
C160 C 0.33538 0.4341 0.44678 0.0
C161 C 0.31377 0.46357 0.45526 0.0
C162 C 0.27187 0.52708 0.48125 0.0
C163 C 0.19793 0.55494 0.47178 0.0
C164 C 0.22287 0.52622 0.47835 0.0
C165 C 0.29801 0.44404 0.47337 0.0
C166 C 0.27249 0.47152 0.47925 0.0
H167 H 0.15265 0.55693 0.42805 0.0
H168 H 0.18974 0.50365 0.44283 0.0
H169 H 0.24745 0.59721 0.48078 0.0
H170 H 0.33192 0.32839 0.48306 0.0
H171 H 0.29324 0.37962 0.49755 0.0
C172 C 0.68793 0.87027 0.94722 0.0
C173 C 0.66211 0.87453 0.95689 0.0
C174 C 0.70995 0.89517 0.9574 0.0
C175 C 0.7283 0.01213 0.98687 0.0
H176 H 0.79799 0.94166 0.98959 0.0
C177 C 0.82905 0.12794 0.98073 0.0
C178 C 0.84348 0.10965 0.96159 0.0
C179 C 0.80805 0.09726 0.98996 0.0
C180 C 0.77865 0.96188 0.98936 0.0
H181 H 0.63886 0.90686 0.98499 0.0
H182 H 0.6777 0.95308 0.00248 0.0
H183 H 0.75665 0.8888 0.98799 0.0
H184 H 0.84857 0.04426 0.93794 0.0
H185 H 0.81256 0.9907 0.95413 0.0
H186 H 0.75045 0.08519 0.98611 0.0
C187 C 0.68077 0.9295 0.98722 0.0
C188 C 0.75505 0.93168 0.98848 0.0
C189 C 0.65869 0.90327 0.97726 0.0
C190 C 0.83768 0.05933 0.95265 0.0
C191 C 0.81722 0.02844 0.96208 0.0
C192 C 0.752 0.04246 0.98764 0.0
C193 C 0.70657 0.9256 0.97729 0.0
C194 C 0.72983 0.95653 0.98588 0.0
C195 C 0.80178 0.04746 0.9805 0.0
C196 C 0.7774 0.01741 0.98748 0.0
H197 H 0.69118 0.84758 0.9318 0.0
H198 H 0.72956 0.89211 0.94922 0.0
H199 H 0.70906 0.03214 0.98478 0.0
H200 H 0.83313 0.16682 0.98784 0.0
H201 H 0.79633 0.11288 0.00409 0.0
C202 C 0.66838 0.62207 0.52217 0.0
C203 C 0.65457 0.60698 0.54215 0.0
C204 C 0.68881 0.58962 0.51319 0.0
C205 C 0.74433 0.53244 0.51458 0.0
H206 H 0.73736 0.37917 0.51602 0.0
C207 C 0.80876 0.35661 0.55238 0.0
C208 C 0.83439 0.36336 0.54267 0.0
C209 C 0.78624 0.38101 0.54279 0.0
C210 C 0.73959 0.4219 0.51511 0.0
H211 H 0.65023 0.5454 0.56774 0.0
H212 H 0.68536 0.4887 0.55198 0.0
H213 H 0.69681 0.43444 0.51643 0.0
H214 H 0.85681 0.39903 0.51486 0.0
H215 H 0.81708 0.444 0.49827 0.0
H216 H 0.78719 0.51984 0.51513 0.0
C217 C 0.68057 0.52541 0.54322 0.0
C218 C 0.71642 0.45346 0.51537 0.0
C219 C 0.66064 0.55811 0.55239 0.0
C220 C 0.83712 0.39346 0.52261 0.0
C221 C 0.81451 0.41904 0.51318 0.0
C222 C 0.76757 0.50077 0.51437 0.0
C223 C 0.69517 0.54115 0.52378 0.0
C224 C 0.71865 0.50895 0.51644 0.0
C225 C 0.78891 0.41339 0.52339 0.0
C226 C 0.76535 0.44531 0.516 0.0
H227 H 0.66409 0.6597 0.51399 0.0
H228 H 0.69989 0.60268 0.49825 0.0
H229 H 0.74659 0.57515 0.51544 0.0
H230 H 0.80607 0.33297 0.5676 0.0
H231 H 0.76689 0.37651 0.55126 0.0
C232 C 0.39724 0.17588 0.1726 0.0
C233 C 0.40063 0.21373 0.1552 0.0
C234 C 0.40397 0.18807 0.19517 0.0
C235 C 0.40178 0.2973 0.23355 0.0
H236 H 0.44304 0.20885 0.27509 0.0
C237 C 0.40106 0.34337 0.32927 0.0
C238 C 0.4001 0.3001 0.3443 0.0
C239 C 0.40773 0.33594 0.30632 0.0
C240 C 0.4312 0.23375 0.26381 0.0
H241 H 0.41448 0.29337 0.14757 0.0
H242 H 0.42535 0.31542 0.18739 0.0
H243 H 0.44286 0.18881 0.23421 0.0
H244 H 0.40606 0.21541 0.34753 0.0
H245 H 0.41611 0.20149 0.30716 0.0
H246 H 0.38824 0.33984 0.2628 0.0
C247 C 0.41792 0.27606 0.18336 0.0
C248 C 0.43137 0.2225 0.24039 0.0
C249 C 0.41178 0.26343 0.16065 0.0
C250 C 0.40686 0.24942 0.33623 0.0
C251 C 0.41277 0.24165 0.31307 0.0
C252 C 0.40111 0.30787 0.25695 0.0
C253 C 0.41367 0.2387 0.20083 0.0
C254 C 0.41642 0.25389 0.22512 0.0
C255 C 0.41268 0.28471 0.29765 0.0
C256 C 0.41554 0.2759 0.27251 0.0
H257 H 0.38881 0.13716 0.16884 0.0
H258 H 0.40029 0.15879 0.20837 0.0
H259 H 0.38972 0.32153 0.22214 0.0
H260 H 0.39624 0.38298 0.33522 0.0
H261 H 0.40835 0.37042 0.2953 0.0
C262 C 0.08611 0.76351 0.33807 0.0
C263 C 0.09744 0.71402 0.34359 0.0
C264 C 0.07984 0.77582 0.31535 0.0
C265 C 0.06657 0.72117 0.25841 0.0
H266 H 0.10872 0.8396 0.23576 0.0
C267 C 0.09103 0.7477 0.16252 0.0
C268 C 0.0974 0.79848 0.15436 0.0
C269 C 0.08509 0.74003 0.18569 0.0
C270 C 0.09612 0.80729 0.24167 0.0
H271 H 0.10946 0.63745 0.33006 0.0
H272 H 0.0978 0.65851 0.29052 0.0
H273 H 0.10741 0.82171 0.27645 0.0
H274 H 0.10053 0.88158 0.16327 0.0
H275 H 0.08836 0.86914 0.20318 0.0
H276 H 0.05503 0.70674 0.22373 0.0
C277 C 0.09406 0.68789 0.30367 0.0
C278 C 0.09554 0.79697 0.26509 0.0
C279 C 0.1009 0.67603 0.32625 0.0
C280 C 0.096 0.8419 0.16929 0.0
C281 C 0.0893 0.83455 0.19224 0.0
C282 C 0.06665 0.73215 0.23495 0.0
C283 C 0.08417 0.73833 0.29794 0.0
C284 C 0.08127 0.7532 0.27361 0.0
C285 C 0.08477 0.78327 0.20101 0.0
C286 C 0.08196 0.77468 0.22617 0.0
H287 H 0.08333 0.79356 0.35111 0.0
H288 H 0.07226 0.81503 0.31127 0.0
H289 H 0.05535 0.6872 0.26465 0.0
H290 H 0.09218 0.71357 0.15129 0.0
H291 H 0.08207 0.69984 0.19167 0.0
C292 C 0.5946 0.74945 0.8354 0.0
C293 C 0.6027 0.79972 0.84306 0.0
C294 C 0.58886 0.74105 0.81225 0.0
C295 C 0.60296 0.80295 0.75555 0.0
H296 H 0.55805 0.68756 0.73362 0.0
C297 C 0.59005 0.75687 0.65957 0.0
C298 C 0.60014 0.70623 0.65422 0.0
C299 C 0.58455 0.77053 0.68228 0.0
C300 C 0.57045 0.72019 0.73957 0.0
H301 H 0.60918 0.88148 0.83319 0.0
H302 H 0.59737 0.86807 0.79326 0.0
H303 H 0.55828 0.70934 0.77433 0.0
H304 H 0.61072 0.6292 0.66809 0.0
H305 H 0.6003 0.65268 0.70767 0.0
H306 H 0.61474 0.81397 0.72066 0.0
C307 C 0.5968 0.8342 0.80462 0.0
C308 C 0.57085 0.73244 0.76291 0.0
C309 C 0.60331 0.84215 0.82758 0.0
C310 C 0.6031 0.6686 0.67177 0.0
C311 C 0.59699 0.68186 0.69435 0.0
C312 C 0.60204 0.79148 0.73224 0.0
C313 C 0.59046 0.78314 0.79641 0.0
C314 C 0.58759 0.77329 0.77133 0.0
C315 C 0.58836 0.73333 0.69987 0.0
C316 C 0.58623 0.74938 0.72411 0.0
H317 H 0.59417 0.71605 0.84706 0.0
H318 H 0.58442 0.70101 0.80672 0.0
H319 H 0.61666 0.83378 0.76118 0.0
H320 H 0.5877 0.78669 0.64638 0.0
H321 H 0.57795 0.81051 0.6862 0.0
C322 C 0.88461 0.34125 0.67413 0.0
C323 C 0.89437 0.30518 0.65777 0.0
C324 C 0.88923 0.33286 0.69732 0.0
C325 C 0.92694 0.25685 0.74074 0.0
H326 H 0.85859 0.26355 0.77322 0.0
C327 C 0.91094 0.23456 0.84 0.0
C328 C 0.88945 0.20074 0.84612 0.0
C329 C 0.91571 0.24703 0.81698 0.0
C330 C 0.87784 0.26154 0.7644 0.0
H331 H 0.91846 0.23421 0.65279 0.0
H332 H 0.92626 0.21904 0.6937 0.0
H333 H 0.86043 0.28868 0.73318 0.0
H334 H 0.8571 0.15136 0.83261 0.0
H335 H 0.8653 0.17353 0.7929 0.0
H336 H 0.9441 0.22894 0.77234 0.0
C337 C 0.91514 0.25398 0.68841 0.0
C338 C 0.87896 0.27638 0.74153 0.0
C339 C 0.91061 0.26257 0.66503 0.0
C340 C 0.87364 0.17804 0.82868 0.0
C341 C 0.87828 0.1907 0.80586 0.0
C342 C 0.92586 0.24246 0.7639 0.0
C343 C 0.90358 0.28802 0.70477 0.0
C344 C 0.90344 0.27399 0.72938 0.0
C345 C 0.89892 0.22618 0.79981 0.0
C346 C 0.90116 0.24405 0.77579 0.0
H347 H 0.87248 0.37508 0.66908 0.0
H348 H 0.88057 0.36037 0.70953 0.0
H349 H 0.94606 0.25472 0.73176 0.0
H350 H 0.92359 0.2525 0.85299 0.0
H351 H 0.93174 0.27459 0.8127 0.0
C352 C 0.44435 0.37877 0.04963 0.0
C353 C 0.44774 0.32783 0.04027 0.0
C354 C 0.45664 0.42276 0.03944 0.0
C355 C 0.51139 0.46109 0.99979 0.0
H356 H 0.46942 0.5901 0.99271 0.0
C357 C 0.5496 0.63601 0.94547 0.0
C358 C 0.54698 0.68677 0.95518 0.0
C359 C 0.53648 0.59247 0.95522 0.0
C360 C 0.48147 0.5545 0.99473 0.0
H361 H 0.46707 0.28298 0.01313 0.0
H362 H 0.48831 0.35967 0.99533 0.0
H363 H 0.4494 0.51354 0.01184 0.0
H364 H 0.52778 0.73191 0.98229 0.0
H365 H 0.50501 0.65588 0.99934 0.0
H366 H 0.54346 0.502 0.98272 0.0
C367 C 0.47638 0.3656 0.01065 0.0
C368 C 0.47003 0.51071 0.00573 0.0
C369 C 0.46409 0.32167 0.0208 0.0
C370 C 0.53023 0.69334 0.97439 0.0
C371 C 0.51708 0.6498 0.98411 0.0
C372 C 0.52281 0.50483 0.98879 0.0
C373 C 0.47259 0.4167 0.01972 0.0
C374 C 0.48488 0.46352 0.00838 0.0
C375 C 0.52042 0.59876 0.97485 0.0
C376 C 0.50797 0.55201 0.98613 0.0
H377 H 0.43192 0.38483 0.06465 0.0
H378 H 0.45366 0.46154 0.04702 0.0
H379 H 0.52348 0.42556 0.00185 0.0
H380 H 0.56227 0.62963 0.93061 0.0
H381 H 0.53908 0.55375 0.94748 0.0
C382 C 0.03113 0.68386 0.02302 0.0
C383 C 0.04906 0.67687 0.04142 0.0
C384 C 0.01852 0.64021 0.0129 0.0
C385 C 0.00091 0.49956 0.02249 0.0
H386 H 0.99699 0.49475 0.9563 0.0
C387 C 0.96765 0.3114 0.9745 0.0
C388 C 0.94908 0.31829 0.95656 0.0
C389 C 0.9805 0.3551 0.98433 0.0
C390 C 0.99771 0.49576 0.9748 0.0
H391 H 0.06741 0.61867 0.06392 0.0
H392 H 0.04554 0.54243 0.04612 0.0
H393 H 0.01735 0.5714 0.97507 0.0
H394 H 0.93001 0.37634 0.93442 0.0
H395 H 0.95242 0.45276 0.95168 0.0
H396 H 0.98133 0.42388 0.02221 0.0
C397 C 0.04103 0.58172 0.03966 0.0
C398 C 0.00932 0.53968 0.98556 0.0
C399 C 0.05364 0.62541 0.04981 0.0
C400 C 0.94423 0.36971 0.94821 0.0
C401 C 0.95714 0.41347 0.95804 0.0
C402 C 0.98934 0.45563 0.01173 0.0
C403 C 0.02356 0.58861 0.02093 0.0
C404 C 0.01104 0.54208 0.00953 0.0
C405 C 0.9751 0.40667 0.97643 0.0
C406 C 0.98763 0.45323 0.98777 0.0
H407 H 0.02705 0.72302 0.01621 0.0
H408 H 0.0048 0.64692 0.99876 0.0
H409 H 0.00158 0.50056 0.04099 0.0
H410 H 0.97195 0.27229 0.98126 0.0
H411 H 0.9946 0.34852 0.99822 0.0
C412 C 0.53312 0.81512 0.52318 0.0
C413 C 0.55154 0.82202 0.54124 0.0
C414 C 0.52051 0.85884 0.51315 0.0
C415 C 0.52864 0.00272 0.50497 0.0
H416 H 0.45302 0.9969 0.48754 0.0
C417 C 0.46908 0.18616 0.47392 0.0
C418 C 0.45056 0.17891 0.45596 0.0
C419 C 0.48207 0.14268 0.48382 0.0
C420 C 0.47424 0.99888 0.49204 0.0
H421 H 0.57073 0.88017 0.56326 0.0
H422 H 0.54845 0.95658 0.54586 0.0
H423 H 0.47362 0.92113 0.50672 0.0
H424 H 0.43172 0.12043 0.43388 0.0
H425 H 0.45463 0.04452 0.45104 0.0
H426 H 0.52924 0.08053 0.49032 0.0
C427 C 0.54408 0.91733 0.53927 0.0
C428 C 0.48603 0.95553 0.50307 0.0
C429 C 0.55669 0.87354 0.54934 0.0
C430 C 0.44581 0.12734 0.44774 0.0
C431 C 0.45878 0.08383 0.45767 0.0
C432 C 0.51685 0.0461 0.49395 0.0
C433 C 0.52602 0.91047 0.52094 0.0
C434 C 0.51336 0.95695 0.50964 0.0
C435 C 0.47681 0.09098 0.47599 0.0
C436 C 0.48953 0.04462 0.48734 0.0
H437 H 0.52874 0.77596 0.51651 0.0
H438 H 0.50693 0.85226 0.4989 0.0
H439 H 0.54987 0.00469 0.50949 0.0
H440 H 0.47319 0.22537 0.48067 0.0
H441 H 0.49566 0.14946 0.49804 0.0
C442 C 0.96868 0.19143 0.52707 0.0
C443 C 0.95241 0.18466 0.54655 0.0
C444 C 0.98194 0.14814 0.51724 0.0
C445 C 0.97691 0.00307 0.5129 0.0
H446 H 0.04941 0.01332 0.488 0.0
C447 C 0.03534 0.82115 0.4792 0.0
C448 C 0.051 0.82767 0.45936 0.0
C449 C 0.02321 0.86482 0.48971 0.0
C450 C 0.02903 0.01005 0.49462 0.0
H451 H 0.93816 0.12752 0.57154 0.0
H452 H 0.96157 0.05204 0.5545 0.0
H453 H 0.02966 0.08944 0.50765 0.0
H454 H 0.06573 0.88505 0.43468 0.0
H455 H 0.04426 0.96132 0.45291 0.0
H456 H 0.97619 0.92382 0.49981 0.0
C457 C 0.96369 0.09071 0.54662 0.0
C458 C 0.01775 0.05359 0.50594 0.0
C459 C 0.95046 0.13403 0.55648 0.0
C460 C 0.05384 0.87871 0.44998 0.0
C461 C 0.04171 0.92245 0.46052 0.0
C462 C 0.98817 0.95957 0.50158 0.0
C463 C 0.9792 0.09714 0.52668 0.0
C464 C 0.99157 0.05056 0.5152 0.0
C465 C 0.02646 0.91603 0.48061 0.0
C466 C 0.01435 0.96257 0.49231 0.0
H467 H 0.97062 0.22992 0.519 0.0
H468 H 0.99357 0.15434 0.50178 0.0
H469 H 0.9565 0.9998 0.51947 0.0
H470 H 0.03279 0.78238 0.4869 0.0
H471 H 0.01184 0.85859 0.5053 0.0
C472 C 0.21187 0.69317 0.09138 0.0
C473 C 0.18363 0.68953 0.08909 0.0
C474 C 0.22792 0.64741 0.09112 0.0
C475 C 0.22604 0.50381 0.07517 0.0
H476 H 0.29041 0.49708 0.11292 0.0
C477 C 0.2865 0.30996 0.09145 0.0
C478 C 0.3147 0.31366 0.08868 0.0
C479 C 0.2704 0.35567 0.09123 0.0
C480 C 0.27256 0.49856 0.10219 0.0
H481 H 0.1501 0.63477 0.08516 0.0
H482 H 0.17784 0.5552 0.08554 0.0
H483 H 0.26253 0.57688 0.11338 0.0
H484 H 0.34806 0.36847 0.08366 0.0
H485 H 0.31996 0.44808 0.08368 0.0
H486 H 0.23587 0.42468 0.06454 0.0
C487 C 0.18781 0.59334 0.08681 0.0
C488 C 0.25662 0.54442 0.10234 0.0
C489 C 0.17182 0.63908 0.08674 0.0
C490 C 0.32641 0.36412 0.08578 0.0
C491 C 0.31036 0.40979 0.08592 0.0
C492 C 0.24178 0.45769 0.07529 0.0
C493 C 0.21611 0.59678 0.08889 0.0
C494 C 0.23315 0.54781 0.08877 0.0
C495 C 0.2822 0.40605 0.08861 0.0
C496 C 0.26525 0.45468 0.08873 0.0
H497 H 0.22163 0.73145 0.09305 0.0
H498 H 0.24965 0.65191 0.09235 0.0
H499 H 0.20847 0.50512 0.06414 0.0
H500 H 0.27684 0.27173 0.09367 0.0
H501 H 0.24874 0.35169 0.09347 0.0
C502 C 0.28621 0.19418 0.4077 0.0
C503 C 0.31446 0.19056 0.40987 0.0
C504 C 0.27017 0.1484 0.40796 0.0
C505 C 0.27216 0.00469 0.42368 0.0
H506 H 0.20762 0.99822 0.38613 0.0
C507 C 0.21167 0.81092 0.40729 0.0
C508 C 0.18348 0.81457 0.41013 0.0
C509 C 0.22776 0.85664 0.40754 0.0
C510 C 0.22551 0.99962 0.3968 0.0
H511 H 0.34803 0.1358 0.41361 0.0
H512 H 0.32031 0.0562 0.41322 0.0
H513 H 0.23548 0.07803 0.3857 0.0
H514 H 0.15011 0.86931 0.41529 0.0
H515 H 0.17818 0.94895 0.41533 0.0
H516 H 0.26239 0.92547 0.43422 0.0
C517 C 0.31033 0.09434 0.41204 0.0
C518 C 0.24145 0.04549 0.39668 0.0
C519 C 0.3263 0.1401 0.41211 0.0
C520 C 0.17176 0.86499 0.41312 0.0
C521 C 0.18779 0.91068 0.41302 0.0
C522 C 0.25642 0.95856 0.42353 0.0
C523 C 0.28201 0.09777 0.41007 0.0
C524 C 0.26498 0.04879 0.41017 0.0
C525 C 0.21595 0.907 0.41026 0.0
C526 C 0.23288 0.95564 0.41017 0.0
H527 H 0.27643 0.23246 0.40612 0.0
H528 H 0.24844 0.15289 0.40681 0.0
H529 H 0.28978 0.00591 0.43465 0.0
H530 H 0.22134 0.77272 0.405 0.0
H531 H 0.24941 0.8527 0.40525 0.0
C532 C 0.71108 0.684 0.90923 0.0
C533 C 0.68278 0.68282 0.91165 0.0
C534 C 0.72621 0.63724 0.91059 0.0
C535 C 0.72179 0.49355 0.90278 0.0
H536 H 0.78602 0.48917 0.94076 0.0
C537 C 0.78248 0.29962 0.91568 0.0
C538 C 0.8108 0.30362 0.91698 0.0
C539 C 0.76633 0.34523 0.91594 0.0
C540 C 0.76838 0.48981 0.9298 0.0
H541 H 0.6482 0.63137 0.9172 0.0
H542 H 0.67469 0.54959 0.91921 0.0
H543 H 0.75911 0.5701 0.939 0.0
H544 H 0.84434 0.35887 0.91942 0.0
H545 H 0.81637 0.43813 0.91914 0.0
H546 H 0.73134 0.41398 0.89299 0.0
C547 C 0.68508 0.58684 0.91634 0.0
C548 C 0.7529 0.53619 0.92889 0.0
C549 C 0.66996 0.63371 0.91531 0.0
C550 C 0.82257 0.35426 0.91858 0.0
C551 C 0.80647 0.39984 0.91856 0.0
C552 C 0.73745 0.44734 0.90345 0.0
C553 C 0.71337 0.58818 0.9141 0.0
C554 C 0.7295 0.53858 0.91534 0.0
C555 C 0.77811 0.39602 0.91724 0.0
C556 C 0.76102 0.44485 0.91693 0.0
H557 H 0.72162 0.72114 0.90647 0.0
H558 H 0.74797 0.63937 0.90861 0.0
H559 H 0.70398 0.49449 0.892 0.0
H560 H 0.77274 0.26121 0.91459 0.0
H561 H 0.74457 0.34055 0.9153 0.0
C562 C 0.67655 0.85098 0.58583 0.0
C563 C 0.68733 0.79965 0.58831 0.0
C564 C 0.69334 0.89548 0.58672 0.0
C565 C 0.76251 0.94107 0.57778 0.0
H566 H 0.74153 0.05776 0.61718 0.0
C567 C 0.82998 0.12742 0.5895 0.0
C568 C 0.81682 0.1766 0.5918 0.0
C569 C 0.81517 0.08006 0.5897 0.0
C570 C 0.74755 0.02596 0.60582 0.0
H571 H 0.72438 0.75489 0.59318 0.0
H572 H 0.75384 0.83302 0.59429 0.0
H573 H 0.71383 0.97795 0.61583 0.0
H574 H 0.77769 0.21455 0.59557 0.0
H575 H 0.7519 0.13261 0.59517 0.0
H576 H 0.79575 0.98954 0.56714 0.0
C577 C 0.7323 0.83849 0.59183 0.0
C578 C 0.73171 0.98011 0.60517 0.0
C579 C 0.71542 0.79387 0.5913 0.0
C580 C 0.78852 0.17736 0.59405 0.0
C581 C 0.77372 0.13017 0.59396 0.0
C582 C 0.77821 0.98731 0.57818 0.0
C583 C 0.72136 0.88974 0.58978 0.0
C584 C 0.73891 0.93737 0.59103 0.0
C585 C 0.78681 0.0808 0.59194 0.0
C586 C 0.77081 0.03059 0.59208 0.0
H587 H 0.65501 0.85695 0.58356 0.0
H588 H 0.68441 0.93452 0.58487 0.0
H589 H 0.76841 0.90879 0.56661 0.0
H590 H 0.85178 0.12543 0.58784 0.0
H591 H 0.82603 0.04286 0.58842 0.0
loop_
_geom_bond_atom_site_label_1
_geom_bond_atom_site_label_2
_geom_bond_distance
_geom_bond_site_symmetry_2
_ccdc_geom_bond_type
Mg0 O1 2.028 . S
Mg0 O7 1.986 . S
Mg0 O9 2.114 . S
Mg0 O10 2.251 . S
Mg0 O13 2.010 . S
O1 Mg0 2.028 . S
O1 C4 1.250 . S
O2 Mg3 2.028 . S
O2 C4 1.248 . S
Mg3 O2 2.028 . S
Mg3 O8 2.032 . S
Mg3 O10 2.079 . S
C4 O1 1.250 . S
C4 O2 1.248 . S
C5 O6 1.264 . S
C5 O13 1.249 . S
O6 C5 1.264 . S
O7 Mg0 1.986 . S
O7 C11 1.246 . S
O8 Mg3 2.032 . S
O8 C11 1.259 . S
O9 Mg0 2.114 . S
O9 C12 1.252 . S
O10 Mg0 2.251 . S
O10 Mg3 2.079 . S
O10 C12 1.273 . S
C11 O7 1.246 . S
C11 O8 1.259 . S
C12 O9 1.252 . S
C12 O10 1.273 . S
O13 Mg0 2.010 . S
O13 C5 1.249 . S
Mg14 O15 2.028 . S
Mg14 O21 1.986 . S
Mg14 O23 2.114 . S
Mg14 O24 2.251 . S
Mg14 O27 2.010 . S
O15 Mg14 2.028 . S
O15 C18 1.250 . S
O16 Mg17 2.028 . S
O16 C18 1.248 . S
Mg17 O16 2.028 . S
Mg17 O22 2.032 . S
Mg17 O24 2.079 . S
C18 O15 1.250 . S
C18 O16 1.248 . S
C19 O20 1.264 . S
C19 O27 1.249 . S
O20 C19 1.264 . S
O21 Mg14 1.986 . S
O21 C25 1.246 . S
O22 Mg17 2.032 . S
O22 C25 1.259 . S
O23 Mg14 2.114 . S
O23 C26 1.252 . S
O24 Mg14 2.251 . S
O24 Mg17 2.079 . S
O24 C26 1.273 . S
C25 O21 1.246 . S
C25 O22 1.259 . S
C26 O23 1.252 . S
C26 O24 1.273 . S
O27 Mg14 2.010 . S
O27 C19 1.249 . S
Mg28 O29 2.028 . S
Mg28 O35 1.986 . S
Mg28 O37 2.114 . S
Mg28 O38 2.251 . S
Mg28 O41 2.010 . S
O29 Mg28 2.028 . S
O29 C32 1.250 . S
O30 Mg31 2.028 . S
O30 C32 1.248 . S
Mg31 O30 2.028 . S
Mg31 O36 2.032 . S
Mg31 O38 2.079 . S
C32 O29 1.250 . S
C32 O30 1.248 . S
C33 O34 1.264 . S
C33 O41 1.249 . S
O34 C33 1.264 . S
O35 Mg28 1.986 . S
O35 C39 1.246 . S
O36 Mg31 2.032 . S
O36 C39 1.259 . S
O37 Mg28 2.114 . S
O37 C40 1.252 . S
O38 Mg28 2.251 . S
O38 Mg31 2.079 . S
O38 C40 1.273 . S
C39 O35 1.246 . S
C39 O36 1.259 . S
C40 O37 1.252 . S
C40 O38 1.273 . S
O41 Mg28 2.010 . S
O41 C33 1.249 . S
Mg42 O43 2.028 . S
Mg42 O49 1.986 . S
Mg42 O51 2.114 . S
Mg42 O52 2.251 . S
Mg42 O55 2.010 . S
O43 Mg42 2.028 . S
O43 C46 1.250 . S
O44 Mg45 2.028 . S
O44 C46 1.248 . S
Mg45 O44 2.028 . S
Mg45 O50 2.032 . S
Mg45 O52 2.079 . S
C46 O43 1.250 . S
C46 O44 1.248 . S
C47 O48 1.264 . S
C47 O55 1.249 . S
O48 C47 1.264 . S
O49 Mg42 1.986 . S
O49 C53 1.246 . S
O50 Mg45 2.032 . S
O50 C53 1.259 . S
O51 Mg42 2.114 . S
O51 C54 1.252 . S
O52 Mg42 2.251 . S
O52 Mg45 2.079 . S
O52 C54 1.273 . S
C53 O49 1.246 . S
C53 O50 1.259 . S
C54 O51 1.252 . S
C54 O52 1.273 . S
O55 Mg42 2.010 . S
O55 C47 1.249 . S
Mg56 O57 2.028 . S
Mg56 O63 1.986 . S
Mg56 O65 2.114 . S
Mg56 O66 2.251 . S
Mg56 O69 2.010 . S
O57 Mg56 2.028 . S
O57 C60 1.250 . S
O58 Mg59 2.028 . S
O58 C60 1.248 . S
Mg59 O58 2.028 . S
Mg59 O64 2.032 . S
Mg59 O66 2.079 . S
C60 O57 1.250 . S
C60 O58 1.248 . S
C61 O62 1.264 . S
C61 O69 1.249 . S
O62 C61 1.264 . S
O63 Mg56 1.986 . S
O63 C67 1.246 . S
O64 Mg59 2.032 . S
O64 C67 1.259 . S
O65 Mg56 2.114 . S
O65 C68 1.252 . S
O66 Mg56 2.251 . S
O66 Mg59 2.079 . S
O66 C68 1.273 . S
C67 O63 1.246 . S
C67 O64 1.259 . S
C68 O65 1.252 . S
C68 O66 1.273 . S
O69 Mg56 2.010 . S
O69 C61 1.249 . S
Mg70 O71 2.028 . S
Mg70 O77 1.986 . S
Mg70 O79 2.114 . S
Mg70 O80 2.251 . S
Mg70 O83 2.010 . S
O71 Mg70 2.028 . S
O71 C74 1.250 . S
O72 Mg73 2.028 . S
O72 C74 1.248 . S
Mg73 O72 2.028 . S
Mg73 O78 2.032 . S
Mg73 O80 2.079 . S
C74 O71 1.250 . S
C74 O72 1.248 . S
C75 O76 1.264 . S
C75 O83 1.249 . S
O76 C75 1.264 . S
O77 Mg70 1.986 . S
O77 C81 1.246 . S
O78 Mg73 2.032 . S
O78 C81 1.259 . S
O79 Mg70 2.114 . S
O79 C82 1.252 . S
O80 Mg70 2.251 . S
O80 Mg73 2.079 . S
O80 C82 1.273 . S
C81 O77 1.246 . S
C81 O78 1.259 . S
C82 O79 1.252 . S
C82 O80 1.273 . S
O83 Mg70 2.010 . S
O83 C75 1.249 . S
Mg84 O85 2.028 . S
Mg84 O91 1.986 . S
Mg84 O93 2.114 . S
Mg84 O94 2.251 . S
Mg84 O97 2.010 . S
O85 Mg84 2.028 . S
O85 C88 1.250 . S
O86 Mg87 2.028 . S
O86 C88 1.248 . S
Mg87 O86 2.028 . S
Mg87 O92 2.032 . S
Mg87 O94 2.079 . S
C88 O85 1.250 . S
C88 O86 1.248 . S
C89 O90 1.264 . S
C89 O97 1.249 . S
O90 C89 1.264 . S
O91 Mg84 1.986 . S
O91 C95 1.246 . S
O92 Mg87 2.032 . S
O92 C95 1.259 . S
O93 Mg84 2.114 . S
O93 C96 1.252 . S
O94 Mg84 2.251 . S
O94 Mg87 2.079 . S
O94 C96 1.273 . S
C95 O91 1.246 . S
C95 O92 1.259 . S
C96 O93 1.252 . S
C96 O94 1.273 . S
O97 Mg84 2.010 . S
O97 C89 1.249 . S
Mg98 O99 2.028 . S
Mg98 O105 1.986 . S
Mg98 O107 2.114 . S
Mg98 O108 2.251 . S
Mg98 O111 2.010 . S
O99 Mg98 2.028 . S
O99 C102 1.250 . S
O100 Mg101 2.028 . S
O100 C102 1.248 . S
Mg101 O100 2.028 . S
Mg101 O106 2.032 . S
Mg101 O108 2.079 . S
C102 O99 1.250 . S
C102 O100 1.248 . S
C103 O104 1.264 . S
C103 O111 1.249 . S
O104 C103 1.264 . S
O105 Mg98 1.986 . S
O105 C109 1.246 . S
O106 Mg101 2.032 . S
O106 C109 1.259 . S
O107 Mg98 2.114 . S
O107 C110 1.252 . S
O108 Mg98 2.251 . S
O108 Mg101 2.079 . S
O108 C110 1.273 . S
C109 O105 1.246 . S
C109 O106 1.259 . S
C110 O107 1.252 . S
C110 O108 1.273 . S
O111 Mg98 2.010 . S
O111 C103 1.249 . S
C112 C113 1.349 . S
C112 C114 1.327 . S
C112 H137 0.950 . S
C113 C112 1.349 . S
C113 C129 1.349 . S
C114 C112 1.327 . S
C114 C133 1.429 . S
C114 H138 0.950 . S
C115 C132 1.574 . S
C115 C134 1.368 . S
C115 H139 0.949 . S
H116 C120 0.949 . S
C117 C118 1.349 . S
C117 C119 1.327 . S
C117 H140 0.950 . S
C118 C117 1.349 . S
C118 C130 1.349 . S
C119 C117 1.327 . S
C119 C135 1.429 . S
C119 H141 0.950 . S
C120 H116 0.949 . S
C120 C128 1.574 . S
C120 C136 1.368 . S
H121 C129 0.950 . S
H122 C127 0.950 . S
H123 C128 0.949 . S
H124 C130 0.950 . S
H125 C131 0.950 . S
H126 C132 0.949 . S
C127 H122 0.950 . S
C127 C129 1.327 . S
C127 C133 1.429 . S
C128 C120 1.574 . S
C128 H123 0.949 . S
C128 C134 1.368 1_565 S
C129 C113 1.349 . S
C129 H121 0.950 . S
C129 C127 1.327 . S
C130 C118 1.349 . S
C130 H124 0.950 . S
C130 C131 1.327 . S
C131 H125 0.950 . S
C131 C130 1.327 . S
C131 C135 1.429 . S
C132 C115 1.574 . S
C132 H126 0.949 . S
C132 C136 1.368 1_545 S
C133 C114 1.429 . S
C133 C127 1.429 . S
C133 C134 1.523 . S
C134 C115 1.368 . S
C134 C128 1.368 1_545 S
C134 C133 1.523 . S
C135 C119 1.429 . S
C135 C131 1.429 . S
C135 C136 1.523 . S
C136 C120 1.368 . S
C136 C132 1.368 1_565 S
C136 C135 1.523 . S
H137 C112 0.950 . S
H138 C114 0.950 . S
H139 C115 0.949 . S
H140 C117 0.950 . S
H141 C119 0.950 . S
C142 C143 1.349 . S
C142 C144 1.327 . S
C142 H167 0.950 . S
C143 C142 1.349 . S
C143 C159 1.349 . S
C144 C142 1.327 . S
C144 C163 1.429 . S
C144 H168 0.950 . S
C145 C162 1.574 . S
C145 C164 1.368 . S
C145 H169 0.949 . S
H146 C150 0.949 . S
C147 C148 1.349 . S
C147 C149 1.327 . S
C147 H170 0.950 . S
C148 C147 1.349 . S
C148 C160 1.349 . S
C149 C147 1.327 . S
C149 C165 1.429 . S
C149 H171 0.950 . S
C150 H146 0.949 . S
C150 C158 1.574 . S
C150 C166 1.368 . S
H151 C159 0.950 . S
H152 C157 0.950 . S
H153 C158 0.949 . S
H154 C160 0.950 . S
H155 C161 0.950 . S
H156 C162 0.949 . S
C157 H152 0.950 . S
C157 C159 1.327 . S
C157 C163 1.429 . S
C158 C150 1.574 . S
C158 H153 0.949 . S
C158 C164 1.368 . S
C159 C143 1.349 . S
C159 H151 0.950 . S
C159 C157 1.327 . S
C160 C148 1.349 . S
C160 H154 0.950 . S
C160 C161 1.327 . S
C161 H155 0.950 . S
C161 C160 1.327 . S
C161 C165 1.429 . S
C162 C145 1.574 . S
C162 H156 0.949 . S
C162 C166 1.368 . S
C163 C144 1.429 . S
C163 C157 1.429 . S
C163 C164 1.523 . S
C164 C145 1.368 . S
C164 C158 1.368 . S
C164 C163 1.523 . S
C165 C149 1.429 . S
C165 C161 1.429 . S
C165 C166 1.523 . S
C166 C150 1.368 . S
C166 C162 1.368 . S
C166 C165 1.523 . S
H167 C142 0.950 . S
H168 C144 0.950 . S
H169 C145 0.949 . S
H170 C147 0.950 . S
H171 C149 0.950 . S
C172 C173 1.349 . S
C172 C174 1.327 . S
C172 H197 0.950 . S
C173 C172 1.349 . S
C173 C189 1.349 . S
C174 C172 1.327 . S
C174 C193 1.429 . S
C174 H198 0.950 . S
C175 C192 1.574 . S
C175 C194 1.368 1_545 S
C175 H199 0.949 . S
H176 C180 0.949 . S
C177 C178 1.349 . S
C177 C179 1.327 . S
C177 H200 0.950 . S
C178 C177 1.349 . S
C178 C190 1.349 . S
C179 C177 1.327 . S
C179 C195 1.429 . S
C179 H201 0.950 . S
C180 H176 0.949 . S
C180 C188 1.574 . S
C180 C196 1.368 1_565 S
H181 C189 0.950 . S
H182 C187 0.950 . S
H183 C188 0.949 . S
H184 C190 0.950 . S
H185 C191 0.950 . S
H186 C192 0.949 . S
C187 H182 0.950 . S
C187 C189 1.327 . S
C187 C193 1.429 . S
C188 C180 1.574 . S
C188 H183 0.949 . S
C188 C194 1.368 . S
C189 C173 1.349 . S
C189 H181 0.950 . S
C189 C187 1.327 . S
C190 C178 1.349 . S
C190 H184 0.950 . S
C190 C191 1.327 . S
C191 H185 0.950 . S
C191 C190 1.327 . S
C191 C195 1.429 . S
C192 C175 1.574 . S
C192 H186 0.949 . S
C192 C196 1.368 . S
C193 C174 1.429 . S
C193 C187 1.429 . S
C193 C194 1.523 . S
C194 C175 1.368 1_565 S
C194 C188 1.368 . S
C194 C193 1.523 . S
C195 C179 1.429 . S
C195 C191 1.429 . S
C195 C196 1.523 . S
C196 C180 1.368 1_545 S
C196 C192 1.368 . S
C196 C195 1.523 . S
H197 C172 0.950 . S
H198 C174 0.950 . S
H199 C175 0.949 . S
H200 C177 0.950 . S
H201 C179 0.950 . S
C202 C203 1.349 . S
C202 C204 1.327 . S
C202 H227 0.950 . S
C203 C202 1.349 . S
C203 C219 1.349 . S
C204 C202 1.327 . S
C204 C223 1.429 . S
C204 H228 0.950 . S
C205 C222 1.574 . S
C205 C224 1.368 . S
C205 H229 0.949 . S
H206 C210 0.949 . S
C207 C208 1.349 . S
C207 C209 1.327 . S
C207 H230 0.950 . S
C208 C207 1.349 . S
C208 C220 1.349 . S
C209 C207 1.327 . S
C209 C225 1.429 . S
C209 H231 0.950 . S
C210 H206 0.949 . S
C210 C218 1.574 . S
C210 C226 1.368 . S
H211 C219 0.950 . S
H212 C217 0.950 . S
H213 C218 0.949 . S
H214 C220 0.950 . S
H215 C221 0.950 . S
H216 C222 0.949 . S
C217 H212 0.950 . S
C217 C219 1.327 . S
C217 C223 1.429 . S
C218 C210 1.574 . S
C218 H213 0.949 . S
C218 C224 1.368 . S
C219 C203 1.349 . S
C219 H211 0.950 . S
C219 C217 1.327 . S
C220 C208 1.349 . S
C220 H214 0.950 . S
C220 C221 1.327 . S
C221 H215 0.950 . S
C221 C220 1.327 . S
C221 C225 1.429 . S
C222 C205 1.574 . S
C222 H216 0.949 . S
C222 C226 1.368 . S
C223 C204 1.429 . S
C223 C217 1.429 . S
C223 C224 1.523 . S
C224 C205 1.368 . S
C224 C218 1.368 . S
C224 C223 1.523 . S
C225 C209 1.429 . S
C225 C221 1.429 . S
C225 C226 1.523 . S
C226 C210 1.368 . S
C226 C222 1.368 . S
C226 C225 1.523 . S
H227 C202 0.950 . S
H228 C204 0.950 . S
H229 C205 0.949 . S
H230 C207 0.950 . S
H231 C209 0.950 . S
C232 C233 1.349 . S
C232 C234 1.327 . S
C232 H257 0.950 . S
C233 C232 1.349 . S
C233 C249 1.349 . S
C234 C232 1.327 . S
C234 C253 1.429 . S
C234 H258 0.950 . S
C235 C252 1.574 . S
C235 C254 1.368 . S
C235 H259 0.949 . S
H236 C240 0.949 . S
C237 C238 1.349 . S
C237 C239 1.327 . S
C237 H260 0.950 . S
C238 C237 1.349 . S
C238 C250 1.349 . S
C239 C237 1.327 . S
C239 C255 1.429 . S
C239 H261 0.950 . S
C240 H236 0.949 . S
C240 C248 1.574 . S
C240 C256 1.368 . S
H241 C249 0.950 . S
H242 C247 0.950 . S
H243 C248 0.949 . S
H244 C250 0.950 . S
H245 C251 0.950 . S
H246 C252 0.949 . S
C247 H242 0.950 . S
C247 C249 1.327 . S
C247 C253 1.429 . S
C248 C240 1.574 . S
C248 H243 0.949 . S
C248 C254 1.368 . S
C249 C233 1.349 . S
C249 H241 0.950 . S
C249 C247 1.327 . S
C250 C238 1.349 . S
C250 H244 0.950 . S
C250 C251 1.327 . S
C251 H245 0.950 . S
C251 C250 1.327 . S
C251 C255 1.429 . S
C252 C235 1.574 . S
C252 H246 0.949 . S
C252 C256 1.368 . S
C253 C234 1.429 . S
C253 C247 1.429 . S
C253 C254 1.523 . S
C254 C235 1.368 . S
C254 C248 1.368 . S
C254 C253 1.523 . S
C255 C239 1.429 . S
C255 C251 1.429 . S
C255 C256 1.523 . S
C256 C240 1.368 . S
C256 C252 1.368 . S
C256 C255 1.523 . S
H257 C232 0.950 . S
H258 C234 0.950 . S
H259 C235 0.949 . S
H260 C237 0.950 . S
H261 C239 0.950 . S
C262 C263 1.349 . S
C262 C264 1.327 . S
C262 H287 0.950 . S
C263 C262 1.349 . S
C263 C279 1.349 . S
C264 C262 1.327 . S
C264 C283 1.429 . S
C264 H288 0.950 . S
C265 C282 1.574 . S
C265 C284 1.368 . S
C265 H289 0.949 . S
H266 C270 0.949 . S
C267 C268 1.349 . S
C267 C269 1.327 . S
C267 H290 0.950 . S
C268 C267 1.349 . S
C268 C280 1.349 . S
C269 C267 1.327 . S
C269 C285 1.429 . S
C269 H291 0.950 . S
C270 H266 0.949 . S
C270 C278 1.574 . S
C270 C286 1.368 . S
H271 C279 0.950 . S
H272 C277 0.950 . S
H273 C278 0.949 . S
H274 C280 0.950 . S
H275 C281 0.950 . S
H276 C282 0.949 . S
C277 H272 0.950 . S
C277 C279 1.327 . S
C277 C283 1.429 . S
C278 C270 1.574 . S
C278 H273 0.949 . S
C278 C284 1.368 . S
C279 C263 1.349 . S
C279 H271 0.950 . S
C279 C277 1.327 . S
C280 C268 1.349 . S
C280 H274 0.950 . S
C280 C281 1.327 . S
C281 H275 0.950 . S
C281 C280 1.327 . S
C281 C285 1.429 . S
C282 C265 1.574 . S
C282 H276 0.949 . S
C282 C286 1.368 . S
C283 C264 1.429 . S
C283 C277 1.429 . S
C283 C284 1.523 . S
C284 C265 1.368 . S
C284 C278 1.368 . S
C284 C283 1.523 . S
C285 C269 1.429 . S
C285 C281 1.429 . S
C285 C286 1.523 . S
C286 C270 1.368 . S
C286 C282 1.368 . S
C286 C285 1.523 . S
H287 C262 0.950 . S
H288 C264 0.950 . S
H289 C265 0.949 . S
H290 C267 0.950 . S
H291 C269 0.950 . S
C292 C293 1.349 . S
C292 C294 1.327 . S
C292 H317 0.950 . S
C293 C292 1.349 . S
C293 C309 1.349 . S
C294 C292 1.327 . S
C294 C313 1.429 . S
C294 H318 0.950 . S
C295 C312 1.574 . S
C295 C314 1.368 . S
C295 H319 0.949 . S
H296 C300 0.949 . S
C297 C298 1.349 . S
C297 C299 1.327 . S
C297 H320 0.950 . S
C298 C297 1.349 . S
C298 C310 1.349 . S
C299 C297 1.327 . S
C299 C315 1.429 . S
C299 H321 0.950 . S
C300 H296 0.949 . S
C300 C308 1.574 . S
C300 C316 1.368 . S
H301 C309 0.950 . S
H302 C307 0.950 . S
H303 C308 0.949 . S
H304 C310 0.950 . S
H305 C311 0.950 . S
H306 C312 0.949 . S
C307 H302 0.950 . S
C307 C309 1.327 . S
C307 C313 1.429 . S
C308 C300 1.574 . S
C308 H303 0.949 . S
C308 C314 1.368 . S
C309 C293 1.349 . S
C309 H301 0.950 . S
C309 C307 1.327 . S
C310 C298 1.349 . S
C310 H304 0.950 . S
C310 C311 1.327 . S
C311 H305 0.950 . S
C311 C310 1.327 . S
C311 C315 1.429 . S
C312 C295 1.574 . S
C312 H306 0.949 . S
C312 C316 1.368 . S
C313 C294 1.429 . S
C313 C307 1.429 . S
C313 C314 1.523 . S
C314 C295 1.368 . S
C314 C308 1.368 . S
C314 C313 1.523 . S
C315 C299 1.429 . S
C315 C311 1.429 . S
C315 C316 1.523 . S
C316 C300 1.368 . S
C316 C312 1.368 . S
C316 C315 1.523 . S
H317 C292 0.950 . S
H318 C294 0.950 . S
H319 C295 0.949 . S
H320 C297 0.950 . S
H321 C299 0.950 . S
C322 C323 1.349 . S
C322 C324 1.327 . S
C322 H347 0.950 . S
C323 C322 1.349 . S
C323 C339 1.349 . S
C324 C322 1.327 . S
C324 C343 1.429 . S
C324 H348 0.950 . S
C325 C342 1.574 . S
C325 C344 1.368 . S
C325 H349 0.949 . S
H326 C330 0.949 . S
C327 C328 1.349 . S
C327 C329 1.327 . S
C327 H350 0.950 . S
C328 C327 1.349 . S
C328 C340 1.349 . S
C329 C327 1.327 . S
C329 C345 1.429 . S
C329 H351 0.950 . S
C330 H326 0.949 . S
C330 C338 1.574 . S
C330 C346 1.368 . S
H331 C339 0.950 . S
H332 C337 0.950 . S
H333 C338 0.949 . S
H334 C340 0.950 . S
H335 C341 0.950 . S
H336 C342 0.949 . S
C337 H332 0.950 . S
C337 C339 1.327 . S
C337 C343 1.429 . S
C338 C330 1.574 . S
C338 H333 0.949 . S
C338 C344 1.368 . S
C339 C323 1.349 . S
C339 H331 0.950 . S
C339 C337 1.327 . S
C340 C328 1.349 . S
C340 H334 0.950 . S
C340 C341 1.327 . S
C341 H335 0.950 . S
C341 C340 1.327 . S
C341 C345 1.429 . S
C342 C325 1.574 . S
C342 H336 0.949 . S
C342 C346 1.368 . S
C343 C324 1.429 . S
C343 C337 1.429 . S
C343 C344 1.523 . S
C344 C325 1.368 . S
C344 C338 1.368 . S
C344 C343 1.523 . S
C345 C329 1.429 . S
C345 C341 1.429 . S
C345 C346 1.523 . S
C346 C330 1.368 . S
C346 C342 1.368 . S
C346 C345 1.523 . S
H347 C322 0.950 . S
H348 C324 0.950 . S
H349 C325 0.949 . S
H350 C327 0.950 . S
H351 C329 0.950 . S
C352 C353 1.349 . S
C352 C354 1.327 . S
C352 H377 0.950 . S
C353 C352 1.349 . S
C353 C369 1.349 . S
C354 C352 1.327 . S
C354 C373 1.429 . S
C354 H378 0.950 . S
C355 C372 1.574 . S
C355 C374 1.368 1_556 S
C355 H379 0.949 . S
H356 C360 0.949 . S
C357 C358 1.349 . S
C357 C359 1.327 . S
C357 H380 0.950 . S
C358 C357 1.349 . S
C358 C370 1.349 . S
C359 C357 1.327 . S
C359 C375 1.429 . S
C359 H381 0.950 . S
C360 H356 0.949 . S
C360 C368 1.574 . S
C360 C376 1.368 1_554 S
H361 C369 0.950 . S
H362 C367 0.950 . S
H363 C368 0.949 . S
H364 C370 0.950 . S
H365 C371 0.950 . S
H366 C372 0.949 . S
C367 H362 0.950 . S
C367 C369 1.327 . S
C367 C373 1.429 . S
C368 C360 1.574 . S
C368 H363 0.949 . S
C368 C374 1.368 . S
C369 C353 1.349 . S
C369 H361 0.950 . S
C369 C367 1.327 . S
C370 C358 1.349 . S
C370 H364 0.950 . S
C370 C371 1.327 . S
C371 H365 0.950 . S
C371 C370 1.327 . S
C371 C375 1.429 . S
C372 C355 1.574 . S
C372 H366 0.949 . S
C372 C376 1.368 . S
C373 C354 1.429 . S
C373 C367 1.429 . S
C373 C374 1.523 . S
C374 C355 1.368 1_554 S
C374 C368 1.368 . S
C374 C373 1.523 . S
C375 C359 1.429 . S
C375 C371 1.429 . S
C375 C376 1.523 . S
C376 C360 1.368 1_556 S
C376 C372 1.368 . S
C376 C375 1.523 . S
H377 C352 0.950 . S
H378 C354 0.950 . S
H379 C355 0.949 . S
H380 C357 0.950 . S
H381 C359 0.950 . S
C382 C383 1.349 . S
C382 C384 1.327 . S
C382 H407 0.950 . S
C383 C382 1.349 . S
C383 C399 1.349 . S
C384 C382 1.327 . S
C384 C403 1.429 . S
C384 H408 0.950 1_554 S
C385 C402 1.574 1_455 S
C385 C404 1.368 . S
C385 H409 0.949 . S
H386 C390 0.949 . S
C387 C388 1.349 . S
C387 C389 1.327 . S
C387 H410 0.950 . S
C388 C387 1.349 . S
C388 C400 1.349 . S
C389 C387 1.327 . S
C389 C405 1.429 . S
C389 H411 0.950 1_556 S
C390 H386 0.949 . S
C390 C398 1.574 1_655 S
C390 C406 1.368 . S
H391 C399 0.950 . S
H392 C397 0.950 . S
H393 C398 0.949 . S
H394 C400 0.950 . S
H395 C401 0.950 . S
H396 C402 0.949 . S
C397 H392 0.950 . S
C397 C399 1.327 . S
C397 C403 1.429 . S
C398 C390 1.574 1_455 S
C398 H393 0.949 . S
C398 C404 1.368 1_556 S
C399 C383 1.349 . S
C399 H391 0.950 . S
C399 C397 1.327 . S
C400 C388 1.349 . S
C400 H394 0.950 . S
C400 C401 1.327 . S
C401 H395 0.950 . S
C401 C400 1.327 . S
C401 C405 1.429 . S
C402 C385 1.574 1_655 S
C402 H396 0.949 . S
C402 C406 1.368 1_554 S
C403 C384 1.429 . S
C403 C397 1.429 . S
C403 C404 1.523 . S
C404 C385 1.368 . S
C404 C398 1.368 1_554 S
C404 C403 1.523 . S
C405 C389 1.429 . S
C405 C401 1.429 . S
C405 C406 1.523 . S
C406 C390 1.368 . S
C406 C402 1.368 1_556 S
C406 C405 1.523 . S
H407 C382 0.950 . S
H408 C384 0.950 1_556 S
H409 C385 0.949 . S
H410 C387 0.950 . S
H411 C389 0.950 1_554 S
C412 C413 1.349 . S
C412 C414 1.327 . S
C412 H437 0.950 . S
C413 C412 1.349 . S
C413 C429 1.349 . S
C414 C412 1.327 . S
C414 C433 1.429 . S
C414 H438 0.950 . S
C415 C432 1.574 . S
C415 C434 1.368 1_545 S
C415 H439 0.949 . S
H416 C420 0.949 . S
C417 C418 1.349 . S
C417 C419 1.327 . S
C417 H440 0.950 . S
C418 C417 1.349 . S
C418 C430 1.349 . S
C419 C417 1.327 . S
C419 C435 1.429 . S
C419 H441 0.950 . S
C420 H416 0.949 . S
C420 C428 1.574 . S
C420 C436 1.368 1_565 S
H421 C429 0.950 . S
H422 C427 0.950 . S
H423 C428 0.949 . S
H424 C430 0.950 . S
H425 C431 0.950 . S
H426 C432 0.949 . S
C427 H422 0.950 . S
C427 C429 1.327 . S
C427 C433 1.429 . S
C428 C420 1.574 . S
C428 H423 0.949 . S
C428 C434 1.368 . S
C429 C413 1.349 . S
C429 H421 0.950 . S
C429 C427 1.327 . S
C430 C418 1.349 . S
C430 H424 0.950 . S
C430 C431 1.327 . S
C431 H425 0.950 . S
C431 C430 1.327 . S
C431 C435 1.429 . S
C432 C415 1.574 . S
C432 H426 0.949 . S
C432 C436 1.368 . S
C433 C414 1.429 . S
C433 C427 1.429 . S
C433 C434 1.523 . S
C434 C415 1.368 1_565 S
C434 C428 1.368 . S
C434 C433 1.523 . S
C435 C419 1.429 . S
C435 C431 1.429 . S
C435 C436 1.523 . S
C436 C420 1.368 1_545 S
C436 C432 1.368 . S
C436 C435 1.523 . S
H437 C412 0.950 . S
H438 C414 0.950 . S
H439 C415 0.949 . S
H440 C417 0.950 . S
H441 C419 0.950 . S
C442 C443 1.349 . S
C442 C444 1.327 . S
C442 H467 0.950 . S
C443 C442 1.349 . S
C443 C459 1.349 . S
C444 C442 1.327 . S
C444 C463 1.429 . S
C444 H468 0.950 . S
C445 C462 1.570 1_645 S
C445 C464 1.371 . S
C445 H469 0.949 . S
H446 C450 0.949 . S
C447 C448 1.349 . S
C447 C449 1.327 . S
C447 H470 0.950 . S
C448 C447 1.349 . S
C448 C460 1.349 . S
C449 C447 1.327 . S
C449 C465 1.429 . S
C449 H471 0.950 . S
C450 H446 0.949 . S
C450 C458 1.570 1_465 S
C450 C466 1.371 . S
H451 C459 0.950 . S
H452 C457 0.950 . S
H453 C458 0.949 . S
H454 C460 0.950 . S
H455 C461 0.950 . S
H456 C462 0.949 . S
C457 H452 0.950 . S
C457 C459 1.327 . S
C457 C463 1.429 . S
C458 C450 1.570 1_645 S
C458 H453 0.949 . S
C458 C464 1.368 . S
C459 C443 1.349 . S
C459 H451 0.950 . S
C459 C457 1.327 . S
C460 C448 1.349 . S
C460 H454 0.950 . S
C460 C461 1.327 . S
C461 H455 0.950 . S
C461 C460 1.327 . S
C461 C465 1.429 . S
C462 C445 1.570 1_465 S
C462 H456 0.949 . S
C462 C466 1.368 . S
C463 C444 1.429 . S
C463 C457 1.429 . S
C463 C464 1.523 . S
C464 C445 1.371 . S
C464 C458 1.368 . S
C464 C463 1.523 . S
C465 C449 1.429 . S
C465 C461 1.429 . S
C465 C466 1.523 . S
C466 C450 1.371 . S
C466 C462 1.368 . S
C466 C465 1.523 . S
H467 C442 0.950 . S
H468 C444 0.950 . S
H469 C445 0.949 . S
H470 C447 0.950 . S
H471 C449 0.950 . S
C472 C473 1.349 . S
C472 C474 1.327 . S
C472 H497 0.950 . S
C473 C472 1.349 . S
C473 C489 1.349 . S
C474 C472 1.327 . S
C474 C493 1.429 . S
C474 H498 0.950 . S
C475 C492 1.574 . S
C475 C494 1.368 . S
C475 H499 0.949 . S
H476 C480 0.949 . S
C477 C478 1.349 . S
C477 C479 1.327 . S
C477 H500 0.950 . S
C478 C477 1.349 . S
C478 C490 1.349 . S
C479 C477 1.327 . S
C479 C495 1.429 . S
C479 H501 0.950 . S
C480 H476 0.949 . S
C480 C488 1.574 . S
C480 C496 1.368 . S
H481 C489 0.950 . S
H482 C487 0.950 . S
H483 C488 0.949 . S
H484 C490 0.950 . S
H485 C491 0.950 . S
H486 C492 0.949 . S
C487 H482 0.950 . S
C487 C489 1.327 . S
C487 C493 1.429 . S
C488 C480 1.574 . S
C488 H483 0.949 . S
C488 C494 1.368 . S
C489 C473 1.349 . S
C489 H481 0.950 . S
C489 C487 1.327 . S
C490 C478 1.349 . S
C490 H484 0.950 . S
C490 C491 1.327 . S
C491 H485 0.950 . S
C491 C490 1.327 . S
C491 C495 1.429 . S
C492 C475 1.574 . S
C492 H486 0.949 . S
C492 C496 1.368 . S
C493 C474 1.429 . S
C493 C487 1.429 . S
C493 C494 1.523 . S
C494 C475 1.368 . S
C494 C488 1.368 . S
C494 C493 1.523 . S
C495 C479 1.429 . S
C495 C491 1.429 . S
C495 C496 1.523 . S
C496 C480 1.368 . S
C496 C492 1.368 . S
C496 C495 1.523 . S
H497 C472 0.950 . S
H498 C474 0.950 . S
H499 C475 0.949 . S
H500 C477 0.950 . S
H501 C479 0.950 . S
C502 C503 1.349 . S
C502 C504 1.327 . S
C502 H527 0.950 . S
C503 C502 1.349 . S
C503 C519 1.349 . S
C504 C502 1.327 . S
C504 C523 1.429 . S
C504 H528 0.950 . S
C505 C522 1.571 1_545 S
C505 C524 1.371 . S
C505 H529 0.949 . S
H506 C510 0.949 . S
C507 C508 1.349 . S
C507 C509 1.327 . S
C507 H530 0.950 . S
C508 C507 1.349 . S
C508 C520 1.349 . S
C509 C507 1.327 . S
C509 C525 1.429 . S
C509 H531 0.950 . S
C510 H506 0.949 . S
C510 C518 1.571 1_565 S
C510 C526 1.370 . S
H511 C519 0.950 . S
H512 C517 0.950 . S
H513 C518 0.949 . S
H514 C520 0.950 . S
H515 C521 0.950 . S
H516 C522 0.949 . S
C517 H512 0.950 . S
C517 C519 1.327 . S
C517 C523 1.429 . S
C518 C510 1.571 1_545 S
C518 H513 0.949 . S
C518 C524 1.368 . S
C519 C503 1.349 . S
C519 H511 0.950 . S
C519 C517 1.327 . S
C520 C508 1.349 . S
C520 H514 0.950 . S
C520 C521 1.327 . S
C521 H515 0.950 . S
C521 C520 1.327 . S
C521 C525 1.429 . S
C522 C505 1.571 1_565 S
C522 H516 0.949 . S
C522 C526 1.368 . S
C523 C504 1.429 . S
C523 C517 1.429 . S
C523 C524 1.523 . S
C524 C505 1.371 . S
C524 C518 1.368 . S
C524 C523 1.523 . S
C525 C509 1.429 . S
C525 C521 1.429 . S
C525 C526 1.523 . S
C526 C510 1.370 . S
C526 C522 1.368 . S
C526 C525 1.523 . S
H527 C502 0.950 . S
H528 C504 0.950 . S
H529 C505 0.949 . S
H530 C507 0.950 . S
H531 C509 0.950 . S
C532 C533 1.349 . S
C532 C534 1.327 . S
C532 H557 0.950 . S
C533 C532 1.349 . S
C533 C549 1.349 . S
C534 C532 1.327 . S
C534 C553 1.429 . S
C534 H558 0.950 . S
C535 C552 1.574 . S
C535 C554 1.368 . S
C535 H559 0.949 . S
H536 C540 0.949 . S
C537 C538 1.349 . S
C537 C539 1.327 . S
C537 H560 0.950 . S
C538 C537 1.349 . S
C538 C550 1.349 . S
C539 C537 1.327 . S
C539 C555 1.429 . S
C539 H561 0.950 . S
C540 H536 0.949 . S
C540 C548 1.574 . S
C540 C556 1.368 . S
H541 C549 0.950 . S
H542 C547 0.950 . S
H543 C548 0.949 . S
H544 C550 0.950 . S
H545 C551 0.950 . S
H546 C552 0.949 . S
C547 H542 0.950 . S
C547 C549 1.327 . S
C547 C553 1.429 . S
C548 C540 1.574 . S
C548 H543 0.949 . S
C548 C554 1.368 . S
C549 C533 1.349 . S
C549 H541 0.950 . S
C549 C547 1.327 . S
C550 C538 1.349 . S
C550 H544 0.950 . S
C550 C551 1.327 . S
C551 H545 0.950 . S
C551 C550 1.327 . S
C551 C555 1.429 . S
C552 C535 1.574 . S
C552 H546 0.949 . S
C552 C556 1.368 . S
C553 C534 1.429 . S
C553 C547 1.429 . S
C553 C554 1.523 . S
C554 C535 1.368 . S
C554 C548 1.368 . S
C554 C553 1.523 . S
C555 C539 1.429 . S
C555 C551 1.429 . S
C555 C556 1.523 . S
C556 C540 1.368 . S
C556 C552 1.368 . S
C556 C555 1.523 . S
H557 C532 0.950 . S
H558 C534 0.950 . S
H559 C535 0.949 . S
H560 C537 0.950 . S
H561 C539 0.950 . S
C562 C563 1.349 . S
C562 C564 1.327 . S
C562 H587 0.950 . S
C563 C562 1.349 . S
C563 C579 1.349 . S
C564 C562 1.327 . S
C564 C583 1.429 . S
C564 H588 0.950 . S
C565 C582 1.571 1_565 S
C565 C584 1.368 . S
C565 H589 0.949 . S
H566 C570 0.949 . S
C567 C568 1.349 . S
C567 C569 1.327 . S
C567 H590 0.950 . S
C568 C567 1.349 . S
C568 C580 1.349 . S
C569 C567 1.327 . S
C569 C585 1.429 . S
C569 H591 0.950 . S
C570 H566 0.949 . S
C570 C578 1.571 1_545 S
C570 C586 1.368 . S
H571 C579 0.950 . S
H572 C577 0.950 . S
H573 C578 0.949 . S
H574 C580 0.950 . S
H575 C581 0.950 . S
H576 C582 0.949 . S
C577 H572 0.950 . S
C577 C579 1.327 . S
C577 C583 1.429 . S
C578 C570 1.571 1_565 S
C578 H573 0.949 . S
C578 C584 1.371 . S
C579 C563 1.349 . S
C579 H571 0.950 . S
C579 C577 1.327 . S
C580 C568 1.349 . S
C580 H574 0.950 . S
C580 C581 1.327 . S
C581 H575 0.950 . S
C581 C580 1.327 . S
C581 C585 1.429 . S
C582 C565 1.571 1_545 S
C582 H576 0.949 . S
C582 C586 1.370 . S
C583 C564 1.429 . S
C583 C577 1.429 . S
C583 C584 1.523 . S
C584 C565 1.368 . S
C584 C578 1.371 . S
C584 C583 1.523 . S
C585 C569 1.429 . S
C585 C581 1.429 . S
C585 C586 1.523 . S
C586 C570 1.368 . S
C586 C582 1.370 . S
C586 C585 1.523 . S
H587 C562 0.950 . S
H588 C564 0.950 . S
H589 C565 0.949 . S
H590 C567 0.950 . S
H591 C569 0.950 . S
C113 C12 1.135 . S
C118 C26 1.135 . S
C143 C54 1.135 . S
C148 C40 1.135 . S
C173 C68 1.135 . S
C178 C82 1.135 . S
C203 C96 1.135 . S
C208 C110 1.135 . S
C233 C11 1.432 . S
C238 C39 1.432 . S
C263 C53 1.432 . S
C268 C25 1.432 . S
C293 C67 1.432 . S
C298 C95 1.432 . S
C323 C109 1.432 . S
C328 C81 1.432 . S
C353 C5 1.346 . S
C358 C61 1.346 . S
C383 C19 1.346 . S
C388 C75 1.346 . S
C413 C89 1.346 . S
C418 C33 1.346 . S
C443 C103 1.346 . S
C448 C47 1.346 . S
C473 C18 0.651 . S
C478 C4 0.651 . S
C503 C32 0.651 . S
C508 C46 0.651 . S
C533 C60 0.651 . S
C538 C74 0.651 . S
C563 C88 0.651 . S
C568 C102 0.651 . S
