# Generated by pormake.
# Topology zfn, (5)-cn, num edge types: 1
# Building blocks:
#     Node 0, Type 0, BuildingBlock: XOMCOT_clean_sbu_0, # of connection points: 5
#     Node 1, Type 0, BuildingBlock: XOMCOT_clean_sbu_0, # of connection points: 5
#     Node 2, Type 0, BuildingBlock: XOMCOT_clean_sbu_0, # of connection points: 5
#     Node 3, Type 0, BuildingBlock: XOMCOT_clean_sbu_0, # of connection points: 5
#     Node 4, Type 0, BuildingBlock: XOMCOT_clean_sbu_0, # of connection points: 5
#     Node 5, Type 0, BuildingBlock: XOMCOT_clean_sbu_0, # of connection points: 5
#     Node 6, Type 0, BuildingBlock: XOMCOT_clean_sbu_0, # of connection points: 5
#     Node 7, Type 0, BuildingBlock: XOMCOT_clean_sbu_0, # of connection points: 5
#     Node 8, Type 0, BuildingBlock: XOMCOT_clean_sbu_0, # of connection points: 5
#     Node 9, Type 0, BuildingBlock: XOMCOT_clean_sbu_0, # of connection points: 5
#     Node 10, Type 0, BuildingBlock: XOMCOT_clean_sbu_0, # of connection points: 5
#     Node 11, Type 0, BuildingBlock: XOMCOT_clean_sbu_0, # of connection points: 5
#     Node 12, Type 0, BuildingBlock: XOMCOT_clean_sbu_0, # of connection points: 5
#     Node 13, Type 0, BuildingBlock: XOMCOT_clean_sbu_0, # of connection points: 5
#     Node 14, Type 0, BuildingBlock: XOMCOT_clean_sbu_0, # of connection points: 5
#     Node 15, Type 0, BuildingBlock: XOMCOT_clean_sbu_0, # of connection points: 5
#     Edge 16, Type (0, 0), BuildingBlock: KIFKEQ_clean_linker_1, # of connection points: 2
#     Edge 17, Type (0, 0), BuildingBlock: KIFKEQ_clean_linker_1, # of connection points: 2
#     Edge 18, Type (0, 0), BuildingBlock: KIFKEQ_clean_linker_1, # of connection points: 2
#     Edge 19, Type (0, 0), BuildingBlock: KIFKEQ_clean_linker_1, # of connection points: 2
#     Edge 20, Type (0, 0), BuildingBlock: KIFKEQ_clean_linker_1, # of connection points: 2
#     Edge 21, Type (0, 0), BuildingBlock: KIFKEQ_clean_linker_1, # of connection points: 2
#     Edge 22, Type (0, 0), BuildingBlock: KIFKEQ_clean_linker_1, # of connection points: 2
#     Edge 23, Type (0, 0), BuildingBlock: KIFKEQ_clean_linker_1, # of connection points: 2
#     Edge 24, Type (0, 0), BuildingBlock: KIFKEQ_clean_linker_1, # of connection points: 2
#     Edge 25, Type (0, 0), BuildingBlock: KIFKEQ_clean_linker_1, # of connection points: 2
#     Edge 26, Type (0, 0), BuildingBlock: KIFKEQ_clean_linker_1, # of connection points: 2
#     Edge 27, Type (0, 0), BuildingBlock: KIFKEQ_clean_linker_1, # of connection points: 2
#     Edge 28, Type (0, 0), BuildingBlock: KIFKEQ_clean_linker_1, # of connection points: 2
#     Edge 29, Type (0, 0), BuildingBlock: KIFKEQ_clean_linker_1, # of connection points: 2
#     Edge 30, Type (0, 0), BuildingBlock: KIFKEQ_clean_linker_1, # of connection points: 2
#     Edge 31, Type (0, 0), BuildingBlock: KIFKEQ_clean_linker_1, # of connection points: 2
#     Edge 32, Type (0, 0), BuildingBlock: KIFKEQ_clean_linker_1, # of connection points: 2
#     Edge 33, Type (0, 0), BuildingBlock: KIFKEQ_clean_linker_1, # of connection points: 2
#     Edge 34, Type (0, 0), BuildingBlock: KIFKEQ_clean_linker_1, # of connection points: 2
#     Edge 35, Type (0, 0), BuildingBlock: KIFKEQ_clean_linker_1, # of connection points: 2
#     Edge 36, Type (0, 0), BuildingBlock: KIFKEQ_clean_linker_1, # of connection points: 2
#     Edge 37, Type (0, 0), BuildingBlock: KIFKEQ_clean_linker_1, # of connection points: 2
#     Edge 38, Type (0, 0), BuildingBlock: KIFKEQ_clean_linker_1, # of connection points: 2
#     Edge 39, Type (0, 0), BuildingBlock: KIFKEQ_clean_linker_1, # of connection points: 2
#     Edge 40, Type (0, 0), BuildingBlock: KIFKEQ_clean_linker_1, # of connection points: 2
#     Edge 41, Type (0, 0), BuildingBlock: KIFKEQ_clean_linker_1, # of connection points: 2
#     Edge 42, Type (0, 0), BuildingBlock: KIFKEQ_clean_linker_1, # of connection points: 2
#     Edge 43, Type (0, 0), BuildingBlock: KIFKEQ_clean_linker_1, # of connection points: 2
#     Edge 44, Type (0, 0), BuildingBlock: KIFKEQ_clean_linker_1, # of connection points: 2
#     Edge 45, Type (0, 0), BuildingBlock: KIFKEQ_clean_linker_1, # of connection points: 2
#     Edge 46, Type (0, 0), BuildingBlock: KIFKEQ_clean_linker_1, # of connection points: 2
#     Edge 47, Type (0, 0), BuildingBlock: KIFKEQ_clean_linker_1, # of connection points: 2
#     Edge 48, Type (0, 0), BuildingBlock: KIFKEQ_clean_linker_1, # of connection points: 2
#     Edge 49, Type (0, 0), BuildingBlock: KIFKEQ_clean_linker_1, # of connection points: 2
#     Edge 50, Type (0, 0), BuildingBlock: KIFKEQ_clean_linker_1, # of connection points: 2
#     Edge 51, Type (0, 0), BuildingBlock: KIFKEQ_clean_linker_1, # of connection points: 2
#     Edge 52, Type (0, 0), BuildingBlock: KIFKEQ_clean_linker_1, # of connection points: 2
#     Edge 53, Type (0, 0), BuildingBlock: KIFKEQ_clean_linker_1, # of connection points: 2
#     Edge 54, Type (0, 0), BuildingBlock: KIFKEQ_clean_linker_1, # of connection points: 2
#     Edge 55, Type (0, 0), BuildingBlock: KIFKEQ_clean_linker_1, # of connection points: 2
# Relax obj value: 0.133
# Max RMSD: 0.137
# Mean RMSD: 0.137
data_MOF--net-zfn--node1-XOMCOT_clean_sbu_0--edge1-KIFKEQ_clean_linker_1
_symmetry_space_group_name_H-M    P1
_symmetry_Int_Tables_number       1
_symmetry_cell_setting            triclinic
loop_
_symmetry_equiv_pos_as_xyz
'x, y, z'
_cell_length_a     76.535826
_cell_length_b     76.332231
_cell_length_c     17.835571
_cell_angle_alpha  89.963025
_cell_angle_beta   89.999763
_cell_angle_gamma 89.977238
loop_
_atom_site_label
_atom_site_type_symbol
_atom_site_fract_x
_atom_site_fract_y
_atom_site_fract_z
_atom_type_partial_charge
Co0 Co 0.0209 0.34186 0.19714 0.0
C1 C 0.02284 0.34436 0.36489 0.0
C2 C 0.04799 0.34318 0.31254 0.0
C3 C 0.05033 0.34336 0.38897 0.0
N4 N 0.03076 0.34417 0.29717 0.0
N5 N 0.03449 0.34405 0.42183 0.0
H6 H 0.00893 0.34428 0.3732 0.0
H7 H 0.05817 0.34197 0.27077 0.0
C8 C 0.04392 0.37313 0.18989 0.0
O9 O 0.03708 0.37775 0.25452 0.0
N10 N 0.01146 0.33904 0.09768 0.0
C11 C 0.99469 0.33555 0.08065 0.0
C12 C 0.99296 0.33527 1.0039 0.0
C13 C 0.01978 0.34074 0.03145 0.0
N14 N 0.00873 0.33858 0.97298 0.0
C15 C 0.98982 0.35757 0.25991 0.0
C16 C 0.99076 0.38764 0.17381 0.0
C17 C 0.97687 0.38534 0.22408 0.0
C18 C 0.97648 0.36999 0.26728 0.0
C19 C 0.00369 0.37487 0.16787 0.0
N20 N 0.0037 0.36043 0.21333 0.0
H21 H 0.98848 0.34527 0.28908 0.0
H22 H 0.01331 0.3764 0.12421 0.0
H23 H 0.98439 0.33354 0.12129 0.0
H24 H 0.03351 0.34386 0.02624 0.0
O25 O 0.0074 0.32201 0.23084 0.0
O26 O 0.03429 0.32057 0.18502 0.0
O27 O 0.03877 0.35909 0.15754 0.0
C28 C 0.02085 0.31244 0.21317 0.0
H29 H 0.06271 0.34233 0.41802 0.0
H30 H 0.98102 0.33272 0.97333 0.0
H31 H 0.99155 0.3991 0.13817 0.0
H32 H 0.9656 0.36722 0.30425 0.0
Co33 Co 0.15362 0.02116 0.66872 0.0
C34 C 0.15193 0.02317 0.83437 0.0
C35 C 0.14294 0.0469 0.78254 0.0
C36 C 0.14247 0.04901 0.85918 0.0
N37 N 0.14883 0.03069 0.76711 0.0
N38 N 0.14822 0.03412 0.89198 0.0
H39 H 0.15732 0.01015 0.84064 0.0
H40 H 0.13955 0.05667 0.7411 0.0
C41 C 0.12393 0.03316 0.57388 0.0
O42 O 0.1229 0.017 0.54879 0.0
N43 N 0.15902 0.01196 0.56882 0.0
C44 C 0.1655 0.9961 0.55016 0.0
C45 C 0.1677 0.9953 0.4737 0.0
C46 C 0.15843 0.02088 0.50315 0.0
N47 N 0.16307 0.01085 0.44386 0.0
C48 C 0.14177 0.98586 0.69428 0.0
C49 C 0.10695 0.99392 0.71581 0.0
C50 C 0.11197 0.97626 0.7131 0.0
C51 C 0.12975 0.97235 0.70476 0.0
C52 C 0.11947 0.00702 0.70518 0.0
N53 N 0.13641 0.00286 0.6885 0.0
H54 H 0.15542 0.98259 0.69242 0.0
H55 H 0.11542 0.02054 0.70948 0.0
H56 H 0.169 0.98581 0.58858 0.0
H57 H 0.15471 0.03451 0.49884 0.0
O58 O 0.17397 0.00949 0.70751 0.0
O59 O 0.17373 0.03647 0.66068 0.0
O60 O 0.13528 0.0372 0.62364 0.0
C61 C 0.18254 0.02364 0.69069 0.0
H62 H 0.13827 0.06072 0.88819 0.0
H63 H 0.17216 0.98398 0.44262 0.0
H64 H 0.09344 -0.00237 0.72434 0.0
H65 H 0.13438 0.95895 0.7069 0.0
Co66 Co 0.47198 0.1528 0.18487 0.0
C67 C 0.47027 0.14962 0.35258 0.0
C68 C 0.44515 0.14943 0.2999 0.0
C69 C 0.44276 0.14922 0.3762 0.0
N70 N 0.4624 0.14941 0.28478 0.0
N71 N 0.45858 0.14936 0.40958 0.0
H72 H 0.48413 0.15056 0.36061 0.0
H73 H 0.43495 0.15019 0.25803 0.0
C74 C 0.45109 0.12021 0.17506 0.0
O75 O 0.45886 0.11538 0.23747 0.0
N76 N 0.481 0.15665 0.08541 0.0
C77 C 0.49716 0.16234 0.06804 0.0
C78 C 0.49854 0.16349 0.99129 0.0
C79 C 0.47276 0.15432 0.0194 0.0
N80 N 0.48321 0.1584 0.96095 0.0
C81 C 0.50361 0.13827 0.24702 0.0
C82 C 0.50396 0.10825 0.16066 0.0
C83 C 0.51703 0.1106 0.2146 0.0
C84 C 0.51701 0.12605 0.25692 0.0
C85 C 0.49095 0.1209 0.15215 0.0
N86 N 0.49013 0.1351 0.19875 0.0
H87 H 0.50442 0.15053 0.27673 0.0
H88 H 0.48173 0.11933 0.10692 0.0
H89 H 0.50727 0.16534 0.10842 0.0
H90 H 0.45938 0.14992 0.01421 0.0
O91 O 0.48465 0.17305 0.21952 0.0
O92 O 0.45748 0.17347 0.17588 0.0
O93 O 0.45486 0.13492 0.14477 0.0
C94 C 0.4707 0.18202 0.2036 0.0
H95 H 0.43027 0.14974 0.40446 0.0
H96 H 0.51002 0.16744 0.96013 0.0
H97 H 0.50404 0.09696 0.1239 0.0
H98 H 0.52725 0.1287 0.29724 0.0
Co99 Co 0.33905 0.47335 0.68443 0.0
C100 C 0.34148 0.47147 0.84961 0.0
C101 C 0.34582 0.44643 0.79817 0.0
C102 C 0.34622 0.44437 0.87483 0.0
N103 N 0.34292 0.46341 0.78262 0.0
N104 N 0.34348 0.46013 0.9074 0.0
H105 H 0.33885 0.48533 0.85537 0.0
H106 H 0.34702 0.43617 0.75668 0.0
C107 C 0.37041 0.46128 0.60037 0.0
O108 O 0.37266 0.47768 0.58006 0.0
N109 N 0.33438 0.48284 0.58426 0.0
C110 C 0.32456 0.497 0.56665 0.0
C111 C 0.32269 0.49802 0.49006 0.0
C112 C 0.33739 0.47496 0.51746 0.0
N113 N 0.33089 0.4842 0.45921 0.0
C114 C 0.35266 0.50853 0.6975 0.0
C115 C 0.38518 0.49903 0.75113 0.0
C116 C 0.38186 0.51679 0.73651 0.0
C117 C 0.36518 0.52146 0.71052 0.0
C118 C 0.37233 0.48651 0.73636 0.0
N119 N 0.35656 0.49123 0.70638 0.0
H120 H 0.3398 0.51258 0.68103 0.0
H121 H 0.37518 0.47291 0.74797 0.0
H122 H 0.3183 0.50564 0.60633 0.0
H123 H 0.34341 0.46224 0.5112 0.0
O124 O 0.31876 0.4853 0.72219 0.0
O125 O 0.31876 0.45847 0.67364 0.0
O126 O 0.35742 0.45708 0.64185 0.0
C127 C 0.31005 0.47131 0.70402 0.0
H128 H 0.3478 0.43203 0.90392 0.0
H129 H 0.31565 0.50805 0.45958 0.0
H130 H 0.39758 0.49477 0.77394 0.0
H131 H 0.36181 0.53497 0.6991 0.0
Co132 Co 0.01971 0.15279 0.32984 0.0
C133 C 0.02159 0.14966 0.16223 0.0
C134 C 0.0467 0.15013 0.21494 0.0
C135 C 0.04909 0.14997 0.1386 0.0
N136 N 0.02946 0.14968 0.23005 0.0
N137 N 0.03327 0.14969 0.10521 0.0
H138 H 0.00771 0.15021 0.15422 0.0
H139 H 0.05687 0.15114 0.25682 0.0
C140 C 0.04127 0.12061 0.33971 0.0
O141 O 0.03366 0.11576 0.277 0.0
N142 N 0.0105 0.15638 0.42917 0.0
C143 C 0.99419 0.16166 0.44641 0.0
C144 C 0.99276 0.16273 0.52319 0.0
C145 C 0.01877 0.15422 0.49525 0.0
N146 N 0.00819 0.158 0.55366 0.0
C147 C 0.98837 0.13768 0.26751 0.0
C148 C 0.98848 0.10775 0.35463 0.0
C149 C 0.97525 0.10992 0.30124 0.0
C150 C 0.97508 0.1253 0.25837 0.0
C151 C 0.00138 0.12052 0.36233 0.0
N152 N 0.00195 0.13472 0.31553 0.0
H153 H 0.98733 0.14991 0.23766 0.0
H154 H 0.01066 0.1191 0.40745 0.0
H155 H 0.98404 0.16443 0.40595 0.0
H156 H 0.03226 0.15017 0.50052 0.0
O157 O 0.0067 0.1728 0.29456 0.0
O158 O 0.03366 0.17382 0.33976 0.0
O159 O 0.03718 0.13522 0.37023 0.0
C160 C 0.02036 0.18214 0.31125 0.0
H161 H 0.06156 0.15078 0.11031 0.0
H162 H 0.98116 0.16637 0.55426 0.0
H163 H 0.98857 0.09652 0.39185 0.0
H164 H 0.96472 0.12783 0.2184 0.0
Co165 Co 0.33924 0.02022 0.84802 0.0
C166 C 0.34143 0.02193 0.6828 0.0
C167 C 0.34849 0.04644 0.73344 0.0
C168 C 0.34902 0.04833 0.6566 0.0
N169 N 0.3438 0.02987 0.74964 0.0
N170 N 0.34451 0.03293 0.62472 0.0
H171 H 0.33737 0.00842 0.67708 0.0
H172 H 0.35087 0.05658 0.7745 0.0
C173 C 0.36922 0.03237 0.9404 0.0
O174 O 0.37066 0.01612 0.96417 0.0
N175 N 0.33393 0.01083 0.94788 0.0
C176 C 0.32605 0.9955 0.96473 0.0
C177 C 0.32403 0.99423 0.04115 0.0
C178 C 0.33542 0.01913 0.0148 0.0
N179 N 0.33013 0.00903 0.07293 0.0
C180 C 0.35234 0.98498 0.8276 0.0
C181 C 0.3864 0.99457 0.79685 0.0
C182 C 0.38237 0.97674 0.80377 0.0
C183 C 0.36495 0.97198 0.81685 0.0
C184 C 0.37335 0.00709 0.80738 0.0
N185 N 0.35683 0.00228 0.82818 0.0
H186 H 0.33896 0.98105 0.83426 0.0
H187 H 0.37664 0.02074 0.80001 0.0
H188 H 0.32121 0.98609 0.92483 0.0
H189 H 0.34033 0.03231 0.02101 0.0
O190 O 0.31904 0.00834 0.80878 0.0
O191 O 0.31898 0.03526 0.85627 0.0
O192 O 0.35739 0.03647 0.89279 0.0
C193 C 0.31033 0.02244 0.82559 0.0
H194 H 0.35187 0.06033 0.62668 0.0
H195 H 0.31808 0.98339 0.07071 0.0
H196 H 0.39954 -0.0012 0.78344 0.0
H197 H 0.36114 0.95834 0.82025 0.0
Co198 Co 0.471 0.34003 0.34775 0.0
C199 C 0.46952 0.34316 0.18009 0.0
C200 C 0.44424 0.3424 0.23159 0.0
C201 C 0.44203 0.34288 0.15517 0.0
N202 N 0.46147 0.34293 0.24751 0.0
N203 N 0.45794 0.34331 0.12285 0.0
H204 H 0.48344 0.34277 0.17224 0.0
H205 H 0.43397 0.34127 0.27297 0.0
C206 C 0.44875 0.37184 0.35517 0.0
O207 O 0.45597 0.37651 0.29134 0.0
N208 N 0.48013 0.33662 0.44738 0.0
C209 C 0.49673 0.33231 0.46438 0.0
C210 C 0.49849 0.33205 0.54105 0.0
C211 C 0.47195 0.33884 0.51363 0.0
N212 N 0.48293 0.33621 0.57199 0.0
C213 C 0.50271 0.35497 0.28802 0.0
C214 C 0.50225 0.38484 0.37526 0.0
C215 C 0.5164 0.38217 0.32667 0.0
C216 C 0.51653 0.36691 0.28287 0.0
C217 C 0.48892 0.37247 0.37952 0.0
N218 N 0.48871 0.35815 0.33353 0.0
H219 H 0.50377 0.34276 0.25808 0.0
H220 H 0.47914 0.37421 0.42238 0.0
H221 H 0.50691 0.32979 0.42373 0.0
H222 H 0.45842 0.34274 0.51894 0.0
O223 O 0.48412 0.31994 0.31407 0.0
O224 O 0.45694 0.31911 0.35753 0.0
O225 O 0.45344 0.35758 0.38717 0.0
C226 C 0.47032 0.31075 0.3301 0.0
H227 H 0.42969 0.34221 0.12571 0.0
H228 H 0.51032 0.32898 0.57159 0.0
H229 H 0.50153 0.39627 0.41104 0.0
H230 H 0.52753 0.36381 0.24708 0.0
Co231 Co 0.15295 0.47424 0.85298 0.0
C232 C 0.15073 0.47264 0.68778 0.0
C233 C 0.14343 0.44819 0.7385 0.0
C234 C 0.14276 0.44634 0.66169 0.0
N235 N 0.14834 0.46469 0.75461 0.0
N236 N 0.14743 0.4617 0.62981 0.0
H237 H 0.15494 0.4861 0.68196 0.0
H238 H 0.14094 0.43807 0.77959 0.0
C239 C 0.1221 0.46238 0.94169 0.0
O240 O 0.12034 0.4787 0.96394 0.0
N241 N 0.15824 0.4835 0.95299 0.0
C242 C 0.16715 0.49825 0.96991 0.0
C243 C 0.16897 0.49952 0.04638 0.0
C244 C 0.15586 0.47548 0.02007 0.0
N245 N 0.16172 0.48525 0.07813 0.0
C246 C 0.14079 0.50973 0.83502 0.0
C247 C 0.10666 0.50142 0.7995 0.0
C248 C 0.11117 0.51908 0.80953 0.0
C249 C 0.12866 0.52315 0.82489 0.0
C250 C 0.11929 0.48841 0.80977 0.0
N251 N 0.13581 0.49259 0.8329 0.0
H252 H 0.15423 0.51322 0.84332 0.0
H253 H 0.11562 0.47489 0.80116 0.0
H254 H 0.17286 0.50719 0.93001 0.0
H255 H 0.1501 0.46266 0.02655 0.0
O256 O 0.17333 0.48584 0.8142 0.0
O257 O 0.17301 0.4589 0.86157 0.0
O258 O 0.13452 0.45821 0.89707 0.0
C259 C 0.18185 0.47166 0.8313 0.0
H260 H 0.13969 0.43441 0.63177 0.0
H261 H 0.17564 0.50991 0.07605 0.0
H262 H 0.0934 0.49761 0.78595 0.0
H263 H 0.13298 0.53663 0.82885 0.0
Co264 Co 0.97051 0.65305 0.83886 0.0
C265 C 0.96881 0.64976 0.67129 0.0
C266 C 0.9437 0.6491 0.72389 0.0
C267 C 0.94133 0.6489 0.64756 0.0
N268 N 0.96094 0.64934 0.7391 0.0
N269 N 0.95715 0.64932 0.6142 0.0
H270 H 0.98264 0.65109 0.66338 0.0
H271 H 0.93348 0.64975 0.76568 0.0
C272 C 0.94943 0.62067 0.85167 0.0
O273 O 0.9573 0.61553 0.78997 0.0
N274 N 0.97953 0.65725 0.93815 0.0
C275 C 0.99569 0.66295 0.95536 0.0
C276 C -0.00292 0.66415 0.03212 0.0
C277 C 0.9713 0.65499 1.00425 0.0
N278 N 0.98176 0.65908 0.06262 0.0
C279 C 0.00191 0.63752 0.77818 0.0
C280 C 0.00239 0.60884 0.87268 0.0
C281 C 0.01568 0.61058 0.81917 0.0
C282 C 0.01542 0.62526 0.77196 0.0
C283 C 0.9892 0.62139 0.87695 0.0
N284 N 0.98842 0.635 0.82712 0.0
H285 H 0.00283 0.64942 0.74606 0.0
H286 H 0.97985 0.6203 0.92197 0.0
H287 H 0.00582 0.66583 0.91491 0.0
H288 H 0.95793 0.65055 1.0096 0.0
O289 O 0.98346 0.67292 0.80203 0.0
O290 O 0.9564 0.67402 0.84627 0.0
O291 O 0.95314 0.63556 0.88045 0.0
C292 C 0.96972 0.68227 0.81756 0.0
H293 H 0.92884 0.64925 0.6193 0.0
H294 H 0.00859 0.66805 0.06317 0.0
H295 H 0.00223 0.59795 0.91162 0.0
H296 H 0.02592 0.62764 0.73254 0.0
Co297 Co 0.83962 0.9723 0.33999 0.0
C298 C 0.84205 0.9706 0.17485 0.0
C299 C 0.84954 0.94623 0.2257 0.0
C300 C 0.85011 0.94434 0.14883 0.0
N301 N 0.84454 0.9627 0.2418 0.0
N302 N 0.84531 0.95965 0.11681 0.0
H303 H 0.83771 0.98402 0.16902 0.0
H304 H 0.85208 0.93613 0.26683 0.0
C305 C 0.86948 0.96054 0.4341 0.0
O306 O 0.87065 0.97682 0.4576 0.0
N307 N 0.834 0.98165 0.43963 0.0
C308 C 0.82622 0.99703 0.45645 0.0
C309 C 0.82414 -0.00175 0.53287 0.0
C310 C 0.83536 0.97329 0.50654 0.0
N311 N 0.83012 0.98339 0.56471 0.0
C312 C 0.85183 0.00762 0.31771 0.0
C313 C 0.88636 -0.00085 0.29113 0.0
C314 C 0.88164 0.01688 0.2958 0.0
C315 C 0.86397 0.021 0.30678 0.0
C316 C 0.87371 0.98619 0.30175 0.0
N317 N 0.85693 0.99051 0.32057 0.0
H318 H 0.83826 0.01109 0.32206 0.0
H319 H 0.87752 0.97263 0.29607 0.0
H320 H 0.82156 0.00655 0.41658 0.0
H321 H 0.84025 0.96009 0.51271 0.0
O322 O 0.81947 0.98391 0.29934 0.0
O323 O 0.81939 0.95714 0.34787 0.0
O324 O 0.85787 0.95628 0.3858 0.0
C325 C 0.81073 0.96984 0.31605 0.0
H326 H 0.85317 0.93239 0.11902 0.0
H327 H 0.81829 0.00916 0.56238 0.0
H328 H 0.89975 0.99524 0.28098 0.0
H329 H 0.85949 0.03446 0.30626 0.0
Co330 Co 0.52187 0.8417 0.82849 0.0
C331 C 0.52369 0.84553 0.66114 0.0
C332 C 0.54881 0.84321 0.71301 0.0
C333 C 0.55109 0.84351 0.63662 0.0
N334 N 0.53165 0.8447 0.72869 0.0
N335 N 0.53526 0.84494 0.60377 0.0
H336 H 0.50978 0.846 0.65354 0.0
H337 H 0.55895 0.84138 0.75451 0.0
C338 C 0.54484 0.87296 0.83869 0.0
O339 O 0.53812 0.87791 0.77424 0.0
N340 N 0.51256 0.83817 0.92775 0.0
C341 C 0.49613 0.83325 0.94481 0.0
C342 C 0.49458 0.83235 0.0216 0.0
C343 C 0.52078 0.84027 0.99397 0.0
N344 N 0.51006 0.83681 0.05229 0.0
C345 C 0.49053 0.85737 0.76855 0.0
C346 C 0.49137 0.88707 0.8568 0.0
C347 C 0.47736 0.88481 0.80718 0.0
C348 C 0.47701 0.86964 0.76287 0.0
C349 C 0.50448 0.87443 0.86107 0.0
N350 N 0.50451 0.86019 0.81458 0.0
H351 H 0.48927 0.84521 0.73828 0.0
H352 H 0.51421 0.8759 0.90429 0.0
H353 H 0.48596 0.83067 0.90422 0.0
H354 H 0.53433 0.84408 0.99943 0.0
O355 O 0.50852 0.82197 0.7927 0.0
O356 O 0.53544 0.82042 0.83814 0.0
O357 O 0.53965 0.85877 0.86967 0.0
C358 C 0.52203 0.81238 0.80919 0.0
H359 H 0.56343 0.84195 0.60784 0.0
H360 H 0.48287 0.82903 0.0525 0.0
H361 H 0.49213 0.89839 0.89321 0.0
H362 H 0.46606 0.8669 0.72627 0.0
Co363 Co 0.65119 0.52184 0.33478 0.0
C364 C 0.64975 0.52385 0.16702 0.0
C365 C 0.6416 0.5477 0.21915 0.0
C366 C 0.64159 0.55015 0.14278 0.0
N367 N 0.64608 0.53098 0.23475 0.0
N368 N 0.64672 0.53512 0.10989 0.0
H369 H 0.65548 0.5111 0.15936 0.0
H370 H 0.63931 0.55779 0.26048 0.0
C371 C 0.61758 0.54044 0.35705 0.0
O372 O 0.61184 0.5315 0.2991 0.0
N373 N 0.65689 0.51329 0.43394 0.0
C374 C 0.66315 0.49727 0.45057 0.0
C375 C 0.66464 0.49584 0.52718 0.0
C376 C 0.65472 0.52144 0.50044 0.0
N377 N 0.65925 0.511 0.55868 0.0
C378 C 0.63484 0.49104 0.27088 0.0
C379 C 0.61018 0.48694 0.38268 0.0
C380 C 0.61037 0.47512 0.32281 0.0
C381 C 0.62292 0.47722 0.2665 0.0
C382 C 0.62209 0.50076 0.38405 0.0
N383 N 0.63384 0.50315 0.32705 0.0
H384 H 0.64526 0.49145 0.23082 0.0
H385 H 0.62197 0.50946 0.43174 0.0
H386 H 0.66612 0.48722 0.40982 0.0
H387 H 0.64943 0.53451 0.50607 0.0
O388 O 0.67105 0.50949 0.29514 0.0
O389 O 0.67158 0.53683 0.33734 0.0
O390 O 0.63334 0.53845 0.37945 0.0
C391 C 0.68 0.52364 0.30816 0.0
H392 H 0.63888 0.56234 0.11406 0.0
H393 H 0.66931 0.48443 0.55714 0.0
H394 H 0.60087 0.48554 0.42805 0.0
H395 H 0.6239 0.46788 0.22096 0.0
Co396 Co 0.97228 0.84144 0.69237 0.0
C397 C 0.97071 0.84471 0.85988 0.0
C398 C 0.94569 0.84696 0.80734 0.0
C399 C 0.94334 0.84719 0.88366 0.0
N400 N 0.9629 0.84577 0.79207 0.0
N401 N 0.9591 0.84576 0.91705 0.0
H402 H 0.98441 0.84234 0.86763 0.0
H403 H 0.93543 0.84688 0.76563 0.0
C404 C 0.95186 0.87422 0.67671 0.0
O405 O 0.96 0.87962 0.73735 0.0
N406 N 0.98108 0.83662 0.59318 0.0
C407 C -0.00293 0.83044 0.57603 0.0
C408 C -0.0016 0.82909 0.49928 0.0
C409 C 0.9729 0.83902 0.52705 0.0
N410 N 0.98322 0.83455 0.46871 0.0
C411 C 0.00379 0.85697 0.75232 0.0
C412 C 0.00485 0.88487 0.65371 0.0
C413 C 0.0179 0.88347 0.70844 0.0
C414 C 0.01736 0.86917 0.75773 0.0
C415 C 0.99155 0.87243 0.65049 0.0
N416 N 0.99049 0.85923 0.70221 0.0
H417 H 0.00451 0.84531 0.78606 0.0
H418 H 0.98229 0.8733 0.60502 0.0
H419 H 0.00715 0.82737 0.61649 0.0
H420 H 0.95967 0.84389 0.52162 0.0
O421 O 0.9849 0.82148 0.73052 0.0
O422 O 0.95777 0.82075 0.68697 0.0
O423 O 0.95518 0.85906 0.64969 0.0
C424 C 0.97096 0.81235 0.71602 0.0
H425 H 0.93083 0.84751 0.91182 0.0
H426 H 0.0098 0.82485 0.46827 0.0
H427 H 0.00493 0.89546 0.61323 0.0
H428 H 0.02769 0.86706 0.79827 0.0
Co429 Co 0.65243 0.97285 0.18985 0.0
C430 C 0.6501 0.97113 0.35495 0.0
C431 C 0.64276 0.94671 0.30428 0.0
C432 C 0.64212 0.94486 0.38116 0.0
N433 N 0.6477 0.9632 0.2881 0.0
N434 N 0.64681 0.9602 0.41303 0.0
H435 H 0.65432 0.98459 0.3607 0.0
H436 H 0.64027 0.9366 0.26322 0.0
C437 C 0.62187 0.96117 0.09923 0.0
O438 O 0.62025 0.97754 0.07737 0.0
N439 N 0.65782 0.98224 0.09006 0.0
C440 C 0.66627 -0.00274 0.07315 0.0
C441 C 0.66814 -0.00147 0.99663 0.0
C442 C 0.65578 0.97411 0.02303 0.0
N443 N 0.66137 0.98403 0.96488 0.0
C444 C 0.64035 0.00825 0.21021 0.0
C445 C 0.60598 -3e-05 0.24131 0.0
C446 C 0.61064 0.01766 0.23355 0.0
C447 C 0.62826 0.0217 0.2206 0.0
C448 C 0.6186 0.98694 0.2313 0.0
N449 N 0.63525 0.99114 0.21002 0.0
H450 H 0.65387 0.01169 0.20374 0.0
H451 H 0.61483 0.97341 0.23865 0.0
H452 H 0.6716 0.00641 0.11303 0.0
H453 H 0.65036 0.96114 0.01671 0.0
O454 O 0.67269 0.98437 0.22986 0.0
O455 O 0.6726 0.95763 0.1811 0.0
O456 O 0.63409 0.95688 0.14469 0.0
C457 C 0.68135 0.97028 0.21274 0.0
H458 H 0.63905 0.93291 0.41111 0.0
H459 H 0.67448 0.00914 0.96697 0.0
H460 H 0.59265 0.99613 0.25301 0.0
H461 H 0.63272 0.03515 0.2188 0.0
Co462 Co 0.51825 0.65323 0.68554 0.0
C463 C 0.52058 0.65171 0.85099 0.0
C464 C 0.54477 0.64424 0.7991 0.0
C465 C 0.5469 0.64389 0.87583 0.0
N466 N 0.52826 0.64911 0.78368 0.0
N467 N 0.53171 0.64867 0.90865 0.0
H468 H 0.50727 0.65625 0.85727 0.0
H469 H 0.55467 0.64142 0.75756 0.0
C470 C 0.5309 0.62396 0.58969 0.0
O471 O 0.51476 0.62253 0.56527 0.0
N472 N 0.50848 0.6579 0.58602 0.0
C473 C 0.49194 0.66209 0.56692 0.0
C474 C 0.49096 0.66411 0.49032 0.0
C475 C 0.51745 0.65834 0.52049 0.0
N476 N 0.50698 0.66156 0.46087 0.0
C477 C 0.48378 0.64047 0.71965 0.0
C478 C 0.49274 0.60561 0.73503 0.0
C479 C 0.47502 0.61029 0.73876 0.0
C480 C 0.47074 0.62812 0.73375 0.0
C481 C 0.50538 0.61847 0.72221 0.0
N482 N 0.50068 0.63545 0.70822 0.0
H483 H 0.48024 0.65412 0.71925 0.0
H484 H 0.51895 0.61465 0.72307 0.0
H485 H 0.48118 0.66384 0.60496 0.0
H486 H 0.53138 0.6561 0.51653 0.0
O487 O 0.50623 0.67343 0.72431 0.0
O488 O 0.53275 0.67387 0.67443 0.0
O489 O 0.53469 0.63527 0.64012 0.0
C490 C 0.51996 0.68244 0.70575 0.0
H491 H 0.55881 0.64041 0.90492 0.0
H492 H 0.47919 0.66684 0.45877 0.0
H493 H 0.49691 0.59213 0.74057 0.0
H494 H 0.45743 0.6326 0.74119 0.0
Co495 Co 0.83876 0.52056 0.18704 0.0
C496 C 0.84074 0.52255 0.35215 0.0
C497 C 0.84721 0.54719 0.30113 0.0
C498 C 0.84767 0.54913 0.37799 0.0
N499 N 0.84293 0.53051 0.28517 0.0
N500 N 0.84353 0.53364 0.41011 0.0
H501 H 0.83704 0.50894 0.35803 0.0
H502 H 0.8494 0.55734 0.25989 0.0
C503 C 0.86862 0.53295 0.09452 0.0
O504 O 0.87031 0.51667 0.07167 0.0
N505 N 0.83387 0.51085 0.0874 0.0
C506 C 0.82669 0.49519 0.07046 0.0
C507 C 0.82478 0.49388 0.99398 0.0
C508 C 0.83506 0.51923 0.02048 0.0
N509 N 0.83025 0.50894 0.96225 0.0
C510 C 0.85221 0.48562 0.21125 0.0
C511 C 0.88623 0.49562 0.2401 0.0
C512 C 0.88234 0.47773 0.23477 0.0
C513 C 0.86494 0.47277 0.22276 0.0
C514 C 0.87306 0.50799 0.22881 0.0
N515 N 0.85656 0.50294 0.20872 0.0
H516 H 0.83884 0.48156 0.2055 0.0
H517 H 0.87624 0.5217 0.23499 0.0
H518 H 0.82225 0.48556 0.11027 0.0
H519 H 0.83945 0.5326 0.01441 0.0
O520 O 0.81864 0.50854 0.22639 0.0
O521 O 0.81825 0.53518 0.17652 0.0
O522 O 0.85675 0.53699 0.14204 0.0
C523 C 0.80969 0.52238 0.20802 0.0
H524 H 0.85026 0.5612 0.40773 0.0
H525 H 0.81933 0.48279 0.96437 0.0
H526 H 0.89935 0.50003 0.25277 0.0
H527 H 0.86122 0.45909 0.22063 0.0
H528 H 0.95903 0.39662 0.34882 0.0
H529 H 0.96202 0.40375 0.10868 0.0
H530 H 0.93607 0.41887 0.35514 0.0
H531 H 0.93949 0.42615 0.11556 0.0
H532 H 0.91425 0.47878 0.16753 0.0
H533 H 0.93697 0.45638 0.16844 0.0
H534 H 0.90491 0.42386 0.31102 0.0
H535 H 0.88219 0.44647 0.3111 0.0
C536 C 0.95475 0.40282 0.2974 0.0
C537 C 0.96255 0.39851 0.22837 0.0
C538 C 0.94163 0.41559 0.3011 0.0
C539 C 0.93613 0.42437 0.23596 0.0
C540 C 0.94371 0.41986 0.16693 0.0
C541 C 0.95668 0.40705 0.16311 0.0
C542 C 0.91214 0.46696 0.19992 0.0
C543 C 0.89643 0.46439 0.23921 0.0
C544 C 0.92507 0.45406 0.19981 0.0
C545 C 0.92265 0.43833 0.23939 0.0
C546 C 0.90714 0.43589 0.28027 0.0
C547 C 0.89411 0.44876 0.27982 0.0
H548 H 0.083 0.97416 0.80381 0.0
H549 H 0.11108 0.94609 0.63135 0.0
H550 H 0.06066 0.95131 0.80465 0.0
H551 H 0.08914 0.92304 0.63415 0.0
H552 H 0.03593 0.89779 0.59127 0.0
H553 H 0.0588 0.9199 0.59584 0.0
H554 H 0.05589 0.92028 0.83773 0.0
H555 H 0.03251 0.89847 0.83302 0.0
C556 C 0.08444 0.9631 0.76631 0.0
C557 C 0.0988 0.96199 0.71733 0.0
C558 C 0.07175 0.94991 0.76739 0.0
C559 C 0.0731 0.93539 0.71927 0.0
C560 C 0.08761 0.93416 0.67128 0.0
C561 C 0.10029 0.94728 0.67031 0.0
C562 C 0.04006 0.90268 0.64545 0.0
C563 C 0.03232 0.89646 0.71178 0.0
C564 C 0.05332 0.9152 0.64811 0.0
C565 C 0.05919 0.92183 0.71717 0.0
C566 C 0.05155 0.91554 0.78363 0.0
C567 C 0.03829 0.90293 0.78097 0.0
H568 H 0.58163 0.01971 0.32448 0.0
H569 H 0.60922 0.04766 0.14993 0.0
H570 H 0.55912 0.0424 0.32481 0.0
H571 H 0.58701 0.07045 0.15201 0.0
H572 H 0.55226 0.11595 0.22632 0.0
H573 H 0.57519 0.09379 0.23731 0.0
H574 H 0.5361 0.05301 0.23425 0.0
H575 H 0.51316 0.07517 0.22417 0.0
C576 C 0.58292 0.03064 0.28617 0.0
C577 C 0.59728 0.03181 0.23716 0.0
C578 C 0.57005 0.04366 0.28661 0.0
C579 C 0.57135 0.0582 0.23857 0.0
C580 C 0.58581 0.05953 0.19049 0.0
C581 C 0.59857 0.04646 0.18953 0.0
C582 C 0.54857 0.10226 0.22891 0.0
C583 C 0.53094 0.09727 0.22424 0.0
C584 C 0.56169 0.08959 0.23461 0.0
C585 C 0.55742 0.07169 0.23653 0.0
C586 C 0.53976 0.06672 0.23353 0.0
C587 C 0.52666 0.07938 0.22706 0.0
H588 H 0.41709 0.51349 0.71103 0.0
H589 H 0.37818 0.55084 0.78477 0.0
H590 H 0.4395 0.53606 0.72054 0.0
H591 H 0.40058 0.5735 0.79067 0.0
H592 H 0.44211 0.6106 0.67809 0.0
H593 H 0.41965 0.58817 0.68695 0.0
H594 H 0.45392 0.55626 0.82205 0.0
H595 H 0.47626 0.57905 0.81672 0.0
C596 C 0.4133 0.5264 0.73026 0.0
C597 C 0.39572 0.53029 0.7467 0.0
C598 C 0.42616 0.53933 0.73536 0.0
C599 C 0.42172 0.5565 0.75595 0.0
C600 C 0.40429 0.56039 0.77381 0.0
C601 C 0.39146 0.5474 0.7699 0.0
C602 C 0.44481 0.59903 0.71128 0.0
C603 C 0.4611 0.59674 0.74672 0.0
C604 C 0.43193 0.58614 0.71595 0.0
C605 C 0.43509 0.57051 0.7551 0.0
C606 C 0.45124 0.56816 0.79095 0.0
C607 C 0.46406 0.58119 0.78739 0.0
H608 H 0.91071 0.01819 0.20511 0.0
H609 H 0.88295 0.04755 0.37478 0.0
H610 H 0.93317 0.04088 0.20134 0.0
H611 H 0.90518 0.0703 0.36955 0.0
H612 H 0.93999 0.11519 0.29007 0.0
H613 H 0.91705 0.09298 0.28244 0.0
H614 H 0.95619 0.05223 0.28848 0.0
H615 H 0.97912 0.07443 0.2949 0.0
C616 C 0.90939 0.02943 0.24168 0.0
C617 C 0.895 0.031 0.29033 0.0
C618 C 0.92223 0.04245 0.2393 0.0
C619 C 0.92091 0.05737 0.28505 0.0
C620 C 0.90642 0.05908 0.33278 0.0
C621 C 0.89366 0.04603 0.3356 0.0
C622 C 0.94369 0.1015 0.28876 0.0
C623 C 0.96134 0.09653 0.2932 0.0
C624 C 0.93056 0.08879 0.28505 0.0
C625 C 0.93484 0.07088 0.28503 0.0
C626 C 0.95251 0.06593 0.28777 0.0
C627 C 0.96562 0.07863 0.29214 0.0
H628 H 0.46266 0.90265 0.92454 0.0
H629 H 0.45897 0.89628 0.6842 0.0
H630 H 0.43985 0.92481 0.92022 0.0
H631 H 0.43572 0.91826 0.68051 0.0
H632 H 0.38188 0.9454 0.72839 0.0
H633 H 0.4046 0.92279 0.72722 0.0
H634 H 0.43704 0.95523 0.86837 0.0
H635 H 0.41434 0.97765 0.87035 0.0
C636 C 0.45711 0.90606 0.87063 0.0
C637 C 0.46286 0.89781 0.80454 0.0
C638 C 0.44397 0.91872 0.86829 0.0
C639 C 0.43612 0.92336 0.79997 0.0
C640 C 0.44149 0.91486 0.73403 0.0
C641 C 0.45478 0.90226 0.73624 0.0
C642 C 0.39387 0.94766 0.75913 0.0
C643 C 0.39633 0.96329 0.7995 0.0
C644 C 0.4069 0.9348 0.75799 0.0
C645 C 0.42254 0.93723 0.79798 0.0
C646 C 0.42504 0.95292 0.83765 0.0
C647 C 0.41212 0.96583 0.83817 0.0
H648 H 0.58853 0.46611 0.20863 0.0
H649 H 0.60413 0.45103 0.43187 0.0
H650 H 0.56648 0.44301 0.20812 0.0
H651 H 0.58285 0.42731 0.43052 0.0
H652 H 0.53022 0.40095 0.44357 0.0
H653 H 0.55302 0.42282 0.43979 0.0
H654 H 0.56043 0.41295 0.20318 0.0
H655 H 0.53642 0.39205 0.20567 0.0
C656 C 0.58738 0.45762 0.25709 0.0
C657 C 0.59785 0.46039 0.32054 0.0
C658 C 0.57483 0.4443 0.25678 0.0
C659 C 0.57272 0.43328 0.31952 0.0
C660 C 0.58372 0.43578 0.38193 0.0
C661 C 0.596 0.44929 0.38269 0.0
C662 C 0.53644 0.40362 0.39027 0.0
C663 C 0.53121 0.39485 0.32467 0.0
C664 C 0.54984 0.41598 0.38841 0.0
C665 C 0.5587 0.41972 0.32119 0.0
C666 C 0.55376 0.41066 0.25581 0.0
C667 C 0.54013 0.39845 0.25744 0.0
H668 H 0.03136 0.59696 0.69388 0.0
H669 H 0.03275 0.59488 0.93591 0.0
H670 H 0.05502 0.57548 0.68827 0.0
H671 H 0.05578 0.57299 0.93028 0.0
H672 H 0.10855 0.54787 0.89943 0.0
H673 H 0.08625 0.57053 0.8979 0.0
H674 H 0.06044 0.54444 0.71376 0.0
H675 H 0.08328 0.52209 0.71303 0.0
C676 C 0.03672 0.59194 0.74582 0.0
C677 C 0.03012 0.59759 0.81531 0.0
C678 C 0.05014 0.57951 0.7426 0.0
C679 C 0.05729 0.57251 0.80881 0.0
C680 C 0.05072 0.57825 0.8782 0.0
C681 C 0.03734 0.59064 0.88142 0.0
C682 C 0.0983 0.54709 0.85771 0.0
C683 C 0.09773 0.53314 0.80631 0.0
C684 C 0.08537 0.55998 0.85749 0.0
C685 C 0.07148 0.55923 0.8061 0.0
C686 C 0.07103 0.54546 0.75377 0.0
C687 C 0.08401 0.53254 0.75392 0.0
H688 H 0.05651 0.37129 0.04581 0.0
H689 H 0.05932 0.40216 0.24851 0.0
H690 H 0.07541 0.39246 0.9823 0.0
H691 H 0.07836 0.42297 0.18584 0.0
H692 H 0.09395 0.4672 0.03272 0.0
H693 H 0.07546 0.44503 0.08957 0.0
H694 H 0.10531 0.40442 0.97984 0.0
H695 H 0.12373 0.42675 0.92128 0.0
C696 C 0.06129 0.38247 0.077 0.0
C697 C 0.05629 0.38512 0.15204 0.0
C698 C 0.07216 0.39457 0.04069 0.0
C699 C 0.07823 0.40951 0.07875 0.0
C700 C 0.0736 0.41182 0.15436 0.0
C701 C 0.06275 0.39981 0.19046 0.0
C702 C 0.09658 0.45356 0.02034 0.0
C703 C 0.1104 0.44875 0.97283 0.0
C704 C 0.08602 0.44083 0.05338 0.0
C705 C 0.08904 0.42293 0.04003 0.0
C706 C 0.10259 0.41809 0.99098 0.0
C707 C 0.11318 0.43088 0.95769 0.0
H708 H 0.11235 0.06351 0.63919 0.0
H709 H 0.10974 0.03336 0.43489 0.0
H710 H 0.09215 0.08501 0.5858 0.0
H711 H 0.09056 0.05513 0.37979 0.0
H712 H 0.04236 0.08531 0.32457 0.0
H713 H 0.06205 0.06478 0.38453 0.0
H714 H 0.08774 0.10766 0.49843 0.0
H715 H 0.06712 0.12818 0.44107 0.0
C716 C 0.1076 0.06162 0.58256 0.0
C717 C 0.1124 0.04669 0.54148 0.0
C718 C 0.09611 0.07397 0.55168 0.0
C719 C 0.08947 0.07178 0.47856 0.0
C720 C 0.09487 0.05706 0.437 0.0
C721 C 0.10599 0.04459 0.46838 0.0
C722 C 0.05222 0.09037 0.36242 0.0
C723 C 0.05332 0.10836 0.3776 0.0
C724 C 0.06364 0.07858 0.39655 0.0
C725 C 0.07678 0.0845 0.44558 0.0
C726 C 0.07773 0.10255 0.46158 0.0
C727 C 0.066 0.11435 0.4284 0.0
H728 H 0.45059 0.08485 0.1888 0.0
H729 H 0.42491 0.12768 0.0753 0.0
H730 H 0.43108 0.0642 0.12863 0.0
H731 H 0.40449 0.10704 0.01785 0.0
H732 H 0.38023 0.06301 0.87597 0.0
H733 H 0.40028 0.08459 0.92951 0.0
H734 H 0.40269 0.05419 0.13413 0.0
H735 H 0.38364 0.03236 0.07884 0.0
C736 C 0.44057 0.08986 0.15159 0.0
C737 C 0.43915 0.10787 0.13726 0.0
C738 C 0.42926 0.07801 0.11733 0.0
C739 C 0.41592 0.08388 0.06911 0.0
C740 C 0.41466 0.10196 0.05402 0.0
C741 C 0.42627 0.11383 0.08728 0.0
C742 C 0.38514 0.06103 0.93232 0.0
C743 C 0.38061 0.04594 0.97295 0.0
C744 C 0.39654 0.07342 0.96328 0.0
C745 C 0.40335 0.07111 0.03604 0.0
C746 C 0.39824 0.05622 0.07718 0.0
C747 C 0.38719 0.04371 0.0457 0.0
H748 H 0.36801 0.4256 0.61723 0.0
H749 H 0.39932 0.46607 0.51384 0.0
H750 H 0.38651 0.40325 0.55927 0.0
H751 H 0.41787 0.44388 0.45763 0.0
H752 H 0.43522 0.36962 0.49752 0.0
H753 H 0.41626 0.39085 0.56028 0.0
H754 H 0.41526 0.42234 0.35895 0.0
H755 H 0.43436 0.40147 0.29705 0.0
C756 C 0.3789 0.42973 0.58272 0.0
C757 C 0.38211 0.44761 0.56966 0.0
C758 C 0.38953 0.41693 0.54981 0.0
C759 C 0.40354 0.42178 0.50321 0.0
C760 C 0.40697 0.43968 0.49192 0.0
C761 C 0.39637 0.45242 0.52459 0.0
C762 C 0.43087 0.38104 0.46665 0.0
C763 C 0.43641 0.38393 0.39249 0.0
C764 C 0.41997 0.39316 0.50252 0.0
C765 C 0.41441 0.40838 0.46487 0.0
C766 C 0.41961 0.41096 0.39011 0.0
C767 C 0.4305 0.39892 0.35445 0.0
H768 H 0.8794 0.56393 0.15681 0.0
H769 H 0.88258 0.53283 0.9553 0.0
H770 H 0.89909 0.5856 0.10112 0.0
H771 H 0.90124 0.55472 0.89796 0.0
H772 H 0.94896 0.58529 0.84032 0.0
H773 H 0.92962 0.56479 0.90232 0.0
H774 H 0.90306 0.60788 1.01115 0.0
H775 H 0.92333 0.62841 0.9517 0.0
C776 C 0.88417 0.56186 0.10031 0.0
C777 C 0.87972 0.54662 0.06071 0.0
C778 C 0.89536 0.57431 0.06813 0.0
C779 C 0.90202 0.57187 0.99519 0.0
C780 C 0.89692 0.55685 0.95503 0.0
C781 C 0.8861 0.5443 0.9877 0.0
C782 C 0.93899 0.5904 0.87745 0.0
C783 C 0.93753 0.60846 0.8906 0.0
C784 C 0.92776 0.57863 0.91277 0.0
C785 C 0.91448 0.58461 0.96097 0.0
C786 C 0.91318 0.60273 0.97495 0.0
C787 C 0.92471 0.61453 0.94057 0.0
H788 H 0.92558 0.86607 0.57831 0.0
H789 H 0.95125 0.90966 0.68604 0.0
H790 H 0.90503 0.88631 0.51878 0.0
H791 H 0.93157 0.92987 0.624 0.0
H792 H 0.88382 0.96112 0.57269 0.0
H793 H 0.90299 0.93962 0.62975 0.0
H794 H 0.90079 0.90836 0.42766 0.0
H795 H 0.88066 0.92966 0.37218 0.0
C796 C 0.92691 0.87999 0.58861 0.0
C797 C 0.93984 0.88628 0.63758 0.0
C798 C 0.91522 0.89161 0.55418 0.0
C799 C 0.91643 0.90978 0.56715 0.0
C800 C 0.92981 0.91598 0.61433 0.0
C801 C 0.94122 0.90438 0.64966 0.0
C802 C 0.88745 0.94966 0.54044 0.0
C803 C 0.88092 0.94713 0.46778 0.0
C804 C 0.89855 0.93734 0.57295 0.0
C805 C 0.90377 0.92232 0.53303 0.0
C806 C 0.89698 0.91967 0.46046 0.0
C807 C 0.88553 0.93189 0.4284 0.0
H808 H 0.59399 0.96635 1.00715 0.0
H809 H 0.6235 0.92545 0.11713 0.0
H810 H 0.57577 0.94442 0.94725 0.0
H811 H 0.60536 0.90336 0.05549 0.0
H812 H 0.5604 0.9023 0.78347 0.0
H813 H 0.57915 0.92285 0.84923 0.0
H814 H 0.57548 0.89136 0.04998 0.0
H815 H 0.55688 0.87047 0.98342 0.0
C816 C 0.59661 0.95266 0.01857 0.0
C817 C 0.61029 0.94766 0.06655 0.0
C818 C 0.58621 0.94007 0.98378 0.0
C819 C 0.58925 0.92212 0.99578 0.0
C820 C 0.60264 0.91708 0.04534 0.0
C821 C 0.61306 0.92973 0.08041 0.0
C822 C 0.56362 0.89968 0.84155 0.0
C823 C 0.55705 0.8848 0.87829 0.0
C824 C 0.5743 0.91154 0.87942 0.0
C825 C 0.57864 0.90887 0.95515 0.0
C826 C 0.57245 0.89374 0.99154 0.0
C827 C 0.56176 0.88181 0.95346 0.0
H828 H 0.62577 0.56792 0.44996 0.0
H829 H 0.58218 0.54015 0.35268 0.0
H830 H 0.6055 0.58879 0.50736 0.0
H831 H 0.56202 0.56028 0.41228 0.0
H832 H 0.53057 0.60853 0.4531 0.0
H833 H 0.5522 0.58904 0.39915 0.0
H834 H 0.58352 0.59347 0.60009 0.0
H835 H 0.56203 0.61381 0.65271 0.0
C836 C 0.61186 0.56618 0.44155 0.0
C837 C 0.60557 0.55256 0.39601 0.0
C838 C 0.60023 0.57808 0.47471 0.0
C839 C 0.58208 0.57642 0.46369 0.0
C840 C 0.57589 0.56235 0.42026 0.0
C841 C 0.58747 0.5507 0.38637 0.0
C842 C 0.54207 0.60535 0.48581 0.0
C843 C 0.54453 0.61253 0.55741 0.0
C844 C 0.55447 0.59406 0.45506 0.0
C845 C 0.56952 0.58936 0.49567 0.0
C846 C 0.57216 0.59686 0.56693 0.0
C847 C 0.55983 0.60845 0.5973 0.0
H848 H 0.99464 0.29249 0.27152 0.0
H849 H 0.04732 0.28921 0.1856 0.0
H850 H 0.99486 0.26111 0.29624 0.0
H851 H 0.04743 0.25767 0.20918 0.0
H852 H 0.04714 0.20512 0.3374 0.0
H853 H 0.04745 0.23667 0.31356 0.0
H854 H 0.99474 0.23362 0.22783 0.0
H855 H 0.99433 0.20227 0.2528 0.0
C856 C 0.00624 0.28504 0.25751 0.0
C857 C 0.02095 0.29332 0.22645 0.0
C858 C 0.00634 0.26703 0.27138 0.0
C859 C 0.02115 0.25686 0.25455 0.0
C860 C 0.03588 0.26516 0.22355 0.0
C861 C 0.03578 0.2832 0.20956 0.0
C862 C 0.03563 0.21122 0.31361 0.0
C863 C 0.0207 0.20123 0.29722 0.0
C864 C 0.03584 0.22926 0.2995 0.0
C865 C 0.02111 0.23767 0.2689 0.0
C866 C 0.00621 0.22761 0.25243 0.0
C867 C 0.00602 0.20961 0.26641 0.0
H868 H 0.28666 0.99627 0.83252 0.0
H869 H 0.29182 0.05128 0.78225 0.0
H870 H 0.25582 -0.00253 0.8015 0.0
H871 H 0.26112 0.0524 0.74496 0.0
H872 H 0.20116 0.05176 0.74138 0.0
H873 H 0.23197 0.05217 0.77776 0.0
H874 H 0.23711 -0.00156 0.70297 0.0
H875 H 0.2062 -0.00216 0.67297 0.0
C876 C 0.28113 0.0086 0.81398 0.0
C877 C 0.29153 0.02366 0.80952 0.0
C878 C 0.26346 0.0093 0.79524 0.0
C879 C 0.25585 0.02497 0.769 0.0
C880 C 0.26633 0.04013 0.7656 0.0
C881 C 0.28396 0.03952 0.78659 0.0
C882 C 0.20903 0.04013 0.73274 0.0
C883 C 0.20141 0.02473 0.70513 0.0
C884 C 0.2267 0.04033 0.75322 0.0
C885 C 0.23716 0.02524 0.74459 0.0
C886 C 0.2295 0.01014 0.71334 0.0
C887 C 0.21179 0.00981 0.69515 0.0
H888 H 0.49705 0.28761 0.34067 0.0
H889 H 0.44238 0.29147 0.28475 0.0
H890 H 0.49661 0.25649 0.31222 0.0
H891 H 0.44206 0.26061 0.24986 0.0
H892 H 0.44273 0.20105 0.25101 0.0
H893 H 0.44227 0.23193 0.28575 0.0
H894 H 0.49646 0.23653 0.21837 0.0
H895 H 0.49706 0.20541 0.19012 0.0
C896 C 0.48496 0.28174 0.3215 0.0
C897 C 0.46975 0.29183 0.31501 0.0
C898 C 0.48471 0.2639 0.30422 0.0
C899 C 0.46935 0.25584 0.2775 0.0
C900 C 0.45408 0.2661 0.27138 0.0
C901 C 0.45424 0.28385 0.29096 0.0
C902 C 0.45447 0.20878 0.24367 0.0
C903 C 0.46994 0.20095 0.21834 0.0
C904 C 0.45424 0.22654 0.26316 0.0
C905 C 0.46937 0.23693 0.25564 0.0
C906 C 0.48467 0.22901 0.22751 0.0
C907 C 0.48501 0.21118 0.21034 0.0
H908 H 0.29115 0.44282 0.74821 0.0
H909 H 0.28659 0.49754 0.69153 0.0
H910 H 0.26027 0.44213 0.78293 0.0
H911 H 0.25559 0.49674 0.71987 0.0
H912 H 0.20559 0.4975 0.84618 0.0
H913 H 0.23654 0.49654 0.81724 0.0
H914 H 0.23125 0.4424 0.74835 0.0
H915 H 0.2004 0.4432 0.78368 0.0
C916 C 0.28338 0.4546 0.74183 0.0
C917 C 0.29116 0.47027 0.71797 0.0
C918 C 0.26566 0.45423 0.76134 0.0
C919 C 0.25529 0.46945 0.75545 0.0
C920 C 0.26312 0.48489 0.72806 0.0
C921 C 0.28088 0.48536 0.71085 0.0
C922 C 0.21115 0.48537 0.82545 0.0
C923 C 0.20071 0.47045 0.8169 0.0
C924 C 0.22888 0.48483 0.80787 0.0
C925 C 0.23653 0.46948 0.7787 0.0
C926 C 0.22601 0.45442 0.77131 0.0
C927 C 0.2083 0.45485 0.79118 0.0
H928 H 0.94381 0.78972 0.69129 0.0
H929 H -0.00347 0.7921 0.7773 0.0
H930 H 0.9431 0.75821 0.71602 0.0
H931 H 0.99571 0.7608 0.80316 0.0
H932 H 0.99572 0.70218 0.75794 0.0
H933 H 0.99551 0.73353 0.73329 0.0
H934 H 0.9429 0.73696 0.81989 0.0
H935 H 0.943 0.70539 0.84344 0.0
C936 C 0.95521 0.78353 0.71574 0.0
C937 C 0.97025 0.79337 0.732 0.0
C938 C 0.95477 0.76552 0.73031 0.0
C939 C 0.96938 0.75698 0.76127 0.0
C940 C 0.98434 0.76691 0.77817 0.0
C941 C 0.98477 0.78488 0.76369 0.0
C942 C 0.98409 0.7096 0.77175 0.0
C943 C 0.96939 0.70132 0.80283 0.0
C944 C 0.98401 0.7276 0.75798 0.0
C945 C 0.96922 0.73777 0.77499 0.0
C946 C 0.95444 0.72947 0.80555 0.0
C947 C 0.95453 0.71141 0.81943 0.0
H948 H 0.78833 0.94243 0.34344 0.0
H949 H 0.79054 0.99464 0.25006 0.0
H950 H 0.75682 0.94146 0.31819 0.0
H951 H 0.75943 0.99357 0.22434 0.0
H952 H 0.70353 0.94265 0.18592 0.0
H953 H 0.73505 0.94146 0.21073 0.0
H954 H 0.73294 0.99379 0.30221 0.0
H955 H 0.70181 0.99508 0.27693 0.0
C956 C 0.78212 0.95363 0.31731 0.0
C957 C 0.79187 0.96867 0.29935 0.0
C958 C 0.76414 0.95304 0.30251 0.0
C959 C 0.75565 0.96751 0.26994 0.0
C960 C 0.76553 0.98234 0.2507 0.0
C961 C 0.7834 0.98292 0.26522 0.0
C962 C 0.70985 0.95386 0.21139 0.0
C963 C 0.70024 0.96901 0.22889 0.0
C964 C 0.72784 0.95314 0.22595 0.0
C965 C 0.73647 0.96759 0.25778 0.0
C966 C 0.72673 0.98256 0.27643 0.0
C967 C 0.70885 0.98326 0.26217 0.0
H968 H 0.54871 0.7891 0.83262 0.0
H969 H 0.4957 0.7927 0.75086 0.0
H970 H 0.54869 0.75761 0.80712 0.0
H971 H 0.49578 0.76143 0.7244 0.0
H972 H 0.49485 0.70281 0.76903 0.0
H973 H 0.49588 0.73407 0.79457 0.0
H974 H 0.54792 0.73659 0.70132 0.0
H975 H 0.54699 0.70505 0.67663 0.0
C976 C 0.53708 0.78318 0.80913 0.0
C977 C 0.52218 0.79335 0.79412 0.0
C978 C 0.53711 0.76518 0.79405 0.0
C979 C 0.52222 0.75701 0.76395 0.0
C980 C 0.50737 0.76726 0.7486 0.0
C981 C 0.50736 0.78521 0.76349 0.0
C982 C 0.50653 0.71 0.75387 0.0
C983 C 0.52082 0.70147 0.72056 0.0
C984 C 0.50708 0.72795 0.7682 0.0
C985 C 0.52194 0.73784 0.74961 0.0
C986 C 0.53633 0.7293 0.71684 0.0
C987 C 0.53576 0.71128 0.7023 0.0
H988 H 0.78917 0.49733 0.27108 0.0
H989 H 0.78734 0.54962 0.17854 0.0
H990 H 0.75792 0.49847 0.29487 0.0
H991 H 0.75581 0.55066 0.20155 0.0
H992 H 0.70273 0.55093 0.33093 0.0
H993 H 0.73422 0.5513 0.30618 0.0
H994 H 0.73111 0.49845 0.22082 0.0
H995 H 0.69993 0.49797 0.24635 0.0
C996 C 0.78208 0.50907 0.2556 0.0
C997 C 0.79071 0.52336 0.2226 0.0
C998 C 0.76413 0.50968 0.26892 0.0
C999 C 0.75436 0.52461 0.2496 0.0
C1000 C 0.76301 0.53903 0.2175 0.0
C1001 C 0.78103 0.53839 0.20395 0.0
C1002 C 0.70881 0.53943 0.30673 0.0
C1003 C 0.69888 0.52438 0.29108 0.0
C1004 C 0.7268 0.53967 0.29222 0.0
C1005 C 0.73517 0.52485 0.2621 0.0
C1006 C 0.72512 0.50996 0.24528 0.0
C1007 C 0.70721 0.50973 0.25959 0.0
H1008 H 0.03994 0.33252 0.90535 0.0
H1009 H 0.98655 0.34769 0.86115 0.0
H1010 H 0.04635 0.33407 0.77149 0.0
H1011 H 0.99294 0.34929 0.72777 0.0
H1012 H 0.00552 0.3311 0.48988 0.0
H1013 H -0.00048 0.33005 0.62378 0.0
H1014 H 0.04919 0.35479 0.66846 0.0
H1015 H 0.05521 0.3558 0.53426 0.0
C1016 C 0.02961 0.33634 0.86725 0.0
C1017 C 0.0127 0.33986 0.89408 0.0
C1018 C 0.03328 0.33724 0.79048 0.0
C1019 C 0.02013 0.34172 0.73879 0.0
C1020 C 0.00329 0.34546 0.76581 0.0
C1021 C -0.00038 0.34453 0.84241 0.0
C1022 C 0.01508 0.3365 0.52808 0.0
C1023 C 0.03084 0.34358 0.50118 0.0
C1024 C 0.01165 0.33588 0.60499 0.0
C1025 C 0.02386 0.34236 0.65695 0.0
C1026 C 0.03961 0.34945 0.63008 0.0
C1027 C 0.04306 0.35004 0.55312 0.0
H1028 H 0.15124 0.05849 1.00281 0.0
H1029 H 0.15081 0.00263 0.96323 0.0
H1030 H 0.15522 0.0533 0.13613 0.0
H1031 H 0.15504 -0.00249 0.09688 0.0
H1032 H 0.18078 0.99566 0.32875 0.0
H1033 H 0.17728 0.00138 0.19529 0.0
H1034 H 0.13931 0.04158 0.24496 0.0
H1035 H 0.14266 0.03576 0.37855 0.0
C1036 C 0.15183 0.04508 0.02223 0.0
C1037 C 0.15063 0.03099 0.97148 0.0
C1038 C 0.15415 0.04212 0.09902 0.0
C1039 C 0.15546 0.02499 0.12736 0.0
C1040 C 0.15433 0.01088 0.07685 0.0
C1041 C 0.15191 0.01384 0.99999 0.0
C1042 C 0.17163 0.00568 0.31148 0.0
C1043 C 0.16197 0.01518 0.36494 0.0
C1044 C 0.1696 0.00894 0.23474 0.0
C1045 C 0.15793 0.02186 0.20925 0.0
C1046 C 0.14855 0.03164 0.26262 0.0
C1047 C 0.15052 0.02833 0.33943 0.0
H1048 H 0.46244 0.13451 0.89343 0.0
H1049 H 0.49484 0.17965 0.85082 0.0
H1050 H 0.45656 0.1318 0.75947 0.0
H1051 H 0.48859 0.17743 0.71729 0.0
H1052 H 0.48913 0.15873 0.47799 0.0
H1053 H 0.49489 0.16025 0.61109 0.0
H1054 H 0.4417 0.14467 0.65731 0.0
H1055 H 0.43621 0.14194 0.52406 0.0
C1056 C 0.4681 0.14399 0.85536 0.0
C1057 C 0.47914 0.15725 0.88237 0.0
C1058 C 0.46472 0.14249 0.77859 0.0
C1059 C 0.47215 0.15436 0.72722 0.0
C1060 C 0.48296 0.1678 0.75477 0.0
C1061 C 0.48649 0.16915 0.83134 0.0
C1062 C 0.47866 0.15535 0.51597 0.0
C1063 C 0.46213 0.15023 0.4892 0.0
C1064 C 0.48193 0.15649 0.59286 0.0
C1065 C 0.46874 0.15272 0.6453 0.0
C1066 C 0.45225 0.1475 0.61875 0.0
C1067 C 0.44903 0.14618 0.54185 0.0
H1068 H 0.35465 0.43966 0.02309 0.0
H1069 H 0.32908 0.48889 0.97415 0.0
H1070 H 0.35106 0.445 0.15609 0.0
H1071 H 0.3265 0.49469 0.10737 0.0
H1072 H 0.30773 0.49181 0.34898 0.0
H1073 H 0.31087 0.48589 0.21544 0.0
H1074 H 0.36125 0.46214 0.25705 0.0
H1075 H 0.35779 0.46769 0.39081 0.0
C1076 C 0.34829 0.45165 0.04026 0.0
C1077 C 0.34206 0.46375 0.9869 0.0
C1078 C 0.34644 0.45483 0.11706 0.0
C1079 C 0.33846 0.47028 0.14296 0.0
C1080 C 0.33246 0.4825 0.08975 0.0
C1081 C 0.33417 0.47926 0.01289 0.0
C1082 C 0.31947 0.48535 0.32948 0.0
C1083 C 0.3325 0.48021 0.38046 0.0
C1084 C 0.32133 0.48201 0.25279 0.0
C1085 C 0.33636 0.4736 0.22498 0.0
C1086 C 0.34936 0.46839 0.27626 0.0
C1087 C 0.34741 0.47158 0.35305 0.0
H1088 H 0.02972 0.13475 0.62125 0.0
H1089 H 0.99587 0.17881 0.66391 0.0
H1090 H 0.03573 0.13221 0.75518 0.0
H1091 H 0.00222 0.17677 0.7974 0.0
H1092 H 0.00242 0.15811 0.03684 0.0
H1093 H -0.00344 0.15943 0.90381 0.0
H1094 H 0.0502 0.14552 0.8573 0.0
H1095 H 0.05583 0.14299 0.99055 0.0
C1096 C 0.02376 0.14403 0.65931 0.0
C1097 C 0.01229 0.15693 0.63229 0.0
C1098 C 0.02721 0.14263 0.73608 0.0
C1099 C 0.01942 0.15425 0.78748 0.0
C1100 C 0.00816 0.16733 0.75993 0.0
C1101 C 0.00456 0.16858 0.68336 0.0
C1102 C 0.01298 0.15505 0.99884 0.0
C1103 C 0.02967 0.15045 0.02556 0.0
C1104 C 0.00964 0.15608 0.92196 0.0
C1105 C 0.02292 0.15272 0.86942 0.0
C1106 C 0.03958 0.14802 0.89591 0.0
C1107 C 0.04288 0.14681 0.97282 0.0
H1108 H 0.33249 0.04099 0.14068 0.0
H1109 H 0.33144 0.98542 0.18672 0.0
H1110 H 0.33583 0.04686 0.27428 0.0
H1111 H 0.33478 0.99129 0.31967 0.0
H1112 H 0.3235 0.00855 0.55991 0.0
H1113 H 0.31956 0.00308 0.42648 0.0
H1114 H 0.35679 0.04388 0.37537 0.0
H1115 H 0.36068 0.04938 0.50889 0.0
C1116 C 0.33302 0.03001 0.17897 0.0
C1117 C 0.33158 0.01271 0.15236 0.0
C1118 C 0.33497 0.03338 0.25578 0.0
C1119 C 0.33555 0.01956 0.30804 0.0
C1120 C 0.33406 0.00229 0.28141 0.0
C1121 C 0.33212 -0.00108 0.20481 0.0
C1122 C 0.33099 0.01624 0.52039 0.0
C1123 C 0.34243 0.0294 0.54551 0.0
C1124 C 0.32871 0.01312 0.44366 0.0
C1125 C 0.33784 0.02304 0.38987 0.0
C1126 C 0.34931 0.03618 0.415 0.0
C1127 C 0.35157 0.03931 0.49174 0.0
H1128 H 0.50562 0.34476 0.68254 0.0
H1129 H 0.45162 0.33165 0.64059 0.0
H1130 H 0.49953 0.34696 0.816 0.0
H1131 H 0.44549 0.33377 0.77456 0.0
H1132 H 0.43775 0.35607 1.01076 0.0
H1133 H 0.44365 0.35482 0.87653 0.0
H1134 H 0.49238 0.32817 0.92091 0.0
H1135 H 0.4865 0.32949 0.05492 0.0
C1136 C 0.49247 0.34219 0.70183 0.0
C1137 C 0.47913 0.33791 0.65083 0.0
C1138 C 0.48897 0.34346 0.77845 0.0
C1139 C 0.47205 0.34045 0.80608 0.0
C1140 C 0.45864 0.33638 0.75504 0.0
C1141 C 0.46214 0.33514 0.67824 0.0
C1142 C 0.44967 0.34986 0.9918 0.0
C1143 C 0.46165 0.3429 0.04363 0.0
C1144 C 0.45305 0.34913 0.91486 0.0
C1145 C 0.46848 0.34139 0.88792 0.0
C1146 C 0.4805 0.33448 0.9398 0.0
C1147 C 0.47714 0.33525 0.01672 0.0
H1148 H 0.15823 0.45344 0.14592 0.0
H1149 H 0.16115 0.50894 0.19132 0.0
H1150 H 0.15484 0.44769 0.27965 0.0
H1151 H 0.15771 0.50321 0.32449 0.0
H1152 H 0.16892 0.48555 0.56441 0.0
H1153 H 0.17272 0.49098 0.43083 0.0
H1154 H 0.13419 0.45131 0.38114 0.0
H1155 H 0.13048 0.44582 0.51481 0.0
C1156 C 0.15807 0.46443 0.18416 0.0
C1157 C 0.16006 0.48166 0.15747 0.0
C1158 C 0.1561 0.46113 0.261 0.0
C1159 C 0.15603 0.47498 0.3131 0.0
C1160 C 0.15803 0.49219 0.28632 0.0
C1161 C 0.16002 0.49548 0.20968 0.0
C1162 C 0.16112 0.4781 0.52513 0.0
C1163 C 0.14938 0.46525 0.55061 0.0
C1164 C 0.16331 0.4812 0.44835 0.0
C1165 C 0.15378 0.47157 0.39495 0.0
C1166 C 0.14198 0.45876 0.42048 0.0
C1167 C 0.13982 0.45564 0.49726 0.0
H1168 H 0.93477 0.64217 0.49935 0.0
H1169 H 0.98773 0.65876 0.54585 0.0
H1170 H 0.94028 0.64509 0.36623 0.0
H1171 H 0.9935 0.66048 0.41284 0.0
H1172 H 0.99355 0.68011 0.17315 0.0
H1173 H 0.98733 0.67775 0.3067 0.0
H1174 H 0.95507 0.63233 0.26385 0.0
H1175 H 0.96093 0.63518 0.12995 0.0
C1176 C 0.9476 0.6464 0.48173 0.0
C1177 C 0.96071 0.65034 0.53454 0.0
C1178 C 0.95084 0.64784 0.40486 0.0
C1179 C 0.96733 0.65306 0.3784 0.0
C1180 C 0.98053 0.65672 0.43097 0.0
C1181 C 0.97725 0.65547 0.50785 0.0
C1182 C 0.98516 0.66963 0.19249 0.0
C1183 C 0.97773 0.65783 0.14126 0.0
C1184 C 0.98164 0.6682 0.26908 0.0
C1185 C 0.97077 0.65478 0.29647 0.0
C1186 C 0.96328 0.64301 0.2449 0.0
C1187 C 0.96664 0.64459 0.16813 0.0
H1188 H 0.82393 0.98378 0.05206 0.0
H1189 H 0.86151 0.94332 1.00065 0.0
H1190 H 0.81978 0.98918 0.9187 0.0
H1191 H 0.85739 0.94874 0.86714 0.0
H1192 H 0.83286 0.95144 0.63265 0.0
H1193 H 0.83639 0.94558 0.76621 0.0
H1194 H 0.83472 0.00112 0.8115 0.0
H1195 H 0.83121 0.00699 0.67865 0.0
C1196 C 0.83147 0.97615 1.01249 0.0
C1197 C 0.8431 0.96312 0.03754 0.0
C1198 C 0.82906 0.97924 0.93576 0.0
C1199 C 0.83823 0.9694 0.88182 0.0
C1200 C 0.84987 0.95638 0.90687 0.0
C1201 C 0.85227 0.95329 0.98362 0.0
C1202 C 0.83329 0.96242 0.67088 0.0
C1203 C 0.83163 0.97971 0.64421 0.0
C1204 C 0.83535 0.95905 0.7477 0.0
C1205 C 0.83582 0.97287 0.79996 0.0
C1206 C 0.8341 0.99012 0.77328 0.0
C1207 C 0.83205 0.99348 0.69668 0.0
H1208 H 0.50405 0.83789 0.53597 0.0
H1209 H 0.55791 0.85106 0.48896 0.0
H1210 H 0.49805 0.83676 0.40286 0.0
H1211 H 0.55213 0.84874 0.35573 0.0
H1212 H 0.53216 0.85963 0.11915 0.0
H1213 H 0.53808 0.86235 0.25306 0.0
H1214 H 0.50319 0.819 0.29706 0.0
H1215 H 0.49695 0.81675 0.16356 0.0
C1216 C 0.51467 0.84058 0.49773 0.0
C1217 C 0.53154 0.84453 0.52421 0.0
C1218 C 0.51125 0.83966 0.42087 0.0
C1219 C 0.52462 0.8425 0.36815 0.0
C1220 C 0.54144 0.84663 0.39446 0.0
C1221 C 0.54482 0.84773 0.47133 0.0
C1222 C 0.52587 0.85064 0.15758 0.0
C1223 C 0.51406 0.83802 0.131 0.0
C1224 C 0.52927 0.85216 0.23436 0.0
C1225 C 0.52107 0.84094 0.28625 0.0
C1226 C 0.50945 0.82814 0.25919 0.0
C1227 C 0.50591 0.82678 0.18259 0.0
H1228 H 0.63078 0.55211 0.99504 0.0
H1229 H 0.66813 0.51117 0.04357 0.0
H1230 H 0.63433 0.5467 0.86134 0.0
H1231 H 0.67151 0.50568 0.90997 0.0
H1232 H 0.65668 0.48756 0.67294 0.0
H1233 H 0.65426 0.49381 0.80599 0.0
H1234 H 0.65583 0.54928 0.7591 0.0
H1235 H 0.65844 0.54306 0.62542 0.0
C1236 C 0.63988 0.54208 0.97738 0.0
C1237 C 0.64912 0.53207 0.03054 0.0
C1238 C 0.64191 0.53898 0.90058 0.0
C1239 C 0.65317 0.52574 0.87491 0.0
C1240 C 0.66252 0.51581 0.9279 0.0
C1241 C 0.66054 0.51894 1.0047 0.0
C1242 C 0.65676 0.50111 0.69065 0.0
C1243 C 0.65785 0.51479 0.63791 0.0
C1244 C 0.65534 0.50468 0.76723 0.0
C1245 C 0.6549 0.52204 0.7933 0.0
C1246 C 0.65593 0.53576 0.74079 0.0
C1247 C 0.65742 0.53218 0.66404 0.0
H1248 H 0.9945 0.81328 0.35793 0.0
H1249 H 0.96307 0.85908 0.40153 0.0
H1250 H 0.98839 0.81593 0.22433 0.0
H1251 H 0.95735 0.86219 0.26768 0.0
H1252 H 0.93686 0.85326 0.03221 0.0
H1253 H 0.94224 0.84994 0.16513 0.0
H1254 H 0.99503 0.83313 0.11836 0.0
H1255 H 0.98939 0.83528 0.98543 0.0
C1256 C 0.98639 0.82401 0.33869 0.0
C1257 C 0.97926 0.83596 0.39005 0.0
C1258 C 0.98294 0.8256 0.26207 0.0
C1259 C 0.97244 0.83934 0.23481 0.0
C1260 C 0.96525 0.85127 0.28651 0.0
C1261 C 0.96854 0.84953 0.36328 0.0
C1262 C 0.94957 0.84862 0.04964 0.0
C1263 C 0.96258 0.84442 0.99673 0.0
C1264 C 0.95274 0.84695 0.12648 0.0
C1265 C 0.96907 0.84123 0.15288 0.0
C1266 C 0.98218 0.83727 0.10027 0.0
C1267 C 0.97896 0.83876 0.0234 0.0
H1268 H 0.66056 0.00766 0.85115 0.0
H1269 H 0.65822 0.95215 0.89725 0.0
H1270 H 0.65709 0.00185 0.71812 0.0
H1271 H 0.65477 0.94633 0.76367 0.0
H1272 H 0.63022 0.94411 0.52871 0.0
H1273 H 0.63403 0.94965 0.66226 0.0
H1274 H 0.67203 0.98976 0.61144 0.0
H1275 H 0.66815 0.98427 0.47801 0.0
C1276 C 0.65956 0.99418 0.83302 0.0
C1277 C 0.65977 0.98039 0.88548 0.0
C1278 C 0.65754 0.99085 0.7564 0.0
C1279 C 0.65567 0.97361 0.7298 0.0
C1280 C 0.65592 0.95979 0.78212 0.0
C1281 C 0.65793 0.96313 0.85892 0.0
C1282 C 0.63947 0.95404 0.54595 0.0
C1283 C 0.64884 0.96375 0.49226 0.0
C1284 C 0.64169 0.9572 0.62271 0.0
C1285 C 0.65337 0.97015 0.64794 0.0
C1286 C 0.66272 0.97987 0.59421 0.0
C1287 C 0.66048 0.97673 0.51747 0.0
H1288 H 0.55564 0.65349 0.0199 0.0
H1289 H 0.50017 0.64874 0.9796 0.0
H1290 H 0.55009 0.65703 0.15325 0.0
H1291 H 0.49466 0.65244 0.11318 0.0
H1292 H 0.49016 0.6775 0.34529 0.0
H1293 H 0.49627 0.67451 0.21189 0.0
H1294 H 0.53994 0.6407 0.26268 0.0
H1295 H 0.53377 0.64361 0.39623 0.0
C1296 C 0.54226 0.65303 0.03921 0.0
C1297 C 0.52838 0.65077 0.98821 0.0
C1298 C 0.53908 0.65509 0.11604 0.0
C1299 C 0.52193 0.65505 0.14424 0.0
C1300 C 0.50803 0.65282 0.09342 0.0
C1301 C 0.51121 0.65069 0.01655 0.0
C1302 C 0.50104 0.66938 0.3282 0.0
C1303 C 0.51142 0.66078 0.38198 0.0
C1304 C 0.50453 0.66764 0.25149 0.0
C1305 C 0.51854 0.65728 0.22624 0.0
C1306 C 0.52916 0.64895 0.28 0.0
C1307 C 0.52564 0.65066 0.3568 0.0
H1308 H 0.82338 0.50855 0.47527 0.0
H1309 H 0.85914 0.55065 0.52591 0.0
H1310 H 0.81974 0.50288 0.6087 0.0
H1311 H 0.85554 0.54495 0.65947 0.0
H1312 H 0.83152 0.54101 0.89466 0.0
H1313 H 0.8346 0.5471 0.76109 0.0
H1314 H 0.83543 0.49156 0.71523 0.0
H1315 H 0.83237 0.48547 0.84814 0.0
C1316 C 0.83063 0.51649 0.51468 0.0
C1317 C 0.84159 0.53006 0.4894 0.0
C1318 C 0.82852 0.51325 0.59145 0.0
C1319 C 0.83733 0.52346 0.64518 0.0
C1320 C 0.84831 0.53701 0.61991 0.0
C1321 C 0.85041 0.54026 0.54312 0.0
C1322 C 0.83242 0.53008 0.8563 0.0
C1323 C 0.83158 0.51272 0.8828 0.0
C1324 C 0.83422 0.53358 0.77948 0.0
C1325 C 0.83524 0.51983 0.72706 0.0
C1326 C 0.83436 0.5025 0.75359 0.0
C1327 C 0.83257 0.49901 0.8302 0.0
loop_
_geom_bond_atom_site_label_1
_geom_bond_atom_site_label_2
_geom_bond_distance
_geom_bond_site_symmetry_2
_ccdc_geom_bond_type
Co0 N4 2.148 . S
Co0 N10 2.128 . S
Co0 N20 2.194 . S
Co0 O25 2.351 . S
Co0 O26 2.155 . S
Co0 O27 2.096 . S
C1 N4 1.301 . S
C1 N5 1.328 . S
C1 H6 0.930 . S
C2 C3 1.333 . S
C2 N4 1.317 . S
C2 H7 0.930 . S
C3 C2 1.333 . S
C3 N5 1.350 . S
C3 H29 0.931 . S
N4 Co0 2.148 . S
N4 C1 1.301 . S
N4 C2 1.317 . S
N5 C1 1.328 . S
N5 C3 1.350 . S
H6 C1 0.930 . S
H7 C2 0.930 . S
C8 O9 1.224 . S
C8 O27 1.247 . S
O9 C8 1.224 . S
N10 Co0 2.128 . S
N10 C11 1.355 1_554 S
N10 C13 1.311 1_554 S
C11 N10 1.355 1_556 S
C11 C12 1.363 . S
C11 H23 0.929 1_456 S
C12 C11 1.363 . S
C12 N14 1.375 . S
C12 H30 0.931 1_455 S
C13 N10 1.311 1_556 S
C13 N14 1.347 . S
C13 H24 0.929 . S
N14 C12 1.375 . S
N14 C13 1.347 . S
C15 C18 1.365 . S
C15 N20 1.328 1_655 S
C15 H21 0.929 . S
C16 C17 1.362 . S
C16 C19 1.378 1_655 S
C16 H31 0.929 . S
C17 C16 1.362 . S
C17 C18 1.366 . S
C18 C15 1.365 . S
C18 C17 1.366 . S
C18 H32 0.930 . S
C19 C16 1.378 1_455 S
C19 N20 1.315 . S
C19 H22 0.930 . S
N20 Co0 2.194 . S
N20 C15 1.328 1_455 S
N20 C19 1.315 . S
H21 C15 0.929 . S
H22 C19 0.930 . S
H23 C11 0.929 1_654 S
H24 C13 0.929 . S
O25 Co0 2.351 . S
O25 C28 1.244 . S
O26 Co0 2.155 . S
O26 C28 1.240 . S
O27 Co0 2.096 . S
O27 C8 1.247 . S
C28 O25 1.244 . S
C28 O26 1.240 . S
H29 C3 0.931 . S
H30 C12 0.931 1_655 S
H31 C16 0.929 . S
H32 C18 0.930 . S
Co33 N37 2.148 . S
Co33 N43 2.128 . S
Co33 N53 2.194 . S
Co33 O58 2.351 . S
Co33 O59 2.155 . S
Co33 O60 2.096 . S
C34 N37 1.301 . S
C34 N38 1.328 . S
C34 H39 0.930 . S
C35 C36 1.333 . S
C35 N37 1.317 . S
C35 H40 0.930 . S
C36 C35 1.333 . S
C36 N38 1.350 . S
C36 H62 0.931 . S
N37 Co33 2.148 . S
N37 C34 1.301 . S
N37 C35 1.317 . S
N38 C34 1.328 . S
N38 C36 1.350 . S
H39 C34 0.930 . S
H40 C35 0.930 . S
C41 O42 1.224 . S
C41 O60 1.247 . S
O42 C41 1.224 . S
N43 Co33 2.128 . S
N43 C44 1.355 . S
N43 C46 1.311 . S
C44 N43 1.355 . S
C44 C45 1.363 . S
C44 H56 0.929 1_545 S
C45 C44 1.363 . S
C45 N47 1.375 . S
C45 H63 0.931 1_545 S
C46 N43 1.311 . S
C46 N47 1.347 . S
C46 H57 0.929 . S
N47 C45 1.375 . S
N47 C46 1.347 . S
C48 C51 1.365 . S
C48 N53 1.328 1_565 S
C48 H54 0.929 . S
C49 C50 1.362 . S
C49 C52 1.378 1_565 S
C49 H64 0.929 . S
C50 C49 1.362 . S
C50 C51 1.366 . S
C51 C48 1.365 . S
C51 C50 1.366 . S
C51 H65 0.930 . S
C52 C49 1.378 1_545 S
C52 N53 1.315 . S
C52 H55 0.930 . S
N53 Co33 2.194 . S
N53 C48 1.328 1_545 S
N53 C52 1.315 . S
H54 C48 0.929 . S
H55 C52 0.930 . S
H56 C44 0.929 1_565 S
H57 C46 0.929 . S
O58 Co33 2.351 . S
O58 C61 1.244 . S
O59 Co33 2.155 . S
O59 C61 1.240 . S
O60 Co33 2.096 . S
O60 C41 1.247 . S
C61 O58 1.244 . S
C61 O59 1.240 . S
H62 C36 0.931 . S
H63 C45 0.931 1_565 S
H64 C49 0.929 . S
H65 C51 0.930 . S
Co66 N70 2.148 . S
Co66 N76 2.128 . S
Co66 N86 2.194 . S
Co66 O91 2.351 . S
Co66 O92 2.155 . S
Co66 O93 2.096 . S
C67 N70 1.301 . S
C67 N71 1.328 . S
C67 H72 0.930 . S
C68 C69 1.333 . S
C68 N70 1.317 . S
C68 H73 0.930 . S
C69 C68 1.333 . S
C69 N71 1.350 . S
C69 H95 0.931 . S
N70 Co66 2.148 . S
N70 C67 1.301 . S
N70 C68 1.317 . S
N71 C67 1.328 . S
N71 C69 1.350 . S
H72 C67 0.930 . S
H73 C68 0.930 . S
C74 O75 1.224 . S
C74 O93 1.247 . S
O75 C74 1.224 . S
N76 Co66 2.128 . S
N76 C77 1.355 1_554 S
N76 C79 1.311 1_554 S
C77 N76 1.355 1_556 S
C77 C78 1.363 . S
C77 H89 0.929 1_556 S
C78 C77 1.363 . S
C78 N80 1.375 . S
C78 H96 0.931 . S
C79 N76 1.311 1_556 S
C79 N80 1.347 . S
C79 H90 0.929 . S
N80 C78 1.375 . S
N80 C79 1.347 . S
C81 C84 1.365 . S
C81 N86 1.328 . S
C81 H87 0.929 . S
C82 C83 1.362 . S
C82 C85 1.378 . S
C82 H97 0.929 . S
C83 C82 1.362 . S
C83 C84 1.366 . S
C84 C81 1.365 . S
C84 C83 1.366 . S
C84 H98 0.930 . S
C85 C82 1.378 . S
C85 N86 1.315 . S
C85 H88 0.930 . S
N86 Co66 2.194 . S
N86 C81 1.328 . S
N86 C85 1.315 . S
H87 C81 0.929 . S
H88 C85 0.930 . S
H89 C77 0.929 1_554 S
H90 C79 0.929 . S
O91 Co66 2.351 . S
O91 C94 1.244 . S
O92 Co66 2.155 . S
O92 C94 1.240 . S
O93 Co66 2.096 . S
O93 C74 1.247 . S
C94 O91 1.244 . S
C94 O92 1.240 . S
H95 C69 0.931 . S
H96 C78 0.931 . S
H97 C82 0.929 . S
H98 C84 0.930 . S
Co99 N103 2.148 . S
Co99 N109 2.128 . S
Co99 N119 2.194 . S
Co99 O124 2.351 . S
Co99 O125 2.155 . S
Co99 O126 2.096 . S
C100 N103 1.301 . S
C100 N104 1.328 . S
C100 H105 0.930 . S
C101 C102 1.333 . S
C101 N103 1.317 . S
C101 H106 0.930 . S
C102 C101 1.333 . S
C102 N104 1.350 . S
C102 H128 0.931 . S
N103 Co99 2.148 . S
N103 C100 1.301 . S
N103 C101 1.317 . S
N104 C100 1.328 . S
N104 C102 1.350 . S
H105 C100 0.930 . S
H106 C101 0.930 . S
C107 O108 1.224 . S
C107 O126 1.247 . S
O108 C107 1.224 . S
N109 Co99 2.128 . S
N109 C110 1.355 . S
N109 C112 1.311 . S
C110 N109 1.355 . S
C110 C111 1.363 . S
C110 H122 0.929 . S
C111 C110 1.363 . S
C111 N113 1.375 . S
C111 H129 0.931 . S
C112 N109 1.311 . S
C112 N113 1.347 . S
C112 H123 0.929 . S
N113 C111 1.375 . S
N113 C112 1.347 . S
C114 C117 1.365 . S
C114 N119 1.328 . S
C114 H120 0.929 . S
C115 C116 1.362 . S
C115 C118 1.378 . S
C115 H130 0.929 . S
C116 C115 1.362 . S
C116 C117 1.366 . S
C117 C114 1.365 . S
C117 C116 1.366 . S
C117 H131 0.930 . S
C118 C115 1.378 . S
C118 N119 1.315 . S
C118 H121 0.930 . S
N119 Co99 2.194 . S
N119 C114 1.328 . S
N119 C118 1.315 . S
H120 C114 0.929 . S
H121 C118 0.930 . S
H122 C110 0.929 . S
H123 C112 0.929 . S
O124 Co99 2.351 . S
O124 C127 1.244 . S
O125 Co99 2.155 . S
O125 C127 1.240 . S
O126 Co99 2.096 . S
O126 C107 1.247 . S
C127 O124 1.244 . S
C127 O125 1.240 . S
H128 C102 0.931 . S
H129 C111 0.931 . S
H130 C115 0.929 . S
H131 C117 0.930 . S
Co132 N136 2.148 . S
Co132 N142 2.128 . S
Co132 N152 2.194 . S
Co132 O157 2.351 . S
Co132 O158 2.155 . S
Co132 O159 2.096 . S
C133 N136 1.301 . S
C133 N137 1.328 . S
C133 H138 0.930 . S
C134 C135 1.333 . S
C134 N136 1.317 . S
C134 H139 0.930 . S
C135 C134 1.333 . S
C135 N137 1.350 . S
C135 H161 0.931 . S
N136 Co132 2.148 . S
N136 C133 1.301 . S
N136 C134 1.317 . S
N137 C133 1.328 . S
N137 C135 1.350 . S
H138 C133 0.930 . S
H139 C134 0.930 . S
C140 O141 1.224 . S
C140 O159 1.247 . S
O141 C140 1.224 . S
N142 Co132 2.128 . S
N142 C143 1.355 . S
N142 C145 1.311 . S
C143 N142 1.355 . S
C143 C144 1.363 . S
C143 H155 0.929 1_455 S
C144 C143 1.363 . S
C144 N146 1.375 . S
C144 H162 0.931 1_455 S
C145 N142 1.311 . S
C145 N146 1.347 . S
C145 H156 0.929 . S
N146 C144 1.375 . S
N146 C145 1.347 . S
C147 C150 1.365 . S
C147 N152 1.328 1_655 S
C147 H153 0.929 . S
C148 C149 1.362 . S
C148 C151 1.378 1_655 S
C148 H163 0.929 . S
C149 C148 1.362 . S
C149 C150 1.366 . S
C150 C147 1.365 . S
C150 C149 1.366 . S
C150 H164 0.930 . S
C151 C148 1.378 1_455 S
C151 N152 1.315 . S
C151 H154 0.930 . S
N152 Co132 2.194 . S
N152 C147 1.328 1_455 S
N152 C151 1.315 . S
H153 C147 0.929 . S
H154 C151 0.930 . S
H155 C143 0.929 1_655 S
H156 C145 0.929 . S
O157 Co132 2.351 . S
O157 C160 1.244 . S
O158 Co132 2.155 . S
O158 C160 1.240 . S
O159 Co132 2.096 . S
O159 C140 1.247 . S
C160 O157 1.244 . S
C160 O158 1.240 . S
H161 C135 0.931 . S
H162 C144 0.931 1_655 S
H163 C148 0.929 . S
H164 C150 0.930 . S
Co165 N169 2.148 . S
Co165 N175 2.128 . S
Co165 N185 2.194 . S
Co165 O190 2.351 . S
Co165 O191 2.155 . S
Co165 O192 2.096 . S
C166 N169 1.301 . S
C166 N170 1.328 . S
C166 H171 0.930 . S
C167 C168 1.333 . S
C167 N169 1.317 . S
C167 H172 0.930 . S
C168 C167 1.333 . S
C168 N170 1.350 . S
C168 H194 0.931 . S
N169 Co165 2.148 . S
N169 C166 1.301 . S
N169 C167 1.317 . S
N170 C166 1.328 . S
N170 C168 1.350 . S
H171 C166 0.930 . S
H172 C167 0.930 . S
C173 O174 1.224 . S
C173 O192 1.247 . S
O174 C173 1.224 . S
N175 Co165 2.128 . S
N175 C176 1.355 1_556 S
N175 C178 1.311 1_556 S
C176 N175 1.355 1_554 S
C176 C177 1.363 . S
C176 H188 0.929 1_544 S
C177 C176 1.363 . S
C177 N179 1.375 . S
C177 H195 0.931 1_545 S
C178 N175 1.311 1_554 S
C178 N179 1.347 . S
C178 H189 0.929 . S
N179 C177 1.375 . S
N179 C178 1.347 . S
C180 C183 1.365 . S
C180 N185 1.328 1_565 S
C180 H186 0.929 . S
C181 C182 1.362 . S
C181 C184 1.378 1_565 S
C181 H196 0.929 . S
C182 C181 1.362 . S
C182 C183 1.366 . S
C183 C180 1.365 . S
C183 C182 1.366 . S
C183 H197 0.930 . S
C184 C181 1.378 1_545 S
C184 N185 1.315 . S
C184 H187 0.930 . S
N185 Co165 2.194 . S
N185 C180 1.328 1_545 S
N185 C184 1.315 . S
H186 C180 0.929 . S
H187 C184 0.930 . S
H188 C176 0.929 1_566 S
H189 C178 0.929 . S
O190 Co165 2.351 . S
O190 C193 1.244 . S
O191 Co165 2.155 . S
O191 C193 1.240 . S
O192 Co165 2.096 . S
O192 C173 1.247 . S
C193 O190 1.244 . S
C193 O191 1.240 . S
H194 C168 0.931 . S
H195 C177 0.931 1_565 S
H196 C181 0.929 . S
H197 C183 0.930 . S
Co198 N202 2.148 . S
Co198 N208 2.128 . S
Co198 N218 2.194 . S
Co198 O223 2.351 . S
Co198 O224 2.155 . S
Co198 O225 2.096 . S
C199 N202 1.301 . S
C199 N203 1.328 . S
C199 H204 0.930 . S
C200 C201 1.333 . S
C200 N202 1.317 . S
C200 H205 0.930 . S
C201 C200 1.333 . S
C201 N203 1.350 . S
C201 H227 0.931 . S
N202 Co198 2.148 . S
N202 C199 1.301 . S
N202 C200 1.317 . S
N203 C199 1.328 . S
N203 C201 1.350 . S
H204 C199 0.930 . S
H205 C200 0.930 . S
C206 O207 1.224 . S
C206 O225 1.247 . S
O207 C206 1.224 . S
N208 Co198 2.128 . S
N208 C209 1.355 . S
N208 C211 1.311 . S
C209 N208 1.355 . S
C209 C210 1.363 . S
C209 H221 0.929 . S
C210 C209 1.363 . S
C210 N212 1.375 . S
C210 H228 0.931 . S
C211 N208 1.311 . S
C211 N212 1.347 . S
C211 H222 0.929 . S
N212 C210 1.375 . S
N212 C211 1.347 . S
C213 C216 1.365 . S
C213 N218 1.328 . S
C213 H219 0.929 . S
C214 C215 1.362 . S
C214 C217 1.378 . S
C214 H229 0.929 . S
C215 C214 1.362 . S
C215 C216 1.366 . S
C216 C213 1.365 . S
C216 C215 1.366 . S
C216 H230 0.930 . S
C217 C214 1.378 . S
C217 N218 1.315 . S
C217 H220 0.930 . S
N218 Co198 2.194 . S
N218 C213 1.328 . S
N218 C217 1.315 . S
H219 C213 0.929 . S
H220 C217 0.930 . S
H221 C209 0.929 . S
H222 C211 0.929 . S
O223 Co198 2.351 . S
O223 C226 1.244 . S
O224 Co198 2.155 . S
O224 C226 1.240 . S
O225 Co198 2.096 . S
O225 C206 1.247 . S
C226 O223 1.244 . S
C226 O224 1.240 . S
H227 C201 0.931 . S
H228 C210 0.931 . S
H229 C214 0.929 . S
H230 C216 0.930 . S
Co231 N235 2.148 . S
Co231 N241 2.128 . S
Co231 N251 2.194 . S
Co231 O256 2.351 . S
Co231 O257 2.155 . S
Co231 O258 2.096 . S
C232 N235 1.301 . S
C232 N236 1.328 . S
C232 H237 0.930 . S
C233 C234 1.333 . S
C233 N235 1.317 . S
C233 H238 0.930 . S
C234 C233 1.333 . S
C234 N236 1.350 . S
C234 H260 0.931 . S
N235 Co231 2.148 . S
N235 C232 1.301 . S
N235 C233 1.317 . S
N236 C232 1.328 . S
N236 C234 1.350 . S
H237 C232 0.930 . S
H238 C233 0.930 . S
C239 O240 1.224 . S
C239 O258 1.247 . S
O240 C239 1.224 . S
N241 Co231 2.128 . S
N241 C242 1.355 1_556 S
N241 C244 1.311 1_556 S
C242 N241 1.355 1_554 S
C242 C243 1.363 . S
C242 H254 0.929 1_554 S
C243 C242 1.363 . S
C243 N245 1.375 . S
C243 H261 0.931 . S
C244 N241 1.311 1_554 S
C244 N245 1.347 . S
C244 H255 0.929 . S
N245 C243 1.375 . S
N245 C244 1.347 . S
C246 C249 1.365 . S
C246 N251 1.328 . S
C246 H252 0.929 . S
C247 C248 1.362 . S
C247 C250 1.378 . S
C247 H262 0.929 . S
C248 C247 1.362 . S
C248 C249 1.366 . S
C249 C246 1.365 . S
C249 C248 1.366 . S
C249 H263 0.930 . S
C250 C247 1.378 . S
C250 N251 1.315 . S
C250 H253 0.930 . S
N251 Co231 2.194 . S
N251 C246 1.328 . S
N251 C250 1.315 . S
H252 C246 0.929 . S
H253 C250 0.930 . S
H254 C242 0.929 1_556 S
H255 C244 0.929 . S
O256 Co231 2.351 . S
O256 C259 1.244 . S
O257 Co231 2.155 . S
O257 C259 1.240 . S
O258 Co231 2.096 . S
O258 C239 1.247 . S
C259 O256 1.244 . S
C259 O257 1.240 . S
H260 C234 0.931 . S
H261 C243 0.931 . S
H262 C247 0.929 . S
H263 C249 0.930 . S
Co264 N268 2.148 . S
Co264 N274 2.128 . S
Co264 N284 2.194 . S
Co264 O289 2.351 . S
Co264 O290 2.155 . S
Co264 O291 2.096 . S
C265 N268 1.301 . S
C265 N269 1.328 . S
C265 H270 0.930 . S
C266 C267 1.333 . S
C266 N268 1.317 . S
C266 H271 0.930 . S
C267 C266 1.333 . S
C267 N269 1.350 . S
C267 H293 0.931 . S
N268 Co264 2.148 . S
N268 C265 1.301 . S
N268 C266 1.317 . S
N269 C265 1.328 . S
N269 C267 1.350 . S
H270 C265 0.930 . S
H271 C266 0.930 . S
C272 O273 1.224 . S
C272 O291 1.247 . S
O273 C272 1.224 . S
N274 Co264 2.128 . S
N274 C275 1.355 1_556 S
N274 C277 1.311 1_556 S
C275 N274 1.355 1_554 S
C275 C276 1.363 . S
C275 H287 0.929 1_654 S
C276 C275 1.363 . S
C276 N278 1.375 . S
C276 H294 0.931 1_655 S
C277 N274 1.311 1_554 S
C277 N278 1.347 . S
C277 H288 0.929 . S
N278 C276 1.375 . S
N278 C277 1.347 . S
C279 C282 1.365 . S
C279 N284 1.328 1_455 S
C279 H285 0.929 . S
C280 C281 1.362 . S
C280 C283 1.378 1_455 S
C280 H295 0.929 . S
C281 C280 1.362 . S
C281 C282 1.366 . S
C282 C279 1.365 . S
C282 C281 1.366 . S
C282 H296 0.930 . S
C283 C280 1.378 1_655 S
C283 N284 1.315 . S
C283 H286 0.930 . S
N284 Co264 2.194 . S
N284 C279 1.328 1_655 S
N284 C283 1.315 . S
H285 C279 0.929 . S
H286 C283 0.930 . S
H287 C275 0.929 1_456 S
H288 C277 0.929 . S
O289 Co264 2.351 . S
O289 C292 1.244 . S
O290 Co264 2.155 . S
O290 C292 1.240 . S
O291 Co264 2.096 . S
O291 C272 1.247 . S
C292 O289 1.244 . S
C292 O290 1.240 . S
H293 C267 0.931 . S
H294 C276 0.931 1_455 S
H295 C280 0.929 . S
H296 C282 0.930 . S
Co297 N301 2.148 . S
Co297 N307 2.128 . S
Co297 N317 2.194 . S
Co297 O322 2.351 . S
Co297 O323 2.155 . S
Co297 O324 2.096 . S
C298 N301 1.301 . S
C298 N302 1.328 . S
C298 H303 0.930 . S
C299 C300 1.333 . S
C299 N301 1.317 . S
C299 H304 0.930 . S
C300 C299 1.333 . S
C300 N302 1.350 . S
C300 H326 0.931 . S
N301 Co297 2.148 . S
N301 C298 1.301 . S
N301 C299 1.317 . S
N302 C298 1.328 . S
N302 C300 1.350 . S
H303 C298 0.930 . S
H304 C299 0.930 . S
C305 O306 1.224 . S
C305 O324 1.247 . S
O306 C305 1.224 . S
N307 Co297 2.128 . S
N307 C308 1.355 . S
N307 C310 1.311 . S
C308 N307 1.355 . S
C308 C309 1.363 . S
C308 H320 0.929 1_565 S
C309 C308 1.363 . S
C309 N311 1.375 . S
C309 H327 0.931 1_565 S
C310 N307 1.311 . S
C310 N311 1.347 . S
C310 H321 0.929 . S
N311 C309 1.375 . S
N311 C310 1.347 . S
C312 C315 1.365 . S
C312 N317 1.328 1_545 S
C312 H318 0.929 . S
C313 C314 1.362 . S
C313 C316 1.378 1_545 S
C313 H328 0.929 . S
C314 C313 1.362 . S
C314 C315 1.366 . S
C315 C312 1.365 . S
C315 C314 1.366 . S
C315 H329 0.930 . S
C316 C313 1.378 1_565 S
C316 N317 1.315 . S
C316 H319 0.930 . S
N317 Co297 2.194 . S
N317 C312 1.328 1_565 S
N317 C316 1.315 . S
H318 C312 0.929 . S
H319 C316 0.930 . S
H320 C308 0.929 1_545 S
H321 C310 0.929 . S
O322 Co297 2.351 . S
O322 C325 1.244 . S
O323 Co297 2.155 . S
O323 C325 1.240 . S
O324 Co297 2.096 . S
O324 C305 1.247 . S
C325 O322 1.244 . S
C325 O323 1.240 . S
H326 C300 0.931 . S
H327 C309 0.931 1_545 S
H328 C313 0.929 . S
H329 C315 0.930 . S
Co330 N334 2.148 . S
Co330 N340 2.128 . S
Co330 N350 2.194 . S
Co330 O355 2.351 . S
Co330 O356 2.155 . S
Co330 O357 2.096 . S
C331 N334 1.301 . S
C331 N335 1.328 . S
C331 H336 0.930 . S
C332 C333 1.333 . S
C332 N334 1.317 . S
C332 H337 0.930 . S
C333 C332 1.333 . S
C333 N335 1.350 . S
C333 H359 0.931 . S
N334 Co330 2.148 . S
N334 C331 1.301 . S
N334 C332 1.317 . S
N335 C331 1.328 . S
N335 C333 1.350 . S
H336 C331 0.930 . S
H337 C332 0.930 . S
C338 O339 1.224 . S
C338 O357 1.247 . S
O339 C338 1.224 . S
N340 Co330 2.128 . S
N340 C341 1.355 1_556 S
N340 C343 1.311 1_556 S
C341 N340 1.355 1_554 S
C341 C342 1.363 . S
C341 H353 0.929 1_554 S
C342 C341 1.363 . S
C342 N344 1.375 . S
C342 H360 0.931 . S
C343 N340 1.311 1_554 S
C343 N344 1.347 . S
C343 H354 0.929 . S
N344 C342 1.375 . S
N344 C343 1.347 . S
C345 C348 1.365 . S
C345 N350 1.328 . S
C345 H351 0.929 . S
C346 C347 1.362 . S
C346 C349 1.378 . S
C346 H361 0.929 . S
C347 C346 1.362 . S
C347 C348 1.366 . S
C348 C345 1.365 . S
C348 C347 1.366 . S
C348 H362 0.930 . S
C349 C346 1.378 . S
C349 N350 1.315 . S
C349 H352 0.930 . S
N350 Co330 2.194 . S
N350 C345 1.328 . S
N350 C349 1.315 . S
H351 C345 0.929 . S
H352 C349 0.930 . S
H353 C341 0.929 1_556 S
H354 C343 0.929 . S
O355 Co330 2.351 . S
O355 C358 1.244 . S
O356 Co330 2.155 . S
O356 C358 1.240 . S
O357 Co330 2.096 . S
O357 C338 1.247 . S
C358 O355 1.244 . S
C358 O356 1.240 . S
H359 C333 0.931 . S
H360 C342 0.931 . S
H361 C346 0.929 . S
H362 C348 0.930 . S
Co363 N367 2.148 . S
Co363 N373 2.128 . S
Co363 N383 2.194 . S
Co363 O388 2.351 . S
Co363 O389 2.155 . S
Co363 O390 2.096 . S
C364 N367 1.301 . S
C364 N368 1.328 . S
C364 H369 0.930 . S
C365 C366 1.333 . S
C365 N367 1.317 . S
C365 H370 0.930 . S
C366 C365 1.333 . S
C366 N368 1.350 . S
C366 H392 0.931 . S
N367 Co363 2.148 . S
N367 C364 1.301 . S
N367 C365 1.317 . S
N368 C364 1.328 . S
N368 C366 1.350 . S
H369 C364 0.930 . S
H370 C365 0.930 . S
C371 O372 1.224 . S
C371 O390 1.247 . S
O372 C371 1.224 . S
N373 Co363 2.128 . S
N373 C374 1.355 . S
N373 C376 1.311 . S
C374 N373 1.355 . S
C374 C375 1.363 . S
C374 H386 0.929 . S
C375 C374 1.363 . S
C375 N377 1.375 . S
C375 H393 0.931 . S
C376 N373 1.311 . S
C376 N377 1.347 . S
C376 H387 0.929 . S
N377 C375 1.375 . S
N377 C376 1.347 . S
C378 C381 1.365 . S
C378 N383 1.328 . S
C378 H384 0.929 . S
C379 C380 1.362 . S
C379 C382 1.378 . S
C379 H394 0.929 . S
C380 C379 1.362 . S
C380 C381 1.366 . S
C381 C378 1.365 . S
C381 C380 1.366 . S
C381 H395 0.930 . S
C382 C379 1.378 . S
C382 N383 1.315 . S
C382 H385 0.930 . S
N383 Co363 2.194 . S
N383 C378 1.328 . S
N383 C382 1.315 . S
H384 C378 0.929 . S
H385 C382 0.930 . S
H386 C374 0.929 . S
H387 C376 0.929 . S
O388 Co363 2.351 . S
O388 C391 1.244 . S
O389 Co363 2.155 . S
O389 C391 1.240 . S
O390 Co363 2.096 . S
O390 C371 1.247 . S
C391 O388 1.244 . S
C391 O389 1.240 . S
H392 C366 0.931 . S
H393 C375 0.931 . S
H394 C379 0.929 . S
H395 C381 0.930 . S
Co396 N400 2.148 . S
Co396 N406 2.128 . S
Co396 N416 2.194 . S
Co396 O421 2.351 . S
Co396 O422 2.155 . S
Co396 O423 2.096 . S
C397 N400 1.301 . S
C397 N401 1.328 . S
C397 H402 0.930 . S
C398 C399 1.333 . S
C398 N400 1.317 . S
C398 H403 0.930 . S
C399 C398 1.333 . S
C399 N401 1.350 . S
C399 H425 0.931 . S
N400 Co396 2.148 . S
N400 C397 1.301 . S
N400 C398 1.317 . S
N401 C397 1.328 . S
N401 C399 1.350 . S
H402 C397 0.930 . S
H403 C398 0.930 . S
C404 O405 1.224 . S
C404 O423 1.247 . S
O405 C404 1.224 . S
N406 Co396 2.128 . S
N406 C407 1.355 . S
N406 C409 1.311 . S
C407 N406 1.355 . S
C407 C408 1.363 . S
C407 H419 0.929 1_655 S
C408 C407 1.363 . S
C408 N410 1.375 . S
C408 H426 0.931 1_655 S
C409 N406 1.311 . S
C409 N410 1.347 . S
C409 H420 0.929 . S
N410 C408 1.375 . S
N410 C409 1.347 . S
C411 C414 1.365 . S
C411 N416 1.328 1_455 S
C411 H417 0.929 . S
C412 C413 1.362 . S
C412 C415 1.378 1_455 S
C412 H427 0.929 . S
C413 C412 1.362 . S
C413 C414 1.366 . S
C414 C411 1.365 . S
C414 C413 1.366 . S
C414 H428 0.930 . S
C415 C412 1.378 1_655 S
C415 N416 1.315 . S
C415 H418 0.930 . S
N416 Co396 2.194 . S
N416 C411 1.328 1_655 S
N416 C415 1.315 . S
H417 C411 0.929 . S
H418 C415 0.930 . S
H419 C407 0.929 1_455 S
H420 C409 0.929 . S
O421 Co396 2.351 . S
O421 C424 1.244 . S
O422 Co396 2.155 . S
O422 C424 1.240 . S
O423 Co396 2.096 . S
O423 C404 1.247 . S
C424 O421 1.244 . S
C424 O422 1.240 . S
H425 C399 0.931 . S
H426 C408 0.931 1_455 S
H427 C412 0.929 . S
H428 C414 0.930 . S
Co429 N433 2.148 . S
Co429 N439 2.128 . S
Co429 N449 2.194 . S
Co429 O454 2.351 . S
Co429 O455 2.155 . S
Co429 O456 2.096 . S
C430 N433 1.301 . S
C430 N434 1.328 . S
C430 H435 0.930 . S
C431 C432 1.333 . S
C431 N433 1.317 . S
C431 H436 0.930 . S
C432 C431 1.333 . S
C432 N434 1.350 . S
C432 H458 0.931 . S
N433 Co429 2.148 . S
N433 C430 1.301 . S
N433 C431 1.317 . S
N434 C430 1.328 . S
N434 C432 1.350 . S
H435 C430 0.930 . S
H436 C431 0.930 . S
C437 O438 1.224 . S
C437 O456 1.247 . S
O438 C437 1.224 . S
N439 Co429 2.128 . S
N439 C440 1.355 1_554 S
N439 C442 1.311 1_554 S
C440 N439 1.355 1_556 S
C440 C441 1.363 . S
C440 H452 0.929 1_566 S
C441 C440 1.363 . S
C441 N443 1.375 . S
C441 H459 0.931 1_565 S
C442 N439 1.311 1_556 S
C442 N443 1.347 . S
C442 H453 0.929 . S
N443 C441 1.375 . S
N443 C442 1.347 . S
C444 C447 1.365 . S
C444 N449 1.328 1_545 S
C444 H450 0.929 . S
C445 C446 1.362 . S
C445 C448 1.378 1_545 S
C445 H460 0.929 . S
C446 C445 1.362 . S
C446 C447 1.366 . S
C447 C444 1.365 . S
C447 C446 1.366 . S
C447 H461 0.930 . S
C448 C445 1.378 1_565 S
C448 N449 1.315 . S
C448 H451 0.930 . S
N449 Co429 2.194 . S
N449 C444 1.328 1_565 S
N449 C448 1.315 . S
H450 C444 0.929 . S
H451 C448 0.930 . S
H452 C440 0.929 1_544 S
H453 C442 0.929 . S
O454 Co429 2.351 . S
O454 C457 1.244 . S
O455 Co429 2.155 . S
O455 C457 1.240 . S
O456 Co429 2.096 . S
O456 C437 1.247 . S
C457 O454 1.244 . S
C457 O455 1.240 . S
H458 C432 0.931 . S
H459 C441 0.931 1_545 S
H460 C445 0.929 . S
H461 C447 0.930 . S
Co462 N466 2.148 . S
Co462 N472 2.128 . S
Co462 N482 2.194 . S
Co462 O487 2.351 . S
Co462 O488 2.155 . S
Co462 O489 2.096 . S
C463 N466 1.301 . S
C463 N467 1.328 . S
C463 H468 0.930 . S
C464 C465 1.333 . S
C464 N466 1.317 . S
C464 H469 0.930 . S
C465 C464 1.333 . S
C465 N467 1.350 . S
C465 H491 0.931 . S
N466 Co462 2.148 . S
N466 C463 1.301 . S
N466 C464 1.317 . S
N467 C463 1.328 . S
N467 C465 1.350 . S
H468 C463 0.930 . S
H469 C464 0.930 . S
C470 O471 1.224 . S
C470 O489 1.247 . S
O471 C470 1.224 . S
N472 Co462 2.128 . S
N472 C473 1.355 . S
N472 C475 1.311 . S
C473 N472 1.355 . S
C473 C474 1.363 . S
C473 H485 0.929 . S
C474 C473 1.363 . S
C474 N476 1.375 . S
C474 H492 0.931 . S
C475 N472 1.311 . S
C475 N476 1.347 . S
C475 H486 0.929 . S
N476 C474 1.375 . S
N476 C475 1.347 . S
C477 C480 1.365 . S
C477 N482 1.328 . S
C477 H483 0.929 . S
C478 C479 1.362 . S
C478 C481 1.378 . S
C478 H493 0.929 . S
C479 C478 1.362 . S
C479 C480 1.366 . S
C480 C477 1.365 . S
C480 C479 1.366 . S
C480 H494 0.930 . S
C481 C478 1.378 . S
C481 N482 1.315 . S
C481 H484 0.930 . S
N482 Co462 2.194 . S
N482 C477 1.328 . S
N482 C481 1.315 . S
H483 C477 0.929 . S
H484 C481 0.930 . S
H485 C473 0.929 . S
H486 C475 0.929 . S
O487 Co462 2.351 . S
O487 C490 1.244 . S
O488 Co462 2.155 . S
O488 C490 1.240 . S
O489 Co462 2.096 . S
O489 C470 1.247 . S
C490 O487 1.244 . S
C490 O488 1.240 . S
H491 C465 0.931 . S
H492 C474 0.931 . S
H493 C478 0.929 . S
H494 C480 0.930 . S
Co495 N499 2.148 . S
Co495 N505 2.128 . S
Co495 N515 2.194 . S
Co495 O520 2.351 . S
Co495 O521 2.155 . S
Co495 O522 2.096 . S
C496 N499 1.301 . S
C496 N500 1.328 . S
C496 H501 0.930 . S
C497 C498 1.333 . S
C497 N499 1.317 . S
C497 H502 0.930 . S
C498 C497 1.333 . S
C498 N500 1.350 . S
C498 H524 0.931 . S
N499 Co495 2.148 . S
N499 C496 1.301 . S
N499 C497 1.317 . S
N500 C496 1.328 . S
N500 C498 1.350 . S
H501 C496 0.930 . S
H502 C497 0.930 . S
C503 O504 1.224 . S
C503 O522 1.247 . S
O504 C503 1.224 . S
N505 Co495 2.128 . S
N505 C506 1.355 1_554 S
N505 C508 1.311 1_554 S
C506 N505 1.355 1_556 S
C506 C507 1.363 . S
C506 H518 0.929 1_556 S
C507 C506 1.363 . S
C507 N509 1.375 . S
C507 H525 0.931 . S
C508 N505 1.311 1_556 S
C508 N509 1.347 . S
C508 H519 0.929 . S
N509 C507 1.375 . S
N509 C508 1.347 . S
C510 C513 1.365 . S
C510 N515 1.328 . S
C510 H516 0.929 . S
C511 C512 1.362 . S
C511 C514 1.378 . S
C511 H526 0.929 . S
C512 C511 1.362 . S
C512 C513 1.366 . S
C513 C510 1.365 . S
C513 C512 1.366 . S
C513 H527 0.930 . S
C514 C511 1.378 . S
C514 N515 1.315 . S
C514 H517 0.930 . S
N515 Co495 2.194 . S
N515 C510 1.328 . S
N515 C514 1.315 . S
H516 C510 0.929 . S
H517 C514 0.930 . S
H518 C506 0.929 1_554 S
H519 C508 0.929 . S
O520 Co495 2.351 . S
O520 C523 1.244 . S
O521 Co495 2.155 . S
O521 C523 1.240 . S
O522 Co495 2.096 . S
O522 C503 1.247 . S
C523 O520 1.244 . S
C523 O521 1.240 . S
H524 C498 0.931 . S
H525 C507 0.931 . S
H526 C511 0.929 . S
H527 C513 0.930 . S
H528 C536 0.950 . S
H529 C541 0.950 . S
H530 C538 0.950 . S
H531 C540 0.950 . S
H532 C542 0.950 . S
H533 C544 0.950 . S
H534 C546 0.950 . S
H535 C547 0.950 . S
C536 H528 0.950 . S
C536 C537 1.386 . S
C536 C538 1.391 . S
C537 C536 1.386 . S
C537 C541 1.393 . S
C538 H530 0.950 . S
C538 C536 1.391 . S
C538 C539 1.400 . S
C539 C538 1.400 . S
C539 C540 1.398 . S
C539 C545 1.491 . S
C540 H531 0.950 . S
C540 C539 1.398 . S
C540 C541 1.391 . S
C541 H529 0.950 . S
C541 C537 1.393 . S
C541 C540 1.391 . S
C542 H532 0.950 . S
C542 C543 1.386 . S
C542 C544 1.391 . S
C543 C542 1.386 . S
C543 C547 1.393 . S
C544 H533 0.950 . S
C544 C542 1.391 . S
C544 C545 1.400 . S
C545 C539 1.491 . S
C545 C544 1.400 . S
C545 C546 1.398 . S
C546 H534 0.950 . S
C546 C545 1.398 . S
C546 C547 1.391 . S
C547 H535 0.950 . S
C547 C543 1.393 . S
C547 C546 1.391 . S
H548 C556 0.950 . S
H549 C561 0.950 . S
H550 C558 0.950 . S
H551 C560 0.950 . S
H552 C562 0.950 . S
H553 C564 0.950 . S
H554 C566 0.950 . S
H555 C567 0.950 . S
C556 H548 0.950 . S
C556 C557 1.386 . S
C556 C558 1.391 . S
C557 C556 1.386 . S
C557 C561 1.393 . S
C558 H550 0.950 . S
C558 C556 1.391 . S
C558 C559 1.400 . S
C559 C558 1.400 . S
C559 C560 1.398 . S
C559 C565 1.491 . S
C560 H551 0.950 . S
C560 C559 1.398 . S
C560 C561 1.391 . S
C561 H549 0.950 . S
C561 C557 1.393 . S
C561 C560 1.391 . S
C562 H552 0.950 . S
C562 C563 1.386 . S
C562 C564 1.391 . S
C563 C562 1.386 . S
C563 C567 1.393 . S
C564 H553 0.950 . S
C564 C562 1.391 . S
C564 C565 1.400 . S
C565 C559 1.491 . S
C565 C564 1.400 . S
C565 C566 1.398 . S
C566 H554 0.950 . S
C566 C565 1.398 . S
C566 C567 1.391 . S
C567 H555 0.950 . S
C567 C563 1.393 . S
C567 C566 1.391 . S
H568 C576 0.950 . S
H569 C581 0.950 . S
H570 C578 0.950 . S
H571 C580 0.950 . S
H572 C582 0.950 . S
H573 C584 0.950 . S
H574 C586 0.950 . S
H575 C587 0.950 . S
C576 H568 0.950 . S
C576 C577 1.386 . S
C576 C578 1.391 . S
C577 C576 1.386 . S
C577 C581 1.393 . S
C578 H570 0.950 . S
C578 C576 1.391 . S
C578 C579 1.400 . S
C579 C578 1.400 . S
C579 C580 1.398 . S
C579 C585 1.491 . S
C580 H571 0.950 . S
C580 C579 1.398 . S
C580 C581 1.391 . S
C581 H569 0.950 . S
C581 C577 1.393 . S
C581 C580 1.391 . S
C582 H572 0.950 . S
C582 C583 1.386 . S
C582 C584 1.391 . S
C583 C582 1.386 . S
C583 C587 1.393 . S
C584 H573 0.950 . S
C584 C582 1.391 . S
C584 C585 1.400 . S
C585 C579 1.491 . S
C585 C584 1.400 . S
C585 C586 1.398 . S
C586 H574 0.950 . S
C586 C585 1.398 . S
C586 C587 1.391 . S
C587 H575 0.950 . S
C587 C583 1.393 . S
C587 C586 1.391 . S
H588 C596 0.950 . S
H589 C601 0.950 . S
H590 C598 0.950 . S
H591 C600 0.950 . S
H592 C602 0.950 . S
H593 C604 0.950 . S
H594 C606 0.950 . S
H595 C607 0.950 . S
C596 H588 0.950 . S
C596 C597 1.386 . S
C596 C598 1.391 . S
C597 C596 1.386 . S
C597 C601 1.393 . S
C598 H590 0.950 . S
C598 C596 1.391 . S
C598 C599 1.400 . S
C599 C598 1.400 . S
C599 C600 1.398 . S
C599 C605 1.491 . S
C600 H591 0.950 . S
C600 C599 1.398 . S
C600 C601 1.391 . S
C601 H589 0.950 . S
C601 C597 1.393 . S
C601 C600 1.391 . S
C602 H592 0.950 . S
C602 C603 1.386 . S
C602 C604 1.391 . S
C603 C602 1.386 . S
C603 C607 1.393 . S
C604 H593 0.950 . S
C604 C602 1.391 . S
C604 C605 1.400 . S
C605 C599 1.491 . S
C605 C604 1.400 . S
C605 C606 1.398 . S
C606 H594 0.950 . S
C606 C605 1.398 . S
C606 C607 1.391 . S
C607 H595 0.950 . S
C607 C603 1.393 . S
C607 C606 1.391 . S
H608 C616 0.950 . S
H609 C621 0.950 . S
H610 C618 0.950 . S
H611 C620 0.950 . S
H612 C622 0.950 . S
H613 C624 0.950 . S
H614 C626 0.950 . S
H615 C627 0.950 . S
C616 H608 0.950 . S
C616 C617 1.386 . S
C616 C618 1.391 . S
C617 C616 1.386 . S
C617 C621 1.393 . S
C618 H610 0.950 . S
C618 C616 1.391 . S
C618 C619 1.400 . S
C619 C618 1.400 . S
C619 C620 1.398 . S
C619 C625 1.491 . S
C620 H611 0.950 . S
C620 C619 1.398 . S
C620 C621 1.391 . S
C621 H609 0.950 . S
C621 C617 1.393 . S
C621 C620 1.391 . S
C622 H612 0.950 . S
C622 C623 1.386 . S
C622 C624 1.391 . S
C623 C622 1.386 . S
C623 C627 1.393 . S
C624 H613 0.950 . S
C624 C622 1.391 . S
C624 C625 1.400 . S
C625 C619 1.491 . S
C625 C624 1.400 . S
C625 C626 1.398 . S
C626 H614 0.950 . S
C626 C625 1.398 . S
C626 C627 1.391 . S
C627 H615 0.950 . S
C627 C623 1.393 . S
C627 C626 1.391 . S
H628 C636 0.950 . S
H629 C641 0.950 . S
H630 C638 0.950 . S
H631 C640 0.950 . S
H632 C642 0.950 . S
H633 C644 0.950 . S
H634 C646 0.950 . S
H635 C647 0.950 . S
C636 H628 0.950 . S
C636 C637 1.386 . S
C636 C638 1.391 . S
C637 C636 1.386 . S
C637 C641 1.393 . S
C638 H630 0.950 . S
C638 C636 1.391 . S
C638 C639 1.400 . S
C639 C638 1.400 . S
C639 C640 1.398 . S
C639 C645 1.491 . S
C640 H631 0.950 . S
C640 C639 1.398 . S
C640 C641 1.391 . S
C641 H629 0.950 . S
C641 C637 1.393 . S
C641 C640 1.391 . S
C642 H632 0.950 . S
C642 C643 1.386 . S
C642 C644 1.391 . S
C643 C642 1.386 . S
C643 C647 1.393 . S
C644 H633 0.950 . S
C644 C642 1.391 . S
C644 C645 1.400 . S
C645 C639 1.491 . S
C645 C644 1.400 . S
C645 C646 1.398 . S
C646 H634 0.950 . S
C646 C645 1.398 . S
C646 C647 1.391 . S
C647 H635 0.950 . S
C647 C643 1.393 . S
C647 C646 1.391 . S
H648 C656 0.950 . S
H649 C661 0.950 . S
H650 C658 0.950 . S
H651 C660 0.950 . S
H652 C662 0.950 . S
H653 C664 0.950 . S
H654 C666 0.950 . S
H655 C667 0.950 . S
C656 H648 0.950 . S
C656 C657 1.386 . S
C656 C658 1.391 . S
C657 C656 1.386 . S
C657 C661 1.393 . S
C658 H650 0.950 . S
C658 C656 1.391 . S
C658 C659 1.400 . S
C659 C658 1.400 . S
C659 C660 1.398 . S
C659 C665 1.491 . S
C660 H651 0.950 . S
C660 C659 1.398 . S
C660 C661 1.391 . S
C661 H649 0.950 . S
C661 C657 1.393 . S
C661 C660 1.391 . S
C662 H652 0.950 . S
C662 C663 1.386 . S
C662 C664 1.391 . S
C663 C662 1.386 . S
C663 C667 1.393 . S
C664 H653 0.950 . S
C664 C662 1.391 . S
C664 C665 1.400 . S
C665 C659 1.491 . S
C665 C664 1.400 . S
C665 C666 1.398 . S
C666 H654 0.950 . S
C666 C665 1.398 . S
C666 C667 1.391 . S
C667 H655 0.950 . S
C667 C663 1.393 . S
C667 C666 1.391 . S
H668 C676 0.950 . S
H669 C681 0.950 . S
H670 C678 0.950 . S
H671 C680 0.950 . S
H672 C682 0.950 . S
H673 C684 0.950 . S
H674 C686 0.950 . S
H675 C687 0.950 . S
C676 H668 0.950 . S
C676 C677 1.386 . S
C676 C678 1.391 . S
C677 C676 1.386 . S
C677 C681 1.393 . S
C678 H670 0.950 . S
C678 C676 1.391 . S
C678 C679 1.400 . S
C679 C678 1.400 . S
C679 C680 1.398 . S
C679 C685 1.491 . S
C680 H671 0.950 . S
C680 C679 1.398 . S
C680 C681 1.391 . S
C681 H669 0.950 . S
C681 C677 1.393 . S
C681 C680 1.391 . S
C682 H672 0.950 . S
C682 C683 1.386 . S
C682 C684 1.391 . S
C683 C682 1.386 . S
C683 C687 1.393 . S
C684 H673 0.950 . S
C684 C682 1.391 . S
C684 C685 1.400 . S
C685 C679 1.491 . S
C685 C684 1.400 . S
C685 C686 1.398 . S
C686 H674 0.950 . S
C686 C685 1.398 . S
C686 C687 1.391 . S
C687 H675 0.950 . S
C687 C683 1.393 . S
C687 C686 1.391 . S
H688 C696 0.950 1_556 S
H689 C701 0.950 . S
H690 C698 0.950 . S
H691 C700 0.950 . S
H692 C702 0.950 1_554 S
H693 C704 0.950 . S
H694 C706 0.950 . S
H695 C707 0.950 . S
C696 H688 0.950 1_554 S
C696 C697 1.386 . S
C696 C698 1.391 1_554 S
C697 C696 1.386 . S
C697 C701 1.393 . S
C698 H690 0.950 . S
C698 C696 1.391 1_556 S
C698 C699 1.400 1_556 S
C699 C698 1.400 1_554 S
C699 C700 1.398 . S
C699 C705 1.491 1_554 S
C700 H691 0.950 . S
C700 C699 1.398 . S
C700 C701 1.391 . S
C701 H689 0.950 . S
C701 C697 1.393 . S
C701 C700 1.391 . S
C702 H692 0.950 1_556 S
C702 C703 1.386 . S
C702 C704 1.391 1_556 S
C703 C702 1.386 . S
C703 C707 1.393 . S
C704 H693 0.950 . S
C704 C702 1.391 1_554 S
C704 C705 1.400 1_554 S
C705 C699 1.491 1_556 S
C705 C704 1.400 1_556 S
C705 C706 1.398 . S
C706 H694 0.950 . S
C706 C705 1.398 . S
C706 C707 1.391 . S
C707 H695 0.950 . S
C707 C703 1.393 . S
C707 C706 1.391 . S
H708 C716 0.950 . S
H709 C721 0.950 . S
H710 C718 0.950 . S
H711 C720 0.950 . S
H712 C722 0.950 . S
H713 C724 0.950 . S
H714 C726 0.950 . S
H715 C727 0.950 . S
C716 H708 0.950 . S
C716 C717 1.386 . S
C716 C718 1.391 . S
C717 C716 1.386 . S
C717 C721 1.393 . S
C718 H710 0.950 . S
C718 C716 1.391 . S
C718 C719 1.400 . S
C719 C718 1.400 . S
C719 C720 1.398 . S
C719 C725 1.491 . S
C720 H711 0.950 . S
C720 C719 1.398 . S
C720 C721 1.391 . S
C721 H709 0.950 . S
C721 C717 1.393 . S
C721 C720 1.391 . S
C722 H712 0.950 . S
C722 C723 1.386 . S
C722 C724 1.391 . S
C723 C722 1.386 . S
C723 C727 1.393 . S
C724 H713 0.950 . S
C724 C722 1.391 . S
C724 C725 1.400 . S
C725 C719 1.491 . S
C725 C724 1.400 . S
C725 C726 1.398 . S
C726 H714 0.950 . S
C726 C725 1.398 . S
C726 C727 1.391 . S
C727 H715 0.950 . S
C727 C723 1.393 . S
C727 C726 1.391 . S
H728 C736 0.950 . S
H729 C741 0.950 . S
H730 C738 0.950 . S
H731 C740 0.950 . S
H732 C742 0.950 . S
H733 C744 0.950 . S
H734 C746 0.950 . S
H735 C747 0.950 . S
C736 H728 0.950 . S
C736 C737 1.386 . S
C736 C738 1.391 . S
C737 C736 1.386 . S
C737 C741 1.393 1_554 S
C738 H730 0.950 . S
C738 C736 1.391 . S
C738 C739 1.400 . S
C739 C738 1.400 . S
C739 C740 1.398 1_554 S
C739 C745 1.491 1_554 S
C740 H731 0.950 . S
C740 C739 1.398 1_556 S
C740 C741 1.391 . S
C741 H729 0.950 . S
C741 C737 1.393 1_556 S
C741 C740 1.391 . S
C742 H732 0.950 . S
C742 C743 1.386 . S
C742 C744 1.391 . S
C743 C742 1.386 . S
C743 C747 1.393 1_556 S
C744 H733 0.950 . S
C744 C742 1.391 . S
C744 C745 1.400 . S
C745 C739 1.491 1_556 S
C745 C744 1.400 . S
C745 C746 1.398 1_556 S
C746 H734 0.950 . S
C746 C745 1.398 1_554 S
C746 C747 1.391 . S
C747 H735 0.950 . S
C747 C743 1.393 1_554 S
C747 C746 1.391 . S
H748 C756 0.950 . S
H749 C761 0.950 . S
H750 C758 0.950 . S
H751 C760 0.950 . S
H752 C762 0.950 . S
H753 C764 0.950 . S
H754 C766 0.950 . S
H755 C767 0.950 . S
C756 H748 0.950 . S
C756 C757 1.386 . S
C756 C758 1.391 . S
C757 C756 1.386 . S
C757 C761 1.393 . S
C758 H750 0.950 . S
C758 C756 1.391 . S
C758 C759 1.400 . S
C759 C758 1.400 . S
C759 C760 1.398 . S
C759 C765 1.491 . S
C760 H751 0.950 . S
C760 C759 1.398 . S
C760 C761 1.391 . S
C761 H749 0.950 . S
C761 C757 1.393 . S
C761 C760 1.391 . S
C762 H752 0.950 . S
C762 C763 1.386 . S
C762 C764 1.391 . S
C763 C762 1.386 . S
C763 C767 1.393 . S
C764 H753 0.950 . S
C764 C762 1.391 . S
C764 C765 1.400 . S
C765 C759 1.491 . S
C765 C764 1.400 . S
C765 C766 1.398 . S
C766 H754 0.950 . S
C766 C765 1.398 . S
C766 C767 1.391 . S
C767 H755 0.950 . S
C767 C763 1.393 . S
C767 C766 1.391 . S
H768 C776 0.950 . S
H769 C781 0.950 . S
H770 C778 0.950 . S
H771 C780 0.950 . S
H772 C782 0.950 . S
H773 C784 0.950 . S
H774 C786 0.950 . S
H775 C787 0.950 . S
C776 H768 0.950 . S
C776 C777 1.386 . S
C776 C778 1.391 . S
C777 C776 1.386 . S
C777 C781 1.393 1_554 S
C778 H770 0.950 . S
C778 C776 1.391 . S
C778 C779 1.400 . S
C779 C778 1.400 . S
C779 C780 1.398 1_554 S
C779 C785 1.491 1_554 S
C780 H771 0.950 . S
C780 C779 1.398 1_556 S
C780 C781 1.391 . S
C781 H769 0.950 . S
C781 C777 1.393 1_556 S
C781 C780 1.391 . S
C782 H772 0.950 . S
C782 C783 1.386 . S
C782 C784 1.391 . S
C783 C782 1.386 . S
C783 C787 1.393 1_556 S
C784 H773 0.950 . S
C784 C782 1.391 . S
C784 C785 1.400 . S
C785 C779 1.491 1_556 S
C785 C784 1.400 . S
C785 C786 1.398 1_556 S
C786 H774 0.950 . S
C786 C785 1.398 1_554 S
C786 C787 1.391 . S
C787 H775 0.950 . S
C787 C783 1.393 1_554 S
C787 C786 1.391 . S
H788 C796 0.950 . S
H789 C801 0.950 . S
H790 C798 0.950 . S
H791 C800 0.950 . S
H792 C802 0.950 . S
H793 C804 0.950 . S
H794 C806 0.950 . S
H795 C807 0.950 . S
C796 H788 0.950 . S
C796 C797 1.386 . S
C796 C798 1.391 . S
C797 C796 1.386 . S
C797 C801 1.393 . S
C798 H790 0.950 . S
C798 C796 1.391 . S
C798 C799 1.400 . S
C799 C798 1.400 . S
C799 C800 1.398 . S
C799 C805 1.491 . S
C800 H791 0.950 . S
C800 C799 1.398 . S
C800 C801 1.391 . S
C801 H789 0.950 . S
C801 C797 1.393 . S
C801 C800 1.391 . S
C802 H792 0.950 . S
C802 C803 1.386 . S
C802 C804 1.391 . S
C803 C802 1.386 . S
C803 C807 1.393 . S
C804 H793 0.950 . S
C804 C802 1.391 . S
C804 C805 1.400 . S
C805 C799 1.491 . S
C805 C804 1.400 . S
C805 C806 1.398 . S
C806 H794 0.950 . S
C806 C805 1.398 . S
C806 C807 1.391 . S
C807 H795 0.950 . S
C807 C803 1.393 . S
C807 C806 1.391 . S
H808 C816 0.950 . S
H809 C821 0.950 . S
H810 C818 0.950 . S
H811 C820 0.942 1_556 S
H812 C822 0.950 . S
H813 C824 0.950 . S
H814 C826 0.942 1_554 S
H815 C827 0.950 . S
C816 H808 0.950 . S
C816 C817 1.386 . S
C816 C818 1.391 . S
C817 C816 1.386 . S
C817 C821 1.393 . S
C818 H810 0.950 . S
C818 C816 1.391 . S
C818 C819 1.400 . S
C819 C818 1.400 . S
C819 C820 1.401 . S
C819 C825 1.491 1_554 S
C820 H811 0.942 1_554 S
C820 C819 1.401 . S
C820 C821 1.396 . S
C821 H809 0.950 . S
C821 C817 1.393 . S
C821 C820 1.396 . S
C822 H812 0.950 . S
C822 C823 1.386 . S
C822 C824 1.391 . S
C823 C822 1.386 . S
C823 C827 1.393 . S
C824 H813 0.950 . S
C824 C822 1.391 . S
C824 C825 1.400 . S
C825 C819 1.491 1_556 S
C825 C824 1.400 . S
C825 C826 1.401 . S
C826 H814 0.942 1_556 S
C826 C825 1.401 . S
C826 C827 1.396 . S
C827 H815 0.950 . S
C827 C823 1.393 . S
C827 C826 1.396 . S
H828 C836 0.950 . S
H829 C841 0.950 . S
H830 C838 0.950 . S
H831 C840 0.950 . S
H832 C842 0.950 . S
H833 C844 0.950 . S
H834 C846 0.950 . S
H835 C847 0.950 . S
C836 H828 0.950 . S
C836 C837 1.386 . S
C836 C838 1.391 . S
C837 C836 1.386 . S
C837 C841 1.393 . S
C838 H830 0.950 . S
C838 C836 1.391 . S
C838 C839 1.400 . S
C839 C838 1.400 . S
C839 C840 1.398 . S
C839 C845 1.491 . S
C840 H831 0.950 . S
C840 C839 1.398 . S
C840 C841 1.391 . S
C841 H829 0.950 . S
C841 C837 1.393 . S
C841 C840 1.391 . S
C842 H832 0.950 . S
C842 C843 1.386 . S
C842 C844 1.391 . S
C843 C842 1.386 . S
C843 C847 1.393 . S
C844 H833 0.950 . S
C844 C842 1.391 . S
C844 C845 1.400 . S
C845 C839 1.491 . S
C845 C844 1.400 . S
C845 C846 1.398 . S
C846 H834 0.950 . S
C846 C845 1.398 . S
C846 C847 1.391 . S
C847 H835 0.950 . S
C847 C843 1.393 . S
C847 C846 1.391 . S
H848 C856 0.950 1_655 S
H849 C861 0.950 . S
H850 C858 0.950 1_655 S
H851 C860 0.950 . S
H852 C862 0.950 . S
H853 C864 0.950 . S
H854 C866 0.950 1_655 S
H855 C867 0.950 1_655 S
C856 H848 0.950 1_455 S
C856 C857 1.386 . S
C856 C858 1.391 . S
C857 C856 1.386 . S
C857 C861 1.393 . S
C858 H850 0.950 1_455 S
C858 C856 1.391 . S
C858 C859 1.400 . S
C859 C858 1.400 . S
C859 C860 1.398 . S
C859 C865 1.491 . S
C860 H851 0.950 . S
C860 C859 1.398 . S
C860 C861 1.391 . S
C861 H849 0.950 . S
C861 C857 1.393 . S
C861 C860 1.391 . S
C862 H852 0.950 . S
C862 C863 1.386 . S
C862 C864 1.391 . S
C863 C862 1.386 . S
C863 C867 1.393 . S
C864 H853 0.950 . S
C864 C862 1.391 . S
C864 C865 1.400 . S
C865 C859 1.491 . S
C865 C864 1.400 . S
C865 C866 1.398 . S
C866 H854 0.950 1_455 S
C866 C865 1.398 . S
C866 C867 1.391 . S
C867 H855 0.950 1_455 S
C867 C863 1.393 . S
C867 C866 1.391 . S
H868 C876 0.950 . S
H869 C881 0.950 . S
H870 C878 0.950 . S
H871 C880 0.950 . S
H872 C882 0.950 . S
H873 C884 0.950 . S
H874 C886 0.950 . S
H875 C887 0.950 . S
C876 H868 0.950 . S
C876 C877 1.386 . S
C876 C878 1.391 . S
C877 C876 1.386 . S
C877 C881 1.393 . S
C878 H870 0.950 . S
C878 C876 1.391 . S
C878 C879 1.400 . S
C879 C878 1.400 . S
C879 C880 1.398 . S
C879 C885 1.491 . S
C880 H871 0.950 . S
C880 C879 1.398 . S
C880 C881 1.391 . S
C881 H869 0.950 . S
C881 C877 1.393 . S
C881 C880 1.391 . S
C882 H872 0.950 . S
C882 C883 1.386 . S
C882 C884 1.391 . S
C883 C882 1.386 . S
C883 C887 1.393 . S
C884 H873 0.950 . S
C884 C882 1.391 . S
C884 C885 1.400 . S
C885 C879 1.491 . S
C885 C884 1.400 . S
C885 C886 1.398 . S
C886 H874 0.950 . S
C886 C885 1.398 . S
C886 C887 1.391 . S
C887 H875 0.950 . S
C887 C883 1.393 . S
C887 C886 1.391 . S
H888 C896 0.950 . S
H889 C901 0.950 . S
H890 C898 0.950 . S
H891 C900 0.950 . S
H892 C902 0.950 . S
H893 C904 0.950 . S
H894 C906 0.950 . S
H895 C907 0.950 . S
C896 H888 0.950 . S
C896 C897 1.386 . S
C896 C898 1.391 . S
C897 C896 1.386 . S
C897 C901 1.393 . S
C898 H890 0.950 . S
C898 C896 1.391 . S
C898 C899 1.400 . S
C899 C898 1.400 . S
C899 C900 1.398 . S
C899 C905 1.491 . S
C900 H891 0.950 . S
C900 C899 1.398 . S
C900 C901 1.391 . S
C901 H889 0.950 . S
C901 C897 1.393 . S
C901 C900 1.391 . S
C902 H892 0.950 . S
C902 C903 1.386 . S
C902 C904 1.391 . S
C903 C902 1.386 . S
C903 C907 1.393 . S
C904 H893 0.950 . S
C904 C902 1.391 . S
C904 C905 1.400 . S
C905 C899 1.491 . S
C905 C904 1.400 . S
C905 C906 1.398 . S
C906 H894 0.950 . S
C906 C905 1.398 . S
C906 C907 1.391 . S
C907 H895 0.950 . S
C907 C903 1.393 . S
C907 C906 1.391 . S
H908 C916 0.950 . S
H909 C921 0.950 . S
H910 C918 0.950 . S
H911 C920 0.950 . S
H912 C922 0.950 . S
H913 C924 0.950 . S
H914 C926 0.950 . S
H915 C927 0.950 . S
C916 H908 0.950 . S
C916 C917 1.386 . S
C916 C918 1.391 . S
C917 C916 1.386 . S
C917 C921 1.393 . S
C918 H910 0.950 . S
C918 C916 1.391 . S
C918 C919 1.400 . S
C919 C918 1.400 . S
C919 C920 1.398 . S
C919 C925 1.491 . S
C920 H911 0.950 . S
C920 C919 1.398 . S
C920 C921 1.391 . S
C921 H909 0.950 . S
C921 C917 1.393 . S
C921 C920 1.391 . S
C922 H912 0.950 . S
C922 C923 1.386 . S
C922 C924 1.391 . S
C923 C922 1.386 . S
C923 C927 1.393 . S
C924 H913 0.950 . S
C924 C922 1.391 . S
C924 C925 1.400 . S
C925 C919 1.491 . S
C925 C924 1.400 . S
C925 C926 1.398 . S
C926 H914 0.950 . S
C926 C925 1.398 . S
C926 C927 1.391 . S
C927 H915 0.950 . S
C927 C923 1.393 . S
C927 C926 1.391 . S
H928 C936 0.950 . S
H929 C941 0.950 1_455 S
H930 C938 0.950 . S
H931 C940 0.950 1_455 S
H932 C942 0.950 1_455 S
H933 C944 0.950 1_455 S
H934 C946 0.950 . S
H935 C947 0.950 . S
C936 H928 0.950 . S
C936 C937 1.386 . S
C936 C938 1.391 . S
C937 C936 1.386 . S
C937 C941 1.393 . S
C938 H930 0.950 . S
C938 C936 1.391 . S
C938 C939 1.400 . S
C939 C938 1.400 . S
C939 C940 1.398 . S
C939 C945 1.491 . S
C940 H931 0.950 1_655 S
C940 C939 1.398 . S
C940 C941 1.391 . S
C941 H929 0.950 1_655 S
C941 C937 1.393 . S
C941 C940 1.391 . S
C942 H932 0.950 1_655 S
C942 C943 1.386 . S
C942 C944 1.391 . S
C943 C942 1.386 . S
C943 C947 1.393 . S
C944 H933 0.950 1_655 S
C944 C942 1.391 . S
C944 C945 1.400 . S
C945 C939 1.491 . S
C945 C944 1.400 . S
C945 C946 1.398 . S
C946 H934 0.950 . S
C946 C945 1.398 . S
C946 C947 1.391 . S
C947 H935 0.950 . S
C947 C943 1.393 . S
C947 C946 1.391 . S
H948 C956 0.950 . S
H949 C961 0.950 . S
H950 C958 0.950 . S
H951 C960 0.950 . S
H952 C962 0.950 . S
H953 C964 0.950 . S
H954 C966 0.950 . S
H955 C967 0.950 . S
C956 H948 0.950 . S
C956 C957 1.386 . S
C956 C958 1.391 . S
C957 C956 1.386 . S
C957 C961 1.393 . S
C958 H950 0.950 . S
C958 C956 1.391 . S
C958 C959 1.400 . S
C959 C958 1.400 . S
C959 C960 1.398 . S
C959 C965 1.491 . S
C960 H951 0.950 . S
C960 C959 1.398 . S
C960 C961 1.391 . S
C961 H949 0.950 . S
C961 C957 1.393 . S
C961 C960 1.391 . S
C962 H952 0.950 . S
C962 C963 1.386 . S
C962 C964 1.391 . S
C963 C962 1.386 . S
C963 C967 1.393 . S
C964 H953 0.950 . S
C964 C962 1.391 . S
C964 C965 1.400 . S
C965 C959 1.491 . S
C965 C964 1.400 . S
C965 C966 1.398 . S
C966 H954 0.950 . S
C966 C965 1.398 . S
C966 C967 1.391 . S
C967 H955 0.950 . S
C967 C963 1.393 . S
C967 C966 1.391 . S
H968 C976 0.950 . S
H969 C981 0.950 . S
H970 C978 0.950 . S
H971 C980 0.950 . S
H972 C982 0.950 . S
H973 C984 0.950 . S
H974 C986 0.950 . S
H975 C987 0.950 . S
C976 H968 0.950 . S
C976 C977 1.386 . S
C976 C978 1.391 . S
C977 C976 1.386 . S
C977 C981 1.393 . S
C978 H970 0.950 . S
C978 C976 1.391 . S
C978 C979 1.400 . S
C979 C978 1.400 . S
C979 C980 1.398 . S
C979 C985 1.491 . S
C980 H971 0.950 . S
C980 C979 1.398 . S
C980 C981 1.391 . S
C981 H969 0.950 . S
C981 C977 1.393 . S
C981 C980 1.391 . S
C982 H972 0.950 . S
C982 C983 1.386 . S
C982 C984 1.391 . S
C983 C982 1.386 . S
C983 C987 1.393 . S
C984 H973 0.950 . S
C984 C982 1.391 . S
C984 C985 1.400 . S
C985 C979 1.491 . S
C985 C984 1.400 . S
C985 C986 1.398 . S
C986 H974 0.950 . S
C986 C985 1.398 . S
C986 C987 1.391 . S
C987 H975 0.950 . S
C987 C983 1.393 . S
C987 C986 1.391 . S
H988 C996 0.950 . S
H989 C1001 0.950 . S
H990 C998 0.950 . S
H991 C1000 0.950 . S
H992 C1002 0.950 . S
H993 C1004 0.950 . S
H994 C1006 0.950 . S
H995 C1007 0.950 . S
C996 H988 0.950 . S
C996 C997 1.386 . S
C996 C998 1.391 . S
C997 C996 1.386 . S
C997 C1001 1.393 . S
C998 H990 0.950 . S
C998 C996 1.391 . S
C998 C999 1.400 . S
C999 C998 1.400 . S
C999 C1000 1.398 . S
C999 C1005 1.491 . S
C1000 H991 0.950 . S
C1000 C999 1.398 . S
C1000 C1001 1.391 . S
C1001 H989 0.950 . S
C1001 C997 1.393 . S
C1001 C1000 1.391 . S
C1002 H992 0.950 . S
C1002 C1003 1.386 . S
C1002 C1004 1.391 . S
C1003 C1002 1.386 . S
C1003 C1007 1.393 . S
C1004 H993 0.950 . S
C1004 C1002 1.391 . S
C1004 C1005 1.400 . S
C1005 C999 1.491 . S
C1005 C1004 1.400 . S
C1005 C1006 1.398 . S
C1006 H994 0.950 . S
C1006 C1005 1.398 . S
C1006 C1007 1.391 . S
C1007 H995 0.950 . S
C1007 C1003 1.393 . S
C1007 C1006 1.391 . S
H1008 C1016 0.950 . S
H1009 C1021 0.950 1_655 S
H1010 C1018 0.950 . S
H1011 C1020 0.950 1_655 S
H1012 C1022 0.950 1_655 S
H1013 C1024 0.950 1_655 S
H1014 C1026 0.950 . S
H1015 C1027 0.950 . S
C1016 H1008 0.950 . S
C1016 C1017 1.386 . S
C1016 C1018 1.391 . S
C1017 C1016 1.386 . S
C1017 C1021 1.393 . S
C1018 H1010 0.950 . S
C1018 C1016 1.391 . S
C1018 C1019 1.400 . S
C1019 C1018 1.400 . S
C1019 C1020 1.398 . S
C1019 C1025 1.491 . S
C1020 H1011 0.950 1_455 S
C1020 C1019 1.398 . S
C1020 C1021 1.391 . S
C1021 H1009 0.950 1_455 S
C1021 C1017 1.393 . S
C1021 C1020 1.391 . S
C1022 H1012 0.950 1_455 S
C1022 C1023 1.386 . S
C1022 C1024 1.391 . S
C1023 C1022 1.386 . S
C1023 C1027 1.393 . S
C1024 H1013 0.950 1_455 S
C1024 C1022 1.391 . S
C1024 C1025 1.400 . S
C1025 C1019 1.491 . S
C1025 C1024 1.400 . S
C1025 C1026 1.398 . S
C1026 H1014 0.950 . S
C1026 C1025 1.398 . S
C1026 C1027 1.391 . S
C1027 H1015 0.950 . S
C1027 C1023 1.393 . S
C1027 C1026 1.391 . S
H1028 C1036 0.950 . S
H1029 C1041 0.950 . S
H1030 C1038 0.950 . S
H1031 C1040 0.950 . S
H1032 C1042 0.950 . S
H1033 C1044 0.950 . S
H1034 C1046 0.950 . S
H1035 C1047 0.950 . S
C1036 H1028 0.950 . S
C1036 C1037 1.386 . S
C1036 C1038 1.391 1_556 S
C1037 C1036 1.386 . S
C1037 C1041 1.393 . S
C1038 H1030 0.950 . S
C1038 C1036 1.391 1_554 S
C1038 C1039 1.400 . S
C1039 C1038 1.400 . S
C1039 C1040 1.398 . S
C1039 C1045 1.491 . S
C1040 H1031 0.950 . S
C1040 C1039 1.398 . S
C1040 C1041 1.391 1_554 S
C1041 H1029 0.950 . S
C1041 C1037 1.393 . S
C1041 C1040 1.391 1_556 S
C1042 H1032 0.950 . S
C1042 C1043 1.386 . S
C1042 C1044 1.391 . S
C1043 C1042 1.386 . S
C1043 C1047 1.393 . S
C1044 H1033 0.950 . S
C1044 C1042 1.391 . S
C1044 C1045 1.400 . S
C1045 C1039 1.491 . S
C1045 C1044 1.400 . S
C1045 C1046 1.398 . S
C1046 H1034 0.950 . S
C1046 C1045 1.398 . S
C1046 C1047 1.391 . S
C1047 H1035 0.950 . S
C1047 C1043 1.393 . S
C1047 C1046 1.391 . S
H1048 C1056 0.950 . S
H1049 C1061 0.950 . S
H1050 C1058 0.950 . S
H1051 C1060 0.950 . S
H1052 C1062 0.950 . S
H1053 C1064 0.950 . S
H1054 C1066 0.950 . S
H1055 C1067 0.950 . S
C1056 H1048 0.950 . S
C1056 C1057 1.386 . S
C1056 C1058 1.391 . S
C1057 C1056 1.386 . S
C1057 C1061 1.393 . S
C1058 H1050 0.950 . S
C1058 C1056 1.391 . S
C1058 C1059 1.400 . S
C1059 C1058 1.400 . S
C1059 C1060 1.398 . S
C1059 C1065 1.491 . S
C1060 H1051 0.950 . S
C1060 C1059 1.398 . S
C1060 C1061 1.391 . S
C1061 H1049 0.950 . S
C1061 C1057 1.393 . S
C1061 C1060 1.391 . S
C1062 H1052 0.950 . S
C1062 C1063 1.386 . S
C1062 C1064 1.391 . S
C1063 C1062 1.386 . S
C1063 C1067 1.393 . S
C1064 H1053 0.950 . S
C1064 C1062 1.391 . S
C1064 C1065 1.400 . S
C1065 C1059 1.491 . S
C1065 C1064 1.400 . S
C1065 C1066 1.398 . S
C1066 H1054 0.950 . S
C1066 C1065 1.398 . S
C1066 C1067 1.391 . S
C1067 H1055 0.950 . S
C1067 C1063 1.393 . S
C1067 C1066 1.391 . S
H1068 C1076 0.950 . S
H1069 C1081 0.950 . S
H1070 C1078 0.950 . S
H1071 C1080 0.950 . S
H1072 C1082 0.950 . S
H1073 C1084 0.950 . S
H1074 C1086 0.950 . S
H1075 C1087 0.950 . S
C1076 H1068 0.950 . S
C1076 C1077 1.386 . S
C1076 C1078 1.391 1_556 S
C1077 C1076 1.386 . S
C1077 C1081 1.393 . S
C1078 H1070 0.950 . S
C1078 C1076 1.391 1_554 S
C1078 C1079 1.400 . S
C1079 C1078 1.400 . S
C1079 C1080 1.398 . S
C1079 C1085 1.491 . S
C1080 H1071 0.950 . S
C1080 C1079 1.398 . S
C1080 C1081 1.391 1_554 S
C1081 H1069 0.950 . S
C1081 C1077 1.393 . S
C1081 C1080 1.391 1_556 S
C1082 H1072 0.950 . S
C1082 C1083 1.386 . S
C1082 C1084 1.391 . S
C1083 C1082 1.386 . S
C1083 C1087 1.393 . S
C1084 H1073 0.950 . S
C1084 C1082 1.391 . S
C1084 C1085 1.400 . S
C1085 C1079 1.491 . S
C1085 C1084 1.400 . S
C1085 C1086 1.398 . S
C1086 H1074 0.950 . S
C1086 C1085 1.398 . S
C1086 C1087 1.391 . S
C1087 H1075 0.950 . S
C1087 C1083 1.393 . S
C1087 C1086 1.391 . S
H1088 C1096 0.950 . S
H1089 C1101 0.950 1_655 S
H1090 C1098 0.950 . S
H1091 C1100 0.911 1_655 S
H1092 C1102 1.002 . S
H1093 C1104 0.940 1_655 S
H1094 C1106 0.950 . S
H1095 C1107 0.950 . S
C1096 H1088 0.950 . S
C1096 C1097 1.386 . S
C1096 C1098 1.391 . S
C1097 C1096 1.386 . S
C1097 C1101 1.393 . S
C1098 H1090 0.950 . S
C1098 C1096 1.391 . S
C1098 C1099 1.400 . S
C1099 C1098 1.400 . S
C1099 C1100 1.398 . S
C1099 C1105 1.491 . S
C1100 H1091 0.911 1_455 S
C1100 C1099 1.398 . S
C1100 C1101 1.391 . S
C1101 H1089 0.950 1_455 S
C1101 C1097 1.393 . S
C1101 C1100 1.391 . S
C1102 H1092 1.002 . S
C1102 C1103 1.386 . S
C1102 C1104 1.391 1_554 S
C1103 C1102 1.386 . S
C1103 C1107 1.393 . S
C1104 H1093 0.940 1_455 S
C1104 C1102 1.391 1_556 S
C1104 C1105 1.400 . S
C1105 C1099 1.491 . S
C1105 C1104 1.400 . S
C1105 C1106 1.398 . S
C1106 H1094 0.950 . S
C1106 C1105 1.398 . S
C1106 C1107 1.391 1_556 S
C1107 H1095 0.950 . S
C1107 C1103 1.393 . S
C1107 C1106 1.391 1_554 S
H1108 C1116 0.950 . S
H1109 C1121 0.950 . S
H1110 C1118 0.950 . S
H1111 C1120 0.950 . S
H1112 C1122 0.950 . S
H1113 C1124 0.950 . S
H1114 C1126 0.950 . S
H1115 C1127 0.950 . S
C1116 H1108 0.950 . S
C1116 C1117 1.386 . S
C1116 C1118 1.391 . S
C1117 C1116 1.386 . S
C1117 C1121 1.393 . S
C1118 H1110 0.950 . S
C1118 C1116 1.391 . S
C1118 C1119 1.400 . S
C1119 C1118 1.400 . S
C1119 C1120 1.398 . S
C1119 C1125 1.491 . S
C1120 H1111 0.950 . S
C1120 C1119 1.398 . S
C1120 C1121 1.391 . S
C1121 H1109 0.950 . S
C1121 C1117 1.393 . S
C1121 C1120 1.391 . S
C1122 H1112 0.950 . S
C1122 C1123 1.386 . S
C1122 C1124 1.391 . S
C1123 C1122 1.386 . S
C1123 C1127 1.393 . S
C1124 H1113 0.950 . S
C1124 C1122 1.391 . S
C1124 C1125 1.400 . S
C1125 C1119 1.491 . S
C1125 C1124 1.400 . S
C1125 C1126 1.398 . S
C1126 H1114 0.950 . S
C1126 C1125 1.398 . S
C1126 C1127 1.391 . S
C1127 H1115 0.950 . S
C1127 C1123 1.393 . S
C1127 C1126 1.391 . S
H1128 C1136 0.950 . S
H1129 C1141 0.950 . S
H1130 C1138 0.950 . S
H1131 C1140 0.950 . S
H1132 C1142 0.950 . S
H1133 C1144 0.950 . S
H1134 C1146 0.950 . S
H1135 C1147 0.950 . S
C1136 H1128 0.950 . S
C1136 C1137 1.386 . S
C1136 C1138 1.391 . S
C1137 C1136 1.386 . S
C1137 C1141 1.393 . S
C1138 H1130 0.950 . S
C1138 C1136 1.391 . S
C1138 C1139 1.400 . S
C1139 C1138 1.400 . S
C1139 C1140 1.398 . S
C1139 C1145 1.491 . S
C1140 H1131 0.950 . S
C1140 C1139 1.398 . S
C1140 C1141 1.391 . S
C1141 H1129 0.950 . S
C1141 C1137 1.393 . S
C1141 C1140 1.391 . S
C1142 H1132 0.950 . S
C1142 C1143 1.386 . S
C1142 C1144 1.391 1_554 S
C1143 C1142 1.386 . S
C1143 C1147 1.393 . S
C1144 H1133 0.950 . S
C1144 C1142 1.391 1_556 S
C1144 C1145 1.400 . S
C1145 C1139 1.491 . S
C1145 C1144 1.400 . S
C1145 C1146 1.398 . S
C1146 H1134 0.950 . S
C1146 C1145 1.398 . S
C1146 C1147 1.391 1_556 S
C1147 H1135 0.950 . S
C1147 C1143 1.393 . S
C1147 C1146 1.391 1_554 S
H1148 C1156 0.950 . S
H1149 C1161 0.950 . S
H1150 C1158 0.950 . S
H1151 C1160 0.950 . S
H1152 C1162 0.950 . S
H1153 C1164 0.950 . S
H1154 C1166 0.950 . S
H1155 C1167 0.950 . S
C1156 H1148 0.950 . S
C1156 C1157 1.386 . S
C1156 C1158 1.391 . S
C1157 C1156 1.386 . S
C1157 C1161 1.393 . S
C1158 H1150 0.950 . S
C1158 C1156 1.391 . S
C1158 C1159 1.400 . S
C1159 C1158 1.400 . S
C1159 C1160 1.398 . S
C1159 C1165 1.491 . S
C1160 H1151 0.950 . S
C1160 C1159 1.398 . S
C1160 C1161 1.391 . S
C1161 H1149 0.950 . S
C1161 C1157 1.393 . S
C1161 C1160 1.391 . S
C1162 H1152 0.950 . S
C1162 C1163 1.386 . S
C1162 C1164 1.391 . S
C1163 C1162 1.386 . S
C1163 C1167 1.393 . S
C1164 H1153 0.950 . S
C1164 C1162 1.391 . S
C1164 C1165 1.400 . S
C1165 C1159 1.491 . S
C1165 C1164 1.400 . S
C1165 C1166 1.398 . S
C1166 H1154 0.950 . S
C1166 C1165 1.398 . S
C1166 C1167 1.391 . S
C1167 H1155 0.950 . S
C1167 C1163 1.393 . S
C1167 C1166 1.391 . S
H1168 C1176 0.950 . S
H1169 C1181 0.950 . S
H1170 C1178 0.950 . S
H1171 C1180 0.950 . S
H1172 C1182 0.940 1_455 S
H1173 C1184 0.950 . S
H1174 C1186 0.950 . S
H1175 C1187 0.950 . S
C1176 H1168 0.950 . S
C1176 C1177 1.386 . S
C1176 C1178 1.391 . S
C1177 C1176 1.386 . S
C1177 C1181 1.393 . S
C1178 H1170 0.950 . S
C1178 C1176 1.391 . S
C1178 C1179 1.400 . S
C1179 C1178 1.400 . S
C1179 C1180 1.398 . S
C1179 C1185 1.491 . S
C1180 H1171 0.950 . S
C1180 C1179 1.398 . S
C1180 C1181 1.391 . S
C1181 H1169 0.950 . S
C1181 C1177 1.393 . S
C1181 C1180 1.391 . S
C1182 H1172 0.940 1_655 S
C1182 C1183 1.386 . S
C1182 C1184 1.391 . S
C1183 C1182 1.386 . S
C1183 C1187 1.393 . S
C1184 H1173 0.950 . S
C1184 C1182 1.391 . S
C1184 C1185 1.400 . S
C1185 C1179 1.491 . S
C1185 C1184 1.400 . S
C1185 C1186 1.398 . S
C1186 H1174 0.950 . S
C1186 C1185 1.398 . S
C1186 C1187 1.391 . S
C1187 H1175 0.950 . S
C1187 C1183 1.393 . S
C1187 C1186 1.391 . S
H1188 C1196 0.950 . S
H1189 C1201 0.950 . S
H1190 C1198 0.950 . S
H1191 C1200 0.950 . S
H1192 C1202 0.950 . S
H1193 C1204 0.950 . S
H1194 C1206 0.950 . S
H1195 C1207 0.950 . S
C1196 H1188 0.950 . S
C1196 C1197 1.386 . S
C1196 C1198 1.391 1_554 S
C1197 C1196 1.386 . S
C1197 C1201 1.393 . S
C1198 H1190 0.950 . S
C1198 C1196 1.391 1_556 S
C1198 C1199 1.400 . S
C1199 C1198 1.400 . S
C1199 C1200 1.398 . S
C1199 C1205 1.491 . S
C1200 H1191 0.950 . S
C1200 C1199 1.398 . S
C1200 C1201 1.391 1_556 S
C1201 H1189 0.950 . S
C1201 C1197 1.393 . S
C1201 C1200 1.391 1_554 S
C1202 H1192 0.950 . S
C1202 C1203 1.386 . S
C1202 C1204 1.391 . S
C1203 C1202 1.386 . S
C1203 C1207 1.393 . S
C1204 H1193 0.950 . S
C1204 C1202 1.391 . S
C1204 C1205 1.400 . S
C1205 C1199 1.491 . S
C1205 C1204 1.400 . S
C1205 C1206 1.398 . S
C1206 H1194 0.950 . S
C1206 C1205 1.398 . S
C1206 C1207 1.391 . S
C1207 H1195 0.950 . S
C1207 C1203 1.393 . S
C1207 C1206 1.391 . S
H1208 C1216 0.950 . S
H1209 C1221 0.950 . S
H1210 C1218 0.950 . S
H1211 C1220 0.950 . S
H1212 C1222 0.950 . S
H1213 C1224 0.950 . S
H1214 C1226 0.950 . S
H1215 C1227 0.950 . S
C1216 H1208 0.950 . S
C1216 C1217 1.386 . S
C1216 C1218 1.391 . S
C1217 C1216 1.386 . S
C1217 C1221 1.393 . S
C1218 H1210 0.950 . S
C1218 C1216 1.391 . S
C1218 C1219 1.400 . S
C1219 C1218 1.400 . S
C1219 C1220 1.398 . S
C1219 C1225 1.491 . S
C1220 H1211 0.950 . S
C1220 C1219 1.398 . S
C1220 C1221 1.391 . S
C1221 H1209 0.950 . S
C1221 C1217 1.393 . S
C1221 C1220 1.391 . S
C1222 H1212 0.950 . S
C1222 C1223 1.386 . S
C1222 C1224 1.391 . S
C1223 C1222 1.386 . S
C1223 C1227 1.393 . S
C1224 H1213 0.950 . S
C1224 C1222 1.391 . S
C1224 C1225 1.400 . S
C1225 C1219 1.491 . S
C1225 C1224 1.400 . S
C1225 C1226 1.398 . S
C1226 H1214 0.950 . S
C1226 C1225 1.398 . S
C1226 C1227 1.391 . S
C1227 H1215 0.950 . S
C1227 C1223 1.393 . S
C1227 C1226 1.391 . S
H1228 C1236 0.950 . S
H1229 C1241 0.950 . S
H1230 C1238 0.950 . S
H1231 C1240 0.950 . S
H1232 C1242 0.950 . S
H1233 C1244 0.950 . S
H1234 C1246 0.950 . S
H1235 C1247 0.950 . S
C1236 H1228 0.950 . S
C1236 C1237 1.386 . S
C1236 C1238 1.391 1_554 S
C1237 C1236 1.386 . S
C1237 C1241 1.393 . S
C1238 H1230 0.950 . S
C1238 C1236 1.391 1_556 S
C1238 C1239 1.400 . S
C1239 C1238 1.400 . S
C1239 C1240 1.398 . S
C1239 C1245 1.491 . S
C1240 H1231 0.950 . S
C1240 C1239 1.398 . S
C1240 C1241 1.391 1_556 S
C1241 H1229 0.950 . S
C1241 C1237 1.393 . S
C1241 C1240 1.391 1_554 S
C1242 H1232 0.950 . S
C1242 C1243 1.386 . S
C1242 C1244 1.391 . S
C1243 C1242 1.386 . S
C1243 C1247 1.393 . S
C1244 H1233 0.950 . S
C1244 C1242 1.391 . S
C1244 C1245 1.400 . S
C1245 C1239 1.491 . S
C1245 C1244 1.400 . S
C1245 C1246 1.398 . S
C1246 H1234 0.950 . S
C1246 C1245 1.398 . S
C1246 C1247 1.391 . S
C1247 H1235 0.950 . S
C1247 C1243 1.393 . S
C1247 C1246 1.391 . S
H1248 C1256 0.950 . S
H1249 C1261 0.950 . S
H1250 C1258 0.950 . S
H1251 C1260 0.950 . S
H1252 C1262 0.950 . S
H1253 C1264 0.950 . S
H1254 C1266 0.950 . S
H1255 C1267 0.950 . S
C1256 H1248 0.950 . S
C1256 C1257 1.386 . S
C1256 C1258 1.391 . S
C1257 C1256 1.386 . S
C1257 C1261 1.393 . S
C1258 H1250 0.950 . S
C1258 C1256 1.391 . S
C1258 C1259 1.400 . S
C1259 C1258 1.400 . S
C1259 C1260 1.398 . S
C1259 C1265 1.491 . S
C1260 H1251 0.950 . S
C1260 C1259 1.398 . S
C1260 C1261 1.391 . S
C1261 H1249 0.950 . S
C1261 C1257 1.393 . S
C1261 C1260 1.391 . S
C1262 H1252 0.950 . S
C1262 C1263 1.386 . S
C1262 C1264 1.391 1_556 S
C1263 C1262 1.386 . S
C1263 C1267 1.393 . S
C1264 H1253 0.950 . S
C1264 C1262 1.391 1_554 S
C1264 C1265 1.400 . S
C1265 C1259 1.491 . S
C1265 C1264 1.400 . S
C1265 C1266 1.398 . S
C1266 H1254 0.950 . S
C1266 C1265 1.398 . S
C1266 C1267 1.391 1_554 S
C1267 H1255 0.950 . S
C1267 C1263 1.393 . S
C1267 C1266 1.391 1_556 S
H1268 C1276 0.950 1_545 S
H1269 C1281 0.950 . S
H1270 C1278 0.950 1_545 S
H1271 C1280 0.950 . S
H1272 C1282 0.950 . S
H1273 C1284 0.950 . S
H1274 C1286 0.950 1_545 S
H1275 C1287 0.944 . S
C1276 H1268 0.950 1_565 S
C1276 C1277 1.386 . S
C1276 C1278 1.391 . S
C1277 C1276 1.386 . S
C1277 C1281 1.393 . S
C1278 H1270 0.950 1_565 S
C1278 C1276 1.391 . S
C1278 C1279 1.400 . S
C1279 C1278 1.400 . S
C1279 C1280 1.398 . S
C1279 C1285 1.491 . S
C1280 H1271 0.950 . S
C1280 C1279 1.398 . S
C1280 C1281 1.391 . S
C1281 H1269 0.950 . S
C1281 C1277 1.393 . S
C1281 C1280 1.391 . S
C1282 H1272 0.950 . S
C1282 C1283 1.386 . S
C1282 C1284 1.391 . S
C1283 C1282 1.386 . S
C1283 C1287 1.393 . S
C1284 H1273 0.950 . S
C1284 C1282 1.391 . S
C1284 C1285 1.400 . S
C1285 C1279 1.491 . S
C1285 C1284 1.400 . S
C1285 C1286 1.398 . S
C1286 H1274 0.950 1_565 S
C1286 C1285 1.398 . S
C1286 C1287 1.391 . S
C1287 H1275 0.944 . S
C1287 C1283 1.393 . S
C1287 C1286 1.391 . S
H1288 C1296 0.950 . S
H1289 C1301 0.950 . S
H1290 C1298 0.950 . S
H1291 C1300 0.950 . S
H1292 C1302 0.950 . S
H1293 C1304 0.950 . S
H1294 C1306 0.950 . S
H1295 C1307 0.950 . S
C1296 H1288 0.950 . S
C1296 C1297 1.386 . S
C1296 C1298 1.391 1_556 S
C1297 C1296 1.386 . S
C1297 C1301 1.393 . S
C1298 H1290 0.950 . S
C1298 C1296 1.391 1_554 S
C1298 C1299 1.400 . S
C1299 C1298 1.400 . S
C1299 C1300 1.398 . S
C1299 C1305 1.491 . S
C1300 H1291 0.950 . S
C1300 C1299 1.398 . S
C1300 C1301 1.391 1_554 S
C1301 H1289 0.950 . S
C1301 C1297 1.393 . S
C1301 C1300 1.391 1_556 S
C1302 H1292 0.950 . S
C1302 C1303 1.386 . S
C1302 C1304 1.391 . S
C1303 C1302 1.386 . S
C1303 C1307 1.393 . S
C1304 H1293 0.950 . S
C1304 C1302 1.391 . S
C1304 C1305 1.400 . S
C1305 C1299 1.491 . S
C1305 C1304 1.400 . S
C1305 C1306 1.398 . S
C1306 H1294 0.950 . S
C1306 C1305 1.398 . S
C1306 C1307 1.391 . S
C1307 H1295 0.950 . S
C1307 C1303 1.393 . S
C1307 C1306 1.391 . S
H1308 C1316 0.950 . S
H1309 C1321 0.950 . S
H1310 C1318 0.950 . S
H1311 C1320 0.950 . S
H1312 C1322 0.950 . S
H1313 C1324 0.950 . S
H1314 C1326 0.950 . S
H1315 C1327 0.950 . S
C1316 H1308 0.950 . S
C1316 C1317 1.386 . S
C1316 C1318 1.391 . S
C1317 C1316 1.386 . S
C1317 C1321 1.393 . S
C1318 H1310 0.950 . S
C1318 C1316 1.391 . S
C1318 C1319 1.400 . S
C1319 C1318 1.400 . S
C1319 C1320 1.398 . S
C1319 C1325 1.491 . S
C1320 H1311 0.950 . S
C1320 C1319 1.398 . S
C1320 C1321 1.391 . S
C1321 H1309 0.950 . S
C1321 C1317 1.393 . S
C1321 C1320 1.391 . S
C1322 H1312 0.950 . S
C1322 C1323 1.386 . S
C1322 C1324 1.391 . S
C1323 C1322 1.386 . S
C1323 C1327 1.393 . S
C1324 H1313 0.950 . S
C1324 C1322 1.391 . S
C1324 C1325 1.400 . S
C1325 C1319 1.491 . S
C1325 C1324 1.400 . S
C1325 C1326 1.398 . S
C1326 H1314 0.950 . S
C1326 C1325 1.398 . S
C1326 C1327 1.391 . S
C1327 H1315 0.950 . S
C1327 C1323 1.393 . S
C1327 C1326 1.391 . S
C537 C17 1.512 . S
C543 C512 1.523 . S
C557 C50 1.513 . S
C563 C413 1.522 . S
C577 C446 1.519 . S
C583 C83 1.515 . S
C597 C116 1.521 . S
C603 C479 1.513 . S
C617 C314 1.516 . S
C623 C149 1.519 . S
C637 C347 1.511 . S
C643 C182 1.523 . S
C657 C380 1.521 . S
C663 C215 1.513 . S
C677 C281 1.518 . S
C683 C248 1.517 . S
C697 C8 1.352 . S
C703 C239 1.363 . S
C717 C41 1.364 . S
C723 C140 1.347 . S
C737 C74 1.361 . S
C743 C173 1.346 . S
C757 C107 1.346 . S
C763 C206 1.359 . S
C777 C503 1.346 . S
C783 C272 1.362 . S
C797 C404 1.362 . S
C803 C305 1.346 . S
C817 C437 1.350 . S
C823 C338 1.354 . S
C837 C371 1.363 . S
C843 C470 1.346 . S
C857 C28 1.015 . S
C863 C160 1.015 . S
C877 C193 1.016 . S
C883 C61 1.012 . S
C897 C226 1.016 . S
C903 C94 1.012 . S
C917 C127 1.008 . S
C923 C259 1.010 . S
C937 C424 1.016 . S
C943 C292 1.014 . S
C957 C325 1.015 . S
C963 C457 1.010 . S
C977 C358 1.016 . S
C983 C490 1.015 . S
C997 C523 1.010 . S
C1003 C391 1.008 . S
C1017 N14 1.362 . S
C1023 N5 1.366 . S
C1037 N38 1.362 . S
C1043 N47 1.357 . S
C1057 N80 1.370 . S
C1063 N71 1.372 . S
C1077 N104 1.372 . S
C1083 N113 1.369 . S
C1097 N146 1.364 . S
C1103 N137 1.368 . S
C1117 N179 1.357 . S
C1123 N170 1.362 . S
C1137 N212 1.372 . S
C1143 N203 1.376 . S
C1157 N245 1.371 . S
C1163 N236 1.374 . S
C1177 N269 1.370 . S
C1183 N278 1.365 . S
C1197 N302 1.373 . S
C1203 N311 1.370 . S
C1217 N335 1.367 . S
C1223 N344 1.363 . S
C1237 N368 1.376 . S
C1243 N377 1.372 . S
C1257 N410 1.373 . S
C1263 N401 1.376 . S
C1277 N443 1.362 . S
C1283 N434 1.366 . S
C1297 N467 1.371 . S
C1303 N476 1.366 . S
C1317 N500 1.371 . S
C1323 N509 1.368 . S
