# Generated by pormake.
# Topology snk, (6)-cn, num edge types: 1
# Building blocks:
#     Node 0, Type 0, BuildingBlock: BETGAK_clean_sbu_0, # of connection points: 6
#     Node 1, Type 0, BuildingBlock: BETGAK_clean_sbu_0, # of connection points: 6
#     Node 2, Type 0, BuildingBlock: BETGAK_clean_sbu_0, # of connection points: 6
#     Node 3, Type 0, BuildingBlock: BETGAK_clean_sbu_0, # of connection points: 6
#     Node 4, Type 0, BuildingBlock: BETGAK_clean_sbu_0, # of connection points: 6
#     Node 5, Type 0, BuildingBlock: BETGAK_clean_sbu_0, # of connection points: 6
#     Node 6, Type 0, BuildingBlock: BETGAK_clean_sbu_0, # of connection points: 6
#     Node 7, Type 0, BuildingBlock: BETGAK_clean_sbu_0, # of connection points: 6
#     Edge 8, Type (0, 0), BuildingBlock: MIFKUJ_clean_linker_0, # of connection points: 2
#     Edge 9, Type (0, 0), BuildingBlock: MIFKUJ_clean_linker_0, # of connection points: 2
#     Edge 10, Type (0, 0), BuildingBlock: MIFKUJ_clean_linker_0, # of connection points: 2
#     Edge 11, Type (0, 0), BuildingBlock: MIFKUJ_clean_linker_0, # of connection points: 2
#     Edge 12, Type (0, 0), BuildingBlock: MIFKUJ_clean_linker_0, # of connection points: 2
#     Edge 13, Type (0, 0), BuildingBlock: MIFKUJ_clean_linker_0, # of connection points: 2
#     Edge 14, Type (0, 0), BuildingBlock: MIFKUJ_clean_linker_0, # of connection points: 2
#     Edge 15, Type (0, 0), BuildingBlock: MIFKUJ_clean_linker_0, # of connection points: 2
#     Edge 16, Type (0, 0), BuildingBlock: MIFKUJ_clean_linker_0, # of connection points: 2
#     Edge 17, Type (0, 0), BuildingBlock: MIFKUJ_clean_linker_0, # of connection points: 2
#     Edge 18, Type (0, 0), BuildingBlock: MIFKUJ_clean_linker_0, # of connection points: 2
#     Edge 19, Type (0, 0), BuildingBlock: MIFKUJ_clean_linker_0, # of connection points: 2
#     Edge 20, Type (0, 0), BuildingBlock: MIFKUJ_clean_linker_0, # of connection points: 2
#     Edge 21, Type (0, 0), BuildingBlock: MIFKUJ_clean_linker_0, # of connection points: 2
#     Edge 22, Type (0, 0), BuildingBlock: MIFKUJ_clean_linker_0, # of connection points: 2
#     Edge 23, Type (0, 0), BuildingBlock: MIFKUJ_clean_linker_0, # of connection points: 2
#     Edge 24, Type (0, 0), BuildingBlock: MIFKUJ_clean_linker_0, # of connection points: 2
#     Edge 25, Type (0, 0), BuildingBlock: MIFKUJ_clean_linker_0, # of connection points: 2
#     Edge 26, Type (0, 0), BuildingBlock: MIFKUJ_clean_linker_0, # of connection points: 2
#     Edge 27, Type (0, 0), BuildingBlock: MIFKUJ_clean_linker_0, # of connection points: 2
#     Edge 28, Type (0, 0), BuildingBlock: MIFKUJ_clean_linker_0, # of connection points: 2
#     Edge 29, Type (0, 0), BuildingBlock: MIFKUJ_clean_linker_0, # of connection points: 2
#     Edge 30, Type (0, 0), BuildingBlock: MIFKUJ_clean_linker_0, # of connection points: 2
#     Edge 31, Type (0, 0), BuildingBlock: MIFKUJ_clean_linker_0, # of connection points: 2
# Relax obj value: 0.079
# Max RMSD: 0.134
# Mean RMSD: 0.116
data_MOF--net-snk--node1-BETGAK_clean_sbu_0--edge1-MIFKUJ_clean_linker_0
_symmetry_space_group_name_H-M    P1
_symmetry_Int_Tables_number       1
_symmetry_cell_setting            triclinic
loop_
_symmetry_equiv_pos_as_xyz
'x, y, z'
_cell_length_a     50.115073
_cell_length_b     49.873177
_cell_length_c     29.974368
_cell_angle_alpha  84.482402
_cell_angle_beta   95.877719
_cell_angle_gamma 89.239312
loop_
_atom_site_label
_atom_site_type_symbol
_atom_site_fract_x
_atom_site_fract_y
_atom_site_fract_z
_atom_type_partial_charge
La0 La 0.99581 0.01651 0.49693 0.0
La1 La 0.02214 0.03101 0.58709 0.0
C2 C 0.97329 0.01614 0.41759 0.0
C3 C 0.98025 0.01656 0.37075 0.0
C4 C 0.96666 0.99948 0.34207 0.0
C5 C 0.97169 1.00003 0.29697 0.0
C6 C 0.99034 0.01788 0.27922 0.0
C7 C 1.00441 0.03462 0.3084 0.0
C8 C 0.9995 0.03389 0.35378 0.0
C9 C 0.03328 0.98257 0.53754 0.0
C10 C 0.04695 0.05463 0.50083 0.0
C11 C 0.04507 0.031 0.66629 0.0
C12 C 0.03903 0.02893 0.71377 0.0
C13 C 0.05221 0.046 0.74294 0.0
C14 C 0.04774 0.04434 0.78839 0.0
C15 C 0.03 0.02543 0.80599 0.0
C16 C 0.01651 1.00848 0.77647 0.0
C17 C 0.02097 1.01022 0.73079 0.0
C18 C 0.98481 0.06513 0.54621 0.0
C19 C 0.97124 0.99253 0.5827 0.0
O20 O 0.98046 0.99439 0.44423 0.0
O21 O 0.97699 0.03808 0.43805 0.0
O22 O 0.01277 0.97547 0.512 0.0
O23 O 0.03348 1.00771 0.53631 0.0
O24 O 0.02493 0.04714 0.47712 0.0
O25 O 0.05235 0.04633 0.54424 0.0
O26 O 0.03622 0.05277 0.64107 0.0
O27 O 0.04248 1.00942 0.64462 0.0
O28 O 1.00547 0.07216 0.57156 0.0
O29 O 0.98455 0.03995 0.54763 0.0
O30 O 0.9933 0.99992 0.60647 0.0
O31 O 0.96557 1.00143 0.53963 0.0
H32 H 0.95187 0.98581 0.3545 0.0
H33 H 0.96088 0.9864 0.276 0.0
H34 H 0.01877 0.04878 0.29598 0.0
H35 H 1.01035 0.04723 0.37527 0.0
H36 H 0.06614 0.06067 0.73053 0.0
H37 H 0.05809 0.05809 0.80968 0.0
H38 H 1.00286 0.99354 0.78882 0.0
H39 H 0.01049 0.99682 0.70896 0.0
La40 La 0.25791 0.74757 0.79362 0.0
La41 La 0.2747 0.76805 0.70151 0.0
C42 C 0.25058 0.72354 0.8691 0.0
C43 C 0.24904 0.73062 0.9157 0.0
C44 C 0.22771 0.72123 0.93928 0.0
C45 C 0.22628 0.72667 0.98395 0.0
C46 C 0.24633 0.74149 1.00641 0.0
C47 C 0.26748 0.7513 0.98231 0.0
C48 C 0.26881 0.74598 0.93749 0.0
C49 C 0.23338 0.79259 0.75625 0.0
C50 C 0.29799 0.7952 0.78597 0.0
C51 C 0.28247 0.78332 0.62119 0.0
C52 C 0.27199 0.78448 0.57325 0.0
C53 C 0.28753 0.79709 0.54146 0.0
C54 C 0.28065 0.79571 0.49542 0.0
C55 C 0.25782 0.78178 0.47982 0.0
C56 C 0.24174 0.76978 0.51195 0.0
C57 C 0.24885 0.77101 0.55832 0.0
C58 C 0.30893 0.73507 0.7534 0.0
C59 C 0.23188 0.72164 0.70772 0.0
O60 O 0.23094 0.73259 0.83886 0.0
O61 O 0.27408 0.72541 0.85345 0.0
O62 O 0.23838 0.78638 0.79921 0.0
O63 O 0.24007 0.773 0.73604 0.0
O64 O 0.29175 0.77313 0.81059 0.0
O65 O 0.28913 0.79994 0.74262 0.0
O66 O 0.28916 0.75938 0.64137 0.0
O67 O 0.27127 0.79876 0.64742 0.0
O68 O 0.31586 0.75532 0.72738 0.0
O69 O 0.28389 0.73347 0.74891 0.0
O70 O 0.24249 0.74088 0.68188 0.0
O71 O 0.23713 0.71898 0.75217 0.0
H72 H 0.21215 0.70948 0.92317 0.0
H73 H 0.20934 0.71927 1.00079 0.0
H74 H 0.2835 0.76248 0.99837 0.0
H75 H 0.28554 0.75356 0.92021 0.0
H76 H 0.30571 0.80724 0.55234 0.0
H77 H 0.29394 0.80471 0.47223 0.0
H78 H 0.22385 0.75916 0.50138 0.0
H79 H 0.23669 0.76095 0.58242 0.0
La80 La 0.51939 0.99433 0.0634 0.0
La81 La 0.49888 0.01879 0.96978 0.0
C82 C 0.53888 0.9862 0.14491 0.0
C83 C 0.53296 0.99009 0.19115 0.0
C84 C 0.54177 0.9702 0.22598 0.0
C85 C 0.53792 0.97357 0.27063 0.0
C86 C 0.52514 0.99697 0.28158 0.0
C87 C 0.51584 0.01677 0.24645 0.0
C88 C 0.5198 0.0134 0.2016 0.0
C89 C 0.48325 0.96613 0.01913 0.0
C90 C 0.47082 0.038 0.05004 0.0
C91 C 0.4791 0.02672 0.8884 0.0
C92 C 0.48531 0.02384 0.842 0.0
C93 C 0.47439 0.0429 0.80734 0.0
C94 C 0.47857 0.0403 0.76257 0.0
C95 C 0.49374 0.01846 0.7513 0.0
C96 C 0.50519 0.99961 0.78633 0.0
C97 C 0.50095 1.00223 0.8313 0.0
C98 C 0.53482 0.04713 1.01405 0.0
C99 C 0.54796 0.97545 0.98345 0.0
O100 O 0.52449 0.96871 0.12383 0.0
O101 O 0.54328 1.0077 0.11826 0.0
O102 O 0.50276 0.95566 0.04738 0.0
O103 O 0.48337 0.9914 0.0189 0.0
O104 O 0.49033 0.02516 0.07748 0.0
O105 O 0.46801 0.03538 1.00623 0.0
O106 O 0.49236 0.04478 0.90991 0.0
O107 O 0.47604 1.00463 0.91453 0.0
O108 O 0.51544 0.05753 0.98549 0.0
O109 O 0.53477 0.02185 1.01428 0.0
O110 O 0.52864 0.9885 0.95576 0.0
O111 O 0.55032 0.97765 0.02737 0.0
H112 H 0.55194 0.95207 0.21867 0.0
H113 H 0.54493 0.95773 0.29663 0.0
H114 H 0.50608 0.03511 0.25373 0.0
H115 H 0.51292 0.02911 0.17529 0.0
H116 H 0.46233 0.05976 0.81488 0.0
H117 H 0.46989 0.05551 0.73675 0.0
H118 H 0.51676 0.98239 0.77893 0.0
H119 H 0.50944 0.98717 0.8575 0.0
La120 La 0.24956 0.26881 0.22117 0.0
La121 La 0.27626 0.25033 0.31342 0.0
C122 C 0.23907 0.28636 0.13919 0.0
C123 C 0.24356 0.28019 0.09323 0.0
C124 C 0.22144 0.28087 0.06046 0.0
C125 C 0.22485 0.27711 1.0158 0.0
C126 C 0.25059 0.27281 1.00258 0.0
C127 C 0.27277 0.27147 0.03578 0.0
C128 C 0.26929 0.27509 0.08071 0.0
C129 C 0.22183 0.23458 0.26957 0.0
C130 C 0.29297 0.21989 0.23428 0.0
C131 C 0.28851 0.23417 0.39565 0.0
C132 C 0.2839 0.24026 0.44161 0.0
C133 C 0.30615 0.2412 0.47378 0.0
C134 C 0.30275 0.24488 0.51849 0.0
C135 C 0.27693 0.24755 0.53229 0.0
C136 C 0.25458 0.24729 0.4997 0.0
C137 C 0.25802 0.24365 0.45476 0.0
C138 C 0.30358 0.28415 0.26367 0.0
C139 C 0.23209 0.29849 0.30047 0.0
O140 O 0.22365 0.27009 0.1612 0.0
O141 O 0.25959 0.29397 0.16528 0.0
O142 O 0.21133 0.25396 0.24104 0.0
O143 O 0.24691 0.23372 0.26814 0.0
O144 O 0.27981 0.2392 0.20673 0.0
O145 O 0.29152 0.21807 0.27833 0.0
O146 O 0.30248 0.25144 0.37265 0.0
O147 O 0.26851 0.2249 0.37045 0.0
O148 O 0.31427 0.26423 0.29075 0.0
O149 O 0.27871 0.28534 0.26665 0.0
O150 O 0.24524 0.27914 0.3279 0.0
O151 O 0.23386 0.30065 0.25654 0.0
H152 H 0.2014 0.28469 0.06933 0.0
H153 H 0.20722 0.27764 0.99158 0.0
H154 H 0.2929 0.2684 0.02688 0.0
H155 H 0.28675 0.27448 0.10531 0.0
H156 H 0.3263 0.23867 0.46444 0.0
H157 H 0.32044 0.24554 0.54231 0.0
H158 H 0.2344 0.24913 0.50912 0.0
H159 H 0.24047 0.24303 0.43061 0.0
La160 La 0.74719 0.24504 0.32505 0.0
La161 La 0.75528 0.27368 0.23275 0.0
C162 C 0.75278 0.22163 0.40437 0.0
C163 C 0.75571 0.22848 0.45158 0.0
C164 C 0.74523 0.25273 0.46358 0.0
C165 C 0.74604 0.2576 0.50906 0.0
C166 C 0.75741 0.23835 0.54356 0.0
C167 C 0.76867 0.21449 0.53105 0.0
C168 C 0.76775 0.20962 0.48565 0.0
C169 C 0.71075 0.28218 0.29174 0.0
C170 C 0.78355 0.29754 0.31704 0.0
C171 C 0.74973 0.29698 0.15335 0.0
C172 C 0.74684 0.28988 0.10624 0.0
C173 C 0.75766 0.26569 0.09455 0.0
C174 C 0.75705 0.26067 0.04915 0.0
C175 C 0.74559 0.27973 1.01442 0.0
C176 C 0.73402 0.30352 0.0266 0.0
C177 C 0.73469 0.30852 0.07192 0.0
C178 C 0.79203 0.23702 0.26624 0.0
C179 C 0.71943 0.22075 0.24109 0.0
O180 O 0.7296 0.22771 0.38112 0.0
O181 O 0.77283 0.22697 0.38042 0.0
O182 O 0.70569 0.26088 0.31731 0.0
O183 O 0.73544 0.28305 0.2887 0.0
O184 O 0.77804 0.27479 0.3408 0.0
O185 O 0.77227 0.30375 0.27521 0.0
O186 O 0.77288 0.29094 0.17667 0.0
O187 O 0.72966 0.29181 0.17737 0.0
O188 O 0.79679 0.25819 0.24015 0.0
O189 O 0.76733 0.23587 0.26926 0.0
O190 O 0.7245 0.24365 0.21731 0.0
O191 O 0.73086 0.21466 0.28278 0.0
H192 H 0.73582 0.26762 0.43786 0.0
H193 H 0.73697 0.2761 0.51718 0.0
H194 H 0.77811 0.19943 0.55639 0.0
H195 H 0.77611 0.19084 0.47718 0.0
H196 H 0.76718 0.25097 0.12043 0.0
H197 H 0.76635 0.24223 0.04127 0.0
H198 H 0.72453 0.31844 1.00106 0.0
H199 H 0.72615 0.32729 0.08013 0.0
La200 La 0.75293 0.7707 0.72423 0.0
La201 La 0.77657 0.74987 0.81665 0.0
C202 C 0.74507 0.78824 0.64189 0.0
C203 C 0.75046 0.77996 0.59734 0.0
C204 C 0.73479 0.76056 0.57648 0.0
C205 C 0.73834 0.75486 0.53263 0.0
C206 C 0.75761 0.76842 0.50856 0.0
C207 C 0.77381 0.78725 0.5299 0.0
C208 C 0.77018 0.79304 0.57368 0.0
C209 C 0.7248 0.734 0.76668 0.0
C210 C 0.79703 0.72251 0.73741 0.0
C211 C 0.78322 0.73071 0.89829 0.0
C212 C 0.77917 0.73825 0.94389 0.0
C213 C 0.79884 0.75232 0.96847 0.0
C214 C 0.79639 0.75669 1.0133 0.0
C215 C 0.77439 0.74676 0.03499 0.0
C216 C 0.75437 0.73329 1.00994 0.0
C217 C 0.75669 0.72919 0.96494 0.0
C218 C 0.80494 0.78704 0.77534 0.0
C219 C 0.73278 0.79872 0.80303 0.0
O220 O 0.72763 0.77442 0.66362 0.0
O221 O 0.76574 0.79452 0.66893 0.0
O222 O 0.71436 0.75445 0.74059 0.0
O223 O 0.74991 0.7339 0.76668 0.0
O224 O 0.78499 0.74281 0.71075 0.0
O225 O 0.79326 0.71875 0.78059 0.0
O226 O 0.80176 0.74322 0.87721 0.0
O227 O 0.76179 0.7269 0.87098 0.0
O228 O 0.81515 0.76717 0.80311 0.0
O229 O 0.77973 0.78671 0.77416 0.0
O230 O 0.74539 0.77892 0.83027 0.0
O231 O 0.73592 0.80185 0.75955 0.0
H232 H 0.71935 0.75013 0.59359 0.0
H233 H 0.72577 0.74002 0.51735 0.0
H234 H 0.78863 0.79827 0.51213 0.0
H235 H 0.78236 0.80829 0.58862 0.0
H236 H 0.81649 0.75953 0.95344 0.0
H237 H 0.81195 0.76764 0.03108 0.0
H238 H 0.73728 0.72506 0.02545 0.0
H239 H 0.74119 0.71825 0.94698 0.0
La240 La 0.50076 0.50086 0.95979 0.0
La241 La 0.52698 0.50983 0.05426 0.0
C242 C 0.47797 0.50626 0.88003 0.0
C243 C 0.48488 0.50933 0.83318 0.0
C244 C 0.51099 0.50401 0.82271 0.0
C245 C 0.51645 0.50488 0.7776 0.0
C246 C 0.49594 0.51132 0.74222 0.0
C247 C 0.47001 0.5173 0.75311 0.0
C248 C 0.46454 0.51616 0.7981 0.0
C249 C 0.53765 0.46499 0.99581 0.0
C250 C 0.55228 0.53835 0.97122 0.0
C251 C 0.55011 0.50327 0.1337 0.0
C252 C 0.54305 0.49985 0.18048 0.0
C253 C 0.51761 0.50753 0.19127 0.0
C254 C 0.51222 0.50644 0.23641 0.0
C255 C 0.53213 0.49756 0.2716 0.0
C256 C 0.55731 0.48912 0.26033 0.0
C257 C 0.56268 0.49029 0.21527 0.0
C258 C 0.48999 0.54572 0.01935 0.0
C259 C 0.47479 0.47317 0.04262 0.0
O260 O 0.48438 0.48302 0.90297 0.0
O261 O 0.48309 0.52646 0.90422 0.0
O262 O 0.51749 0.4596 0.96783 0.0
O263 O 0.53779 0.48982 0.99922 0.0
O264 O 0.53106 0.53119 0.94511 0.0
O265 O 0.5569 0.52875 1.01422 0.0
O266 O 0.54417 0.52681 0.1114 0.0
O267 O 0.54462 0.48345 0.10883 0.0
O268 O 0.50968 0.55072 0.04858 0.0
O269 O 0.48997 0.52099 1.01484 0.0
O270 O 0.49611 0.48005 0.06883 0.0
O271 O 0.47036 0.48267 0.99956 0.0
H272 H 0.52699 0.49869 0.84936 0.0
H273 H 0.53668 0.50043 0.77039 0.0
H274 H 0.45369 0.52208 0.72681 0.0
H275 H 0.44424 0.52022 0.80551 0.0
H276 H 0.50212 0.51486 0.16486 0.0
H277 H 0.4925 0.5127 0.24375 0.0
H278 H 0.57322 0.48245 0.2864 0.0
H279 H 0.58246 0.48433 0.20764 0.0
La280 La 0.01995 0.49827 0.55746 0.0
La281 La 0.99838 0.51999 0.46297 0.0
C282 C 0.0405 0.4942 0.63848 0.0
C283 C 0.03448 0.50022 0.68369 0.0
C284 C 1.00893 0.49656 0.69843 0.0
C285 C 1.00463 0.50063 0.74283 0.0
C286 C 0.02579 0.50846 0.7732 0.0
C287 C 0.05101 0.51309 0.75751 0.0
C288 C 0.05528 0.50895 0.71334 0.0
C289 C 0.98306 0.46877 0.51799 0.0
C290 C 0.97107 0.54152 0.54249 0.0
C291 C 0.97731 0.52451 0.38218 0.0
C292 C 0.98348 0.52153 0.33584 0.0
C293 C 1.00908 0.52641 0.32209 0.0
C294 C 0.01357 0.52534 0.27684 0.0
C295 C 0.99253 0.51937 0.24463 0.0
C296 C 0.96717 0.51375 0.2591 0.0
C297 C 0.96273 0.51487 0.30415 0.0
C298 C 0.03572 0.54934 0.50179 0.0
C299 C 0.04759 0.47664 0.47853 0.0
O300 O 0.02706 0.47507 0.61999 0.0
O301 O 0.0436 0.51491 0.60943 0.0
O302 O 1.00267 0.45911 0.54688 0.0
O303 O 0.98338 0.49418 0.5149 0.0
O304 O 0.99035 0.52875 0.57038 0.0
O305 O 0.96829 0.53861 0.4988 0.0
O306 O 0.98861 0.54427 0.40221 0.0
O307 O 0.97695 0.50245 0.40946 0.0
O308 O 0.01641 0.55899 0.47235 0.0
O309 O 0.03497 0.52398 0.5053 0.0
O310 O 0.02827 0.4894 0.45041 0.0
O311 O 0.05018 0.47973 0.52216 0.0
H312 H 0.99248 0.49003 0.67599 0.0
H313 H 0.98498 0.49679 0.75374 0.0
H314 H 0.0676 0.51972 0.77952 0.0
H315 H 0.07507 0.51215 0.7025 0.0
H316 H 0.02543 0.53153 0.34608 0.0
H317 H 0.0333 0.5299 0.2669 0.0
H318 H 0.95065 0.50852 0.23555 0.0
H319 H 0.94286 0.51091 0.31415 0.0
H320 H 0.09995 0.06185 0.52866 0.0
H321 H 0.13185 0.09013 0.49054 0.0
H322 H 0.06972 0.11509 0.38344 0.0
H323 H 0.03812 0.0859 0.42045 0.0
H324 H 0.11253 0.10785 0.34743 0.0
H325 H 0.09296 0.15563 0.4717 0.0
H326 H 0.08878 0.16237 0.55114 0.0
H327 H 0.17314 0.1457 0.58431 0.0
H328 H 0.17775 0.1385 0.50513 0.0
H329 H 0.16762 0.23319 0.26776 0.0
H330 H 0.14072 0.20021 0.30798 0.0
H331 H 0.21289 0.15808 0.36936 0.0
H332 H 0.24003 0.19041 0.32738 0.0
H333 H 0.16819 0.17263 0.4294 0.0
H334 H 0.18591 0.12738 0.2995 0.0
H335 H 0.18754 0.12455 0.21815 0.0
H336 H 0.10273 0.14123 0.1942 0.0
H337 H 0.10068 0.14461 0.27538 0.0
C338 C 0.09309 0.07336 0.49697 0.0
C339 C 0.06645 0.07167 0.47769 0.0
C340 C 0.11134 0.08968 0.47526 0.0
C341 C 0.10321 0.10527 0.43435 0.0
C342 C 0.07663 0.10335 0.4149 0.0
C343 C 0.05851 0.08666 0.43618 0.0
C344 C 0.1223 0.12345 0.41163 0.0
C345 C 0.12446 0.12213 0.36548 0.0
C346 C 0.13836 0.14196 0.43495 0.0
C347 C 0.13564 0.14622 0.48259 0.0
C348 C 0.11058 0.15318 0.49601 0.0
C349 C 0.10814 0.15712 0.54098 0.0
C350 C 0.13066 0.15438 0.57278 0.0
C351 C 0.1557 0.14776 0.55965 0.0
C352 C 0.15824 0.14376 0.51473 0.0
C353 C 0.17782 0.21689 0.28974 0.0
C354 C 0.20598 0.21457 0.29479 0.0
C355 C 0.1624 0.19809 0.31271 0.0
C356 C 0.17482 0.17679 0.34172 0.0
C357 C 0.20295 0.1745 0.34731 0.0
C358 C 0.21842 0.19304 0.32351 0.0
C359 C 0.15813 0.15691 0.36566 0.0
C360 C 0.15637 0.15807 0.41181 0.0
C361 C 0.14204 0.13866 0.34223 0.0
C362 C 0.1432 0.13653 0.29345 0.0
C363 C 0.16766 0.13072 0.27683 0.0
C364 C 0.16865 0.12896 0.23077 0.0
C365 C 0.14527 0.13278 0.201 0.0
C366 C 0.12083 0.13831 0.21728 0.0
C367 C 0.11974 0.14013 0.26332 0.0
H368 H 0.14607 0.1314 0.16535 0.0
H369 H 0.12873 0.15744 0.60758 0.0
H370 H 0.08241 0.99559 0.57527 0.0
H371 H 0.1176 0.96475 0.61393 0.0
H372 H 0.06512 0.89769 0.59671 0.0
H373 H 0.03034 0.92841 0.55636 0.0
H374 H 0.12319 0.9327 0.68669 0.0
H375 H 0.09966 0.8424 0.58064 0.0
H376 H 0.08175 0.83456 0.5033 0.0
H377 H 0.10591 0.91334 0.45436 0.0
H378 H 0.12427 0.92151 0.53125 0.0
H379 H 0.19532 0.81789 0.79652 0.0
H380 H 0.16177 0.85134 0.76101 0.0
H381 H 0.19714 0.85097 0.63545 0.0
H382 H 0.22862 0.81549 0.66993 0.0
H383 H 0.14907 0.85184 0.61543 0.0
H384 H 0.20332 0.90485 0.71265 0.0
H385 H 0.22666 0.91679 0.7843 0.0
H386 H 0.15143 0.92031 0.84064 0.0
H387 H 0.12768 0.90805 0.76952 0.0
C388 C 0.07848 0.97424 0.57974 0.0
C389 C 0.05392 0.96421 0.56245 0.0
C390 C 0.0985 0.95668 0.60199 0.0
C391 C 0.09416 0.92886 0.6076 0.0
C392 C 0.06917 0.919 0.59181 0.0
C393 C 0.0493 0.93651 0.56891 0.0
C394 C 0.11598 0.91012 0.62906 0.0
C395 C 0.12896 0.91504 0.67113 0.0
C396 C 0.12395 0.88748 0.60822 0.0
C397 C 0.11307 0.88265 0.5618 0.0
C398 C 0.10121 0.85801 0.55335 0.0
C399 C 0.09098 0.85352 0.50959 0.0
C400 C 0.09261 0.87347 0.47397 0.0
C401 C 0.10456 0.89794 0.482 0.0
C402 C 0.11485 0.90252 0.52567 0.0
C403 C 0.19595 0.82514 0.7614 0.0
C404 C 0.21473 0.81439 0.73591 0.0
C405 C 0.17691 0.84445 0.74117 0.0
C406 C 0.17714 0.85426 0.69563 0.0
C407 C 0.19639 0.84381 0.67058 0.0
C408 C 0.21464 0.82372 0.69034 0.0
C409 C 0.15661 0.87433 0.6733 0.0
C410 C 0.14361 0.86957 0.63109 0.0
C411 C 0.14954 0.89777 0.69314 0.0
C412 C 0.16376 0.90531 0.73587 0.0
C413 C 0.19178 0.90802 0.74041 0.0
C414 C 0.20507 0.91486 0.78092 0.0
C415 C 0.19054 0.91925 0.81703 0.0
C416 C 0.16267 0.91689 0.81266 0.0
C417 C 0.14928 0.91002 0.77224 0.0
H418 H 0.20087 0.92453 0.84837 0.0
H419 H 0.08467 0.86995 0.44013 0.0
H420 H 0.33804 0.78338 0.85335 0.0
H421 H 0.36798 0.8144 0.89058 0.0
H422 H 0.32839 0.8815 0.80665 0.0
H423 H 0.2994 0.85007 0.76722 0.0
H424 H 0.37792 0.89141 0.8163 0.0
H425 H 0.3172 0.86335 0.92295 0.0
H426 H 0.29195 0.83114 0.96918 0.0
H427 H 0.36578 0.79711 0.0381 0.0
H428 H 0.3915 0.82885 0.99185 0.0
H429 H 0.43788 0.9848 0.96531 0.0
H430 H 0.40472 0.9581 0.92378 0.0
H431 H 0.44908 0.88527 0.97656 0.0
H432 H 0.48242 0.91181 1.01728 0.0
H433 H 0.39393 0.88179 0.9832 0.0
H434 H 0.45359 0.91114 0.87086 0.0
H435 H 0.47652 0.94508 0.82401 0.0
H436 H 0.40042 0.98017 0.76708 0.0
H437 H 0.37703 0.94662 0.81402 0.0
C438 C 0.33572 0.80476 0.8428 0.0
C439 C 0.31624 0.81435 0.80764 0.0
C440 C 0.35275 0.82256 0.86438 0.0
C441 C 0.35006 0.85053 0.85256 0.0
C442 C 0.33086 0.86009 0.81675 0.0
C443 C 0.31426 0.84215 0.79424 0.0
C444 C 0.36742 0.86956 0.87744 0.0
C445 C 0.38098 0.88954 0.85282 0.0
C446 C 0.37171 0.86724 0.92523 0.0
C447 C 0.35629 0.8484 0.9537 0.0
C448 C 0.32806 0.84892 0.94782 0.0
C449 C 0.31366 0.83075 0.97403 0.0
C450 C 0.32726 0.81208 1.00652 0.0
C451 C 0.35528 0.81158 1.01292 0.0
C452 C 0.36978 0.82969 0.98676 0.0
C453 C 0.44066 0.96313 0.96764 0.0
C454 C 0.46289 0.95041 0.99415 0.0
C455 C 0.42168 0.94789 0.94402 0.0
C456 C 0.42449 0.91967 0.94685 0.0
C457 C 0.44648 0.90699 0.97387 0.0
C458 C 0.46554 0.92219 0.99706 0.0
C459 C 0.40459 0.90316 0.92197 0.0
C460 C 0.39056 0.88371 0.94668 0.0
C461 C 0.39944 0.90637 0.87442 0.0
C462 C 0.41357 0.92653 0.8463 0.0
C463 C 0.44175 0.92624 0.84866 0.0
C464 C 0.45483 0.94539 0.82203 0.0
C465 C 0.43992 0.96481 0.79267 0.0
C466 C 0.41192 0.96513 0.78987 0.0
C467 C 0.39875 0.94604 0.81645 0.0
H468 H 0.45001 0.97954 0.7719 0.0
H469 H 0.31609 0.79805 0.02682 0.0
H470 H 0.43338 0.07405 1.00447 0.0
H471 H 0.40297 0.10417 0.03616 0.0
H472 H 0.43407 0.07221 0.17043 0.0
H473 H 0.4646 0.04206 0.1391 0.0
H474 H 0.37821 0.07749 0.15994 0.0
H475 H 0.45409 0.13106 0.13011 0.0
H476 H 0.48791 0.15108 0.08356 0.0
H477 H 0.42566 0.19333 0.99379 0.0
H478 H 0.39138 0.17308 0.03922 0.0
H479 H 0.32474 0.17869 0.27971 0.0
H480 H 0.3542 0.14751 0.24859 0.0
H481 H 0.32983 0.18495 0.1146 0.0
H482 H 0.30068 0.21658 0.14553 0.0
H483 H 0.38249 0.17653 0.12512 0.0
H484 H 0.30652 0.1225 0.15377 0.0
H485 H 0.27246 0.10187 0.19921 0.0
H486 H 0.33452 0.06036 0.29047 0.0
H487 H 0.36899 0.08105 0.24589 0.0
C488 C 0.4337 0.07329 0.04075 0.0
C489 C 0.45154 0.0556 0.06917 0.0
C490 C 0.41634 0.09063 0.05884 0.0
C491 C 0.41632 0.09062 0.10572 0.0
C492 C 0.4337 0.0726 0.13417 0.0
C493 C 0.45124 0.05543 0.11614 0.0
C494 C 0.39844 0.10964 0.12503 0.0
C495 C 0.37936 0.09916 0.15279 0.0
C496 C 0.39953 0.13792 0.115 0.0
C497 C 0.42013 0.15033 0.08784 0.0
C498 C 0.44758 0.14444 0.10024 0.0
C499 C 0.46685 0.15586 0.0741 0.0
C500 C 0.45894 0.17345 0.03574 0.0
C501 C 0.43175 0.17968 0.02348 0.0
C502 C 0.41239 0.16823 0.04941 0.0
C503 C 0.32548 0.18025 0.24357 0.0
C504 C 0.31014 0.20014 0.2152 0.0
C505 C 0.34234 0.16229 0.22576 0.0
C506 C 0.3441 0.16356 0.17908 0.0
C507 C 0.32887 0.18346 0.15069 0.0
C508 C 0.31207 0.2015 0.16849 0.0
C509 C 0.36207 0.14442 0.15995 0.0
C510 C 0.38124 0.15487 0.13225 0.0
C511 C 0.36103 0.1161 0.16997 0.0
C512 C 0.34034 0.10354 0.19673 0.0
C513 C 0.31292 0.10913 0.18371 0.0
C514 C 0.29354 0.0974 0.20929 0.0
C515 C 0.30133 0.07987 0.24777 0.0
C516 C 0.32852 0.07397 0.26069 0.0
C517 C 0.34798 0.08568 0.23526 0.0
H518 H 0.28629 0.07081 0.26752 0.0
H519 H 0.47389 0.18228 1.01556 0.0
H520 H 0.9818 0.95869 0.6601 0.0
H521 H 0.95222 0.92509 0.69267 0.0
H522 H 0.88903 0.95032 0.58786 0.0
H523 H 0.91863 0.98364 0.55451 0.0
H524 H 0.87338 0.94189 0.68128 0.0
H525 H 0.92003 0.89773 0.5736 0.0
H526 H 0.96085 0.88413 0.54123 0.0
H527 H 0.99028 0.84052 0.66758 0.0
H528 H 0.94981 0.85424 0.70093 0.0
H529 H 0.78673 0.83191 0.71952 0.0
H530 H 0.8136 0.86767 0.68594 0.0
H531 H 0.88568 0.82869 0.75523 0.0
H532 H 0.85904 0.79223 0.78638 0.0
H533 H 0.8966 0.84516 0.67782 0.0
H534 H 0.8541 0.88809 0.78832 0.0
H535 H 0.81746 0.90435 0.82853 0.0
H536 H 0.78407 0.95145 0.70782 0.0
H537 H 0.82034 0.93521 0.66669 0.0
C538 C 0.96152 0.95731 0.64421 0.0
C539 C 0.9526 0.97382 0.60462 0.0
C540 C 0.94468 0.93803 0.6628 0.0
C541 C 0.91847 0.93514 0.64256 0.0
C542 C 0.90917 0.95223 0.60401 0.0
C543 C 0.92616 0.9712 0.58493 0.0
C544 C 0.90118 0.91354 0.66058 0.0
C545 C 0.87816 0.92071 0.68004 0.0
C546 C 0.90796 0.88596 0.66019 0.0
C547 C 0.93201 0.87722 0.63987 0.0
C548 C 0.93529 0.8854 0.59457 0.0
C549 C 0.95835 0.87765 0.57603 0.0
C550 C 0.97818 0.86154 0.60236 0.0
C551 C 0.97493 0.85304 0.64724 0.0
C552 C 0.95192 0.86077 0.66597 0.0
C553 C 0.80833 0.83088 0.72714 0.0
C554 C 0.82078 0.80915 0.75531 0.0
C555 C 0.82371 0.85153 0.70838 0.0
C556 C 0.85181 0.85127 0.7184 0.0
C557 C 0.86413 0.8295 0.74669 0.0
C558 C 0.84884 0.80867 0.76471 0.0
C559 C 0.86852 0.8733 0.69912 0.0
C560 C 0.89155 0.86626 0.6792 0.0
C561 C 0.86205 0.90103 0.7001 0.0
C562 C 0.83978 0.91021 0.72432 0.0
C563 C 0.83878 0.90168 0.77022 0.0
C564 C 0.81812 0.91094 0.7932 0.0
C565 C 0.79847 0.92891 0.77072 0.0
C566 C 0.79932 0.93753 0.72516 0.0
C567 C 0.81992 0.92831 0.702 0.0
H568 H 0.7827 0.9363 0.78868 0.0
H569 H 0.99604 0.85559 0.58797 0.0
H570 H 0.93728 0.05278 0.50179 0.0
H571 H 0.90573 0.08346 0.45362 0.0
H572 H 0.95812 0.1498 0.47739 0.0
H573 H 0.98936 0.11917 0.52683 0.0
H574 H 0.90936 0.16613 0.48017 0.0
H575 H 0.95329 0.1219 0.37464 0.0
H576 H 0.97159 0.08602 0.33475 0.0
H577 H 0.89292 0.05378 0.31137 0.0
H578 H 0.87409 0.08962 0.35102 0.0
H579 H 0.8443 0.2486 0.2873 0.0
H580 H 0.87822 0.22046 0.33594 0.0
H581 H 0.81979 0.15882 0.35562 0.0
H582 H 0.78563 0.18714 0.30782 0.0
H583 H 0.87332 0.14257 0.32881 0.0
H584 H 0.8313 0.19354 0.43459 0.0
H585 H 0.81707 0.23646 0.46042 0.0
H586 H 0.89882 0.26147 0.47454 0.0
H587 H 0.91355 0.21909 0.44732 0.0
C588 C 0.942 0.07392 0.49673 0.0
C589 C 0.96569 0.08368 0.51779 0.0
C590 C 0.92407 0.09141 0.469 0.0
C591 C 0.92976 0.11889 0.46127 0.0
C592 C 0.95333 0.1287 0.48282 0.0
C593 C 0.97115 0.11122 0.51096 0.0
C594 C 0.91088 0.13729 0.43108 0.0
C595 C 0.90176 0.16108 0.44689 0.0
C596 C 0.90095 0.13088 0.38753 0.0
C597 C 0.91233 0.1083 0.36614 0.0
C598 C 0.93994 0.10695 0.36152 0.0
C599 C 0.95039 0.08668 0.33878 0.0
C600 C 0.93343 0.0676 0.3206 0.0
C601 C 0.90602 0.0686 0.32545 0.0
C602 C 0.89543 0.08893 0.34794 0.0
C603 C 0.8388 0.22899 0.30189 0.0
C604 C 0.81253 0.21985 0.29392 0.0
C605 C 0.85807 0.21307 0.32969 0.0
C606 C 0.85133 0.18772 0.34922 0.0
C607 C 0.82521 0.17839 0.34069 0.0
C608 C 0.80582 0.1945 0.31356 0.0
C609 C 0.87158 0.17076 0.3784 0.0
C610 C 0.88096 0.14738 0.36223 0.0
C611 C 0.88231 0.17805 0.42085 0.0
C612 C 0.87352 0.20318 0.43853 0.0
C613 C 0.84625 0.20827 0.4428 0.0
C614 C 0.83808 0.23251 0.45766 0.0
C615 C 0.85702 0.25169 0.46896 0.0
C616 C 0.88418 0.24663 0.46556 0.0
C617 C 0.89245 0.22251 0.4504 0.0
H618 H 0.85065 0.27043 0.48046 0.0
H619 H 0.94145 0.05216 0.30243 0.0
H620 H 0.71771 0.16608 0.26191 0.0
H621 H 0.68706 0.13442 0.22644 0.0
H622 H 0.6485 0.20012 0.13829 0.0
H623 H 0.67948 0.23176 0.1726 0.0
H624 H 0.613 0.16053 0.18744 0.0
H625 H 0.68567 0.16676 0.09132 0.0
H626 H 0.73322 0.16409 0.07735 0.0
H627 H 0.73813 0.08136 0.13316 0.0
H628 H 0.69066 0.08369 0.14808 0.0
H629 H 0.53353 0.10107 0.01926 0.0
H630 H 0.56567 0.12794 0.06143 0.0
H631 H 0.61281 0.05608 0.11024 0.0
H632 H 0.58094 0.02913 0.06653 0.0
H633 H 0.64493 0.09572 0.08774 0.0
H634 H 0.57296 0.08631 0.17835 0.0
H635 H 0.52583 0.08686 0.19511 0.0
H636 H 0.51984 0.17209 0.15677 0.0
H637 H 0.56682 0.172 0.13896 0.0
C638 C 0.70272 0.17377 0.23493 0.0
C639 C 0.70109 0.2014 0.2199 0.0
C640 C 0.68525 0.15566 0.21473 0.0
C641 C 0.6655 0.16495 0.17983 0.0
C642 C 0.66356 0.19256 0.16524 0.0
C643 C 0.68139 0.21057 0.1847 0.0
C644 C 0.64705 0.14588 0.15796 0.0
C645 C 0.61986 0.14651 0.16531 0.0
C646 C 0.65626 0.12694 0.13047 0.0
C647 C 0.68473 0.1255 0.12134 0.0
C648 C 0.69697 0.14809 0.10105 0.0
C649 C 0.72388 0.14662 0.09285 0.0
C650 C 0.73872 0.1226 0.1045 0.0
C651 C 0.72663 0.09997 0.12424 0.0
C652 C 0.69972 0.10135 0.13255 0.0
C653 C 0.55075 0.09097 0.03894 0.0
C654 C 0.55458 0.06296 0.04002 0.0
C655 C 0.56905 0.10634 0.06331 0.0
C656 C 0.59147 0.09404 0.0898 0.0
C657 C 0.59559 0.06605 0.09033 0.0
C658 C 0.5773 0.05063 0.06563 0.0
C659 C 0.61056 0.11062 0.1164 0.0
C660 C 0.63794 0.10953 0.11011 0.0
C661 C 0.60157 0.12881 0.14556 0.0
C662 C 0.57341 0.12911 0.157 0.0
C663 C 0.56156 0.10516 0.17323 0.0
C664 C 0.53487 0.10539 0.18293 0.0
C665 C 0.51985 0.1295 0.17697 0.0
C666 C 0.53152 0.15344 0.1614 0.0
C667 C 0.55819 0.15332 0.15151 0.0
H668 H 0.49918 0.12964 0.18448 0.0
H669 H 0.75956 0.12149 0.09812 0.0
H670 H 0.6998 0.83873 0.75707 0.0
H671 H 0.66903 0.86885 0.78754 0.0
H672 H 0.69402 0.83243 0.92198 0.0
H673 H 0.72438 0.8017 0.89159 0.0
H674 H 0.64174 0.83921 0.91222 0.0
H675 H 0.71504 0.89624 0.88132 0.0
H676 H 0.74822 0.91776 0.83518 0.0
H677 H 0.68469 0.95594 0.74278 0.0
H678 H 0.65108 0.93429 0.78817 0.0
H679 H 0.58593 0.94025 0.02965 0.0
H680 H 0.61743 0.91098 0.99878 0.0
H681 H 0.58641 0.94196 0.86394 0.0
H682 H 0.55487 0.97143 0.89453 0.0
H683 H 0.64158 0.93823 0.87394 0.0
H684 H 0.56835 0.88111 0.90646 0.0
H685 H 0.53566 0.85974 0.95395 0.0
H686 H 0.6 0.82203 0.04504 0.0
H687 H 0.63312 0.84354 0.99844 0.0
C688 C 0.69891 0.83717 0.79317 0.0
C689 C 0.71476 0.81781 0.82182 0.0
C690 C 0.68131 0.85454 0.81063 0.0
C691 C 0.67935 0.85329 0.85726 0.0
C692 C 0.6951 0.8339 0.88592 0.0
C693 C 0.71258 0.81638 0.86845 0.0
C694 C 0.66063 0.87189 0.87602 0.0
C695 C 0.64203 0.86088 0.90433 0.0
C696 C 0.66042 0.90021 0.86509 0.0
C697 C 0.68055 0.91343 0.8379 0.0
C698 C 0.70814 0.90907 0.85099 0.0
C699 C 0.72703 0.92132 0.82497 0.0
C700 C 0.71858 0.93817 0.78595 0.0
C701 C 0.69121 0.94286 0.77297 0.0
C702 C 0.67223 0.93062 0.79886 0.0
C703 C 0.58581 0.94097 0.99341 0.0
C704 C 0.56771 0.9582 0.96463 0.0
C705 C 0.6038 0.92408 0.97578 0.0
C706 C 0.60416 0.92401 0.92897 0.0
C707 C 0.5865 0.94157 0.90016 0.0
C708 C 0.56837 0.95836 0.91775 0.0
C709 C 0.62284 0.90552 0.91016 0.0
C710 C 0.64138 0.91655 0.88183 0.0
C711 C 0.62309 0.87725 0.92126 0.0
C712 C 0.60322 0.86416 0.94919 0.0
C713 C 0.57554 0.86844 0.93681 0.0
C714 C 0.55693 0.85628 0.96354 0.0
C715 C 0.56575 0.83959 1.00255 0.0
C716 C 0.5932 0.83499 1.01485 0.0
C717 C 0.6119 0.84715 0.98828 0.0
H718 H 0.55131 0.83019 0.0232 0.0
H719 H 0.73322 0.94764 0.7658 0.0
H720 H 0.59113 0.56697 1.01546 0.0
H721 H 0.62112 0.59988 0.98275 0.0
H722 H 0.58807 0.58438 0.84924 0.0
H723 H 0.55722 0.55237 0.88181 0.0
H724 H 0.6598 0.59933 0.93454 0.0
H725 H 0.58954 0.63873 0.77489 0.0
H726 H 0.54118 0.64572 0.75072 0.0
H727 H 0.52571 0.6507 0.88797 0.0
H728 H 0.574 0.64407 0.91291 0.0
H729 H 0.73711 0.68053 0.78935 0.0
H730 H 0.70917 0.64657 0.82515 0.0
H731 H 0.65038 0.70859 0.83889 0.0
H732 H 0.67728 0.7419 0.79968 0.0
H733 H 0.62445 0.67062 0.81575 0.0
H734 H 0.69774 0.67299 0.93295 0.0
H735 H 0.74483 0.66997 0.96708 0.0
H736 H 0.75229 0.58951 0.92975 0.0
H737 H 0.70526 0.5919 0.89569 0.0
C738 C 0.59027 0.57053 0.97912 0.0
C739 C 0.57164 0.55712 0.95131 0.0
C740 C 0.60751 0.58935 0.96039 0.0
C741 C 0.60671 0.59508 0.9134 0.0
C742 C 0.58871 0.58097 0.88557 0.0
C743 C 0.57115 0.56249 0.90428 0.0
C744 C 0.62449 0.61593 0.89369 0.0
C745 C 0.65203 0.61497 0.90864 0.0
C746 C 0.61448 0.63674 0.86041 0.0
C747 C 0.58537 0.64066 0.84577 0.0
C748 C 0.57582 0.6414 0.79989 0.0
C749 C 0.54843 0.6453 0.78606 0.0
C750 C 0.5304 0.64868 0.81779 0.0
C751 C 0.53971 0.64809 0.86344 0.0
C752 C 0.56708 0.6442 0.87745 0.0
C753 C 0.71825 0.68679 0.80026 0.0
C754 C 0.70924 0.71374 0.79166 0.0
C755 C 0.70233 0.66741 0.82117 0.0
C756 C 0.67761 0.67482 0.83563 0.0
C757 C 0.66913 0.70206 0.82795 0.0
C758 C 0.68458 0.72118 0.80569 0.0
C759 C 0.65991 0.65431 0.85683 0.0
C760 C 0.63232 0.65515 0.84187 0.0
C761 C 0.66974 0.63405 0.89134 0.0
C762 C 0.69807 0.63272 0.91142 0.0
C763 C 0.70949 0.65472 0.93178 0.0
C764 C 0.73613 0.65312 0.95114 0.0
C765 C 0.75156 0.62968 0.95027 0.0
C766 C 0.74034 0.60769 0.9303 0.0
C767 C 0.71367 0.60911 0.91112 0.0
H768 H 0.77219 0.62852 0.96524 0.0
H769 H 0.50921 0.65172 0.807 0.0
H770 H 0.71884 0.33236 0.25316 0.0
H771 H 0.68594 0.36242 0.20613 0.0
H772 H 0.625 0.30304 0.22251 0.0
H773 H 0.65775 0.27308 0.27062 0.0
H774 H 0.63286 0.32561 0.1289 0.0
H775 H 0.61713 0.35172 0.27422 0.0
H776 H 0.62976 0.36654 0.34948 0.0
H777 H 0.66254 0.4387 0.28913 0.0
H778 H 0.65051 0.42409 0.21349 0.0
H779 H 0.52773 0.41193 1.01524 0.0
H780 H 0.55479 0.37935 0.0681 0.0
H781 H 0.61305 0.44047 0.09412 0.0
H782 H 0.58551 0.47326 0.04256 0.0
H783 H 0.60339 0.4146 0.16974 0.0
H784 H 0.6237 0.38852 0.02652 0.0
H785 H 0.61378 0.37449 0.95 0.0
H786 H 0.57585 0.3036 1.00398 0.0
H787 H 0.58525 0.3174 0.08081 0.0
C788 C 0.69835 0.32588 0.24707 0.0
C789 C 0.69066 0.30057 0.26546 0.0
C790 C 0.67965 0.34301 0.22036 0.0
C791 C 0.65315 0.33487 0.2112 0.0
C792 C 0.6454 0.30959 0.22951 0.0
C793 C 0.66401 0.29263 0.25699 0.0
C794 C 0.63394 0.35254 0.18097 0.0
C795 C 0.62594 0.34488 0.13794 0.0
C796 C 0.62574 0.37789 0.1927 0.0
C797 C 0.63317 0.38665 0.23818 0.0
C798 C 0.62731 0.3706 0.277 0.0
C799 C 0.6343 0.379 0.31973 0.0
C800 C 0.64702 0.40351 0.3241 0.0
C801 C 0.65273 0.4197 0.28571 0.0
C802 C 0.64581 0.41137 0.2429 0.0
C803 C 0.54645 0.41825 0.03201 0.0
C804 C 0.5547 0.44495 0.02495 0.0
C805 C 0.5619 0.39966 0.06209 0.0
C806 C 0.5861 0.4074 0.0847 0.0
C807 C 0.59444 0.43407 0.07711 0.0
C808 C 0.57882 0.45272 0.04756 0.0
C809 C 0.60253 0.38796 0.11706 0.0
C810 C 0.61004 0.39527 0.16059 0.0
C811 C 0.61065 0.36244 0.10552 0.0
C812 C 0.6049 0.35415 0.05935 0.0
C813 C 0.61304 0.37006 0.02203 0.0
C814 C 0.60755 0.36213 0.97861 0.0
C815 C 0.59412 0.33821 0.97212 0.0
C816 C 0.58621 0.32215 1.00905 0.0
C817 C 0.59162 0.33 0.05254 0.0
H818 H 0.58991 0.3321 0.93848 0.0
H819 H 0.65238 0.41 0.35721 0.0
H820 H 0.93941 0.48572 0.45843 0.0
H821 H 0.90559 0.45777 0.42206 0.0
H822 H 0.94328 0.38671 0.49754 0.0
H823 H 0.97834 0.41441 0.53071 0.0
H824 H 0.92907 0.37345 0.42133 0.0
H825 H 0.88164 0.41995 0.52222 0.0
H826 H 0.86504 0.45906 0.55667 0.0
H827 H 0.82323 0.48977 0.42942 0.0
H828 H 0.83987 0.451 0.39407 0.0
H829 H 0.81758 0.28746 0.3943 0.0
H830 H 0.85029 0.31762 0.42776 0.0
H831 H 0.82536 0.38042 0.32206 0.0
H832 H 0.7926 0.35026 0.28801 0.0
H833 H 0.83223 0.39791 0.41144 0.0
H834 H 0.87994 0.34637 0.3145 0.0
H835 H 0.89412 0.30362 0.28804 0.0
H836 H 0.93406 0.2786 0.41934 0.0
H837 H 0.91955 0.32094 0.44694 0.0
C838 C 0.94069 0.4641 0.46664 0.0
C839 C 0.96176 0.45225 0.49696 0.0
C840 C 0.92105 0.44809 0.44637 0.0
C841 C 0.92139 0.41996 0.45742 0.0
C842 C 0.94241 0.40825 0.48809 0.0
C843 C 0.96242 0.42415 0.50734 0.0
C844 C 0.90012 0.40265 0.43702 0.0
C845 C 0.90792 0.37877 0.41982 0.0
C846 C 0.87234 0.40942 0.43426 0.0
C847 C 0.86223 0.43272 0.45541 0.0
C848 C 0.86905 0.43514 0.50153 0.0
C849 C 0.85962 0.45723 0.52122 0.0
C850 C 0.84316 0.47693 0.49522 0.0
C851 C 0.83603 0.47452 0.4495 0.0
C852 C 0.84543 0.45248 0.42962 0.0
C853 C 0.81886 0.30774 0.37825 0.0
C854 C 0.80245 0.31641 0.33836 0.0
C855 C 0.83765 0.32494 0.39742 0.0
C856 C 0.84038 0.35122 0.37728 0.0
C857 C 0.82358 0.36021 0.33815 0.0
C858 C 0.80494 0.34291 0.31864 0.0
C859 C 0.86135 0.36898 0.39634 0.0
C860 C 0.85345 0.39283 0.41311 0.0
C861 C 0.88896 0.36182 0.39987 0.0
C862 C 0.89847 0.33676 0.38288 0.0
C863 C 0.89161 0.33169 0.33782 0.0
C864 C 0.89968 0.30751 0.32263 0.0
C865 C 0.91489 0.28836 0.35205 0.0
C866 C 0.92221 0.29343 0.39664 0.0
C867 C 0.91406 0.31751 0.41208 0.0
H868 H 0.92105 0.26962 0.34027 0.0
H869 H 0.83588 0.49402 0.51053 0.0
H870 H 0.81871 0.7298 0.65714 0.0
H871 H 0.84791 0.69893 0.62504 0.0
H872 H 0.84398 0.64077 0.74031 0.0
H873 H 0.8156 0.67217 0.77355 0.0
H874 H 0.89282 0.64149 0.71902 0.0
H875 H 0.80697 0.63572 0.63238 0.0
H876 H 0.76646 0.65471 0.58574 0.0
H877 H 0.8151 0.68855 0.48557 0.0
H878 H 0.85594 0.66995 0.53184 0.0
H879 H 0.95127 0.53316 0.62394 0.0
H880 H 0.92039 0.56216 0.65658 0.0
H881 H 0.91797 0.61917 0.5382 0.0
H882 H 0.94718 0.58895 0.50409 0.0
H883 H 0.87172 0.61859 0.56211 0.0
H884 H 0.95811 0.62447 0.65011 0.0
H885 H 0.99829 0.60594 0.69846 0.0
H886 H 0.94865 0.57226 0.79701 0.0
H887 H 0.90815 0.59027 0.74923 0.0
C888 C 0.82398 0.71042 0.67569 0.0
C889 C 0.81462 0.70343 0.71786 0.0
C890 C 0.84063 0.69265 0.65712 0.0
C891 C 0.84783 0.66713 0.67964 0.0
C892 C 0.83873 0.66024 0.72204 0.0
C893 C 0.8224 0.67821 0.74101 0.0
C894 C 0.86494 0.64775 0.65919 0.0
C895 C 0.88801 0.63623 0.68488 0.0
C896 C 0.85912 0.64118 0.61428 0.0
C897 C 0.83452 0.6516 0.58573 0.0
C898 C 0.80902 0.64725 0.60045 0.0
C899 C 0.78601 0.65795 0.57408 0.0
C900 C 0.78821 0.67288 0.53277 0.0
C901 C 0.81343 0.67698 0.51759 0.0
C902 C 0.83651 0.66632 0.54382 0.0
C903 C 0.94399 0.55183 0.60481 0.0
C904 C 0.95169 0.55885 0.56152 0.0
C905 C 0.92652 0.56862 0.62373 0.0
C906 C 0.91731 0.5935 0.60071 0.0
C907 C 0.92474 0.60026 0.55701 0.0
C908 C 0.94149 0.58299 0.53746 0.0
C909 C 0.89988 0.61239 0.62179 0.0
C910 C 0.87666 0.62382 0.59623 0.0
C911 C 0.90561 0.6189 0.66686 0.0
C912 C 0.93007 0.60854 0.69589 0.0
C913 C 0.95575 0.61303 0.68201 0.0
C914 C 0.97857 0.60261 0.70928 0.0
C915 C 0.97601 0.58787 0.75061 0.0
C916 C 0.95061 0.58363 0.76494 0.0
C917 C 0.92772 0.59397 0.73782 0.0
H918 H 0.99371 0.57978 0.77157 0.0
H919 H 0.77038 0.68125 0.5125 0.0
H920 H 0.28962 0.33596 0.22968 0.0
H921 H 0.31718 0.36819 0.18894 0.0
H922 H 0.37899 0.30663 0.19217 0.0
H923 H 0.35217 0.27512 0.23523 0.0
H924 H 0.40244 0.34798 0.21014 0.0
H925 H 0.33545 0.33185 0.09182 0.0
H926 H 0.28981 0.32817 0.0538 0.0
H927 H 0.27379 0.41179 0.06572 0.0
H928 H 0.31935 0.41601 0.1039 0.0
H929 H 0.43925 0.44066 0.99953 0.0
H930 H 0.40891 0.40848 0.0335 0.0
H931 H 0.43408 0.43396 0.16459 0.0
H932 H 0.46542 0.46502 0.13107 0.0
H933 H 0.36764 0.40897 0.07572 0.0
H934 H 0.43383 0.38445 0.24642 0.0
H935 H 0.48181 0.3829 0.27521 0.0
H936 H 0.5032 0.36987 0.14374 0.0
H937 H 0.45536 0.37094 0.11435 0.0
C938 C 0.30904 0.32938 0.22137 0.0
C939 C 0.31886 0.30314 0.23572 0.0
C940 C 0.32476 0.34774 0.19779 0.0
C941 C 0.35024 0.33994 0.18687 0.0
C942 C 0.3596 0.31339 0.20032 0.0
C943 C 0.3442 0.29531 0.22479 0.0
C944 C 0.36771 0.35956 0.16325 0.0
C945 C 0.39473 0.36122 0.18068 0.0
C946 C 0.35811 0.37659 0.12411 0.0
C947 C 0.33072 0.37418 0.1011 0.0
C948 C 0.32213 0.34942 0.08659 0.0
C949 C 0.29629 0.34723 0.06499 0.0
C950 C 0.27886 0.36967 0.05759 0.0
C951 C 0.28729 0.3944 0.07156 0.0
C952 C 0.31315 0.39673 0.09307 0.0
C953 C 0.43824 0.43942 0.03559 0.0
C954 C 0.45494 0.45517 0.06267 0.0
C955 C 0.42082 0.42104 0.05501 0.0
C956 C 0.41946 0.41827 0.10185 0.0
C957 C 0.43523 0.43501 0.12859 0.0
C958 C 0.45309 0.45291 0.10934 0.0
C959 C 0.40219 0.39744 0.1229 0.0
C960 C 0.37527 0.39563 0.1051 0.0
C961 C 0.41218 0.37934 0.16046 0.0
C962 C 0.441 0.37804 0.17813 0.0
C963 C 0.44877 0.3811 0.22374 0.0
C964 C 0.47594 0.38034 0.24014 0.0
C965 C 0.49554 0.37637 0.21129 0.0
C966 C 0.48801 0.37302 0.16602 0.0
C967 C 0.46087 0.37372 0.14947 0.0
H968 H 0.51657 0.37585 0.22403 0.0
H969 H 0.25885 0.3679 0.04091 0.0
H970 H 0.44675 0.53694 0.96033 0.0
H971 H 0.41603 0.57103 0.91769 0.0
H972 H 0.45717 0.63329 0.98597 0.0
H973 H 0.48852 0.5994 0.02763 0.0
H974 H 0.39874 0.6371 0.97715 0.0
H975 H 0.47364 0.62514 0.89257 0.0
H976 H 0.5051 0.59807 0.85626 0.0
H977 H 0.44027 0.5745 0.76437 0.0
H978 H 0.40813 0.60022 0.8017 0.0
H979 H 0.363 0.73873 0.76713 0.0
H980 H 0.39446 0.70793 0.81568 0.0
H981 H 0.32844 0.65966 0.8552 0.0
H982 H 0.29691 0.69002 0.80574 0.0
H983 H 0.40196 0.65174 0.81161 0.0
H984 H 0.34546 0.6401 0.97129 0.0
H985 H 0.31481 0.66636 1.0107 0.0
H986 H 0.34527 0.74007 0.95164 0.0
H987 H 0.37648 0.71429 0.91258 0.0
C988 C 0.44926 0.5579 0.96608 0.0
C989 C 0.47023 0.56572 0.99647 0.0
C990 C 0.43165 0.57726 0.94202 0.0
C991 C 0.43457 0.60455 0.94866 0.0
C992 C 0.45471 0.61226 0.98056 0.0
C993 C 0.47259 0.59295 1.0041 0.0
C994 C 0.41756 0.62522 0.92046 0.0
C995 C 0.39935 0.64033 0.94096 0.0
C996 C 0.41891 0.62953 0.87343 0.0
C997 C 0.43836 0.6144 0.85038 0.0
C998 C 0.46598 0.61389 0.86507 0.0
C999 C 0.48396 0.59877 0.8443 0.0
C1000 C 0.47471 0.58465 0.80796 0.0
C1001 C 0.44741 0.58545 0.79254 0.0
C1002 C 0.42927 0.60018 0.81366 0.0
C1003 C 0.35524 0.72153 0.78618 0.0
C1004 C 0.3276 0.71678 0.78315 0.0
C1005 C 0.37318 0.704 0.81374 0.0
C1006 C 0.36366 0.68173 0.83907 0.0
C1007 C 0.33604 0.67695 0.83615 0.0
C1008 C 0.31811 0.6943 0.80811 0.0
C1009 C 0.38268 0.66324 0.86815 0.0
C1010 C 0.40131 0.64852 0.8478 0.0
C1011 C 0.38185 0.65942 0.91533 0.0
C1012 C 0.36315 0.67521 0.93865 0.0
C1013 C 0.34569 0.66191 0.9668 0.0
C1014 C 0.32822 0.67671 0.9891 0.0
C1015 C 0.3281 0.70484 0.98365 0.0
C1016 C 0.34537 0.71827 0.95576 0.0
C1017 C 0.36293 0.70356 0.93348 0.0
H1018 H 0.31473 0.71622 1.00127 0.0
H1019 H 0.4887 0.57312 0.79175 0.0
H1020 H 0.21803 0.67138 0.74171 0.0
H1021 H 0.18591 0.64099 0.70661 0.0
H1022 H 0.16986 0.69949 0.5911 0.0
H1023 H 0.20239 0.72973 0.62537 0.0
H1024 H 0.12245 0.6757 0.63419 0.0
H1025 H 0.20506 0.65132 0.5743 0.0
H1026 H 0.2526 0.63653 0.58205 0.0
H1027 H 0.23374 0.56416 0.66111 0.0
H1028 H 0.18613 0.57873 0.65437 0.0
H1029 H 0.0416 0.60331 0.48587 0.0
H1030 H 0.07623 0.63117 0.51946 0.0
H1031 H 0.11268 0.56081 0.59885 0.0
H1032 H 0.07957 0.53249 0.56129 0.0
H1033 H 0.15016 0.59009 0.57863 0.0
H1034 H 0.06886 0.61062 0.63865 0.0
H1035 H 0.0211 0.62361 0.63624 0.0
H1036 H 0.03625 0.70098 0.56909 0.0
H1037 H 0.08399 0.68816 0.5696 0.0
C1038 C 0.20773 0.67775 0.70877 0.0
C1039 C 0.21282 0.70297 0.68629 0.0
C1040 C 0.18943 0.66034 0.68876 0.0
C1041 C 0.17553 0.66801 0.64629 0.0
C1042 C 0.18039 0.69322 0.62392 0.0
C1043 C 0.19908 0.71041 0.64347 0.0
C1044 C 0.15572 0.64983 0.62531 0.0
C1045 C 0.12842 0.65711 0.62152 0.0
C1046 C 0.16353 0.62511 0.61054 0.0
C1047 C 0.1921 0.61626 0.61423 0.0
C1048 C 0.21109 0.63237 0.59368 0.0
C1049 C 0.23804 0.624 0.59782 0.0
C1050 C 0.2462 0.59946 0.62217 0.0
C1051 C 0.22741 0.58319 0.64231 0.0
C1052 C 0.20043 0.59148 0.63831 0.0
C1053 C 0.05707 0.59373 0.51035 0.0
C1054 C 0.05733 0.56577 0.52205 0.0
C1055 C 0.07677 0.60977 0.52999 0.0
C1056 C 0.09663 0.59844 0.56329 0.0
C1057 C 0.09742 0.57029 0.57389 0.0
C1058 C 0.0782 0.55408 0.55295 0.0
C1059 C 0.11647 0.61595 0.58674 0.0
C1060 C 0.14389 0.60857 0.5913 0.0
C1061 C 0.10864 0.64031 0.60336 0.0
C1062 C 0.08002 0.64832 0.60385 0.0
C1063 C 0.06201 0.63036 0.62314 0.0
C1064 C 0.03492 0.63769 0.62211 0.0
C1065 C 0.02565 0.66312 0.60268 0.0
C1066 C 0.04346 0.68128 0.58415 0.0
C1067 C 0.07054 0.67397 0.5847 0.0
H1068 H 1.00466 0.66874 0.60197 0.0
H1069 H 0.26707 0.59301 0.62534 0.0
H1070 H 0.19848 0.33799 0.25455 0.0
H1071 H 0.16826 0.36853 0.28528 0.0
H1072 H 0.19543 0.33393 0.41997 0.0
H1073 H 0.22529 0.30279 0.38937 0.0
H1074 H 0.14314 0.3401 0.41213 0.0
H1075 H 0.21512 0.39762 0.37614 0.0
H1076 H 0.24742 0.41926 0.32815 0.0
H1077 H 0.18248 0.4558 0.23704 0.0
H1078 H 0.14975 0.43407 0.28418 0.0
H1079 H 0.08625 0.4426 0.52576 0.0
H1080 H 0.11805 0.41316 0.49588 0.0
H1081 H 0.08569 0.44121 0.36036 0.0
H1082 H 0.05378 0.47077 0.38993 0.0
H1083 H 0.14097 0.43878 0.36952 0.0
H1084 H 0.06918 0.38062 0.40649 0.0
H1085 H 0.03737 0.35926 0.45574 0.0
H1086 H 0.10307 0.32427 0.54688 0.0
H1087 H 0.1353 0.34577 0.49849 0.0
C1088 C 0.19821 0.33693 0.29075 0.0
C1089 C 0.21451 0.31793 0.31941 0.0
C1090 C 0.18092 0.35455 0.30835 0.0
C1091 C 0.17971 0.35392 0.35511 0.0
C1092 C 0.19595 0.33494 0.3838 0.0
C1093 C 0.21314 0.31717 0.36621 0.0
C1094 C 0.16111 0.3726 0.37393 0.0
C1095 C 0.14301 0.36171 0.4033 0.0
C1096 C 0.16036 0.40083 0.36183 0.0
C1097 C 0.17998 0.414 0.33348 0.0
C1098 C 0.20772 0.41011 0.34569 0.0
C1099 C 0.22611 0.42242 0.31867 0.0
C1100 C 0.21701 0.43884 0.27951 0.0
C1101 C 0.1895 0.44305 0.26735 0.0
C1102 C 0.17102 0.43076 0.29423 0.0
C1103 C 0.08588 0.44261 0.48957 0.0
C1104 C 0.06733 0.45908 0.46032 0.0
C1105 C 0.10405 0.42564 0.47252 0.0
C1106 C 0.10417 0.42474 0.42582 0.0
C1107 C 0.086 0.4415 0.39651 0.0
C1108 C 0.06768 0.45834 0.41352 0.0
C1109 C 0.12312 0.40623 0.40762 0.0
C1110 C 0.14122 0.41716 0.37838 0.0
C1111 C 0.12399 0.37807 0.42003 0.0
C1112 C 0.10465 0.36504 0.4491 0.0
C1113 C 0.07685 0.36856 0.43723 0.0
C1114 C 0.05874 0.35639 0.46496 0.0
C1115 C 0.0682 0.34048 0.50448 0.0
C1116 C 0.09578 0.33664 0.51629 0.0
C1117 C 0.11397 0.34879 0.48871 0.0
H1118 H 0.05415 0.33107 0.5259 0.0
H1119 H 0.23128 0.44835 0.25864 0.0
H1120 H 0.06758 0.02966 0.87817 0.0
H1121 H 0.06068 0.02841 0.95769 0.0
H1122 H 0.97648 0.01458 0.92514 0.0
H1123 H 0.98303 0.01691 0.84503 0.0
H1124 H 0.98312 0.05126 0.98416 0.0
H1125 H 0.02089 0.96343 0.97366 0.0
H1126 H 0.05416 0.93084 0.954 0.0
H1127 H 0.11548 0.96459 0.04114 0.0
H1128 H 0.08265 0.99763 0.06087 0.0
H1129 H 0.95277 0.01387 0.20691 0.0
H1130 H 0.95977 0.01447 0.12757 0.0
H1131 H 0.04426 0.02672 0.1604 0.0
H1132 H 0.03763 0.02478 0.2404 0.0
H1133 H 0.03751 0.99082 0.10117 0.0
H1134 H 1.0001 0.07868 0.11161 0.0
H1135 H 0.96708 0.1115 0.13132 0.0
H1136 H 0.90544 0.07815 0.04426 0.0
H1137 H 0.93802 0.04487 0.0245 0.0
C1138 C 0.04751 0.02656 0.88773 0.0
C1139 C 0.02585 0.02347 0.85491 0.0
C1140 C 0.04365 0.02554 0.93344 0.0
C1141 C 0.0181 0.02108 0.94769 0.0
C1142 C 0.99641 0.01796 0.91509 0.0
C1143 C 1.00024 0.01905 0.86926 0.0
C1144 C 0.01397 0.0202 0.99644 0.0
C1145 C 0.99474 0.03774 1.00965 0.0
C1146 C 0.02961 1.00312 0.03003 0.0
C1147 C 0.04936 0.98316 0.01842 0.0
C1148 C 0.04151 0.96402 0.98839 0.0
C1149 C 0.06029 0.94545 0.97727 0.0
C1150 C 0.08693 0.94569 0.99622 0.0
C1151 C 0.09484 0.96445 0.02644 0.0
C1152 C 0.07615 0.98308 0.03764 0.0
C1153 C 0.97294 0.01639 0.1975 0.0
C1154 C 0.99464 0.01917 0.23039 0.0
C1155 C 0.97686 0.01709 0.15185 0.0
C1156 C 1.0025 0.02102 0.13767 0.0
C1157 C 0.02425 0.02376 0.17035 0.0
C1158 C 0.02037 0.02291 0.21613 0.0
C1159 C 1.00664 0.02187 0.08891 0.0
C1160 C 0.02587 1.00433 0.07569 0.0
C1161 C 0.99105 0.039 0.05531 0.0
C1162 C 0.97145 0.05912 0.0669 0.0
C1163 C 0.97946 0.07822 0.09691 0.0
C1164 C 0.96083 0.09693 0.10806 0.0
C1165 C 0.93417 0.09687 0.08914 0.0
C1166 C 0.92609 0.07815 0.05893 0.0
C1167 C 0.94464 0.05938 0.04771 0.0
H1168 H 0.91977 0.11136 0.09782 0.0
H1169 H 0.10144 0.9313 0.98756 0.0
H1170 H 0.26553 0.81853 0.40789 0.0
H1171 H 0.26121 0.81171 0.32825 0.0
H1172 H 0.23103 0.73219 0.35895 0.0
H1173 H 0.23716 0.73811 0.43926 0.0
H1174 H 0.26575 0.72921 0.30217 0.0
H1175 H 0.19031 0.78861 0.30636 0.0
H1176 H 0.16677 0.82942 0.32395 0.0
H1177 H 0.21568 0.87885 0.2414 0.0
H1178 H 0.23976 0.83836 0.22377 0.0
H1179 H 0.22879 0.70729 0.07442 0.0
H1180 H 0.22719 0.71484 0.15319 0.0
H1181 H 0.26158 0.793 0.12865 0.0
H1182 H 0.26181 0.78631 0.04899 0.0
H1183 H 0.223 0.79608 0.18205 0.0
H1184 H 0.2992 0.73629 0.18023 0.0
H1185 H 0.3223 0.69525 0.16252 0.0
H1186 H 0.27093 0.6462 0.24095 0.0
H1187 H 0.24728 0.68695 0.25862 0.0
C1188 C 0.25809 0.79948 0.39795 0.0
C1189 C 0.25193 0.77881 0.43051 0.0
C1190 C 0.25523 0.79576 0.35204 0.0
C1191 C 0.24545 0.77153 0.33713 0.0
C1192 C 0.23858 0.75111 0.36937 0.0
C1193 C 0.2418 0.75467 0.41544 0.0
C1194 C 0.24374 0.76701 0.28829 0.0
C1195 C 0.25595 0.74365 0.27604 0.0
C1196 C 0.23159 0.78608 0.25377 0.0
C1197 C 0.21698 0.81045 0.26403 0.0
C1198 C 0.19616 0.80819 0.29217 0.0
C1199 C 0.1827 0.83127 0.30212 0.0
C1200 C 0.18976 0.85671 0.28388 0.0
C1201 C 0.21024 0.85913 0.25553 0.0
C1202 C 0.22378 0.83612 0.2455 0.0
C1203 C 0.23564 0.72631 0.08538 0.0
C1204 C 0.24544 0.74616 0.0549 0.0
C1205 C 0.23504 0.73045 0.13081 0.0
C1206 C 0.24468 0.75432 0.14728 0.0
C1207 C 0.25415 0.77434 0.11694 0.0
C1208 C 0.25453 0.77033 0.07135 0.0
C1209 C 0.24503 0.75834 0.19611 0.0
C1210 C 0.23263 0.7816 0.2083 0.0
C1211 C 0.25691 0.73915 0.23062 0.0
C1212 C 0.27132 0.71466 0.22041 0.0
C1213 C 0.29273 0.71675 0.19347 0.0
C1214 C 0.30594 0.69354 0.18347 0.0
C1215 C 0.29805 0.66813 0.20052 0.0
C1216 C 0.277 0.66589 0.22773 0.0
C1217 C 0.26371 0.68903 0.23778 0.0
H1218 H 0.30829 0.65019 0.19271 0.0
H1219 H 0.17933 0.87455 0.29165 0.0
H1220 H 0.45616 0.02798 0.67813 0.0
H1221 H 0.46179 0.02477 0.59899 0.0
H1222 H 0.54385 0.99751 0.63554 0.0
H1223 H 0.5387 1.00182 0.71495 0.0
H1224 H 0.54083 0.03392 0.56432 0.0
H1225 H 0.49361 0.95386 0.60458 0.0
H1226 H 0.45751 0.92728 0.63581 0.0
H1227 H 0.3992 0.96953 0.53822 0.0
H1228 H 0.43492 0.99667 0.50681 0.0
H1229 H 0.56198 0.98558 0.35513 0.0
H1230 H 0.55635 0.98955 0.4342 0.0
H1231 H 0.47578 0.02096 0.39631 0.0
H1232 H 0.48108 0.01646 0.31689 0.0
H1233 H 0.47798 0.98253 0.46791 0.0
H1234 H 0.52574 0.06243 0.42766 0.0
H1235 H 0.56217 0.08862 0.39667 0.0
H1236 H 0.61993 0.0458 0.49453 0.0
H1237 H 0.58387 0.01907 0.52572 0.0
C1238 C 0.47552 0.02153 0.66944 0.0
C1239 C 0.49703 0.0153 0.70309 0.0
C1240 C 0.47861 0.01939 0.62407 0.0
C1241 C 0.50316 1.01059 0.61115 0.0
C1242 C 0.52468 1.00428 0.64461 0.0
C1243 C 0.52163 1.00652 0.69009 0.0
C1244 C 0.50644 1.00845 0.5627 0.0
C1245 C 0.52731 0.02234 0.54345 0.0
C1246 C 0.48844 0.9939 0.535 0.0
C1247 C 0.46693 0.97747 0.55361 0.0
C1248 C 0.47307 0.95762 0.58998 0.0
C1249 C 0.45268 0.94244 0.60769 0.0
C1250 C 0.42607 0.94676 0.58909 0.0
C1251 C 0.41982 0.96623 0.55264 0.0
C1252 C 0.44013 0.98151 0.53484 0.0
C1253 C 0.54299 0.99323 0.36355 0.0
C1254 C 0.52194 1.00062 0.32959 0.0
C1255 C 0.53989 0.99571 0.40881 0.0
C1256 C 0.51571 1.00576 0.42128 0.0
C1257 C 0.49464 0.01321 0.38752 0.0
C1258 C 0.49777 1.01083 0.3421 0.0
C1259 C 0.51235 1.00798 0.46963 0.0
C1260 C 0.49147 0.9941 0.48883 0.0
C1261 C 0.5304 0.02245 0.49732 0.0
C1262 C 0.55212 0.03857 0.47875 0.0
C1263 C 0.54623 0.05845 0.44235 0.0
C1264 C 0.56681 0.07342 0.42479 0.0
C1265 C 0.59336 0.06883 0.44355 0.0
C1266 C 0.59937 0.04931 0.47999 0.0
C1267 C 0.57886 0.03426 0.49765 0.0
H1268 H 0.60926 0.08044 0.4299 0.0
H1269 H 0.41031 0.93498 0.60285 0.0
H1270 H 0.22373 0.30084 0.92777 0.0
H1271 H 0.22808 0.29581 0.8487 0.0
H1272 H 0.2902 0.23499 0.8878 0.0
H1273 H 0.28556 0.2394 0.96737 0.0
H1274 H 0.3031 0.27175 0.81891 0.0
H1275 H 0.22868 0.21648 0.85138 0.0
H1276 H 0.18496 0.20609 0.87904 0.0
H1277 H 0.14652 0.26721 0.78213 0.0
H1278 H 0.19011 0.27826 0.75431 0.0
H1279 H 0.30509 0.22065 0.60678 0.0
H1280 H 0.30071 0.22539 0.68596 0.0
H1281 H 0.23648 0.28403 0.64736 0.0
H1282 H 0.24093 0.27964 0.56771 0.0
H1283 H 0.22466 0.24834 0.71617 0.0
H1284 H 0.29875 0.30387 0.68375 0.0
H1285 H 0.34237 0.31469 0.65603 0.0
H1286 H 0.38133 0.25374 0.75269 0.0
H1287 H 0.33784 0.24227 0.78058 0.0
C1288 C 0.23811 0.28611 0.91976 0.0
C1289 C 0.25407 0.2703 0.95421 0.0
C1290 C 0.24064 0.28336 0.8744 0.0
C1291 C 0.25923 0.26479 0.86225 0.0
C1292 C 0.27569 0.24943 0.89638 0.0
C1293 C 0.27307 0.25206 0.94189 0.0
C1294 C 0.26139 0.26149 0.8139 0.0
C1295 C 0.28606 0.26624 0.79659 0.0
C1296 C 0.23897 0.255 0.78446 0.0
C1297 C 0.21272 0.24839 0.80107 0.0
C1298 C 0.21095 0.22787 0.83622 0.0
C1299 C 0.18618 0.22183 0.85189 0.0
C1300 C 0.16299 0.23603 0.83244 0.0
C1301 C 0.16451 0.25626 0.79721 0.0
C1302 C 0.18924 0.26241 0.78146 0.0
C1303 C 0.2902 0.23481 0.61498 0.0
C1304 C 0.27356 0.24999 0.58068 0.0
C1305 C 0.28768 0.23743 0.66038 0.0
C1306 C 0.26853 0.25536 0.67271 0.0
C1307 C 0.25144 0.27011 0.63868 0.0
C1308 C 0.25396 0.26751 0.59313 0.0
C1309 C 0.26639 0.2586 0.72112 0.0
C1310 C 0.24172 0.25385 0.73847 0.0
C1311 C 0.28879 0.26516 0.75057 0.0
C1312 C 0.31499 0.27203 0.73394 0.0
C1313 C 0.31658 0.29261 0.69885 0.0
C1314 C 0.34129 0.29889 0.68315 0.0
C1315 C 0.3646 0.28486 0.7025 0.0
C1316 C 0.36325 0.26456 0.73769 0.0
C1317 C 0.33858 0.25818 0.75348 0.0
H1318 H 0.38371 0.28976 0.69031 0.0
H1319 H 0.14383 0.23131 0.8446 0.0
H1320 H 0.73911 0.2324 0.97427 0.0
H1321 H 0.7414 0.22534 0.89508 0.0
H1322 H 0.7561 0.30978 0.86477 0.0
H1323 H 0.75411 0.31697 0.94381 0.0
H1324 H 0.72053 0.29297 0.80157 0.0
H1325 H 0.80687 0.26179 0.87294 0.0
H1326 H 0.83848 0.23479 0.92865 0.0
H1327 H 0.80644 0.16192 0.88171 0.0
H1328 H 0.77437 0.18851 0.8261 0.0
H1329 H 0.76438 0.2855 0.58409 0.0
H1330 H 0.7622 0.2924 0.66335 0.0
H1331 H 0.74701 0.20802 0.69315 0.0
H1332 H 0.74884 0.201 0.614 0.0
H1333 H 0.7828 0.22472 0.75659 0.0
H1334 H 0.69649 0.2559 0.68518 0.0
H1335 H 0.66493 0.2829 0.62938 0.0
H1336 H 0.69692 0.35577 0.67636 0.0
H1337 H 0.72895 0.32919 0.73206 0.0
C1338 C 0.74306 0.24946 0.95091 0.0
C1339 C 0.74643 0.27528 0.96578 0.0
C1340 C 0.74432 0.24539 0.90548 0.0
C1341 C 0.74919 0.26697 0.87377 0.0
C1342 C 0.75225 0.29279 0.88838 0.0
C1343 C 0.75098 0.29688 0.93374 0.0
C1344 C 0.75108 0.26273 0.82541 0.0
C1345 C 0.73441 0.27828 0.79178 0.0
C1346 C 0.76875 0.24317 0.81234 0.0
C1347 C 0.78804 0.22714 0.84568 0.0
C1348 C 0.80642 0.24001 0.87474 0.0
C1349 C 0.82445 0.22478 0.90626 0.0
C1350 C 0.82442 0.19666 0.90881 0.0
C1351 C 0.80641 0.18371 0.87975 0.0
C1352 C 0.78832 0.19885 0.8482 0.0
C1353 C 0.76035 0.26841 0.60735 0.0
C1354 C 0.75676 0.24267 0.59229 0.0
C1355 C 0.75915 0.27239 0.65282 0.0
C1356 C 0.75417 0.25079 0.6844 0.0
C1357 C 0.75095 0.22503 0.66963 0.0
C1358 C 0.75213 0.22103 0.62421 0.0
C1359 C 0.75226 0.25498 0.73276 0.0
C1360 C 0.76892 0.23941 0.76639 0.0
C1361 C 0.73458 0.27452 0.74583 0.0
C1362 C 0.7153 0.29055 0.71247 0.0
C1363 C 0.69694 0.27768 0.68337 0.0
C1364 C 0.67894 0.29291 0.65181 0.0
C1365 C 0.67897 0.32103 0.64925 0.0
C1366 C 0.69695 0.33398 0.67834 0.0
C1367 C 0.71502 0.31885 0.70994 0.0
H1368 H 0.66502 0.33278 0.62479 0.0
H1369 H 0.83839 0.1849 0.93322 0.0
H1370 H 0.80331 0.76258 0.46685 0.0
H1371 H 0.80662 0.75804 0.38697 0.0
H1372 H 0.72026 0.76034 0.36191 0.0
H1373 H 0.71685 0.76465 0.44166 0.0
H1374 H 0.74021 0.7235 0.31647 0.0
H1375 H 0.75822 0.81603 0.33584 0.0
H1376 H 0.78108 0.85379 0.36977 0.0
H1377 H 0.85613 0.82698 0.33005 0.0
H1378 H 0.83376 0.78882 0.29642 0.0
H1379 H 0.72969 0.75596 0.07822 0.0
H1380 H 0.72738 0.75843 0.15882 0.0
H1381 H 0.81322 0.74693 0.18331 0.0
H1382 H 0.81572 0.74356 0.10314 0.0
H1383 H 0.79402 0.78809 0.2287 0.0
H1384 H 0.77465 0.69572 0.20776 0.0
H1385 H 0.75066 0.65897 0.1727 0.0
H1386 H 0.67656 0.68701 0.21423 0.0
H1387 H 0.70006 0.72419 0.24899 0.0
C1388 C 0.78504 0.76214 0.44428 0.0
C1389 C 0.75982 0.76409 0.4606 0.0
C1390 C 0.78695 0.75957 0.39861 0.0
C1391 C 0.76368 0.75926 0.36817 0.0
C1392 C 0.7385 0.76052 0.38464 0.0
C1393 C 0.73658 0.76291 0.43031 0.0
C1394 C 0.7655 0.75804 0.3191 0.0
C1395 C 0.75172 0.73784 0.29723 0.0
C1396 C 0.78087 0.77645 0.29394 0.0
C1397 C 0.79437 0.7994 0.31404 0.0
C1398 C 0.77964 0.81806 0.33466 0.0
C1399 C 0.7925 0.83956 0.35379 0.0
C1400 C 0.82005 0.84274 0.35218 0.0
C1401 C 0.83479 0.82447 0.33134 0.0
C1402 C 0.82203 0.80291 0.31221 0.0
C1403 C 0.74809 0.75369 0.1007 0.0
C1404 C 0.7729 0.7495 0.0839 0.0
C1405 C 0.74673 0.75523 0.1468 0.0
C1406 C 0.77011 0.75269 0.17712 0.0
C1407 C 0.79493 0.74904 0.1605 0.0
C1408 C 0.79631 0.74728 0.11449 0.0
C1409 C 0.76871 0.75362 0.22625 0.0
C1410 C 0.78255 0.77376 0.24806 0.0
C1411 C 0.75323 0.73531 0.25126 0.0
C1412 C 0.73907 0.7129 0.23058 0.0
C1413 C 0.7532 0.69419 0.20909 0.0
C1414 C 0.7397 0.67326 0.18933 0.0
C1415 C 0.71209 0.6707 0.19113 0.0
C1416 C 0.69794 0.68904 0.21281 0.0
C1417 C 0.71134 0.71003 0.23257 0.0
H1418 H 0.70167 0.65448 0.17582 0.0
H1419 H 0.82997 0.8594 0.367 0.0
H1420 H 0.47863 0.5477 0.67022 0.0
H1421 H 0.48499 0.54538 0.59084 0.0
H1422 H 0.53088 0.47119 0.62576 0.0
H1423 H 0.52492 0.47367 0.7053 0.0
H1424 H 0.55374 0.50116 0.56451 0.0
H1425 H 0.46367 0.47291 0.57906 0.0
H1426 H 0.41747 0.47669 0.59968 0.0
H1427 H 0.40361 0.54869 0.50899 0.0
H1428 H 0.44987 0.54555 0.48828 0.0
H1429 H 0.5479 0.46006 0.34312 0.0
H1430 H 0.54189 0.46233 0.42262 0.0
H1431 H 0.49923 0.53844 0.38923 0.0
H1432 H 0.50522 0.53635 0.30969 0.0
H1433 H 0.47474 0.50715 0.44956 0.0
H1434 H 0.5653 0.53491 0.43524 0.0
H1435 H 0.61134 0.53023 0.41431 0.0
H1436 H 0.624 0.45789 0.5045 0.0
H1437 H 0.57788 0.46194 0.52552 0.0
C1438 C 0.49007 0.53088 0.66099 0.0
C1439 C 0.50114 0.51079 0.69415 0.0
C1440 C 0.49364 0.52953 0.61552 0.0
C1441 C 0.50801 0.50782 0.60196 0.0
C1442 C 0.51968 0.48812 0.63518 0.0
C1443 C 0.51631 0.4896 0.68073 0.0
C1444 C 0.51069 0.50554 0.55325 0.0
C1445 C 0.5364 0.50212 0.53953 0.0
C1446 C 0.48818 0.50727 0.52023 0.0
C1447 C 0.46032 0.50913 0.53245 0.0
C1448 C 0.45083 0.48966 0.56376 0.0
C1449 C 0.42462 0.49167 0.57543 0.0
C1450 C 0.40764 0.51295 0.55575 0.0
C1451 C 0.4168 0.53224 0.52426 0.0
C1452 C 0.443 0.53034 0.51251 0.0
C1453 C 0.53732 0.47735 0.35266 0.0
C1454 C 0.52717 0.49809 0.31986 0.0
C1455 C 0.53389 0.47862 0.39821 0.0
C1456 C 0.52044 0.50076 0.41218 0.0
C1457 C 0.50969 0.52115 0.37941 0.0
C1458 C 0.51305 0.51986 0.33383 0.0
C1459 C 0.51776 0.50282 0.46089 0.0
C1460 C 0.49205 0.50619 0.47459 0.0
C1461 C 0.54025 0.50092 0.4939 0.0
C1462 C 0.56806 0.4986 0.48164 0.0
C1463 C 0.57785 0.51791 0.45038 0.0
C1464 C 0.60396 0.51538 0.43854 0.0
C1465 C 0.62056 0.49374 0.45798 0.0
C1466 C 0.61111 0.47463 0.48943 0.0
C1467 C 0.58499 0.47704 0.50135 0.0
H1468 H 0.64077 0.49181 0.44875 0.0
H1469 H 0.38736 0.51448 0.56483 0.0
H1470 H 0.06095 0.49258 0.84732 0.0
H1471 H 0.05526 0.49591 0.92637 0.0
H1472 H 0.97635 0.5316 0.88851 0.0
H1473 H 0.98227 0.52915 0.80881 0.0
H1474 H 1.00361 0.55737 0.95392 0.0
H1475 H 0.98435 0.46553 0.9304 0.0
H1476 H 0.99298 0.42068 0.906 0.0
H1477 H 0.06407 0.41082 0.99954 0.0
H1478 H 0.05606 0.4558 0.02407 0.0
H1479 H 0.95822 0.53883 0.17122 0.0
H1480 H 0.96412 0.53777 0.09164 0.0
H1481 H 0.04233 0.50012 0.12765 0.0
H1482 H 0.03614 0.50018 0.20763 0.0
H1483 H 0.01513 0.47559 0.06285 0.0
H1484 H 0.03459 0.56719 0.08666 0.0
H1485 H 0.02639 0.61217 0.11092 0.0
H1486 H 0.95546 0.62266 1.01709 0.0
H1487 H 0.96304 0.57756 0.99269 0.0
C1488 C 0.04249 0.50149 0.8556 0.0
C1489 C 0.0221 0.51069 0.8215 0.0
C1490 C 0.03915 0.50309 0.90098 0.0
C1491 C 0.01524 0.51366 0.91354 0.0
C1492 C 0.99494 0.52324 0.87968 0.0
C1493 C 0.99827 0.52165 0.83413 0.0
C1494 C 0.01151 0.51455 0.96205 0.0
C1495 C 1.00573 0.53943 0.97763 0.0
C1496 C 0.01495 0.49126 0.99328 0.0
C1497 C 0.01973 0.46414 0.97878 0.0
C1498 C 1.00193 0.45388 0.94554 0.0
C1499 C 1.00669 0.42842 0.93172 0.0
C1500 C 0.02909 0.41293 0.95113 0.0
C1501 C 0.04674 0.42285 0.9845 0.0
C1502 C 0.04208 0.44831 0.9984 0.0
C1503 C 0.97662 0.53011 0.16233 0.0
C1504 C 0.99666 0.51948 0.196 0.0
C1505 C 0.98009 0.52981 0.11669 0.0
C1506 C 1.0038 0.51915 0.1035 0.0
C1507 C 0.02389 0.50855 0.13695 0.0
C1508 C 0.02041 0.50879 0.1827 0.0
C1509 C 1.0073 0.51843 0.05484 0.0
C1510 C 0.01301 0.49356 0.03919 0.0
C1511 C 1.00383 0.54174 0.02361 0.0
C1512 C 0.99924 0.56888 0.03817 0.0
C1513 C 0.01712 0.579 0.07146 0.0
C1514 C 0.01261 0.60453 0.08519 0.0
C1515 C 0.99038 0.62023 0.06564 0.0
C1516 C 0.97265 0.61046 0.03224 0.0
C1517 C 0.97706 0.58492 0.01842 0.0
H1518 H 0.98692 0.64 0.07631 0.0
H1519 H 0.03275 0.39323 0.94039 0.0
loop_
_geom_bond_atom_site_label_1
_geom_bond_atom_site_label_2
_geom_bond_distance
_geom_bond_site_symmetry_2
_ccdc_geom_bond_type
La0 C2 2.928 1_655 S
La0 O20 2.521 1_655 S
La0 O21 2.628 1_565 S
La0 O22 2.554 1_655 S
La0 O23 2.757 1_655 S
La0 O24 2.470 1_665 S
La0 O29 2.482 1_565 S
La0 O31 2.503 . S
La1 C11 2.928 1_455 S
La1 O23 2.482 1_545 S
La1 O25 2.503 . S
La1 O26 2.521 1_455 S
La1 O27 2.628 1_545 S
La1 O28 2.554 1_455 S
La1 O29 2.757 1_455 S
La1 O30 2.470 1_445 S
C2 La0 2.928 1_455 S
C2 C3 1.503 . S
C2 O20 1.261 . S
C2 O21 1.243 1_465 S
C3 C2 1.503 . S
C3 C4 1.394 . S
C3 C8 1.373 1_565 S
C4 C3 1.394 . S
C4 C5 1.380 . S
C4 H32 0.930 . S
C5 C4 1.380 . S
C5 C6 1.376 1_565 S
C5 H33 0.930 . S
C6 C5 1.376 1_545 S
C6 C7 1.370 . S
C7 C6 1.370 . S
C7 C8 1.396 . S
C7 H34 0.929 . S
C8 C3 1.373 1_545 S
C8 C7 1.396 . S
C8 H35 0.929 1_455 S
C9 O22 1.240 . S
C9 O23 1.289 . S
C10 O24 1.258 . S
C10 O25 1.256 . S
C11 La1 2.928 1_655 S
C11 C12 1.503 . S
C11 O26 1.261 . S
C11 O27 1.243 1_645 S
C12 C11 1.503 . S
C12 C13 1.394 . S
C12 C17 1.373 1_545 S
C13 C12 1.394 . S
C13 C14 1.380 . S
C13 H36 0.930 . S
C14 C13 1.380 . S
C14 C15 1.376 1_545 S
C14 H37 0.930 . S
C15 C14 1.376 1_565 S
C15 C16 1.370 . S
C16 C15 1.370 . S
C16 C17 1.396 . S
C16 H38 0.929 . S
C17 C12 1.373 1_565 S
C17 C16 1.396 . S
C17 H39 0.929 1_655 S
C18 O28 1.240 . S
C18 O29 1.289 . S
C19 O30 1.258 . S
C19 O31 1.256 . S
O20 La0 2.521 1_455 S
O20 C2 1.261 . S
O21 La0 2.628 1_545 S
O21 C2 1.243 1_645 S
O22 La0 2.554 1_455 S
O22 C9 1.240 . S
O23 La0 2.757 1_455 S
O23 La1 2.482 1_565 S
O23 C9 1.289 . S
O24 La0 2.470 1_445 S
O24 C10 1.258 . S
O25 La1 2.503 . S
O25 C10 1.256 . S
O26 La1 2.521 1_655 S
O26 C11 1.261 . S
O27 La1 2.628 1_565 S
O27 C11 1.243 1_465 S
O28 La1 2.554 1_655 S
O28 C18 1.240 . S
O29 La0 2.482 1_545 S
O29 La1 2.757 1_655 S
O29 C18 1.289 . S
O30 La1 2.470 1_665 S
O30 C19 1.258 . S
O31 La0 2.503 . S
O31 C19 1.256 . S
H32 C4 0.930 . S
H33 C5 0.930 . S
H34 C7 0.929 . S
H35 C8 0.929 1_655 S
H36 C13 0.930 . S
H37 C14 0.930 . S
H38 C16 0.929 . S
H39 C17 0.929 1_455 S
La40 C42 2.928 . S
La40 O60 2.521 . S
La40 O61 2.628 . S
La40 O62 2.554 . S
La40 O63 2.757 . S
La40 O64 2.470 . S
La40 O69 2.482 . S
La40 O71 2.503 . S
La41 C51 2.928 . S
La41 O63 2.482 . S
La41 O65 2.503 . S
La41 O66 2.521 . S
La41 O67 2.628 . S
La41 O68 2.554 . S
La41 O69 2.757 . S
La41 O70 2.470 . S
C42 La40 2.928 . S
C42 C43 1.503 . S
C42 O60 1.261 . S
C42 O61 1.243 . S
C43 C42 1.503 . S
C43 C44 1.394 . S
C43 C48 1.373 . S
C44 C43 1.394 . S
C44 C45 1.380 . S
C44 H72 0.930 . S
C45 C44 1.380 . S
C45 C46 1.376 1_556 S
C45 H73 0.930 1_556 S
C46 C45 1.376 1_554 S
C46 C47 1.370 . S
C47 C46 1.370 . S
C47 C48 1.396 1_554 S
C47 H74 0.929 . S
C48 C43 1.373 . S
C48 C47 1.396 1_556 S
C48 H75 0.929 . S
C49 O62 1.240 . S
C49 O63 1.289 . S
C50 O64 1.258 . S
C50 O65 1.256 . S
C51 La41 2.928 . S
C51 C52 1.503 . S
C51 O66 1.261 . S
C51 O67 1.243 . S
C52 C51 1.503 . S
C52 C53 1.394 . S
C52 C57 1.373 . S
C53 C52 1.394 . S
C53 C54 1.380 . S
C53 H76 0.930 . S
C54 C53 1.380 . S
C54 C55 1.376 . S
C54 H77 0.930 . S
C55 C54 1.376 . S
C55 C56 1.370 . S
C56 C55 1.370 . S
C56 C57 1.396 . S
C56 H78 0.929 . S
C57 C52 1.373 . S
C57 C56 1.396 . S
C57 H79 0.929 . S
C58 O68 1.240 . S
C58 O69 1.289 . S
C59 O70 1.258 . S
C59 O71 1.256 . S
O60 La40 2.521 . S
O60 C42 1.261 . S
O61 La40 2.628 . S
O61 C42 1.243 . S
O62 La40 2.554 . S
O62 C49 1.240 . S
O63 La40 2.757 . S
O63 La41 2.482 . S
O63 C49 1.289 . S
O64 La40 2.470 . S
O64 C50 1.258 . S
O65 La41 2.503 . S
O65 C50 1.256 . S
O66 La41 2.521 . S
O66 C51 1.261 . S
O67 La41 2.628 . S
O67 C51 1.243 . S
O68 La41 2.554 . S
O68 C58 1.240 . S
O69 La40 2.482 . S
O69 La41 2.757 . S
O69 C58 1.289 . S
O70 La41 2.470 . S
O70 C59 1.258 . S
O71 La40 2.503 . S
O71 C59 1.256 . S
H72 C44 0.930 . S
H73 C45 0.930 1_554 S
H74 C47 0.929 . S
H75 C48 0.929 . S
H76 C53 0.930 . S
H77 C54 0.930 . S
H78 C56 0.929 . S
H79 C57 0.929 . S
La80 C82 2.928 . S
La80 O100 2.521 . S
La80 O101 2.630 . S
La80 O102 2.554 . S
La80 O103 2.757 1_554 S
La80 O104 2.470 1_565 S
La80 O109 2.482 1_565 S
La80 O111 2.503 . S
La81 C91 2.928 . S
La81 O103 2.482 1_545 S
La81 O105 2.503 . S
La81 O106 2.521 . S
La81 O107 2.636 . S
La81 O108 2.554 . S
La81 O109 2.757 1_556 S
La81 O110 2.470 1_545 S
C82 La80 2.928 . S
C82 C83 1.503 . S
C82 O100 1.261 . S
C82 O101 1.245 . S
C83 C82 1.503 . S
C83 C84 1.394 . S
C83 C88 1.373 1_565 S
C84 C83 1.394 . S
C84 C85 1.380 . S
C84 H112 0.930 . S
C85 C84 1.380 . S
C85 C86 1.376 . S
C85 H113 0.930 . S
C86 C85 1.376 . S
C86 C87 1.370 1_565 S
C87 C86 1.370 1_545 S
C87 C88 1.396 . S
C87 H114 0.929 . S
C88 C83 1.373 1_545 S
C88 C87 1.396 . S
C88 H115 0.929 . S
C89 O102 1.240 1_556 S
C89 O103 1.289 . S
C90 O104 1.258 . S
C90 O105 1.256 1_554 S
C91 La81 2.928 . S
C91 C92 1.503 . S
C91 O106 1.261 . S
C91 O107 1.252 . S
C92 C91 1.503 . S
C92 C93 1.394 . S
C92 C97 1.373 1_545 S
C93 C92 1.394 . S
C93 C94 1.380 . S
C93 H116 0.930 . S
C94 C93 1.380 . S
C94 C95 1.376 . S
C94 H117 0.930 . S
C95 C94 1.376 . S
C95 C96 1.370 1_545 S
C96 C95 1.370 1_565 S
C96 C97 1.396 . S
C96 H118 0.929 . S
C97 C92 1.373 1_565 S
C97 C96 1.396 . S
C97 H119 0.929 . S
C98 O108 1.240 1_554 S
C98 O109 1.289 . S
C99 O110 1.258 . S
C99 O111 1.256 1_556 S
O100 La80 2.521 . S
O100 C82 1.261 . S
O101 La80 2.630 . S
O101 C82 1.245 . S
O102 La80 2.554 . S
O102 C89 1.240 1_554 S
O103 La80 2.757 1_556 S
O103 La81 2.482 1_565 S
O103 C89 1.289 . S
O104 La80 2.470 1_545 S
O104 C90 1.258 . S
O105 La81 2.503 . S
O105 C90 1.256 1_556 S
O106 La81 2.521 . S
O106 C91 1.261 . S
O107 La81 2.636 . S
O107 C91 1.252 . S
O108 La81 2.554 . S
O108 C98 1.240 1_556 S
O109 La80 2.482 1_545 S
O109 La81 2.757 1_554 S
O109 C98 1.289 . S
O110 La81 2.470 1_565 S
O110 C99 1.258 . S
O111 La80 2.503 . S
O111 C99 1.256 1_554 S
H112 C84 0.930 . S
H113 C85 0.930 . S
H114 C87 0.929 . S
H115 C88 0.929 . S
H116 C93 0.930 . S
H117 C94 0.930 . S
H118 C96 0.929 . S
H119 C97 0.929 . S
La120 C122 2.928 . S
La120 O140 2.521 . S
La120 O141 2.628 . S
La120 O142 2.554 . S
La120 O143 2.757 . S
La120 O144 2.470 . S
La120 O149 2.482 . S
La120 O151 2.503 . S
La121 C131 2.928 . S
La121 O143 2.482 . S
La121 O145 2.503 . S
La121 O146 2.521 . S
La121 O147 2.628 . S
La121 O148 2.554 . S
La121 O149 2.757 . S
La121 O150 2.470 . S
C122 La120 2.928 . S
C122 C123 1.503 . S
C122 O140 1.261 . S
C122 O141 1.243 . S
C123 C122 1.503 . S
C123 C124 1.394 . S
C123 C128 1.373 . S
C124 C123 1.394 . S
C124 C125 1.380 1_554 S
C124 H152 0.930 . S
C125 C124 1.380 1_556 S
C125 C126 1.376 . S
C125 H153 0.930 . S
C126 C125 1.376 . S
C126 C127 1.370 . S
C127 C126 1.370 . S
C127 C128 1.396 1_556 S
C127 H154 0.929 . S
C128 C123 1.373 . S
C128 C127 1.396 1_554 S
C128 H155 0.929 . S
C129 O142 1.240 . S
C129 O143 1.289 . S
C130 O144 1.258 . S
C130 O145 1.256 . S
C131 La121 2.928 . S
C131 C132 1.503 . S
C131 O146 1.261 . S
C131 O147 1.243 . S
C132 C131 1.503 . S
C132 C133 1.394 . S
C132 C137 1.373 . S
C133 C132 1.394 . S
C133 C134 1.380 . S
C133 H156 0.930 . S
C134 C133 1.380 . S
C134 C135 1.376 . S
C134 H157 0.930 . S
C135 C134 1.376 . S
C135 C136 1.370 . S
C136 C135 1.370 . S
C136 C137 1.396 . S
C136 H158 0.929 . S
C137 C132 1.373 . S
C137 C136 1.396 . S
C137 H159 0.929 . S
C138 O148 1.240 . S
C138 O149 1.289 . S
C139 O150 1.258 . S
C139 O151 1.256 . S
O140 La120 2.521 . S
O140 C122 1.261 . S
O141 La120 2.628 . S
O141 C122 1.243 . S
O142 La120 2.554 . S
O142 C129 1.240 . S
O143 La120 2.757 . S
O143 La121 2.482 . S
O143 C129 1.289 . S
O144 La120 2.470 . S
O144 C130 1.258 . S
O145 La121 2.503 . S
O145 C130 1.256 . S
O146 La121 2.521 . S
O146 C131 1.261 . S
O147 La121 2.628 . S
O147 C131 1.243 . S
O148 La121 2.554 . S
O148 C138 1.240 . S
O149 La120 2.482 . S
O149 La121 2.757 . S
O149 C138 1.289 . S
O150 La121 2.470 . S
O150 C139 1.258 . S
O151 La120 2.503 . S
O151 C139 1.256 . S
H152 C124 0.930 . S
H153 C125 0.930 . S
H154 C127 0.929 . S
H155 C128 0.929 . S
H156 C133 0.930 . S
H157 C134 0.930 . S
H158 C136 0.929 . S
H159 C137 0.929 . S
La160 C162 2.928 . S
La160 O180 2.521 . S
La160 O181 2.628 . S
La160 O182 2.554 . S
La160 O183 2.757 . S
La160 O184 2.470 . S
La160 O189 2.482 . S
La160 O191 2.503 . S
La161 C171 2.928 . S
La161 O183 2.482 . S
La161 O185 2.503 . S
La161 O186 2.521 . S
La161 O187 2.628 . S
La161 O188 2.554 . S
La161 O189 2.757 . S
La161 O190 2.470 . S
C162 La160 2.928 . S
C162 C163 1.503 . S
C162 O180 1.261 . S
C162 O181 1.243 . S
C163 C162 1.503 . S
C163 C164 1.394 . S
C163 C168 1.373 . S
C164 C163 1.394 . S
C164 C165 1.380 . S
C164 H192 0.930 . S
C165 C164 1.380 . S
C165 C166 1.376 . S
C165 H193 0.930 . S
C166 C165 1.376 . S
C166 C167 1.370 . S
C167 C166 1.370 . S
C167 C168 1.396 . S
C167 H194 0.929 . S
C168 C163 1.373 . S
C168 C167 1.396 . S
C168 H195 0.929 . S
C169 O182 1.240 . S
C169 O183 1.289 . S
C170 O184 1.258 . S
C170 O185 1.256 . S
C171 La161 2.928 . S
C171 C172 1.503 . S
C171 O186 1.261 . S
C171 O187 1.243 . S
C172 C171 1.503 . S
C172 C173 1.394 . S
C172 C177 1.373 . S
C173 C172 1.394 . S
C173 C174 1.380 . S
C173 H196 0.930 . S
C174 C173 1.380 . S
C174 C175 1.376 1_554 S
C174 H197 0.930 1_554 S
C175 C174 1.376 1_556 S
C175 C176 1.370 . S
C176 C175 1.370 . S
C176 C177 1.396 1_556 S
C176 H198 0.929 . S
C177 C172 1.373 . S
C177 C176 1.396 1_554 S
C177 H199 0.929 . S
C178 O188 1.240 . S
C178 O189 1.289 . S
C179 O190 1.258 . S
C179 O191 1.256 . S
O180 La160 2.521 . S
O180 C162 1.261 . S
O181 La160 2.628 . S
O181 C162 1.243 . S
O182 La160 2.554 . S
O182 C169 1.240 . S
O183 La160 2.757 . S
O183 La161 2.482 . S
O183 C169 1.289 . S
O184 La160 2.470 . S
O184 C170 1.258 . S
O185 La161 2.503 . S
O185 C170 1.256 . S
O186 La161 2.521 . S
O186 C171 1.261 . S
O187 La161 2.628 . S
O187 C171 1.243 . S
O188 La161 2.554 . S
O188 C178 1.240 . S
O189 La160 2.482 . S
O189 La161 2.757 . S
O189 C178 1.289 . S
O190 La161 2.470 . S
O190 C179 1.258 . S
O191 La160 2.503 . S
O191 C179 1.256 . S
H192 C164 0.930 . S
H193 C165 0.930 . S
H194 C167 0.929 . S
H195 C168 0.929 . S
H196 C173 0.930 . S
H197 C174 0.930 1_556 S
H198 C176 0.929 . S
H199 C177 0.929 . S
La200 C202 2.928 . S
La200 O220 2.521 . S
La200 O221 2.628 . S
La200 O222 2.554 . S
La200 O223 2.757 . S
La200 O224 2.470 . S
La200 O229 2.482 . S
La200 O231 2.503 . S
La201 C211 2.928 . S
La201 O223 2.482 . S
La201 O225 2.503 . S
La201 O226 2.521 . S
La201 O227 2.628 . S
La201 O228 2.554 . S
La201 O229 2.757 . S
La201 O230 2.470 . S
C202 La200 2.928 . S
C202 C203 1.503 . S
C202 O220 1.261 . S
C202 O221 1.243 . S
C203 C202 1.503 . S
C203 C204 1.394 . S
C203 C208 1.373 . S
C204 C203 1.394 . S
C204 C205 1.380 . S
C204 H232 0.930 . S
C205 C204 1.380 . S
C205 C206 1.376 . S
C205 H233 0.930 . S
C206 C205 1.376 . S
C206 C207 1.370 . S
C207 C206 1.370 . S
C207 C208 1.396 . S
C207 H234 0.929 . S
C208 C203 1.373 . S
C208 C207 1.396 . S
C208 H235 0.929 . S
C209 O222 1.240 . S
C209 O223 1.289 . S
C210 O224 1.258 . S
C210 O225 1.256 . S
C211 La201 2.928 . S
C211 C212 1.503 . S
C211 O226 1.261 . S
C211 O227 1.243 . S
C212 C211 1.503 . S
C212 C213 1.394 . S
C212 C217 1.373 . S
C213 C212 1.394 . S
C213 C214 1.380 1_556 S
C213 H236 0.930 . S
C214 C213 1.380 1_554 S
C214 C215 1.376 . S
C214 H237 0.930 . S
C215 C214 1.376 . S
C215 C216 1.370 . S
C216 C215 1.370 . S
C216 C217 1.396 1_554 S
C216 H238 0.929 . S
C217 C212 1.373 . S
C217 C216 1.396 1_556 S
C217 H239 0.929 . S
C218 O228 1.240 . S
C218 O229 1.289 . S
C219 O230 1.258 . S
C219 O231 1.256 . S
O220 La200 2.521 . S
O220 C202 1.261 . S
O221 La200 2.628 . S
O221 C202 1.243 . S
O222 La200 2.554 . S
O222 C209 1.240 . S
O223 La200 2.757 . S
O223 La201 2.482 . S
O223 C209 1.289 . S
O224 La200 2.470 . S
O224 C210 1.258 . S
O225 La201 2.503 . S
O225 C210 1.256 . S
O226 La201 2.521 . S
O226 C211 1.261 . S
O227 La201 2.628 . S
O227 C211 1.243 . S
O228 La201 2.554 . S
O228 C218 1.240 . S
O229 La200 2.482 . S
O229 La201 2.757 . S
O229 C218 1.289 . S
O230 La201 2.470 . S
O230 C219 1.258 . S
O231 La200 2.503 . S
O231 C219 1.256 . S
H232 C204 0.930 . S
H233 C205 0.930 . S
H234 C207 0.929 . S
H235 C208 0.929 . S
H236 C213 0.930 . S
H237 C214 0.930 . S
H238 C216 0.929 . S
H239 C217 0.929 . S
La240 C242 2.928 . S
La240 O260 2.521 . S
La240 O261 2.628 . S
La240 O262 2.554 . S
La240 O263 2.757 1_556 S
La240 O264 2.470 . S
La240 O269 2.482 . S
La240 O271 2.503 1_556 S
La241 C251 2.928 . S
La241 O263 2.482 . S
La241 O265 2.503 1_554 S
La241 O266 2.521 . S
La241 O267 2.628 . S
La241 O268 2.554 . S
La241 O269 2.757 1_554 S
La241 O270 2.470 . S
C242 La240 2.928 . S
C242 C243 1.503 . S
C242 O260 1.261 . S
C242 O261 1.243 . S
C243 C242 1.503 . S
C243 C244 1.394 . S
C243 C248 1.373 . S
C244 C243 1.394 . S
C244 C245 1.380 . S
C244 H272 0.930 . S
C245 C244 1.380 . S
C245 C246 1.376 . S
C245 H273 0.930 . S
C246 C245 1.376 . S
C246 C247 1.370 . S
C247 C246 1.370 . S
C247 C248 1.396 . S
C247 H274 0.929 . S
C248 C243 1.373 . S
C248 C247 1.396 . S
C248 H275 0.929 . S
C249 O262 1.240 1_554 S
C249 O263 1.289 . S
C250 O264 1.258 . S
C250 O265 1.256 . S
C251 La241 2.928 . S
C251 C252 1.503 . S
C251 O266 1.261 . S
C251 O267 1.243 . S
C252 C251 1.503 . S
C252 C253 1.394 . S
C252 C257 1.373 . S
C253 C252 1.394 . S
C253 C254 1.380 . S
C253 H276 0.930 . S
C254 C253 1.380 . S
C254 C255 1.376 . S
C254 H277 0.930 . S
C255 C254 1.376 . S
C255 C256 1.370 . S
C256 C255 1.370 . S
C256 C257 1.396 . S
C256 H278 0.929 . S
C257 C252 1.373 . S
C257 C256 1.396 . S
C257 H279 0.929 . S
C258 O268 1.240 1_556 S
C258 O269 1.289 . S
C259 O270 1.258 . S
C259 O271 1.256 . S
O260 La240 2.521 . S
O260 C242 1.261 . S
O261 La240 2.628 . S
O261 C242 1.243 . S
O262 La240 2.554 . S
O262 C249 1.240 1_556 S
O263 La240 2.757 1_554 S
O263 La241 2.482 . S
O263 C249 1.289 . S
O264 La240 2.470 . S
O264 C250 1.258 . S
O265 La241 2.503 1_556 S
O265 C250 1.256 . S
O266 La241 2.521 . S
O266 C251 1.261 . S
O267 La241 2.628 . S
O267 C251 1.243 . S
O268 La241 2.554 . S
O268 C258 1.240 1_554 S
O269 La240 2.482 . S
O269 La241 2.757 1_556 S
O269 C258 1.289 . S
O270 La241 2.470 . S
O270 C259 1.258 . S
O271 La240 2.503 1_554 S
O271 C259 1.256 . S
H272 C244 0.930 . S
H273 C245 0.930 . S
H274 C247 0.929 . S
H275 C248 0.929 . S
H276 C253 0.930 . S
H277 C254 0.930 . S
H278 C256 0.929 . S
H279 C257 0.929 . S
La280 C282 2.928 1_455 S
La280 O300 2.521 1_455 S
La280 O301 2.628 . S
La280 O302 2.554 1_455 S
La280 O303 2.757 1_455 S
La280 O304 2.470 1_455 S
La280 O309 2.482 . S
La280 O311 2.503 . S
La281 C291 2.928 1_655 S
La281 O303 2.482 . S
La281 O305 2.503 . S
La281 O306 2.521 1_655 S
La281 O307 2.628 . S
La281 O308 2.554 1_655 S
La281 O309 2.757 1_655 S
La281 O310 2.470 1_655 S
C282 La280 2.928 1_655 S
C282 C283 1.503 . S
C282 O300 1.261 . S
C282 O301 1.243 1_655 S
C283 C282 1.503 . S
C283 C284 1.394 . S
C283 C288 1.373 . S
C284 C283 1.394 . S
C284 C285 1.380 . S
C284 H312 0.930 . S
C285 C284 1.380 . S
C285 C286 1.376 . S
C285 H313 0.930 . S
C286 C285 1.376 . S
C286 C287 1.370 . S
C287 C286 1.370 . S
C287 C288 1.396 . S
C287 H314 0.929 . S
C288 C283 1.373 . S
C288 C287 1.396 . S
C288 H315 0.929 1_655 S
C289 O302 1.240 . S
C289 O303 1.289 . S
C290 O304 1.258 . S
C290 O305 1.256 . S
C291 La281 2.928 1_455 S
C291 C292 1.503 . S
C291 O306 1.261 . S
C291 O307 1.243 1_455 S
C292 C291 1.503 . S
C292 C293 1.394 . S
C292 C297 1.373 . S
C293 C292 1.394 . S
C293 C294 1.380 . S
C293 H316 0.930 . S
C294 C293 1.380 . S
C294 C295 1.376 . S
C294 H317 0.930 . S
C295 C294 1.376 . S
C295 C296 1.370 . S
C296 C295 1.370 . S
C296 C297 1.396 . S
C296 H318 0.929 . S
C297 C292 1.373 . S
C297 C296 1.396 . S
C297 H319 0.929 1_455 S
C298 O308 1.240 . S
C298 O309 1.289 . S
C299 O310 1.258 . S
C299 O311 1.256 . S
O300 La280 2.521 1_655 S
O300 C282 1.261 . S
O301 La280 2.628 . S
O301 C282 1.243 1_455 S
O302 La280 2.554 1_655 S
O302 C289 1.240 . S
O303 La280 2.757 1_655 S
O303 La281 2.482 . S
O303 C289 1.289 . S
O304 La280 2.470 1_655 S
O304 C290 1.258 . S
O305 La281 2.503 . S
O305 C290 1.256 . S
O306 La281 2.521 1_455 S
O306 C291 1.261 . S
O307 La281 2.628 . S
O307 C291 1.243 1_655 S
O308 La281 2.554 1_455 S
O308 C298 1.240 . S
O309 La280 2.482 . S
O309 La281 2.757 1_455 S
O309 C298 1.289 . S
O310 La281 2.470 1_455 S
O310 C299 1.258 . S
O311 La280 2.503 . S
O311 C299 1.256 . S
H312 C284 0.930 . S
H313 C285 0.930 . S
H314 C287 0.929 . S
H315 C288 0.929 1_455 S
H316 C293 0.930 . S
H317 C294 0.930 . S
H318 C296 0.929 . S
H319 C297 0.929 1_655 S
H320 C338 0.951 . S
H321 C340 0.951 . S
H322 C342 0.950 . S
H323 C343 0.950 . S
H324 C345 0.950 . S
H325 C348 0.950 . S
H326 C349 0.950 . S
H327 C351 0.950 . S
H328 C352 0.950 . S
H329 C353 0.951 . S
H330 C355 0.951 . S
H331 C357 0.950 . S
H332 C358 0.950 . S
H333 C360 0.950 . S
H334 C363 0.950 . S
H335 C364 0.950 . S
H336 C366 0.950 . S
H337 C367 0.950 . S
C338 H320 0.951 . S
C338 C339 1.366 . S
C338 C340 1.388 . S
C339 C338 1.366 . S
C339 C343 1.385 . S
C340 H321 0.951 . S
C340 C338 1.388 . S
C340 C341 1.366 . S
C341 C340 1.366 . S
C341 C342 1.414 . S
C341 C344 1.499 . S
C342 H322 0.950 . S
C342 C341 1.414 . S
C342 C343 1.374 . S
C343 H323 0.950 . S
C343 C339 1.385 . S
C343 C342 1.374 . S
C344 C341 1.499 . S
C344 C345 1.373 . S
C344 C346 1.389 . S
C345 H324 0.950 . S
C345 C344 1.373 . S
C345 C361 1.377 . S
C346 C344 1.389 . S
C346 C347 1.524 . S
C346 C360 1.377 . S
C347 C346 1.524 . S
C347 C348 1.397 . S
C347 C352 1.363 . S
C348 H325 0.950 . S
C348 C347 1.397 . S
C348 C349 1.334 . S
C349 H326 0.950 . S
C349 C348 1.334 . S
C349 C350 1.287 . S
C350 C349 1.287 . S
C350 C351 1.524 . S
C350 H369 0.913 . S
C351 H327 0.950 . S
C351 C350 1.524 . S
C351 C352 1.415 . S
C352 H328 0.950 . S
C352 C347 1.363 . S
C352 C351 1.415 . S
C353 H329 0.951 . S
C353 C354 1.366 . S
C353 C355 1.388 . S
C354 C353 1.366 . S
C354 C358 1.385 . S
C355 H330 0.951 . S
C355 C353 1.388 . S
C355 C356 1.366 . S
C356 C355 1.366 . S
C356 C357 1.414 . S
C356 C359 1.499 . S
C357 H331 0.950 . S
C357 C356 1.414 . S
C357 C358 1.374 . S
C358 H332 0.950 . S
C358 C354 1.385 . S
C358 C357 1.374 . S
C359 C356 1.499 . S
C359 C360 1.373 . S
C359 C361 1.389 . S
C360 H333 0.950 . S
C360 C346 1.377 . S
C360 C359 1.373 . S
C361 C345 1.377 . S
C361 C359 1.389 . S
C361 C362 1.524 . S
C362 C361 1.524 . S
C362 C363 1.397 . S
C362 C367 1.363 . S
C363 H334 0.950 . S
C363 C362 1.397 . S
C363 C364 1.334 . S
C364 H335 0.950 . S
C364 C363 1.334 . S
C364 C365 1.287 . S
C365 C364 1.287 . S
C365 C366 1.524 . S
C365 H368 0.999 . S
C366 H336 0.950 . S
C366 C365 1.524 . S
C366 C367 1.415 . S
C367 H337 0.950 . S
C367 C362 1.363 . S
C367 C366 1.415 . S
H368 C365 0.999 . S
H369 C350 0.913 . S
H370 C388 0.951 . S
H371 C390 0.951 . S
H372 C392 0.950 . S
H373 C393 0.950 . S
H374 C395 0.950 . S
H375 C398 0.950 . S
H376 C399 0.950 . S
H377 C401 0.950 . S
H378 C402 0.950 . S
H379 C403 0.951 . S
H380 C405 0.951 . S
H381 C407 0.950 . S
H382 C408 0.950 . S
H383 C410 0.950 . S
H384 C413 0.950 . S
H385 C414 0.950 . S
H386 C416 0.950 . S
H387 C417 0.950 . S
C388 H370 0.951 . S
C388 C389 1.366 . S
C388 C390 1.388 . S
C389 C388 1.366 . S
C389 C393 1.385 . S
C390 H371 0.951 . S
C390 C388 1.388 . S
C390 C391 1.366 . S
C391 C390 1.366 . S
C391 C392 1.414 . S
C391 C394 1.499 . S
C392 H372 0.950 . S
C392 C391 1.414 . S
C392 C393 1.374 . S
C393 H373 0.950 . S
C393 C389 1.385 . S
C393 C392 1.374 . S
C394 C391 1.499 . S
C394 C395 1.373 . S
C394 C396 1.389 . S
C395 H374 0.950 . S
C395 C394 1.373 . S
C395 C411 1.377 . S
C396 C394 1.389 . S
C396 C397 1.524 . S
C396 C410 1.377 . S
C397 C396 1.524 . S
C397 C398 1.397 . S
C397 C402 1.363 . S
C398 H375 0.950 . S
C398 C397 1.397 . S
C398 C399 1.334 . S
C399 H376 0.950 . S
C399 C398 1.334 . S
C399 C400 1.287 . S
C400 C399 1.287 . S
C400 C401 1.524 . S
C400 H419 0.913 . S
C401 H377 0.950 . S
C401 C400 1.524 . S
C401 C402 1.415 . S
C402 H378 0.950 . S
C402 C397 1.363 . S
C402 C401 1.415 . S
C403 H379 0.951 . S
C403 C404 1.366 . S
C403 C405 1.388 . S
C404 C403 1.366 . S
C404 C408 1.385 . S
C405 H380 0.951 . S
C405 C403 1.388 . S
C405 C406 1.366 . S
C406 C405 1.366 . S
C406 C407 1.414 . S
C406 C409 1.499 . S
C407 H381 0.950 . S
C407 C406 1.414 . S
C407 C408 1.374 . S
C408 H382 0.950 . S
C408 C404 1.385 . S
C408 C407 1.374 . S
C409 C406 1.499 . S
C409 C410 1.373 . S
C409 C411 1.389 . S
C410 H383 0.950 . S
C410 C396 1.377 . S
C410 C409 1.373 . S
C411 C395 1.377 . S
C411 C409 1.389 . S
C411 C412 1.524 . S
C412 C411 1.524 . S
C412 C413 1.397 . S
C412 C417 1.363 . S
C413 H384 0.950 . S
C413 C412 1.397 . S
C413 C414 1.334 . S
C414 H385 0.950 . S
C414 C413 1.334 . S
C414 C415 1.287 . S
C415 C414 1.287 . S
C415 C416 1.524 . S
C415 H418 0.999 . S
C416 H386 0.950 . S
C416 C415 1.524 . S
C416 C417 1.415 . S
C417 H387 0.950 . S
C417 C412 1.363 . S
C417 C416 1.415 . S
H418 C415 0.999 . S
H419 C400 0.913 . S
H420 C438 0.951 . S
H421 C440 0.951 . S
H422 C442 0.950 . S
H423 C443 0.950 . S
H424 C445 0.950 . S
H425 C448 0.950 . S
H426 C449 0.950 . S
H427 C451 0.950 . S
H428 C452 0.950 . S
H429 C453 0.951 . S
H430 C455 0.951 . S
H431 C457 0.950 . S
H432 C458 0.950 1_554 S
H433 C460 0.950 . S
H434 C463 0.950 . S
H435 C464 0.950 . S
H436 C466 0.950 . S
H437 C467 0.950 . S
C438 H420 0.951 . S
C438 C439 1.366 . S
C438 C440 1.388 . S
C439 C438 1.366 . S
C439 C443 1.385 . S
C440 H421 0.951 . S
C440 C438 1.388 . S
C440 C441 1.366 . S
C441 C440 1.366 . S
C441 C442 1.414 . S
C441 C444 1.499 . S
C442 H422 0.950 . S
C442 C441 1.414 . S
C442 C443 1.374 . S
C443 H423 0.950 . S
C443 C439 1.385 . S
C443 C442 1.374 . S
C444 C441 1.499 . S
C444 C445 1.373 . S
C444 C446 1.389 . S
C445 H424 0.950 . S
C445 C444 1.373 . S
C445 C461 1.377 . S
C446 C444 1.389 . S
C446 C447 1.524 . S
C446 C460 1.377 . S
C447 C446 1.524 . S
C447 C448 1.397 . S
C447 C452 1.363 . S
C448 H425 0.950 . S
C448 C447 1.397 . S
C448 C449 1.334 . S
C449 H426 0.950 . S
C449 C448 1.334 . S
C449 C450 1.287 . S
C450 C449 1.287 . S
C450 C451 1.524 1_556 S
C450 H469 0.913 1_556 S
C451 H427 0.950 . S
C451 C450 1.524 1_554 S
C451 C452 1.415 1_554 S
C452 H428 0.950 . S
C452 C447 1.363 . S
C452 C451 1.415 1_556 S
C453 H429 0.951 . S
C453 C454 1.366 . S
C453 C455 1.388 . S
C454 C453 1.366 . S
C454 C458 1.385 . S
C455 H430 0.951 . S
C455 C453 1.388 . S
C455 C456 1.366 . S
C456 C455 1.366 . S
C456 C457 1.414 . S
C456 C459 1.499 . S
C457 H431 0.950 . S
C457 C456 1.414 . S
C457 C458 1.374 . S
C458 H432 0.950 1_556 S
C458 C454 1.385 . S
C458 C457 1.374 . S
C459 C456 1.499 . S
C459 C460 1.373 . S
C459 C461 1.389 . S
C460 H433 0.950 . S
C460 C446 1.377 . S
C460 C459 1.373 . S
C461 C445 1.377 . S
C461 C459 1.389 . S
C461 C462 1.524 . S
C462 C461 1.524 . S
C462 C463 1.397 . S
C462 C467 1.363 . S
C463 H434 0.950 . S
C463 C462 1.397 . S
C463 C464 1.334 . S
C464 H435 0.950 . S
C464 C463 1.334 . S
C464 C465 1.287 . S
C465 C464 1.287 . S
C465 C466 1.524 . S
C465 H468 0.999 . S
C466 H436 0.950 . S
C466 C465 1.524 . S
C466 C467 1.415 . S
C467 H437 0.950 . S
C467 C462 1.363 . S
C467 C466 1.415 . S
H468 C465 0.999 . S
H469 C450 0.913 1_554 S
H470 C488 0.951 . S
H471 C490 0.951 . S
H472 C492 0.950 . S
H473 C493 0.950 . S
H474 C495 0.950 . S
H475 C498 0.950 . S
H476 C499 0.950 . S
H477 C501 0.950 . S
H478 C502 0.950 . S
H479 C503 0.951 . S
H480 C505 0.951 . S
H481 C507 0.950 . S
H482 C508 0.950 . S
H483 C510 0.950 . S
H484 C513 0.950 . S
H485 C514 0.950 . S
H486 C516 0.950 . S
H487 C517 0.950 . S
C488 H470 0.951 . S
C488 C489 1.366 . S
C488 C490 1.388 . S
C489 C488 1.366 . S
C489 C493 1.385 . S
C490 H471 0.951 . S
C490 C488 1.388 . S
C490 C491 1.366 . S
C491 C490 1.366 . S
C491 C492 1.414 . S
C491 C494 1.499 . S
C492 H472 0.950 . S
C492 C491 1.414 . S
C492 C493 1.374 . S
C493 H473 0.950 . S
C493 C489 1.385 . S
C493 C492 1.374 . S
C494 C491 1.499 . S
C494 C495 1.373 . S
C494 C496 1.389 . S
C495 H474 0.950 . S
C495 C494 1.373 . S
C495 C511 1.377 . S
C496 C494 1.389 . S
C496 C497 1.524 . S
C496 C510 1.377 . S
C497 C496 1.524 . S
C497 C498 1.397 . S
C497 C502 1.363 . S
C498 H475 0.950 . S
C498 C497 1.397 . S
C498 C499 1.334 . S
C499 H476 0.950 . S
C499 C498 1.334 . S
C499 C500 1.287 . S
C500 C499 1.287 . S
C500 C501 1.524 . S
C500 H519 0.913 . S
C501 H477 0.950 . S
C501 C500 1.524 . S
C501 C502 1.415 . S
C502 H478 0.950 . S
C502 C497 1.363 . S
C502 C501 1.415 . S
C503 H479 0.951 . S
C503 C504 1.366 . S
C503 C505 1.388 . S
C504 C503 1.366 . S
C504 C508 1.385 . S
C505 H480 0.951 . S
C505 C503 1.388 . S
C505 C506 1.366 . S
C506 C505 1.366 . S
C506 C507 1.414 . S
C506 C509 1.499 . S
C507 H481 0.950 . S
C507 C506 1.414 . S
C507 C508 1.374 . S
C508 H482 0.950 . S
C508 C504 1.385 . S
C508 C507 1.374 . S
C509 C506 1.499 . S
C509 C510 1.373 . S
C509 C511 1.389 . S
C510 H483 0.950 . S
C510 C496 1.377 . S
C510 C509 1.373 . S
C511 C495 1.377 . S
C511 C509 1.389 . S
C511 C512 1.524 . S
C512 C511 1.524 . S
C512 C513 1.397 . S
C512 C517 1.363 . S
C513 H484 0.950 . S
C513 C512 1.397 . S
C513 C514 1.334 . S
C514 H485 0.950 . S
C514 C513 1.334 . S
C514 C515 1.287 . S
C515 C514 1.287 . S
C515 C516 1.524 . S
C515 H518 0.999 . S
C516 H486 0.950 . S
C516 C515 1.524 . S
C516 C517 1.415 . S
C517 H487 0.950 . S
C517 C512 1.363 . S
C517 C516 1.415 . S
H518 C515 0.999 . S
H519 C500 0.913 . S
H520 C538 0.951 . S
H521 C540 0.951 . S
H522 C542 0.950 . S
H523 C543 0.950 . S
H524 C545 0.950 . S
H525 C548 0.950 . S
H526 C549 0.950 . S
H527 C551 0.950 . S
H528 C552 0.950 . S
H529 C553 0.951 . S
H530 C555 0.951 . S
H531 C557 0.950 . S
H532 C558 0.950 . S
H533 C560 0.950 . S
H534 C563 0.950 . S
H535 C564 0.950 . S
H536 C566 0.950 . S
H537 C567 0.950 . S
C538 H520 0.951 . S
C538 C539 1.366 . S
C538 C540 1.388 . S
C539 C538 1.366 . S
C539 C543 1.385 . S
C540 H521 0.951 . S
C540 C538 1.388 . S
C540 C541 1.366 . S
C541 C540 1.366 . S
C541 C542 1.414 . S
C541 C544 1.499 . S
C542 H522 0.950 . S
C542 C541 1.414 . S
C542 C543 1.374 . S
C543 H523 0.950 . S
C543 C539 1.385 . S
C543 C542 1.374 . S
C544 C541 1.499 . S
C544 C545 1.373 . S
C544 C546 1.389 . S
C545 H524 0.950 . S
C545 C544 1.373 . S
C545 C561 1.377 . S
C546 C544 1.389 . S
C546 C547 1.524 . S
C546 C560 1.377 . S
C547 C546 1.524 . S
C547 C548 1.397 . S
C547 C552 1.363 . S
C548 H525 0.950 . S
C548 C547 1.397 . S
C548 C549 1.334 . S
C549 H526 0.950 . S
C549 C548 1.334 . S
C549 C550 1.287 . S
C550 C549 1.287 . S
C550 C551 1.524 . S
C550 H569 0.913 . S
C551 H527 0.950 . S
C551 C550 1.524 . S
C551 C552 1.415 . S
C552 H528 0.950 . S
C552 C547 1.363 . S
C552 C551 1.415 . S
C553 H529 0.951 . S
C553 C554 1.366 . S
C553 C555 1.388 . S
C554 C553 1.366 . S
C554 C558 1.385 . S
C555 H530 0.951 . S
C555 C553 1.388 . S
C555 C556 1.366 . S
C556 C555 1.366 . S
C556 C557 1.414 . S
C556 C559 1.499 . S
C557 H531 0.950 . S
C557 C556 1.414 . S
C557 C558 1.374 . S
C558 H532 0.950 . S
C558 C554 1.385 . S
C558 C557 1.374 . S
C559 C556 1.499 . S
C559 C560 1.373 . S
C559 C561 1.389 . S
C560 H533 0.950 . S
C560 C546 1.377 . S
C560 C559 1.373 . S
C561 C545 1.377 . S
C561 C559 1.389 . S
C561 C562 1.524 . S
C562 C561 1.524 . S
C562 C563 1.397 . S
C562 C567 1.363 . S
C563 H534 0.950 . S
C563 C562 1.397 . S
C563 C564 1.334 . S
C564 H535 0.950 . S
C564 C563 1.334 . S
C564 C565 1.287 . S
C565 C564 1.287 . S
C565 C566 1.524 . S
C565 H568 0.999 . S
C566 H536 0.950 . S
C566 C565 1.524 . S
C566 C567 1.415 . S
C567 H537 0.950 . S
C567 C562 1.363 . S
C567 C566 1.415 . S
H568 C565 0.999 . S
H569 C550 0.913 . S
H570 C588 0.951 . S
H571 C590 0.951 . S
H572 C592 0.950 . S
H573 C593 0.950 . S
H574 C595 0.950 . S
H575 C598 0.950 . S
H576 C599 0.950 . S
H577 C601 0.950 . S
H578 C602 0.950 . S
H579 C603 0.951 . S
H580 C605 0.951 . S
H581 C607 0.950 . S
H582 C608 0.950 . S
H583 C610 0.950 . S
H584 C613 0.950 . S
H585 C614 0.950 . S
H586 C616 0.950 . S
H587 C617 0.950 . S
C588 H570 0.951 . S
C588 C589 1.366 . S
C588 C590 1.388 . S
C589 C588 1.366 . S
C589 C593 1.385 . S
C590 H571 0.951 . S
C590 C588 1.388 . S
C590 C591 1.366 . S
C591 C590 1.366 . S
C591 C592 1.414 . S
C591 C594 1.499 . S
C592 H572 0.950 . S
C592 C591 1.414 . S
C592 C593 1.374 . S
C593 H573 0.950 . S
C593 C589 1.385 . S
C593 C592 1.374 . S
C594 C591 1.499 . S
C594 C595 1.373 . S
C594 C596 1.389 . S
C595 H574 0.950 . S
C595 C594 1.373 . S
C595 C611 1.377 . S
C596 C594 1.389 . S
C596 C597 1.524 . S
C596 C610 1.377 . S
C597 C596 1.524 . S
C597 C598 1.397 . S
C597 C602 1.363 . S
C598 H575 0.950 . S
C598 C597 1.397 . S
C598 C599 1.334 . S
C599 H576 0.950 . S
C599 C598 1.334 . S
C599 C600 1.287 . S
C600 C599 1.287 . S
C600 C601 1.524 . S
C600 H619 0.913 . S
C601 H577 0.950 . S
C601 C600 1.524 . S
C601 C602 1.415 . S
C602 H578 0.950 . S
C602 C597 1.363 . S
C602 C601 1.415 . S
C603 H579 0.951 . S
C603 C604 1.366 . S
C603 C605 1.388 . S
C604 C603 1.366 . S
C604 C608 1.385 . S
C605 H580 0.951 . S
C605 C603 1.388 . S
C605 C606 1.366 . S
C606 C605 1.366 . S
C606 C607 1.414 . S
C606 C609 1.499 . S
C607 H581 0.950 . S
C607 C606 1.414 . S
C607 C608 1.374 . S
C608 H582 0.950 . S
C608 C604 1.385 . S
C608 C607 1.374 . S
C609 C606 1.499 . S
C609 C610 1.373 . S
C609 C611 1.389 . S
C610 H583 0.950 . S
C610 C596 1.377 . S
C610 C609 1.373 . S
C611 C595 1.377 . S
C611 C609 1.389 . S
C611 C612 1.524 . S
C612 C611 1.524 . S
C612 C613 1.397 . S
C612 C617 1.363 . S
C613 H584 0.950 . S
C613 C612 1.397 . S
C613 C614 1.334 . S
C614 H585 0.950 . S
C614 C613 1.334 . S
C614 C615 1.287 . S
C615 C614 1.287 . S
C615 C616 1.524 . S
C615 H618 0.999 . S
C616 H586 0.950 . S
C616 C615 1.524 . S
C616 C617 1.415 . S
C617 H587 0.950 . S
C617 C612 1.363 . S
C617 C616 1.415 . S
H618 C615 0.999 . S
H619 C600 0.913 . S
H620 C638 0.951 . S
H621 C640 0.951 . S
H622 C642 0.950 . S
H623 C643 0.950 . S
H624 C645 0.950 . S
H625 C648 0.950 . S
H626 C649 0.950 . S
H627 C651 0.950 . S
H628 C652 0.950 . S
H629 C653 0.946 1_556 S
H630 C655 0.951 . S
H631 C657 0.950 . S
H632 C658 0.950 . S
H633 C660 0.950 . S
H634 C663 0.950 . S
H635 C664 0.950 . S
H636 C666 0.950 . S
H637 C667 0.950 . S
C638 H620 0.951 . S
C638 C639 1.366 . S
C638 C640 1.388 . S
C639 C638 1.366 . S
C639 C643 1.385 . S
C640 H621 0.951 . S
C640 C638 1.388 . S
C640 C641 1.366 . S
C641 C640 1.366 . S
C641 C642 1.414 . S
C641 C644 1.499 . S
C642 H622 0.950 . S
C642 C641 1.414 . S
C642 C643 1.374 . S
C643 H623 0.950 . S
C643 C639 1.385 . S
C643 C642 1.374 . S
C644 C641 1.499 . S
C644 C645 1.373 . S
C644 C646 1.389 . S
C645 H624 0.950 . S
C645 C644 1.373 . S
C645 C661 1.377 . S
C646 C644 1.389 . S
C646 C647 1.524 . S
C646 C660 1.377 . S
C647 C646 1.524 . S
C647 C648 1.397 . S
C647 C652 1.363 . S
C648 H625 0.950 . S
C648 C647 1.397 . S
C648 C649 1.334 . S
C649 H626 0.950 . S
C649 C648 1.334 . S
C649 C650 1.287 . S
C650 C649 1.287 . S
C650 C651 1.524 . S
C650 H669 0.913 . S
C651 H627 0.950 . S
C651 C650 1.524 . S
C651 C652 1.415 . S
C652 H628 0.950 . S
C652 C647 1.363 . S
C652 C651 1.415 . S
C653 H629 0.946 1_554 S
C653 C654 1.366 . S
C653 C655 1.388 . S
C654 C653 1.366 . S
C654 C658 1.385 . S
C655 H630 0.951 . S
C655 C653 1.388 . S
C655 C656 1.366 . S
C656 C655 1.366 . S
C656 C657 1.414 . S
C656 C659 1.499 . S
C657 H631 0.950 . S
C657 C656 1.414 . S
C657 C658 1.374 . S
C658 H632 0.950 . S
C658 C654 1.385 . S
C658 C657 1.374 . S
C659 C656 1.499 . S
C659 C660 1.373 . S
C659 C661 1.389 . S
C660 H633 0.950 . S
C660 C646 1.377 . S
C660 C659 1.373 . S
C661 C645 1.377 . S
C661 C659 1.389 . S
C661 C662 1.524 . S
C662 C661 1.524 . S
C662 C663 1.397 . S
C662 C667 1.363 . S
C663 H634 0.950 . S
C663 C662 1.397 . S
C663 C664 1.334 . S
C664 H635 0.950 . S
C664 C663 1.334 . S
C664 C665 1.287 . S
C665 C664 1.287 . S
C665 C666 1.524 . S
C665 H668 0.999 . S
C666 H636 0.950 . S
C666 C665 1.524 . S
C666 C667 1.415 . S
C667 H637 0.950 . S
C667 C662 1.363 . S
C667 C666 1.415 . S
H668 C665 0.999 . S
H669 C650 0.913 . S
H670 C688 0.951 . S
H671 C690 0.951 . S
H672 C692 0.950 . S
H673 C693 0.950 . S
H674 C695 0.950 . S
H675 C698 0.950 . S
H676 C699 0.950 . S
H677 C701 0.950 . S
H678 C702 0.950 . S
H679 C703 0.951 . S
H680 C705 0.951 . S
H681 C707 0.950 . S
H682 C708 0.950 . S
H683 C710 0.950 . S
H684 C713 0.950 . S
H685 C714 0.950 . S
H686 C716 0.950 . S
H687 C717 0.950 . S
C688 H670 0.951 . S
C688 C689 1.366 . S
C688 C690 1.388 . S
C689 C688 1.366 . S
C689 C693 1.385 . S
C690 H671 0.951 . S
C690 C688 1.388 . S
C690 C691 1.366 . S
C691 C690 1.366 . S
C691 C692 1.414 . S
C691 C694 1.499 . S
C692 H672 0.950 . S
C692 C691 1.414 . S
C692 C693 1.374 . S
C693 H673 0.950 . S
C693 C689 1.385 . S
C693 C692 1.374 . S
C694 C691 1.499 . S
C694 C695 1.373 . S
C694 C696 1.389 . S
C695 H674 0.950 . S
C695 C694 1.373 . S
C695 C711 1.377 . S
C696 C694 1.389 . S
C696 C697 1.524 . S
C696 C710 1.377 . S
C697 C696 1.524 . S
C697 C698 1.397 . S
C697 C702 1.363 . S
C698 H675 0.950 . S
C698 C697 1.397 . S
C698 C699 1.334 . S
C699 H676 0.950 . S
C699 C698 1.334 . S
C699 C700 1.287 . S
C700 C699 1.287 . S
C700 C701 1.524 . S
C700 H719 0.913 . S
C701 H677 0.950 . S
C701 C700 1.524 . S
C701 C702 1.415 . S
C702 H678 0.950 . S
C702 C697 1.363 . S
C702 C701 1.415 . S
C703 H679 0.951 . S
C703 C704 1.366 . S
C703 C705 1.388 . S
C704 C703 1.366 . S
C704 C708 1.385 . S
C705 H680 0.951 . S
C705 C703 1.388 . S
C705 C706 1.366 . S
C706 C705 1.366 . S
C706 C707 1.414 . S
C706 C709 1.499 . S
C707 H681 0.950 . S
C707 C706 1.414 . S
C707 C708 1.374 . S
C708 H682 0.950 . S
C708 C704 1.385 . S
C708 C707 1.374 . S
C709 C706 1.499 . S
C709 C710 1.373 . S
C709 C711 1.389 . S
C710 H683 0.950 . S
C710 C696 1.377 . S
C710 C709 1.373 . S
C711 C695 1.377 . S
C711 C709 1.389 . S
C711 C712 1.524 . S
C712 C711 1.524 . S
C712 C713 1.397 . S
C712 C717 1.363 . S
C713 H684 0.950 . S
C713 C712 1.397 . S
C713 C714 1.334 . S
C714 H685 0.950 . S
C714 C713 1.334 . S
C714 C715 1.287 . S
C715 C714 1.287 . S
C715 C716 1.524 . S
C715 H718 0.999 . S
C716 H686 0.950 . S
C716 C715 1.524 . S
C716 C717 1.415 . S
C717 H687 0.950 . S
C717 C712 1.363 . S
C717 C716 1.415 . S
H718 C715 0.999 . S
H719 C700 0.913 . S
H720 C738 0.951 . S
H721 C740 0.951 . S
H722 C742 0.950 . S
H723 C743 0.950 . S
H724 C745 0.950 . S
H725 C748 0.950 . S
H726 C749 0.950 . S
H727 C751 0.950 . S
H728 C752 0.950 . S
H729 C753 0.951 . S
H730 C755 0.951 . S
H731 C757 0.950 . S
H732 C758 0.950 . S
H733 C760 0.950 . S
H734 C763 0.950 . S
H735 C764 0.950 . S
H736 C766 0.950 . S
H737 C767 0.950 . S
C738 H720 0.951 . S
C738 C739 1.366 . S
C738 C740 1.388 . S
C739 C738 1.366 . S
C739 C743 1.385 . S
C740 H721 0.951 . S
C740 C738 1.388 . S
C740 C741 1.366 . S
C741 C740 1.366 . S
C741 C742 1.414 . S
C741 C744 1.499 . S
C742 H722 0.950 . S
C742 C741 1.414 . S
C742 C743 1.374 . S
C743 H723 0.950 . S
C743 C739 1.385 . S
C743 C742 1.374 . S
C744 C741 1.499 . S
C744 C745 1.373 . S
C744 C746 1.389 . S
C745 H724 0.950 . S
C745 C744 1.373 . S
C745 C761 1.377 . S
C746 C744 1.389 . S
C746 C747 1.524 . S
C746 C760 1.377 . S
C747 C746 1.524 . S
C747 C748 1.397 . S
C747 C752 1.363 . S
C748 H725 0.950 . S
C748 C747 1.397 . S
C748 C749 1.334 . S
C749 H726 0.950 . S
C749 C748 1.334 . S
C749 C750 1.287 . S
C750 C749 1.287 . S
C750 C751 1.524 . S
C750 H769 0.913 . S
C751 H727 0.950 . S
C751 C750 1.524 . S
C751 C752 1.415 . S
C752 H728 0.950 . S
C752 C747 1.363 . S
C752 C751 1.415 . S
C753 H729 0.951 . S
C753 C754 1.366 . S
C753 C755 1.388 . S
C754 C753 1.366 . S
C754 C758 1.385 . S
C755 H730 0.951 . S
C755 C753 1.388 . S
C755 C756 1.366 . S
C756 C755 1.366 . S
C756 C757 1.414 . S
C756 C759 1.499 . S
C757 H731 0.950 . S
C757 C756 1.414 . S
C757 C758 1.374 . S
C758 H732 0.950 . S
C758 C754 1.385 . S
C758 C757 1.374 . S
C759 C756 1.499 . S
C759 C760 1.373 . S
C759 C761 1.389 . S
C760 H733 0.950 . S
C760 C746 1.377 . S
C760 C759 1.373 . S
C761 C745 1.377 . S
C761 C759 1.389 . S
C761 C762 1.524 . S
C762 C761 1.524 . S
C762 C763 1.397 . S
C762 C767 1.363 . S
C763 H734 0.950 . S
C763 C762 1.397 . S
C763 C764 1.334 . S
C764 H735 0.950 . S
C764 C763 1.334 . S
C764 C765 1.287 . S
C765 C764 1.287 . S
C765 C766 1.524 . S
C765 H768 0.999 . S
C766 H736 0.950 . S
C766 C765 1.524 . S
C766 C767 1.415 . S
C767 H737 0.950 . S
C767 C762 1.363 . S
C767 C766 1.415 . S
H768 C765 0.999 . S
H769 C750 0.913 . S
H770 C788 0.951 . S
H771 C790 0.951 . S
H772 C792 0.950 . S
H773 C793 0.950 . S
H774 C795 0.950 . S
H775 C798 0.950 . S
H776 C799 0.950 . S
H777 C801 0.950 . S
H778 C802 0.950 . S
H779 C803 0.951 . S
H780 C805 0.951 . S
H781 C807 0.950 . S
H782 C808 0.950 . S
H783 C810 0.950 . S
H784 C813 0.950 . S
H785 C814 0.950 . S
H786 C816 0.950 . S
H787 C817 0.950 . S
C788 H770 0.951 . S
C788 C789 1.366 . S
C788 C790 1.388 . S
C789 C788 1.366 . S
C789 C793 1.385 . S
C790 H771 0.951 . S
C790 C788 1.388 . S
C790 C791 1.366 . S
C791 C790 1.366 . S
C791 C792 1.414 . S
C791 C794 1.499 . S
C792 H772 0.950 . S
C792 C791 1.414 . S
C792 C793 1.374 . S
C793 H773 0.950 . S
C793 C789 1.385 . S
C793 C792 1.374 . S
C794 C791 1.499 . S
C794 C795 1.373 . S
C794 C796 1.389 . S
C795 H774 0.950 . S
C795 C794 1.373 . S
C795 C811 1.377 . S
C796 C794 1.389 . S
C796 C797 1.524 . S
C796 C810 1.377 . S
C797 C796 1.524 . S
C797 C798 1.397 . S
C797 C802 1.363 . S
C798 H775 0.950 . S
C798 C797 1.397 . S
C798 C799 1.334 . S
C799 H776 0.950 . S
C799 C798 1.334 . S
C799 C800 1.287 . S
C800 C799 1.287 . S
C800 C801 1.524 . S
C800 H819 0.913 . S
C801 H777 0.950 . S
C801 C800 1.524 . S
C801 C802 1.415 . S
C802 H778 0.950 . S
C802 C797 1.363 . S
C802 C801 1.415 . S
C803 H779 0.951 . S
C803 C804 1.366 . S
C803 C805 1.388 . S
C804 C803 1.366 . S
C804 C808 1.385 . S
C805 H780 0.951 . S
C805 C803 1.388 . S
C805 C806 1.366 . S
C806 C805 1.366 . S
C806 C807 1.414 . S
C806 C809 1.499 . S
C807 H781 0.950 . S
C807 C806 1.414 . S
C807 C808 1.374 . S
C808 H782 0.950 . S
C808 C804 1.385 . S
C808 C807 1.374 . S
C809 C806 1.499 . S
C809 C810 1.373 . S
C809 C811 1.389 . S
C810 H783 0.950 . S
C810 C796 1.377 . S
C810 C809 1.373 . S
C811 C795 1.377 . S
C811 C809 1.389 . S
C811 C812 1.524 . S
C812 C811 1.524 . S
C812 C813 1.397 . S
C812 C817 1.363 . S
C813 H784 0.950 . S
C813 C812 1.397 . S
C813 C814 1.334 1_554 S
C814 H785 0.950 . S
C814 C813 1.334 1_556 S
C814 C815 1.287 . S
C815 C814 1.287 . S
C815 C816 1.524 . S
C815 H818 0.999 . S
C816 H786 0.950 . S
C816 C815 1.524 . S
C816 C817 1.415 1_556 S
C817 H787 0.950 . S
C817 C812 1.363 . S
C817 C816 1.415 1_554 S
H818 C815 0.999 . S
H819 C800 0.913 . S
H820 C838 0.951 . S
H821 C840 0.951 . S
H822 C842 0.950 . S
H823 C843 0.950 . S
H824 C845 0.950 . S
H825 C848 0.950 . S
H826 C849 0.950 . S
H827 C851 0.950 . S
H828 C852 0.950 . S
H829 C853 0.951 . S
H830 C855 0.951 . S
H831 C857 0.950 . S
H832 C858 0.950 . S
H833 C860 0.950 . S
H834 C863 0.950 . S
H835 C864 0.950 . S
H836 C866 0.950 . S
H837 C867 0.950 . S
C838 H820 0.951 . S
C838 C839 1.366 . S
C838 C840 1.388 . S
C839 C838 1.366 . S
C839 C843 1.385 . S
C840 H821 0.951 . S
C840 C838 1.388 . S
C840 C841 1.366 . S
C841 C840 1.366 . S
C841 C842 1.414 . S
C841 C844 1.499 . S
C842 H822 0.950 . S
C842 C841 1.414 . S
C842 C843 1.374 . S
C843 H823 0.950 . S
C843 C839 1.385 . S
C843 C842 1.374 . S
C844 C841 1.499 . S
C844 C845 1.373 . S
C844 C846 1.389 . S
C845 H824 0.950 . S
C845 C844 1.373 . S
C845 C861 1.377 . S
C846 C844 1.389 . S
C846 C847 1.524 . S
C846 C860 1.377 . S
C847 C846 1.524 . S
C847 C848 1.397 . S
C847 C852 1.363 . S
C848 H825 0.950 . S
C848 C847 1.397 . S
C848 C849 1.334 . S
C849 H826 0.950 . S
C849 C848 1.334 . S
C849 C850 1.287 . S
C850 C849 1.287 . S
C850 C851 1.524 . S
C850 H869 0.913 . S
C851 H827 0.950 . S
C851 C850 1.524 . S
C851 C852 1.415 . S
C852 H828 0.950 . S
C852 C847 1.363 . S
C852 C851 1.415 . S
C853 H829 0.951 . S
C853 C854 1.366 . S
C853 C855 1.388 . S
C854 C853 1.366 . S
C854 C858 1.385 . S
C855 H830 0.951 . S
C855 C853 1.388 . S
C855 C856 1.366 . S
C856 C855 1.366 . S
C856 C857 1.414 . S
C856 C859 1.499 . S
C857 H831 0.950 . S
C857 C856 1.414 . S
C857 C858 1.374 . S
C858 H832 0.950 . S
C858 C854 1.385 . S
C858 C857 1.374 . S
C859 C856 1.499 . S
C859 C860 1.373 . S
C859 C861 1.389 . S
C860 H833 0.950 . S
C860 C846 1.377 . S
C860 C859 1.373 . S
C861 C845 1.377 . S
C861 C859 1.389 . S
C861 C862 1.524 . S
C862 C861 1.524 . S
C862 C863 1.397 . S
C862 C867 1.363 . S
C863 H834 0.950 . S
C863 C862 1.397 . S
C863 C864 1.334 . S
C864 H835 0.950 . S
C864 C863 1.334 . S
C864 C865 1.287 . S
C865 C864 1.287 . S
C865 C866 1.524 . S
C865 H868 0.999 . S
C866 H836 0.950 . S
C866 C865 1.524 . S
C866 C867 1.415 . S
C867 H837 0.950 . S
C867 C862 1.363 . S
C867 C866 1.415 . S
H868 C865 0.999 . S
H869 C850 0.913 . S
H870 C888 0.951 . S
H871 C890 0.951 . S
H872 C892 0.950 . S
H873 C893 0.950 . S
H874 C895 0.950 . S
H875 C898 0.950 . S
H876 C899 0.950 . S
H877 C901 0.950 . S
H878 C902 0.950 . S
H879 C903 0.951 . S
H880 C905 0.951 . S
H881 C907 0.950 . S
H882 C908 0.950 . S
H883 C910 0.950 . S
H884 C913 0.950 . S
H885 C914 0.950 . S
H886 C916 0.950 . S
H887 C917 0.950 . S
C888 H870 0.951 . S
C888 C889 1.366 . S
C888 C890 1.388 . S
C889 C888 1.366 . S
C889 C893 1.385 . S
C890 H871 0.951 . S
C890 C888 1.388 . S
C890 C891 1.366 . S
C891 C890 1.366 . S
C891 C892 1.414 . S
C891 C894 1.499 . S
C892 H872 0.950 . S
C892 C891 1.414 . S
C892 C893 1.374 . S
C893 H873 0.950 . S
C893 C889 1.385 . S
C893 C892 1.374 . S
C894 C891 1.499 . S
C894 C895 1.373 . S
C894 C896 1.389 . S
C895 H874 0.950 . S
C895 C894 1.373 . S
C895 C911 1.377 . S
C896 C894 1.389 . S
C896 C897 1.524 . S
C896 C910 1.377 . S
C897 C896 1.524 . S
C897 C898 1.397 . S
C897 C902 1.363 . S
C898 H875 0.950 . S
C898 C897 1.397 . S
C898 C899 1.334 . S
C899 H876 0.950 . S
C899 C898 1.334 . S
C899 C900 1.287 . S
C900 C899 1.287 . S
C900 C901 1.524 . S
C900 H919 0.913 . S
C901 H877 0.950 . S
C901 C900 1.524 . S
C901 C902 1.415 . S
C902 H878 0.950 . S
C902 C897 1.363 . S
C902 C901 1.415 . S
C903 H879 0.951 . S
C903 C904 1.366 . S
C903 C905 1.388 . S
C904 C903 1.366 . S
C904 C908 1.385 . S
C905 H880 0.951 . S
C905 C903 1.388 . S
C905 C906 1.366 . S
C906 C905 1.366 . S
C906 C907 1.414 . S
C906 C909 1.499 . S
C907 H881 0.950 . S
C907 C906 1.414 . S
C907 C908 1.374 . S
C908 H882 0.950 . S
C908 C904 1.385 . S
C908 C907 1.374 . S
C909 C906 1.499 . S
C909 C910 1.373 . S
C909 C911 1.389 . S
C910 H883 0.950 . S
C910 C896 1.377 . S
C910 C909 1.373 . S
C911 C895 1.377 . S
C911 C909 1.389 . S
C911 C912 1.524 . S
C912 C911 1.524 . S
C912 C913 1.397 . S
C912 C917 1.363 . S
C913 H884 0.950 . S
C913 C912 1.397 . S
C913 C914 1.334 . S
C914 H885 0.950 . S
C914 C913 1.334 . S
C914 C915 1.287 . S
C915 C914 1.287 . S
C915 C916 1.524 . S
C915 H918 0.999 . S
C916 H886 0.950 . S
C916 C915 1.524 . S
C916 C917 1.415 . S
C917 H887 0.950 . S
C917 C912 1.363 . S
C917 C916 1.415 . S
H918 C915 0.999 . S
H919 C900 0.913 . S
H920 C938 0.951 . S
H921 C940 0.951 . S
H922 C942 0.950 . S
H923 C943 0.950 . S
H924 C945 0.950 . S
H925 C948 0.950 . S
H926 C949 0.950 . S
H927 C951 0.950 . S
H928 C952 0.950 . S
H929 C953 0.951 . S
H930 C955 0.951 . S
H931 C957 0.950 . S
H932 C958 0.950 . S
H933 C960 0.950 . S
H934 C963 0.950 . S
H935 C964 0.950 . S
H936 C966 0.950 . S
H937 C967 0.950 . S
C938 H920 0.951 . S
C938 C939 1.366 . S
C938 C940 1.388 . S
C939 C938 1.366 . S
C939 C943 1.385 . S
C940 H921 0.951 . S
C940 C938 1.388 . S
C940 C941 1.366 . S
C941 C940 1.366 . S
C941 C942 1.414 . S
C941 C944 1.499 . S
C942 H922 0.950 . S
C942 C941 1.414 . S
C942 C943 1.374 . S
C943 H923 0.950 . S
C943 C939 1.385 . S
C943 C942 1.374 . S
C944 C941 1.499 . S
C944 C945 1.373 . S
C944 C946 1.389 . S
C945 H924 0.950 . S
C945 C944 1.373 . S
C945 C961 1.377 . S
C946 C944 1.389 . S
C946 C947 1.524 . S
C946 C960 1.377 . S
C947 C946 1.524 . S
C947 C948 1.397 . S
C947 C952 1.363 . S
C948 H925 0.950 . S
C948 C947 1.397 . S
C948 C949 1.334 . S
C949 H926 0.950 . S
C949 C948 1.334 . S
C949 C950 1.287 . S
C950 C949 1.287 . S
C950 C951 1.524 . S
C950 H969 0.913 . S
C951 H927 0.950 . S
C951 C950 1.524 . S
C951 C952 1.415 . S
C952 H928 0.950 . S
C952 C947 1.363 . S
C952 C951 1.415 . S
C953 H929 0.951 . S
C953 C954 1.366 . S
C953 C955 1.388 . S
C954 C953 1.366 . S
C954 C958 1.385 . S
C955 H930 0.951 . S
C955 C953 1.388 . S
C955 C956 1.366 . S
C956 C955 1.366 . S
C956 C957 1.414 . S
C956 C959 1.499 . S
C957 H931 0.950 . S
C957 C956 1.414 . S
C957 C958 1.374 . S
C958 H932 0.950 . S
C958 C954 1.385 . S
C958 C957 1.374 . S
C959 C956 1.499 . S
C959 C960 1.373 . S
C959 C961 1.389 . S
C960 H933 0.950 . S
C960 C946 1.377 . S
C960 C959 1.373 . S
C961 C945 1.377 . S
C961 C959 1.389 . S
C961 C962 1.524 . S
C962 C961 1.524 . S
C962 C963 1.397 . S
C962 C967 1.363 . S
C963 H934 0.950 . S
C963 C962 1.397 . S
C963 C964 1.334 . S
C964 H935 0.950 . S
C964 C963 1.334 . S
C964 C965 1.287 . S
C965 C964 1.287 . S
C965 C966 1.524 . S
C965 H968 0.999 . S
C966 H936 0.950 . S
C966 C965 1.524 . S
C966 C967 1.415 . S
C967 H937 0.950 . S
C967 C962 1.363 . S
C967 C966 1.415 . S
H968 C965 0.999 . S
H969 C950 0.913 . S
H970 C988 0.951 . S
H971 C990 0.951 . S
H972 C992 0.950 . S
H973 C993 0.950 1_554 S
H974 C995 0.950 . S
H975 C998 0.950 . S
H976 C999 0.950 . S
H977 C1001 0.950 . S
H978 C1002 0.950 . S
H979 C1003 0.951 . S
H980 C1005 0.951 . S
H981 C1007 0.950 . S
H982 C1008 0.950 . S
H983 C1010 0.950 . S
H984 C1013 0.950 . S
H985 C1014 0.950 . S
H986 C1016 0.950 1_554 S
H987 C1017 0.950 . S
C988 H970 0.951 . S
C988 C989 1.366 . S
C988 C990 1.388 . S
C989 C988 1.366 . S
C989 C993 1.385 . S
C990 H971 0.951 . S
C990 C988 1.388 . S
C990 C991 1.366 . S
C991 C990 1.366 . S
C991 C992 1.414 . S
C991 C994 1.499 . S
C992 H972 0.950 . S
C992 C991 1.414 . S
C992 C993 1.374 . S
C993 H973 0.950 1_556 S
C993 C989 1.385 . S
C993 C992 1.374 . S
C994 C991 1.499 . S
C994 C995 1.373 . S
C994 C996 1.389 . S
C995 H974 0.950 . S
C995 C994 1.373 . S
C995 C1011 1.377 . S
C996 C994 1.389 . S
C996 C997 1.524 . S
C996 C1010 1.377 . S
C997 C996 1.524 . S
C997 C998 1.397 . S
C997 C1002 1.363 . S
C998 H975 0.950 . S
C998 C997 1.397 . S
C998 C999 1.334 . S
C999 H976 0.950 . S
C999 C998 1.334 . S
C999 C1000 1.287 . S
C1000 C999 1.287 . S
C1000 C1001 1.524 . S
C1000 H1019 0.913 . S
C1001 H977 0.950 . S
C1001 C1000 1.524 . S
C1001 C1002 1.415 . S
C1002 H978 0.950 . S
C1002 C997 1.363 . S
C1002 C1001 1.415 . S
C1003 H979 0.951 . S
C1003 C1004 1.366 . S
C1003 C1005 1.388 . S
C1004 C1003 1.366 . S
C1004 C1008 1.385 . S
C1005 H980 0.951 . S
C1005 C1003 1.388 . S
C1005 C1006 1.366 . S
C1006 C1005 1.366 . S
C1006 C1007 1.414 . S
C1006 C1009 1.499 . S
C1007 H981 0.950 . S
C1007 C1006 1.414 . S
C1007 C1008 1.374 . S
C1008 H982 0.950 . S
C1008 C1004 1.385 . S
C1008 C1007 1.374 . S
C1009 C1006 1.499 . S
C1009 C1010 1.373 . S
C1009 C1011 1.389 . S
C1010 H983 0.950 . S
C1010 C996 1.377 . S
C1010 C1009 1.373 . S
C1011 C995 1.377 . S
C1011 C1009 1.389 . S
C1011 C1012 1.524 . S
C1012 C1011 1.524 . S
C1012 C1013 1.397 . S
C1012 C1017 1.363 . S
C1013 H984 0.950 . S
C1013 C1012 1.397 . S
C1013 C1014 1.334 . S
C1014 H985 0.950 . S
C1014 C1013 1.334 . S
C1014 C1015 1.287 . S
C1015 C1014 1.287 . S
C1015 C1016 1.524 . S
C1015 H1018 0.999 . S
C1016 H986 0.950 1_556 S
C1016 C1015 1.524 . S
C1016 C1017 1.415 . S
C1017 H987 0.950 . S
C1017 C1012 1.363 . S
C1017 C1016 1.415 . S
H1018 C1015 0.999 . S
H1019 C1000 0.913 . S
H1020 C1038 0.951 . S
H1021 C1040 0.951 . S
H1022 C1042 0.950 . S
H1023 C1043 0.950 . S
H1024 C1045 0.950 . S
H1025 C1048 0.950 . S
H1026 C1049 0.950 . S
H1027 C1051 0.950 . S
H1028 C1052 0.950 . S
H1029 C1053 0.951 . S
H1030 C1055 0.951 . S
H1031 C1057 0.950 . S
H1032 C1058 0.950 . S
H1033 C1060 0.950 . S
H1034 C1063 0.950 . S
H1035 C1064 0.950 . S
H1036 C1066 0.950 . S
H1037 C1067 0.950 . S
C1038 H1020 0.951 . S
C1038 C1039 1.366 . S
C1038 C1040 1.388 . S
C1039 C1038 1.366 . S
C1039 C1043 1.385 . S
C1040 H1021 0.951 . S
C1040 C1038 1.388 . S
C1040 C1041 1.366 . S
C1041 C1040 1.366 . S
C1041 C1042 1.414 . S
C1041 C1044 1.499 . S
C1042 H1022 0.950 . S
C1042 C1041 1.414 . S
C1042 C1043 1.374 . S
C1043 H1023 0.950 . S
C1043 C1039 1.385 . S
C1043 C1042 1.374 . S
C1044 C1041 1.499 . S
C1044 C1045 1.373 . S
C1044 C1046 1.389 . S
C1045 H1024 0.950 . S
C1045 C1044 1.373 . S
C1045 C1061 1.377 . S
C1046 C1044 1.389 . S
C1046 C1047 1.524 . S
C1046 C1060 1.377 . S
C1047 C1046 1.524 . S
C1047 C1048 1.397 . S
C1047 C1052 1.363 . S
C1048 H1025 0.950 . S
C1048 C1047 1.397 . S
C1048 C1049 1.334 . S
C1049 H1026 0.950 . S
C1049 C1048 1.334 . S
C1049 C1050 1.287 . S
C1050 C1049 1.287 . S
C1050 C1051 1.524 . S
C1050 H1069 0.913 . S
C1051 H1027 0.950 . S
C1051 C1050 1.524 . S
C1051 C1052 1.415 . S
C1052 H1028 0.950 . S
C1052 C1047 1.363 . S
C1052 C1051 1.415 . S
C1053 H1029 0.951 . S
C1053 C1054 1.366 . S
C1053 C1055 1.388 . S
C1054 C1053 1.366 . S
C1054 C1058 1.385 . S
C1055 H1030 0.951 . S
C1055 C1053 1.388 . S
C1055 C1056 1.366 . S
C1056 C1055 1.366 . S
C1056 C1057 1.414 . S
C1056 C1059 1.499 . S
C1057 H1031 0.950 . S
C1057 C1056 1.414 . S
C1057 C1058 1.374 . S
C1058 H1032 0.950 . S
C1058 C1054 1.385 . S
C1058 C1057 1.374 . S
C1059 C1056 1.499 . S
C1059 C1060 1.373 . S
C1059 C1061 1.389 . S
C1060 H1033 0.950 . S
C1060 C1046 1.377 . S
C1060 C1059 1.373 . S
C1061 C1045 1.377 . S
C1061 C1059 1.389 . S
C1061 C1062 1.524 . S
C1062 C1061 1.524 . S
C1062 C1063 1.397 . S
C1062 C1067 1.363 . S
C1063 H1034 0.950 . S
C1063 C1062 1.397 . S
C1063 C1064 1.334 . S
C1064 H1035 0.950 . S
C1064 C1063 1.334 . S
C1064 C1065 1.287 . S
C1065 C1064 1.287 . S
C1065 C1066 1.524 . S
C1065 H1068 0.999 . S
C1066 H1036 0.950 . S
C1066 C1065 1.524 . S
C1066 C1067 1.415 . S
C1067 H1037 0.950 . S
C1067 C1062 1.363 . S
C1067 C1066 1.415 . S
H1068 C1065 0.999 . S
H1069 C1050 0.913 . S
H1070 C1088 0.951 . S
H1071 C1090 0.951 . S
H1072 C1092 0.950 . S
H1073 C1093 0.950 . S
H1074 C1095 0.950 . S
H1075 C1098 0.950 . S
H1076 C1099 0.950 . S
H1077 C1101 0.950 . S
H1078 C1102 0.950 . S
H1079 C1103 0.951 . S
H1080 C1105 0.951 . S
H1081 C1107 0.950 . S
H1082 C1108 0.950 . S
H1083 C1110 0.950 . S
H1084 C1113 0.950 . S
H1085 C1114 0.950 . S
H1086 C1116 0.950 . S
H1087 C1117 0.950 . S
C1088 H1070 0.951 . S
C1088 C1089 1.366 . S
C1088 C1090 1.388 . S
C1089 C1088 1.366 . S
C1089 C1093 1.385 . S
C1090 H1071 0.951 . S
C1090 C1088 1.388 . S
C1090 C1091 1.366 . S
C1091 C1090 1.366 . S
C1091 C1092 1.414 . S
C1091 C1094 1.499 . S
C1092 H1072 0.950 . S
C1092 C1091 1.414 . S
C1092 C1093 1.374 . S
C1093 H1073 0.950 . S
C1093 C1089 1.385 . S
C1093 C1092 1.374 . S
C1094 C1091 1.499 . S
C1094 C1095 1.373 . S
C1094 C1096 1.389 . S
C1095 H1074 0.950 . S
C1095 C1094 1.373 . S
C1095 C1111 1.377 . S
C1096 C1094 1.389 . S
C1096 C1097 1.524 . S
C1096 C1110 1.377 . S
C1097 C1096 1.524 . S
C1097 C1098 1.397 . S
C1097 C1102 1.363 . S
C1098 H1075 0.950 . S
C1098 C1097 1.397 . S
C1098 C1099 1.334 . S
C1099 H1076 0.950 . S
C1099 C1098 1.334 . S
C1099 C1100 1.287 . S
C1100 C1099 1.287 . S
C1100 C1101 1.524 . S
C1100 H1119 0.913 . S
C1101 H1077 0.950 . S
C1101 C1100 1.524 . S
C1101 C1102 1.415 . S
C1102 H1078 0.950 . S
C1102 C1097 1.363 . S
C1102 C1101 1.415 . S
C1103 H1079 0.951 . S
C1103 C1104 1.366 . S
C1103 C1105 1.388 . S
C1104 C1103 1.366 . S
C1104 C1108 1.385 . S
C1105 H1080 0.951 . S
C1105 C1103 1.388 . S
C1105 C1106 1.366 . S
C1106 C1105 1.366 . S
C1106 C1107 1.414 . S
C1106 C1109 1.499 . S
C1107 H1081 0.950 . S
C1107 C1106 1.414 . S
C1107 C1108 1.374 . S
C1108 H1082 0.950 . S
C1108 C1104 1.385 . S
C1108 C1107 1.374 . S
C1109 C1106 1.499 . S
C1109 C1110 1.373 . S
C1109 C1111 1.389 . S
C1110 H1083 0.950 . S
C1110 C1096 1.377 . S
C1110 C1109 1.373 . S
C1111 C1095 1.377 . S
C1111 C1109 1.389 . S
C1111 C1112 1.524 . S
C1112 C1111 1.524 . S
C1112 C1113 1.397 . S
C1112 C1117 1.363 . S
C1113 H1084 0.950 . S
C1113 C1112 1.397 . S
C1113 C1114 1.334 . S
C1114 H1085 0.950 . S
C1114 C1113 1.334 . S
C1114 C1115 1.287 . S
C1115 C1114 1.287 . S
C1115 C1116 1.524 . S
C1115 H1118 0.999 . S
C1116 H1086 0.950 . S
C1116 C1115 1.524 . S
C1116 C1117 1.415 . S
C1117 H1087 0.950 . S
C1117 C1112 1.363 . S
C1117 C1116 1.415 . S
H1118 C1115 0.999 . S
H1119 C1100 0.913 . S
H1120 C1138 0.951 1_455 S
H1121 C1140 0.957 . S
H1122 C1142 0.950 . S
H1123 C1143 0.950 . S
H1124 C1145 0.950 . S
H1125 C1148 0.950 . S
H1126 C1149 0.950 . S
H1127 C1151 0.950 . S
H1128 C1152 0.950 . S
H1129 C1153 0.951 1_655 S
H1130 C1155 0.952 . S
H1131 C1157 0.950 . S
H1132 C1158 0.950 . S
H1133 C1160 0.950 . S
H1134 C1163 0.950 . S
H1135 C1164 0.950 . S
H1136 C1166 0.950 . S
H1137 C1167 0.950 . S
C1138 H1120 0.951 1_655 S
C1138 C1139 1.366 1_545 S
C1138 C1140 1.387 1_655 S
C1139 C1138 1.366 1_565 S
C1139 C1143 1.385 . S
C1140 H1121 0.957 . S
C1140 C1138 1.387 1_455 S
C1140 C1141 1.360 1_445 S
C1141 C1140 1.360 1_665 S
C1141 C1142 1.414 . S
C1141 C1144 1.499 . S
C1142 H1122 0.950 . S
C1142 C1141 1.414 . S
C1142 C1143 1.374 . S
C1143 H1123 0.950 . S
C1143 C1139 1.385 . S
C1143 C1142 1.374 . S
C1144 C1141 1.499 . S
C1144 C1145 1.373 . S
C1144 C1146 1.389 1_665 S
C1145 H1124 0.950 . S
C1145 C1144 1.373 . S
C1145 C1161 1.377 1_556 S
C1146 C1144 1.389 1_445 S
C1146 C1147 1.524 . S
C1146 C1160 1.377 1_556 S
C1147 C1146 1.524 . S
C1147 C1148 1.397 1_545 S
C1147 C1152 1.363 . S
C1148 H1125 0.950 . S
C1148 C1147 1.397 1_565 S
C1148 C1149 1.334 . S
C1149 H1126 0.950 . S
C1149 C1148 1.334 . S
C1149 C1150 1.287 . S
C1150 C1149 1.287 . S
C1150 C1151 1.524 1_565 S
C1150 H1169 0.913 . S
C1151 H1127 0.950 . S
C1151 C1150 1.524 1_545 S
C1151 C1152 1.415 . S
C1152 H1128 0.950 . S
C1152 C1147 1.363 . S
C1152 C1151 1.415 . S
C1153 H1129 0.951 1_455 S
C1153 C1154 1.366 1_565 S
C1153 C1155 1.388 1_455 S
C1154 C1153 1.366 1_545 S
C1154 C1158 1.385 . S
C1155 H1130 0.952 . S
C1155 C1153 1.388 1_655 S
C1155 C1156 1.364 1_665 S
C1156 C1155 1.364 1_445 S
C1156 C1157 1.414 . S
C1156 C1159 1.499 . S
C1157 H1131 0.950 . S
C1157 C1156 1.414 . S
C1157 C1158 1.374 . S
C1158 H1132 0.950 . S
C1158 C1154 1.385 . S
C1158 C1157 1.374 . S
C1159 C1156 1.499 . S
C1159 C1160 1.373 . S
C1159 C1161 1.389 1_445 S
C1160 H1133 0.950 . S
C1160 C1146 1.377 1_554 S
C1160 C1159 1.373 . S
C1161 C1145 1.377 1_554 S
C1161 C1159 1.389 1_665 S
C1161 C1162 1.524 . S
C1162 C1161 1.524 . S
C1162 C1163 1.397 1_565 S
C1162 C1167 1.363 . S
C1163 H1134 0.950 . S
C1163 C1162 1.397 1_545 S
C1163 C1164 1.334 . S
C1164 H1135 0.950 . S
C1164 C1163 1.334 . S
C1164 C1165 1.287 . S
C1165 C1164 1.287 . S
C1165 C1166 1.524 1_545 S
C1165 H1168 0.999 . S
C1166 H1136 0.950 . S
C1166 C1165 1.524 1_565 S
C1166 C1167 1.415 . S
C1167 H1137 0.950 . S
C1167 C1162 1.363 . S
C1167 C1166 1.415 . S
H1168 C1165 0.999 . S
H1169 C1150 0.913 . S
H1170 C1188 0.951 . S
H1171 C1190 0.951 . S
H1172 C1192 0.950 . S
H1173 C1193 0.950 . S
H1174 C1195 0.950 . S
H1175 C1198 0.950 . S
H1176 C1199 0.950 . S
H1177 C1201 0.950 . S
H1178 C1202 0.950 . S
H1179 C1203 0.951 . S
H1180 C1205 0.951 . S
H1181 C1207 0.950 . S
H1182 C1208 0.950 . S
H1183 C1210 0.950 . S
H1184 C1213 0.950 . S
H1185 C1214 0.950 . S
H1186 C1216 0.950 . S
H1187 C1217 0.950 . S
C1188 H1170 0.951 . S
C1188 C1189 1.366 . S
C1188 C1190 1.388 . S
C1189 C1188 1.366 . S
C1189 C1193 1.385 . S
C1190 H1171 0.951 . S
C1190 C1188 1.388 . S
C1190 C1191 1.366 . S
C1191 C1190 1.366 . S
C1191 C1192 1.414 . S
C1191 C1194 1.499 . S
C1192 H1172 0.950 . S
C1192 C1191 1.414 . S
C1192 C1193 1.374 . S
C1193 H1173 0.950 . S
C1193 C1189 1.385 . S
C1193 C1192 1.374 . S
C1194 C1191 1.499 . S
C1194 C1195 1.373 . S
C1194 C1196 1.389 . S
C1195 H1174 0.950 . S
C1195 C1194 1.373 . S
C1195 C1211 1.377 . S
C1196 C1194 1.389 . S
C1196 C1197 1.524 . S
C1196 C1210 1.377 . S
C1197 C1196 1.524 . S
C1197 C1198 1.397 . S
C1197 C1202 1.363 . S
C1198 H1175 0.950 . S
C1198 C1197 1.397 . S
C1198 C1199 1.334 . S
C1199 H1176 0.950 . S
C1199 C1198 1.334 . S
C1199 C1200 1.287 . S
C1200 C1199 1.287 . S
C1200 C1201 1.524 . S
C1200 H1219 0.913 . S
C1201 H1177 0.950 . S
C1201 C1200 1.524 . S
C1201 C1202 1.415 . S
C1202 H1178 0.950 . S
C1202 C1197 1.363 . S
C1202 C1201 1.415 . S
C1203 H1179 0.951 . S
C1203 C1204 1.366 . S
C1203 C1205 1.388 . S
C1204 C1203 1.366 . S
C1204 C1208 1.385 . S
C1205 H1180 0.951 . S
C1205 C1203 1.388 . S
C1205 C1206 1.366 . S
C1206 C1205 1.366 . S
C1206 C1207 1.414 . S
C1206 C1209 1.499 . S
C1207 H1181 0.950 . S
C1207 C1206 1.414 . S
C1207 C1208 1.374 . S
C1208 H1182 0.950 . S
C1208 C1204 1.385 . S
C1208 C1207 1.374 . S
C1209 C1206 1.499 . S
C1209 C1210 1.373 . S
C1209 C1211 1.389 . S
C1210 H1183 0.950 . S
C1210 C1196 1.377 . S
C1210 C1209 1.373 . S
C1211 C1195 1.377 . S
C1211 C1209 1.389 . S
C1211 C1212 1.524 . S
C1212 C1211 1.524 . S
C1212 C1213 1.397 . S
C1212 C1217 1.363 . S
C1213 H1184 0.950 . S
C1213 C1212 1.397 . S
C1213 C1214 1.334 . S
C1214 H1185 0.950 . S
C1214 C1213 1.334 . S
C1214 C1215 1.287 . S
C1215 C1214 1.287 . S
C1215 C1216 1.524 . S
C1215 H1218 0.999 . S
C1216 H1186 0.950 . S
C1216 C1215 1.524 . S
C1216 C1217 1.415 . S
C1217 H1187 0.950 . S
C1217 C1212 1.363 . S
C1217 C1216 1.415 . S
H1218 C1215 0.999 . S
H1219 C1200 0.913 . S
H1220 C1238 0.951 . S
H1221 C1240 0.951 . S
H1222 C1242 0.950 . S
H1223 C1243 0.950 . S
H1224 C1245 0.955 . S
H1225 C1248 0.950 . S
H1226 C1249 0.950 . S
H1227 C1251 0.950 . S
H1228 C1252 0.950 . S
H1229 C1253 0.951 . S
H1230 C1255 0.951 . S
H1231 C1257 0.950 . S
H1232 C1258 0.950 . S
H1233 C1260 0.953 . S
H1234 C1263 0.950 . S
H1235 C1264 0.950 . S
H1236 C1266 0.950 . S
H1237 C1267 0.950 . S
C1238 H1220 0.951 . S
C1238 C1239 1.366 . S
C1238 C1240 1.388 . S
C1239 C1238 1.366 . S
C1239 C1243 1.385 1_545 S
C1240 H1221 0.951 . S
C1240 C1238 1.388 . S
C1240 C1241 1.366 . S
C1241 C1240 1.366 . S
C1241 C1242 1.414 1_545 S
C1241 C1244 1.499 . S
C1242 H1222 0.950 . S
C1242 C1241 1.414 1_565 S
C1242 C1243 1.374 . S
C1243 H1223 0.950 . S
C1243 C1239 1.385 1_565 S
C1243 C1242 1.374 . S
C1244 C1241 1.499 . S
C1244 C1245 1.378 . S
C1244 C1246 1.389 . S
C1245 H1224 0.955 . S
C1245 C1244 1.378 . S
C1245 C1261 1.361 1_545 S
C1246 C1244 1.389 . S
C1246 C1247 1.525 . S
C1246 C1260 1.371 1_545 S
C1247 C1246 1.525 . S
C1247 C1248 1.399 1_545 S
C1247 C1252 1.361 . S
C1248 H1225 0.950 . S
C1248 C1247 1.399 1_565 S
C1248 C1249 1.334 . S
C1249 H1226 0.950 . S
C1249 C1248 1.334 . S
C1249 C1250 1.287 . S
C1250 C1249 1.287 . S
C1250 C1251 1.524 1_565 S
C1250 H1269 0.913 . S
C1251 H1227 0.950 . S
C1251 C1250 1.524 1_545 S
C1251 C1252 1.415 . S
C1252 H1228 0.950 . S
C1252 C1247 1.361 . S
C1252 C1251 1.415 . S
C1253 H1229 0.951 . S
C1253 C1254 1.366 . S
C1253 C1255 1.388 . S
C1254 C1253 1.366 . S
C1254 C1258 1.385 1_565 S
C1255 H1230 0.951 . S
C1255 C1253 1.388 . S
C1255 C1256 1.366 . S
C1256 C1255 1.366 . S
C1256 C1257 1.414 1_565 S
C1256 C1259 1.499 . S
C1257 H1231 0.950 . S
C1257 C1256 1.414 1_545 S
C1257 C1258 1.374 . S
C1258 H1232 0.950 . S
C1258 C1254 1.385 1_545 S
C1258 C1257 1.374 . S
C1259 C1256 1.499 . S
C1259 C1260 1.377 . S
C1259 C1261 1.395 . S
C1260 H1233 0.953 . S
C1260 C1246 1.371 1_565 S
C1260 C1259 1.377 . S
C1261 C1245 1.361 1_565 S
C1261 C1259 1.395 . S
C1261 C1262 1.527 1_565 S
C1262 C1261 1.527 1_545 S
C1262 C1263 1.399 . S
C1262 C1267 1.361 1_545 S
C1263 H1234 0.950 . S
C1263 C1262 1.399 . S
C1263 C1264 1.334 . S
C1264 H1235 0.950 . S
C1264 C1263 1.334 . S
C1264 C1265 1.287 . S
C1265 C1264 1.287 . S
C1265 C1266 1.524 1_545 S
C1265 H1268 0.999 . S
C1266 H1236 0.950 . S
C1266 C1265 1.524 1_565 S
C1266 C1267 1.415 . S
C1267 H1237 0.950 . S
C1267 C1262 1.361 1_565 S
C1267 C1266 1.415 . S
H1268 C1265 0.999 . S
H1269 C1250 0.913 . S
H1270 C1288 0.951 . S
H1271 C1290 0.951 . S
H1272 C1292 0.950 . S
H1273 C1293 0.950 . S
H1274 C1295 0.950 . S
H1275 C1298 0.950 . S
H1276 C1299 0.950 . S
H1277 C1301 0.950 . S
H1278 C1302 0.950 . S
H1279 C1303 0.951 . S
H1280 C1305 0.951 . S
H1281 C1307 0.950 . S
H1282 C1308 0.950 . S
H1283 C1310 0.950 . S
H1284 C1313 0.950 . S
H1285 C1314 0.950 . S
H1286 C1316 0.950 . S
H1287 C1317 0.950 . S
C1288 H1270 0.951 . S
C1288 C1289 1.366 . S
C1288 C1290 1.388 . S
C1289 C1288 1.366 . S
C1289 C1293 1.385 . S
C1290 H1271 0.951 . S
C1290 C1288 1.388 . S
C1290 C1291 1.366 . S
C1291 C1290 1.366 . S
C1291 C1292 1.414 . S
C1291 C1294 1.499 . S
C1292 H1272 0.950 . S
C1292 C1291 1.414 . S
C1292 C1293 1.374 . S
C1293 H1273 0.950 . S
C1293 C1289 1.385 . S
C1293 C1292 1.374 . S
C1294 C1291 1.499 . S
C1294 C1295 1.373 . S
C1294 C1296 1.389 . S
C1295 H1274 0.950 . S
C1295 C1294 1.373 . S
C1295 C1311 1.377 . S
C1296 C1294 1.389 . S
C1296 C1297 1.524 . S
C1296 C1310 1.377 . S
C1297 C1296 1.524 . S
C1297 C1298 1.397 . S
C1297 C1302 1.363 . S
C1298 H1275 0.950 . S
C1298 C1297 1.397 . S
C1298 C1299 1.334 . S
C1299 H1276 0.950 . S
C1299 C1298 1.334 . S
C1299 C1300 1.287 . S
C1300 C1299 1.287 . S
C1300 C1301 1.524 . S
C1300 H1319 0.913 . S
C1301 H1277 0.950 . S
C1301 C1300 1.524 . S
C1301 C1302 1.415 . S
C1302 H1278 0.950 . S
C1302 C1297 1.363 . S
C1302 C1301 1.415 . S
C1303 H1279 0.951 . S
C1303 C1304 1.366 . S
C1303 C1305 1.388 . S
C1304 C1303 1.366 . S
C1304 C1308 1.385 . S
C1305 H1280 0.951 . S
C1305 C1303 1.388 . S
C1305 C1306 1.366 . S
C1306 C1305 1.366 . S
C1306 C1307 1.414 . S
C1306 C1309 1.499 . S
C1307 H1281 0.950 . S
C1307 C1306 1.414 . S
C1307 C1308 1.374 . S
C1308 H1282 0.950 . S
C1308 C1304 1.385 . S
C1308 C1307 1.374 . S
C1309 C1306 1.499 . S
C1309 C1310 1.373 . S
C1309 C1311 1.389 . S
C1310 H1283 0.950 . S
C1310 C1296 1.377 . S
C1310 C1309 1.373 . S
C1311 C1295 1.377 . S
C1311 C1309 1.389 . S
C1311 C1312 1.524 . S
C1312 C1311 1.524 . S
C1312 C1313 1.397 . S
C1312 C1317 1.363 . S
C1313 H1284 0.950 . S
C1313 C1312 1.397 . S
C1313 C1314 1.334 . S
C1314 H1285 0.950 . S
C1314 C1313 1.334 . S
C1314 C1315 1.287 . S
C1315 C1314 1.287 . S
C1315 C1316 1.524 . S
C1315 H1318 0.999 . S
C1316 H1286 0.950 . S
C1316 C1315 1.524 . S
C1316 C1317 1.415 . S
C1317 H1287 0.950 . S
C1317 C1312 1.363 . S
C1317 C1316 1.415 . S
H1318 C1315 0.999 . S
H1319 C1300 0.913 . S
H1320 C1338 0.951 . S
H1321 C1340 0.951 . S
H1322 C1342 0.950 . S
H1323 C1343 0.950 . S
H1324 C1345 0.950 . S
H1325 C1348 0.950 . S
H1326 C1349 0.950 . S
H1327 C1351 0.950 . S
H1328 C1352 0.950 . S
H1329 C1353 0.951 . S
H1330 C1355 0.951 . S
H1331 C1357 0.950 . S
H1332 C1358 0.950 . S
H1333 C1360 0.950 . S
H1334 C1363 0.950 . S
H1335 C1364 0.950 . S
H1336 C1366 0.950 . S
H1337 C1367 0.950 . S
C1338 H1320 0.951 . S
C1338 C1339 1.366 . S
C1338 C1340 1.388 . S
C1339 C1338 1.366 . S
C1339 C1343 1.385 . S
C1340 H1321 0.951 . S
C1340 C1338 1.388 . S
C1340 C1341 1.366 . S
C1341 C1340 1.366 . S
C1341 C1342 1.414 . S
C1341 C1344 1.499 . S
C1342 H1322 0.950 . S
C1342 C1341 1.414 . S
C1342 C1343 1.374 . S
C1343 H1323 0.950 . S
C1343 C1339 1.385 . S
C1343 C1342 1.374 . S
C1344 C1341 1.499 . S
C1344 C1345 1.373 . S
C1344 C1346 1.389 . S
C1345 H1324 0.950 . S
C1345 C1344 1.373 . S
C1345 C1361 1.377 . S
C1346 C1344 1.389 . S
C1346 C1347 1.524 . S
C1346 C1360 1.377 . S
C1347 C1346 1.524 . S
C1347 C1348 1.397 . S
C1347 C1352 1.363 . S
C1348 H1325 0.950 . S
C1348 C1347 1.397 . S
C1348 C1349 1.334 . S
C1349 H1326 0.950 . S
C1349 C1348 1.334 . S
C1349 C1350 1.287 . S
C1350 C1349 1.287 . S
C1350 C1351 1.524 . S
C1350 H1369 0.913 . S
C1351 H1327 0.950 . S
C1351 C1350 1.524 . S
C1351 C1352 1.415 . S
C1352 H1328 0.950 . S
C1352 C1347 1.363 . S
C1352 C1351 1.415 . S
C1353 H1329 0.951 . S
C1353 C1354 1.366 . S
C1353 C1355 1.388 . S
C1354 C1353 1.366 . S
C1354 C1358 1.385 . S
C1355 H1330 0.951 . S
C1355 C1353 1.388 . S
C1355 C1356 1.366 . S
C1356 C1355 1.366 . S
C1356 C1357 1.414 . S
C1356 C1359 1.499 . S
C1357 H1331 0.950 . S
C1357 C1356 1.414 . S
C1357 C1358 1.374 . S
C1358 H1332 0.950 . S
C1358 C1354 1.385 . S
C1358 C1357 1.374 . S
C1359 C1356 1.499 . S
C1359 C1360 1.373 . S
C1359 C1361 1.389 . S
C1360 H1333 0.950 . S
C1360 C1346 1.377 . S
C1360 C1359 1.373 . S
C1361 C1345 1.377 . S
C1361 C1359 1.389 . S
C1361 C1362 1.524 . S
C1362 C1361 1.524 . S
C1362 C1363 1.397 . S
C1362 C1367 1.363 . S
C1363 H1334 0.950 . S
C1363 C1362 1.397 . S
C1363 C1364 1.334 . S
C1364 H1335 0.950 . S
C1364 C1363 1.334 . S
C1364 C1365 1.287 . S
C1365 C1364 1.287 . S
C1365 C1366 1.524 . S
C1365 H1368 0.999 . S
C1366 H1336 0.950 . S
C1366 C1365 1.524 . S
C1366 C1367 1.415 . S
C1367 H1337 0.950 . S
C1367 C1362 1.363 . S
C1367 C1366 1.415 . S
H1368 C1365 0.999 . S
H1369 C1350 0.913 . S
H1370 C1388 0.951 . S
H1371 C1390 0.951 . S
H1372 C1392 0.950 . S
H1373 C1393 0.950 . S
H1374 C1395 0.950 . S
H1375 C1398 0.950 . S
H1376 C1399 0.950 . S
H1377 C1401 0.950 . S
H1378 C1402 0.950 . S
H1379 C1403 0.951 . S
H1380 C1405 0.951 . S
H1381 C1407 0.950 . S
H1382 C1408 0.950 . S
H1383 C1410 0.950 . S
H1384 C1413 0.950 . S
H1385 C1414 0.950 . S
H1386 C1416 0.950 . S
H1387 C1417 0.950 . S
C1388 H1370 0.951 . S
C1388 C1389 1.366 . S
C1388 C1390 1.388 . S
C1389 C1388 1.366 . S
C1389 C1393 1.385 . S
C1390 H1371 0.951 . S
C1390 C1388 1.388 . S
C1390 C1391 1.366 . S
C1391 C1390 1.366 . S
C1391 C1392 1.414 . S
C1391 C1394 1.499 . S
C1392 H1372 0.950 . S
C1392 C1391 1.414 . S
C1392 C1393 1.374 . S
C1393 H1373 0.950 . S
C1393 C1389 1.385 . S
C1393 C1392 1.374 . S
C1394 C1391 1.499 . S
C1394 C1395 1.373 . S
C1394 C1396 1.389 . S
C1395 H1374 0.950 . S
C1395 C1394 1.373 . S
C1395 C1411 1.377 . S
C1396 C1394 1.389 . S
C1396 C1397 1.524 . S
C1396 C1410 1.377 . S
C1397 C1396 1.524 . S
C1397 C1398 1.397 . S
C1397 C1402 1.363 . S
C1398 H1375 0.950 . S
C1398 C1397 1.397 . S
C1398 C1399 1.334 . S
C1399 H1376 0.950 . S
C1399 C1398 1.334 . S
C1399 C1400 1.287 . S
C1400 C1399 1.287 . S
C1400 C1401 1.524 . S
C1400 H1419 0.913 . S
C1401 H1377 0.950 . S
C1401 C1400 1.524 . S
C1401 C1402 1.415 . S
C1402 H1378 0.950 . S
C1402 C1397 1.363 . S
C1402 C1401 1.415 . S
C1403 H1379 0.951 . S
C1403 C1404 1.366 . S
C1403 C1405 1.388 . S
C1404 C1403 1.366 . S
C1404 C1408 1.385 . S
C1405 H1380 0.951 . S
C1405 C1403 1.388 . S
C1405 C1406 1.366 . S
C1406 C1405 1.366 . S
C1406 C1407 1.414 . S
C1406 C1409 1.499 . S
C1407 H1381 0.950 . S
C1407 C1406 1.414 . S
C1407 C1408 1.374 . S
C1408 H1382 0.950 . S
C1408 C1404 1.385 . S
C1408 C1407 1.374 . S
C1409 C1406 1.499 . S
C1409 C1410 1.373 . S
C1409 C1411 1.389 . S
C1410 H1383 0.950 . S
C1410 C1396 1.377 . S
C1410 C1409 1.373 . S
C1411 C1395 1.377 . S
C1411 C1409 1.389 . S
C1411 C1412 1.524 . S
C1412 C1411 1.524 . S
C1412 C1413 1.397 . S
C1412 C1417 1.363 . S
C1413 H1384 0.950 . S
C1413 C1412 1.397 . S
C1413 C1414 1.334 . S
C1414 H1385 0.950 . S
C1414 C1413 1.334 . S
C1414 C1415 1.287 . S
C1415 C1414 1.287 . S
C1415 C1416 1.524 . S
C1415 H1418 0.999 . S
C1416 H1386 0.950 . S
C1416 C1415 1.524 . S
C1416 C1417 1.415 . S
C1417 H1387 0.950 . S
C1417 C1412 1.363 . S
C1417 C1416 1.415 . S
H1418 C1415 0.999 . S
H1419 C1400 0.913 . S
H1420 C1438 0.951 . S
H1421 C1440 0.951 . S
H1422 C1442 0.950 . S
H1423 C1443 0.950 . S
H1424 C1445 0.950 . S
H1425 C1448 0.950 . S
H1426 C1449 0.950 . S
H1427 C1451 0.950 . S
H1428 C1452 0.950 . S
H1429 C1453 0.951 . S
H1430 C1455 0.951 . S
H1431 C1457 0.950 . S
H1432 C1458 0.950 . S
H1433 C1460 0.950 . S
H1434 C1463 0.950 . S
H1435 C1464 0.950 . S
H1436 C1466 0.950 . S
H1437 C1467 0.950 . S
C1438 H1420 0.951 . S
C1438 C1439 1.366 . S
C1438 C1440 1.388 . S
C1439 C1438 1.366 . S
C1439 C1443 1.385 . S
C1440 H1421 0.951 . S
C1440 C1438 1.388 . S
C1440 C1441 1.366 . S
C1441 C1440 1.366 . S
C1441 C1442 1.414 . S
C1441 C1444 1.499 . S
C1442 H1422 0.950 . S
C1442 C1441 1.414 . S
C1442 C1443 1.374 . S
C1443 H1423 0.950 . S
C1443 C1439 1.385 . S
C1443 C1442 1.374 . S
C1444 C1441 1.499 . S
C1444 C1445 1.373 . S
C1444 C1446 1.389 . S
C1445 H1424 0.950 . S
C1445 C1444 1.373 . S
C1445 C1461 1.377 . S
C1446 C1444 1.389 . S
C1446 C1447 1.524 . S
C1446 C1460 1.377 . S
C1447 C1446 1.524 . S
C1447 C1448 1.397 . S
C1447 C1452 1.363 . S
C1448 H1425 0.950 . S
C1448 C1447 1.397 . S
C1448 C1449 1.334 . S
C1449 H1426 0.950 . S
C1449 C1448 1.334 . S
C1449 C1450 1.287 . S
C1450 C1449 1.287 . S
C1450 C1451 1.524 . S
C1450 H1469 0.913 . S
C1451 H1427 0.950 . S
C1451 C1450 1.524 . S
C1451 C1452 1.415 . S
C1452 H1428 0.950 . S
C1452 C1447 1.363 . S
C1452 C1451 1.415 . S
C1453 H1429 0.951 . S
C1453 C1454 1.366 . S
C1453 C1455 1.388 . S
C1454 C1453 1.366 . S
C1454 C1458 1.385 . S
C1455 H1430 0.951 . S
C1455 C1453 1.388 . S
C1455 C1456 1.366 . S
C1456 C1455 1.366 . S
C1456 C1457 1.414 . S
C1456 C1459 1.499 . S
C1457 H1431 0.950 . S
C1457 C1456 1.414 . S
C1457 C1458 1.374 . S
C1458 H1432 0.950 . S
C1458 C1454 1.385 . S
C1458 C1457 1.374 . S
C1459 C1456 1.499 . S
C1459 C1460 1.373 . S
C1459 C1461 1.389 . S
C1460 H1433 0.950 . S
C1460 C1446 1.377 . S
C1460 C1459 1.373 . S
C1461 C1445 1.377 . S
C1461 C1459 1.389 . S
C1461 C1462 1.524 . S
C1462 C1461 1.524 . S
C1462 C1463 1.397 . S
C1462 C1467 1.363 . S
C1463 H1434 0.950 . S
C1463 C1462 1.397 . S
C1463 C1464 1.334 . S
C1464 H1435 0.950 . S
C1464 C1463 1.334 . S
C1464 C1465 1.287 . S
C1465 C1464 1.287 . S
C1465 C1466 1.524 . S
C1465 H1468 0.999 . S
C1466 H1436 0.950 . S
C1466 C1465 1.524 . S
C1466 C1467 1.415 . S
C1467 H1437 0.950 . S
C1467 C1462 1.363 . S
C1467 C1466 1.415 . S
H1468 C1465 0.999 . S
H1469 C1450 0.913 . S
H1470 C1488 0.951 . S
H1471 C1490 0.951 . S
H1472 C1492 0.950 . S
H1473 C1493 0.950 . S
H1474 C1495 0.950 . S
H1475 C1498 0.950 1_655 S
H1476 C1499 0.950 . S
H1477 C1501 0.950 . S
H1478 C1502 0.950 1_554 S
H1479 C1503 0.951 . S
H1480 C1505 0.951 . S
H1481 C1507 0.950 . S
H1482 C1508 0.950 . S
H1483 C1510 0.950 . S
H1484 C1513 0.950 1_455 S
H1485 C1514 0.950 . S
H1486 C1516 0.950 . S
H1487 C1517 0.950 1_556 S
C1488 H1470 0.951 . S
C1488 C1489 1.366 1_455 S
C1488 C1490 1.388 . S
C1489 C1488 1.366 1_655 S
C1489 C1493 1.385 . S
C1490 H1471 0.951 . S
C1490 C1488 1.388 . S
C1490 C1491 1.366 1_455 S
C1491 C1490 1.366 1_655 S
C1491 C1492 1.414 . S
C1491 C1494 1.499 . S
C1492 H1472 0.950 . S
C1492 C1491 1.414 . S
C1492 C1493 1.374 . S
C1493 H1473 0.950 . S
C1493 C1489 1.385 . S
C1493 C1492 1.374 . S
C1494 C1491 1.499 . S
C1494 C1495 1.373 . S
C1494 C1496 1.389 1_655 S
C1495 H1474 0.950 . S
C1495 C1494 1.373 . S
C1495 C1511 1.377 1_556 S
C1496 C1494 1.389 1_455 S
C1496 C1497 1.524 . S
C1496 C1510 1.377 1_556 S
C1497 C1496 1.524 . S
C1497 C1498 1.397 . S
C1497 C1502 1.363 . S
C1498 H1475 0.950 1_455 S
C1498 C1497 1.397 . S
C1498 C1499 1.334 . S
C1499 H1476 0.950 . S
C1499 C1498 1.334 . S
C1499 C1500 1.287 . S
C1500 C1499 1.287 . S
C1500 C1501 1.524 . S
C1500 H1519 0.913 . S
C1501 H1477 0.950 . S
C1501 C1500 1.524 . S
C1501 C1502 1.415 . S
C1502 H1478 0.950 1_556 S
C1502 C1497 1.363 . S
C1502 C1501 1.415 . S
C1503 H1479 0.951 . S
C1503 C1504 1.366 1_655 S
C1503 C1505 1.388 . S
C1504 C1503 1.366 1_455 S
C1504 C1508 1.385 . S
C1505 H1480 0.951 . S
C1505 C1503 1.388 . S
C1505 C1506 1.366 1_655 S
C1506 C1505 1.366 1_455 S
C1506 C1507 1.414 . S
C1506 C1509 1.499 . S
C1507 H1481 0.950 . S
C1507 C1506 1.414 . S
C1507 C1508 1.374 . S
C1508 H1482 0.950 . S
C1508 C1504 1.385 . S
C1508 C1507 1.374 . S
C1509 C1506 1.499 . S
C1509 C1510 1.373 . S
C1509 C1511 1.389 1_455 S
C1510 H1483 0.950 . S
C1510 C1496 1.377 1_554 S
C1510 C1509 1.373 . S
C1511 C1495 1.377 1_554 S
C1511 C1509 1.389 1_655 S
C1511 C1512 1.524 . S
C1512 C1511 1.524 . S
C1512 C1513 1.397 . S
C1512 C1517 1.363 . S
C1513 H1484 0.950 1_655 S
C1513 C1512 1.397 . S
C1513 C1514 1.334 . S
C1514 H1485 0.950 . S
C1514 C1513 1.334 . S
C1514 C1515 1.287 . S
C1515 C1514 1.287 . S
C1515 C1516 1.524 . S
C1515 H1518 0.999 . S
C1516 H1486 0.950 . S
C1516 C1515 1.524 . S
C1516 C1517 1.415 . S
C1517 H1487 0.950 1_554 S
C1517 C1512 1.363 . S
C1517 C1516 1.415 . S
H1518 C1515 0.999 . S
H1519 C1500 0.913 . S
C339 C10 1.513 . S
C354 C129 1.497 . S
C389 C9 0.779 . S
C404 C49 0.780 . S
C439 C50 1.512 . S
C454 C89 1.507 . S
C489 C90 2.150 . S
C504 C130 2.146 . S
C539 C19 1.512 . S
C554 C218 1.508 . S
C589 C18 0.778 . S
C604 C178 0.777 . S
C639 C179 1.513 . S
C654 C98 1.499 . S
C689 C219 2.150 . S
C704 C99 2.155 . S
C739 C250 1.512 . S
C754 C209 1.504 . S
C789 C169 0.779 . S
C804 C249 0.778 . S
C839 C289 1.503 . S
C854 C170 1.515 . S
C889 C210 2.150 . S
C904 C290 2.153 . S
C939 C138 1.502 . S
C954 C259 1.511 . S
C989 C258 0.778 . S
C1004 C58 0.779 . S
C1039 C59 1.513 . S
C1054 C298 1.500 . S
C1089 C139 2.150 . S
C1104 C299 2.147 . S
C1139 C15 1.436 . S
C1154 C6 1.436 . S
C1189 C55 1.436 . S
C1204 C46 1.436 . S
C1239 C95 1.521 . S
C1254 C86 1.521 . S
C1289 C126 1.520 . S
C1304 C135 1.520 . S
C1339 C175 1.436 . S
C1354 C166 1.436 . S
C1389 C206 1.520 . S
C1404 C215 1.520 . S
C1439 C246 1.436 . S
C1454 C255 1.436 . S
C1489 C286 1.520 . S
C1504 C295 1.520 . S
