# Generated by pormake.
# Topology whr, (6)-cn, num edge types: 1
# Building blocks:
#     Node 0, Type 0, BuildingBlock: VOLQOD_clean_sbu_1, # of connection points: 6
#     Node 1, Type 0, BuildingBlock: VOLQOD_clean_sbu_1, # of connection points: 6
#     Node 2, Type 0, BuildingBlock: VOLQOD_clean_sbu_1, # of connection points: 6
#     Node 3, Type 0, BuildingBlock: VOLQOD_clean_sbu_1, # of connection points: 6
#     Node 4, Type 0, BuildingBlock: VOLQOD_clean_sbu_1, # of connection points: 6
#     Node 5, Type 0, BuildingBlock: VOLQOD_clean_sbu_1, # of connection points: 6
#     Node 6, Type 0, BuildingBlock: VOLQOD_clean_sbu_1, # of connection points: 6
#     Node 7, Type 0, BuildingBlock: VOLQOD_clean_sbu_1, # of connection points: 6
#     Node 8, Type 0, BuildingBlock: VOLQOD_clean_sbu_1, # of connection points: 6
#     Node 9, Type 0, BuildingBlock: VOLQOD_clean_sbu_1, # of connection points: 6
#     Node 10, Type 0, BuildingBlock: VOLQOD_clean_sbu_1, # of connection points: 6
#     Node 11, Type 0, BuildingBlock: VOLQOD_clean_sbu_1, # of connection points: 6
#     Node 12, Type 0, BuildingBlock: VOLQOD_clean_sbu_1, # of connection points: 6
#     Node 13, Type 0, BuildingBlock: VOLQOD_clean_sbu_1, # of connection points: 6
#     Node 14, Type 0, BuildingBlock: VOLQOD_clean_sbu_1, # of connection points: 6
#     Node 15, Type 0, BuildingBlock: VOLQOD_clean_sbu_1, # of connection points: 6
#     Edge 16, Type (0, 0), BuildingBlock: OJICUG_clean_linker_0, # of connection points: 2
#     Edge 17, Type (0, 0), BuildingBlock: OJICUG_clean_linker_0, # of connection points: 2
#     Edge 18, Type (0, 0), BuildingBlock: OJICUG_clean_linker_0, # of connection points: 2
#     Edge 19, Type (0, 0), BuildingBlock: OJICUG_clean_linker_0, # of connection points: 2
#     Edge 20, Type (0, 0), BuildingBlock: OJICUG_clean_linker_0, # of connection points: 2
#     Edge 21, Type (0, 0), BuildingBlock: OJICUG_clean_linker_0, # of connection points: 2
#     Edge 22, Type (0, 0), BuildingBlock: OJICUG_clean_linker_0, # of connection points: 2
#     Edge 23, Type (0, 0), BuildingBlock: OJICUG_clean_linker_0, # of connection points: 2
#     Edge 24, Type (0, 0), BuildingBlock: OJICUG_clean_linker_0, # of connection points: 2
#     Edge 25, Type (0, 0), BuildingBlock: OJICUG_clean_linker_0, # of connection points: 2
#     Edge 26, Type (0, 0), BuildingBlock: OJICUG_clean_linker_0, # of connection points: 2
#     Edge 27, Type (0, 0), BuildingBlock: OJICUG_clean_linker_0, # of connection points: 2
#     Edge 28, Type (0, 0), BuildingBlock: OJICUG_clean_linker_0, # of connection points: 2
#     Edge 29, Type (0, 0), BuildingBlock: OJICUG_clean_linker_0, # of connection points: 2
#     Edge 30, Type (0, 0), BuildingBlock: OJICUG_clean_linker_0, # of connection points: 2
#     Edge 31, Type (0, 0), BuildingBlock: OJICUG_clean_linker_0, # of connection points: 2
#     Edge 32, Type (0, 0), BuildingBlock: OJICUG_clean_linker_0, # of connection points: 2
#     Edge 33, Type (0, 0), BuildingBlock: OJICUG_clean_linker_0, # of connection points: 2
#     Edge 34, Type (0, 0), BuildingBlock: OJICUG_clean_linker_0, # of connection points: 2
#     Edge 35, Type (0, 0), BuildingBlock: OJICUG_clean_linker_0, # of connection points: 2
#     Edge 36, Type (0, 0), BuildingBlock: OJICUG_clean_linker_0, # of connection points: 2
#     Edge 37, Type (0, 0), BuildingBlock: OJICUG_clean_linker_0, # of connection points: 2
#     Edge 38, Type (0, 0), BuildingBlock: OJICUG_clean_linker_0, # of connection points: 2
#     Edge 39, Type (0, 0), BuildingBlock: OJICUG_clean_linker_0, # of connection points: 2
#     Edge 40, Type (0, 0), BuildingBlock: OJICUG_clean_linker_0, # of connection points: 2
#     Edge 41, Type (0, 0), BuildingBlock: OJICUG_clean_linker_0, # of connection points: 2
#     Edge 42, Type (0, 0), BuildingBlock: OJICUG_clean_linker_0, # of connection points: 2
#     Edge 43, Type (0, 0), BuildingBlock: OJICUG_clean_linker_0, # of connection points: 2
#     Edge 44, Type (0, 0), BuildingBlock: OJICUG_clean_linker_0, # of connection points: 2
#     Edge 45, Type (0, 0), BuildingBlock: OJICUG_clean_linker_0, # of connection points: 2
#     Edge 46, Type (0, 0), BuildingBlock: OJICUG_clean_linker_0, # of connection points: 2
#     Edge 47, Type (0, 0), BuildingBlock: OJICUG_clean_linker_0, # of connection points: 2
#     Edge 48, Type (0, 0), BuildingBlock: OJICUG_clean_linker_0, # of connection points: 2
#     Edge 49, Type (0, 0), BuildingBlock: OJICUG_clean_linker_0, # of connection points: 2
#     Edge 50, Type (0, 0), BuildingBlock: OJICUG_clean_linker_0, # of connection points: 2
#     Edge 51, Type (0, 0), BuildingBlock: OJICUG_clean_linker_0, # of connection points: 2
#     Edge 52, Type (0, 0), BuildingBlock: OJICUG_clean_linker_0, # of connection points: 2
#     Edge 53, Type (0, 0), BuildingBlock: OJICUG_clean_linker_0, # of connection points: 2
#     Edge 54, Type (0, 0), BuildingBlock: OJICUG_clean_linker_0, # of connection points: 2
#     Edge 55, Type (0, 0), BuildingBlock: OJICUG_clean_linker_0, # of connection points: 2
#     Edge 56, Type (0, 0), BuildingBlock: OJICUG_clean_linker_0, # of connection points: 2
#     Edge 57, Type (0, 0), BuildingBlock: OJICUG_clean_linker_0, # of connection points: 2
#     Edge 58, Type (0, 0), BuildingBlock: OJICUG_clean_linker_0, # of connection points: 2
#     Edge 59, Type (0, 0), BuildingBlock: OJICUG_clean_linker_0, # of connection points: 2
#     Edge 60, Type (0, 0), BuildingBlock: OJICUG_clean_linker_0, # of connection points: 2
#     Edge 61, Type (0, 0), BuildingBlock: OJICUG_clean_linker_0, # of connection points: 2
#     Edge 62, Type (0, 0), BuildingBlock: OJICUG_clean_linker_0, # of connection points: 2
#     Edge 63, Type (0, 0), BuildingBlock: OJICUG_clean_linker_0, # of connection points: 2
# Relax obj value: 0.384
# Max RMSD: 0.249
# Mean RMSD: 0.247
data_MOF--net-whr--node1-VOLQOD_clean_sbu_1--edge1-OJICUG_clean_linker_0
_symmetry_space_group_name_H-M    P1
_symmetry_Int_Tables_number       1
_symmetry_cell_setting            triclinic
loop_
_symmetry_equiv_pos_as_xyz
'x, y, z'
_cell_length_a     40.348294
_cell_length_b     39.918172
_cell_length_c     21.818372
_cell_angle_alpha  90.062896
_cell_angle_beta   90.341815
_cell_angle_gamma 90.20964
loop_
_atom_site_label
_atom_site_type_symbol
_atom_site_fract_x
_atom_site_fract_y
_atom_site_fract_z
_atom_type_partial_charge
O0 O 0.1372 0.05392 0.15063 0.0
Zn1 Zn 0.14816 0.03333 0.07035 0.0
O2 O 0.19409 0.03998 0.04998 0.0
Zn3 Zn 0.21499 -0.00392 0.04312 0.0
Zn4 Zn 0.2143 0.06636 0.11411 0.0
Zn5 Zn 0.19729 0.067 0.97697 0.0
O6 O 0.23776 -0.00617 0.95841 0.0
O7 O 0.21576 0.03819 0.91079 0.0
O8 O 0.13457 -0.01447 0.07105 0.0
O9 O 0.18025 0.9583 0.04571 0.0
O10 O 0.24288 -0.01219 0.12139 0.0
O11 O 0.2373 0.03609 0.17121 0.0
O12 O 0.24569 0.10153 0.08442 0.0
O13 O 0.119 0.05758 0.01206 0.0
O14 O 0.23035 0.10423 0.98699 0.0
O15 O 0.15293 0.08804 0.9546 0.0
C16 C 0.15075 0.07874 0.17746 0.0
C17 C 0.23319 0.01157 0.90998 0.0
C18 C 0.24719 0.00594 0.16936 0.0
C19 C 0.14955 0.95834 0.05955 0.0
C20 C 0.24807 0.1146 0.03157 0.0
C21 C 0.12383 0.08 0.9718 0.0
O22 O 0.17958 0.08887 0.16312 0.0
O23 O 0.04545 0.81835 0.85903 0.0
Zn24 Zn 0.02474 0.81104 0.94002 0.0
O25 O 0.03008 0.76547 0.96512 0.0
Zn26 Zn -0.01353 0.74504 0.97215 0.0
Zn27 Zn 0.05515 0.74305 0.9034 0.0
Zn28 Zn 0.05762 0.76337 0.03754 0.0
O29 O -0.0147 0.72151 0.05647 0.0
O30 O 0.02927 0.74448 0.10394 0.0
O31 O 0.97757 0.82545 0.93693 0.0
O32 O 0.95003 0.78075 0.96937 0.0
O33 O 0.9768 0.71751 0.89359 0.0
O34 O 0.02452 0.72254 0.84402 0.0
O35 O 0.08484 0.70781 0.93724 0.0
O36 O 0.0499 0.84185 0.99521 0.0
O37 O 0.0941 0.72942 0.02937 0.0
O38 O 0.07874 0.8088 0.05751 0.0
C39 C 0.07131 0.80477 0.83734 0.0
C40 C 0.00325 0.72613 0.10466 0.0
C41 C -0.00561 0.71336 0.84547 0.0
C42 C 0.9505 0.81116 0.95123 0.0
C43 C 0.09999 0.70758 0.9884 0.0
C44 C 0.07171 0.83782 0.03682 0.0
O45 O 0.08157 0.77655 0.85659 0.0
O46 O 0.82203 0.91009 0.13763 0.0
Zn47 Zn 0.80908 0.93596 0.06391 0.0
O48 O 0.76261 0.93039 0.04615 0.0
Zn49 Zn 0.74224 0.97447 0.03859 0.0
Zn50 Zn 0.74238 0.90543 0.11157 0.0
Zn51 Zn 0.75863 0.90285 0.97391 0.0
O52 O 0.71954 0.97707 0.95339 0.0
O53 O 0.73925 0.93122 0.90728 0.0
O54 O 0.82205 0.98349 0.07496 0.0
O55 O 0.77743 0.01147 0.04493 0.0
O56 O 0.71379 0.98355 0.11497 0.0
O57 O 0.72047 0.93663 0.16854 0.0
O58 O 0.70978 0.87161 0.08213 0.0
O59 O 0.83771 0.91573 0.99975 0.0
O60 O 0.7255 0.86606 0.98557 0.0
O61 O 0.80286 0.88105 0.95253 0.0
C62 C 0.80741 0.8868 0.16656 0.0
C63 C 0.72263 0.95839 0.90579 0.0
C64 C 0.70993 0.96649 0.16413 0.0
C65 C 0.80747 0.01096 0.06365 0.0
C66 C 0.70737 0.85732 0.03028 0.0
C67 C 0.8323 0.89091 0.96451 0.0
O68 O 0.77678 0.88063 0.15842 0.0
O69 O 0.90648 0.14161 0.8779 0.0
Zn70 Zn 0.93051 0.15435 0.95432 0.0
O71 O 0.92485 0.20113 0.97306 0.0
Zn72 Zn 0.96825 0.22254 0.98 0.0
Zn73 Zn 0.89932 0.22141 0.90856 0.0
Zn74 Zn 0.89846 0.20479 0.04602 0.0
O75 O 0.97125 0.24526 0.0652 0.0
O76 O 0.92719 0.22337 0.11256 0.0
O77 O 0.97772 0.14167 0.94664 0.0
O78 O 0.00507 0.1876 0.97437 0.0
O79 O 0.97661 0.25122 0.90294 0.0
O80 O 0.9295 0.24401 0.85112 0.0
O81 O 0.8658 0.2538 0.93884 0.0
O82 O 0.90932 0.1252 0.01686 0.0
O83 O 0.86237 0.23851 0.03614 0.0
O84 O 0.87685 0.16026 0.06763 0.0
C85 C 0.88299 0.15614 0.84963 0.0
C86 C 0.95371 0.24088 0.11353 0.0
C87 C 0.95913 0.25478 0.85416 0.0
C88 C 0.00479 0.15699 0.95745 0.0
C89 C 0.85285 0.25656 0.9915 0.0
C90 C 0.88583 0.1306 0.05409 0.0
O91 O 0.87557 0.18647 0.86056 0.0
O92 O 0.70828 0.0089 0.45331 0.0
Zn93 Zn 0.716 0.03141 0.5373 0.0
O94 O 0.76277 0.04271 0.54536 0.0
Zn95 Zn 0.78325 0.0209 0.61333 0.0
Zn96 Zn 0.78717 0.03023 0.47465 0.0
Zn97 Zn 0.76818 0.08972 0.55972 0.0
O98 O 0.81249 0.05252 0.66013 0.0
O99 O 0.78228 0.0981 0.64539 0.0
O100 O 0.70028 0.00705 0.61639 0.0
O101 O 0.74784 0.00772 0.66931 0.0
O102 O 0.80774 0.97928 0.58935 0.0
O103 O 0.80919 -0.01466 0.48835 0.0
O104 O 0.8232 0.06448 0.45737 0.0
O105 O 0.68961 0.07435 0.53083 0.0
O106 O 0.80571 0.1082 0.51087 0.0
O107 O 0.72685 0.11499 0.5437 0.0
C108 C 0.72477 0.01458 0.40429 0.0
C109 C 0.80497 0.0825 0.67406 0.0
C110 C 0.8158 0.96855 0.53663 0.0
C111 C 0.71688 0.00231 0.6659 0.0
C112 C 0.82655 0.0948 0.47494 0.0
C113 C 0.69727 0.10532 0.53365 0.0
O114 O 0.75436 0.02603 0.40586 0.0
O115 O 0.04894 0.14224 0.37354 0.0
Zn116 Zn 0.02732 0.15417 0.45281 0.0
O117 O 0.03624 0.20012 0.47487 0.0
Zn118 Zn -0.00506 0.22443 0.48142 0.0
Zn119 Zn 0.06271 0.21912 0.41164 0.0
Zn120 Zn 0.06327 0.20216 0.54777 0.0
O121 O -0.00587 0.24755 0.56614 0.0
O122 O 0.03538 0.22102 0.61475 0.0
O123 O -0.02124 0.14385 0.44851 0.0
O124 O 0.9563 0.19174 0.4787 0.0
O125 O -0.01243 0.25252 0.40282 0.0
O126 O 0.03393 0.24178 0.35207 0.0
O127 O 0.09622 0.25123 0.44245 0.0
O128 O 0.04947 0.12325 0.51186 0.0
O129 O 0.10038 0.23557 0.5395 0.0
O130 O 0.08292 0.15627 0.56659 0.0
C131 C 0.07511 0.15472 0.35051 0.0
C132 C 0.01067 0.24092 0.61514 0.0
C133 C 0.00508 0.25426 0.35407 0.0
C134 C 0.95345 0.16123 0.46195 0.0
C135 C 0.10959 0.25387 0.49501 0.0
C136 C 0.07315 0.12717 0.55 0.0
O137 O 0.08584 0.18338 0.36658 0.0
O138 O 0.13534 0.90718 0.643 0.0
Zn139 Zn 0.14704 0.93059 0.56589 0.0
O140 O 0.19318 0.92494 0.54771 0.0
Zn141 Zn 0.21429 0.96881 0.54242 0.0
Zn142 Zn 0.21292 0.89887 0.61197 0.0
Zn143 Zn 0.19707 0.89806 0.47479 0.0
O144 O 0.23717 0.97162 0.45776 0.0
O145 O 0.21489 0.92749 0.40905 0.0
O146 O 0.13381 0.97837 0.57174 0.0
O147 O 0.17955 0.00607 0.54696 0.0
O148 O 0.24212 0.97698 0.62106 0.0
O149 O 0.23409 0.92929 0.67154 0.0
O150 O 0.24633 0.86652 0.58183 0.0
O151 O 0.1183 0.90773 0.50421 0.0
O152 O 0.23162 0.86255 0.48417 0.0
O153 O 0.15319 0.87542 0.45274 0.0
C154 C 0.14888 0.88225 0.66916 0.0
C155 C 0.23255 0.95409 0.40894 0.0
C156 C 0.24497 0.95916 0.66967 0.0
C157 C 0.14899 0.00576 0.56181 0.0
C158 C 0.24981 0.85368 0.52902 0.0
C159 C 0.12378 0.88405 0.46666 0.0
O160 O 0.17836 0.87352 0.65696 0.0
O161 O 0.91431 0.81028 0.33528 0.0
Zn162 Zn 0.93123 0.80751 0.42076 0.0
O163 O 0.92275 0.76509 0.45754 0.0
Zn164 Zn 0.96481 0.74275 0.46831 0.0
Zn165 Zn 0.89574 0.74298 0.39827 0.0
Zn166 Zn 0.89585 0.76861 0.53012 0.0
O167 O 0.96419 0.72171 0.55484 0.0
O168 O 0.92318 0.75049 0.5993 0.0
O169 O -0.02142 0.82061 0.4233 0.0
O170 O 0.00325 0.77655 0.46489 0.0
O171 O 0.97247 0.71312 0.39201 0.0
O172 O 0.92468 0.71868 0.34166 0.0
O173 O 0.86283 0.71269 0.43515 0.0
O174 O 0.90542 0.8417 0.46433 0.0
O175 O 0.85655 0.73652 0.5262 0.0
O176 O 0.87944 0.81713 0.54186 0.0
C177 C 0.8851 0.80101 0.32122 0.0
C178 C 0.94728 0.72983 0.60235 0.0
C179 C 0.95443 0.70844 0.34413 0.0
C180 C 0.00452 0.8062 0.44307 0.0
C181 C 0.84809 0.71472 0.48626 0.0
C182 C 0.88575 0.84307 0.50946 0.0
O183 O 0.87133 0.77679 0.34904 0.0
O184 O 0.63759 0.55374 0.65191 0.0
Zn185 Zn 0.64842 0.53313 0.57163 0.0
O186 O 0.69431 0.53979 0.55107 0.0
Zn187 Zn 0.7152 0.49589 0.54432 0.0
Zn188 Zn 0.71456 0.56629 0.615 0.0
Zn189 Zn 0.69738 0.56672 0.47796 0.0
O190 O 0.73793 0.49358 0.45958 0.0
O191 O 0.71577 0.53783 0.41183 0.0
O192 O 0.63485 0.48533 0.57262 0.0
O193 O 0.68049 0.45808 0.54715 0.0
O194 O 0.74313 0.48774 0.62259 0.0
O195 O 0.73755 0.53607 0.67226 0.0
O196 O 0.74599 0.60137 0.58497 0.0
O197 O 0.61914 0.55735 0.51348 0.0
O198 O 0.7305 0.60392 0.48761 0.0
O199 O 0.65299 0.58777 0.45579 0.0
C200 C 0.65108 0.57867 0.67848 0.0
C201 C 0.73327 0.51126 0.41109 0.0
C202 C 0.74743 0.50592 0.6705 0.0
C203 C 0.64981 0.45812 0.56117 0.0
C204 C 0.74832 0.61433 0.53201 0.0
C205 C 0.62391 0.57976 0.47317 0.0
O206 O 0.67984 0.58889 0.66392 0.0
O207 O 0.54579 0.31885 0.36139 0.0
Zn208 Zn 0.52485 0.31124 0.44207 0.0
O209 O 0.53014 0.26556 0.46666 0.0
Zn210 Zn 0.48649 0.24519 0.47362 0.0
Zn211 Zn 0.55512 0.24324 0.40471 0.0
Zn212 Zn 0.55773 0.26324 0.539 0.0
O213 O 0.48526 0.22163 0.55792 0.0
O214 O 0.52936 0.24436 0.60537 0.0
O215 O 0.47767 0.32566 0.43873 0.0
O216 O 0.45007 0.28093 0.47083 0.0
O217 O 0.47676 0.21771 0.39502 0.0
O218 O 0.52442 0.22288 0.34528 0.0
O219 O 0.58478 0.20787 0.4382 0.0
O220 O 0.54989 0.34188 0.49776 0.0
O221 O 0.59411 0.2292 0.53052 0.0
O222 O 0.57899 0.30857 0.55919 0.0
C223 C 0.57153 0.30519 0.33939 0.0
C224 C 0.50326 0.22613 0.60609 0.0
C225 C 0.4943 0.21365 0.3468 0.0
C226 C 0.45058 0.31136 0.45282 0.0
C227 C 0.59996 0.20747 0.48934 0.0
C228 C 0.57185 0.33768 0.53904 0.0
O229 O 0.58159 0.27678 0.3581 0.0
O230 O 0.32174 0.41056 0.63912 0.0
Zn231 Zn 0.30894 0.43619 0.56503 0.0
O232 O 0.26251 0.43056 0.54693 0.0
Zn233 Zn 0.24214 0.47464 0.53941 0.0
Zn234 Zn 0.24223 0.40552 0.6122 0.0
Zn235 Zn 0.25862 0.40307 0.47458 0.0
O236 O 0.21941 0.47724 0.45425 0.0
O237 O 0.23925 0.4315 0.40799 0.0
O238 O 0.32193 0.48373 0.57568 0.0
O239 O 0.2773 0.51168 0.54564 0.0
O240 O 0.21373 0.48368 0.61584 0.0
O241 O 0.22029 0.43668 0.66923 0.0
O242 O 0.20965 0.3717 0.58254 0.0
O243 O 0.33768 0.41573 0.50131 0.0
O244 O 0.22547 0.36624 0.48602 0.0
O245 O 0.3029 0.38131 0.45328 0.0
C246 C 0.30716 0.38712 0.66774 0.0
C247 C 0.22256 0.45863 0.40658 0.0
C248 C 0.20982 0.46658 0.66494 0.0
C249 C 0.30735 0.51119 0.56428 0.0
C250 C 0.20728 0.35747 0.53062 0.0
C251 C 0.33233 0.39106 0.46571 0.0
O252 O 0.27662 0.38073 0.65913 0.0
O253 O 0.40678 0.64191 0.37809 0.0
Zn254 Zn 0.43065 0.65451 0.45475 0.0
O255 O 0.42506 0.70129 0.47359 0.0
Zn256 Zn 0.4685 0.7226 0.48071 0.0
Zn257 Zn 0.39965 0.72166 0.40903 0.0
Zn258 Zn 0.39855 0.705 0.54645 0.0
O259 O 0.4714 0.74535 0.5659 0.0
O260 O 0.42723 0.72356 0.61308 0.0
O261 O 0.47785 0.6417 0.44751 0.0
O262 O 0.50526 0.68757 0.47536 0.0
O263 O 0.47703 0.75125 0.40365 0.0
O264 O 0.42992 0.74424 0.35176 0.0
O265 O 0.36614 0.75408 0.43915 0.0
O266 O 0.40921 0.62539 0.51702 0.0
O267 O 0.36249 0.73876 0.53639 0.0
O268 O 0.37688 0.66048 0.56802 0.0
C269 C 0.38332 0.6565 0.3498 0.0
C270 C 0.45378 0.74103 0.61415 0.0
C271 C 0.45958 0.7549 0.35486 0.0
C272 C 0.50493 0.65694 0.45851 0.0
C273 C 0.35307 0.75684 0.49171 0.0
C274 C 0.38577 0.63081 0.55433 0.0
O275 O 0.37591 0.68681 0.36085 0.0
O276 O 0.20826 0.50904 0.95418 0.0
Zn277 Zn 0.21597 0.53165 0.03808 0.0
O278 O 0.26272 0.54299 0.04613 0.0
Zn279 Zn 0.28316 0.52127 0.11422 0.0
Zn280 Zn 0.28715 0.53042 0.9755 0.0
Zn281 Zn 0.26815 0.59002 0.0603 0.0
O282 O 0.31246 0.55292 0.16075 0.0
O283 O 0.28232 0.59854 0.14591 0.0
O284 O 0.20023 0.50736 0.11724 0.0
O285 O 0.24775 0.50822 0.17028 0.0
O286 O 0.30761 0.4796 0.09049 0.0
O287 O 0.3092 0.48557 0.98948 0.0
O288 O 0.32316 0.56464 0.95807 0.0
O289 O 0.18959 0.57458 0.03139 0.0
O290 O 0.30566 0.60844 0.01132 0.0
O291 O 0.22681 0.61526 0.04415 0.0
C292 C 0.22477 0.51465 0.90514 0.0
C293 C 0.30502 0.58294 0.17455 0.0
C294 C 0.31574 0.46884 0.03784 0.0
C295 C 0.2168 0.50274 0.16683 0.0
C296 C 0.3265 0.59499 0.97548 0.0
C297 C 0.19724 0.60556 0.03408 0.0
O298 O 0.25436 0.5261 0.9067 0.0
O299 O 0.549 0.64218 0.87405 0.0
Zn300 Zn 0.52734 0.65411 0.95329 0.0
O301 O 0.53628 0.70005 0.97539 0.0
Zn302 Zn 0.49502 0.72442 0.98207 0.0
Zn303 Zn 0.56268 0.71906 0.91211 0.0
Zn304 Zn 0.56338 0.70206 0.04819 0.0
O305 O 0.49433 0.74752 0.06683 0.0
O306 O 0.53561 0.72094 0.11527 0.0
O307 O 0.47876 0.64387 0.94895 0.0
O308 O 0.45636 0.69176 0.97936 0.0
O309 O 0.4876 0.75256 0.90352 0.0
O310 O 0.5339 0.74174 0.85263 0.0
O311 O 0.59618 0.75116 0.94284 0.0
O312 O 0.54945 0.62316 0.01235 0.0
O313 O 0.60054 0.73541 0.03981 0.0
O314 O 0.58299 0.65615 0.06695 0.0
C315 C 0.57516 0.65469 0.85103 0.0
C316 C 0.51092 0.74088 0.11576 0.0
C317 C 0.50507 0.75428 0.85473 0.0
C318 C 0.45347 0.66127 0.96249 0.0
C319 C 0.60966 0.75373 0.99531 0.0
C320 C 0.57318 0.62706 0.0504 0.0
O321 O 0.58584 0.68337 0.86706 0.0
O322 O 0.63574 0.40744 0.145 0.0
Zn323 Zn 0.64722 0.43052 0.06744 0.0
O324 O 0.69329 0.42485 0.04884 0.0
Zn325 Zn 0.71441 0.46872 0.04357 0.0
Zn326 Zn 0.71308 0.39869 0.11295 0.0
Zn327 Zn 0.69708 0.39806 0.97577 0.0
O328 O 0.73733 0.47155 0.95896 0.0
O329 O 0.71495 0.42753 0.91011 0.0
O330 O 0.63393 0.47829 0.07274 0.0
O331 O 0.67967 0.50599 0.048 0.0
O332 O 0.74222 0.47684 0.12223 0.0
O333 O 0.73437 0.42905 0.17249 0.0
O334 O 0.74638 0.36629 0.08256 0.0
O335 O 0.61839 0.40739 1.00628 0.0
O336 O 0.73156 0.36247 0.98493 0.0
O337 O 0.65317 0.37551 0.95367 0.0
C338 C 0.6492 0.38239 0.17091 0.0
C339 C 0.73268 0.45408 0.91009 0.0
C340 C 0.74517 0.45896 0.17073 0.0
C341 C 0.64909 0.50568 0.06271 0.0
C342 C 0.74977 0.3535 0.02967 0.0
C343 C 0.6238 0.38395 0.96821 0.0
O344 O 0.67854 0.37341 0.15816 0.0
O345 O 0.41414 0.31088 0.83689 0.0
Zn346 Zn 0.43116 0.30785 0.92228 0.0
O347 O 0.4226 0.2654 0.95889 0.0
Zn348 Zn 0.46462 0.24296 0.96968 0.0
Zn349 Zn 0.39562 0.2434 0.89946 0.0
Zn350 Zn 0.39563 0.26887 0.03142 0.0
O351 O 0.46397 0.22195 0.05623 0.0
O352 O 0.42291 0.25069 0.10065 0.0
O353 O 0.47853 0.32081 0.92472 0.0
O354 O 0.50312 0.27668 0.96626 0.0
O355 O 0.47225 0.21329 0.89342 0.0
O356 O 0.42455 0.21908 0.84288 0.0
O357 O 0.36265 0.21313 0.93611 0.0
O358 O 0.40552 0.34203 0.96612 0.0
O359 O 0.35629 0.23683 0.02726 0.0
O360 O 0.37928 0.3174 0.04328 0.0
C361 C 0.38495 0.30156 0.8227 0.0
C362 C 0.44703 0.23006 0.10373 0.0
C363 C 0.45425 0.20871 0.84546 0.0
C364 C 0.50444 0.30633 0.94445 0.0
C365 C 0.34786 0.21511 0.98715 0.0
C366 C 0.38576 0.34338 0.01112 0.0
O367 O 0.37124 0.27725 0.85031 0.0
C368 C 0.10059 0.08588 0.24236 0.0
C369 C 0.13183 0.0974 0.22343 0.0
H370 H 0.05796 0.09511 0.29739 0.0
C371 C 0.14424 0.12776 0.24669 0.0
H372 H 0.09038 0.06254 0.22513 0.0
C373 C 0.12559 0.1465 0.28754 0.0
C374 C 0.09427 0.13512 0.30623 0.0
H375 H 0.16819 0.13736 0.2328 0.0
H376 H 0.13585 0.16986 0.30458 0.0
C377 C 0.08198 0.10455 0.28357 0.0
C378 C 0.07812 0.85333 0.76746 0.0
C379 C 0.09076 0.82351 0.7922 0.0
H380 H 0.08668 0.89539 0.70966 0.0
C381 C 0.1227 0.81298 0.77606 0.0
H382 H 0.05355 0.8621 0.77899 0.0
C383 C 0.14185 0.83226 0.73648 0.0
C384 C 0.12926 0.86225 0.71224 0.0
H385 H 0.13312 0.79016 0.7947 0.0
H386 H 0.16645 0.82362 0.72485 0.0
C387 C 0.09716 0.87249 0.72785 0.0
C388 C 0.88029 0.84932 0.24993 0.0
C389 C 0.86566 0.82148 0.27839 0.0
H390 H 0.87324 0.89209 0.19307 0.0
C391 C 0.83167 0.81523 0.26987 0.0
H392 H 0.90642 0.85486 0.25582 0.0
C393 C 0.81254 0.83679 0.2343 0.0
C394 C 0.82712 0.86487 0.2065 0.0
H395 H 0.81967 0.79406 0.29156 0.0
H396 H 0.78638 0.83137 0.22856 0.0
C397 C 0.8612 0.87082 0.21435 0.0
C398 C 0.81677 0.13421 0.73406 0.0
C399 C 0.82418 0.1006 0.72102 0.0
H400 H 0.8297 0.17816 0.78441 0.0
C401 C 0.85101 0.08523 0.75088 0.0
H402 H 0.79626 0.14681 0.71176 0.0
C403 C 0.87032 0.10333 0.79256 0.0
C404 C 0.86309 0.13707 0.80497 0.0
H405 H 0.85735 0.05938 0.74163 0.0
H406 H 0.89092 0.09087 0.81486 0.0
C407 C 0.83605 0.15226 0.77554 0.0
C408 C 0.58224 0.6044 0.78449 0.0
C409 C 0.59438 0.63509 0.80686 0.0
H410 H 0.59083 0.56228 0.72642 0.0
C411 C 0.62564 0.64658 0.78803 0.0
H412 H 0.55828 0.59487 0.79842 0.0
C413 C 0.64437 0.62783 0.74732 0.0
C414 C 0.63211 0.59735 0.72435 0.0
H415 H 0.6358 0.67003 0.80485 0.0
H416 H 0.66827 0.63752 0.73331 0.0
C417 C 0.60093 0.58571 0.74343 0.0
C418 C 0.57872 0.35412 0.27051 0.0
C419 C 0.59105 0.32397 0.29439 0.0
H420 H 0.58755 0.39635 0.21325 0.0
C421 C 0.62274 0.31306 0.27744 0.0
H422 H 0.55437 0.3632 0.28272 0.0
C423 C 0.64193 0.33226 0.23777 0.0
C424 C 0.62962 0.36254 0.21427 0.0
H425 H 0.63293 0.28998 0.29542 0.0
H426 H 0.66631 0.3233 0.22544 0.0
C427 C 0.5978 0.3732 0.23081 0.0
C428 C 0.38002 0.35006 0.75186 0.0
C429 C 0.3655 0.32203 0.77989 0.0
H430 H 0.37284 0.39291 0.69525 0.0
C431 C 0.33159 0.31554 0.77091 0.0
H432 H 0.40608 0.3558 0.75813 0.0
C433 C 0.31242 0.33703 0.73526 0.0
C434 C 0.32688 0.36529 0.70785 0.0
H435 H 0.31967 0.29422 0.79227 0.0
H436 H 0.28632 0.33142 0.72914 0.0
C437 C 0.36089 0.37149 0.71621 0.0
C438 C 0.3511 0.58561 0.25128 0.0
C439 C 0.32435 0.60106 0.22131 0.0
H440 H 0.391 0.59116 0.31529 0.0
C441 C 0.31712 0.63474 0.23409 0.0
H442 H 0.3573 0.5597 0.24222 0.0
C443 C 0.33648 0.65277 0.27548 0.0
C444 C 0.36341 0.63748 0.30508 0.0
H445 H 0.29669 0.6474 0.21167 0.0
H446 H 0.33026 0.67872 0.28418 0.0
C447 C 0.37048 0.60368 0.29287 0.0
C448 C 0.14545 0.89513 0.06141 0.0
C449 C 0.13007 0.92672 0.0606 0.0
H450 H 0.13872 0.84172 0.05673 0.0
C451 C 0.09522 0.92815 0.05966 0.0
H452 H 0.17221 0.89318 0.0627 0.0
C453 C 0.07627 0.89895 0.05602 0.0
C454 C 0.09157 0.86748 0.05443 0.0
H455 H 0.08245 0.95197 0.05929 0.0
H456 H 0.04957 0.90103 0.05221 0.0
C457 C 0.1263 0.8657 0.05888 0.0
C458 C 0.85915 0.83496 0.95054 0.0
C459 C 0.86116 0.87012 0.94804 0.0
H460 H 0.8859 0.78857 0.95487 0.0
C461 C 0.89238 0.8853 0.94187 0.0
H462 H 0.83543 0.8226 0.95634 0.0
C463 C 0.92111 0.86596 0.94101 0.0
C464 C 0.91943 0.83092 0.94737 0.0
H465 H 0.89469 0.91234 0.94031 0.0
H466 H 0.94477 0.87873 0.93785 0.0
C467 C 0.88807 0.81552 0.95069 0.0
C468 C 0.88039 0.07018 0.07837 0.0
C469 C 0.86533 0.10154 0.07141 0.0
H470 H 0.87401 0.01721 0.0818 0.0
C471 C 0.83057 0.10336 0.06805 0.0
H472 H 0.90715 0.0681 0.08066 0.0
C473 C 0.8114 0.074 0.06711 0.0
C474 C 0.82672 0.04246 0.07046 0.0
H475 H 0.81839 0.12726 0.06169 0.0
H476 H 0.78477 0.07597 0.06172 0.0
C477 C 0.86132 0.04101 0.07845 0.0
C478 C 0.06718 0.15407 0.95443 0.0
C479 C 0.03611 0.13799 0.952 0.0
H480 H 0.11998 0.14797 0.96025 0.0
C481 C 0.03498 0.1029 0.94619 0.0
H482 H 0.06888 0.18108 0.95816 0.0
C483 C 0.06401 0.08415 0.94743 0.0
C484 C 0.09491 0.10003 0.95338 0.0
H485 H 0.01155 0.08963 0.94362 0.0
H486 H 0.06223 0.05706 0.94681 0.0
C487 C 0.09642 0.13519 0.95465 0.0
C488 C 0.83433 0.91301 0.57971 0.0
C489 C 0.83361 0.93633 0.5312 0.0
H490 H 0.85113 0.86482 0.61109 0.0
C491 C 0.85027 0.92869 0.47683 0.0
H492 H 0.82158 0.91818 0.62222 0.0
C493 C 0.86737 0.89868 0.47094 0.0
C494 C 0.86804 0.87512 0.51897 0.0
H495 H 0.85035 0.94604 0.43868 0.0
H496 H 0.87974 0.89381 0.42791 0.0
C497 C 0.85117 0.88248 0.57343 0.0
C498 C 0.86114 0.14693 0.48058 0.0
C499 C 0.85759 0.11335 0.46182 0.0
H500 H 0.89402 0.18833 0.4955 0.0
C501 C 0.88533 0.0966 0.43831 0.0
H502 H 0.84028 0.16066 0.49877 0.0
C503 C 0.91629 0.11244 0.43697 0.0
C504 C 0.92016 0.14543 0.4588 0.0
H505 H 0.88353 0.07073 0.4236 0.0
H506 H 0.93735 0.09844 0.42032 0.0
C507 C 0.89204 0.16279 0.479 0.0
C508 C 0.07677 0.06583 0.56797 0.0
C509 C 0.09263 0.09714 0.56596 0.0
H510 H 0.08202 0.0127 0.56853 0.0
C511 C 0.12745 0.09846 0.56758 0.0
H512 H 0.04997 0.06409 0.56641 0.0
C513 C 0.14604 0.06883 0.56731 0.0
C514 C 0.13006 0.03745 0.56639 0.0
H515 H 0.14031 0.12229 0.56512 0.0
H516 H 0.17283 0.0705 0.56628 0.0
C517 C 0.09523 0.03638 0.56872 0.0
C518 C 0.0645 0.87909 0.43746 0.0
C519 C 0.09507 0.86348 0.44785 0.0
H520 H 0.01222 0.87331 0.42744 0.0
C521 C 0.09625 0.82836 0.45212 0.0
H522 H 0.06291 0.90615 0.4346 0.0
C523 C 0.06693 0.80937 0.44973 0.0
C524 C 0.03613 0.82524 0.44193 0.0
H525 H 0.11951 0.81579 0.46128 0.0
H526 H 0.06831 0.78246 0.45539 0.0
C527 C 0.03544 0.86021 0.43389 0.0
C528 C 0.59549 0.42793 0.56244 0.0
C529 C 0.63034 0.42649 0.56252 0.0
H530 H 0.54979 0.40082 0.55578 0.0
C531 C 0.64572 0.3949 0.56275 0.0
H532 H 0.58271 0.45174 0.56256 0.0
C533 C 0.62655 0.36548 0.5604 0.0
C534 C 0.5918 0.36727 0.55672 0.0
H535 H 0.67248 0.39294 0.5634 0.0
H536 H 0.63895 0.3415 0.55772 0.0
C537 C 0.57652 0.39873 0.55898 0.0
C538 C 0.35921 0.33513 0.45164 0.0
C539 C 0.36121 0.37029 0.44927 0.0
H540 H 0.38597 0.28874 0.45598 0.0
C541 C 0.39244 0.38549 0.44335 0.0
H542 H 0.33548 0.32276 0.45727 0.0
C543 C 0.42118 0.36616 0.4426 0.0
C544 C 0.41951 0.33111 0.44883 0.0
H545 H 0.39475 0.41253 0.44191 0.0
H546 H 0.44484 0.37895 0.43963 0.0
C547 C 0.38814 0.3157 0.4519 0.0
C548 C 0.3113 0.57424 0.5675 0.0
C549 C 0.32661 0.5427 0.57092 0.0
H550 H 0.31832 0.6275 0.56193 0.0
C551 C 0.36122 0.54124 0.57887 0.0
H552 H 0.28468 0.57622 0.56213 0.0
C553 C 0.3803 0.5704 0.5787 0.0
C554 C 0.36525 0.60177 0.57168 0.0
H555 H 0.3739 0.51744 0.58228 0.0
H556 H 0.40705 0.56831 0.58097 0.0
C557 C 0.33049 0.6036 0.56834 0.0
C558 C 0.53502 0.60275 0.44793 0.0
C559 C 0.53623 0.63786 0.45332 0.0
H560 H 0.56219 0.55686 0.44892 0.0
C561 C 0.56732 0.65389 0.45549 0.0
H562 H 0.51156 0.58952 0.44559 0.0
C563 C 0.59653 0.63496 0.4558 0.0
C564 C 0.59496 0.59979 0.45487 0.0
H565 H 0.56908 0.68091 0.45891 0.0
H566 H 0.62013 0.64771 0.46114 0.0
C567 C 0.56403 0.58396 0.44926 0.0
C568 C 0.36778 0.39916 0.9728 0.0
C569 C 0.36811 0.37546 0.02062 0.0
H570 H 0.35097 0.44661 0.94056 0.0
C571 C 0.3509 0.3827 0.07478 0.0
H572 H 0.38042 0.39441 0.93 0.0
C573 C 0.33403 0.41322 0.08094 0.0
C574 C 0.33361 0.43664 0.03259 0.0
H575 H 0.35059 0.36494 0.11227 0.0
H576 H 0.321 0.41829 0.12318 0.0
C577 C 0.35064 0.42916 0.97856 0.0
C578 C 0.38527 0.59673 0.93881 0.0
C579 C 0.35755 0.61351 0.96231 0.0
H580 H 0.4373 0.5985 0.92083 0.0
C581 C 0.36114 0.64709 0.98107 0.0
H582 H 0.38344 0.57086 0.92409 0.0
C583 C 0.39206 0.66291 0.9795 0.0
C584 C 0.42017 0.64551 0.95932 0.0
H585 H 0.34029 0.66085 0.99925 0.0
H586 H 0.39407 0.68844 0.996 0.0
C587 C 0.41625 0.61253 0.93747 0.0
C588 C 0.62746 0.59836 0.06826 0.0
C589 C 0.59264 0.59701 0.06633 0.0
H590 H 0.67287 0.57044 0.06736 0.0
C591 C 0.5768 0.56569 0.06815 0.0
H592 H 0.64031 0.62219 0.06597 0.0
C593 C 0.59528 0.53625 0.06902 0.0
C594 C 0.63012 0.53735 0.06704 0.0
H595 H 0.55 0.56392 0.06635 0.0
H596 H 0.58209 0.51256 0.06869 0.0
C597 C 0.64608 0.56874 0.06813 0.0
C598 C 0.56686 0.30938 0.95106 0.0
C599 C 0.53609 0.3253 0.94331 0.0
H600 H 0.61945 0.31571 0.96261 0.0
C601 C 0.53545 0.36028 0.93537 0.0
H602 H 0.56819 0.28246 0.95666 0.0
C603 C 0.56454 0.37912 0.93898 0.0
C604 C 0.59508 0.36344 0.94931 0.0
H605 H 0.51225 0.37343 0.92897 0.0
H606 H 0.56299 0.40618 0.93622 0.0
C607 C 0.59621 0.32832 0.95349 0.0
C608 C 0.24784 0.00907 0.73888 0.0
C609 C 0.25353 0.97481 0.72945 0.0
H610 H 0.2371 0.04762 0.80373 0.0
C611 C 0.25927 0.95425 0.78096 0.0
H612 H 0.24333 0.02563 0.70045 0.0
C613 C 0.25534 0.96674 0.84043 0.0
C614 C 0.2456 7e-05 0.84954 0.0
H615 H 0.26406 0.92774 0.77528 0.0
H616 H 0.2574 0.94964 0.87876 0.0
C617 C 0.24383 0.02155 0.79832 0.0
C618 C 0.94933 0.69387 0.23314 0.0
C619 C 0.96984 0.70011 0.28453 0.0
H620 H 0.94362 0.69744 0.13563 0.0
C621 C 0.00333 0.70789 0.27475 0.0
H622 H 0.92342 0.68747 0.23907 0.0
C623 C 0.01479 0.71387 0.2154 0.0
C624 C -0.00694 0.71198 0.16462 0.0
H625 H 0.01987 0.71279 0.31304 0.0
H626 H 0.04016 0.72227 0.20989 0.0
C627 C 0.9608 0.69983 0.17373 0.0
C628 C 0.70674 0.94573 0.79706 0.0
C629 C 0.70918 0.96911 0.84539 0.0
H630 H 0.7053 0.93831 0.69977 0.0
C631 C 0.70337 0.00306 0.83259 0.0
H632 H 0.71049 0.91927 0.80544 0.0
C633 C 0.69977 0.01378 0.77176 0.0
C634 C 0.70162 -0.00925 0.72305 0.0
H635 H 0.70488 0.02167 0.86867 0.0
H636 H 0.69953 0.04045 0.76248 0.0
C637 C 0.70303 0.95648 0.73642 0.0
C638 C -0.00185 0.26374 0.18341 0.0
C639 C 0.9651 0.2539 0.17393 0.0
H640 H 0.03667 0.27297 0.24912 0.0
C641 C 0.94368 0.25278 0.22476 0.0
H642 H 0.01519 0.26536 0.14535 0.0
C643 C 0.95589 0.2574 0.28432 0.0
C644 C -0.01017 0.26304 0.29424 0.0
H645 H 0.91781 0.24604 0.21899 0.0
H646 H 0.93937 0.25324 0.32254 0.0
C647 C 0.01038 0.26828 0.24302 0.0
C648 C 0.7133 0.01592 0.2332 0.0
C649 C 0.7014 0.98336 0.22234 0.0
H650 H 0.7304 0.05116 0.30044 0.0
C651 C 0.69035 0.96415 0.27248 0.0
H652 H 0.72224 0.03126 0.19579 0.0
C653 C 0.69478 0.97573 0.33264 0.0
C654 C 0.7108 0.00641 0.34334 0.0
H655 H 0.68109 0.93892 0.26543 0.0
H656 H 0.68864 0.95934 0.37049 0.0
C657 C 0.71836 0.02715 0.29323 0.0
C658 C 0.96732 0.26548 0.68402 0.0
C659 C -0.00018 0.25408 0.67544 0.0
H660 H 0.92902 0.27593 0.74859 0.0
C661 C 0.0209 0.2514 0.72695 0.0
H662 H 0.95058 0.26826 0.64539 0.0
C663 C 0.00868 0.25612 0.78618 0.0
C664 C 0.97503 0.26333 0.79507 0.0
H665 H 0.04637 0.2434 0.72187 0.0
H666 H 0.02479 0.25082 0.82483 0.0
C667 C 0.95504 0.27004 0.7433 0.0
C668 C 0.25616 -0.00134 0.34021 0.0
C669 C 0.2457 0.96547 0.34898 0.0
H670 H 0.26635 0.03741 0.27534 0.0
C671 C 0.24426 0.94387 0.2978 0.0
H672 H 0.25808 0.01581 0.37858 0.0
C673 C 0.24919 0.95615 0.23854 0.0
C674 C 0.25548 -0.00966 0.2292 0.0
H675 H 0.23709 0.91786 0.30302 0.0
H676 H 0.24484 0.93951 0.20004 0.0
C677 C 0.26107 0.01095 0.28087 0.0
C678 C 0.94594 0.71608 0.77403 0.0
C679 C -0.02133 0.70598 0.78536 0.0
H680 H 0.91038 0.73162 0.707 0.0
C681 C -0.0012 0.6975 0.73508 0.0
H682 H 0.9298 0.72288 0.81151 0.0
C683 C -0.01216 0.70289 0.67492 0.0
C684 C 0.95652 0.71689 0.66391 0.0
H685 H 0.02413 0.68942 0.74231 0.0
H686 H 0.00481 0.69844 0.63753 0.0
C687 C 0.93503 0.7216 0.71392 0.0
C688 C 0.74402 0.52127 0.29949 0.0
C689 C 0.74571 0.49976 0.35067 0.0
H690 H 0.74361 0.52542 0.20164 0.0
C691 C 0.75542 0.46643 0.34154 0.0
H692 H 0.73732 0.54735 0.30494 0.0
C693 C 0.75939 0.45396 0.28205 0.0
C694 C 0.75371 0.47456 0.23056 0.0
H695 H 0.75742 0.4493 0.37985 0.0
H696 H 0.76414 0.42744 0.27635 0.0
C697 C 0.74806 0.50882 0.24005 0.0
C698 C 0.4607 0.19997 0.6751 0.0
C699 C 0.493 0.21202 0.66605 0.0
H700 H 0.42325 0.18775 0.74037 0.0
C701 C 0.5147 0.21387 0.71687 0.0
H702 H 0.44354 0.19761 0.63697 0.0
C703 C 0.50319 0.20796 0.77621 0.0
C704 C 0.46967 0.20029 0.78592 0.0
H705 H 0.54009 0.2222 0.7114 0.0
H706 H 0.51971 0.21286 0.81452 0.0
C707 C 0.44917 0.19406 0.7345 0.0
C708 C 0.19971 0.51413 0.27273 0.0
C709 C 0.20154 0.49114 0.22395 0.0
H710 H 0.20483 0.52194 0.36965 0.0
C711 C 0.20294 0.45686 0.23723 0.0
H712 H 0.19948 0.5408 0.26351 0.0
C713 C 0.20666 0.44606 0.29783 0.0
C714 C 0.20911 0.46939 0.34622 0.0
H715 H 0.2052 0.43872 0.20051 0.0
H716 H 0.21041 0.41959 0.30613 0.0
C717 C 0.20331 0.50335 0.33352 0.0
C718 C 0.44369 0.75284 0.7254 0.0
C719 C 0.46513 0.75404 0.67459 0.0
H720 H 0.43936 0.7532 0.82318 0.0
C721 C 0.49815 0.76393 0.68413 0.0
H722 H 0.41784 0.74606 0.71959 0.0
C723 C 0.51037 0.76844 0.74375 0.0
C724 C 0.48981 0.76312 0.79494 0.0
H725 H 0.51521 0.76561 0.64609 0.0
H726 H 0.53664 0.77318 0.74989 0.0
C727 C 0.45588 0.75744 0.78498 0.0
C728 C 0.2183 0.52722 0.7941 0.0
C729 C 0.2108 0.50646 0.84421 0.0
H730 H 0.22211 0.53136 0.69666 0.0
C731 C 0.19481 0.47575 0.83352 0.0
H732 H 0.23031 0.55124 0.80131 0.0
C733 C 0.19036 0.46418 0.77336 0.0
C734 C 0.20135 0.48342 0.72321 0.0
H735 H 0.18872 0.45936 0.87138 0.0
H736 H 0.18113 0.43894 0.76632 0.0
C737 C 0.21322 0.51599 0.73407 0.0
C738 C 0.52128 0.75125 0.22757 0.0
C739 C 0.50018 0.75407 0.1761 0.0
H740 H 0.52521 0.7506 0.32545 0.0
C741 C 0.46776 0.76568 0.18476 0.0
H742 H 0.54669 0.7431 0.22244 0.0
C743 C 0.45554 0.77029 0.24408 0.0
C744 C 0.47552 0.76343 0.2958 0.0
H745 H 0.45101 0.76858 0.14617 0.0
H746 H 0.42956 0.77635 0.24943 0.0
C747 C 0.50911 0.75603 0.28683 0.0
C748 C 0.74451 0.44387 0.79901 0.0
C749 C 0.74585 0.46548 0.85016 0.0
H750 H 0.74518 0.43948 0.70126 0.0
C751 C 0.75626 0.49869 0.8414 0.0
H752 H 0.73739 0.41784 0.80422 0.0
C753 C 0.76118 0.51098 0.78207 0.0
C754 C 0.75569 0.49035 0.7304 0.0
H755 H 0.75809 0.51585 0.87977 0.0
H756 H 0.7664 0.53745 0.77653 0.0
C757 C 0.74946 0.45614 0.73975 0.0
C758 C 0.44581 0.21643 0.27546 0.0
C759 C 0.47853 0.20629 0.28673 0.0
H760 H 0.41021 0.23197 0.20849 0.0
C761 C 0.49862 0.19778 0.23641 0.0
H762 H 0.42971 0.22327 0.31298 0.0
C763 C 0.48761 0.20313 0.17627 0.0
C764 C 0.4563 0.21715 0.16531 0.0
H765 H 0.52395 0.18968 0.2436 0.0
H766 H 0.50456 0.19864 0.13885 0.0
C767 C 0.43486 0.22192 0.21536 0.0
C768 C 0.31161 0.18318 0.05969 0.0
C769 C 0.32084 0.19116 0.99949 0.0
H770 H 0.28146 0.15226 0.11727 0.0
C771 C 0.30504 0.1748 0.95027 0.0
H772 H 0.32348 0.19536 0.09846 0.0
C773 C 0.28095 0.15048 0.96089 0.0
C774 C 0.27239 0.14164 0.02101 0.0
H775 H 0.31145 0.1806 0.90331 0.0
H776 H 0.26958 0.13809 0.92183 0.0
C777 C 0.28774 0.15841 0.0704 0.0
C778 C 0.1745 0.66254 0.05247 0.0
C779 C 0.17158 0.63105 0.02415 0.0
H780 H 0.15371 0.71138 0.06397 0.0
C781 C 0.14472 0.62468 0.98463 0.0
H782 H 0.19498 0.66799 0.08331 0.0
C783 C 0.12157 0.64975 0.97246 0.0
C784 C 0.1245 0.68124 1.00087 0.0
H785 H 0.14208 0.60064 0.96199 0.0
H786 H 0.10124 0.64442 0.94125 0.0
C787 C 0.15091 0.68729 0.04154 0.0
C788 C 0.67457 0.8193 0.96239 0.0
C789 C 0.68303 0.83017 0.02166 0.0
H790 H 0.64468 0.78658 0.90766 0.0
C791 C 0.66794 0.81498 0.07248 0.0
H792 H 0.68579 0.83054 0.92234 0.0
C793 C 0.64458 0.78953 0.06408 0.0
C794 C 0.63565 0.77917 1.00472 0.0
H795 H 0.67416 0.82272 0.11875 0.0
H796 H 0.63308 0.77846 0.10401 0.0
C797 C 0.65097 0.79417 0.95399 0.0
C798 C 0.78521 0.31946 0.96012 0.0
C799 C 0.77571 0.32827 0.01981 0.0
H800 H 0.8173 0.29 0.90433 0.0
C801 C 0.79159 0.31318 0.07006 0.0
H802 H 0.77348 0.33078 0.92049 0.0
C803 C 0.81652 0.28969 0.06081 0.0
C804 C 0.82627 0.28113 1.00114 0.0
H805 H 0.78473 0.31941 0.11661 0.0
H806 H 0.82836 0.27851 0.10047 0.0
C807 C 0.8104 0.29623 0.95087 0.0
C808 C 0.64469 0.12458 0.48458 0.0
C809 C 0.6716 0.13084 0.52404 0.0
H810 H 0.60114 0.14443 0.4416 0.0
C811 C 0.67454 0.16224 0.55267 0.0
H812 H 0.64202 0.1006 0.46172 0.0
C813 C 0.65093 0.18702 0.54209 0.0
C814 C 0.62446 0.18108 0.50148 0.0
H815 H 0.69505 0.16761 0.58347 0.0
H816 H 0.65374 0.21104 0.56476 0.0
C817 C 0.62151 0.14968 0.47277 0.0
C818 C 0.14443 0.28965 0.56399 0.0
C819 C 0.13556 0.27933 0.50456 0.0
H820 H 0.17395 0.32279 0.61886 0.0
C821 C 0.15093 0.29438 0.45393 0.0
H822 H 0.13289 0.27855 0.60384 0.0
C823 C 0.17453 0.31951 0.46249 0.0
C824 C 0.18294 0.33033 0.52183 0.0
H825 H 0.14468 0.28683 0.40756 0.0
H826 H 0.18579 0.33078 0.42252 0.0
C827 C 0.16779 0.31509 0.57254 0.0
C828 C 0.31068 0.79645 0.45074 0.0
C829 C 0.32648 0.7814 0.50115 0.0
H830 H 0.27377 0.83094 0.42004 0.0
C831 C 0.31661 0.78999 0.56073 0.0
H832 H 0.31767 0.79021 0.40426 0.0
C833 C 0.29163 0.81346 0.56977 0.0
C834 C 0.27581 0.8285 0.51938 0.0
H835 H 0.32838 0.77885 0.60049 0.0
H836 H 0.28467 0.81972 0.61626 0.0
C837 C 0.28544 0.81966 0.45977 0.0
C838 C 0.80534 0.67417 0.44991 0.0
C839 C 0.82113 0.69074 0.4989 0.0
H840 H 0.76988 0.63735 0.42197 0.0
C841 C 0.81192 0.68297 0.55921 0.0
H842 H 0.81175 0.67978 0.40286 0.0
C843 C 0.78805 0.65824 0.57026 0.0
C844 C 0.77269 0.6413 0.5211 0.0
H845 H 0.82378 0.69532 0.59781 0.0
H846 H 0.78178 0.65228 0.61721 0.0
C847 C 0.78126 0.64989 0.46086 0.0
loop_
_geom_bond_atom_site_label_1
_geom_bond_atom_site_label_2
_geom_bond_distance
_geom_bond_site_symmetry_2
_ccdc_geom_bond_type
O0 Zn1 1.953 . S
O0 C16 1.225 . S
Zn1 O0 1.953 . S
Zn1 O2 1.949 . S
Zn1 O8 1.919 . S
Zn1 O13 1.924 . S
O2 Zn1 1.949 . S
O2 Zn3 1.923 . S
O2 Zn4 1.950 . S
O2 Zn5 1.945 1_554 S
Zn3 O2 1.923 . S
Zn3 O6 1.933 1_554 S
Zn3 O9 1.941 1_545 S
Zn3 O10 1.965 . S
Zn4 O2 1.950 . S
Zn4 O11 1.938 . S
Zn4 O12 1.906 . S
Zn4 O22 1.953 . S
Zn5 O2 1.945 1_556 S
Zn5 O7 1.932 . S
Zn5 O14 1.977 . S
Zn5 O15 1.910 . S
O6 Zn3 1.933 1_556 S
O6 C17 1.226 . S
O7 Zn5 1.932 . S
O7 C17 1.307 . S
O8 Zn1 1.919 . S
O8 C19 1.253 1_545 S
O9 Zn3 1.941 1_565 S
O9 C19 1.283 . S
O10 Zn3 1.965 . S
O10 C18 1.303 . S
O11 Zn4 1.938 . S
O11 C18 1.247 . S
O12 Zn4 1.906 . S
O12 C20 1.304 . S
O13 Zn1 1.924 . S
O13 C21 1.311 1_554 S
O14 Zn5 1.977 . S
O14 C20 1.272 1_556 S
O15 Zn5 1.910 . S
O15 C21 1.231 . S
C16 O0 1.225 . S
C16 O22 1.298 . S
C17 O6 1.226 . S
C17 O7 1.307 . S
C18 O10 1.303 . S
C18 O11 1.247 . S
C19 O8 1.253 1_565 S
C19 O9 1.283 . S
C20 O12 1.304 . S
C20 O14 1.272 1_554 S
C21 O13 1.311 1_556 S
C21 O15 1.231 . S
O22 Zn4 1.953 . S
O22 C16 1.298 . S
O23 Zn24 1.953 . S
O23 C39 1.225 . S
Zn24 O23 1.953 . S
Zn24 O25 1.949 . S
Zn24 O31 1.919 . S
Zn24 O36 1.924 . S
O25 Zn24 1.949 . S
O25 Zn26 1.923 . S
O25 Zn27 1.950 . S
O25 Zn28 1.945 1_556 S
Zn26 O25 1.923 . S
Zn26 O29 1.933 1_556 S
Zn26 O32 1.941 1_455 S
Zn26 O33 1.965 . S
Zn27 O25 1.950 . S
Zn27 O34 1.938 . S
Zn27 O35 1.906 . S
Zn27 O45 1.953 . S
Zn28 O25 1.945 1_554 S
Zn28 O30 1.932 . S
Zn28 O37 1.977 . S
Zn28 O38 1.910 . S
O29 Zn26 1.933 1_554 S
O29 C40 1.226 . S
O30 Zn28 1.932 . S
O30 C40 1.307 . S
O31 Zn24 1.919 . S
O31 C42 1.253 1_455 S
O32 Zn26 1.941 1_655 S
O32 C42 1.283 . S
O33 Zn26 1.965 . S
O33 C41 1.303 . S
O34 Zn27 1.938 . S
O34 C41 1.247 . S
O35 Zn27 1.906 . S
O35 C43 1.304 . S
O36 Zn24 1.924 . S
O36 C44 1.311 1_556 S
O37 Zn28 1.977 . S
O37 C43 1.272 1_554 S
O38 Zn28 1.910 . S
O38 C44 1.231 . S
C39 O23 1.225 . S
C39 O45 1.298 . S
C40 O29 1.226 . S
C40 O30 1.307 . S
C41 O33 1.303 . S
C41 O34 1.247 . S
C42 O31 1.253 1_655 S
C42 O32 1.283 . S
C43 O35 1.304 . S
C43 O37 1.272 1_556 S
C44 O36 1.311 1_554 S
C44 O38 1.231 . S
O45 Zn27 1.953 . S
O45 C39 1.298 . S
O46 Zn47 1.953 . S
O46 C62 1.225 . S
Zn47 O46 1.953 . S
Zn47 O48 1.949 . S
Zn47 O54 1.919 . S
Zn47 O59 1.924 . S
O48 Zn47 1.949 . S
O48 Zn49 1.923 . S
O48 Zn50 1.950 . S
O48 Zn51 1.945 1_554 S
Zn49 O48 1.923 . S
Zn49 O52 1.933 1_554 S
Zn49 O55 1.941 1_565 S
Zn49 O56 1.965 . S
Zn50 O48 1.950 . S
Zn50 O57 1.938 . S
Zn50 O58 1.906 . S
Zn50 O68 1.953 . S
Zn51 O48 1.945 1_556 S
Zn51 O53 1.932 . S
Zn51 O60 1.977 . S
Zn51 O61 1.910 . S
O52 Zn49 1.933 1_556 S
O52 C63 1.226 . S
O53 Zn51 1.932 . S
O53 C63 1.307 . S
O54 Zn47 1.919 . S
O54 C65 1.253 1_565 S
O55 Zn49 1.941 1_545 S
O55 C65 1.283 . S
O56 Zn49 1.965 . S
O56 C64 1.303 . S
O57 Zn50 1.938 . S
O57 C64 1.247 . S
O58 Zn50 1.906 . S
O58 C66 1.304 . S
O59 Zn47 1.924 . S
O59 C67 1.311 1_554 S
O60 Zn51 1.977 . S
O60 C66 1.272 1_556 S
O61 Zn51 1.910 . S
O61 C67 1.231 . S
C62 O46 1.225 . S
C62 O68 1.298 . S
C63 O52 1.226 . S
C63 O53 1.307 . S
C64 O56 1.303 . S
C64 O57 1.247 . S
C65 O54 1.253 1_545 S
C65 O55 1.283 . S
C66 O58 1.304 . S
C66 O60 1.272 1_554 S
C67 O59 1.311 1_556 S
C67 O61 1.231 . S
O68 Zn50 1.953 . S
O68 C62 1.298 . S
O69 Zn70 1.953 . S
O69 C85 1.225 . S
Zn70 O69 1.953 . S
Zn70 O71 1.949 . S
Zn70 O77 1.919 . S
Zn70 O82 1.924 . S
O71 Zn70 1.949 . S
O71 Zn72 1.923 . S
O71 Zn73 1.950 . S
O71 Zn74 1.945 1_556 S
Zn72 O71 1.923 . S
Zn72 O75 1.933 1_556 S
Zn72 O78 1.941 1_655 S
Zn72 O79 1.965 . S
Zn73 O71 1.950 . S
Zn73 O80 1.938 . S
Zn73 O81 1.906 . S
Zn73 O91 1.953 . S
Zn74 O71 1.945 1_554 S
Zn74 O76 1.932 . S
Zn74 O83 1.977 . S
Zn74 O84 1.910 . S
O75 Zn72 1.933 1_554 S
O75 C86 1.226 . S
O76 Zn74 1.932 . S
O76 C86 1.307 . S
O77 Zn70 1.919 . S
O77 C88 1.253 1_655 S
O78 Zn72 1.941 1_455 S
O78 C88 1.283 . S
O79 Zn72 1.965 . S
O79 C87 1.303 . S
O80 Zn73 1.938 . S
O80 C87 1.247 . S
O81 Zn73 1.906 . S
O81 C89 1.304 . S
O82 Zn70 1.924 . S
O82 C90 1.311 1_556 S
O83 Zn74 1.977 . S
O83 C89 1.272 1_554 S
O84 Zn74 1.910 . S
O84 C90 1.231 . S
C85 O69 1.225 . S
C85 O91 1.298 . S
C86 O75 1.226 . S
C86 O76 1.307 . S
C87 O79 1.303 . S
C87 O80 1.247 . S
C88 O77 1.253 1_455 S
C88 O78 1.283 . S
C89 O81 1.304 . S
C89 O83 1.272 1_556 S
C90 O82 1.311 1_554 S
C90 O84 1.231 . S
O91 Zn73 1.953 . S
O91 C85 1.298 . S
O92 Zn93 1.953 . S
O92 C108 1.225 . S
Zn93 O92 1.953 . S
Zn93 O94 1.949 . S
Zn93 O100 1.919 . S
Zn93 O105 1.924 . S
O94 Zn93 1.949 . S
O94 Zn95 1.923 . S
O94 Zn96 1.950 . S
O94 Zn97 1.945 . S
Zn95 O94 1.923 . S
Zn95 O98 1.933 . S
Zn95 O101 1.941 . S
Zn95 O102 1.989 . S
Zn96 O94 1.950 . S
Zn96 O103 1.938 . S
Zn96 O104 1.906 . S
Zn96 O114 1.953 . S
Zn97 O94 1.945 . S
Zn97 O99 1.932 . S
Zn97 O106 1.977 . S
Zn97 O107 1.910 . S
O98 Zn95 1.933 . S
O98 C109 1.226 . S
O99 Zn97 1.932 . S
O99 C109 1.307 . S
O100 Zn93 1.919 . S
O100 C111 1.253 . S
O101 Zn95 1.941 . S
O101 C111 1.283 . S
O102 Zn95 1.989 . S
O102 C110 1.292 1_545 S
O103 Zn96 1.938 . S
O103 C110 1.247 1_545 S
O104 Zn96 1.906 . S
O104 C112 1.304 . S
O105 Zn93 1.924 . S
O105 C113 1.311 . S
O106 Zn97 1.977 . S
O106 C112 1.272 . S
O107 Zn97 1.910 . S
O107 C113 1.231 . S
C108 O92 1.225 . S
C108 O114 1.298 . S
C109 O98 1.226 . S
C109 O99 1.307 . S
C110 O102 1.292 1_565 S
C110 O103 1.247 1_565 S
C111 O100 1.253 . S
C111 O101 1.283 . S
C112 O104 1.304 . S
C112 O106 1.272 . S
C113 O105 1.311 . S
C113 O107 1.231 . S
O114 Zn96 1.953 . S
O114 C108 1.298 . S
O115 Zn116 1.953 . S
O115 C131 1.225 . S
Zn116 O115 1.953 . S
Zn116 O117 1.949 . S
Zn116 O123 1.919 . S
Zn116 O128 1.924 . S
O117 Zn116 1.949 . S
O117 Zn118 1.923 . S
O117 Zn119 1.950 . S
O117 Zn120 1.945 . S
Zn118 O117 1.923 . S
Zn118 O121 1.933 . S
Zn118 O124 1.941 1_455 S
Zn118 O125 1.965 . S
Zn119 O117 1.950 . S
Zn119 O126 1.938 . S
Zn119 O127 1.906 . S
Zn119 O137 1.953 . S
Zn120 O117 1.945 . S
Zn120 O122 1.932 . S
Zn120 O129 1.977 . S
Zn120 O130 1.910 . S
O121 Zn118 1.933 . S
O121 C132 1.226 . S
O122 Zn120 1.932 . S
O122 C132 1.307 . S
O123 Zn116 1.919 . S
O123 C134 1.253 1_455 S
O124 Zn118 1.941 1_655 S
O124 C134 1.283 . S
O125 Zn118 1.965 . S
O125 C133 1.303 . S
O126 Zn119 1.938 . S
O126 C133 1.247 . S
O127 Zn119 1.906 . S
O127 C135 1.304 . S
O128 Zn116 1.924 . S
O128 C136 1.311 . S
O129 Zn120 1.977 . S
O129 C135 1.272 . S
O130 Zn120 1.910 . S
O130 C136 1.231 . S
C131 O115 1.225 . S
C131 O137 1.298 . S
C132 O121 1.226 . S
C132 O122 1.307 . S
C133 O125 1.303 . S
C133 O126 1.247 . S
C134 O123 1.253 1_655 S
C134 O124 1.283 . S
C135 O127 1.304 . S
C135 O129 1.272 . S
C136 O128 1.311 . S
C136 O130 1.231 . S
O137 Zn119 1.953 . S
O137 C131 1.298 . S
O138 Zn139 1.953 . S
O138 C154 1.225 . S
Zn139 O138 1.953 . S
Zn139 O140 1.949 . S
Zn139 O146 1.919 . S
Zn139 O151 1.924 . S
O140 Zn139 1.949 . S
O140 Zn141 1.923 . S
O140 Zn142 1.950 . S
O140 Zn143 1.945 . S
Zn141 O140 1.923 . S
Zn141 O144 1.933 . S
Zn141 O147 1.941 1_565 S
Zn141 O148 1.965 . S
Zn142 O140 1.950 . S
Zn142 O149 1.938 . S
Zn142 O150 1.906 . S
Zn142 O160 1.953 . S
Zn143 O140 1.945 . S
Zn143 O145 1.932 . S
Zn143 O152 1.977 . S
Zn143 O153 1.910 . S
O144 Zn141 1.933 . S
O144 C155 1.226 . S
O145 Zn143 1.932 . S
O145 C155 1.307 . S
O146 Zn139 1.919 . S
O146 C157 1.253 1_565 S
O147 Zn141 1.941 1_545 S
O147 C157 1.283 . S
O148 Zn141 1.965 . S
O148 C156 1.303 . S
O149 Zn142 1.938 . S
O149 C156 1.247 . S
O150 Zn142 1.906 . S
O150 C158 1.304 . S
O151 Zn139 1.924 . S
O151 C159 1.311 . S
O152 Zn143 1.977 . S
O152 C158 1.272 . S
O153 Zn143 1.910 . S
O153 C159 1.231 . S
C154 O138 1.225 . S
C154 O160 1.298 . S
C155 O144 1.226 . S
C155 O145 1.307 . S
C156 O148 1.303 . S
C156 O149 1.247 . S
C157 O146 1.253 1_545 S
C157 O147 1.283 . S
C158 O150 1.304 . S
C158 O152 1.272 . S
C159 O151 1.311 . S
C159 O153 1.231 . S
O160 Zn142 1.953 . S
O160 C154 1.298 . S
O161 Zn162 1.953 . S
O161 C177 1.225 . S
Zn162 O161 1.953 . S
Zn162 O163 1.949 . S
Zn162 O169 1.919 . S
Zn162 O174 1.924 . S
O163 Zn162 1.949 . S
O163 Zn164 1.923 . S
O163 Zn165 1.950 . S
O163 Zn166 1.945 . S
Zn164 O163 1.923 . S
Zn164 O167 1.933 . S
Zn164 O170 1.941 1_655 S
Zn164 O171 1.965 . S
Zn165 O163 1.950 . S
Zn165 O172 1.938 . S
Zn165 O173 1.906 . S
Zn165 O183 1.953 . S
Zn166 O163 1.945 . S
Zn166 O168 1.932 . S
Zn166 O175 1.977 . S
Zn166 O176 1.910 . S
O167 Zn164 1.933 . S
O167 C178 1.226 . S
O168 Zn166 1.932 . S
O168 C178 1.307 . S
O169 Zn162 1.919 . S
O169 C180 1.253 1_655 S
O170 Zn164 1.941 1_455 S
O170 C180 1.283 . S
O171 Zn164 1.965 . S
O171 C179 1.303 . S
O172 Zn165 1.938 . S
O172 C179 1.247 . S
O173 Zn165 1.906 . S
O173 C181 1.304 . S
O174 Zn162 1.924 . S
O174 C182 1.311 . S
O175 Zn166 1.977 . S
O175 C181 1.272 . S
O176 Zn166 1.910 . S
O176 C182 1.231 . S
C177 O161 1.225 . S
C177 O183 1.298 . S
C178 O167 1.226 . S
C178 O168 1.307 . S
C179 O171 1.303 . S
C179 O172 1.247 . S
C180 O169 1.253 1_455 S
C180 O170 1.283 . S
C181 O173 1.304 . S
C181 O175 1.272 . S
C182 O174 1.311 . S
C182 O176 1.231 . S
O183 Zn165 1.953 . S
O183 C177 1.298 . S
O184 Zn185 1.953 . S
O184 C200 1.225 . S
Zn185 O184 1.953 . S
Zn185 O186 1.949 . S
Zn185 O192 1.919 . S
Zn185 O197 1.924 . S
O186 Zn185 1.949 . S
O186 Zn187 1.923 . S
O186 Zn188 1.950 . S
O186 Zn189 1.945 . S
Zn187 O186 1.923 . S
Zn187 O190 1.933 . S
Zn187 O193 1.941 . S
Zn187 O194 1.965 . S
Zn188 O186 1.950 . S
Zn188 O195 1.938 . S
Zn188 O196 1.906 . S
Zn188 O206 1.953 . S
Zn189 O186 1.945 . S
Zn189 O191 1.932 . S
Zn189 O198 1.977 . S
Zn189 O199 1.910 . S
O190 Zn187 1.933 . S
O190 C201 1.226 . S
O191 Zn189 1.932 . S
O191 C201 1.307 . S
O192 Zn185 1.919 . S
O192 C203 1.253 . S
O193 Zn187 1.941 . S
O193 C203 1.283 . S
O194 Zn187 1.965 . S
O194 C202 1.303 . S
O195 Zn188 1.938 . S
O195 C202 1.247 . S
O196 Zn188 1.906 . S
O196 C204 1.304 . S
O197 Zn185 1.924 . S
O197 C205 1.311 . S
O198 Zn189 1.977 . S
O198 C204 1.272 . S
O199 Zn189 1.910 . S
O199 C205 1.231 . S
C200 O184 1.225 . S
C200 O206 1.298 . S
C201 O190 1.226 . S
C201 O191 1.307 . S
C202 O194 1.303 . S
C202 O195 1.247 . S
C203 O192 1.253 . S
C203 O193 1.283 . S
C204 O196 1.304 . S
C204 O198 1.272 . S
C205 O197 1.311 . S
C205 O199 1.231 . S
O206 Zn188 1.953 . S
O206 C200 1.298 . S
O207 Zn208 1.953 . S
O207 C223 1.225 . S
Zn208 O207 1.953 . S
Zn208 O209 1.949 . S
Zn208 O215 1.919 . S
Zn208 O220 1.924 . S
O209 Zn208 1.949 . S
O209 Zn210 1.923 . S
O209 Zn211 1.950 . S
O209 Zn212 1.945 . S
Zn210 O209 1.923 . S
Zn210 O213 1.933 . S
Zn210 O216 1.941 . S
Zn210 O217 1.965 . S
Zn211 O209 1.950 . S
Zn211 O218 1.938 . S
Zn211 O219 1.906 . S
Zn211 O229 1.953 . S
Zn212 O209 1.945 . S
Zn212 O214 1.932 . S
Zn212 O221 1.977 . S
Zn212 O222 1.910 . S
O213 Zn210 1.933 . S
O213 C224 1.226 . S
O214 Zn212 1.932 . S
O214 C224 1.307 . S
O215 Zn208 1.919 . S
O215 C226 1.253 . S
O216 Zn210 1.941 . S
O216 C226 1.283 . S
O217 Zn210 1.965 . S
O217 C225 1.303 . S
O218 Zn211 1.938 . S
O218 C225 1.247 . S
O219 Zn211 1.906 . S
O219 C227 1.304 . S
O220 Zn208 1.924 . S
O220 C228 1.311 . S
O221 Zn212 1.977 . S
O221 C227 1.272 . S
O222 Zn212 1.910 . S
O222 C228 1.231 . S
C223 O207 1.225 . S
C223 O229 1.298 . S
C224 O213 1.226 . S
C224 O214 1.307 . S
C225 O217 1.303 . S
C225 O218 1.247 . S
C226 O215 1.253 . S
C226 O216 1.283 . S
C227 O219 1.304 . S
C227 O221 1.272 . S
C228 O220 1.311 . S
C228 O222 1.231 . S
O229 Zn211 1.953 . S
O229 C223 1.298 . S
O230 Zn231 1.953 . S
O230 C246 1.225 . S
Zn231 O230 1.953 . S
Zn231 O232 1.949 . S
Zn231 O238 1.919 . S
Zn231 O243 1.924 . S
O232 Zn231 1.949 . S
O232 Zn233 1.923 . S
O232 Zn234 1.950 . S
O232 Zn235 1.945 . S
Zn233 O232 1.923 . S
Zn233 O236 1.933 . S
Zn233 O239 1.941 . S
Zn233 O240 1.965 . S
Zn234 O232 1.950 . S
Zn234 O241 1.938 . S
Zn234 O242 1.906 . S
Zn234 O252 1.953 . S
Zn235 O232 1.945 . S
Zn235 O237 1.932 . S
Zn235 O244 1.977 . S
Zn235 O245 1.910 . S
O236 Zn233 1.933 . S
O236 C247 1.226 . S
O237 Zn235 1.932 . S
O237 C247 1.307 . S
O238 Zn231 1.919 . S
O238 C249 1.253 . S
O239 Zn233 1.941 . S
O239 C249 1.283 . S
O240 Zn233 1.965 . S
O240 C248 1.303 . S
O241 Zn234 1.938 . S
O241 C248 1.247 . S
O242 Zn234 1.906 . S
O242 C250 1.304 . S
O243 Zn231 1.924 . S
O243 C251 1.311 . S
O244 Zn235 1.977 . S
O244 C250 1.272 . S
O245 Zn235 1.910 . S
O245 C251 1.231 . S
C246 O230 1.225 . S
C246 O252 1.298 . S
C247 O236 1.226 . S
C247 O237 1.307 . S
C248 O240 1.303 . S
C248 O241 1.247 . S
C249 O238 1.253 . S
C249 O239 1.283 . S
C250 O242 1.304 . S
C250 O244 1.272 . S
C251 O243 1.311 . S
C251 O245 1.231 . S
O252 Zn234 1.953 . S
O252 C246 1.298 . S
O253 Zn254 1.953 . S
O253 C269 1.225 . S
Zn254 O253 1.953 . S
Zn254 O255 1.949 . S
Zn254 O261 1.919 . S
Zn254 O266 1.924 . S
O255 Zn254 1.949 . S
O255 Zn256 1.923 . S
O255 Zn257 1.950 . S
O255 Zn258 1.945 . S
Zn256 O255 1.923 . S
Zn256 O259 1.933 . S
Zn256 O262 1.941 . S
Zn256 O263 1.965 . S
Zn257 O255 1.950 . S
Zn257 O264 1.938 . S
Zn257 O265 1.906 . S
Zn257 O275 1.953 . S
Zn258 O255 1.945 . S
Zn258 O260 1.932 . S
Zn258 O267 1.977 . S
Zn258 O268 1.910 . S
O259 Zn256 1.933 . S
O259 C270 1.226 . S
O260 Zn258 1.932 . S
O260 C270 1.307 . S
O261 Zn254 1.919 . S
O261 C272 1.253 . S
O262 Zn256 1.941 . S
O262 C272 1.283 . S
O263 Zn256 1.965 . S
O263 C271 1.303 . S
O264 Zn257 1.938 . S
O264 C271 1.247 . S
O265 Zn257 1.906 . S
O265 C273 1.304 . S
O266 Zn254 1.924 . S
O266 C274 1.311 . S
O267 Zn258 1.977 . S
O267 C273 1.272 . S
O268 Zn258 1.910 . S
O268 C274 1.231 . S
C269 O253 1.225 . S
C269 O275 1.298 . S
C270 O259 1.226 . S
C270 O260 1.307 . S
C271 O263 1.303 . S
C271 O264 1.247 . S
C272 O261 1.253 . S
C272 O262 1.283 . S
C273 O265 1.304 . S
C273 O267 1.272 . S
C274 O266 1.311 . S
C274 O268 1.231 . S
O275 Zn257 1.953 . S
O275 C269 1.298 . S
O276 Zn277 1.953 1_556 S
O276 C292 1.225 . S
Zn277 O276 1.953 1_554 S
Zn277 O278 1.949 . S
Zn277 O284 1.919 . S
Zn277 O289 1.924 . S
O278 Zn277 1.949 . S
O278 Zn279 1.923 . S
O278 Zn280 1.950 1_554 S
O278 Zn281 1.945 . S
Zn279 O278 1.923 . S
Zn279 O282 1.933 . S
Zn279 O285 1.941 . S
Zn279 O286 1.965 . S
Zn280 O278 1.950 1_556 S
Zn280 O287 1.938 . S
Zn280 O288 1.906 . S
Zn280 O298 1.953 . S
Zn281 O278 1.945 . S
Zn281 O283 1.932 . S
Zn281 O290 1.977 . S
Zn281 O291 1.910 . S
O282 Zn279 1.933 . S
O282 C293 1.226 . S
O283 Zn281 1.932 . S
O283 C293 1.307 . S
O284 Zn277 1.919 . S
O284 C295 1.253 . S
O285 Zn279 1.941 . S
O285 C295 1.283 . S
O286 Zn279 1.965 . S
O286 C294 1.303 . S
O287 Zn280 1.938 . S
O287 C294 1.247 1_556 S
O288 Zn280 1.906 . S
O288 C296 1.304 . S
O289 Zn277 1.924 . S
O289 C297 1.311 . S
O290 Zn281 1.977 . S
O290 C296 1.272 1_554 S
O291 Zn281 1.910 . S
O291 C297 1.231 . S
C292 O276 1.225 . S
C292 O298 1.298 . S
C293 O282 1.226 . S
C293 O283 1.307 . S
C294 O286 1.303 . S
C294 O287 1.247 1_554 S
C295 O284 1.253 . S
C295 O285 1.283 . S
C296 O288 1.304 . S
C296 O290 1.272 1_556 S
C297 O289 1.311 . S
C297 O291 1.231 . S
O298 Zn280 1.953 . S
O298 C292 1.298 . S
O299 Zn300 1.953 . S
O299 C315 1.225 . S
Zn300 O299 1.953 . S
Zn300 O301 1.949 . S
Zn300 O307 1.919 . S
Zn300 O312 1.924 . S
O301 Zn300 1.949 . S
O301 Zn302 1.923 . S
O301 Zn303 1.950 . S
O301 Zn304 1.945 1_556 S
Zn302 O301 1.923 . S
Zn302 O305 1.933 1_556 S
Zn302 O308 1.941 . S
Zn302 O309 1.965 . S
Zn303 O301 1.950 . S
Zn303 O310 1.938 . S
Zn303 O311 1.906 . S
Zn303 O321 1.953 . S
Zn304 O301 1.945 1_554 S
Zn304 O306 1.932 . S
Zn304 O313 1.977 . S
Zn304 O314 1.910 . S
O305 Zn302 1.933 1_554 S
O305 C316 1.226 . S
O306 Zn304 1.932 . S
O306 C316 1.307 . S
O307 Zn300 1.919 . S
O307 C318 1.253 . S
O308 Zn302 1.941 . S
O308 C318 1.283 . S
O309 Zn302 1.965 . S
O309 C317 1.303 . S
O310 Zn303 1.938 . S
O310 C317 1.247 . S
O311 Zn303 1.906 . S
O311 C319 1.304 . S
O312 Zn300 1.924 . S
O312 C320 1.311 1_556 S
O313 Zn304 1.977 . S
O313 C319 1.272 1_554 S
O314 Zn304 1.910 . S
O314 C320 1.231 . S
C315 O299 1.225 . S
C315 O321 1.298 . S
C316 O305 1.226 . S
C316 O306 1.307 . S
C317 O309 1.303 . S
C317 O310 1.247 . S
C318 O307 1.253 . S
C318 O308 1.283 . S
C319 O311 1.304 . S
C319 O313 1.272 1_556 S
C320 O312 1.311 1_554 S
C320 O314 1.231 . S
O321 Zn303 1.953 . S
O321 C315 1.298 . S
O322 Zn323 1.953 . S
O322 C338 1.225 . S
Zn323 O322 1.953 . S
Zn323 O324 1.949 . S
Zn323 O330 1.919 . S
Zn323 O335 1.924 . S
O324 Zn323 1.949 . S
O324 Zn325 1.923 . S
O324 Zn326 1.950 . S
O324 Zn327 1.945 1_554 S
Zn325 O324 1.923 . S
Zn325 O328 1.933 1_554 S
Zn325 O331 1.941 . S
Zn325 O332 1.965 . S
Zn326 O324 1.950 . S
Zn326 O333 1.938 . S
Zn326 O334 1.906 . S
Zn326 O344 1.953 . S
Zn327 O324 1.945 1_556 S
Zn327 O329 1.932 . S
Zn327 O336 1.977 . S
Zn327 O337 1.910 . S
O328 Zn325 1.933 1_556 S
O328 C339 1.226 . S
O329 Zn327 1.932 . S
O329 C339 1.307 . S
O330 Zn323 1.919 . S
O330 C341 1.253 . S
O331 Zn325 1.941 . S
O331 C341 1.283 . S
O332 Zn325 1.965 . S
O332 C340 1.303 . S
O333 Zn326 1.938 . S
O333 C340 1.247 . S
O334 Zn326 1.906 . S
O334 C342 1.304 . S
O335 Zn323 1.924 . S
O335 C343 1.311 1_554 S
O336 Zn327 1.977 . S
O336 C342 1.272 1_556 S
O337 Zn327 1.910 . S
O337 C343 1.231 . S
C338 O322 1.225 . S
C338 O344 1.298 . S
C339 O328 1.226 . S
C339 O329 1.307 . S
C340 O332 1.303 . S
C340 O333 1.247 . S
C341 O330 1.253 . S
C341 O331 1.283 . S
C342 O334 1.304 . S
C342 O336 1.272 1_554 S
C343 O335 1.311 1_556 S
C343 O337 1.231 . S
O344 Zn326 1.953 . S
O344 C338 1.298 . S
O345 Zn346 1.953 . S
O345 C361 1.225 . S
Zn346 O345 1.953 . S
Zn346 O347 1.949 . S
Zn346 O353 1.919 . S
Zn346 O358 1.924 . S
O347 Zn346 1.949 . S
O347 Zn348 1.923 . S
O347 Zn349 1.950 . S
O347 Zn350 1.945 1_556 S
Zn348 O347 1.923 . S
Zn348 O351 1.933 1_556 S
Zn348 O354 1.941 . S
Zn348 O355 1.965 . S
Zn349 O347 1.950 . S
Zn349 O356 1.938 . S
Zn349 O357 1.906 . S
Zn349 O367 1.953 . S
Zn350 O347 1.945 1_554 S
Zn350 O352 1.932 . S
Zn350 O359 1.977 . S
Zn350 O360 1.910 . S
O351 Zn348 1.933 1_554 S
O351 C362 1.226 . S
O352 Zn350 1.932 . S
O352 C362 1.307 . S
O353 Zn346 1.919 . S
O353 C364 1.253 . S
O354 Zn348 1.941 . S
O354 C364 1.283 . S
O355 Zn348 1.965 . S
O355 C363 1.303 . S
O356 Zn349 1.938 . S
O356 C363 1.247 . S
O357 Zn349 1.906 . S
O357 C365 1.304 . S
O358 Zn346 1.924 . S
O358 C366 1.311 1_556 S
O359 Zn350 1.977 . S
O359 C365 1.272 1_554 S
O360 Zn350 1.910 . S
O360 C366 1.231 . S
C361 O345 1.225 . S
C361 O367 1.298 . S
C362 O351 1.226 . S
C362 O352 1.307 . S
C363 O355 1.303 . S
C363 O356 1.247 . S
C364 O353 1.253 . S
C364 O354 1.283 . S
C365 O357 1.304 . S
C365 O359 1.272 1_556 S
C366 O358 1.311 1_554 S
C366 O360 1.231 . S
O367 Zn349 1.953 . S
O367 C361 1.298 . S
C368 C369 1.387 . S
C368 H372 0.950 . S
C368 C377 1.390 . S
C369 C368 1.387 . S
C369 C371 1.387 . S
H370 C377 0.950 . S
C371 C369 1.387 . S
C371 C373 1.390 . S
C371 H375 0.950 . S
H372 C368 0.950 . S
C373 C371 1.390 . S
C373 C374 1.387 . S
C373 H376 0.950 . S
C374 C373 1.387 . S
C374 C377 1.387 . S
H375 C371 0.950 . S
H376 C373 0.950 . S
C377 C368 1.390 . S
C377 H370 0.950 . S
C377 C374 1.387 . S
C378 C379 1.387 . S
C378 H382 0.950 . S
C378 C387 1.390 . S
C379 C378 1.387 . S
C379 C381 1.387 . S
H380 C387 0.950 . S
C381 C379 1.387 . S
C381 C383 1.390 . S
C381 H385 0.950 . S
H382 C378 0.950 . S
C383 C381 1.390 . S
C383 C384 1.387 . S
C383 H386 0.950 . S
C384 C383 1.387 . S
C384 C387 1.387 . S
H385 C381 0.950 . S
H386 C383 0.950 . S
C387 C378 1.390 . S
C387 H380 0.950 . S
C387 C384 1.387 . S
C388 C389 1.387 . S
C388 H392 0.950 . S
C388 C397 1.390 . S
C389 C388 1.387 . S
C389 C391 1.387 . S
H390 C397 0.950 . S
C391 C389 1.387 . S
C391 C393 1.390 . S
C391 H395 0.950 . S
H392 C388 0.950 . S
C393 C391 1.390 . S
C393 C394 1.387 . S
C393 H396 0.950 . S
C394 C393 1.387 . S
C394 C397 1.387 . S
H395 C391 0.950 . S
H396 C393 0.950 . S
C397 C388 1.390 . S
C397 H390 0.950 . S
C397 C394 1.387 . S
C398 C399 1.387 . S
C398 H402 0.950 . S
C398 C407 1.390 . S
C399 C398 1.387 . S
C399 C401 1.387 . S
H400 C407 0.950 . S
C401 C399 1.387 . S
C401 C403 1.390 . S
C401 H405 0.950 . S
H402 C398 0.950 . S
C403 C401 1.390 . S
C403 C404 1.387 . S
C403 H406 0.950 . S
C404 C403 1.387 . S
C404 C407 1.387 . S
H405 C401 0.950 . S
H406 C403 0.950 . S
C407 C398 1.390 . S
C407 H400 0.950 . S
C407 C404 1.387 . S
C408 C409 1.387 . S
C408 H412 0.950 . S
C408 C417 1.390 . S
C409 C408 1.387 . S
C409 C411 1.387 . S
H410 C417 0.950 . S
C411 C409 1.387 . S
C411 C413 1.390 . S
C411 H415 0.950 . S
H412 C408 0.950 . S
C413 C411 1.390 . S
C413 C414 1.387 . S
C413 H416 0.950 . S
C414 C413 1.387 . S
C414 C417 1.387 . S
H415 C411 0.950 . S
H416 C413 0.950 . S
C417 C408 1.390 . S
C417 H410 0.950 . S
C417 C414 1.387 . S
C418 C419 1.387 . S
C418 H422 0.950 . S
C418 C427 1.390 . S
C419 C418 1.387 . S
C419 C421 1.387 . S
H420 C427 0.950 . S
C421 C419 1.387 . S
C421 C423 1.390 . S
C421 H425 0.950 . S
H422 C418 0.950 . S
C423 C421 1.390 . S
C423 C424 1.387 . S
C423 H426 0.950 . S
C424 C423 1.387 . S
C424 C427 1.387 . S
H425 C421 0.950 . S
H426 C423 0.950 . S
C427 C418 1.390 . S
C427 H420 0.950 . S
C427 C424 1.387 . S
C428 C429 1.387 . S
C428 H432 0.950 . S
C428 C437 1.390 . S
C429 C428 1.387 . S
C429 C431 1.387 . S
H430 C437 0.950 . S
C431 C429 1.387 . S
C431 C433 1.390 . S
C431 H435 0.950 . S
H432 C428 0.950 . S
C433 C431 1.390 . S
C433 C434 1.387 . S
C433 H436 0.950 . S
C434 C433 1.387 . S
C434 C437 1.387 . S
H435 C431 0.950 . S
H436 C433 0.950 . S
C437 C428 1.390 . S
C437 H430 0.950 . S
C437 C434 1.387 . S
C438 C439 1.387 . S
C438 H442 0.950 . S
C438 C447 1.390 . S
C439 C438 1.387 . S
C439 C441 1.387 . S
H440 C447 0.950 . S
C441 C439 1.387 . S
C441 C443 1.390 . S
C441 H445 0.950 . S
H442 C438 0.950 . S
C443 C441 1.390 . S
C443 C444 1.387 . S
C443 H446 0.950 . S
C444 C443 1.387 . S
C444 C447 1.387 . S
H445 C441 0.950 . S
H446 C443 0.950 . S
C447 C438 1.390 . S
C447 H440 0.950 . S
C447 C444 1.387 . S
C448 C449 1.387 1_556 S
C448 H452 0.950 . S
C448 C457 1.390 . S
C449 C448 1.387 1_554 S
C449 C451 1.387 . S
H450 C457 0.950 . S
C451 C449 1.387 . S
C451 C453 1.390 . S
C451 H455 0.950 . S
H452 C448 0.950 . S
C453 C451 1.390 . S
C453 C454 1.387 . S
C453 H456 0.950 . S
C454 C453 1.387 . S
C454 C457 1.387 1_554 S
H455 C451 0.950 . S
H456 C453 0.950 . S
C457 C448 1.390 . S
C457 H450 0.950 . S
C457 C454 1.387 1_556 S
C458 C459 1.387 1_554 S
C458 H462 0.950 . S
C458 C467 1.390 . S
C459 C458 1.387 1_556 S
C459 C461 1.387 . S
H460 C467 0.950 . S
C461 C459 1.387 . S
C461 C463 1.390 . S
C461 H465 0.950 . S
H462 C458 0.950 . S
C463 C461 1.390 . S
C463 C464 1.387 . S
C463 H466 0.950 . S
C464 C463 1.387 . S
C464 C467 1.387 1_556 S
H465 C461 0.950 . S
H466 C463 0.950 . S
C467 C458 1.390 . S
C467 H460 0.950 . S
C467 C464 1.387 1_554 S
C468 C469 1.387 . S
C468 H472 0.950 . S
C468 C477 1.390 . S
C469 C468 1.387 . S
C469 C471 1.387 1_554 S
H470 C477 0.950 . S
C471 C469 1.387 1_556 S
C471 C473 1.390 . S
C471 H475 0.950 . S
H472 C468 0.950 . S
C473 C471 1.390 . S
C473 C474 1.387 1_556 S
C473 H476 0.950 . S
C474 C473 1.387 1_554 S
C474 C477 1.387 . S
H475 C471 0.950 . S
H476 C473 0.950 . S
C477 C468 1.390 . S
C477 H470 0.950 . S
C477 C474 1.387 . S
C478 C479 1.387 1_554 S
C478 H482 0.950 . S
C478 C487 1.390 . S
C479 C478 1.387 1_556 S
C479 C481 1.387 . S
H480 C487 0.950 . S
C481 C479 1.387 . S
C481 C483 1.390 . S
C481 H485 0.950 . S
H482 C478 0.950 . S
C483 C481 1.390 . S
C483 C484 1.387 . S
C483 H486 0.950 . S
C484 C483 1.387 . S
C484 C487 1.387 1_556 S
H485 C481 0.950 . S
H486 C483 0.950 . S
C487 C478 1.390 . S
C487 H480 0.950 . S
C487 C484 1.387 1_554 S
C488 C489 1.387 . S
C488 H492 0.950 . S
C488 C497 1.390 . S
C489 C488 1.387 . S
C489 C491 1.387 . S
H490 C497 0.950 . S
C491 C489 1.387 . S
C491 C493 1.390 . S
C491 H495 0.950 . S
H492 C488 0.950 . S
C493 C491 1.390 . S
C493 C494 1.387 . S
C493 H496 0.950 . S
C494 C493 1.387 . S
C494 C497 1.387 . S
H495 C491 0.950 . S
H496 C493 0.950 . S
C497 C488 1.390 . S
C497 H490 0.950 . S
C497 C494 1.387 . S
C498 C499 1.387 . S
C498 H502 0.950 . S
C498 C507 1.390 . S
C499 C498 1.387 . S
C499 C501 1.387 . S
H500 C507 0.950 . S
C501 C499 1.387 . S
C501 C503 1.390 . S
C501 H505 0.950 . S
H502 C498 0.950 . S
C503 C501 1.390 . S
C503 C504 1.387 . S
C503 H506 0.950 . S
C504 C503 1.387 . S
C504 C507 1.387 . S
H505 C501 0.950 . S
H506 C503 0.950 . S
C507 C498 1.390 . S
C507 H500 0.950 . S
C507 C504 1.387 . S
C508 C509 1.387 . S
C508 H512 0.950 . S
C508 C517 1.390 . S
C509 C508 1.387 . S
C509 C511 1.387 . S
H510 C517 0.950 . S
C511 C509 1.387 . S
C511 C513 1.390 . S
C511 H515 0.950 . S
H512 C508 0.950 . S
C513 C511 1.390 . S
C513 C514 1.387 . S
C513 H516 0.950 . S
C514 C513 1.387 . S
C514 C517 1.387 . S
H515 C511 0.950 . S
H516 C513 0.950 . S
C517 C508 1.390 . S
C517 H510 0.950 . S
C517 C514 1.387 . S
C518 C519 1.387 . S
C518 H522 0.950 . S
C518 C527 1.390 . S
C519 C518 1.387 . S
C519 C521 1.387 . S
H520 C527 0.950 . S
C521 C519 1.387 . S
C521 C523 1.390 . S
C521 H525 0.950 . S
H522 C518 0.950 . S
C523 C521 1.390 . S
C523 C524 1.387 . S
C523 H526 0.950 . S
C524 C523 1.387 . S
C524 C527 1.387 . S
H525 C521 0.950 . S
H526 C523 0.950 . S
C527 C518 1.390 . S
C527 H520 0.950 . S
C527 C524 1.387 . S
C528 C529 1.387 . S
C528 H532 0.950 . S
C528 C537 1.390 . S
C529 C528 1.387 . S
C529 C531 1.387 . S
H530 C537 0.950 . S
C531 C529 1.387 . S
C531 C533 1.390 . S
C531 H535 0.950 . S
H532 C528 0.950 . S
C533 C531 1.390 . S
C533 C534 1.387 . S
C533 H536 0.950 . S
C534 C533 1.387 . S
C534 C537 1.387 . S
H535 C531 0.950 . S
H536 C533 0.950 . S
C537 C528 1.390 . S
C537 H530 0.950 . S
C537 C534 1.387 . S
C538 C539 1.387 . S
C538 H542 0.950 . S
C538 C547 1.390 . S
C539 C538 1.387 . S
C539 C541 1.387 . S
H540 C547 0.950 . S
C541 C539 1.387 . S
C541 C543 1.390 . S
C541 H545 0.950 . S
H542 C538 0.950 . S
C543 C541 1.390 . S
C543 C544 1.387 . S
C543 H546 0.950 . S
C544 C543 1.387 . S
C544 C547 1.387 . S
H545 C541 0.950 . S
H546 C543 0.950 . S
C547 C538 1.390 . S
C547 H540 0.950 . S
C547 C544 1.387 . S
C548 C549 1.387 . S
C548 H552 0.950 . S
C548 C557 1.390 . S
C549 C548 1.387 . S
C549 C551 1.387 . S
H550 C557 0.950 . S
C551 C549 1.387 . S
C551 C553 1.390 . S
C551 H555 0.950 . S
H552 C548 0.950 . S
C553 C551 1.390 . S
C553 C554 1.387 . S
C553 H556 0.950 . S
C554 C553 1.387 . S
C554 C557 1.387 . S
H555 C551 0.950 . S
H556 C553 0.950 . S
C557 C548 1.390 . S
C557 H550 0.950 . S
C557 C554 1.387 . S
C558 C559 1.387 . S
C558 H562 0.950 . S
C558 C567 1.390 . S
C559 C558 1.387 . S
C559 C561 1.387 . S
H560 C567 0.950 . S
C561 C559 1.387 . S
C561 C563 1.390 . S
C561 H565 0.950 . S
H562 C558 0.950 . S
C563 C561 1.390 . S
C563 C564 1.387 . S
C563 H566 0.950 . S
C564 C563 1.387 . S
C564 C567 1.387 . S
H565 C561 0.950 . S
H566 C563 0.950 . S
C567 C558 1.390 . S
C567 H560 0.950 . S
C567 C564 1.387 . S
C568 C569 1.387 1_556 S
C568 H572 0.950 . S
C568 C577 1.390 . S
C569 C568 1.387 1_554 S
C569 C571 1.387 . S
H570 C577 0.950 . S
C571 C569 1.387 . S
C571 C573 1.390 . S
C571 H575 0.950 . S
H572 C568 0.950 . S
C573 C571 1.390 . S
C573 C574 1.387 . S
C573 H576 0.950 . S
C574 C573 1.387 . S
C574 C577 1.387 1_554 S
H575 C571 0.950 . S
H576 C573 0.950 . S
C577 C568 1.390 . S
C577 H570 0.950 . S
C577 C574 1.387 1_556 S
C578 C579 1.387 . S
C578 H582 0.950 . S
C578 C587 1.390 . S
C579 C578 1.387 . S
C579 C581 1.387 1_556 S
H580 C587 0.950 . S
C581 C579 1.387 1_554 S
C581 C583 1.390 . S
C581 H585 0.950 . S
H582 C578 0.950 . S
C583 C581 1.390 . S
C583 C584 1.387 1_554 S
C583 H586 0.950 . S
C584 C583 1.387 1_556 S
C584 C587 1.387 . S
H585 C581 0.950 . S
H586 C583 0.950 . S
C587 C578 1.390 . S
C587 H580 0.950 . S
C587 C584 1.387 . S
C588 C589 1.387 . S
C588 H592 0.950 . S
C588 C597 1.390 . S
C589 C588 1.387 . S
C589 C591 1.387 1_554 S
H590 C597 0.950 . S
C591 C589 1.387 1_556 S
C591 C593 1.390 . S
C591 H595 0.950 . S
H592 C588 0.950 . S
C593 C591 1.390 . S
C593 C594 1.387 1_556 S
C593 H596 0.950 . S
C594 C593 1.387 1_554 S
C594 C597 1.387 . S
H595 C591 0.950 . S
H596 C593 0.950 . S
C597 C588 1.390 . S
C597 H590 0.950 . S
C597 C594 1.387 . S
C598 C599 1.387 1_554 S
C598 H602 0.950 . S
C598 C607 1.390 . S
C599 C598 1.387 1_556 S
C599 C601 1.387 . S
H600 C607 0.950 . S
C601 C599 1.387 . S
C601 C603 1.390 . S
C601 H605 0.950 . S
H602 C598 0.950 . S
C603 C601 1.390 . S
C603 C604 1.387 . S
C603 H606 0.950 . S
C604 C603 1.387 . S
C604 C607 1.387 1_556 S
H605 C601 0.950 . S
H606 C603 0.950 . S
C607 C598 1.390 . S
C607 H600 0.950 . S
C607 C604 1.387 1_554 S
C608 C609 1.387 . S
C608 H612 0.950 . S
C608 C617 1.390 . S
C609 C608 1.387 . S
C609 C611 1.387 1_565 S
H610 C617 0.950 . S
C611 C609 1.387 1_545 S
C611 C613 1.390 . S
C611 H615 0.950 . S
H612 C608 0.950 . S
C613 C611 1.390 . S
C613 C614 1.387 . S
C613 H616 0.950 . S
C614 C613 1.387 . S
C614 C617 1.387 1_545 S
H615 C611 0.950 . S
H616 C613 0.950 . S
C617 C608 1.390 . S
C617 H610 0.950 . S
C617 C614 1.387 1_565 S
C618 C619 1.385 1_455 S
C618 H622 0.949 1_455 S
C618 C627 1.393 . S
C619 C618 1.385 1_655 S
C619 C621 1.387 . S
H620 C627 0.950 . S
C621 C619 1.387 . S
C621 C623 1.390 1_655 S
C621 H625 0.950 . S
H622 C618 0.949 1_655 S
C623 C621 1.390 1_455 S
C623 C624 1.387 . S
C623 H626 0.950 . S
C624 C623 1.387 . S
C624 C627 1.387 . S
H625 C621 0.950 . S
H626 C623 0.950 . S
C627 C618 1.393 . S
C627 H620 0.950 . S
C627 C624 1.387 . S
C628 C629 1.387 . S
C628 H632 0.950 . S
C628 C637 1.390 . S
C629 C628 1.387 . S
C629 C631 1.387 1_565 S
H630 C637 0.950 . S
C631 C629 1.387 1_545 S
C631 C633 1.390 . S
C631 H635 0.950 . S
H632 C628 0.950 . S
C633 C631 1.390 . S
C633 C634 1.387 . S
C633 H636 0.950 . S
C634 C633 1.387 . S
C634 C637 1.387 1_545 S
H635 C631 0.950 . S
H636 C633 0.950 . S
C637 C628 1.390 . S
C637 H630 0.950 . S
C637 C634 1.387 1_565 S
C638 C639 1.387 1_455 S
C638 H642 0.950 . S
C638 C647 1.390 . S
C639 C638 1.387 1_655 S
C639 C641 1.387 . S
H640 C647 0.950 . S
C641 C639 1.387 . S
C641 C643 1.390 . S
C641 H645 0.950 . S
H642 C638 0.950 . S
C643 C641 1.390 . S
C643 C644 1.387 1_655 S
C643 H646 0.950 . S
C644 C643 1.387 1_455 S
C644 C647 1.387 . S
H645 C641 0.950 . S
H646 C643 0.950 . S
C647 C638 1.390 . S
C647 H640 0.950 . S
C647 C644 1.387 . S
C648 C649 1.387 1_545 S
C648 H652 0.950 . S
C648 C657 1.390 . S
C649 C648 1.387 1_565 S
C649 C651 1.387 . S
H650 C657 0.950 . S
C651 C649 1.387 . S
C651 C653 1.390 . S
C651 H655 0.950 . S
H652 C648 0.950 . S
C653 C651 1.390 . S
C653 C654 1.387 1_565 S
C653 H656 0.950 . S
C654 C653 1.387 1_545 S
C654 C657 1.387 . S
H655 C651 0.950 . S
H656 C653 0.950 . S
C657 C648 1.390 . S
C657 H650 0.950 . S
C657 C654 1.387 . S
C658 C659 1.387 . S
C658 H662 0.950 . S
C658 C667 1.387 1_455 S
C659 C658 1.387 . S
C659 C661 1.387 . S
H660 C667 0.950 . S
C661 C659 1.387 . S
C661 C663 1.390 1_455 S
C661 H665 0.950 . S
H662 C658 0.950 . S
C663 C661 1.390 1_655 S
C663 C664 1.387 . S
C663 H666 0.950 . S
C664 C663 1.387 . S
C664 C667 1.390 . S
H665 C661 0.950 . S
H666 C663 0.950 . S
C667 C658 1.387 1_655 S
C667 H660 0.950 . S
C667 C664 1.390 . S
C668 C669 1.387 1_545 S
C668 H672 0.950 . S
C668 C677 1.390 . S
C669 C668 1.387 1_565 S
C669 C671 1.387 . S
H670 C677 0.950 . S
C671 C669 1.387 . S
C671 C673 1.390 . S
C671 H675 0.950 . S
H672 C668 0.950 . S
C673 C671 1.390 . S
C673 C674 1.387 1_565 S
C673 H676 0.950 . S
C674 C673 1.387 1_545 S
C674 C677 1.387 . S
H675 C671 0.950 . S
H676 C673 0.950 . S
C677 C668 1.390 . S
C677 H670 0.950 . S
C677 C674 1.387 . S
C678 C679 1.387 1_655 S
C678 H682 0.950 . S
C678 C687 1.390 . S
C679 C678 1.387 1_455 S
C679 C681 1.387 . S
H680 C687 0.950 . S
C681 C679 1.387 . S
C681 C683 1.390 . S
C681 H685 0.950 . S
H682 C678 0.950 . S
C683 C681 1.390 . S
C683 C684 1.387 1_455 S
C683 H686 0.950 . S
C684 C683 1.387 1_655 S
C684 C687 1.387 . S
H685 C681 0.950 . S
H686 C683 0.950 . S
C687 C678 1.390 . S
C687 H680 0.950 . S
C687 C684 1.387 . S
C688 C689 1.387 . S
C688 H692 0.950 . S
C688 C697 1.390 . S
C689 C688 1.387 . S
C689 C691 1.387 . S
H690 C697 0.950 . S
C691 C689 1.387 . S
C691 C693 1.390 . S
C691 H695 0.950 . S
H692 C688 0.950 . S
C693 C691 1.390 . S
C693 C694 1.387 . S
C693 H696 0.950 . S
C694 C693 1.387 . S
C694 C697 1.387 . S
H695 C691 0.950 . S
H696 C693 0.950 . S
C697 C688 1.390 . S
C697 H690 0.950 . S
C697 C694 1.387 . S
C698 C699 1.387 . S
C698 H702 0.950 . S
C698 C707 1.390 . S
C699 C698 1.387 . S
C699 C701 1.387 . S
H700 C707 0.950 . S
C701 C699 1.387 . S
C701 C703 1.390 . S
C701 H705 0.950 . S
H702 C698 0.950 . S
C703 C701 1.390 . S
C703 C704 1.387 . S
C703 H706 0.950 . S
C704 C703 1.387 . S
C704 C707 1.387 . S
H705 C701 0.950 . S
H706 C703 0.950 . S
C707 C698 1.390 . S
C707 H700 0.950 . S
C707 C704 1.387 . S
C708 C709 1.387 . S
C708 H712 0.950 . S
C708 C717 1.390 . S
C709 C708 1.387 . S
C709 C711 1.387 . S
H710 C717 0.950 . S
C711 C709 1.387 . S
C711 C713 1.390 . S
C711 H715 0.950 . S
H712 C708 0.950 . S
C713 C711 1.390 . S
C713 C714 1.387 . S
C713 H716 0.950 . S
C714 C713 1.387 . S
C714 C717 1.387 . S
H715 C711 0.950 . S
H716 C713 0.950 . S
C717 C708 1.390 . S
C717 H710 0.950 . S
C717 C714 1.387 . S
C718 C719 1.387 . S
C718 H722 0.950 . S
C718 C727 1.390 . S
C719 C718 1.387 . S
C719 C721 1.387 . S
H720 C727 0.950 . S
C721 C719 1.387 . S
C721 C723 1.390 . S
C721 H725 0.950 . S
H722 C718 0.950 . S
C723 C721 1.390 . S
C723 C724 1.387 . S
C723 H726 0.950 . S
C724 C723 1.387 . S
C724 C727 1.387 . S
H725 C721 0.950 . S
H726 C723 0.950 . S
C727 C718 1.390 . S
C727 H720 0.950 . S
C727 C724 1.387 . S
C728 C729 1.387 . S
C728 H732 0.950 . S
C728 C737 1.390 . S
C729 C728 1.387 . S
C729 C731 1.387 . S
H730 C737 0.950 . S
C731 C729 1.387 . S
C731 C733 1.390 . S
C731 H735 0.950 . S
H732 C728 0.950 . S
C733 C731 1.390 . S
C733 C734 1.387 . S
C733 H736 0.950 . S
C734 C733 1.387 . S
C734 C737 1.387 . S
H735 C731 0.950 . S
H736 C733 0.950 . S
C737 C728 1.390 . S
C737 H730 0.950 . S
C737 C734 1.387 . S
C738 C739 1.387 . S
C738 H742 0.950 . S
C738 C747 1.390 . S
C739 C738 1.387 . S
C739 C741 1.387 . S
H740 C747 0.950 . S
C741 C739 1.387 . S
C741 C743 1.390 . S
C741 H745 0.950 . S
H742 C738 0.950 . S
C743 C741 1.390 . S
C743 C744 1.387 . S
C743 H746 0.950 . S
C744 C743 1.387 . S
C744 C747 1.387 . S
H745 C741 0.950 . S
H746 C743 0.950 . S
C747 C738 1.390 . S
C747 H740 0.950 . S
C747 C744 1.387 . S
C748 C749 1.387 . S
C748 H752 0.950 . S
C748 C757 1.390 . S
C749 C748 1.387 . S
C749 C751 1.387 . S
H750 C757 0.950 . S
C751 C749 1.387 . S
C751 C753 1.390 . S
C751 H755 0.950 . S
H752 C748 0.950 . S
C753 C751 1.390 . S
C753 C754 1.387 . S
C753 H756 0.950 . S
C754 C753 1.387 . S
C754 C757 1.387 . S
H755 C751 0.950 . S
H756 C753 0.950 . S
C757 C748 1.390 . S
C757 H750 0.950 . S
C757 C754 1.387 . S
C758 C759 1.387 . S
C758 H762 0.950 . S
C758 C767 1.390 . S
C759 C758 1.387 . S
C759 C761 1.387 . S
H760 C767 0.950 . S
C761 C759 1.387 . S
C761 C763 1.390 . S
C761 H765 0.950 . S
H762 C758 0.950 . S
C763 C761 1.390 . S
C763 C764 1.387 . S
C763 H766 0.950 . S
C764 C763 1.387 . S
C764 C767 1.387 . S
H765 C761 0.950 . S
H766 C763 0.950 . S
C767 C758 1.390 . S
C767 H760 0.950 . S
C767 C764 1.387 . S
C768 C769 1.387 1_554 S
C768 H772 0.950 . S
C768 C777 1.390 . S
C769 C768 1.387 1_556 S
C769 C771 1.387 . S
H770 C777 0.950 . S
C771 C769 1.387 . S
C771 C773 1.390 . S
C771 H775 0.950 . S
H772 C768 0.950 . S
C773 C771 1.390 . S
C773 C774 1.387 1_556 S
C773 H776 0.950 . S
C774 C773 1.387 1_554 S
C774 C777 1.387 . S
H775 C771 0.950 . S
H776 C773 0.950 . S
C777 C768 1.390 . S
C777 H770 0.950 . S
C777 C774 1.387 . S
C778 C779 1.387 . S
C778 H782 0.950 . S
C778 C787 1.390 . S
C779 C778 1.387 . S
C779 C781 1.387 1_554 S
H780 C787 0.950 . S
C781 C779 1.387 1_556 S
C781 C783 1.390 . S
C781 H785 0.950 . S
H782 C778 0.950 . S
C783 C781 1.390 . S
C783 C784 1.387 . S
C783 H786 0.950 . S
C784 C783 1.387 . S
C784 C787 1.387 1_556 S
H785 C781 0.950 . S
H786 C783 0.950 . S
C787 C778 1.390 . S
C787 H780 0.950 . S
C787 C784 1.387 1_554 S
C788 C789 1.387 1_556 S
C788 H792 0.950 . S
C788 C797 1.390 . S
C789 C788 1.387 1_554 S
C789 C791 1.387 . S
H790 C797 0.950 . S
C791 C789 1.387 . S
C791 C793 1.390 . S
C791 H795 0.950 . S
H792 C788 0.950 . S
C793 C791 1.390 . S
C793 C794 1.387 1_554 S
C793 H796 0.950 . S
C794 C793 1.387 1_556 S
C794 C797 1.387 . S
H795 C791 0.950 . S
H796 C793 0.950 . S
C797 C788 1.390 . S
C797 H790 0.950 . S
C797 C794 1.387 . S
C798 C799 1.387 1_556 S
C798 H802 0.950 . S
C798 C807 1.390 . S
C799 C798 1.387 1_554 S
C799 C801 1.387 . S
H800 C807 0.950 . S
C801 C799 1.387 . S
C801 C803 1.390 . S
C801 H805 0.950 . S
H802 C798 0.950 . S
C803 C801 1.390 . S
C803 C804 1.387 1_554 S
C803 H806 0.950 . S
C804 C803 1.387 1_556 S
C804 C807 1.387 . S
H805 C801 0.950 . S
H806 C803 0.950 . S
C807 C798 1.390 . S
C807 H800 0.950 . S
C807 C804 1.387 . S
C808 C809 1.387 . S
C808 H812 0.950 . S
C808 C817 1.390 . S
C809 C808 1.387 . S
C809 C811 1.387 . S
H810 C817 0.950 . S
C811 C809 1.387 . S
C811 C813 1.390 . S
C811 H815 0.950 . S
H812 C808 0.950 . S
C813 C811 1.390 . S
C813 C814 1.387 . S
C813 H816 0.950 . S
C814 C813 1.387 . S
C814 C817 1.387 . S
H815 C811 0.950 . S
H816 C813 0.950 . S
C817 C808 1.390 . S
C817 H810 0.950 . S
C817 C814 1.387 . S
C818 C819 1.387 . S
C818 H822 0.950 . S
C818 C827 1.390 . S
C819 C818 1.387 . S
C819 C821 1.387 . S
H820 C827 0.950 . S
C821 C819 1.387 . S
C821 C823 1.390 . S
C821 H825 0.950 . S
H822 C818 0.950 . S
C823 C821 1.390 . S
C823 C824 1.387 . S
C823 H826 0.950 . S
C824 C823 1.387 . S
C824 C827 1.387 . S
H825 C821 0.950 . S
H826 C823 0.950 . S
C827 C818 1.390 . S
C827 H820 0.950 . S
C827 C824 1.387 . S
C828 C829 1.387 . S
C828 H832 0.950 . S
C828 C837 1.390 . S
C829 C828 1.387 . S
C829 C831 1.387 . S
H830 C837 0.950 . S
C831 C829 1.387 . S
C831 C833 1.390 . S
C831 H835 0.950 . S
H832 C828 0.950 . S
C833 C831 1.390 . S
C833 C834 1.387 . S
C833 H836 0.950 . S
C834 C833 1.387 . S
C834 C837 1.387 . S
H835 C831 0.950 . S
H836 C833 0.950 . S
C837 C828 1.390 . S
C837 H830 0.950 . S
C837 C834 1.387 . S
C838 C839 1.387 . S
C838 H842 0.950 . S
C838 C847 1.390 . S
C839 C838 1.387 . S
C839 C841 1.387 . S
H840 C847 0.950 . S
C841 C839 1.387 . S
C841 C843 1.390 . S
C841 H845 0.950 . S
H842 C838 0.950 . S
C843 C841 1.390 . S
C843 C844 1.387 . S
C843 H846 0.950 . S
C844 C843 1.387 . S
C844 C847 1.387 . S
H845 C841 0.950 . S
H846 C843 0.950 . S
C847 C838 1.390 . S
C847 H840 0.950 . S
C847 C844 1.387 . S
C369 C16 1.245 . S
C374 C131 1.245 . S
C379 C39 1.246 . S
C384 C154 1.245 . S
C389 C177 1.240 . S
C394 C62 1.240 . S
C399 C109 1.234 . S
C404 C85 1.239 . S
C409 C315 1.246 . S
C414 C200 1.245 . S
C419 C223 1.244 . S
C424 C338 1.245 . S
C429 C361 1.241 . S
C434 C246 1.241 . S
C439 C293 1.237 . S
C444 C269 1.242 . S
C449 C19 1.612 . S
C454 C44 1.576 . S
C459 C67 1.574 . S
C464 C42 1.611 . S
C469 C90 1.584 . S
C474 C65 1.621 . S
C479 C88 1.610 . S
C484 C21 1.573 . S
C489 C110 1.644 . S
C494 C182 1.570 . S
C499 C112 1.605 . S
C504 C134 1.586 . S
C509 C136 1.567 . S
C514 C157 1.604 . S
C519 C159 1.572 . S
C524 C180 1.608 . S
C529 C203 1.612 . S
C534 C228 1.576 . S
C539 C251 1.574 . S
C544 C226 1.611 . S
C549 C249 1.623 . S
C554 C274 1.587 . S
C559 C272 1.612 . S
C564 C205 1.576 . S
C569 C366 1.567 . S
C574 C294 1.644 . S
C579 C296 1.603 . S
C584 C318 1.584 . S
C589 C320 1.569 . S
C594 C341 1.605 . S
C599 C364 1.610 . S
C604 C343 1.575 . S
C609 C156 1.601 . S
C614 C17 1.619 . S
C619 C179 1.598 . S
C624 C40 1.615 . S
C629 C63 1.636 . S
C634 C111 1.603 . S
C639 C86 1.615 . S
C644 C133 1.599 . S
C649 C64 1.646 . S
C654 C108 1.658 . S
C659 C132 1.623 . S
C664 C87 1.604 . S
C669 C155 1.618 . S
C674 C18 1.601 . S
C679 C41 1.605 . S
C684 C178 1.621 . S
C689 C201 1.618 . S
C694 C340 1.601 . S
C699 C224 1.615 . S
C704 C363 1.598 . S
C709 C295 1.601 . S
C714 C247 1.636 . S
C719 C270 1.615 . S
C724 C317 1.598 . S
C729 C292 1.656 . S
C734 C248 1.645 . S
C739 C316 1.622 . S
C744 C271 1.605 . S
C749 C339 1.618 . S
C754 C202 1.599 . S
C759 C225 1.605 . S
C764 C362 1.622 . S
C769 C365 1.324 . S
C774 C20 1.323 . S
C779 C297 1.341 . S
C784 C43 1.330 . S
C789 C66 1.316 . S
C794 C319 1.314 . S
C799 C342 1.300 . S
C804 C89 1.303 . S
C809 C113 1.340 . S
C814 C227 1.332 . S
C819 C135 1.316 . S
C824 C250 1.314 . S
C829 C273 1.303 . S
C834 C158 1.300 . S
C839 C181 1.322 . S
C844 C204 1.325 . S
