# Generated by pormake.
# Topology qtz-x, (6)-cn, num edge types: 1
# Building blocks:
#     Node 0, Type 0, BuildingBlock: KUMBUR_clean_sbu_0, # of connection points: 6
#     Node 1, Type 0, BuildingBlock: KUMBUR_clean_sbu_0, # of connection points: 6
#     Node 2, Type 0, BuildingBlock: KUMBUR_clean_sbu_0, # of connection points: 6
#     Edge 3, Type (0, 0), None
#     Edge 4, Type (0, 0), None
#     Edge 5, Type (0, 0), None
#     Edge 6, Type (0, 0), None
#     Edge 7, Type (0, 0), None
#     Edge 8, Type (0, 0), None
#     Edge 9, Type (0, 0), None
#     Edge 10, Type (0, 0), None
#     Edge 11, Type (0, 0), None
# Relax obj value: 0.163
# Max RMSD: 0.300
# Mean RMSD: 0.300
data_MOF--net-qtz-x--node1-KUMBUR_clean_sbu_0--edge1-none
_symmetry_space_group_name_H-M    P1
_symmetry_Int_Tables_number       1
_symmetry_cell_setting            triclinic
loop_
_symmetry_equiv_pos_as_xyz
'x, y, z'
_cell_length_a     8.8829646
_cell_length_b     8.882627
_cell_length_c     30.52589
_cell_angle_alpha  89.99922
_cell_angle_beta   89.998934
_cell_angle_gamma 119.99967
loop_
_atom_site_label
_atom_site_type_symbol
_atom_site_fract_x
_atom_site_fract_y
_atom_site_fract_z
_atom_type_partial_charge
Tb0 Tb 0.12806 0.33759 0.19477 0.0
C1 C 0.2622 -0.00434 0.13366 0.0
C2 C 0.05722 0.81313 0.22244 0.0
C3 C -0.07809 0.04534 0.16228 0.0
C4 C 0.23946 0.87409 0.17896 0.0
C5 C 0.11144 0.07266 0.11904 0.0
C6 C -0.11604 0.8859 0.21412 0.0
C7 C 0.30413 0.16793 0.056 0.0
N8 N 0.42931 0.09021 0.11687 0.0
C9 C 0.44232 0.17807 0.07865 0.0
C10 C 0.14261 0.1104 0.07363 0.0
Tb11 Tb 0.67194 0.05012 0.13813 0.0
N12 N 0.40878 -0.07704 0.19053 0.0
C13 C 0.42878 -0.0098 0.23106 0.0
C14 C 0.13589 0.84045 0.26251 0.0
C15 C 0.29726 -0.02431 0.26106 0.0
H16 H 0.55834 0.23002 0.059 0.0
H17 H 0.32369 0.04089 0.29179 0.0
H18 H -0.08857 0.78958 0.22497 0.0
H19 H 0.32018 0.18972 0.0214 0.0
H20 H 0.55056 0.05943 0.24137 0.0
H21 H 0.59484 0.74391 0.07151 0.0
H22 H 0.06432 0.80876 0.2923 0.0
H23 H 0.3237 0.28247 0.29238 0.0
H24 H 0.28118 0.58032 0.11983 0.0
H25 H 0.58306 0.3165 0.32376 0.0
H26 H -0.12961 -0.04134 0.19058 0.0
H27 H 0.66005 0.5358 0.04095 0.0
H28 H -0.08576 0.47626 0.08503 0.0
H29 H 0.10227 0.08972 0.10491 0.0
H30 H -0.06961 0.31271 0.17501 0.0
N31 N 0.37944 0.46054 0.14872 0.0
C32 C 0.38036 0.54773 0.11489 0.0
C33 C 0.61172 0.53855 0.07236 0.0
C34 C 0.6683 0.50198 0.10723 0.0
C35 C 0.52271 0.61764 0.08384 0.0
C36 C 0.54693 0.50716 0.1572 0.0
H37 H 0.73499 0.34532 0.23358 0.0
N38 N 0.40768 0.36642 0.2286 0.0
C39 C 0.58527 0.34105 0.28941 0.0
C40 C 0.56648 0.4418 0.20726 0.0
C41 C 0.43082 0.33337 0.27103 0.0
C42 C 0.72677 0.34845 0.26637 0.0
C43 C 0.71475 0.35438 0.21952 0.0
O44 O 0.10387 0.48946 0.24649 0.0
O45 O 0.83536 0.13245 0.22421 0.0
O46 O 0.62019 0.31746 0.1552 0.0
O47 O 0.02596 0.57597 0.17501 0.0
O48 O -0.13047 0.15038 0.2323 0.0
O49 O 0.3444 0.57792 0.22006 0.0
O50 O 0.61177 0.00907 0.0655 0.0
O51 O -0.00847 0.26937 0.11563 0.0
O52 O 0.13101 0.03786 0.18607 0.0
O53 O 0.78581 0.79974 0.13161 0.0
O54 O 0.80353 0.13502 0.07002 0.0
O55 O 0.43093 0.85504 0.10909 0.0
C56 C 0.78599 0.03993 0.26446 0.0
C57 C 0.34691 0.702 0.29467 0.0
C58 C 0.50107 0.88652 0.36518 0.0
C59 C 0.44667 0.87601 0.32024 0.0
C60 C 0.53353 0.75891 0.37032 0.0
C61 C 0.32341 0.57039 0.31901 0.0
C62 C 0.4571 0.60578 0.34425 0.0
C63 C 0.85308 0.57051 0.16764 0.0
C64 C 0.26272 0.61939 0.24809 0.0
C65 C 0.83229 0.30512 0.16839 0.0
C66 C 0.8126 0.40474 0.10824 0.0
C67 C -0.03441 0.25595 0.07257 0.0
C68 C 0.27497 0.83506 0.03036 0.0
C69 C 0.22118 0.75267 0.98347 0.0
C70 C 0.03366 0.64148 0.96633 0.0
C71 C -0.07846 0.6726 0.98904 0.0
C72 C 0.11801 0.79595 0.05026 0.0
C73 C -0.03052 0.76701 0.02778 0.0
C74 C -0.05361 0.80206 0.15113 0.0
C75 C 0.44681 0.88772 0.06687 0.0
H76 H 0.52152 0.00455 0.30822 0.0
H77 H 0.6283 0.79067 0.3941 0.0
H78 H 0.23475 0.44263 0.3101 0.0
H79 H 0.48823 0.50514 0.34528 0.0
H80 H 0.3174 0.75971 0.96106 0.0
H81 H 0.79349 0.60959 0.97763 0.0
H82 H 0.1025 0.77385 0.0843 0.0
H83 H -0.11998 0.79589 0.04419 0.0
Tb84 Tb 0.46217 0.85533 0.52811 0.0
C85 C -0.01387 0.72123 0.467 0.0
C86 C 0.00857 -0.07379 0.55578 0.0
C87 C 0.37608 0.06153 0.49562 0.0
C88 C -0.1127 0.74397 0.5123 0.0
C89 C 0.21387 0.872 0.45238 0.0
C90 C 0.2546 0.09948 0.54746 0.0
C91 C 0.11643 0.67933 0.38934 0.0
N92 N -0.08644 0.55412 0.45022 0.0
C93 C -0.0116 0.54112 0.41199 0.0
C94 C 0.22041 0.84087 0.40697 0.0
Tb95 Tb 0.63083 0.31149 0.47148 0.0
N96 N 0.76684 0.57463 0.52387 0.0
C97 C 0.81407 0.55462 0.5644 0.0
C98 C -0.0428 0.84751 0.59586 0.0
C99 C -0.06892 0.68614 0.59441 0.0
H100 H -0.07568 0.4251 0.39234 0.0
H101 H -0.03015 0.6597 0.62513 0.0
H102 H 0.13081 0.07198 0.55831 0.0
H103 H 0.12219 0.66328 0.35474 0.0
H104 H 0.76149 0.43283 0.57472 0.0
H105 H 0.40173 0.38865 0.40484 0.0
H106 H -0.00295 -0.08094 0.62565 0.0
H107 H 0.21141 0.65969 0.62572 0.0
H108 H 0.55176 0.70228 0.45315 0.0
H109 H -0.01391 0.40033 0.6571 0.0
H110 H 0.34094 0.11307 0.52392 0.0
H111 H 0.12836 0.32345 0.37428 0.0
H112 H 0.81463 0.06921 0.41836 0.0
H113 H 0.2401 0.88119 0.43825 0.0
H114 H 0.63497 0.05302 0.50835 0.0
N115 N 0.33374 0.60399 0.48205 0.0
C116 C 0.41999 0.6031 0.44822 0.0
C117 C 0.17946 0.37172 0.40569 0.0
C118 C 0.08632 0.31512 0.44057 0.0
C119 C 0.34756 0.46074 0.41717 0.0
C120 C 0.21287 0.43649 0.49054 0.0
H121 H -0.13703 0.24841 0.56692 0.0
N122 N 0.21139 0.57573 0.56194 0.0
C123 C 0.00844 0.39813 0.62276 0.0
C124 C 0.12797 0.41693 0.5406 0.0
C125 C 0.15521 0.55259 0.60437 0.0
C126 C -0.12568 0.25663 0.59971 0.0
C127 C -0.10773 0.26866 0.55286 0.0
O128 O 0.63822 0.87952 0.57983 0.0
O129 O 0.54971 0.148 0.55756 0.0
O130 O -0.05009 0.36323 0.48854 0.0
O131 O 0.80265 -0.04255 0.50835 0.0
O132 O 0.53346 0.11382 0.56564 0.0
O133 O 0.48619 0.63901 0.5534 0.0
O134 O 0.64996 0.37171 0.39886 0.0
O135 O 0.53049 -0.00807 0.44897 0.0
O136 O 0.15951 0.85242 0.51941 0.0
O137 O 0.26659 0.19763 0.46495 0.0
O138 O 0.58419 0.17994 0.40336 0.0
O139 O 0.67674 0.55252 0.44246 0.0
C140 C 0.50655 0.19735 0.5978 0.0
C141 C 0.60772 0.63646 0.62801 0.0
C142 C 0.63806 0.48226 0.69851 0.0
C143 C 0.68197 0.53669 0.65358 0.0
C144 C 0.478 0.4498 0.70365 0.0
C145 C 0.49961 0.65995 0.65235 0.0
C146 C 0.4013 0.52624 0.67759 0.0
C147 C -0.02993 0.13033 0.50098 0.0
C148 C 0.60933 0.72068 0.58142 0.0
C149 C 0.72547 0.15112 0.50173 0.0
C150 C 0.84478 0.17082 0.44158 0.0
C151 C 0.54296 0.01785 0.40591 0.0
C152 C 0.8128 0.70854 0.36373 0.0
C153 C 0.78421 0.76226 0.31684 0.0
C154 C -0.13979 -0.05023 0.29972 0.0
C155 C 0.00356 0.062 0.32238 0.0
C156 C -0.06934 0.86557 0.38361 0.0
C157 C 0.05019 0.01411 0.3611 0.0
C158 C 0.10832 0.03705 0.48447 0.0
C159 C 0.69359 0.53668 0.40024 0.0
H160 H 0.73567 0.46185 0.64156 0.0
H161 H 0.41499 0.35502 0.72744 0.0
H162 H 0.46051 0.7486 0.64344 0.0
H163 H 0.26954 0.4951 0.67862 0.0
H164 H 0.69517 0.66597 0.29443 0.0
H165 H 0.06862 0.18997 0.3109 0.0
H166 H -0.07585 0.8811 0.41765 0.0
H167 H 0.16863 0.10356 0.37747 0.0
Tb168 Tb 0.64571 0.52111 0.86144 0.0
C169 C -0.01227 -0.00284 0.80035 0.0
C170 C 0.1702 -0.02537 0.88914 0.0
C171 C -0.06197 0.60715 0.82895 0.0
C172 C 0.10925 0.09594 0.84565 0.0
C173 C -0.08923 0.76942 0.78572 0.0
C174 C 0.09738 0.72851 0.8808 0.0
C175 C 0.81551 0.86689 0.72268 0.0
N176 N -0.10681 0.06973 0.78357 0.0
C177 C 0.80535 -0.00508 0.74535 0.0
C178 C -0.12692 0.76291 0.74031 0.0
Tb179 Tb -0.06673 0.35248 0.80482 0.0
N180 N 0.06039 0.21642 0.85722 0.0
C181 C -0.00686 0.16921 0.89775 0.0
C182 C 0.14294 0.02611 0.9292 0.0
C183 C 0.00768 0.05222 0.92776 0.0
H184 H 0.75341 0.05901 0.7257 0.0
H185 H -0.05751 0.01346 0.95849 0.0
H186 H 0.19354 0.85232 0.89167 0.0
H187 H 0.79369 0.86115 0.68809 0.0
H188 H -0.07601 0.22188 0.90806 0.0
H189 H 0.23954 0.58161 0.73817 0.0
H190 H 0.17479 -0.01357 0.959 0.0
H191 H 0.70089 0.77187 0.95905 0.0
H192 H 0.40313 0.43155 0.78648 0.0
H193 H 0.66692 -0.0028 0.99043 0.0
H194 H 0.02469 0.64225 0.85725 0.0
H195 H 0.44775 0.85501 0.70762 0.0
H196 H 0.50716 0.16869 0.75172 0.0
H197 H -0.10628 0.74321 0.77159 0.0
H198 H 0.67064 0.34833 0.84169 0.0
N199 N 0.52282 0.64955 0.81539 0.0
C200 C 0.43571 0.56332 0.78155 0.0
C201 C 0.44489 0.80389 0.73903 0.0
C202 C 0.48141 0.89701 0.77391 0.0
C203 C 0.36581 0.63578 0.7505 0.0
C204 C 0.4762 0.77042 0.82387 0.0
H205 H 0.63804 0.12031 0.90026 0.0
N206 N 0.61692 0.77188 0.89527 0.0
C207 C 0.64232 -0.02515 0.95609 0.0
C208 C 0.54155 0.85531 0.87394 0.0
C209 C 0.65001 0.82809 0.9377 0.0
C210 C 0.6349 0.10894 0.93305 0.0
C211 C 0.62898 0.09101 0.88621 0.0
O212 O 0.49368 0.34493 0.91313 0.0
O213 O 0.85095 0.43374 0.89089 0.0
O214 O 0.66592 0.03339 0.82188 0.0
O215 O 0.40739 0.18063 0.8417 0.0
O216 O 0.83255 0.44958 0.89903 0.0
O217 O 0.40543 0.49723 0.88674 0.0
O218 O -0.02562 0.33338 0.7322 0.0
O219 O 0.714 0.4528 0.78231 0.0
O220 O -0.05449 0.82372 0.85275 0.0
O221 O 0.18367 0.71668 0.7983 0.0
O222 O 0.84836 0.39914 0.7367 0.0
O223 O 0.12839 0.30657 0.7758 0.0
C224 C -0.05722 0.47645 0.93124 0.0
C225 C 0.28134 0.37562 0.96133 0.0
C226 C 0.09687 0.34539 0.03183 0.0
C227 C 0.10736 0.30142 0.98691 0.0
C228 C 0.22457 0.5054 0.03698 0.0
C229 C 0.413 0.48367 0.98566 0.0
C230 C 0.37769 0.58203 0.01092 0.0
C231 C 0.41286 0.01322 0.83433 0.0
C232 C 0.36386 0.37399 0.91474 0.0
C233 C 0.67824 0.25783 0.83508 0.0
C234 C 0.57864 0.13854 0.77493 0.0
C235 C 0.72748 0.44035 0.73925 0.0
C236 C 0.14835 0.17052 0.69708 0.0
C237 C 0.23065 0.19911 0.65018 0.0
C238 C 0.34217 0.12312 0.63307 0.0
C239 C 0.31106 -0.02022 0.65573 0.0
C240 C 0.18752 0.05266 0.71695 0.0
C241 C 0.21655 -0.06686 0.69445 0.0
C242 C 0.18133 0.87493 0.81782 0.0
C243 C 0.09571 0.28973 0.73358 0.0
H244 H -0.02119 0.24764 0.9749 0.0
H245 H 0.19286 0.56846 0.06077 0.0
H246 H 0.54074 0.52268 0.97675 0.0
H247 H 0.47834 0.71377 0.01195 0.0
H248 H 0.2234 0.28816 0.62777 0.0
H249 H 0.37401 -0.08526 0.64425 0.0
H250 H 0.20957 0.05916 0.751 0.0
H251 H 0.18756 0.8147 0.71082 0.0
loop_
_geom_bond_atom_site_label_1
_geom_bond_atom_site_label_2
_geom_bond_distance
_geom_bond_site_symmetry_2
_ccdc_geom_bond_type
Tb0 N31 2.660 . S
Tb0 N38 2.600 . S
Tb0 O44 2.546 . S
Tb0 O45 2.610 1_455 S
Tb0 O47 2.320 . S
Tb0 O48 2.552 . S
Tb0 O49 2.413 . S
Tb0 O51 2.362 . S
Tb0 O52 2.421 . S
Tb0 C64 2.833 . S
C1 C4 1.432 . S
C1 C5 1.414 . S
C1 N8 1.359 . S
C2 C4 1.417 1_565 S
C2 C6 1.432 1_455 S
C2 C14 1.410 . S
C3 C5 1.444 1_655 S
C3 C6 1.317 1_545 S
C3 H26 0.929 . S
C4 C1 1.432 . S
C4 C2 1.417 1_545 S
C4 N12 1.360 . S
C5 C1 1.414 . S
C5 C3 1.444 1_455 S
C5 C10 1.385 . S
C6 C2 1.432 1_655 S
C6 C3 1.317 1_565 S
C6 H18 0.930 . S
C7 C9 1.392 . S
C7 C10 1.370 . S
C7 H19 0.931 . S
N8 C1 1.359 . S
N8 C9 1.327 . S
N8 Tb11 2.600 . S
C9 C7 1.392 . S
C9 N8 1.327 . S
C9 H16 0.930 . S
C10 C5 1.385 . S
C10 C7 1.370 . S
C10 H29 0.930 1_455 S
Tb11 N8 2.600 . S
Tb11 N12 2.660 . S
Tb11 O45 2.362 . S
Tb11 O46 2.421 . S
Tb11 O50 2.546 . S
Tb11 O51 2.610 1_655 S
Tb11 O53 2.320 . S
Tb11 O54 2.552 . S
Tb11 O55 2.413 . S
Tb11 C75 2.833 . S
N12 C4 1.360 . S
N12 Tb11 2.660 . S
N12 C13 1.305 1_545 S
C13 N12 1.305 1_565 S
C13 C15 1.407 . S
C13 H20 0.930 . S
C14 C2 1.410 . S
C14 C15 1.345 . S
C14 H22 0.930 1_455 S
C15 C13 1.407 . S
C15 C14 1.345 . S
C15 H17 0.930 . S
H16 C9 0.930 . S
H17 C15 0.930 . S
H18 C6 0.930 . S
H19 C7 0.931 . S
H20 C13 0.930 . S
H21 C35 0.930 . S
H22 C14 0.930 1_655 S
H23 C41 0.930 . S
H24 C32 0.930 . S
H25 C39 0.931 . S
H26 C3 0.929 . S
H27 C33 0.930 1_455 S
H28 C66 0.930 . S
H29 C10 0.930 1_655 S
H30 C65 0.929 . S
N31 Tb0 2.660 . S
N31 C32 1.305 . S
N31 C36 1.360 . S
C32 H24 0.930 . S
C32 N31 1.305 . S
C32 C35 1.407 1_565 S
C33 H27 0.930 1_655 S
C33 C34 1.410 1_545 S
C33 C35 1.345 . S
C34 C33 1.410 1_565 S
C34 C36 1.417 . S
C34 C66 1.432 1_655 S
C35 H21 0.930 . S
C35 C32 1.407 1_545 S
C35 C33 1.345 . S
C36 N31 1.360 . S
C36 C34 1.417 . S
C36 C40 1.432 . S
H37 C42 0.930 1_455 S
N38 Tb0 2.600 . S
N38 C40 1.359 . S
N38 C41 1.327 . S
C39 H25 0.931 . S
C39 C41 1.392 . S
C39 C42 1.370 . S
C40 C36 1.432 . S
C40 N38 1.359 . S
C40 C43 1.414 . S
C41 H23 0.930 . S
C41 N38 1.327 . S
C41 C39 1.392 . S
C42 H37 0.930 1_655 S
C42 C39 1.370 . S
C42 C43 1.385 . S
C43 C40 1.414 . S
C43 C42 1.385 . S
C43 C65 1.444 1_655 S
O44 Tb0 2.546 . S
O44 C64 1.251 . S
O45 Tb0 2.610 1_655 S
O45 Tb11 2.362 . S
O45 C56 1.283 . S
O46 Tb11 2.421 . S
O46 C63 1.262 1_655 S
O47 Tb0 2.320 . S
O47 C63 1.260 . S
O48 Tb0 2.552 . S
O48 C56 1.243 1_455 S
O49 Tb0 2.413 . S
O49 C64 1.256 . S
O50 Tb11 2.546 . S
O50 C75 1.251 . S
O51 Tb0 2.362 . S
O51 Tb11 2.610 1_455 S
O51 C67 1.283 . S
O52 Tb0 2.421 . S
O52 C74 1.261 1_445 S
O53 Tb11 2.320 . S
O53 C74 1.257 1_545 S
O54 Tb11 2.552 . S
O54 C67 1.243 1_655 S
O55 Tb11 2.413 . S
O55 C75 1.256 . S
C56 O45 1.283 . S
C56 O48 1.243 1_655 S
C57 C59 1.382 . S
C57 C61 1.393 . S
C57 C64 1.500 . S
C58 C59 1.400 . S
C58 C60 1.384 . S
C59 C57 1.382 . S
C59 C58 1.400 . S
C59 H76 0.930 . S
C60 C58 1.384 . S
C60 C62 1.392 . S
C60 H77 0.931 . S
C61 C57 1.393 . S
C61 C62 1.401 . S
C61 H78 0.930 . S
C62 C60 1.392 . S
C62 C61 1.401 . S
C62 H79 0.930 . S
C63 O46 1.262 1_455 S
C63 O47 1.260 . S
C64 Tb0 2.833 . S
C64 O44 1.251 . S
C64 O49 1.256 . S
C64 C57 1.500 . S
C65 H30 0.929 . S
C65 C43 1.444 1_455 S
C65 C66 1.317 . S
C66 H28 0.930 . S
C66 C34 1.432 1_455 S
C66 C65 1.317 . S
C67 O51 1.283 . S
C67 O54 1.243 1_455 S
C68 C69 1.382 1_544 S
C68 C72 1.393 1_554 S
C68 C75 1.500 . S
C69 C68 1.382 1_566 S
C69 C70 1.400 . S
C69 H80 0.923 1_556 S
C70 C69 1.400 . S
C70 C71 1.384 . S
C71 C70 1.384 . S
C71 C73 1.392 1_565 S
C71 H81 0.931 . S
C72 C68 1.393 1_556 S
C72 C73 1.401 . S
C72 H82 0.930 1_556 S
C73 C71 1.392 1_545 S
C73 C72 1.401 . S
C73 H83 0.930 . S
C74 O52 1.261 1_665 S
C74 O53 1.257 1_565 S
C75 Tb11 2.833 . S
C75 O50 1.251 . S
C75 O55 1.256 . S
C75 C68 1.500 . S
H76 C59 0.930 . S
H77 C60 0.931 . S
H78 C61 0.930 . S
H79 C62 0.930 . S
H80 C69 0.923 1_554 S
H81 C71 0.931 . S
H82 C72 0.930 1_554 S
H83 C73 0.930 . S
Tb84 N115 2.660 . S
Tb84 N122 2.600 . S
Tb84 O128 2.546 . S
Tb84 O129 2.610 1_565 S
Tb84 O131 2.320 1_665 S
Tb84 O132 2.552 1_565 S
Tb84 O133 2.413 . S
Tb84 O135 2.362 1_565 S
Tb84 O136 2.421 1_565 S
Tb84 C148 2.833 . S
C85 C88 1.432 . S
C85 C89 1.414 1_565 S
C85 N92 1.359 . S
C86 C88 1.417 1_545 S
C86 C90 1.432 . S
C86 C98 1.410 . S
C87 C89 1.444 . S
C87 C90 1.317 . S
C87 H110 0.929 . S
C88 C85 1.432 . S
C88 C86 1.417 1_565 S
C88 N96 1.360 . S
C89 C85 1.414 1_545 S
C89 C87 1.444 . S
C89 C94 1.385 . S
C90 C86 1.432 . S
C90 C87 1.317 . S
C90 H102 0.930 . S
C91 C93 1.392 . S
C91 C94 1.370 1_565 S
C91 H103 0.931 . S
N92 C85 1.359 . S
N92 C93 1.327 . S
N92 Tb95 2.600 . S
C93 C91 1.392 . S
C93 N92 1.327 . S
C93 H100 0.930 . S
C94 C89 1.385 . S
C94 C91 1.370 1_545 S
C94 H113 0.930 . S
Tb95 N92 2.600 . S
Tb95 N96 2.660 . S
Tb95 O129 2.362 1_455 S
Tb95 O130 2.421 . S
Tb95 O134 2.546 . S
Tb95 O135 2.610 1_455 S
Tb95 O137 2.320 1_455 S
Tb95 O138 2.552 1_455 S
Tb95 O139 2.413 1_455 S
Tb95 C159 2.833 . S
N96 C88 1.360 . S
N96 Tb95 2.660 . S
N96 C97 1.305 1_455 S
C97 N96 1.305 1_655 S
C97 C99 1.407 . S
C97 H104 0.930 . S
C98 C86 1.410 . S
C98 C99 1.345 1_445 S
C98 H106 0.930 . S
C99 C97 1.407 . S
C99 C98 1.345 1_665 S
C99 H101 0.930 . S
H100 C93 0.930 . S
H101 C99 0.930 . S
H102 C90 0.930 . S
H103 C91 0.931 . S
H104 C97 0.930 . S
H105 C119 0.930 . S
H106 C98 0.930 . S
H107 C125 0.930 . S
H108 C116 0.930 . S
H109 C123 0.931 . S
H110 C87 0.929 . S
H111 C117 0.930 . S
H112 C150 0.930 1_565 S
H113 C94 0.930 . S
H114 C149 0.929 1_665 S
N115 Tb84 2.660 . S
N115 C116 1.305 . S
N115 C120 1.360 . S
C116 H108 0.930 . S
C116 N115 1.305 . S
C116 C119 1.407 . S
C117 H111 0.930 . S
C117 C118 1.410 . S
C117 C119 1.345 . S
C118 C117 1.410 . S
C118 C120 1.417 . S
C118 C150 1.432 . S
C119 H105 0.930 . S
C119 C116 1.407 . S
C119 C117 1.345 . S
C120 N115 1.360 . S
C120 C118 1.417 . S
C120 C124 1.432 . S
H121 C126 0.930 . S
N122 Tb84 2.600 . S
N122 C124 1.359 . S
N122 C125 1.327 . S
C123 H109 0.931 . S
C123 C125 1.392 1_655 S
C123 C126 1.370 . S
C124 C120 1.432 . S
C124 N122 1.359 . S
C124 C127 1.414 . S
C125 H107 0.930 . S
C125 N122 1.327 . S
C125 C123 1.392 1_455 S
C126 H121 0.930 . S
C126 C123 1.370 . S
C126 C127 1.385 1_655 S
C127 C124 1.414 . S
C127 C126 1.385 1_455 S
C127 C149 1.444 . S
O128 Tb84 2.546 . S
O128 C148 1.251 . S
O129 Tb84 2.610 1_545 S
O129 Tb95 2.362 1_655 S
O129 C140 1.283 . S
O130 Tb95 2.421 . S
O130 C147 1.262 . S
O131 Tb84 2.320 1_445 S
O131 C147 1.260 . S
O132 Tb84 2.552 1_545 S
O132 C140 1.243 . S
O133 Tb84 2.413 . S
O133 C148 1.256 . S
O134 Tb95 2.546 . S
O134 C159 1.251 . S
O135 Tb84 2.362 1_545 S
O135 Tb95 2.610 1_655 S
O135 C151 1.283 . S
O136 Tb84 2.421 1_545 S
O136 C158 1.262 . S
O137 Tb95 2.320 1_655 S
O137 C158 1.260 . S
O138 Tb95 2.552 1_655 S
O138 C151 1.243 . S
O139 Tb95 2.413 1_655 S
O139 C159 1.256 1_655 S
C140 O129 1.283 . S
C140 O132 1.243 . S
C141 C143 1.382 . S
C141 C145 1.393 . S
C141 C148 1.500 . S
C142 C143 1.400 . S
C142 C144 1.384 . S
C143 C141 1.382 . S
C143 C142 1.400 . S
C143 H160 0.930 . S
C144 C142 1.384 . S
C144 C146 1.392 . S
C144 H161 0.931 . S
C145 C141 1.393 . S
C145 C146 1.401 . S
C145 H162 0.930 . S
C146 C144 1.392 . S
C146 C145 1.401 . S
C146 H163 0.930 . S
C147 O130 1.262 . S
C147 O131 1.260 . S
C148 Tb84 2.833 . S
C148 O128 1.251 . S
C148 O133 1.256 . S
C148 C141 1.500 . S
C149 H114 0.929 1_445 S
C149 C127 1.444 . S
C149 C150 1.317 . S
C150 H112 0.930 1_545 S
C150 C118 1.432 . S
C150 C149 1.317 . S
C151 O135 1.283 . S
C151 O138 1.243 . S
C152 C153 1.382 1_455 S
C152 C156 1.393 . S
C152 C159 1.500 . S
C153 C152 1.382 1_655 S
C153 C154 1.400 . S
C153 H164 0.930 . S
C154 C153 1.400 . S
C154 C155 1.384 1_665 S
C155 C154 1.384 1_445 S
C155 C157 1.392 . S
C155 H165 0.931 . S
C156 C152 1.393 . S
C156 C157 1.401 1_565 S
C156 H166 0.930 . S
C157 C155 1.392 . S
C157 C156 1.401 1_545 S
C157 H167 0.930 . S
C158 O136 1.262 . S
C158 O137 1.260 . S
C159 Tb95 2.833 . S
C159 O134 1.251 . S
C159 O139 1.256 1_455 S
C159 C152 1.500 . S
H160 C143 0.930 . S
H161 C144 0.931 . S
H162 C145 0.930 . S
H163 C146 0.930 . S
H164 C153 0.930 . S
H165 C155 0.931 . S
H166 C156 0.930 . S
H167 C157 0.930 . S
Tb168 N199 2.660 . S
Tb168 N206 2.600 . S
Tb168 O212 2.546 . S
Tb168 O213 2.610 . S
Tb168 O215 2.320 . S
Tb168 O216 2.552 . S
Tb168 O217 2.413 . S
Tb168 O219 2.362 . S
Tb168 O220 2.421 1_655 S
Tb168 C232 2.833 . S
C169 C172 1.432 . S
C169 C173 1.414 1_455 S
C169 N176 1.359 1_455 S
C170 C172 1.417 . S
C170 C174 1.432 . S
C170 C182 1.410 1_565 S
C171 C173 1.444 1_455 S
C171 C174 1.317 . S
C171 H194 0.929 . S
C172 C169 1.432 . S
C172 C170 1.417 . S
C172 N180 1.360 1_565 S
C173 C169 1.414 1_655 S
C173 C171 1.444 1_655 S
C173 C178 1.385 . S
C174 C170 1.432 . S
C174 C171 1.317 . S
C174 H186 0.930 . S
C175 C177 1.392 . S
C175 C178 1.370 . S
C175 H187 0.931 . S
N176 C169 1.359 1_655 S
N176 C177 1.327 . S
N176 Tb179 2.600 1_565 S
C177 C175 1.392 . S
C177 N176 1.327 . S
C177 H184 0.930 . S
C178 C173 1.385 . S
C178 C175 1.370 . S
C178 H197 0.930 . S
Tb179 N176 2.600 1_545 S
Tb179 N180 2.660 1_655 S
Tb179 O213 2.362 . S
Tb179 O214 2.421 . S
Tb179 O218 2.546 1_545 S
Tb179 O219 2.610 . S
Tb179 O221 2.320 1_655 S
Tb179 O222 2.552 . S
Tb179 O223 2.413 1_655 S
Tb179 C243 2.833 1_655 S
N180 C172 1.360 1_545 S
N180 Tb179 2.660 1_455 S
N180 C181 1.305 . S
C181 N180 1.305 . S
C181 C183 1.407 . S
C181 H188 0.930 . S
C182 C170 1.410 1_545 S
C182 C183 1.345 . S
C182 H190 0.930 . S
C183 C181 1.407 . S
C183 C182 1.345 . S
C183 H185 0.930 . S
H184 C177 0.930 . S
H185 C183 0.930 . S
H186 C174 0.930 . S
H187 C175 0.931 . S
H188 C181 0.930 . S
H189 C203 0.930 . S
H190 C182 0.930 . S
H191 C209 0.930 1_455 S
H192 C200 0.930 . S
H193 C207 0.931 . S
H194 C171 0.929 . S
H195 C201 0.930 . S
H196 C234 0.930 . S
H197 C178 0.930 . S
H198 C233 0.929 . S
N199 Tb168 2.660 . S
N199 C200 1.305 . S
N199 C204 1.360 . S
C200 H192 0.930 . S
C200 N199 1.305 . S
C200 C203 1.407 . S
C201 H195 0.930 . S
C201 C202 1.410 . S
C201 C203 1.345 . S
C202 C201 1.410 . S
C202 C204 1.417 . S
C202 C234 1.432 1_565 S
C203 H189 0.930 . S
C203 C200 1.407 . S
C203 C201 1.345 . S
C204 N199 1.360 . S
C204 C202 1.417 . S
C204 C208 1.432 . S
H205 C210 0.930 . S
N206 Tb168 2.600 . S
N206 C208 1.359 . S
N206 C209 1.327 1_565 S
C207 H193 0.931 . S
C207 C209 1.392 1_455 S
C207 C210 1.370 1_455 S
C208 C204 1.432 . S
C208 N206 1.359 . S
C208 C211 1.414 1_565 S
C209 H191 0.930 1_655 S
C209 N206 1.327 1_545 S
C209 C207 1.392 1_655 S
C210 H205 0.930 . S
C210 C207 1.370 1_655 S
C210 C211 1.385 . S
C211 C208 1.414 1_545 S
C211 C210 1.385 . S
C211 C233 1.444 . S
O212 Tb168 2.546 . S
O212 C232 1.251 . S
O213 Tb168 2.610 . S
O213 Tb179 2.362 . S
O213 C224 1.283 . S
O214 Tb179 2.421 . S
O214 C231 1.262 . S
O215 Tb168 2.320 . S
O215 C231 1.260 . S
O216 Tb168 2.552 . S
O216 C224 1.243 . S
O217 Tb168 2.413 . S
O217 C232 1.256 . S
O218 Tb179 2.546 1_565 S
O218 C243 1.251 1_665 S
O219 Tb168 2.362 . S
O219 Tb179 2.610 . S
O219 C235 1.283 . S
O220 Tb168 2.421 1_455 S
O220 C242 1.262 . S
O221 Tb179 2.320 1_455 S
O221 C242 1.260 . S
O222 Tb179 2.552 . S
O222 C235 1.243 . S
O223 Tb179 2.413 1_455 S
O223 C243 1.256 . S
C224 O213 1.283 . S
C224 O216 1.243 . S
C225 C227 1.382 1_556 S
C225 C229 1.393 1_556 S
C225 C232 1.500 . S
C226 C227 1.400 . S
C226 C228 1.384 . S
C227 C225 1.382 1_554 S
C227 C226 1.400 . S
C227 H244 0.930 1_554 S
C228 C226 1.384 . S
C228 C230 1.392 . S
C228 H245 0.931 . S
C229 C225 1.393 1_554 S
C229 C230 1.401 . S
C229 H246 0.930 1_564 S
C230 C228 1.392 . S
C230 C229 1.401 . S
C230 H247 0.930 1_565 S
C231 O214 1.262 . S
C231 O215 1.260 . S
C232 Tb168 2.833 . S
C232 O212 1.251 . S
C232 O217 1.256 . S
C232 C225 1.500 . S
C233 H198 0.929 . S
C233 C211 1.444 . S
C233 C234 1.317 . S
C234 H196 0.930 . S
C234 C202 1.432 1_545 S
C234 C233 1.317 . S
C235 O219 1.283 . S
C235 O222 1.243 . S
C236 C237 1.382 . S
C236 C240 1.393 1_545 S
C236 C243 1.500 . S
C237 C236 1.382 . S
C237 C238 1.400 . S
C237 H248 0.930 . S
C238 C237 1.400 . S
C238 C239 1.384 . S
C239 C238 1.384 . S
C239 C241 1.392 1_545 S
C239 H249 0.931 . S
C240 C236 1.393 1_565 S
C240 C241 1.401 . S
C240 H250 0.930 1_455 S
C241 C239 1.392 1_565 S
C241 C240 1.401 . S
C241 H251 0.930 . S
C242 O220 1.262 . S
C242 O221 1.260 . S
C243 Tb179 2.833 1_455 S
C243 O218 1.251 1_445 S
C243 O223 1.256 . S
C243 C236 1.500 . S
H244 C227 0.930 1_556 S
H245 C228 0.931 . S
H246 C229 0.930 1_546 S
H247 C230 0.930 1_545 S
H248 C237 0.930 . S
H249 C239 0.931 . S
H250 C240 0.930 1_655 S
H251 C241 0.930 . S
C63 C74 1.942 1_455 S
C158 C147 1.940 . S
C242 C231 1.940 1_565 S
C226 C67 1.352 . S
C154 C56 3.743 1_565 S
C235 C142 1.352 . S
C224 C70 3.747 1_655 S
C58 C151 1.352 1_565 S
C238 C140 3.745 . S
