# Generated by pormake.
# Topology gsi, (4)-cn, num edge types: 1
# Building blocks:
#     Node 0, Type 0, BuildingBlock: AZAVOO_clean_sbu_0, # of connection points: 4
#     Node 1, Type 0, BuildingBlock: AZAVOO_clean_sbu_0, # of connection points: 4
#     Node 2, Type 0, BuildingBlock: AZAVOO_clean_sbu_0, # of connection points: 4
#     Node 3, Type 0, BuildingBlock: AZAVOO_clean_sbu_0, # of connection points: 4
#     Node 4, Type 0, BuildingBlock: AZAVOO_clean_sbu_0, # of connection points: 4
#     Node 5, Type 0, BuildingBlock: AZAVOO_clean_sbu_0, # of connection points: 4
#     Node 6, Type 0, BuildingBlock: AZAVOO_clean_sbu_0, # of connection points: 4
#     Node 7, Type 0, BuildingBlock: AZAVOO_clean_sbu_0, # of connection points: 4
#     Node 8, Type 0, BuildingBlock: AZAVOO_clean_sbu_0, # of connection points: 4
#     Node 9, Type 0, BuildingBlock: AZAVOO_clean_sbu_0, # of connection points: 4
#     Node 10, Type 0, BuildingBlock: AZAVOO_clean_sbu_0, # of connection points: 4
#     Node 11, Type 0, BuildingBlock: AZAVOO_clean_sbu_0, # of connection points: 4
#     Node 12, Type 0, BuildingBlock: AZAVOO_clean_sbu_0, # of connection points: 4
#     Node 13, Type 0, BuildingBlock: AZAVOO_clean_sbu_0, # of connection points: 4
#     Node 14, Type 0, BuildingBlock: AZAVOO_clean_sbu_0, # of connection points: 4
#     Node 15, Type 0, BuildingBlock: AZAVOO_clean_sbu_0, # of connection points: 4
#     Edge 16, Type (0, 0), BuildingBlock: ZUJKAS_clean_linker_0, # of connection points: 2
#     Edge 17, Type (0, 0), BuildingBlock: ZUJKAS_clean_linker_0, # of connection points: 2
#     Edge 18, Type (0, 0), BuildingBlock: ZUJKAS_clean_linker_0, # of connection points: 2
#     Edge 19, Type (0, 0), BuildingBlock: ZUJKAS_clean_linker_0, # of connection points: 2
#     Edge 20, Type (0, 0), BuildingBlock: ZUJKAS_clean_linker_0, # of connection points: 2
#     Edge 21, Type (0, 0), BuildingBlock: ZUJKAS_clean_linker_0, # of connection points: 2
#     Edge 22, Type (0, 0), BuildingBlock: ZUJKAS_clean_linker_0, # of connection points: 2
#     Edge 23, Type (0, 0), BuildingBlock: ZUJKAS_clean_linker_0, # of connection points: 2
#     Edge 24, Type (0, 0), BuildingBlock: ZUJKAS_clean_linker_0, # of connection points: 2
#     Edge 25, Type (0, 0), BuildingBlock: ZUJKAS_clean_linker_0, # of connection points: 2
#     Edge 26, Type (0, 0), BuildingBlock: ZUJKAS_clean_linker_0, # of connection points: 2
#     Edge 27, Type (0, 0), BuildingBlock: ZUJKAS_clean_linker_0, # of connection points: 2
#     Edge 28, Type (0, 0), BuildingBlock: ZUJKAS_clean_linker_0, # of connection points: 2
#     Edge 29, Type (0, 0), BuildingBlock: ZUJKAS_clean_linker_0, # of connection points: 2
#     Edge 30, Type (0, 0), BuildingBlock: ZUJKAS_clean_linker_0, # of connection points: 2
#     Edge 31, Type (0, 0), BuildingBlock: ZUJKAS_clean_linker_0, # of connection points: 2
#     Edge 32, Type (0, 0), BuildingBlock: ZUJKAS_clean_linker_0, # of connection points: 2
#     Edge 33, Type (0, 0), BuildingBlock: ZUJKAS_clean_linker_0, # of connection points: 2
#     Edge 34, Type (0, 0), BuildingBlock: ZUJKAS_clean_linker_0, # of connection points: 2
#     Edge 35, Type (0, 0), BuildingBlock: ZUJKAS_clean_linker_0, # of connection points: 2
#     Edge 36, Type (0, 0), BuildingBlock: ZUJKAS_clean_linker_0, # of connection points: 2
#     Edge 37, Type (0, 0), BuildingBlock: ZUJKAS_clean_linker_0, # of connection points: 2
#     Edge 38, Type (0, 0), BuildingBlock: ZUJKAS_clean_linker_0, # of connection points: 2
#     Edge 39, Type (0, 0), BuildingBlock: ZUJKAS_clean_linker_0, # of connection points: 2
#     Edge 40, Type (0, 0), BuildingBlock: ZUJKAS_clean_linker_0, # of connection points: 2
#     Edge 41, Type (0, 0), BuildingBlock: ZUJKAS_clean_linker_0, # of connection points: 2
#     Edge 42, Type (0, 0), BuildingBlock: ZUJKAS_clean_linker_0, # of connection points: 2
#     Edge 43, Type (0, 0), BuildingBlock: ZUJKAS_clean_linker_0, # of connection points: 2
#     Edge 44, Type (0, 0), BuildingBlock: ZUJKAS_clean_linker_0, # of connection points: 2
#     Edge 45, Type (0, 0), BuildingBlock: ZUJKAS_clean_linker_0, # of connection points: 2
#     Edge 46, Type (0, 0), BuildingBlock: ZUJKAS_clean_linker_0, # of connection points: 2
#     Edge 47, Type (0, 0), BuildingBlock: ZUJKAS_clean_linker_0, # of connection points: 2
# Relax obj value: 0.022
# Max RMSD: 0.029
# Mean RMSD: 0.026
data_MOF--net-gsi--node1-AZAVOO_clean_sbu_0--edge1-ZUJKAS_clean_linker_0
_symmetry_space_group_name_H-M    P1
_symmetry_Int_Tables_number       1
_symmetry_cell_setting            triclinic
loop_
_symmetry_equiv_pos_as_xyz
'x, y, z'
_cell_length_a     55.890886
_cell_length_b     55.698551
_cell_length_c     54.277675
_cell_angle_alpha  89.980189
_cell_angle_beta   89.999917
_cell_angle_gamma 90.005741
loop_
_atom_site_label
_atom_site_type_symbol
_atom_site_fract_x
_atom_site_fract_y
_atom_site_fract_z
_atom_type_partial_charge
Mg0 Mg 0.14698 0.14383 0.14727 0.0
O1 O 0.1688 0.16534 0.17573 0.0
O2 O 0.20066 0.14295 0.18574 0.0
Mg3 Mg 0.20017 0.10856 0.16286 0.0
C4 C 0.18806 0.16194 0.18795 0.0
C5 C 0.10119 0.169 0.1355 0.0
O6 O 0.09639 0.1459 0.13572 0.0
O7 O 0.17397 0.15487 0.11801 0.0
O8 O 0.20502 0.13135 0.12774 0.0
O9 O 0.12743 0.12404 0.17681 0.0
O10 O 0.16126 0.11168 0.16016 0.0
C11 C 0.19511 0.14709 0.11395 0.0
C12 C 0.14458 0.10845 0.17617 0.0
O13 O 0.12261 0.17568 0.13944 0.0
Mg14 Mg 0.85666 0.3559 0.1448 0.0
O15 O 0.83681 0.33422 0.17484 0.0
O16 O 0.8047 0.35573 0.18594 0.0
Mg17 Mg 0.80219 0.38869 0.16131 0.0
C18 C 0.81816 0.33736 0.18812 0.0
C19 C 0.9029 0.33224 0.13089 0.0
O20 O 0.90636 0.35544 0.1282 0.0
O21 O 0.82958 0.3429 0.11657 0.0
O22 O 0.79707 0.36368 0.12786 0.0
O23 O 0.87595 0.37743 0.17309 0.0
O24 O 0.84113 0.3877 0.15701 0.0
C25 C 0.80758 0.34853 0.11385 0.0
C26 C 0.85802 0.39212 0.17249 0.0
O27 O 0.88229 0.32497 0.13744 0.0
Mg28 Mg 0.14199 0.85803 0.35151 0.0
O29 O 0.16556 0.83866 0.32286 0.0
O30 O 0.19786 0.86172 0.31719 0.0
Mg31 Mg 0.19479 0.89553 0.34069 0.0
C32 C 0.18581 0.84273 0.31269 0.0
C33 C 0.09965 0.82957 0.36934 0.0
O34 O 0.09731 0.85097 0.37924 0.0
O35 O 0.16798 0.84627 0.38171 0.0
O36 O 0.19827 0.87171 0.375 0.0
O37 O 0.12322 0.87883 0.3221 0.0
O38 O 0.15595 0.89108 0.341 0.0
C39 C 0.18842 0.85491 0.38745 0.0
C40 C 0.13999 0.89471 0.32434 0.0
O41 O 0.1182 0.82524 0.35653 0.0
Mg42 Mg 0.85458 0.64235 0.34765 0.0
O43 O 0.83136 0.66186 0.31876 0.0
O44 O 0.79903 0.63887 0.31288 0.0
Mg45 Mg 0.80169 0.60513 0.33654 0.0
C46 C 0.81119 0.65781 0.30841 0.0
C47 C 0.89875 0.66892 0.36209 0.0
O48 O 0.90243 0.64621 0.36745 0.0
O49 O 0.82842 0.6542 0.37753 0.0
O50 O 0.79789 0.62908 0.37079 0.0
O51 O 0.87353 0.62166 0.3184 0.0
O52 O 0.84057 0.60943 0.33692 0.0
C53 C 0.80784 0.64585 0.38318 0.0
C54 C 0.85666 0.60585 0.32037 0.0
O55 O 0.87857 0.67493 0.3532 0.0
Mg56 Mg 0.35935 0.85746 0.6441 0.0
O57 O 0.33589 0.83768 0.67256 0.0
O58 O 0.30367 0.86074 0.67868 0.0
Mg59 Mg 0.3067 0.89491 0.6557 0.0
C60 C 0.31569 0.84166 0.68286 0.0
C61 C 0.40445 0.83101 0.63289 0.0
O62 O 0.40911 0.85398 0.63015 0.0
O63 O 0.33319 0.84615 0.61393 0.0
O64 O 0.30299 0.87156 0.62105 0.0
O65 O 0.37834 0.87759 0.67373 0.0
O66 O 0.34554 0.89038 0.65535 0.0
C67 C 0.31275 0.85488 0.60838 0.0
C68 C 0.36162 0.89356 0.672 0.0
O69 O 0.38323 0.82481 0.63849 0.0
Mg70 Mg 0.85644 0.85548 0.8599 0.0
O71 O 0.82852 0.83576 0.83613 0.0
O72 O 0.79376 0.85525 0.84051 0.0
Mg73 Mg 0.79899 0.88651 0.86724 0.0
C74 C 0.80627 0.83831 0.83123 0.0
C75 C 0.90449 0.83078 0.85595 0.0
O76 O 0.90347 0.83881 0.87869 0.0
O77 O 0.85825 0.88607 0.8318 0.0
O78 O 0.82378 0.90499 0.83937 0.0
O79 O 0.84712 0.83256 0.89237 0.0
O80 O 0.82909 0.86671 0.88311 0.0
C81 C 0.84373 0.9034 0.828 0.0
C82 C 0.8302 0.84783 0.89672 0.0
O83 O 0.88707 0.83517 0.84159 0.0
Mg84 Mg 0.14474 0.64926 0.85913 0.0
O85 O 0.17348 0.66752 0.83512 0.0
O86 O 0.2079 0.64789 0.84131 0.0
Mg87 Mg 0.2016 0.61789 0.86931 0.0
C88 C 0.19582 0.66453 0.83092 0.0
C89 C 0.09383 0.66568 0.84715 0.0
O90 O 0.09069 0.6501 0.86505 0.0
O91 O 0.14308 0.61743 0.83254 0.0
O92 O 0.17721 0.59858 0.8417 0.0
O93 O 0.15372 0.67361 0.89058 0.0
O94 O 0.17144 0.6388 0.8835 0.0
C95 C 0.15751 0.59984 0.82984 0.0
C96 C 0.17038 0.65839 0.89603 0.0
O97 O 0.11489 0.6691 0.83904 0.0
Mg98 Mg 0.85809 0.14754 0.63312 0.0
O99 O 0.82941 0.16518 0.65758 0.0
O100 O 0.79493 0.14589 0.65088 0.0
Mg101 Mg 0.80141 0.11625 0.62256 0.0
C102 C 0.80706 0.16225 0.66165 0.0
C103 C 0.90836 0.16518 0.64337 0.0
O104 O 0.91053 0.15095 0.62419 0.0
O105 O 0.86006 0.11531 0.65912 0.0
O106 O 0.82583 0.09658 0.65001 0.0
O107 O 0.84851 0.17246 0.60251 0.0
O108 O 0.83176 0.13698 0.60824 0.0
C109 C 0.84561 0.09771 0.66176 0.0
C110 C 0.83241 0.15691 0.59622 0.0
O111 O 0.88789 0.16734 0.65331 0.0
Mg112 Mg 0.14853 0.35434 0.63606 0.0
O113 O 0.17558 0.33363 0.66001 0.0
O114 O 0.21075 0.3525 0.65687 0.0
Mg115 Mg 0.20648 0.38462 0.63114 0.0
C116 C 0.19776 0.33558 0.66543 0.0
C117 C 0.10029 0.32978 0.63841 0.0
O118 O 0.10176 0.33838 0.61591 0.0
O119 O 0.14617 0.38433 0.66477 0.0
O120 O 0.18125 0.40263 0.65882 0.0
O121 O 0.15859 0.33206 0.60347 0.0
O122 O 0.17636 0.3661 0.61337 0.0
C123 C 0.16094 0.40122 0.66952 0.0
C124 C 0.17542 0.34749 0.59931 0.0
O125 O 0.11745 0.33376 0.65322 0.0
Mg126 Mg 0.64104 0.15095 0.36186 0.0
O127 O 0.67178 0.16786 0.33949 0.0
O128 O 0.70564 0.14905 0.35013 0.0
Mg129 Mg 0.69634 0.11875 0.37684 0.0
C130 C 0.69445 0.16514 0.33797 0.0
C131 C 0.59345 0.16154 0.33406 0.0
O132 O 0.59023 0.13885 0.33981 0.0
O133 O 0.64037 0.11876 0.33585 0.0
O134 O 0.67391 0.09984 0.34706 0.0
O135 O 0.64916 0.1756 0.39328 0.0
O136 O 0.66518 0.13965 0.38869 0.0
C137 C 0.65493 0.10118 0.33398 0.0
C138 C 0.66426 0.15953 0.40072 0.0
O139 O 0.61325 0.17146 0.33942 0.0
Mg140 Mg 0.64836 0.64054 0.64508 0.0
O141 O 0.67157 0.66091 0.67332 0.0
O142 O 0.70462 0.6389 0.67884 0.0
Mg143 Mg 0.70256 0.60499 0.6554 0.0
C144 C 0.69199 0.6575 0.68338 0.0
C145 C 0.6017 0.6656 0.63755 0.0
O146 O 0.59713 0.64245 0.63769 0.0
O147 O 0.6735 0.65293 0.61448 0.0
O148 O 0.70488 0.62882 0.62092 0.0
O149 O 0.6307 0.61962 0.67499 0.0
O150 O 0.66356 0.60805 0.65587 0.0
C151 C 0.69421 0.64515 0.60852 0.0
C152 C 0.64794 0.60426 0.67286 0.0
O153 O 0.62329 0.67242 0.63999 0.0
Mg154 Mg 0.64436 0.35515 0.84981 0.0
O155 O 0.66843 0.33473 0.82233 0.0
O156 O 0.70191 0.35627 0.81784 0.0
Mg157 Mg 0.69957 0.3897 0.84187 0.0
C158 C 0.68914 0.3379 0.81283 0.0
C159 C 0.60894 0.31561 0.83404 0.0
O160 O 0.61519 0.32476 0.81268 0.0
O161 O 0.66795 0.34244 0.88137 0.0
O162 O 0.70065 0.365 0.8759 0.0
O163 O 0.62809 0.37649 0.81958 0.0
O164 O 0.66041 0.38755 0.84002 0.0
C165 C 0.6889 0.34908 0.88782 0.0
C166 C 0.64541 0.39164 0.8225 0.0
O167 O 0.61916 0.32323 0.85345 0.0
Mg168 Mg 0.35758 0.14091 0.85184 0.0
O169 O 0.33303 0.15933 0.82353 0.0
O170 O 0.30108 0.13575 0.81815 0.0
Mg171 Mg 0.30543 0.10225 0.84203 0.0
C172 C 0.3128 0.15491 0.81351 0.0
C173 C 0.38955 0.18325 0.83638 0.0
O174 O 0.38358 0.17393 0.81501 0.0
O175 O 0.33185 0.15214 0.88232 0.0
O176 O 0.30182 0.12624 0.87631 0.0
O177 O 0.37645 0.12067 0.82232 0.0
O178 O 0.34431 0.10739 0.84162 0.0
C179 C 0.31162 0.14327 0.88847 0.0
C180 C 0.36016 0.10433 0.82468 0.0
O181 O 0.3803 0.17462 0.85586 0.0
Mg182 Mg 0.36307 0.35375 0.3586 0.0
O183 O 0.33293 0.33689 0.33532 0.0
O184 O 0.29867 0.35566 0.34471 0.0
Mg185 Mg 0.30707 0.38578 0.37196 0.0
C186 C 0.31033 0.33959 0.33298 0.0
C187 C 0.38908 0.31097 0.33373 0.0
O188 O 0.36921 0.30072 0.34126 0.0
O189 O 0.3642 0.38594 0.33248 0.0
O190 O 0.33044 0.40478 0.34308 0.0
O191 O 0.35473 0.3291 0.39013 0.0
O192 O 0.33762 0.36442 0.38432 0.0
C193 C 0.34969 0.40355 0.33042 0.0
C194 C 0.33873 0.34467 0.39654 0.0
O195 O 0.39174 0.33342 0.33703 0.0
Mg196 Mg 0.35726 0.64993 0.13744 0.0
O197 O 0.32816 0.66864 0.1605 0.0
O198 O 0.29397 0.64857 0.1548 0.0
Mg199 Mg 0.30088 0.61771 0.12802 0.0
C200 C 0.30584 0.66563 0.16466 0.0
C201 C 0.40772 0.66268 0.1572 0.0
O202 O 0.41171 0.64161 0.14714 0.0
O203 O 0.35915 0.61897 0.16508 0.0
O204 O 0.32529 0.59945 0.15635 0.0
O205 O 0.3482 0.67299 0.1051 0.0
O206 O 0.33121 0.638 0.11275 0.0
C207 C 0.34492 0.60128 0.16827 0.0
C208 C 0.33225 0.65709 0.09938 0.0
O209 O 0.38651 0.67091 0.15729 0.0
Mg210 Mg 0.64113 0.85652 0.13759 0.0
O211 O 0.67001 0.83611 0.15944 0.0
O212 O 0.70476 0.85531 0.15422 0.0
Mg213 Mg 0.6984 0.88758 0.12916 0.0
C214 C 0.69245 0.83822 0.16345 0.0
C215 C 0.61224 0.81241 0.15564 0.0
O216 O 0.63067 0.80207 0.145 0.0
O217 O 0.64032 0.88617 0.16685 0.0
O218 O 0.67485 0.9048 0.1588 0.0
O219 O 0.64951 0.83488 0.10397 0.0
O220 O 0.66729 0.86905 0.1133 0.0
C221 C 0.65529 0.90307 0.17086 0.0
C222 C 0.6658 0.85067 0.099 0.0
O223 O 0.61152 0.83521 0.15668 0.0
H224 H 0.18671 0.21012 0.17943 0.0
H225 H 0.20711 0.24158 0.20293 0.0
H226 H 0.22941 0.18887 0.25655 0.0
H227 H 0.21049 0.15723 0.23215 0.0
H228 H 0.20394 0.26049 0.2454 0.0
H229 H 0.29246 0.21667 0.24154 0.0
H230 H 0.26718 0.20548 0.22448 0.0
H231 H 0.27119 0.19752 0.25645 0.0
C232 C 0.19587 0.20534 0.19633 0.0
C233 C 0.19728 0.18128 0.20389 0.0
C234 C 0.20758 0.2233 0.20972 0.0
C235 C 0.22051 0.21755 0.23115 0.0
C236 C 0.22049 0.19368 0.23956 0.0
H237 H 0.26516 0.32279 0.33975 0.0
H238 H 0.24348 0.2939 0.31439 0.0
C239 C 0.20941 0.17564 0.22579 0.0
C240 C 0.23413 0.23644 0.24456 0.0
H241 H 0.2884 0.24866 0.27057 0.0
C242 C 0.22249 0.25798 0.25068 0.0
C243 C 0.25856 0.23357 0.25094 0.0
C244 C 0.27312 0.21218 0.24274 0.0
C245 C 0.23435 0.27641 0.26344 0.0
C246 C 0.25823 0.27275 0.27144 0.0
C247 C 0.27001 0.25144 0.26483 0.0
C248 C 0.27133 0.29058 0.2868 0.0
C249 C 0.22125 0.29976 0.26756 0.0
C250 C 0.29474 0.29759 0.28053 0.0
C251 C 0.30754 0.31343 0.29558 0.0
C252 C 0.29696 0.32296 0.3169 0.0
C253 C 0.27356 0.31606 0.32314 0.0
C254 C 0.26106 0.2997 0.3085 0.0
H255 H 0.20759 0.30285 0.25303 0.0
H256 H 0.21174 0.299 0.28549 0.0
H257 H 0.23369 0.31529 0.26773 0.0
H258 H 0.30318 0.29075 0.264 0.0
H259 H 0.32558 0.31844 0.29039 0.0
H260 H 0.80004 0.34365 0.23401 0.0
H261 H 0.78279 0.31311 0.26103 0.0
H262 H 0.7997 0.25852 0.20728 0.0
H263 H 0.81846 0.28894 0.18106 0.0
H264 H 0.7457 0.28853 0.25371 0.0
H265 H 0.81903 0.22327 0.26679 0.0
H266 H 0.82395 0.2523 0.253 0.0
H267 H 0.81289 0.22764 0.23472 0.0
C268 C 0.80062 0.32501 0.22833 0.0
C269 C 0.81071 0.31855 0.20561 0.0
C270 C 0.79066 0.30757 0.2437 0.0
C271 C 0.79006 0.28336 0.2364 0.0
C272 C 0.80054 0.27687 0.21379 0.0
H273 H 0.68032 0.18751 0.29557 0.0
H274 H 0.70367 0.21526 0.27015 0.0
C275 C 0.81116 0.29427 0.19872 0.0
C276 C 0.77664 0.26551 0.25148 0.0
H277 H 0.77959 0.20945 0.27678 0.0
C278 C 0.75328 0.27134 0.25896 0.0
C279 C 0.78647 0.24313 0.25863 0.0
C280 C 0.81205 0.23634 0.25308 0.0
C281 C 0.7395 0.25557 0.27327 0.0
C282 C 0.74882 0.23265 0.27926 0.0
C283 C 0.77224 0.22683 0.27192 0.0
C284 C 0.73492 0.21477 0.29379 0.0
C285 C 0.71543 0.26408 0.2824 0.0
C286 C 0.74508 0.2042 0.31484 0.0
C287 C 0.73205 0.18772 0.32887 0.0
C288 C 0.70845 0.18176 0.32239 0.0
C289 C 0.69836 0.19207 0.30118 0.0
C290 C 0.71164 0.20808 0.28677 0.0
H291 H 0.71458 0.28399 0.28327 0.0
H292 H 0.70132 0.25802 0.26944 0.0
H293 H 0.71137 0.25685 0.301 0.0
H294 H 0.763 0.20895 0.32065 0.0
H295 H 0.74027 0.1801 0.34517 0.0
H296 H 0.25957 0.663 0.18103 0.0
H297 H 0.23801 0.69208 0.20628 0.0
H298 H 0.30106 0.73657 0.20982 0.0
H299 H 0.323 0.70735 0.18492 0.0
H300 H 0.27874 0.73135 0.25488 0.0
H301 H 0.21272 0.75668 0.18298 0.0
H302 H 0.21383 0.72508 0.18942 0.0
H303 H 0.23942 0.73974 0.17611 0.0
C304 C 0.26892 0.67895 0.18715 0.0
C305 C 0.29302 0.68288 0.18077 0.0
C306 C 0.25648 0.69564 0.20146 0.0
C307 C 0.26777 0.71672 0.20949 0.0
C308 C 0.29195 0.72048 0.20365 0.0
H309 H 0.22947 0.84417 0.29004 0.0
H310 H 0.24835 0.813 0.26524 0.0
C311 C 0.30447 0.70375 0.18942 0.0
C312 C 0.25449 0.73473 0.22425 0.0
H313 H 0.20633 0.77253 0.223 0.0
C314 C 0.26295 0.74039 0.24789 0.0
C315 C 0.23383 0.74645 0.2151 0.0
C316 C 0.2245 0.74189 0.18943 0.0
C317 C 0.25124 0.75737 0.26268 0.0
C318 C 0.23071 0.76918 0.25347 0.0
C319 C 0.22205 0.76335 0.22998 0.0
C320 C 0.2186 0.78832 0.26767 0.0
C321 C 0.26081 0.76247 0.28815 0.0
C322 C 0.19528 0.785 0.27663 0.0
C323 C 0.18433 0.80284 0.29088 0.0
C324 C 0.19647 0.82437 0.2962 0.0
C325 C 0.21958 0.82782 0.28646 0.0
C326 C 0.23049 0.80998 0.27235 0.0
H327 H 0.2731 0.74811 0.2946 0.0
H328 H 0.2709 0.77963 0.28785 0.0
H329 H 0.24596 0.76433 0.30161 0.0
H330 H 0.18578 0.76842 0.27301 0.0
H331 H 0.16652 0.7996 0.298 0.0
H332 H 0.76789 0.6562 0.28506 0.0
H333 H 0.7493 0.68726 0.25985 0.0
H334 H 0.81157 0.73209 0.26871 0.0
H335 H 0.83052 0.70103 0.29406 0.0
H336 H 0.74022 0.73577 0.27631 0.0
H337 H 0.79806 0.73175 0.19297 0.0
H338 H 0.79639 0.70745 0.21497 0.0
H339 H 0.81318 0.734 0.22214 0.0
C340 C 0.77783 0.67254 0.28152 0.0
C341 C 0.80075 0.67608 0.29165 0.0
C342 C 0.76711 0.69028 0.26711 0.0
C343 C 0.77912 0.71186 0.26232 0.0
C344 C 0.80214 0.7154 0.27197 0.0
H345 H 0.73867 0.8392 0.18003 0.0
H346 H 0.75932 0.80903 0.20476 0.0
C347 C 0.8129 0.69765 0.28651 0.0
C348 C 0.76694 0.73101 0.24817 0.0
H349 H 0.76853 0.76204 0.19399 0.0
C350 C 0.74637 0.74154 0.2583 0.0
C351 C 0.77511 0.73849 0.22478 0.0
C352 C 0.7968 0.72728 0.21288 0.0
C353 C 0.7338 0.75957 0.2457 0.0
C354 C 0.74173 0.76683 0.22209 0.0
C355 C 0.76245 0.75641 0.21206 0.0
C356 C 0.72884 0.78524 0.20748 0.0
C357 C 0.71245 0.771 0.25804 0.0
C358 C 0.70484 0.78182 0.20065 0.0
C359 C 0.69288 0.79914 0.18662 0.0
C360 C 0.7048 0.82008 0.17889 0.0
C361 C 0.7289 0.82332 0.18565 0.0
C362 C 0.74078 0.80607 0.19977 0.0
H363 H 0.71288 0.76846 0.27834 0.0
H364 H 0.71158 0.79054 0.25404 0.0
H365 H 0.69584 0.76251 0.25099 0.0
H366 H 0.69543 0.76562 0.20591 0.0
H367 H 0.6744 0.79594 0.18158 0.0
H368 H 0.33503 0.79842 0.69716 0.0
H369 H 0.31579 0.76699 0.72186 0.0
H370 H 0.2531 0.81136 0.72987 0.0
H371 H 0.27196 0.84277 0.70537 0.0
H372 H 0.29505 0.77096 0.77199 0.0
H373 H 0.22868 0.74641 0.70004 0.0
H374 H 0.25585 0.76266 0.69317 0.0
H375 H 0.23084 0.77793 0.70681 0.0
C376 C 0.3172 0.80155 0.70427 0.0
C377 C 0.30502 0.82311 0.69912 0.0
C378 C 0.30625 0.78357 0.71836 0.0
C379 C 0.28292 0.78677 0.7273 0.0
C380 C 0.27098 0.80843 0.72276 0.0
H381 H 0.17847 0.70586 0.80997 0.0
H382 H 0.20038 0.73485 0.78471 0.0
C383 C 0.28189 0.82642 0.70883 0.0
C384 C 0.27084 0.76753 0.74138 0.0
H385 H 0.22291 0.72957 0.73973 0.0
C386 C 0.2794 0.76172 0.76492 0.0
C387 C 0.25039 0.75567 0.73206 0.0
C388 C 0.24094 0.76077 0.70655 0.0
C389 C 0.26758 0.7448 0.77975 0.0
C390 C 0.247 0.73302 0.77049 0.0
C391 C 0.23866 0.73864 0.7468 0.0
C392 C 0.23367 0.71503 0.78522 0.0
C393 C 0.27678 0.74028 0.80548 0.0
C394 C 0.24497 0.69401 0.7934 0.0
C395 C 0.23256 0.67745 0.80791 0.0
C396 C 0.20847 0.68146 0.81433 0.0
C397 C 0.19699 0.7022 0.80543 0.0
C398 C 0.20948 0.71881 0.79101 0.0
H399 H 0.28851 0.75509 0.81197 0.0
H400 H 0.26178 0.73815 0.81872 0.0
H401 H 0.28745 0.72349 0.8056 0.0
H402 H 0.26344 0.69043 0.78862 0.0
H403 H 0.24193 0.66158 0.81421 0.0
H404 H 0.73545 0.65707 0.70645 0.0
H405 H 0.75304 0.68823 0.73213 0.0
H406 H 0.68931 0.73116 0.72418 0.0
H407 H 0.67154 0.70012 0.69793 0.0
H408 H 0.73095 0.75681 0.716 0.0
H409 H 0.7379 0.70535 0.80308 0.0
H410 H 0.75148 0.69024 0.77747 0.0
H411 H 0.71971 0.69548 0.77754 0.0
C412 C 0.72499 0.673 0.71027 0.0
C413 C 0.70199 0.67601 0.70013 0.0
C414 C 0.73507 0.69076 0.72512 0.0
C415 C 0.72234 0.71182 0.73041 0.0
C416 C 0.69937 0.71493 0.72044 0.0
H417 H 0.7604 0.83981 0.81362 0.0
H418 H 0.73992 0.80975 0.78858 0.0
C419 C 0.68924 0.69716 0.70548 0.0
C420 C 0.73359 0.73098 0.74541 0.0
H421 H 0.76033 0.7418 0.80088 0.0
C422 C 0.73716 0.75363 0.73465 0.0
C423 C 0.74171 0.72675 0.76972 0.0
C424 C 0.73731 0.70321 0.78274 0.0
C425 C 0.74926 0.77195 0.74731 0.0
C426 C 0.75776 0.76754 0.77142 0.0
C427 C 0.75394 0.74502 0.7823 0.0
C428 C 0.77051 0.78613 0.7858 0.0
C429 C 0.7534 0.79569 0.73461 0.0
C430 C 0.79444 0.78267 0.79271 0.0
C431 C 0.80627 0.79982 0.80705 0.0
C432 C 0.79425 0.82064 0.81496 0.0
C433 C 0.77026 0.82404 0.80785 0.0
C434 C 0.75851 0.80693 0.79343 0.0
H435 H 0.75044 0.79446 0.71441 0.0
H436 H 0.7408 0.80921 0.74214 0.0
H437 H 0.77189 0.80221 0.73799 0.0
H438 H 0.80395 0.76664 0.78706 0.0
H439 H 0.8247 0.79656 0.81224 0.0
H440 H 0.73332 0.33766 0.79128 0.0
H441 H 0.75119 0.30627 0.76602 0.0
H442 H 0.6866 0.26434 0.77179 0.0
H443 H 0.66833 0.2958 0.79717 0.0
H444 H 0.75759 0.25692 0.78105 0.0
H445 H 0.70198 0.26641 0.69651 0.0
H446 H 0.70416 0.28986 0.71939 0.0
H447 H 0.68621 0.26377 0.72529 0.0
C448 C 0.72274 0.32189 0.78709 0.0
C449 C 0.69933 0.3193 0.79631 0.0
C450 C 0.73305 0.30394 0.77266 0.0
C451 C 0.72017 0.2831 0.76695 0.0
C452 C 0.69672 0.28047 0.77578 0.0
H453 H 0.76064 0.15971 0.67758 0.0
H454 H 0.73953 0.18782 0.70439 0.0
C455 C 0.68635 0.29843 0.79034 0.0
C456 C 0.73181 0.26386 0.75245 0.0
H457 H 0.73087 0.23558 0.6967 0.0
C458 C 0.75174 0.25218 0.76262 0.0
C459 C 0.72402 0.2577 0.72851 0.0
C460 C 0.70302 0.27014 0.71659 0.0
C461 C 0.76417 0.23445 0.74945 0.0
C462 C 0.75676 0.22868 0.72524 0.0
C463 C 0.73655 0.24008 0.71524 0.0
C464 C 0.76998 0.2112 0.70977 0.0
C465 C 0.78491 0.22187 0.76171 0.0
C466 C 0.79413 0.21505 0.70381 0.0
C467 C 0.80633 0.19894 0.68857 0.0
C468 C 0.79453 0.17878 0.67875 0.0
C469 C 0.77032 0.175 0.6848 0.0
C470 C 0.75818 0.19107 0.70011 0.0
H471 H 0.78378 0.2231 0.78211 0.0
H472 H 0.78565 0.20264 0.7564 0.0
H473 H 0.80186 0.23054 0.75589 0.0
H474 H 0.80344 0.23076 0.7106 0.0
H475 H 0.82489 0.20254 0.68416 0.0
H476 H 0.24342 0.33554 0.68362 0.0
H477 H 0.26281 0.30455 0.70838 0.0
H478 H 0.19762 0.26318 0.70852 0.0
H479 H 0.17797 0.29404 0.68356 0.0
H480 H 0.24882 0.28609 0.75555 0.0
H481 H 0.24939 0.21599 0.68266 0.0
H482 H 0.2445 0.24737 0.67598 0.0
H483 H 0.22081 0.22952 0.6888 0.0
C484 C 0.23312 0.31989 0.68889 0.0
C485 C 0.20913 0.31725 0.68145 0.0
C486 C 0.24427 0.30221 0.70308 0.0
C487 C 0.23175 0.28146 0.70995 0.0
C488 C 0.20769 0.27891 0.70302 0.0
H489 H 0.26868 0.15351 0.79171 0.0
H490 H 0.24969 0.18448 0.76665 0.0
C491 C 0.19646 0.29664 0.68888 0.0
C492 C 0.24393 0.26259 0.7245 0.0
H493 H 0.26282 0.20435 0.72222 0.0
C494 C 0.25196 0.26822 0.74829 0.0
C495 C 0.24797 0.23935 0.7149 0.0
C496 C 0.24042 0.23264 0.68911 0.0
C497 C 0.26356 0.25105 0.76298 0.0
C498 C 0.2677 0.2278 0.75335 0.0
C499 C 0.25968 0.2222 0.72953 0.0
C500 C 0.27981 0.20884 0.76793 0.0
C501 C 0.27072 0.25777 0.78889 0.0
C502 C 0.30328 0.21203 0.77654 0.0
C503 C 0.31422 0.19437 0.791 0.0
C504 C 0.30194 0.17307 0.79693 0.0
C505 C 0.27868 0.16968 0.78759 0.0
C506 C 0.26776 0.18737 0.77324 0.0
H507 H 0.26085 0.27383 0.79553 0.0
H508 H 0.26741 0.24271 0.80186 0.0
H509 H 0.29011 0.26202 0.78926 0.0
H510 H 0.31312 0.22823 0.77216 0.0
H511 H 0.33221 0.19752 0.7977 0.0
H512 H 0.10908 0.90715 0.28738 0.0
H513 H 0.10973 0.94369 0.26235 0.0
H514 H 0.17363 0.96711 0.29986 0.0
H515 H 0.17266 0.93118 0.32546 0.0
H516 H 0.1407 0.00254 0.29664 0.0
H517 H 0.15349 0.95991 0.20521 0.0
H518 H 0.12785 0.94895 0.22164 0.0
H519 H 0.15736 0.94368 0.23371 0.0
C520 C 0.12338 0.91999 0.29016 0.0
C521 C 0.14098 0.9161 0.30823 0.0
C522 C 0.12379 0.9408 0.27575 0.0
C523 C 0.14196 0.95792 0.27898 0.0
C524 C 0.15954 0.95405 0.29698 0.0
H525 H 0.17826 0.07297 0.17901 0.0
H526 H 0.17773 0.03743 0.20523 0.0
C527 C 0.15904 0.93338 0.31149 0.0
C528 C 0.14231 0.9803 0.26423 0.0
H529 H 0.14507 0.00168 0.20539 0.0
C530 C 0.14171 0.00238 0.27669 0.0
C531 C 0.14391 0.98001 0.23823 0.0
C532 C 0.14593 0.95688 0.22389 0.0
C533 C 0.14257 0.02422 0.26384 0.0
C534 C 0.14348 0.02393 0.23781 0.0
C535 C 0.14419 0.00185 0.22536 0.0
C536 C 0.14424 0.04629 0.22305 0.0
C537 C 0.14305 0.04735 0.27831 0.0
C538 C 0.12561 0.06314 0.22442 0.0
C539 C 0.12604 0.08371 0.20966 0.0
C540 C 0.14495 0.08762 0.19306 0.0
C541 C 0.16358 0.07071 0.19179 0.0
C542 C 0.16323 0.05028 0.20667 0.0
H543 H 0.14895 0.04438 0.29762 0.0
H544 H 0.15518 0.06069 0.26961 0.0
H545 H 0.12477 0.05509 0.27884 0.0
H546 H 0.1105 0.06015 0.23653 0.0
H547 H 0.11129 0.09627 0.2109 0.0
H548 H 0.89081 0.40598 0.20704 0.0
H549 H 0.89004 0.44223 0.23244 0.0
H550 H 0.82213 0.46211 0.20067 0.0
H551 H 0.82309 0.42638 0.17472 0.0
H552 H 0.85372 0.49922 0.20101 0.0
H553 H 0.85009 0.45631 0.29318 0.0
H554 H 0.87475 0.44635 0.27463 0.0
H555 H 0.84462 0.43988 0.26509 0.0
C556 C 0.8756 0.41795 0.20563 0.0
C557 C 0.85689 0.41317 0.18902 0.0
C558 C 0.87513 0.43859 0.22025 0.0
C559 C 0.85585 0.45466 0.2187 0.0
C560 C 0.83711 0.44986 0.20224 0.0
H561 H 0.824 0.56933 0.32096 0.0
H562 H 0.82343 0.53349 0.29518 0.0
C563 C 0.83762 0.42932 0.18753 0.0
C564 C 0.85561 0.47701 0.23345 0.0
H565 H 0.85711 0.4984 0.29231 0.0
C566 C 0.85437 0.49907 0.22098 0.0
C567 C 0.8562 0.47671 0.25949 0.0
C568 C 0.85626 0.45355 0.27393 0.0
C569 C 0.85392 0.52089 0.23386 0.0
C570 C 0.85526 0.52061 0.25987 0.0
C571 C 0.85628 0.49855 0.27235 0.0
C572 C 0.85522 0.54297 0.27461 0.0
C573 C 0.85151 0.54398 0.21951 0.0
C574 C 0.87329 0.56022 0.27158 0.0
C575 C 0.87351 0.58092 0.28612 0.0
C576 C 0.85577 0.58461 0.30409 0.0
C577 C 0.83774 0.56725 0.30709 0.0
C578 C 0.83746 0.54665 0.29247 0.0
H579 H 0.84414 0.5408 0.20078 0.0
H580 H 0.83974 0.55693 0.22925 0.0
H581 H 0.86943 0.5523 0.21739 0.0
H582 H 0.88748 0.55747 0.25829 0.0
H583 H 0.88777 0.59384 0.28352 0.0
H584 H 0.27312 0.12346 0.91148 0.0
H585 H 0.25364 0.13673 0.949 0.0
H586 H 0.30175 0.19715 0.95351 0.0
H587 H 0.32208 0.18344 0.916 0.0
H588 H 0.29846 0.17613 0.99649 0.0
H589 H 0.2067 0.18868 0.96269 0.0
H590 H 0.21658 0.15933 0.95393 0.0
H591 H 0.23174 0.18547 0.94193 0.0
C592 C 0.27946 0.13975 0.92018 0.0
C593 C 0.29916 0.15241 0.91065 0.0
C594 C 0.26809 0.14748 0.94158 0.0
C595 C 0.27576 0.16832 0.95375 0.0
C596 C 0.29533 0.18117 0.94425 0.0
H597 H 0.18502 0.18604 0.08461 0.0
H598 H 0.20621 0.19865 0.04724 0.0
C599 C 0.30695 0.17329 0.92286 0.0
C600 C 0.26456 0.17501 0.97755 0.0
H601 H 0.21021 0.17612 0.00599 0.0
C602 C 0.27917 0.17677 -0.00149 0.0
C603 C 0.23943 0.17672 0.98026 0.0
C604 C 0.2228 0.17775 0.9584 0.0
C605 C 0.26923 0.17772 0.02222 0.0
C606 C 0.2441 0.17603 0.02502 0.0
C607 C 0.2295 0.17678 0.00398 0.0
C608 C 0.23281 0.17044 0.0491 0.0
C609 C 0.28586 0.17985 0.044 0.0
C610 C 0.24063 0.1504 0.06255 0.0
C611 C 0.22877 0.14333 0.08394 0.0
C612 C 0.20842 0.15582 0.09212 0.0
C613 C 0.20061 0.17601 0.07876 0.0
C614 C 0.21274 0.18327 0.05745 0.0
H615 H 0.3018 0.19083 0.0392 0.0
H616 H 0.27684 0.18811 0.06013 0.0
H617 H 0.29235 0.16173 0.04924 0.0
H618 H 0.25547 0.13962 0.05606 0.0
H619 H 0.23515 0.12756 0.09359 0.0
H620 H 0.82492 0.33555 0.0688 0.0
H621 H 0.80152 0.32641 0.03186 0.0
H622 H 0.73653 0.32926 0.07467 0.0
H623 H 0.75975 0.33963 0.11136 0.0
H624 H 0.76997 0.29328 0.0161 0.0
H625 H 0.72447 0.38151 0.02565 0.0
H626 H 0.74942 0.37297 0.04473 0.0
H627 H 0.71985 0.36192 0.05141 0.0
C628 C 0.80567 0.33388 0.07037 0.0
C629 C 0.79408 0.33875 0.09278 0.0
C630 C 0.79231 0.32864 0.04928 0.0
C631 C 0.76722 0.32785 0.05037 0.0
C632 C 0.75581 0.33058 0.07324 0.0
H633 H 0.66583 0.32889 0.92721 0.0
H634 H 0.6834 0.31831 0.96719 0.0
C635 C 0.76909 0.33637 0.09419 0.0
C636 C 0.75307 0.3263 0.02731 0.0
H637 H 0.71274 0.35733 0.99236 0.0
C638 C 0.75731 0.30718 0.011 0.0
C639 C 0.73668 0.34459 0.02056 0.0
C640 C 0.73247 0.36652 0.03636 0.0
C641 C 0.74588 0.30609 0.98797 0.0
C642 C 0.72977 0.32447 0.98128 0.0
C643 C 0.72493 0.34312 -0.00218 0.0
C644 C 0.71971 0.32641 0.95624 0.0
C645 C 0.75137 0.28565 0.97069 0.0
C646 C 0.73442 0.33419 0.93692 0.0
C647 C 0.72446 0.34061 0.9143 0.0
C648 C 0.6996 0.3392 0.91056 0.0
C649 C 0.68504 0.3301 0.92953 0.0
C650 C 0.69502 0.32402 0.95233 0.0
H651 H 0.76051 0.27059 0.98025 0.0
H652 H 0.73468 0.27885 0.96204 0.0
H653 H 0.76323 0.2922 0.95572 0.0
H654 H 0.75348 0.33647 0.93976 0.0
H655 H 0.73615 0.3474 0.89998 0.0
H656 H 0.32056 0.81333 0.58205 0.0
H657 H 0.29889 0.79969 0.54525 0.0
H658 H 0.25478 0.86321 0.54814 0.0
H659 H 0.27551 0.87639 0.585 0.0
H660 H 0.22855 0.82403 0.53795 0.0
H661 H 0.309 0.82694 0.47733 0.0
H662 H 0.31018 0.80702 0.50333 0.0
H663 H 0.30938 0.83892 0.50817 0.0
C664 C 0.30619 0.82431 0.57481 0.0
C665 C 0.29985 0.84601 0.58638 0.0
C666 C 0.29388 0.81653 0.55376 0.0
C667 C 0.27539 0.83058 0.54376 0.0
C668 C 0.26889 0.852 0.55556 0.0
H669 H 0.22634 0.87561 0.41043 0.0
H670 H 0.24672 0.86238 0.44746 0.0
C671 C 0.28087 0.85957 0.57664 0.0
C672 C 0.26311 0.82408 0.52047 0.0
H673 H 0.27186 0.82257 0.45829 0.0
C674 C 0.23799 0.82324 0.5205 0.0
C675 C 0.27553 0.82287 0.49779 0.0
C676 C 0.30249 0.82412 0.49645 0.0
C677 C 0.22488 0.82357 0.49845 0.0
C678 C 0.23732 0.82394 0.47576 0.0
C679 C 0.26241 0.82241 0.47575 0.0
C680 C 0.22523 0.83038 0.45234 0.0
C681 C 0.19797 0.82557 0.49974 0.0
C682 C 0.20638 0.81669 0.44255 0.0
C683 C 0.19428 0.8245 0.42137 0.0
C684 C 0.20118 0.84588 0.40949 0.0
C685 C 0.22053 0.85905 0.41902 0.0
C686 C 0.23231 0.85144 0.44021 0.0
H687 H 0.19152 0.82887 0.51881 0.0
H688 H 0.1915 0.84039 0.48778 0.0
H689 H 0.18981 0.8086 0.49313 0.0
H690 H 0.20091 0.80013 0.45134 0.0
H691 H 0.1796 0.81382 0.41432 0.0
H692 H 0.7337 0.62707 0.58586 0.0
H693 H 0.75263 0.6409 0.54828 0.0
H694 H 0.70173 0.69891 0.54299 0.0
H695 H 0.68194 0.68456 0.58058 0.0
H696 H 0.70587 0.6779 0.50043 0.0
H697 H 0.79724 0.69434 0.53325 0.0
H698 H 0.78876 0.66475 0.54269 0.0
H699 H 0.77254 0.6904 0.55431 0.0
C700 C 0.72662 0.64298 0.57698 0.0
C701 C 0.70629 0.65473 0.58631 0.0
C702 C 0.7377 0.65105 0.55556 0.0
C703 C 0.72909 0.67139 0.54314 0.0
C704 C 0.70889 0.68337 0.55245 0.0
H705 H 0.81811 0.68622 0.41047 0.0
H706 H 0.79739 0.70032 0.4476 0.0
C707 C 0.69757 0.67511 0.57387 0.0
C708 C 0.73991 0.6782 0.51917 0.0
H709 H 0.79405 0.67994 0.49031 0.0
C710 C 0.72513 0.67904 0.49828 0.0
C711 C 0.76496 0.68062 0.51622 0.0
C712 C 0.78168 0.68278 0.53792 0.0
C713 C 0.73491 0.67954 0.47448 0.0
C714 C 0.76005 0.67828 0.47157 0.0
C715 C 0.77475 0.68019 0.49244 0.0
C716 C 0.77123 0.67164 0.44772 0.0
C717 C 0.71811 0.68055 0.45276 0.0
C718 C 0.76358 0.65077 0.43557 0.0
C719 C 0.77518 0.64284 0.41438 0.0
C720 C 0.7951 0.65528 0.40506 0.0
C721 C 0.80283 0.67622 0.41719 0.0
C722 C 0.79097 0.68434 0.43835 0.0
H723 H 0.70204 0.69147 0.45722 0.0
H724 H 0.7269 0.68828 0.43621 0.0
H725 H 0.71184 0.66213 0.44835 0.0
H726 H 0.74904 0.64009 0.44291 0.0
H727 H 0.76887 0.6265 0.40573 0.0
H728 H 0.90271 0.28315 0.13563 0.0
H729 H 0.93729 0.25606 0.13352 0.0
H730 H 0.9834 0.31619 0.11782 0.0
H731 H 0.94916 0.34333 0.11983 0.0
H732 H 0.97311 0.25067 0.09236 0.0
H733 H 0.01154 0.28251 0.18115 0.0
H734 H 0.98048 0.28692 0.17312 0.0
H735 H 0.00319 0.30524 0.15922 0.0
C736 C 0.92019 0.29058 0.13158 0.0
C737 C 0.92321 0.31541 0.12807 0.0
C738 C 0.93988 0.27509 0.13036 0.0
C739 C 0.96285 0.28424 0.12581 0.0
C740 C 0.96582 0.30887 0.12165 0.0
H741 H 0.1044 0.21811 0.1319 0.0
H742 H 0.07135 0.24674 0.12725 0.0
C743 C 0.9462 0.32432 0.12275 0.0
C744 C 0.98388 0.26814 0.12592 0.0
H745 H 0.03421 0.25442 0.1586 0.0
C746 C 0.98649 0.25142 0.10682 0.0
C747 C 0.00135 0.26943 0.1447 0.0
C748 C 0.99906 0.28685 0.16585 0.0
C749 C 0.00628 0.23592 0.10594 0.0
C750 C 0.02353 0.23682 0.12503 0.0
C751 C 0.02101 0.25379 0.14397 0.0
C752 C 0.04368 0.21955 0.12644 0.0
C753 C 0.00868 0.219 0.08437 0.0
C754 C 0.03907 0.19484 0.12771 0.0
C755 C 0.05784 0.17852 0.13021 0.0
C756 C 0.08164 0.18657 0.13185 0.0
C757 C 0.08627 0.21135 0.13063 0.0
C758 C 0.06743 0.22771 0.12799 0.0
H759 H 0.99884 0.22575 0.06799 0.0
H760 H 0.02773 0.2163 0.07926 0.0
H761 H 1.00093 0.20133 0.08941 0.0
H762 H 0.02088 0.18816 0.12727 0.0
H763 H 0.05359 0.15957 0.1313 0.0
H764 H 0.94347 0.66055 0.38006 0.0
H765 H 0.97674 0.68865 0.38313 0.0
H766 H 0.9322 0.74522 0.35418 0.0
H767 H 0.89866 0.71699 0.35066 0.0
H768 H 0.97658 0.74204 0.33121 0.0
H769 H 0.98708 0.74259 0.43276 0.0
H770 H 0.98722 0.71296 0.41976 0.0
H771 H 0.96065 0.73108 0.41772 0.0
C772 C 0.9406 0.67901 0.37452 0.0
C773 C 0.91836 0.68655 0.36516 0.0
C774 C 0.95965 0.69509 0.37644 0.0
C775 C 0.95684 0.71909 0.36925 0.0
C776 C 0.93466 0.72677 0.35998 0.0
H777 H 0.05818 0.83412 0.39535 0.0
H778 H 0.02377 0.80714 0.39532 0.0
C779 C 0.91553 0.71065 0.35803 0.0
C780 C 0.97748 0.73577 0.37034 0.0
H781 H 0.01916 0.75942 0.40942 0.0
C782 C 0.98581 0.74599 0.34832 0.0
C783 C 0.98935 0.74101 0.39272 0.0
C784 C 0.98051 0.73153 0.41712 0.0
C785 C 0.00603 0.76094 0.34799 0.0
C786 C 0.01845 0.76543 0.37023 0.0
C787 C 0.00981 0.75564 0.39234 0.0
C788 C 0.03995 0.78097 0.37106 0.0
C789 C 0.01371 0.77207 0.3239 0.0
C790 C 0.06073 0.77488 0.35794 0.0
C791 C 0.08051 0.79029 0.35789 0.0
C792 C 0.07983 0.81202 0.37107 0.0
C793 C 0.05928 0.81759 0.3849 0.0
C794 C 0.03957 0.80219 0.38493 0.0
H795 H 0.99913 0.77165 0.30999 0.0
H796 H 0.01943 0.79098 0.32659 0.0
H797 H 0.02912 0.76186 0.31639 0.0
H798 H 0.06156 0.75831 0.34752 0.0
H799 H 0.0961 0.78543 0.34715 0.0
H800 H 0.55402 0.65571 0.63661 0.0
H801 H 0.5208 0.684 0.6341 0.0
H802 H 0.57058 0.74306 0.63133 0.0
H803 H 0.60419 0.71477 0.63388 0.0
H804 H 0.51206 0.72337 0.66845 0.0
H805 H 0.52397 0.75311 0.57132 0.0
H806 H 0.53667 0.72551 0.58295 0.0
H807 H 0.55011 0.75377 0.59067 0.0
C808 C 0.55801 0.6747 0.63534 0.0
C809 C 0.58179 0.683 0.63541 0.0
C810 C 0.53896 0.69082 0.63394 0.0
C811 C 0.54327 0.71554 0.63233 0.0
C812 C 0.56694 0.72398 0.63226 0.0
H813 H 0.45155 0.83988 0.62385 0.0
H814 H 0.48457 0.8113 0.62352 0.0
C815 C 0.58609 0.70783 0.63381 0.0
C816 C 0.52284 0.7324 0.63153 0.0
H817 H 0.49369 0.77228 0.59442 0.0
C818 C 0.50797 0.73406 0.65228 0.0
C819 C 0.51766 0.74625 0.61039 0.0
C820 C 0.53278 0.74457 0.58744 0.0
C821 C 0.48819 0.74958 0.65262 0.0
C822 C 0.48284 0.76332 0.63138 0.0
C823 C 0.49776 0.76163 0.61062 0.0
C824 C 0.46238 0.78025 0.63068 0.0
C825 C 0.47363 0.7516 0.67595 0.0
C826 C 0.43881 0.77222 0.6343 0.0
C827 C 0.4198 0.78859 0.63465 0.0
C828 C 0.42406 0.81323 0.63113 0.0
C829 C 0.44761 0.82105 0.62672 0.0
C830 C 0.46655 0.80473 0.62649 0.0
H831 H 0.4836 0.74478 0.69222 0.0
H832 H 0.46838 0.77051 0.67949 0.0
H833 H 0.45709 0.74075 0.67401 0.0
H834 H 0.43513 0.75331 0.63701 0.0
H835 H 0.40185 0.78198 0.63791 0.0
H836 H 0.88551 0.09269 0.69118 0.0
H837 H 0.89525 0.0589 0.71845 0.0
H838 H 0.82952 0.02382 0.6976 0.0
H839 H 0.81976 0.05704 0.67039 0.0
H840 H 0.86909 0.04201 0.75833 0.0
H841 H 0.87868 0.97046 0.68862 0.0
H842 H 0.87943 0.00197 0.68076 0.0
H843 H 0.85126 0.98672 0.68461 0.0
C844 C 0.87321 0.07771 0.6923 0.0
C845 C 0.85188 0.0776 0.6785 0.0
C846 C 0.87884 0.05841 0.70783 0.0
C847 C 0.86337 0.03862 0.70959 0.0
C848 C 0.84205 0.03859 0.696 0.0
H849 H 0.81813 0.94381 0.81765 0.0
H850 H 0.82853 0.97633 0.78981 0.0
C851 C 0.83639 0.05778 0.68059 0.0
C852 C 0.86831 0.01856 0.72679 0.0
H853 H 0.868 0.95735 0.72987 0.0
C854 C 0.86943 0.02351 0.7521 0.0
C855 C 0.86923 0.99444 0.71865 0.0
C856 C 0.86986 0.98809 0.69164 0.0
C857 C 0.86941 0.00491 0.76953 0.0
C858 C 0.86787 0.98083 0.76139 0.0
C859 C 0.86881 0.97584 0.73608 0.0
C860 C 0.86238 0.96097 0.77863 0.0
C861 C 0.87017 0.01123 0.79654 0.0
C862 C 0.87765 0.9411 0.78102 0.0
C863 C 0.87169 0.92221 0.79697 0.0
C864 C 0.8502 0.92284 0.81052 0.0
C865 C 0.83486 0.94268 0.80765 0.0
C866 C 0.84086 0.96146 0.79187 0.0
H867 H 0.87919 0.02875 0.79958 0.0
H868 H 0.8516 0.01275 0.80363 0.0
H869 H 0.87962 0.99721 0.80736 0.0
H870 H 0.89421 0.94028 0.77068 0.0
H871 H 0.88388 0.9072 0.79869 0.0
H872 H 0.18402 0.55986 0.82028 0.0
H873 H 0.17423 0.52644 0.79337 0.0
H874 H 0.10721 0.56004 0.77445 0.0
H875 H 0.11694 0.59406 0.80147 0.0
H876 H 0.13322 0.49527 0.79529 0.0
H877 H 0.14071 0.5464 0.70726 0.0
H878 H 0.15289 0.55777 0.73576 0.0
H879 H 0.12116 0.55785 0.73085 0.0
C880 C 0.16717 0.56033 0.81044 0.0
C881 C 0.15132 0.57979 0.813 0.0
C882 C 0.16157 0.54108 0.79512 0.0
C883 C 0.14005 0.54079 0.78191 0.0
C884 C 0.12401 0.56005 0.78439 0.0
H885 H 0.11826 0.40773 0.69423 0.0
H886 H 0.10751 0.44126 0.72151 0.0
C887 C 0.12961 0.57944 0.79982 0.0
C888 C 0.1352 0.52037 0.7652 0.0
H889 H 0.13768 0.50455 0.70454 0.0
C890 C 0.13361 0.49725 0.77541 0.0
C891 C 0.1358 0.52313 0.73933 0.0
C892 C 0.13784 0.54756 0.72748 0.0
C893 C 0.13408 0.47671 0.76044 0.0
C894 C 0.13605 0.47946 0.73465 0.0
C895 C 0.13612 0.50259 0.72436 0.0
C896 C 0.14186 0.45892 0.71844 0.0
C897 C 0.13419 0.45222 0.77232 0.0
C898 C 0.16465 0.45783 0.70779 0.0
C899 C 0.17085 0.43885 0.69237 0.0
C900 C 0.15432 0.4205 0.6871 0.0
C901 C 0.13145 0.4215 0.69797 0.0
C902 C 0.12526 0.44062 0.71353 0.0
H903 H 0.13459 0.45326 0.79276 0.0
H904 H 0.11789 0.44223 0.76673 0.0
H905 H 0.14995 0.44178 0.76597 0.0
H906 H 0.17774 0.47173 0.71148 0.0
H907 H 0.18862 0.43875 0.68442 0.0
H908 H 0.66492 0.81587 0.06335 0.0
H909 H 0.69188 0.81174 0.02806 0.0
H910 H 0.73208 0.87324 0.05302 0.0
H911 H 0.70452 0.87834 0.08712 0.0
H912 H 0.72355 0.87717 0.00659 0.0
H913 H 0.75813 0.78534 0.02337 0.0
H914 H 0.72617 0.78639 0.02069 0.0
H915 H 0.74071 0.80143 0.04593 0.0
C916 C 0.67962 0.8284 0.06138 0.0
C917 C 0.6827 0.84729 0.07828 0.0
C918 C 0.69515 0.82588 0.04131 0.0
C919 C 0.71434 0.84188 0.03812 0.0
C920 C 0.7175 0.86056 0.05514 0.0
H921 H 0.83787 0.82993 0.94262 0.0
H922 H 0.80878 0.82707 0.97636 0.0
C923 C 0.70176 0.86337 0.07483 0.0
C924 C 0.73039 0.84032 0.01638 0.0
H925 H 0.76851 0.80335 0.98508 0.0
C926 C 0.73343 0.86103 0.00196 0.0
C927 C 0.74347 0.81933 0.01046 0.0
C928 C 0.74217 0.79694 0.02606 0.0
C929 C 0.74934 0.8615 0.98204 0.0
C930 C 0.76181 0.84029 0.97557 0.0
C931 C 0.75871 0.8195 0.98987 0.0
C932 C 0.77883 0.83974 0.95459 0.0
C933 C 0.75323 0.88504 0.9688 0.0
C934 C 0.77151 0.84695 0.93098 0.0
C935 C 0.78818 0.84914 0.91197 0.0
C936 C 0.8123 0.84344 0.91606 0.0
C937 C 0.81935 0.83456 0.93913 0.0
C938 C 0.80276 0.8329 0.95835 0.0
H939 H 0.74813 0.9006 0.98048 0.0
H940 H 0.77221 0.88726 0.9632 0.0
H941 H 0.7419 0.88555 0.95202 0.0
H942 H 0.75298 0.85141 0.92738 0.0
H943 H 0.78217 0.85528 0.89411 0.0
H944 H 0.16278 0.67804 0.94118 0.0
H945 H 0.19202 0.68262 0.97451 0.0
H946 H 0.24773 0.65648 0.92637 0.0
H947 H 0.21836 0.65091 0.89359 0.0
H948 H 0.24945 0.63352 0.96704 0.0
H949 H 0.24292 0.7298 0.99047 0.0
H950 H 0.21425 0.71552 0.99235 0.0
H951 H 0.2294 0.71743 0.96309 0.0
C952 C 0.18136 0.6736 0.93773 0.0
C953 C 0.18833 0.66376 0.91506 0.0
C954 C 0.1981 0.67642 0.95668 0.0
C955 C 0.22219 0.67016 0.95292 0.0
C956 C 0.22925 0.66135 0.92979 0.0
H957 H 0.33418 0.692 0.06394 0.0
H958 H 0.30829 0.69623 0.02776 0.0
C959 C 0.21245 0.65802 0.9111 0.0
C960 C 0.23955 0.67038 0.97364 0.0
H961 H 0.26127 0.70433 0.02104 0.0
C962 C 0.25221 0.64915 0.97861 0.0
C963 C 0.2435 0.69082 0.98861 0.0
C964 C 0.23198 0.71474 0.98318 0.0
C965 C 0.26819 0.64756 -0.0016 0.0
C966 C 0.27088 0.66744 0.01439 0.0
C967 C 0.25885 0.68895 0.00904 0.0
C968 C 0.28574 0.66593 0.03696 0.0
C969 C 0.2822 0.6246 0.00175 0.0
C970 C 0.28128 0.64794 0.05444 0.0
C971 C 0.29625 0.64521 0.07479 0.0
C972 C 0.31562 0.66085 0.07851 0.0
C973 C 0.31942 0.67961 0.06159 0.0
C974 C 0.30463 0.68208 0.04093 0.0
H975 H 0.28422 0.61481 0.98404 0.0
H976 H 0.30029 0.62815 0.00936 0.0
H977 H 0.27246 0.61264 0.01466 0.0
H978 H 0.26638 0.6357 0.05215 0.0
H979 H 0.29267 0.63064 0.08737 0.0
H980 H 0.69544 0.12806 0.42179 0.0
H981 H 0.72364 0.13562 0.45511 0.0
H982 H 0.69907 0.2088 0.46021 0.0
H983 H 0.67081 0.20153 0.42632 0.0
H984 H 0.7607 0.17613 0.456 0.0
H985 H 0.69336 0.17574 0.53187 0.0
H986 H 0.68764 0.16088 0.50289 0.0
H987 H 0.68763 0.19301 0.50439 0.0
C988 C 0.69612 0.14586 0.42973 0.0
C989 C 0.68103 0.16426 0.42121 0.0
C990 C 0.71222 0.15011 0.44883 0.0
C991 C 0.71338 0.17273 0.46 0.0
C992 C 0.69832 0.1912 0.45176 0.0
H993 H 0.82684 0.19869 0.57015 0.0
H994 H 0.79774 0.20685 0.53733 0.0
C995 C 0.68222 0.187 0.43246 0.0
C996 C 0.73039 0.17651 0.48043 0.0
H997 H 0.73397 0.17618 0.54317 0.0
C998 C 0.75494 0.17666 0.47507 0.0
C999 C 0.72264 0.17702 0.50518 0.0
C1000 C 0.6964 0.1766 0.51166 0.0
C1001 C 0.77205 0.17633 0.49398 0.0
C1002 C 0.7643 0.17586 0.51875 0.0
C1003 C 0.73975 0.17667 0.5241 0.0
C1004 C 0.78128 0.17175 0.53916 0.0
C1005 C 0.79825 0.17513 0.4874 0.0
C1006 C 0.78141 0.14943 0.55107 0.0
C1007 C 0.798 0.14467 0.56963 0.0
C1008 C 0.81464 0.16225 0.57681 0.0
C1009 C 0.81427 0.18476 0.56502 0.0
C1010 C 0.79769 0.18947 0.54631 0.0
H1011 H 0.80116 0.17324 0.46724 0.0
H1012 H 0.8073 0.19176 0.49369 0.0
H1013 H 0.80686 0.15974 0.49692 0.0
H1014 H 0.76893 0.13551 0.54566 0.0
H1015 H 0.79794 0.12708 0.57807 0.0
H1016 H 0.17459 0.31356 0.56288 0.0
H1017 H 0.20273 0.30906 0.52867 0.0
H1018 H 0.24496 0.36757 0.55733 0.0
H1019 H 0.21638 0.37302 0.59051 0.0
H1020 H 0.23748 0.3738 0.51085 0.0
H1021 H 0.268 0.28007 0.52411 0.0
H1022 H 0.23612 0.28236 0.5211 0.0
H1023 H 0.25086 0.29594 0.54709 0.0
C1024 C 0.19001 0.32531 0.56201 0.0
C1025 C 0.19328 0.34358 0.57958 0.0
C1026 C 0.20622 0.32256 0.54255 0.0
C1027 C 0.22624 0.33769 0.54063 0.0
C1028 C 0.22972 0.35559 0.55845 0.0
H1029 H 0.34796 0.32501 0.44145 0.0
H1030 H 0.32017 0.32175 0.47637 0.0
C1031 C 0.21335 0.35863 0.57757 0.0
C1032 C 0.24262 0.33632 0.51915 0.0
H1033 H 0.27871 0.29876 0.48605 0.0
C1034 C 0.24659 0.35739 0.50556 0.0
C1035 C 0.25471 0.31499 0.51235 0.0
C1036 C 0.25242 0.29212 0.52708 0.0
C1037 C 0.26224 0.3578 0.48543 0.0
C1038 C 0.27353 0.33626 0.47794 0.0
C1039 C 0.26976 0.31517 0.4916 0.0
C1040 C 0.28966 0.33558 0.45627 0.0
C1041 C 0.26697 0.38154 0.47286 0.0
C1042 C 0.2815 0.34347 0.43319 0.0
C1043 C 0.2974 0.34581 0.41353 0.0
C1044 C 0.32157 0.33966 0.41642 0.0
C1045 C 0.32939 0.33001 0.43891 0.0
C1046 C 0.31355 0.32813 0.45879 0.0
H1047 H 0.26292 0.39694 0.48519 0.0
H1048 H 0.28589 0.383 0.46682 0.0
H1049 H 0.25528 0.38313 0.45642 0.0
H1050 H 0.26295 0.34846 0.43056 0.0
H1051 H 0.29077 0.35253 0.39613 0.0
H1052 H 0.04792 0.66523 0.86408 0.0
H1053 H 0.01615 0.69367 0.85475 0.0
H1054 H 0.06194 0.72936 0.80228 0.0
H1055 H 0.09424 0.70118 0.81202 0.0
H1056 H 0.04296 0.76063 0.83324 0.0
H1057 H 0.97016 0.70287 0.79901 0.0
H1058 H 0.98103 0.69167 0.82785 0.0
H1059 H 1.00063 0.69237 0.80147 0.0
C1060 C 0.05117 0.67883 0.85021 0.0
C1061 C 0.07368 0.68098 0.83888 0.0
C1062 C 0.03284 0.69499 0.84472 0.0
C1063 C 0.03646 0.71345 0.8275 0.0
C1064 C 0.05867 0.71515 0.8155 0.0
H1065 H 0.91226 0.81002 0.81067 0.0
H1066 H 0.94552 0.78366 0.7988 0.0
C1067 C 0.07711 0.69903 0.82108 0.0
C1068 C 0.01801 0.73239 0.82438 0.0
H1069 H 0.95776 0.74047 0.81819 0.0
C1070 C 0.02441 0.75627 0.8294 0.0
C1071 C 0.99386 0.72693 0.81886 0.0
C1072 C 0.9861 0.70208 0.81122 0.0
C1073 C 0.00709 0.77444 0.8309 0.0
C1074 C 0.98266 0.76846 0.82789 0.0
C1075 C 0.97644 0.74499 0.82098 0.0
C1076 C 0.96328 0.7856 0.83418 0.0
C1077 C 0.01512 0.79976 0.83627 0.0
C1078 C 0.96213 0.79528 0.85801 0.0
C1079 C 0.94331 0.81032 0.86478 0.0
C1080 C 0.92499 0.81583 0.84796 0.0
C1081 C 0.92614 0.8062 0.82403 0.0
C1082 C 0.94511 0.79113 0.81722 0.0
H1083 H 0.03352 0.80298 0.82925 0.0
H1084 H 0.00288 0.81318 0.8279 0.0
H1085 H 0.01542 0.8026 0.8565 0.0
H1086 H 0.97555 0.79075 0.87164 0.0
H1087 H 0.94293 0.81726 0.88342 0.0
H1088 H 0.09128 0.30846 0.6832 0.0
H1089 H 0.05803 0.2815 0.69359 0.0
H1090 H 0.03005 0.28936 0.61997 0.0
H1091 H 0.06267 0.31653 0.60965 0.0
H1092 H 0.99498 0.29185 0.65527 0.0
H1093 H 0.05329 0.2121 0.67 0.0
H1094 H 0.05962 0.23793 0.68873 0.0
H1095 H 0.06421 0.23937 0.65602 0.0
C1096 C 0.07795 0.30453 0.6693 0.0
C1097 C 0.07972 0.31452 0.64554 0.0
C1098 C 0.05905 0.28903 0.67522 0.0
C1099 C 0.04177 0.28314 0.65743 0.0
C1100 C 0.0432 0.29362 0.63398 0.0
H1101 H 0.95276 0.1671 0.62281 0.0
H1102 H 0.98465 0.19561 0.63163 0.0
C1103 C 0.06193 0.30912 0.62809 0.0
C1104 C 0.02236 0.26567 0.66259 0.0
H1105 H 0.01182 0.20599 0.67213 0.0
C1106 C 0.99858 0.27312 0.65932 0.0
C1107 C 0.0272 0.24124 0.66775 0.0
C1108 C 0.05244 0.23202 0.67067 0.0
C1109 C 0.97958 0.25665 0.65984 0.0
C1110 C 0.98447 0.2321 0.66436 0.0
C1111 C 0.00813 0.22484 0.66882 0.0
C1112 C 0.96582 0.21336 0.66132 0.0
C1113 C 0.95467 0.26548 0.65401 0.0
C1114 C 0.94485 0.21336 0.67559 0.0
C1115 C 0.92636 0.19714 0.67041 0.0
C1116 C 0.9287 0.18051 0.65104 0.0
C1117 C 0.95027 0.17974 0.63775 0.0
C1118 C 0.96859 0.19601 0.64282 0.0
H1119 H 0.95475 0.28396 0.64632 0.0
H1120 H 0.94574 0.25339 0.64059 0.0
H1121 H 0.94384 0.26566 0.67114 0.0
H1122 H 0.94254 0.22626 0.69032 0.0
H1123 H 0.91005 0.19804 0.68113 0.0
H1124 H 0.59192 0.21024 0.32704 0.0
H1125 H 0.55645 0.23483 0.31924 0.0
H1126 H 0.51343 0.17086 0.31322 0.0
H1127 H 0.54868 0.1461 0.32135 0.0
H1128 H 0.52048 0.23668 0.28124 0.0
H1129 H 0.48445 0.20778 0.37203 0.0
H1130 H 0.51512 0.20268 0.36308 0.0
H1131 H 0.49174 0.18376 0.35127 0.0
C1132 C 0.575 0.20135 0.32367 0.0
C1133 C 0.57305 0.1762 0.32523 0.0
C1134 C 0.55476 0.21546 0.31917 0.0
C1135 C 0.53228 0.20466 0.31613 0.0
C1136 C 0.53057 0.17953 0.31596 0.0
H1137 H 0.38865 0.26295 0.32379 0.0
H1138 H 0.42297 0.23712 0.31528 0.0
C1139 C 0.55076 0.16542 0.32055 0.0
C1140 C 0.51041 0.21968 0.31533 0.0
H1141 H 0.46001 0.23298 0.34805 0.0
C1142 C 0.50717 0.23586 0.29577 0.0
C1143 C 0.49321 0.21864 0.33442 0.0
C1144 C 0.4963 0.20246 0.35652 0.0
C1145 C 0.48697 0.25088 0.29467 0.0
C1146 C 0.46984 0.24987 0.31384 0.0
C1147 C 0.47307 0.23358 0.33327 0.0
C1148 C 0.44879 0.26606 0.31488 0.0
C1149 C 0.48399 0.26748 0.27294 0.0
C1150 C 0.45183 0.29099 0.31698 0.0
C1151 C 0.4322 0.30586 0.3218 0.0
C1152 C 0.40922 0.29599 0.32489 0.0
C1153 C 0.4061 0.27114 0.32165 0.0
C1154 C 0.4257 0.25633 0.31676 0.0
H1155 H 0.49466 0.26138 0.25684 0.0
H1156 H 0.46491 0.26883 0.26738 0.0
H1157 H 0.4903 0.28569 0.2781 0.0
H1158 H 0.46954 0.29885 0.3161 0.0
H1159 H 0.43524 0.32492 0.32425 0.0
H1160 H 0.68246 0.56939 0.67343 0.0
H1161 H 0.68401 0.53367 0.69941 0.0
H1162 H 0.61826 0.55502 0.73477 0.0
H1163 H 0.61701 0.59129 0.70944 0.0
H1164 H 0.6509 0.53847 0.76768 0.0
H1165 H 0.64249 0.47499 0.68943 0.0
H1166 H 0.66755 0.49495 0.68667 0.0
H1167 H 0.63763 0.50684 0.68609 0.0
C1168 C 0.66846 0.56668 0.6869 0.0
C1169 C 0.64961 0.58322 0.68936 0.0
C1170 C 0.66925 0.54609 0.70157 0.0
C1171 C 0.65099 0.54145 0.71865 0.0
C1172 C 0.63246 0.5582 0.72158 0.0
H1173 H 0.6154 0.40539 0.78549 0.0
H1174 H 0.61752 0.44189 0.76064 0.0
C1175 C 0.63177 0.57891 0.70708 0.0
C1176 C 0.65107 0.51907 0.73338 0.0
H1177 H 0.65078 0.45797 0.72858 0.0
C1178 C 0.65086 0.52085 0.75916 0.0
C1179 C 0.65064 0.49613 0.72218 0.0
C1180 C 0.64935 0.49303 0.69458 0.0
C1181 C 0.65037 0.5003 0.7741 0.0
C1182 C 0.65073 0.47735 0.7629 0.0
C1183 C 0.6508 0.47558 0.73711 0.0
C1184 C 0.65008 0.45494 0.77756 0.0
C1185 C 0.6488 0.50339 0.80168 0.0
C1186 C 0.66796 0.44993 0.79498 0.0
C1187 C 0.66668 0.42917 0.80938 0.0
C1188 C 0.64771 0.41287 0.80632 0.0
C1189 C 0.63025 0.41758 0.78831 0.0
C1190 C 0.63143 0.43842 0.77408 0.0
H1191 H 0.64214 0.52152 0.80677 0.0
H1192 H 0.63679 0.48973 0.81 0.0
H1193 H 0.66688 0.5012 0.80981 0.0
H1194 H 0.68282 0.46215 0.79755 0.0
H1195 H 0.6804 0.42611 0.82308 0.0
H1196 H 0.3276 0.06759 0.82426 0.0
H1197 H 0.3279 0.03187 0.79825 0.0
H1198 H 0.39263 0.05651 0.76311 0.0
H1199 H 0.39199 0.09277 0.78845 0.0
H1200 H 0.36111 0.03933 0.73006 0.0
H1201 H 0.3712 0.97448 0.80681 0.0
H1202 H 0.3454 0.99336 0.81015 0.0
H1203 H 0.37486 0.00641 0.81095 0.0
C1204 C 0.34178 0.06556 0.81087 0.0
C1205 C 0.35975 0.08307 0.80841 0.0
C1206 C 0.34208 0.04497 0.79621 0.0
C1207 C 0.36056 0.04129 0.77913 0.0
C1208 C 0.37828 0.05893 0.7763 0.0
H1209 H 0.39359 0.90535 0.7081 0.0
H1210 H 0.39374 0.94141 0.73383 0.0
C1211 C 0.37788 0.07964 0.7908 0.0
C1212 C 0.36128 0.01921 0.76395 0.0
H1213 H 0.36208 0.95802 0.76739 0.0
C1214 C 0.36143 0.02155 0.73821 0.0
C1215 C 0.36213 0.99604 0.77463 0.0
C1216 C 0.36364 0.99237 0.80214 0.0
C1217 C 0.36196 0.00133 0.72283 0.0
C1218 C 0.36166 0.97815 0.73351 0.0
C1219 C 0.36199 0.97581 0.75925 0.0
C1220 C 0.3612 0.95609 0.7183 0.0
C1221 C 0.36328 0.00505 0.69531 0.0
C1222 C 0.34262 0.95217 0.70141 0.0
C1223 C 0.3426 0.93172 0.68654 0.0
C1224 C 0.36096 0.91458 0.68861 0.0
C1225 C 0.37919 0.91821 0.70606 0.0
C1226 C 0.3793 0.93879 0.72078 0.0
H1227 H 0.37049 0.02307 0.69063 0.0
H1228 H 0.3747 0.99122 0.68644 0.0
H1229 H 0.34502 0.00373 0.6874 0.0
H1230 H 0.32816 0.96499 0.69962 0.0
H1231 H 0.32834 0.92957 0.67326 0.0
H1232 H 0.41156 0.20074 0.87779 0.0
H1233 H 0.44796 0.22515 0.87966 0.0
H1234 H 0.44957 0.22871 0.80032 0.0
H1235 H 0.41317 0.20462 0.79824 0.0
H1236 H 0.49182 0.21146 0.85898 0.0
H1237 H 0.46127 0.29843 0.82052 0.0
H1238 H 0.44074 0.27592 0.83178 0.0
H1239 H 0.4537 0.27312 0.80159 0.0
C1240 C 0.41938 0.20713 0.86075 0.0
C1241 C 0.40948 0.20069 0.83785 0.0
C1242 C 0.44022 0.22099 0.86187 0.0
C1243 C 0.45135 0.22887 0.84014 0.0
C1244 C 0.44105 0.22317 0.81732 0.0
H1245 H 0.5824 0.29738 0.7962 0.0
H1246 H 0.54482 0.27515 0.79902 0.0
C1247 C 0.42028 0.20929 0.81617 0.0
C1248 C 0.47469 0.24142 0.84114 0.0
H1249 H 0.5035 0.29233 0.82262 0.0
C1250 C 0.49437 0.22926 0.8513 0.0
C1251 C 0.47792 0.26458 0.83101 0.0
C1252 C 0.45725 0.27889 0.82081 0.0
C1253 C 0.51739 0.23934 0.85086 0.0
C1254 C 0.52069 0.2623 0.84029 0.0
C1255 C 0.50093 0.27464 0.83055 0.0
C1256 C 0.54451 0.27386 0.83885 0.0
C1257 C 0.53811 0.22501 0.86094 0.0
C1258 C 0.55697 0.28018 0.86033 0.0
C1259 C 0.57854 0.29283 0.8588 0.0
C1260 C 0.5879 0.29954 0.83573 0.0
C1261 C 0.5757 0.29252 0.81425 0.0
C1262 C 0.55418 0.27988 0.81581 0.0
H1263 H 0.53357 0.20569 0.86296 0.0
H1264 H 0.55403 0.22666 0.84882 0.0
H1265 H 0.54298 0.23205 0.8794 0.0
H1266 H 0.54963 0.27603 0.8783 0.0
H1267 H 0.58742 0.29806 0.8757 0.0
H1268 H 0.38549 0.5968 0.19685 0.0
H1269 H 0.39617 0.56307 0.22389 0.0
H1270 H 0.32981 0.52789 0.20553 0.0
H1271 H 0.31905 0.56105 0.17866 0.0
H1272 H 0.37096 0.54499 0.26489 0.0
H1273 H 0.37987 0.4755 0.19285 0.0
H1274 H 0.38028 0.50724 0.18598 0.0
H1275 H 0.35228 0.49174 0.19002 0.0
C1276 C 0.3732 0.58186 0.19856 0.0
C1277 C 0.35145 0.58163 0.18545 0.0
C1278 C 0.37937 0.5626 0.21395 0.0
C1279 C 0.36403 0.54276 0.21622 0.0
C1280 C 0.3422 0.54273 0.20352 0.0
H1281 H 0.32349 0.44418 0.32282 0.0
H1282 H 0.33267 0.47785 0.29599 0.0
C1283 C 0.336 0.56187 0.18829 0.0
C1284 C 0.36983 0.5224 0.23272 0.0
H1285 H 0.3707 0.46114 0.23395 0.0
C1286 C 0.37147 0.52668 0.25812 0.0
C1287 C 0.37099 0.49855 0.22384 0.0
C1288 C 0.37103 0.49298 0.19664 0.0
C1289 C 0.37221 0.50759 0.27499 0.0
C1290 C 0.37089 0.48371 0.26617 0.0
C1291 C 0.37133 0.47946 0.24071 0.0
C1292 C 0.36621 0.46324 0.28291 0.0
C1293 C 0.37356 0.51317 0.30214 0.0
C1294 C 0.38166 0.44339 0.28387 0.0
C1295 C 0.37637 0.42383 0.2992 0.0
C1296 C 0.3554 0.42374 0.31357 0.0
C1297 C 0.33986 0.44358 0.31217 0.0
C1298 C 0.34519 0.46303 0.29698 0.0
H1299 H 0.38252 0.53069 0.30544 0.0
H1300 H 0.35516 0.51438 0.30972 0.0
H1301 H 0.38337 0.49896 0.31233 0.0
H1302 H 0.39783 0.44309 0.27287 0.0
H1303 H 0.3887 0.40884 0.29979 0.0
H1304 H 0.68317 0.06262 0.32337 0.0
H1305 H 0.67424 0.0289 0.29643 0.0
H1306 H 0.60551 0.05977 0.27917 0.0
H1307 H 0.61438 0.09403 0.30608 0.0
H1308 H 0.63548 0.99604 0.29936 0.0
H1309 H 0.63652 0.04736 0.21117 0.0
H1310 H 0.64876 0.0595 0.2393 0.0
H1311 H 0.61695 0.05786 0.23517 0.0
C1312 C 0.66614 0.0624 0.31384 0.0
C1313 C 0.64953 0.08115 0.31686 0.0
C1314 C 0.66104 0.04301 0.29851 0.0
C1315 C 0.63926 0.04187 0.28577 0.0
C1316 C 0.62253 0.06046 0.28866 0.0
H1317 H 0.6144 0.90897 0.19876 0.0
H1318 H 0.60542 0.94208 0.22726 0.0
C1319 C 0.62764 0.08 0.30405 0.0
C1320 C 0.63469 0.02122 0.26927 0.0
H1321 H 0.63347 0.00547 0.20854 0.0
C1322 C 0.63454 0.99805 0.27951 0.0
C1323 C 0.63354 0.024 0.24341 0.0
C1324 C 0.63407 0.04846 0.23145 0.0
C1325 C 0.63455 0.97753 0.26448 0.0
C1326 C 0.63454 0.98035 0.23863 0.0
C1327 C 0.63337 0.00347 0.22842 0.0
C1328 C 0.63941 0.95994 0.22195 0.0
C1329 C 0.63613 0.95304 0.27624 0.0
C1330 C 0.66144 0.95908 0.20971 0.0
C1331 C 0.66662 0.94035 0.1936 0.0
C1332 C 0.64982 0.92202 0.18922 0.0
C1333 C 0.62776 0.92274 0.20176 0.0
C1334 C 0.62259 0.94161 0.21802 0.0
H1335 H 0.63784 0.95406 0.29661 0.0
H1336 H 0.61981 0.94257 0.27174 0.0
H1337 H 0.65175 0.94309 0.26877 0.0
H1338 H 0.67468 0.97301 0.21262 0.0
H1339 H 0.68381 0.94045 0.18439 0.0
H1340 H 0.60741 0.76367 0.15331 0.0
H1341 H 0.57152 0.73998 0.16151 0.0
H1342 H 0.5342 0.80396 0.18435 0.0
H1343 H 0.56997 0.82797 0.1758 0.0
H1344 H 0.54241 0.73328 0.20361 0.0
H1345 H 0.49336 0.77832 0.12726 0.0
H1346 H 0.52527 0.78123 0.13121 0.0
H1347 H 0.50518 0.79787 0.15059 0.0
C1348 C 0.59166 0.77273 0.1603 0.0
C1349 C 0.59147 0.79778 0.16357 0.0
C1350 C 0.57117 0.75913 0.16504 0.0
C1351 C 0.55009 0.77027 0.17311 0.0
C1352 C 0.55017 0.79508 0.17767 0.0
H1353 H 0.40618 0.70855 0.17541 0.0
H1354 H 0.4401 0.73508 0.1839 0.0
C1355 C 0.57067 0.80875 0.17288 0.0
C1356 C 0.52778 0.75602 0.17528 0.0
H1357 H 0.47285 0.74825 0.14896 0.0
C1358 C 0.5271 0.73665 0.19182 0.0
C1359 C 0.50784 0.76046 0.15986 0.0
C1360 C 0.50788 0.78046 0.14107 0.0
C1361 C 0.50711 0.7214 0.19315 0.0
C1362 C 0.48748 0.72544 0.17722 0.0
C1363 C 0.48788 0.74524 0.16122 0.0
C1364 C 0.46708 0.70849 0.1754 0.0
C1365 C 0.50721 0.7011 0.21154 0.0
C1366 C 0.47098 0.68465 0.16807 0.0
C1367 C 0.45165 0.66944 0.16322 0.0
C1368 C 0.42802 0.67785 0.16538 0.0
C1369 C 0.42415 0.7015 0.17356 0.0
C1370 C 0.44351 0.7167 0.17841 0.0
H1371 H 0.51942 0.70493 0.22721 0.0
H1372 H 0.48898 0.69766 0.21887 0.0
H1373 H 0.51363 0.68451 0.20235 0.0
H1374 H 0.48897 0.67806 0.16508 0.0
H1375 H 0.45529 0.65136 0.15691 0.0
loop_
_geom_bond_atom_site_label_1
_geom_bond_atom_site_label_2
_geom_bond_distance
_geom_bond_site_symmetry_2
_ccdc_geom_bond_type
Mg0 O1 2.028 . S
Mg0 O7 1.986 . S
Mg0 O9 2.114 . S
Mg0 O10 2.251 . S
Mg0 O13 2.010 . S
O1 Mg0 2.028 . S
O1 C4 1.250 . S
O2 Mg3 2.028 . S
O2 C4 1.248 . S
Mg3 O2 2.028 . S
Mg3 O8 2.032 . S
Mg3 O10 2.079 . S
C4 O1 1.250 . S
C4 O2 1.248 . S
C5 O6 1.264 . S
C5 O13 1.249 . S
O6 C5 1.264 . S
O7 Mg0 1.986 . S
O7 C11 1.246 . S
O8 Mg3 2.032 . S
O8 C11 1.259 . S
O9 Mg0 2.114 . S
O9 C12 1.252 . S
O10 Mg0 2.251 . S
O10 Mg3 2.079 . S
O10 C12 1.273 . S
C11 O7 1.246 . S
C11 O8 1.259 . S
C12 O9 1.252 . S
C12 O10 1.273 . S
O13 Mg0 2.010 . S
O13 C5 1.249 . S
Mg14 O15 2.028 . S
Mg14 O21 1.986 . S
Mg14 O23 2.114 . S
Mg14 O24 2.251 . S
Mg14 O27 2.010 . S
O15 Mg14 2.028 . S
O15 C18 1.250 . S
O16 Mg17 2.028 . S
O16 C18 1.248 . S
Mg17 O16 2.028 . S
Mg17 O22 2.032 . S
Mg17 O24 2.079 . S
C18 O15 1.250 . S
C18 O16 1.248 . S
C19 O20 1.264 . S
C19 O27 1.249 . S
O20 C19 1.264 . S
O21 Mg14 1.986 . S
O21 C25 1.246 . S
O22 Mg17 2.032 . S
O22 C25 1.259 . S
O23 Mg14 2.114 . S
O23 C26 1.252 . S
O24 Mg14 2.251 . S
O24 Mg17 2.079 . S
O24 C26 1.273 . S
C25 O21 1.246 . S
C25 O22 1.259 . S
C26 O23 1.252 . S
C26 O24 1.273 . S
O27 Mg14 2.010 . S
O27 C19 1.249 . S
Mg28 O29 2.028 . S
Mg28 O35 1.986 . S
Mg28 O37 2.114 . S
Mg28 O38 2.251 . S
Mg28 O41 2.010 . S
O29 Mg28 2.028 . S
O29 C32 1.250 . S
O30 Mg31 2.028 . S
O30 C32 1.248 . S
Mg31 O30 2.028 . S
Mg31 O36 2.032 . S
Mg31 O38 2.079 . S
C32 O29 1.250 . S
C32 O30 1.248 . S
C33 O34 1.264 . S
C33 O41 1.249 . S
O34 C33 1.264 . S
O35 Mg28 1.986 . S
O35 C39 1.246 . S
O36 Mg31 2.032 . S
O36 C39 1.259 . S
O37 Mg28 2.114 . S
O37 C40 1.252 . S
O38 Mg28 2.251 . S
O38 Mg31 2.079 . S
O38 C40 1.273 . S
C39 O35 1.246 . S
C39 O36 1.259 . S
C40 O37 1.252 . S
C40 O38 1.273 . S
O41 Mg28 2.010 . S
O41 C33 1.249 . S
Mg42 O43 2.028 . S
Mg42 O49 1.986 . S
Mg42 O51 2.114 . S
Mg42 O52 2.251 . S
Mg42 O55 2.010 . S
O43 Mg42 2.028 . S
O43 C46 1.250 . S
O44 Mg45 2.028 . S
O44 C46 1.248 . S
Mg45 O44 2.028 . S
Mg45 O50 2.032 . S
Mg45 O52 2.079 . S
C46 O43 1.250 . S
C46 O44 1.248 . S
C47 O48 1.264 . S
C47 O55 1.249 . S
O48 C47 1.264 . S
O49 Mg42 1.986 . S
O49 C53 1.246 . S
O50 Mg45 2.032 . S
O50 C53 1.259 . S
O51 Mg42 2.114 . S
O51 C54 1.252 . S
O52 Mg42 2.251 . S
O52 Mg45 2.079 . S
O52 C54 1.273 . S
C53 O49 1.246 . S
C53 O50 1.259 . S
C54 O51 1.252 . S
C54 O52 1.273 . S
O55 Mg42 2.010 . S
O55 C47 1.249 . S
Mg56 O57 2.028 . S
Mg56 O63 1.986 . S
Mg56 O65 2.114 . S
Mg56 O66 2.251 . S
Mg56 O69 2.010 . S
O57 Mg56 2.028 . S
O57 C60 1.250 . S
O58 Mg59 2.028 . S
O58 C60 1.248 . S
Mg59 O58 2.028 . S
Mg59 O64 2.032 . S
Mg59 O66 2.079 . S
C60 O57 1.250 . S
C60 O58 1.248 . S
C61 O62 1.264 . S
C61 O69 1.249 . S
O62 C61 1.264 . S
O63 Mg56 1.986 . S
O63 C67 1.246 . S
O64 Mg59 2.032 . S
O64 C67 1.259 . S
O65 Mg56 2.114 . S
O65 C68 1.252 . S
O66 Mg56 2.251 . S
O66 Mg59 2.079 . S
O66 C68 1.273 . S
C67 O63 1.246 . S
C67 O64 1.259 . S
C68 O65 1.252 . S
C68 O66 1.273 . S
O69 Mg56 2.010 . S
O69 C61 1.249 . S
Mg70 O71 2.028 . S
Mg70 O77 1.986 . S
Mg70 O79 2.114 . S
Mg70 O80 2.251 . S
Mg70 O83 2.010 . S
O71 Mg70 2.028 . S
O71 C74 1.250 . S
O72 Mg73 2.028 . S
O72 C74 1.248 . S
Mg73 O72 2.028 . S
Mg73 O78 2.032 . S
Mg73 O80 2.079 . S
C74 O71 1.250 . S
C74 O72 1.248 . S
C75 O76 1.264 . S
C75 O83 1.249 . S
O76 C75 1.264 . S
O77 Mg70 1.986 . S
O77 C81 1.246 . S
O78 Mg73 2.032 . S
O78 C81 1.259 . S
O79 Mg70 2.114 . S
O79 C82 1.252 . S
O80 Mg70 2.251 . S
O80 Mg73 2.079 . S
O80 C82 1.273 . S
C81 O77 1.246 . S
C81 O78 1.259 . S
C82 O79 1.252 . S
C82 O80 1.273 . S
O83 Mg70 2.010 . S
O83 C75 1.249 . S
Mg84 O85 2.028 . S
Mg84 O91 1.986 . S
Mg84 O93 2.114 . S
Mg84 O94 2.251 . S
Mg84 O97 2.010 . S
O85 Mg84 2.028 . S
O85 C88 1.250 . S
O86 Mg87 2.028 . S
O86 C88 1.248 . S
Mg87 O86 2.028 . S
Mg87 O92 2.032 . S
Mg87 O94 2.079 . S
C88 O85 1.250 . S
C88 O86 1.248 . S
C89 O90 1.264 . S
C89 O97 1.249 . S
O90 C89 1.264 . S
O91 Mg84 1.986 . S
O91 C95 1.246 . S
O92 Mg87 2.032 . S
O92 C95 1.259 . S
O93 Mg84 2.114 . S
O93 C96 1.252 . S
O94 Mg84 2.251 . S
O94 Mg87 2.079 . S
O94 C96 1.273 . S
C95 O91 1.246 . S
C95 O92 1.259 . S
C96 O93 1.252 . S
C96 O94 1.273 . S
O97 Mg84 2.010 . S
O97 C89 1.249 . S
Mg98 O99 2.028 . S
Mg98 O105 1.986 . S
Mg98 O107 2.114 . S
Mg98 O108 2.251 . S
Mg98 O111 2.010 . S
O99 Mg98 2.028 . S
O99 C102 1.250 . S
O100 Mg101 2.028 . S
O100 C102 1.248 . S
Mg101 O100 2.028 . S
Mg101 O106 2.032 . S
Mg101 O108 2.079 . S
C102 O99 1.250 . S
C102 O100 1.248 . S
C103 O104 1.264 . S
C103 O111 1.249 . S
O104 C103 1.264 . S
O105 Mg98 1.986 . S
O105 C109 1.246 . S
O106 Mg101 2.032 . S
O106 C109 1.259 . S
O107 Mg98 2.114 . S
O107 C110 1.252 . S
O108 Mg98 2.251 . S
O108 Mg101 2.079 . S
O108 C110 1.273 . S
C109 O105 1.246 . S
C109 O106 1.259 . S
C110 O107 1.252 . S
C110 O108 1.273 . S
O111 Mg98 2.010 . S
O111 C103 1.249 . S
Mg112 O113 2.028 . S
Mg112 O119 1.986 . S
Mg112 O121 2.114 . S
Mg112 O122 2.251 . S
Mg112 O125 2.010 . S
O113 Mg112 2.028 . S
O113 C116 1.250 . S
O114 Mg115 2.028 . S
O114 C116 1.248 . S
Mg115 O114 2.028 . S
Mg115 O120 2.032 . S
Mg115 O122 2.079 . S
C116 O113 1.250 . S
C116 O114 1.248 . S
C117 O118 1.264 . S
C117 O125 1.249 . S
O118 C117 1.264 . S
O119 Mg112 1.986 . S
O119 C123 1.246 . S
O120 Mg115 2.032 . S
O120 C123 1.259 . S
O121 Mg112 2.114 . S
O121 C124 1.252 . S
O122 Mg112 2.251 . S
O122 Mg115 2.079 . S
O122 C124 1.273 . S
C123 O119 1.246 . S
C123 O120 1.259 . S
C124 O121 1.252 . S
C124 O122 1.273 . S
O125 Mg112 2.010 . S
O125 C117 1.249 . S
Mg126 O127 2.028 . S
Mg126 O133 1.986 . S
Mg126 O135 2.114 . S
Mg126 O136 2.251 . S
Mg126 O139 2.010 . S
O127 Mg126 2.028 . S
O127 C130 1.250 . S
O128 Mg129 2.028 . S
O128 C130 1.248 . S
Mg129 O128 2.028 . S
Mg129 O134 2.032 . S
Mg129 O136 2.079 . S
C130 O127 1.250 . S
C130 O128 1.248 . S
C131 O132 1.264 . S
C131 O139 1.249 . S
O132 C131 1.264 . S
O133 Mg126 1.986 . S
O133 C137 1.246 . S
O134 Mg129 2.032 . S
O134 C137 1.259 . S
O135 Mg126 2.114 . S
O135 C138 1.252 . S
O136 Mg126 2.251 . S
O136 Mg129 2.079 . S
O136 C138 1.273 . S
C137 O133 1.246 . S
C137 O134 1.259 . S
C138 O135 1.252 . S
C138 O136 1.273 . S
O139 Mg126 2.010 . S
O139 C131 1.249 . S
Mg140 O141 2.028 . S
Mg140 O147 1.986 . S
Mg140 O149 2.114 . S
Mg140 O150 2.251 . S
Mg140 O153 2.010 . S
O141 Mg140 2.028 . S
O141 C144 1.250 . S
O142 Mg143 2.028 . S
O142 C144 1.248 . S
Mg143 O142 2.028 . S
Mg143 O148 2.032 . S
Mg143 O150 2.079 . S
C144 O141 1.250 . S
C144 O142 1.248 . S
C145 O146 1.264 . S
C145 O153 1.249 . S
O146 C145 1.264 . S
O147 Mg140 1.986 . S
O147 C151 1.246 . S
O148 Mg143 2.032 . S
O148 C151 1.259 . S
O149 Mg140 2.114 . S
O149 C152 1.252 . S
O150 Mg140 2.251 . S
O150 Mg143 2.079 . S
O150 C152 1.273 . S
C151 O147 1.246 . S
C151 O148 1.259 . S
C152 O149 1.252 . S
C152 O150 1.273 . S
O153 Mg140 2.010 . S
O153 C145 1.249 . S
Mg154 O155 2.028 . S
Mg154 O161 1.986 . S
Mg154 O163 2.114 . S
Mg154 O164 2.251 . S
Mg154 O167 2.010 . S
O155 Mg154 2.028 . S
O155 C158 1.250 . S
O156 Mg157 2.028 . S
O156 C158 1.248 . S
Mg157 O156 2.028 . S
Mg157 O162 2.032 . S
Mg157 O164 2.079 . S
C158 O155 1.250 . S
C158 O156 1.248 . S
C159 O160 1.264 . S
C159 O167 1.249 . S
O160 C159 1.264 . S
O161 Mg154 1.986 . S
O161 C165 1.246 . S
O162 Mg157 2.032 . S
O162 C165 1.259 . S
O163 Mg154 2.114 . S
O163 C166 1.252 . S
O164 Mg154 2.251 . S
O164 Mg157 2.079 . S
O164 C166 1.273 . S
C165 O161 1.246 . S
C165 O162 1.259 . S
C166 O163 1.252 . S
C166 O164 1.273 . S
O167 Mg154 2.010 . S
O167 C159 1.249 . S
Mg168 O169 2.028 . S
Mg168 O175 1.986 . S
Mg168 O177 2.114 . S
Mg168 O178 2.251 . S
Mg168 O181 2.010 . S
O169 Mg168 2.028 . S
O169 C172 1.250 . S
O170 Mg171 2.028 . S
O170 C172 1.248 . S
Mg171 O170 2.028 . S
Mg171 O176 2.032 . S
Mg171 O178 2.079 . S
C172 O169 1.250 . S
C172 O170 1.248 . S
C173 O174 1.264 . S
C173 O181 1.249 . S
O174 C173 1.264 . S
O175 Mg168 1.986 . S
O175 C179 1.246 . S
O176 Mg171 2.032 . S
O176 C179 1.259 . S
O177 Mg168 2.114 . S
O177 C180 1.252 . S
O178 Mg168 2.251 . S
O178 Mg171 2.079 . S
O178 C180 1.273 . S
C179 O175 1.246 . S
C179 O176 1.259 . S
C180 O177 1.252 . S
C180 O178 1.273 . S
O181 Mg168 2.010 . S
O181 C173 1.249 . S
Mg182 O183 2.028 . S
Mg182 O189 1.986 . S
Mg182 O191 2.114 . S
Mg182 O192 2.251 . S
Mg182 O195 2.010 . S
O183 Mg182 2.028 . S
O183 C186 1.250 . S
O184 Mg185 2.028 . S
O184 C186 1.248 . S
Mg185 O184 2.028 . S
Mg185 O190 2.032 . S
Mg185 O192 2.079 . S
C186 O183 1.250 . S
C186 O184 1.248 . S
C187 O188 1.264 . S
C187 O195 1.249 . S
O188 C187 1.264 . S
O189 Mg182 1.986 . S
O189 C193 1.246 . S
O190 Mg185 2.032 . S
O190 C193 1.259 . S
O191 Mg182 2.114 . S
O191 C194 1.252 . S
O192 Mg182 2.251 . S
O192 Mg185 2.079 . S
O192 C194 1.273 . S
C193 O189 1.246 . S
C193 O190 1.259 . S
C194 O191 1.252 . S
C194 O192 1.273 . S
O195 Mg182 2.010 . S
O195 C187 1.249 . S
Mg196 O197 2.028 . S
Mg196 O203 1.986 . S
Mg196 O205 2.114 . S
Mg196 O206 2.251 . S
Mg196 O209 2.010 . S
O197 Mg196 2.028 . S
O197 C200 1.250 . S
O198 Mg199 2.028 . S
O198 C200 1.248 . S
Mg199 O198 2.028 . S
Mg199 O204 2.032 . S
Mg199 O206 2.079 . S
C200 O197 1.250 . S
C200 O198 1.248 . S
C201 O202 1.264 . S
C201 O209 1.249 . S
O202 C201 1.264 . S
O203 Mg196 1.986 . S
O203 C207 1.246 . S
O204 Mg199 2.032 . S
O204 C207 1.259 . S
O205 Mg196 2.114 . S
O205 C208 1.252 . S
O206 Mg196 2.251 . S
O206 Mg199 2.079 . S
O206 C208 1.273 . S
C207 O203 1.246 . S
C207 O204 1.259 . S
C208 O205 1.252 . S
C208 O206 1.273 . S
O209 Mg196 2.010 . S
O209 C201 1.249 . S
Mg210 O211 2.028 . S
Mg210 O217 1.986 . S
Mg210 O219 2.114 . S
Mg210 O220 2.251 . S
Mg210 O223 2.010 . S
O211 Mg210 2.028 . S
O211 C214 1.250 . S
O212 Mg213 2.028 . S
O212 C214 1.248 . S
Mg213 O212 2.028 . S
Mg213 O218 2.032 . S
Mg213 O220 2.079 . S
C214 O211 1.250 . S
C214 O212 1.248 . S
C215 O216 1.264 . S
C215 O223 1.249 . S
O216 C215 1.264 . S
O217 Mg210 1.986 . S
O217 C221 1.246 . S
O218 Mg213 2.032 . S
O218 C221 1.259 . S
O219 Mg210 2.114 . S
O219 C222 1.252 . S
O220 Mg210 2.251 . S
O220 Mg213 2.079 . S
O220 C222 1.273 . S
C221 O217 1.246 . S
C221 O218 1.259 . S
C222 O219 1.252 . S
C222 O220 1.273 . S
O223 Mg210 2.010 . S
O223 C215 1.249 . S
H224 C232 0.929 . S
H225 C234 0.930 . S
H226 C236 0.930 . S
H227 C239 0.929 . S
H228 C242 0.930 . S
H229 C244 0.960 . S
H230 C244 0.960 . S
H231 C244 0.960 . S
C232 H224 0.929 . S
C232 C233 1.377 . S
C232 C234 1.384 . S
C233 C232 1.377 . S
C233 C239 1.390 . S
C234 H225 0.930 . S
C234 C232 1.384 . S
C234 C235 1.372 . S
C235 C234 1.372 . S
C235 C236 1.400 . S
C235 C240 1.490 . S
C236 H226 0.930 . S
C236 C235 1.400 . S
C236 C239 1.386 . S
H237 C253 0.930 . S
H238 C254 0.931 . S
C239 H227 0.929 . S
C239 C233 1.390 . S
C239 C236 1.386 . S
C240 C235 1.490 . S
C240 C242 1.395 . S
C240 C243 1.403 . S
H241 C247 0.930 . S
C242 H228 0.930 . S
C242 C240 1.395 . S
C242 C245 1.403 . S
C243 C240 1.403 . S
C243 C244 1.524 . S
C243 C247 1.400 . S
C244 H229 0.960 . S
C244 H230 0.960 . S
C244 H231 0.960 . S
C244 C243 1.524 . S
C245 C242 1.403 . S
C245 C246 1.392 . S
C245 C249 1.495 . S
C246 C245 1.392 . S
C246 C247 1.385 . S
C246 C248 1.478 . S
C247 H241 0.930 . S
C247 C243 1.400 . S
C247 C246 1.385 . S
C248 C246 1.478 . S
C248 C250 1.381 . S
C248 C254 1.383 . S
C249 C245 1.495 . S
C249 H255 0.959 . S
C249 H256 0.961 . S
C249 H257 0.960 . S
C250 C248 1.381 . S
C250 C251 1.394 . S
C250 H258 0.930 . S
C251 C250 1.394 . S
C251 C252 1.383 . S
C251 H259 0.929 . S
C252 C251 1.383 . S
C252 C253 1.377 . S
C253 H237 0.930 . S
C253 C252 1.377 . S
C253 C254 1.379 . S
C254 H238 0.931 . S
C254 C248 1.383 . S
C254 C253 1.379 . S
H255 C249 0.959 . S
H256 C249 0.961 . S
H257 C249 0.960 . S
H258 C250 0.930 . S
H259 C251 0.929 . S
H260 C268 0.929 . S
H261 C270 0.930 . S
H262 C272 0.930 . S
H263 C275 0.929 . S
H264 C278 0.930 . S
H265 C280 0.960 . S
H266 C280 0.960 . S
H267 C280 0.960 . S
C268 H260 0.929 . S
C268 C269 1.377 . S
C268 C270 1.384 . S
C269 C268 1.377 . S
C269 C275 1.390 . S
C270 H261 0.930 . S
C270 C268 1.384 . S
C270 C271 1.372 . S
C271 C270 1.372 . S
C271 C272 1.400 . S
C271 C276 1.490 . S
C272 H262 0.930 . S
C272 C271 1.400 . S
C272 C275 1.386 . S
H273 C289 0.930 . S
H274 C290 0.931 . S
C275 H263 0.929 . S
C275 C269 1.390 . S
C275 C272 1.386 . S
C276 C271 1.490 . S
C276 C278 1.395 . S
C276 C279 1.403 . S
H277 C283 0.930 . S
C278 H264 0.930 . S
C278 C276 1.395 . S
C278 C281 1.403 . S
C279 C276 1.403 . S
C279 C280 1.524 . S
C279 C283 1.400 . S
C280 H265 0.960 . S
C280 H266 0.960 . S
C280 H267 0.960 . S
C280 C279 1.524 . S
C281 C278 1.403 . S
C281 C282 1.392 . S
C281 C285 1.495 . S
C282 C281 1.392 . S
C282 C283 1.385 . S
C282 C284 1.478 . S
C283 H277 0.930 . S
C283 C279 1.400 . S
C283 C282 1.385 . S
C284 C282 1.478 . S
C284 C286 1.381 . S
C284 C290 1.383 . S
C285 C281 1.495 . S
C285 H291 0.959 . S
C285 H292 0.961 . S
C285 H293 0.960 . S
C286 C284 1.381 . S
C286 C287 1.394 . S
C286 H294 0.930 . S
C287 C286 1.394 . S
C287 C288 1.383 . S
C287 H295 0.929 . S
C288 C287 1.383 . S
C288 C289 1.377 . S
C289 H273 0.930 . S
C289 C288 1.377 . S
C289 C290 1.379 . S
C290 H274 0.931 . S
C290 C284 1.383 . S
C290 C289 1.379 . S
H291 C285 0.959 . S
H292 C285 0.961 . S
H293 C285 0.960 . S
H294 C286 0.930 . S
H295 C287 0.929 . S
H296 C304 0.929 . S
H297 C306 0.930 . S
H298 C308 0.930 . S
H299 C311 0.929 . S
H300 C314 0.930 . S
H301 C316 0.960 . S
H302 C316 0.960 . S
H303 C316 0.960 . S
C304 H296 0.929 . S
C304 C305 1.377 . S
C304 C306 1.384 . S
C305 C304 1.377 . S
C305 C311 1.390 . S
C306 H297 0.930 . S
C306 C304 1.384 . S
C306 C307 1.372 . S
C307 C306 1.372 . S
C307 C308 1.400 . S
C307 C312 1.490 . S
C308 H298 0.930 . S
C308 C307 1.400 . S
C308 C311 1.386 . S
H309 C325 0.930 . S
H310 C326 0.931 . S
C311 H299 0.929 . S
C311 C305 1.390 . S
C311 C308 1.386 . S
C312 C307 1.490 . S
C312 C314 1.395 . S
C312 C315 1.403 . S
H313 C319 0.930 . S
C314 H300 0.930 . S
C314 C312 1.395 . S
C314 C317 1.403 . S
C315 C312 1.403 . S
C315 C316 1.524 . S
C315 C319 1.400 . S
C316 H301 0.960 . S
C316 H302 0.960 . S
C316 H303 0.960 . S
C316 C315 1.524 . S
C317 C314 1.403 . S
C317 C318 1.392 . S
C317 C321 1.495 . S
C318 C317 1.392 . S
C318 C319 1.385 . S
C318 C320 1.478 . S
C319 H313 0.930 . S
C319 C315 1.400 . S
C319 C318 1.385 . S
C320 C318 1.478 . S
C320 C322 1.381 . S
C320 C326 1.383 . S
C321 C317 1.495 . S
C321 H327 0.959 . S
C321 H328 0.961 . S
C321 H329 0.960 . S
C322 C320 1.381 . S
C322 C323 1.394 . S
C322 H330 0.930 . S
C323 C322 1.394 . S
C323 C324 1.383 . S
C323 H331 0.929 . S
C324 C323 1.383 . S
C324 C325 1.377 . S
C325 H309 0.930 . S
C325 C324 1.377 . S
C325 C326 1.379 . S
C326 H310 0.931 . S
C326 C320 1.383 . S
C326 C325 1.379 . S
H327 C321 0.959 . S
H328 C321 0.961 . S
H329 C321 0.960 . S
H330 C322 0.930 . S
H331 C323 0.929 . S
H332 C340 0.929 . S
H333 C342 0.930 . S
H334 C344 0.930 . S
H335 C347 0.929 . S
H336 C350 0.930 . S
H337 C352 0.960 . S
H338 C352 0.960 . S
H339 C352 0.960 . S
C340 H332 0.929 . S
C340 C341 1.377 . S
C340 C342 1.384 . S
C341 C340 1.377 . S
C341 C347 1.390 . S
C342 H333 0.930 . S
C342 C340 1.384 . S
C342 C343 1.372 . S
C343 C342 1.372 . S
C343 C344 1.400 . S
C343 C348 1.490 . S
C344 H334 0.930 . S
C344 C343 1.400 . S
C344 C347 1.386 . S
H345 C361 0.930 . S
H346 C362 0.931 . S
C347 H335 0.929 . S
C347 C341 1.390 . S
C347 C344 1.386 . S
C348 C343 1.490 . S
C348 C350 1.395 . S
C348 C351 1.403 . S
H349 C355 0.930 . S
C350 H336 0.930 . S
C350 C348 1.395 . S
C350 C353 1.403 . S
C351 C348 1.403 . S
C351 C352 1.524 . S
C351 C355 1.400 . S
C352 H337 0.960 . S
C352 H338 0.960 . S
C352 H339 0.960 . S
C352 C351 1.524 . S
C353 C350 1.403 . S
C353 C354 1.392 . S
C353 C357 1.495 . S
C354 C353 1.392 . S
C354 C355 1.385 . S
C354 C356 1.478 . S
C355 H349 0.930 . S
C355 C351 1.400 . S
C355 C354 1.385 . S
C356 C354 1.478 . S
C356 C358 1.381 . S
C356 C362 1.383 . S
C357 C353 1.495 . S
C357 H363 0.959 . S
C357 H364 0.961 . S
C357 H365 0.960 . S
C358 C356 1.381 . S
C358 C359 1.394 . S
C358 H366 0.930 . S
C359 C358 1.394 . S
C359 C360 1.383 . S
C359 H367 0.929 . S
C360 C359 1.383 . S
C360 C361 1.377 . S
C361 H345 0.930 . S
C361 C360 1.377 . S
C361 C362 1.379 . S
C362 H346 0.931 . S
C362 C356 1.383 . S
C362 C361 1.379 . S
H363 C357 0.959 . S
H364 C357 0.961 . S
H365 C357 0.960 . S
H366 C358 0.930 . S
H367 C359 0.929 . S
H368 C376 0.929 . S
H369 C378 0.930 . S
H370 C380 0.930 . S
H371 C383 0.929 . S
H372 C386 0.930 . S
H373 C388 0.960 . S
H374 C388 0.960 . S
H375 C388 0.960 . S
C376 H368 0.929 . S
C376 C377 1.377 . S
C376 C378 1.384 . S
C377 C376 1.377 . S
C377 C383 1.390 . S
C378 H369 0.930 . S
C378 C376 1.384 . S
C378 C379 1.372 . S
C379 C378 1.372 . S
C379 C380 1.400 . S
C379 C384 1.490 . S
C380 H370 0.930 . S
C380 C379 1.400 . S
C380 C383 1.386 . S
H381 C397 0.930 . S
H382 C398 0.931 . S
C383 H371 0.929 . S
C383 C377 1.390 . S
C383 C380 1.386 . S
C384 C379 1.490 . S
C384 C386 1.395 . S
C384 C387 1.403 . S
H385 C391 0.930 . S
C386 H372 0.930 . S
C386 C384 1.395 . S
C386 C389 1.403 . S
C387 C384 1.403 . S
C387 C388 1.524 . S
C387 C391 1.400 . S
C388 H373 0.960 . S
C388 H374 0.960 . S
C388 H375 0.960 . S
C388 C387 1.524 . S
C389 C386 1.403 . S
C389 C390 1.392 . S
C389 C393 1.495 . S
C390 C389 1.392 . S
C390 C391 1.385 . S
C390 C392 1.478 . S
C391 H385 0.930 . S
C391 C387 1.400 . S
C391 C390 1.385 . S
C392 C390 1.478 . S
C392 C394 1.381 . S
C392 C398 1.383 . S
C393 C389 1.495 . S
C393 H399 0.959 . S
C393 H400 0.961 . S
C393 H401 0.960 . S
C394 C392 1.381 . S
C394 C395 1.394 . S
C394 H402 0.930 . S
C395 C394 1.394 . S
C395 C396 1.383 . S
C395 H403 0.929 . S
C396 C395 1.383 . S
C396 C397 1.377 . S
C397 H381 0.930 . S
C397 C396 1.377 . S
C397 C398 1.379 . S
C398 H382 0.931 . S
C398 C392 1.383 . S
C398 C397 1.379 . S
H399 C393 0.959 . S
H400 C393 0.961 . S
H401 C393 0.960 . S
H402 C394 0.930 . S
H403 C395 0.929 . S
H404 C412 0.929 . S
H405 C414 0.930 . S
H406 C416 0.930 . S
H407 C419 0.929 . S
H408 C422 0.930 . S
H409 C424 0.960 . S
H410 C424 0.960 . S
H411 C424 0.960 . S
C412 H404 0.929 . S
C412 C413 1.377 . S
C412 C414 1.384 . S
C413 C412 1.377 . S
C413 C419 1.390 . S
C414 H405 0.930 . S
C414 C412 1.384 . S
C414 C415 1.372 . S
C415 C414 1.372 . S
C415 C416 1.400 . S
C415 C420 1.490 . S
C416 H406 0.930 . S
C416 C415 1.400 . S
C416 C419 1.386 . S
H417 C433 0.930 . S
H418 C434 0.931 . S
C419 H407 0.929 . S
C419 C413 1.390 . S
C419 C416 1.386 . S
C420 C415 1.490 . S
C420 C422 1.395 . S
C420 C423 1.403 . S
H421 C427 0.930 . S
C422 H408 0.930 . S
C422 C420 1.395 . S
C422 C425 1.403 . S
C423 C420 1.403 . S
C423 C424 1.524 . S
C423 C427 1.400 . S
C424 H409 0.960 . S
C424 H410 0.960 . S
C424 H411 0.960 . S
C424 C423 1.524 . S
C425 C422 1.403 . S
C425 C426 1.392 . S
C425 C429 1.495 . S
C426 C425 1.392 . S
C426 C427 1.385 . S
C426 C428 1.478 . S
C427 H421 0.930 . S
C427 C423 1.400 . S
C427 C426 1.385 . S
C428 C426 1.478 . S
C428 C430 1.381 . S
C428 C434 1.383 . S
C429 C425 1.495 . S
C429 H435 0.959 . S
C429 H436 0.961 . S
C429 H437 0.960 . S
C430 C428 1.381 . S
C430 C431 1.394 . S
C430 H438 0.930 . S
C431 C430 1.394 . S
C431 C432 1.383 . S
C431 H439 0.929 . S
C432 C431 1.383 . S
C432 C433 1.377 . S
C433 H417 0.930 . S
C433 C432 1.377 . S
C433 C434 1.379 . S
C434 H418 0.931 . S
C434 C428 1.383 . S
C434 C433 1.379 . S
H435 C429 0.959 . S
H436 C429 0.961 . S
H437 C429 0.960 . S
H438 C430 0.930 . S
H439 C431 0.929 . S
H440 C448 0.929 . S
H441 C450 0.930 . S
H442 C452 0.930 . S
H443 C455 0.929 . S
H444 C458 0.930 . S
H445 C460 0.960 . S
H446 C460 0.960 . S
H447 C460 0.960 . S
C448 H440 0.929 . S
C448 C449 1.377 . S
C448 C450 1.384 . S
C449 C448 1.377 . S
C449 C455 1.390 . S
C450 H441 0.930 . S
C450 C448 1.384 . S
C450 C451 1.372 . S
C451 C450 1.372 . S
C451 C452 1.400 . S
C451 C456 1.490 . S
C452 H442 0.930 . S
C452 C451 1.400 . S
C452 C455 1.386 . S
H453 C469 0.930 . S
H454 C470 0.931 . S
C455 H443 0.929 . S
C455 C449 1.390 . S
C455 C452 1.386 . S
C456 C451 1.490 . S
C456 C458 1.395 . S
C456 C459 1.403 . S
H457 C463 0.930 . S
C458 H444 0.930 . S
C458 C456 1.395 . S
C458 C461 1.403 . S
C459 C456 1.403 . S
C459 C460 1.524 . S
C459 C463 1.400 . S
C460 H445 0.960 . S
C460 H446 0.960 . S
C460 H447 0.960 . S
C460 C459 1.524 . S
C461 C458 1.403 . S
C461 C462 1.392 . S
C461 C465 1.495 . S
C462 C461 1.392 . S
C462 C463 1.385 . S
C462 C464 1.478 . S
C463 H457 0.930 . S
C463 C459 1.400 . S
C463 C462 1.385 . S
C464 C462 1.478 . S
C464 C466 1.381 . S
C464 C470 1.383 . S
C465 C461 1.495 . S
C465 H471 0.959 . S
C465 H472 0.961 . S
C465 H473 0.960 . S
C466 C464 1.381 . S
C466 C467 1.394 . S
C466 H474 0.930 . S
C467 C466 1.394 . S
C467 C468 1.383 . S
C467 H475 0.929 . S
C468 C467 1.383 . S
C468 C469 1.377 . S
C469 H453 0.930 . S
C469 C468 1.377 . S
C469 C470 1.379 . S
C470 H454 0.931 . S
C470 C464 1.383 . S
C470 C469 1.379 . S
H471 C465 0.959 . S
H472 C465 0.961 . S
H473 C465 0.960 . S
H474 C466 0.930 . S
H475 C467 0.929 . S
H476 C484 0.929 . S
H477 C486 0.930 . S
H478 C488 0.930 . S
H479 C491 0.929 . S
H480 C494 0.930 . S
H481 C496 0.960 . S
H482 C496 0.960 . S
H483 C496 0.960 . S
C484 H476 0.929 . S
C484 C485 1.377 . S
C484 C486 1.384 . S
C485 C484 1.377 . S
C485 C491 1.390 . S
C486 H477 0.930 . S
C486 C484 1.384 . S
C486 C487 1.372 . S
C487 C486 1.372 . S
C487 C488 1.400 . S
C487 C492 1.490 . S
C488 H478 0.930 . S
C488 C487 1.400 . S
C488 C491 1.386 . S
H489 C505 0.930 . S
H490 C506 0.931 . S
C491 H479 0.929 . S
C491 C485 1.390 . S
C491 C488 1.386 . S
C492 C487 1.490 . S
C492 C494 1.395 . S
C492 C495 1.403 . S
H493 C499 0.930 . S
C494 H480 0.930 . S
C494 C492 1.395 . S
C494 C497 1.403 . S
C495 C492 1.403 . S
C495 C496 1.524 . S
C495 C499 1.400 . S
C496 H481 0.960 . S
C496 H482 0.960 . S
C496 H483 0.960 . S
C496 C495 1.524 . S
C497 C494 1.403 . S
C497 C498 1.392 . S
C497 C501 1.495 . S
C498 C497 1.392 . S
C498 C499 1.385 . S
C498 C500 1.478 . S
C499 H493 0.930 . S
C499 C495 1.400 . S
C499 C498 1.385 . S
C500 C498 1.478 . S
C500 C502 1.381 . S
C500 C506 1.383 . S
C501 C497 1.495 . S
C501 H507 0.959 . S
C501 H508 0.961 . S
C501 H509 0.960 . S
C502 C500 1.381 . S
C502 C503 1.394 . S
C502 H510 0.930 . S
C503 C502 1.394 . S
C503 C504 1.383 . S
C503 H511 0.929 . S
C504 C503 1.383 . S
C504 C505 1.377 . S
C505 H489 0.930 . S
C505 C504 1.377 . S
C505 C506 1.379 . S
C506 H490 0.931 . S
C506 C500 1.383 . S
C506 C505 1.379 . S
H507 C501 0.959 . S
H508 C501 0.961 . S
H509 C501 0.960 . S
H510 C502 0.930 . S
H511 C503 0.929 . S
H512 C520 0.929 . S
H513 C522 0.930 . S
H514 C524 0.930 . S
H515 C527 0.929 . S
H516 C530 0.932 . S
H517 C532 0.960 . S
H518 C532 0.960 . S
H519 C532 0.960 . S
C520 H512 0.929 . S
C520 C521 1.377 . S
C520 C522 1.384 . S
C521 C520 1.377 . S
C521 C527 1.390 . S
C522 H513 0.930 . S
C522 C520 1.384 . S
C522 C523 1.372 . S
C523 C522 1.372 . S
C523 C524 1.400 . S
C523 C528 1.490 . S
C524 H514 0.930 . S
C524 C523 1.400 . S
C524 C527 1.386 . S
H525 C541 0.930 . S
H526 C542 0.931 . S
C527 H515 0.929 . S
C527 C521 1.390 . S
C527 C524 1.386 . S
C528 C523 1.490 . S
C528 C530 1.395 1_565 S
C528 C531 1.403 . S
H529 C535 0.930 . S
C530 H516 0.932 . S
C530 C528 1.395 1_545 S
C530 C533 1.403 . S
C531 C528 1.403 . S
C531 C532 1.524 . S
C531 C535 1.400 1_565 S
C532 H517 0.960 . S
C532 H518 0.960 . S
C532 H519 0.960 . S
C532 C531 1.524 . S
C533 C530 1.403 . S
C533 C534 1.392 . S
C533 C537 1.495 . S
C534 C533 1.392 . S
C534 C535 1.385 . S
C534 C536 1.478 . S
C535 H529 0.930 . S
C535 C531 1.400 1_545 S
C535 C534 1.385 . S
C536 C534 1.478 . S
C536 C538 1.381 . S
C536 C542 1.383 . S
C537 C533 1.495 . S
C537 H543 0.959 . S
C537 H544 0.961 . S
C537 H545 0.960 . S
C538 C536 1.381 . S
C538 C539 1.394 . S
C538 H546 0.930 . S
C539 C538 1.394 . S
C539 C540 1.383 . S
C539 H547 0.929 . S
C540 C539 1.383 . S
C540 C541 1.377 . S
C541 H525 0.930 . S
C541 C540 1.377 . S
C541 C542 1.379 . S
C542 H526 0.931 . S
C542 C536 1.383 . S
C542 C541 1.379 . S
H543 C537 0.959 . S
H544 C537 0.961 . S
H545 C537 0.960 . S
H546 C538 0.930 . S
H547 C539 0.929 . S
H548 C556 0.929 . S
H549 C558 0.930 . S
H550 C560 0.930 . S
H551 C563 0.929 . S
H552 C566 0.930 . S
H553 C568 0.960 . S
H554 C568 0.960 . S
H555 C568 0.960 . S
C556 H548 0.929 . S
C556 C557 1.377 . S
C556 C558 1.384 . S
C557 C556 1.377 . S
C557 C563 1.390 . S
C558 H549 0.930 . S
C558 C556 1.384 . S
C558 C559 1.372 . S
C559 C558 1.372 . S
C559 C560 1.400 . S
C559 C564 1.490 . S
C560 H550 0.930 . S
C560 C559 1.400 . S
C560 C563 1.386 . S
H561 C577 0.930 . S
H562 C578 0.931 . S
C563 H551 0.929 . S
C563 C557 1.390 . S
C563 C560 1.386 . S
C564 C559 1.490 . S
C564 C566 1.395 . S
C564 C567 1.403 . S
H565 C571 0.930 . S
C566 H552 0.930 . S
C566 C564 1.395 . S
C566 C569 1.403 . S
C567 C564 1.403 . S
C567 C568 1.524 . S
C567 C571 1.400 . S
C568 H553 0.960 . S
C568 H554 0.960 . S
C568 H555 0.960 . S
C568 C567 1.524 . S
C569 C566 1.403 . S
C569 C570 1.392 . S
C569 C573 1.495 . S
C570 C569 1.392 . S
C570 C571 1.385 . S
C570 C572 1.478 . S
C571 H565 0.930 . S
C571 C567 1.400 . S
C571 C570 1.385 . S
C572 C570 1.478 . S
C572 C574 1.381 . S
C572 C578 1.383 . S
C573 C569 1.495 . S
C573 H579 0.959 . S
C573 H580 0.961 . S
C573 H581 0.960 . S
C574 C572 1.381 . S
C574 C575 1.394 . S
C574 H582 0.930 . S
C575 C574 1.394 . S
C575 C576 1.383 . S
C575 H583 0.929 . S
C576 C575 1.383 . S
C576 C577 1.377 . S
C577 H561 0.930 . S
C577 C576 1.377 . S
C577 C578 1.379 . S
C578 H562 0.931 . S
C578 C572 1.383 . S
C578 C577 1.379 . S
H579 C573 0.959 . S
H580 C573 0.961 . S
H581 C573 0.960 . S
H582 C574 0.930 . S
H583 C575 0.929 . S
H584 C592 0.929 . S
H585 C594 0.930 . S
H586 C596 0.930 . S
H587 C599 0.929 . S
H588 C602 0.930 . S
H589 C604 0.960 . S
H590 C604 0.960 . S
H591 C604 0.960 . S
C592 H584 0.929 . S
C592 C593 1.377 . S
C592 C594 1.384 . S
C593 C592 1.377 . S
C593 C599 1.390 . S
C594 H585 0.930 . S
C594 C592 1.384 . S
C594 C595 1.372 . S
C595 C594 1.372 . S
C595 C596 1.400 . S
C595 C600 1.490 . S
C596 H586 0.930 . S
C596 C595 1.400 . S
C596 C599 1.386 . S
H597 C613 0.930 . S
H598 C614 0.931 . S
C599 H587 0.929 . S
C599 C593 1.390 . S
C599 C596 1.386 . S
C600 C595 1.490 . S
C600 C602 1.395 1_556 S
C600 C603 1.403 . S
H601 C607 0.930 . S
C602 H588 0.930 . S
C602 C600 1.395 1_554 S
C602 C605 1.403 . S
C603 C600 1.403 . S
C603 C604 1.524 . S
C603 C607 1.400 1_556 S
C604 H589 0.960 . S
C604 H590 0.960 . S
C604 H591 0.960 . S
C604 C603 1.524 . S
C605 C602 1.403 . S
C605 C606 1.392 . S
C605 C609 1.495 . S
C606 C605 1.392 . S
C606 C607 1.385 . S
C606 C608 1.478 . S
C607 H601 0.930 . S
C607 C603 1.400 1_554 S
C607 C606 1.385 . S
C608 C606 1.478 . S
C608 C610 1.381 . S
C608 C614 1.383 . S
C609 C605 1.495 . S
C609 H615 0.959 . S
C609 H616 0.961 . S
C609 H617 0.960 . S
C610 C608 1.381 . S
C610 C611 1.394 . S
C610 H618 0.930 . S
C611 C610 1.394 . S
C611 C612 1.383 . S
C611 H619 0.929 . S
C612 C611 1.383 . S
C612 C613 1.377 . S
C613 H597 0.930 . S
C613 C612 1.377 . S
C613 C614 1.379 . S
C614 H598 0.931 . S
C614 C608 1.383 . S
C614 C613 1.379 . S
H615 C609 0.959 . S
H616 C609 0.961 . S
H617 C609 0.960 . S
H618 C610 0.930 . S
H619 C611 0.929 . S
H620 C628 0.929 . S
H621 C630 0.930 . S
H622 C632 0.930 . S
H623 C635 0.929 . S
H624 C638 0.930 . S
H625 C640 0.960 . S
H626 C640 0.960 . S
H627 C640 0.960 . S
C628 H620 0.929 . S
C628 C629 1.377 . S
C628 C630 1.384 . S
C629 C628 1.377 . S
C629 C635 1.390 . S
C630 H621 0.930 . S
C630 C628 1.384 . S
C630 C631 1.372 . S
C631 C630 1.372 . S
C631 C632 1.400 . S
C631 C636 1.490 . S
C632 H622 0.930 . S
C632 C631 1.400 . S
C632 C635 1.386 . S
H633 C649 0.930 . S
H634 C650 0.931 . S
C635 H623 0.929 . S
C635 C629 1.390 . S
C635 C632 1.386 . S
C636 C631 1.490 . S
C636 C638 1.395 . S
C636 C639 1.403 . S
H637 C643 0.930 . S
C638 H624 0.930 . S
C638 C636 1.395 . S
C638 C641 1.403 1_554 S
C639 C636 1.403 . S
C639 C640 1.524 . S
C639 C643 1.400 1_554 S
C640 H625 0.960 . S
C640 H626 0.960 . S
C640 H627 0.960 . S
C640 C639 1.524 . S
C641 C638 1.403 1_556 S
C641 C642 1.392 . S
C641 C645 1.495 . S
C642 C641 1.392 . S
C642 C643 1.385 . S
C642 C644 1.478 . S
C643 H637 0.930 . S
C643 C639 1.400 1_556 S
C643 C642 1.385 . S
C644 C642 1.478 . S
C644 C646 1.381 . S
C644 C650 1.383 . S
C645 C641 1.495 . S
C645 H651 0.959 . S
C645 H652 0.961 . S
C645 H653 0.960 . S
C646 C644 1.381 . S
C646 C647 1.394 . S
C646 H654 0.930 . S
C647 C646 1.394 . S
C647 C648 1.383 . S
C647 H655 0.929 . S
C648 C647 1.383 . S
C648 C649 1.377 . S
C649 H633 0.930 . S
C649 C648 1.377 . S
C649 C650 1.379 . S
C650 H634 0.931 . S
C650 C644 1.383 . S
C650 C649 1.379 . S
H651 C645 0.959 . S
H652 C645 0.961 . S
H653 C645 0.960 . S
H654 C646 0.930 . S
H655 C647 0.929 . S
H656 C664 0.929 . S
H657 C666 0.930 . S
H658 C668 0.930 . S
H659 C671 0.929 . S
H660 C674 0.930 . S
H661 C676 0.960 . S
H662 C676 0.960 . S
H663 C676 0.960 . S
C664 H656 0.929 . S
C664 C665 1.377 . S
C664 C666 1.384 . S
C665 C664 1.377 . S
C665 C671 1.390 . S
C666 H657 0.930 . S
C666 C664 1.384 . S
C666 C667 1.372 . S
C667 C666 1.372 . S
C667 C668 1.400 . S
C667 C672 1.490 . S
C668 H658 0.930 . S
C668 C667 1.400 . S
C668 C671 1.386 . S
H669 C685 0.930 . S
H670 C686 0.931 . S
C671 H659 0.929 . S
C671 C665 1.390 . S
C671 C668 1.386 . S
C672 C667 1.490 . S
C672 C674 1.395 . S
C672 C675 1.403 . S
H673 C679 0.930 . S
C674 H660 0.930 . S
C674 C672 1.395 . S
C674 C677 1.403 . S
C675 C672 1.403 . S
C675 C676 1.524 . S
C675 C679 1.400 . S
C676 H661 0.960 . S
C676 H662 0.960 . S
C676 H663 0.960 . S
C676 C675 1.524 . S
C677 C674 1.403 . S
C677 C678 1.392 . S
C677 C681 1.495 . S
C678 C677 1.392 . S
C678 C679 1.385 . S
C678 C680 1.478 . S
C679 H673 0.930 . S
C679 C675 1.400 . S
C679 C678 1.385 . S
C680 C678 1.478 . S
C680 C682 1.381 . S
C680 C686 1.383 . S
C681 C677 1.495 . S
C681 H687 0.959 . S
C681 H688 0.961 . S
C681 H689 0.960 . S
C682 C680 1.381 . S
C682 C683 1.394 . S
C682 H690 0.930 . S
C683 C682 1.394 . S
C683 C684 1.383 . S
C683 H691 0.929 . S
C684 C683 1.383 . S
C684 C685 1.377 . S
C685 H669 0.930 . S
C685 C684 1.377 . S
C685 C686 1.379 . S
C686 H670 0.931 . S
C686 C680 1.383 . S
C686 C685 1.379 . S
H687 C681 0.959 . S
H688 C681 0.961 . S
H689 C681 0.960 . S
H690 C682 0.930 . S
H691 C683 0.929 . S
H692 C700 0.929 . S
H693 C702 0.930 . S
H694 C704 0.930 . S
H695 C707 0.929 . S
H696 C710 0.930 . S
H697 C712 0.960 . S
H698 C712 0.960 . S
H699 C712 0.960 . S
C700 H692 0.929 . S
C700 C701 1.377 . S
C700 C702 1.384 . S
C701 C700 1.377 . S
C701 C707 1.390 . S
C702 H693 0.930 . S
C702 C700 1.384 . S
C702 C703 1.372 . S
C703 C702 1.372 . S
C703 C704 1.400 . S
C703 C708 1.490 . S
C704 H694 0.930 . S
C704 C703 1.400 . S
C704 C707 1.386 . S
H705 C721 0.930 . S
H706 C722 0.931 . S
C707 H695 0.929 . S
C707 C701 1.390 . S
C707 C704 1.386 . S
C708 C703 1.490 . S
C708 C710 1.395 . S
C708 C711 1.403 . S
H709 C715 0.930 . S
C710 H696 0.930 . S
C710 C708 1.395 . S
C710 C713 1.403 . S
C711 C708 1.403 . S
C711 C712 1.524 . S
C711 C715 1.400 . S
C712 H697 0.960 . S
C712 H698 0.960 . S
C712 H699 0.960 . S
C712 C711 1.524 . S
C713 C710 1.403 . S
C713 C714 1.392 . S
C713 C717 1.495 . S
C714 C713 1.392 . S
C714 C715 1.385 . S
C714 C716 1.478 . S
C715 H709 0.930 . S
C715 C711 1.400 . S
C715 C714 1.385 . S
C716 C714 1.478 . S
C716 C718 1.381 . S
C716 C722 1.383 . S
C717 C713 1.495 . S
C717 H723 0.959 . S
C717 H724 0.961 . S
C717 H725 0.960 . S
C718 C716 1.381 . S
C718 C719 1.394 . S
C718 H726 0.930 . S
C719 C718 1.394 . S
C719 C720 1.383 . S
C719 H727 0.929 . S
C720 C719 1.383 . S
C720 C721 1.377 . S
C721 H705 0.930 . S
C721 C720 1.377 . S
C721 C722 1.379 . S
C722 H706 0.931 . S
C722 C716 1.383 . S
C722 C721 1.379 . S
H723 C717 0.959 . S
H724 C717 0.961 . S
H725 C717 0.960 . S
H726 C718 0.930 . S
H727 C719 0.929 . S
H728 C736 0.929 . S
H729 C738 0.930 . S
H730 C740 0.930 . S
H731 C743 0.929 . S
H732 C746 0.930 . S
H733 C748 0.960 . S
H734 C748 0.960 1_655 S
H735 C748 0.953 1_655 S
C736 H728 0.929 . S
C736 C737 1.377 . S
C736 C738 1.384 . S
C737 C736 1.377 . S
C737 C743 1.390 . S
C738 H729 0.930 . S
C738 C736 1.384 . S
C738 C739 1.372 . S
C739 C738 1.372 . S
C739 C740 1.400 . S
C739 C744 1.490 . S
C740 H730 0.930 . S
C740 C739 1.400 . S
C740 C743 1.386 . S
H741 C757 0.930 . S
H742 C758 0.931 . S
C743 H731 0.929 . S
C743 C737 1.390 . S
C743 C740 1.386 . S
C744 C739 1.490 . S
C744 C746 1.395 . S
C744 C747 1.403 1_655 S
H745 C751 0.930 . S
C746 H732 0.930 . S
C746 C744 1.395 . S
C746 C749 1.403 . S
C747 C744 1.403 1_455 S
C747 C748 1.524 . S
C747 C751 1.400 . S
C748 H733 0.960 . S
C748 H734 0.960 1_455 S
C748 H735 0.953 1_455 S
C748 C747 1.524 . S
C749 C746 1.403 . S
C749 C750 1.392 1_655 S
C749 C753 1.495 . S
C750 C749 1.392 1_455 S
C750 C751 1.385 . S
C750 C752 1.478 . S
C751 H745 0.930 . S
C751 C747 1.400 . S
C751 C750 1.385 . S
C752 C750 1.478 . S
C752 C754 1.381 . S
C752 C758 1.383 . S
C753 C749 1.495 . S
C753 H759 0.959 . S
C753 H760 0.983 . S
C753 H761 0.960 . S
C754 C752 1.381 . S
C754 C755 1.394 . S
C754 H762 0.930 . S
C755 C754 1.394 . S
C755 C756 1.383 . S
C755 H763 0.929 . S
C756 C755 1.383 . S
C756 C757 1.377 . S
C757 H741 0.930 . S
C757 C756 1.377 . S
C757 C758 1.379 . S
C758 H742 0.931 . S
C758 C752 1.383 . S
C758 C757 1.379 . S
H759 C753 0.959 . S
H760 C753 0.983 . S
H761 C753 0.960 . S
H762 C754 0.930 . S
H763 C755 0.929 . S
H764 C772 0.929 . S
H765 C774 0.930 . S
H766 C776 0.930 . S
H767 C779 0.929 . S
H768 C782 0.930 . S
H769 C784 0.960 1_455 S
H770 C784 0.960 . S
H771 C784 0.960 . S
C772 H764 0.929 . S
C772 C773 1.377 . S
C772 C774 1.384 . S
C773 C772 1.377 . S
C773 C779 1.390 . S
C774 H765 0.930 . S
C774 C772 1.384 . S
C774 C775 1.372 . S
C775 C774 1.372 . S
C775 C776 1.400 . S
C775 C780 1.490 . S
C776 H766 0.930 . S
C776 C775 1.400 . S
C776 C779 1.386 . S
H777 C793 0.930 . S
H778 C794 0.931 . S
C779 H767 0.929 . S
C779 C773 1.390 . S
C779 C776 1.386 . S
C780 C775 1.490 . S
C780 C782 1.395 . S
C780 C783 1.403 . S
H781 C787 0.930 . S
C782 H768 0.930 . S
C782 C780 1.395 . S
C782 C785 1.403 1_655 S
C783 C780 1.403 . S
C783 C784 1.524 . S
C783 C787 1.400 1_655 S
C784 H769 0.960 1_655 S
C784 H770 0.960 . S
C784 H771 0.960 . S
C784 C783 1.524 . S
C785 C782 1.403 1_455 S
C785 C786 1.392 . S
C785 C789 1.495 . S
C786 C785 1.392 . S
C786 C787 1.385 . S
C786 C788 1.478 . S
C787 H781 0.930 . S
C787 C783 1.400 1_455 S
C787 C786 1.385 . S
C788 C786 1.478 . S
C788 C790 1.381 . S
C788 C794 1.383 . S
C789 C785 1.495 . S
C789 H795 0.959 1_455 S
C789 H796 0.961 . S
C789 H797 0.960 . S
C790 C788 1.381 . S
C790 C791 1.394 . S
C790 H798 0.930 . S
C791 C790 1.394 . S
C791 C792 1.383 . S
C791 H799 0.929 . S
C792 C791 1.383 . S
C792 C793 1.377 . S
C793 H777 0.930 . S
C793 C792 1.377 . S
C793 C794 1.379 . S
C794 H778 0.931 . S
C794 C788 1.383 . S
C794 C793 1.379 . S
H795 C789 0.959 1_655 S
H796 C789 0.961 . S
H797 C789 0.960 . S
H798 C790 0.930 . S
H799 C791 0.929 . S
H800 C808 0.929 . S
H801 C810 0.930 . S
H802 C812 0.930 . S
H803 C815 0.929 . S
H804 C818 0.930 . S
H805 C820 0.960 . S
H806 C820 0.960 . S
H807 C820 0.960 . S
C808 H800 0.929 . S
C808 C809 1.377 . S
C808 C810 1.384 . S
C809 C808 1.377 . S
C809 C815 1.390 . S
C810 H801 0.930 . S
C810 C808 1.384 . S
C810 C811 1.372 . S
C811 C810 1.372 . S
C811 C812 1.400 . S
C811 C816 1.490 . S
C812 H802 0.930 . S
C812 C811 1.400 . S
C812 C815 1.386 . S
H813 C829 0.930 . S
H814 C830 0.931 . S
C815 H803 0.929 . S
C815 C809 1.390 . S
C815 C812 1.386 . S
C816 C811 1.490 . S
C816 C818 1.395 . S
C816 C819 1.403 . S
H817 C823 0.930 . S
C818 H804 0.930 . S
C818 C816 1.395 . S
C818 C821 1.403 . S
C819 C816 1.403 . S
C819 C820 1.524 . S
C819 C823 1.400 . S
C820 H805 0.960 . S
C820 H806 0.960 . S
C820 H807 0.960 . S
C820 C819 1.524 . S
C821 C818 1.403 . S
C821 C822 1.392 . S
C821 C825 1.495 . S
C822 C821 1.392 . S
C822 C823 1.385 . S
C822 C824 1.478 . S
C823 H817 0.930 . S
C823 C819 1.400 . S
C823 C822 1.385 . S
C824 C822 1.478 . S
C824 C826 1.381 . S
C824 C830 1.383 . S
C825 C821 1.495 . S
C825 H831 0.959 . S
C825 H832 0.961 . S
C825 H833 0.960 . S
C826 C824 1.381 . S
C826 C827 1.394 . S
C826 H834 0.930 . S
C827 C826 1.394 . S
C827 C828 1.383 . S
C827 H835 0.929 . S
C828 C827 1.383 . S
C828 C829 1.377 . S
C829 H813 0.930 . S
C829 C828 1.377 . S
C829 C830 1.379 . S
C830 H814 0.931 . S
C830 C824 1.383 . S
C830 C829 1.379 . S
H831 C825 0.959 . S
H832 C825 0.961 . S
H833 C825 0.960 . S
H834 C826 0.930 . S
H835 C827 0.929 . S
H836 C844 0.929 . S
H837 C846 0.930 . S
H838 C848 0.930 . S
H839 C851 0.929 . S
H840 C854 0.930 . S
H841 C856 0.960 . S
H842 C856 0.960 . S
H843 C856 0.960 . S
C844 H836 0.929 . S
C844 C845 1.377 . S
C844 C846 1.384 . S
C845 C844 1.377 . S
C845 C851 1.390 . S
C846 H837 0.930 . S
C846 C844 1.384 . S
C846 C847 1.372 . S
C847 C846 1.372 . S
C847 C848 1.400 . S
C847 C852 1.490 . S
C848 H838 0.930 . S
C848 C847 1.400 . S
C848 C851 1.386 . S
H849 C865 0.930 . S
H850 C866 0.931 . S
C851 H839 0.929 . S
C851 C845 1.390 . S
C851 C848 1.386 . S
C852 C847 1.490 . S
C852 C854 1.395 . S
C852 C855 1.403 . S
H853 C859 0.930 . S
C854 H840 0.930 . S
C854 C852 1.395 . S
C854 C857 1.403 1_545 S
C855 C852 1.403 . S
C855 C856 1.524 . S
C855 C859 1.400 1_545 S
C856 H841 0.960 . S
C856 H842 0.960 . S
C856 H843 0.960 . S
C856 C855 1.524 . S
C857 C854 1.403 1_565 S
C857 C858 1.392 . S
C857 C861 1.495 . S
C858 C857 1.392 . S
C858 C859 1.385 . S
C858 C860 1.478 . S
C859 H853 0.930 . S
C859 C855 1.400 1_565 S
C859 C858 1.385 . S
C860 C858 1.478 . S
C860 C862 1.381 . S
C860 C866 1.383 . S
C861 C857 1.495 . S
C861 H867 0.959 . S
C861 H868 0.961 . S
C861 H869 0.960 . S
C862 C860 1.381 . S
C862 C863 1.394 . S
C862 H870 0.930 . S
C863 C862 1.394 . S
C863 C864 1.383 . S
C863 H871 0.929 . S
C864 C863 1.383 . S
C864 C865 1.377 . S
C865 H849 0.930 . S
C865 C864 1.377 . S
C865 C866 1.379 . S
C866 H850 0.931 . S
C866 C860 1.383 . S
C866 C865 1.379 . S
H867 C861 0.959 . S
H868 C861 0.961 . S
H869 C861 0.960 . S
H870 C862 0.930 . S
H871 C863 0.929 . S
H872 C880 0.929 . S
H873 C882 0.930 . S
H874 C884 0.930 . S
H875 C887 0.929 . S
H876 C890 0.930 . S
H877 C892 0.960 . S
H878 C892 0.960 . S
H879 C892 0.960 . S
C880 H872 0.929 . S
C880 C881 1.377 . S
C880 C882 1.384 . S
C881 C880 1.377 . S
C881 C887 1.390 . S
C882 H873 0.930 . S
C882 C880 1.384 . S
C882 C883 1.372 . S
C883 C882 1.372 . S
C883 C884 1.400 . S
C883 C888 1.490 . S
C884 H874 0.930 . S
C884 C883 1.400 . S
C884 C887 1.386 . S
H885 C901 0.930 . S
H886 C902 0.931 . S
C887 H875 0.929 . S
C887 C881 1.390 . S
C887 C884 1.386 . S
C888 C883 1.490 . S
C888 C890 1.395 . S
C888 C891 1.403 . S
H889 C895 0.930 . S
C890 H876 0.930 . S
C890 C888 1.395 . S
C890 C893 1.403 . S
C891 C888 1.403 . S
C891 C892 1.524 . S
C891 C895 1.400 . S
C892 H877 0.960 . S
C892 H878 0.960 . S
C892 H879 0.960 . S
C892 C891 1.524 . S
C893 C890 1.403 . S
C893 C894 1.392 . S
C893 C897 1.495 . S
C894 C893 1.392 . S
C894 C895 1.385 . S
C894 C896 1.478 . S
C895 H889 0.930 . S
C895 C891 1.400 . S
C895 C894 1.385 . S
C896 C894 1.478 . S
C896 C898 1.381 . S
C896 C902 1.383 . S
C897 C893 1.495 . S
C897 H903 0.959 . S
C897 H904 0.961 . S
C897 H905 0.960 . S
C898 C896 1.381 . S
C898 C899 1.394 . S
C898 H906 0.930 . S
C899 C898 1.394 . S
C899 C900 1.383 . S
C899 H907 0.929 . S
C900 C899 1.383 . S
C900 C901 1.377 . S
C901 H885 0.930 . S
C901 C900 1.377 . S
C901 C902 1.379 . S
C902 H886 0.931 . S
C902 C896 1.383 . S
C902 C901 1.379 . S
H903 C897 0.959 . S
H904 C897 0.961 . S
H905 C897 0.960 . S
H906 C898 0.930 . S
H907 C899 0.929 . S
H908 C916 0.929 . S
H909 C918 0.930 . S
H910 C920 0.930 . S
H911 C923 0.929 . S
H912 C926 0.930 . S
H913 C928 0.960 . S
H914 C928 0.960 . S
H915 C928 0.960 . S
C916 H908 0.929 . S
C916 C917 1.377 . S
C916 C918 1.384 . S
C917 C916 1.377 . S
C917 C923 1.390 . S
C918 H909 0.930 . S
C918 C916 1.384 . S
C918 C919 1.372 . S
C919 C918 1.372 . S
C919 C920 1.400 . S
C919 C924 1.490 . S
C920 H910 0.930 . S
C920 C919 1.400 . S
C920 C923 1.386 . S
H921 C937 0.930 . S
H922 C938 0.931 . S
C923 H911 0.929 . S
C923 C917 1.390 . S
C923 C920 1.386 . S
C924 C919 1.490 . S
C924 C926 1.395 . S
C924 C927 1.403 . S
H925 C931 0.930 . S
C926 H912 0.930 . S
C926 C924 1.395 . S
C926 C929 1.403 1_554 S
C927 C924 1.403 . S
C927 C928 1.524 . S
C927 C931 1.400 1_554 S
C928 H913 0.960 . S
C928 H914 0.960 . S
C928 H915 0.960 . S
C928 C927 1.524 . S
C929 C926 1.403 1_556 S
C929 C930 1.392 . S
C929 C933 1.495 . S
C930 C929 1.392 . S
C930 C931 1.385 . S
C930 C932 1.478 . S
C931 H925 0.930 . S
C931 C927 1.400 1_556 S
C931 C930 1.385 . S
C932 C930 1.478 . S
C932 C934 1.381 . S
C932 C938 1.383 . S
C933 C929 1.495 . S
C933 H939 0.959 . S
C933 H940 0.961 . S
C933 H941 0.960 . S
C934 C932 1.381 . S
C934 C935 1.394 . S
C934 H942 0.930 . S
C935 C934 1.394 . S
C935 C936 1.383 . S
C935 H943 0.929 . S
C936 C935 1.383 . S
C936 C937 1.377 . S
C937 H921 0.930 . S
C937 C936 1.377 . S
C937 C938 1.379 . S
C938 H922 0.931 . S
C938 C932 1.383 . S
C938 C937 1.379 . S
H939 C933 0.959 . S
H940 C933 0.961 . S
H941 C933 0.960 . S
H942 C934 0.930 . S
H943 C935 0.929 . S
H944 C952 0.929 . S
H945 C954 0.930 . S
H946 C956 0.930 . S
H947 C959 0.929 . S
H948 C962 0.930 . S
H949 C964 0.960 . S
H950 C964 0.960 . S
H951 C964 0.960 . S
C952 H944 0.929 . S
C952 C953 1.377 . S
C952 C954 1.384 . S
C953 C952 1.377 . S
C953 C959 1.390 . S
C954 H945 0.930 . S
C954 C952 1.384 . S
C954 C955 1.372 . S
C955 C954 1.372 . S
C955 C956 1.400 . S
C955 C960 1.490 . S
C956 H946 0.930 . S
C956 C955 1.400 . S
C956 C959 1.386 . S
H957 C973 0.930 . S
H958 C974 0.931 . S
C959 H947 0.929 . S
C959 C953 1.390 . S
C959 C956 1.386 . S
C960 C955 1.490 . S
C960 C962 1.395 . S
C960 C963 1.403 . S
H961 C967 0.930 . S
C962 H948 0.930 . S
C962 C960 1.395 . S
C962 C965 1.403 1_556 S
C963 C960 1.403 . S
C963 C964 1.524 . S
C963 C967 1.400 1_556 S
C964 H949 0.960 . S
C964 H950 0.960 . S
C964 H951 0.960 . S
C964 C963 1.524 . S
C965 C962 1.403 1_554 S
C965 C966 1.392 . S
C965 C969 1.495 . S
C966 C965 1.392 . S
C966 C967 1.385 . S
C966 C968 1.478 . S
C967 H961 0.930 . S
C967 C963 1.400 1_554 S
C967 C966 1.385 . S
C968 C966 1.478 . S
C968 C970 1.381 . S
C968 C974 1.383 . S
C969 C965 1.495 . S
C969 H975 0.959 . S
C969 H976 0.961 . S
C969 H977 0.960 . S
C970 C968 1.381 . S
C970 C971 1.394 . S
C970 H978 0.930 . S
C971 C970 1.394 . S
C971 C972 1.383 . S
C971 H979 0.929 . S
C972 C971 1.383 . S
C972 C973 1.377 . S
C973 H957 0.930 . S
C973 C972 1.377 . S
C973 C974 1.379 . S
C974 H958 0.931 . S
C974 C968 1.383 . S
C974 C973 1.379 . S
H975 C969 0.959 . S
H976 C969 0.961 . S
H977 C969 0.960 . S
H978 C970 0.930 . S
H979 C971 0.929 . S
H980 C988 0.929 . S
H981 C990 0.930 . S
H982 C992 0.930 . S
H983 C995 0.929 . S
H984 C998 0.930 . S
H985 C1000 0.960 . S
H986 C1000 0.960 . S
H987 C1000 0.960 . S
C988 H980 0.929 . S
C988 C989 1.377 . S
C988 C990 1.384 . S
C989 C988 1.377 . S
C989 C995 1.390 . S
C990 H981 0.930 . S
C990 C988 1.384 . S
C990 C991 1.372 . S
C991 C990 1.372 . S
C991 C992 1.400 . S
C991 C996 1.490 . S
C992 H982 0.930 . S
C992 C991 1.400 . S
C992 C995 1.386 . S
H993 C1009 0.930 . S
H994 C1010 0.931 . S
C995 H983 0.929 . S
C995 C989 1.390 . S
C995 C992 1.386 . S
C996 C991 1.490 . S
C996 C998 1.395 . S
C996 C999 1.403 . S
H997 C1003 0.930 . S
C998 H984 0.930 . S
C998 C996 1.395 . S
C998 C1001 1.403 . S
C999 C996 1.403 . S
C999 C1000 1.524 . S
C999 C1003 1.400 . S
C1000 H985 0.960 . S
C1000 H986 0.960 . S
C1000 H987 0.960 . S
C1000 C999 1.524 . S
C1001 C998 1.403 . S
C1001 C1002 1.392 . S
C1001 C1005 1.495 . S
C1002 C1001 1.392 . S
C1002 C1003 1.385 . S
C1002 C1004 1.478 . S
C1003 H997 0.930 . S
C1003 C999 1.400 . S
C1003 C1002 1.385 . S
C1004 C1002 1.478 . S
C1004 C1006 1.381 . S
C1004 C1010 1.383 . S
C1005 C1001 1.495 . S
C1005 H1011 0.959 . S
C1005 H1012 0.961 . S
C1005 H1013 0.960 . S
C1006 C1004 1.381 . S
C1006 C1007 1.394 . S
C1006 H1014 0.930 . S
C1007 C1006 1.394 . S
C1007 C1008 1.383 . S
C1007 H1015 0.929 . S
C1008 C1007 1.383 . S
C1008 C1009 1.377 . S
C1009 H993 0.930 . S
C1009 C1008 1.377 . S
C1009 C1010 1.379 . S
C1010 H994 0.931 . S
C1010 C1004 1.383 . S
C1010 C1009 1.379 . S
H1011 C1005 0.959 . S
H1012 C1005 0.961 . S
H1013 C1005 0.960 . S
H1014 C1006 0.930 . S
H1015 C1007 0.929 . S
H1016 C1024 0.929 . S
H1017 C1026 0.930 . S
H1018 C1028 0.930 . S
H1019 C1031 0.929 . S
H1020 C1034 0.930 . S
H1021 C1036 0.960 . S
H1022 C1036 0.960 . S
H1023 C1036 0.960 . S
C1024 H1016 0.929 . S
C1024 C1025 1.377 . S
C1024 C1026 1.384 . S
C1025 C1024 1.377 . S
C1025 C1031 1.390 . S
C1026 H1017 0.930 . S
C1026 C1024 1.384 . S
C1026 C1027 1.372 . S
C1027 C1026 1.372 . S
C1027 C1028 1.400 . S
C1027 C1032 1.490 . S
C1028 H1018 0.930 . S
C1028 C1027 1.400 . S
C1028 C1031 1.386 . S
H1029 C1045 0.930 . S
H1030 C1046 0.931 . S
C1031 H1019 0.929 . S
C1031 C1025 1.390 . S
C1031 C1028 1.386 . S
C1032 C1027 1.490 . S
C1032 C1034 1.395 . S
C1032 C1035 1.403 . S
H1033 C1039 0.930 . S
C1034 H1020 0.930 . S
C1034 C1032 1.395 . S
C1034 C1037 1.403 . S
C1035 C1032 1.403 . S
C1035 C1036 1.524 . S
C1035 C1039 1.400 . S
C1036 H1021 0.960 . S
C1036 H1022 0.960 . S
C1036 H1023 0.960 . S
C1036 C1035 1.524 . S
C1037 C1034 1.403 . S
C1037 C1038 1.392 . S
C1037 C1041 1.495 . S
C1038 C1037 1.392 . S
C1038 C1039 1.385 . S
C1038 C1040 1.478 . S
C1039 H1033 0.930 . S
C1039 C1035 1.400 . S
C1039 C1038 1.385 . S
C1040 C1038 1.478 . S
C1040 C1042 1.381 . S
C1040 C1046 1.383 . S
C1041 C1037 1.495 . S
C1041 H1047 0.959 . S
C1041 H1048 0.961 . S
C1041 H1049 0.960 . S
C1042 C1040 1.381 . S
C1042 C1043 1.394 . S
C1042 H1050 0.930 . S
C1043 C1042 1.394 . S
C1043 C1044 1.383 . S
C1043 H1051 0.929 . S
C1044 C1043 1.383 . S
C1044 C1045 1.377 . S
C1045 H1029 0.930 . S
C1045 C1044 1.377 . S
C1045 C1046 1.379 . S
C1046 H1030 0.931 . S
C1046 C1040 1.383 . S
C1046 C1045 1.379 . S
H1047 C1041 0.959 . S
H1048 C1041 0.961 . S
H1049 C1041 0.960 . S
H1050 C1042 0.930 . S
H1051 C1043 0.929 . S
H1052 C1060 0.929 . S
H1053 C1062 0.930 . S
H1054 C1064 0.930 . S
H1055 C1067 0.929 . S
H1056 C1070 0.930 . S
H1057 C1072 0.960 1_655 S
H1058 C1072 0.960 . S
H1059 C1072 0.960 . S
C1060 H1052 0.929 . S
C1060 C1061 1.377 . S
C1060 C1062 1.384 . S
C1061 C1060 1.377 . S
C1061 C1067 1.390 . S
C1062 H1053 0.930 . S
C1062 C1060 1.384 . S
C1062 C1063 1.372 . S
C1063 C1062 1.372 . S
C1063 C1064 1.400 . S
C1063 C1068 1.490 . S
C1064 H1054 0.930 . S
C1064 C1063 1.400 . S
C1064 C1067 1.386 . S
H1065 C1081 0.930 . S
H1066 C1082 0.931 . S
C1067 H1055 0.929 . S
C1067 C1061 1.390 . S
C1067 C1064 1.386 . S
C1068 C1063 1.490 . S
C1068 C1070 1.395 . S
C1068 C1071 1.403 . S
H1069 C1075 0.930 . S
C1070 H1056 0.930 . S
C1070 C1068 1.395 . S
C1070 C1073 1.403 1_455 S
C1071 C1068 1.403 . S
C1071 C1072 1.524 . S
C1071 C1075 1.400 1_455 S
C1072 H1057 0.960 1_455 S
C1072 H1058 0.960 . S
C1072 H1059 0.960 . S
C1072 C1071 1.524 . S
C1073 C1070 1.403 1_655 S
C1073 C1074 1.392 . S
C1073 C1077 1.495 . S
C1074 C1073 1.392 . S
C1074 C1075 1.385 . S
C1074 C1076 1.478 . S
C1075 H1069 0.930 . S
C1075 C1071 1.400 1_655 S
C1075 C1074 1.385 . S
C1076 C1074 1.478 . S
C1076 C1078 1.381 . S
C1076 C1082 1.383 . S
C1077 C1073 1.495 . S
C1077 H1083 0.959 1_655 S
C1077 H1084 0.961 . S
C1077 H1085 0.960 . S
C1078 C1076 1.381 . S
C1078 C1079 1.394 . S
C1078 H1086 0.930 . S
C1079 C1078 1.394 . S
C1079 C1080 1.383 . S
C1079 H1087 0.929 . S
C1080 C1079 1.383 . S
C1080 C1081 1.377 . S
C1081 H1065 0.930 . S
C1081 C1080 1.377 . S
C1081 C1082 1.379 . S
C1082 H1066 0.931 . S
C1082 C1076 1.383 . S
C1082 C1081 1.379 . S
H1083 C1077 0.959 1_455 S
H1084 C1077 0.961 . S
H1085 C1077 0.960 . S
H1086 C1078 0.930 . S
H1087 C1079 0.929 . S
H1088 C1096 0.929 . S
H1089 C1098 0.930 . S
H1090 C1100 0.930 . S
H1091 C1103 0.929 . S
H1092 C1106 0.933 . S
H1093 C1108 0.960 . S
H1094 C1108 0.960 . S
H1095 C1108 0.960 . S
C1096 H1088 0.929 . S
C1096 C1097 1.377 . S
C1096 C1098 1.384 . S
C1097 C1096 1.377 . S
C1097 C1103 1.390 . S
C1098 H1089 0.930 . S
C1098 C1096 1.384 . S
C1098 C1099 1.372 . S
C1099 C1098 1.372 . S
C1099 C1100 1.400 . S
C1099 C1104 1.490 . S
C1100 H1090 0.930 . S
C1100 C1099 1.400 . S
C1100 C1103 1.386 . S
H1101 C1117 0.930 . S
H1102 C1118 0.931 . S
C1103 H1091 0.929 . S
C1103 C1097 1.390 . S
C1103 C1100 1.386 . S
C1104 C1099 1.490 . S
C1104 C1106 1.395 1_455 S
C1104 C1107 1.403 . S
H1105 C1111 0.930 . S
C1106 H1092 0.933 . S
C1106 C1104 1.395 1_655 S
C1106 C1109 1.403 . S
C1107 C1104 1.403 . S
C1107 C1108 1.524 . S
C1107 C1111 1.400 1_455 S
C1108 H1093 0.960 . S
C1108 H1094 0.960 . S
C1108 H1095 0.960 . S
C1108 C1107 1.524 . S
C1109 C1106 1.403 . S
C1109 C1110 1.392 . S
C1109 C1113 1.495 . S
C1110 C1109 1.392 . S
C1110 C1111 1.385 . S
C1110 C1112 1.478 . S
C1111 H1105 0.930 . S
C1111 C1107 1.400 1_655 S
C1111 C1110 1.385 . S
C1112 C1110 1.478 . S
C1112 C1114 1.381 . S
C1112 C1118 1.383 . S
C1113 C1109 1.495 . S
C1113 H1119 0.959 . S
C1113 H1120 0.961 . S
C1113 H1121 0.960 . S
C1114 C1112 1.381 . S
C1114 C1115 1.394 . S
C1114 H1122 0.930 . S
C1115 C1114 1.394 . S
C1115 C1116 1.383 . S
C1115 H1123 0.929 . S
C1116 C1115 1.383 . S
C1116 C1117 1.377 . S
C1117 H1101 0.930 . S
C1117 C1116 1.377 . S
C1117 C1118 1.379 . S
C1118 H1102 0.931 . S
C1118 C1112 1.383 . S
C1118 C1117 1.379 . S
H1119 C1113 0.959 . S
H1120 C1113 0.961 . S
H1121 C1113 0.960 . S
H1122 C1114 0.930 . S
H1123 C1115 0.929 . S
H1124 C1132 0.929 . S
H1125 C1134 0.930 . S
H1126 C1136 0.930 . S
H1127 C1139 0.929 . S
H1128 C1142 0.930 . S
H1129 C1144 0.960 . S
H1130 C1144 0.960 . S
H1131 C1144 0.960 . S
C1132 H1124 0.929 . S
C1132 C1133 1.377 . S
C1132 C1134 1.384 . S
C1133 C1132 1.377 . S
C1133 C1139 1.390 . S
C1134 H1125 0.930 . S
C1134 C1132 1.384 . S
C1134 C1135 1.372 . S
C1135 C1134 1.372 . S
C1135 C1136 1.400 . S
C1135 C1140 1.490 . S
C1136 H1126 0.930 . S
C1136 C1135 1.400 . S
C1136 C1139 1.386 . S
H1137 C1153 0.930 . S
H1138 C1154 0.931 . S
C1139 H1127 0.929 . S
C1139 C1133 1.390 . S
C1139 C1136 1.386 . S
C1140 C1135 1.490 . S
C1140 C1142 1.395 . S
C1140 C1143 1.403 . S
H1141 C1147 0.930 . S
C1142 H1128 0.930 . S
C1142 C1140 1.395 . S
C1142 C1145 1.403 . S
C1143 C1140 1.403 . S
C1143 C1144 1.524 . S
C1143 C1147 1.400 . S
C1144 H1129 0.960 . S
C1144 H1130 0.960 . S
C1144 H1131 0.960 . S
C1144 C1143 1.524 . S
C1145 C1142 1.403 . S
C1145 C1146 1.392 . S
C1145 C1149 1.495 . S
C1146 C1145 1.392 . S
C1146 C1147 1.385 . S
C1146 C1148 1.478 . S
C1147 H1141 0.930 . S
C1147 C1143 1.400 . S
C1147 C1146 1.385 . S
C1148 C1146 1.478 . S
C1148 C1150 1.381 . S
C1148 C1154 1.383 . S
C1149 C1145 1.495 . S
C1149 H1155 0.959 . S
C1149 H1156 0.961 . S
C1149 H1157 0.960 . S
C1150 C1148 1.381 . S
C1150 C1151 1.394 . S
C1150 H1158 0.930 . S
C1151 C1150 1.394 . S
C1151 C1152 1.383 . S
C1151 H1159 0.929 . S
C1152 C1151 1.383 . S
C1152 C1153 1.377 . S
C1153 H1137 0.930 . S
C1153 C1152 1.377 . S
C1153 C1154 1.379 . S
C1154 H1138 0.931 . S
C1154 C1148 1.383 . S
C1154 C1153 1.379 . S
H1155 C1149 0.959 . S
H1156 C1149 0.961 . S
H1157 C1149 0.960 . S
H1158 C1150 0.930 . S
H1159 C1151 0.929 . S
H1160 C1168 0.929 . S
H1161 C1170 0.930 . S
H1162 C1172 0.930 . S
H1163 C1175 0.929 . S
H1164 C1178 0.930 . S
H1165 C1180 0.960 . S
H1166 C1180 0.960 . S
H1167 C1180 0.960 . S
C1168 H1160 0.929 . S
C1168 C1169 1.377 . S
C1168 C1170 1.384 . S
C1169 C1168 1.377 . S
C1169 C1175 1.390 . S
C1170 H1161 0.930 . S
C1170 C1168 1.384 . S
C1170 C1171 1.372 . S
C1171 C1170 1.372 . S
C1171 C1172 1.400 . S
C1171 C1176 1.490 . S
C1172 H1162 0.930 . S
C1172 C1171 1.400 . S
C1172 C1175 1.386 . S
H1173 C1189 0.930 . S
H1174 C1190 0.931 . S
C1175 H1163 0.929 . S
C1175 C1169 1.390 . S
C1175 C1172 1.386 . S
C1176 C1171 1.490 . S
C1176 C1178 1.395 . S
C1176 C1179 1.403 . S
H1177 C1183 0.930 . S
C1178 H1164 0.930 . S
C1178 C1176 1.395 . S
C1178 C1181 1.403 . S
C1179 C1176 1.403 . S
C1179 C1180 1.524 . S
C1179 C1183 1.400 . S
C1180 H1165 0.960 . S
C1180 H1166 0.960 . S
C1180 H1167 0.960 . S
C1180 C1179 1.524 . S
C1181 C1178 1.403 . S
C1181 C1182 1.392 . S
C1181 C1185 1.495 . S
C1182 C1181 1.392 . S
C1182 C1183 1.385 . S
C1182 C1184 1.478 . S
C1183 H1177 0.930 . S
C1183 C1179 1.400 . S
C1183 C1182 1.385 . S
C1184 C1182 1.478 . S
C1184 C1186 1.381 . S
C1184 C1190 1.383 . S
C1185 C1181 1.495 . S
C1185 H1191 0.959 . S
C1185 H1192 0.961 . S
C1185 H1193 0.960 . S
C1186 C1184 1.381 . S
C1186 C1187 1.394 . S
C1186 H1194 0.930 . S
C1187 C1186 1.394 . S
C1187 C1188 1.383 . S
C1187 H1195 0.929 . S
C1188 C1187 1.383 . S
C1188 C1189 1.377 . S
C1189 H1173 0.930 . S
C1189 C1188 1.377 . S
C1189 C1190 1.379 . S
C1190 H1174 0.931 . S
C1190 C1184 1.383 . S
C1190 C1189 1.379 . S
H1191 C1185 0.959 . S
H1192 C1185 0.961 . S
H1193 C1185 0.960 . S
H1194 C1186 0.930 . S
H1195 C1187 0.929 . S
H1196 C1204 0.929 . S
H1197 C1206 0.930 . S
H1198 C1208 0.930 . S
H1199 C1211 0.929 . S
H1200 C1214 0.930 . S
H1201 C1216 0.960 . S
H1202 C1216 0.960 1_545 S
H1203 C1216 0.960 1_545 S
C1204 H1196 0.929 . S
C1204 C1205 1.377 . S
C1204 C1206 1.384 . S
C1205 C1204 1.377 . S
C1205 C1211 1.390 . S
C1206 H1197 0.930 . S
C1206 C1204 1.384 . S
C1206 C1207 1.372 . S
C1207 C1206 1.372 . S
C1207 C1208 1.400 . S
C1207 C1212 1.490 . S
C1208 H1198 0.930 . S
C1208 C1207 1.400 . S
C1208 C1211 1.386 . S
H1209 C1225 0.930 . S
H1210 C1226 0.931 . S
C1211 H1199 0.929 . S
C1211 C1205 1.390 . S
C1211 C1208 1.386 . S
C1212 C1207 1.490 . S
C1212 C1214 1.395 . S
C1212 C1215 1.396 1_545 S
H1213 C1219 0.930 . S
C1214 H1200 0.930 . S
C1214 C1212 1.395 . S
C1214 C1217 1.403 . S
C1215 C1212 1.396 1_565 S
C1215 C1216 1.524 . S
C1215 C1219 1.406 . S
C1216 H1201 0.960 . S
C1216 H1202 0.960 1_565 S
C1216 H1203 0.960 1_565 S
C1216 C1215 1.524 . S
C1217 C1214 1.403 . S
C1217 C1218 1.392 1_545 S
C1217 C1221 1.495 . S
C1218 C1217 1.392 1_565 S
C1218 C1219 1.385 . S
C1218 C1220 1.478 . S
C1219 H1213 0.930 . S
C1219 C1215 1.406 . S
C1219 C1218 1.385 . S
C1220 C1218 1.478 . S
C1220 C1222 1.381 . S
C1220 C1226 1.383 . S
C1221 C1217 1.495 . S
C1221 H1227 0.959 . S
C1221 H1228 0.961 1_545 S
C1221 H1229 0.970 . S
C1222 C1220 1.381 . S
C1222 C1223 1.394 . S
C1222 H1230 0.930 . S
C1223 C1222 1.394 . S
C1223 C1224 1.383 . S
C1223 H1231 0.929 . S
C1224 C1223 1.383 . S
C1224 C1225 1.377 . S
C1225 H1209 0.930 . S
C1225 C1224 1.377 . S
C1225 C1226 1.379 . S
C1226 H1210 0.931 . S
C1226 C1220 1.383 . S
C1226 C1225 1.379 . S
H1227 C1221 0.959 . S
H1228 C1221 0.961 1_565 S
H1229 C1221 0.970 . S
H1230 C1222 0.930 . S
H1231 C1223 0.929 . S
H1232 C1240 0.929 . S
H1233 C1242 0.930 . S
H1234 C1244 0.930 . S
H1235 C1247 0.929 . S
H1236 C1250 0.930 . S
H1237 C1252 0.960 . S
H1238 C1252 0.960 . S
H1239 C1252 0.960 . S
C1240 H1232 0.929 . S
C1240 C1241 1.377 . S
C1240 C1242 1.384 . S
C1241 C1240 1.377 . S
C1241 C1247 1.390 . S
C1242 H1233 0.930 . S
C1242 C1240 1.384 . S
C1242 C1243 1.372 . S
C1243 C1242 1.372 . S
C1243 C1244 1.400 . S
C1243 C1248 1.490 . S
C1244 H1234 0.930 . S
C1244 C1243 1.400 . S
C1244 C1247 1.386 . S
H1245 C1261 0.930 . S
H1246 C1262 0.931 . S
C1247 H1235 0.929 . S
C1247 C1241 1.390 . S
C1247 C1244 1.386 . S
C1248 C1243 1.490 . S
C1248 C1250 1.395 . S
C1248 C1251 1.403 . S
H1249 C1255 0.930 . S
C1250 H1236 0.930 . S
C1250 C1248 1.395 . S
C1250 C1253 1.403 . S
C1251 C1248 1.403 . S
C1251 C1252 1.524 . S
C1251 C1255 1.400 . S
C1252 H1237 0.960 . S
C1252 H1238 0.960 . S
C1252 H1239 0.960 . S
C1252 C1251 1.524 . S
C1253 C1250 1.403 . S
C1253 C1254 1.392 . S
C1253 C1257 1.495 . S
C1254 C1253 1.392 . S
C1254 C1255 1.385 . S
C1254 C1256 1.478 . S
C1255 H1249 0.930 . S
C1255 C1251 1.400 . S
C1255 C1254 1.385 . S
C1256 C1254 1.478 . S
C1256 C1258 1.381 . S
C1256 C1262 1.383 . S
C1257 C1253 1.495 . S
C1257 H1263 0.959 . S
C1257 H1264 0.961 . S
C1257 H1265 0.960 . S
C1258 C1256 1.381 . S
C1258 C1259 1.394 . S
C1258 H1266 0.930 . S
C1259 C1258 1.394 . S
C1259 C1260 1.383 . S
C1259 H1267 0.929 . S
C1260 C1259 1.383 . S
C1260 C1261 1.377 . S
C1261 H1245 0.930 . S
C1261 C1260 1.377 . S
C1261 C1262 1.379 . S
C1262 H1246 0.931 . S
C1262 C1256 1.383 . S
C1262 C1261 1.379 . S
H1263 C1257 0.959 . S
H1264 C1257 0.961 . S
H1265 C1257 0.960 . S
H1266 C1258 0.930 . S
H1267 C1259 0.929 . S
H1268 C1276 0.929 . S
H1269 C1278 0.930 . S
H1270 C1280 0.930 . S
H1271 C1283 0.929 . S
H1272 C1286 0.930 . S
H1273 C1288 0.960 . S
H1274 C1288 0.960 . S
H1275 C1288 0.960 . S
C1276 H1268 0.929 . S
C1276 C1277 1.377 . S
C1276 C1278 1.384 . S
C1277 C1276 1.377 . S
C1277 C1283 1.390 . S
C1278 H1269 0.930 . S
C1278 C1276 1.384 . S
C1278 C1279 1.372 . S
C1279 C1278 1.372 . S
C1279 C1280 1.400 . S
C1279 C1284 1.490 . S
C1280 H1270 0.930 . S
C1280 C1279 1.400 . S
C1280 C1283 1.386 . S
H1281 C1297 0.930 . S
H1282 C1298 0.931 . S
C1283 H1271 0.929 . S
C1283 C1277 1.390 . S
C1283 C1280 1.386 . S
C1284 C1279 1.490 . S
C1284 C1286 1.395 . S
C1284 C1287 1.403 . S
H1285 C1291 0.930 . S
C1286 H1272 0.930 . S
C1286 C1284 1.395 . S
C1286 C1289 1.403 . S
C1287 C1284 1.403 . S
C1287 C1288 1.524 . S
C1287 C1291 1.400 . S
C1288 H1273 0.960 . S
C1288 H1274 0.960 . S
C1288 H1275 0.960 . S
C1288 C1287 1.524 . S
C1289 C1286 1.403 . S
C1289 C1290 1.392 . S
C1289 C1293 1.495 . S
C1290 C1289 1.392 . S
C1290 C1291 1.385 . S
C1290 C1292 1.478 . S
C1291 H1285 0.930 . S
C1291 C1287 1.400 . S
C1291 C1290 1.385 . S
C1292 C1290 1.478 . S
C1292 C1294 1.381 . S
C1292 C1298 1.383 . S
C1293 C1289 1.495 . S
C1293 H1299 0.959 . S
C1293 H1300 0.961 . S
C1293 H1301 0.960 . S
C1294 C1292 1.381 . S
C1294 C1295 1.394 . S
C1294 H1302 0.930 . S
C1295 C1294 1.394 . S
C1295 C1296 1.383 . S
C1295 H1303 0.929 . S
C1296 C1295 1.383 . S
C1296 C1297 1.377 . S
C1297 H1281 0.930 . S
C1297 C1296 1.377 . S
C1297 C1298 1.379 . S
C1298 H1282 0.931 . S
C1298 C1292 1.383 . S
C1298 C1297 1.379 . S
H1299 C1293 0.959 . S
H1300 C1293 0.961 . S
H1301 C1293 0.960 . S
H1302 C1294 0.930 . S
H1303 C1295 0.929 . S
H1304 C1312 0.929 . S
H1305 C1314 0.930 . S
H1306 C1316 0.930 . S
H1307 C1319 0.929 . S
H1308 C1322 0.930 . S
H1309 C1324 0.960 . S
H1310 C1324 0.960 . S
H1311 C1324 0.960 . S
C1312 H1304 0.929 . S
C1312 C1313 1.377 . S
C1312 C1314 1.384 . S
C1313 C1312 1.377 . S
C1313 C1319 1.390 . S
C1314 H1305 0.930 . S
C1314 C1312 1.384 . S
C1314 C1315 1.372 . S
C1315 C1314 1.372 . S
C1315 C1316 1.400 . S
C1315 C1320 1.490 . S
C1316 H1306 0.930 . S
C1316 C1315 1.400 . S
C1316 C1319 1.386 . S
H1317 C1333 0.930 . S
H1318 C1334 0.931 . S
C1319 H1307 0.929 . S
C1319 C1313 1.390 . S
C1319 C1316 1.386 . S
C1320 C1315 1.490 . S
C1320 C1322 1.390 . S
C1320 C1323 1.403 . S
H1321 C1327 0.930 . S
C1322 H1308 0.930 . S
C1322 C1320 1.390 . S
C1322 C1325 1.408 1_545 S
C1323 C1320 1.403 . S
C1323 C1324 1.524 . S
C1323 C1327 1.400 1_545 S
C1324 H1309 0.960 . S
C1324 H1310 0.960 . S
C1324 H1311 0.960 . S
C1324 C1323 1.524 . S
C1325 C1322 1.408 1_565 S
C1325 C1326 1.392 . S
C1325 C1329 1.495 . S
C1326 C1325 1.392 . S
C1326 C1327 1.385 . S
C1326 C1328 1.478 . S
C1327 H1321 0.930 . S
C1327 C1323 1.400 1_565 S
C1327 C1326 1.385 . S
C1328 C1326 1.478 . S
C1328 C1330 1.381 . S
C1328 C1334 1.383 . S
C1329 C1325 1.495 . S
C1329 H1335 0.959 . S
C1329 H1336 0.961 . S
C1329 H1337 0.960 . S
C1330 C1328 1.381 . S
C1330 C1331 1.394 . S
C1330 H1338 0.930 . S
C1331 C1330 1.394 . S
C1331 C1332 1.383 . S
C1331 H1339 0.929 . S
C1332 C1331 1.383 . S
C1332 C1333 1.377 . S
C1333 H1317 0.930 . S
C1333 C1332 1.377 . S
C1333 C1334 1.379 . S
C1334 H1318 0.931 . S
C1334 C1328 1.383 . S
C1334 C1333 1.379 . S
H1335 C1329 0.959 . S
H1336 C1329 0.961 . S
H1337 C1329 0.960 . S
H1338 C1330 0.930 . S
H1339 C1331 0.929 . S
H1340 C1348 0.929 . S
H1341 C1350 0.930 . S
H1342 C1352 0.930 . S
H1343 C1355 0.929 . S
H1344 C1358 0.930 . S
H1345 C1360 0.960 . S
H1346 C1360 0.960 . S
H1347 C1360 0.960 . S
C1348 H1340 0.929 . S
C1348 C1349 1.377 . S
C1348 C1350 1.384 . S
C1349 C1348 1.377 . S
C1349 C1355 1.390 . S
C1350 H1341 0.930 . S
C1350 C1348 1.384 . S
C1350 C1351 1.372 . S
C1351 C1350 1.372 . S
C1351 C1352 1.400 . S
C1351 C1356 1.490 . S
C1352 H1342 0.930 . S
C1352 C1351 1.400 . S
C1352 C1355 1.386 . S
H1353 C1369 0.930 . S
H1354 C1370 0.931 . S
C1355 H1343 0.929 . S
C1355 C1349 1.390 . S
C1355 C1352 1.386 . S
C1356 C1351 1.490 . S
C1356 C1358 1.395 . S
C1356 C1359 1.403 . S
H1357 C1363 0.930 . S
C1358 H1344 0.930 . S
C1358 C1356 1.395 . S
C1358 C1361 1.403 . S
C1359 C1356 1.403 . S
C1359 C1360 1.524 . S
C1359 C1363 1.400 . S
C1360 H1345 0.960 . S
C1360 H1346 0.960 . S
C1360 H1347 0.960 . S
C1360 C1359 1.524 . S
C1361 C1358 1.403 . S
C1361 C1362 1.392 . S
C1361 C1365 1.495 . S
C1362 C1361 1.392 . S
C1362 C1363 1.385 . S
C1362 C1364 1.478 . S
C1363 H1357 0.930 . S
C1363 C1359 1.400 . S
C1363 C1362 1.385 . S
C1364 C1362 1.478 . S
C1364 C1366 1.381 . S
C1364 C1370 1.383 . S
C1365 C1361 1.495 . S
C1365 H1371 0.959 . S
C1365 H1372 0.961 . S
C1365 H1373 0.960 . S
C1366 C1364 1.381 . S
C1366 C1367 1.394 . S
C1366 H1374 0.930 . S
C1367 C1366 1.394 . S
C1367 C1368 1.383 . S
C1367 H1375 0.929 . S
C1368 C1367 1.383 . S
C1368 C1369 1.377 . S
C1369 H1353 0.930 . S
C1369 C1368 1.377 . S
C1369 C1370 1.379 . S
C1370 H1354 0.931 . S
C1370 C1364 1.383 . S
C1370 C1369 1.379 . S
H1371 C1365 0.959 . S
H1372 C1365 0.961 . S
H1373 C1365 0.960 . S
H1374 C1366 0.930 . S
H1375 C1367 0.929 . S
C233 C4 1.103 . S
C252 C186 1.077 . S
C269 C18 1.113 . S
C288 C130 1.131 . S
C305 C200 1.101 . S
C324 C32 1.085 . S
C341 C46 1.109 . S
C360 C214 1.133 . S
C377 C60 1.111 . S
C396 C88 1.089 . S
C413 C144 1.102 . S
C432 C74 1.079 . S
C449 C158 1.106 . S
C468 C102 1.127 . S
C485 C116 1.109 . S
C504 C172 1.134 . S
C521 C40 1.535 . S
C540 C12 1.527 . S
C557 C26 1.535 . S
C576 C54 1.527 . S
C593 C179 1.467 . S
C612 C11 1.445 . S
C629 C25 1.471 . S
C648 C165 1.456 . S
C665 C67 1.473 . S
C684 C39 1.489 . S
C701 C151 1.467 . S
C720 C53 1.445 . S
C737 C19 1.401 . S
C756 C5 1.352 . S
C773 C47 1.392 . S
C792 C33 1.387 . S
C809 C145 1.389 . S
C828 C61 1.406 . S
C845 C109 1.545 . S
C864 C81 1.561 . S
C881 C95 1.542 . S
C900 C123 1.539 . S
C917 C222 1.520 . S
C936 C82 1.518 . S
C953 C96 1.521 . S
C972 C208 1.521 . S
C989 C138 1.521 . S
C1008 C110 1.520 . S
C1025 C124 1.520 . S
C1044 C194 1.519 . S
C1061 C89 1.331 . S
C1080 C75 1.290 . S
C1097 C117 1.348 . S
C1116 C103 1.368 . S
C1133 C131 1.343 . S
C1152 C187 1.365 . S
C1169 C152 1.535 . S
C1188 C166 1.536 . S
C1205 C180 1.535 . S
C1224 C68 1.536 . S
C1241 C173 1.399 . S
C1260 C159 1.425 . S
C1277 C207 1.549 . S
C1296 C193 1.549 . S
C1313 C137 1.542 . S
C1332 C221 1.531 . S
C1349 C215 1.336 . S
C1368 C201 1.332 . S
