# Generated by pormake.
# Topology umd, (4)-cn, num edge types: 1
# Building blocks:
#     Node 0, Type 0, BuildingBlock: ICAMEG_clean_sbu_1, # of connection points: 4
#     Node 1, Type 0, BuildingBlock: ICAMEG_clean_sbu_1, # of connection points: 4
#     Node 2, Type 0, BuildingBlock: ICAMEG_clean_sbu_1, # of connection points: 4
#     Node 3, Type 0, BuildingBlock: ICAMEG_clean_sbu_1, # of connection points: 4
#     Node 4, Type 0, BuildingBlock: ICAMEG_clean_sbu_1, # of connection points: 4
#     Node 5, Type 0, BuildingBlock: ICAMEG_clean_sbu_1, # of connection points: 4
#     Node 6, Type 0, BuildingBlock: ICAMEG_clean_sbu_1, # of connection points: 4
#     Node 7, Type 0, BuildingBlock: ICAMEG_clean_sbu_1, # of connection points: 4
#     Node 8, Type 0, BuildingBlock: ICAMEG_clean_sbu_1, # of connection points: 4
#     Node 9, Type 0, BuildingBlock: ICAMEG_clean_sbu_1, # of connection points: 4
#     Node 10, Type 0, BuildingBlock: ICAMEG_clean_sbu_1, # of connection points: 4
#     Node 11, Type 0, BuildingBlock: ICAMEG_clean_sbu_1, # of connection points: 4
#     Node 12, Type 0, BuildingBlock: ICAMEG_clean_sbu_1, # of connection points: 4
#     Node 13, Type 0, BuildingBlock: ICAMEG_clean_sbu_1, # of connection points: 4
#     Node 14, Type 0, BuildingBlock: ICAMEG_clean_sbu_1, # of connection points: 4
#     Node 15, Type 0, BuildingBlock: ICAMEG_clean_sbu_1, # of connection points: 4
#     Edge 16, Type (0, 0), BuildingBlock: UVAHIK_clean_linker_0, # of connection points: 2
#     Edge 17, Type (0, 0), BuildingBlock: UVAHIK_clean_linker_0, # of connection points: 2
#     Edge 18, Type (0, 0), BuildingBlock: UVAHIK_clean_linker_0, # of connection points: 2
#     Edge 19, Type (0, 0), BuildingBlock: UVAHIK_clean_linker_0, # of connection points: 2
#     Edge 20, Type (0, 0), BuildingBlock: UVAHIK_clean_linker_0, # of connection points: 2
#     Edge 21, Type (0, 0), BuildingBlock: UVAHIK_clean_linker_0, # of connection points: 2
#     Edge 22, Type (0, 0), BuildingBlock: UVAHIK_clean_linker_0, # of connection points: 2
#     Edge 23, Type (0, 0), BuildingBlock: UVAHIK_clean_linker_0, # of connection points: 2
#     Edge 24, Type (0, 0), BuildingBlock: UVAHIK_clean_linker_0, # of connection points: 2
#     Edge 25, Type (0, 0), BuildingBlock: UVAHIK_clean_linker_0, # of connection points: 2
#     Edge 26, Type (0, 0), BuildingBlock: UVAHIK_clean_linker_0, # of connection points: 2
#     Edge 27, Type (0, 0), BuildingBlock: UVAHIK_clean_linker_0, # of connection points: 2
#     Edge 28, Type (0, 0), BuildingBlock: UVAHIK_clean_linker_0, # of connection points: 2
#     Edge 29, Type (0, 0), BuildingBlock: UVAHIK_clean_linker_0, # of connection points: 2
#     Edge 30, Type (0, 0), BuildingBlock: UVAHIK_clean_linker_0, # of connection points: 2
#     Edge 31, Type (0, 0), BuildingBlock: UVAHIK_clean_linker_0, # of connection points: 2
#     Edge 32, Type (0, 0), BuildingBlock: UVAHIK_clean_linker_0, # of connection points: 2
#     Edge 33, Type (0, 0), BuildingBlock: UVAHIK_clean_linker_0, # of connection points: 2
#     Edge 34, Type (0, 0), BuildingBlock: UVAHIK_clean_linker_0, # of connection points: 2
#     Edge 35, Type (0, 0), BuildingBlock: UVAHIK_clean_linker_0, # of connection points: 2
#     Edge 36, Type (0, 0), BuildingBlock: UVAHIK_clean_linker_0, # of connection points: 2
#     Edge 37, Type (0, 0), BuildingBlock: UVAHIK_clean_linker_0, # of connection points: 2
#     Edge 38, Type (0, 0), BuildingBlock: UVAHIK_clean_linker_0, # of connection points: 2
#     Edge 39, Type (0, 0), BuildingBlock: UVAHIK_clean_linker_0, # of connection points: 2
#     Edge 40, Type (0, 0), BuildingBlock: UVAHIK_clean_linker_0, # of connection points: 2
#     Edge 41, Type (0, 0), BuildingBlock: UVAHIK_clean_linker_0, # of connection points: 2
#     Edge 42, Type (0, 0), BuildingBlock: UVAHIK_clean_linker_0, # of connection points: 2
#     Edge 43, Type (0, 0), BuildingBlock: UVAHIK_clean_linker_0, # of connection points: 2
#     Edge 44, Type (0, 0), BuildingBlock: UVAHIK_clean_linker_0, # of connection points: 2
#     Edge 45, Type (0, 0), BuildingBlock: UVAHIK_clean_linker_0, # of connection points: 2
#     Edge 46, Type (0, 0), BuildingBlock: UVAHIK_clean_linker_0, # of connection points: 2
#     Edge 47, Type (0, 0), BuildingBlock: UVAHIK_clean_linker_0, # of connection points: 2
# Relax obj value: 0.054
# Max RMSD: 0.158
# Mean RMSD: 0.158
data_MOF--net-umd--node1-ICAMEG_clean_sbu_1--edge1-UVAHIK_clean_linker_0
_symmetry_space_group_name_H-M    P1
_symmetry_Int_Tables_number       1
_symmetry_cell_setting            triclinic
loop_
_symmetry_equiv_pos_as_xyz
'x, y, z'
_cell_length_a     53.123231
_cell_length_b     53.123976
_cell_length_c     78.097561
_cell_angle_alpha  90.004011
_cell_angle_beta   90.004484
_cell_angle_gamma 90.044739
loop_
_atom_site_label
_atom_site_type_symbol
_atom_site_fract_x
_atom_site_fract_y
_atom_site_fract_z
_atom_type_partial_charge
Co0 Co 0.1825 0.48756 0.12254 0.0
Co1 Co 0.16829 0.42769 0.13685 0.0
O2 O 0.18403 0.45098 0.12082 0.0
C3 C 0.16059 0.47554 0.08911 0.0
O4 O 0.14678 0.45902 0.09735 0.0
C5 C 0.22192 0.41408 0.13721 0.0
O6 O 0.22674 0.43821 0.13871 0.0
O7 O 0.1822 0.44637 0.15672 0.0
O8 O 0.18866 0.4861 0.14776 0.0
H9 H 0.11869 0.40345 0.18908 0.0
H10 H 0.21668 0.46374 0.09725 0.0
O11 O 0.17616 0.4893 0.09728 0.0
H12 H 0.27173 0.51361 0.13516 0.0
H13 H 0.20011 0.57569 0.10214 0.0
H14 H 0.15963 0.52394 0.14677 0.0
H15 H 0.22575 0.51322 0.13954 0.0
H16 H 0.20202 0.52931 0.10081 0.0
O17 O 0.19925 0.40637 0.13625 0.0
H18 H 0.13809 0.43297 0.16857 0.0
H19 H 0.16633 0.37175 0.13937 0.0
H20 H 0.15744 0.57024 0.14869 0.0
H21 H 0.26255 0.46375 0.09234 0.0
H22 H 0.17779 0.59643 0.12626 0.0
H23 H 0.29041 0.48876 0.11141 0.0
O24 O 0.14555 0.48676 0.12668 0.0
H25 H 0.1724 0.38663 0.07895 0.0
H26 H 0.11739 0.40814 0.12766 0.0
H27 H 0.09942 0.38638 0.10257 0.0
H28 H 0.12701 0.37549 0.07799 0.0
H29 H 0.18956 0.40853 0.10425 0.0
H30 H 0.14741 0.34155 0.15964 0.0
H31 H 0.12329 0.35737 0.18467 0.0
O32 O 0.13719 0.44862 0.13779 0.0
C33 C 0.18852 0.4692 0.15939 0.0
C34 C 0.12906 0.39632 0.17819 0.0
C35 C 0.14521 0.36158 0.16168 0.0
N36 N 0.1531 0.40408 0.15271 0.0
C37 C 0.14002 0.41295 0.16651 0.0
C38 C 0.15592 0.37877 0.15026 0.0
C39 C 0.13168 0.37047 0.17572 0.0
C40 C 0.22866 0.47487 0.1055 0.0
N41 N 0.21854 0.48857 0.11861 0.0
C42 C 0.25463 0.47472 0.1027 0.0
C43 C 0.27025 0.48872 0.11342 0.0
C44 C 0.25979 0.50266 0.12676 0.0
C45 C 0.23374 0.50233 0.12919 0.0
C46 C 0.19122 0.56448 0.11201 0.0
C47 C 0.16866 0.53522 0.13702 0.0
C48 C 0.19219 0.53823 0.1113 0.0
N49 N 0.18113 0.52397 0.12378 0.0
C50 C 0.1673 0.56142 0.13815 0.0
C51 C 0.1787 0.57611 0.12555 0.0
C52 C 0.13053 0.47067 0.13321 0.0
C53 C 0.16021 0.3912 0.08961 0.0
C54 C 0.12951 0.40346 0.11701 0.0
C55 C 0.11924 0.39111 0.10285 0.0
C56 C 0.13473 0.38499 0.08907 0.0
N57 N 0.15453 0.40947 0.11746 0.0
C58 C 0.16984 0.4035 0.104 0.0
Co59 Co 0.51102 0.18236 0.62199 0.0
Co60 Co 0.57148 0.16812 0.63504 0.0
O61 O 0.54748 0.18355 0.61936 0.0
C62 C 0.52082 0.15996 0.58834 0.0
O63 O 0.53777 0.14609 0.5961 0.0
C64 C 0.58537 0.22163 0.63422 0.0
O65 O 0.56139 0.22647 0.63656 0.0
O66 O 0.55402 0.18275 0.65519 0.0
O67 O 0.51386 0.18884 0.64709 0.0
H68 H 0.5981 0.11988 0.68731 0.0
H69 H 0.5338 0.21601 0.59594 0.0
O70 O 0.50779 0.17572 0.59686 0.0
H71 H 0.48649 0.27196 0.63468 0.0
H72 H 0.42199 0.20039 0.60374 0.0
H73 H 0.47581 0.16001 0.64723 0.0
H74 H 0.48663 0.22603 0.63931 0.0
H75 H 0.46827 0.20195 0.60123 0.0
O76 O 0.593 0.19893 0.6334 0.0
H77 H 0.56765 0.13886 0.66726 0.0
H78 H 0.62749 0.16589 0.63623 0.0
H79 H 0.42962 0.15817 0.65033 0.0
H80 H 0.53402 0.26181 0.59076 0.0
H81 H 0.40239 0.17846 0.62847 0.0
H82 H 0.51031 0.29013 0.61025 0.0
O83 O 0.5118 0.14547 0.62633 0.0
H84 H 0.60954 0.17006 0.57615 0.0
H85 H 0.59005 0.11679 0.62614 0.0
H86 H 0.61036 0.09786 0.60083 0.0
H87 H 0.62024 0.12457 0.5756 0.0
H88 H 0.58907 0.18819 0.60167 0.0
H89 H 0.65861 0.14737 0.65601 0.0
H90 H 0.64395 0.12408 0.68173 0.0
O91 O 0.55029 0.1372 0.63694 0.0
C92 C 0.53132 0.18902 0.65832 0.0
C93 C 0.60472 0.1299 0.67612 0.0
C94 C 0.63868 0.14536 0.65856 0.0
N95 N 0.5958 0.15324 0.65052 0.0
C96 C 0.58757 0.14061 0.66469 0.0
C97 C 0.62099 0.15583 0.64742 0.0
C98 C 0.63044 0.13229 0.67299 0.0
C99 C 0.52323 0.22819 0.60437 0.0
N100 N 0.51012 0.21835 0.61785 0.0
C101 C 0.52351 0.25412 0.60142 0.0
C102 C 0.51023 0.26999 0.61238 0.0
C103 C 0.49688 0.25982 0.62609 0.0
C104 C 0.49706 0.2338 0.62866 0.0
C105 C 0.43365 0.19152 0.61336 0.0
C106 C 0.46407 0.16902 0.63773 0.0
C107 C 0.45986 0.1923 0.61199 0.0
N108 N 0.47469 0.18126 0.62415 0.0
C109 C 0.43793 0.16785 0.63952 0.0
C110 C 0.42267 0.17922 0.62725 0.0
C111 C 0.52803 0.13054 0.63279 0.0
C112 C 0.6054 0.15825 0.58708 0.0
C113 C 0.59428 0.12854 0.61521 0.0
C114 C 0.60582 0.11772 0.60093 0.0
C115 C 0.61137 0.13272 0.58678 0.0
N116 N 0.58851 0.1536 0.61541 0.0
C117 C 0.59392 0.16844 0.6016 0.0
Co118 Co 0.81387 0.50973 0.12221 0.0
Co119 Co 0.828 0.5704 0.1349 0.0
O120 O 0.81224 0.5462 0.11954 0.0
C121 C 0.83562 0.52 0.08849 0.0
O122 O 0.84942 0.53695 0.09633 0.0
C123 C 0.77438 0.5841 0.13499 0.0
O124 O 0.76951 0.56006 0.13703 0.0
O125 O 0.81406 0.55289 0.15521 0.0
O126 O 0.80785 0.51257 0.14742 0.0
H127 H 0.87754 0.59755 0.18651 0.0
H128 H 0.7795 0.53201 0.09639 0.0
O129 O 0.82011 0.50662 0.097 0.0
H130 H 0.72476 0.48424 0.13571 0.0
H131 H 0.79629 0.42052 0.10411 0.0
H132 H 0.83704 0.47475 0.14725 0.0
H133 H 0.77076 0.485 0.13998 0.0
H134 H 0.79427 0.46679 0.10162 0.0
O135 O 0.79706 0.59169 0.13376 0.0
H136 H 0.85816 0.56691 0.16675 0.0
H137 H 0.83002 0.62645 0.13595 0.0
H138 H 0.83935 0.42858 0.15032 0.0
H139 H 0.73362 0.5316 0.09157 0.0
H140 H 0.81888 0.40114 0.12864 0.0
H141 H 0.70591 0.50765 0.11136 0.0
O142 O 0.85082 0.51082 0.12625 0.0
H143 H 0.82388 0.60814 0.07598 0.0
H144 H 0.87891 0.58941 0.12521 0.0
H145 H 0.89687 0.60973 0.09957 0.0
H146 H 0.86928 0.61921 0.07472 0.0
H147 H 0.80674 0.58768 0.10183 0.0
H148 H 0.84891 0.65776 0.15544 0.0
H149 H 0.87296 0.64335 0.18089 0.0
O150 O 0.85912 0.54955 0.13641 0.0
C151 C 0.80786 0.53021 0.15853 0.0
C152 C 0.86719 0.60407 0.17542 0.0
C153 C 0.85109 0.63786 0.158 0.0
N154 N 0.84321 0.59489 0.15013 0.0
C155 C 0.85625 0.5868 0.16417 0.0
C156 C 0.84041 0.62005 0.14703 0.0
C157 C 0.86459 0.62976 0.17228 0.0
C158 C 0.76759 0.52134 0.10495 0.0
N159 N 0.77781 0.50843 0.11839 0.0
C160 C 0.74162 0.52126 0.1022 0.0
C161 C 0.72608 0.50785 0.11332 0.0
C162 C 0.73664 0.49473 0.127 0.0
C163 C 0.7627 0.49526 0.12937 0.0
C164 C 0.80524 0.43228 0.11366 0.0
C165 C 0.82794 0.46292 0.13783 0.0
C166 C 0.8042 0.45847 0.1123 0.0
N167 N 0.81533 0.47341 0.12437 0.0
C168 C 0.82938 0.4368 0.13961 0.0
C169 C 0.81791 0.42141 0.12743 0.0
C170 C 0.86582 0.52728 0.13238 0.0
C171 C 0.83608 0.60418 0.08675 0.0
C172 C 0.86678 0.59348 0.11445 0.0
C173 C 0.87705 0.60502 0.09998 0.0
C174 C 0.86156 0.61035 0.08604 0.0
N175 N 0.84177 0.5875 0.11505 0.0
C176 C 0.82645 0.5927 0.10145 0.0
Co177 Co 0.4884 0.8146 0.62174 0.0
Co178 Co 0.42718 0.82817 0.63337 0.0
O179 O 0.4521 0.81302 0.6183 0.0
C180 C 0.47956 0.83746 0.5882 0.0
O181 O 0.46254 0.85118 0.59601 0.0
C182 C 0.41387 0.7745 0.63223 0.0
O183 O 0.43778 0.76987 0.63503 0.0
O184 O 0.4438 0.81366 0.65386 0.0
O185 O 0.48446 0.80783 0.64679 0.0
H186 H 0.39742 0.87594 0.68506 0.0
H187 H 0.46726 0.78097 0.59501 0.0
O188 O 0.49254 0.82159 0.59667 0.0
H189 H 0.51335 0.72516 0.63452 0.0
H190 H 0.57837 0.79779 0.60518 0.0
H191 H 0.52226 0.83705 0.6478 0.0
H192 H 0.5124 0.77103 0.63939 0.0
H193 H 0.53223 0.79576 0.60174 0.0
O194 O 0.40608 0.79713 0.63123 0.0
H195 H 0.42906 0.85736 0.66571 0.0
H196 H 0.37112 0.82981 0.63325 0.0
H197 H 0.56827 0.83935 0.65183 0.0
H198 H 0.46787 0.73523 0.5896 0.0
H199 H 0.59665 0.81962 0.63042 0.0
H200 H 0.49098 0.70699 0.60947 0.0
O201 O 0.48706 0.85141 0.6263 0.0
H202 H 0.39236 0.82595 0.57357 0.0
H203 H 0.40846 0.8793 0.62409 0.0
H204 H 0.38935 0.89807 0.59829 0.0
H205 H 0.3812 0.87133 0.57279 0.0
H206 H 0.41158 0.80798 0.59959 0.0
H207 H 0.33882 0.84792 0.65232 0.0
H208 H 0.35193 0.87127 0.6784 0.0
O209 O 0.44791 0.85934 0.63582 0.0
C210 C 0.46636 0.80749 0.65755 0.0
C211 C 0.39147 0.8659 0.6737 0.0
C212 C 0.35859 0.85014 0.65533 0.0
N213 N 0.40194 0.84275 0.64829 0.0
C214 C 0.4093 0.85541 0.66267 0.0
C215 C 0.37695 0.8399 0.6446 0.0
C216 C 0.36595 0.86325 0.66996 0.0
C217 C 0.47757 0.76883 0.60362 0.0
N218 N 0.4899 0.77867 0.61744 0.0
C219 C 0.47776 0.74294 0.60053 0.0
C220 C 0.49069 0.7271 0.6117 0.0
C221 C 0.50324 0.73728 0.62577 0.0
C222 C 0.5026 0.76326 0.62847 0.0
C223 C 0.5662 0.80641 0.61462 0.0
C224 C 0.5345 0.82827 0.6385 0.0
C225 C 0.54007 0.80536 0.61272 0.0
N226 N 0.5246 0.81608 0.62464 0.0
C227 C 0.56053 0.82971 0.64082 0.0
C228 C 0.57644 0.81865 0.62879 0.0
C229 C 0.47035 0.86619 0.63233 0.0
C230 C 0.39574 0.83778 0.58462 0.0
C231 C 0.40495 0.86754 0.61305 0.0
C232 C 0.3941 0.87827 0.59848 0.0
C233 C 0.38952 0.86325 0.58418 0.0
N234 N 0.41099 0.84254 0.61337 0.0
C235 C 0.40651 0.82768 0.59942 0.0
Co236 Co 0.18348 0.50997 0.37182 0.0
Co237 Co 0.16972 0.5713 0.36056 0.0
O238 O 0.18507 0.54623 0.37545 0.0
C239 C 0.16122 0.51825 0.40565 0.0
O240 O 0.1475 0.5356 0.39819 0.0
C241 C 0.22338 0.5846 0.36147 0.0
O242 O 0.22797 0.56072 0.35853 0.0
O243 O 0.18399 0.55492 0.3399 0.0
O244 O 0.18986 0.5142 0.34675 0.0
H245 H 0.12133 0.60152 0.30926 0.0
H246 H 0.21749 0.53081 0.39841 0.0
O247 O 0.17688 0.50544 0.39689 0.0
H248 H 0.27275 0.48528 0.35826 0.0
H249 H 0.20065 0.4198 0.3877 0.0
H250 H 0.16061 0.47642 0.34574 0.0
H251 H 0.22681 0.48622 0.35372 0.0
H252 H 0.20272 0.46589 0.3914 0.0
O253 O 0.20077 0.59239 0.36263 0.0
H254 H 0.14014 0.5697 0.32838 0.0
H255 H 0.16806 0.62736 0.36093 0.0
H256 H 0.15825 0.43046 0.34146 0.0
H257 H 0.26331 0.5302 0.4035 0.0
H258 H 0.17837 0.40182 0.36254 0.0
H259 H 0.29128 0.50738 0.3833 0.0
O260 O 0.14661 0.51135 0.36756 0.0
H261 H 0.17264 0.60571 0.42046 0.0
H262 H 0.11868 0.58987 0.3702 0.0
H263 H 0.10022 0.60882 0.39615 0.0
H264 H 0.12727 0.61686 0.42152 0.0
H265 H 0.1903 0.58664 0.39429 0.0
H266 H 0.14972 0.65982 0.34209 0.0
H267 H 0.12608 0.64695 0.31608 0.0
O268 O 0.13854 0.55057 0.3582 0.0
C269 C 0.19009 0.5324 0.33607 0.0
C270 C 0.1315 0.60736 0.32059 0.0
C271 C 0.14747 0.64009 0.33901 0.0
N272 N 0.15494 0.59668 0.34583 0.0
C273 C 0.14212 0.58943 0.33149 0.0
C274 C 0.15784 0.62163 0.34961 0.0
C275 C 0.1342 0.63285 0.32442 0.0
C276 C 0.22951 0.52063 0.38967 0.0
N277 N 0.21947 0.50845 0.37584 0.0
C278 C 0.25545 0.52044 0.39257 0.0
C279 C 0.27114 0.50766 0.38122 0.0
C280 C 0.26076 0.49527 0.36716 0.0
C281 C 0.23473 0.4959 0.36464 0.0
C282 C 0.19186 0.43209 0.3784 0.0
C283 C 0.16955 0.46407 0.35489 0.0
C284 C 0.19293 0.45819 0.38045 0.0
N285 N 0.18199 0.4738 0.3687 0.0
C286 C 0.16809 0.43807 0.35244 0.0
C287 C 0.17936 0.42201 0.36428 0.0
C288 C 0.13175 0.5281 0.36167 0.0
C289 C 0.16068 0.60238 0.40947 0.0
C290 C 0.13057 0.59331 0.38119 0.0
C291 C 0.12002 0.60408 0.39584 0.0
C292 C 0.13521 0.60859 0.41006 0.0
N293 N 0.15558 0.58729 0.3807 0.0
C294 C 0.1706 0.59169 0.39459 0.0
Co295 Co 0.48838 0.18378 0.87119 0.0
Co296 Co 0.42773 0.16967 0.85845 0.0
O297 O 0.45192 0.18523 0.8739 0.0
C298 C 0.47811 0.16132 0.90467 0.0
O299 O 0.46147 0.14744 0.8966 0.0
C300 C 0.4138 0.22324 0.85887 0.0
O301 O 0.43781 0.22825 0.8568 0.0
O302 O 0.44513 0.18408 0.83824 0.0
O303 O 0.48548 0.19024 0.84603 0.0
H304 H 0.40057 0.12105 0.80644 0.0
H305 H 0.466 0.21761 0.89731 0.0
O306 O 0.49145 0.1771 0.89637 0.0
H307 H 0.5136 0.27319 0.85844 0.0
H308 H 0.57753 0.20128 0.88945 0.0
H309 H 0.52343 0.16123 0.84594 0.0
H310 H 0.51296 0.22727 0.85378 0.0
H311 H 0.53126 0.20308 0.89196 0.0
O312 O 0.40631 0.2005 0.85991 0.0
H313 H 0.43123 0.14016 0.82631 0.0
H314 H 0.3717 0.16744 0.85749 0.0
H315 H 0.56961 0.15914 0.84284 0.0
H316 H 0.46631 0.2634 0.90252 0.0
H317 H 0.59698 0.17927 0.86471 0.0
H318 H 0.49017 0.29153 0.88297 0.0
O319 O 0.48742 0.14689 0.86682 0.0
H320 H 0.39037 0.17244 0.91751 0.0
H321 H 0.40896 0.1185 0.8677 0.0
H322 H 0.38891 0.09994 0.89324 0.0
H323 H 0.3795 0.12698 0.91839 0.0
H324 H 0.41054 0.1902 0.89175 0.0
H325 H 0.34038 0.14879 0.83789 0.0
H326 H 0.35478 0.12531 0.81219 0.0
O327 O 0.44872 0.13866 0.85661 0.0
C328 C 0.46779 0.1904 0.83495 0.0
C329 C 0.39406 0.13115 0.81763 0.0
C330 C 0.36028 0.14675 0.83527 0.0
N331 N 0.40325 0.15466 0.84312 0.0
C332 C 0.41133 0.14194 0.82895 0.0
C333 C 0.37809 0.15729 0.8463 0.0
C334 C 0.36838 0.13357 0.82085 0.0
C335 C 0.47664 0.2297 0.88885 0.0
N336 N 0.48956 0.21976 0.87532 0.0
C337 C 0.47665 0.25562 0.89182 0.0
C338 C 0.49001 0.2714 0.88083 0.0
C339 C 0.50315 0.26112 0.86706 0.0
C340 C 0.50268 0.23511 0.86447 0.0
C341 C 0.56581 0.19249 0.87982 0.0
C342 C 0.53523 0.17018 0.85543 0.0
C343 C 0.53961 0.19341 0.88119 0.0
N344 N 0.5247 0.18247 0.86902 0.0
C345 C 0.56136 0.16887 0.85365 0.0
C346 C 0.57671 0.18014 0.86593 0.0
C347 C 0.47103 0.13196 0.86055 0.0
C348 C 0.3943 0.16049 0.90661 0.0
C349 C 0.4049 0.13039 0.87859 0.0
C350 C 0.39352 0.11978 0.89301 0.0
C351 C 0.38824 0.13497 0.90711 0.0
N352 N 0.41078 0.15544 0.8782 0.0
C353 C 0.40561 0.17046 0.89196 0.0
Co354 Co 0.8157 0.48659 0.37153 0.0
Co355 Co 0.83001 0.4261 0.35859 0.0
O356 O 0.81451 0.45014 0.3742 0.0
C357 C 0.83805 0.47686 0.40519 0.0
O358 O 0.85191 0.45988 0.39745 0.0
C359 C 0.77648 0.41231 0.35928 0.0
O360 O 0.7717 0.43629 0.3569 0.0
O361 O 0.81554 0.44353 0.33837 0.0
O362 O 0.80927 0.48368 0.34643 0.0
H363 H 0.87858 0.39929 0.3065 0.0
H364 H 0.782 0.46387 0.39758 0.0
O365 O 0.8223 0.48988 0.39666 0.0
H366 H 0.72611 0.51106 0.35873 0.0
H367 H 0.79762 0.57567 0.38966 0.0
H368 H 0.83809 0.52174 0.34627 0.0
H369 H 0.77205 0.51092 0.35414 0.0
H370 H 0.79607 0.5294 0.39223 0.0
O371 O 0.79916 0.40463 0.36016 0.0
H372 H 0.8595 0.42981 0.32645 0.0
H373 H 0.83216 0.37008 0.35746 0.0
H374 H 0.83993 0.56792 0.34311 0.0
H375 H 0.73619 0.46366 0.40272 0.0
H376 H 0.81959 0.59521 0.36492 0.0
H377 H 0.70791 0.48731 0.38318 0.0
O378 O 0.85258 0.4858 0.36722 0.0
H379 H 0.82763 0.38818 0.41751 0.0
H380 H 0.88126 0.40749 0.36767 0.0
H381 H 0.9 0.38721 0.39305 0.0
H382 H 0.87311 0.37743 0.41821 0.0
H383 H 0.8097 0.4086 0.39191 0.0
H384 H 0.85078 0.33889 0.33778 0.0
H385 H 0.87427 0.35346 0.31212 0.0
O386 O 0.86097 0.44726 0.35675 0.0
C387 C 0.80921 0.46621 0.33521 0.0
C388 C 0.86848 0.39271 0.31767 0.0
C389 C 0.85284 0.35881 0.33521 0.0
N390 N 0.84497 0.40173 0.34318 0.0
C391 C 0.85771 0.4099 0.32904 0.0
C392 C 0.84231 0.37655 0.34629 0.0
C393 C 0.86603 0.367 0.32082 0.0
C394 C 0.76984 0.47442 0.38913 0.0
N395 N 0.7797 0.4875 0.37564 0.0
C396 C 0.74391 0.47414 0.39206 0.0
C397 C 0.72804 0.48739 0.38107 0.0
C398 C 0.73825 0.5007 0.36735 0.0
C399 C 0.76427 0.50052 0.3648 0.0
C400 C 0.80651 0.56398 0.38006 0.0
C401 C 0.82906 0.5335 0.35574 0.0
C402 C 0.80573 0.53778 0.38146 0.0
N403 N 0.8168 0.52292 0.36933 0.0
C404 C 0.83023 0.55963 0.35392 0.0
C405 C 0.81884 0.57493 0.36617 0.0
C406 C 0.86757 0.46955 0.36086 0.0
C407 C 0.83952 0.39227 0.40661 0.0
C408 C 0.86944 0.40329 0.37856 0.0
C409 C 0.88015 0.39178 0.39289 0.0
C410 C 0.86505 0.38628 0.407 0.0
N411 N 0.84438 0.4091 0.37827 0.0
C412 C 0.82945 0.40373 0.39205 0.0
Co413 Co 0.51031 0.81556 0.87081 0.0
Co414 Co 0.57052 0.82933 0.85702 0.0
O415 O 0.54682 0.81394 0.87292 0.0
C416 C 0.52154 0.8375 0.90438 0.0
O417 O 0.53835 0.85127 0.89639 0.0
C418 C 0.58392 0.77568 0.85734 0.0
O419 O 0.55984 0.771 0.85529 0.0
O420 O 0.55231 0.81509 0.83704 0.0
O421 O 0.5123 0.8093 0.84563 0.0
H422 H 0.59615 0.87791 0.80464 0.0
H423 H 0.53346 0.7814 0.89638 0.0
O424 O 0.50797 0.82199 0.89601 0.0
H425 H 0.48424 0.72637 0.85807 0.0
H426 H 0.42164 0.79834 0.89026 0.0
H427 H 0.47459 0.83852 0.84616 0.0
H428 H 0.48485 0.77234 0.85363 0.0
H429 H 0.46797 0.79625 0.8921 0.0
O430 O 0.59174 0.79832 0.8582 0.0
H431 H 0.56609 0.85899 0.825 0.0
H432 H 0.62652 0.83106 0.85508 0.0
H433 H 0.42834 0.84089 0.84374 0.0
H434 H 0.53322 0.73555 0.90135 0.0
H435 H 0.40155 0.8207 0.8659 0.0
H436 H 0.50854 0.7077 0.88208 0.0
O437 O 0.51139 0.85248 0.86662 0.0
H438 H 0.61021 0.82634 0.91539 0.0
H439 H 0.58995 0.88038 0.86593 0.0
H440 H 0.61118 0.89881 0.89108 0.0
H441 H 0.62144 0.87172 0.91604 0.0
H442 H 0.58884 0.80871 0.89003 0.0
H443 H 0.65726 0.84951 0.83498 0.0
H444 H 0.6421 0.87322 0.80958 0.0
O445 O 0.54966 0.86048 0.85556 0.0
C446 C 0.52945 0.80905 0.83418 0.0
C447 C 0.60299 0.86771 0.81569 0.0
C448 C 0.63728 0.85174 0.83271 0.0
N449 N 0.59455 0.84416 0.84129 0.0
C450 C 0.58606 0.85703 0.82729 0.0
C451 C 0.6198 0.8413 0.84403 0.0
C452 C 0.62877 0.86504 0.81847 0.0
C453 C 0.52247 0.76943 0.88804 0.0
N454 N 0.50908 0.77955 0.87479 0.0
C455 C 0.52249 0.74347 0.89088 0.0
C456 C 0.50867 0.72785 0.88004 0.0
C457 C 0.49504 0.73832 0.86656 0.0
C458 C 0.4955 0.76435 0.8641 0.0
C459 C 0.43312 0.80717 0.88051 0.0
C460 C 0.46304 0.82956 0.85579 0.0
C461 C 0.45934 0.80609 0.8815 0.0
N462 N 0.47393 0.81708 0.86917 0.0
C463 C 0.43688 0.83102 0.85438 0.0
C464 C 0.42185 0.81971 0.86683 0.0
C465 C 0.52761 0.86733 0.86004 0.0
C466 C 0.60591 0.83831 0.90457 0.0
C467 C 0.59436 0.86846 0.87675 0.0
C468 C 0.60641 0.879 0.89094 0.0
C469 C 0.61217 0.86379 0.90493 0.0
N470 N 0.58829 0.84345 0.87648 0.0
C471 C 0.59392 0.82841 0.89015 0.0
Co472 Co 0.81425 0.51125 0.87111 0.0
Co473 Co 0.82833 0.57149 0.85751 0.0
O474 O 0.81267 0.54777 0.87328 0.0
C475 C 0.83565 0.52218 0.9049 0.0
O476 O 0.84953 0.53912 0.89711 0.0
C477 C 0.77469 0.58495 0.85747 0.0
O478 O 0.77002 0.56089 0.85536 0.0
O479 O 0.81438 0.55336 0.83739 0.0
O480 O 0.8084 0.51336 0.84591 0.0
H481 H 0.87781 0.59719 0.80553 0.0
H482 H 0.77971 0.53437 0.89646 0.0
O483 O 0.82025 0.50875 0.89635 0.0
H484 H 0.72522 0.48545 0.85763 0.0
H485 H 0.79651 0.42252 0.89022 0.0
H486 H 0.83759 0.47562 0.84659 0.0
H487 H 0.77126 0.48595 0.85356 0.0
H488 H 0.79447 0.46884 0.89214 0.0
O489 O 0.79733 0.59275 0.85849 0.0
H490 H 0.85852 0.5671 0.82572 0.0
H491 H 0.83014 0.62749 0.85564 0.0
H492 H 0.83993 0.42938 0.84408 0.0
H493 H 0.73378 0.53424 0.90107 0.0
H494 H 0.81928 0.40251 0.86601 0.0
H495 H 0.7062 0.50972 0.88153 0.0
O496 O 0.85124 0.5123 0.86722 0.0
H497 H 0.82445 0.61112 0.91587 0.0
H498 H 0.87925 0.59083 0.86682 0.0
H499 H 0.89731 0.61204 0.89209 0.0
H500 H 0.86983 0.62232 0.91686 0.0
H501 H 0.80721 0.58977 0.89039 0.0
H502 H 0.84895 0.65825 0.83571 0.0
H503 H 0.87307 0.64313 0.81049 0.0
O504 O 0.85947 0.55059 0.85626 0.0
C505 C 0.80835 0.53052 0.83447 0.0
C506 C 0.86742 0.60401 0.81652 0.0
C507 C 0.8512 0.63828 0.83344 0.0
N508 N 0.84344 0.59554 0.84192 0.0
C509 C 0.85653 0.58706 0.82801 0.0
C510 C 0.84055 0.62078 0.84466 0.0
C511 C 0.86473 0.62978 0.81929 0.0
C512 C 0.76786 0.52344 0.88801 0.0
N513 N 0.77816 0.51007 0.87482 0.0
C514 C 0.74185 0.52353 0.89064 0.0
C515 C 0.72638 0.50979 0.87966 0.0
C516 C 0.73704 0.49619 0.86624 0.0
C517 C 0.76312 0.49657 0.86398 0.0
C518 C 0.80554 0.43403 0.88056 0.0
C519 C 0.82843 0.46404 0.85611 0.0
C520 C 0.80449 0.46025 0.88161 0.0
N521 N 0.81573 0.47488 0.86941 0.0
C522 C 0.82988 0.43788 0.85466 0.0
C523 C 0.81831 0.42281 0.86697 0.0
C524 C 0.86622 0.52852 0.86077 0.0
C525 C 0.8366 0.60681 0.90514 0.0
C526 C 0.86717 0.59524 0.87754 0.0
C527 C 0.8775 0.60728 0.89181 0.0
C528 C 0.86207 0.61305 0.9057 0.0
N529 N 0.84217 0.5892 0.87709 0.0
C530 C 0.82691 0.59483 0.89065 0.0
Co531 Co 0.48892 0.81513 0.37099 0.0
Co532 Co 0.42761 0.82867 0.35956 0.0
O533 O 0.45265 0.81358 0.37456 0.0
C534 C 0.48032 0.83815 0.4045 0.0
O535 O 0.46333 0.85191 0.39669 0.0
C536 C 0.41428 0.77503 0.3609 0.0
O537 O 0.43817 0.77037 0.35801 0.0
O538 O 0.44404 0.81403 0.33904 0.0
O539 O 0.48477 0.80826 0.34597 0.0
H540 H 0.3974 0.87615 0.30787 0.0
H541 H 0.46797 0.78162 0.39786 0.0
O542 O 0.49324 0.82222 0.39603 0.0
H543 H 0.51374 0.72563 0.3583 0.0
H544 H 0.57901 0.79837 0.38727 0.0
H545 H 0.52258 0.83742 0.34476 0.0
H546 H 0.51276 0.77147 0.35334 0.0
H547 H 0.53289 0.79637 0.39088 0.0
O548 O 0.40651 0.79767 0.36188 0.0
H549 H 0.42922 0.85765 0.32713 0.0
H550 H 0.37156 0.83038 0.35992 0.0
H551 H 0.56856 0.83969 0.34056 0.0
H552 H 0.46863 0.73591 0.40337 0.0
H553 H 0.5971 0.82007 0.36192 0.0
H554 H 0.49157 0.70757 0.38347 0.0
O555 O 0.48756 0.85191 0.36636 0.0
H556 H 0.3934 0.82685 0.41952 0.0
H557 H 0.40903 0.87988 0.36879 0.0
H558 H 0.39022 0.89883 0.39462 0.0
H559 H 0.38231 0.87225 0.42023 0.0
H560 H 0.41231 0.8087 0.39346 0.0
H561 H 0.3391 0.84842 0.34095 0.0
H562 H 0.35197 0.87159 0.31475 0.0
O563 O 0.44834 0.8598 0.35694 0.0
C564 C 0.46657 0.80786 0.33528 0.0
C565 C 0.39156 0.86619 0.31928 0.0
C566 C 0.35883 0.85059 0.33784 0.0
N567 N 0.40224 0.84319 0.34471 0.0
C568 C 0.40949 0.85575 0.33026 0.0
C569 C 0.37729 0.84039 0.34852 0.0
C570 C 0.36607 0.86359 0.32314 0.0
C571 C 0.47821 0.76944 0.38924 0.0
N572 N 0.49043 0.77922 0.37535 0.0
C573 C 0.47842 0.74356 0.39238 0.0
C574 C 0.49127 0.72767 0.3812 0.0
C575 C 0.5037 0.73778 0.36707 0.0
C576 C 0.50304 0.76375 0.36431 0.0
C577 C 0.56676 0.80694 0.37786 0.0
C578 C 0.53489 0.82869 0.35404 0.0
C579 C 0.54065 0.80591 0.37985 0.0
N580 N 0.5251 0.81657 0.36796 0.0
C581 C 0.5609 0.83011 0.35163 0.0
C582 C 0.57691 0.81911 0.36363 0.0
C583 C 0.47082 0.86665 0.36033 0.0
C584 C 0.39668 0.83861 0.40843 0.0
C585 C 0.40562 0.86819 0.37988 0.0
C586 C 0.39494 0.87902 0.39446 0.0
C587 C 0.39049 0.86409 0.40882 0.0
N588 N 0.41163 0.84317 0.37959 0.0
C589 C 0.40728 0.82841 0.39361 0.0
Co590 Co 0.18273 0.48751 0.87182 0.0
Co591 Co 0.16845 0.42764 0.85756 0.0
O592 O 0.18413 0.45094 0.8736 0.0
C593 C 0.16059 0.47567 0.90521 0.0
O594 O 0.14675 0.4592 0.89695 0.0
C595 C 0.22204 0.41381 0.85749 0.0
O596 O 0.22697 0.4379 0.85587 0.0
O597 O 0.18262 0.44618 0.83771 0.0
O598 O 0.18903 0.48595 0.84662 0.0
H599 H 0.11925 0.40336 0.80514 0.0
H600 H 0.2167 0.46366 0.89723 0.0
O601 O 0.17625 0.48936 0.89706 0.0
H602 H 0.27211 0.51323 0.8594 0.0
H603 H 0.20052 0.57565 0.89214 0.0
H604 H 0.16011 0.52388 0.84748 0.0
H605 H 0.22616 0.51298 0.85491 0.0
H606 H 0.20226 0.52928 0.89354 0.0
O607 O 0.19933 0.4062 0.85836 0.0
H608 H 0.13855 0.4329 0.8257 0.0
H609 H 0.16633 0.3717 0.85512 0.0
H610 H 0.15809 0.57019 0.84548 0.0
H611 H 0.26253 0.46354 0.90227 0.0
H612 H 0.17839 0.59639 0.86793 0.0
H613 H 0.29058 0.48839 0.88324 0.0
O614 O 0.1458 0.48681 0.86758 0.0
H615 H 0.17183 0.38682 0.91555 0.0
H616 H 0.11739 0.40832 0.86654 0.0
H617 H 0.0991 0.38673 0.89158 0.0
H618 H 0.12639 0.37585 0.91632 0.0
H619 H 0.18932 0.40856 0.89029 0.0
H620 H 0.1475 0.34148 0.83482 0.0
H621 H 0.12367 0.35728 0.80966 0.0
O622 O 0.13742 0.44869 0.85643 0.0
C623 C 0.18897 0.469 0.83503 0.0
C624 C 0.12951 0.39624 0.8161 0.0
C625 C 0.14539 0.36151 0.83274 0.0
N626 N 0.15332 0.40402 0.84167 0.0
C627 C 0.1404 0.41287 0.8278 0.0
C628 C 0.15604 0.3787 0.84418 0.0
C629 C 0.13202 0.37039 0.81863 0.0
C630 C 0.22875 0.47473 0.889 0.0
N631 N 0.21875 0.48842 0.87585 0.0
C632 C 0.2547 0.4745 0.89187 0.0
C633 C 0.27043 0.48842 0.88117 0.0
C634 C 0.26009 0.50234 0.86779 0.0
C635 C 0.23405 0.50209 0.86529 0.0
C636 C 0.19164 0.56444 0.88226 0.0
C637 C 0.16913 0.53517 0.85723 0.0
C638 C 0.19252 0.53819 0.88301 0.0
N639 N 0.18148 0.52392 0.87053 0.0
C640 C 0.16786 0.56137 0.85606 0.0
C641 C 0.17923 0.57606 0.86867 0.0
C642 C 0.13078 0.47077 0.86098 0.0
C643 C 0.15977 0.39139 0.90482 0.0
C644 C 0.12939 0.40364 0.87725 0.0
C645 C 0.11893 0.39139 0.89139 0.0
C646 C 0.13426 0.38528 0.90526 0.0
N647 N 0.15443 0.40956 0.87692 0.0
C648 C 0.16959 0.40359 0.89046 0.0
Co649 Co 0.51014 0.18258 0.37133 0.0
Co650 Co 0.57116 0.16863 0.35943 0.0
O651 O 0.54648 0.18387 0.37466 0.0
C652 C 0.51897 0.15967 0.40489 0.0
O653 O 0.53599 0.14589 0.39714 0.0
C654 C 0.58498 0.22214 0.36072 0.0
O655 O 0.56107 0.22701 0.35808 0.0
O656 O 0.55454 0.18349 0.33907 0.0
O657 O 0.51394 0.18939 0.34628 0.0
H658 H 0.60005 0.12112 0.30741 0.0
H659 H 0.53171 0.21597 0.39803 0.0
O660 O 0.50607 0.17557 0.39639 0.0
H661 H 0.4858 0.27225 0.35873 0.0
H662 H 0.42041 0.2001 0.38817 0.0
H663 H 0.47593 0.16043 0.34536 0.0
H664 H 0.48636 0.22639 0.3538 0.0
H665 H 0.46658 0.20176 0.39147 0.0
O666 O 0.59257 0.19944 0.36162 0.0
H667 H 0.56874 0.13981 0.32696 0.0
H668 H 0.6272 0.16642 0.35936 0.0
H669 H 0.42987 0.1585 0.34147 0.0
H670 H 0.53148 0.2617 0.40351 0.0
H671 H 0.40179 0.17843 0.36298 0.0
H672 H 0.50847 0.29018 0.38375 0.0
O673 O 0.51117 0.14578 0.36676 0.0
H674 H 0.60653 0.16996 0.4191 0.0
H675 H 0.58943 0.11722 0.36844 0.0
H676 H 0.60859 0.09804 0.39407 0.0
H677 H 0.61725 0.12447 0.41964 0.0
H678 H 0.58725 0.18835 0.39323 0.0
H679 H 0.65917 0.14819 0.34009 0.0
H680 H 0.64564 0.12526 0.31393 0.0
O681 O 0.55012 0.13768 0.35692 0.0
C682 C 0.53198 0.18976 0.33547 0.0
C683 C 0.60618 0.13098 0.3188 0.0
C684 C 0.63937 0.1462 0.33713 0.0
N685 N 0.59615 0.15395 0.34436 0.0
C686 C 0.58854 0.14152 0.32994 0.0
C687 C 0.62119 0.15651 0.34798 0.0
C688 C 0.63176 0.13334 0.32246 0.0
C689 C 0.52144 0.22822 0.38947 0.0
N690 N 0.50895 0.21851 0.37567 0.0
C691 C 0.52147 0.2541 0.3926 0.0
C692 C 0.50858 0.27008 0.38149 0.0
C693 C 0.49587 0.26003 0.36745 0.0
C694 C 0.49629 0.23406 0.36471 0.0
C695 C 0.43245 0.19139 0.37869 0.0
C696 C 0.46382 0.1693 0.35471 0.0
C697 C 0.4586 0.19223 0.38051 0.0
N698 N 0.4739 0.1814 0.36853 0.0
C699 C 0.43776 0.16807 0.35247 0.0
C700 C 0.42202 0.17924 0.36455 0.0
C701 C 0.52769 0.13096 0.36054 0.0
C702 C 0.60293 0.15827 0.40801 0.0
C703 C 0.59316 0.12885 0.37951 0.0
C704 C 0.60403 0.11789 0.39398 0.0
C705 C 0.6089 0.13274 0.40832 0.0
N706 N 0.58736 0.15392 0.37931 0.0
C707 C 0.59212 0.1686 0.39331 0.0
Co708 Co 0.81543 0.48767 0.62213 0.0
Co709 Co 0.82941 0.42671 0.63416 0.0
O710 O 0.81415 0.45132 0.61888 0.0
C711 C 0.83834 0.47875 0.58859 0.0
O712 O 0.85211 0.46172 0.59635 0.0
C713 C 0.77588 0.41287 0.63291 0.0
O714 O 0.77101 0.43678 0.6355 0.0
O715 O 0.81456 0.44342 0.6545 0.0
O716 O 0.80864 0.48397 0.64718 0.0
H717 H 0.87698 0.39804 0.68622 0.0
H718 H 0.78204 0.46599 0.59548 0.0
O719 O 0.82244 0.49166 0.59708 0.0
H720 H 0.72575 0.51202 0.6347 0.0
H721 H 0.79787 0.57733 0.60515 0.0
H722 H 0.8376 0.52198 0.64803 0.0
H723 H 0.77162 0.5115 0.63962 0.0
H724 H 0.79622 0.53115 0.60193 0.0
O725 O 0.79859 0.40528 0.63202 0.0
H726 H 0.85826 0.42926 0.66661 0.0
H727 H 0.83161 0.37066 0.63435 0.0
H728 H 0.83952 0.56805 0.65185 0.0
H729 H 0.73631 0.46618 0.59001 0.0
H730 H 0.81956 0.59605 0.6303 0.0
H731 H 0.70783 0.48925 0.60973 0.0
O732 O 0.85223 0.48667 0.6267 0.0
H733 H 0.82802 0.39106 0.57457 0.0
H734 H 0.8808 0.40839 0.62518 0.0
H735 H 0.89997 0.38911 0.59958 0.0
H736 H 0.87351 0.38034 0.57404 0.0
H737 H 0.80965 0.41046 0.6004 0.0
H738 H 0.84986 0.33878 0.65367 0.0
H739 H 0.87283 0.35243 0.67979 0.0
O740 O 0.86036 0.44776 0.63661 0.0
C741 C 0.80828 0.466 0.65804 0.0
C742 C 0.8671 0.39186 0.67485 0.0
C743 C 0.85185 0.3586 0.65659 0.0
N744 N 0.8441 0.40179 0.64928 0.0
C745 C 0.85654 0.40945 0.66367 0.0
C746 C 0.84153 0.37673 0.64571 0.0
C747 C 0.86474 0.36627 0.67124 0.0
C748 C 0.76979 0.47628 0.60402 0.0
N749 N 0.7795 0.48883 0.6178 0.0
C750 C 0.74391 0.47623 0.6009 0.0
C751 C 0.72793 0.48915 0.61199 0.0
C752 C 0.73797 0.50192 0.62601 0.0
C753 C 0.76395 0.50153 0.62874 0.0
C754 C 0.80659 0.56533 0.61465 0.0
C755 C 0.82872 0.53405 0.63867 0.0
C756 C 0.80576 0.53918 0.61287 0.0
N757 N 0.8166 0.52392 0.62487 0.0
C758 C 0.82994 0.56012 0.64087 0.0
C759 C 0.81876 0.57582 0.62877 0.0
C760 C 0.86707 0.47018 0.63294 0.0
C761 C 0.83972 0.39471 0.58564 0.0
C762 C 0.86916 0.40462 0.61411 0.0
C763 C 0.88012 0.39367 0.59966 0.0
C764 C 0.86526 0.38874 0.58534 0.0
N765 N 0.8441 0.41041 0.61431 0.0
C766 C 0.8294 0.40559 0.60033 0.0
Co767 Co 0.51059 0.81535 0.12177 0.0
Co768 Co 0.57059 0.82961 0.13581 0.0
O769 O 0.54716 0.81376 0.11992 0.0
C770 C 0.52226 0.83676 0.08811 0.0
O771 O 0.53905 0.85056 0.0961 0.0
C772 C 0.58411 0.77597 0.13635 0.0
O773 O 0.55998 0.77121 0.138 0.0
O774 O 0.55206 0.81591 0.15581 0.0
O775 O 0.51224 0.80949 0.14701 0.0
H776 H 0.59524 0.87968 0.18776 0.0
H777 H 0.53416 0.78083 0.0966 0.0
O778 O 0.50858 0.82138 0.09651 0.0
H779 H 0.48457 0.72631 0.13501 0.0
H780 H 0.42225 0.79757 0.10186 0.0
H781 H 0.47447 0.83862 0.146 0.0
H782 H 0.48502 0.77234 0.13911 0.0
H783 H 0.46861 0.79558 0.10035 0.0
O784 O 0.59186 0.79861 0.13527 0.0
H785 H 0.56556 0.86016 0.1674 0.0
H786 H 0.62655 0.83148 0.13818 0.0
H787 H 0.42818 0.84091 0.1481 0.0
H788 H 0.53409 0.7349 0.09196 0.0
H789 H 0.40176 0.82028 0.12591 0.0
H790 H 0.50922 0.70731 0.11128 0.0
O791 O 0.5115 0.85235 0.12568 0.0
H792 H 0.61138 0.82489 0.07786 0.0
H793 H 0.59016 0.8804 0.12636 0.0
H794 H 0.61186 0.89808 0.10116 0.0
H795 H 0.62261 0.87025 0.07668 0.0
H796 H 0.58952 0.80802 0.10326 0.0
H797 H 0.65691 0.85053 0.15829 0.0
H798 H 0.64128 0.87492 0.18326 0.0
O799 O 0.54971 0.86076 0.13668 0.0
C800 C 0.52923 0.80968 0.15858 0.0
C801 C 0.60228 0.86918 0.1769 0.0
C802 C 0.6369 0.85279 0.16037 0.0
N803 N 0.59433 0.84492 0.15154 0.0
C804 C 0.58557 0.85816 0.1653 0.0
C805 C 0.61962 0.84202 0.14904 0.0
C806 C 0.62811 0.86648 0.17437 0.0
C807 C 0.52309 0.76897 0.10496 0.0
N808 N 0.5095 0.77926 0.11805 0.0
C809 C 0.52321 0.74297 0.10231 0.0
C810 C 0.50928 0.72749 0.11317 0.0
C811 C 0.49546 0.73814 0.12649 0.0
C812 C 0.49582 0.76421 0.12877 0.0
C813 C 0.43356 0.80659 0.11162 0.0
C814 C 0.46308 0.82946 0.13637 0.0
C815 C 0.45981 0.80556 0.11082 0.0
N816 N 0.47419 0.81679 0.12316 0.0
C817 C 0.43689 0.83088 0.13759 0.0
C818 C 0.42207 0.81933 0.12513 0.0
C819 C 0.52766 0.86742 0.1321 0.0
C820 C 0.60687 0.83719 0.08847 0.0
C821 C 0.59477 0.86816 0.11576 0.0
C822 C 0.60709 0.87828 0.10153 0.0
C823 C 0.61313 0.86265 0.0878 0.0
N824 N 0.5887 0.84317 0.11631 0.0
C825 C 0.59459 0.82772 0.10291 0.0
Co826 Co 0.18296 0.50927 0.62269 0.0
Co827 Co 0.16938 0.57066 0.63389 0.0
O828 O 0.18458 0.54552 0.61899 0.0
C829 C 0.16053 0.51746 0.58889 0.0
O830 O 0.1468 0.5348 0.59637 0.0
C831 C 0.22304 0.58396 0.63273 0.0
O832 O 0.22765 0.56009 0.6357 0.0
O833 O 0.18385 0.55437 0.65452 0.0
O834 O 0.18949 0.51359 0.64773 0.0
H835 H 0.1215 0.60114 0.68534 0.0
H836 H 0.21686 0.52997 0.59597 0.0
O837 O 0.17623 0.50467 0.59764 0.0
H838 H 0.27226 0.48447 0.63606 0.0
H839 H 0.19988 0.41902 0.6069 0.0
H840 H 0.1602 0.47586 0.64888 0.0
H841 H 0.22635 0.48552 0.64071 0.0
H842 H 0.20201 0.46509 0.60313 0.0
O843 O 0.20041 0.59174 0.63164 0.0
H844 H 0.14012 0.56923 0.66621 0.0
H845 H 0.16771 0.62672 0.6334 0.0
H846 H 0.15778 0.42992 0.65324 0.0
H847 H 0.26264 0.52924 0.59077 0.0
H848 H 0.17772 0.40117 0.63215 0.0
H849 H 0.29069 0.50644 0.61093 0.0
O850 O 0.14612 0.51072 0.62703 0.0
H851 H 0.17171 0.60474 0.5739 0.0
H852 H 0.11825 0.5892 0.62443 0.0
H853 H 0.09953 0.608 0.59852 0.0
H854 H 0.12633 0.61588 0.57301 0.0
H855 H 0.18963 0.58582 0.60004 0.0
H856 H 0.14956 0.65928 0.65225 0.0
H857 H 0.12617 0.64653 0.67839 0.0
O858 O 0.13821 0.54995 0.63644 0.0
C859 C 0.18989 0.53184 0.65837 0.0
C860 C 0.13156 0.60693 0.67395 0.0
C861 C 0.14734 0.63956 0.65539 0.0
N862 N 0.15475 0.59611 0.64863 0.0
C863 C 0.14207 0.58894 0.66304 0.0
C864 C 0.1576 0.62105 0.64478 0.0
C865 C 0.13421 0.63239 0.67005 0.0
C866 C 0.22891 0.51979 0.60471 0.0
N867 N 0.21893 0.50768 0.61857 0.0
C868 C 0.25483 0.51954 0.60173 0.0
C869 C 0.27056 0.50677 0.61307 0.0
C870 C 0.26024 0.49445 0.62717 0.0
C871 C 0.23423 0.49514 0.62976 0.0
C872 C 0.19117 0.43135 0.6162 0.0
C873 C 0.16906 0.46346 0.63972 0.0
C874 C 0.19227 0.45744 0.61411 0.0
N875 N 0.18143 0.47312 0.62586 0.0
C876 C 0.16757 0.43747 0.64222 0.0
C877 C 0.17874 0.42135 0.63037 0.0
C878 C 0.13134 0.52749 0.63299 0.0
C879 C 0.15986 0.60148 0.58495 0.0
C880 C 0.13004 0.59258 0.61338 0.0
C881 C 0.11934 0.60326 0.59876 0.0
C882 C 0.13439 0.60769 0.58445 0.0
N883 N 0.15504 0.58655 0.61378 0.0
C884 C 0.16992 0.59087 0.59981 0.0
Co885 Co 0.48701 0.18426 0.12213 0.0
Co886 Co 0.42705 0.16969 0.1361 0.0
O887 O 0.45044 0.18569 0.12026 0.0
C888 C 0.47545 0.1627 0.08852 0.0
O889 O 0.45883 0.14878 0.09659 0.0
C890 C 0.41329 0.22326 0.13673 0.0
O891 O 0.4374 0.22814 0.13832 0.0
O892 O 0.44552 0.18339 0.15614 0.0
O893 O 0.48529 0.19013 0.14736 0.0
H894 H 0.40253 0.11932 0.18795 0.0
H895 H 0.46332 0.21865 0.09692 0.0
O896 O 0.48905 0.17822 0.09685 0.0
H897 H 0.51261 0.27343 0.13535 0.0
H898 H 0.57529 0.20242 0.10224 0.0
H899 H 0.52322 0.16122 0.1464 0.0
H900 H 0.51236 0.2274 0.13947 0.0
H901 H 0.52892 0.20418 0.1007 0.0
O902 O 0.40565 0.20059 0.13562 0.0
H903 H 0.43217 0.13907 0.16766 0.0
H904 H 0.3711 0.16754 0.13841 0.0
H905 H 0.56952 0.15916 0.14852 0.0
H906 H 0.4632 0.26457 0.09226 0.0
H907 H 0.59587 0.17986 0.12633 0.0
H908 H 0.48791 0.2923 0.1116 0.0
O909 O 0.48629 0.14725 0.12606 0.0
H910 H 0.3864 0.17444 0.0781 0.0
H911 H 0.40772 0.11885 0.12654 0.0
H912 H 0.38618 0.10116 0.10128 0.0
H913 H 0.37538 0.12903 0.07683 0.0
H914 H 0.40809 0.19132 0.10357 0.0
H915 H 0.34079 0.14828 0.15845 0.0
H916 H 0.35648 0.12387 0.18339 0.0
O917 O 0.44806 0.13863 0.13694 0.0
C918 C 0.4683 0.18977 0.15892 0.0
C919 C 0.39546 0.12983 0.17709 0.0
C920 C 0.36081 0.14611 0.16055 0.0
N921 N 0.40336 0.15422 0.15179 0.0
C922 C 0.41215 0.14098 0.16553 0.0
C923 C 0.37805 0.157 0.14926 0.0
C924 C 0.36963 0.13241 0.17454 0.0
C925 C 0.47432 0.23057 0.10528 0.0
N926 N 0.48793 0.22035 0.11839 0.0
C927 C 0.47409 0.25657 0.10263 0.0
C928 C 0.48793 0.27212 0.1135 0.0
C929 C 0.50179 0.26154 0.12683 0.0
C930 C 0.50154 0.23547 0.12912 0.0
C931 C 0.56401 0.19337 0.11201 0.0
C932 C 0.53458 0.1704 0.13676 0.0
C933 C 0.53776 0.19426 0.11118 0.0
N934 N 0.52342 0.18299 0.12353 0.0
C935 C 0.56077 0.16911 0.13799 0.0
C936 C 0.57554 0.18071 0.12553 0.0
C937 C 0.47018 0.13209 0.13242 0.0
C938 C 0.39093 0.16212 0.0887 0.0
C939 C 0.40308 0.1311 0.11596 0.0
C940 C 0.39085 0.12098 0.10169 0.0
C941 C 0.38479 0.13664 0.08798 0.0
N942 N 0.40903 0.15612 0.11657 0.0
C943 C 0.40311 0.1716 0.10318 0.0
C944 C 0.09373 0.49815 0.12601 0.0
C945 C 0.10366 0.47743 0.13491 0.0
C946 C 0.06806 0.50368 0.1269 0.0
C947 C 0.01541 0.51902 0.13718 0.0
H948 H 0.96799 0.4635 0.13797 0.0
C949 C 0.90885 0.53588 0.14406 0.0
C950 C 0.8927 0.52065 0.13425 0.0
C951 C 0.93445 0.53026 0.14527 0.0
C952 C 0.98095 0.47924 0.1376 0.0
H953 H 0.09453 0.44673 0.15218 0.0
H954 H 0.05001 0.45683 0.15416 0.0
H955 H 0.01289 0.45485 0.13748 0.0
H956 H 0.89077 0.48748 0.11809 0.0
H957 H 0.9355 0.4781 0.11978 0.0
H958 H 0.98346 0.54338 0.13646 0.0
C959 C 0.06187 0.46841 0.14608 0.0
C960 C 0.00675 0.47428 0.13759 0.0
C961 C 0.08747 0.46271 0.14504 0.0
C962 C 0.90266 0.49951 0.12584 0.0
C963 C 0.92833 0.49405 0.12689 0.0
C964 C 0.9896 0.52397 0.13702 0.0
C965 C 0.05178 0.48878 0.13687 0.0
C966 C 0.02432 0.49411 0.13733 0.0
C967 C 0.94457 0.50944 0.13654 0.0
C968 C 0.97204 0.50414 0.13717 0.0
H969 H 0.10566 0.50978 0.118 0.0
H970 H 0.06092 0.51927 0.11942 0.0
H971 H 0.02836 0.53476 0.13721 0.0
H972 H 0.90175 0.5522 0.15082 0.0
H973 H 0.94628 0.54224 0.15309 0.0
C974 C 0.4614 0.909 0.64432 0.0
C975 C 0.47694 0.89303 0.63462 0.0
C976 C 0.46706 0.93457 0.64588 0.0
C977 C 0.47383 0.98992 0.63819 0.0
H978 H 0.54303 0.01305 0.63914 0.0
C979 C 0.50024 0.09367 0.62625 0.0
C980 C 0.52109 0.10377 0.63495 0.0
C981 C 0.49451 0.06808 0.62757 0.0
C982 C 0.52357 0.00698 0.63913 0.0
H983 H 0.51069 0.89141 0.61901 0.0
H984 H 0.52011 0.93605 0.62128 0.0
H985 H 0.53419 0.96821 0.63974 0.0
H986 H 0.55177 0.09507 0.65231 0.0
H987 H 0.54129 0.05069 0.65506 0.0
H988 H 0.46319 0.02871 0.63815 0.0
C989 C 0.5039 0.92877 0.62807 0.0
C990 C 0.51851 0.98119 0.6392 0.0
C991 C 0.49841 0.90315 0.62668 0.0
C992 C 0.5357 0.08785 0.64532 0.0
C993 C 0.52978 0.06233 0.64681 0.0
C994 C 0.47889 0.01572 0.63832 0.0
C995 C 0.48823 0.94485 0.63762 0.0
C996 C 0.49359 0.97231 0.63851 0.0
C997 C 0.5093 0.05204 0.63778 0.0
C998 C 0.50383 0.02459 0.63858 0.0
H999 H 0.44481 0.90177 0.65072 0.0
H1000 H 0.45483 0.94626 0.6536 0.0
H1001 H 0.45441 0.98383 0.63745 0.0
H1002 H 0.48869 0.10538 0.61806 0.0
H1003 H 0.47886 0.06079 0.6202 0.0
C1004 C 0.08891 0.53692 0.34969 0.0
C1005 C 0.10491 0.52147 0.35943 0.0
C1006 C 0.06336 0.53116 0.34811 0.0
C1007 C 0.00801 0.52417 0.35567 0.0
H1008 H 0.98519 0.45487 0.35487 0.0
C1009 C 0.90434 0.49745 0.36742 0.0
C1010 C 0.89435 0.47652 0.35876 0.0
C1011 C 0.92991 0.50324 0.36615 0.0
C1012 C 0.99118 0.47435 0.35483 0.0
H1013 H 0.10662 0.48781 0.37512 0.0
H1014 H 0.06202 0.47821 0.37283 0.0
H1015 H 0.03 0.4639 0.35436 0.0
H1016 H 0.90323 0.44573 0.34153 0.0
H1017 H 0.94761 0.45632 0.33887 0.0
H1018 H 0.96918 0.53464 0.35556 0.0
C1019 C 0.06925 0.49442 0.36601 0.0
C1020 C 0.01695 0.47953 0.35481 0.0
C1021 C 0.09485 0.50001 0.36742 0.0
C1022 C 0.91037 0.46187 0.34848 0.0
C1023 C 0.93588 0.46786 0.34705 0.0
C1024 C 0.98224 0.519 0.35548 0.0
C1025 C 0.05314 0.50998 0.3564 0.0
C1026 C 0.02571 0.50449 0.35545 0.0
C1027 C 0.94605 0.48844 0.35603 0.0
C1028 C 0.97348 0.49402 0.35527 0.0
H1029 H 0.0961 0.5535 0.34326 0.0
H1030 H 0.05165 0.54331 0.34034 0.0
H1031 H 0.01401 0.54363 0.35636 0.0
H1032 H 0.89254 0.50903 0.37554 0.0
H1033 H 0.93711 0.51898 0.37349 0.0
C1034 C 0.5358 0.91022 0.84795 0.0
C1035 C 0.52096 0.8942 0.85813 0.0
C1036 C 0.53014 0.93581 0.8467 0.0
C1037 C 0.52422 0.99109 0.8548 0.0
H1038 H 0.45513 0.01443 0.85579 0.0
C1039 C 0.49896 0.09511 0.86676 0.0
C1040 C 0.47775 0.10513 0.85846 0.0
C1041 C 0.50447 0.06947 0.86555 0.0
C1042 C 0.47454 0.00828 0.85526 0.0
H1043 H 0.48844 0.89252 0.87491 0.0
H1044 H 0.47903 0.93723 0.87314 0.0
H1045 H 0.46372 0.96953 0.85512 0.0
H1046 H 0.44617 0.09622 0.84188 0.0
H1047 H 0.45624 0.05174 0.83934 0.0
H1048 H 0.53502 0.02985 0.85438 0.0
C1049 C 0.49469 0.92996 0.86577 0.0
C1050 C 0.47948 0.98247 0.85515 0.0
C1051 C 0.50017 0.9043 0.86687 0.0
C1052 C 0.46254 0.08907 0.84857 0.0
C1053 C 0.46822 0.0635 0.8472 0.0
C1054 C 0.51927 0.0169 0.85473 0.0
C1055 C 0.50969 0.94607 0.85574 0.0
C1056 C 0.50438 0.97354 0.85509 0.0
C1057 C 0.48908 0.05331 0.85585 0.0
C1058 C 0.49437 0.02584 0.85513 0.0
H1059 H 0.55184 0.90302 0.84094 0.0
H1060 H 0.54182 0.94754 0.8386 0.0
H1061 H 0.54364 0.98495 0.85496 0.0
H1062 H 0.51098 0.10694 0.87457 0.0
H1063 H 0.52046 0.06225 0.87261 0.0
C1064 C 0.90301 0.50086 0.86769 0.0
C1065 C 0.89312 0.52184 0.85905 0.0
C1066 C 0.92867 0.49531 0.86674 0.0
C1067 C 0.99011 0.52474 0.85642 0.0
H1068 H 0.01305 0.4555 0.85658 0.0
C1069 C 0.08771 0.46282 0.84912 0.0
C1070 C 0.10394 0.47762 0.85917 0.0
C1071 C 0.06215 0.46863 0.84797 0.0
C1072 C 0.00701 0.47496 0.8563 0.0
H1073 H 0.90234 0.55303 0.84221 0.0
H1074 H 0.94686 0.5429 0.84013 0.0
H1075 H 0.9682 0.46437 0.85596 0.0
H1076 H 0.10601 0.51026 0.87583 0.0
H1077 H 0.06134 0.51997 0.87421 0.0
H1078 H 0.02893 0.53533 0.8562 0.0
C1079 C 0.93496 0.53112 0.84804 0.0
C1080 C 0.98123 0.48005 0.85621 0.0
C1081 C 0.90936 0.53683 0.84914 0.0
C1082 C 0.09407 0.49855 0.86788 0.0
C1083 C 0.06844 0.5042 0.86688 0.0
C1084 C 0.01589 0.51965 0.85634 0.0
C1085 C 0.94499 0.51045 0.85697 0.0
C1086 C 0.97244 0.505 0.85641 0.0
C1087 C 0.05212 0.48922 0.85699 0.0
C1088 C 0.02468 0.49469 0.85642 0.0
H1089 H 0.89106 0.48902 0.87553 0.0
H1090 H 0.93577 0.47948 0.87401 0.0
H1091 H 0.98406 0.54419 0.8568 0.0
H1092 H 0.09473 0.44667 0.84213 0.0
H1093 H 0.05026 0.45697 0.83996 0.0
C1094 C 0.53583 0.08847 0.34784 0.0
C1095 C 0.52088 0.10421 0.35811 0.0
C1096 C 0.53001 0.06296 0.34612 0.0
C1097 C 0.47906 0.01608 0.35384 0.0
H1098 H 0.53457 0.96878 0.35296 0.0
C1099 C 0.49876 0.90369 0.36595 0.0
C1100 C 0.47741 0.89346 0.35793 0.0
C1101 C 0.50423 0.92931 0.36447 0.0
C1102 C 0.51883 0.9817 0.35334 0.0
H1103 H 0.48801 0.10554 0.37457 0.0
H1104 H 0.47837 0.06097 0.37206 0.0
H1105 H 0.54322 0.01365 0.35367 0.0
H1106 H 0.44549 0.90196 0.34158 0.0
H1107 H 0.45548 0.94644 0.33853 0.0
H1108 H 0.45468 0.98411 0.35448 0.0
C1109 C 0.4942 0.06838 0.36493 0.0
C1110 C 0.52379 0.00751 0.35347 0.0
C1111 C 0.49981 0.09396 0.36646 0.0
C1112 C 0.46198 0.90929 0.34804 0.0
C1113 C 0.46763 0.93485 0.34638 0.0
C1114 C 0.4741 0.99026 0.35392 0.0
C1115 C 0.50932 0.0525 0.35483 0.0
C1116 C 0.50397 0.02505 0.35385 0.0
C1117 C 0.48865 0.94526 0.35475 0.0
C1118 C 0.49393 0.97273 0.3538 0.0
H1119 H 0.55207 0.09583 0.34111 0.0
H1120 H 0.54179 0.05144 0.33796 0.0
H1121 H 0.46331 0.029 0.35385 0.0
H1122 H 0.51095 0.89206 0.37376 0.0
H1123 H 0.52032 0.93668 0.37134 0.0
C1124 C 0.90401 0.49811 0.62699 0.0
C1125 C 0.89382 0.47701 0.63533 0.0
C1126 C 0.92959 0.50377 0.62849 0.0
C1127 C 0.99057 0.4743 0.63983 0.0
H1128 H 0.01379 0.54347 0.63886 0.0
C1129 C 0.08866 0.53633 0.64521 0.0
C1130 C 0.10451 0.52093 0.63532 0.0
C1131 C 0.06311 0.53064 0.64687 0.0
C1132 C 0.00768 0.52403 0.63941 0.0
H1133 H 0.90232 0.44579 0.65229 0.0
H1134 H 0.94671 0.45615 0.65537 0.0
H1135 H 0.96892 0.53473 0.63955 0.0
H1136 H 0.10596 0.48742 0.61946 0.0
H1137 H 0.06135 0.47798 0.62187 0.0
H1138 H 0.02932 0.46362 0.64027 0.0
C1139 C 0.93514 0.46792 0.64725 0.0
C1140 C 0.98188 0.51901 0.63953 0.0
C1141 C 0.90963 0.46206 0.64556 0.0
C1142 C 0.09431 0.49958 0.62728 0.0
C1143 C 0.0687 0.49408 0.62876 0.0
C1144 C 0.01637 0.47933 0.63993 0.0
C1145 C 0.94553 0.48866 0.63855 0.0
C1146 C 0.97298 0.49407 0.6395 0.0
C1147 C 0.05273 0.5096 0.6385 0.0
C1148 C 0.02527 0.50425 0.63947 0.0
H1149 H 0.89239 0.50992 0.61891 0.0
H1150 H 0.93695 0.51964 0.62136 0.0
H1151 H 0.98447 0.45485 0.63962 0.0
H1152 H 0.09597 0.55281 0.65169 0.0
H1153 H 0.05151 0.54275 0.65474 0.0
C1154 C 0.46211 0.08883 0.14387 0.0
C1155 C 0.47699 0.10521 0.13399 0.0
C1156 C 0.46786 0.06324 0.1448 0.0
C1157 C 0.51884 0.01709 0.13622 0.0
H1158 H 0.46351 0.96944 0.13628 0.0
C1159 C 0.50008 0.90416 0.12489 0.0
C1160 C 0.52095 0.89432 0.13369 0.0
C1161 C 0.49455 0.92983 0.12573 0.0
C1162 C 0.4792 0.98246 0.13612 0.0
H1163 H 0.50967 0.10754 0.1174 0.0
H1164 H 0.51928 0.06281 0.11863 0.0
H1165 H 0.45469 0.01431 0.13575 0.0
H1166 H 0.55193 0.90363 0.15068 0.0
H1167 H 0.54182 0.94816 0.15256 0.0
H1168 H 0.54336 0.98524 0.13578 0.0
C1169 C 0.5035 0.06981 0.126 0.0
C1170 C 0.47414 0.00824 0.13608 0.0
C1171 C 0.49792 0.09547 0.12522 0.0
C1172 C 0.53583 0.91062 0.14363 0.0
C1173 C 0.53013 0.93622 0.14462 0.0
C1174 C 0.52391 0.9913 0.13609 0.0
C1175 C 0.48846 0.05334 0.13572 0.0
C1176 C 0.49389 0.02589 0.1361 0.0
C1177 C 0.50958 0.94621 0.13553 0.0
C1178 C 0.50415 0.97365 0.13601 0.0
H1179 H 0.44596 0.09574 0.15091 0.0
H1180 H 0.45616 0.05123 0.15269 0.0
H1181 H 0.53453 0.03011 0.13646 0.0
H1182 H 0.48833 0.89215 0.11703 0.0
H1183 H 0.47881 0.9369 0.11835 0.0
C1184 C 0.20009 0.54682 0.30631 0.0
C1185 C 0.19697 0.52703 0.31808 0.0
C1186 C 0.20445 0.54178 0.28904 0.0
C1187 C 0.22175 0.49115 0.25836 0.0
H1188 H 0.18163 0.53069 0.22678 0.0
C1189 C 0.19608 0.45852 0.1902 0.0
C1190 C 0.19539 0.4766 0.17705 0.0
C1191 C 0.20075 0.46571 0.20709 0.0
C1192 C 0.19331 0.51976 0.23538 0.0
H1193 H 0.19701 0.48638 0.32099 0.0
H1194 H 0.20403 0.47761 0.29079 0.0
H1195 H 0.18179 0.54139 0.25703 0.0
H1196 H 0.20006 0.51635 0.17131 0.0
H1197 H 0.20818 0.52881 0.20083 0.0
H1198 H 0.23251 0.46899 0.23664 0.0
C1199 C 0.20348 0.49705 0.29496 0.0
C1200 C 0.19344 0.5259 0.25274 0.0
C1201 C 0.19928 0.50208 0.31228 0.0
C1202 C 0.2003 0.50193 0.18111 0.0
C1203 C 0.20487 0.50912 0.19803 0.0
C1204 C 0.22152 0.48493 0.24098 0.0
C1205 C 0.20564 0.51684 0.28309 0.0
C1206 C 0.20738 0.51147 0.26448 0.0
C1207 C 0.20476 0.49113 0.21122 0.0
C1208 C 0.20702 0.49898 0.22936 0.0
H1209 H 0.19872 0.56628 0.31037 0.0
H1210 H 0.20652 0.55745 0.28028 0.0
H1211 H 0.23299 0.4799 0.26703 0.0
H1212 H 0.19246 0.43883 0.18755 0.0
H1213 H 0.20028 0.45147 0.21701 0.0
C1214 C 0.54302 0.19594 0.68907 0.0
C1215 C 0.52466 0.19611 0.67608 0.0
C1216 C 0.53632 0.20058 0.70606 0.0
C1217 C 0.4823 0.19444 0.73455 0.0
H1218 H 0.52366 0.23195 0.76656 0.0
C1219 C 0.45455 0.20159 0.80518 0.0
C1220 C 0.47392 0.19746 0.81712 0.0
C1221 C 0.46015 0.206 0.788 0.0
C1222 C 0.512 0.22132 0.75778 0.0
H1223 H 0.48503 0.20247 0.67073 0.0
H1224 H 0.47347 0.21059 0.70038 0.0
H1225 H 0.53466 0.23154 0.73616 0.0
H1226 H 0.51446 0.19581 0.82046 0.0
H1227 H 0.5242 0.20288 0.79038 0.0
H1228 H 0.46011 0.18347 0.75606 0.0
C1229 C 0.49297 0.20656 0.6974 0.0
C1230 C 0.51827 0.22112 0.7404 0.0
C1231 C 0.49964 0.20198 0.6804 0.0
C1232 C 0.49907 0.19887 0.8116 0.0
C1233 C 0.50467 0.20308 0.79436 0.0
C1234 C 0.47611 0.19454 0.75189 0.0
C1235 C 0.51115 0.20544 0.71044 0.0
C1236 C 0.50361 0.20747 0.72864 0.0
C1237 C 0.48524 0.20617 0.78231 0.0
C1238 C 0.49101 0.20776 0.76374 0.0
H1239 H 0.56248 0.19155 0.68621 0.0
H1240 H 0.55071 0.19936 0.71586 0.0
H1241 H 0.4709 0.18337 0.72585 0.0
H1242 H 0.43496 0.20099 0.80903 0.0
H1243 H 0.44477 0.20885 0.77911 0.0
C1244 C 0.79971 0.49882 0.18185 0.0
C1245 C 0.80107 0.524 0.17639 0.0
C1246 C 0.79563 0.49313 0.1991 0.0
C1247 C 0.80431 0.52145 0.24165 0.0
H1248 H 0.7672 0.46289 0.25724 0.0
C1249 C 0.79637 0.49786 0.31309 0.0
C1250 C 0.80224 0.47284 0.31743 0.0
C1251 C 0.79193 0.50453 0.29608 0.0
C1252 C 0.77765 0.47928 0.25304 0.0
H1253 H 0.79766 0.56292 0.18459 0.0
H1254 H 0.79003 0.55295 0.21452 0.0
H1255 H 0.76685 0.474 0.22686 0.0
H1256 H 0.80693 0.43503 0.30731 0.0
H1257 H 0.79934 0.4468 0.27764 0.0
H1258 H 0.81541 0.52657 0.2677 0.0
C1259 C 0.79281 0.53761 0.20558 0.0
C1260 C 0.7775 0.48561 0.23567 0.0
C1261 C 0.79708 0.54331 0.18839 0.0
C1262 C 0.80254 0.45449 0.30444 0.0
C1263 C 0.79802 0.46118 0.28743 0.0
C1264 C 0.80435 0.5152 0.25897 0.0
C1265 C 0.79264 0.51249 0.2112 0.0
C1266 C 0.79108 0.50662 0.22975 0.0
C1267 C 0.79317 0.48635 0.28304 0.0
C1268 C 0.79128 0.4939 0.26483 0.0
H1269 H 0.80267 0.48348 0.17294 0.0
H1270 H 0.79584 0.47358 0.20302 0.0
H1271 H 0.8154 0.53745 0.23751 0.0
H1272 H 0.79579 0.51247 0.32275 0.0
H1273 H 0.7879 0.52402 0.29308 0.0
C1274 C 0.54048 0.8015 0.8034 0.0
C1275 C 0.52229 0.80206 0.81649 0.0
C1276 C 0.53344 0.79678 0.78649 0.0
C1277 C 0.47943 0.80389 0.75811 0.0
H1278 H 0.51963 0.76463 0.72641 0.0
C1279 C 0.4522 0.79699 0.68727 0.0
C1280 C 0.4719 0.80041 0.67547 0.0
C1281 C 0.45737 0.79255 0.70452 0.0
C1282 C 0.50828 0.77575 0.7351 0.0
H1283 H 0.48254 0.79704 0.8221 0.0
H1284 H 0.47036 0.78881 0.79255 0.0
H1285 H 0.53056 0.76517 0.75681 0.0
H1286 H 0.51253 0.80077 0.67247 0.0
H1287 H 0.52152 0.79363 0.70262 0.0
H1288 H 0.45767 0.81523 0.73648 0.0
C1289 C 0.49001 0.79229 0.79541 0.0
C1290 C 0.51452 0.77601 0.75249 0.0
C1291 C 0.49704 0.79693 0.81234 0.0
C1292 C 0.4969 0.79827 0.6812 0.0
C1293 C 0.50206 0.794 0.6985 0.0
C1294 C 0.47327 0.80372 0.74076 0.0
C1295 C 0.50808 0.79259 0.78228 0.0
C1296 C 0.50033 0.79035 0.76412 0.0
C1297 C 0.48235 0.7916 0.7104 0.0
C1298 C 0.4878 0.78992 0.72901 0.0
H1299 H 0.56011 0.80531 0.80612 0.0
H1300 H 0.54774 0.79739 0.77661 0.0
H1301 H 0.46839 0.81546 0.76671 0.0
H1302 H 0.43271 0.7982 0.68327 0.0
H1303 H 0.44176 0.79028 0.7133 0.0
C1304 C 0.79634 0.49812 0.81261 0.0
C1305 C 0.8016 0.52336 0.81674 0.0
C1306 C 0.7919 0.49105 0.79567 0.0
C1307 C 0.77631 0.51535 0.75261 0.0
H1308 H 0.81538 0.45816 0.73701 0.0
C1309 C 0.79893 0.49682 0.68149 0.0
C1310 C 0.80106 0.47175 0.6759 0.0
C1311 C 0.79455 0.5022 0.69874 0.0
C1312 C 0.80391 0.47386 0.74117 0.0
H1313 H 0.80529 0.5611 0.80632 0.0
H1314 H 0.7977 0.54865 0.77678 0.0
H1315 H 0.81542 0.46918 0.76719 0.0
H1316 H 0.79871 0.43266 0.6839 0.0
H1317 H 0.79058 0.44208 0.71386 0.0
H1318 H 0.76514 0.52023 0.72647 0.0
C1319 C 0.79685 0.5344 0.78668 0.0
C1320 C 0.80398 0.48019 0.75849 0.0
C1321 C 0.80138 0.54149 0.80362 0.0
C1322 C 0.79751 0.45219 0.68779 0.0
C1323 C 0.79295 0.45758 0.705 0.0
C1324 C 0.77614 0.50893 0.73525 0.0
C1325 C 0.79252 0.50905 0.7825 0.0
C1326 C 0.79048 0.5012 0.76436 0.0
C1327 C 0.79202 0.48263 0.71074 0.0
C1328 C 0.79025 0.48831 0.72931 0.0
H1329 H 0.79619 0.48367 0.82239 0.0
H1330 H 0.78831 0.47141 0.79283 0.0
H1331 H 0.76551 0.53149 0.75682 0.0
H1332 H 0.80152 0.51235 0.67268 0.0
H1333 H 0.79419 0.52171 0.70275 0.0
C1334 C 0.45216 0.79744 0.30559 0.0
C1335 C 0.47196 0.80076 0.31734 0.0
C1336 C 0.4572 0.79304 0.28832 0.0
C1337 C 0.50785 0.77618 0.25757 0.0
H1338 H 0.46799 0.81624 0.22614 0.0
C1339 C 0.54008 0.80228 0.18939 0.0
C1340 C 0.52194 0.80288 0.17627 0.0
C1341 C 0.53299 0.79755 0.20629 0.0
C1342 C 0.47901 0.80458 0.23469 0.0
H1343 H 0.51261 0.80098 0.32021 0.0
H1344 H 0.52136 0.79389 0.29002 0.0
H1345 H 0.45737 0.81584 0.25639 0.0
H1346 H 0.48219 0.79802 0.17061 0.0
H1347 H 0.4699 0.7898 0.20015 0.0
H1348 H 0.53002 0.76567 0.23579 0.0
C1349 C 0.50193 0.79432 0.29421 0.0
C1350 C 0.47292 0.80432 0.25205 0.0
C1351 C 0.4969 0.79856 0.31152 0.0
C1352 C 0.49665 0.79785 0.18039 0.0
C1353 C 0.48957 0.79322 0.19731 0.0
C1354 C 0.51402 0.77654 0.24017 0.0
C1355 C 0.48213 0.79202 0.28236 0.0
C1356 C 0.48745 0.79039 0.26374 0.0
C1357 C 0.50761 0.7934 0.21046 0.0
C1358 C 0.49986 0.79102 0.22861 0.0
H1359 H 0.4327 0.7987 0.30966 0.0
H1360 H 0.44152 0.79085 0.27958 0.0
H1361 H 0.51919 0.76497 0.2662 0.0
H1362 H 0.55974 0.80599 0.1867 0.0
H1363 H 0.54728 0.79808 0.21618 0.0
C1364 C 0.20093 0.50166 0.8133 0.0
C1365 C 0.19594 0.47635 0.81737 0.0
C1366 C 0.20552 0.50882 0.79638 0.0
C1367 C 0.22197 0.48457 0.75341 0.0
H1368 H 0.18225 0.54108 0.73742 0.0
C1369 C 0.19923 0.50158 0.68217 0.0
C1370 C 0.19691 0.52651 0.67634 0.0
C1371 C 0.20357 0.49659 0.69948 0.0
C1372 C 0.19389 0.52558 0.74169 0.0
H1373 H 0.19292 0.43858 0.80688 0.0
H1374 H 0.20077 0.45116 0.77742 0.0
H1375 H 0.18223 0.53042 0.76767 0.0
H1376 H 0.19879 0.56578 0.684 0.0
H1377 H 0.20682 0.55704 0.71407 0.0
H1378 H 0.23327 0.47948 0.72732 0.0
C1379 C 0.20129 0.46542 0.78734 0.0
C1380 C 0.19385 0.51946 0.75905 0.0
C1381 C 0.1966 0.45825 0.80423 0.0
C1382 C 0.20016 0.54634 0.68807 0.0
C1383 C 0.20466 0.54134 0.70534 0.0
C1384 C 0.2221 0.49077 0.73602 0.0
C1385 C 0.20534 0.49083 0.7832 0.0
C1386 C 0.20755 0.49866 0.76506 0.0
C1387 C 0.20586 0.51642 0.71131 0.0
C1388 C 0.20773 0.5111 0.72993 0.0
H1389 H 0.20072 0.51609 0.8231 0.0
H1390 H 0.20887 0.52851 0.79358 0.0
H1391 H 0.23294 0.46861 0.75772 0.0
H1392 H 0.19686 0.48585 0.67349 0.0
H1393 H 0.20412 0.47717 0.70367 0.0
C1394 C 0.54602 0.20063 0.30579 0.0
C1395 C 0.52636 0.19701 0.31759 0.0
C1396 C 0.54079 0.20521 0.28857 0.0
C1397 C 0.48972 0.22206 0.25811 0.0
H1398 H 0.52975 0.18288 0.22628 0.0
C1399 C 0.45743 0.19676 0.18978 0.0
C1400 C 0.47555 0.1965 0.17664 0.0
C1401 C 0.46452 0.20132 0.2067 0.0
C1402 C 0.51867 0.1943 0.23495 0.0
H1403 H 0.48574 0.19645 0.32064 0.0
H1404 H 0.47665 0.20384 0.29053 0.0
H1405 H 0.54054 0.18287 0.2565 0.0
H1406 H 0.51523 0.20186 0.17096 0.0
H1407 H 0.52752 0.20979 0.20053 0.0
H1408 H 0.46732 0.23272 0.23648 0.0
C1409 C 0.49612 0.20351 0.29463 0.0
C1410 C 0.52487 0.19433 0.25229 0.0
C1411 C 0.50134 0.1991 0.3119 0.0
C1412 C 0.50079 0.20174 0.18075 0.0
C1413 C 0.50787 0.20621 0.1977 0.0
C1414 C 0.48344 0.22192 0.24074 0.0
C1415 C 0.51579 0.20611 0.28271 0.0
C1416 C 0.51029 0.20795 0.26412 0.0
C1417 C 0.48987 0.20565 0.21087 0.0
C1418 C 0.49768 0.20778 0.22902 0.0
H1419 H 0.56552 0.19946 0.30976 0.0
H1420 H 0.55637 0.20764 0.27978 0.0
H1421 H 0.47833 0.23303 0.26686 0.0
H1422 H 0.4378 0.19287 0.18709 0.0
H1423 H 0.45027 0.2005 0.2166 0.0
C1424 C 0.14266 0.46133 0.93312 0.0
C1425 C 0.15885 0.47743 0.92403 0.0
C1426 C 0.1417 0.4622 0.95097 0.0
C1427 C 0.157 0.50212 0.98823 0.0
H1428 H 0.15639 0.43861 0.01272 0.0
C1429 C 0.17379 0.49459 0.06119 0.0
C1430 C 0.15887 0.4773 0.07028 0.0
C1431 C 0.17281 0.49549 0.04333 0.0
C1432 C 0.15623 0.45651 0.00608 0.0
H1433 H 0.18648 0.50733 0.92651 0.0
H1434 H 0.18492 0.50868 0.95771 0.0
H1435 H 0.15637 0.43865 0.98155 0.0
H1436 H 0.13094 0.44767 0.0678 0.0
H1437 H 0.12907 0.44946 0.03668 0.0
H1438 H 0.15701 0.51995 0.01282 0.0
C1439 C 0.17279 0.49557 0.95101 0.0
C1440 C 0.15622 0.45653 0.98822 0.0
C1441 C 0.17378 0.49469 0.93315 0.0
C1442 C 0.14271 0.46118 0.06118 0.0
C1443 C 0.14175 0.46209 0.04334 0.0
C1444 C 0.15701 0.5021 0.00612 0.0
C1445 C 0.1569 0.47919 0.96011 0.0
C1446 C 0.15661 0.47932 0.97909 0.0
C1447 C 0.15693 0.4791 0.03421 0.0
C1448 C 0.15663 0.47928 0.01522 0.0
H1449 H 0.13088 0.44783 0.92649 0.0
H1450 H 0.129 0.44958 0.95761 0.0
H1451 H 0.157 0.51998 0.98154 0.0
H1452 H 0.18647 0.50723 0.06784 0.0
H1453 H 0.18492 0.50863 0.03664 0.0
C1454 C 0.53145 0.14165 0.43319 0.0
C1455 C 0.51584 0.15772 0.42363 0.0
C1456 C 0.5294 0.14063 0.45099 0.0
C1457 C 0.50822 0.1782 0.48769 0.0
H1458 H 0.5147 0.11514 0.51232 0.0
C1459 C 0.49945 0.17275 0.56115 0.0
C1460 C 0.51762 0.1581 0.5696 0.0
C1461 C 0.49709 0.17168 0.54336 0.0
C1462 C 0.51303 0.1329 0.50561 0.0
H1463 H 0.48549 0.18495 0.42519 0.0
H1464 H 0.4818 0.18298 0.4563 0.0
H1465 H 0.51416 0.11501 0.48107 0.0
H1466 H 0.5474 0.13064 0.56605 0.0
H1467 H 0.54341 0.12895 0.53501 0.0
H1468 H 0.50744 0.19614 0.5122 0.0
C1469 C 0.49581 0.17141 0.45002 0.0
C1470 C 0.51271 0.13283 0.48773 0.0
C1471 C 0.49785 0.17243 0.43221 0.0
C1472 C 0.53314 0.14209 0.55993 0.0
C1473 C 0.53077 0.14102 0.54215 0.0
C1474 C 0.50853 0.17827 0.50556 0.0
C1475 C 0.51171 0.15565 0.45961 0.0
C1476 C 0.51055 0.15551 0.47858 0.0
C1477 C 0.51284 0.15594 0.53366 0.0
C1478 C 0.51118 0.15565 0.51471 0.0
H1479 H 0.54559 0.13015 0.42698 0.0
H1480 H 0.54216 0.12856 0.45803 0.0
H1481 H 0.50691 0.19602 0.48101 0.0
H1482 H 0.48714 0.18521 0.56824 0.0
H1483 H 0.4829 0.18317 0.53719 0.0
C1484 C 0.82259 0.49939 0.06105 0.0
C1485 C 0.83725 0.51737 0.06971 0.0
C1486 C 0.82347 0.49767 0.04322 0.0
C1487 C 0.86186 0.51529 0.0056 0.0
H1488 H 0.79867 0.50942 0.98106 0.0
C1489 C 0.8529 0.53521 0.93334 0.0
C1490 C 0.83718 0.51936 0.92367 0.0
C1491 C 0.85376 0.53309 0.95114 0.0
C1492 C 0.8165 0.5107 0.98772 0.0
H1493 H 0.86448 0.5475 0.06648 0.0
H1494 H 0.86581 0.54461 0.03541 0.0
H1495 H 0.79871 0.50886 0.01225 0.0
H1496 H 0.81031 0.48862 0.92506 0.0
H1497 H 0.81199 0.48483 0.95615 0.0
H1498 H 0.87961 0.51746 0.98105 0.0
C1499 C 0.85391 0.53162 0.04239 0.0
C1500 C 0.81653 0.51036 0.00559 0.0
C1501 C 0.85304 0.53335 0.06021 0.0
C1502 C 0.82256 0.50117 0.93216 0.0
C1503 C 0.82342 0.49907 0.94996 0.0
C1504 C 0.86183 0.51563 0.98773 0.0
C1505 C 0.83902 0.51388 0.03369 0.0
C1506 C 0.83918 0.51288 0.01473 0.0
C1507 C 0.83892 0.5151 0.95965 0.0
C1508 C 0.83913 0.51356 0.9786 0.0
H1509 H 0.81028 0.48676 0.06802 0.0
H1510 H 0.81199 0.48362 0.03688 0.0
H1511 H 0.87966 0.51688 0.01229 0.0
H1512 H 0.86431 0.5495 0.9272 0.0
H1513 H 0.86563 0.54594 0.95828 0.0
C1514 C 0.46725 0.85614 0.56011 0.0
C1515 C 0.48238 0.83936 0.56944 0.0
C1516 C 0.46874 0.85704 0.5423 0.0
C1517 C 0.50856 0.83995 0.50537 0.0
H1518 H 0.44527 0.84283 0.48069 0.0
C1519 C 0.50005 0.82441 0.43211 0.0
C1520 C 0.48309 0.83999 0.42327 0.0
C1521 C 0.5014 0.82519 0.44998 0.0
C1522 C 0.46312 0.84235 0.48738 0.0
H1523 H 0.51133 0.8107 0.56745 0.0
H1524 H 0.51375 0.81215 0.53624 0.0
H1525 H 0.44509 0.84267 0.51183 0.0
H1526 H 0.45473 0.86909 0.42618 0.0
H1527 H 0.4573 0.87061 0.45725 0.0
H1528 H 0.52653 0.83947 0.48081 0.0
C1529 C 0.50092 0.82477 0.54275 0.0
C1530 C 0.46302 0.84225 0.50523 0.0
C1531 C 0.49944 0.82386 0.56061 0.0
C1532 C 0.46794 0.85676 0.4326 0.0
C1533 C 0.46929 0.85753 0.45042 0.0
C1534 C 0.50866 0.84004 0.48747 0.0
C1535 C 0.48535 0.84115 0.53341 0.0
C1536 C 0.48572 0.84116 0.51443 0.0
C1537 C 0.48577 0.84152 0.45932 0.0
C1538 C 0.48593 0.84135 0.4783 0.0
H1539 H 0.45397 0.86841 0.56652 0.0
H1540 H 0.45679 0.87016 0.53547 0.0
H1541 H 0.52636 0.83932 0.51212 0.0
H1542 H 0.51196 0.81126 0.42528 0.0
H1543 H 0.51414 0.81249 0.4565 0.0
C1544 C 0.17412 0.49627 0.43263 0.0
C1545 C 0.15935 0.51451 0.42434 0.0
C1546 C 0.17304 0.49355 0.45041 0.0
C1547 C 0.13408 0.50877 0.48826 0.0
H1548 H 0.1972 0.50342 0.51294 0.0
C1549 C 0.14262 0.52906 0.56039 0.0
C1550 C 0.15871 0.5138 0.57019 0.0
C1551 C 0.14167 0.52647 0.54262 0.0
C1552 C 0.17939 0.5045 0.50623 0.0
H1553 H 0.13167 0.54402 0.42817 0.0
H1554 H 0.12998 0.5394 0.45914 0.0
H1555 H 0.19736 0.5036 0.48173 0.0
H1556 H 0.18608 0.48354 0.56909 0.0
H1557 H 0.18425 0.47892 0.53802 0.0
H1558 H 0.11615 0.5101 0.51278 0.0
C1559 C 0.14213 0.52697 0.4519 0.0
C1560 C 0.17948 0.5046 0.48836 0.0
C1561 C 0.14321 0.5297 0.43415 0.0
C1562 C 0.17354 0.49563 0.56188 0.0
C1563 C 0.17259 0.49305 0.54409 0.0
C1564 C 0.13399 0.50867 0.50613 0.0
C1565 C 0.15716 0.50899 0.46024 0.0
C1566 C 0.15686 0.50707 0.47918 0.0
C1567 C 0.15678 0.50858 0.53426 0.0
C1568 C 0.15667 0.50686 0.51531 0.0
H1569 H 0.1867 0.48422 0.42542 0.0
H1570 H 0.18465 0.47935 0.45646 0.0
H1571 H 0.11631 0.51028 0.48154 0.0
H1572 H 0.13104 0.54333 0.56638 0.0
H1573 H 0.12957 0.53896 0.53539 0.0
C1574 C 0.49711 0.17503 0.93252 0.0
C1575 C 0.48009 0.15972 0.92349 0.0
C1576 C 0.4979 0.17436 0.9504 0.0
C1577 C 0.45849 0.1581 0.98748 0.0
H1578 H 0.52142 0.15979 0.01263 0.0
C1579 C 0.46179 0.14482 0.06044 0.0
C1580 C 0.47757 0.16109 0.06971 0.0
C1581 C 0.46308 0.1439 0.04261 0.0
C1582 C 0.5037 0.15955 0.00577 0.0
H1583 H 0.45092 0.13132 0.9261 0.0
H1584 H 0.45251 0.13 0.95721 0.0
H1585 H 0.52206 0.15946 0.98135 0.0
H1586 H 0.5073 0.18897 0.06758 0.0
H1587 H 0.50935 0.18752 0.0364 0.0
H1588 H 0.4401 0.15834 0.01181 0.0
C1589 C 0.465 0.14276 0.95051 0.0
C1590 C 0.50407 0.15936 0.98788 0.0
C1591 C 0.46422 0.1434 0.93267 0.0
C1592 C 0.49491 0.17619 0.0608 0.0
C1593 C 0.49619 0.17527 0.04294 0.0
C1594 C 0.45813 0.15831 0.00533 0.0
C1595 C 0.48164 0.15841 0.95958 0.0
C1596 C 0.48146 0.15857 0.97855 0.0
C1597 C 0.48014 0.15926 0.03366 0.0
C1598 C 0.48071 0.15898 0.01468 0.0
H1599 H 0.50955 0.18783 0.92581 0.0
H1600 H 0.51076 0.1868 0.95705 0.0
H1601 H 0.44074 0.15799 0.98065 0.0
H1602 H 0.44825 0.13289 0.06691 0.0
H1603 H 0.45071 0.13111 0.03582 0.0
C1604 C 0.82533 0.49835 0.43236 0.0
C1605 C 0.83995 0.48013 0.42392 0.0
C1606 C 0.82643 0.50076 0.45014 0.0
C1607 C 0.86521 0.48485 0.48789 0.0
H1608 H 0.8021 0.49097 0.5125 0.0
C1609 C 0.85639 0.4663 0.56029 0.0
C1610 C 0.84033 0.4819 0.56986 0.0
C1611 C 0.85744 0.46839 0.5425 0.0
C1612 C 0.81992 0.48967 0.50581 0.0
H1613 H 0.86739 0.45033 0.42749 0.0
H1614 H 0.86912 0.45442 0.45853 0.0
H1615 H 0.80197 0.49046 0.48131 0.0
H1616 H 0.81315 0.5123 0.56831 0.0
H1617 H 0.81517 0.51607 0.53721 0.0
H1618 H 0.8831 0.4837 0.51243 0.0
C1619 C 0.85706 0.46705 0.45138 0.0
C1620 C 0.81984 0.48937 0.48795 0.0
C1621 C 0.85596 0.46463 0.4336 0.0
C1622 C 0.82565 0.49994 0.56129 0.0
C1623 C 0.82671 0.50202 0.54348 0.0
C1624 C 0.86528 0.48516 0.50577 0.0
C1625 C 0.84217 0.48501 0.45985 0.0
C1626 C 0.84246 0.48671 0.4788 0.0
C1627 C 0.84246 0.48612 0.53388 0.0
C1628 C 0.84261 0.48732 0.51492 0.0
H1629 H 0.81287 0.51065 0.42525 0.0
H1630 H 0.81496 0.51497 0.4563 0.0
H1631 H 0.88297 0.48317 0.48118 0.0
H1632 H 0.86786 0.45212 0.56649 0.0
H1633 H 0.8695 0.45563 0.53545 0.0
C1634 C 0.53611 0.85396 0.05985 0.0
C1635 C 0.51989 0.83836 0.06931 0.0
C1636 C 0.53443 0.85491 0.04203 0.0
C1637 C 0.51243 0.81804 0.00513 0.0
H1638 H 0.51965 0.88123 0.98075 0.0
C1639 C 0.50111 0.82464 0.9319 0.0
C1640 C 0.51918 0.83912 0.92318 0.0
C1641 C 0.49957 0.82546 0.94973 0.0
C1642 C 0.5178 0.86343 0.98738 0.0
H1643 H 0.48894 0.81179 0.06753 0.0
H1644 H 0.4859 0.81363 0.03641 0.0
H1645 H 0.51985 0.88103 0.012 0.0
H1646 H 0.54965 0.86598 0.92632 0.0
H1647 H 0.54706 0.86722 0.95744 0.0
H1648 H 0.51065 0.80039 0.98055 0.0
C1649 C 0.5001 0.82489 0.04277 0.0
C1650 C 0.51791 0.86331 0.00526 0.0
C1651 C 0.50177 0.82394 0.0606 0.0
C1652 C 0.53544 0.85468 0.93265 0.0
C1653 C 0.53388 0.85549 0.95048 0.0
C1654 C 0.51232 0.81816 0.98726 0.0
C1655 C 0.51651 0.84028 0.03329 0.0
C1656 C 0.5154 0.84059 0.01432 0.0
C1657 C 0.51605 0.84076 0.95922 0.0
C1658 C 0.51516 0.84083 0.97819 0.0
H1659 H 0.55036 0.86522 0.06617 0.0
H1660 H 0.54756 0.86669 0.03506 0.0
H1661 H 0.51085 0.80019 0.01174 0.0
H1662 H 0.48825 0.81252 0.92497 0.0
H1663 H 0.48543 0.81413 0.9561 0.0
C1664 C 0.23737 0.36975 0.13603 0.0
C1665 C 0.24268 0.39563 0.13691 0.0
C1666 C 0.25681 0.35216 0.13617 0.0
C1667 C 0.32449 0.34425 0.12799 0.0
H1668 H 0.31571 0.28424 0.15564 0.0
C1669 C 0.40264 0.26922 0.1374 0.0
C1670 C 0.39478 0.24398 0.13653 0.0
C1671 C 0.38492 0.28867 0.13761 0.0
C1672 C 0.31835 0.30079 0.14775 0.0
H1673 H 0.27261 0.42338 0.13835 0.0
H1674 H 0.30667 0.39249 0.13872 0.0
H1675 H 0.28328 0.31658 0.15573 0.0
H1676 H 0.36221 0.21937 0.13487 0.0
H1677 H 0.33147 0.25322 0.13512 0.0
H1678 H 0.35957 0.32827 0.11994 0.0
C1679 C 0.28741 0.3859 0.13782 0.0
C1680 C 0.29978 0.31931 0.14779 0.0
C1681 C 0.26791 0.40356 0.1377 0.0
C1682 C 0.36891 0.2386 0.13566 0.0
C1683 C 0.35126 0.25799 0.1359 0.0
C1684 C 0.34312 0.32568 0.12795 0.0
C1685 C 0.28202 0.36001 0.1372 0.0
C1686 C 0.30248 0.34108 0.13775 0.0
C1687 C 0.35905 0.28321 0.13701 0.0
C1688 C 0.34006 0.30361 0.13766 0.0
H1689 H 0.21815 0.363 0.1353 0.0
H1690 H 0.25209 0.33235 0.13538 0.0
H1691 H 0.32698 0.36075 0.12002 0.0
H1692 H 0.42245 0.27398 0.13804 0.0
H1693 H 0.39146 0.30794 0.13857 0.0
C1694 C 0.76027 0.36887 0.6289 0.0
C1695 C 0.75508 0.39458 0.63122 0.0
C1696 C 0.74071 0.35143 0.62771 0.0
C1697 C 0.67453 0.34206 0.63964 0.0
H1698 H 0.67873 0.28622 0.60778 0.0
C1699 C 0.59559 0.26765 0.63322 0.0
C1700 C 0.60362 0.24247 0.6325 0.0
C1701 C 0.61299 0.28728 0.63181 0.0
C1702 C 0.67737 0.30163 0.61681 0.0
H1703 H 0.72525 0.42222 0.63378 0.0
H1704 H 0.69104 0.39168 0.63162 0.0
H1705 H 0.71109 0.31879 0.60742 0.0
H1706 H 0.63615 0.21813 0.62958 0.0
H1707 H 0.66643 0.25233 0.62728 0.0
H1708 H 0.64099 0.3247 0.64919 0.0
C1709 C 0.71028 0.38503 0.63093 0.0
C1710 C 0.69589 0.32027 0.61661 0.0
C1711 C 0.72988 0.40252 0.6321 0.0
C1712 C 0.62933 0.23732 0.63017 0.0
C1713 C 0.64668 0.25693 0.62874 0.0
C1714 C 0.65598 0.32341 0.63984 0.0
C1715 C 0.71551 0.35929 0.62879 0.0
C1716 C 0.69487 0.3405 0.62818 0.0
C1717 C 0.63873 0.28212 0.62959 0.0
C1718 C 0.65741 0.30282 0.62859 0.0
H1719 H 0.77948 0.36212 0.62818 0.0
H1720 H 0.74536 0.33169 0.62631 0.0
H1721 H 0.67337 0.35726 0.64885 0.0
H1722 H 0.57588 0.27224 0.63491 0.0
H1723 H 0.60628 0.30652 0.63235 0.0
C1724 C 0.72845 0.59484 0.13578 0.0
C1725 C 0.75369 0.60262 0.13462 0.0
C1726 C 0.70904 0.6126 0.13601 0.0
C1727 C 0.69738 0.67928 0.14593 0.0
H1728 H 0.63668 0.67063 0.11896 0.0
C1729 C 0.62837 0.76039 0.13483 0.0
C1730 C 0.60249 0.75515 0.13597 0.0
C1731 C 0.6459 0.74089 0.13484 0.0
C1732 C 0.65339 0.67313 0.12673 0.0
H1733 H 0.77833 0.63509 0.13239 0.0
H1734 H 0.74456 0.66592 0.13267 0.0
H1735 H 0.66907 0.63793 0.11861 0.0
H1736 H 0.57469 0.72531 0.13775 0.0
H1737 H 0.60549 0.69117 0.13789 0.0
H1738 H 0.68191 0.71444 0.15401 0.0
C1739 C 0.73976 0.64615 0.13368 0.0
C1740 C 0.67191 0.65444 0.12652 0.0
C1741 C 0.7591 0.62845 0.13341 0.0
C1742 C 0.59451 0.72995 0.1369 0.0
C1743 C 0.61211 0.7104 0.13689 0.0
C1744 C 0.67892 0.69789 0.14615 0.0
C1745 C 0.71455 0.63845 0.13514 0.0
C1746 C 0.69424 0.65751 0.13595 0.0
C1747 C 0.638 0.71571 0.136 0.0
C1748 C 0.65688 0.69519 0.13638 0.0
H1749 H 0.72367 0.57505 0.13669 0.0
H1750 H 0.68978 0.60614 0.13724 0.0
H1751 H 0.71415 0.68192 0.15362 0.0
H1752 H 0.63516 0.77958 0.13399 0.0
H1753 H 0.6657 0.74556 0.13383 0.0
C1754 C 0.26915 0.59383 0.63194 0.0
C1755 C 0.24404 0.60196 0.63076 0.0
C1756 C 0.28892 0.61105 0.63046 0.0
C1757 C 0.30408 0.67493 0.61474 0.0
H1758 H 0.35835 0.67188 0.64789 0.0
C1759 C 0.37018 0.75846 0.62752 0.0
C1760 C 0.39583 0.75352 0.63036 0.0
C1761 C 0.35297 0.73873 0.6261 0.0
C1762 C 0.34355 0.67275 0.63837 0.0
H1763 H 0.21998 0.63449 0.62687 0.0
H1764 H 0.25442 0.66447 0.62445 0.0
H1765 H 0.32584 0.63943 0.64798 0.0
H1766 H 0.4236 0.72397 0.63364 0.0
H1767 H 0.39344 0.68946 0.63112 0.0
H1768 H 0.32153 0.70848 0.60532 0.0
C1769 C 0.25886 0.64477 0.62633 0.0
C1770 C 0.32493 0.65417 0.63842 0.0
C1771 C 0.23912 0.62759 0.62783 0.0
C1772 C 0.40394 0.7284 0.63155 0.0
C1773 C 0.38667 0.70864 0.63017 0.0
C1774 C 0.32267 0.69349 0.61469 0.0
C1775 C 0.28397 0.63672 0.62771 0.0
C1776 C 0.30479 0.65529 0.62678 0.0
C1777 C 0.36099 0.71362 0.6275 0.0
C1778 C 0.34239 0.69283 0.62667 0.0
H1779 H 0.27356 0.57418 0.6341 0.0
H1780 H 0.3081 0.60427 0.6314 0.0
H1781 H 0.28904 0.67604 0.6054 0.0
H1782 H 0.3633 0.77759 0.62654 0.0
H1783 H 0.33325 0.74319 0.62429 0.0
C1784 C 0.40436 0.72894 0.36173 0.0
C1785 C 0.39626 0.75406 0.3629 0.0
C1786 C 0.3871 0.70919 0.36323 0.0
C1787 C 0.32322 0.69414 0.37897 0.0
H1788 H 0.32609 0.63995 0.34575 0.0
C1789 C 0.23953 0.62824 0.36621 0.0
C1790 C 0.24441 0.6026 0.36332 0.0
C1791 C 0.25929 0.64542 0.36762 0.0
C1792 C 0.32527 0.65472 0.35529 0.0
H1793 H 0.36377 0.77817 0.36679 0.0
H1794 H 0.33374 0.74379 0.36923 0.0
H1795 H 0.35862 0.67237 0.34567 0.0
H1796 H 0.27389 0.57478 0.35995 0.0
H1797 H 0.30846 0.60486 0.36246 0.0
H1798 H 0.28965 0.67673 0.3884 0.0
C1799 C 0.35343 0.73931 0.36735 0.0
C1800 C 0.34389 0.67329 0.35525 0.0
C1801 C 0.37064 0.75902 0.36583 0.0
C1802 C 0.2695 0.59444 0.36207 0.0
C1803 C 0.2893 0.61166 0.36345 0.0
C1804 C 0.30461 0.67558 0.37901 0.0
C1805 C 0.36144 0.71419 0.36598 0.0
C1806 C 0.34284 0.69341 0.36691 0.0
C1807 C 0.28438 0.63735 0.36617 0.0
C1808 C 0.30522 0.6559 0.367 0.0
H1809 H 0.424 0.72449 0.35958 0.0
H1810 H 0.39385 0.69001 0.36229 0.0
H1811 H 0.32216 0.70916 0.38832 0.0
H1812 H 0.2204 0.63516 0.36723 0.0
H1813 H 0.25487 0.66513 0.36947 0.0
C1814 C 0.3694 0.23833 0.86085 0.0
C1815 C 0.39519 0.24385 0.85948 0.0
C1816 C 0.35162 0.25761 0.86076 0.0
C1817 C 0.34318 0.3255 0.86798 0.0
H1818 H 0.283 0.31537 0.8407 0.0
C1819 C 0.268 0.40311 0.85722 0.0
C1820 C 0.24275 0.39529 0.85809 0.0
C1821 C 0.28745 0.38538 0.85741 0.0
C1822 C 0.29958 0.31839 0.84851 0.0
H1823 H 0.4226 0.274 0.85734 0.0
H1824 H 0.39138 0.30776 0.85709 0.0
H1825 H 0.31547 0.28309 0.8411 0.0
H1826 H 0.2181 0.3628 0.86019 0.0
H1827 H 0.25194 0.33205 0.86067 0.0
H1828 H 0.32711 0.36082 0.87544 0.0
C1829 C 0.38501 0.28847 0.85831 0.0
C1830 C 0.31818 0.2999 0.84874 0.0
C1831 C 0.40285 0.26914 0.85836 0.0
C1832 C 0.23735 0.36947 0.85938 0.0
C1833 C 0.25674 0.35181 0.85956 0.0
C1834 C 0.32451 0.34404 0.86776 0.0
C1835 C 0.35919 0.28286 0.85932 0.0
C1836 C 0.34005 0.30311 0.85862 0.0
C1837 C 0.28198 0.35953 0.85843 0.0
C1838 C 0.30239 0.34052 0.85817 0.0
H1839 H 0.36285 0.21907 0.86184 0.0
H1840 H 0.33188 0.25272 0.86187 0.0
H1841 H 0.35976 0.3284 0.87581 0.0
H1842 H 0.27277 0.42288 0.85626 0.0
H1843 H 0.30672 0.39188 0.85642 0.0
C1844 C 0.59533 0.26814 0.36149 0.0
C1845 C 0.60326 0.24295 0.36243 0.0
C1846 C 0.61282 0.28774 0.36267 0.0
C1847 C 0.67753 0.30215 0.37708 0.0
H1848 H 0.67332 0.35685 0.34432 0.0
C1849 C 0.76067 0.36841 0.36341 0.0
C1850 C 0.75559 0.39412 0.36101 0.0
C1851 C 0.74101 0.35112 0.36488 0.0
C1852 C 0.67454 0.34192 0.35372 0.0
H1853 H 0.6357 0.21855 0.36558 0.0
H1854 H 0.66613 0.25266 0.36746 0.0
H1855 H 0.6407 0.32453 0.3447 0.0
H1856 H 0.7259 0.42192 0.3585 0.0
H1857 H 0.69154 0.39163 0.36111 0.0
H1858 H 0.71158 0.31931 0.38591 0.0
C1859 C 0.64639 0.25731 0.36601 0.0
C1860 C 0.65586 0.32341 0.35395 0.0
C1861 C 0.62896 0.23775 0.36482 0.0
C1862 C 0.73043 0.40221 0.36024 0.0
C1863 C 0.71075 0.38487 0.36168 0.0
C1864 C 0.6962 0.32064 0.37685 0.0
C1865 C 0.63855 0.28251 0.36486 0.0
C1866 C 0.65735 0.30314 0.36547 0.0
C1867 C 0.71585 0.35913 0.36397 0.0
C1868 C 0.6951 0.34052 0.36501 0.0
H1869 H 0.57564 0.27277 0.35975 0.0
H1870 H 0.60618 0.30698 0.36192 0.0
H1871 H 0.67895 0.287 0.38631 0.0
H1872 H 0.77984 0.36155 0.36405 0.0
H1873 H 0.74555 0.33137 0.36639 0.0
C1874 C 0.72861 0.59498 0.8579 0.0
C1875 C 0.75376 0.60312 0.85879 0.0
C1876 C 0.7089 0.61233 0.85902 0.0
C1877 C 0.69432 0.67678 0.87368 0.0
H1878 H 0.63909 0.67259 0.84132 0.0
C1879 C 0.62785 0.75979 0.8609 0.0
C1880 C 0.60208 0.75475 0.85874 0.0
C1881 C 0.64514 0.74014 0.86209 0.0
C1882 C 0.65418 0.67379 0.85061 0.0
H1883 H 0.77796 0.63581 0.86167 0.0
H1884 H 0.74366 0.66597 0.86347 0.0
H1885 H 0.67158 0.64012 0.84131 0.0
H1886 H 0.57418 0.72509 0.85631 0.0
H1887 H 0.6045 0.69069 0.85843 0.0
H1888 H 0.67717 0.71063 0.8828 0.0
C1889 C 0.73913 0.64618 0.86211 0.0
C1890 C 0.67278 0.65521 0.8506 0.0
C1891 C 0.75879 0.62889 0.86096 0.0
C1892 C 0.59394 0.7296 0.85789 0.0
C1893 C 0.61128 0.7099 0.85904 0.0
C1894 C 0.67575 0.69534 0.87368 0.0
C1895 C 0.71398 0.63811 0.86113 0.0
C1896 C 0.69325 0.65673 0.86196 0.0
C1897 C 0.63707 0.71498 0.86114 0.0
C1898 C 0.6557 0.69426 0.86197 0.0
H1899 H 0.72411 0.57523 0.85632 0.0
H1900 H 0.6897 0.60554 0.85839 0.0
H1901 H 0.70961 0.6782 0.8828 0.0
H1902 H 0.63476 0.77896 0.86158 0.0
H1903 H 0.66492 0.74467 0.86344 0.0
loop_
_geom_bond_atom_site_label_1
_geom_bond_atom_site_label_2
_geom_bond_distance
_geom_bond_site_symmetry_2
_ccdc_geom_bond_type
Co0 O2 2.143 . S
Co0 O8 2.074 . S
Co0 O11 2.093 . S
Co0 O24 2.097 . S
Co0 N41 2.151 . S
Co0 N49 2.214 . S
Co1 O2 2.160 . S
Co1 O7 2.058 . S
Co1 O17 2.057 . S
Co1 O32 2.037 . S
Co1 N36 2.145 . S
Co1 N57 2.257 . S
O2 Co0 2.143 . S
O2 Co1 2.160 . S
C3 O4 1.278 . S
C3 O11 1.224 . S
O4 C3 1.278 . S
C5 O6 1.245 . S
C5 O17 1.232 . S
O6 C5 1.245 . S
O7 Co1 2.058 . S
O7 C33 1.269 . S
O8 Co0 2.074 . S
O8 C33 1.257 . S
H9 C34 0.930 . S
H10 C40 0.930 . S
O11 Co0 2.093 . S
O11 C3 1.224 . S
H12 C44 0.929 . S
H13 C46 0.930 . S
H14 C47 0.930 . S
H15 C45 0.929 . S
H16 C48 0.928 . S
O17 Co1 2.057 . S
O17 C5 1.232 . S
H18 C37 0.929 . S
H19 C38 0.929 . S
H20 C50 0.931 . S
H21 C42 0.929 . S
H22 C51 0.930 . S
H23 C43 0.931 . S
O24 Co0 2.097 . S
O24 C52 1.214 . S
H25 C53 0.929 . S
H26 C54 0.929 . S
H27 C55 0.930 . S
H28 C56 0.929 . S
H29 C58 0.930 . S
H30 C35 0.930 . S
H31 C39 0.930 . S
O32 Co1 2.037 . S
O32 C52 1.234 . S
C33 O7 1.269 . S
C33 O8 1.257 . S
C34 H9 0.930 . S
C34 C37 1.388 . S
C34 C39 1.418 . S
C35 H30 0.930 . S
C35 C38 1.404 . S
C35 C39 1.353 . S
N36 Co1 2.145 . S
N36 C37 1.397 . S
N36 C38 1.334 . S
C37 H18 0.929 . S
C37 C34 1.388 . S
C37 N36 1.397 . S
C38 H19 0.929 . S
C38 C35 1.404 . S
C38 N36 1.334 . S
C39 H31 0.930 . S
C39 C34 1.418 . S
C39 C35 1.353 . S
C40 H10 0.930 . S
C40 N41 1.330 . S
C40 C42 1.446 . S
N41 Co0 2.151 . S
N41 C40 1.330 . S
N41 C45 1.418 . S
C42 H21 0.929 . S
C42 C40 1.446 . S
C42 C43 1.332 . S
C43 H23 0.931 . S
C43 C42 1.332 . S
C43 C44 1.267 . S
C44 H12 0.929 . S
C44 C43 1.267 . S
C44 C45 1.251 . S
C45 H15 0.929 . S
C45 N41 1.418 . S
C45 C44 1.251 . S
C46 H13 0.930 . S
C46 C48 1.406 . S
C46 C51 1.261 . S
C47 H14 0.930 . S
C47 N49 1.325 . S
C47 C50 1.357 . S
C48 H16 0.928 . S
C48 C46 1.406 . S
C48 N49 1.261 . S
N49 Co0 2.214 . S
N49 C47 1.325 . S
N49 C48 1.261 . S
C50 H20 0.931 . S
C50 C47 1.357 . S
C50 C51 1.312 . S
C51 H22 0.930 . S
C51 C46 1.261 . S
C51 C50 1.312 . S
C52 O24 1.214 . S
C52 O32 1.234 . S
C53 H25 0.929 . S
C53 C56 1.391 . S
C53 C58 1.391 . S
C54 H26 0.929 . S
C54 C55 1.390 . S
C54 N57 1.391 . S
C55 H27 0.930 . S
C55 C54 1.390 . S
C55 C56 1.392 . S
C56 H28 0.929 . S
C56 C53 1.391 . S
C56 C55 1.392 . S
N57 Co1 2.257 . S
N57 C54 1.391 . S
N57 C58 1.388 . S
C58 H29 0.930 . S
C58 C53 1.391 . S
C58 N57 1.388 . S
Co59 O61 2.143 . S
Co59 O67 2.074 . S
Co59 O70 2.093 . S
Co59 O83 2.097 . S
Co59 N100 2.151 . S
Co59 N108 2.214 . S
Co60 O61 2.160 . S
Co60 O66 2.058 . S
Co60 O76 2.057 . S
Co60 O91 2.037 . S
Co60 N95 2.145 . S
Co60 N116 2.257 . S
O61 Co59 2.143 . S
O61 Co60 2.160 . S
C62 O63 1.278 . S
C62 O70 1.224 . S
O63 C62 1.278 . S
C64 O65 1.245 . S
C64 O76 1.232 . S
O65 C64 1.245 . S
O66 Co60 2.058 . S
O66 C92 1.269 . S
O67 Co59 2.074 . S
O67 C92 1.257 . S
H68 C93 0.930 . S
H69 C99 0.930 . S
O70 Co59 2.093 . S
O70 C62 1.224 . S
H71 C103 0.929 . S
H72 C105 0.930 . S
H73 C106 0.930 . S
H74 C104 0.929 . S
H75 C107 0.928 . S
O76 Co60 2.057 . S
O76 C64 1.232 . S
H77 C96 0.929 . S
H78 C97 0.929 . S
H79 C109 0.931 . S
H80 C101 0.929 . S
H81 C110 0.930 . S
H82 C102 0.931 . S
O83 Co59 2.097 . S
O83 C111 1.214 . S
H84 C112 0.929 . S
H85 C113 0.929 . S
H86 C114 0.930 . S
H87 C115 0.929 . S
H88 C117 0.930 . S
H89 C94 0.930 . S
H90 C98 0.930 . S
O91 Co60 2.037 . S
O91 C111 1.234 . S
C92 O66 1.269 . S
C92 O67 1.257 . S
C93 H68 0.930 . S
C93 C96 1.388 . S
C93 C98 1.418 . S
C94 H89 0.930 . S
C94 C97 1.404 . S
C94 C98 1.353 . S
N95 Co60 2.145 . S
N95 C96 1.397 . S
N95 C97 1.334 . S
C96 H77 0.929 . S
C96 C93 1.388 . S
C96 N95 1.397 . S
C97 H78 0.929 . S
C97 C94 1.404 . S
C97 N95 1.334 . S
C98 H90 0.930 . S
C98 C93 1.418 . S
C98 C94 1.353 . S
C99 H69 0.930 . S
C99 N100 1.330 . S
C99 C101 1.446 . S
N100 Co59 2.151 . S
N100 C99 1.330 . S
N100 C104 1.418 . S
C101 H80 0.929 . S
C101 C99 1.446 . S
C101 C102 1.332 . S
C102 H82 0.931 . S
C102 C101 1.332 . S
C102 C103 1.267 . S
C103 H71 0.929 . S
C103 C102 1.267 . S
C103 C104 1.251 . S
C104 H74 0.929 . S
C104 N100 1.418 . S
C104 C103 1.251 . S
C105 H72 0.930 . S
C105 C107 1.406 . S
C105 C110 1.261 . S
C106 H73 0.930 . S
C106 N108 1.325 . S
C106 C109 1.357 . S
C107 H75 0.928 . S
C107 C105 1.406 . S
C107 N108 1.261 . S
N108 Co59 2.214 . S
N108 C106 1.325 . S
N108 C107 1.261 . S
C109 H79 0.931 . S
C109 C106 1.357 . S
C109 C110 1.312 . S
C110 H81 0.930 . S
C110 C105 1.261 . S
C110 C109 1.312 . S
C111 O83 1.214 . S
C111 O91 1.234 . S
C112 H84 0.929 . S
C112 C115 1.391 . S
C112 C117 1.391 . S
C113 H85 0.929 . S
C113 C114 1.390 . S
C113 N116 1.391 . S
C114 H86 0.930 . S
C114 C113 1.390 . S
C114 C115 1.392 . S
C115 H87 0.929 . S
C115 C112 1.391 . S
C115 C114 1.392 . S
N116 Co60 2.257 . S
N116 C113 1.391 . S
N116 C117 1.388 . S
C117 H88 0.930 . S
C117 C112 1.391 . S
C117 N116 1.388 . S
Co118 O120 2.143 . S
Co118 O126 2.074 . S
Co118 O129 2.093 . S
Co118 O142 2.097 . S
Co118 N159 2.151 . S
Co118 N167 2.214 . S
Co119 O120 2.160 . S
Co119 O125 2.058 . S
Co119 O135 2.057 . S
Co119 O150 2.037 . S
Co119 N154 2.145 . S
Co119 N175 2.257 . S
O120 Co118 2.143 . S
O120 Co119 2.160 . S
C121 O122 1.278 . S
C121 O129 1.224 . S
O122 C121 1.278 . S
C123 O124 1.245 . S
C123 O135 1.232 . S
O124 C123 1.245 . S
O125 Co119 2.058 . S
O125 C151 1.269 . S
O126 Co118 2.074 . S
O126 C151 1.257 . S
H127 C152 0.930 . S
H128 C158 0.930 . S
O129 Co118 2.093 . S
O129 C121 1.224 . S
H130 C162 0.929 . S
H131 C164 0.930 . S
H132 C165 0.930 . S
H133 C163 0.929 . S
H134 C166 0.928 . S
O135 Co119 2.057 . S
O135 C123 1.232 . S
H136 C155 0.929 . S
H137 C156 0.929 . S
H138 C168 0.931 . S
H139 C160 0.929 . S
H140 C169 0.930 . S
H141 C161 0.931 . S
O142 Co118 2.097 . S
O142 C170 1.214 . S
H143 C171 0.929 . S
H144 C172 0.929 . S
H145 C173 0.930 . S
H146 C174 0.929 . S
H147 C176 0.930 . S
H148 C153 0.930 . S
H149 C157 0.930 . S
O150 Co119 2.037 . S
O150 C170 1.234 . S
C151 O125 1.269 . S
C151 O126 1.257 . S
C152 H127 0.930 . S
C152 C155 1.388 . S
C152 C157 1.418 . S
C153 H148 0.930 . S
C153 C156 1.404 . S
C153 C157 1.353 . S
N154 Co119 2.145 . S
N154 C155 1.397 . S
N154 C156 1.334 . S
C155 H136 0.929 . S
C155 C152 1.388 . S
C155 N154 1.397 . S
C156 H137 0.929 . S
C156 C153 1.404 . S
C156 N154 1.334 . S
C157 H149 0.930 . S
C157 C152 1.418 . S
C157 C153 1.353 . S
C158 H128 0.930 . S
C158 N159 1.330 . S
C158 C160 1.446 . S
N159 Co118 2.151 . S
N159 C158 1.330 . S
N159 C163 1.418 . S
C160 H139 0.929 . S
C160 C158 1.446 . S
C160 C161 1.332 . S
C161 H141 0.931 . S
C161 C160 1.332 . S
C161 C162 1.267 . S
C162 H130 0.929 . S
C162 C161 1.267 . S
C162 C163 1.251 . S
C163 H133 0.929 . S
C163 N159 1.418 . S
C163 C162 1.251 . S
C164 H131 0.930 . S
C164 C166 1.406 . S
C164 C169 1.261 . S
C165 H132 0.930 . S
C165 N167 1.325 . S
C165 C168 1.357 . S
C166 H134 0.928 . S
C166 C164 1.406 . S
C166 N167 1.261 . S
N167 Co118 2.214 . S
N167 C165 1.325 . S
N167 C166 1.261 . S
C168 H138 0.931 . S
C168 C165 1.357 . S
C168 C169 1.312 . S
C169 H140 0.930 . S
C169 C164 1.261 . S
C169 C168 1.312 . S
C170 O142 1.214 . S
C170 O150 1.234 . S
C171 H143 0.929 . S
C171 C174 1.391 . S
C171 C176 1.391 . S
C172 H144 0.929 . S
C172 C173 1.390 . S
C172 N175 1.391 . S
C173 H145 0.930 . S
C173 C172 1.390 . S
C173 C174 1.392 . S
C174 H146 0.929 . S
C174 C171 1.391 . S
C174 C173 1.392 . S
N175 Co119 2.257 . S
N175 C172 1.391 . S
N175 C176 1.388 . S
C176 H147 0.930 . S
C176 C171 1.391 . S
C176 N175 1.388 . S
Co177 O179 2.143 . S
Co177 O185 2.074 . S
Co177 O188 2.093 . S
Co177 O201 2.097 . S
Co177 N218 2.151 . S
Co177 N226 2.214 . S
Co178 O179 2.160 . S
Co178 O184 2.058 . S
Co178 O194 2.057 . S
Co178 O209 2.037 . S
Co178 N213 2.145 . S
Co178 N234 2.257 . S
O179 Co177 2.143 . S
O179 Co178 2.160 . S
C180 O181 1.278 . S
C180 O188 1.224 . S
O181 C180 1.278 . S
C182 O183 1.245 . S
C182 O194 1.232 . S
O183 C182 1.245 . S
O184 Co178 2.058 . S
O184 C210 1.269 . S
O185 Co177 2.074 . S
O185 C210 1.257 . S
H186 C211 0.930 . S
H187 C217 0.930 . S
O188 Co177 2.093 . S
O188 C180 1.224 . S
H189 C221 0.929 . S
H190 C223 0.930 . S
H191 C224 0.930 . S
H192 C222 0.929 . S
H193 C225 0.928 . S
O194 Co178 2.057 . S
O194 C182 1.232 . S
H195 C214 0.929 . S
H196 C215 0.929 . S
H197 C227 0.931 . S
H198 C219 0.929 . S
H199 C228 0.930 . S
H200 C220 0.931 . S
O201 Co177 2.097 . S
O201 C229 1.214 . S
H202 C230 0.929 . S
H203 C231 0.929 . S
H204 C232 0.930 . S
H205 C233 0.929 . S
H206 C235 0.930 . S
H207 C212 0.930 . S
H208 C216 0.930 . S
O209 Co178 2.037 . S
O209 C229 1.234 . S
C210 O184 1.269 . S
C210 O185 1.257 . S
C211 H186 0.930 . S
C211 C214 1.388 . S
C211 C216 1.418 . S
C212 H207 0.930 . S
C212 C215 1.404 . S
C212 C216 1.353 . S
N213 Co178 2.145 . S
N213 C214 1.397 . S
N213 C215 1.334 . S
C214 H195 0.929 . S
C214 C211 1.388 . S
C214 N213 1.397 . S
C215 H196 0.929 . S
C215 C212 1.404 . S
C215 N213 1.334 . S
C216 H208 0.930 . S
C216 C211 1.418 . S
C216 C212 1.353 . S
C217 H187 0.930 . S
C217 N218 1.330 . S
C217 C219 1.446 . S
N218 Co177 2.151 . S
N218 C217 1.330 . S
N218 C222 1.418 . S
C219 H198 0.929 . S
C219 C217 1.446 . S
C219 C220 1.332 . S
C220 H200 0.931 . S
C220 C219 1.332 . S
C220 C221 1.267 . S
C221 H189 0.929 . S
C221 C220 1.267 . S
C221 C222 1.251 . S
C222 H192 0.929 . S
C222 N218 1.418 . S
C222 C221 1.251 . S
C223 H190 0.930 . S
C223 C225 1.406 . S
C223 C228 1.261 . S
C224 H191 0.930 . S
C224 N226 1.325 . S
C224 C227 1.357 . S
C225 H193 0.928 . S
C225 C223 1.406 . S
C225 N226 1.261 . S
N226 Co177 2.214 . S
N226 C224 1.325 . S
N226 C225 1.261 . S
C227 H197 0.931 . S
C227 C224 1.357 . S
C227 C228 1.312 . S
C228 H199 0.930 . S
C228 C223 1.261 . S
C228 C227 1.312 . S
C229 O201 1.214 . S
C229 O209 1.234 . S
C230 H202 0.929 . S
C230 C233 1.391 . S
C230 C235 1.391 . S
C231 H203 0.929 . S
C231 C232 1.390 . S
C231 N234 1.391 . S
C232 H204 0.930 . S
C232 C231 1.390 . S
C232 C233 1.392 . S
C233 H205 0.929 . S
C233 C230 1.391 . S
C233 C232 1.392 . S
N234 Co178 2.257 . S
N234 C231 1.391 . S
N234 C235 1.388 . S
C235 H206 0.930 . S
C235 C230 1.391 . S
C235 N234 1.388 . S
Co236 O238 2.143 . S
Co236 O244 2.074 . S
Co236 O247 2.093 . S
Co236 O260 2.097 . S
Co236 N277 2.151 . S
Co236 N285 2.214 . S
Co237 O238 2.160 . S
Co237 O243 2.058 . S
Co237 O253 2.057 . S
Co237 O268 2.037 . S
Co237 N272 2.145 . S
Co237 N293 2.257 . S
O238 Co236 2.143 . S
O238 Co237 2.160 . S
C239 O240 1.278 . S
C239 O247 1.224 . S
O240 C239 1.278 . S
C241 O242 1.245 . S
C241 O253 1.232 . S
O242 C241 1.245 . S
O243 Co237 2.058 . S
O243 C269 1.269 . S
O244 Co236 2.074 . S
O244 C269 1.257 . S
H245 C270 0.930 . S
H246 C276 0.930 . S
O247 Co236 2.093 . S
O247 C239 1.224 . S
H248 C280 0.929 . S
H249 C282 0.930 . S
H250 C283 0.930 . S
H251 C281 0.929 . S
H252 C284 0.928 . S
O253 Co237 2.057 . S
O253 C241 1.232 . S
H254 C273 0.929 . S
H255 C274 0.929 . S
H256 C286 0.931 . S
H257 C278 0.929 . S
H258 C287 0.930 . S
H259 C279 0.931 . S
O260 Co236 2.097 . S
O260 C288 1.214 . S
H261 C289 0.929 . S
H262 C290 0.929 . S
H263 C291 0.930 . S
H264 C292 0.929 . S
H265 C294 0.930 . S
H266 C271 0.930 . S
H267 C275 0.930 . S
O268 Co237 2.037 . S
O268 C288 1.234 . S
C269 O243 1.269 . S
C269 O244 1.257 . S
C270 H245 0.930 . S
C270 C273 1.388 . S
C270 C275 1.418 . S
C271 H266 0.930 . S
C271 C274 1.404 . S
C271 C275 1.353 . S
N272 Co237 2.145 . S
N272 C273 1.397 . S
N272 C274 1.334 . S
C273 H254 0.929 . S
C273 C270 1.388 . S
C273 N272 1.397 . S
C274 H255 0.929 . S
C274 C271 1.404 . S
C274 N272 1.334 . S
C275 H267 0.930 . S
C275 C270 1.418 . S
C275 C271 1.353 . S
C276 H246 0.930 . S
C276 N277 1.330 . S
C276 C278 1.446 . S
N277 Co236 2.151 . S
N277 C276 1.330 . S
N277 C281 1.418 . S
C278 H257 0.929 . S
C278 C276 1.446 . S
C278 C279 1.332 . S
C279 H259 0.931 . S
C279 C278 1.332 . S
C279 C280 1.267 . S
C280 H248 0.929 . S
C280 C279 1.267 . S
C280 C281 1.251 . S
C281 H251 0.929 . S
C281 N277 1.418 . S
C281 C280 1.251 . S
C282 H249 0.930 . S
C282 C284 1.406 . S
C282 C287 1.261 . S
C283 H250 0.930 . S
C283 N285 1.325 . S
C283 C286 1.357 . S
C284 H252 0.928 . S
C284 C282 1.406 . S
C284 N285 1.261 . S
N285 Co236 2.214 . S
N285 C283 1.325 . S
N285 C284 1.261 . S
C286 H256 0.931 . S
C286 C283 1.357 . S
C286 C287 1.312 . S
C287 H258 0.930 . S
C287 C282 1.261 . S
C287 C286 1.312 . S
C288 O260 1.214 . S
C288 O268 1.234 . S
C289 H261 0.929 . S
C289 C292 1.391 . S
C289 C294 1.391 . S
C290 H262 0.929 . S
C290 C291 1.390 . S
C290 N293 1.391 . S
C291 H263 0.930 . S
C291 C290 1.390 . S
C291 C292 1.392 . S
C292 H264 0.929 . S
C292 C289 1.391 . S
C292 C291 1.392 . S
N293 Co237 2.257 . S
N293 C290 1.391 . S
N293 C294 1.388 . S
C294 H265 0.930 . S
C294 C289 1.391 . S
C294 N293 1.388 . S
Co295 O297 2.143 . S
Co295 O303 2.074 . S
Co295 O306 2.093 . S
Co295 O319 2.097 . S
Co295 N336 2.151 . S
Co295 N344 2.214 . S
Co296 O297 2.160 . S
Co296 O302 2.058 . S
Co296 O312 2.057 . S
Co296 O327 2.037 . S
Co296 N331 2.145 . S
Co296 N352 2.257 . S
O297 Co295 2.143 . S
O297 Co296 2.160 . S
C298 O299 1.278 . S
C298 O306 1.224 . S
O299 C298 1.278 . S
C300 O301 1.245 . S
C300 O312 1.232 . S
O301 C300 1.245 . S
O302 Co296 2.058 . S
O302 C328 1.269 . S
O303 Co295 2.074 . S
O303 C328 1.257 . S
H304 C329 0.930 . S
H305 C335 0.930 . S
O306 Co295 2.093 . S
O306 C298 1.224 . S
H307 C339 0.929 . S
H308 C341 0.930 . S
H309 C342 0.930 . S
H310 C340 0.929 . S
H311 C343 0.928 . S
O312 Co296 2.057 . S
O312 C300 1.232 . S
H313 C332 0.929 . S
H314 C333 0.929 . S
H315 C345 0.931 . S
H316 C337 0.929 . S
H317 C346 0.930 . S
H318 C338 0.931 . S
O319 Co295 2.097 . S
O319 C347 1.214 . S
H320 C348 0.929 . S
H321 C349 0.929 . S
H322 C350 0.930 . S
H323 C351 0.929 . S
H324 C353 0.930 . S
H325 C330 0.930 . S
H326 C334 0.930 . S
O327 Co296 2.037 . S
O327 C347 1.234 . S
C328 O302 1.269 . S
C328 O303 1.257 . S
C329 H304 0.930 . S
C329 C332 1.388 . S
C329 C334 1.418 . S
C330 H325 0.930 . S
C330 C333 1.404 . S
C330 C334 1.353 . S
N331 Co296 2.145 . S
N331 C332 1.397 . S
N331 C333 1.334 . S
C332 H313 0.929 . S
C332 C329 1.388 . S
C332 N331 1.397 . S
C333 H314 0.929 . S
C333 C330 1.404 . S
C333 N331 1.334 . S
C334 H326 0.930 . S
C334 C329 1.418 . S
C334 C330 1.353 . S
C335 H305 0.930 . S
C335 N336 1.330 . S
C335 C337 1.446 . S
N336 Co295 2.151 . S
N336 C335 1.330 . S
N336 C340 1.418 . S
C337 H316 0.929 . S
C337 C335 1.446 . S
C337 C338 1.332 . S
C338 H318 0.931 . S
C338 C337 1.332 . S
C338 C339 1.267 . S
C339 H307 0.929 . S
C339 C338 1.267 . S
C339 C340 1.251 . S
C340 H310 0.929 . S
C340 N336 1.418 . S
C340 C339 1.251 . S
C341 H308 0.930 . S
C341 C343 1.406 . S
C341 C346 1.261 . S
C342 H309 0.930 . S
C342 N344 1.325 . S
C342 C345 1.357 . S
C343 H311 0.928 . S
C343 C341 1.406 . S
C343 N344 1.261 . S
N344 Co295 2.214 . S
N344 C342 1.325 . S
N344 C343 1.261 . S
C345 H315 0.931 . S
C345 C342 1.357 . S
C345 C346 1.312 . S
C346 H317 0.930 . S
C346 C341 1.261 . S
C346 C345 1.312 . S
C347 O319 1.214 . S
C347 O327 1.234 . S
C348 H320 0.929 . S
C348 C351 1.391 . S
C348 C353 1.391 . S
C349 H321 0.929 . S
C349 C350 1.390 . S
C349 N352 1.391 . S
C350 H322 0.930 . S
C350 C349 1.390 . S
C350 C351 1.392 . S
C351 H323 0.929 . S
C351 C348 1.391 . S
C351 C350 1.392 . S
N352 Co296 2.257 . S
N352 C349 1.391 . S
N352 C353 1.388 . S
C353 H324 0.930 . S
C353 C348 1.391 . S
C353 N352 1.388 . S
Co354 O356 2.143 . S
Co354 O362 2.074 . S
Co354 O365 2.093 . S
Co354 O378 2.097 . S
Co354 N395 2.151 . S
Co354 N403 2.214 . S
Co355 O356 2.160 . S
Co355 O361 2.058 . S
Co355 O371 2.057 . S
Co355 O386 2.037 . S
Co355 N390 2.145 . S
Co355 N411 2.257 . S
O356 Co354 2.143 . S
O356 Co355 2.160 . S
C357 O358 1.278 . S
C357 O365 1.224 . S
O358 C357 1.278 . S
C359 O360 1.245 . S
C359 O371 1.232 . S
O360 C359 1.245 . S
O361 Co355 2.058 . S
O361 C387 1.269 . S
O362 Co354 2.074 . S
O362 C387 1.257 . S
H363 C388 0.930 . S
H364 C394 0.930 . S
O365 Co354 2.093 . S
O365 C357 1.224 . S
H366 C398 0.929 . S
H367 C400 0.930 . S
H368 C401 0.930 . S
H369 C399 0.929 . S
H370 C402 0.928 . S
O371 Co355 2.057 . S
O371 C359 1.232 . S
H372 C391 0.929 . S
H373 C392 0.929 . S
H374 C404 0.931 . S
H375 C396 0.929 . S
H376 C405 0.930 . S
H377 C397 0.931 . S
O378 Co354 2.097 . S
O378 C406 1.214 . S
H379 C407 0.929 . S
H380 C408 0.929 . S
H381 C409 0.930 . S
H382 C410 0.929 . S
H383 C412 0.930 . S
H384 C389 0.930 . S
H385 C393 0.930 . S
O386 Co355 2.037 . S
O386 C406 1.234 . S
C387 O361 1.269 . S
C387 O362 1.257 . S
C388 H363 0.930 . S
C388 C391 1.388 . S
C388 C393 1.418 . S
C389 H384 0.930 . S
C389 C392 1.404 . S
C389 C393 1.353 . S
N390 Co355 2.145 . S
N390 C391 1.397 . S
N390 C392 1.334 . S
C391 H372 0.929 . S
C391 C388 1.388 . S
C391 N390 1.397 . S
C392 H373 0.929 . S
C392 C389 1.404 . S
C392 N390 1.334 . S
C393 H385 0.930 . S
C393 C388 1.418 . S
C393 C389 1.353 . S
C394 H364 0.930 . S
C394 N395 1.330 . S
C394 C396 1.446 . S
N395 Co354 2.151 . S
N395 C394 1.330 . S
N395 C399 1.418 . S
C396 H375 0.929 . S
C396 C394 1.446 . S
C396 C397 1.332 . S
C397 H377 0.931 . S
C397 C396 1.332 . S
C397 C398 1.267 . S
C398 H366 0.929 . S
C398 C397 1.267 . S
C398 C399 1.251 . S
C399 H369 0.929 . S
C399 N395 1.418 . S
C399 C398 1.251 . S
C400 H367 0.930 . S
C400 C402 1.406 . S
C400 C405 1.261 . S
C401 H368 0.930 . S
C401 N403 1.325 . S
C401 C404 1.357 . S
C402 H370 0.928 . S
C402 C400 1.406 . S
C402 N403 1.261 . S
N403 Co354 2.214 . S
N403 C401 1.325 . S
N403 C402 1.261 . S
C404 H374 0.931 . S
C404 C401 1.357 . S
C404 C405 1.312 . S
C405 H376 0.930 . S
C405 C400 1.261 . S
C405 C404 1.312 . S
C406 O378 1.214 . S
C406 O386 1.234 . S
C407 H379 0.929 . S
C407 C410 1.391 . S
C407 C412 1.391 . S
C408 H380 0.929 . S
C408 C409 1.390 . S
C408 N411 1.391 . S
C409 H381 0.930 . S
C409 C408 1.390 . S
C409 C410 1.392 . S
C410 H382 0.929 . S
C410 C407 1.391 . S
C410 C409 1.392 . S
N411 Co355 2.257 . S
N411 C408 1.391 . S
N411 C412 1.388 . S
C412 H383 0.930 . S
C412 C407 1.391 . S
C412 N411 1.388 . S
Co413 O415 2.143 . S
Co413 O421 2.074 . S
Co413 O424 2.093 . S
Co413 O437 2.097 . S
Co413 N454 2.151 . S
Co413 N462 2.214 . S
Co414 O415 2.160 . S
Co414 O420 2.058 . S
Co414 O430 2.057 . S
Co414 O445 2.037 . S
Co414 N449 2.145 . S
Co414 N470 2.257 . S
O415 Co413 2.143 . S
O415 Co414 2.160 . S
C416 O417 1.278 . S
C416 O424 1.224 . S
O417 C416 1.278 . S
C418 O419 1.245 . S
C418 O430 1.232 . S
O419 C418 1.245 . S
O420 Co414 2.058 . S
O420 C446 1.269 . S
O421 Co413 2.074 . S
O421 C446 1.257 . S
H422 C447 0.930 . S
H423 C453 0.930 . S
O424 Co413 2.093 . S
O424 C416 1.224 . S
H425 C457 0.929 . S
H426 C459 0.930 . S
H427 C460 0.930 . S
H428 C458 0.929 . S
H429 C461 0.928 . S
O430 Co414 2.057 . S
O430 C418 1.232 . S
H431 C450 0.929 . S
H432 C451 0.929 . S
H433 C463 0.931 . S
H434 C455 0.929 . S
H435 C464 0.930 . S
H436 C456 0.931 . S
O437 Co413 2.097 . S
O437 C465 1.214 . S
H438 C466 0.929 . S
H439 C467 0.929 . S
H440 C468 0.930 . S
H441 C469 0.929 . S
H442 C471 0.930 . S
H443 C448 0.930 . S
H444 C452 0.930 . S
O445 Co414 2.037 . S
O445 C465 1.234 . S
C446 O420 1.269 . S
C446 O421 1.257 . S
C447 H422 0.930 . S
C447 C450 1.388 . S
C447 C452 1.418 . S
C448 H443 0.930 . S
C448 C451 1.404 . S
C448 C452 1.353 . S
N449 Co414 2.145 . S
N449 C450 1.397 . S
N449 C451 1.334 . S
C450 H431 0.929 . S
C450 C447 1.388 . S
C450 N449 1.397 . S
C451 H432 0.929 . S
C451 C448 1.404 . S
C451 N449 1.334 . S
C452 H444 0.930 . S
C452 C447 1.418 . S
C452 C448 1.353 . S
C453 H423 0.930 . S
C453 N454 1.330 . S
C453 C455 1.446 . S
N454 Co413 2.151 . S
N454 C453 1.330 . S
N454 C458 1.418 . S
C455 H434 0.929 . S
C455 C453 1.446 . S
C455 C456 1.332 . S
C456 H436 0.931 . S
C456 C455 1.332 . S
C456 C457 1.267 . S
C457 H425 0.929 . S
C457 C456 1.267 . S
C457 C458 1.251 . S
C458 H428 0.929 . S
C458 N454 1.418 . S
C458 C457 1.251 . S
C459 H426 0.930 . S
C459 C461 1.406 . S
C459 C464 1.261 . S
C460 H427 0.930 . S
C460 N462 1.325 . S
C460 C463 1.357 . S
C461 H429 0.928 . S
C461 C459 1.406 . S
C461 N462 1.261 . S
N462 Co413 2.214 . S
N462 C460 1.325 . S
N462 C461 1.261 . S
C463 H433 0.931 . S
C463 C460 1.357 . S
C463 C464 1.312 . S
C464 H435 0.930 . S
C464 C459 1.261 . S
C464 C463 1.312 . S
C465 O437 1.214 . S
C465 O445 1.234 . S
C466 H438 0.929 . S
C466 C469 1.391 . S
C466 C471 1.391 . S
C467 H439 0.929 . S
C467 C468 1.390 . S
C467 N470 1.391 . S
C468 H440 0.930 . S
C468 C467 1.390 . S
C468 C469 1.392 . S
C469 H441 0.929 . S
C469 C466 1.391 . S
C469 C468 1.392 . S
N470 Co414 2.257 . S
N470 C467 1.391 . S
N470 C471 1.388 . S
C471 H442 0.930 . S
C471 C466 1.391 . S
C471 N470 1.388 . S
Co472 O474 2.143 . S
Co472 O480 2.074 . S
Co472 O483 2.093 . S
Co472 O496 2.097 . S
Co472 N513 2.151 . S
Co472 N521 2.214 . S
Co473 O474 2.160 . S
Co473 O479 2.058 . S
Co473 O489 2.057 . S
Co473 O504 2.037 . S
Co473 N508 2.145 . S
Co473 N529 2.257 . S
O474 Co472 2.143 . S
O474 Co473 2.160 . S
C475 O476 1.278 . S
C475 O483 1.224 . S
O476 C475 1.278 . S
C477 O478 1.245 . S
C477 O489 1.232 . S
O478 C477 1.245 . S
O479 Co473 2.058 . S
O479 C505 1.269 . S
O480 Co472 2.074 . S
O480 C505 1.257 . S
H481 C506 0.930 . S
H482 C512 0.930 . S
O483 Co472 2.093 . S
O483 C475 1.224 . S
H484 C516 0.929 . S
H485 C518 0.930 . S
H486 C519 0.930 . S
H487 C517 0.929 . S
H488 C520 0.928 . S
O489 Co473 2.057 . S
O489 C477 1.232 . S
H490 C509 0.929 . S
H491 C510 0.929 . S
H492 C522 0.931 . S
H493 C514 0.929 . S
H494 C523 0.930 . S
H495 C515 0.931 . S
O496 Co472 2.097 . S
O496 C524 1.214 . S
H497 C525 0.929 . S
H498 C526 0.929 . S
H499 C527 0.930 . S
H500 C528 0.929 . S
H501 C530 0.930 . S
H502 C507 0.930 . S
H503 C511 0.930 . S
O504 Co473 2.037 . S
O504 C524 1.234 . S
C505 O479 1.269 . S
C505 O480 1.257 . S
C506 H481 0.930 . S
C506 C509 1.388 . S
C506 C511 1.418 . S
C507 H502 0.930 . S
C507 C510 1.404 . S
C507 C511 1.353 . S
N508 Co473 2.145 . S
N508 C509 1.397 . S
N508 C510 1.334 . S
C509 H490 0.929 . S
C509 C506 1.388 . S
C509 N508 1.397 . S
C510 H491 0.929 . S
C510 C507 1.404 . S
C510 N508 1.334 . S
C511 H503 0.930 . S
C511 C506 1.418 . S
C511 C507 1.353 . S
C512 H482 0.930 . S
C512 N513 1.330 . S
C512 C514 1.446 . S
N513 Co472 2.151 . S
N513 C512 1.330 . S
N513 C517 1.418 . S
C514 H493 0.929 . S
C514 C512 1.446 . S
C514 C515 1.332 . S
C515 H495 0.931 . S
C515 C514 1.332 . S
C515 C516 1.267 . S
C516 H484 0.929 . S
C516 C515 1.267 . S
C516 C517 1.251 . S
C517 H487 0.929 . S
C517 N513 1.418 . S
C517 C516 1.251 . S
C518 H485 0.930 . S
C518 C520 1.406 . S
C518 C523 1.261 . S
C519 H486 0.930 . S
C519 N521 1.325 . S
C519 C522 1.357 . S
C520 H488 0.928 . S
C520 C518 1.406 . S
C520 N521 1.261 . S
N521 Co472 2.214 . S
N521 C519 1.325 . S
N521 C520 1.261 . S
C522 H492 0.931 . S
C522 C519 1.357 . S
C522 C523 1.312 . S
C523 H494 0.930 . S
C523 C518 1.261 . S
C523 C522 1.312 . S
C524 O496 1.214 . S
C524 O504 1.234 . S
C525 H497 0.929 . S
C525 C528 1.391 . S
C525 C530 1.391 . S
C526 H498 0.929 . S
C526 C527 1.390 . S
C526 N529 1.391 . S
C527 H499 0.930 . S
C527 C526 1.390 . S
C527 C528 1.392 . S
C528 H500 0.929 . S
C528 C525 1.391 . S
C528 C527 1.392 . S
N529 Co473 2.257 . S
N529 C526 1.391 . S
N529 C530 1.388 . S
C530 H501 0.930 . S
C530 C525 1.391 . S
C530 N529 1.388 . S
Co531 O533 2.143 . S
Co531 O539 2.074 . S
Co531 O542 2.093 . S
Co531 O555 2.097 . S
Co531 N572 2.151 . S
Co531 N580 2.214 . S
Co532 O533 2.160 . S
Co532 O538 2.058 . S
Co532 O548 2.057 . S
Co532 O563 2.037 . S
Co532 N567 2.145 . S
Co532 N588 2.257 . S
O533 Co531 2.143 . S
O533 Co532 2.160 . S
C534 O535 1.278 . S
C534 O542 1.224 . S
O535 C534 1.278 . S
C536 O537 1.245 . S
C536 O548 1.232 . S
O537 C536 1.245 . S
O538 Co532 2.058 . S
O538 C564 1.269 . S
O539 Co531 2.074 . S
O539 C564 1.257 . S
H540 C565 0.930 . S
H541 C571 0.930 . S
O542 Co531 2.093 . S
O542 C534 1.224 . S
H543 C575 0.929 . S
H544 C577 0.930 . S
H545 C578 0.930 . S
H546 C576 0.929 . S
H547 C579 0.928 . S
O548 Co532 2.057 . S
O548 C536 1.232 . S
H549 C568 0.929 . S
H550 C569 0.929 . S
H551 C581 0.931 . S
H552 C573 0.929 . S
H553 C582 0.930 . S
H554 C574 0.931 . S
O555 Co531 2.097 . S
O555 C583 1.214 . S
H556 C584 0.929 . S
H557 C585 0.929 . S
H558 C586 0.930 . S
H559 C587 0.929 . S
H560 C589 0.930 . S
H561 C566 0.930 . S
H562 C570 0.930 . S
O563 Co532 2.037 . S
O563 C583 1.234 . S
C564 O538 1.269 . S
C564 O539 1.257 . S
C565 H540 0.930 . S
C565 C568 1.388 . S
C565 C570 1.418 . S
C566 H561 0.930 . S
C566 C569 1.404 . S
C566 C570 1.353 . S
N567 Co532 2.145 . S
N567 C568 1.397 . S
N567 C569 1.334 . S
C568 H549 0.929 . S
C568 C565 1.388 . S
C568 N567 1.397 . S
C569 H550 0.929 . S
C569 C566 1.404 . S
C569 N567 1.334 . S
C570 H562 0.930 . S
C570 C565 1.418 . S
C570 C566 1.353 . S
C571 H541 0.930 . S
C571 N572 1.330 . S
C571 C573 1.446 . S
N572 Co531 2.151 . S
N572 C571 1.330 . S
N572 C576 1.418 . S
C573 H552 0.929 . S
C573 C571 1.446 . S
C573 C574 1.332 . S
C574 H554 0.931 . S
C574 C573 1.332 . S
C574 C575 1.267 . S
C575 H543 0.929 . S
C575 C574 1.267 . S
C575 C576 1.251 . S
C576 H546 0.929 . S
C576 N572 1.418 . S
C576 C575 1.251 . S
C577 H544 0.930 . S
C577 C579 1.406 . S
C577 C582 1.261 . S
C578 H545 0.930 . S
C578 N580 1.325 . S
C578 C581 1.357 . S
C579 H547 0.928 . S
C579 C577 1.406 . S
C579 N580 1.261 . S
N580 Co531 2.214 . S
N580 C578 1.325 . S
N580 C579 1.261 . S
C581 H551 0.931 . S
C581 C578 1.357 . S
C581 C582 1.312 . S
C582 H553 0.930 . S
C582 C577 1.261 . S
C582 C581 1.312 . S
C583 O555 1.214 . S
C583 O563 1.234 . S
C584 H556 0.929 . S
C584 C587 1.391 . S
C584 C589 1.391 . S
C585 H557 0.929 . S
C585 C586 1.390 . S
C585 N588 1.391 . S
C586 H558 0.930 . S
C586 C585 1.390 . S
C586 C587 1.392 . S
C587 H559 0.929 . S
C587 C584 1.391 . S
C587 C586 1.392 . S
N588 Co532 2.257 . S
N588 C585 1.391 . S
N588 C589 1.388 . S
C589 H560 0.930 . S
C589 C584 1.391 . S
C589 N588 1.388 . S
Co590 O592 2.143 . S
Co590 O598 2.074 . S
Co590 O601 2.093 . S
Co590 O614 2.097 . S
Co590 N631 2.151 . S
Co590 N639 2.214 . S
Co591 O592 2.160 . S
Co591 O597 2.058 . S
Co591 O607 2.057 . S
Co591 O622 2.037 . S
Co591 N626 2.145 . S
Co591 N647 2.257 . S
O592 Co590 2.143 . S
O592 Co591 2.160 . S
C593 O594 1.278 . S
C593 O601 1.224 . S
O594 C593 1.278 . S
C595 O596 1.245 . S
C595 O607 1.232 . S
O596 C595 1.245 . S
O597 Co591 2.058 . S
O597 C623 1.269 . S
O598 Co590 2.074 . S
O598 C623 1.257 . S
H599 C624 0.930 . S
H600 C630 0.930 . S
O601 Co590 2.093 . S
O601 C593 1.224 . S
H602 C634 0.929 . S
H603 C636 0.930 . S
H604 C637 0.930 . S
H605 C635 0.929 . S
H606 C638 0.928 . S
O607 Co591 2.057 . S
O607 C595 1.232 . S
H608 C627 0.929 . S
H609 C628 0.929 . S
H610 C640 0.931 . S
H611 C632 0.929 . S
H612 C641 0.930 . S
H613 C633 0.931 . S
O614 Co590 2.097 . S
O614 C642 1.214 . S
H615 C643 0.929 . S
H616 C644 0.929 . S
H617 C645 0.930 . S
H618 C646 0.929 . S
H619 C648 0.930 . S
H620 C625 0.930 . S
H621 C629 0.930 . S
O622 Co591 2.037 . S
O622 C642 1.234 . S
C623 O597 1.269 . S
C623 O598 1.257 . S
C624 H599 0.930 . S
C624 C627 1.388 . S
C624 C629 1.418 . S
C625 H620 0.930 . S
C625 C628 1.404 . S
C625 C629 1.353 . S
N626 Co591 2.145 . S
N626 C627 1.397 . S
N626 C628 1.334 . S
C627 H608 0.929 . S
C627 C624 1.388 . S
C627 N626 1.397 . S
C628 H609 0.929 . S
C628 C625 1.404 . S
C628 N626 1.334 . S
C629 H621 0.930 . S
C629 C624 1.418 . S
C629 C625 1.353 . S
C630 H600 0.930 . S
C630 N631 1.330 . S
C630 C632 1.446 . S
N631 Co590 2.151 . S
N631 C630 1.330 . S
N631 C635 1.418 . S
C632 H611 0.929 . S
C632 C630 1.446 . S
C632 C633 1.332 . S
C633 H613 0.931 . S
C633 C632 1.332 . S
C633 C634 1.267 . S
C634 H602 0.929 . S
C634 C633 1.267 . S
C634 C635 1.251 . S
C635 H605 0.929 . S
C635 N631 1.418 . S
C635 C634 1.251 . S
C636 H603 0.930 . S
C636 C638 1.406 . S
C636 C641 1.261 . S
C637 H604 0.930 . S
C637 N639 1.325 . S
C637 C640 1.357 . S
C638 H606 0.928 . S
C638 C636 1.406 . S
C638 N639 1.261 . S
N639 Co590 2.214 . S
N639 C637 1.325 . S
N639 C638 1.261 . S
C640 H610 0.931 . S
C640 C637 1.357 . S
C640 C641 1.312 . S
C641 H612 0.930 . S
C641 C636 1.261 . S
C641 C640 1.312 . S
C642 O614 1.214 . S
C642 O622 1.234 . S
C643 H615 0.929 . S
C643 C646 1.391 . S
C643 C648 1.391 . S
C644 H616 0.929 . S
C644 C645 1.390 . S
C644 N647 1.391 . S
C645 H617 0.930 . S
C645 C644 1.390 . S
C645 C646 1.392 . S
C646 H618 0.929 . S
C646 C643 1.391 . S
C646 C645 1.392 . S
N647 Co591 2.257 . S
N647 C644 1.391 . S
N647 C648 1.388 . S
C648 H619 0.930 . S
C648 C643 1.391 . S
C648 N647 1.388 . S
Co649 O651 2.143 . S
Co649 O657 2.074 . S
Co649 O660 2.093 . S
Co649 O673 2.097 . S
Co649 N690 2.151 . S
Co649 N698 2.214 . S
Co650 O651 2.160 . S
Co650 O656 2.058 . S
Co650 O666 2.057 . S
Co650 O681 2.037 . S
Co650 N685 2.145 . S
Co650 N706 2.257 . S
O651 Co649 2.143 . S
O651 Co650 2.160 . S
C652 O653 1.278 . S
C652 O660 1.224 . S
O653 C652 1.278 . S
C654 O655 1.245 . S
C654 O666 1.232 . S
O655 C654 1.245 . S
O656 Co650 2.058 . S
O656 C682 1.269 . S
O657 Co649 2.074 . S
O657 C682 1.257 . S
H658 C683 0.930 . S
H659 C689 0.930 . S
O660 Co649 2.093 . S
O660 C652 1.224 . S
H661 C693 0.929 . S
H662 C695 0.930 . S
H663 C696 0.930 . S
H664 C694 0.929 . S
H665 C697 0.928 . S
O666 Co650 2.057 . S
O666 C654 1.232 . S
H667 C686 0.929 . S
H668 C687 0.929 . S
H669 C699 0.931 . S
H670 C691 0.929 . S
H671 C700 0.930 . S
H672 C692 0.931 . S
O673 Co649 2.097 . S
O673 C701 1.214 . S
H674 C702 0.929 . S
H675 C703 0.929 . S
H676 C704 0.930 . S
H677 C705 0.929 . S
H678 C707 0.930 . S
H679 C684 0.930 . S
H680 C688 0.930 . S
O681 Co650 2.037 . S
O681 C701 1.234 . S
C682 O656 1.269 . S
C682 O657 1.257 . S
C683 H658 0.930 . S
C683 C686 1.388 . S
C683 C688 1.418 . S
C684 H679 0.930 . S
C684 C687 1.404 . S
C684 C688 1.353 . S
N685 Co650 2.145 . S
N685 C686 1.397 . S
N685 C687 1.334 . S
C686 H667 0.929 . S
C686 C683 1.388 . S
C686 N685 1.397 . S
C687 H668 0.929 . S
C687 C684 1.404 . S
C687 N685 1.334 . S
C688 H680 0.930 . S
C688 C683 1.418 . S
C688 C684 1.353 . S
C689 H659 0.930 . S
C689 N690 1.330 . S
C689 C691 1.446 . S
N690 Co649 2.151 . S
N690 C689 1.330 . S
N690 C694 1.418 . S
C691 H670 0.929 . S
C691 C689 1.446 . S
C691 C692 1.332 . S
C692 H672 0.931 . S
C692 C691 1.332 . S
C692 C693 1.267 . S
C693 H661 0.929 . S
C693 C692 1.267 . S
C693 C694 1.251 . S
C694 H664 0.929 . S
C694 N690 1.418 . S
C694 C693 1.251 . S
C695 H662 0.930 . S
C695 C697 1.406 . S
C695 C700 1.261 . S
C696 H663 0.930 . S
C696 N698 1.325 . S
C696 C699 1.357 . S
C697 H665 0.928 . S
C697 C695 1.406 . S
C697 N698 1.261 . S
N698 Co649 2.214 . S
N698 C696 1.325 . S
N698 C697 1.261 . S
C699 H669 0.931 . S
C699 C696 1.357 . S
C699 C700 1.312 . S
C700 H671 0.930 . S
C700 C695 1.261 . S
C700 C699 1.312 . S
C701 O673 1.214 . S
C701 O681 1.234 . S
C702 H674 0.929 . S
C702 C705 1.391 . S
C702 C707 1.391 . S
C703 H675 0.929 . S
C703 C704 1.390 . S
C703 N706 1.391 . S
C704 H676 0.930 . S
C704 C703 1.390 . S
C704 C705 1.392 . S
C705 H677 0.929 . S
C705 C702 1.391 . S
C705 C704 1.392 . S
N706 Co650 2.257 . S
N706 C703 1.391 . S
N706 C707 1.388 . S
C707 H678 0.930 . S
C707 C702 1.391 . S
C707 N706 1.388 . S
Co708 O710 2.143 . S
Co708 O716 2.074 . S
Co708 O719 2.093 . S
Co708 O732 2.097 . S
Co708 N749 2.151 . S
Co708 N757 2.214 . S
Co709 O710 2.160 . S
Co709 O715 2.058 . S
Co709 O725 2.057 . S
Co709 O740 2.037 . S
Co709 N744 2.145 . S
Co709 N765 2.257 . S
O710 Co708 2.143 . S
O710 Co709 2.160 . S
C711 O712 1.278 . S
C711 O719 1.224 . S
O712 C711 1.278 . S
C713 O714 1.245 . S
C713 O725 1.232 . S
O714 C713 1.245 . S
O715 Co709 2.058 . S
O715 C741 1.269 . S
O716 Co708 2.074 . S
O716 C741 1.257 . S
H717 C742 0.930 . S
H718 C748 0.930 . S
O719 Co708 2.093 . S
O719 C711 1.224 . S
H720 C752 0.929 . S
H721 C754 0.930 . S
H722 C755 0.930 . S
H723 C753 0.929 . S
H724 C756 0.928 . S
O725 Co709 2.057 . S
O725 C713 1.232 . S
H726 C745 0.929 . S
H727 C746 0.929 . S
H728 C758 0.931 . S
H729 C750 0.929 . S
H730 C759 0.930 . S
H731 C751 0.931 . S
O732 Co708 2.097 . S
O732 C760 1.214 . S
H733 C761 0.929 . S
H734 C762 0.929 . S
H735 C763 0.930 . S
H736 C764 0.929 . S
H737 C766 0.930 . S
H738 C743 0.930 . S
H739 C747 0.930 . S
O740 Co709 2.037 . S
O740 C760 1.234 . S
C741 O715 1.269 . S
C741 O716 1.257 . S
C742 H717 0.930 . S
C742 C745 1.388 . S
C742 C747 1.418 . S
C743 H738 0.930 . S
C743 C746 1.404 . S
C743 C747 1.353 . S
N744 Co709 2.145 . S
N744 C745 1.397 . S
N744 C746 1.334 . S
C745 H726 0.929 . S
C745 C742 1.388 . S
C745 N744 1.397 . S
C746 H727 0.929 . S
C746 C743 1.404 . S
C746 N744 1.334 . S
C747 H739 0.930 . S
C747 C742 1.418 . S
C747 C743 1.353 . S
C748 H718 0.930 . S
C748 N749 1.330 . S
C748 C750 1.446 . S
N749 Co708 2.151 . S
N749 C748 1.330 . S
N749 C753 1.418 . S
C750 H729 0.929 . S
C750 C748 1.446 . S
C750 C751 1.332 . S
C751 H731 0.931 . S
C751 C750 1.332 . S
C751 C752 1.267 . S
C752 H720 0.929 . S
C752 C751 1.267 . S
C752 C753 1.251 . S
C753 H723 0.929 . S
C753 N749 1.418 . S
C753 C752 1.251 . S
C754 H721 0.930 . S
C754 C756 1.406 . S
C754 C759 1.261 . S
C755 H722 0.930 . S
C755 N757 1.325 . S
C755 C758 1.357 . S
C756 H724 0.928 . S
C756 C754 1.406 . S
C756 N757 1.261 . S
N757 Co708 2.214 . S
N757 C755 1.325 . S
N757 C756 1.261 . S
C758 H728 0.931 . S
C758 C755 1.357 . S
C758 C759 1.312 . S
C759 H730 0.930 . S
C759 C754 1.261 . S
C759 C758 1.312 . S
C760 O732 1.214 . S
C760 O740 1.234 . S
C761 H733 0.929 . S
C761 C764 1.391 . S
C761 C766 1.391 . S
C762 H734 0.929 . S
C762 C763 1.390 . S
C762 N765 1.391 . S
C763 H735 0.930 . S
C763 C762 1.390 . S
C763 C764 1.392 . S
C764 H736 0.929 . S
C764 C761 1.391 . S
C764 C763 1.392 . S
N765 Co709 2.257 . S
N765 C762 1.391 . S
N765 C766 1.388 . S
C766 H737 0.930 . S
C766 C761 1.391 . S
C766 N765 1.388 . S
Co767 O769 2.143 . S
Co767 O775 2.074 . S
Co767 O778 2.093 . S
Co767 O791 2.097 . S
Co767 N808 2.151 . S
Co767 N816 2.214 . S
Co768 O769 2.160 . S
Co768 O774 2.058 . S
Co768 O784 2.057 . S
Co768 O799 2.037 . S
Co768 N803 2.145 . S
Co768 N824 2.257 . S
O769 Co767 2.143 . S
O769 Co768 2.160 . S
C770 O771 1.278 . S
C770 O778 1.224 . S
O771 C770 1.278 . S
C772 O773 1.245 . S
C772 O784 1.232 . S
O773 C772 1.245 . S
O774 Co768 2.058 . S
O774 C800 1.269 . S
O775 Co767 2.074 . S
O775 C800 1.257 . S
H776 C801 0.930 . S
H777 C807 0.930 . S
O778 Co767 2.093 . S
O778 C770 1.224 . S
H779 C811 0.929 . S
H780 C813 0.930 . S
H781 C814 0.930 . S
H782 C812 0.929 . S
H783 C815 0.928 . S
O784 Co768 2.057 . S
O784 C772 1.232 . S
H785 C804 0.929 . S
H786 C805 0.929 . S
H787 C817 0.931 . S
H788 C809 0.929 . S
H789 C818 0.930 . S
H790 C810 0.931 . S
O791 Co767 2.097 . S
O791 C819 1.214 . S
H792 C820 0.929 . S
H793 C821 0.929 . S
H794 C822 0.930 . S
H795 C823 0.929 . S
H796 C825 0.930 . S
H797 C802 0.930 . S
H798 C806 0.930 . S
O799 Co768 2.037 . S
O799 C819 1.234 . S
C800 O774 1.269 . S
C800 O775 1.257 . S
C801 H776 0.930 . S
C801 C804 1.388 . S
C801 C806 1.418 . S
C802 H797 0.930 . S
C802 C805 1.404 . S
C802 C806 1.353 . S
N803 Co768 2.145 . S
N803 C804 1.397 . S
N803 C805 1.334 . S
C804 H785 0.929 . S
C804 C801 1.388 . S
C804 N803 1.397 . S
C805 H786 0.929 . S
C805 C802 1.404 . S
C805 N803 1.334 . S
C806 H798 0.930 . S
C806 C801 1.418 . S
C806 C802 1.353 . S
C807 H777 0.930 . S
C807 N808 1.330 . S
C807 C809 1.446 . S
N808 Co767 2.151 . S
N808 C807 1.330 . S
N808 C812 1.418 . S
C809 H788 0.929 . S
C809 C807 1.446 . S
C809 C810 1.332 . S
C810 H790 0.931 . S
C810 C809 1.332 . S
C810 C811 1.267 . S
C811 H779 0.929 . S
C811 C810 1.267 . S
C811 C812 1.251 . S
C812 H782 0.929 . S
C812 N808 1.418 . S
C812 C811 1.251 . S
C813 H780 0.930 . S
C813 C815 1.406 . S
C813 C818 1.261 . S
C814 H781 0.930 . S
C814 N816 1.325 . S
C814 C817 1.357 . S
C815 H783 0.928 . S
C815 C813 1.406 . S
C815 N816 1.261 . S
N816 Co767 2.214 . S
N816 C814 1.325 . S
N816 C815 1.261 . S
C817 H787 0.931 . S
C817 C814 1.357 . S
C817 C818 1.312 . S
C818 H789 0.930 . S
C818 C813 1.261 . S
C818 C817 1.312 . S
C819 O791 1.214 . S
C819 O799 1.234 . S
C820 H792 0.929 . S
C820 C823 1.391 . S
C820 C825 1.391 . S
C821 H793 0.929 . S
C821 C822 1.390 . S
C821 N824 1.391 . S
C822 H794 0.930 . S
C822 C821 1.390 . S
C822 C823 1.392 . S
C823 H795 0.929 . S
C823 C820 1.391 . S
C823 C822 1.392 . S
N824 Co768 2.257 . S
N824 C821 1.391 . S
N824 C825 1.388 . S
C825 H796 0.930 . S
C825 C820 1.391 . S
C825 N824 1.388 . S
Co826 O828 2.143 . S
Co826 O834 2.074 . S
Co826 O837 2.093 . S
Co826 O850 2.097 . S
Co826 N867 2.151 . S
Co826 N875 2.214 . S
Co827 O828 2.160 . S
Co827 O833 2.058 . S
Co827 O843 2.057 . S
Co827 O858 2.037 . S
Co827 N862 2.145 . S
Co827 N883 2.257 . S
O828 Co826 2.143 . S
O828 Co827 2.160 . S
C829 O830 1.278 . S
C829 O837 1.224 . S
O830 C829 1.278 . S
C831 O832 1.245 . S
C831 O843 1.232 . S
O832 C831 1.245 . S
O833 Co827 2.058 . S
O833 C859 1.269 . S
O834 Co826 2.074 . S
O834 C859 1.257 . S
H835 C860 0.930 . S
H836 C866 0.930 . S
O837 Co826 2.093 . S
O837 C829 1.224 . S
H838 C870 0.929 . S
H839 C872 0.930 . S
H840 C873 0.930 . S
H841 C871 0.929 . S
H842 C874 0.928 . S
O843 Co827 2.057 . S
O843 C831 1.232 . S
H844 C863 0.929 . S
H845 C864 0.929 . S
H846 C876 0.931 . S
H847 C868 0.929 . S
H848 C877 0.930 . S
H849 C869 0.931 . S
O850 Co826 2.097 . S
O850 C878 1.214 . S
H851 C879 0.929 . S
H852 C880 0.929 . S
H853 C881 0.930 . S
H854 C882 0.929 . S
H855 C884 0.930 . S
H856 C861 0.930 . S
H857 C865 0.930 . S
O858 Co827 2.037 . S
O858 C878 1.234 . S
C859 O833 1.269 . S
C859 O834 1.257 . S
C860 H835 0.930 . S
C860 C863 1.388 . S
C860 C865 1.418 . S
C861 H856 0.930 . S
C861 C864 1.404 . S
C861 C865 1.353 . S
N862 Co827 2.145 . S
N862 C863 1.397 . S
N862 C864 1.334 . S
C863 H844 0.929 . S
C863 C860 1.388 . S
C863 N862 1.397 . S
C864 H845 0.929 . S
C864 C861 1.404 . S
C864 N862 1.334 . S
C865 H857 0.930 . S
C865 C860 1.418 . S
C865 C861 1.353 . S
C866 H836 0.930 . S
C866 N867 1.330 . S
C866 C868 1.446 . S
N867 Co826 2.151 . S
N867 C866 1.330 . S
N867 C871 1.418 . S
C868 H847 0.929 . S
C868 C866 1.446 . S
C868 C869 1.332 . S
C869 H849 0.931 . S
C869 C868 1.332 . S
C869 C870 1.267 . S
C870 H838 0.929 . S
C870 C869 1.267 . S
C870 C871 1.251 . S
C871 H841 0.929 . S
C871 N867 1.418 . S
C871 C870 1.251 . S
C872 H839 0.930 . S
C872 C874 1.406 . S
C872 C877 1.261 . S
C873 H840 0.930 . S
C873 N875 1.325 . S
C873 C876 1.357 . S
C874 H842 0.928 . S
C874 C872 1.406 . S
C874 N875 1.261 . S
N875 Co826 2.214 . S
N875 C873 1.325 . S
N875 C874 1.261 . S
C876 H846 0.931 . S
C876 C873 1.357 . S
C876 C877 1.312 . S
C877 H848 0.930 . S
C877 C872 1.261 . S
C877 C876 1.312 . S
C878 O850 1.214 . S
C878 O858 1.234 . S
C879 H851 0.929 . S
C879 C882 1.391 . S
C879 C884 1.391 . S
C880 H852 0.929 . S
C880 C881 1.390 . S
C880 N883 1.391 . S
C881 H853 0.930 . S
C881 C880 1.390 . S
C881 C882 1.392 . S
C882 H854 0.929 . S
C882 C879 1.391 . S
C882 C881 1.392 . S
N883 Co827 2.257 . S
N883 C880 1.391 . S
N883 C884 1.388 . S
C884 H855 0.930 . S
C884 C879 1.391 . S
C884 N883 1.388 . S
Co885 O887 2.143 . S
Co885 O893 2.074 . S
Co885 O896 2.093 . S
Co885 O909 2.097 . S
Co885 N926 2.151 . S
Co885 N934 2.214 . S
Co886 O887 2.160 . S
Co886 O892 2.058 . S
Co886 O902 2.057 . S
Co886 O917 2.037 . S
Co886 N921 2.145 . S
Co886 N942 2.257 . S
O887 Co885 2.143 . S
O887 Co886 2.160 . S
C888 O889 1.278 . S
C888 O896 1.224 . S
O889 C888 1.278 . S
C890 O891 1.245 . S
C890 O902 1.232 . S
O891 C890 1.245 . S
O892 Co886 2.058 . S
O892 C918 1.269 . S
O893 Co885 2.074 . S
O893 C918 1.257 . S
H894 C919 0.930 . S
H895 C925 0.930 . S
O896 Co885 2.093 . S
O896 C888 1.224 . S
H897 C929 0.929 . S
H898 C931 0.930 . S
H899 C932 0.930 . S
H900 C930 0.929 . S
H901 C933 0.928 . S
O902 Co886 2.057 . S
O902 C890 1.232 . S
H903 C922 0.929 . S
H904 C923 0.929 . S
H905 C935 0.931 . S
H906 C927 0.929 . S
H907 C936 0.930 . S
H908 C928 0.931 . S
O909 Co885 2.097 . S
O909 C937 1.214 . S
H910 C938 0.929 . S
H911 C939 0.929 . S
H912 C940 0.930 . S
H913 C941 0.929 . S
H914 C943 0.930 . S
H915 C920 0.930 . S
H916 C924 0.930 . S
O917 Co886 2.037 . S
O917 C937 1.234 . S
C918 O892 1.269 . S
C918 O893 1.257 . S
C919 H894 0.930 . S
C919 C922 1.388 . S
C919 C924 1.418 . S
C920 H915 0.930 . S
C920 C923 1.404 . S
C920 C924 1.353 . S
N921 Co886 2.145 . S
N921 C922 1.397 . S
N921 C923 1.334 . S
C922 H903 0.929 . S
C922 C919 1.388 . S
C922 N921 1.397 . S
C923 H904 0.929 . S
C923 C920 1.404 . S
C923 N921 1.334 . S
C924 H916 0.930 . S
C924 C919 1.418 . S
C924 C920 1.353 . S
C925 H895 0.930 . S
C925 N926 1.330 . S
C925 C927 1.446 . S
N926 Co885 2.151 . S
N926 C925 1.330 . S
N926 C930 1.418 . S
C927 H906 0.929 . S
C927 C925 1.446 . S
C927 C928 1.332 . S
C928 H908 0.931 . S
C928 C927 1.332 . S
C928 C929 1.267 . S
C929 H897 0.929 . S
C929 C928 1.267 . S
C929 C930 1.251 . S
C930 H900 0.929 . S
C930 N926 1.418 . S
C930 C929 1.251 . S
C931 H898 0.930 . S
C931 C933 1.406 . S
C931 C936 1.261 . S
C932 H899 0.930 . S
C932 N934 1.325 . S
C932 C935 1.357 . S
C933 H901 0.928 . S
C933 C931 1.406 . S
C933 N934 1.261 . S
N934 Co885 2.214 . S
N934 C932 1.325 . S
N934 C933 1.261 . S
C935 H905 0.931 . S
C935 C932 1.357 . S
C935 C936 1.312 . S
C936 H907 0.930 . S
C936 C931 1.261 . S
C936 C935 1.312 . S
C937 O909 1.214 . S
C937 O917 1.234 . S
C938 H910 0.929 . S
C938 C941 1.391 . S
C938 C943 1.391 . S
C939 H911 0.929 . S
C939 C940 1.390 . S
C939 N942 1.391 . S
C940 H912 0.930 . S
C940 C939 1.390 . S
C940 C941 1.392 . S
C941 H913 0.929 . S
C941 C938 1.391 . S
C941 C940 1.392 . S
N942 Co886 2.257 . S
N942 C939 1.391 . S
N942 C943 1.388 . S
C943 H914 0.930 . S
C943 C938 1.391 . S
C943 N942 1.388 . S
C944 C945 1.349 . S
C944 C946 1.327 . S
C944 H969 0.950 . S
C945 C944 1.349 . S
C945 C961 1.349 . S
C946 C944 1.327 . S
C946 C965 1.429 . S
C946 H970 0.950 . S
C947 C964 1.574 1_455 S
C947 C966 1.368 . S
C947 H971 0.949 . S
H948 C952 0.949 . S
C949 C950 1.349 . S
C949 C951 1.327 . S
C949 H972 0.950 . S
C950 C949 1.349 . S
C950 C962 1.349 . S
C951 C949 1.327 . S
C951 C967 1.429 . S
C951 H973 0.950 . S
C952 H948 0.949 . S
C952 C960 1.574 1_655 S
C952 C968 1.368 . S
H953 C961 0.950 . S
H954 C959 0.950 . S
H955 C960 0.949 . S
H956 C962 0.950 . S
H957 C963 0.950 . S
H958 C964 0.949 . S
C959 H954 0.950 . S
C959 C961 1.327 . S
C959 C965 1.429 . S
C960 C952 1.574 1_455 S
C960 H955 0.949 . S
C960 C966 1.368 . S
C961 C945 1.349 . S
C961 H953 0.950 . S
C961 C959 1.327 . S
C962 C950 1.349 . S
C962 H956 0.950 . S
C962 C963 1.327 . S
C963 H957 0.950 . S
C963 C962 1.327 . S
C963 C967 1.429 . S
C964 C947 1.574 1_655 S
C964 H958 0.949 . S
C964 C968 1.368 . S
C965 C946 1.429 . S
C965 C959 1.429 . S
C965 C966 1.523 . S
C966 C947 1.368 . S
C966 C960 1.368 . S
C966 C965 1.523 . S
C967 C951 1.429 . S
C967 C963 1.429 . S
C967 C968 1.523 . S
C968 C952 1.368 . S
C968 C964 1.368 . S
C968 C967 1.523 . S
H969 C944 0.950 . S
H970 C946 0.950 . S
H971 C947 0.949 . S
H972 C949 0.950 . S
H973 C951 0.950 . S
C974 C975 1.349 . S
C974 C976 1.327 . S
C974 H999 0.950 . S
C975 C974 1.349 . S
C975 C991 1.349 . S
C976 C974 1.327 . S
C976 C995 1.429 . S
C976 H1000 0.950 . S
C977 C994 1.574 1_565 S
C977 C996 1.368 . S
C977 H1001 0.949 . S
H978 C982 0.949 . S
C979 C980 1.349 . S
C979 C981 1.327 . S
C979 H1002 0.950 . S
C980 C979 1.349 . S
C980 C992 1.349 . S
C981 C979 1.327 . S
C981 C997 1.429 . S
C981 H1003 0.950 . S
C982 H978 0.949 . S
C982 C990 1.574 1_545 S
C982 C998 1.368 . S
H983 C991 0.950 . S
H984 C989 0.950 . S
H985 C990 0.949 . S
H986 C992 0.950 . S
H987 C993 0.950 . S
H988 C994 0.949 . S
C989 H984 0.950 . S
C989 C991 1.327 . S
C989 C995 1.429 . S
C990 C982 1.574 1_565 S
C990 H985 0.949 . S
C990 C996 1.368 . S
C991 C975 1.349 . S
C991 H983 0.950 . S
C991 C989 1.327 . S
C992 C980 1.349 . S
C992 H986 0.950 . S
C992 C993 1.327 . S
C993 H987 0.950 . S
C993 C992 1.327 . S
C993 C997 1.429 . S
C994 C977 1.574 1_545 S
C994 H988 0.949 . S
C994 C998 1.368 . S
C995 C976 1.429 . S
C995 C989 1.429 . S
C995 C996 1.523 . S
C996 C977 1.368 . S
C996 C990 1.368 . S
C996 C995 1.523 . S
C997 C981 1.429 . S
C997 C993 1.429 . S
C997 C998 1.523 . S
C998 C982 1.368 . S
C998 C994 1.368 . S
C998 C997 1.523 . S
H999 C974 0.950 . S
H1000 C976 0.950 . S
H1001 C977 0.949 . S
H1002 C979 0.950 . S
H1003 C981 0.950 . S
C1004 C1005 1.349 . S
C1004 C1006 1.327 . S
C1004 H1029 0.950 . S
C1005 C1004 1.349 . S
C1005 C1021 1.349 . S
C1006 C1004 1.327 . S
C1006 C1025 1.429 . S
C1006 H1030 0.950 . S
C1007 C1024 1.574 1_455 S
C1007 C1026 1.368 . S
C1007 H1031 0.949 . S
H1008 C1012 0.949 . S
C1009 C1010 1.349 . S
C1009 C1011 1.327 . S
C1009 H1032 0.950 . S
C1010 C1009 1.349 . S
C1010 C1022 1.349 . S
C1011 C1009 1.327 . S
C1011 C1027 1.429 . S
C1011 H1033 0.950 . S
C1012 H1008 0.949 . S
C1012 C1020 1.574 1_655 S
C1012 C1028 1.368 . S
H1013 C1021 0.950 . S
H1014 C1019 0.950 . S
H1015 C1020 0.949 . S
H1016 C1022 0.950 . S
H1017 C1023 0.950 . S
H1018 C1024 0.949 . S
C1019 H1014 0.950 . S
C1019 C1021 1.327 . S
C1019 C1025 1.429 . S
C1020 C1012 1.574 1_455 S
C1020 H1015 0.949 . S
C1020 C1026 1.368 . S
C1021 C1005 1.349 . S
C1021 H1013 0.950 . S
C1021 C1019 1.327 . S
C1022 C1010 1.349 . S
C1022 H1016 0.950 . S
C1022 C1023 1.327 . S
C1023 H1017 0.950 . S
C1023 C1022 1.327 . S
C1023 C1027 1.429 . S
C1024 C1007 1.574 1_655 S
C1024 H1018 0.949 . S
C1024 C1028 1.368 . S
C1025 C1006 1.429 . S
C1025 C1019 1.429 . S
C1025 C1026 1.523 . S
C1026 C1007 1.368 . S
C1026 C1020 1.368 . S
C1026 C1025 1.523 . S
C1027 C1011 1.429 . S
C1027 C1023 1.429 . S
C1027 C1028 1.523 . S
C1028 C1012 1.368 . S
C1028 C1024 1.368 . S
C1028 C1027 1.523 . S
H1029 C1004 0.950 . S
H1030 C1006 0.950 . S
H1031 C1007 0.949 . S
H1032 C1009 0.950 . S
H1033 C1011 0.950 . S
C1034 C1035 1.349 . S
C1034 C1036 1.327 . S
C1034 H1059 0.950 . S
C1035 C1034 1.349 . S
C1035 C1051 1.349 . S
C1036 C1034 1.327 . S
C1036 C1055 1.429 . S
C1036 H1060 0.950 . S
C1037 C1054 1.574 1_565 S
C1037 C1056 1.368 . S
C1037 H1061 0.949 . S
H1038 C1042 0.949 . S
C1039 C1040 1.349 . S
C1039 C1041 1.327 . S
C1039 H1062 0.950 . S
C1040 C1039 1.349 . S
C1040 C1052 1.349 . S
C1041 C1039 1.327 . S
C1041 C1057 1.429 . S
C1041 H1063 0.950 . S
C1042 H1038 0.949 . S
C1042 C1050 1.574 1_545 S
C1042 C1058 1.368 . S
H1043 C1051 0.950 . S
H1044 C1049 0.950 . S
H1045 C1050 0.949 . S
H1046 C1052 0.950 . S
H1047 C1053 0.950 . S
H1048 C1054 0.949 . S
C1049 H1044 0.950 . S
C1049 C1051 1.327 . S
C1049 C1055 1.429 . S
C1050 C1042 1.574 1_565 S
C1050 H1045 0.949 . S
C1050 C1056 1.368 . S
C1051 C1035 1.349 . S
C1051 H1043 0.950 . S
C1051 C1049 1.327 . S
C1052 C1040 1.349 . S
C1052 H1046 0.950 . S
C1052 C1053 1.327 . S
C1053 H1047 0.950 . S
C1053 C1052 1.327 . S
C1053 C1057 1.429 . S
C1054 C1037 1.574 1_545 S
C1054 H1048 0.949 . S
C1054 C1058 1.368 . S
C1055 C1036 1.429 . S
C1055 C1049 1.429 . S
C1055 C1056 1.523 . S
C1056 C1037 1.368 . S
C1056 C1050 1.368 . S
C1056 C1055 1.523 . S
C1057 C1041 1.429 . S
C1057 C1053 1.429 . S
C1057 C1058 1.523 . S
C1058 C1042 1.368 . S
C1058 C1054 1.368 . S
C1058 C1057 1.523 . S
H1059 C1034 0.950 . S
H1060 C1036 0.950 . S
H1061 C1037 0.949 . S
H1062 C1039 0.950 . S
H1063 C1041 0.950 . S
C1064 C1065 1.349 . S
C1064 C1066 1.327 . S
C1064 H1089 0.950 . S
C1065 C1064 1.349 . S
C1065 C1081 1.349 . S
C1066 C1064 1.327 . S
C1066 C1085 1.429 . S
C1066 H1090 0.950 . S
C1067 C1084 1.574 1_655 S
C1067 C1086 1.368 . S
C1067 H1091 0.949 . S
H1068 C1072 0.949 . S
C1069 C1070 1.349 . S
C1069 C1071 1.327 . S
C1069 H1092 0.950 . S
C1070 C1069 1.349 . S
C1070 C1082 1.349 . S
C1071 C1069 1.327 . S
C1071 C1087 1.429 . S
C1071 H1093 0.950 . S
C1072 H1068 0.949 . S
C1072 C1080 1.574 1_455 S
C1072 C1088 1.368 . S
H1073 C1081 0.950 . S
H1074 C1079 0.950 . S
H1075 C1080 0.949 . S
H1076 C1082 0.950 . S
H1077 C1083 0.950 . S
H1078 C1084 0.949 . S
C1079 H1074 0.950 . S
C1079 C1081 1.327 . S
C1079 C1085 1.429 . S
C1080 C1072 1.574 1_655 S
C1080 H1075 0.949 . S
C1080 C1086 1.368 . S
C1081 C1065 1.349 . S
C1081 H1073 0.950 . S
C1081 C1079 1.327 . S
C1082 C1070 1.349 . S
C1082 H1076 0.950 . S
C1082 C1083 1.327 . S
C1083 H1077 0.950 . S
C1083 C1082 1.327 . S
C1083 C1087 1.429 . S
C1084 C1067 1.574 1_455 S
C1084 H1078 0.949 . S
C1084 C1088 1.368 . S
C1085 C1066 1.429 . S
C1085 C1079 1.429 . S
C1085 C1086 1.523 . S
C1086 C1067 1.368 . S
C1086 C1080 1.368 . S
C1086 C1085 1.523 . S
C1087 C1071 1.429 . S
C1087 C1083 1.429 . S
C1087 C1088 1.523 . S
C1088 C1072 1.368 . S
C1088 C1084 1.368 . S
C1088 C1087 1.523 . S
H1089 C1064 0.950 . S
H1090 C1066 0.950 . S
H1091 C1067 0.949 . S
H1092 C1069 0.950 . S
H1093 C1071 0.950 . S
C1094 C1095 1.349 . S
C1094 C1096 1.327 . S
C1094 H1119 0.950 . S
C1095 C1094 1.349 . S
C1095 C1111 1.349 . S
C1096 C1094 1.327 . S
C1096 C1115 1.429 . S
C1096 H1120 0.950 . S
C1097 C1114 1.574 1_545 S
C1097 C1116 1.368 . S
C1097 H1121 0.949 . S
H1098 C1102 0.949 . S
C1099 C1100 1.349 . S
C1099 C1101 1.327 . S
C1099 H1122 0.950 . S
C1100 C1099 1.349 . S
C1100 C1112 1.349 . S
C1101 C1099 1.327 . S
C1101 C1117 1.429 . S
C1101 H1123 0.950 . S
C1102 H1098 0.949 . S
C1102 C1110 1.574 1_565 S
C1102 C1118 1.368 . S
H1103 C1111 0.950 . S
H1104 C1109 0.950 . S
H1105 C1110 0.949 . S
H1106 C1112 0.950 . S
H1107 C1113 0.950 . S
H1108 C1114 0.949 . S
C1109 H1104 0.950 . S
C1109 C1111 1.327 . S
C1109 C1115 1.429 . S
C1110 C1102 1.574 1_545 S
C1110 H1105 0.949 . S
C1110 C1116 1.368 . S
C1111 C1095 1.349 . S
C1111 H1103 0.950 . S
C1111 C1109 1.327 . S
C1112 C1100 1.349 . S
C1112 H1106 0.950 . S
C1112 C1113 1.327 . S
C1113 H1107 0.950 . S
C1113 C1112 1.327 . S
C1113 C1117 1.429 . S
C1114 C1097 1.574 1_565 S
C1114 H1108 0.949 . S
C1114 C1118 1.368 . S
C1115 C1096 1.429 . S
C1115 C1109 1.429 . S
C1115 C1116 1.523 . S
C1116 C1097 1.368 . S
C1116 C1110 1.368 . S
C1116 C1115 1.523 . S
C1117 C1101 1.429 . S
C1117 C1113 1.429 . S
C1117 C1118 1.523 . S
C1118 C1102 1.368 . S
C1118 C1114 1.368 . S
C1118 C1117 1.523 . S
H1119 C1094 0.950 . S
H1120 C1096 0.950 . S
H1121 C1097 0.949 . S
H1122 C1099 0.950 . S
H1123 C1101 0.950 . S
C1124 C1125 1.349 . S
C1124 C1126 1.327 . S
C1124 H1149 0.950 . S
C1125 C1124 1.349 . S
C1125 C1141 1.349 . S
C1126 C1124 1.327 . S
C1126 C1145 1.429 . S
C1126 H1150 0.950 . S
C1127 C1144 1.574 1_655 S
C1127 C1146 1.368 . S
C1127 H1151 0.949 . S
H1128 C1132 0.949 . S
C1129 C1130 1.349 . S
C1129 C1131 1.327 . S
C1129 H1152 0.950 . S
C1130 C1129 1.349 . S
C1130 C1142 1.349 . S
C1131 C1129 1.327 . S
C1131 C1147 1.429 . S
C1131 H1153 0.950 . S
C1132 H1128 0.949 . S
C1132 C1140 1.574 1_455 S
C1132 C1148 1.368 . S
H1133 C1141 0.950 . S
H1134 C1139 0.950 . S
H1135 C1140 0.949 . S
H1136 C1142 0.950 . S
H1137 C1143 0.950 . S
H1138 C1144 0.949 . S
C1139 H1134 0.950 . S
C1139 C1141 1.327 . S
C1139 C1145 1.429 . S
C1140 C1132 1.574 1_655 S
C1140 H1135 0.949 . S
C1140 C1146 1.368 . S
C1141 C1125 1.349 . S
C1141 H1133 0.950 . S
C1141 C1139 1.327 . S
C1142 C1130 1.349 . S
C1142 H1136 0.950 . S
C1142 C1143 1.327 . S
C1143 H1137 0.950 . S
C1143 C1142 1.327 . S
C1143 C1147 1.429 . S
C1144 C1127 1.574 1_455 S
C1144 H1138 0.949 . S
C1144 C1148 1.368 . S
C1145 C1126 1.429 . S
C1145 C1139 1.429 . S
C1145 C1146 1.523 . S
C1146 C1127 1.368 . S
C1146 C1140 1.368 . S
C1146 C1145 1.523 . S
C1147 C1131 1.429 . S
C1147 C1143 1.429 . S
C1147 C1148 1.523 . S
C1148 C1132 1.368 . S
C1148 C1144 1.368 . S
C1148 C1147 1.523 . S
H1149 C1124 0.950 . S
H1150 C1126 0.950 . S
H1151 C1127 0.949 . S
H1152 C1129 0.950 . S
H1153 C1131 0.950 . S
C1154 C1155 1.349 . S
C1154 C1156 1.327 . S
C1154 H1179 0.950 . S
C1155 C1154 1.349 . S
C1155 C1171 1.349 . S
C1156 C1154 1.327 . S
C1156 C1175 1.429 . S
C1156 H1180 0.950 . S
C1157 C1174 1.574 1_545 S
C1157 C1176 1.368 . S
C1157 H1181 0.949 . S
H1158 C1162 0.949 . S
C1159 C1160 1.349 . S
C1159 C1161 1.327 . S
C1159 H1182 0.950 . S
C1160 C1159 1.349 . S
C1160 C1172 1.349 . S
C1161 C1159 1.327 . S
C1161 C1177 1.429 . S
C1161 H1183 0.950 . S
C1162 H1158 0.949 . S
C1162 C1170 1.574 1_565 S
C1162 C1178 1.368 . S
H1163 C1171 0.950 . S
H1164 C1169 0.950 . S
H1165 C1170 0.949 . S
H1166 C1172 0.950 . S
H1167 C1173 0.950 . S
H1168 C1174 0.949 . S
C1169 H1164 0.950 . S
C1169 C1171 1.327 . S
C1169 C1175 1.429 . S
C1170 C1162 1.574 1_545 S
C1170 H1165 0.949 . S
C1170 C1176 1.368 . S
C1171 C1155 1.349 . S
C1171 H1163 0.950 . S
C1171 C1169 1.327 . S
C1172 C1160 1.349 . S
C1172 H1166 0.950 . S
C1172 C1173 1.327 . S
C1173 H1167 0.950 . S
C1173 C1172 1.327 . S
C1173 C1177 1.429 . S
C1174 C1157 1.574 1_565 S
C1174 H1168 0.949 . S
C1174 C1178 1.368 . S
C1175 C1156 1.429 . S
C1175 C1169 1.429 . S
C1175 C1176 1.523 . S
C1176 C1157 1.368 . S
C1176 C1170 1.368 . S
C1176 C1175 1.523 . S
C1177 C1161 1.429 . S
C1177 C1173 1.429 . S
C1177 C1178 1.523 . S
C1178 C1162 1.368 . S
C1178 C1174 1.368 . S
C1178 C1177 1.523 . S
H1179 C1154 0.950 . S
H1180 C1156 0.950 . S
H1181 C1157 0.949 . S
H1182 C1159 0.950 . S
H1183 C1161 0.950 . S
C1184 C1185 1.349 . S
C1184 C1186 1.327 . S
C1184 H1209 0.950 . S
C1185 C1184 1.349 . S
C1185 C1201 1.349 . S
C1186 C1184 1.327 . S
C1186 C1205 1.429 . S
C1186 H1210 0.950 . S
C1187 C1204 1.574 . S
C1187 C1206 1.368 . S
C1187 H1211 0.949 . S
H1188 C1192 0.949 . S
C1189 C1190 1.349 . S
C1189 C1191 1.327 . S
C1189 H1212 0.950 . S
C1190 C1189 1.349 . S
C1190 C1202 1.349 . S
C1191 C1189 1.327 . S
C1191 C1207 1.429 . S
C1191 H1213 0.950 . S
C1192 H1188 0.949 . S
C1192 C1200 1.574 . S
C1192 C1208 1.368 . S
H1193 C1201 0.950 . S
H1194 C1199 0.950 . S
H1195 C1200 0.949 . S
H1196 C1202 0.950 . S
H1197 C1203 0.950 . S
H1198 C1204 0.949 . S
C1199 H1194 0.950 . S
C1199 C1201 1.327 . S
C1199 C1205 1.429 . S
C1200 C1192 1.574 . S
C1200 H1195 0.949 . S
C1200 C1206 1.368 . S
C1201 C1185 1.349 . S
C1201 H1193 0.950 . S
C1201 C1199 1.327 . S
C1202 C1190 1.349 . S
C1202 H1196 0.950 . S
C1202 C1203 1.327 . S
C1203 H1197 0.950 . S
C1203 C1202 1.327 . S
C1203 C1207 1.429 . S
C1204 C1187 1.574 . S
C1204 H1198 0.949 . S
C1204 C1208 1.368 . S
C1205 C1186 1.429 . S
C1205 C1199 1.429 . S
C1205 C1206 1.523 . S
C1206 C1187 1.368 . S
C1206 C1200 1.368 . S
C1206 C1205 1.523 . S
C1207 C1191 1.429 . S
C1207 C1203 1.429 . S
C1207 C1208 1.523 . S
C1208 C1192 1.368 . S
C1208 C1204 1.368 . S
C1208 C1207 1.523 . S
H1209 C1184 0.950 . S
H1210 C1186 0.950 . S
H1211 C1187 0.949 . S
H1212 C1189 0.950 . S
H1213 C1191 0.950 . S
C1214 C1215 1.349 . S
C1214 C1216 1.327 . S
C1214 H1239 0.950 . S
C1215 C1214 1.349 . S
C1215 C1231 1.349 . S
C1216 C1214 1.327 . S
C1216 C1235 1.429 . S
C1216 H1240 0.950 . S
C1217 C1234 1.574 . S
C1217 C1236 1.368 . S
C1217 H1241 0.949 . S
H1218 C1222 0.949 . S
C1219 C1220 1.349 . S
C1219 C1221 1.327 . S
C1219 H1242 0.950 . S
C1220 C1219 1.349 . S
C1220 C1232 1.349 . S
C1221 C1219 1.327 . S
C1221 C1237 1.429 . S
C1221 H1243 0.950 . S
C1222 H1218 0.949 . S
C1222 C1230 1.574 . S
C1222 C1238 1.368 . S
H1223 C1231 0.950 . S
H1224 C1229 0.950 . S
H1225 C1230 0.949 . S
H1226 C1232 0.950 . S
H1227 C1233 0.950 . S
H1228 C1234 0.949 . S
C1229 H1224 0.950 . S
C1229 C1231 1.327 . S
C1229 C1235 1.429 . S
C1230 C1222 1.574 . S
C1230 H1225 0.949 . S
C1230 C1236 1.368 . S
C1231 C1215 1.349 . S
C1231 H1223 0.950 . S
C1231 C1229 1.327 . S
C1232 C1220 1.349 . S
C1232 H1226 0.950 . S
C1232 C1233 1.327 . S
C1233 H1227 0.950 . S
C1233 C1232 1.327 . S
C1233 C1237 1.429 . S
C1234 C1217 1.574 . S
C1234 H1228 0.949 . S
C1234 C1238 1.368 . S
C1235 C1216 1.429 . S
C1235 C1229 1.429 . S
C1235 C1236 1.523 . S
C1236 C1217 1.368 . S
C1236 C1230 1.368 . S
C1236 C1235 1.523 . S
C1237 C1221 1.429 . S
C1237 C1233 1.429 . S
C1237 C1238 1.523 . S
C1238 C1222 1.368 . S
C1238 C1234 1.368 . S
C1238 C1237 1.523 . S
H1239 C1214 0.950 . S
H1240 C1216 0.950 . S
H1241 C1217 0.949 . S
H1242 C1219 0.950 . S
H1243 C1221 0.950 . S
C1244 C1245 1.349 . S
C1244 C1246 1.327 . S
C1244 H1269 0.950 . S
C1245 C1244 1.349 . S
C1245 C1261 1.349 . S
C1246 C1244 1.327 . S
C1246 C1265 1.429 . S
C1246 H1270 0.950 . S
C1247 C1264 1.574 . S
C1247 C1266 1.368 . S
C1247 H1271 0.949 . S
H1248 C1252 0.949 . S
C1249 C1250 1.349 . S
C1249 C1251 1.327 . S
C1249 H1272 0.950 . S
C1250 C1249 1.349 . S
C1250 C1262 1.349 . S
C1251 C1249 1.327 . S
C1251 C1267 1.429 . S
C1251 H1273 0.950 . S
C1252 H1248 0.949 . S
C1252 C1260 1.574 . S
C1252 C1268 1.368 . S
H1253 C1261 0.950 . S
H1254 C1259 0.950 . S
H1255 C1260 0.949 . S
H1256 C1262 0.950 . S
H1257 C1263 0.950 . S
H1258 C1264 0.949 . S
C1259 H1254 0.950 . S
C1259 C1261 1.327 . S
C1259 C1265 1.429 . S
C1260 C1252 1.574 . S
C1260 H1255 0.949 . S
C1260 C1266 1.368 . S
C1261 C1245 1.349 . S
C1261 H1253 0.950 . S
C1261 C1259 1.327 . S
C1262 C1250 1.349 . S
C1262 H1256 0.950 . S
C1262 C1263 1.327 . S
C1263 H1257 0.950 . S
C1263 C1262 1.327 . S
C1263 C1267 1.429 . S
C1264 C1247 1.574 . S
C1264 H1258 0.949 . S
C1264 C1268 1.368 . S
C1265 C1246 1.429 . S
C1265 C1259 1.429 . S
C1265 C1266 1.523 . S
C1266 C1247 1.368 . S
C1266 C1260 1.368 . S
C1266 C1265 1.523 . S
C1267 C1251 1.429 . S
C1267 C1263 1.429 . S
C1267 C1268 1.523 . S
C1268 C1252 1.368 . S
C1268 C1264 1.368 . S
C1268 C1267 1.523 . S
H1269 C1244 0.950 . S
H1270 C1246 0.950 . S
H1271 C1247 0.949 . S
H1272 C1249 0.950 . S
H1273 C1251 0.950 . S
C1274 C1275 1.349 . S
C1274 C1276 1.327 . S
C1274 H1299 0.950 . S
C1275 C1274 1.349 . S
C1275 C1291 1.349 . S
C1276 C1274 1.327 . S
C1276 C1295 1.429 . S
C1276 H1300 0.950 . S
C1277 C1294 1.574 . S
C1277 C1296 1.368 . S
C1277 H1301 0.949 . S
H1278 C1282 0.949 . S
C1279 C1280 1.349 . S
C1279 C1281 1.327 . S
C1279 H1302 0.950 . S
C1280 C1279 1.349 . S
C1280 C1292 1.349 . S
C1281 C1279 1.327 . S
C1281 C1297 1.429 . S
C1281 H1303 0.950 . S
C1282 H1278 0.949 . S
C1282 C1290 1.574 . S
C1282 C1298 1.368 . S
H1283 C1291 0.950 . S
H1284 C1289 0.950 . S
H1285 C1290 0.949 . S
H1286 C1292 0.950 . S
H1287 C1293 0.950 . S
H1288 C1294 0.949 . S
C1289 H1284 0.950 . S
C1289 C1291 1.327 . S
C1289 C1295 1.429 . S
C1290 C1282 1.574 . S
C1290 H1285 0.949 . S
C1290 C1296 1.368 . S
C1291 C1275 1.349 . S
C1291 H1283 0.950 . S
C1291 C1289 1.327 . S
C1292 C1280 1.349 . S
C1292 H1286 0.950 . S
C1292 C1293 1.327 . S
C1293 H1287 0.950 . S
C1293 C1292 1.327 . S
C1293 C1297 1.429 . S
C1294 C1277 1.574 . S
C1294 H1288 0.949 . S
C1294 C1298 1.368 . S
C1295 C1276 1.429 . S
C1295 C1289 1.429 . S
C1295 C1296 1.523 . S
C1296 C1277 1.368 . S
C1296 C1290 1.368 . S
C1296 C1295 1.523 . S
C1297 C1281 1.429 . S
C1297 C1293 1.429 . S
C1297 C1298 1.523 . S
C1298 C1282 1.368 . S
C1298 C1294 1.368 . S
C1298 C1297 1.523 . S
H1299 C1274 0.950 . S
H1300 C1276 0.950 . S
H1301 C1277 0.949 . S
H1302 C1279 0.950 . S
H1303 C1281 0.950 . S
C1304 C1305 1.349 . S
C1304 C1306 1.327 . S
C1304 H1329 0.950 . S
C1305 C1304 1.349 . S
C1305 C1321 1.349 . S
C1306 C1304 1.327 . S
C1306 C1325 1.429 . S
C1306 H1330 0.950 . S
C1307 C1324 1.574 . S
C1307 C1326 1.368 . S
C1307 H1331 0.949 . S
H1308 C1312 0.949 . S
C1309 C1310 1.349 . S
C1309 C1311 1.327 . S
C1309 H1332 0.950 . S
C1310 C1309 1.349 . S
C1310 C1322 1.349 . S
C1311 C1309 1.327 . S
C1311 C1327 1.429 . S
C1311 H1333 0.950 . S
C1312 H1308 0.949 . S
C1312 C1320 1.574 . S
C1312 C1328 1.368 . S
H1313 C1321 0.950 . S
H1314 C1319 0.950 . S
H1315 C1320 0.949 . S
H1316 C1322 0.950 . S
H1317 C1323 0.950 . S
H1318 C1324 0.949 . S
C1319 H1314 0.950 . S
C1319 C1321 1.327 . S
C1319 C1325 1.429 . S
C1320 C1312 1.574 . S
C1320 H1315 0.949 . S
C1320 C1326 1.368 . S
C1321 C1305 1.349 . S
C1321 H1313 0.950 . S
C1321 C1319 1.327 . S
C1322 C1310 1.349 . S
C1322 H1316 0.950 . S
C1322 C1323 1.327 . S
C1323 H1317 0.950 . S
C1323 C1322 1.327 . S
C1323 C1327 1.429 . S
C1324 C1307 1.574 . S
C1324 H1318 0.949 . S
C1324 C1328 1.368 . S
C1325 C1306 1.429 . S
C1325 C1319 1.429 . S
C1325 C1326 1.523 . S
C1326 C1307 1.368 . S
C1326 C1320 1.368 . S
C1326 C1325 1.523 . S
C1327 C1311 1.429 . S
C1327 C1323 1.429 . S
C1327 C1328 1.523 . S
C1328 C1312 1.368 . S
C1328 C1324 1.368 . S
C1328 C1327 1.523 . S
H1329 C1304 0.950 . S
H1330 C1306 0.950 . S
H1331 C1307 0.949 . S
H1332 C1309 0.950 . S
H1333 C1311 0.950 . S
C1334 C1335 1.349 . S
C1334 C1336 1.327 . S
C1334 H1359 0.950 . S
C1335 C1334 1.349 . S
C1335 C1351 1.349 . S
C1336 C1334 1.327 . S
C1336 C1355 1.429 . S
C1336 H1360 0.950 . S
C1337 C1354 1.574 . S
C1337 C1356 1.368 . S
C1337 H1361 0.949 . S
H1338 C1342 0.949 . S
C1339 C1340 1.349 . S
C1339 C1341 1.327 . S
C1339 H1362 0.950 . S
C1340 C1339 1.349 . S
C1340 C1352 1.349 . S
C1341 C1339 1.327 . S
C1341 C1357 1.429 . S
C1341 H1363 0.950 . S
C1342 H1338 0.949 . S
C1342 C1350 1.574 . S
C1342 C1358 1.368 . S
H1343 C1351 0.950 . S
H1344 C1349 0.950 . S
H1345 C1350 0.949 . S
H1346 C1352 0.950 . S
H1347 C1353 0.950 . S
H1348 C1354 0.949 . S
C1349 H1344 0.950 . S
C1349 C1351 1.327 . S
C1349 C1355 1.429 . S
C1350 C1342 1.574 . S
C1350 H1345 0.949 . S
C1350 C1356 1.368 . S
C1351 C1335 1.349 . S
C1351 H1343 0.950 . S
C1351 C1349 1.327 . S
C1352 C1340 1.349 . S
C1352 H1346 0.950 . S
C1352 C1353 1.327 . S
C1353 H1347 0.950 . S
C1353 C1352 1.327 . S
C1353 C1357 1.429 . S
C1354 C1337 1.574 . S
C1354 H1348 0.949 . S
C1354 C1358 1.368 . S
C1355 C1336 1.429 . S
C1355 C1349 1.429 . S
C1355 C1356 1.523 . S
C1356 C1337 1.368 . S
C1356 C1350 1.368 . S
C1356 C1355 1.523 . S
C1357 C1341 1.429 . S
C1357 C1353 1.429 . S
C1357 C1358 1.523 . S
C1358 C1342 1.368 . S
C1358 C1354 1.368 . S
C1358 C1357 1.523 . S
H1359 C1334 0.950 . S
H1360 C1336 0.950 . S
H1361 C1337 0.949 . S
H1362 C1339 0.950 . S
H1363 C1341 0.950 . S
C1364 C1365 1.349 . S
C1364 C1366 1.327 . S
C1364 H1389 0.950 . S
C1365 C1364 1.349 . S
C1365 C1381 1.349 . S
C1366 C1364 1.327 . S
C1366 C1385 1.429 . S
C1366 H1390 0.950 . S
C1367 C1384 1.574 . S
C1367 C1386 1.368 . S
C1367 H1391 0.949 . S
H1368 C1372 0.949 . S
C1369 C1370 1.349 . S
C1369 C1371 1.327 . S
C1369 H1392 0.950 . S
C1370 C1369 1.349 . S
C1370 C1382 1.349 . S
C1371 C1369 1.327 . S
C1371 C1387 1.429 . S
C1371 H1393 0.950 . S
C1372 H1368 0.949 . S
C1372 C1380 1.574 . S
C1372 C1388 1.368 . S
H1373 C1381 0.950 . S
H1374 C1379 0.950 . S
H1375 C1380 0.949 . S
H1376 C1382 0.950 . S
H1377 C1383 0.950 . S
H1378 C1384 0.949 . S
C1379 H1374 0.950 . S
C1379 C1381 1.327 . S
C1379 C1385 1.429 . S
C1380 C1372 1.574 . S
C1380 H1375 0.949 . S
C1380 C1386 1.368 . S
C1381 C1365 1.349 . S
C1381 H1373 0.950 . S
C1381 C1379 1.327 . S
C1382 C1370 1.349 . S
C1382 H1376 0.950 . S
C1382 C1383 1.327 . S
C1383 H1377 0.950 . S
C1383 C1382 1.327 . S
C1383 C1387 1.429 . S
C1384 C1367 1.574 . S
C1384 H1378 0.949 . S
C1384 C1388 1.368 . S
C1385 C1366 1.429 . S
C1385 C1379 1.429 . S
C1385 C1386 1.523 . S
C1386 C1367 1.368 . S
C1386 C1380 1.368 . S
C1386 C1385 1.523 . S
C1387 C1371 1.429 . S
C1387 C1383 1.429 . S
C1387 C1388 1.523 . S
C1388 C1372 1.368 . S
C1388 C1384 1.368 . S
C1388 C1387 1.523 . S
H1389 C1364 0.950 . S
H1390 C1366 0.950 . S
H1391 C1367 0.949 . S
H1392 C1369 0.950 . S
H1393 C1371 0.950 . S
C1394 C1395 1.349 . S
C1394 C1396 1.327 . S
C1394 H1419 0.950 . S
C1395 C1394 1.349 . S
C1395 C1411 1.349 . S
C1396 C1394 1.327 . S
C1396 C1415 1.429 . S
C1396 H1420 0.950 . S
C1397 C1414 1.574 . S
C1397 C1416 1.368 . S
C1397 H1421 0.949 . S
H1398 C1402 0.949 . S
C1399 C1400 1.349 . S
C1399 C1401 1.327 . S
C1399 H1422 0.950 . S
C1400 C1399 1.349 . S
C1400 C1412 1.349 . S
C1401 C1399 1.327 . S
C1401 C1417 1.429 . S
C1401 H1423 0.950 . S
C1402 H1398 0.949 . S
C1402 C1410 1.574 . S
C1402 C1418 1.368 . S
H1403 C1411 0.950 . S
H1404 C1409 0.950 . S
H1405 C1410 0.949 . S
H1406 C1412 0.950 . S
H1407 C1413 0.950 . S
H1408 C1414 0.949 . S
C1409 H1404 0.950 . S
C1409 C1411 1.327 . S
C1409 C1415 1.429 . S
C1410 C1402 1.574 . S
C1410 H1405 0.949 . S
C1410 C1416 1.368 . S
C1411 C1395 1.349 . S
C1411 H1403 0.950 . S
C1411 C1409 1.327 . S
C1412 C1400 1.349 . S
C1412 H1406 0.950 . S
C1412 C1413 1.327 . S
C1413 H1407 0.950 . S
C1413 C1412 1.327 . S
C1413 C1417 1.429 . S
C1414 C1397 1.574 . S
C1414 H1408 0.949 . S
C1414 C1418 1.368 . S
C1415 C1396 1.429 . S
C1415 C1409 1.429 . S
C1415 C1416 1.523 . S
C1416 C1397 1.368 . S
C1416 C1410 1.368 . S
C1416 C1415 1.523 . S
C1417 C1401 1.429 . S
C1417 C1413 1.429 . S
C1417 C1418 1.523 . S
C1418 C1402 1.368 . S
C1418 C1414 1.368 . S
C1418 C1417 1.523 . S
H1419 C1394 0.950 . S
H1420 C1396 0.950 . S
H1421 C1397 0.949 . S
H1422 C1399 0.950 . S
H1423 C1401 0.950 . S
C1424 C1425 1.349 . S
C1424 C1426 1.327 . S
C1424 H1449 0.950 . S
C1425 C1424 1.349 . S
C1425 C1441 1.349 . S
C1426 C1424 1.327 . S
C1426 C1445 1.429 . S
C1426 H1450 0.950 . S
C1427 C1444 1.574 1_556 S
C1427 C1446 1.368 . S
C1427 H1451 0.949 . S
H1428 C1432 0.949 . S
C1429 C1430 1.349 . S
C1429 C1431 1.327 . S
C1429 H1452 0.950 . S
C1430 C1429 1.349 . S
C1430 C1442 1.349 . S
C1431 C1429 1.327 . S
C1431 C1447 1.429 . S
C1431 H1453 0.950 . S
C1432 H1428 0.949 . S
C1432 C1440 1.574 1_554 S
C1432 C1448 1.368 . S
H1433 C1441 0.950 . S
H1434 C1439 0.950 . S
H1435 C1440 0.949 . S
H1436 C1442 0.950 . S
H1437 C1443 0.950 . S
H1438 C1444 0.949 . S
C1439 H1434 0.950 . S
C1439 C1441 1.327 . S
C1439 C1445 1.429 . S
C1440 C1432 1.574 1_556 S
C1440 H1435 0.949 . S
C1440 C1446 1.368 . S
C1441 C1425 1.349 . S
C1441 H1433 0.950 . S
C1441 C1439 1.327 . S
C1442 C1430 1.349 . S
C1442 H1436 0.950 . S
C1442 C1443 1.327 . S
C1443 H1437 0.950 . S
C1443 C1442 1.327 . S
C1443 C1447 1.429 . S
C1444 C1427 1.574 1_554 S
C1444 H1438 0.949 . S
C1444 C1448 1.368 . S
C1445 C1426 1.429 . S
C1445 C1439 1.429 . S
C1445 C1446 1.523 . S
C1446 C1427 1.368 . S
C1446 C1440 1.368 . S
C1446 C1445 1.523 . S
C1447 C1431 1.429 . S
C1447 C1443 1.429 . S
C1447 C1448 1.523 . S
C1448 C1432 1.368 . S
C1448 C1444 1.368 . S
C1448 C1447 1.523 . S
H1449 C1424 0.950 . S
H1450 C1426 0.950 . S
H1451 C1427 0.949 . S
H1452 C1429 0.950 . S
H1453 C1431 0.950 . S
C1454 C1455 1.349 . S
C1454 C1456 1.327 . S
C1454 H1479 0.950 . S
C1455 C1454 1.349 . S
C1455 C1471 1.349 . S
C1456 C1454 1.327 . S
C1456 C1475 1.429 . S
C1456 H1480 0.950 . S
C1457 C1474 1.574 . S
C1457 C1476 1.368 . S
C1457 H1481 0.949 . S
H1458 C1462 0.949 . S
C1459 C1460 1.349 . S
C1459 C1461 1.327 . S
C1459 H1482 0.950 . S
C1460 C1459 1.349 . S
C1460 C1472 1.349 . S
C1461 C1459 1.327 . S
C1461 C1477 1.429 . S
C1461 H1483 0.950 . S
C1462 H1458 0.949 . S
C1462 C1470 1.574 . S
C1462 C1478 1.368 . S
H1463 C1471 0.950 . S
H1464 C1469 0.950 . S
H1465 C1470 0.949 . S
H1466 C1472 0.950 . S
H1467 C1473 0.950 . S
H1468 C1474 0.949 . S
C1469 H1464 0.950 . S
C1469 C1471 1.327 . S
C1469 C1475 1.429 . S
C1470 C1462 1.574 . S
C1470 H1465 0.949 . S
C1470 C1476 1.368 . S
C1471 C1455 1.349 . S
C1471 H1463 0.950 . S
C1471 C1469 1.327 . S
C1472 C1460 1.349 . S
C1472 H1466 0.950 . S
C1472 C1473 1.327 . S
C1473 H1467 0.950 . S
C1473 C1472 1.327 . S
C1473 C1477 1.429 . S
C1474 C1457 1.574 . S
C1474 H1468 0.949 . S
C1474 C1478 1.368 . S
C1475 C1456 1.429 . S
C1475 C1469 1.429 . S
C1475 C1476 1.523 . S
C1476 C1457 1.368 . S
C1476 C1470 1.368 . S
C1476 C1475 1.523 . S
C1477 C1461 1.429 . S
C1477 C1473 1.429 . S
C1477 C1478 1.523 . S
C1478 C1462 1.368 . S
C1478 C1474 1.368 . S
C1478 C1477 1.523 . S
H1479 C1454 0.950 . S
H1480 C1456 0.950 . S
H1481 C1457 0.949 . S
H1482 C1459 0.950 . S
H1483 C1461 0.950 . S
C1484 C1485 1.349 . S
C1484 C1486 1.327 . S
C1484 H1509 0.950 . S
C1485 C1484 1.349 . S
C1485 C1501 1.349 . S
C1486 C1484 1.327 . S
C1486 C1505 1.429 . S
C1486 H1510 0.950 . S
C1487 C1504 1.574 1_554 S
C1487 C1506 1.368 . S
C1487 H1511 0.949 . S
H1488 C1492 0.949 . S
C1489 C1490 1.349 . S
C1489 C1491 1.327 . S
C1489 H1512 0.950 . S
C1490 C1489 1.349 . S
C1490 C1502 1.349 . S
C1491 C1489 1.327 . S
C1491 C1507 1.429 . S
C1491 H1513 0.950 . S
C1492 H1488 0.949 . S
C1492 C1500 1.574 1_556 S
C1492 C1508 1.368 . S
H1493 C1501 0.950 . S
H1494 C1499 0.950 . S
H1495 C1500 0.949 . S
H1496 C1502 0.950 . S
H1497 C1503 0.950 . S
H1498 C1504 0.949 . S
C1499 H1494 0.950 . S
C1499 C1501 1.327 . S
C1499 C1505 1.429 . S
C1500 C1492 1.574 1_554 S
C1500 H1495 0.949 . S
C1500 C1506 1.368 . S
C1501 C1485 1.349 . S
C1501 H1493 0.950 . S
C1501 C1499 1.327 . S
C1502 C1490 1.349 . S
C1502 H1496 0.950 . S
C1502 C1503 1.327 . S
C1503 H1497 0.950 . S
C1503 C1502 1.327 . S
C1503 C1507 1.429 . S
C1504 C1487 1.574 1_556 S
C1504 H1498 0.949 . S
C1504 C1508 1.368 . S
C1505 C1486 1.429 . S
C1505 C1499 1.429 . S
C1505 C1506 1.523 . S
C1506 C1487 1.368 . S
C1506 C1500 1.368 . S
C1506 C1505 1.523 . S
C1507 C1491 1.429 . S
C1507 C1503 1.429 . S
C1507 C1508 1.523 . S
C1508 C1492 1.368 . S
C1508 C1504 1.368 . S
C1508 C1507 1.523 . S
H1509 C1484 0.950 . S
H1510 C1486 0.950 . S
H1511 C1487 0.949 . S
H1512 C1489 0.950 . S
H1513 C1491 0.950 . S
C1514 C1515 1.349 . S
C1514 C1516 1.327 . S
C1514 H1539 0.950 . S
C1515 C1514 1.349 . S
C1515 C1531 1.349 . S
C1516 C1514 1.327 . S
C1516 C1535 1.429 . S
C1516 H1540 0.950 . S
C1517 C1534 1.574 . S
C1517 C1536 1.368 . S
C1517 H1541 0.949 . S
H1518 C1522 0.949 . S
C1519 C1520 1.349 . S
C1519 C1521 1.327 . S
C1519 H1542 0.950 . S
C1520 C1519 1.349 . S
C1520 C1532 1.349 . S
C1521 C1519 1.327 . S
C1521 C1537 1.429 . S
C1521 H1543 0.950 . S
C1522 H1518 0.949 . S
C1522 C1530 1.574 . S
C1522 C1538 1.368 . S
H1523 C1531 0.950 . S
H1524 C1529 0.950 . S
H1525 C1530 0.949 . S
H1526 C1532 0.950 . S
H1527 C1533 0.950 . S
H1528 C1534 0.949 . S
C1529 H1524 0.950 . S
C1529 C1531 1.327 . S
C1529 C1535 1.429 . S
C1530 C1522 1.574 . S
C1530 H1525 0.949 . S
C1530 C1536 1.368 . S
C1531 C1515 1.349 . S
C1531 H1523 0.950 . S
C1531 C1529 1.327 . S
C1532 C1520 1.349 . S
C1532 H1526 0.950 . S
C1532 C1533 1.327 . S
C1533 H1527 0.950 . S
C1533 C1532 1.327 . S
C1533 C1537 1.429 . S
C1534 C1517 1.574 . S
C1534 H1528 0.949 . S
C1534 C1538 1.368 . S
C1535 C1516 1.429 . S
C1535 C1529 1.429 . S
C1535 C1536 1.523 . S
C1536 C1517 1.368 . S
C1536 C1530 1.368 . S
C1536 C1535 1.523 . S
C1537 C1521 1.429 . S
C1537 C1533 1.429 . S
C1537 C1538 1.523 . S
C1538 C1522 1.368 . S
C1538 C1534 1.368 . S
C1538 C1537 1.523 . S
H1539 C1514 0.950 . S
H1540 C1516 0.950 . S
H1541 C1517 0.949 . S
H1542 C1519 0.950 . S
H1543 C1521 0.950 . S
C1544 C1545 1.349 . S
C1544 C1546 1.327 . S
C1544 H1569 0.950 . S
C1545 C1544 1.349 . S
C1545 C1561 1.349 . S
C1546 C1544 1.327 . S
C1546 C1565 1.429 . S
C1546 H1570 0.950 . S
C1547 C1564 1.574 . S
C1547 C1566 1.368 . S
C1547 H1571 0.949 . S
H1548 C1552 0.949 . S
C1549 C1550 1.349 . S
C1549 C1551 1.327 . S
C1549 H1572 0.950 . S
C1550 C1549 1.349 . S
C1550 C1562 1.349 . S
C1551 C1549 1.327 . S
C1551 C1567 1.429 . S
C1551 H1573 0.950 . S
C1552 H1548 0.949 . S
C1552 C1560 1.574 . S
C1552 C1568 1.368 . S
H1553 C1561 0.950 . S
H1554 C1559 0.950 . S
H1555 C1560 0.949 . S
H1556 C1562 0.950 . S
H1557 C1563 0.950 . S
H1558 C1564 0.949 . S
C1559 H1554 0.950 . S
C1559 C1561 1.327 . S
C1559 C1565 1.429 . S
C1560 C1552 1.574 . S
C1560 H1555 0.949 . S
C1560 C1566 1.368 . S
C1561 C1545 1.349 . S
C1561 H1553 0.950 . S
C1561 C1559 1.327 . S
C1562 C1550 1.349 . S
C1562 H1556 0.950 . S
C1562 C1563 1.327 . S
C1563 H1557 0.950 . S
C1563 C1562 1.327 . S
C1563 C1567 1.429 . S
C1564 C1547 1.574 . S
C1564 H1558 0.949 . S
C1564 C1568 1.368 . S
C1565 C1546 1.429 . S
C1565 C1559 1.429 . S
C1565 C1566 1.523 . S
C1566 C1547 1.368 . S
C1566 C1560 1.368 . S
C1566 C1565 1.523 . S
C1567 C1551 1.429 . S
C1567 C1563 1.429 . S
C1567 C1568 1.523 . S
C1568 C1552 1.368 . S
C1568 C1564 1.368 . S
C1568 C1567 1.523 . S
H1569 C1544 0.950 . S
H1570 C1546 0.950 . S
H1571 C1547 0.949 . S
H1572 C1549 0.950 . S
H1573 C1551 0.950 . S
C1574 C1575 1.349 . S
C1574 C1576 1.327 . S
C1574 H1599 0.950 . S
C1575 C1574 1.349 . S
C1575 C1591 1.349 . S
C1576 C1574 1.327 . S
C1576 C1595 1.429 . S
C1576 H1600 0.950 . S
C1577 C1594 1.574 1_556 S
C1577 C1596 1.368 . S
C1577 H1601 0.949 . S
H1578 C1582 0.949 . S
C1579 C1580 1.349 . S
C1579 C1581 1.327 . S
C1579 H1602 0.950 . S
C1580 C1579 1.349 . S
C1580 C1592 1.349 . S
C1581 C1579 1.327 . S
C1581 C1597 1.429 . S
C1581 H1603 0.950 . S
C1582 H1578 0.949 . S
C1582 C1590 1.574 1_554 S
C1582 C1598 1.368 . S
H1583 C1591 0.950 . S
H1584 C1589 0.950 . S
H1585 C1590 0.949 . S
H1586 C1592 0.950 . S
H1587 C1593 0.950 . S
H1588 C1594 0.949 . S
C1589 H1584 0.950 . S
C1589 C1591 1.327 . S
C1589 C1595 1.429 . S
C1590 C1582 1.574 1_556 S
C1590 H1585 0.949 . S
C1590 C1596 1.368 . S
C1591 C1575 1.349 . S
C1591 H1583 0.950 . S
C1591 C1589 1.327 . S
C1592 C1580 1.349 . S
C1592 H1586 0.950 . S
C1592 C1593 1.327 . S
C1593 H1587 0.950 . S
C1593 C1592 1.327 . S
C1593 C1597 1.429 . S
C1594 C1577 1.574 1_554 S
C1594 H1588 0.949 . S
C1594 C1598 1.368 . S
C1595 C1576 1.429 . S
C1595 C1589 1.429 . S
C1595 C1596 1.523 . S
C1596 C1577 1.368 . S
C1596 C1590 1.368 . S
C1596 C1595 1.523 . S
C1597 C1581 1.429 . S
C1597 C1593 1.429 . S
C1597 C1598 1.523 . S
C1598 C1582 1.368 . S
C1598 C1594 1.368 . S
C1598 C1597 1.523 . S
H1599 C1574 0.950 . S
H1600 C1576 0.950 . S
H1601 C1577 0.949 . S
H1602 C1579 0.950 . S
H1603 C1581 0.950 . S
C1604 C1605 1.349 . S
C1604 C1606 1.327 . S
C1604 H1629 0.950 . S
C1605 C1604 1.349 . S
C1605 C1621 1.349 . S
C1606 C1604 1.327 . S
C1606 C1625 1.429 . S
C1606 H1630 0.950 . S
C1607 C1624 1.574 . S
C1607 C1626 1.368 . S
C1607 H1631 0.949 . S
H1608 C1612 0.949 . S
C1609 C1610 1.349 . S
C1609 C1611 1.327 . S
C1609 H1632 0.950 . S
C1610 C1609 1.349 . S
C1610 C1622 1.349 . S
C1611 C1609 1.327 . S
C1611 C1627 1.429 . S
C1611 H1633 0.950 . S
C1612 H1608 0.949 . S
C1612 C1620 1.574 . S
C1612 C1628 1.368 . S
H1613 C1621 0.950 . S
H1614 C1619 0.950 . S
H1615 C1620 0.949 . S
H1616 C1622 0.950 . S
H1617 C1623 0.950 . S
H1618 C1624 0.949 . S
C1619 H1614 0.950 . S
C1619 C1621 1.327 . S
C1619 C1625 1.429 . S
C1620 C1612 1.574 . S
C1620 H1615 0.949 . S
C1620 C1626 1.368 . S
C1621 C1605 1.349 . S
C1621 H1613 0.950 . S
C1621 C1619 1.327 . S
C1622 C1610 1.349 . S
C1622 H1616 0.950 . S
C1622 C1623 1.327 . S
C1623 H1617 0.950 . S
C1623 C1622 1.327 . S
C1623 C1627 1.429 . S
C1624 C1607 1.574 . S
C1624 H1618 0.949 . S
C1624 C1628 1.368 . S
C1625 C1606 1.429 . S
C1625 C1619 1.429 . S
C1625 C1626 1.523 . S
C1626 C1607 1.368 . S
C1626 C1620 1.368 . S
C1626 C1625 1.523 . S
C1627 C1611 1.429 . S
C1627 C1623 1.429 . S
C1627 C1628 1.523 . S
C1628 C1612 1.368 . S
C1628 C1624 1.368 . S
C1628 C1627 1.523 . S
H1629 C1604 0.950 . S
H1630 C1606 0.950 . S
H1631 C1607 0.949 . S
H1632 C1609 0.950 . S
H1633 C1611 0.950 . S
C1634 C1635 1.349 . S
C1634 C1636 1.327 . S
C1634 H1659 0.950 . S
C1635 C1634 1.349 . S
C1635 C1651 1.349 . S
C1636 C1634 1.327 . S
C1636 C1655 1.429 . S
C1636 H1660 0.950 . S
C1637 C1654 1.574 1_554 S
C1637 C1656 1.368 . S
C1637 H1661 0.949 . S
H1638 C1642 0.949 . S
C1639 C1640 1.349 . S
C1639 C1641 1.327 . S
C1639 H1662 0.950 . S
C1640 C1639 1.349 . S
C1640 C1652 1.349 . S
C1641 C1639 1.327 . S
C1641 C1657 1.429 . S
C1641 H1663 0.950 . S
C1642 H1638 0.949 . S
C1642 C1650 1.574 1_556 S
C1642 C1658 1.368 . S
H1643 C1651 0.950 . S
H1644 C1649 0.950 . S
H1645 C1650 0.949 . S
H1646 C1652 0.950 . S
H1647 C1653 0.950 . S
H1648 C1654 0.949 . S
C1649 H1644 0.950 . S
C1649 C1651 1.327 . S
C1649 C1655 1.429 . S
C1650 C1642 1.574 1_554 S
C1650 H1645 0.949 . S
C1650 C1656 1.368 . S
C1651 C1635 1.349 . S
C1651 H1643 0.950 . S
C1651 C1649 1.327 . S
C1652 C1640 1.349 . S
C1652 H1646 0.950 . S
C1652 C1653 1.327 . S
C1653 H1647 0.950 . S
C1653 C1652 1.327 . S
C1653 C1657 1.429 . S
C1654 C1637 1.574 1_556 S
C1654 H1648 0.949 . S
C1654 C1658 1.368 . S
C1655 C1636 1.429 . S
C1655 C1649 1.429 . S
C1655 C1656 1.523 . S
C1656 C1637 1.368 . S
C1656 C1650 1.368 . S
C1656 C1655 1.523 . S
C1657 C1641 1.429 . S
C1657 C1653 1.429 . S
C1657 C1658 1.523 . S
C1658 C1642 1.368 . S
C1658 C1654 1.368 . S
C1658 C1657 1.523 . S
H1659 C1634 0.950 . S
H1660 C1636 0.950 . S
H1661 C1637 0.949 . S
H1662 C1639 0.950 . S
H1663 C1641 0.950 . S
C1664 C1665 1.349 . S
C1664 C1666 1.327 . S
C1664 H1689 0.950 . S
C1665 C1664 1.349 . S
C1665 C1681 1.349 . S
C1666 C1664 1.327 . S
C1666 C1685 1.429 . S
C1666 H1690 0.950 . S
C1667 C1684 1.574 . S
C1667 C1686 1.368 . S
C1667 H1691 0.949 . S
H1668 C1672 0.949 . S
C1669 C1670 1.349 . S
C1669 C1671 1.327 . S
C1669 H1692 0.950 . S
C1670 C1669 1.349 . S
C1670 C1682 1.349 . S
C1671 C1669 1.327 . S
C1671 C1687 1.429 . S
C1671 H1693 0.950 . S
C1672 H1668 0.949 . S
C1672 C1680 1.574 . S
C1672 C1688 1.368 . S
H1673 C1681 0.950 . S
H1674 C1679 0.950 . S
H1675 C1680 0.949 . S
H1676 C1682 0.950 . S
H1677 C1683 0.950 . S
H1678 C1684 0.949 . S
C1679 H1674 0.950 . S
C1679 C1681 1.327 . S
C1679 C1685 1.429 . S
C1680 C1672 1.574 . S
C1680 H1675 0.949 . S
C1680 C1686 1.368 . S
C1681 C1665 1.349 . S
C1681 H1673 0.950 . S
C1681 C1679 1.327 . S
C1682 C1670 1.349 . S
C1682 H1676 0.950 . S
C1682 C1683 1.327 . S
C1683 H1677 0.950 . S
C1683 C1682 1.327 . S
C1683 C1687 1.429 . S
C1684 C1667 1.574 . S
C1684 H1678 0.949 . S
C1684 C1688 1.368 . S
C1685 C1666 1.429 . S
C1685 C1679 1.429 . S
C1685 C1686 1.523 . S
C1686 C1667 1.368 . S
C1686 C1680 1.368 . S
C1686 C1685 1.523 . S
C1687 C1671 1.429 . S
C1687 C1683 1.429 . S
C1687 C1688 1.523 . S
C1688 C1672 1.368 . S
C1688 C1684 1.368 . S
C1688 C1687 1.523 . S
H1689 C1664 0.950 . S
H1690 C1666 0.950 . S
H1691 C1667 0.949 . S
H1692 C1669 0.950 . S
H1693 C1671 0.950 . S
C1694 C1695 1.349 . S
C1694 C1696 1.327 . S
C1694 H1719 0.950 . S
C1695 C1694 1.349 . S
C1695 C1711 1.349 . S
C1696 C1694 1.327 . S
C1696 C1715 1.429 . S
C1696 H1720 0.950 . S
C1697 C1714 1.574 . S
C1697 C1716 1.368 . S
C1697 H1721 0.949 . S
H1698 C1702 0.949 . S
C1699 C1700 1.349 . S
C1699 C1701 1.327 . S
C1699 H1722 0.950 . S
C1700 C1699 1.349 . S
C1700 C1712 1.349 . S
C1701 C1699 1.327 . S
C1701 C1717 1.429 . S
C1701 H1723 0.950 . S
C1702 H1698 0.949 . S
C1702 C1710 1.574 . S
C1702 C1718 1.368 . S
H1703 C1711 0.950 . S
H1704 C1709 0.950 . S
H1705 C1710 0.949 . S
H1706 C1712 0.950 . S
H1707 C1713 0.950 . S
H1708 C1714 0.949 . S
C1709 H1704 0.950 . S
C1709 C1711 1.327 . S
C1709 C1715 1.429 . S
C1710 C1702 1.574 . S
C1710 H1705 0.949 . S
C1710 C1716 1.368 . S
C1711 C1695 1.349 . S
C1711 H1703 0.950 . S
C1711 C1709 1.327 . S
C1712 C1700 1.349 . S
C1712 H1706 0.950 . S
C1712 C1713 1.327 . S
C1713 H1707 0.950 . S
C1713 C1712 1.327 . S
C1713 C1717 1.429 . S
C1714 C1697 1.574 . S
C1714 H1708 0.949 . S
C1714 C1718 1.368 . S
C1715 C1696 1.429 . S
C1715 C1709 1.429 . S
C1715 C1716 1.523 . S
C1716 C1697 1.368 . S
C1716 C1710 1.368 . S
C1716 C1715 1.523 . S
C1717 C1701 1.429 . S
C1717 C1713 1.429 . S
C1717 C1718 1.523 . S
C1718 C1702 1.368 . S
C1718 C1714 1.368 . S
C1718 C1717 1.523 . S
H1719 C1694 0.950 . S
H1720 C1696 0.950 . S
H1721 C1697 0.949 . S
H1722 C1699 0.950 . S
H1723 C1701 0.950 . S
C1724 C1725 1.349 . S
C1724 C1726 1.327 . S
C1724 H1749 0.950 . S
C1725 C1724 1.349 . S
C1725 C1741 1.349 . S
C1726 C1724 1.327 . S
C1726 C1745 1.429 . S
C1726 H1750 0.950 . S
C1727 C1744 1.574 . S
C1727 C1746 1.368 . S
C1727 H1751 0.949 . S
H1728 C1732 0.949 . S
C1729 C1730 1.349 . S
C1729 C1731 1.327 . S
C1729 H1752 0.950 . S
C1730 C1729 1.349 . S
C1730 C1742 1.349 . S
C1731 C1729 1.327 . S
C1731 C1747 1.429 . S
C1731 H1753 0.950 . S
C1732 H1728 0.949 . S
C1732 C1740 1.574 . S
C1732 C1748 1.368 . S
H1733 C1741 0.950 . S
H1734 C1739 0.950 . S
H1735 C1740 0.949 . S
H1736 C1742 0.950 . S
H1737 C1743 0.950 . S
H1738 C1744 0.949 . S
C1739 H1734 0.950 . S
C1739 C1741 1.327 . S
C1739 C1745 1.429 . S
C1740 C1732 1.574 . S
C1740 H1735 0.949 . S
C1740 C1746 1.368 . S
C1741 C1725 1.349 . S
C1741 H1733 0.950 . S
C1741 C1739 1.327 . S
C1742 C1730 1.349 . S
C1742 H1736 0.950 . S
C1742 C1743 1.327 . S
C1743 H1737 0.950 . S
C1743 C1742 1.327 . S
C1743 C1747 1.429 . S
C1744 C1727 1.574 . S
C1744 H1738 0.949 . S
C1744 C1748 1.368 . S
C1745 C1726 1.429 . S
C1745 C1739 1.429 . S
C1745 C1746 1.523 . S
C1746 C1727 1.368 . S
C1746 C1740 1.368 . S
C1746 C1745 1.523 . S
C1747 C1731 1.429 . S
C1747 C1743 1.429 . S
C1747 C1748 1.523 . S
C1748 C1732 1.368 . S
C1748 C1744 1.368 . S
C1748 C1747 1.523 . S
H1749 C1724 0.950 . S
H1750 C1726 0.950 . S
H1751 C1727 0.949 . S
H1752 C1729 0.950 . S
H1753 C1731 0.950 . S
C1754 C1755 1.349 . S
C1754 C1756 1.327 . S
C1754 H1779 0.950 . S
C1755 C1754 1.349 . S
C1755 C1771 1.349 . S
C1756 C1754 1.327 . S
C1756 C1775 1.429 . S
C1756 H1780 0.950 . S
C1757 C1774 1.574 . S
C1757 C1776 1.368 . S
C1757 H1781 0.949 . S
H1758 C1762 0.949 . S
C1759 C1760 1.349 . S
C1759 C1761 1.327 . S
C1759 H1782 0.950 . S
C1760 C1759 1.349 . S
C1760 C1772 1.349 . S
C1761 C1759 1.327 . S
C1761 C1777 1.429 . S
C1761 H1783 0.950 . S
C1762 H1758 0.949 . S
C1762 C1770 1.574 . S
C1762 C1778 1.368 . S
H1763 C1771 0.950 . S
H1764 C1769 0.950 . S
H1765 C1770 0.949 . S
H1766 C1772 0.950 . S
H1767 C1773 0.950 . S
H1768 C1774 0.949 . S
C1769 H1764 0.950 . S
C1769 C1771 1.327 . S
C1769 C1775 1.429 . S
C1770 C1762 1.574 . S
C1770 H1765 0.949 . S
C1770 C1776 1.368 . S
C1771 C1755 1.349 . S
C1771 H1763 0.950 . S
C1771 C1769 1.327 . S
C1772 C1760 1.349 . S
C1772 H1766 0.950 . S
C1772 C1773 1.327 . S
C1773 H1767 0.950 . S
C1773 C1772 1.327 . S
C1773 C1777 1.429 . S
C1774 C1757 1.574 . S
C1774 H1768 0.949 . S
C1774 C1778 1.368 . S
C1775 C1756 1.429 . S
C1775 C1769 1.429 . S
C1775 C1776 1.523 . S
C1776 C1757 1.368 . S
C1776 C1770 1.368 . S
C1776 C1775 1.523 . S
C1777 C1761 1.429 . S
C1777 C1773 1.429 . S
C1777 C1778 1.523 . S
C1778 C1762 1.368 . S
C1778 C1774 1.368 . S
C1778 C1777 1.523 . S
H1779 C1754 0.950 . S
H1780 C1756 0.950 . S
H1781 C1757 0.949 . S
H1782 C1759 0.950 . S
H1783 C1761 0.950 . S
C1784 C1785 1.349 . S
C1784 C1786 1.327 . S
C1784 H1809 0.950 . S
C1785 C1784 1.349 . S
C1785 C1801 1.349 . S
C1786 C1784 1.327 . S
C1786 C1805 1.429 . S
C1786 H1810 0.950 . S
C1787 C1804 1.574 . S
C1787 C1806 1.368 . S
C1787 H1811 0.949 . S
H1788 C1792 0.949 . S
C1789 C1790 1.349 . S
C1789 C1791 1.327 . S
C1789 H1812 0.950 . S
C1790 C1789 1.349 . S
C1790 C1802 1.349 . S
C1791 C1789 1.327 . S
C1791 C1807 1.429 . S
C1791 H1813 0.950 . S
C1792 H1788 0.949 . S
C1792 C1800 1.574 . S
C1792 C1808 1.368 . S
H1793 C1801 0.950 . S
H1794 C1799 0.950 . S
H1795 C1800 0.949 . S
H1796 C1802 0.950 . S
H1797 C1803 0.950 . S
H1798 C1804 0.949 . S
C1799 H1794 0.950 . S
C1799 C1801 1.327 . S
C1799 C1805 1.429 . S
C1800 C1792 1.574 . S
C1800 H1795 0.949 . S
C1800 C1806 1.368 . S
C1801 C1785 1.349 . S
C1801 H1793 0.950 . S
C1801 C1799 1.327 . S
C1802 C1790 1.349 . S
C1802 H1796 0.950 . S
C1802 C1803 1.327 . S
C1803 H1797 0.950 . S
C1803 C1802 1.327 . S
C1803 C1807 1.429 . S
C1804 C1787 1.574 . S
C1804 H1798 0.949 . S
C1804 C1808 1.368 . S
C1805 C1786 1.429 . S
C1805 C1799 1.429 . S
C1805 C1806 1.523 . S
C1806 C1787 1.368 . S
C1806 C1800 1.368 . S
C1806 C1805 1.523 . S
C1807 C1791 1.429 . S
C1807 C1803 1.429 . S
C1807 C1808 1.523 . S
C1808 C1792 1.368 . S
C1808 C1804 1.368 . S
C1808 C1807 1.523 . S
H1809 C1784 0.950 . S
H1810 C1786 0.950 . S
H1811 C1787 0.949 . S
H1812 C1789 0.950 . S
H1813 C1791 0.950 . S
C1814 C1815 1.349 . S
C1814 C1816 1.327 . S
C1814 H1839 0.950 . S
C1815 C1814 1.349 . S
C1815 C1831 1.349 . S
C1816 C1814 1.327 . S
C1816 C1835 1.429 . S
C1816 H1840 0.950 . S
C1817 C1834 1.574 . S
C1817 C1836 1.368 . S
C1817 H1841 0.949 . S
H1818 C1822 0.949 . S
C1819 C1820 1.349 . S
C1819 C1821 1.327 . S
C1819 H1842 0.950 . S
C1820 C1819 1.349 . S
C1820 C1832 1.349 . S
C1821 C1819 1.327 . S
C1821 C1837 1.429 . S
C1821 H1843 0.950 . S
C1822 H1818 0.949 . S
C1822 C1830 1.574 . S
C1822 C1838 1.368 . S
H1823 C1831 0.950 . S
H1824 C1829 0.950 . S
H1825 C1830 0.949 . S
H1826 C1832 0.950 . S
H1827 C1833 0.950 . S
H1828 C1834 0.949 . S
C1829 H1824 0.950 . S
C1829 C1831 1.327 . S
C1829 C1835 1.429 . S
C1830 C1822 1.574 . S
C1830 H1825 0.949 . S
C1830 C1836 1.368 . S
C1831 C1815 1.349 . S
C1831 H1823 0.950 . S
C1831 C1829 1.327 . S
C1832 C1820 1.349 . S
C1832 H1826 0.950 . S
C1832 C1833 1.327 . S
C1833 H1827 0.950 . S
C1833 C1832 1.327 . S
C1833 C1837 1.429 . S
C1834 C1817 1.574 . S
C1834 H1828 0.949 . S
C1834 C1838 1.368 . S
C1835 C1816 1.429 . S
C1835 C1829 1.429 . S
C1835 C1836 1.523 . S
C1836 C1817 1.368 . S
C1836 C1830 1.368 . S
C1836 C1835 1.523 . S
C1837 C1821 1.429 . S
C1837 C1833 1.429 . S
C1837 C1838 1.523 . S
C1838 C1822 1.368 . S
C1838 C1834 1.368 . S
C1838 C1837 1.523 . S
H1839 C1814 0.950 . S
H1840 C1816 0.950 . S
H1841 C1817 0.949 . S
H1842 C1819 0.950 . S
H1843 C1821 0.950 . S
C1844 C1845 1.349 . S
C1844 C1846 1.327 . S
C1844 H1869 0.950 . S
C1845 C1844 1.349 . S
C1845 C1861 1.349 . S
C1846 C1844 1.327 . S
C1846 C1865 1.429 . S
C1846 H1870 0.950 . S
C1847 C1864 1.574 . S
C1847 C1866 1.368 . S
C1847 H1871 0.949 . S
H1848 C1852 0.949 . S
C1849 C1850 1.349 . S
C1849 C1851 1.327 . S
C1849 H1872 0.950 . S
C1850 C1849 1.349 . S
C1850 C1862 1.349 . S
C1851 C1849 1.327 . S
C1851 C1867 1.429 . S
C1851 H1873 0.950 . S
C1852 H1848 0.949 . S
C1852 C1860 1.574 . S
C1852 C1868 1.368 . S
H1853 C1861 0.950 . S
H1854 C1859 0.950 . S
H1855 C1860 0.949 . S
H1856 C1862 0.950 . S
H1857 C1863 0.950 . S
H1858 C1864 0.949 . S
C1859 H1854 0.950 . S
C1859 C1861 1.327 . S
C1859 C1865 1.429 . S
C1860 C1852 1.574 . S
C1860 H1855 0.949 . S
C1860 C1866 1.368 . S
C1861 C1845 1.349 . S
C1861 H1853 0.950 . S
C1861 C1859 1.327 . S
C1862 C1850 1.349 . S
C1862 H1856 0.950 . S
C1862 C1863 1.327 . S
C1863 H1857 0.950 . S
C1863 C1862 1.327 . S
C1863 C1867 1.429 . S
C1864 C1847 1.574 . S
C1864 H1858 0.949 . S
C1864 C1868 1.368 . S
C1865 C1846 1.429 . S
C1865 C1859 1.429 . S
C1865 C1866 1.523 . S
C1866 C1847 1.368 . S
C1866 C1860 1.368 . S
C1866 C1865 1.523 . S
C1867 C1851 1.429 . S
C1867 C1863 1.429 . S
C1867 C1868 1.523 . S
C1868 C1852 1.368 . S
C1868 C1864 1.368 . S
C1868 C1867 1.523 . S
H1869 C1844 0.950 . S
H1870 C1846 0.950 . S
H1871 C1847 0.949 . S
H1872 C1849 0.950 . S
H1873 C1851 0.950 . S
C1874 C1875 1.349 . S
C1874 C1876 1.327 . S
C1874 H1899 0.950 . S
C1875 C1874 1.349 . S
C1875 C1891 1.349 . S
C1876 C1874 1.327 . S
C1876 C1895 1.429 . S
C1876 H1900 0.950 . S
C1877 C1894 1.574 . S
C1877 C1896 1.368 . S
C1877 H1901 0.949 . S
H1878 C1882 0.949 . S
C1879 C1880 1.349 . S
C1879 C1881 1.327 . S
C1879 H1902 0.950 . S
C1880 C1879 1.349 . S
C1880 C1892 1.349 . S
C1881 C1879 1.327 . S
C1881 C1897 1.429 . S
C1881 H1903 0.950 . S
C1882 H1878 0.949 . S
C1882 C1890 1.574 . S
C1882 C1898 1.368 . S
H1883 C1891 0.950 . S
H1884 C1889 0.950 . S
H1885 C1890 0.949 . S
H1886 C1892 0.950 . S
H1887 C1893 0.950 . S
H1888 C1894 0.949 . S
C1889 H1884 0.950 . S
C1889 C1891 1.327 . S
C1889 C1895 1.429 . S
C1890 C1882 1.574 . S
C1890 H1885 0.949 . S
C1890 C1896 1.368 . S
C1891 C1875 1.349 . S
C1891 H1883 0.950 . S
C1891 C1889 1.327 . S
C1892 C1880 1.349 . S
C1892 H1886 0.950 . S
C1892 C1893 1.327 . S
C1893 H1887 0.950 . S
C1893 C1892 1.327 . S
C1893 C1897 1.429 . S
C1894 C1877 1.574 . S
C1894 H1888 0.949 . S
C1894 C1898 1.368 . S
C1895 C1876 1.429 . S
C1895 C1889 1.429 . S
C1895 C1896 1.523 . S
C1896 C1877 1.368 . S
C1896 C1890 1.368 . S
C1896 C1895 1.523 . S
C1897 C1881 1.429 . S
C1897 C1893 1.429 . S
C1897 C1898 1.523 . S
C1898 C1882 1.368 . S
C1898 C1894 1.368 . S
C1898 C1897 1.523 . S
H1899 C1874 0.950 . S
H1900 C1876 0.950 . S
H1901 C1877 0.949 . S
H1902 C1879 0.950 . S
H1903 C1881 0.950 . S
C945 C52 1.391 . S
C950 C170 1.391 . S
C975 C229 1.391 . S
C980 C111 1.391 . S
C1005 C288 1.391 . S
C1010 C406 1.391 . S
C1035 C465 1.391 . S
C1040 C347 1.391 . S
C1065 C524 1.391 . S
C1070 C642 1.391 . S
C1095 C701 1.391 . S
C1100 C583 1.391 . S
C1125 C760 1.391 . S
C1130 C878 1.391 . S
C1155 C937 1.391 . S
C1160 C819 1.391 . S
C1185 C269 1.191 . S
C1190 C33 1.191 . S
C1215 C92 1.191 . S
C1220 C328 1.191 . S
C1245 C151 1.191 . S
C1250 C387 1.191 . S
C1275 C446 1.191 . S
C1280 C210 1.191 . S
C1305 C505 1.191 . S
C1310 C741 1.191 . S
C1335 C564 1.191 . S
C1340 C800 1.191 . S
C1365 C623 1.191 . S
C1370 C859 1.191 . S
C1395 C682 1.191 . S
C1400 C918 1.191 . S
C1425 C593 1.306 . S
C1430 C3 1.306 . S
C1455 C652 1.306 . S
C1460 C62 1.306 . S
C1485 C121 1.306 . S
C1490 C475 1.306 . S
C1515 C180 1.306 . S
C1520 C534 1.306 . S
C1545 C239 1.306 . S
C1550 C829 1.306 . S
C1575 C298 1.306 . S
C1580 C888 1.306 . S
C1605 C357 1.306 . S
C1610 C711 1.306 . S
C1635 C770 1.306 . S
C1640 C416 1.306 . S
C1665 C5 1.404 . S
C1670 C890 1.404 . S
C1695 C713 1.404 . S
C1700 C64 1.404 . S
C1725 C123 1.404 . S
C1730 C772 1.404 . S
C1755 C831 1.404 . S
C1760 C182 1.404 . S
C1785 C536 1.404 . S
C1790 C241 1.404 . S
C1815 C300 1.404 . S
C1820 C595 1.404 . S
C1845 C654 1.404 . S
C1850 C359 1.404 . S
C1875 C477 1.404 . S
C1880 C418 1.404 . S
