# Generated by pormake.
# Topology smm, (6)-cn, num edge types: 1
# Building blocks:
#     Node 0, Type 0, BuildingBlock: KUMBUR_clean_sbu_0, # of connection points: 6
#     Node 1, Type 0, BuildingBlock: KUMBUR_clean_sbu_0, # of connection points: 6
#     Node 2, Type 0, BuildingBlock: KUMBUR_clean_sbu_0, # of connection points: 6
#     Node 3, Type 0, BuildingBlock: KUMBUR_clean_sbu_0, # of connection points: 6
#     Node 4, Type 0, BuildingBlock: KUMBUR_clean_sbu_0, # of connection points: 6
#     Node 5, Type 0, BuildingBlock: KUMBUR_clean_sbu_0, # of connection points: 6
#     Node 6, Type 0, BuildingBlock: KUMBUR_clean_sbu_0, # of connection points: 6
#     Node 7, Type 0, BuildingBlock: KUMBUR_clean_sbu_0, # of connection points: 6
#     Node 8, Type 0, BuildingBlock: KUMBUR_clean_sbu_0, # of connection points: 6
#     Edge 9, Type (0, 0), BuildingBlock: OJICUG_clean_linker_0, # of connection points: 2
#     Edge 10, Type (0, 0), BuildingBlock: OJICUG_clean_linker_0, # of connection points: 2
#     Edge 11, Type (0, 0), BuildingBlock: OJICUG_clean_linker_0, # of connection points: 2
#     Edge 12, Type (0, 0), BuildingBlock: OJICUG_clean_linker_0, # of connection points: 2
#     Edge 13, Type (0, 0), BuildingBlock: OJICUG_clean_linker_0, # of connection points: 2
#     Edge 14, Type (0, 0), BuildingBlock: OJICUG_clean_linker_0, # of connection points: 2
#     Edge 15, Type (0, 0), BuildingBlock: OJICUG_clean_linker_0, # of connection points: 2
#     Edge 16, Type (0, 0), BuildingBlock: OJICUG_clean_linker_0, # of connection points: 2
#     Edge 17, Type (0, 0), BuildingBlock: OJICUG_clean_linker_0, # of connection points: 2
#     Edge 18, Type (0, 0), BuildingBlock: OJICUG_clean_linker_0, # of connection points: 2
#     Edge 19, Type (0, 0), BuildingBlock: OJICUG_clean_linker_0, # of connection points: 2
#     Edge 20, Type (0, 0), BuildingBlock: OJICUG_clean_linker_0, # of connection points: 2
#     Edge 21, Type (0, 0), BuildingBlock: OJICUG_clean_linker_0, # of connection points: 2
#     Edge 22, Type (0, 0), BuildingBlock: OJICUG_clean_linker_0, # of connection points: 2
#     Edge 23, Type (0, 0), BuildingBlock: OJICUG_clean_linker_0, # of connection points: 2
#     Edge 24, Type (0, 0), BuildingBlock: OJICUG_clean_linker_0, # of connection points: 2
#     Edge 25, Type (0, 0), BuildingBlock: OJICUG_clean_linker_0, # of connection points: 2
#     Edge 26, Type (0, 0), BuildingBlock: OJICUG_clean_linker_0, # of connection points: 2
#     Edge 27, Type (0, 0), BuildingBlock: OJICUG_clean_linker_0, # of connection points: 2
#     Edge 28, Type (0, 0), BuildingBlock: OJICUG_clean_linker_0, # of connection points: 2
#     Edge 29, Type (0, 0), BuildingBlock: OJICUG_clean_linker_0, # of connection points: 2
#     Edge 30, Type (0, 0), BuildingBlock: OJICUG_clean_linker_0, # of connection points: 2
#     Edge 31, Type (0, 0), BuildingBlock: OJICUG_clean_linker_0, # of connection points: 2
#     Edge 32, Type (0, 0), BuildingBlock: OJICUG_clean_linker_0, # of connection points: 2
#     Edge 33, Type (0, 0), BuildingBlock: OJICUG_clean_linker_0, # of connection points: 2
#     Edge 34, Type (0, 0), BuildingBlock: OJICUG_clean_linker_0, # of connection points: 2
#     Edge 35, Type (0, 0), BuildingBlock: OJICUG_clean_linker_0, # of connection points: 2
# Relax obj value: 0.138
# Max RMSD: 0.270
# Mean RMSD: 0.209
data_MOF--net-smm--node1-KUMBUR_clean_sbu_0--edge1-OJICUG_clean_linker_0
_symmetry_space_group_name_H-M    P1
_symmetry_Int_Tables_number       1
_symmetry_cell_setting            triclinic
loop_
_symmetry_equiv_pos_as_xyz
'x, y, z'
_cell_length_a     44.258454
_cell_length_b     58.969691
_cell_length_c     11.048994
_cell_angle_alpha  98.794283
_cell_angle_beta   99.437098
_cell_angle_gamma 122.37304
loop_
_atom_site_label
_atom_site_type_symbol
_atom_site_fract_x
_atom_site_fract_y
_atom_site_fract_z
_atom_type_partial_charge
Tb0 Tb 0.11549 0.26149 0.2543 0.0
C1 C 0.96055 0.17174 0.91056 0.0
C2 C 0.91499 0.17365 -0.00127 0.0
C3 C 0.89783 0.15068 0.77247 0.0
C4 C 0.9516 0.18088 0.01427 0.0
C5 C 0.93362 0.1565 0.78887 0.0
C6 C 0.88833 0.15874 0.87748 0.0
C7 C 0.97709 0.1497 0.71214 0.0
N8 N 0.99456 0.17599 0.93075 0.0
C9 C 1.00246 0.16407 0.83491 0.0
C10 C 0.94265 0.14611 0.68868 0.0
Tb11 Tb 1.03074 0.19704 0.14028 0.0
N12 N 0.97759 0.1949 0.13185 0.0
C13 C 0.96917 0.2036 0.2353 0.0
C14 C 0.90568 0.18049 0.10686 0.0
C15 C 0.93317 0.19652 0.22423 0.0
H16 H 1.02898 0.16652 0.85289 0.0
H17 H 0.92635 0.20266 0.30735 0.0
H18 H 0.86002 0.15289 0.86404 0.0
H19 H 0.98392 0.14109 0.63614 0.0
H20 H 0.98938 0.21551 0.32814 0.0
H21 H 0.21527 0.2414 0.14957 0.0
H22 H 0.87712 0.17282 0.10165 0.0
H23 H 0.11849 0.29794 0.53166 0.0
H24 H 0.16253 0.24571 0.09948 0.0
H25 H 0.15642 0.31902 0.75489 0.0
H26 H 0.87675 0.13891 0.67995 0.0
H27 H 0.25204 0.25585 0.37519 0.0
H28 H 0.26487 0.27808 0.60775 0.0
H29 H 0.9227 0.13443 0.59399 0.0
H30 H 0.24961 0.30019 0.77194 0.0
N31 N 0.16697 0.26003 0.29439 0.0
C32 C 0.17755 0.25126 0.19833 0.0
C33 C 0.22849 0.25733 0.35356 0.0
C34 C 0.2194 0.2684 0.45099 0.0
C35 C 0.20783 0.24917 0.22629 0.0
C36 C 0.18819 0.26955 0.41753 0.0
H37 H 0.20973 0.31607 0.82711 0.0
N38 N 0.14904 0.28205 0.47097 0.0
C39 C 0.16308 0.30837 0.6869 0.0
C40 C 0.17947 0.2816 0.50914 0.0
C41 C 0.14139 0.29612 0.55843 0.0
C42 C 0.19317 0.30671 0.72729 0.0
C43 C 0.20185 0.29335 0.63802 0.0
O44 O 0.12525 0.30042 0.25132 0.0
O45 O 0.05513 0.24144 0.17671 0.0
O46 O 1.03998 0.21547 0.9811 0.0
O47 O 0.10414 0.24379 0.04905 0.0
O48 O 0.08312 0.27648 0.32114 0.0
O49 O 0.15515 0.28685 0.1676 0.0
O50 O 1.02595 0.15996 0.07262 0.0
O51 O 0.09074 0.21727 0.16141 0.0
O52 O 0.1045 0.24267 0.4112 0.0
O53 O 1.03991 0.21377 0.34289 0.0
O54 O 0.06714 0.18793 0.25086 0.0
O55 O 0.99054 0.16169 0.18662 0.0
C56 C 1.04999 0.25776 0.24738 0.0
C57 C 0.1872 0.33437 0.26583 0.0
C58 C 0.24021 0.37733 0.25388 0.0
C59 C 0.2058 0.35168 0.19331 0.0
C60 C 0.25635 0.38536 0.38696 0.0
C61 C 0.20314 0.3427 0.39884 0.0
C62 C 0.23772 0.368 0.45913 0.0
C63 C 0.07221 0.23072 0.95771 0.0
C64 C 0.15211 0.30734 0.20017 0.0
C65 C 0.23233 0.29159 0.67321 0.0
C66 C 0.24098 0.27898 0.57983 0.0
C67 C 0.09693 0.20221 0.21883 0.0
C68 C 0.97344 0.11686 0.06843 0.0
C69 C 0.98189 0.09933 0.11135 0.0
C70 C 0.9589 0.07039 0.05273 0.0
C71 C 0.92765 0.05921 0.94676 0.0
C72 C 0.94206 0.10573 0.96422 0.0
C73 C 0.9193 0.07689 0.90309 0.0
C74 C 0.07202 0.22834 0.43449 0.0
C75 C 1.00064 0.14669 0.12938 0.0
H76 H 0.19344 0.3453 0.09037 0.0
H77 H 0.28346 0.40493 0.43481 0.0
H78 H 0.18913 0.32998 0.45673 0.0
H79 H 0.25 0.37413 0.56164 0.0
H80 H 1.00705 0.10843 0.18979 0.0
H81 H 0.90942 1.03688 0.89935 0.0
H82 H 0.93539 0.11913 0.92958 0.0
H83 H 0.89512 0.06821 0.82187 0.0
Tb84 Tb 0.94825 0.82027 0.0521 0.0
C85 C 0.8849 0.8759 0.16827 0.0
C86 C 0.84444 0.86673 0.96382 0.0
C87 C 0.82261 0.86341 0.1515 0.0
C88 C 0.87872 0.87337 0.03773 0.0
C89 C 0.85754 0.87264 0.22737 0.0
C90 C 0.816 0.86035 0.0202 0.0
C91 C 0.90078 0.88654 0.43162 0.0
N92 N 0.91733 0.88127 0.23734 0.0
C93 C 0.92697 0.88953 0.36857 0.0
C94 C 0.86524 0.87704 0.35994 0.0
Tb95 Tb 0.95689 0.88389 0.12282 0.0
N96 N 0.90568 0.87684 0.983 0.0
C97 C 0.9019 0.87864 0.8592 0.0
C98 C 0.83881 0.86495 0.83374 0.0
C99 C 0.86813 0.87173 0.78206 0.0
H100 H 0.95517 0.89948 0.42637 0.0
H101 H 0.86498 0.87208 0.68326 0.0
H102 H 0.78826 0.85096 0.96032 0.0
H103 H 0.90829 0.89204 0.53521 0.0
H104 H 0.92471 0.88618 0.81789 0.0
H105 H 0.07965 0.87167 0.42063 0.0
H106 H 0.81243 0.8593 0.77378 0.0
H107 H 0.91946 0.77979 0.75282 0.0
H108 H 1.01356 0.85188 0.33778 0.0
H109 H 0.94875 0.77359 0.59097 0.0
H110 H 0.80007 0.85619 0.19304 0.0
H111 H 0.11368 0.86699 0.27455 0.0
H112 H 0.11319 0.85015 0.05111 0.0
H113 H 0.84453 0.87431 0.40797 0.0
H114 H 0.07875 0.8265 0.82229 0.0
N115 N 1.01041 0.84026 0.14128 0.0
C116 C 1.02815 0.85174 0.2701 0.0
C117 C 0.08513 0.86016 0.23539 0.0
C118 C 0.06664 0.84746 0.1042 0.0
C119 C 0.06587 0.86253 0.3185 0.0
C120 C 1.02885 0.83771 0.05928 0.0
H121 H 1.0175 0.79843 0.64858 0.0
N122 N 0.97147 0.81061 0.89626 0.0
C123 C 0.96606 0.78769 0.68621 0.0
C124 C 1.00887 0.82294 0.93191 0.0
C125 C 0.94964 0.7914 0.77811 0.0
C126 C 1.00484 0.80184 0.71893 0.0
C127 C 1.02654 0.81864 0.84468 0.0
O128 O 0.91182 0.77519 0.97869 0.0
O129 O 0.91801 0.83903 0.09971 0.0
O130 O 0.97431 0.8763 0.30174 0.0
O131 O 0.94245 0.8283 0.24291 0.0
O132 O 0.88891 0.80307 0.95324 0.0
O133 O 0.94889 0.79311 0.16234 0.0
O134 O 0.992 0.9203 0.27608 0.0
O135 O 0.99253 0.86901 0.08791 0.0
O136 O 0.93406 0.82619 0.86747 0.0
O137 O 0.95868 0.87368 0.92583 0.0
O138 O 1.01302 0.91119 0.1195 0.0
O139 O 0.96194 0.92043 0.09634 0.0
C140 C 0.88518 0.82099 0.01965 0.0
C141 C 0.92464 0.74332 0.0602 0.0
C142 C 0.90473 0.69287 0.05876 0.0
C143 C 0.89986 0.71597 0.08493 0.0
C144 C 0.93509 0.6991 0.01116 0.0
C145 C 0.95343 0.7463 0.01196 0.0
C146 C 0.95852 0.72483 -0.01141 0.0
C147 C 0.95846 0.85232 0.33043 0.0
C148 C 0.92198 0.76913 0.07905 0.0
C149 C 0.06464 0.82954 0.88775 0.0
C150 C 0.08422 0.84297 0.01806 0.0
C151 C 1.0234 0.89491 0.09891 0.0
C152 C 1.00247 0.96456 0.26832 0.0
C153 C 0.98861 0.97827 0.21283 0.0
C154 C 1.00626 1.00716 0.26529 0.0
C155 C 1.03809 1.0221 0.37332 0.0
C156 C 1.03384 0.97972 0.37719 0.0
C157 C 1.05158 1.00837 0.42906 0.0
C158 C 0.94562 0.84992 0.83989 0.0
C159 C 0.98496 0.93465 0.21224 0.0
H160 H 0.877 0.71263 0.12147 0.0
H161 H 0.94142 0.68377 -0.00828 0.0
H162 H 0.97248 0.76566 -0.00827 0.0
H163 H 0.98135 0.7282 0.95172 0.0
H164 H 0.96387 0.96641 0.13036 0.0
H165 H 0.05282 0.0445 0.41429 0.0
H166 H 1.04501 0.96951 0.42134 0.0
H167 H 0.07601 1.02002 0.51223 0.0
Tb168 Tb 0.25647 1.02177 0.08168 0.0
C169 C 0.26537 0.11025 -0.00868 0.0
C170 C 0.31453 0.14539 0.18543 0.0
C171 C 0.3157 0.1554 0.98055 0.0
C172 C 0.2812 0.11843 0.12377 0.0
C173 C 0.28201 0.12915 0.91981 0.0
C174 C 0.332 0.16355 0.11284 0.0
C175 C 0.22857 0.09638 0.7355 0.0
N176 N 0.233 0.08446 0.93336 0.0
C177 C 0.21295 0.07855 0.81044 0.0
C178 C 0.26382 0.12148 0.78952 0.0
Tb179 Tb 0.21287 0.05676 0.06682 0.0
N180 N 0.26438 0.10003 0.19179 0.0
C181 C 0.27785 0.10856 0.32291 0.0
C182 C 0.32971 0.15324 0.31818 0.0
C183 C 0.31099 0.1349 0.38723 0.0
H184 H 0.18516 0.05952 0.76756 0.0
H185 H 0.32183 0.14118 0.49059 0.0
H186 H 0.3579 0.18407 0.15855 0.0
H187 H 0.21329 0.09078 0.63645 0.0
H188 H 0.26316 0.09592 0.38074 0.0
H189 H 0.15 0.93526 0.66445 0.0
H190 H 0.35547 0.17363 0.36852 0.0
H191 H 0.2907 1.01997 0.37353 0.0
H192 H 0.20568 0.98223 0.77495 0.0
H193 H 0.26794 0.98828 0.50821 0.0
H194 H 0.32872 0.16962 0.92529 0.0
H195 H 0.12069 0.9015 0.78665 0.0
H196 H 0.12148 0.89165 -0.00409 0.0
H197 H 0.27596 0.13537 0.73139 0.0
H198 H 0.15375 0.90567 0.22691 0.0
N199 N 0.20585 0.97771 0.96348 0.0
C200 C 0.19215 0.96902 0.83246 0.0
C201 C 0.14482 0.9227 0.83677 0.0
C202 C 0.16075 0.931 0.96928 0.0
C203 C 0.16101 0.94173 0.7678 0.0
C204 C 0.1918 0.95885 0.03071 0.0
H205 H 0.20741 0.94173 0.41901 0.0
N206 N 0.24116 0.99334 0.2142 0.0
C207 C 0.25102 0.9821 0.41101 0.0
C208 C 0.20959 0.96708 0.16058 0.0
C209 C 0.2635 1.00015 0.33456 0.0
C210 C 0.21691 0.95591 0.36038 0.0
C211 C 0.19656 0.94771 0.23225 0.0
O212 O 0.30156 1.01865 0.14632 0.0
O213 O 0.26839 0.06239 0.0595 0.0
O214 O 0.20191 1.03391 0.86947 0.0
O215 O 0.25273 1.0313 0.89821 0.0
O216 O 0.30987 0.06302 0.17735 0.0
O217 O 0.27507 1.0069 0.94659 0.0
O218 O 0.16325 0.05312 -0.01032 0.0
O219 O 0.20133 1.015 0.06814 0.0
O220 O 0.26262 0.04124 0.27813 0.0
O221 O 0.21648 0.04943 0.25475 0.0
O222 O 0.1577 1.01732 0.05527 0.0
O223 O 0.20242 0.08583 0.15991 0.0
C224 C 0.30431 0.07926 0.12624 0.0
C225 C 0.30162 0.98328 0.01046 0.0
C226 C 0.33476 0.96158 0.97093 0.0
C227 C 0.33488 0.98581 0.0025 0.0
C228 C 0.30148 0.93528 0.95029 0.0
C229 C 0.26917 0.95658 -0.00875 0.0
C230 C 0.26913 0.9328 0.96179 0.0
C231 C 0.22652 1.03179 0.82458 0.0
C232 C 0.30028 1.00814 0.03198 0.0
C233 C 0.16432 0.92054 0.17279 0.0
C234 C 0.14638 0.91235 0.04183 0.0
C235 C 0.16545 0.99917 0.06212 0.0
C236 C 0.16112 0.09387 0.0201 0.0
C237 C 0.15822 0.11493 0.09434 0.0
C238 C 0.14411 0.12888 0.03198 0.0
C239 C 0.13246 0.12027 0.89683 0.0
C240 C 0.14903 0.08736 0.88604 0.0
C241 C 0.13548 0.10044 0.82624 0.0
C242 C 0.23879 0.04453 0.32205 0.0
C243 C 0.17097 0.07517 0.07278 0.0
H244 H 0.36032 1.00633 0.01884 0.0
H245 H 0.30037 0.9165 0.9269 0.0
H246 H 0.24357 0.95388 -0.00352 0.0
H247 H 0.24379 0.91229 0.9467 0.0
H248 H 0.16626 0.12001 0.19782 0.0
H249 H 0.11935 0.12808 0.84229 0.0
H250 H 0.14784 0.07074 0.82426 0.0
H251 H 0.12582 0.09432 0.72258 0.0
Tb252 Tb 0.75023 0.52476 0.08128 0.0
C253 C 0.89331 0.57594 0.24422 0.0
C254 C 0.91731 0.59632 0.07913 0.0
C255 C 0.9457 0.6249 0.30124 0.0
C256 C 0.89127 0.57347 0.11691 0.0
C257 C 0.92173 0.60131 0.33866 0.0
C258 C 0.94345 0.62242 0.17132 0.0
C259 C 0.90509 0.57679 0.498 0.0
N260 N 0.86981 0.55259 0.27576 0.0
C261 C 0.87742 0.55216 0.40054 0.0
C262 C 0.92654 0.60173 0.46736 0.0
Tb263 Tb 0.82141 0.51496 0.10715 0.0
N264 N 0.86567 0.54792 0.0314 0.0
C265 C 0.86848 0.54287 0.91014 0.0
C266 C 0.91698 0.59196 0.95077 0.0
C267 C 0.8931 0.56488 0.86679 0.0
H268 H 0.86242 0.533 0.42698 0.0
H269 H 0.89389 0.56075 0.76919 0.0
H270 H 0.96304 0.64046 0.14382 0.0
H271 H 0.91025 0.57648 0.59647 0.0
H272 H 0.85186 0.52189 0.8456 0.0
H273 H 0.67344 0.47004 0.38971 0.0
H274 H 0.93621 0.609 0.91722 0.0
H275 H 0.71449 0.51527 0.7635 0.0
H276 H 0.72331 0.50952 0.33907 0.0
H277 H 0.66403 0.47682 0.58139 0.0
H278 H 0.96717 0.64477 0.37224 0.0
H279 H 0.62164 0.42829 0.21686 0.0
H280 H 0.59379 0.40209 0.98245 0.0
H281 H 0.94817 0.62074 0.54302 0.0
H282 H 0.59314 0.40306 0.76045 0.0
N283 N 0.70478 0.48879 0.13908 0.0
C284 C 0.70321 0.49065 0.26248 0.0
C285 C 0.64501 0.44482 0.19378 0.0
C286 C 0.64558 0.44346 0.06695 0.0
C287 C 0.67399 0.46851 0.29179 0.0
C288 C 0.67571 0.46645 0.04199 0.0
H289 H 0.61909 0.43087 0.60928 0.0
N290 N 0.70278 0.49093 0.89751 0.0
C291 C 0.66779 0.47327 0.67389 0.0
C292 C 0.6753 0.46716 0.91724 0.0
C293 C 0.69721 0.49499 0.77866 0.0
C294 C 0.64223 0.44755 0.69066 0.0
C295 C 0.64478 0.44463 0.81423 0.0
O296 O 0.71336 0.53416 0.00189 0.0
O297 O 0.81092 0.54877 0.1055 0.0
O298 O 0.80271 0.5107 0.27865 0.0
O299 O 0.77954 0.53755 0.28616 0.0
O300 O 0.78466 0.56881 0.09306 0.0
O301 O 0.73771 0.54644 0.21003 0.0
O302 O 0.83868 0.49503 0.21654 0.0
O303 O 0.76292 0.4943 0.10755 0.0
O304 O 0.76875 0.52859 0.90861 0.0
O305 O 0.79612 0.50451 0.90316 0.0
O306 O 0.77421 0.47209 -0.01185 0.0
O307 O 0.84567 0.49556 0.03129 0.0
C308 C 0.81709 0.57365 0.1084 0.0
C309 C 0.69584 0.55929 0.13276 0.0
C310 C 0.68447 0.58752 0.27606 0.0
C311 C 0.70029 0.57264 0.25654 0.0
C312 C 0.66286 0.58811 0.16955 0.0
C313 C 0.67416 0.55989 0.02698 0.0
C314 C 0.6576 0.57417 0.04565 0.0
C315 C 0.79331 0.52553 0.34288 0.0
C316 C 0.71607 0.54659 0.1149 0.0
C317 C 0.61638 0.42072 0.83853 0.0
C318 C 0.61662 0.42022 0.96481 0.0
C319 C 0.74789 0.46966 0.03328 0.0
C320 C 0.88374 0.48704 0.16912 0.0
C321 C 0.88172 0.46199 0.16856 0.0
C322 C 0.91492 0.46278 0.1981 0.0
C323 C 0.94948 0.48884 0.22851 0.0
C324 C 0.91892 0.51255 0.20248 0.0
C325 C 0.95144 0.51338 0.23202 0.0
C326 C 0.78168 0.51619 0.84813 0.0
C327 C 0.84939 0.48644 0.12863 0.0
H328 H 0.71648 0.57166 0.33805 0.0
H329 H 0.65059 0.59969 0.18173 0.0
H330 H 0.67051 0.54975 0.93009 0.0
H331 H 0.64116 0.57481 0.96389 0.0
H332 H 0.85466 0.44205 0.14213 0.0
H333 H 0.97528 0.49024 0.2496 0.0
H334 H 0.9212 0.53183 0.20372 0.0
H335 H 0.97847 0.53321 0.25638 0.0
Tb336 Tb 0.52056 0.16782 0.06811 0.0
C337 C 0.49099 0.25265 0.2653 0.0
C338 C 0.42983 0.23224 0.12026 0.0
C339 C 0.4484 0.26199 0.33447 0.0
C340 C 0.4646 0.23584 0.14746 0.0
C341 C 0.48346 0.26621 0.35973 0.0
C342 C 0.42169 0.24512 0.21474 0.0
C343 C 0.54653 0.2883 0.49399 0.0
N344 N 0.52442 0.25617 0.28639 0.0
C345 C 0.55274 0.27453 0.39686 0.0
C346 C 0.5116 0.28391 0.47584 0.0
Tb347 Tb 0.53129 0.23233 0.12336 0.0
N348 N 0.47325 0.22352 0.05871 0.0
C349 C 0.44775 0.20684 0.94061 0.0
C350 C 0.40437 0.21602 -0.00143 0.0
C351 C 0.41303 0.20279 0.9092 0.0
H352 H 0.57972 0.27784 0.41142 0.0
H353 H 0.39304 0.18951 0.81584 0.0
H354 H 0.39487 0.24225 0.19589 0.0
H355 H 0.56864 0.30224 0.58268 0.0
H356 H 0.45298 0.19575 0.86984 0.0
H357 H 0.65426 0.19244 0.32874 0.0
H358 H 0.37811 0.21383 0.97281 0.0
H359 H 0.46527 0.12796 0.77079 0.0
H360 H 0.59781 0.19219 0.30438 0.0
H361 H 0.47056 0.10595 0.57376 0.0
H362 H 0.44187 0.272 0.40611 0.0
H363 H 0.66434 0.17186 0.14105 0.0
H364 H 0.64432 0.15125 0.90193 0.0
H365 H 0.50684 0.29462 0.55108 0.0
H366 H 0.59536 0.12931 0.69532 0.0
N367 N 0.57645 0.17259 0.1025 0.0
C368 C 0.60201 0.18351 0.22067 0.0
C369 C 0.63997 0.17239 0.12863 0.0
C370 C 0.61392 0.16132 0.00801 0.0
C371 C 0.63413 0.18371 0.23518 0.0
C372 C 0.58142 0.16085 -0.00134 0.0
H373 H 0.53007 0.1117 0.57297 0.0
N374 N 0.52139 0.14599 0.87961 0.0
C375 C 0.49404 0.11767 0.66007 0.0
C376 C 0.55319 0.14734 0.88341 0.0
C377 C 0.49112 0.13009 0.77176 0.0
C378 C 0.52762 0.12079 0.6601 0.0
C379 C 0.55742 0.13519 0.7732 0.0
O380 O 0.48328 0.12448 0.02105 0.0
O381 O 0.4894 0.18589 0.10981 0.0
O382 O 0.52198 0.21963 0.29478 0.0
O383 O 0.53822 0.18795 0.27586 0.0
O384 O 0.46055 0.148 0.98047 0.0
O385 O 0.52721 0.14781 0.20537 0.0
O386 O 0.58245 0.27278 0.16838 0.0
O387 O 0.55914 0.21179 0.0896 0.0
O388 O 0.53309 0.18394 0.90394 0.0
O389 O 0.51542 0.21437 0.9174 0.0
O390 O 0.58782 0.24716 0.23807 0.0
O391 O 0.53729 0.2603 0.01089 0.0
C392 C 0.45497 0.16509 0.04201 0.0
C393 C 0.48724 0.09632 0.15094 0.0
C394 C 0.49485 0.06829 0.27746 0.0
C395 C 0.50614 0.09466 0.26119 0.0
C396 C 0.46513 0.04386 0.18211 0.0
C397 C 0.45754 0.0715 0.05699 0.0
C398 C 0.44669 0.04548 0.07255 0.0
C399 C 0.53114 0.20428 0.34319 0.0
C400 C 0.50053 0.12337 0.12506 0.0
C401 C 0.59103 0.13764 0.77981 0.0
C402 C 0.61901 0.15031 0.89736 0.0
C403 C 0.59107 0.22907 0.17193 0.0
C404 C 0.58554 0.31094 0.10311 0.0
C405 C 0.61818 0.33293 0.0753 0.0
C406 C 0.6306 0.36195 0.11329 0.0
C407 C 0.60925 0.36752 0.17691 0.0
C408 C 0.56593 0.31861 0.16544 0.0
C409 C 0.57758 0.3464 0.20134 0.0
C410 C 0.52297 0.19844 0.85201 0.0
C411 C 0.57222 0.28032 0.07454 0.0
H412 H 0.52947 0.11366 0.33342 0.0
H413 H 0.45665 1.02351 0.19211 0.0
H414 H 0.44308 0.07213 0.96979 0.0
H415 H 0.42421 1.02651 -0.00131 0.0
H416 H 0.63402 0.32762 0.02768 0.0
H417 H 0.61705 0.38864 0.20832 0.0
H418 H 0.54146 0.30298 0.18779 0.0
H419 H 0.56195 0.35176 0.25003 0.0
Tb420 Tb 1.00552 0.37764 0.29214 0.0
C421 C 0.88017 0.25582 0.1939 0.0
C422 C 0.88396 0.23272 0.00208 0.0
C423 C 0.85013 0.20543 0.13515 0.0
C424 C 0.89194 0.2572 0.08521 0.0
C425 C 0.85981 0.22989 0.22142 0.0
C426 C 0.86136 0.20682 0.02401 0.0
C427 C 0.85274 0.2528 0.40291 0.0
N428 N 0.88616 0.27927 0.26752 0.0
C429 C 0.87072 0.27745 0.36706 0.0
C430 C 0.84738 0.22887 0.32998 0.0
Tb431 Tb 0.91034 0.31735 0.18793 0.0
N432 N 0.91121 0.28233 0.06092 0.0
C433 C 0.92865 0.2846 0.9665 0.0
C434 C 0.89885 0.23485 0.89912 0.0
C435 C 0.9223 0.26111 0.8838 0.0
H436 H 0.87178 0.29496 0.42015 0.0
H437 H 0.93602 0.26344 0.8094 0.0
H438 H 0.85277 0.18772 0.95595 0.0
H439 H 0.8418 0.25205 0.48404 0.0
H440 H 0.94959 0.30448 0.95698 0.0
H441 H 0.99178 0.45629 0.5414 0.0
H442 H 0.89373 0.21656 0.83451 0.0
H443 H 1.04939 0.37807 0.06805 0.0
H444 H 0.98594 0.41188 0.4984 0.0
H445 H 0.07871 0.40824 0.93352 0.0
H446 H 0.8333 0.18523 0.15219 0.0
H447 H 1.01683 0.48755 0.40521 0.0
H448 H 1.04282 0.49699 0.21881 0.0
H449 H 0.83212 0.20943 0.35487 0.0
H450 H 0.06614 0.48383 0.05322 0.0
N451 N 1.00755 0.41752 0.33803 0.0
C452 C 0.99734 0.42526 0.43848 0.0
C453 C 1.0144 0.46799 0.38546 0.0
C454 C 1.02585 0.46039 0.28525 0.0
C455 C 1.00047 0.4505 0.46317 0.0
C456 C 1.02268 0.43493 0.26504 0.0
H457 H 0.08017 0.45108 0.94768 0.0
N458 N 1.03374 0.40333 0.15858 0.0
C459 C 0.06694 0.41396 0.00051 0.0
C460 C 1.03631 0.4277 0.17286 0.0
C461 C 1.05054 0.39702 0.07814 0.0
C462 C 0.06763 0.43809 0.00865 0.0
C463 C 0.05275 0.44547 0.09686 0.0
O464 O 1.05029 0.37651 0.38548 0.0
O465 O 0.96946 0.33158 0.25987 0.0
O466 O 0.93105 0.32826 0.39518 0.0
O467 O 0.98796 0.37217 0.46432 0.0
O468 O 1.01546 0.3482 0.19348 0.0
O469 O 0.05287 0.41373 0.43492 0.0
O470 O 0.86602 0.31554 0.25124 0.0
O471 O 0.94744 0.3633 0.27008 0.0
O472 O 0.98238 0.37103 0.08895 0.0
O473 O 0.92374 0.32764 0.01483 0.0
O474 O 0.9003 0.34611 0.11905 0.0
O475 O 0.85616 0.29387 0.05949 0.0
C476 C 0.98863 0.32509 0.20536 0.0
C477 C 0.11016 0.41968 0.43142 0.0
C478 C 0.17621 0.46107 0.5013 0.0
C479 C 0.14054 0.44538 0.52319 0.0
C480 C 0.18039 0.45052 0.38677 0.0
C481 C 0.11645 0.4098 0.32114 0.0
C482 C 0.15091 0.42527 0.29822 0.0
C483 C 0.95971 0.35054 0.4859 0.0
C484 C 0.07178 0.40305 0.44708 0.0
C485 C 0.05414 0.47012 0.11212 0.0
C486 C 1.04084 0.47761 0.20635 0.0
C487 C 0.92816 0.36919 0.19874 0.0
C488 C 0.80251 0.27457 0.13692 0.0
C489 C 0.77255 0.27702 0.15151 0.0
C490 C 0.73523 0.25243 0.12544 0.0
C491 C 0.72943 0.22622 0.08831 0.0
C492 C 0.79431 0.24757 0.09996 0.0
C493 C 0.75853 0.22384 0.07822 0.0
C494 C 0.95233 0.34999 -0.003 0.0
C495 C 0.84074 0.29898 0.14117 0.0
H496 H 0.13642 0.45307 0.6101 0.0
H497 H 0.20711 0.4613 0.36699 0.0
H498 H 0.0947 0.38984 0.25208 0.0
H499 H 0.15501 0.41735 0.2119 0.0
H500 H 0.7778 0.29756 0.17695 0.0
H501 H 0.70181 0.2072 0.06432 0.0
H502 H 0.81517 0.24452 0.08114 0.0
H503 H 0.753 0.20327 0.04862 0.0
Tb504 Tb 0.52119 0.95584 0.962 0.0
C505 C 0.36533 0.86627 0.60191 0.0
C506 C 0.32171 0.87382 0.67366 0.0
C507 C 0.30795 0.85223 0.44829 0.0
C508 C 0.35637 0.87721 0.69908 0.0
C509 C 0.34089 0.85334 0.4757 0.0
C510 C 0.29819 0.86221 0.54729 0.0
C511 C 0.38109 0.84081 0.41488 0.0
N512 N 0.39705 0.8671 0.63242 0.0
C513 C 0.40421 0.85342 0.54138 0.0
C514 C 0.34959 0.8411 0.38142 0.0
Tb515 Tb 0.43271 0.88977 0.84421 0.0
N516 N 0.37982 0.88868 0.82049 0.0
C517 C 0.36852 0.89452 0.92197 0.0
C518 C 0.31054 0.88044 0.77693 0.0
C519 C 0.3336 0.88995 0.90185 0.0
H520 H 0.42815 0.85261 0.56243 0.0
H521 H 0.32462 0.89362 0.98347 0.0
H522 H 0.27178 0.85996 0.52577 0.0
H523 H 0.38763 0.83086 0.34311 0.0
H524 H 0.3859 0.90172 0.01909 0.0
H525 H 0.6124 0.93348 0.78763 0.0
H526 H 0.28347 0.8771 0.76131 0.0
H527 H 0.53503 0.99584 0.24324 0.0
H528 H 0.5583 0.93565 0.76773 0.0
H529 H 0.58053 1.01928 0.45647 0.0
H530 H 0.28907 0.84267 0.35171 0.0
H531 H 0.65923 0.9527 -0.00111 0.0
H532 H 0.682 0.97854 0.23328 0.0
H533 H 0.33164 0.83116 0.28333 0.0
H534 H 0.67367 1.00235 0.41505 0.0
N535 N 0.57297 0.95549 0.96708 0.0
C536 C 0.57825 0.94444 0.86091 0.0
C537 C 0.63542 0.95388 -0.00923 0.0
C538 C 0.63105 0.96662 0.09766 0.0
C539 C 0.60912 0.94308 0.87147 0.0
C540 C 0.59928 0.96724 0.08198 0.0
H541 H 0.636 1.01779 0.49913 0.0
N542 N 0.56383 0.98067 0.16205 0.0
C543 C 0.58491 1.00846 0.38045 0.0
C544 C 0.59458 0.9804 0.18334 0.0
C545 C 0.55911 0.9951 0.25815 0.0
C546 C 0.6161 1.00751 0.40423 0.0
C547 C 0.62145 0.99358 0.30473 0.0
O548 O 0.53143 0.99539 0.97964 0.0
O549 O 0.46116 0.93437 0.89775 0.0
O550 O 0.44125 0.90824 0.68556 0.0
O551 O 0.50599 0.93698 0.75525 0.0
O552 O 0.49092 0.97126 0.03999 0.0
O553 O 0.54448 0.97698 0.82829 0.0
O554 O 0.43385 0.85744 0.89712 0.0
O555 O 0.49272 0.91077 0.92093 0.0
O556 O 0.51148 0.93777 0.12194 0.0
O557 O 0.44629 0.90825 0.0509 0.0
O558 O 0.46462 0.87584 0.76929 0.0
O559 O 0.38644 0.8588 0.89082 0.0
C560 C 0.45788 0.95162 0.96816 0.0
C561 C 0.56305 1.02434 0.85355 0.0
C562 C 0.56518 0.05464 0.72317 0.0
C563 C 0.5484 1.02793 0.74163 0.0
C564 C 0.59784 0.07756 0.81696 0.0
C565 C 0.59513 0.04732 0.94728 0.0
C566 C 0.61266 0.07386 0.92821 0.0
C567 C 0.47387 0.92372 0.6641 0.0
C568 C 0.54133 0.99701 0.87517 0.0
C569 C 0.6528 0.99253 0.32235 0.0
C570 C 0.65754 0.97899 0.21893 0.0
C571 C 0.49719 0.89432 0.84915 0.0
C572 C 0.37554 0.81531 0.80874 0.0
C573 C 0.38924 0.79906 0.81306 0.0
C574 C 0.37011 0.77271 0.72619 0.0
C575 C 0.3362 0.76189 0.63472 0.0
C576 C 0.34201 0.80507 0.7153 0.0
C577 C 0.32241 0.77833 0.62851 0.0
C578 C 0.47857 0.92255 0.14323 0.0
C579 C 0.39911 0.84365 0.89541 0.0
H580 H 0.52328 1.0099 0.67028 0.0
H581 H 0.61148 0.0984 0.80583 0.0
H582 H 0.60613 0.04478 0.03537 0.0
H583 H 0.63739 0.09172 0.00089 0.0
H584 H 0.41492 0.80686 0.88632 0.0
H585 H 0.32041 0.74085 0.57027 0.0
H586 H 0.3311 0.81761 0.70875 0.0
H587 H 0.29643 0.7703 0.55736 0.0
Tb588 Tb 0.39731 0.56316 0.89245 0.0
C589 C 0.28797 0.58514 0.86356 0.0
C590 C 0.26116 0.58146 0.6465 0.0
C591 C 0.22122 0.56334 0.78359 0.0
C592 C 0.29222 0.58945 0.74663 0.0
C593 C 0.25298 0.57408 0.88637 0.0
C594 C 0.22528 0.56687 0.66316 0.0
C595 C 0.28516 0.59214 0.1128 0.0
N596 N 0.3193 0.59592 0.95999 0.0
C597 C 0.31903 0.60279 0.08394 0.0
C598 C 0.25169 0.57654 0.01318 0.0
Tb599 Tb 0.37245 0.60962 0.8995 0.0
N600 N 0.32748 0.60439 0.73665 0.0
C601 C 0.33412 0.61571 0.63651 0.0
C602 C 0.26746 0.58981 0.53606 0.0
C603 C 0.30421 0.60776 0.5328 0.0
H604 H 0.34496 0.61595 0.1613 0.0
H605 H 0.30954 0.61552 0.45067 0.0
H606 H 0.20088 0.55988 0.5863 0.0
H607 H 0.28497 0.5963 0.21138 0.0
H608 H 0.3625 0.62962 0.63339 0.0
H609 H 0.52403 0.58739 0.20491 0.0
H610 H 0.24435 0.58389 0.45623 0.0
H611 H 0.3466 0.51947 0.60254 0.0
H612 H 0.4711 0.59075 0.14789 0.0
H613 H 0.35412 0.4935 0.42547 0.0
H614 H 0.19384 0.55397 0.79818 0.0
H615 H 0.53929 0.56583 0.03759 0.0
H616 H 0.52285 0.54075 0.80696 0.0
H617 H 0.22545 0.56858 0.03535 0.0
H618 H 0.47715 0.51603 0.59221 0.0
N619 N 0.45368 0.5692 0.94887 0.0
C620 C 0.47644 0.58067 0.07289 0.0
C621 C 0.51522 0.56658 0.01167 0.0
C622 C 0.49206 0.55494 0.88525 0.0
C623 C 0.5067 0.57877 0.10633 0.0
C624 C 0.46058 0.55595 0.85713 0.0
H625 H 0.41382 0.49799 0.44894 0.0
N626 N 0.40271 0.5404 0.71931 0.0
C627 C 0.37716 0.50721 0.51186 0.0
C628 C 0.4346 0.54159 0.73746 0.0
C629 C 0.37303 0.52196 0.61177 0.0
C630 C 0.41093 0.50986 0.52559 0.0
C631 C 0.43975 0.5265 0.64101 0.0
O632 O 0.35906 0.52047 0.86216 0.0
O633 O 0.35209 0.56762 0.82517 0.0
O634 O 0.3657 0.59008 0.05729 0.0
O635 O 0.41777 0.591 0.08498 0.0
O636 O 0.33792 0.53473 0.88688 0.0
O637 O 0.40227 0.54698 0.04586 0.0
O638 O 0.41229 0.64369 0.06383 0.0
O639 O 0.42167 0.60869 0.94372 0.0
O640 O 0.40501 0.57513 0.71465 0.0
O641 O 0.37003 0.59399 0.69814 0.0
O642 O 0.42004 0.63409 0.83265 0.0
O643 O 0.37039 0.64407 0.93435 0.0
C644 C 0.32419 0.54681 0.84088 0.0
C645 C 0.37425 0.49814 -0.01222 0.0
C646 C 0.34007 0.45255 0.02117 0.0
C647 C 0.34422 0.47754 0.01883 0.0
C648 C 0.36596 0.44788 0.98716 0.0
C649 C 0.40018 0.49378 0.95347 0.0
C650 C 0.39588 0.46849 0.95282 0.0
C651 C 0.39265 0.591 0.1333 0.0
C652 C 0.37356 0.52189 0.97783 0.0
C653 C 0.47248 0.52726 0.66544 0.0
C654 C 0.49849 0.54131 0.7877 0.0
C655 C 0.44074 0.62695 0.8862 0.0
C656 C 0.42939 0.68654 0.02094 0.0
C657 C 0.41664 0.69863 0.94869 0.0
C658 C 0.44042 0.72606 0.94625 0.0
C659 C 0.47896 0.74098 0.00713 0.0
C660 C 0.46776 0.70146 0.08443 0.0
C661 C 0.4926 0.72843 0.07481 0.0
C662 C 0.38731 0.58374 0.64808 0.0
C663 C 0.40119 0.6588 0.02954 0.0
H664 H 0.32351 0.48092 0.03941 0.0
H665 H 0.36356 0.42871 -0.01043 0.0
H666 H 0.42308 0.5094 0.92575 0.0
H667 H 0.41575 0.4649 0.92615 0.0
H668 H 0.38721 0.68681 0.89602 0.0
H669 H 0.49814 0.76231 0.00545 0.0
H670 H 0.47839 0.69246 0.14137 0.0
H671 H 0.52223 0.73989 0.12278 0.0
Tb672 Tb 0.66333 0.72343 0.95656 0.0
C673 C 0.71791 0.83572 0.97657 0.0
C674 C 0.75241 0.86568 0.19519 0.0
C675 C 0.76625 0.88565 0.01917 0.0
C676 C 0.72506 0.83876 0.10739 0.0
C677 C 0.73827 0.85938 0.93185 0.0
C678 C 0.7732 0.88881 0.15036 0.0
C679 C 0.69781 0.83121 0.71862 0.0
N680 N 0.68769 0.81102 0.89481 0.0
C681 C 0.6761 0.80957 0.76885 0.0
C682 C 0.72936 0.85627 0.80059 0.0
Tb683 Tb 0.65077 0.77806 -0.01121 0.0
N684 N 0.70217 0.81665 0.14878 0.0
C685 C 0.7063 0.82092 0.27847 0.0
C686 C 0.75856 0.8688 0.32632 0.0
C687 C 0.7354 0.84624 0.36796 0.0
H688 H 0.64891 0.79266 0.7063 0.0
H689 H 0.73848 0.84879 0.46938 0.0
H690 H 0.79465 0.90932 0.21675 0.0
H691 H 0.68877 0.82915 0.61797 0.0
H692 H 0.68651 0.80627 0.31859 0.0
H693 H 0.57542 0.66029 0.46629 0.0
H694 H 0.78021 0.88881 0.39609 0.0
H695 H 0.65932 0.7055 0.2359 0.0
H696 H 0.63231 0.69899 0.62777 0.0
H697 H 0.61161 0.67058 0.31189 0.0
H698 H 0.7823 0.90379 0.98609 0.0
H699 H 0.52545 0.62235 0.52958 0.0
H700 H 0.50225 0.60236 0.70371 0.0
H701 H 0.74522 0.87363 0.76269 0.0
H702 H 0.51092 0.60869 0.93227 0.0
N703 N 0.61292 0.68754 0.78894 0.0
C704 C 0.60979 0.68478 0.66084 0.0
C705 C 0.55017 0.64025 0.60258 0.0
C706 C 0.55514 0.64167 0.73212 0.0
C707 C 0.57798 0.66177 0.56672 0.0
C708 C 0.58741 0.66568 0.82465 0.0
H709 H 0.55066 0.63255 0.15998 0.0
N710 N 0.62387 0.69054 0.0428 0.0
C711 C 0.60558 0.66971 0.21169 0.0
C712 C 0.59305 0.66732 0.95458 0.0
C713 C 0.63205 0.69038 0.16815 0.0
C714 C 0.57168 0.64776 0.12467 0.0
C715 C 0.56594 0.64559 -0.00617 0.0
O716 O 0.68788 0.70589 0.04669 0.0
O717 O 0.69548 0.76956 0.00372 0.0
O718 O 0.63548 0.75563 0.7863 0.0
O719 O 0.67396 0.74051 0.79457 0.0
O720 O 0.72283 0.74992 0.00961 0.0
O721 O 0.6772 0.70103 0.83957 0.0
O722 O 0.61521 0.78614 0.8765 0.0
O723 O 0.62085 0.73194 0.92381 0.0
O724 O 0.67687 0.7433 0.16074 0.0
O725 O 0.64757 0.7661 0.16509 0.0
O726 O 0.59878 0.74765 0.02914 0.0
O727 O 0.63129 0.79974 0.07942 0.0
C728 C 0.72876 0.77396 0.02203 0.0
C729 C 0.70402 0.67815 0.92621 0.0
C730 C 0.71029 0.64545 0.79059 0.0
C731 C 0.69855 0.66321 0.80462 0.0
C732 C 0.72847 0.64314 0.89989 0.0
C733 C 0.72172 0.67552 0.03537 0.0
C734 C 0.73407 0.65814 0.02192 0.0
C735 C 0.65593 0.74937 0.73429 0.0
C736 C 0.68897 0.69489 0.93737 0.0
C737 C 0.53319 0.62311 0.9023 0.0
C738 C 0.52803 0.62037 0.77204 0.0
C739 C 0.5933 0.72461 0.97056 0.0
C740 C 0.61872 0.82759 0.97515 0.0
C741 C 0.58864 0.83081 0.94795 0.0
C742 C 0.59622 0.85817 0.96455 0.0
C743 C 0.63367 0.88149 0.00273 0.0
C744 C 0.65529 0.85194 0.01728 0.0
C745 C 0.66277 0.87835 0.02829 0.0
C746 C 0.66196 0.75427 0.21894 0.0
C747 C 0.61313 0.79995 0.97494 0.0
H748 H 0.68483 0.66522 0.7202 0.0
H749 H 0.73774 0.62946 0.89092 0.0
H750 H 0.7258 0.68671 0.13063 0.0
H751 H 0.74767 0.6561 0.10615 0.0
H752 H 0.55994 0.81251 0.91873 0.0
H753 H 0.64055 0.90244 0.0135 0.0
H754 H 0.67843 0.85086 0.04723 0.0
H755 H 0.69148 0.89666 0.06007 0.0
C756 C 0.27645 0.42433 0.22553 0.0
C757 C 0.25998 0.39565 0.17896 0.0
H758 H 0.31569 0.46492 0.21441 0.0
C759 C 0.26559 0.38512 0.06845 0.0
H760 H 0.27142 0.43265 0.30845 0.0
C761 C 0.29051 0.4036 0.01235 0.0
C762 C 0.30995 0.43256 0.06712 0.0
H763 H 0.25248 0.36286 0.03012 0.0
H764 H 0.29555 0.39535 0.92941 0.0
C765 C 0.30155 0.44271 0.17087 0.0
C766 C 0.81691 0.80442 0.91354 0.0
C767 C 0.84587 0.81337 0.02609 0.0
H768 H 0.75921 0.7885 0.82487 0.0
C769 C 0.83496 0.81222 0.13992 0.0
H770 H 0.82264 0.80348 0.82201 0.0
C771 C 0.79796 0.80376 0.14128 0.0
C772 C 0.76936 0.79635 0.02999 0.0
H773 H 0.85492 0.81733 0.22865 0.0
H774 H 0.79103 0.80155 0.23027 0.0
C775 C 0.78019 0.79648 0.91562 0.0
C776 C 0.39474 0.96926 0.08102 0.0
C777 C 0.36902 0.96281 0.9664 0.0
H778 H 0.44247 0.9703 0.16991 0.0
C779 C 0.37298 0.95304 0.84944 0.0
H780 H 0.39217 0.97659 0.17229 0.0
C781 C 0.40179 0.94926 0.84777 0.0
C782 C 0.42621 0.95426 0.96337 0.0
H783 H 0.35311 0.94753 0.75965 0.0
H784 H 0.40438 0.94179 0.75685 0.0
C785 C 0.42316 0.96527 0.07945 0.0
C786 C 0.41084 0.14491 0.19395 0.0
C787 C 0.4157 0.14974 0.07377 0.0
H788 H 0.37464 0.121 0.30318 0.0
C789 C 0.38103 0.13237 0.97191 0.0
H790 H 0.43535 0.15623 0.27679 0.0
C791 C 0.34515 0.11145 0.98694 0.0
C792 C 0.34058 0.10577 0.10612 0.0
H793 H 0.38192 0.13395 0.87605 0.0
H794 H 0.3212 0.0987 0.90229 0.0
C795 C 0.37501 0.12387 0.20884 0.0
C796 C 0.9941 0.2895 0.30489 0.0
C797 C 0.99375 0.30101 0.20195 0.0
H798 H 1.01175 0.26718 0.39941 0.0
C799 C 1.00744 0.29411 0.10488 0.0
H800 H 0.98546 0.29479 0.38453 0.0
C801 C 1.02135 0.27723 0.11084 0.0
C802 C 1.02349 0.26689 0.21663 0.0
H803 H 1.00919 0.3031 0.02567 0.0
H804 H 1.03329 0.27423 0.03702 0.0
C805 C 1.00925 0.27336 0.31296 0.0
C806 C 0.87176 0.65549 0.18715 0.0
C807 C 0.88119 0.66202 0.07436 0.0
H808 H 0.84733 0.62428 0.28895 0.0
C809 C 0.87287 0.63833 0.97951 0.0
H810 H 0.87701 0.67197 0.26477 0.0
C811 C 0.85644 0.61062 -0.00491 0.0
C812 C 0.84814 0.60417 0.10914 0.0
H813 H 0.8786 0.64106 0.88932 0.0
H814 H 0.84872 0.59375 0.91403 0.0
C815 C 0.85563 0.6277 0.20293 0.0
C816 C 0.25667 0.50961 0.80851 0.0
C817 C 0.2841 0.52988 0.7628 0.0
H818 H 0.20097 0.47224 0.76344 0.0
C819 C 0.27363 0.52969 0.63566 0.0
H820 H 0.26408 0.50897 0.9058 0.0
C821 C 0.23715 0.50905 0.55491 0.0
C822 C 0.2105 0.48726 0.59723 0.0
H823 H 0.29411 0.54455 0.59642 0.0
H824 H 0.23054 0.50914 0.45625 0.0
C825 C 0.22033 0.4886 0.72706 0.0
C826 C 0.7323 0.62978 0.62494 0.0
C827 C 0.70332 0.62962 0.66083 0.0
H828 H 0.74951 0.61751 0.47341 0.0
C829 C 0.66814 0.61575 0.56978 0.0
H830 H 0.75982 0.64081 0.69307 0.0
C831 C 0.66206 0.60227 0.4444 0.0
C832 C 0.69109 0.60251 0.40791 0.0
H833 H 0.64529 0.61528 0.59576 0.0
H834 H 0.63452 0.59133 0.37671 0.0
C835 C 0.72633 0.6165 0.49927 0.0
C836 C 0.49152 0.04744 0.45879 0.0
C837 C 0.51338 0.06565 0.39321 0.0
H838 H 0.49065 1.03019 0.61545 0.0
C839 C 0.55251 0.08047 0.43686 0.0
H840 H 0.4613 1.03599 0.42772 0.0
C841 C 0.5694 0.07677 0.54348 0.0
C842 C 0.54752 0.05855 0.60929 0.0
H843 H 0.56993 0.09451 0.38733 0.0
H844 H 0.59958 0.08804 0.57388 0.0
C845 C 0.50837 0.04402 0.56589 0.0
C846 C 0.12846 0.15188 0.21054 0.0
C847 C 0.13877 0.15129 0.09631 0.0
H848 H 0.10866 0.16868 0.3392 0.0
C849 C 0.13908 0.17054 0.03152 0.0
H850 H 0.12734 0.13774 0.26459 0.0
C851 C 0.12598 0.18693 0.06962 0.0
C852 C 0.11528 0.18732 0.18228 0.0
H853 H 0.14815 0.17236 0.94625 0.0
H854 H 0.12325 0.19868 0.00778 0.0
C855 C 0.11735 0.16968 0.25292 0.0
C856 C 0.99155 0.04263 0.28947 0.0
C857 C 0.99164 1.02185 0.20883 0.0
H858 H 0.98064 0.07387 0.30325 0.0
C859 C 0.97862 1.01586 0.07515 0.0
H860 H 1.00052 0.04728 0.39271 0.0
C861 C 0.96693 1.03107 0.02352 0.0
C862 C 0.96808 0.05246 0.10479 0.0
H863 H 0.97858 1.00006 0.01046 0.0
H864 H 0.95822 1.02676 0.92042 0.0
C865 C 0.98002 0.05779 0.23814 0.0
C866 C 0.06952 0.92084 0.96527 0.0
C867 C 0.06443 0.91244 0.07994 0.0
H868 H 0.10123 0.95155 0.86782 0.0
C869 C 0.09636 0.93364 0.188 0.0
H870 H 1.04658 0.9078 0.87841 0.0
C871 C 0.12929 0.95968 0.18206 0.0
C872 C 0.13397 0.96782 0.06692 0.0
H873 H 0.09477 0.93114 0.28229 0.0
H874 H 0.15059 0.97433 0.27131 0.0
C875 C 0.10195 0.9471 0.95932 0.0
C876 C 0.93087 0.42983 0.1078 0.0
C877 C 0.91533 0.43725 0.19422 0.0
H878 H 0.94746 0.40301 0.04279 0.0
C879 C 0.90568 0.42274 0.28705 0.0
H880 H 0.93878 0.44057 0.03538 0.0
C881 C 0.91207 0.40181 0.29425 0.0
C882 C 0.92875 0.3951 0.21005 0.0
H883 H 0.89391 0.42798 0.35576 0.0
H884 H 0.90357 0.39061 0.36482 0.0
C885 C 0.93665 0.40871 0.11381 0.0
C886 C 0.69623 0.41619 0.95224 0.0
C887 C 0.71956 0.44141 0.05478 0.0
H888 H 0.65082 0.37185 0.88759 0.0
C889 C 0.71658 0.43868 0.17776 0.0
H890 H 0.69785 0.41689 0.85603 0.0
C891 C 0.68992 0.41264 0.19617 0.0
C892 C 0.66491 0.38764 0.09304 0.0
H893 H 0.73444 0.45694 0.2605 0.0
H894 H 0.68797 0.41231 0.29239 0.0
C895 C 0.66935 0.38999 0.97059 0.0
C896 C 0.66211 0.2556 0.25932 0.0
C897 C 0.62891 0.23748 0.15558 0.0
H898 H 0.72162 0.27516 0.33184 0.0
C899 C 0.63284 0.22838 0.03742 0.0
H900 H 0.66058 0.2636 0.35144 0.0
C901 C 0.66793 0.23522 0.02613 0.0
C902 C 0.70082 0.25195 0.13165 0.0
H903 H 0.60858 0.21526 0.95393 0.0
H904 H 0.66908 0.22634 0.93508 0.0
C905 C 0.6974 0.26264 0.24781 0.0
C906 C 0.56915 0.88471 0.03582 0.0
C907 C 0.56691 0.86412 0.94219 0.0
H908 H 0.54903 0.91015 0.08302 0.0
C909 C 0.54127 0.8536 0.82071 0.0
H910 H 0.58886 0.89353 0.13045 0.0
C911 C 0.51981 0.86415 0.79215 0.0
C912 C 0.52276 0.88532 0.88429 0.0
H913 H 0.53908 0.83815 0.74576 0.0
H914 H 0.50085 0.85576 0.69632 0.0
C915 C 0.54695 0.8948 0.00806 0.0
C916 C 0.43802 0.75448 0.80285 0.0
C917 C 0.42281 0.73823 0.88455 0.0
H918 H 0.43172 0.77784 0.68219 0.0
C919 C 0.3881 0.73124 0.9001 0.0
H920 H 0.46469 0.7602 0.78982 0.0
C921 C 0.36826 0.73927 0.83169 0.0
C922 C 0.38364 0.75585 0.7521 0.0
H923 H 0.37625 0.71961 0.96633 0.0
H924 H 0.34237 0.73456 0.84936 0.0
C925 C 0.41866 0.76362 0.73807 0.0
C926 C 0.54368 0.68767 0.05231 0.0
C927 C 0.55643 0.69667 0.94786 0.0
H928 H 0.49866 0.65739 0.11635 0.0
C929 C 0.53091 0.68106 0.82475 0.0
H930 H 0.56175 0.69986 0.14928 0.0
C931 C 0.49475 0.65684 0.80628 0.0
C932 C 0.48236 0.6471 0.90971 0.0
H933 H 0.5386 0.68795 0.74251 0.0
H934 H 0.47566 0.64617 0.70994 0.0
C935 C 0.50758 0.663 0.03357 0.0
C936 C 0.10514 0.23912 0.78917 0.0
C937 C 0.07236 0.2305 0.82429 0.0
H938 H 0.13024 0.244 0.63727 0.0
C939 C 1.03932 0.2208 0.72989 0.0
H940 H 0.13096 0.24645 0.85947 0.0
C941 C 1.03902 0.21967 0.60272 0.0
C942 C 0.07183 0.22843 0.5677 0.0
H943 H 1.01363 0.21414 0.75417 0.0
H944 H 1.01316 0.2122 0.53247 0.0
C945 C 0.10476 0.23783 0.66185 0.0
C946 C 0.92616 0.82592 0.60646 0.0
C947 C 0.9478 0.85066 0.70869 0.0
H948 H 0.91259 0.8071 0.40695 0.0
C949 C 0.97353 0.87597 0.68617 0.0
H950 H 0.90568 0.80616 0.62034 0.0
C951 C 0.97871 0.87637 0.56515 0.0
C952 C 0.95656 0.85173 0.46224 0.0
H953 H 0.99005 0.89548 0.76245 0.0
H954 H 0.99954 0.89608 0.55175 0.0
C955 C 0.93036 0.82647 0.48437 0.0
C956 C 0.19764 1.02647 0.59653 0.0
C957 C 0.22872 1.03376 0.6936 0.0
H958 H 0.17681 1.0248 0.4037 0.0
C959 C 0.26325 0.04464 0.66719 0.0
H960 H 0.1706 1.01769 0.61326 0.0
C961 C 0.26682 0.04867 0.54757 0.0
C962 C 0.23593 0.04184 0.45135 0.0
H963 H 0.28787 0.05061 0.73995 0.0
H964 H 0.29384 0.05735 0.53076 0.0
C965 C 0.2013 1.03071 0.47698 0.0
C966 C 0.7879 0.5425 0.55532 0.0
C967 C 0.79184 0.52407 0.4744 0.0
H968 H 0.78137 0.55434 0.73702 0.0
C969 C 0.79195 0.50279 0.5169 0.0
H970 H 0.78774 0.55909 0.5252 0.0
C971 C 0.78775 0.4998 0.63702 0.0
C972 C 0.78374 0.51818 0.71784 0.0
H973 H 0.7946 0.48804 0.45647 0.0
H974 H 0.78769 0.48309 0.66666 0.0
C975 C 0.78387 0.53958 0.67594 0.0
C976 C 0.54445 0.1909 0.5377 0.0
C977 C 0.52961 0.20316 0.47383 0.0
H978 H 0.55497 0.18062 0.70899 0.0
C979 C 0.51195 0.21344 0.53405 0.0
H980 H 0.55816 0.18278 0.49349 0.0
C981 C 0.50935 0.2116 0.65648 0.0
C982 C 0.52445 0.19952 0.7209 0.0
H983 H 0.49966 0.2226 0.48625 0.0
H984 H 0.49549 0.21962 0.70041 0.0
C985 C 0.54219 0.18935 0.66061 0.0
C986 C 0.97592 0.37667 0.71344 0.0
C987 C 0.95863 0.35126 0.61789 0.0
H988 H 0.98609 0.39612 0.90954 0.0
C989 C 0.93796 0.3259 0.64703 0.0
H990 H 0.99178 0.39658 0.6931 0.0
C991 C 0.93297 0.32564 0.76709 0.0
C992 C 0.95165 0.35082 0.86485 0.0
H993 H 0.92604 0.30611 0.57773 0.0
H994 H 0.91551 0.30554 0.78331 0.0
C995 C 0.97254 0.37641 0.8367 0.0
C996 C 0.44202 0.91174 0.4312 0.0
C997 C 0.47505 0.92417 0.53126 0.0
H998 H 0.41709 0.90101 0.23045 0.0
C999 C 0.5094 0.93659 0.5028 0.0
H1000 H 0.41522 0.90255 0.44992 0.0
C1001 C 0.51058 0.93598 0.37692 0.0
C1002 C 0.47746 0.92306 0.27659 0.0
H1003 H 0.5355 0.94658 0.57737 0.0
H1004 H 0.53746 0.94541 0.35842 0.0
C1005 C 0.44317 0.91098 0.30518 0.0
C1006 C 0.42186 0.59225 0.35347 0.0
C1007 C 0.39129 0.58785 0.2639 0.0
H1008 H 0.44444 0.59398 0.54537 0.0
C1009 C 0.35874 0.58003 0.29989 0.0
H1010 H 0.44722 0.59796 0.32873 0.0
C1011 C 0.35743 0.57827 0.42378 0.0
C1012 C 0.3883 0.5836 0.51452 0.0
H1013 H 0.33399 0.57507 0.23226 0.0
H1014 H 0.33204 0.57254 0.44839 0.0
C1015 C 0.42026 0.58991 0.4774 0.0
C1016 C 0.68676 0.75258 0.56074 0.0
C1017 C 0.65694 0.75024 0.60137 0.0
H1018 H 0.71201 0.756 0.40838 0.0
C1019 C 0.62853 0.74872 0.51427 0.0
H1020 H 0.70895 0.75357 0.62523 0.0
C1021 C 0.63056 0.75044 0.39067 0.0
C1022 C 0.66064 0.75311 0.35085 0.0
H1023 H 0.60477 0.74628 0.5417 0.0
H1024 H 0.60827 0.74924 0.32551 0.0
C1025 C 0.68859 0.75399 0.43675 0.0
loop_
_geom_bond_atom_site_label_1
_geom_bond_atom_site_label_2
_geom_bond_distance
_geom_bond_site_symmetry_2
_ccdc_geom_bond_type
Tb0 N31 2.660 . S
Tb0 N38 2.600 . S
Tb0 O44 2.546 . S
Tb0 O45 2.610 . S
Tb0 O47 2.320 . S
Tb0 O48 2.552 . S
Tb0 O49 2.413 . S
Tb0 O51 2.362 . S
Tb0 O52 2.421 . S
Tb0 C64 2.833 . S
C1 C4 1.432 . S
C1 C5 1.414 1_554 S
C1 N8 1.359 1_554 S
C2 C4 1.417 . S
C2 C6 1.432 . S
C2 C14 1.410 . S
C3 C5 1.444 . S
C3 C6 1.317 1_556 S
C3 H26 0.929 . S
C4 C1 1.432 . S
C4 C2 1.417 . S
C4 N12 1.360 . S
C5 C1 1.414 1_556 S
C5 C3 1.444 . S
C5 C10 1.385 . S
C6 C2 1.432 . S
C6 C3 1.317 1_554 S
C6 H18 0.930 . S
C7 C9 1.392 . S
C7 C10 1.370 . S
C7 H19 0.931 . S
N8 C1 1.359 1_556 S
N8 C9 1.327 . S
N8 Tb11 2.600 1_556 S
C9 C7 1.392 . S
C9 N8 1.327 . S
C9 H16 0.930 . S
C10 C5 1.385 . S
C10 C7 1.370 . S
C10 H29 0.930 . S
Tb11 N8 2.600 1_554 S
Tb11 N12 2.660 . S
Tb11 O45 2.362 1_655 S
Tb11 O46 2.421 1_654 S
Tb11 O50 2.546 . S
Tb11 O51 2.610 1_655 S
Tb11 O53 2.320 1_655 S
Tb11 O54 2.552 1_655 S
Tb11 O55 2.413 . S
Tb11 C75 2.833 . S
N12 C4 1.360 . S
N12 Tb11 2.660 . S
N12 C13 1.305 . S
C13 N12 1.305 . S
C13 C15 1.407 . S
C13 H20 0.930 . S
C14 C2 1.410 . S
C14 C15 1.345 . S
C14 H22 0.930 . S
C15 C13 1.407 . S
C15 C14 1.345 . S
C15 H17 0.930 . S
H16 C9 0.930 . S
H17 C15 0.930 . S
H18 C6 0.930 . S
H19 C7 0.931 . S
H20 C13 0.930 . S
H21 C35 0.930 1_556 S
H22 C14 0.930 . S
H23 C41 0.930 . S
H24 C32 0.930 . S
H25 C39 0.931 . S
H26 C3 0.929 . S
H27 C33 0.930 . S
H28 C66 0.930 . S
H29 C10 0.930 . S
H30 C65 0.929 . S
N31 Tb0 2.660 . S
N31 C32 1.305 . S
N31 C36 1.360 . S
C32 H24 0.930 . S
C32 N31 1.305 . S
C32 C35 1.407 . S
C33 H27 0.930 . S
C33 C34 1.410 . S
C33 C35 1.345 . S
C34 C33 1.410 . S
C34 C36 1.417 . S
C34 C66 1.432 . S
C35 H21 0.930 1_554 S
C35 C32 1.407 . S
C35 C33 1.345 . S
C36 N31 1.360 . S
C36 C34 1.417 . S
C36 C40 1.432 . S
H37 C42 0.930 . S
N38 Tb0 2.600 . S
N38 C40 1.359 . S
N38 C41 1.327 . S
C39 H25 0.931 . S
C39 C41 1.392 . S
C39 C42 1.370 . S
C40 C36 1.432 . S
C40 N38 1.359 . S
C40 C43 1.414 . S
C41 H23 0.930 . S
C41 N38 1.327 . S
C41 C39 1.392 . S
C42 H37 0.930 . S
C42 C39 1.370 . S
C42 C43 1.385 . S
C43 C40 1.414 . S
C43 C42 1.385 . S
C43 C65 1.444 . S
O44 Tb0 2.546 . S
O44 C64 1.251 . S
O45 Tb0 2.610 . S
O45 Tb11 2.362 1_455 S
O45 C56 1.283 . S
O46 Tb11 2.421 1_456 S
O46 C63 1.262 . S
O47 Tb0 2.320 . S
O47 C63 1.260 1_554 S
O48 Tb0 2.552 . S
O48 C56 1.243 . S
O49 Tb0 2.413 . S
O49 C64 1.256 . S
O50 Tb11 2.546 . S
O50 C75 1.251 . S
O51 Tb0 2.362 . S
O51 Tb11 2.610 1_455 S
O51 C67 1.283 . S
O52 Tb0 2.421 . S
O52 C74 1.262 . S
O53 Tb11 2.320 1_455 S
O53 C74 1.260 . S
O54 Tb11 2.552 1_455 S
O54 C67 1.243 . S
O55 Tb11 2.413 . S
O55 C75 1.256 . S
C56 O45 1.283 . S
C56 O48 1.243 . S
C57 C59 1.382 . S
C57 C61 1.393 . S
C57 C64 1.500 . S
C58 C59 1.400 . S
C58 C60 1.384 . S
C59 C57 1.382 . S
C59 C58 1.400 . S
C59 H76 0.930 . S
C60 C58 1.384 . S
C60 C62 1.392 . S
C60 H77 0.931 . S
C61 C57 1.393 . S
C61 C62 1.401 . S
C61 H78 0.930 . S
C62 C60 1.392 . S
C62 C61 1.401 . S
C62 H79 0.930 . S
C63 O46 1.262 . S
C63 O47 1.260 1_556 S
C64 Tb0 2.833 . S
C64 O44 1.251 . S
C64 O49 1.256 . S
C64 C57 1.500 . S
C65 H30 0.929 . S
C65 C43 1.444 . S
C65 C66 1.317 . S
C66 H28 0.930 . S
C66 C34 1.432 . S
C66 C65 1.317 . S
C67 O51 1.283 . S
C67 O54 1.243 . S
C68 C69 1.382 . S
C68 C72 1.393 1_554 S
C68 C75 1.500 . S
C69 C68 1.382 . S
C69 C70 1.400 . S
C69 H80 0.930 . S
C70 C69 1.400 . S
C70 C71 1.384 . S
C71 C70 1.384 . S
C71 C73 1.392 1_554 S
C71 H81 0.931 1_545 S
C72 C68 1.393 1_556 S
C72 C73 1.401 . S
C72 H82 0.930 . S
C73 C71 1.392 1_556 S
C73 C72 1.401 . S
C73 H83 0.930 . S
C74 O52 1.262 . S
C74 O53 1.260 . S
C75 Tb11 2.833 . S
C75 O50 1.251 . S
C75 O55 1.256 . S
C75 C68 1.500 . S
H76 C59 0.930 . S
H77 C60 0.931 . S
H78 C61 0.930 . S
H79 C62 0.930 . S
H80 C69 0.930 . S
H81 C71 0.931 1_565 S
H82 C72 0.930 . S
H83 C73 0.930 . S
Tb84 N115 2.660 . S
Tb84 N122 2.600 . S
Tb84 O128 2.546 . S
Tb84 O129 2.610 . S
Tb84 O131 2.320 . S
Tb84 O132 2.552 . S
Tb84 O133 2.413 . S
Tb84 O135 2.362 . S
Tb84 O136 2.421 1_554 S
Tb84 C148 2.833 . S
C85 C88 1.432 . S
C85 C89 1.414 . S
C85 N92 1.359 . S
C86 C88 1.417 . S
C86 C90 1.432 . S
C86 C98 1.410 1_554 S
C87 C89 1.444 . S
C87 C90 1.317 . S
C87 H110 0.929 . S
C88 C85 1.432 . S
C88 C86 1.417 . S
C88 N96 1.360 . S
C89 C85 1.414 . S
C89 C87 1.444 . S
C89 C94 1.385 . S
C90 C86 1.432 . S
C90 C87 1.317 . S
C90 H102 0.930 . S
C91 C93 1.392 . S
C91 C94 1.370 . S
C91 H103 0.931 . S
N92 C85 1.359 . S
N92 C93 1.327 . S
N92 Tb95 2.600 . S
C93 C91 1.392 . S
C93 N92 1.327 . S
C93 H100 0.930 . S
C94 C89 1.385 . S
C94 C91 1.370 . S
C94 H113 0.930 . S
Tb95 N92 2.600 . S
Tb95 N96 2.660 . S
Tb95 O129 2.362 . S
Tb95 O130 2.421 . S
Tb95 O134 2.546 . S
Tb95 O135 2.610 . S
Tb95 O137 2.320 . S
Tb95 O138 2.552 . S
Tb95 O139 2.413 . S
Tb95 C159 2.833 . S
N96 C88 1.360 . S
N96 Tb95 2.660 . S
N96 C97 1.305 1_554 S
C97 N96 1.305 1_556 S
C97 C99 1.407 . S
C97 H104 0.930 . S
C98 C86 1.410 1_556 S
C98 C99 1.345 . S
C98 H106 0.930 . S
C99 C97 1.407 . S
C99 C98 1.345 . S
C99 H101 0.930 . S
H100 C93 0.930 . S
H101 C99 0.930 . S
H102 C90 0.930 . S
H103 C91 0.931 . S
H104 C97 0.930 . S
H105 C119 0.930 . S
H106 C98 0.930 . S
H107 C125 0.930 . S
H108 C116 0.930 . S
H109 C123 0.931 . S
H110 C87 0.929 . S
H111 C117 0.930 . S
H112 C150 0.930 . S
H113 C94 0.930 . S
H114 C149 0.929 . S
N115 Tb84 2.660 . S
N115 C116 1.305 . S
N115 C120 1.360 . S
C116 H108 0.930 . S
C116 N115 1.305 . S
C116 C119 1.407 1_655 S
C117 H111 0.930 . S
C117 C118 1.410 . S
C117 C119 1.345 . S
C118 C117 1.410 . S
C118 C120 1.417 1_455 S
C118 C150 1.432 . S
C119 H105 0.930 . S
C119 C116 1.407 1_455 S
C119 C117 1.345 . S
C120 N115 1.360 . S
C120 C118 1.417 1_655 S
C120 C124 1.432 . S
H121 C126 0.930 . S
N122 Tb84 2.600 . S
N122 C124 1.359 . S
N122 C125 1.327 1_554 S
C123 H109 0.931 . S
C123 C125 1.392 . S
C123 C126 1.370 . S
C124 C120 1.432 . S
C124 N122 1.359 . S
C124 C127 1.414 1_554 S
C125 H107 0.930 . S
C125 N122 1.327 1_556 S
C125 C123 1.392 . S
C126 H121 0.930 . S
C126 C123 1.370 . S
C126 C127 1.385 . S
C127 C124 1.414 1_556 S
C127 C126 1.385 . S
C127 C149 1.444 1_656 S
O128 Tb84 2.546 . S
O128 C148 1.251 . S
O129 Tb84 2.610 . S
O129 Tb95 2.362 . S
O129 C140 1.283 . S
O130 Tb95 2.421 . S
O130 C147 1.262 . S
O131 Tb84 2.320 . S
O131 C147 1.260 . S
O132 Tb84 2.552 . S
O132 C140 1.243 . S
O133 Tb84 2.413 . S
O133 C148 1.256 . S
O134 Tb95 2.546 . S
O134 C159 1.251 . S
O135 Tb84 2.362 . S
O135 Tb95 2.610 . S
O135 C151 1.283 . S
O136 Tb84 2.421 1_556 S
O136 C158 1.262 . S
O137 Tb95 2.320 . S
O137 C158 1.260 1_554 S
O138 Tb95 2.552 . S
O138 C151 1.243 . S
O139 Tb95 2.413 . S
O139 C159 1.256 . S
C140 O129 1.283 . S
C140 O132 1.243 . S
C141 C143 1.382 . S
C141 C145 1.393 . S
C141 C148 1.500 . S
C142 C143 1.400 . S
C142 C144 1.384 . S
C143 C141 1.382 . S
C143 C142 1.400 . S
C143 H160 0.930 . S
C144 C142 1.384 . S
C144 C146 1.392 . S
C144 H161 0.931 . S
C145 C141 1.393 . S
C145 C146 1.401 . S
C145 H162 0.930 1_554 S
C146 C144 1.392 . S
C146 C145 1.401 . S
C146 H163 0.930 1_554 S
C147 O130 1.262 . S
C147 O131 1.260 . S
C148 Tb84 2.833 . S
C148 O128 1.251 . S
C148 O133 1.256 . S
C148 C141 1.500 . S
C149 H114 0.929 . S
C149 C127 1.444 1_454 S
C149 C150 1.317 . S
C150 H112 0.930 . S
C150 C118 1.432 . S
C150 C149 1.317 . S
C151 O135 1.283 . S
C151 O138 1.243 . S
C152 C153 1.382 . S
C152 C156 1.393 . S
C152 C159 1.500 . S
C153 C152 1.382 . S
C153 C154 1.400 . S
C153 H164 0.930 . S
C154 C153 1.400 . S
C154 C155 1.384 . S
C155 C154 1.384 . S
C155 C157 1.392 . S
C155 H165 0.931 . S
C156 C152 1.393 . S
C156 C157 1.401 . S
C156 H166 0.930 . S
C157 C155 1.392 . S
C157 C156 1.401 . S
C157 H167 0.930 . S
C158 O136 1.262 . S
C158 O137 1.260 1_556 S
C159 Tb95 2.833 . S
C159 O134 1.251 . S
C159 O139 1.256 . S
C159 C152 1.500 . S
H160 C143 0.930 . S
H161 C144 0.931 . S
H162 C145 0.930 1_556 S
H163 C146 0.930 1_556 S
H164 C153 0.930 . S
H165 C155 0.931 . S
H166 C156 0.930 . S
H167 C157 0.930 . S
Tb168 N199 2.660 1_554 S
Tb168 N206 2.600 . S
Tb168 O212 2.546 . S
Tb168 O213 2.610 1_565 S
Tb168 O215 2.320 1_554 S
Tb168 O216 2.552 1_565 S
Tb168 O217 2.413 1_554 S
Tb168 O219 2.362 . S
Tb168 O220 2.421 1_565 S
Tb168 C232 2.833 . S
C169 C172 1.432 1_556 S
C169 C173 1.414 . S
C169 N176 1.359 . S
C170 C172 1.417 . S
C170 C174 1.432 . S
C170 C182 1.410 . S
C171 C173 1.444 . S
C171 C174 1.317 1_556 S
C171 H194 0.929 . S
C172 C169 1.432 1_554 S
C172 C170 1.417 . S
C172 N180 1.360 . S
C173 C169 1.414 . S
C173 C171 1.444 . S
C173 C178 1.385 . S
C174 C170 1.432 . S
C174 C171 1.317 1_554 S
C174 H186 0.930 . S
C175 C177 1.392 . S
C175 C178 1.370 . S
C175 H187 0.931 . S
N176 C169 1.359 . S
N176 C177 1.327 . S
N176 Tb179 2.600 1_556 S
C177 C175 1.392 . S
C177 N176 1.327 . S
C177 H184 0.930 . S
C178 C173 1.385 . S
C178 C175 1.370 . S
C178 H197 0.930 . S
Tb179 N176 2.600 1_554 S
Tb179 N180 2.660 . S
Tb179 O213 2.362 . S
Tb179 O214 2.421 1_554 S
Tb179 O218 2.546 1_554 S
Tb179 O219 2.610 1_545 S
Tb179 O221 2.320 . S
Tb179 O222 2.552 1_545 S
Tb179 O223 2.413 . S
Tb179 C243 2.833 . S
N180 C172 1.360 . S
N180 Tb179 2.660 . S
N180 C181 1.305 . S
C181 N180 1.305 . S
C181 C183 1.407 . S
C181 H188 0.930 . S
C182 C170 1.410 . S
C182 C183 1.345 . S
C182 H190 0.930 . S
C183 C181 1.407 . S
C183 C182 1.345 . S
C183 H185 0.930 . S
H184 C177 0.930 . S
H185 C183 0.930 . S
H186 C174 0.930 . S
H187 C175 0.931 . S
H188 C181 0.930 . S
H189 C203 0.930 . S
H190 C182 0.930 . S
H191 C209 0.930 . S
H192 C200 0.930 . S
H193 C207 0.931 . S
H194 C171 0.929 . S
H195 C201 0.930 . S
H196 C234 0.930 . S
H197 C178 0.930 . S
H198 C233 0.929 . S
N199 Tb168 2.660 1_556 S
N199 C200 1.305 . S
N199 C204 1.360 . S
C200 H192 0.930 . S
C200 N199 1.305 . S
C200 C203 1.407 . S
C201 H195 0.930 . S
C201 C202 1.410 . S
C201 C203 1.345 . S
C202 C201 1.410 . S
C202 C204 1.417 . S
C202 C234 1.432 . S
C203 H189 0.930 . S
C203 C200 1.407 . S
C203 C201 1.345 . S
C204 N199 1.360 . S
C204 C202 1.417 . S
C204 C208 1.432 1_556 S
H205 C210 0.930 . S
N206 Tb168 2.600 . S
N206 C208 1.359 . S
N206 C209 1.327 . S
C207 H193 0.931 . S
C207 C209 1.392 . S
C207 C210 1.370 . S
C208 C204 1.432 1_554 S
C208 N206 1.359 . S
C208 C211 1.414 . S
C209 H191 0.930 . S
C209 N206 1.327 . S
C209 C207 1.392 . S
C210 H205 0.930 . S
C210 C207 1.370 . S
C210 C211 1.385 . S
C211 C208 1.414 . S
C211 C210 1.385 . S
C211 C233 1.444 . S
O212 Tb168 2.546 . S
O212 C232 1.251 . S
O213 Tb168 2.610 1_545 S
O213 Tb179 2.362 . S
O213 C224 1.283 . S
O214 Tb179 2.421 1_556 S
O214 C231 1.262 1_545 S
O215 Tb168 2.320 1_556 S
O215 C231 1.260 . S
O216 Tb168 2.552 1_545 S
O216 C224 1.243 . S
O217 Tb168 2.413 1_556 S
O217 C232 1.256 1_556 S
O218 Tb179 2.546 1_556 S
O218 C243 1.251 1_556 S
O219 Tb168 2.362 . S
O219 Tb179 2.610 1_565 S
O219 C235 1.283 . S
O220 Tb168 2.421 1_545 S
O220 C242 1.262 . S
O221 Tb179 2.320 . S
O221 C242 1.260 . S
O222 Tb179 2.552 1_565 S
O222 C235 1.243 . S
O223 Tb179 2.413 . S
O223 C243 1.256 . S
C224 O213 1.283 . S
C224 O216 1.243 . S
C225 C227 1.382 1_554 S
C225 C229 1.393 . S
C225 C232 1.500 . S
C226 C227 1.400 . S
C226 C228 1.384 . S
C227 C225 1.382 1_556 S
C227 C226 1.400 . S
C227 H244 0.930 . S
C228 C226 1.384 . S
C228 C230 1.392 1_556 S
C228 H245 0.931 . S
C229 C225 1.393 . S
C229 C230 1.401 . S
C229 H246 0.930 . S
C230 C228 1.392 1_554 S
C230 C229 1.401 . S
C230 H247 0.930 . S
C231 O214 1.262 1_565 S
C231 O215 1.260 . S
C232 Tb168 2.833 . S
C232 O212 1.251 . S
C232 O217 1.256 1_554 S
C232 C225 1.500 . S
C233 H198 0.929 . S
C233 C211 1.444 . S
C233 C234 1.317 1_554 S
C234 H196 0.930 . S
C234 C202 1.432 . S
C234 C233 1.317 1_556 S
C235 O219 1.283 . S
C235 O222 1.243 . S
C236 C237 1.382 . S
C236 C240 1.393 1_554 S
C236 C243 1.500 . S
C237 C236 1.382 . S
C237 C238 1.400 . S
C237 H248 0.930 . S
C238 C237 1.400 . S
C238 C239 1.384 . S
C239 C238 1.384 . S
C239 C241 1.392 . S
C239 H249 0.931 . S
C240 C236 1.393 1_556 S
C240 C241 1.401 1_556 S
C240 H250 0.930 . S
C241 C239 1.392 . S
C241 C240 1.401 1_554 S
C241 H251 0.930 1_554 S
C242 O220 1.262 . S
C242 O221 1.260 . S
C243 Tb179 2.833 . S
C243 O218 1.251 1_554 S
C243 O223 1.256 . S
C243 C236 1.500 . S
H244 C227 0.930 . S
H245 C228 0.931 . S
H246 C229 0.930 . S
H247 C230 0.930 . S
H248 C237 0.930 . S
H249 C239 0.931 . S
H250 C240 0.930 . S
H251 C241 0.930 1_556 S
Tb252 N283 2.660 . S
Tb252 N290 2.600 1_554 S
Tb252 O296 2.546 1_554 S
Tb252 O297 2.610 . S
Tb252 O299 2.320 . S
Tb252 O300 2.552 . S
Tb252 O301 2.413 . S
Tb252 O303 2.362 . S
Tb252 O304 2.421 1_554 S
Tb252 C316 2.833 . S
C253 C256 1.432 . S
C253 C257 1.414 . S
C253 N260 1.359 . S
C254 C256 1.417 . S
C254 C258 1.432 . S
C254 C266 1.410 . S
C255 C257 1.444 . S
C255 C258 1.317 . S
C255 H278 0.929 . S
C256 C253 1.432 . S
C256 C254 1.417 . S
C256 N264 1.360 . S
C257 C253 1.414 . S
C257 C255 1.444 . S
C257 C262 1.385 . S
C258 C254 1.432 . S
C258 C255 1.317 . S
C258 H270 0.930 . S
C259 C261 1.392 . S
C259 C262 1.370 . S
C259 H271 0.931 . S
N260 C253 1.359 . S
N260 C261 1.327 . S
N260 Tb263 2.600 . S
C261 C259 1.392 . S
C261 N260 1.327 . S
C261 H268 0.930 . S
C262 C257 1.385 . S
C262 C259 1.370 . S
C262 H281 0.930 . S
Tb263 N260 2.600 . S
Tb263 N264 2.660 . S
Tb263 O297 2.362 . S
Tb263 O298 2.421 . S
Tb263 O302 2.546 . S
Tb263 O303 2.610 . S
Tb263 O305 2.320 1_554 S
Tb263 O306 2.552 . S
Tb263 O307 2.413 . S
Tb263 C327 2.833 . S
N264 C256 1.360 . S
N264 Tb263 2.660 . S
N264 C265 1.305 1_554 S
C265 N264 1.305 1_556 S
C265 C267 1.407 . S
C265 H272 0.930 . S
C266 C254 1.410 . S
C266 C267 1.345 1_554 S
C266 H274 0.930 . S
C267 C265 1.407 . S
C267 C266 1.345 1_556 S
C267 H269 0.930 . S
H268 C261 0.930 . S
H269 C267 0.930 . S
H270 C258 0.930 . S
H271 C259 0.931 . S
H272 C265 0.930 . S
H273 C287 0.930 . S
H274 C266 0.930 . S
H275 C293 0.930 . S
H276 C284 0.930 . S
H277 C291 0.931 . S
H278 C255 0.929 . S
H279 C285 0.930 . S
H280 C318 0.930 . S
H281 C262 0.930 . S
H282 C317 0.929 . S
N283 Tb252 2.660 . S
N283 C284 1.305 . S
N283 C288 1.360 1_554 S
C284 H276 0.930 . S
C284 N283 1.305 . S
C284 C287 1.407 . S
C285 H279 0.930 . S
C285 C286 1.410 . S
C285 C287 1.345 . S
C286 C285 1.410 . S
C286 C288 1.417 1_554 S
C286 C318 1.432 1_554 S
C287 H273 0.930 . S
C287 C284 1.407 . S
C287 C285 1.345 . S
C288 N283 1.360 1_556 S
C288 C286 1.417 1_556 S
C288 C292 1.432 . S
H289 C294 0.930 . S
N290 Tb252 2.600 1_556 S
N290 C292 1.359 . S
N290 C293 1.327 . S
C291 H277 0.931 . S
C291 C293 1.392 . S
C291 C294 1.370 . S
C292 C288 1.432 . S
C292 N290 1.359 . S
C292 C295 1.414 . S
C293 H275 0.930 . S
C293 N290 1.327 . S
C293 C291 1.392 . S
C294 H289 0.930 . S
C294 C291 1.370 . S
C294 C295 1.385 . S
C295 C292 1.414 . S
C295 C294 1.385 . S
C295 C317 1.444 . S
O296 Tb252 2.546 1_556 S
O296 C316 1.251 1_556 S
O297 Tb252 2.610 . S
O297 Tb263 2.362 . S
O297 C308 1.283 . S
O298 Tb263 2.421 . S
O298 C315 1.262 . S
O299 Tb252 2.320 . S
O299 C315 1.260 . S
O300 Tb252 2.552 . S
O300 C308 1.243 . S
O301 Tb252 2.413 . S
O301 C316 1.256 . S
O302 Tb263 2.546 . S
O302 C327 1.251 . S
O303 Tb252 2.362 . S
O303 Tb263 2.610 . S
O303 C319 1.283 . S
O304 Tb252 2.421 1_556 S
O304 C326 1.262 . S
O305 Tb263 2.320 1_556 S
O305 C326 1.260 . S
O306 Tb263 2.552 . S
O306 C319 1.243 . S
O307 Tb263 2.413 . S
O307 C327 1.256 . S
C308 O297 1.283 . S
C308 O300 1.243 . S
C309 C311 1.382 . S
C309 C313 1.393 1_554 S
C309 C316 1.500 . S
C310 C311 1.400 . S
C310 C312 1.384 . S
C311 C309 1.382 . S
C311 C310 1.400 . S
C311 H328 0.930 . S
C312 C310 1.384 . S
C312 C314 1.399 . S
C312 H329 0.931 . S
C313 C309 1.393 1_556 S
C313 C314 1.400 1_556 S
C313 H330 0.930 . S
C314 C312 1.399 . S
C314 C313 1.400 1_554 S
C314 H331 0.924 1_554 S
C315 O298 1.262 . S
C315 O299 1.260 . S
C316 Tb252 2.833 . S
C316 O296 1.251 1_554 S
C316 O301 1.256 . S
C316 C309 1.500 . S
C317 H282 0.929 . S
C317 C295 1.444 . S
C317 C318 1.317 . S
C318 H280 0.930 . S
C318 C286 1.432 1_556 S
C318 C317 1.317 . S
C319 O303 1.283 . S
C319 O306 1.243 . S
C320 C321 1.382 1_554 S
C320 C324 1.393 . S
C320 C327 1.500 . S
C321 C320 1.382 1_556 S
C321 C322 1.400 . S
C321 H332 0.930 . S
C322 C321 1.400 . S
C322 C323 1.384 1_556 S
C323 C322 1.384 1_554 S
C323 C325 1.392 . S
C323 H333 0.931 . S
C324 C320 1.393 . S
C324 C325 1.401 . S
C324 H334 0.930 . S
C325 C323 1.392 . S
C325 C324 1.401 . S
C325 H335 0.930 . S
C326 O304 1.262 . S
C326 O305 1.260 . S
C327 Tb263 2.833 . S
C327 O302 1.251 . S
C327 O307 1.256 . S
C327 C320 1.500 . S
H328 C311 0.930 . S
H329 C312 0.931 . S
H330 C313 0.930 . S
H331 C314 0.924 1_556 S
H332 C321 0.930 . S
H333 C323 0.931 . S
H334 C324 0.930 . S
H335 C325 0.930 . S
Tb336 N367 2.660 1_556 S
Tb336 N374 2.600 . S
Tb336 O380 2.546 . S
Tb336 O381 2.610 . S
Tb336 O383 2.320 1_556 S
Tb336 O384 2.552 . S
Tb336 O385 2.413 1_556 S
Tb336 O387 2.362 1_556 S
Tb336 O388 2.421 . S
Tb336 C400 2.833 . S
C337 C340 1.432 1_554 S
C337 C341 1.414 . S
C337 N344 1.359 . S
C338 C340 1.417 . S
C338 C342 1.432 . S
C338 C350 1.410 . S
C339 C341 1.444 . S
C339 C342 1.317 1_554 S
C339 H362 0.929 . S
C340 C337 1.432 1_556 S
C340 C338 1.417 . S
C340 N348 1.360 . S
C341 C337 1.414 . S
C341 C339 1.444 . S
C341 C346 1.385 . S
C342 C338 1.432 . S
C342 C339 1.317 1_556 S
C342 H354 0.930 . S
C343 C345 1.392 . S
C343 C346 1.370 . S
C343 H355 0.931 . S
N344 C337 1.359 . S
N344 C345 1.327 . S
N344 Tb347 2.600 . S
C345 C343 1.392 . S
C345 N344 1.327 . S
C345 H352 0.930 . S
C346 C341 1.385 . S
C346 C343 1.370 . S
C346 H365 0.930 . S
Tb347 N344 2.600 . S
Tb347 N348 2.660 1_554 S
Tb347 O381 2.362 1_554 S
Tb347 O382 2.421 . S
Tb347 O386 2.546 . S
Tb347 O387 2.610 . S
Tb347 O389 2.320 1_554 S
Tb347 O390 2.552 . S
Tb347 O391 2.413 1_554 S
Tb347 C411 2.833 . S
N348 C340 1.360 . S
N348 Tb347 2.660 1_556 S
N348 C349 1.305 . S
C349 N348 1.305 . S
C349 C351 1.407 . S
C349 H356 0.930 . S
C350 C338 1.410 . S
C350 C351 1.345 . S
C350 H358 0.930 . S
C351 C349 1.407 . S
C351 C350 1.345 . S
C351 H353 0.930 . S
H352 C345 0.930 . S
H353 C351 0.930 . S
H354 C342 0.930 . S
H355 C343 0.931 . S
H356 C349 0.930 . S
H357 C371 0.930 . S
H358 C350 0.930 . S
H359 C377 0.930 . S
H360 C368 0.930 . S
H361 C375 0.931 . S
H362 C339 0.929 . S
H363 C369 0.930 . S
H364 C402 0.930 . S
H365 C346 0.930 . S
H366 C401 0.929 . S
N367 Tb336 2.660 1_554 S
N367 C368 1.305 . S
N367 C372 1.360 . S
C368 H360 0.930 . S
C368 N367 1.305 . S
C368 C371 1.407 . S
C369 H363 0.930 . S
C369 C370 1.410 . S
C369 C371 1.345 . S
C370 C369 1.410 . S
C370 C372 1.417 . S
C370 C402 1.432 . S
C371 H357 0.930 . S
C371 C368 1.407 . S
C371 C369 1.345 . S
C372 N367 1.360 . S
C372 C370 1.417 . S
C372 C376 1.432 1_554 S
H373 C378 0.930 . S
N374 Tb336 2.600 . S
N374 C376 1.359 . S
N374 C377 1.327 . S
C375 H361 0.931 . S
C375 C377 1.392 . S
C375 C378 1.370 . S
C376 C372 1.432 1_556 S
C376 N374 1.359 . S
C376 C379 1.414 . S
C377 H359 0.930 . S
C377 N374 1.327 . S
C377 C375 1.392 . S
C378 H373 0.930 . S
C378 C375 1.370 . S
C378 C379 1.385 . S
C379 C376 1.414 . S
C379 C378 1.385 . S
C379 C401 1.444 . S
O380 Tb336 2.546 . S
O380 C400 1.251 . S
O381 Tb336 2.610 . S
O381 Tb347 2.362 1_556 S
O381 C392 1.283 . S
O382 Tb347 2.421 . S
O382 C399 1.262 . S
O383 Tb336 2.320 1_554 S
O383 C399 1.260 . S
O384 Tb336 2.552 . S
O384 C392 1.243 . S
O385 Tb336 2.413 1_554 S
O385 C400 1.256 1_554 S
O386 Tb347 2.546 . S
O386 C411 1.251 . S
O387 Tb336 2.362 1_554 S
O387 Tb347 2.610 . S
O387 C403 1.283 . S
O388 Tb336 2.421 . S
O388 C410 1.262 . S
O389 Tb347 2.320 1_556 S
O389 C410 1.260 . S
O390 Tb347 2.552 . S
O390 C403 1.243 . S
O391 Tb347 2.413 1_556 S
O391 C411 1.256 1_556 S
C392 O381 1.283 . S
C392 O384 1.243 . S
C393 C395 1.382 1_556 S
C393 C397 1.393 . S
C393 C400 1.500 . S
C394 C395 1.400 . S
C394 C396 1.384 . S
C395 C393 1.382 1_554 S
C395 C394 1.400 . S
C395 H412 0.930 . S
C396 C394 1.384 . S
C396 C398 1.392 1_554 S
C396 H413 0.931 1_545 S
C397 C393 1.393 . S
C397 C398 1.401 . S
C397 H414 0.930 . S
C398 C396 1.392 1_556 S
C398 C397 1.401 . S
C398 H415 0.922 1_545 S
C399 O382 1.262 . S
C399 O383 1.260 . S
C400 Tb336 2.833 . S
C400 O380 1.251 . S
C400 O385 1.256 1_556 S
C400 C393 1.500 . S
C401 H366 0.929 . S
C401 C379 1.444 . S
C401 C402 1.317 1_556 S
C402 H364 0.930 . S
C402 C370 1.432 . S
C402 C401 1.317 1_554 S
C403 O387 1.283 . S
C403 O390 1.243 . S
C404 C405 1.382 1_554 S
C404 C408 1.393 . S
C404 C411 1.500 . S
C405 C404 1.382 1_556 S
C405 C406 1.400 . S
C405 H416 0.930 . S
C406 C405 1.400 . S
C406 C407 1.384 . S
C407 C406 1.384 . S
C407 C409 1.392 1_556 S
C407 H417 0.931 . S
C408 C404 1.393 . S
C408 C409 1.401 . S
C408 H418 0.930 . S
C409 C407 1.392 1_554 S
C409 C408 1.401 . S
C409 H419 0.930 . S
C410 O388 1.262 . S
C410 O389 1.260 . S
C411 Tb347 2.833 . S
C411 O386 1.251 . S
C411 O391 1.256 1_554 S
C411 C404 1.500 . S
H412 C395 0.930 . S
H413 C396 0.931 1_565 S
H414 C397 0.930 . S
H415 C398 0.922 1_565 S
H416 C405 0.930 . S
H417 C407 0.931 . S
H418 C408 0.930 . S
H419 C409 0.930 . S
Tb420 N451 2.660 . S
Tb420 N458 2.600 . S
Tb420 O464 2.546 1_655 S
Tb420 O465 2.610 . S
Tb420 O467 2.320 . S
Tb420 O468 2.552 . S
Tb420 O469 2.413 1_655 S
Tb420 O471 2.362 . S
Tb420 O472 2.421 1_554 S
Tb420 C484 2.833 1_655 S
C421 C424 1.432 . S
C421 C425 1.414 . S
C421 N428 1.359 . S
C422 C424 1.417 . S
C422 C426 1.432 . S
C422 C434 1.410 1_554 S
C423 C425 1.444 . S
C423 C426 1.317 . S
C423 H446 0.929 . S
C424 C421 1.432 . S
C424 C422 1.417 . S
C424 N432 1.360 . S
C425 C421 1.414 . S
C425 C423 1.444 . S
C425 C430 1.385 . S
C426 C422 1.432 . S
C426 C423 1.317 . S
C426 H438 0.930 . S
C427 C429 1.392 . S
C427 C430 1.370 . S
C427 H439 0.931 . S
N428 C421 1.359 . S
N428 C429 1.327 . S
N428 Tb431 2.600 . S
C429 C427 1.392 . S
C429 N428 1.327 . S
C429 H436 0.930 . S
C430 C425 1.385 . S
C430 C427 1.370 . S
C430 H449 0.930 . S
Tb431 N428 2.600 . S
Tb431 N432 2.660 . S
Tb431 O465 2.362 . S
Tb431 O466 2.421 . S
Tb431 O470 2.546 . S
Tb431 O471 2.610 . S
Tb431 O473 2.320 1_554 S
Tb431 O474 2.552 . S
Tb431 O475 2.413 1_554 S
Tb431 C495 2.833 . S
N432 C424 1.360 . S
N432 Tb431 2.660 . S
N432 C433 1.305 1_554 S
C433 N432 1.305 1_556 S
C433 C435 1.407 . S
C433 H440 0.930 . S
C434 C422 1.410 1_556 S
C434 C435 1.345 . S
C434 H442 0.930 . S
C435 C433 1.407 . S
C435 C434 1.345 . S
C435 H437 0.930 . S
H436 C429 0.930 . S
H437 C435 0.930 . S
H438 C426 0.930 . S
H439 C427 0.931 . S
H440 C433 0.930 . S
H441 C455 0.930 . S
H442 C434 0.930 . S
H443 C461 0.930 . S
H444 C452 0.930 . S
H445 C459 0.931 1_455 S
H446 C423 0.929 . S
H447 C453 0.930 . S
H448 C486 0.930 . S
H449 C430 0.930 . S
H450 C485 0.929 . S
N451 Tb420 2.660 . S
N451 C452 1.305 . S
N451 C456 1.360 . S
C452 H444 0.930 . S
C452 N451 1.305 . S
C452 C455 1.407 . S
C453 H447 0.930 . S
C453 C454 1.410 . S
C453 C455 1.345 . S
C454 C453 1.410 . S
C454 C456 1.417 . S
C454 C486 1.432 . S
C455 H441 0.930 . S
C455 C452 1.407 . S
C455 C453 1.345 . S
C456 N451 1.360 . S
C456 C454 1.417 . S
C456 C460 1.432 . S
H457 C462 0.930 1_455 S
N458 Tb420 2.600 . S
N458 C460 1.359 . S
N458 C461 1.327 1_554 S
C459 H445 0.931 1_655 S
C459 C461 1.392 . S
C459 C462 1.370 . S
C460 C456 1.432 . S
C460 N458 1.359 . S
C460 C463 1.414 . S
C461 H443 0.930 . S
C461 N458 1.327 1_556 S
C461 C459 1.392 . S
C462 H457 0.930 1_655 S
C462 C459 1.370 . S
C462 C463 1.385 1_556 S
C463 C460 1.414 . S
C463 C462 1.385 1_554 S
C463 C485 1.444 . S
O464 Tb420 2.546 1_455 S
O464 C484 1.251 . S
O465 Tb420 2.610 . S
O465 Tb431 2.362 . S
O465 C476 1.283 . S
O466 Tb431 2.421 . S
O466 C483 1.262 . S
O467 Tb420 2.320 . S
O467 C483 1.260 . S
O468 Tb420 2.552 . S
O468 C476 1.243 . S
O469 Tb420 2.413 1_455 S
O469 C484 1.256 . S
O470 Tb431 2.546 . S
O470 C495 1.251 . S
O471 Tb420 2.362 . S
O471 Tb431 2.610 . S
O471 C487 1.283 . S
O472 Tb420 2.421 1_556 S
O472 C494 1.262 . S
O473 Tb431 2.320 1_556 S
O473 C494 1.260 . S
O474 Tb431 2.552 . S
O474 C487 1.243 . S
O475 Tb431 2.413 1_556 S
O475 C495 1.256 1_556 S
C476 O465 1.283 . S
C476 O468 1.243 . S
C477 C479 1.382 . S
C477 C481 1.393 . S
C477 C484 1.500 . S
C478 C479 1.400 . S
C478 C480 1.384 . S
C479 C477 1.382 . S
C479 C478 1.400 . S
C479 H496 0.930 . S
C480 C478 1.384 . S
C480 C482 1.392 . S
C480 H497 0.931 . S
C481 C477 1.393 . S
C481 C482 1.401 . S
C481 H498 0.930 . S
C482 C480 1.392 . S
C482 C481 1.401 . S
C482 H499 0.930 . S
C483 O466 1.262 . S
C483 O467 1.260 . S
C484 Tb420 2.833 1_455 S
C484 O464 1.251 . S
C484 O469 1.256 . S
C484 C477 1.500 . S
C485 H450 0.929 . S
C485 C463 1.444 . S
C485 C486 1.317 . S
C486 H448 0.930 . S
C486 C454 1.432 . S
C486 C485 1.317 . S
C487 O471 1.283 . S
C487 O474 1.243 . S
C488 C489 1.382 . S
C488 C492 1.393 1_556 S
C488 C495 1.500 1_556 S
C489 C488 1.382 . S
C489 C490 1.400 . S
C489 H500 0.930 . S
C490 C489 1.400 . S
C490 C491 1.384 . S
C491 C490 1.384 . S
C491 C493 1.392 . S
C491 H501 0.931 . S
C492 C488 1.393 1_554 S
C492 C493 1.401 1_554 S
C492 H502 0.930 . S
C493 C491 1.392 . S
C493 C492 1.401 1_556 S
C493 H503 0.930 1_556 S
C494 O472 1.262 . S
C494 O473 1.260 . S
C495 Tb431 2.833 . S
C495 O470 1.251 . S
C495 O475 1.256 1_554 S
C495 C488 1.500 1_554 S
H496 C479 0.930 . S
H497 C480 0.931 . S
H498 C481 0.930 . S
H499 C482 0.930 . S
H500 C489 0.930 . S
H501 C491 0.931 . S
H502 C492 0.930 . S
H503 C493 0.930 1_554 S
Tb504 N535 2.660 . S
Tb504 N542 2.600 1_556 S
Tb504 O548 2.546 1_556 S
Tb504 O549 2.610 . S
Tb504 O551 2.320 . S
Tb504 O552 2.552 . S
Tb504 O553 2.413 . S
Tb504 O555 2.362 . S
Tb504 O556 2.421 1_556 S
Tb504 C568 2.833 . S
C505 C508 1.432 . S
C505 C509 1.414 . S
C505 N512 1.359 . S
C506 C508 1.417 . S
C506 C510 1.432 . S
C506 C518 1.410 . S
C507 C509 1.444 . S
C507 C510 1.317 . S
C507 H530 0.929 . S
C508 C505 1.432 . S
C508 C506 1.417 . S
C508 N516 1.360 . S
C509 C505 1.414 . S
C509 C507 1.444 . S
C509 C514 1.385 . S
C510 C506 1.432 . S
C510 C507 1.317 . S
C510 H522 0.930 . S
C511 C513 1.392 . S
C511 C514 1.370 . S
C511 H523 0.931 . S
N512 C505 1.359 . S
N512 C513 1.327 . S
N512 Tb515 2.600 . S
C513 C511 1.392 . S
C513 N512 1.327 . S
C513 H520 0.930 . S
C514 C509 1.385 . S
C514 C511 1.370 . S
C514 H533 0.930 . S
Tb515 N512 2.600 . S
Tb515 N516 2.660 . S
Tb515 O549 2.362 . S
Tb515 O550 2.421 . S
Tb515 O554 2.546 . S
Tb515 O555 2.610 . S
Tb515 O557 2.320 1_556 S
Tb515 O558 2.552 . S
Tb515 O559 2.413 . S
Tb515 C579 2.833 . S
N516 C508 1.360 . S
N516 Tb515 2.660 . S
N516 C517 1.305 1_556 S
C517 N516 1.305 1_554 S
C517 C519 1.407 . S
C517 H524 0.930 . S
C518 C506 1.410 . S
C518 C519 1.345 1_556 S
C518 H526 0.930 1_556 S
C519 C517 1.407 . S
C519 C518 1.345 1_554 S
C519 H521 0.930 . S
H520 C513 0.930 . S
H521 C519 0.930 . S
H522 C510 0.930 . S
H523 C511 0.931 . S
H524 C517 0.930 . S
H525 C539 0.930 . S
H526 C518 0.930 1_554 S
H527 C545 0.930 . S
H528 C536 0.930 . S
H529 C543 0.931 . S
H530 C507 0.929 . S
H531 C537 0.930 . S
H532 C570 0.930 . S
H533 C514 0.930 . S
H534 C569 0.929 . S
N535 Tb504 2.660 . S
N535 C536 1.305 . S
N535 C540 1.360 . S
C536 H528 0.930 . S
C536 N535 1.305 . S
C536 C539 1.407 . S
C537 H531 0.930 . S
C537 C538 1.410 . S
C537 C539 1.345 . S
C538 C537 1.410 . S
C538 C540 1.417 . S
C538 C570 1.432 1_556 S
C539 H525 0.930 . S
C539 C536 1.407 . S
C539 C537 1.345 . S
C540 N535 1.360 . S
C540 C538 1.417 . S
C540 C544 1.432 1_556 S
H541 C546 0.930 . S
N542 Tb504 2.600 1_554 S
N542 C544 1.359 . S
N542 C545 1.327 . S
C543 H529 0.931 . S
C543 C545 1.392 . S
C543 C546 1.370 . S
C544 C540 1.432 1_554 S
C544 N542 1.359 . S
C544 C547 1.414 . S
C545 H527 0.930 . S
C545 N542 1.327 . S
C545 C543 1.392 . S
C546 H541 0.930 . S
C546 C543 1.370 . S
C546 C547 1.385 . S
C547 C544 1.414 . S
C547 C546 1.385 . S
C547 C569 1.444 . S
O548 Tb504 2.546 1_554 S
O548 C568 1.251 1_554 S
O549 Tb504 2.610 . S
O549 Tb515 2.362 . S
O549 C560 1.283 . S
O550 Tb515 2.421 . S
O550 C567 1.262 . S
O551 Tb504 2.320 . S
O551 C567 1.260 . S
O552 Tb504 2.552 . S
O552 C560 1.243 . S
O553 Tb504 2.413 . S
O553 C568 1.256 . S
O554 Tb515 2.546 . S
O554 C579 1.251 . S
O555 Tb504 2.362 . S
O555 Tb515 2.610 . S
O555 C571 1.283 . S
O556 Tb504 2.421 1_554 S
O556 C578 1.262 . S
O557 Tb515 2.320 1_554 S
O557 C578 1.260 . S
O558 Tb515 2.552 . S
O558 C571 1.243 . S
O559 Tb515 2.413 . S
O559 C579 1.256 . S
C560 O549 1.283 . S
C560 O552 1.243 . S
C561 C563 1.382 . S
C561 C565 1.393 1_556 S
C561 C568 1.500 1_545 S
C562 C563 1.400 . S
C562 C564 1.384 . S
C563 C561 1.382 . S
C563 C562 1.400 . S
C563 H580 0.930 1_545 S
C564 C562 1.384 . S
C564 C566 1.392 1_556 S
C564 H581 0.931 . S
C565 C561 1.393 1_554 S
C565 C566 1.401 . S
C565 H582 0.930 . S
C566 C564 1.392 1_554 S
C566 C565 1.401 . S
C566 H583 0.930 . S
C567 O550 1.262 . S
C567 O551 1.260 . S
C568 Tb504 2.833 . S
C568 O548 1.251 1_556 S
C568 O553 1.256 . S
C568 C561 1.500 1_565 S
C569 H534 0.929 . S
C569 C547 1.444 . S
C569 C570 1.317 . S
C570 H532 0.930 . S
C570 C538 1.432 1_554 S
C570 C569 1.317 . S
C571 O555 1.283 . S
C571 O558 1.243 . S
C572 C573 1.382 . S
C572 C576 1.393 . S
C572 C579 1.500 . S
C573 C572 1.382 . S
C573 C574 1.400 . S
C573 H584 0.930 1_556 S
C574 C573 1.400 . S
C574 C575 1.384 . S
C575 C574 1.384 . S
C575 C577 1.392 . S
C575 H585 0.931 . S
C576 C572 1.393 . S
C576 C577 1.401 . S
C576 H586 0.930 . S
C577 C575 1.392 . S
C577 C576 1.401 . S
C577 H587 0.930 . S
C578 O556 1.262 . S
C578 O557 1.260 . S
C579 Tb515 2.833 . S
C579 O554 1.251 . S
C579 O559 1.256 . S
C579 C572 1.500 . S
H580 C563 0.930 1_565 S
H581 C564 0.931 . S
H582 C565 0.930 . S
H583 C566 0.930 . S
H584 C573 0.930 1_554 S
H585 C575 0.931 . S
H586 C576 0.930 . S
H587 C577 0.930 . S
Tb588 N619 2.660 1_556 S
Tb588 N626 2.600 . S
Tb588 O632 2.546 . S
Tb588 O633 2.610 . S
Tb588 O635 2.320 1_556 S
Tb588 O636 2.552 . S
Tb588 O637 2.413 1_556 S
Tb588 O639 2.362 1_556 S
Tb588 O640 2.421 . S
Tb588 C652 2.833 . S
C589 C592 1.432 1_554 S
C589 C593 1.414 . S
C589 N596 1.359 . S
C590 C592 1.417 . S
C590 C594 1.432 . S
C590 C602 1.410 . S
C591 C593 1.444 . S
C591 C594 1.317 1_554 S
C591 H614 0.929 . S
C592 C589 1.432 1_556 S
C592 C590 1.417 . S
C592 N600 1.360 . S
C593 C589 1.414 . S
C593 C591 1.444 . S
C593 C598 1.385 . S
C594 C590 1.432 . S
C594 C591 1.317 1_556 S
C594 H606 0.930 . S
C595 C597 1.392 . S
C595 C598 1.370 . S
C595 H607 0.931 . S
N596 C589 1.359 . S
N596 C597 1.327 . S
N596 Tb599 2.600 . S
C597 C595 1.392 . S
C597 N596 1.327 . S
C597 H604 0.930 . S
C598 C593 1.385 . S
C598 C595 1.370 . S
C598 H617 0.930 . S
Tb599 N596 2.600 . S
Tb599 N600 2.660 1_554 S
Tb599 O633 2.362 1_554 S
Tb599 O634 2.421 . S
Tb599 O638 2.546 . S
Tb599 O639 2.610 . S
Tb599 O641 2.320 1_554 S
Tb599 O642 2.552 . S
Tb599 O643 2.413 1_554 S
Tb599 C663 2.833 . S
N600 C592 1.360 . S
N600 Tb599 2.660 1_556 S
N600 C601 1.305 . S
C601 N600 1.305 . S
C601 C603 1.407 . S
C601 H608 0.930 . S
C602 C590 1.410 . S
C602 C603 1.345 . S
C602 H610 0.930 . S
C603 C601 1.407 . S
C603 C602 1.345 . S
C603 H605 0.930 . S
H604 C597 0.930 . S
H605 C603 0.930 . S
H606 C594 0.930 . S
H607 C595 0.931 . S
H608 C601 0.930 . S
H609 C623 0.930 . S
H610 C602 0.930 . S
H611 C629 0.930 . S
H612 C620 0.930 . S
H613 C627 0.931 . S
H614 C591 0.929 . S
H615 C621 0.930 . S
H616 C654 0.930 . S
H617 C598 0.930 . S
H618 C653 0.929 . S
N619 Tb588 2.660 1_554 S
N619 C620 1.305 . S
N619 C624 1.360 . S
C620 H612 0.930 . S
C620 N619 1.305 . S
C620 C623 1.407 . S
C621 H615 0.930 . S
C621 C622 1.410 . S
C621 C623 1.345 . S
C622 C621 1.410 . S
C622 C624 1.417 . S
C622 C654 1.432 . S
C623 H609 0.930 . S
C623 C620 1.407 . S
C623 C621 1.345 . S
C624 N619 1.360 . S
C624 C622 1.417 . S
C624 C628 1.432 1_554 S
H625 C630 0.930 . S
N626 Tb588 2.600 . S
N626 C628 1.359 . S
N626 C629 1.327 . S
C627 H613 0.931 . S
C627 C629 1.392 . S
C627 C630 1.370 . S
C628 C624 1.432 1_556 S
C628 N626 1.359 . S
C628 C631 1.414 . S
C629 H611 0.930 . S
C629 N626 1.327 . S
C629 C627 1.392 . S
C630 H625 0.930 . S
C630 C627 1.370 . S
C630 C631 1.385 . S
C631 C628 1.414 . S
C631 C630 1.385 . S
C631 C653 1.444 . S
O632 Tb588 2.546 . S
O632 C652 1.251 . S
O633 Tb588 2.610 . S
O633 Tb599 2.362 1_556 S
O633 C644 1.283 . S
O634 Tb599 2.421 . S
O634 C651 1.262 . S
O635 Tb588 2.320 1_554 S
O635 C651 1.260 . S
O636 Tb588 2.552 . S
O636 C644 1.243 . S
O637 Tb588 2.413 1_554 S
O637 C652 1.256 1_554 S
O638 Tb599 2.546 . S
O638 C663 1.251 . S
O639 Tb588 2.362 1_554 S
O639 Tb599 2.610 . S
O639 C655 1.283 . S
O640 Tb588 2.421 . S
O640 C662 1.262 . S
O641 Tb599 2.320 1_556 S
O641 C662 1.260 . S
O642 Tb599 2.552 . S
O642 C655 1.243 . S
O643 Tb599 2.413 1_556 S
O643 C663 1.256 1_556 S
C644 O633 1.283 . S
C644 O636 1.243 . S
C645 C647 1.382 1_556 S
C645 C649 1.393 . S
C645 C652 1.500 . S
C646 C647 1.400 . S
C646 C648 1.384 1_554 S
C647 C645 1.382 1_554 S
C647 C646 1.400 . S
C647 H664 0.930 . S
C648 C646 1.384 1_556 S
C648 C650 1.392 . S
C648 H665 0.931 . S
C649 C645 1.393 . S
C649 C650 1.401 . S
C649 H666 0.930 . S
C650 C648 1.392 . S
C650 C649 1.401 . S
C650 H667 0.930 . S
C651 O634 1.262 . S
C651 O635 1.260 . S
C652 Tb588 2.833 . S
C652 O632 1.251 . S
C652 O637 1.256 1_556 S
C652 C645 1.500 . S
C653 H618 0.929 . S
C653 C631 1.444 . S
C653 C654 1.317 1_556 S
C654 H616 0.930 . S
C654 C622 1.432 . S
C654 C653 1.317 1_554 S
C655 O639 1.283 . S
C655 O642 1.243 . S
C656 C657 1.382 1_554 S
C656 C660 1.393 . S
C656 C663 1.500 . S
C657 C656 1.382 1_556 S
C657 C658 1.400 . S
C657 H668 0.930 . S
C658 C657 1.400 . S
C658 C659 1.384 1_556 S
C659 C658 1.384 1_554 S
C659 C661 1.392 . S
C659 H669 0.931 . S
C660 C656 1.393 . S
C660 C661 1.401 . S
C660 H670 0.930 . S
C661 C659 1.392 . S
C661 C660 1.401 . S
C661 H671 0.930 . S
C662 O640 1.262 . S
C662 O641 1.260 . S
C663 Tb599 2.833 . S
C663 O638 1.251 . S
C663 O643 1.256 1_554 S
C663 C656 1.500 . S
H664 C647 0.930 . S
H665 C648 0.931 . S
H666 C649 0.930 . S
H667 C650 0.930 . S
H668 C657 0.930 . S
H669 C659 0.931 . S
H670 C660 0.930 . S
H671 C661 0.930 . S
Tb672 N703 2.660 . S
Tb672 N710 2.600 1_556 S
Tb672 O716 2.546 1_556 S
Tb672 O717 2.610 . S
Tb672 O719 2.320 . S
Tb672 O720 2.552 1_556 S
Tb672 O721 2.413 . S
Tb672 O723 2.362 . S
Tb672 O724 2.421 1_556 S
Tb672 C736 2.833 . S
C673 C676 1.432 1_556 S
C673 C677 1.414 . S
C673 N680 1.359 . S
C674 C676 1.417 . S
C674 C678 1.432 . S
C674 C686 1.410 . S
C675 C677 1.444 1_554 S
C675 C678 1.317 . S
C675 H698 0.929 1_554 S
C676 C673 1.432 1_554 S
C676 C674 1.417 . S
C676 N684 1.360 . S
C677 C673 1.414 . S
C677 C675 1.444 1_556 S
C677 C682 1.385 . S
C678 C674 1.432 . S
C678 C675 1.317 . S
C678 H690 0.930 . S
C679 C681 1.392 . S
C679 C682 1.370 . S
C679 H691 0.931 . S
N680 C673 1.359 . S
N680 C681 1.327 . S
N680 Tb683 2.600 . S
C681 C679 1.392 . S
C681 N680 1.327 . S
C681 H688 0.930 . S
C682 C677 1.385 . S
C682 C679 1.370 . S
C682 H701 0.930 . S
Tb683 N680 2.600 . S
Tb683 N684 2.660 1_556 S
Tb683 O717 2.362 . S
Tb683 O718 2.421 . S
Tb683 O722 2.546 . S
Tb683 O723 2.610 . S
Tb683 O725 2.320 1_556 S
Tb683 O726 2.552 . S
Tb683 O727 2.413 1_556 S
Tb683 C747 2.833 1_556 S
N684 C676 1.360 . S
N684 Tb683 2.660 1_554 S
N684 C685 1.305 . S
C685 N684 1.305 . S
C685 C687 1.407 . S
C685 H692 0.930 . S
C686 C674 1.410 . S
C686 C687 1.345 . S
C686 H694 0.930 . S
C687 C685 1.407 . S
C687 C686 1.345 . S
C687 H689 0.930 . S
H688 C681 0.930 . S
H689 C687 0.930 . S
H690 C678 0.930 . S
H691 C679 0.931 . S
H692 C685 0.930 . S
H693 C707 0.930 . S
H694 C686 0.930 . S
H695 C713 0.930 . S
H696 C704 0.930 . S
H697 C711 0.931 . S
H698 C675 0.929 1_556 S
H699 C705 0.930 . S
H700 C738 0.930 . S
H701 C682 0.930 . S
H702 C737 0.929 . S
N703 Tb672 2.660 . S
N703 C704 1.305 . S
N703 C708 1.360 . S
C704 H696 0.930 . S
C704 N703 1.305 . S
C704 C707 1.407 . S
C705 H699 0.930 . S
C705 C706 1.410 . S
C705 C707 1.345 . S
C706 C705 1.410 . S
C706 C708 1.417 . S
C706 C738 1.432 . S
C707 H693 0.930 . S
C707 C704 1.407 . S
C707 C705 1.345 . S
C708 N703 1.360 . S
C708 C706 1.417 . S
C708 C712 1.432 . S
H709 C714 0.930 . S
N710 Tb672 2.600 1_554 S
N710 C712 1.359 1_554 S
N710 C713 1.327 . S
C711 H697 0.931 . S
C711 C713 1.392 . S
C711 C714 1.370 . S
C712 C708 1.432 . S
C712 N710 1.359 1_556 S
C712 C715 1.414 1_556 S
C713 H695 0.930 . S
C713 N710 1.327 . S
C713 C711 1.392 . S
C714 H709 0.930 . S
C714 C711 1.370 . S
C714 C715 1.385 . S
C715 C712 1.414 1_554 S
C715 C714 1.385 . S
C715 C737 1.444 1_554 S
O716 Tb672 2.546 1_554 S
O716 C736 1.251 1_554 S
O717 Tb672 2.610 . S
O717 Tb683 2.362 . S
O717 C728 1.283 1_556 S
O718 Tb683 2.421 . S
O718 C735 1.262 . S
O719 Tb672 2.320 . S
O719 C735 1.260 . S
O720 Tb672 2.552 1_554 S
O720 C728 1.243 . S
O721 Tb672 2.413 . S
O721 C736 1.256 . S
O722 Tb683 2.546 . S
O722 C747 1.251 1_556 S
O723 Tb672 2.362 . S
O723 Tb683 2.610 . S
O723 C739 1.283 . S
O724 Tb672 2.421 1_554 S
O724 C746 1.262 . S
O725 Tb683 2.320 1_554 S
O725 C746 1.260 . S
O726 Tb683 2.552 . S
O726 C739 1.243 . S
O727 Tb683 2.413 1_554 S
O727 C747 1.256 . S
C728 O717 1.283 1_554 S
C728 O720 1.243 . S
C729 C731 1.382 . S
C729 C733 1.393 . S
C729 C736 1.500 . S
C730 C731 1.400 . S
C730 C732 1.384 . S
C731 C729 1.382 . S
C731 C730 1.400 . S
C731 H748 0.930 . S
C732 C730 1.384 . S
C732 C734 1.392 . S
C732 H749 0.931 . S
C733 C729 1.393 . S
C733 C734 1.401 . S
C733 H750 0.930 1_556 S
C734 C732 1.392 . S
C734 C733 1.401 . S
C734 H751 0.930 1_556 S
C735 O718 1.262 . S
C735 O719 1.260 . S
C736 Tb672 2.833 . S
C736 O716 1.251 1_556 S
C736 O721 1.256 . S
C736 C729 1.500 . S
C737 H702 0.929 . S
C737 C715 1.444 1_556 S
C737 C738 1.317 . S
C738 H700 0.930 . S
C738 C706 1.432 . S
C738 C737 1.317 . S
C739 O723 1.283 . S
C739 O726 1.243 . S
C740 C741 1.382 . S
C740 C744 1.393 1_554 S
C740 C747 1.500 . S
C741 C740 1.382 . S
C741 C742 1.400 . S
C741 H752 0.930 . S
C742 C741 1.400 . S
C742 C743 1.384 . S
C743 C742 1.384 . S
C743 C745 1.392 . S
C743 H753 0.931 . S
C744 C740 1.393 1_556 S
C744 C745 1.401 1_556 S
C744 H754 0.930 . S
C745 C743 1.392 . S
C745 C744 1.401 1_554 S
C745 H755 0.930 1_554 S
C746 O724 1.262 . S
C746 O725 1.260 . S
C747 Tb683 2.833 1_554 S
C747 O722 1.251 1_554 S
C747 O727 1.256 . S
C747 C740 1.500 . S
H748 C731 0.930 . S
H749 C732 0.931 . S
H750 C733 0.930 1_554 S
H751 C734 0.930 1_554 S
H752 C741 0.930 . S
H753 C743 0.931 . S
H754 C744 0.930 . S
H755 C745 0.930 1_556 S
C756 C757 1.387 . S
C756 H760 0.950 . S
C756 C765 1.390 . S
C757 C756 1.387 . S
C757 C759 1.387 . S
H758 C765 0.950 . S
C759 C757 1.387 . S
C759 C761 1.390 . S
C759 H763 0.950 1_554 S
H760 C756 0.950 . S
C761 C759 1.390 . S
C761 C762 1.387 . S
C761 H764 0.950 1_554 S
C762 C761 1.387 . S
C762 C765 1.387 . S
H763 C759 0.950 1_556 S
H764 C761 0.950 1_556 S
C765 C756 1.390 . S
C765 H758 0.950 . S
C765 C762 1.387 . S
C766 C767 1.387 . S
C766 H770 0.950 . S
C766 C775 1.390 1_554 S
C767 C766 1.387 . S
C767 C769 1.387 . S
H768 C775 0.950 . S
C769 C767 1.387 . S
C769 C771 1.390 . S
C769 H773 0.950 . S
H770 C766 0.950 . S
C771 C769 1.390 . S
C771 C772 1.387 . S
C771 H774 0.950 . S
C772 C771 1.387 . S
C772 C775 1.387 1_554 S
H773 C769 0.950 . S
H774 C771 0.950 . S
C775 C766 1.390 1_556 S
C775 H768 0.950 . S
C775 C772 1.387 1_556 S
C776 C777 1.387 . S
C776 H780 0.950 1_556 S
C776 C785 1.390 . S
C777 C776 1.387 . S
C777 C779 1.387 . S
H778 C785 0.950 1_554 S
C779 C777 1.387 . S
C779 C781 1.390 . S
C779 H783 0.950 . S
H780 C776 0.950 1_554 S
C781 C779 1.390 . S
C781 C782 1.387 . S
C781 H784 0.950 . S
C782 C781 1.387 . S
C782 C785 1.387 . S
H783 C779 0.950 . S
H784 C781 0.950 . S
C785 C776 1.390 . S
C785 H778 0.950 1_556 S
C785 C782 1.387 . S
C786 C787 1.387 . S
C786 H790 0.950 . S
C786 C795 1.390 . S
C787 C786 1.387 . S
C787 C789 1.387 1_554 S
H788 C795 0.950 . S
C789 C787 1.387 1_556 S
C789 C791 1.390 . S
C789 H793 0.950 . S
H790 C786 0.950 . S
C791 C789 1.390 . S
C791 C792 1.387 1_556 S
C791 H794 0.950 . S
C792 C791 1.387 1_554 S
C792 C795 1.387 . S
H793 C789 0.950 . S
H794 C791 0.950 . S
C795 C786 1.390 . S
C795 H788 0.950 . S
C795 C792 1.387 . S
C796 C797 1.387 . S
C796 H800 0.950 . S
C796 C805 1.390 . S
C797 C796 1.387 . S
C797 C799 1.387 . S
H798 C805 0.950 . S
C799 C797 1.387 . S
C799 C801 1.390 . S
C799 H803 0.950 . S
H800 C796 0.950 . S
C801 C799 1.390 . S
C801 C802 1.387 . S
C801 H804 0.950 . S
C802 C801 1.387 . S
C802 C805 1.387 . S
H803 C799 0.950 . S
H804 C801 0.950 . S
C805 C796 1.390 . S
C805 H798 0.950 . S
C805 C802 1.387 . S
C806 C807 1.387 . S
C806 H810 0.950 . S
C806 C815 1.390 . S
C807 C806 1.387 . S
C807 C809 1.387 . S
H808 C815 0.950 . S
C809 C807 1.387 . S
C809 C811 1.390 . S
C809 H813 0.950 . S
H810 C806 0.950 . S
C811 C809 1.390 . S
C811 C812 1.387 . S
C811 H814 0.950 . S
C812 C811 1.387 . S
C812 C815 1.387 . S
H813 C809 0.950 . S
H814 C811 0.950 . S
C815 C806 1.390 . S
C815 H808 0.950 . S
C815 C812 1.387 . S
C816 C817 1.387 . S
C816 H820 0.950 . S
C816 C825 1.390 . S
C817 C816 1.387 . S
C817 C819 1.387 . S
H818 C825 0.950 . S
C819 C817 1.387 . S
C819 C821 1.390 . S
C819 H823 0.950 . S
H820 C816 0.950 . S
C821 C819 1.390 . S
C821 C822 1.387 . S
C821 H824 0.950 . S
C822 C821 1.387 . S
C822 C825 1.387 . S
H823 C819 0.950 . S
H824 C821 0.950 . S
C825 C816 1.390 . S
C825 H818 0.950 . S
C825 C822 1.387 . S
C826 C827 1.387 . S
C826 H830 0.950 . S
C826 C835 1.390 . S
C827 C826 1.387 . S
C827 C829 1.387 . S
H828 C835 0.950 . S
C829 C827 1.387 . S
C829 C831 1.390 . S
C829 H833 0.950 . S
H830 C826 0.950 . S
C831 C829 1.390 . S
C831 C832 1.387 . S
C831 H834 0.950 . S
C832 C831 1.387 . S
C832 C835 1.387 . S
H833 C829 0.950 . S
H834 C831 0.950 . S
C835 C826 1.390 . S
C835 H828 0.950 . S
C835 C832 1.387 . S
C836 C837 1.387 . S
C836 H840 0.950 1_545 S
C836 C845 1.390 . S
C837 C836 1.387 . S
C837 C839 1.387 . S
H838 C845 0.977 . S
C839 C837 1.387 . S
C839 C841 1.390 . S
C839 H843 0.950 . S
H840 C836 0.950 1_565 S
C841 C839 1.390 . S
C841 C842 1.387 . S
C841 H844 0.950 . S
C842 C841 1.387 . S
C842 C845 1.387 . S
H843 C839 0.950 . S
H844 C841 0.950 . S
C845 C836 1.390 . S
C845 H838 0.977 . S
C845 C842 1.387 . S
C846 C847 1.387 . S
C846 H850 0.950 . S
C846 C855 1.390 . S
C847 C846 1.387 . S
C847 C849 1.387 . S
H848 C855 0.950 . S
C849 C847 1.387 . S
C849 C851 1.390 . S
C849 H853 0.950 . S
H850 C846 0.950 . S
C851 C849 1.390 . S
C851 C852 1.387 . S
C851 H854 0.950 . S
C852 C851 1.387 . S
C852 C855 1.387 . S
H853 C849 0.950 . S
H854 C851 0.950 . S
C855 C846 1.390 . S
C855 H848 0.950 . S
C855 C852 1.387 . S
C856 C857 1.387 . S
C856 H860 0.950 . S
C856 C865 1.390 1_565 S
C857 C856 1.387 . S
C857 C859 1.387 . S
H858 C865 0.950 . S
C859 C857 1.387 . S
C859 C861 1.390 1_565 S
C859 H863 0.950 1_554 S
H860 C856 0.950 . S
C861 C859 1.390 1_545 S
C861 C862 1.387 . S
C861 H864 0.950 . S
C862 C861 1.387 . S
C862 C865 1.387 . S
H863 C859 0.950 1_556 S
H864 C861 0.950 . S
C865 C856 1.390 1_545 S
C865 H858 0.950 . S
C865 C862 1.387 . S
C866 C867 1.387 . S
C866 H870 0.950 1_454 S
C866 C875 1.390 . S
C867 C866 1.387 . S
C867 C869 1.387 . S
H868 C875 0.950 1_556 S
C869 C867 1.387 . S
C869 C871 1.390 . S
C869 H873 0.950 . S
H870 C866 0.950 1_656 S
C871 C869 1.390 . S
C871 C872 1.387 . S
C871 H874 0.950 . S
C872 C871 1.387 . S
C872 C875 1.387 . S
H873 C869 0.950 . S
H874 C871 0.950 . S
C875 C866 1.390 . S
C875 H868 0.950 1_554 S
C875 C872 1.387 . S
C876 C877 1.387 . S
C876 H880 0.950 . S
C876 C885 1.390 . S
C877 C876 1.387 . S
C877 C879 1.387 1_556 S
H878 C885 0.950 . S
C879 C877 1.387 1_554 S
C879 C881 1.390 . S
C879 H883 0.950 . S
H880 C876 0.950 . S
C881 C879 1.390 . S
C881 C882 1.387 . S
C881 H884 0.950 . S
C882 C881 1.387 . S
C882 C885 1.387 1_554 S
H883 C879 0.950 . S
H884 C881 0.950 . S
C885 C876 1.390 . S
C885 H878 0.950 . S
C885 C882 1.387 1_556 S
C886 C887 1.387 . S
C886 H890 0.950 . S
C886 C895 1.390 . S
C887 C886 1.387 . S
C887 C889 1.387 1_556 S
H888 C895 0.950 . S
C889 C887 1.387 1_554 S
C889 C891 1.390 . S
C889 H893 0.950 . S
H890 C886 0.950 . S
C891 C889 1.390 . S
C891 C892 1.387 1_554 S
C891 H894 0.950 . S
C892 C891 1.387 1_556 S
C892 C895 1.387 . S
H893 C889 0.950 . S
H894 C891 0.950 . S
C895 C886 1.390 . S
C895 H888 0.950 . S
C895 C892 1.387 . S
C896 C897 1.387 . S
C896 H900 0.950 1_556 S
C896 C905 1.390 . S
C897 C896 1.387 . S
C897 C899 1.387 . S
H898 C905 0.950 . S
C899 C897 1.387 . S
C899 C901 1.390 . S
C899 H903 0.950 . S
H900 C896 0.950 1_554 S
C901 C899 1.390 . S
C901 C902 1.387 . S
C901 H904 0.950 . S
C902 C901 1.387 . S
C902 C905 1.387 . S
H903 C899 0.950 . S
H904 C901 0.950 . S
C905 C896 1.390 . S
C905 H898 0.950 . S
C905 C902 1.387 . S
C906 C907 1.387 . S
C906 H910 0.950 . S
C906 C915 1.390 . S
C907 C906 1.387 . S
C907 C909 1.387 . S
H908 C915 0.950 . S
C909 C907 1.387 . S
C909 C911 1.390 1_554 S
C909 H913 0.950 . S
H910 C906 0.950 . S
C911 C909 1.390 1_556 S
C911 C912 1.387 1_556 S
C911 H914 0.950 . S
C912 C911 1.387 1_554 S
C912 C915 1.387 . S
H913 C909 0.950 . S
H914 C911 0.950 . S
C915 C906 1.390 . S
C915 H908 0.950 . S
C915 C912 1.387 . S
C916 C917 1.387 . S
C916 H920 0.950 . S
C916 C925 1.389 1_556 S
C917 C916 1.387 . S
C917 C919 1.387 . S
H918 C925 0.949 . S
C919 C917 1.387 . S
C919 C921 1.390 . S
C919 H923 0.950 . S
H920 C916 0.950 . S
C921 C919 1.390 . S
C921 C922 1.388 1_556 S
C921 H924 0.950 . S
C922 C921 1.388 1_554 S
C922 C925 1.388 . S
H923 C919 0.950 . S
H924 C921 0.950 . S
C925 C916 1.389 1_554 S
C925 H918 0.949 . S
C925 C922 1.388 . S
C926 C927 1.387 1_554 S
C926 H930 0.950 . S
C926 C935 1.390 . S
C927 C926 1.387 1_556 S
C927 C929 1.387 . S
H928 C935 0.950 . S
C929 C927 1.387 . S
C929 C931 1.390 . S
C929 H933 0.950 . S
H930 C926 0.950 . S
C931 C929 1.390 . S
C931 C932 1.387 1_556 S
C931 H934 0.950 . S
C932 C931 1.387 1_554 S
C932 C935 1.387 . S
H933 C929 0.950 . S
H934 C931 0.950 . S
C935 C926 1.390 . S
C935 H928 0.950 . S
C935 C932 1.387 . S
C936 C937 1.387 . S
C936 H940 0.950 . S
C936 C945 1.390 . S
C937 C936 1.387 . S
C937 C939 1.387 . S
H938 C945 0.950 . S
C939 C937 1.387 . S
C939 C941 1.390 . S
C939 H943 0.950 1_455 S
H940 C936 0.950 . S
C941 C939 1.390 . S
C941 C942 1.387 . S
C941 H944 0.950 1_455 S
C942 C941 1.387 . S
C942 C945 1.387 . S
H943 C939 0.950 1_655 S
H944 C941 0.950 1_655 S
C945 C936 1.390 . S
C945 H938 0.950 . S
C945 C942 1.387 . S
C946 C947 1.387 . S
C946 H950 0.950 . S
C946 C955 1.390 . S
C947 C946 1.387 . S
C947 C949 1.387 . S
H948 C955 0.950 . S
C949 C947 1.387 . S
C949 C951 1.390 . S
C949 H953 0.950 . S
H950 C946 0.950 . S
C951 C949 1.390 . S
C951 C952 1.387 . S
C951 H954 0.950 . S
C952 C951 1.387 . S
C952 C955 1.387 . S
H953 C949 0.950 . S
H954 C951 0.950 . S
C955 C946 1.390 . S
C955 H948 0.950 . S
C955 C952 1.387 . S
C956 C957 1.377 . S
C956 H960 0.950 . S
C956 C965 1.390 . S
C957 C956 1.377 . S
C957 C959 1.385 1_565 S
H958 C965 0.950 . S
C959 C957 1.385 1_545 S
C959 C961 1.390 . S
C959 H963 0.950 . S
H960 C956 0.950 . S
C961 C959 1.390 . S
C961 C962 1.387 . S
C961 H964 0.950 . S
C962 C961 1.387 . S
C962 C965 1.387 1_545 S
H963 C959 0.950 . S
H964 C961 0.950 . S
C965 C956 1.390 . S
C965 H958 0.950 . S
C965 C962 1.387 1_565 S
C966 C967 1.387 . S
C966 H970 0.950 . S
C966 C975 1.390 . S
C967 C966 1.387 . S
C967 C969 1.387 . S
H968 C975 0.950 . S
C969 C967 1.387 . S
C969 C971 1.390 . S
C969 H973 0.950 . S
H970 C966 0.950 . S
C971 C969 1.390 . S
C971 C972 1.387 . S
C971 H974 0.950 . S
C972 C971 1.387 . S
C972 C975 1.387 . S
H973 C969 0.950 . S
H974 C971 0.950 . S
C975 C966 1.390 . S
C975 H968 0.950 . S
C975 C972 1.387 . S
C976 C977 1.387 . S
C976 H980 0.950 . S
C976 C985 1.390 . S
C977 C976 1.387 . S
C977 C979 1.387 . S
H978 C985 0.950 . S
C979 C977 1.387 . S
C979 C981 1.390 . S
C979 H983 0.950 . S
H980 C976 0.950 . S
C981 C979 1.390 . S
C981 C982 1.387 . S
C981 H984 0.950 . S
C982 C981 1.387 . S
C982 C985 1.387 . S
H983 C979 0.950 . S
H984 C981 0.950 . S
C985 C976 1.390 . S
C985 H978 0.950 . S
C985 C982 1.387 . S
C986 C987 1.387 . S
C986 H990 0.950 . S
C986 C995 1.390 . S
C987 C986 1.387 . S
C987 C989 1.387 . S
H988 C995 0.950 . S
C989 C987 1.387 . S
C989 C991 1.390 . S
C989 H993 0.950 . S
H990 C986 0.950 . S
C991 C989 1.390 . S
C991 C992 1.387 . S
C991 H994 0.950 . S
C992 C991 1.387 . S
C992 C995 1.387 . S
H993 C989 0.950 . S
H994 C991 0.950 . S
C995 C986 1.390 . S
C995 H988 0.950 . S
C995 C992 1.387 . S
C996 C997 1.387 . S
C996 H1000 0.950 . S
C996 C1005 1.390 . S
C997 C996 1.387 . S
C997 C999 1.387 . S
H998 C1005 0.950 . S
C999 C997 1.387 . S
C999 C1001 1.390 . S
C999 H1003 0.950 . S
H1000 C996 0.950 . S
C1001 C999 1.390 . S
C1001 C1002 1.387 . S
C1001 H1004 0.950 . S
C1002 C1001 1.387 . S
C1002 C1005 1.387 . S
H1003 C999 0.950 . S
H1004 C1001 0.950 . S
C1005 C996 1.390 . S
C1005 H998 0.950 . S
C1005 C1002 1.387 . S
C1006 C1007 1.387 . S
C1006 H1010 0.950 . S
C1006 C1015 1.390 . S
C1007 C1006 1.387 . S
C1007 C1009 1.387 . S
H1008 C1015 0.950 . S
C1009 C1007 1.387 . S
C1009 C1011 1.390 . S
C1009 H1013 0.950 . S
H1010 C1006 0.950 . S
C1011 C1009 1.390 . S
C1011 C1012 1.387 . S
C1011 H1014 0.950 . S
C1012 C1011 1.387 . S
C1012 C1015 1.387 . S
H1013 C1009 0.950 . S
H1014 C1011 0.950 . S
C1015 C1006 1.390 . S
C1015 H1008 0.950 . S
C1015 C1012 1.387 . S
C1016 C1017 1.387 . S
C1016 H1020 0.950 . S
C1016 C1025 1.390 . S
C1017 C1016 1.387 . S
C1017 C1019 1.387 . S
H1018 C1025 0.950 . S
C1019 C1017 1.387 . S
C1019 C1021 1.390 . S
C1019 H1023 0.950 . S
H1020 C1016 0.950 . S
C1021 C1019 1.390 . S
C1021 C1022 1.387 . S
C1021 H1024 0.950 . S
C1022 C1021 1.387 . S
C1022 C1025 1.387 . S
H1023 C1019 0.950 . S
H1024 C1021 0.950 . S
C1025 C1016 1.390 . S
C1025 H1018 0.950 . S
C1025 C1022 1.387 . S
C757 C58 1.321 . S
C762 C646 1.527 . S
C767 C140 2.331 . S
C772 C728 2.153 . S
C777 C226 1.256 . S
C782 C560 1.488 . S
C787 C392 2.449 1_554 S
C792 C224 2.574 . S
C797 C476 2.413 . S
C802 C56 2.298 1_655 S
C807 C142 1.982 . S
C812 C308 2.160 . S
C817 C644 1.648 . S
C822 C478 1.692 . S
C827 C730 1.629 . S
C832 C310 1.788 . S
C837 C394 2.514 . S
C842 C562 2.720 . S
C847 C238 1.493 . S
C852 C67 1.823 . S
C857 C154 1.228 . S
C862 C70 1.531 . S
C867 C151 3.025 1_455 S
C872 C235 3.247 . S
C877 C322 1.746 . S
C882 C487 2.313 . S
C887 C319 2.116 1_556 S
C892 C406 1.804 . S
C897 C403 2.324 1_556 S
C902 C490 1.644 . S
C907 C742 1.817 . S
C912 C571 2.429 1_554 S
C917 C658 0.773 . S
C922 C574 0.992 1_554 S
C927 C739 2.149 . S
C932 C655 1.961 . S
C937 C63 1.415 . S
C942 C74 1.415 . S
C947 C158 1.403 . S
C952 C147 1.403 . S
C957 C231 1.480 . S
C962 C242 1.472 . S
C967 C315 1.507 . S
C972 C326 1.507 . S
C977 C399 1.388 . S
C982 C410 1.388 . S
C987 C483 1.479 . S
C992 C494 1.479 . S
C997 C567 1.425 . S
C1002 C578 1.425 . S
C1007 C651 1.395 . S
C1012 C662 1.395 . S
C1017 C735 1.400 . S
C1022 C746 1.400 . S
