# Generated by pormake.
# Topology bor-e, (5)-cn, num edge types: 1
# Building blocks:
#     Node 0, Type 0, BuildingBlock: BEQFEK_clean_sbu_0, # of connection points: 5
#     Node 1, Type 0, BuildingBlock: BEQFEK_clean_sbu_0, # of connection points: 5
#     Node 2, Type 0, BuildingBlock: BEQFEK_clean_sbu_0, # of connection points: 5
#     Node 3, Type 0, BuildingBlock: BEQFEK_clean_sbu_0, # of connection points: 5
#     Node 4, Type 0, BuildingBlock: BEQFEK_clean_sbu_0, # of connection points: 5
#     Node 5, Type 0, BuildingBlock: BEQFEK_clean_sbu_0, # of connection points: 5
#     Node 6, Type 0, BuildingBlock: BEQFEK_clean_sbu_0, # of connection points: 5
#     Node 7, Type 0, BuildingBlock: BEQFEK_clean_sbu_0, # of connection points: 5
#     Node 8, Type 0, BuildingBlock: BEQFEK_clean_sbu_0, # of connection points: 5
#     Node 9, Type 0, BuildingBlock: BEQFEK_clean_sbu_0, # of connection points: 5
#     Node 10, Type 0, BuildingBlock: BEQFEK_clean_sbu_0, # of connection points: 5
#     Node 11, Type 0, BuildingBlock: BEQFEK_clean_sbu_0, # of connection points: 5
#     Edge 12, Type (0, 0), None
#     Edge 13, Type (0, 0), None
#     Edge 14, Type (0, 0), None
#     Edge 15, Type (0, 0), None
#     Edge 16, Type (0, 0), None
#     Edge 17, Type (0, 0), None
#     Edge 18, Type (0, 0), None
#     Edge 19, Type (0, 0), None
#     Edge 20, Type (0, 0), None
#     Edge 21, Type (0, 0), None
#     Edge 22, Type (0, 0), None
#     Edge 23, Type (0, 0), None
#     Edge 24, Type (0, 0), None
#     Edge 25, Type (0, 0), None
#     Edge 26, Type (0, 0), None
#     Edge 27, Type (0, 0), None
#     Edge 28, Type (0, 0), None
#     Edge 29, Type (0, 0), None
#     Edge 30, Type (0, 0), None
#     Edge 31, Type (0, 0), None
#     Edge 32, Type (0, 0), None
#     Edge 33, Type (0, 0), None
#     Edge 34, Type (0, 0), None
#     Edge 35, Type (0, 0), None
#     Edge 36, Type (0, 0), None
#     Edge 37, Type (0, 0), None
#     Edge 38, Type (0, 0), None
#     Edge 39, Type (0, 0), None
#     Edge 40, Type (0, 0), None
#     Edge 41, Type (0, 0), None
# Relax obj value: 0.650
# Max RMSD: 0.291
# Mean RMSD: 0.291
data_MOF--net-bor-e--node1-BEQFEK_clean_sbu_0--edge1-none
_symmetry_space_group_name_H-M    P1
_symmetry_Int_Tables_number       1
_symmetry_cell_setting            triclinic
loop_
_symmetry_equiv_pos_as_xyz
'x, y, z'
_cell_length_a     23.262227
_cell_length_b     23.26418
_cell_length_c     23.261453
_cell_angle_alpha  90.000485
_cell_angle_beta   89.999081
_cell_angle_gamma 89.992576
loop_
_atom_site_label
_atom_site_type_symbol
_atom_site_fract_x
_atom_site_fract_y
_atom_site_fract_z
_atom_type_partial_charge
Co0 Co 0.11734 0.10805 0.55704 0.0
Co1 Co 0.0471 0.15005 0.65664 0.0
C2 C 0.029 0.18632 0.53161 0.0
O3 O 0.08029 0.17383 0.51927 0.0
O4 O 0.01107 0.17702 0.58233 0.0
C5 C 0.18073 0.02911 0.48472 0.0
O6 O 0.20105 0.01617 0.43398 0.0
C7 C 0.06998 0.25258 0.72158 0.0
C8 C 0.00962 0.24905 0.79411 0.0
C9 C 0.05703 0.2789 0.77319 0.0
N10 N 0.03292 0.20881 0.71276 0.0
N11 N 0.99578 0.2079 0.75565 0.0
C12 C 0.12151 0.26417 0.68494 0.0
H13 H 0.11569 0.24557 0.64141 0.0
H14 H 0.16012 0.24509 0.70549 0.0
H15 H 0.12886 0.31102 0.68105 0.0
C16 C 0.21253 0.1077 0.64185 0.0
N17 N 0.16159 0.12776 0.62202 0.0
N18 N 0.12671 0.13437 0.6657 0.0
C19 C 0.15246 0.11509 0.7138 0.0
C20 C 0.20744 0.09666 0.70053 0.0
C21 C 0.26509 0.09945 0.6056 0.0
H22 H 0.25393 0.09729 0.55937 0.0
H23 H 0.29363 0.13717 0.61147 0.0
H24 H 0.28932 0.06069 0.61933 0.0
O25 O 0.05804 0.04649 0.58204 0.0
O26 O 0.01326 0.07233 0.66363 0.0
H27 H 0.1044 0.06092 0.7702 0.0
H28 H 0.15216 0.11 0.80625 0.0
C29 C 0.1219 0.10529 0.76964 0.0
H30 H 0.08568 0.13541 0.77507 0.0
H31 H 0.96406 0.17664 0.76093 0.0
O32 O 0.16281 0.0796 0.49298 0.0
C33 C 0.02315 0.03562 0.62363 0.0
Co34 Co 0.11729 0.90751 0.45862 0.0
Co35 Co 0.04707 0.86552 0.35901 0.0
C36 C 0.02898 0.82923 0.48403 0.0
O37 O 0.08028 0.84171 0.49636 0.0
O38 O 0.01105 0.83853 0.43332 0.0
C39 C 0.18068 0.98646 0.53097 0.0
O40 O 0.20088 0.99941 0.58175 0.0
C41 C 0.0703 0.76305 0.29398 0.0
C42 C 0.00977 0.7663 0.22158 0.0
C43 C 0.0573 0.73661 0.24245 0.0
N44 N 0.03311 0.80671 0.30285 0.0
N45 N 0.99588 0.80746 0.26003 0.0
C46 C 0.12194 0.7516 0.33052 0.0
H47 H 0.11601 0.76994 0.37415 0.0
H48 H 0.16038 0.77108 0.31005 0.0
H49 H 0.12964 0.70478 0.33411 0.0
C50 C 0.21247 0.90795 0.37383 0.0
N51 N 0.16156 0.88781 0.39365 0.0
N52 N 0.12662 0.88137 0.35 0.0
C53 C 0.15226 0.90091 0.30196 0.0
C54 C 0.20727 0.91924 0.3152 0.0
C55 C 0.26507 0.91602 0.41005 0.0
H56 H 0.25393 0.91826 0.45628 0.0
H57 H 0.29344 0.87815 0.40422 0.0
H58 H 0.28946 0.95466 0.39629 0.0
O59 O 0.05797 0.96905 0.43359 0.0
O60 O 0.01315 0.94321 0.35201 0.0
H61 H 0.10669 0.95616 0.2445 0.0
H62 H 0.15127 0.90355 0.20952 0.0
C63 C 0.12162 0.91089 0.2462 0.0
H64 H 0.08366 0.88278 0.24194 0.0
H65 H 0.96402 0.8386 0.2548 0.0
O66 O 0.16271 0.93599 0.52271 0.0
C67 C 0.02305 0.97992 0.39201 0.0
Co68 Co 0.89834 0.90749 0.55706 0.0
Co69 Co 0.96859 0.86548 0.65665 0.0
C70 C 0.98663 0.8292 0.53162 0.0
O71 O 0.93533 0.84169 0.51928 0.0
O72 O 1.00459 0.8385 0.58232 0.0
C73 C 0.835 0.98649 0.48475 0.0
O74 O 0.81476 0.99947 0.434 0.0
C75 C 0.9456 0.76297 0.72159 0.0
C76 C 1.00602 0.76638 0.79407 0.0
C77 C 0.95856 0.73659 0.77316 0.0
N78 N 0.9827 0.80669 0.71275 0.0
N79 N 0.01988 0.80753 0.75562 0.0
C80 C 0.89402 0.75144 0.68498 0.0
H81 H 0.89987 0.77 0.64143 0.0
H82 H 0.85547 0.77063 0.70552 0.0
H83 H 0.88657 0.70461 0.68115 0.0
C84 C 0.80316 0.90788 0.64189 0.0
N85 N 0.8541 0.88781 0.62205 0.0
N86 N 0.889 0.88124 0.66571 0.0
C87 C 0.86328 0.90058 0.7138 0.0
C88 C 0.80829 0.91897 0.70056 0.0
C89 C 0.7506 0.91613 0.60565 0.0
H90 H 0.76175 0.91831 0.55942 0.0
H91 H 0.72208 0.87838 0.6115 0.0
H92 H 0.72635 0.95487 0.6194 0.0
O93 O 0.95768 0.96902 0.58205 0.0
O94 O 1.00248 0.94318 0.66364 0.0
H95 H 0.91053 0.95511 0.77055 0.0
H96 H 0.86379 0.90486 0.80626 0.0
C97 C 0.89387 0.91042 0.76962 0.0
H98 H 0.93067 0.88095 0.77466 0.0
H99 H 0.05165 0.83875 0.76088 0.0
O100 O 0.85291 0.93599 0.493 0.0
C101 C 0.9926 0.97988 0.62363 0.0
Co102 Co 0.89831 0.10811 0.45866 0.0
Co103 Co 0.96851 0.15009 0.35903 0.0
C104 C 0.98663 0.18637 0.48404 0.0
O105 O 0.93533 0.1739 0.4964 0.0
O106 O 1.00457 0.17706 0.43332 0.0
C107 C 0.83502 0.02912 0.53102 0.0
O108 O 0.81486 0.01613 0.58181 0.0
C109 C 0.94537 0.25258 0.29403 0.0
C110 C 1.00586 0.24926 0.2216 0.0
C111 C 0.95836 0.27899 0.24249 0.0
N112 N 0.98252 0.20889 0.30289 0.0
N113 N 0.01973 0.2081 0.26005 0.0
C114 C 0.89376 0.26408 0.33061 0.0
H115 H 0.89967 0.24569 0.37422 0.0
H116 H 0.85528 0.24468 0.31014 0.0
H117 H 0.88614 0.3109 0.33424 0.0
C118 C 0.80311 0.10768 0.37389 0.0
N119 N 0.85402 0.12781 0.3937 0.0
N120 N 0.88894 0.1343 0.35004 0.0
C121 C 0.86326 0.11481 0.30199 0.0
C122 C 0.80827 0.09645 0.31525 0.0
C123 C 0.75054 0.09952 0.41014 0.0
H124 H 0.7617 0.09732 0.45637 0.0
H125 H 0.72208 0.13732 0.4043 0.0
H126 H 0.72623 0.06081 0.3964 0.0
O127 O 0.95761 0.04655 0.43361 0.0
O128 O 1.0024 0.07239 0.35201 0.0
H129 H 0.90943 0.05978 0.2448 0.0
H130 H 0.86406 0.11156 0.20954 0.0
C131 C 0.89388 0.10486 0.24621 0.0
H132 H 0.93143 0.13345 0.24165 0.0
H133 H 0.05155 0.17692 0.2548 0.0
O134 O 0.85292 0.07962 0.52276 0.0
C135 C 0.99251 0.03567 0.39201 0.0
Co136 Co 0.55697 0.11726 0.10819 0.0
Co137 Co 0.65659 0.04702 0.1502 0.0
C138 C 0.53159 0.02891 0.18647 0.0
O139 O 0.51922 0.0802 0.17397 0.0
O140 O 0.58231 0.011 0.17718 0.0
C141 C 0.48466 0.18081 0.02926 0.0
O142 O 0.43397 0.20127 0.01639 0.0
C143 C 0.72148 0.07028 0.25265 0.0
C144 C 0.79415 0.01006 0.24929 0.0
C145 C 0.77315 0.05757 0.27892 0.0
N146 N 0.71271 0.03306 0.20902 0.0
N147 N 0.75567 0.99599 0.20822 0.0
C148 C 0.68472 0.12176 0.26416 0.0
H149 H 0.64114 0.11573 0.24574 0.0
H150 H 0.70508 0.16033 0.24483 0.0
H151 H 0.68102 0.12931 0.311 0.0
C152 C 0.64175 0.21242 0.10781 0.0
N153 N 0.62193 0.1615 0.12791 0.0
N154 N 0.66559 0.12657 0.13437 0.0
C155 C 0.71364 0.15224 0.1149 0.0
C156 C 0.7004 0.20725 0.09659 0.0
C157 C 0.60554 0.26503 0.09975 0.0
H158 H 0.55931 0.25391 0.09753 0.0
H159 H 0.6114 0.29341 0.1376 0.0
H160 H 0.61929 0.2894 0.06108 0.0
O161 O 0.58202 0.05796 0.04663 0.0
O162 O 0.66359 0.01313 0.07251 0.0
H163 H 0.77082 0.10615 0.0598 0.0
H164 H 0.80609 0.1514 0.11165 0.0
C165 C 0.76941 0.12162 0.1049 0.0
H166 H 0.77395 0.08401 0.13344 0.0
H167 H 0.76099 0.96416 0.17707 0.0
O168 O 0.49291 0.16275 0.07971 0.0
C169 C 0.6236 0.02304 0.03578 0.0
Co170 Co 0.10781 0.45861 0.89806 0.0
Co171 Co 0.14995 0.35906 0.96845 0.0
C172 C 0.18619 0.4841 0.98648 0.0
O173 O 0.17341 0.49653 0.93527 0.0
O174 O 0.17707 0.43334 1.00438 0.0
C175 C 0.02922 0.53078 0.8335 0.0
O176 O 0.01684 0.58125 0.81222 0.0
C177 C 0.25233 0.2939 0.94517 0.0
C178 C 0.24916 0.22163 1.00586 0.0
C179 C 0.27881 0.24241 0.95826 0.0
N180 N 0.2087 0.30284 0.98237 0.0
N181 N 0.208 0.2601 0.01969 0.0
C182 C 0.26373 0.33033 0.89345 0.0
H183 H 0.24552 0.37402 0.89937 0.0
H184 H 0.24406 0.30988 0.85509 0.0
H185 H 0.31053 0.33378 0.88559 0.0
C186 C 0.10742 0.3738 0.80309 0.0
N187 N 0.12774 0.39363 0.85393 0.0
N188 N 0.13398 0.35002 0.88896 0.0
C189 C 0.11412 0.30204 0.86347 0.0
C190 C 0.09574 0.31527 0.80847 0.0
C191 C 0.10007 0.40983 0.75026 0.0
H192 H 0.09772 0.45609 0.7612 0.0
H193 H 0.13835 0.40392 0.72246 0.0
H194 H 0.06176 0.396 0.72538 0.0
O195 O 0.04622 0.43356 0.95732 0.0
O196 O 0.07228 0.35218 1.0024 0.0
H197 H 0.05855 0.24444 0.90848 0.0
H198 H 0.11202 0.20963 0.86482 0.0
C199 C 0.10403 0.24637 0.89422 0.0
H200 H 0.1316 0.24244 0.93262 0.0
H201 H 0.17689 0.25493 0.0516 0.0
O202 O 0.07944 0.52251 0.85221 0.0
C203 C 0.03547 0.39205 0.99236 0.0
Co204 Co 0.45867 0.8982 0.10815 0.0
Co205 Co 0.35906 0.96846 0.15018 0.0
C206 C 0.48404 0.98653 0.18647 0.0
O207 O 0.49644 0.93526 0.17392 0.0
O208 O 0.43333 1.00447 0.17719 0.0
C209 C 0.53097 0.83463 0.02923 0.0
O210 O 0.58166 0.81414 0.01637 0.0
C211 C 0.29412 0.94532 0.25262 0.0
C212 C 0.22146 1.00556 0.24916 0.0
C213 C 0.24243 0.95807 0.27885 0.0
N214 N 0.30292 0.9825 0.20896 0.0
N215 N 0.25997 0.01958 0.2081 0.0
C216 C 0.33085 0.89384 0.26419 0.0
H217 H 0.37442 0.89981 0.24573 0.0
H218 H 0.31045 0.85525 0.24493 0.0
H219 H 0.33458 0.88635 0.31103 0.0
C220 C 0.37388 0.80306 0.10779 0.0
N221 N 0.3937 0.85398 0.12789 0.0
N222 N 0.35004 0.8889 0.1344 0.0
C223 C 0.30198 0.8632 0.11498 0.0
C224 C 0.31523 0.80821 0.09662 0.0
C225 C 0.4101 0.75045 0.0997 0.0
H226 H 0.45633 0.76158 0.0975 0.0
H227 H 0.40423 0.72205 0.13753 0.0
H228 H 0.39635 0.72611 0.06101 0.0
O229 O 0.43364 0.95749 0.04659 0.0
O230 O 0.35208 1.00233 0.07247 0.0
H231 H 0.24512 0.91003 0.06018 0.0
H232 H 0.20953 0.86384 0.111 0.0
C233 C 0.24619 0.8938 0.10503 0.0
H234 H 0.24131 0.9309 0.13416 0.0
H235 H 0.25468 0.05138 0.17692 0.0
O236 O 0.52272 0.85269 0.07968 0.0
C237 C 0.39206 0.99242 0.03574 0.0
Co238 Co 0.9078 0.5569 0.89806 0.0
Co239 Co 0.86567 0.65646 0.96844 0.0
C240 C 0.82943 0.53144 0.9865 0.0
O241 O 0.8422 0.51899 0.93529 0.0
O242 O 0.83856 0.58219 1.00439 0.0
C243 C 0.98637 0.48473 0.8335 0.0
O244 O 0.99876 0.43425 0.81223 0.0
C245 C 0.76329 0.7216 0.94518 0.0
C246 C 0.76647 0.7939 1.00584 0.0
C247 C 0.73681 0.77309 0.95826 0.0
N248 N 0.80692 0.71268 0.98238 0.0
N249 N 0.80764 0.75544 0.01967 0.0
C250 C 0.75187 0.68514 0.89348 0.0
H251 H 0.7701 0.64147 0.89941 0.0
H252 H 0.77151 0.70559 0.8551 0.0
H253 H 0.70507 0.68167 0.88565 0.0
C254 C 0.90817 0.64171 0.80308 0.0
N255 N 0.88786 0.62189 0.85392 0.0
N256 N 0.88162 0.6655 0.88895 0.0
C257 C 0.90147 0.71348 0.86344 0.0
C258 C 0.91984 0.70024 0.80844 0.0
C259 C 0.91552 0.60567 0.75025 0.0
H260 H 0.91786 0.55941 0.7612 0.0
H261 H 0.87726 0.6116 0.72244 0.0
H262 H 0.95384 0.61949 0.72538 0.0
O263 O 0.96939 0.58197 0.95731 0.0
O264 O 0.94334 0.66335 1.00238 0.0
H265 H 0.957 0.77099 0.9086 0.0
H266 H 0.90377 0.8059 0.86473 0.0
C267 C 0.91157 0.76915 0.89418 0.0
H268 H 0.88386 0.77317 0.93247 0.0
H269 H 0.83875 0.76061 0.05157 0.0
O270 O 0.93615 0.493 0.85221 0.0
C271 C 0.98015 0.62348 0.99234 0.0
Co272 Co 0.55705 0.89825 0.90762 0.0
Co273 Co 0.65663 0.96851 0.86565 0.0
C274 C 0.53161 0.98659 0.82934 0.0
O275 O 0.51927 0.9353 0.84184 0.0
O276 O 0.58232 1.00451 0.83864 0.0
C277 C 0.48474 0.83467 0.98655 0.0
O278 O 0.43401 0.8143 0.99942 0.0
C279 C 0.72154 0.94514 0.76322 0.0
C280 C 0.7942 1.00538 0.7665 0.0
C281 C 0.77319 0.95786 0.73691 0.0
N282 N 0.71278 0.9824 0.80683 0.0
N283 N 0.75574 0.01947 0.80758 0.0
C284 C 0.6848 0.89366 0.75176 0.0
H285 H 0.6412 0.89974 0.77012 0.0
H286 H 0.70513 0.85512 0.77121 0.0
H287 H 0.68117 0.886 0.70493 0.0
C288 C 0.64185 0.80311 0.90808 0.0
N289 N 0.62203 0.85401 0.8879 0.0
N290 N 0.66567 0.88898 0.88157 0.0
C291 C 0.71369 0.86338 0.90123 0.0
C292 C 0.70043 0.8084 0.91959 0.0
C293 C 0.60568 0.75046 0.91599 0.0
H294 H 0.55944 0.76156 0.91825 0.0
H295 H 0.61154 0.72222 0.87804 0.0
H296 H 0.61945 0.72597 0.95458 0.0
O297 O 0.58208 0.95756 0.96917 0.0
O298 O 0.66361 1.00245 0.94331 0.0
H299 H 0.77112 0.90878 0.95664 0.0
H300 H 0.80612 0.86447 0.90383 0.0
C301 C 0.7694 0.89405 0.9113 0.0
H302 H 0.77359 0.93213 0.88335 0.0
H303 H 0.76106 0.05133 0.83871 0.0
O304 O 0.493 0.85276 0.9361 0.0
C305 C 0.62362 0.99251 0.98003 0.0
Co306 Co 0.90742 0.45862 0.11726 0.0
Co307 Co 0.86547 0.35896 0.04712 0.0
C308 C 0.82917 0.48393 0.02894 0.0
O309 O 0.84158 0.49633 0.08024 0.0
O310 O 0.83849 0.43321 0.01106 0.0
C311 C 0.9865 0.53092 0.18061 0.0
O312 O 0.99943 0.58165 0.20094 0.0
C313 C 0.76309 0.294 0.07056 0.0
C314 C 0.76627 0.22147 0.01015 0.0
C315 C 0.73674 0.2424 0.05775 0.0
N316 N 0.80666 0.30281 0.03327 0.0
N317 N 0.80736 0.25993 0.99611 0.0
C318 C 0.75169 0.33064 0.12214 0.0
H319 H 0.76997 0.37427 0.11609 0.0
H320 H 0.77126 0.31028 0.1606 0.0
H321 H 0.70488 0.3342 0.12992 0.0
C322 C 0.90806 0.3739 0.21247 0.0
N323 N 0.88781 0.39367 0.16159 0.0
N324 N 0.88146 0.35 0.12664 0.0
C325 C 0.90119 0.30202 0.15225 0.0
C326 C 0.91961 0.31533 0.20721 0.0
C327 C 0.91607 0.41012 0.26508 0.0
H328 H 0.91828 0.45635 0.25393 0.0
H329 H 0.87818 0.40429 0.29342 0.0
H330 H 0.95472 0.39639 0.2895 0.0
O331 O 0.96889 0.43358 0.05787 0.0
O332 O 0.94308 0.35197 0.0131 0.0
H333 H 0.95655 0.24451 0.10688 0.0
H334 H 0.9037 0.20959 0.1512 0.0
C335 C 0.91121 0.24628 0.12161 0.0
H336 H 0.88326 0.2421 0.08352 0.0
H337 H 0.83843 0.25467 0.96418 0.0
O338 O 0.936 0.52268 0.16265 0.0
C339 C 0.97975 0.39201 0.02294 0.0
Co340 Co 0.4586 0.11726 0.90762 0.0
Co341 Co 0.35902 0.047 0.86563 0.0
C342 C 0.48403 0.02896 0.82931 0.0
O343 O 0.49639 0.08024 0.84183 0.0
O344 O 0.43333 0.01101 0.83861 0.0
C345 C 0.5309 0.1808 0.98658 0.0
O346 O 0.58162 0.20117 0.99947 0.0
C347 C 0.29415 0.07042 0.7632 0.0
C348 C 0.22147 0.0102 0.76641 0.0
C349 C 0.24251 0.05774 0.73685 0.0
N350 N 0.30288 0.03315 0.8068 0.0
N351 N 0.25991 0.99609 0.80751 0.0
C352 C 0.33091 0.1219 0.75177 0.0
H353 H 0.37451 0.11579 0.77013 0.0
H354 H 0.3106 0.16044 0.77125 0.0
H355 H 0.33454 0.12959 0.70495 0.0
C356 C 0.37379 0.21239 0.90812 0.0
N357 N 0.39361 0.1615 0.88792 0.0
N358 N 0.34998 0.12652 0.88159 0.0
C359 C 0.30196 0.15211 0.90126 0.0
C360 C 0.31521 0.2071 0.91961 0.0
C361 C 0.40996 0.26504 0.91606 0.0
H362 H 0.4562 0.25393 0.91831 0.0
H363 H 0.40411 0.29331 0.87812 0.0
H364 H 0.39618 0.2895 0.95466 0.0
O365 O 0.43358 0.05791 0.96915 0.0
O366 O 0.35205 0.01303 0.94328 0.0
H367 H 0.24443 0.1069 0.95672 0.0
H368 H 0.20953 0.15097 0.90364 0.0
C369 C 0.24624 0.12144 0.91132 0.0
H370 H 0.24216 0.08324 0.88351 0.0
H371 H 0.25457 0.96421 0.83861 0.0
O372 O 0.52265 0.16274 0.93613 0.0
C373 C 0.39204 0.02296 0.98 0.0
Co374 Co 0.10821 0.55695 0.11724 0.0
Co375 Co 0.15015 0.65659 0.04707 0.0
C376 C 0.18646 0.53161 0.02891 0.0
O377 O 0.17406 0.51922 0.08023 0.0
O378 O 0.17713 0.58233 0.01102 0.0
C379 C 0.02915 0.48466 0.18062 0.0
O380 O 0.01621 0.43394 0.20095 0.0
C381 C 0.25255 0.72149 0.0705 0.0
C382 C 0.24936 0.79408 0.01017 0.0
C383 C 0.2789 0.7731 0.05774 0.0
N384 N 0.20897 0.71272 0.03321 0.0
N385 N 0.20827 0.75563 0.9961 0.0
C386 C 0.26395 0.68479 0.12204 0.0
H387 H 0.24563 0.64118 0.11596 0.0
H388 H 0.24443 0.70514 0.16053 0.0
H389 H 0.31077 0.68119 0.12978 0.0
C390 C 0.10758 0.6417 0.21244 0.0
N391 N 0.12783 0.62192 0.16155 0.0
N392 N 0.13416 0.66557 0.12659 0.0
C393 C 0.11445 0.71356 0.1522 0.0
C394 C 0.09604 0.70027 0.20717 0.0
C395 C 0.09958 0.60549 0.26506 0.0
H396 H 0.09737 0.55926 0.25392 0.0
H397 H 0.13747 0.61134 0.29339 0.0
H398 H 0.06093 0.61922 0.28947 0.0
O399 O 0.04674 0.58197 0.05785 0.0
O400 O 0.07254 0.66357 0.01305 0.0
H401 H 0.05905 0.77104 0.10682 0.0
H402 H 0.1119 0.80599 0.15112 0.0
C403 C 0.1044 0.76929 0.12154 0.0
H404 H 0.13234 0.77346 0.08344 0.0
H405 H 0.17718 0.76094 0.96419 0.0
O406 O 0.07964 0.49289 0.16265 0.0
C407 C 0.03587 0.62353 0.02291 0.0
loop_
_geom_bond_atom_site_label_1
_geom_bond_atom_site_label_2
_geom_bond_distance
_geom_bond_site_symmetry_2
_ccdc_geom_bond_type
Co0 O3 1.970 . S
Co0 N17 1.989 . S
Co0 O25 1.967 . S
Co0 O32 1.920 . S
Co1 O4 1.966 . S
Co1 N10 2.022 . S
Co1 N18 1.993 . S
Co1 O26 1.941 1_455 S
C2 O3 1.258 . S
C2 O4 1.263 . S
O3 Co0 1.970 . S
O3 C2 1.258 . S
O4 Co1 1.966 . S
O4 C2 1.263 . S
C5 O6 1.235 . S
C5 O32 1.289 . S
O6 C5 1.235 . S
C7 C9 1.400 . S
C7 N10 1.351 . S
C7 C12 1.501 . S
C8 C9 1.387 . S
C8 N11 1.341 . S
C9 C7 1.400 . S
C9 C8 1.387 . S
N10 Co1 2.022 . S
N10 C7 1.351 . S
N10 N11 1.365 . S
N11 C8 1.341 . S
N11 N10 1.365 . S
N11 H31 0.862 . S
C12 C7 1.501 . S
C12 H13 0.961 . S
C12 H14 0.961 . S
C12 H15 0.960 1_455 S
H13 C12 0.961 . S
H14 C12 0.961 . S
H15 C12 0.960 1_655 S
C16 N17 1.342 . S
C16 C20 1.401 . S
C16 C21 1.499 . S
N17 Co0 1.989 . S
N17 C16 1.342 . S
N17 N18 1.388 . S
N18 Co1 1.993 . S
N18 N17 1.388 . S
N18 C19 1.346 . S
C19 N18 1.346 . S
C19 C20 1.396 . S
C19 C29 1.510 . S
C20 C16 1.401 . S
C20 C19 1.396 . S
C21 C16 1.499 . S
C21 H22 0.959 . S
C21 H23 0.960 . S
C21 H24 0.961 . S
H22 C21 0.959 . S
H23 C21 0.960 . S
H24 C21 0.961 . S
O25 Co0 1.967 . S
O25 C33 1.258 1_455 S
O26 Co1 1.941 1_655 S
O26 C33 1.266 . S
H27 C29 0.959 . S
H28 C29 0.961 . S
C29 C19 1.510 . S
C29 H27 0.959 . S
C29 H28 0.961 . S
C29 H30 0.960 . S
H30 C29 0.960 . S
H31 N11 0.862 . S
O32 Co0 1.920 . S
O32 C5 1.289 . S
C33 O25 1.258 1_655 S
C33 O26 1.266 . S
Co34 O37 1.970 . S
Co34 N51 1.989 . S
Co34 O59 1.967 . S
Co34 O66 1.920 . S
Co35 O38 1.966 . S
Co35 N44 2.022 . S
Co35 N52 1.993 . S
Co35 O60 1.941 1_455 S
C36 O37 1.258 . S
C36 O38 1.263 . S
O37 Co34 1.970 . S
O37 C36 1.258 . S
O38 Co35 1.966 . S
O38 C36 1.263 . S
C39 O40 1.235 . S
C39 O66 1.289 . S
O40 C39 1.235 . S
C41 C43 1.400 . S
C41 N44 1.351 . S
C41 C46 1.501 . S
C42 C43 1.387 . S
C42 N45 1.341 . S
C43 C41 1.400 . S
C43 C42 1.387 . S
N44 Co35 2.022 . S
N44 C41 1.351 . S
N44 N45 1.365 . S
N45 C42 1.341 . S
N45 N44 1.365 . S
N45 H65 0.862 . S
C46 C41 1.501 . S
C46 H47 0.961 . S
C46 H48 0.961 . S
C46 H49 0.960 1_455 S
H47 C46 0.961 . S
H48 C46 0.961 . S
H49 C46 0.960 1_655 S
C50 N51 1.342 . S
C50 C54 1.401 . S
C50 C55 1.499 . S
N51 Co34 1.989 . S
N51 C50 1.342 . S
N51 N52 1.388 . S
N52 Co35 1.993 . S
N52 N51 1.388 . S
N52 C53 1.346 . S
C53 N52 1.346 . S
C53 C54 1.396 . S
C53 C63 1.510 . S
C54 C50 1.401 . S
C54 C53 1.396 . S
C55 C50 1.499 . S
C55 H56 0.959 . S
C55 H57 0.960 . S
C55 H58 0.961 . S
H56 C55 0.959 . S
H57 C55 0.960 . S
H58 C55 0.961 . S
O59 Co34 1.967 . S
O59 C67 1.258 1_455 S
O60 Co35 1.941 1_655 S
O60 C67 1.266 . S
H61 C63 0.959 . S
H62 C63 0.961 . S
C63 C53 1.510 . S
C63 H61 0.959 . S
C63 H62 0.961 . S
C63 H64 0.960 . S
H64 C63 0.960 . S
H65 N45 0.862 . S
O66 Co34 1.920 . S
O66 C39 1.289 . S
C67 O59 1.258 1_655 S
C67 O60 1.266 . S
Co68 O71 1.970 . S
Co68 N85 1.989 . S
Co68 O93 1.967 . S
Co68 O100 1.920 . S
Co69 O72 1.966 . S
Co69 N78 2.022 . S
Co69 N86 1.993 . S
Co69 O94 1.941 1_655 S
C70 O71 1.258 . S
C70 O72 1.263 . S
O71 Co68 1.970 . S
O71 C70 1.258 . S
O72 Co69 1.966 . S
O72 C70 1.263 . S
C73 O74 1.235 . S
C73 O100 1.289 . S
O74 C73 1.235 . S
C75 C77 1.400 . S
C75 N78 1.351 . S
C75 C80 1.501 . S
C76 C77 1.387 . S
C76 N79 1.341 . S
C77 C75 1.400 . S
C77 C76 1.387 . S
N78 Co69 2.022 . S
N78 C75 1.351 . S
N78 N79 1.365 . S
N79 C76 1.341 . S
N79 N78 1.365 . S
N79 H99 0.862 . S
C80 C75 1.501 . S
C80 H81 0.961 . S
C80 H82 0.961 . S
C80 H83 0.960 1_655 S
H81 C80 0.961 . S
H82 C80 0.961 . S
H83 C80 0.960 1_455 S
C84 N85 1.342 . S
C84 C88 1.401 . S
C84 C89 1.499 . S
N85 Co68 1.989 . S
N85 C84 1.342 . S
N85 N86 1.388 . S
N86 Co69 1.993 . S
N86 N85 1.388 . S
N86 C87 1.346 . S
C87 N86 1.346 . S
C87 C88 1.396 . S
C87 C97 1.510 . S
C88 C84 1.401 . S
C88 C87 1.396 . S
C89 C84 1.499 . S
C89 H90 0.959 . S
C89 H91 0.960 . S
C89 H92 0.961 . S
H90 C89 0.959 . S
H91 C89 0.960 . S
H92 C89 0.961 . S
O93 Co68 1.967 . S
O93 C101 1.258 1_655 S
O94 Co69 1.941 1_455 S
O94 C101 1.266 . S
H95 C97 0.959 . S
H96 C97 0.961 . S
C97 C87 1.510 . S
C97 H95 0.959 . S
C97 H96 0.961 . S
C97 H98 0.960 . S
H98 C97 0.960 . S
H99 N79 0.862 . S
O100 Co68 1.920 . S
O100 C73 1.289 . S
C101 O93 1.258 1_455 S
C101 O94 1.266 . S
Co102 O105 1.970 . S
Co102 N119 1.989 . S
Co102 O127 1.967 . S
Co102 O134 1.920 . S
Co103 O106 1.966 . S
Co103 N112 2.022 . S
Co103 N120 1.993 . S
Co103 O128 1.941 1_655 S
C104 O105 1.258 . S
C104 O106 1.263 . S
O105 Co102 1.970 . S
O105 C104 1.258 . S
O106 Co103 1.966 . S
O106 C104 1.263 . S
C107 O108 1.235 . S
C107 O134 1.289 . S
O108 C107 1.235 . S
C109 C111 1.400 . S
C109 N112 1.351 . S
C109 C114 1.501 . S
C110 C111 1.387 . S
C110 N113 1.341 . S
C111 C109 1.400 . S
C111 C110 1.387 . S
N112 Co103 2.022 . S
N112 C109 1.351 . S
N112 N113 1.365 . S
N113 C110 1.341 . S
N113 N112 1.365 . S
N113 H133 0.862 . S
C114 C109 1.501 . S
C114 H115 0.961 . S
C114 H116 0.961 . S
C114 H117 0.960 1_655 S
H115 C114 0.961 . S
H116 C114 0.961 . S
H117 C114 0.960 1_455 S
C118 N119 1.342 . S
C118 C122 1.401 . S
C118 C123 1.499 . S
N119 Co102 1.989 . S
N119 C118 1.342 . S
N119 N120 1.388 . S
N120 Co103 1.993 . S
N120 N119 1.388 . S
N120 C121 1.346 . S
C121 N120 1.346 . S
C121 C122 1.396 . S
C121 C131 1.510 . S
C122 C118 1.401 . S
C122 C121 1.396 . S
C123 C118 1.499 . S
C123 H124 0.959 . S
C123 H125 0.960 . S
C123 H126 0.961 . S
H124 C123 0.959 . S
H125 C123 0.960 . S
H126 C123 0.961 . S
O127 Co102 1.967 . S
O127 C135 1.258 1_655 S
O128 Co103 1.941 1_455 S
O128 C135 1.266 . S
H129 C131 0.959 . S
H130 C131 0.961 . S
C131 C121 1.510 . S
C131 H129 0.959 . S
C131 H130 0.961 . S
C131 H132 0.960 . S
H132 C131 0.960 . S
H133 N113 0.862 . S
O134 Co102 1.920 . S
O134 C107 1.289 . S
C135 O127 1.258 1_455 S
C135 O128 1.266 . S
Co136 O139 1.970 . S
Co136 N153 1.989 . S
Co136 O161 1.967 . S
Co136 O168 1.920 . S
Co137 O140 1.966 . S
Co137 N146 2.022 . S
Co137 N154 1.993 . S
Co137 O162 1.941 1_545 S
C138 O139 1.258 . S
C138 O140 1.263 . S
O139 Co136 1.970 . S
O139 C138 1.258 . S
O140 Co137 1.966 . S
O140 C138 1.263 . S
C141 O142 1.235 . S
C141 O168 1.289 . S
O142 C141 1.235 . S
C143 C145 1.400 . S
C143 N146 1.351 . S
C143 C148 1.501 . S
C144 C145 1.387 . S
C144 N147 1.341 . S
C145 C143 1.400 . S
C145 C144 1.387 . S
N146 Co137 2.022 . S
N146 C143 1.351 . S
N146 N147 1.365 . S
N147 C144 1.341 . S
N147 N146 1.365 . S
N147 H167 0.862 . S
C148 C143 1.501 . S
C148 H149 0.961 . S
C148 H150 0.961 . S
C148 H151 0.960 1_545 S
H149 C148 0.961 . S
H150 C148 0.961 . S
H151 C148 0.960 1_565 S
C152 N153 1.342 . S
C152 C156 1.401 . S
C152 C157 1.499 . S
N153 Co136 1.989 . S
N153 C152 1.342 . S
N153 N154 1.388 . S
N154 Co137 1.993 . S
N154 N153 1.388 . S
N154 C155 1.346 . S
C155 N154 1.346 . S
C155 C156 1.396 . S
C155 C165 1.510 . S
C156 C152 1.401 . S
C156 C155 1.396 . S
C157 C152 1.499 . S
C157 H158 0.959 . S
C157 H159 0.960 . S
C157 H160 0.961 . S
H158 C157 0.959 . S
H159 C157 0.960 . S
H160 C157 0.961 . S
O161 Co136 1.967 . S
O161 C169 1.258 1_545 S
O162 Co137 1.941 1_565 S
O162 C169 1.266 . S
H163 C165 0.959 . S
H164 C165 0.961 . S
C165 C155 1.510 . S
C165 H163 0.959 . S
C165 H164 0.961 . S
C165 H166 0.960 . S
H166 C165 0.960 . S
H167 N147 0.862 . S
O168 Co136 1.920 . S
O168 C141 1.289 . S
C169 O161 1.258 1_565 S
C169 O162 1.266 . S
Co170 O173 1.970 . S
Co170 N187 1.989 . S
Co170 O195 1.967 . S
Co170 O202 1.920 . S
Co171 O174 1.966 . S
Co171 N180 2.022 . S
Co171 N188 1.993 . S
Co171 O196 1.941 1_556 S
C172 O173 1.258 . S
C172 O174 1.263 . S
O173 Co170 1.970 . S
O173 C172 1.258 . S
O174 Co171 1.966 . S
O174 C172 1.263 . S
C175 O176 1.235 . S
C175 O202 1.289 . S
O176 C175 1.235 . S
C177 C179 1.400 . S
C177 N180 1.351 . S
C177 C182 1.501 . S
C178 C179 1.387 . S
C178 N181 1.341 . S
C179 C177 1.400 . S
C179 C178 1.387 . S
N180 Co171 2.022 . S
N180 C177 1.351 . S
N180 N181 1.365 . S
N181 C178 1.341 . S
N181 N180 1.365 . S
N181 H201 0.862 . S
C182 C177 1.501 . S
C182 H183 0.961 . S
C182 H184 0.961 . S
C182 H185 0.960 1_556 S
H183 C182 0.961 . S
H184 C182 0.961 . S
H185 C182 0.960 1_554 S
C186 N187 1.342 . S
C186 C190 1.401 . S
C186 C191 1.499 . S
N187 Co170 1.989 . S
N187 C186 1.342 . S
N187 N188 1.388 . S
N188 Co171 1.993 . S
N188 N187 1.388 . S
N188 C189 1.346 . S
C189 N188 1.346 . S
C189 C190 1.396 . S
C189 C199 1.510 . S
C190 C186 1.401 . S
C190 C189 1.396 . S
C191 C186 1.499 . S
C191 H192 0.959 . S
C191 H193 0.960 . S
C191 H194 0.961 . S
H192 C191 0.959 . S
H193 C191 0.960 . S
H194 C191 0.961 . S
O195 Co170 1.967 . S
O195 C203 1.258 1_556 S
O196 Co171 1.941 1_554 S
O196 C203 1.266 . S
H197 C199 0.959 . S
H198 C199 0.961 . S
C199 C189 1.510 . S
C199 H197 0.959 . S
C199 H198 0.961 . S
C199 H200 0.960 . S
H200 C199 0.960 . S
H201 N181 0.862 . S
O202 Co170 1.920 . S
O202 C175 1.289 . S
C203 O195 1.258 1_554 S
C203 O196 1.266 . S
Co204 O207 1.970 . S
Co204 N221 1.989 . S
Co204 O229 1.967 . S
Co204 O236 1.920 . S
Co205 O208 1.966 . S
Co205 N214 2.022 . S
Co205 N222 1.993 . S
Co205 O230 1.941 1_565 S
C206 O207 1.258 . S
C206 O208 1.263 . S
O207 Co204 1.970 . S
O207 C206 1.258 . S
O208 Co205 1.966 . S
O208 C206 1.263 . S
C209 O210 1.235 . S
C209 O236 1.289 . S
O210 C209 1.235 . S
C211 C213 1.400 . S
C211 N214 1.351 . S
C211 C216 1.501 . S
C212 C213 1.387 . S
C212 N215 1.341 . S
C213 C211 1.400 . S
C213 C212 1.387 . S
N214 Co205 2.022 . S
N214 C211 1.351 . S
N214 N215 1.365 . S
N215 C212 1.341 . S
N215 N214 1.365 . S
N215 H235 0.862 . S
C216 C211 1.501 . S
C216 H217 0.961 . S
C216 H218 0.961 . S
C216 H219 0.960 1_565 S
H217 C216 0.961 . S
H218 C216 0.961 . S
H219 C216 0.960 1_545 S
C220 N221 1.342 . S
C220 C224 1.401 . S
C220 C225 1.499 . S
N221 Co204 1.989 . S
N221 C220 1.342 . S
N221 N222 1.388 . S
N222 Co205 1.993 . S
N222 N221 1.388 . S
N222 C223 1.346 . S
C223 N222 1.346 . S
C223 C224 1.396 . S
C223 C233 1.510 . S
C224 C220 1.401 . S
C224 C223 1.396 . S
C225 C220 1.499 . S
C225 H226 0.959 . S
C225 H227 0.960 . S
C225 H228 0.961 . S
H226 C225 0.959 . S
H227 C225 0.960 . S
H228 C225 0.961 . S
O229 Co204 1.967 . S
O229 C237 1.258 1_565 S
O230 Co205 1.941 1_545 S
O230 C237 1.266 . S
H231 C233 0.959 . S
H232 C233 0.961 . S
C233 C223 1.510 . S
C233 H231 0.959 . S
C233 H232 0.961 . S
C233 H234 0.960 . S
H234 C233 0.960 . S
H235 N215 0.862 . S
O236 Co204 1.920 . S
O236 C209 1.289 . S
C237 O229 1.258 1_545 S
C237 O230 1.266 . S
Co238 O241 1.970 . S
Co238 N255 1.989 . S
Co238 O263 1.967 . S
Co238 O270 1.920 . S
Co239 O242 1.966 . S
Co239 N248 2.022 . S
Co239 N256 1.993 . S
Co239 O264 1.941 1_556 S
C240 O241 1.258 . S
C240 O242 1.263 . S
O241 Co238 1.970 . S
O241 C240 1.258 . S
O242 Co239 1.966 . S
O242 C240 1.263 . S
C243 O244 1.235 . S
C243 O270 1.289 . S
O244 C243 1.235 . S
C245 C247 1.400 . S
C245 N248 1.351 . S
C245 C250 1.501 . S
C246 C247 1.387 . S
C246 N249 1.341 . S
C247 C245 1.400 . S
C247 C246 1.387 . S
N248 Co239 2.022 . S
N248 C245 1.351 . S
N248 N249 1.365 . S
N249 C246 1.341 . S
N249 N248 1.365 . S
N249 H269 0.862 . S
C250 C245 1.501 . S
C250 H251 0.961 . S
C250 H252 0.961 . S
C250 H253 0.960 1_556 S
H251 C250 0.961 . S
H252 C250 0.961 . S
H253 C250 0.960 1_554 S
C254 N255 1.342 . S
C254 C258 1.401 . S
C254 C259 1.499 . S
N255 Co238 1.989 . S
N255 C254 1.342 . S
N255 N256 1.388 . S
N256 Co239 1.993 . S
N256 N255 1.388 . S
N256 C257 1.346 . S
C257 N256 1.346 . S
C257 C258 1.396 . S
C257 C267 1.510 . S
C258 C254 1.401 . S
C258 C257 1.396 . S
C259 C254 1.499 . S
C259 H260 0.959 . S
C259 H261 0.960 . S
C259 H262 0.961 . S
H260 C259 0.959 . S
H261 C259 0.960 . S
H262 C259 0.961 . S
O263 Co238 1.967 . S
O263 C271 1.258 1_556 S
O264 Co239 1.941 1_554 S
O264 C271 1.266 . S
H265 C267 0.959 . S
H266 C267 0.961 . S
C267 C257 1.510 . S
C267 H265 0.959 . S
C267 H266 0.961 . S
C267 H268 0.960 . S
H268 C267 0.960 . S
H269 N249 0.862 . S
O270 Co238 1.920 . S
O270 C243 1.289 . S
C271 O263 1.258 1_554 S
C271 O264 1.266 . S
Co272 O275 1.970 . S
Co272 N289 1.989 . S
Co272 O297 1.967 . S
Co272 O304 1.920 . S
Co273 O276 1.966 . S
Co273 N282 2.022 . S
Co273 N290 1.993 . S
Co273 O298 1.941 1_565 S
C274 O275 1.258 . S
C274 O276 1.263 . S
O275 Co272 1.970 . S
O275 C274 1.258 . S
O276 Co273 1.966 . S
O276 C274 1.263 . S
C277 O278 1.235 . S
C277 O304 1.289 . S
O278 C277 1.235 . S
C279 C281 1.400 . S
C279 N282 1.351 . S
C279 C284 1.501 . S
C280 C281 1.387 . S
C280 N283 1.341 . S
C281 C279 1.400 . S
C281 C280 1.387 . S
N282 Co273 2.022 . S
N282 C279 1.351 . S
N282 N283 1.365 . S
N283 C280 1.341 . S
N283 N282 1.365 . S
N283 H303 0.862 . S
C284 C279 1.501 . S
C284 H285 0.961 . S
C284 H286 0.961 . S
C284 H287 0.960 1_565 S
H285 C284 0.961 . S
H286 C284 0.961 . S
H287 C284 0.960 1_545 S
C288 N289 1.342 . S
C288 C292 1.401 . S
C288 C293 1.499 . S
N289 Co272 1.989 . S
N289 C288 1.342 . S
N289 N290 1.388 . S
N290 Co273 1.993 . S
N290 N289 1.388 . S
N290 C291 1.346 . S
C291 N290 1.346 . S
C291 C292 1.396 . S
C291 C301 1.510 . S
C292 C288 1.401 . S
C292 C291 1.396 . S
C293 C288 1.499 . S
C293 H294 0.959 . S
C293 H295 0.960 . S
C293 H296 0.961 . S
H294 C293 0.959 . S
H295 C293 0.960 . S
H296 C293 0.961 . S
O297 Co272 1.967 . S
O297 C305 1.258 1_565 S
O298 Co273 1.941 1_545 S
O298 C305 1.266 . S
H299 C301 0.959 . S
H300 C301 0.961 . S
C301 C291 1.510 . S
C301 H299 0.959 . S
C301 H300 0.961 . S
C301 H302 0.960 . S
H302 C301 0.960 . S
H303 N283 0.862 . S
O304 Co272 1.920 . S
O304 C277 1.289 . S
C305 O297 1.258 1_545 S
C305 O298 1.266 . S
Co306 O309 1.970 . S
Co306 N323 1.989 . S
Co306 O331 1.967 . S
Co306 O338 1.920 . S
Co307 O310 1.966 . S
Co307 N316 2.022 . S
Co307 N324 1.993 . S
Co307 O332 1.941 1_554 S
C308 O309 1.258 . S
C308 O310 1.263 . S
O309 Co306 1.970 . S
O309 C308 1.258 . S
O310 Co307 1.966 . S
O310 C308 1.263 . S
C311 O312 1.235 . S
C311 O338 1.289 . S
O312 C311 1.235 . S
C313 C315 1.400 . S
C313 N316 1.351 . S
C313 C318 1.501 . S
C314 C315 1.387 . S
C314 N317 1.341 . S
C315 C313 1.400 . S
C315 C314 1.387 . S
N316 Co307 2.022 . S
N316 C313 1.351 . S
N316 N317 1.365 . S
N317 C314 1.341 . S
N317 N316 1.365 . S
N317 H337 0.862 . S
C318 C313 1.501 . S
C318 H319 0.961 . S
C318 H320 0.961 . S
C318 H321 0.960 1_554 S
H319 C318 0.961 . S
H320 C318 0.961 . S
H321 C318 0.960 1_556 S
C322 N323 1.342 . S
C322 C326 1.401 . S
C322 C327 1.499 . S
N323 Co306 1.989 . S
N323 C322 1.342 . S
N323 N324 1.388 . S
N324 Co307 1.993 . S
N324 N323 1.388 . S
N324 C325 1.346 . S
C325 N324 1.346 . S
C325 C326 1.396 . S
C325 C335 1.510 . S
C326 C322 1.401 . S
C326 C325 1.396 . S
C327 C322 1.499 . S
C327 H328 0.959 . S
C327 H329 0.960 . S
C327 H330 0.961 . S
H328 C327 0.959 . S
H329 C327 0.960 . S
H330 C327 0.961 . S
O331 Co306 1.967 . S
O331 C339 1.258 1_554 S
O332 Co307 1.941 1_556 S
O332 C339 1.266 . S
H333 C335 0.959 . S
H334 C335 0.961 . S
C335 C325 1.510 . S
C335 H333 0.959 . S
C335 H334 0.961 . S
C335 H336 0.960 . S
H336 C335 0.960 . S
H337 N317 0.862 . S
O338 Co306 1.920 . S
O338 C311 1.289 . S
C339 O331 1.258 1_556 S
C339 O332 1.266 . S
Co340 O343 1.970 . S
Co340 N357 1.989 . S
Co340 O365 1.967 . S
Co340 O372 1.920 . S
Co341 O344 1.966 . S
Co341 N350 2.022 . S
Co341 N358 1.993 . S
Co341 O366 1.941 1_545 S
C342 O343 1.258 . S
C342 O344 1.263 . S
O343 Co340 1.970 . S
O343 C342 1.258 . S
O344 Co341 1.966 . S
O344 C342 1.263 . S
C345 O346 1.235 . S
C345 O372 1.289 . S
O346 C345 1.235 . S
C347 C349 1.400 . S
C347 N350 1.351 . S
C347 C352 1.501 . S
C348 C349 1.387 . S
C348 N351 1.341 . S
C349 C347 1.400 . S
C349 C348 1.387 . S
N350 Co341 2.022 . S
N350 C347 1.351 . S
N350 N351 1.365 . S
N351 C348 1.341 . S
N351 N350 1.365 . S
N351 H371 0.862 . S
C352 C347 1.501 . S
C352 H353 0.961 . S
C352 H354 0.961 . S
C352 H355 0.960 1_545 S
H353 C352 0.961 . S
H354 C352 0.961 . S
H355 C352 0.960 1_565 S
C356 N357 1.342 . S
C356 C360 1.401 . S
C356 C361 1.499 . S
N357 Co340 1.989 . S
N357 C356 1.342 . S
N357 N358 1.388 . S
N358 Co341 1.993 . S
N358 N357 1.388 . S
N358 C359 1.346 . S
C359 N358 1.346 . S
C359 C360 1.396 . S
C359 C369 1.510 . S
C360 C356 1.401 . S
C360 C359 1.396 . S
C361 C356 1.499 . S
C361 H362 0.959 . S
C361 H363 0.960 . S
C361 H364 0.961 . S
H362 C361 0.959 . S
H363 C361 0.960 . S
H364 C361 0.961 . S
O365 Co340 1.967 . S
O365 C373 1.258 1_545 S
O366 Co341 1.941 1_565 S
O366 C373 1.266 . S
H367 C369 0.959 . S
H368 C369 0.961 . S
C369 C359 1.510 . S
C369 H367 0.959 . S
C369 H368 0.961 . S
C369 H370 0.960 . S
H370 C369 0.960 . S
H371 N351 0.862 . S
O372 Co340 1.920 . S
O372 C345 1.289 . S
C373 O365 1.258 1_565 S
C373 O366 1.266 . S
Co374 O377 1.970 . S
Co374 N391 1.989 . S
Co374 O399 1.967 . S
Co374 O406 1.920 . S
Co375 O378 1.966 . S
Co375 N384 2.022 . S
Co375 N392 1.993 . S
Co375 O400 1.941 1_554 S
C376 O377 1.258 . S
C376 O378 1.263 . S
O377 Co374 1.970 . S
O377 C376 1.258 . S
O378 Co375 1.966 . S
O378 C376 1.263 . S
C379 O380 1.235 . S
C379 O406 1.289 . S
O380 C379 1.235 . S
C381 C383 1.400 . S
C381 N384 1.351 . S
C381 C386 1.501 . S
C382 C383 1.387 . S
C382 N385 1.341 . S
C383 C381 1.400 . S
C383 C382 1.387 . S
N384 Co375 2.022 . S
N384 C381 1.351 . S
N384 N385 1.365 . S
N385 C382 1.341 . S
N385 N384 1.365 . S
N385 H405 0.862 . S
C386 C381 1.501 . S
C386 H387 0.961 . S
C386 H388 0.961 . S
C386 H389 0.960 1_554 S
H387 C386 0.961 . S
H388 C386 0.961 . S
H389 C386 0.960 1_556 S
C390 N391 1.342 . S
C390 C394 1.401 . S
C390 C395 1.499 . S
N391 Co374 1.989 . S
N391 C390 1.342 . S
N391 N392 1.388 . S
N392 Co375 1.993 . S
N392 N391 1.388 . S
N392 C393 1.346 . S
C393 N392 1.346 . S
C393 C394 1.396 . S
C393 C403 1.510 . S
C394 C390 1.401 . S
C394 C393 1.396 . S
C395 C390 1.499 . S
C395 H396 0.959 . S
C395 H397 0.960 . S
C395 H398 0.961 . S
H396 C395 0.959 . S
H397 C395 0.960 . S
H398 C395 0.961 . S
O399 Co374 1.967 . S
O399 C407 1.258 1_554 S
O400 Co375 1.941 1_556 S
O400 C407 1.266 . S
H401 C403 0.959 . S
H402 C403 0.961 . S
C403 C393 1.510 . S
C403 H401 0.959 . S
C403 H402 0.961 . S
C403 H404 0.960 . S
H404 C403 0.960 . S
H405 N385 0.862 . S
O406 Co374 1.920 . S
O406 C379 1.289 . S
C407 O399 1.258 1_556 S
C407 O400 1.266 . S
C190 C9 2.063 . S
C54 C213 2.063 . S
C77 C258 2.063 . S
C145 C122 2.063 . S
C394 C43 2.063 . S
C88 C281 2.063 . S
C111 C326 2.063 . S
C20 C349 2.063 . S
C224 C383 2.063 . S
C179 C360 2.063 . S
C247 C292 2.063 . S
C156 C315 2.063 . S
C39 C5 2.018 1_565 S
C70 C36 1.640 1_655 S
C107 C73 2.018 1_545 S
C104 C2 1.640 1_655 S
C345 C141 2.018 1_556 S
C376 C172 1.640 1_554 S
C209 C277 2.018 1_554 S
C240 C308 1.640 1_556 S
C311 C379 2.018 1_655 S
C243 C175 2.018 1_655 S
C206 C138 1.640 1_565 S
C342 C274 1.640 1_545 S
C33 C101 2.804 1_645 S
C67 C135 2.804 1_665 S
C169 C305 2.804 1_564 S
C203 C339 2.804 1_454 S
C373 C237 2.804 1_566 S
C271 C407 2.804 1_654 S
