# Generated by pormake.
# Topology rkf, (6)-cn, num edge types: 1
# Building blocks:
#     Node 0, Type 0, BuildingBlock: NUHQIS_clean_sbu_0, # of connection points: 6
#     Node 1, Type 0, BuildingBlock: NUHQIS_clean_sbu_0, # of connection points: 6
#     Node 2, Type 0, BuildingBlock: NUHQIS_clean_sbu_0, # of connection points: 6
#     Node 3, Type 0, BuildingBlock: NUHQIS_clean_sbu_0, # of connection points: 6
#     Node 4, Type 0, BuildingBlock: NUHQIS_clean_sbu_0, # of connection points: 6
#     Node 5, Type 0, BuildingBlock: NUHQIS_clean_sbu_0, # of connection points: 6
#     Edge 6, Type (0, 0), BuildingBlock: TEMPAE_clean_linker_10, # of connection points: 2
#     Edge 7, Type (0, 0), BuildingBlock: TEMPAE_clean_linker_10, # of connection points: 2
#     Edge 8, Type (0, 0), BuildingBlock: TEMPAE_clean_linker_10, # of connection points: 2
#     Edge 9, Type (0, 0), BuildingBlock: TEMPAE_clean_linker_10, # of connection points: 2
#     Edge 10, Type (0, 0), BuildingBlock: TEMPAE_clean_linker_10, # of connection points: 2
#     Edge 11, Type (0, 0), BuildingBlock: TEMPAE_clean_linker_10, # of connection points: 2
#     Edge 12, Type (0, 0), BuildingBlock: TEMPAE_clean_linker_10, # of connection points: 2
#     Edge 13, Type (0, 0), BuildingBlock: TEMPAE_clean_linker_10, # of connection points: 2
#     Edge 14, Type (0, 0), BuildingBlock: TEMPAE_clean_linker_10, # of connection points: 2
#     Edge 15, Type (0, 0), BuildingBlock: TEMPAE_clean_linker_10, # of connection points: 2
#     Edge 16, Type (0, 0), BuildingBlock: TEMPAE_clean_linker_10, # of connection points: 2
#     Edge 17, Type (0, 0), BuildingBlock: TEMPAE_clean_linker_10, # of connection points: 2
#     Edge 18, Type (0, 0), BuildingBlock: TEMPAE_clean_linker_10, # of connection points: 2
#     Edge 19, Type (0, 0), BuildingBlock: TEMPAE_clean_linker_10, # of connection points: 2
#     Edge 20, Type (0, 0), BuildingBlock: TEMPAE_clean_linker_10, # of connection points: 2
#     Edge 21, Type (0, 0), BuildingBlock: TEMPAE_clean_linker_10, # of connection points: 2
#     Edge 22, Type (0, 0), BuildingBlock: TEMPAE_clean_linker_10, # of connection points: 2
#     Edge 23, Type (0, 0), BuildingBlock: TEMPAE_clean_linker_10, # of connection points: 2
# Relax obj value: 0.698
# Max RMSD: 0.255
# Mean RMSD: 0.255
data_MOF--net-rkf--node1-NUHQIS_clean_sbu_0--edge1-TEMPAE_clean_linker_10
_symmetry_space_group_name_H-M    P1
_symmetry_Int_Tables_number       1
_symmetry_cell_setting            triclinic
loop_
_symmetry_equiv_pos_as_xyz
'x, y, z'
_cell_length_a     25.576937
_cell_length_b     26.175372
_cell_length_c     43.657308
_cell_angle_alpha  91.04803
_cell_angle_beta   89.479264
_cell_angle_gamma 119.71225
loop_
_atom_site_label
_atom_site_type_symbol
_atom_site_fract_x
_atom_site_fract_y
_atom_site_fract_z
_atom_type_partial_charge
Tb0 Tb 0.29218 0.14158 0.18934 0.0
Eu1 Eu 0.40641 0.2691 0.1741 0.0
C2 C 0.27671 0.23376 1.15183 0.0
C3 C 0.34621 0.16386 1.1213 0.0
C4 C 0.18953 -0.00908 0.21894 0.0
C5 C 0.22209 0.92788 0.24225 0.0
C6 C 0.23556 -0.02125 0.22625 0.0
C7 C 0.13013 0.95176 0.22734 0.0
C8 C 0.11671 0.90123 0.24341 0.0
C9 C 0.1626 0.88912 0.25126 0.0
C10 C 0.20203 0.04332 0.20193 0.0
O11 O 0.36916 0.12807 0.19168 0.0
O12 O 0.43972 0.22225 0.20426 0.0
O13 O 0.36014 0.28019 0.21686 0.0
O14 O 0.32182 0.18679 0.23403 0.0
C15 C 0.42284 0.16628 0.20178 0.0
O16 O 0.50232 0.32289 1.16497 0.0
O17 O 0.44799 0.36466 0.17233 0.0
O18 O 0.33275 0.25936 1.14282 0.0
O19 O 0.25971 0.2012 0.17641 0.0
O20 O 0.29997 0.13502 1.1397 0.0
O21 O 0.39441 0.21346 1.1303 0.0
C22 C 0.33606 0.24198 0.23913 0.0
O23 O 0.21787 0.09124 0.21787 0.0
O24 O 0.23468 0.05322 0.17747 0.0
C25 C 0.52856 0.40937 1.13777 0.0
C26 C 0.56342 0.47939 1.08534 0.0
C27 C 0.56994 0.50533 1.11455 0.0
C28 C 0.5526 0.47042 1.14064 0.0
C29 C 0.52624 0.38411 1.10889 0.0
C30 C 0.54389 0.41886 1.08294 0.0
C31 C 0.50057 0.37191 1.16435 0.0
H32 H 0.25822 0.91968 0.24832 0.0
H33 H 0.28175 0.0087 0.21976 0.0
H34 H 0.09412 0.9604 0.22159 0.0
H35 H 0.07043 0.87175 0.24993 0.0
H36 H 0.58478 0.55181 1.11703 0.0
H37 H 0.55482 0.49058 1.16285 0.0
H38 H 0.50751 0.337 1.10612 0.0
H39 H 0.53708 0.39718 1.06078 0.0
Tb40 Tb 0.25434 0.32081 0.52188 0.0
Eu41 Eu 0.20012 0.40627 0.50811 0.0
C42 C 0.1219 0.2706 0.51428 0.0
C43 C 0.25236 0.35752 0.45383 0.0
C44 C 0.33255 0.24459 0.55138 0.0
C45 C 0.35615 0.18213 0.58165 0.0
C46 C 0.31859 0.18853 0.56099 0.0
C47 C 0.38452 0.29435 0.56263 0.0
C48 C 0.42235 0.28792 0.58307 0.0
C49 C 0.40833 0.23179 0.59284 0.0
C50 C 0.29325 0.25039 0.52921 0.0
O51 O 0.32114 0.40425 0.54017 0.0
O52 O 0.30249 0.46123 0.50796 0.0
O53 O 0.20352 0.40822 0.56027 0.0
O54 O 0.22252 0.33186 0.56779 0.0
C55 C 0.33924 0.45337 0.52567 0.0
O56 O 0.20923 0.49343 0.50225 0.0
O57 O 0.12231 0.41485 0.49732 0.0
O58 O 0.12736 0.3189 0.52638 0.0
O59 O 0.16806 0.27572 0.49902 0.0
O60 O 0.28512 0.35346 0.47565 0.0
O61 O 0.20863 0.36866 0.46118 0.0
C62 C 0.20626 0.36983 0.57849 0.0
O63 O 0.24115 0.24095 0.53933 0.0
O64 O 0.31908 0.29646 0.5119 0.0
C65 C 0.14062 0.49494 0.46604 0.0
C66 C 0.12018 0.53524 0.41018 0.0
C67 C 0.16793 0.57359 0.42947 0.0
C68 C 0.17802 0.55359 0.4572 0.0
C69 C 0.09096 0.45793 0.44763 0.0
C70 C 0.08119 0.47758 0.42008 0.0
C71 C 0.1531 0.47175 0.49405 0.0
H72 H 0.34458 0.13835 0.5888 0.0
H73 H 0.27868 0.14976 0.5525 0.0
H74 H 0.3959 0.33819 0.55566 0.0
H75 H 0.46185 0.32684 0.59173 0.0
H76 H 0.19839 0.61845 0.42279 0.0
H77 H 0.21591 0.58352 0.47131 0.0
H78 H 0.06048 0.41279 0.45388 0.0
H79 H 0.04466 0.44596 0.4058 0.0
Tb80 Tb 0.03941 0.28264 0.86586 0.0
Eu81 Eu 0.90958 0.26643 0.84562 0.0
C82 C 0.94574 0.17269 0.83001 0.0
C83 C 0.01898 0.30747 0.79525 0.0
C84 C 0.1916 0.31933 0.89484 0.0
C85 C 0.28242 0.32977 0.91734 0.0
C86 C 0.22835 0.29563 0.90187 0.0
C87 C 0.20956 0.37784 0.90303 0.0
C88 C 0.26391 0.41221 0.91847 0.0
C89 C 0.30042 0.38815 0.92601 0.0
C90 C 0.13598 0.28294 0.87792 0.0
O91 O 0.05644 0.372 0.87453 0.0
O92 O -0.03174 0.36266 0.8553 0.0
O93 O 0.89847 0.22426 0.89296 0.0
O94 O -0.00422 0.27566 0.90999 0.0
C95 C 0.02242 0.3944 0.8668 0.0
O96 O 0.84829 0.30183 0.84788 0.0
O97 O 0.81711 0.21446 0.82908 0.0
O98 O 0.92123 0.20046 0.8175 0.0
O99 O -0.02787 0.19109 0.85663 0.0
O100 O 0.05021 0.29892 0.81639 0.0
O101 O -0.03517 0.30035 0.80125 0.0
C102 C 0.93826 0.23988 0.91538 0.0
O103 O 0.08693 0.25499 0.89394 0.0
O104 O 0.128 0.30702 0.85399 0.0
C105 C 0.78736 0.27391 0.80382 0.0
C106 C 0.77079 0.2788 0.74104 0.0
C107 C 0.82097 0.32491 0.75564 0.0
C108 C 0.82949 0.32233 0.78692 0.0
C109 C 0.73255 0.23329 0.79018 0.0
C110 C 0.72414 0.23593 0.7588 0.0
C111 C 0.80647 0.25819 0.83206 0.0
H112 H 0.31005 0.31041 0.92275 0.0
H113 H 0.21517 0.25065 0.89543 0.0
H114 H 0.18151 0.39673 0.89759 0.0
H115 H 0.2766 0.45689 0.92525 0.0
H116 H 0.8577 0.35788 0.74223 0.0
H117 H 0.87219 0.35439 0.79692 0.0
H118 H 0.6995 0.19576 0.80285 0.0
H119 H 0.68545 0.19955 0.74779 0.0
Tb120 Tb 0.87279 0.06975 0.20021 0.0
Eu121 Eu 0.75841 0.94359 0.17843 0.0
C122 C 0.89011 -0.02076 1.16312 0.0
C123 C 0.82734 0.05524 1.13015 0.0
C124 C -0.00368 0.22624 0.2149 0.0
C125 C 0.08836 0.31845 0.22376 0.0
C126 C 0.05905 0.258 0.21793 0.0
C127 C -0.03616 0.25653 0.21449 0.0
C128 C -0.00688 0.31706 0.22075 0.0
C129 C 0.05504 0.34767 0.2274 0.0
C130 C -0.03427 0.16198 0.21763 0.0
O131 O 0.79775 0.08635 0.19726 0.0
O132 O 0.72253 -0.00744 0.20649 0.0
O133 O 0.79608 0.92595 0.22193 0.0
O134 O 0.84329 0.01908 0.24254 0.0
C135 C 0.74203 0.04916 0.20499 0.0
O136 O 0.67102 0.88991 1.15594 0.0
O137 O 0.71017 0.84881 0.18309 0.0
O138 O 0.83723 0.95517 1.15028 0.0
O139 O 0.89601 0.00172 0.19067 0.0
O140 O 0.86603 0.08741 1.15184 0.0
O141 O 0.7827 0.00101 1.13533 0.0
C142 C 0.8228 0.96224 0.24526 0.0
O143 O 0.91494 0.13756 0.2327 0.0
O144 O -0.03594 0.13122 0.19345 0.0
C145 C 0.65394 0.796 1.14004 0.0
C146 C 0.63069 0.715 1.09167 0.0
C147 C 0.58417 0.72338 1.10357 0.0
C148 C 0.59573 0.76353 1.12776 0.0
C149 C 0.69981 0.78633 1.12876 0.0
C150 C 0.68824 0.74608 1.10503 0.0
C151 C 0.6673 0.8405 1.16422 0.0
H152 H 0.13622 0.34119 0.22855 0.0
H153 H 0.08491 0.23542 0.21827 0.0
H154 H 0.91532 0.23276 0.21195 0.0
H155 H -0.03371 0.3384 0.22354 0.0
H156 H 0.53958 0.70038 1.09355 0.0
H157 H 0.55973 0.77035 1.13632 0.0
H158 H 0.74523 0.81111 1.1377 0.0
H159 H 0.72565 0.74212 1.09595 0.0
Tb160 Tb 0.87247 0.8513 0.52153 0.0
Eu161 Eu 0.92143 0.76086 0.50717 0.0
C162 C 0.01146 0.8965 0.52498 0.0
C163 C 0.89849 0.83338 0.4534 0.0
C164 C 0.82259 0.96116 0.54566 0.0
C165 C 0.79626 -0.00048 0.59045 0.0
C166 C 0.803 0.95508 0.57616 0.0
C167 C 0.83701 0.01298 0.53003 0.0
C168 C 0.83053 0.05752 0.54437 0.0
C169 C 0.80877 0.05052 0.57445 0.0
C170 C 0.82174 0.91204 0.52848 0.0
O171 O 0.80332 0.76903 0.50235 0.0
O172 O 0.8292 0.71307 0.52902 0.0
O173 O 0.93999 0.7789 0.55797 0.0
O174 O 0.89583 0.83598 0.56832 0.0
C175 C 0.78736 0.72046 0.51659 0.0
O176 O 0.89508 0.6698 0.49584 0.0
O177 O -0.01067 0.734 0.50127 0.0
O178 O 0.0061 0.85038 0.50962 0.0
O179 O -0.03464 0.90259 0.53323 0.0
O180 O 0.90566 0.87178 0.47494 0.0
O181 O 0.89642 0.78348 0.4605 0.0
C182 C 0.92598 0.80952 0.57734 0.0
O183 O 0.86686 0.92545 0.51 0.0
O184 O 0.80434 0.86228 0.54243 0.0
C185 C -0.03531 0.65784 0.4653 0.0
C186 C 0.00669 0.63185 0.4108 0.0
C187 C -0.03745 0.64903 0.41 0.0
C188 C 0.942 0.66221 0.43699 0.0
C189 C 0.00546 0.63674 0.46643 0.0
C190 C 0.02642 0.62381 0.43932 0.0
C191 C 0.9503 0.68017 0.49327 0.0
H192 H 0.78063 -0.00625 0.61395 0.0
H193 H 0.79143 0.91556 0.58872 0.0
H194 H 0.85145 0.01825 0.50632 0.0
H195 H 0.8405 0.09644 0.53161 0.0
H196 H 0.94735 0.65696 0.38844 0.0
H197 H 0.91076 0.67877 0.43563 0.0
H198 H 0.02327 0.63303 0.48819 0.0
H199 H 0.06042 0.61071 0.44057 0.0
Tb200 Tb 0.12486 0.92951 0.85825 0.0
Eu201 Eu 0.25667 0.95361 0.83399 0.0
C202 C 0.21084 0.04099 0.82184 0.0
C203 C 0.14147 0.90449 0.78659 0.0
C204 C -0.02929 0.88356 0.88956 0.0
C205 C 0.88049 0.86897 0.91537 0.0
C206 C 0.93345 0.90533 0.89975 0.0
C207 C 0.95394 0.82449 0.89437 0.0
C208 C 0.90064 0.78786 0.91001 0.0
C209 C 0.86415 0.81026 0.92108 0.0
C210 C 0.02636 0.92332 0.87371 0.0
O211 O 0.11552 0.84284 0.86446 0.0
O212 O 0.2126 0.86304 0.85359 0.0
O213 O 0.26743 0.00027 0.88071 0.0
O214 O 0.17399 0.94215 0.90083 0.0
C215 C 0.157 0.82697 0.86221 0.0
O216 O 0.32081 0.93777 0.80752 0.0
O217 O 0.35244 0.0045 0.84335 0.0
O218 O 0.23873 0.0166 0.80836 0.0
O219 O 0.18552 0.02202 0.84851 0.0
O220 O 0.10899 0.90738 0.80939 0.0
O221 O 0.19865 0.9191 0.79035 0.0
C222 C 0.23078 -0.01768 0.90453 0.0
O223 O 0.075 0.94915 0.89022 0.0
O224 O 0.03549 0.90415 0.84773 0.0
C225 C 0.41573 0.02311 0.80103 0.0
C226 C 0.50668 0.10381 0.76222 0.0
C227 C 0.50561 0.05156 0.77038 0.0
C228 C 0.46051 0.01158 0.78983 0.0
C229 C 0.41754 0.07571 0.79348 0.0
C230 C 0.46263 0.11571 0.77448 0.0
C231 C 0.36764 -0.01899 0.82092 0.0
H232 H 0.85286 0.88705 0.92362 0.0
H233 H 0.94574 0.95075 0.89601 0.0
H234 H -0.01757 0.80713 0.88647 0.0
H235 H 0.88914 0.7429 0.91449 0.0
H236 H 0.53855 0.04096 0.76108 0.0
H237 H 0.4599 -0.02877 0.79565 0.0
H238 H 0.38331 0.08543 0.80181 0.0
H239 H 0.46079 0.15457 0.76808 0.0
C240 C 0.94645 0.02567 1.1155 0.0
C241 C 0.94479 0.00226 1.14434 0.0
C242 C 0.00119 0.06924 1.10323 0.0
C243 C 0.05497 0.08803 1.11992 0.0
C244 C 0.05373 0.05787 1.14684 0.0
C245 C -0.00146 0.01549 1.15875 0.0
C246 C -0.00037 0.09918 1.07448 0.0
C247 C 0.10983 0.07448 1.1651 0.0
C248 C 0.21809 0.184 1.10599 0.0
C249 C 0.22889 0.22373 1.13025 0.0
C250 C 0.15886 0.14221 1.09796 0.0
C251 C 0.1108 0.14408 1.11312 0.0
C252 C 0.12299 0.19436 1.13114 0.0
C253 C 0.18225 0.2327 1.14056 0.0
C254 C 0.14807 0.09081 1.07758 0.0
C255 C 0.07339 0.20089 1.14601 0.0
H256 H 0.90474 0.01466 1.10402 0.0
H257 H -0.00297 -0.00342 0.18088 0.0
H258 H -0.01123 0.13415 1.08073 0.0
H259 H 0.04332 0.11961 1.06219 0.0
H260 H -0.03631 0.06743 1.05886 0.0
H261 H 0.14581 0.07634 1.14999 0.0
H262 H 0.12655 0.11854 0.1759 0.0
H263 H 0.10097 0.04265 0.18358 0.0
H264 H 0.25481 0.17906 1.09698 0.0
H265 H 0.19075 0.26444 1.15889 0.0
H266 H 0.19043 0.09725 1.06692 0.0
H267 H 0.11526 0.08426 1.05936 0.0
H268 H 0.1286 0.05 1.09118 0.0
H269 H 0.08728 0.24805 1.14966 0.0
H270 H 0.06456 0.18007 0.16871 0.0
H271 H 0.03135 0.17935 1.13231 0.0
C272 C 0.06738 0.96312 0.56572 0.0
C273 C 0.06969 0.94424 0.53573 0.0
C274 C 0.07226 0.01843 0.57022 0.0
C275 C 0.09597 0.05935 0.5461 0.0
C276 C 0.12125 0.04572 0.52019 0.0
C277 C 0.10504 -0.01324 0.51443 0.0
C278 C 0.04499 0.02855 0.59894 0.0
C279 C 0.15876 0.09106 0.49674 0.0
C280 C 0.05265 0.16387 0.51184 0.0
C281 C 0.08656 0.21429 0.52974 0.0
C282 C 0.04749 0.11013 0.52018 0.0
C283 C 0.08401 0.10935 0.54438 0.0
C284 C 0.11216 0.15864 0.5645 0.0
C285 C 0.1076 0.20855 0.55819 0.0
C286 C 0.0064 0.05577 0.50158 0.0
C287 C 0.15109 0.1619 0.59116 0.0
H288 H 0.04506 0.93018 0.58311 0.0
H289 H 0.11217 -0.02663 0.49185 0.0
H290 H 0.07902 0.04475 0.61754 0.0
H291 H 0.029 0.06045 0.59578 0.0
H292 H 0.00613 -0.01308 0.60683 0.0
H293 H 0.13223 0.08351 0.47552 0.0
H294 H 0.17505 0.13666 0.50528 0.0
H295 H 0.19829 0.08627 0.4904 0.0
H296 H 0.03391 0.16723 0.49028 0.0
H297 H 0.12847 0.24595 0.57343 0.0
H298 H -0.03429 0.0573 0.49429 0.0
H299 H -0.00809 0.01504 0.51474 0.0
H300 H 0.02976 0.05376 0.48048 0.0
H301 H 0.12469 0.15297 0.61264 0.0
H302 H 0.19052 0.20676 0.5937 0.0
H303 H 0.16814 0.13048 0.58881 0.0
C304 C 0.15449 0.04838 0.77831 0.0
C305 C 0.19034 0.07483 0.80424 0.0
C306 C 0.11004 0.06204 0.77 0.0
C307 C 0.10403 0.10501 0.78734 0.0
C308 C 0.14831 0.1396 0.80955 0.0
C309 C 0.19005 0.1229 0.81837 0.0
C310 C 0.06493 0.02456 0.7458 0.0
C311 C 0.14611 0.18846 0.82734 0.0
C312 C -0.00609 0.15988 0.78355 0.0
C313 C -0.03656 0.13693 0.81112 0.0
C314 C 0.03635 0.14485 0.77265 0.0
C315 C 0.04551 0.10384 0.78902 0.0
C316 C 0.00583 0.07223 0.81323 0.0
C317 C -0.03374 0.09042 0.8246 0.0
C318 C 0.07666 0.17906 0.74653 0.0
C319 C 0.01116 0.02522 0.83011 0.0
H320 H 0.15565 0.01186 0.76699 0.0
H321 H 0.21841 0.14374 0.83823 0.0
H322 H 0.02916 -0.01613 0.75646 0.0
H323 H 0.04336 0.04757 0.73509 0.0
H324 H 0.0867 0.01112 0.72769 0.0
H325 H 0.19013 0.21869 0.83827 0.0
H326 H 0.1336 0.2144 0.81231 0.0
H327 H 0.11166 0.16917 0.84567 0.0
H328 H -0.00945 0.19499 0.7727 0.0
H329 H 0.94182 0.07205 0.84568 0.0
H330 H 0.05336 0.19479 0.73121 0.0
H331 H 0.09162 0.15237 0.73298 0.0
H332 H 0.11728 0.21822 0.75584 0.0
H333 H -0.03046 -0.00332 0.84319 0.0
H334 H 0.04924 0.04628 0.84654 0.0
H335 H 0.02014 -0.00278 0.81399 0.0
C336 C 0.52645 0.537 1.05757 0.0
C337 C 0.56228 0.51021 1.05751 0.0
C338 C 0.50037 0.54114 1.03038 0.0
C339 C 0.50905 0.51604 1.00324 0.0
C340 C 0.55561 0.50183 1.00199 0.0
C341 C 0.58182 0.49877 1.02942 0.0
C342 C 0.45511 0.56208 1.03191 0.0
C343 C 0.56963 0.47934 0.97284 0.0
C344 C 0.36272 0.39548 0.97063 0.0
C345 C 0.35483 0.42191 0.94492 0.0
C346 C 0.41307 0.42582 0.98942 0.0
C347 C 0.45709 0.48442 0.98224 0.0
C348 C 0.44949 0.51147 0.95617 0.0
C349 C 0.39811 0.47976 0.93777 0.0
C350 C 0.41843 0.39478 1.01714 0.0
C351 C 0.49553 0.57292 0.947 0.0
H352 H 0.51257 0.54791 1.07909 0.0
H353 H 0.61169 0.48047 1.02918 0.0
H354 H 0.45609 0.58504 1.01062 0.0
H355 H 0.40927 0.52356 1.0344 0.0
H356 H 0.46382 0.59231 1.05182 0.0
H357 H 0.61728 0.48953 0.97261 0.0
H358 H 0.5405 0.43081 0.97139 0.0
H359 H 0.56096 0.49859 0.95239 0.0
H360 H 0.32872 0.35102 0.97635 0.0
H361 H 0.39216 0.49996 0.91762 0.0
H362 H 0.42211 0.4204 1.03833 0.0
H363 H 0.45954 0.39081 1.0153 0.0
H364 H 0.37921 0.34985 1.01967 0.0
H365 H 0.47337 0.5959 0.93678 0.0
H366 H 0.52549 0.57019 0.92929 0.0
H367 H 0.52372 0.59966 0.96652 0.0
C368 C 0.05855 0.52335 0.36375 0.0
C369 C 0.11511 0.55047 0.37807 0.0
C370 C 0.05371 0.51355 0.33203 0.0
C371 C 0.10681 0.5326 0.31456 0.0
C372 C 0.16274 0.57328 0.32781 0.0
C373 C 0.16676 0.58072 0.3598 0.0
C374 C -0.00775 0.4749 0.31826 0.0
C375 C 0.21951 0.60143 0.30898 0.0
C376 C 0.10594 0.40378 0.27424 0.0
C377 C 0.08034 0.40274 0.24591 0.0
C378 C 0.11774 0.44779 0.29605 0.0
C379 C 0.10562 0.4937 0.28899 0.0
C380 C 0.08446 0.49566 0.25935 0.0
C381 C 0.07103 0.44942 0.23826 0.0
C382 C 0.13853 0.44176 0.32749 0.0
C383 C 0.07358 0.54465 0.24977 0.0
H384 H 0.01807 0.50403 0.37762 0.0
H385 H 0.21088 0.60456 0.37028 0.0
H386 H -0.0125 0.4942 0.2968 0.0
H387 H -0.01345 0.43091 0.31253 0.0
H388 H 0.9556 0.46906 0.33417 0.0
H389 H 0.2502 0.64688 0.31754 0.0
H390 H 0.24336 0.57599 0.31112 0.0
H391 H 0.20963 0.60288 0.28438 0.0
H392 H 0.11233 0.36729 0.28042 0.0
H393 H 0.05153 0.44888 0.21622 0.0
H394 H 0.10721 0.44127 0.34538 0.0
H395 H 0.18383 0.47953 0.3324 0.0
H396 H 0.14123 0.4009 0.32958 0.0
H397 H 0.02618 0.52602 0.24215 0.0
H398 H 0.10262 0.56723 0.2298 0.0
H399 H 0.08294 0.5777 0.2682 0.0
C400 C 0.75778 0.27179 0.68379 0.0
C401 C 0.78014 0.2608 0.71047 0.0
C402 C 0.76412 0.24888 0.65546 0.0
C403 C 0.79111 0.21291 0.65456 0.0
C404 C 0.81573 0.20406 0.68149 0.0
C405 C 0.81036 0.22864 0.70902 0.0
C406 C 0.73932 0.26058 0.62695 0.0
C407 C 0.84426 0.1654 0.6818 0.0
C408 C 0.74551 0.07877 0.60599 0.0
C409 C 0.79854 0.0958 0.58937 0.0
C410 C 0.73925 0.11917 0.62477 0.0
C411 C 0.78741 0.17771 0.62698 0.0
C412 C 0.83798 0.19671 0.6075 0.0
C413 C 0.84312 0.15524 0.58886 0.0
C414 C 0.68392 0.09756 0.64469 0.0
C415 C 0.8888 0.25955 0.60839 0.0
H416 H 0.73463 0.29702 0.68516 0.0
H417 H 0.82767 0.22062 0.72992 0.0
H418 H 0.73827 0.30239 0.62919 0.0
H419 H 0.76623 0.26292 0.60642 0.0
H420 H 0.69278 0.22397 0.62315 0.0
H421 H 0.86769 0.16926 0.70376 0.0
H422 H 0.80889 0.11876 0.67838 0.0
H423 H 0.8772 0.17679 0.66287 0.0
H424 H 0.71012 0.03308 0.6055 0.0
H425 H 0.88372 0.16857 0.57554 0.0
H426 H 0.66815 0.13009 0.64564 0.0
H427 H 0.69521 0.09181 0.66841 0.0
H428 H 0.64651 0.05473 0.6363 0.0
H429 H 0.8711 0.28982 0.6041 0.0
H430 H 0.9243 0.26763 0.59121 0.0
H431 H 0.90955 0.27057 0.63145 0.0
C432 C 0.6565 0.65371 1.05742 0.0
C433 C 0.62429 0.68366 1.06217 0.0
C434 C 0.67778 0.65071 1.02818 0.0
C435 C 0.66695 0.67905 1.00385 0.0
C436 C 0.62248 0.69583 1.00725 0.0
C437 C 0.60162 0.69835 1.03672 0.0
C438 C 0.72062 0.62713 1.02459 0.0
C439 C 0.60617 0.72209 0.98112 0.0
C440 C 0.81007 0.79962 0.96968 0.0
C441 C 0.81279 0.77518 0.94143 0.0
C442 C 0.76273 0.76846 0.98993 0.0
C443 C 0.71617 0.71118 0.98157 0.0
C444 C 0.71848 0.68613 0.95291 0.0
C445 C 0.76744 0.71834 0.93323 0.0
C446 C 0.76342 0.79715 1.02047 0.0
C447 C 0.67043 0.62553 0.94286 0.0
H448 H 0.67132 0.63926 1.07698 0.0
H449 H 0.57491 0.71973 1.04 0.0
H450 H 0.71311 0.60336 1.00234 0.0
H451 H 0.76761 0.66434 1.02494 0.0
H452 H 0.71533 0.59692 1.04341 0.0
H453 H 0.55946 0.71408 0.98374 0.0
H454 H 0.6371 0.77039 0.98112 0.0
H455 H 0.61041 0.70368 0.95872 0.0
H456 H 0.84586 0.84319 0.97617 0.0
H457 H 0.7698 0.69944 0.9113 0.0
H458 H 0.76282 0.76929 1.03945 0.0
H459 H 0.72298 0.80218 1.02272 0.0
H460 H 0.80378 0.84138 1.02337 0.0
H461 H 0.68718 0.59419 0.94616 0.0
H462 H 0.66063 0.62485 0.91808 0.0
H463 H 0.628 0.60988 0.95592 0.0
C464 C 0.00949 0.61719 0.35427 0.0
C465 C 0.04015 0.63559 0.38232 0.0
C466 C 0.03891 0.64365 0.32699 0.0
C467 C 0.09919 0.68991 0.3284 0.0
C468 C 0.13323 0.69814 0.35518 0.0
C469 C 0.10302 0.67122 0.38222 0.0
C470 C 0.00276 0.62952 0.29792 0.0
C471 C 0.19928 0.74295 0.35661 0.0
C472 C 0.16821 0.79842 0.26315 0.0
C473 C 0.14841 0.83833 0.27073 0.0
C474 C 0.15294 0.74943 0.28154 0.0
C475 C 0.11757 0.74091 0.30813 0.0
C476 C 0.09876 0.7822 0.31609 0.0
C477 C 0.11424 0.83005 0.29721 0.0
C478 C 0.1743 0.7073 0.27176 0.0
C479 C 0.06191 0.77613 0.34453 0.0
H480 H -0.0387 0.58727 0.35407 0.0
H481 H 0.12766 0.68412 0.40365 0.0
H482 H -0.01754 0.65834 0.2966 0.0
H483 H 0.03169 0.63737 0.27745 0.0
H484 H -0.03432 0.58308 0.29756 0.0
H485 H 0.22167 0.73461 0.37604 0.0
H486 H 0.22212 0.74247 0.33496 0.0
H487 H 0.20465 0.78749 0.35979 0.0
H488 H 0.19465 0.80483 0.24255 0.0
H489 H 0.09992 0.86159 0.30333 0.0
H490 H 0.16487 0.67307 0.28888 0.0
H491 H 0.22351 0.732 0.26733 0.0
H492 H 0.15206 0.68542 0.24987 0.0
H493 H 0.01719 0.73584 0.34261 0.0
H494 H 0.05458 0.81423 0.3482 0.0
H495 H 0.08467 0.77217 0.36511 0.0
C496 C 0.56502 0.20136 0.73751 0.0
C497 C 0.54503 0.14079 0.7369 0.0
C498 C 0.56829 0.23035 0.7103 0.0
C499 C 0.55233 0.1977 0.6825 0.0
C500 C 0.5493 0.14231 0.68132 0.0
C501 C 0.54477 0.11364 0.70885 0.0
C502 C 0.57736 0.29175 0.71207 0.0
C503 C 0.53911 0.10906 0.65142 0.0
C504 C 0.41938 0.19005 0.64125 0.0
C505 C 0.4464 0.22499 0.61576 0.0
C506 C 0.4539 0.18225 0.6633 0.0
C507 C 0.51735 0.20963 0.65958 0.0
C508 C 0.54506 0.24618 0.63414 0.0
C509 C 0.50914 0.25347 0.61248 0.0
C510 C 0.4219 0.14446 0.69058 0.0
C511 C 0.61202 0.27708 0.62896 0.0
H512 H 0.56894 0.22356 0.7593 0.0
H513 H 0.5321 0.06752 0.70806 0.0
H514 H 0.60187 0.3172 0.69162 0.0
H515 H 0.53276 0.28927 0.71278 0.0
H516 H 0.60272 0.31555 0.73302 0.0
H517 H 0.5507 0.07356 0.65324 0.0
H518 H 0.49091 0.08861 0.64494 0.0
H519 H 0.56635 0.13942 0.63292 0.0
H520 H 0.37096 0.16915 0.64408 0.0
H521 H 0.53012 0.28067 0.5927 0.0
H522 H 0.44159 0.16948 0.71216 0.0
H523 H 0.4274 0.105 0.69044 0.0
H524 H 0.37293 0.12935 0.69069 0.0
H525 H 0.6374 0.27529 0.64895 0.0
H526 H 0.6287 0.32391 0.62341 0.0
H527 H 0.62155 0.25658 0.60878 0.0
C528 C 0.46394 0.09934 0.19035 0.0
C529 C 0.46736 0.14697 0.20724 0.0
C530 C 0.50944 0.0844 0.19231 0.0
C531 C 0.55868 0.1167 0.21239 0.0
C532 C 0.5609 0.1631 0.2306 0.0
C533 C 0.51571 0.17837 0.22741 0.0
C534 C 0.50604 0.03561 0.1719 0.0
C535 C 0.61154 0.19726 0.25302 0.0
C536 C 0.64945 0.04127 0.22931 0.0
C537 C 0.69863 0.07042 0.20951 0.0
C538 C 0.60511 0.05796 0.23174 0.0
C539 C 0.60901 0.10344 0.21308 0.0
C540 C 0.65927 0.1337 0.19346 0.0
C541 C 0.70397 0.11742 0.19229 0.0
C542 C 0.55336 0.02596 0.25368 0.0
C543 C 0.66439 0.18134 0.17258 0.0
H544 H 0.42699 0.07534 0.17448 0.0
H545 H 0.51831 0.21505 0.24061 0.0
H546 H 0.54571 0.05338 1.15645 0.0
H547 H 0.50724 0.0013 0.18591 0.0
H548 H 0.46458 0.01458 1.15768 0.0
H549 H 0.60361 0.22802 0.26758 0.0
H550 H 0.61724 0.16664 0.26807 0.0
H551 H 0.65442 0.22304 0.24042 0.0
H552 H 0.64548 0.00515 0.24281 0.0
H553 H 0.74167 0.13965 0.17674 0.0
H554 H 0.51112 -0.001 0.24064 0.0
H555 H 0.54697 0.05794 0.26797 0.0
H556 H 0.56048 -0.00348 0.26899 0.0
H557 H 0.6261 0.16258 1.15624 0.0
H558 H 0.70705 0.20164 1.1593 0.0
H559 H 0.66188 0.21636 0.18607 0.0
C560 C 0.42978 0.55434 0.52919 0.0
C561 C 0.40461 0.49367 0.5246 0.0
C562 C 0.49273 0.59119 0.52943 0.0
C563 C 0.53061 0.56667 0.52384 0.0
C564 C 0.50488 0.50545 0.51857 0.0
C565 C 0.44229 0.46969 0.51945 0.0
C566 C 0.51874 0.65615 0.53587 0.0
C567 C 0.54333 0.47775 0.5114 0.0
C568 C 0.6867 0.66739 0.49251 0.0
C569 C 0.72302 0.67644 0.51814 0.0
C570 C 0.62413 0.63117 0.49399 0.0
C571 C 0.59706 0.605 0.52212 0.0
C572 C 0.63365 0.61389 0.54812 0.0
C573 C 0.69656 0.64892 0.54568 0.0
C574 C 0.58704 0.62109 0.46545 0.0
C575 C 0.60621 0.5877 0.57865 0.0
H576 H 0.40041 0.57259 0.53334 0.0
H577 H 0.42255 0.42268 0.5155 0.0
H578 H 0.55093 0.67006 0.55527 0.0
H579 H 0.54419 0.68163 0.51564 0.0
H580 H 0.48339 0.66771 0.54152 0.0
H581 H 0.51603 0.42938 0.50769 0.0
H582 H 0.57042 0.49756 0.49049 0.0
H583 H 0.57534 0.48656 0.5304 0.0
H584 H 0.70742 0.68896 0.47123 0.0
H585 H 0.72477 0.65698 0.56561 0.0
H586 H 0.55541 0.63807 0.46912 0.0
H587 H 0.55958 0.57324 0.46037 0.0
H588 H 0.61537 0.64294 0.44515 0.0
H589 H 0.57425 0.60272 0.58587 0.0
H590 H 0.64074 0.60008 0.59682 0.0
H591 H 0.58017 0.53904 0.57661 0.0
C592 C 0.02748 0.48534 0.84745 0.0
C593 C 0.04574 0.45864 0.86924 0.0
C594 C 0.04698 0.54566 0.84894 0.0
C595 C 0.0847 0.58032 0.87333 0.0
C596 C 0.103 0.55362 0.89565 0.0
C597 C 0.084 0.49308 0.89309 0.0
C598 C 0.02782 0.57238 0.82409 0.0
C599 C 0.14215 0.5889 0.92231 0.0
C600 C 0.17725 0.74314 0.85635 0.0
C601 C 0.14055 0.76493 0.86796 0.0
C602 C 0.16077 0.6837 0.85904 0.0
C603 C 0.1067 0.64489 0.87426 0.0
C604 C 0.07077 0.66704 0.88733 0.0
C605 C 0.08773 0.72667 0.88372 0.0
C606 C 0.19968 0.66187 0.84407 0.0
C607 C 0.01338 0.62732 0.90425 0.0
H608 H -0.00159 0.45902 0.82875 0.0
H609 H 0.09782 0.47246 0.91008 0.0
H610 H 0.00256 0.59285 0.83422 0.0
H611 H 0.06811 0.60767 0.81257 0.0
H612 H -0.00101 0.53939 0.80649 0.0
H613 H 0.15045 0.56125 0.93837 0.0
H614 H 0.1861 0.62424 0.91386 0.0
H615 H 0.12052 0.61056 0.93508 0.0
H616 H 0.21802 0.7721 0.84398 0.0
H617 H 0.05934 0.74313 0.89298 0.0
H618 H 0.17464 0.63127 0.82485 0.0
H619 H 0.21071 0.63698 0.86062 0.0
H620 H 0.24238 0.69831 0.83495 0.0
H621 H -0.02085 0.59596 0.88785 0.0
H622 H -0.0054 0.65244 0.91628 0.0
H623 H 0.02149 0.60102 0.92126 0.0
C624 C 0.34209 0.32035 0.27698 0.0
C625 C 0.32325 0.2609 0.27009 0.0
C626 C 0.32969 0.33841 0.30573 0.0
C627 C 0.29695 0.29632 0.3286 0.0
C628 C 0.27717 0.23618 0.32162 0.0
C629 C 0.29062 0.2194 0.2928 0.0
C630 C 0.3524 0.40296 0.31176 0.0
C631 C 0.24179 0.18923 0.34476 0.0
C632 C 0.3166 0.34248 0.41406 0.0
C633 C 0.26463 0.34621 0.42101 0.0
C634 C 0.32788 0.3276 0.38433 0.0
C635 C 0.28614 0.3152 0.36025 0.0
C636 C 0.23391 0.31972 0.36688 0.0
C637 C 0.22399 0.33536 0.39692 0.0
C638 C 0.38453 0.32435 0.37885 0.0
C639 C 0.18784 0.30709 0.34229 0.0
H640 H 0.36708 0.35319 0.2599 0.0
H641 H 0.27511 0.1733 0.28803 0.0
H642 H 0.38371 0.4184 0.33157 0.0
H643 H 0.3762 0.4303 0.29167 0.0
H644 H 0.31428 0.4101 0.31786 0.0
H645 H 0.26959 0.19677 0.36551 0.0
H646 H 0.20134 0.1916 0.35202 0.0
H647 H 0.22721 0.14428 0.3356 0.0
H648 H 0.34883 0.35079 0.43209 0.0
H649 H 0.18356 0.33769 0.40167 0.0
H650 H 0.4106 0.35335 0.3597 0.0
H651 H 0.37266 0.2788 0.37209 0.0
H652 H 0.41383 0.33751 0.39945 0.0
H653 H 0.20874 0.33891 0.32346 0.0
H654 H 0.14847 0.30989 0.35114 0.0
H655 H 0.17175 0.26248 0.3323 0.0
C656 C 0.17018 0.40676 0.62428 0.0
C657 C 0.18365 0.36487 0.61131 0.0
C658 C 0.14409 0.39986 0.6539 0.0
C659 C 0.12863 0.34874 0.67121 0.0
C660 C 0.14221 0.30643 0.65822 0.0
C661 C 0.17044 0.31558 0.62913 0.0
C662 C 0.13271 0.44741 0.66665 0.0
C663 C 0.12526 0.2502 0.67466 0.0
C664 C 0.10873 0.34713 0.75927 0.0
C665 C 0.04597 0.32154 0.76327 0.0
C666 C 0.13579 0.3573 0.72986 0.0
C667 C 0.09976 0.34021 0.70299 0.0
C668 C 0.03629 0.31464 0.70682 0.0
C669 C 0.01039 0.30606 0.73663 0.0
C670 C 0.20345 0.38651 0.72763 0.0
C671 C -0.00495 0.29406 0.67946 0.0
H672 H 0.17992 0.44528 0.6112 0.0
H673 H 0.18066 0.28286 0.62 0.0
H674 H 0.0837 0.42956 0.67009 0.0
H675 H 0.15464 0.46263 0.68939 0.0
H676 H 0.14985 0.48583 0.65132 0.0
H677 H 0.13863 0.22151 0.66176 0.0
H678 H 0.14696 0.26028 0.69751 0.0
H679 H 0.0758 0.2255 0.67818 0.0
H680 H 0.13724 0.35952 0.77938 0.0
H681 H -0.03808 0.28533 0.73904 0.0
H682 H 0.22564 0.40141 0.75034 0.0
H683 H 0.2209 0.42505 0.7124 0.0
H684 H 0.2165 0.35538 0.71735 0.0
H685 H 0.9497 0.28706 0.68542 0.0
H686 H -0.00967 0.25186 0.67077 0.0
H687 H 0.01367 0.32603 0.66059 0.0
C688 C 0.86077 0.19235 0.95837 0.0
C689 C 0.91934 0.21307 0.94684 0.0
C690 C 0.8436 0.1668 0.98786 0.0
C691 C 0.885 0.15943 1.0063 0.0
C692 C 0.94387 0.17961 0.9944 0.0
C693 C 0.9603 0.20652 0.96537 0.0
C694 C 0.78114 0.14839 0.99951 0.0
C695 C -0.01043 0.17144 1.01191 0.0
C696 C 0.86681 0.14224 1.09434 0.0
C697 C 0.83781 0.08091 1.09829 0.0
C698 C 0.88062 0.16784 1.06489 0.0
C699 C 0.86743 0.13193 1.03806 0.0
C700 C 0.83857 0.06989 1.0419 0.0
C701 C 0.82327 0.0453 1.07166 0.0
C702 C 0.90991 0.23381 1.06256 0.0
C703 C 0.82555 0.02934 1.01455 0.0
H704 H 0.82848 0.19702 0.94453 0.0
H705 H 0.00537 0.22123 0.95678 0.0
H706 H 0.75643 0.10042 1.00373 0.0
H707 H 0.78399 0.17101 1.0217 0.0
H708 H 0.75478 0.15871 0.98315 0.0
H709 H -0.00533 0.18978 1.03547 0.0
H710 H -0.02642 0.12373 1.01357 0.0
H711 H 0.03447 0.19277 1.0007 0.0
H712 H 0.87863 0.17063 1.11448 0.0
H713 H 0.80197 -0.00196 1.07412 0.0
H714 H 0.884 0.24548 1.04664 0.0
H715 H 0.95596 0.25185 1.05303 0.0
H716 H 0.91308 0.25545 1.08513 0.0
H717 H 0.79665 0.03553 0.99797 0.0
H718 H 0.80284 -0.01769 1.02106 0.0
H719 H 0.86828 0.04032 1.00263 0.0
C720 C 0.79596 0.88141 0.28417 0.0
C721 C 0.83379 0.93957 0.27471 0.0
C722 C 0.80603 0.86046 0.31204 0.0
C723 C 0.85646 0.8976 0.33077 0.0
C724 C 0.89584 0.95574 0.32073 0.0
C725 C 0.88359 -0.02389 0.29334 0.0
C726 C 0.76157 0.79888 0.32188 0.0
C727 C 0.95107 -0.00315 0.33908 0.0
C728 C 0.85409 0.87613 0.41778 0.0
C729 C 0.88646 0.84607 0.42143 0.0
C730 C 0.84263 0.89111 0.38867 0.0
C731 C 0.86553 0.87769 0.36187 0.0
C732 C 0.89823 0.84708 0.36527 0.0
C733 C 0.90744 0.83085 0.39485 0.0
C734 C 0.80597 0.92177 0.3867 0.0
C735 C 0.9253 0.83319 0.33775 0.0
H736 H 0.7574 0.85256 0.27013 0.0
H737 H 0.91387 0.02079 0.28624 0.0
H738 H 0.78506 0.7736 0.32591 0.0
H739 H 0.74038 0.8007 0.34387 0.0
H740 H 0.72555 0.77478 0.30461 0.0
H741 H -0.01974 0.03851 0.32694 0.0
H742 H 0.93747 0.00771 0.36136 0.0
H743 H -0.02217 -0.02486 0.34409 0.0
H744 H 0.8369 0.88765 0.43797 0.0
H745 H 0.93277 0.80802 0.39723 0.0
H746 H 0.76794 0.89764 0.37051 0.0
H747 H 0.83428 0.96673 0.37772 0.0
H748 H 0.78759 0.92531 0.40929 0.0
H749 H 0.94535 0.80546 0.34365 0.0
H750 H -0.03903 0.87482 0.32783 0.0
H751 H 0.89074 0.81019 0.31974 0.0
C752 C -0.02125 0.78745 0.61995 0.0
C753 C 0.95166 0.81952 0.60952 0.0
C754 C 0.00932 0.80027 0.64841 0.0
C755 C 0.01505 0.84763 0.66722 0.0
C756 C -0.01282 0.8798 0.65705 0.0
C757 C 0.95523 0.86481 0.62883 0.0
C758 C 0.03594 0.76304 0.65828 0.0
C759 C -0.00703 0.9317 0.67543 0.0
C760 C 0.0484 0.85036 0.75352 0.0
C761 C 0.11126 0.88731 0.75547 0.0
C762 C 0.01716 0.8369 0.72528 0.0
C763 C 0.04861 0.86208 0.69772 0.0
C764 C 0.11213 0.89987 0.69949 0.0
C765 C 0.14264 0.91129 0.72807 0.0
C766 C 0.95002 0.79558 0.72502 0.0
C767 C 0.14782 0.92944 0.67118 0.0
H768 H -0.02344 0.75216 0.60565 0.0
H769 H 0.93479 0.89011 0.62137 0.0
H770 H 0.08551 0.79067 0.66044 0.0
H771 H 0.01821 0.74432 0.68115 0.0
H772 H 0.02577 0.72636 0.64186 0.0
H773 H -0.01924 0.91977 0.69973 0.0
H774 H 0.04053 0.96764 0.67494 0.0
H775 H -0.03574 0.94871 0.66624 0.0
H776 H 0.0232 0.83156 0.77434 0.0
H777 H 0.19083 0.94085 0.7291 0.0
H778 H 0.93874 0.7582 0.70895 0.0
H779 H 0.92664 0.81882 0.71675 0.0
H780 H 0.93221 0.77782 0.74806 0.0
H781 H 0.14304 0.89584 0.65388 0.0
H782 H 0.19642 0.95861 0.67619 0.0
H783 H 0.12985 0.956 0.66079 0.0
C784 C 0.21307 0.02001 0.95515 0.0
C785 C 0.25213 0.01137 0.93563 0.0
C786 C 0.23196 0.04837 0.98414 0.0
C787 C 0.29103 0.0669 0.99504 0.0
C788 C 0.33059 0.05778 0.97548 0.0
C789 C 0.31121 0.03143 0.94596 0.0
C790 C 0.18822 0.05838 1.00309 0.0
C791 C 0.39314 0.07455 0.98604 0.0
C792 C 0.35583 0.17792 1.06336 0.0
C793 C 0.33945 0.14072 1.08875 0.0
C794 C 0.34067 0.15491 1.03294 0.0
C795 C 0.31005 0.09299 1.02729 0.0
C796 C 0.29568 0.05559 1.05289 0.0
C797 C 0.30933 0.07965 1.083 0.0
C798 C 0.35501 0.19698 1.00693 0.0
C799 C 0.26481 -0.01034 1.0486 0.0
H800 H 0.1676 0.00558 0.94744 0.0
H801 H 0.34194 0.02506 0.93125 0.0
H802 H 0.17427 0.02957 1.02333 0.0
H803 H 0.21003 0.1047 1.01146 0.0
H804 H 0.14718 0.04867 0.99001 0.0
H805 H 0.41852 0.06453 0.96842 0.0
H806 H 0.41878 0.1222 0.99179 0.0
H807 H 0.39039 0.05048 1.0072 0.0
H808 H 0.37775 0.22504 1.06738 0.0
H809 H 0.29598 0.05026 1.10229 0.0
H810 H 0.31248 0.18936 0.99623 0.0
H811 H 0.38111 0.18898 0.98894 0.0
H812 H 0.38102 0.2437 1.01465 0.0
H813 H 0.26248 0.96693 1.07023 0.0
H814 H 0.28894 -0.02225 1.03114 0.0
H815 H 0.21831 -0.02701 1.04012 0.0
loop_
_geom_bond_atom_site_label_1
_geom_bond_atom_site_label_2
_geom_bond_distance
_geom_bond_site_symmetry_2
_ccdc_geom_bond_type
Tb0 C10 2.825 . S
Tb0 O11 2.347 . S
Tb0 O14 2.366 . S
Tb0 O19 2.418 . S
Tb0 O20 2.384 1_554 S
Tb0 O23 2.479 . S
Tb0 O24 2.471 . S
Eu1 O12 2.418 . S
Eu1 O13 2.384 1_556 S
Eu1 O16 2.479 . S
Eu1 O17 2.471 . S
Eu1 O18 2.351 . S
Eu1 O21 2.366 . S
Eu1 C31 2.825 . S
C2 O18 1.253 1_554 S
C2 O19 1.265 . S
C3 O20 1.255 . S
C3 O21 1.265 . S
C4 C6 1.380 . S
C4 C7 1.374 . S
C4 C10 1.507 . S
C5 C6 1.384 . S
C5 C9 1.387 . S
C5 H32 0.930 . S
C6 C4 1.380 . S
C6 C5 1.384 . S
C6 H33 0.931 . S
C7 C4 1.374 . S
C7 C8 1.390 . S
C7 H34 0.930 . S
C8 C7 1.390 . S
C8 C9 1.391 . S
C8 H35 0.930 . S
C9 C5 1.387 . S
C9 C8 1.391 . S
C10 Tb0 2.825 . S
C10 C4 1.507 . S
C10 O23 1.238 . S
C10 O24 1.247 . S
O11 Tb0 2.347 . S
O11 C15 1.259 . S
O12 Eu1 2.418 . S
O12 C15 1.265 1_556 S
O13 Eu1 2.384 1_554 S
O13 C22 1.255 . S
O14 Tb0 2.366 . S
O14 C22 1.265 . S
C15 O11 1.259 . S
C15 O12 1.265 1_554 S
O16 Eu1 2.479 . S
O16 C31 1.238 . S
O17 Eu1 2.471 . S
O17 C31 1.247 . S
O18 Eu1 2.351 . S
O18 C2 1.253 1_556 S
O19 Tb0 2.418 . S
O19 C2 1.265 . S
O20 Tb0 2.384 1_556 S
O20 C3 1.255 . S
O21 Eu1 2.366 . S
O21 C3 1.265 . S
C22 O13 1.255 . S
C22 O14 1.265 . S
O23 Tb0 2.479 . S
O23 C10 1.238 . S
O24 Tb0 2.471 . S
O24 C10 1.247 . S
C25 C28 1.380 . S
C25 C29 1.374 . S
C25 C31 1.507 . S
C26 C27 1.387 . S
C26 C30 1.391 . S
C27 C26 1.387 . S
C27 C28 1.384 . S
C27 H36 0.930 . S
C28 C25 1.380 . S
C28 C27 1.384 . S
C28 H37 0.931 . S
C29 C25 1.374 . S
C29 C30 1.390 . S
C29 H38 0.930 . S
C30 C26 1.391 . S
C30 C29 1.390 . S
C30 H39 0.930 . S
C31 Eu1 2.825 . S
C31 O16 1.238 . S
C31 O17 1.247 . S
C31 C25 1.507 . S
H32 C5 0.930 . S
H33 C6 0.931 . S
H34 C7 0.930 . S
H35 C8 0.930 . S
H36 C27 0.930 . S
H37 C28 0.931 . S
H38 C29 0.930 . S
H39 C30 0.930 . S
Tb40 C50 2.825 . S
Tb40 O51 2.347 . S
Tb40 O54 2.366 . S
Tb40 O59 2.418 . S
Tb40 O60 2.384 . S
Tb40 O63 2.479 . S
Tb40 O64 2.471 . S
Eu41 O52 2.418 . S
Eu41 O53 2.384 . S
Eu41 O56 2.479 . S
Eu41 O57 2.471 . S
Eu41 O58 2.347 . S
Eu41 O61 2.366 . S
Eu41 C71 2.825 . S
C42 O58 1.259 . S
C42 O59 1.265 . S
C43 O60 1.255 . S
C43 O61 1.265 . S
C44 C46 1.380 . S
C44 C47 1.374 . S
C44 C50 1.507 . S
C45 C46 1.384 . S
C45 C49 1.387 . S
C45 H72 0.930 . S
C46 C44 1.380 . S
C46 C45 1.384 . S
C46 H73 0.931 . S
C47 C44 1.374 . S
C47 C48 1.390 . S
C47 H74 0.930 . S
C48 C47 1.390 . S
C48 C49 1.391 . S
C48 H75 0.930 . S
C49 C45 1.387 . S
C49 C48 1.391 . S
C50 Tb40 2.825 . S
C50 C44 1.507 . S
C50 O63 1.238 . S
C50 O64 1.247 . S
O51 Tb40 2.347 . S
O51 C55 1.259 . S
O52 Eu41 2.418 . S
O52 C55 1.265 . S
O53 Eu41 2.384 . S
O53 C62 1.255 . S
O54 Tb40 2.366 . S
O54 C62 1.265 . S
C55 O51 1.259 . S
C55 O52 1.265 . S
O56 Eu41 2.479 . S
O56 C71 1.238 . S
O57 Eu41 2.471 . S
O57 C71 1.247 . S
O58 Eu41 2.347 . S
O58 C42 1.259 . S
O59 Tb40 2.418 . S
O59 C42 1.265 . S
O60 Tb40 2.384 . S
O60 C43 1.255 . S
O61 Eu41 2.366 . S
O61 C43 1.265 . S
C62 O53 1.255 . S
C62 O54 1.265 . S
O63 Tb40 2.479 . S
O63 C50 1.238 . S
O64 Tb40 2.471 . S
O64 C50 1.247 . S
C65 C68 1.380 . S
C65 C69 1.374 . S
C65 C71 1.507 . S
C66 C67 1.387 . S
C66 C70 1.391 . S
C67 C66 1.387 . S
C67 C68 1.384 . S
C67 H76 0.930 . S
C68 C65 1.380 . S
C68 C67 1.384 . S
C68 H77 0.931 . S
C69 C65 1.374 . S
C69 C70 1.390 . S
C69 H78 0.930 . S
C70 C66 1.391 . S
C70 C69 1.390 . S
C70 H79 0.930 . S
C71 Eu41 2.825 . S
C71 O56 1.238 . S
C71 O57 1.247 . S
C71 C65 1.507 . S
H72 C45 0.930 . S
H73 C46 0.931 . S
H74 C47 0.930 . S
H75 C48 0.930 . S
H76 C67 0.930 . S
H77 C68 0.931 . S
H78 C69 0.930 . S
H79 C70 0.930 . S
Tb80 C90 2.825 . S
Tb80 O91 2.347 . S
Tb80 O94 2.366 . S
Tb80 O99 2.418 . S
Tb80 O100 2.384 . S
Tb80 O103 2.479 . S
Tb80 O104 2.471 . S
Eu81 O92 2.418 . S
Eu81 O93 2.384 . S
Eu81 O96 2.479 . S
Eu81 O97 2.471 . S
Eu81 O98 2.347 . S
Eu81 O101 2.366 1_655 S
Eu81 C111 2.825 . S
C82 O98 1.259 1_455 S
C82 O99 1.265 . S
C83 O100 1.255 . S
C83 O101 1.265 . S
C84 C86 1.380 . S
C84 C87 1.374 . S
C84 C90 1.507 . S
C85 C86 1.384 . S
C85 C89 1.387 . S
C85 H112 0.930 . S
C86 C84 1.380 . S
C86 C85 1.384 . S
C86 H113 0.931 . S
C87 C84 1.374 . S
C87 C88 1.390 . S
C87 H114 0.930 . S
C88 C87 1.390 . S
C88 C89 1.391 . S
C88 H115 0.930 . S
C89 C85 1.387 . S
C89 C88 1.391 . S
C90 Tb80 2.825 . S
C90 C84 1.507 . S
C90 O103 1.238 . S
C90 O104 1.247 . S
O91 Tb80 2.347 . S
O91 C95 1.259 1_455 S
O92 Eu81 2.418 . S
O92 C95 1.265 . S
O93 Eu81 2.384 . S
O93 C102 1.255 . S
O94 Tb80 2.366 . S
O94 C102 1.265 1_455 S
C95 O91 1.259 1_655 S
C95 O92 1.265 . S
O96 Eu81 2.479 . S
O96 C111 1.238 . S
O97 Eu81 2.471 . S
O97 C111 1.247 . S
O98 Eu81 2.347 . S
O98 C82 1.259 1_655 S
O99 Tb80 2.418 . S
O99 C82 1.265 . S
O100 Tb80 2.384 . S
O100 C83 1.255 . S
O101 Eu81 2.366 1_455 S
O101 C83 1.265 . S
C102 O93 1.255 . S
C102 O94 1.265 1_655 S
O103 Tb80 2.479 . S
O103 C90 1.238 . S
O104 Tb80 2.471 . S
O104 C90 1.247 . S
C105 C108 1.380 . S
C105 C109 1.374 . S
C105 C111 1.507 . S
C106 C107 1.387 . S
C106 C110 1.391 . S
C107 C106 1.387 . S
C107 C108 1.384 . S
C107 H116 0.930 . S
C108 C105 1.380 . S
C108 C107 1.384 . S
C108 H117 0.931 . S
C109 C105 1.374 . S
C109 C110 1.390 . S
C109 H118 0.930 . S
C110 C106 1.391 . S
C110 C109 1.390 . S
C110 H119 0.930 . S
C111 Eu81 2.825 . S
C111 O96 1.238 . S
C111 O97 1.247 . S
C111 C105 1.507 . S
H112 C85 0.930 . S
H113 C86 0.931 . S
H114 C87 0.930 . S
H115 C88 0.930 . S
H116 C107 0.930 . S
H117 C108 0.931 . S
H118 C109 0.930 . S
H119 C110 0.930 . S
Tb120 C130 2.825 . S
Tb120 O131 2.347 . S
Tb120 O134 2.366 . S
Tb120 O139 2.418 . S
Tb120 O140 2.384 1_554 S
Tb120 O143 2.479 . S
Tb120 O144 2.471 . S
Eu121 O132 2.418 . S
Eu121 O133 2.384 1_556 S
Eu121 O136 2.479 . S
Eu121 O137 2.471 . S
Eu121 O138 2.351 1_565 S
Eu121 O141 2.366 1_565 S
Eu121 C151 2.825 . S
C122 O138 1.254 1_554 S
C122 O139 1.265 . S
C123 O140 1.255 . S
C123 O141 1.265 . S
C124 C126 1.380 . S
C124 C127 1.374 . S
C124 C130 1.507 . S
C125 C126 1.384 . S
C125 C129 1.387 . S
C125 H152 0.930 . S
C126 C124 1.380 . S
C126 C125 1.384 . S
C126 H153 0.931 . S
C127 C124 1.374 . S
C127 C128 1.390 . S
C127 H154 0.930 . S
C128 C127 1.390 . S
C128 C129 1.391 . S
C128 H155 0.930 . S
C129 C125 1.387 . S
C129 C128 1.391 . S
C130 Tb120 2.825 . S
C130 C124 1.507 . S
C130 O143 1.238 . S
C130 O144 1.247 . S
O131 Tb120 2.347 . S
O131 C135 1.259 1_545 S
O132 Eu121 2.418 . S
O132 C135 1.265 1_556 S
O133 Eu121 2.384 1_554 S
O133 C142 1.255 . S
O134 Tb120 2.366 . S
O134 C142 1.265 1_545 S
C135 O131 1.259 1_565 S
C135 O132 1.265 1_554 S
O136 Eu121 2.479 . S
O136 C151 1.238 . S
O137 Eu121 2.471 . S
O137 C151 1.247 . S
O138 Eu121 2.351 1_545 S
O138 C122 1.254 1_556 S
O139 Tb120 2.418 . S
O139 C122 1.265 . S
O140 Tb120 2.384 1_556 S
O140 C123 1.255 . S
O141 Eu121 2.366 1_545 S
O141 C123 1.265 . S
C142 O133 1.255 . S
C142 O134 1.265 1_565 S
O143 Tb120 2.479 . S
O143 C130 1.238 . S
O144 Tb120 2.471 . S
O144 C130 1.247 . S
C145 C148 1.380 . S
C145 C149 1.374 . S
C145 C151 1.507 . S
C146 C147 1.387 . S
C146 C150 1.391 . S
C147 C146 1.387 . S
C147 C148 1.384 . S
C147 H156 0.930 . S
C148 C145 1.380 . S
C148 C147 1.384 . S
C148 H157 0.931 . S
C149 C145 1.374 . S
C149 C150 1.390 . S
C149 H158 0.930 . S
C150 C146 1.391 . S
C150 C149 1.390 . S
C150 H159 0.930 . S
C151 Eu121 2.825 . S
C151 O136 1.238 . S
C151 O137 1.247 . S
C151 C145 1.507 . S
H152 C125 0.930 . S
H153 C126 0.931 . S
H154 C127 0.930 . S
H155 C128 0.930 . S
H156 C147 0.930 . S
H157 C148 0.931 . S
H158 C149 0.930 . S
H159 C150 0.930 . S
Tb160 C170 2.825 . S
Tb160 O171 2.347 . S
Tb160 O174 2.366 . S
Tb160 O179 2.418 1_655 S
Tb160 O180 2.384 . S
Tb160 O183 2.479 . S
Tb160 O184 2.471 . S
Eu161 O172 2.418 1_455 S
Eu161 O173 2.384 . S
Eu161 O176 2.479 . S
Eu161 O177 2.471 . S
Eu161 O178 2.347 . S
Eu161 O181 2.366 1_455 S
Eu161 C191 2.825 . S
C162 O178 1.259 . S
C162 O179 1.265 . S
C163 O180 1.255 . S
C163 O181 1.265 . S
C164 C166 1.380 . S
C164 C167 1.374 . S
C164 C170 1.507 . S
C165 C166 1.384 . S
C165 C169 1.387 . S
C165 H192 0.930 . S
C166 C164 1.380 . S
C166 C165 1.384 . S
C166 H193 0.931 . S
C167 C164 1.374 . S
C167 C168 1.390 . S
C167 H194 0.930 . S
C168 C167 1.390 . S
C168 C169 1.391 . S
C168 H195 0.930 . S
C169 C165 1.387 . S
C169 C168 1.391 . S
C170 Tb160 2.825 . S
C170 C164 1.507 . S
C170 O183 1.238 . S
C170 O184 1.247 . S
O171 Tb160 2.347 . S
O171 C175 1.259 . S
O172 Eu161 2.418 1_655 S
O172 C175 1.265 . S
O173 Eu161 2.384 . S
O173 C182 1.255 . S
O174 Tb160 2.366 . S
O174 C182 1.265 1_655 S
C175 O171 1.259 . S
C175 O172 1.265 . S
O176 Eu161 2.479 . S
O176 C191 1.238 . S
O177 Eu161 2.471 . S
O177 C191 1.247 . S
O178 Eu161 2.347 . S
O178 C162 1.259 . S
O179 Tb160 2.418 1_455 S
O179 C162 1.265 . S
O180 Tb160 2.384 . S
O180 C163 1.255 . S
O181 Eu161 2.366 1_655 S
O181 C163 1.265 . S
C182 O173 1.255 . S
C182 O174 1.265 1_455 S
O183 Tb160 2.479 . S
O183 C170 1.238 . S
O184 Tb160 2.471 . S
O184 C170 1.247 . S
C185 C188 1.380 . S
C185 C189 1.374 . S
C185 C191 1.507 . S
C186 C187 1.387 . S
C186 C190 1.391 . S
C187 C186 1.387 . S
C187 C188 1.384 . S
C187 H196 0.930 . S
C188 C185 1.380 . S
C188 C187 1.384 . S
C188 H197 0.931 . S
C189 C185 1.374 . S
C189 C190 1.390 . S
C189 H198 0.930 . S
C190 C186 1.391 . S
C190 C189 1.390 . S
C190 H199 0.930 . S
C191 Eu161 2.825 . S
C191 O176 1.238 . S
C191 O177 1.247 . S
C191 C185 1.507 . S
H192 C165 0.930 . S
H193 C166 0.931 . S
H194 C167 0.930 . S
H195 C168 0.930 . S
H196 C187 0.930 . S
H197 C188 0.931 . S
H198 C189 0.930 . S
H199 C190 0.930 . S
Tb200 C210 2.825 . S
Tb200 O211 2.347 . S
Tb200 O214 2.366 . S
Tb200 O219 2.418 1_565 S
Tb200 O220 2.384 . S
Tb200 O223 2.479 . S
Tb200 O224 2.471 . S
Eu201 O212 2.418 1_545 S
Eu201 O213 2.384 . S
Eu201 O216 2.479 . S
Eu201 O217 2.471 . S
Eu201 O218 2.347 . S
Eu201 O221 2.366 1_545 S
Eu201 C231 2.825 . S
C202 O218 1.259 . S
C202 O219 1.265 . S
C203 O220 1.255 . S
C203 O221 1.265 . S
C204 C206 1.380 . S
C204 C207 1.374 . S
C204 C210 1.507 . S
C205 C206 1.384 . S
C205 C209 1.387 . S
C205 H232 0.930 . S
C206 C204 1.380 . S
C206 C205 1.384 . S
C206 H233 0.931 . S
C207 C204 1.374 . S
C207 C208 1.390 . S
C207 H234 0.930 . S
C208 C207 1.390 . S
C208 C209 1.391 . S
C208 H235 0.930 . S
C209 C205 1.387 . S
C209 C208 1.391 . S
C210 Tb200 2.825 . S
C210 C204 1.507 . S
C210 O223 1.238 . S
C210 O224 1.247 . S
O211 Tb200 2.347 . S
O211 C215 1.259 . S
O212 Eu201 2.418 1_565 S
O212 C215 1.265 . S
O213 Eu201 2.384 . S
O213 C222 1.255 . S
O214 Tb200 2.366 . S
O214 C222 1.265 1_565 S
C215 O211 1.259 . S
C215 O212 1.265 . S
O216 Eu201 2.479 . S
O216 C231 1.238 . S
O217 Eu201 2.471 . S
O217 C231 1.247 . S
O218 Eu201 2.347 . S
O218 C202 1.259 . S
O219 Tb200 2.418 1_545 S
O219 C202 1.265 . S
O220 Tb200 2.384 . S
O220 C203 1.255 . S
O221 Eu201 2.366 1_565 S
O221 C203 1.265 . S
C222 O213 1.255 . S
C222 O214 1.265 1_545 S
O223 Tb200 2.479 . S
O223 C210 1.238 . S
O224 Tb200 2.471 . S
O224 C210 1.247 . S
C225 C228 1.380 . S
C225 C229 1.374 . S
C225 C231 1.507 . S
C226 C227 1.387 . S
C226 C230 1.391 . S
C227 C226 1.387 . S
C227 C228 1.384 . S
C227 H236 0.930 . S
C228 C225 1.380 . S
C228 C227 1.384 . S
C228 H237 0.931 . S
C229 C225 1.374 . S
C229 C230 1.390 . S
C229 H238 0.930 . S
C230 C226 1.391 . S
C230 C229 1.390 . S
C230 H239 0.930 . S
C231 Eu201 2.825 . S
C231 O216 1.238 . S
C231 O217 1.247 . S
C231 C225 1.507 . S
H232 C205 0.930 . S
H233 C206 0.931 . S
H234 C207 0.930 . S
H235 C208 0.930 . S
H236 C227 0.930 . S
H237 C228 0.931 . S
H238 C229 0.930 . S
H239 C230 0.930 . S
C240 C241 1.391 1_556 S
C240 C242 1.394 1_655 S
C240 H256 0.931 . S
C241 C240 1.391 1_554 S
C241 C245 1.376 1_655 S
C242 C240 1.394 1_455 S
C242 C243 1.369 1_556 S
C242 C246 1.531 . S
C243 C242 1.369 1_554 S
C243 C244 1.410 . S
C243 C251 1.503 . S
C244 C243 1.410 . S
C244 C245 1.392 . S
C244 C247 1.511 . S
C245 C241 1.376 1_455 S
C245 C244 1.392 . S
C245 H257 0.929 1_455 S
C246 C242 1.531 . S
C246 H258 0.960 . S
C246 H259 0.962 . S
C246 H260 0.960 . S
C247 C244 1.511 . S
C247 H261 0.961 . S
C247 H262 0.961 . S
C247 H263 0.961 . S
C248 C249 1.370 1_556 S
C248 C250 1.365 . S
C248 H264 0.931 . S
C249 C248 1.370 1_554 S
C249 C253 1.408 . S
C250 C248 1.365 . S
C250 C251 1.361 1_556 S
C250 C254 1.534 . S
C251 C243 1.503 . S
C251 C250 1.361 1_554 S
C251 C252 1.403 . S
C252 C251 1.403 . S
C252 C253 1.404 . S
C252 C255 1.539 . S
C253 C249 1.408 . S
C253 C252 1.404 . S
C253 H265 0.930 . S
C254 C250 1.534 . S
C254 H266 0.956 . S
C254 H267 0.961 1_556 S
C254 H268 0.961 . S
C255 C252 1.539 . S
C255 H269 0.958 . S
C255 H270 0.961 . S
C255 H271 0.960 . S
H256 C240 0.931 . S
H257 C245 0.929 1_655 S
H258 C246 0.960 . S
H259 C246 0.962 . S
H260 C246 0.960 . S
H261 C247 0.961 . S
H262 C247 0.961 . S
H263 C247 0.961 . S
H264 C248 0.931 . S
H265 C253 0.930 . S
H266 C254 0.956 . S
H267 C254 0.961 1_554 S
H268 C254 0.961 . S
H269 C255 0.958 . S
H270 C255 0.961 . S
H271 C255 0.960 . S
C272 C273 1.394 . S
C272 C274 1.390 1_565 S
C272 H288 0.932 . S
C273 C272 1.394 . S
C273 C277 1.376 1_565 S
C274 C272 1.390 1_545 S
C274 C275 1.369 . S
C274 C278 1.531 . S
C275 C274 1.369 . S
C275 C276 1.410 . S
C275 C283 1.503 . S
C276 C275 1.410 . S
C276 C277 1.392 . S
C276 C279 1.511 . S
C277 C273 1.376 1_545 S
C277 C276 1.392 . S
C277 H289 0.929 . S
C278 C274 1.531 . S
C278 H290 0.960 . S
C278 H291 0.962 . S
C278 H292 0.960 . S
C279 C276 1.511 . S
C279 H293 0.961 . S
C279 H294 0.961 . S
C279 H295 0.961 . S
C280 C281 1.370 . S
C280 C282 1.363 . S
C280 H296 0.931 . S
C281 C280 1.370 . S
C281 C285 1.408 . S
C282 C280 1.363 . S
C282 C283 1.370 . S
C282 C286 1.524 . S
C283 C275 1.503 . S
C283 C282 1.370 . S
C283 C284 1.403 . S
C284 C283 1.403 . S
C284 C285 1.404 . S
C284 C287 1.539 . S
C285 C281 1.408 . S
C285 C284 1.404 . S
C285 H297 0.930 . S
C286 C282 1.524 . S
C286 H298 0.956 . S
C286 H299 0.961 . S
C286 H300 0.961 . S
C287 C284 1.539 . S
C287 H301 0.958 . S
C287 H302 0.961 . S
C287 H303 0.960 . S
H288 C272 0.932 . S
H289 C277 0.929 . S
H290 C278 0.960 . S
H291 C278 0.962 . S
H292 C278 0.960 . S
H293 C279 0.961 . S
H294 C279 0.961 . S
H295 C279 0.961 . S
H296 C280 0.931 . S
H297 C285 0.930 . S
H298 C286 0.956 . S
H299 C286 0.961 . S
H300 C286 0.961 . S
H301 C287 0.958 . S
H302 C287 0.961 . S
H303 C287 0.960 . S
C304 C305 1.391 . S
C304 C306 1.394 . S
C304 H320 0.931 . S
C305 C304 1.391 . S
C305 C309 1.376 . S
C306 C304 1.394 . S
C306 C307 1.369 . S
C306 C310 1.531 . S
C307 C306 1.369 . S
C307 C308 1.410 . S
C307 C315 1.503 . S
C308 C307 1.410 . S
C308 C309 1.392 . S
C308 C311 1.511 . S
C309 C305 1.376 . S
C309 C308 1.392 . S
C309 H321 0.929 . S
C310 C306 1.531 . S
C310 H322 0.960 . S
C310 H323 0.962 . S
C310 H324 0.960 . S
C311 C308 1.511 . S
C311 H325 0.961 . S
C311 H326 0.961 . S
C311 H327 0.961 . S
C312 C313 1.370 . S
C312 C314 1.363 . S
C312 H328 0.931 . S
C313 C312 1.370 . S
C313 C317 1.408 1_455 S
C314 C312 1.363 . S
C314 C315 1.370 . S
C314 C318 1.524 . S
C315 C307 1.503 . S
C315 C314 1.370 . S
C315 C316 1.403 . S
C316 C315 1.403 . S
C316 C317 1.404 1_455 S
C316 C319 1.539 . S
C317 C313 1.408 1_655 S
C317 C316 1.404 1_655 S
C317 H329 0.930 . S
C318 C314 1.524 . S
C318 H330 0.956 . S
C318 H331 0.961 . S
C318 H332 0.961 . S
C319 C316 1.539 . S
C319 H333 0.958 . S
C319 H334 0.961 1_455 S
C319 H335 0.960 . S
H320 C304 0.931 . S
H321 C309 0.929 . S
H322 C310 0.960 . S
H323 C310 0.962 . S
H324 C310 0.960 . S
H325 C311 0.961 . S
H326 C311 0.961 . S
H327 C311 0.961 . S
H328 C312 0.931 . S
H329 C317 0.930 . S
H330 C318 0.956 . S
H331 C318 0.961 . S
H332 C318 0.961 . S
H333 C319 0.958 . S
H334 C319 0.961 1_655 S
H335 C319 0.960 . S
C336 C337 1.391 . S
C336 C338 1.394 . S
C336 H352 0.931 . S
C337 C336 1.391 . S
C337 C341 1.376 . S
C338 C336 1.394 . S
C338 C339 1.369 . S
C338 C342 1.531 . S
C339 C338 1.369 . S
C339 C340 1.410 . S
C339 C347 1.503 . S
C340 C339 1.410 . S
C340 C341 1.392 . S
C340 C343 1.511 . S
C341 C337 1.376 . S
C341 C340 1.392 . S
C341 H353 0.929 . S
C342 C338 1.531 . S
C342 H354 0.960 . S
C342 H355 0.962 . S
C342 H356 0.960 . S
C343 C340 1.511 . S
C343 H357 0.961 . S
C343 H358 0.961 . S
C343 H359 0.961 . S
C344 C345 1.370 . S
C344 C346 1.363 . S
C344 H360 0.931 . S
C345 C344 1.370 . S
C345 C349 1.408 . S
C346 C344 1.363 . S
C346 C347 1.370 . S
C346 C350 1.524 . S
C347 C339 1.503 . S
C347 C346 1.370 . S
C347 C348 1.403 . S
C348 C347 1.403 . S
C348 C349 1.404 . S
C348 C351 1.539 . S
C349 C345 1.408 . S
C349 C348 1.404 . S
C349 H361 0.930 . S
C350 C346 1.524 . S
C350 H362 0.956 . S
C350 H363 0.961 . S
C350 H364 0.961 . S
C351 C348 1.539 . S
C351 H365 0.958 . S
C351 H366 0.961 . S
C351 H367 0.960 . S
H352 C336 0.931 . S
H353 C341 0.929 . S
H354 C342 0.960 . S
H355 C342 0.962 . S
H356 C342 0.960 . S
H357 C343 0.961 . S
H358 C343 0.961 . S
H359 C343 0.961 . S
H360 C344 0.931 . S
H361 C349 0.930 . S
H362 C350 0.956 . S
H363 C350 0.961 . S
H364 C350 0.961 . S
H365 C351 0.958 . S
H366 C351 0.961 . S
H367 C351 0.960 . S
C368 C369 1.391 . S
C368 C370 1.394 . S
C368 H384 0.931 . S
C369 C368 1.391 . S
C369 C373 1.376 . S
C370 C368 1.394 . S
C370 C371 1.369 . S
C370 C374 1.531 1_455 S
C371 C370 1.369 . S
C371 C372 1.410 . S
C371 C379 1.503 1_455 S
C372 C371 1.410 . S
C372 C373 1.392 . S
C372 C375 1.511 . S
C373 C369 1.376 . S
C373 C372 1.392 . S
C373 H385 0.929 . S
C374 C370 1.531 1_655 S
C374 H386 0.960 . S
C374 H387 0.962 . S
C374 H388 0.960 . S
C375 C372 1.511 . S
C375 H389 0.961 . S
C375 H390 0.961 . S
C375 H391 0.961 . S
C376 C377 1.370 . S
C376 C378 1.363 . S
C376 H392 0.931 . S
C377 C376 1.370 . S
C377 C381 1.408 . S
C378 C376 1.363 . S
C378 C379 1.370 . S
C378 C382 1.524 1_655 S
C379 C371 1.503 1_655 S
C379 C378 1.370 . S
C379 C380 1.403 . S
C380 C379 1.403 . S
C380 C381 1.404 . S
C380 C383 1.539 . S
C381 C377 1.408 . S
C381 C380 1.404 . S
C381 H393 0.930 . S
C382 C378 1.524 1_455 S
C382 H394 0.956 . S
C382 H395 0.961 . S
C382 H396 0.961 . S
C383 C380 1.539 . S
C383 H397 0.958 . S
C383 H398 0.961 . S
C383 H399 0.960 . S
H384 C368 0.931 . S
H385 C373 0.929 . S
H386 C374 0.960 . S
H387 C374 0.962 . S
H388 C374 0.960 . S
H389 C375 0.961 . S
H390 C375 0.961 . S
H391 C375 0.961 . S
H392 C376 0.931 . S
H393 C381 0.930 . S
H394 C382 0.956 . S
H395 C382 0.961 . S
H396 C382 0.961 . S
H397 C383 0.958 . S
H398 C383 0.961 . S
H399 C383 0.960 . S
C400 C401 1.391 . S
C400 C402 1.394 . S
C400 H416 0.931 . S
C401 C400 1.391 . S
C401 C405 1.376 . S
C402 C400 1.394 . S
C402 C403 1.369 . S
C402 C406 1.531 . S
C403 C402 1.369 . S
C403 C404 1.410 . S
C403 C411 1.503 1_545 S
C404 C403 1.410 . S
C404 C405 1.392 . S
C404 C407 1.511 . S
C405 C401 1.376 . S
C405 C404 1.392 . S
C405 H417 0.929 . S
C406 C402 1.531 . S
C406 H418 0.960 1_545 S
C406 H419 0.962 1_545 S
C406 H420 0.960 . S
C407 C404 1.511 . S
C407 H421 0.961 . S
C407 H422 0.961 . S
C407 H423 0.961 . S
C408 C409 1.370 . S
C408 C410 1.363 . S
C408 H424 0.931 . S
C409 C408 1.370 . S
C409 C413 1.408 . S
C410 C408 1.363 . S
C410 C411 1.370 . S
C410 C414 1.524 . S
C411 C403 1.503 1_565 S
C411 C410 1.370 . S
C411 C412 1.403 . S
C412 C411 1.403 . S
C412 C413 1.404 . S
C412 C415 1.539 1_565 S
C413 C409 1.408 . S
C413 C412 1.404 . S
C413 H425 0.930 . S
C414 C410 1.524 . S
C414 H426 0.956 . S
C414 H427 0.961 . S
C414 H428 0.961 . S
C415 C412 1.539 1_545 S
C415 H429 0.958 . S
C415 H430 0.961 . S
C415 H431 0.960 . S
H416 C400 0.931 . S
H417 C405 0.929 . S
H418 C406 0.960 1_565 S
H419 C406 0.962 1_565 S
H420 C406 0.960 . S
H421 C407 0.961 . S
H422 C407 0.961 . S
H423 C407 0.961 . S
H424 C408 0.931 . S
H425 C413 0.930 . S
H426 C414 0.956 . S
H427 C414 0.961 . S
H428 C414 0.961 . S
H429 C415 0.958 . S
H430 C415 0.961 . S
H431 C415 0.960 . S
C432 C433 1.391 . S
C432 C434 1.394 . S
C432 H448 0.931 . S
C433 C432 1.391 . S
C433 C437 1.376 . S
C434 C432 1.394 . S
C434 C435 1.369 . S
C434 C438 1.531 . S
C435 C434 1.369 . S
C435 C436 1.410 . S
C435 C443 1.503 . S
C436 C435 1.410 . S
C436 C437 1.392 . S
C436 C439 1.511 . S
C437 C433 1.376 . S
C437 C436 1.392 . S
C437 H449 0.929 . S
C438 C434 1.531 . S
C438 H450 0.960 . S
C438 H451 0.962 . S
C438 H452 0.960 . S
C439 C436 1.511 . S
C439 H453 0.961 . S
C439 H454 0.961 . S
C439 H455 0.961 . S
C440 C441 1.370 . S
C440 C442 1.363 . S
C440 H456 0.931 . S
C441 C440 1.370 . S
C441 C445 1.411 . S
C442 C440 1.363 . S
C442 C443 1.370 1_455 S
C442 C446 1.524 . S
C443 C435 1.503 . S
C443 C442 1.370 1_655 S
C443 C444 1.403 . S
C444 C443 1.403 . S
C444 C445 1.399 1_655 S
C444 C447 1.539 . S
C445 C441 1.411 . S
C445 C444 1.399 1_455 S
C445 H457 0.937 1_455 S
C446 C442 1.524 . S
C446 H458 0.956 1_455 S
C446 H459 0.961 1_455 S
C446 H460 0.961 . S
C447 C444 1.539 . S
C447 H461 0.958 . S
C447 H462 0.961 . S
C447 H463 0.960 . S
H448 C432 0.931 . S
H449 C437 0.929 . S
H450 C438 0.960 . S
H451 C438 0.962 . S
H452 C438 0.960 . S
H453 C439 0.961 . S
H454 C439 0.961 . S
H455 C439 0.961 . S
H456 C440 0.931 . S
H457 C445 0.937 1_655 S
H458 C446 0.956 1_655 S
H459 C446 0.961 1_655 S
H460 C446 0.961 . S
H461 C447 0.958 . S
H462 C447 0.961 . S
H463 C447 0.960 . S
C464 C465 1.391 . S
C464 C466 1.394 . S
C464 H480 0.931 . S
C465 C464 1.391 . S
C465 C469 1.376 . S
C466 C464 1.394 . S
C466 C467 1.369 . S
C466 C470 1.531 . S
C467 C466 1.369 . S
C467 C468 1.410 . S
C467 C475 1.503 . S
C468 C467 1.410 . S
C468 C469 1.392 . S
C468 C471 1.511 . S
C469 C465 1.376 . S
C469 C468 1.392 . S
C469 H481 0.929 . S
C470 C466 1.531 . S
C470 H482 0.960 . S
C470 H483 0.962 . S
C470 H484 0.960 . S
C471 C468 1.511 . S
C471 H485 0.961 . S
C471 H486 0.961 1_565 S
C471 H487 0.961 . S
C472 C473 1.370 . S
C472 C474 1.365 . S
C472 H488 0.931 . S
C473 C472 1.370 . S
C473 C477 1.408 . S
C474 C472 1.365 . S
C474 C475 1.369 1_545 S
C474 C478 1.523 1_545 S
C475 C467 1.503 . S
C475 C474 1.369 1_565 S
C475 C476 1.403 . S
C476 C475 1.403 . S
C476 C477 1.404 1_565 S
C476 C479 1.539 . S
C477 C473 1.408 . S
C477 C476 1.404 1_545 S
C477 H489 0.930 . S
C478 C474 1.523 1_565 S
C478 H490 0.956 . S
C478 H491 0.961 . S
C478 H492 0.961 1_565 S
C479 C476 1.539 . S
C479 H493 0.958 . S
C479 H494 0.961 . S
C479 H495 0.960 . S
H480 C464 0.931 . S
H481 C469 0.929 . S
H482 C470 0.960 . S
H483 C470 0.962 . S
H484 C470 0.960 . S
H485 C471 0.961 . S
H486 C471 0.961 1_545 S
H487 C471 0.961 . S
H488 C472 0.931 . S
H489 C477 0.930 . S
H490 C478 0.956 . S
H491 C478 0.961 . S
H492 C478 0.961 1_545 S
H493 C479 0.958 . S
H494 C479 0.961 . S
H495 C479 0.960 . S
C496 C497 1.391 . S
C496 C498 1.394 . S
C496 H512 0.931 . S
C497 C496 1.391 . S
C497 C501 1.376 . S
C498 C496 1.394 . S
C498 C499 1.369 . S
C498 C502 1.531 . S
C499 C498 1.369 . S
C499 C500 1.410 . S
C499 C507 1.503 . S
C500 C499 1.410 . S
C500 C501 1.392 . S
C500 C503 1.511 . S
C501 C497 1.376 . S
C501 C500 1.392 . S
C501 H513 0.929 . S
C502 C498 1.531 . S
C502 H514 0.960 . S
C502 H515 0.962 . S
C502 H516 0.960 . S
C503 C500 1.511 . S
C503 H517 0.961 . S
C503 H518 0.961 . S
C503 H519 0.961 . S
C504 C505 1.370 . S
C504 C506 1.363 . S
C504 H520 0.931 . S
C505 C504 1.370 . S
C505 C509 1.408 . S
C506 C504 1.363 . S
C506 C507 1.370 . S
C506 C510 1.524 . S
C507 C499 1.503 . S
C507 C506 1.370 . S
C507 C508 1.403 . S
C508 C507 1.403 . S
C508 C509 1.404 . S
C508 C511 1.539 . S
C509 C505 1.408 . S
C509 C508 1.404 . S
C509 H521 0.930 . S
C510 C506 1.524 . S
C510 H522 0.956 . S
C510 H523 0.961 . S
C510 H524 0.961 . S
C511 C508 1.539 . S
C511 H525 0.958 . S
C511 H526 0.961 . S
C511 H527 0.960 . S
H512 C496 0.931 . S
H513 C501 0.929 . S
H514 C502 0.960 . S
H515 C502 0.962 . S
H516 C502 0.960 . S
H517 C503 0.961 . S
H518 C503 0.961 . S
H519 C503 0.961 . S
H520 C504 0.931 . S
H521 C509 0.930 . S
H522 C510 0.956 . S
H523 C510 0.961 . S
H524 C510 0.961 . S
H525 C511 0.958 . S
H526 C511 0.961 . S
H527 C511 0.960 . S
C528 C529 1.391 1_556 S
C528 C530 1.394 . S
C528 H544 0.931 . S
C529 C528 1.391 1_554 S
C529 C533 1.376 . S
C530 C528 1.394 . S
C530 C531 1.369 1_556 S
C530 C534 1.531 . S
C531 C530 1.369 1_554 S
C531 C532 1.410 . S
C531 C539 1.503 . S
C532 C531 1.410 . S
C532 C533 1.392 . S
C532 C535 1.511 . S
C533 C529 1.376 . S
C533 C532 1.392 . S
C533 H545 0.929 . S
C534 C530 1.531 . S
C534 H546 0.960 . S
C534 H547 0.962 . S
C534 H548 0.960 . S
C535 C532 1.511 . S
C535 H549 0.961 . S
C535 H550 0.961 . S
C535 H551 0.961 . S
C536 C537 1.370 . S
C536 C538 1.363 . S
C536 H552 0.931 1_545 S
C537 C536 1.370 . S
C537 C541 1.408 1_554 S
C538 C536 1.363 . S
C538 C539 1.370 . S
C538 C542 1.524 . S
C539 C531 1.503 . S
C539 C538 1.370 . S
C539 C540 1.403 1_554 S
C540 C539 1.403 1_556 S
C540 C541 1.404 . S
C540 C543 1.539 . S
C541 C537 1.408 1_556 S
C541 C540 1.404 . S
C541 H553 0.930 . S
C542 C538 1.524 . S
C542 H554 0.956 . S
C542 H555 0.961 . S
C542 H556 0.961 . S
C543 C540 1.539 . S
C543 H557 0.958 . S
C543 H558 0.961 . S
C543 H559 0.960 . S
H544 C528 0.931 . S
H545 C533 0.929 . S
H546 C534 0.960 . S
H547 C534 0.962 . S
H548 C534 0.960 . S
H549 C535 0.961 . S
H550 C535 0.961 . S
H551 C535 0.961 . S
H552 C536 0.931 1_565 S
H553 C541 0.930 . S
H554 C542 0.956 . S
H555 C542 0.961 . S
H556 C542 0.961 . S
H557 C543 0.958 . S
H558 C543 0.961 . S
H559 C543 0.960 . S
C560 C561 1.391 . S
C560 C562 1.394 . S
C560 H576 0.931 . S
C561 C560 1.391 . S
C561 C565 1.376 . S
C562 C560 1.394 . S
C562 C563 1.369 . S
C562 C566 1.531 . S
C563 C562 1.369 . S
C563 C564 1.410 . S
C563 C571 1.503 . S
C564 C563 1.410 . S
C564 C565 1.392 . S
C564 C567 1.511 . S
C565 C561 1.376 . S
C565 C564 1.392 . S
C565 H577 0.929 . S
C566 C562 1.531 . S
C566 H578 0.960 . S
C566 H579 0.962 . S
C566 H580 0.960 . S
C567 C564 1.511 . S
C567 H581 0.961 . S
C567 H582 0.961 . S
C567 H583 0.961 . S
C568 C569 1.370 . S
C568 C570 1.363 . S
C568 H584 0.931 . S
C569 C568 1.370 . S
C569 C573 1.408 . S
C570 C568 1.363 . S
C570 C571 1.370 . S
C570 C574 1.524 . S
C571 C563 1.503 . S
C571 C570 1.370 . S
C571 C572 1.403 . S
C572 C571 1.403 . S
C572 C573 1.404 . S
C572 C575 1.539 . S
C573 C569 1.408 . S
C573 C572 1.404 . S
C573 H585 0.930 . S
C574 C570 1.524 . S
C574 H586 0.956 . S
C574 H587 0.961 . S
C574 H588 0.961 . S
C575 C572 1.539 . S
C575 H589 0.958 . S
C575 H590 0.961 . S
C575 H591 0.960 . S
H576 C560 0.931 . S
H577 C565 0.929 . S
H578 C566 0.960 . S
H579 C566 0.962 . S
H580 C566 0.960 . S
H581 C567 0.961 . S
H582 C567 0.961 . S
H583 C567 0.961 . S
H584 C568 0.931 . S
H585 C573 0.930 . S
H586 C574 0.956 . S
H587 C574 0.961 . S
H588 C574 0.961 . S
H589 C575 0.958 . S
H590 C575 0.961 . S
H591 C575 0.960 . S
C592 C593 1.391 . S
C592 C594 1.394 . S
C592 H608 0.930 1_455 S
C593 C592 1.391 . S
C593 C597 1.376 . S
C594 C592 1.394 . S
C594 C595 1.369 . S
C594 C598 1.531 . S
C595 C594 1.369 . S
C595 C596 1.410 . S
C595 C603 1.503 . S
C596 C595 1.410 . S
C596 C597 1.392 . S
C596 C599 1.511 . S
C597 C593 1.376 . S
C597 C596 1.392 . S
C597 H609 0.929 . S
C598 C594 1.531 . S
C598 H610 0.960 . S
C598 H611 0.962 . S
C598 H612 0.960 . S
C599 C596 1.511 . S
C599 H613 0.961 . S
C599 H614 0.961 . S
C599 H615 0.961 . S
C600 C601 1.370 . S
C600 C602 1.363 . S
C600 H616 0.931 . S
C601 C600 1.370 . S
C601 C605 1.408 . S
C602 C600 1.363 . S
C602 C603 1.370 . S
C602 C606 1.524 . S
C603 C595 1.503 . S
C603 C602 1.370 . S
C603 C604 1.403 . S
C604 C603 1.403 . S
C604 C605 1.404 . S
C604 C607 1.539 . S
C605 C601 1.408 . S
C605 C604 1.404 . S
C605 H617 0.930 . S
C606 C602 1.524 . S
C606 H618 0.956 . S
C606 H619 0.961 . S
C606 H620 0.961 . S
C607 C604 1.539 . S
C607 H621 0.958 . S
C607 H622 0.961 . S
C607 H623 0.960 . S
H608 C592 0.930 1_655 S
H609 C597 0.929 . S
H610 C598 0.960 . S
H611 C598 0.962 . S
H612 C598 0.960 . S
H613 C599 0.961 . S
H614 C599 0.961 . S
H615 C599 0.961 . S
H616 C600 0.931 . S
H617 C605 0.930 . S
H618 C606 0.956 . S
H619 C606 0.961 . S
H620 C606 0.961 . S
H621 C607 0.958 . S
H622 C607 0.961 . S
H623 C607 0.960 . S
C624 C625 1.391 . S
C624 C626 1.394 . S
C624 H640 0.931 . S
C625 C624 1.391 . S
C625 C629 1.376 . S
C626 C624 1.394 . S
C626 C627 1.369 . S
C626 C630 1.531 . S
C627 C626 1.369 . S
C627 C628 1.410 . S
C627 C635 1.503 . S
C628 C627 1.410 . S
C628 C629 1.392 . S
C628 C631 1.511 . S
C629 C625 1.376 . S
C629 C628 1.392 . S
C629 H641 0.929 . S
C630 C626 1.531 . S
C630 H642 0.960 . S
C630 H643 0.962 . S
C630 H644 0.960 . S
C631 C628 1.511 . S
C631 H645 0.961 . S
C631 H646 0.961 . S
C631 H647 0.961 . S
C632 C633 1.370 . S
C632 C634 1.363 . S
C632 H648 0.931 . S
C633 C632 1.370 . S
C633 C637 1.408 . S
C634 C632 1.363 . S
C634 C635 1.370 . S
C634 C638 1.524 . S
C635 C627 1.503 . S
C635 C634 1.370 . S
C635 C636 1.403 . S
C636 C635 1.403 . S
C636 C637 1.404 . S
C636 C639 1.539 . S
C637 C633 1.408 . S
C637 C636 1.404 . S
C637 H649 0.930 . S
C638 C634 1.524 . S
C638 H650 0.956 . S
C638 H651 0.961 . S
C638 H652 0.961 . S
C639 C636 1.539 . S
C639 H653 0.958 . S
C639 H654 0.961 . S
C639 H655 0.960 . S
H640 C624 0.931 . S
H641 C629 0.929 . S
H642 C630 0.960 . S
H643 C630 0.962 . S
H644 C630 0.960 . S
H645 C631 0.961 . S
H646 C631 0.961 . S
H647 C631 0.961 . S
H648 C632 0.931 . S
H649 C637 0.930 . S
H650 C638 0.956 . S
H651 C638 0.961 . S
H652 C638 0.961 . S
H653 C639 0.958 . S
H654 C639 0.961 . S
H655 C639 0.960 . S
C656 C657 1.391 . S
C656 C658 1.394 . S
C656 H672 0.931 . S
C657 C656 1.391 . S
C657 C661 1.376 . S
C658 C656 1.394 . S
C658 C659 1.369 . S
C658 C662 1.531 . S
C659 C658 1.369 . S
C659 C660 1.410 . S
C659 C667 1.503 . S
C660 C659 1.410 . S
C660 C661 1.392 . S
C660 C663 1.511 . S
C661 C657 1.376 . S
C661 C660 1.392 . S
C661 H673 0.929 . S
C662 C658 1.531 . S
C662 H674 0.960 . S
C662 H675 0.962 . S
C662 H676 0.960 . S
C663 C660 1.511 . S
C663 H677 0.961 . S
C663 H678 0.961 . S
C663 H679 0.961 . S
C664 C665 1.370 . S
C664 C666 1.363 . S
C664 H680 0.931 . S
C665 C664 1.370 . S
C665 C669 1.408 . S
C666 C664 1.363 . S
C666 C667 1.370 . S
C666 C670 1.524 . S
C667 C659 1.503 . S
C667 C666 1.370 . S
C667 C668 1.403 . S
C668 C667 1.403 . S
C668 C669 1.404 . S
C668 C671 1.539 . S
C669 C665 1.408 . S
C669 C668 1.404 . S
C669 H681 0.930 . S
C670 C666 1.524 . S
C670 H682 0.956 . S
C670 H683 0.961 . S
C670 H684 0.961 . S
C671 C668 1.539 . S
C671 H685 0.958 . S
C671 H686 0.961 . S
C671 H687 0.960 . S
H672 C656 0.931 . S
H673 C661 0.929 . S
H674 C662 0.960 . S
H675 C662 0.962 . S
H676 C662 0.960 . S
H677 C663 0.961 . S
H678 C663 0.961 . S
H679 C663 0.961 . S
H680 C664 0.931 . S
H681 C669 0.930 . S
H682 C670 0.956 . S
H683 C670 0.961 . S
H684 C670 0.961 . S
H685 C671 0.958 . S
H686 C671 0.961 . S
H687 C671 0.960 . S
C688 C689 1.391 . S
C688 C690 1.394 . S
C688 H704 0.931 . S
C689 C688 1.391 . S
C689 C693 1.376 . S
C690 C688 1.394 . S
C690 C691 1.369 . S
C690 C694 1.531 . S
C691 C690 1.369 . S
C691 C692 1.410 . S
C691 C699 1.503 . S
C692 C691 1.410 . S
C692 C693 1.392 . S
C692 C695 1.511 . S
C693 C689 1.376 . S
C693 C692 1.392 . S
C693 H705 0.929 . S
C694 C690 1.531 . S
C694 H706 0.960 . S
C694 H707 0.962 . S
C694 H708 0.960 . S
C695 C692 1.511 . S
C695 H709 0.952 1_655 S
C695 H710 0.961 . S
C695 H711 0.961 . S
C696 C697 1.370 . S
C696 C698 1.363 . S
C696 H712 0.931 . S
C697 C696 1.370 . S
C697 C701 1.408 . S
C698 C696 1.363 . S
C698 C699 1.370 . S
C698 C702 1.524 . S
C699 C691 1.503 . S
C699 C698 1.370 . S
C699 C700 1.403 . S
C700 C699 1.403 . S
C700 C701 1.404 . S
C700 C703 1.539 . S
C701 C697 1.408 . S
C701 C700 1.404 . S
C701 H713 0.930 . S
C702 C698 1.524 . S
C702 H714 0.956 . S
C702 H715 0.961 . S
C702 H716 0.961 . S
C703 C700 1.539 . S
C703 H717 0.958 . S
C703 H718 0.960 1_545 S
C703 H719 0.960 . S
H704 C688 0.931 . S
H705 C693 0.929 . S
H706 C694 0.960 . S
H707 C694 0.962 . S
H708 C694 0.960 . S
H709 C695 0.952 1_455 S
H710 C695 0.961 . S
H711 C695 0.961 . S
H712 C696 0.931 . S
H713 C701 0.930 . S
H714 C702 0.956 . S
H715 C702 0.961 . S
H716 C702 0.961 . S
H717 C703 0.958 . S
H718 C703 0.960 1_565 S
H719 C703 0.960 . S
C720 C721 1.391 . S
C720 C722 1.394 . S
C720 H736 0.931 . S
C721 C720 1.391 . S
C721 C725 1.376 . S
C722 C720 1.394 . S
C722 C723 1.369 . S
C722 C726 1.531 . S
C723 C722 1.369 . S
C723 C724 1.410 . S
C723 C731 1.503 . S
C724 C723 1.410 . S
C724 C725 1.392 . S
C724 C727 1.511 . S
C725 C721 1.376 . S
C725 C724 1.392 . S
C725 H737 0.929 . S
C726 C722 1.531 . S
C726 H738 0.960 . S
C726 H739 0.962 . S
C726 H740 0.960 . S
C727 C724 1.511 . S
C727 H741 0.961 1_655 S
C727 H742 0.961 . S
C727 H743 0.961 . S
C728 C729 1.370 . S
C728 C730 1.363 . S
C728 H744 0.931 . S
C729 C728 1.370 . S
C729 C733 1.408 . S
C730 C728 1.363 . S
C730 C731 1.370 . S
C730 C734 1.524 . S
C731 C723 1.503 . S
C731 C730 1.370 . S
C731 C732 1.403 . S
C732 C731 1.403 . S
C732 C733 1.404 . S
C732 C735 1.539 . S
C733 C729 1.408 . S
C733 C732 1.404 . S
C733 H745 0.930 . S
C734 C730 1.524 . S
C734 H746 0.956 . S
C734 H747 0.961 1_565 S
C734 H748 0.961 1_565 S
C735 C732 1.539 . S
C735 H749 0.958 . S
C735 H750 0.961 . S
C735 H751 0.960 . S
H736 C720 0.931 . S
H737 C725 0.929 . S
H738 C726 0.960 . S
H739 C726 0.962 . S
H740 C726 0.960 . S
H741 C727 0.961 1_455 S
H742 C727 0.961 . S
H743 C727 0.961 . S
H744 C728 0.931 . S
H745 C733 0.930 . S
H746 C734 0.956 . S
H747 C734 0.961 1_545 S
H748 C734 0.961 1_545 S
H749 C735 0.958 . S
H750 C735 0.961 . S
H751 C735 0.960 . S
C752 C753 1.391 . S
C752 C754 1.394 . S
C752 H768 0.931 . S
C753 C752 1.391 . S
C753 C757 1.376 . S
C754 C752 1.394 . S
C754 C755 1.369 . S
C754 C758 1.531 . S
C755 C754 1.369 . S
C755 C756 1.410 . S
C755 C763 1.503 . S
C756 C755 1.410 . S
C756 C757 1.392 . S
C756 C759 1.511 . S
C757 C753 1.376 . S
C757 C756 1.392 . S
C757 H769 0.929 . S
C758 C754 1.531 . S
C758 H770 0.960 . S
C758 H771 0.962 . S
C758 H772 0.960 . S
C759 C756 1.511 . S
C759 H773 0.961 1_565 S
C759 H774 0.961 . S
C759 H775 0.960 1_565 S
C760 C761 1.370 . S
C760 C762 1.363 . S
C760 H776 0.931 . S
C761 C760 1.370 . S
C761 C765 1.408 . S
C762 C760 1.363 . S
C762 C763 1.370 . S
C762 C766 1.524 . S
C763 C755 1.503 . S
C763 C762 1.370 . S
C763 C764 1.403 . S
C764 C763 1.403 . S
C764 C765 1.404 . S
C764 C767 1.539 . S
C765 C761 1.408 . S
C765 C764 1.404 . S
C765 H777 0.930 . S
C766 C762 1.524 . S
C766 H778 0.956 1_455 S
C766 H779 0.961 . S
C766 H780 0.961 1_455 S
C767 C764 1.539 . S
C767 H781 0.958 . S
C767 H782 0.961 . S
C767 H783 0.960 . S
H768 C752 0.931 . S
H769 C757 0.929 . S
H770 C758 0.960 . S
H771 C758 0.962 . S
H772 C758 0.960 . S
H773 C759 0.961 1_545 S
H774 C759 0.961 . S
H775 C759 0.960 1_545 S
H776 C760 0.931 . S
H777 C765 0.930 . S
H778 C766 0.956 1_655 S
H779 C766 0.961 . S
H780 C766 0.961 1_655 S
H781 C767 0.958 . S
H782 C767 0.961 . S
H783 C767 0.960 . S
C784 C785 1.391 . S
C784 C786 1.394 . S
C784 H800 0.931 . S
C785 C784 1.391 . S
C785 C789 1.376 . S
C786 C784 1.394 . S
C786 C787 1.369 . S
C786 C790 1.531 . S
C787 C786 1.369 . S
C787 C788 1.410 . S
C787 C795 1.503 . S
C788 C787 1.410 . S
C788 C789 1.392 . S
C788 C791 1.511 1_545 S
C789 C785 1.376 . S
C789 C788 1.392 . S
C789 H801 0.929 1_545 S
C790 C786 1.531 . S
C790 H802 0.960 . S
C790 H803 0.962 . S
C790 H804 0.960 . S
C791 C788 1.511 1_565 S
C791 H805 0.961 . S
C791 H806 0.961 1_565 S
C791 H807 0.961 . S
C792 C793 1.370 . S
C792 C794 1.363 . S
C792 H808 0.931 . S
C793 C792 1.370 . S
C793 C797 1.408 . S
C794 C792 1.363 . S
C794 C795 1.370 . S
C794 C798 1.524 . S
C795 C787 1.503 . S
C795 C794 1.370 . S
C795 C796 1.403 . S
C796 C795 1.403 . S
C796 C797 1.404 . S
C796 C799 1.539 . S
C797 C793 1.408 . S
C797 C796 1.404 . S
C797 H809 0.930 . S
C798 C794 1.524 . S
C798 H810 0.956 . S
C798 H811 0.961 . S
C798 H812 0.961 . S
C799 C796 1.539 . S
C799 H813 0.958 . S
C799 H814 0.961 . S
C799 H815 0.960 . S
H800 C784 0.931 . S
H801 C789 0.929 1_565 S
H802 C790 0.960 . S
H803 C790 0.962 . S
H804 C790 0.960 . S
H805 C791 0.961 . S
H806 C791 0.961 1_545 S
H807 C791 0.961 . S
H808 C792 0.931 . S
H809 C797 0.930 . S
H810 C798 0.956 . S
H811 C798 0.961 . S
H812 C798 0.961 . S
H813 C799 0.958 . S
H814 C799 0.961 . S
H815 C799 0.960 . S
C241 C122 0.579 . S
C249 C2 0.729 . S
C273 C162 0.731 . S
C281 C42 0.654 . S
C305 C202 0.588 . S
C313 C82 0.737 . S
C337 C26 0.813 . S
C345 C89 0.792 . S
C369 C66 0.832 . S
C377 C129 0.784 . S
C401 C106 0.859 . S
C409 C169 0.743 . S
C433 C146 0.839 . S
C441 C209 0.779 . S
C465 C186 0.868 . S
C473 C9 0.742 . S
C497 C226 0.821 . S
C505 C49 0.790 . S
C529 C15 1.650 . S
C537 C135 1.628 1_545 S
C561 C55 1.636 . S
C569 C175 1.654 . S
C593 C95 1.665 1_455 S
C601 C215 1.634 . S
C625 C22 4.043 . S
C633 C43 4.078 . S
C657 C62 4.055 . S
C665 C83 4.080 . S
C689 C102 4.051 . S
C697 C123 4.078 . S
C721 C142 4.051 . S
C729 C163 4.078 . S
C753 C182 4.052 . S
C761 C203 4.078 . S
C785 C222 4.041 . S
C793 C3 4.080 . S
