# Generated by pormake.
# Topology msp, (4)-cn, num edge types: 1
# Building blocks:
#     Node 0, Type 0, BuildingBlock: NAWXER_clean_sbu_0, # of connection points: 4
#     Node 1, Type 0, BuildingBlock: NAWXER_clean_sbu_0, # of connection points: 4
#     Node 2, Type 0, BuildingBlock: NAWXER_clean_sbu_0, # of connection points: 4
#     Node 3, Type 0, BuildingBlock: NAWXER_clean_sbu_0, # of connection points: 4
#     Node 4, Type 0, BuildingBlock: NAWXER_clean_sbu_0, # of connection points: 4
#     Node 5, Type 0, BuildingBlock: NAWXER_clean_sbu_0, # of connection points: 4
#     Node 6, Type 0, BuildingBlock: NAWXER_clean_sbu_0, # of connection points: 4
#     Node 7, Type 0, BuildingBlock: NAWXER_clean_sbu_0, # of connection points: 4
#     Edge 8, Type (0, 0), BuildingBlock: XIVTED_clean_linker_0, # of connection points: 2
#     Edge 9, Type (0, 0), BuildingBlock: XIVTED_clean_linker_0, # of connection points: 2
#     Edge 10, Type (0, 0), BuildingBlock: XIVTED_clean_linker_0, # of connection points: 2
#     Edge 11, Type (0, 0), BuildingBlock: XIVTED_clean_linker_0, # of connection points: 2
#     Edge 12, Type (0, 0), BuildingBlock: XIVTED_clean_linker_0, # of connection points: 2
#     Edge 13, Type (0, 0), BuildingBlock: XIVTED_clean_linker_0, # of connection points: 2
#     Edge 14, Type (0, 0), BuildingBlock: XIVTED_clean_linker_0, # of connection points: 2
#     Edge 15, Type (0, 0), BuildingBlock: XIVTED_clean_linker_0, # of connection points: 2
#     Edge 16, Type (0, 0), BuildingBlock: XIVTED_clean_linker_0, # of connection points: 2
#     Edge 17, Type (0, 0), BuildingBlock: XIVTED_clean_linker_0, # of connection points: 2
#     Edge 18, Type (0, 0), BuildingBlock: XIVTED_clean_linker_0, # of connection points: 2
#     Edge 19, Type (0, 0), BuildingBlock: XIVTED_clean_linker_0, # of connection points: 2
#     Edge 20, Type (0, 0), BuildingBlock: XIVTED_clean_linker_0, # of connection points: 2
#     Edge 21, Type (0, 0), BuildingBlock: XIVTED_clean_linker_0, # of connection points: 2
#     Edge 22, Type (0, 0), BuildingBlock: XIVTED_clean_linker_0, # of connection points: 2
#     Edge 23, Type (0, 0), BuildingBlock: XIVTED_clean_linker_0, # of connection points: 2
# Relax obj value: 0.113
# Max RMSD: 0.238
# Mean RMSD: 0.238
data_MOF--net-msp--node1-NAWXER_clean_sbu_0--edge1-XIVTED_clean_linker_0
_symmetry_space_group_name_H-M    P1
_symmetry_Int_Tables_number       1
_symmetry_cell_setting            triclinic
loop_
_symmetry_equiv_pos_as_xyz
'x, y, z'
_cell_length_a     23.166481
_cell_length_b     19.456437
_cell_length_c     44.763719
_cell_angle_alpha  90.033642
_cell_angle_beta   100.27186
_cell_angle_gamma 90.019162
loop_
_atom_site_label
_atom_site_type_symbol
_atom_site_fract_x
_atom_site_fract_y
_atom_site_fract_z
_atom_type_partial_charge
C0 C 0.10718 0.24096 0.40126 0.0
C1 C 0.93058 0.26781 0.32561 0.0
O2 O 0.10374 0.30037 0.38856 0.0
Zn3 Zn 0.04406 0.35533 0.35382 0.0
O4 O 0.06783 0.19607 0.39259 0.0
Zn5 Zn 0.02072 0.25474 0.36344 0.0
O6 O 0.0765 0.263 0.32954 0.0
O7 O 0.09267 0.37355 0.32416 0.0
O8 O 0.94802 0.21717 0.34262 0.0
O9 O 0.96199 0.32247 0.3275 0.0
O10 O 0.02457 0.43248 0.37714 0.0
O11 O -0.00222 0.33321 0.39404 0.0
C12 C 0.10109 0.31167 0.31703 0.0
C13 C 0.00327 0.39871 0.3969 0.0
C14 C 0.39137 0.30458 0.68079 0.0
C15 C 0.48284 0.39076 0.59853 0.0
O16 O 0.41624 0.25606 0.6683 0.0
Zn17 Zn 0.47023 0.24781 0.63351 0.0
O18 O 0.3981 0.36641 0.67303 0.0
Zn19 Zn 0.44515 0.34817 0.64274 0.0
O20 O 0.38483 0.28997 0.60963 0.0
O21 O 0.42288 0.18696 0.60526 0.0
O22 O 0.46174 0.42468 0.61831 0.0
O23 O 0.48979 0.32555 0.60187 0.0
O24 O 0.54452 0.2132 0.65394 0.0
O25 O 0.52841 0.31844 0.66847 0.0
C26 C 0.38177 0.23011 0.59734 0.0
C27 C 0.56114 0.26491 0.67048 0.0
C28 C 0.88993 0.69655 0.68141 0.0
C29 C 0.98298 0.6113 0.59951 0.0
O30 O 0.89785 0.6348 0.67391 0.0
Zn31 Zn 0.94477 0.65374 0.64361 0.0
O32 O 0.91402 0.74548 0.66878 0.0
Zn33 Zn 0.96812 0.75441 0.63407 0.0
O34 O 0.92008 0.814 0.6057 0.0
O35 O 0.88365 0.71011 0.61008 0.0
O36 O 0.9889 0.67671 0.60262 0.0
O37 O 0.96261 0.5772 0.61948 0.0
O38 O 0.02764 0.68566 0.66927 0.0
O39 O 0.04172 0.79106 0.65431 0.0
C40 C 0.87982 0.76981 0.59764 0.0
C41 C 0.05937 0.74004 0.67104 0.0
C42 C 0.43135 0.73245 0.32486 0.0
C43 C 0.60773 0.76094 0.40055 0.0
O44 O 0.44831 0.7833 0.34187 0.0
Zn45 Zn 0.52124 0.74651 0.36274 0.0
O46 O 0.46321 0.67818 0.32676 0.0
Zn47 Zn 0.54543 0.64615 0.35305 0.0
O48 O 0.52643 0.56872 0.37635 0.0
O49 O 0.49865 0.66766 0.39315 0.0
O50 O 0.60468 0.70164 0.38774 0.0
O51 O 0.56795 0.80537 0.39205 0.0
O52 O 0.57705 0.73908 0.32885 0.0
O53 O 0.59414 0.62876 0.32335 0.0
C54 C 0.50461 0.60223 0.39601 0.0
C55 C 0.60202 0.69081 0.31629 0.0
C56 C 0.60064 0.81066 0.81671 0.0
C57 C 0.50471 0.89613 0.89752 0.0
O58 O 0.57611 0.76175 0.82912 0.0
Zn59 Zn 0.52084 0.75289 0.86326 0.0
O60 O 0.59249 0.87241 0.82413 0.0
Zn61 Zn 0.54444 0.85354 0.85394 0.0
O62 O 0.60457 0.79738 0.88805 0.0
O63 O 0.56811 0.69332 0.89193 0.0
O64 O 0.52571 0.93018 0.87775 0.0
O65 O 0.49892 0.8307 0.89443 0.0
O66 O 0.44775 0.71609 0.84253 0.0
O67 O 0.46206 0.82153 0.8277 0.0
C68 C 0.60799 0.73767 0.90048 0.0
C69 C 0.4304 0.76707 0.82572 0.0
C70 C 0.88994 0.81179 0.18117 0.0
C71 C 0.98461 0.89782 0.09989 0.0
O72 O 0.91443 0.76321 0.16853 0.0
Zn73 Zn 0.96889 0.75463 0.13408 0.0
O74 O 0.89757 0.87369 0.17378 0.0
Zn75 Zn 0.94511 0.85542 0.14359 0.0
O76 O 0.88467 0.79912 0.10981 0.0
O77 O 0.92116 0.69535 0.10533 0.0
O78 O 0.96328 0.93202 0.11952 0.0
O79 O 0.99061 0.83247 0.10312 0.0
O80 O 0.04221 0.71809 0.15458 0.0
O81 O 0.02783 0.8236 0.16941 0.0
C82 C 0.88101 0.73957 0.09722 0.0
C83 C 0.05963 0.76928 0.1713 0.0
C84 C 0.4833 0.10865 0.10005 0.0
C85 C 0.38964 0.19499 0.1816 0.0
O86 O 0.46265 0.07475 0.11999 0.0
Zn87 Zn 0.44463 0.15162 0.14391 0.0
O88 O 0.48918 0.17408 0.10306 0.0
Zn89 Zn 0.46806 0.25216 0.13425 0.0
O90 O 0.54151 0.28903 0.15446 0.0
O91 O 0.52753 0.18374 0.16959 0.0
O92 O 0.41384 0.24371 0.1689 0.0
O93 O 0.39749 0.13315 0.1742 0.0
O94 O 0.38372 0.20769 0.11013 0.0
O95 O 0.42023 0.31152 0.10573 0.0
C96 C 0.55921 0.23816 0.17127 0.0
C97 C 0.38003 0.26731 0.09761 0.0
C98 C 0.93179 0.23836 0.82537 0.0
C99 C 0.10825 0.27207 0.90066 0.0
O100 O 0.94811 0.29013 0.84194 0.0
Zn101 Zn 0.02147 0.2551 0.86322 0.0
O102 O 0.96422 0.18453 0.82784 0.0
Zn103 Zn 0.04662 0.15444 0.85448 0.0
O104 O 0.02845 0.07819 0.87868 0.0
O105 O -0.00026 0.1777 0.89445 0.0
O106 O 0.10554 0.2122 0.8884 0.0
O107 O 0.06791 0.31573 0.89194 0.0
O108 O 0.07722 0.2463 0.82934 0.0
O109 O 0.09542 0.13587 0.82496 0.0
C110 C 0.00636 0.11249 0.89801 0.0
C111 C 0.10265 0.19763 0.81725 0.0
H112 H 0.01676 0.53514 0.41247 0.0
H113 H 0.96867 0.47519 0.58363 0.0
H114 H 0.9697 0.33942 0.4467 0.0
H115 H 0.01475 0.67129 0.54938 0.0
H116 H 0.97024 0.42429 0.53385 0.0
H117 H 0.01422 0.58645 0.46208 0.0
C118 C 0.0051 0.50308 0.43026 0.0
C119 C 0.99341 0.43274 0.42529 0.0
C120 C 0.98034 0.47838 0.53726 0.0
C121 C 0.99144 0.49111 0.48248 0.0
C122 C 0.97986 0.50744 0.56579 0.0
C123 C 0.99168 0.57773 0.57082 0.0
C124 C 0.99258 0.51981 0.51344 0.0
C125 C 0.00554 0.61688 0.54667 0.0
C126 C 0.00407 0.53237 0.45869 0.0
C127 C 0.9789 0.39385 0.44936 0.0
N128 N 0.00533 0.5875 0.51906 0.0
N129 N 0.97865 0.42343 0.47688 0.0
H130 H 0.51978 0.46616 0.41189 0.0
H131 H 0.46663 0.52636 0.5822 0.0
H132 H 0.46882 0.66103 0.44532 0.0
H133 H 0.51639 0.33091 0.5488 0.0
H134 H 0.4685 0.57682 0.53241 0.0
H135 H 0.5167 0.41506 0.46147 0.0
C136 C 0.50716 0.49806 0.42949 0.0
C137 C 0.49454 0.56812 0.42432 0.0
C138 C 0.47933 0.52297 0.536 0.0
C139 C 0.49194 0.51003 0.48146 0.0
C140 C 0.47867 0.49417 0.56454 0.0
C141 C 0.49145 0.42419 0.56981 0.0
C142 C 0.49273 0.48159 0.51241 0.0
C143 C 0.5064 0.3851 0.54589 0.0
C144 C 0.50582 0.4689 0.4579 0.0
C145 C 0.47879 0.60682 0.44815 0.0
N146 N 0.50637 0.41422 0.51826 0.0
N147 N 0.47826 0.5774 0.47566 0.0
H148 H 0.469 0.97241 0.08427 0.0
H149 H 0.51829 0.03236 0.9133 0.0
H150 H 0.51618 0.16816 0.05012 0.0
H151 H 0.47196 0.83625 0.94743 0.0
H152 H 0.51583 0.08339 0.96296 0.0
H153 H 0.47131 0.92124 0.0346 0.0
C154 C 0.48059 0.00452 0.06648 0.0
C155 C 0.49246 0.07481 0.0715 0.0
C156 C 0.50584 0.02927 0.95955 0.0
C157 C 0.49421 0.01659 0.01425 0.0
C158 C 0.50683 1.00014 0.93108 0.0
C159 C 0.49525 0.9298 0.92606 0.0
C160 C 0.49334 0.98787 0.98331 0.0
C161 C 0.48102 0.8907 0.95013 0.0
C162 C 0.4815 0.9753 0.03801 0.0
C163 C 0.50686 0.11376 0.04742 0.0
N164 N 0.48075 0.92015 0.97769 0.0
N165 N 0.50705 0.08425 0.01988 0.0
H166 H 0.02372 0.83807 0.05172 0.0
H167 H 0.96776 0.17289 0.94622 0.0
H168 H 0.9655 0.03241 0.08224 0.0
H169 H 0.02498 0.978 0.91576 0.0
H170 H 0.96524 0.12203 0.99586 0.0
H171 H 0.02631 0.88918 0.00218 0.0
C172 C 0.0122 0.89177 0.04818 0.0
C173 C 0.99438 0.93092 0.07131 0.0
C174 C 0.97799 0.09024 0.97827 0.0
C175 C -0.00366 0.98962 0.01423 0.0
C176 C 0.97904 0.11913 0.94979 0.0
C177 C -0.00343 0.07972 0.92665 0.0
C178 C -0.00529 0.02136 0.98381 0.0
C179 C 0.01105 0.01041 0.93281 0.0
C180 C 0.01331 0.92082 0.01975 0.0
C181 C 0.97967 1.0002 0.06519 0.0
N182 N 0.01006 0.98361 0.96079 0.0
N183 N 0.9807 0.02718 0.03724 0.0
H184 H 0.6361 0.34623 0.18107 0.0
H185 H 0.85432 0.1592 0.31536 0.0
H186 H 0.60932 0.14025 0.21179 0.0
H187 H 0.8809 0.36534 0.28478 0.0
H188 H 0.76456 0.15129 0.27754 0.0
H189 H 0.72629 0.35378 0.21861 0.0
C190 C 0.64924 0.30246 0.19564 0.0
C191 C 0.61499 0.24249 0.19326 0.0
C192 C 0.78997 0.1983 0.27911 0.0
C193 C 0.71829 0.25095 0.23643 0.0
C194 C 0.84125 0.20291 0.30075 0.0
C195 C 0.87527 0.26307 0.30329 0.0
C196 C 0.77245 0.25422 0.2598 0.0
C197 C 0.85609 0.31797 0.28368 0.0
C198 C 0.70076 0.30688 0.21712 0.0
C199 C 0.63428 0.18749 0.21279 0.0
N200 N 0.806 0.31219 0.26276 0.0
N201 N 0.68458 0.1931 0.23357 0.0
H202 H 0.60922 0.36588 0.70989 0.0
H203 H 0.88444 0.13761 0.7856 0.0
H204 H 0.63957 0.15857 0.68189 0.0
H205 H 0.85385 0.34498 0.81345 0.0
H206 H 0.7949 0.14422 0.74749 0.0
H207 H 0.6992 0.35946 0.74766 0.0
C208 C 0.63488 0.31906 0.7116 0.0
C209 C 0.61673 0.26265 0.69268 0.0
C210 C 0.80774 0.18826 0.76196 0.0
C211 C 0.71981 0.25486 0.73602 0.0
C212 C 0.85884 0.18449 0.78378 0.0
C213 C 0.87674 0.24083 0.80279 0.0
C214 C 0.77421 0.24882 0.75907 0.0
C215 C 0.84179 0.30024 0.79932 0.0
C216 C 0.68625 0.3154 0.73322 0.0
C217 C 0.65181 0.20333 0.69597 0.0
N218 N 0.79227 0.30268 0.77789 0.0
N219 N 0.70158 0.20097 0.71725 0.0
H220 H 0.13644 0.84795 0.68115 0.0
H221 H 0.35363 0.659 0.81527 0.0
H222 H 0.10917 0.64168 0.71137 0.0
H223 H 0.38109 0.8653 0.78515 0.0
H224 H 0.26393 0.65184 0.77738 0.0
H225 H 0.22649 0.85499 0.71884 0.0
C226 C 0.14945 0.80401 0.69564 0.0
C227 C 0.1151 0.7441 0.69307 0.0
C228 C 0.28951 0.69872 0.77907 0.0
C229 C 0.21821 0.75199 0.73641 0.0
C230 C 0.34075 0.70291 0.80075 0.0
C231 C 0.37502 0.76288 0.80343 0.0
C232 C 0.27226 0.75488 0.75985 0.0
C233 C 0.35608 0.81806 0.78393 0.0
C234 C 0.20088 0.80814 0.7172 0.0
C235 C 0.13421 0.68888 0.71251 0.0
N236 N 0.30602 0.81269 0.76297 0.0
N237 N 0.18441 0.69421 0.73336 0.0
H238 H 0.38242 0.63386 0.28435 0.0
H239 H 0.10921 0.86833 0.21139 0.0
H240 H 0.35459 0.84043 0.31412 0.0
H241 H 0.13655 0.66141 0.18189 0.0
H242 H 0.19946 0.85942 0.24888 0.0
H243 H 0.29248 0.64299 0.24665 0.0
C244 C 0.35735 0.68109 0.28303 0.0
C245 C 0.37614 0.73646 0.30246 0.0
C246 C 0.18576 0.81599 0.23417 0.0
C247 C 0.27315 0.74735 0.25923 0.0
C248 C 0.13424 0.82108 0.21271 0.0
C249 C 0.1152 0.76552 0.19345 0.0
C250 C 0.21855 0.75489 0.23644 0.0
C251 C 0.14949 0.70557 0.19625 0.0
C252 C 0.30601 0.6863 0.26145 0.0
C253 C 0.34184 0.7964 0.29965 0.0
N254 N 0.19941 0.70183 0.21736 0.0
N255 N 0.29208 0.80026 0.27843 0.0
H256 H 0.3284 0.10506 0.21138 0.0
H257 H 0.16324 0.40155 0.28773 0.0
H258 H 0.35885 0.32179 0.20043 0.0
H259 H 0.13275 0.18483 0.29866 0.0
H260 H 0.23471 0.37335 0.25554 0.0
H261 H 0.25756 0.13325 0.24392 0.0
C262 C 0.32052 0.15859 0.21595 0.0
C263 C 0.3497 0.21112 0.20309 0.0
C264 C 0.21229 0.33194 0.26491 0.0
C265 C 0.26812 0.24379 0.24021 0.0
C266 C 0.17128 0.34802 0.28324 0.0
C267 C 0.14184 0.2955 0.29595 0.0
C268 C 0.22411 0.2628 0.25923 0.0
C269 C 0.15428 0.22706 0.28935 0.0
C270 C 0.27986 0.17465 0.23448 0.0
C271 C 0.33749 0.27955 0.20983 0.0
N272 N 0.19451 0.21273 0.27152 0.0
N273 N 0.29756 0.29387 0.22783 0.0
H274 H 0.36401 0.17771 0.70098 0.0
H275 H 0.13075 0.32432 0.79727 0.0
H276 H 0.32759 0.39376 0.70949 0.0
H277 H 0.16762 0.10824 0.78928 0.0
H278 H 0.20223 0.35059 0.76488 0.0
H279 H 0.29315 0.15127 0.73374 0.0
C280 C 0.34144 0.21967 0.70989 0.0
C281 C 0.35181 0.28811 0.70242 0.0
C282 C 0.19461 0.2974 0.77014 0.0
C283 C 0.27013 0.25808 0.73979 0.0
C284 C 0.1536 0.28231 0.78857 0.0
C285 C 0.14308 0.21391 0.79604 0.0
C286 C 0.2255 0.24377 0.75906 0.0
C287 C 0.1742 0.16171 0.78412 0.0
C288 C 0.30079 0.20448 0.72853 0.0
C289 C 0.32108 0.34026 0.71462 0.0
N290 N 0.21405 0.17774 0.76629 0.0
N291 N 0.28156 0.32413 0.73261 0.0
H292 H 0.66246 0.90111 0.78751 0.0
H293 H 0.82888 0.6061 0.71101 0.0
H294 H 0.63231 0.68415 0.79798 0.0
H295 H 0.85872 0.82306 0.70036 0.0
H296 H 0.75769 0.63367 0.74343 0.0
H297 H 0.73407 0.87354 0.75534 0.0
C298 C 0.67059 0.84766 0.78291 0.0
C299 C 0.64123 0.79488 0.79551 0.0
C300 C 0.77994 0.67526 0.73409 0.0
C301 C 0.72369 0.76292 0.75881 0.0
C302 C 0.8208 0.65955 0.71564 0.0
C303 C 0.84989 0.71233 0.70289 0.0
C304 C 0.76791 0.74429 0.73986 0.0
C305 C 0.83743 0.78064 0.70968 0.0
C306 C 0.71169 0.83195 0.7646 0.0
C307 C 0.65378 0.72657 0.78876 0.0
N308 N 0.7973 0.79462 0.72761 0.0
N309 N 0.69412 0.71259 0.77095 0.0
H310 H 0.82748 0.90103 0.21068 0.0
H311 H 0.66495 0.602 0.28691 0.0
H312 H 0.86031 0.68473 0.20008 0.0
H313 H 0.63247 0.81821 0.29801 0.0
H314 H 0.73617 0.6314 0.25477 0.0
H315 H 0.75667 0.87187 0.24313 0.0
C316 C 0.82013 0.84741 0.21531 0.0
C317 C 0.84996 0.79527 0.20258 0.0
C318 C 0.71337 0.67244 0.26417 0.0
C319 C 0.76846 0.76148 0.23958 0.0
C320 C 0.6725 0.65567 0.28246 0.0
C321 C 0.64259 0.70769 0.29521 0.0
C322 C 0.72457 0.74178 0.25854 0.0
C323 C 0.6544 0.77635 0.28867 0.0
C324 C 0.7795 0.83078 0.23378 0.0
C325 C 0.83843 0.72669 0.20937 0.0
N326 N 0.69451 0.79136 0.27086 0.0
N327 N 0.79853 0.71183 0.22732 0.0
H328 H 0.36735 0.11817 0.55872 0.0
H329 H 0.18084 0.33604 0.4316 0.0
H330 H 0.2888 0.31215 0.57622 0.0
H331 H 0.13526 0.12081 0.43344 0.0
H332 H 0.24404 0.32299 0.48069 0.0
H333 H 0.29923 0.11141 0.50975 0.0
C334 C 0.33519 0.15848 0.55262 0.0
C335 C 0.33444 0.21647 0.57131 0.0
C336 C 0.22047 0.27854 0.47019 0.0
C337 C 0.25848 0.20951 0.5157 0.0
C338 C 0.18475 0.28566 0.44205 0.0
C339 C 0.15221 0.22951 0.42851 0.0
C340 C 0.22459 0.2147 0.4848 0.0
C341 C 0.15934 0.16547 0.44328 0.0
C342 C 0.29666 0.15454 0.52476 0.0
C343 C 0.29179 0.2671 0.56237 0.0
N344 N 0.19497 0.15962 0.47087 0.0
N345 N 0.25636 0.26309 0.53494 0.0
H346 H 0.86076 0.88479 0.56105 0.0
H347 H 0.68689 0.66841 0.42851 0.0
H348 H 0.79283 0.68196 0.57363 0.0
H349 H 0.63107 0.87909 0.43486 0.0
H350 H 0.74998 0.68016 0.47772 0.0
H351 H 0.79394 0.8919 0.51168 0.0
C352 C 0.83122 0.84245 0.55376 0.0
C353 C 0.83301 0.78221 0.57125 0.0
C354 C 0.72421 0.72395 0.46817 0.0
C355 C 0.75863 0.78965 0.51517 0.0
C356 C 0.68848 0.7176 0.43999 0.0
C357 C 0.65299 0.77266 0.4277 0.0
C358 C 0.72531 0.78597 0.4841 0.0
C359 C 0.65741 0.83524 0.4437 0.0
C360 C 0.79342 0.84661 0.5257 0.0
C361 C 0.7937 0.72899 0.5608 0.0
N362 N 0.69298 0.84032 0.47134 0.0
N363 N 0.75897 0.73347 0.5332 0.0
H364 H 0.79418 0.8276 0.0733 0.0
H365 H 0.63071 0.61924 0.93457 0.0
H366 H 0.86171 0.62466 0.06051 0.0
H367 H 0.6886 0.82908 0.92816 0.0
H368 H 0.69622 0.60971 0.98428 0.0
H369 H 0.72916 0.81771 0.02455 0.0
C370 C 0.79477 0.7804 0.06052 0.0
C371 C 0.83426 0.72731 0.07077 0.0
C372 C 0.69474 0.6572 0.97156 0.0
C373 C 0.75967 0.71606 0.01496 0.0
C374 C 0.6577 0.66276 0.94331 0.0
C375 C 0.6537 0.72534 0.92737 0.0
C376 C 0.72639 0.71507 0.98386 0.0
C377 C 0.68969 0.78005 0.93967 0.0
C378 C 0.75784 0.7751 0.03263 0.0
C379 C 0.83232 0.66705 0.05323 0.0
N380 N 0.72369 0.77399 0.96741 0.0
N381 N 0.79572 0.66308 0.02586 0.0
H382 H 0.29524 0.17797 0.07229 0.0
H383 H 0.12651 0.38882 0.93634 0.0
H384 H 0.35885 0.3841 0.06232 0.0
H385 H 0.19305 0.18394 0.92681 0.0
H386 H 0.19164 0.39785 0.98621 0.0
H387 H 0.23041 0.18928 0.02352 0.0
C388 C 0.29497 0.22614 0.06014 0.0
C389 C 0.33332 0.2798 0.07118 0.0
C390 C 0.19213 0.35163 0.97276 0.0
C391 C 0.25897 0.29266 0.01538 0.0
C392 C 0.15533 0.34638 0.94441 0.0
C393 C 0.15377 0.28515 0.92758 0.0
C394 C 0.22605 0.29474 0.98422 0.0
C395 C 0.19208 0.2318 0.93905 0.0
C396 C 0.25816 0.23226 0.03225 0.0
C397 C 0.33036 0.34125 0.05442 0.0
N398 N 0.2258 0.2374 0.96688 0.0
N399 N 0.2939 0.34602 0.02703 0.0
loop_
_geom_bond_atom_site_label_1
_geom_bond_atom_site_label_2
_geom_bond_distance
_geom_bond_site_symmetry_2
_ccdc_geom_bond_type
C0 O2 1.247 . S
C0 O4 1.258 . S
C1 O8 1.247 . S
C1 O9 1.258 . S
O2 C0 1.247 . S
O2 Zn3 2.028 . S
Zn3 O2 2.028 . S
Zn3 O7 2.035 . S
Zn3 O9 2.035 1_455 S
Zn3 O10 2.028 . S
O4 C0 1.258 . S
O4 Zn5 2.035 . S
Zn5 O4 2.035 . S
Zn5 O6 2.028 . S
Zn5 O8 2.028 1_455 S
Zn5 O11 2.035 1_455 S
O6 Zn5 2.028 . S
O6 C12 1.247 . S
O7 Zn3 2.035 . S
O7 C12 1.258 . S
O8 C1 1.247 . S
O8 Zn5 2.028 1_655 S
O9 C1 1.258 . S
O9 Zn3 2.035 1_655 S
O10 Zn3 2.028 . S
O10 C13 1.247 1_455 S
O11 Zn5 2.035 1_655 S
O11 C13 1.258 . S
C12 O6 1.247 . S
C12 O7 1.258 . S
C13 O10 1.247 1_655 S
C13 O11 1.258 . S
C14 O16 1.247 . S
C14 O18 1.258 . S
C15 O22 1.247 . S
C15 O23 1.258 . S
O16 C14 1.247 . S
O16 Zn17 2.028 . S
Zn17 O16 2.028 . S
Zn17 O21 2.035 . S
Zn17 O23 2.035 . S
Zn17 O24 2.028 . S
O18 C14 1.258 . S
O18 Zn19 2.035 . S
Zn19 O18 2.035 . S
Zn19 O20 2.028 . S
Zn19 O22 2.028 . S
Zn19 O25 2.035 . S
O20 Zn19 2.028 . S
O20 C26 1.247 . S
O21 Zn17 2.035 . S
O21 C26 1.258 . S
O22 C15 1.247 . S
O22 Zn19 2.028 . S
O23 C15 1.258 . S
O23 Zn17 2.035 . S
O24 Zn17 2.028 . S
O24 C27 1.247 . S
O25 Zn19 2.035 . S
O25 C27 1.258 . S
C26 O20 1.247 . S
C26 O21 1.258 . S
C27 O24 1.247 . S
C27 O25 1.258 . S
C28 O30 1.247 . S
C28 O32 1.258 . S
C29 O36 1.247 . S
C29 O37 1.258 1_455 S
O30 C28 1.247 . S
O30 Zn31 2.028 . S
Zn31 O30 2.028 . S
Zn31 O35 2.035 . S
Zn31 O37 2.035 . S
Zn31 O38 2.028 1_655 S
O32 C28 1.258 . S
O32 Zn33 2.035 . S
Zn33 O32 2.035 . S
Zn33 O34 2.028 . S
Zn33 O36 2.028 1_655 S
Zn33 O39 2.035 1_655 S
O34 Zn33 2.028 . S
O34 C40 1.247 . S
O35 Zn31 2.035 . S
O35 C40 1.258 . S
O36 C29 1.247 . S
O36 Zn33 2.028 1_455 S
O37 C29 1.258 1_655 S
O37 Zn31 2.035 . S
O38 Zn31 2.028 1_455 S
O38 C41 1.247 . S
O39 Zn33 2.035 1_455 S
O39 C41 1.258 . S
C40 O34 1.247 . S
C40 O35 1.258 . S
C41 O38 1.247 . S
C41 O39 1.258 . S
C42 O44 1.247 . S
C42 O46 1.258 . S
C43 O50 1.247 . S
C43 O51 1.258 . S
O44 C42 1.247 . S
O44 Zn45 2.028 . S
Zn45 O44 2.028 . S
Zn45 O49 2.035 . S
Zn45 O51 2.035 . S
Zn45 O52 2.028 . S
O46 C42 1.258 . S
O46 Zn47 2.035 . S
Zn47 O46 2.035 . S
Zn47 O48 2.028 . S
Zn47 O50 2.028 . S
Zn47 O53 2.035 . S
O48 Zn47 2.028 . S
O48 C54 1.247 . S
O49 Zn45 2.035 . S
O49 C54 1.258 . S
O50 C43 1.247 . S
O50 Zn47 2.028 . S
O51 C43 1.258 . S
O51 Zn45 2.035 . S
O52 Zn45 2.028 . S
O52 C55 1.247 . S
O53 Zn47 2.035 . S
O53 C55 1.258 . S
C54 O48 1.247 . S
C54 O49 1.258 . S
C55 O52 1.247 . S
C55 O53 1.258 . S
C56 O58 1.247 . S
C56 O60 1.258 . S
C57 O64 1.247 . S
C57 O65 1.258 . S
O58 C56 1.247 . S
O58 Zn59 2.028 . S
Zn59 O58 2.028 . S
Zn59 O63 2.035 . S
Zn59 O65 2.035 . S
Zn59 O66 2.028 . S
O60 C56 1.258 . S
O60 Zn61 2.035 . S
Zn61 O60 2.035 . S
Zn61 O62 2.028 . S
Zn61 O64 2.028 . S
Zn61 O67 2.035 . S
O62 Zn61 2.028 . S
O62 C68 1.247 . S
O63 Zn59 2.035 . S
O63 C68 1.258 . S
O64 C57 1.247 . S
O64 Zn61 2.028 . S
O65 C57 1.258 . S
O65 Zn59 2.035 . S
O66 Zn59 2.028 . S
O66 C69 1.247 . S
O67 Zn61 2.035 . S
O67 C69 1.258 . S
C68 O62 1.247 . S
C68 O63 1.258 . S
C69 O66 1.247 . S
C69 O67 1.258 . S
C70 O72 1.247 . S
C70 O74 1.258 . S
C71 O78 1.247 1_455 S
C71 O79 1.258 . S
O72 C70 1.247 . S
O72 Zn73 2.028 . S
Zn73 O72 2.028 . S
Zn73 O77 2.035 . S
Zn73 O79 2.035 1_655 S
Zn73 O80 2.028 1_655 S
O74 C70 1.258 . S
O74 Zn75 2.035 . S
Zn75 O74 2.035 . S
Zn75 O76 2.028 . S
Zn75 O78 2.028 . S
Zn75 O81 2.035 1_655 S
O76 Zn75 2.028 . S
O76 C82 1.247 . S
O77 Zn73 2.035 . S
O77 C82 1.258 . S
O78 C71 1.247 1_655 S
O78 Zn75 2.028 . S
O79 C71 1.258 . S
O79 Zn73 2.035 1_455 S
O80 Zn73 2.028 1_455 S
O80 C83 1.247 . S
O81 Zn75 2.035 1_455 S
O81 C83 1.258 . S
C82 O76 1.247 . S
C82 O77 1.258 . S
C83 O80 1.247 . S
C83 O81 1.258 . S
C84 O86 1.247 . S
C84 O88 1.258 . S
C85 O92 1.247 . S
C85 O93 1.258 . S
O86 C84 1.247 . S
O86 Zn87 2.028 . S
Zn87 O86 2.028 . S
Zn87 O91 2.035 . S
Zn87 O93 2.035 . S
Zn87 O94 2.028 . S
O88 C84 1.258 . S
O88 Zn89 2.035 . S
Zn89 O88 2.035 . S
Zn89 O90 2.028 . S
Zn89 O92 2.028 . S
Zn89 O95 2.035 . S
O90 Zn89 2.028 . S
O90 C96 1.247 . S
O91 Zn87 2.035 . S
O91 C96 1.258 . S
O92 C85 1.247 . S
O92 Zn89 2.028 . S
O93 C85 1.258 . S
O93 Zn87 2.035 . S
O94 Zn87 2.028 . S
O94 C97 1.247 . S
O95 Zn89 2.035 . S
O95 C97 1.258 . S
C96 O90 1.247 . S
C96 O91 1.258 . S
C97 O94 1.247 . S
C97 O95 1.258 . S
C98 O100 1.247 . S
C98 O102 1.258 . S
C99 O106 1.247 . S
C99 O107 1.258 . S
O100 C98 1.247 . S
O100 Zn101 2.028 1_655 S
Zn101 O100 2.028 1_455 S
Zn101 O105 2.035 1_455 S
Zn101 O107 2.035 . S
Zn101 O108 2.028 . S
O102 C98 1.258 . S
O102 Zn103 2.035 1_655 S
Zn103 O102 2.035 1_455 S
Zn103 O104 2.028 . S
Zn103 O106 2.028 . S
Zn103 O109 2.035 . S
O104 Zn103 2.028 . S
O104 C110 1.247 1_455 S
O105 Zn101 2.035 1_655 S
O105 C110 1.258 . S
O106 C99 1.247 . S
O106 Zn103 2.028 . S
O107 C99 1.258 . S
O107 Zn101 2.035 . S
O108 Zn101 2.028 . S
O108 C111 1.247 . S
O109 Zn103 2.035 . S
O109 C111 1.258 . S
C110 O104 1.247 1_655 S
C110 O105 1.258 . S
C111 O108 1.247 . S
C111 O109 1.258 . S
H112 C118 0.930 . S
H113 C122 0.930 . S
H114 C127 0.929 . S
H115 C125 0.929 . S
H116 C120 0.929 . S
H117 C126 0.929 . S
C118 H112 0.930 . S
C118 C119 1.367 . S
C118 C126 1.378 . S
C119 C118 1.367 . S
C119 C127 1.433 . S
C120 H116 0.929 . S
C120 C122 1.378 . S
C120 C124 1.350 . S
C121 C124 1.463 1_655 S
C121 C126 1.350 . S
C121 N129 1.427 . S
C122 H113 0.930 . S
C122 C120 1.378 . S
C122 C123 1.367 . S
C123 C122 1.367 . S
C123 C125 1.433 . S
C124 C120 1.350 . S
C124 C121 1.463 1_455 S
C124 N128 1.427 . S
C125 H115 0.929 . S
C125 C123 1.433 . S
C125 N128 1.382 . S
C126 H117 0.929 . S
C126 C118 1.378 . S
C126 C121 1.350 . S
C127 H114 0.929 . S
C127 C119 1.433 . S
C127 N129 1.382 . S
N128 C124 1.427 . S
N128 C125 1.382 . S
N129 C121 1.427 . S
N129 C127 1.382 . S
H130 C136 0.930 . S
H131 C140 0.930 . S
H132 C145 0.929 . S
H133 C143 0.929 . S
H134 C138 0.929 . S
H135 C144 0.929 . S
C136 H130 0.930 . S
C136 C137 1.367 . S
C136 C144 1.378 . S
C137 C136 1.367 . S
C137 C145 1.433 . S
C138 H134 0.929 . S
C138 C140 1.378 . S
C138 C142 1.350 . S
C139 C142 1.463 . S
C139 C144 1.350 . S
C139 N147 1.427 . S
C140 H131 0.930 . S
C140 C138 1.378 . S
C140 C141 1.367 . S
C141 C140 1.367 . S
C141 C143 1.433 . S
C142 C138 1.350 . S
C142 C139 1.463 . S
C142 N146 1.427 . S
C143 H133 0.929 . S
C143 C141 1.433 . S
C143 N146 1.384 . S
C144 H135 0.929 . S
C144 C136 1.378 . S
C144 C139 1.350 . S
C145 H132 0.929 . S
C145 C137 1.433 . S
C145 N147 1.384 . S
N146 C142 1.427 . S
N146 C143 1.384 . S
N147 C139 1.427 . S
N147 C145 1.384 . S
H148 C154 0.930 . S
H149 C158 0.930 . S
H150 C163 0.929 . S
H151 C161 0.929 . S
H152 C156 0.929 . S
H153 C162 0.929 . S
C154 H148 0.930 . S
C154 C155 1.367 . S
C154 C162 1.378 . S
C155 C154 1.367 . S
C155 C163 1.433 . S
C156 H152 0.929 . S
C156 C158 1.378 . S
C156 C160 1.350 . S
C157 C160 1.463 1_544 S
C157 C162 1.350 . S
C157 N165 1.427 . S
C158 H149 0.930 . S
C158 C156 1.378 . S
C158 C159 1.367 . S
C159 C158 1.367 . S
C159 C161 1.433 . S
C160 C156 1.350 . S
C160 C157 1.463 1_566 S
C160 N164 1.427 . S
C161 H151 0.929 . S
C161 C159 1.433 . S
C161 N164 1.384 . S
C162 H153 0.929 . S
C162 C154 1.378 . S
C162 C157 1.350 . S
C163 H150 0.929 . S
C163 C155 1.433 . S
C163 N165 1.384 . S
N164 C160 1.427 . S
N164 C161 1.384 . S
N165 C157 1.427 . S
N165 C163 1.384 . S
H166 C172 0.930 . S
H167 C176 0.930 . S
H168 C181 0.929 . S
H169 C179 0.929 . S
H170 C174 0.929 . S
H171 C180 0.929 . S
C172 H166 0.930 . S
C172 C173 1.367 . S
C172 C180 1.378 . S
C173 C172 1.367 . S
C173 C181 1.433 1_455 S
C174 H170 0.929 . S
C174 C176 1.378 . S
C174 C178 1.350 . S
C175 C178 1.463 1_464 S
C175 C180 1.350 . S
C175 N183 1.427 1_455 S
C176 H167 0.930 . S
C176 C174 1.378 . S
C176 C177 1.367 . S
C177 C176 1.367 . S
C177 C179 1.433 1_655 S
C178 C174 1.350 . S
C178 C175 1.463 1_646 S
C178 N182 1.427 1_655 S
C179 H169 0.929 . S
C179 C177 1.433 1_455 S
C179 N182 1.384 . S
C180 H171 0.929 . S
C180 C172 1.378 . S
C180 C175 1.350 . S
C181 H168 0.929 . S
C181 C173 1.433 1_655 S
C181 N183 1.384 . S
N182 C178 1.427 1_455 S
N182 C179 1.384 . S
N183 C175 1.427 1_655 S
N183 C181 1.384 . S
H184 C190 0.930 . S
H185 C194 0.930 . S
H186 C199 0.929 . S
H187 C197 0.929 . S
H188 C192 0.929 . S
H189 C198 0.929 . S
C190 H184 0.930 . S
C190 C191 1.367 . S
C190 C198 1.378 . S
C191 C190 1.367 . S
C191 C199 1.433 . S
C192 H188 0.929 . S
C192 C194 1.378 . S
C192 C196 1.350 . S
C193 C196 1.463 . S
C193 C198 1.350 . S
C193 N201 1.427 . S
C194 H185 0.930 . S
C194 C192 1.378 . S
C194 C195 1.367 . S
C195 C194 1.367 . S
C195 C197 1.433 . S
C196 C192 1.350 . S
C196 C193 1.463 . S
C196 N200 1.427 . S
C197 H187 0.929 . S
C197 C195 1.433 . S
C197 N200 1.384 . S
C198 H189 0.929 . S
C198 C190 1.378 . S
C198 C193 1.350 . S
C199 H186 0.929 . S
C199 C191 1.433 . S
C199 N201 1.384 . S
N200 C196 1.427 . S
N200 C197 1.384 . S
N201 C193 1.427 . S
N201 C199 1.384 . S
H202 C208 0.930 . S
H203 C212 0.930 . S
H204 C217 0.929 . S
H205 C215 0.929 . S
H206 C210 0.929 . S
H207 C216 0.929 . S
C208 H202 0.930 . S
C208 C209 1.367 . S
C208 C216 1.378 . S
C209 C208 1.367 . S
C209 C217 1.433 . S
C210 H206 0.929 . S
C210 C212 1.378 . S
C210 C214 1.350 . S
C211 C214 1.463 . S
C211 C216 1.350 . S
C211 N219 1.427 . S
C212 H203 0.930 . S
C212 C210 1.378 . S
C212 C213 1.367 . S
C213 C212 1.367 . S
C213 C215 1.433 . S
C214 C210 1.350 . S
C214 C211 1.463 . S
C214 N218 1.427 . S
C215 H205 0.929 . S
C215 C213 1.433 . S
C215 N218 1.384 . S
C216 H207 0.929 . S
C216 C208 1.378 . S
C216 C211 1.350 . S
C217 H204 0.929 . S
C217 C209 1.433 . S
C217 N219 1.384 . S
N218 C214 1.427 . S
N218 C215 1.384 . S
N219 C211 1.427 . S
N219 C217 1.384 . S
H220 C226 0.930 . S
H221 C230 0.930 . S
H222 C235 0.929 . S
H223 C233 0.929 . S
H224 C228 0.929 . S
H225 C234 0.929 . S
C226 H220 0.930 . S
C226 C227 1.367 . S
C226 C234 1.378 . S
C227 C226 1.367 . S
C227 C235 1.433 . S
C228 H224 0.929 . S
C228 C230 1.378 . S
C228 C232 1.350 . S
C229 C232 1.463 . S
C229 C234 1.350 . S
C229 N237 1.427 . S
C230 H221 0.930 . S
C230 C228 1.378 . S
C230 C231 1.367 . S
C231 C230 1.367 . S
C231 C233 1.433 . S
C232 C228 1.350 . S
C232 C229 1.463 . S
C232 N236 1.427 . S
C233 H223 0.929 . S
C233 C231 1.433 . S
C233 N236 1.384 . S
C234 H225 0.929 . S
C234 C226 1.378 . S
C234 C229 1.350 . S
C235 H222 0.929 . S
C235 C227 1.433 . S
C235 N237 1.384 . S
N236 C232 1.427 . S
N236 C233 1.384 . S
N237 C229 1.427 . S
N237 C235 1.384 . S
H238 C244 0.930 . S
H239 C248 0.930 . S
H240 C253 0.929 . S
H241 C251 0.929 . S
H242 C246 0.929 . S
H243 C252 0.929 . S
C244 H238 0.930 . S
C244 C245 1.367 . S
C244 C252 1.378 . S
C245 C244 1.367 . S
C245 C253 1.433 . S
C246 H242 0.929 . S
C246 C248 1.378 . S
C246 C250 1.350 . S
C247 C250 1.463 . S
C247 C252 1.350 . S
C247 N255 1.427 . S
C248 H239 0.930 . S
C248 C246 1.378 . S
C248 C249 1.367 . S
C249 C248 1.367 . S
C249 C251 1.433 . S
C250 C246 1.350 . S
C250 C247 1.463 . S
C250 N254 1.427 . S
C251 H241 0.929 . S
C251 C249 1.433 . S
C251 N254 1.384 . S
C252 H243 0.929 . S
C252 C244 1.378 . S
C252 C247 1.350 . S
C253 H240 0.929 . S
C253 C245 1.433 . S
C253 N255 1.384 . S
N254 C250 1.427 . S
N254 C251 1.384 . S
N255 C247 1.427 . S
N255 C253 1.384 . S
H256 C262 0.930 . S
H257 C266 0.930 . S
H258 C271 0.929 . S
H259 C269 0.929 . S
H260 C264 0.929 . S
H261 C270 0.929 . S
C262 H256 0.930 . S
C262 C263 1.367 . S
C262 C270 1.378 . S
C263 C262 1.367 . S
C263 C271 1.433 . S
C264 H260 0.929 . S
C264 C266 1.378 . S
C264 C268 1.350 . S
C265 C268 1.463 . S
C265 C270 1.350 . S
C265 N273 1.427 . S
C266 H257 0.930 . S
C266 C264 1.378 . S
C266 C267 1.367 . S
C267 C266 1.367 . S
C267 C269 1.433 . S
C268 C264 1.350 . S
C268 C265 1.463 . S
C268 N272 1.427 . S
C269 H259 0.929 . S
C269 C267 1.433 . S
C269 N272 1.384 . S
C270 H261 0.929 . S
C270 C262 1.378 . S
C270 C265 1.350 . S
C271 H258 0.929 . S
C271 C263 1.433 . S
C271 N273 1.384 . S
N272 C268 1.427 . S
N272 C269 1.384 . S
N273 C265 1.427 . S
N273 C271 1.384 . S
H274 C280 0.930 . S
H275 C284 0.930 . S
H276 C289 0.929 . S
H277 C287 0.929 . S
H278 C282 0.929 . S
H279 C288 0.929 . S
C280 H274 0.930 . S
C280 C281 1.367 . S
C280 C288 1.378 . S
C281 C280 1.367 . S
C281 C289 1.433 . S
C282 H278 0.929 . S
C282 C284 1.378 . S
C282 C286 1.350 . S
C283 C286 1.463 . S
C283 C288 1.350 . S
C283 N291 1.427 . S
C284 H275 0.930 . S
C284 C282 1.378 . S
C284 C285 1.367 . S
C285 C284 1.367 . S
C285 C287 1.433 . S
C286 C282 1.350 . S
C286 C283 1.463 . S
C286 N290 1.427 . S
C287 H277 0.929 . S
C287 C285 1.433 . S
C287 N290 1.384 . S
C288 H279 0.929 . S
C288 C280 1.378 . S
C288 C283 1.350 . S
C289 H276 0.929 . S
C289 C281 1.433 . S
C289 N291 1.384 . S
N290 C286 1.427 . S
N290 C287 1.384 . S
N291 C283 1.427 . S
N291 C289 1.384 . S
H292 C298 0.930 . S
H293 C302 0.930 . S
H294 C307 0.929 . S
H295 C305 0.929 . S
H296 C300 0.929 . S
H297 C306 0.929 . S
C298 H292 0.930 . S
C298 C299 1.367 . S
C298 C306 1.378 . S
C299 C298 1.367 . S
C299 C307 1.433 . S
C300 H296 0.929 . S
C300 C302 1.378 . S
C300 C304 1.350 . S
C301 C304 1.463 . S
C301 C306 1.350 . S
C301 N309 1.427 . S
C302 H293 0.930 . S
C302 C300 1.378 . S
C302 C303 1.367 . S
C303 C302 1.367 . S
C303 C305 1.433 . S
C304 C300 1.350 . S
C304 C301 1.463 . S
C304 N308 1.427 . S
C305 H295 0.929 . S
C305 C303 1.433 . S
C305 N308 1.384 . S
C306 H297 0.929 . S
C306 C298 1.378 . S
C306 C301 1.350 . S
C307 H294 0.929 . S
C307 C299 1.433 . S
C307 N309 1.384 . S
N308 C304 1.427 . S
N308 C305 1.384 . S
N309 C301 1.427 . S
N309 C307 1.384 . S
H310 C316 0.930 . S
H311 C320 0.930 . S
H312 C325 0.929 . S
H313 C323 0.929 . S
H314 C318 0.929 . S
H315 C324 0.929 . S
C316 H310 0.930 . S
C316 C317 1.367 . S
C316 C324 1.378 . S
C317 C316 1.367 . S
C317 C325 1.433 . S
C318 H314 0.929 . S
C318 C320 1.378 . S
C318 C322 1.350 . S
C319 C322 1.463 . S
C319 C324 1.350 . S
C319 N327 1.427 . S
C320 H311 0.930 . S
C320 C318 1.378 . S
C320 C321 1.367 . S
C321 C320 1.367 . S
C321 C323 1.433 . S
C322 C318 1.350 . S
C322 C319 1.463 . S
C322 N326 1.427 . S
C323 H313 0.929 . S
C323 C321 1.433 . S
C323 N326 1.384 . S
C324 H315 0.929 . S
C324 C316 1.378 . S
C324 C319 1.350 . S
C325 H312 0.929 . S
C325 C317 1.433 . S
C325 N327 1.384 . S
N326 C322 1.427 . S
N326 C323 1.384 . S
N327 C319 1.427 . S
N327 C325 1.384 . S
H328 C334 0.930 . S
H329 C338 0.930 . S
H330 C343 0.929 . S
H331 C341 0.929 . S
H332 C336 0.929 . S
H333 C342 0.929 . S
C334 H328 0.930 . S
C334 C335 1.367 . S
C334 C342 1.378 . S
C335 C334 1.367 . S
C335 C343 1.433 . S
C336 H332 0.929 . S
C336 C338 1.378 . S
C336 C340 1.350 . S
C337 C340 1.463 . S
C337 C342 1.350 . S
C337 N345 1.427 . S
C338 H329 0.930 . S
C338 C336 1.378 . S
C338 C339 1.367 . S
C339 C338 1.367 . S
C339 C341 1.433 . S
C340 C336 1.350 . S
C340 C337 1.463 . S
C340 N344 1.427 . S
C341 H331 0.929 . S
C341 C339 1.433 . S
C341 N344 1.384 . S
C342 H333 0.929 . S
C342 C334 1.378 . S
C342 C337 1.350 . S
C343 H330 0.929 . S
C343 C335 1.433 . S
C343 N345 1.384 . S
N344 C340 1.427 . S
N344 C341 1.384 . S
N345 C337 1.427 . S
N345 C343 1.384 . S
H346 C352 0.930 . S
H347 C356 0.930 . S
H348 C361 0.929 . S
H349 C359 0.929 . S
H350 C354 0.929 . S
H351 C360 0.929 . S
C352 H346 0.930 . S
C352 C353 1.367 . S
C352 C360 1.378 . S
C353 C352 1.367 . S
C353 C361 1.433 . S
C354 H350 0.929 . S
C354 C356 1.378 . S
C354 C358 1.350 . S
C355 C358 1.463 . S
C355 C360 1.350 . S
C355 N363 1.427 . S
C356 H347 0.930 . S
C356 C354 1.378 . S
C356 C357 1.367 . S
C357 C356 1.367 . S
C357 C359 1.433 . S
C358 C354 1.350 . S
C358 C355 1.463 . S
C358 N362 1.427 . S
C359 H349 0.929 . S
C359 C357 1.433 . S
C359 N362 1.384 . S
C360 H351 0.929 . S
C360 C352 1.378 . S
C360 C355 1.350 . S
C361 H348 0.929 . S
C361 C353 1.433 . S
C361 N363 1.384 . S
N362 C358 1.427 . S
N362 C359 1.384 . S
N363 C355 1.427 . S
N363 C361 1.384 . S
H364 C370 0.930 . S
H365 C374 0.930 . S
H366 C379 0.929 . S
H367 C377 0.929 . S
H368 C372 0.929 . S
H369 C378 0.929 . S
C370 H364 0.930 . S
C370 C371 1.367 . S
C370 C378 1.378 . S
C371 C370 1.367 . S
C371 C379 1.433 . S
C372 H368 0.929 . S
C372 C374 1.378 . S
C372 C376 1.350 . S
C373 C376 1.463 1_554 S
C373 C378 1.350 . S
C373 N381 1.427 . S
C374 H365 0.930 . S
C374 C372 1.378 . S
C374 C375 1.367 . S
C375 C374 1.367 . S
C375 C377 1.433 . S
C376 C372 1.350 . S
C376 C373 1.463 1_556 S
C376 N380 1.427 . S
C377 H367 0.929 . S
C377 C375 1.433 . S
C377 N380 1.384 . S
C378 H369 0.929 . S
C378 C370 1.378 . S
C378 C373 1.350 . S
C379 H366 0.929 . S
C379 C371 1.433 . S
C379 N381 1.384 . S
N380 C376 1.427 . S
N380 C377 1.384 . S
N381 C373 1.427 . S
N381 C379 1.384 . S
H382 C388 0.930 . S
H383 C392 0.930 . S
H384 C397 0.929 . S
H385 C395 0.929 . S
H386 C390 0.929 . S
H387 C396 0.929 . S
C388 H382 0.930 . S
C388 C389 1.367 . S
C388 C396 1.378 . S
C389 C388 1.367 . S
C389 C397 1.433 . S
C390 H386 0.929 . S
C390 C392 1.378 . S
C390 C394 1.350 . S
C391 C394 1.463 1_554 S
C391 C396 1.350 . S
C391 N399 1.427 . S
C392 H383 0.930 . S
C392 C390 1.378 . S
C392 C393 1.367 . S
C393 C392 1.367 . S
C393 C395 1.433 . S
C394 C390 1.350 . S
C394 C391 1.463 1_556 S
C394 N398 1.427 . S
C395 H385 0.929 . S
C395 C393 1.433 . S
C395 N398 1.384 . S
C396 H387 0.929 . S
C396 C388 1.378 . S
C396 C391 1.350 . S
C397 H384 0.929 . S
C397 C389 1.433 . S
C397 N399 1.384 . S
N398 C394 1.427 . S
N398 C395 1.384 . S
N399 C391 1.427 . S
N399 C397 1.384 . S
C119 C13 1.820 . S
C123 C29 1.823 . S
C137 C54 1.822 . S
C141 C15 1.822 . S
C155 C84 1.818 . S
C159 C57 1.818 . S
C173 C71 1.830 . S
C177 C110 1.830 . S
C191 C96 1.950 . S
C195 C1 1.950 . S
C209 C27 1.951 . S
C213 C98 1.951 . S
C227 C41 1.951 . S
C231 C69 1.950 . S
C245 C42 1.952 . S
C249 C83 1.952 . S
C263 C85 2.099 . S
C267 C12 2.099 . S
C281 C14 2.105 . S
C285 C111 2.105 . S
C299 C56 2.096 . S
C303 C28 2.092 . S
C317 C70 2.102 . S
C321 C55 2.102 . S
C335 C26 0.632 . S
C339 C0 0.632 . S
C353 C40 0.635 . S
C357 C43 0.636 . S
C371 C82 0.636 . S
C375 C68 0.636 . S
C389 C97 0.636 . S
C393 C99 0.636 . S
