# Generated by pormake.
# Topology fni, (5)-cn, num edge types: 1
# Building blocks:
#     Node 0, Type 0, BuildingBlock: XOMCOT_clean_sbu_1, # of connection points: 5
#     Node 1, Type 0, BuildingBlock: XOMCOT_clean_sbu_1, # of connection points: 5
#     Node 2, Type 0, BuildingBlock: XOMCOT_clean_sbu_1, # of connection points: 5
#     Node 3, Type 0, BuildingBlock: XOMCOT_clean_sbu_1, # of connection points: 5
#     Node 4, Type 0, BuildingBlock: XOMCOT_clean_sbu_1, # of connection points: 5
#     Node 5, Type 0, BuildingBlock: XOMCOT_clean_sbu_1, # of connection points: 5
#     Node 6, Type 0, BuildingBlock: XOMCOT_clean_sbu_1, # of connection points: 5
#     Node 7, Type 0, BuildingBlock: XOMCOT_clean_sbu_1, # of connection points: 5
#     Edge 8, Type (0, 0), BuildingBlock: TEMPAE_clean_linker_10, # of connection points: 2
#     Edge 9, Type (0, 0), BuildingBlock: TEMPAE_clean_linker_10, # of connection points: 2
#     Edge 10, Type (0, 0), BuildingBlock: TEMPAE_clean_linker_10, # of connection points: 2
#     Edge 11, Type (0, 0), BuildingBlock: TEMPAE_clean_linker_10, # of connection points: 2
#     Edge 12, Type (0, 0), BuildingBlock: TEMPAE_clean_linker_10, # of connection points: 2
#     Edge 13, Type (0, 0), BuildingBlock: TEMPAE_clean_linker_10, # of connection points: 2
#     Edge 14, Type (0, 0), BuildingBlock: TEMPAE_clean_linker_10, # of connection points: 2
#     Edge 15, Type (0, 0), BuildingBlock: TEMPAE_clean_linker_10, # of connection points: 2
#     Edge 16, Type (0, 0), BuildingBlock: TEMPAE_clean_linker_10, # of connection points: 2
#     Edge 17, Type (0, 0), BuildingBlock: TEMPAE_clean_linker_10, # of connection points: 2
#     Edge 18, Type (0, 0), BuildingBlock: TEMPAE_clean_linker_10, # of connection points: 2
#     Edge 19, Type (0, 0), BuildingBlock: TEMPAE_clean_linker_10, # of connection points: 2
#     Edge 20, Type (0, 0), BuildingBlock: TEMPAE_clean_linker_10, # of connection points: 2
#     Edge 21, Type (0, 0), BuildingBlock: TEMPAE_clean_linker_10, # of connection points: 2
#     Edge 22, Type (0, 0), BuildingBlock: TEMPAE_clean_linker_10, # of connection points: 2
#     Edge 23, Type (0, 0), BuildingBlock: TEMPAE_clean_linker_10, # of connection points: 2
#     Edge 24, Type (0, 0), BuildingBlock: TEMPAE_clean_linker_10, # of connection points: 2
#     Edge 25, Type (0, 0), BuildingBlock: TEMPAE_clean_linker_10, # of connection points: 2
#     Edge 26, Type (0, 0), BuildingBlock: TEMPAE_clean_linker_10, # of connection points: 2
#     Edge 27, Type (0, 0), BuildingBlock: TEMPAE_clean_linker_10, # of connection points: 2
# Relax obj value: 0.165
# Max RMSD: 0.169
# Mean RMSD: 0.163
data_MOF--net-fni--node1-XOMCOT_clean_sbu_1--edge1-TEMPAE_clean_linker_10
_symmetry_space_group_name_H-M    P1
_symmetry_Int_Tables_number       1
_symmetry_cell_setting            triclinic
loop_
_symmetry_equiv_pos_as_xyz
'x, y, z'
_cell_length_a     55.093292
_cell_length_b     53.084898
_cell_length_c     17.728554
_cell_angle_alpha  93.477925
_cell_angle_beta   93.643189
_cell_angle_gamma 90.28936
loop_
_atom_site_label
_atom_site_type_symbol
_atom_site_fract_x
_atom_site_fract_y
_atom_site_fract_z
_atom_type_partial_charge
C0 C 0.422 0.40683 0.15036 0.0
C1 C 0.42061 0.40969 0.22772 0.0
N2 N 0.42928 0.38862 0.25828 0.0
N3 N 0.43148 0.38409 0.13229 0.0
C4 C 0.43585 0.37349 0.19915 0.0
H5 H 0.41639 0.42038 0.1097 0.0
Co6 Co 0.43708 0.37155 0.03496 0.0
C7 C 0.43291 0.31621 0.03922 0.0
O8 O 0.42163 0.3163 0.97163 0.0
N9 N 0.4437 0.35919 0.93533 0.0
C10 C 0.46513 0.34127 0.8442 0.0
C11 C 0.46287 0.34423 0.92091 0.0
C12 C 0.43486 0.36534 0.86574 0.0
N13 N 0.44751 0.35463 0.8095 0.0
O14 O 0.47101 0.38014 0.05402 0.0
H15 H 0.47501 0.33658 0.96393 0.0
H16 H 0.42048 0.37863 0.85569 0.0
O17 O 0.44125 0.33707 0.07139 0.0
C18 C 0.47412 0.4005 0.02078 0.0
O19 O 0.45544 0.40994 0.98257 0.0
N20 N 0.4033 0.36668 0.01665 0.0
C21 C 0.35264 0.3698 0.99822 0.0
C22 C 0.36367 0.35257 0.04639 0.0
C23 C 0.38903 0.3517 0.05618 0.0
C24 C 0.39281 0.38446 0.97329 0.0
C25 C 0.36765 0.38582 0.96125 0.0
H26 H 0.39695 0.34003 0.09881 0.0
H27 H 0.40403 0.3986 0.95089 0.0
H28 H 0.44408 0.3552 0.20475 0.0
H29 H 0.41345 0.42587 0.25885 0.0
H30 H 0.479 0.33054 0.81631 0.0
H31 H 0.35284 0.34073 0.07916 0.0
H32 H 0.36008 0.39981 0.92469 0.0
C33 C 0.62331 0.95134 0.24608 0.0
C34 C 0.6253 0.95315 0.16967 0.0
N35 N 0.60921 0.93692 0.13222 0.0
N36 N 0.60612 0.93401 0.25666 0.0
C37 C 0.5978 0.92556 0.18638 0.0
H38 H 0.63345 0.96223 0.29121 0.0
Co39 Co 0.59559 0.92663 0.34979 0.0
C40 C 0.58557 0.87222 0.3407 0.0
O41 O 0.59577 0.87216 0.40974 0.0
N42 N 0.58399 0.92001 0.44532 0.0
C43 C 0.55727 0.91037 0.52883 0.0
C44 C 0.56096 0.91211 0.45343 0.0
C45 C 0.59376 0.92327 0.51739 0.0
N46 N 0.57798 0.91735 0.56897 0.0
O47 O 0.56523 0.94216 0.32389 0.0
H48 H 0.54756 0.90789 0.40707 0.0
H49 H 0.61173 0.9306 0.53313 0.0
O50 O 0.58341 0.89308 0.30804 0.0
C51 C 0.56571 0.96523 0.34848 0.0
O52 O 0.58565 0.97412 0.38563 0.0
N53 N 0.62674 0.91357 0.37441 0.0
C54 C 0.675 0.89981 0.40696 0.0
C55 C 0.66045 0.88632 0.35046 0.0
C56 C 0.63663 0.89391 0.33365 0.0
C57 C 0.64129 0.92818 0.42462 0.0
C58 C 0.6652 0.92125 0.44361 0.0
H59 H 0.62658 0.8845 0.28574 0.0
H60 H 0.6345 0.94577 0.44862 0.0
H61 H 0.58306 0.91202 0.17509 0.0
H62 H 0.63759 0.96551 0.14372 0.0
H63 H 0.54067 0.90435 0.55221 0.0
H64 H 0.66768 0.87062 0.31726 0.0
H65 H 0.67596 0.9328 0.48583 0.0
C66 C 0.04949 0.12203 0.4705 0.0
C67 C 0.04635 0.12344 0.39322 0.0
N68 N 0.06726 0.11651 0.36261 0.0
N69 N 0.07225 0.11427 0.48849 0.0
C70 C 0.0826 0.11092 0.4216 0.0
H71 H 0.03607 0.1264 0.51118 0.0
Co72 Co 0.08461 0.10933 0.58615 0.0
C73 C 0.13809 0.11645 0.58452 0.0
O74 O 0.13836 0.12782 0.65252 0.0
N75 N 0.09652 0.10341 0.68596 0.0
C76 C 0.11506 0.08314 0.77955 0.0
C77 C 0.11249 0.08498 0.7026 0.0
C78 C 0.08925 0.11207 0.75432 0.0
N79 N 0.10035 0.10014 0.81216 0.0
O80 O 0.08083 0.07344 0.56631 0.0
H81 H 0.12128 0.07308 0.66099 0.0
H82 H 0.07508 0.12573 0.76204 0.0
O83 O 0.11796 0.10825 0.55161 0.0
C84 C 0.06097 0.06576 0.5906 0.0
O85 O 0.04681 0.08262 0.62235 0.0
N86 N 0.08596 0.14474 0.60522 0.0
C87 C 0.08061 0.19692 0.62999 0.0
C88 C 0.09888 0.18706 0.58546 0.0
C89 C 0.10084 0.16093 0.57203 0.0
C90 C 0.06715 0.1541 0.64435 0.0
C91 C 0.06438 0.18005 0.65863 0.0
H92 H 0.11373 0.15402 0.53265 0.0
H93 H 0.05379 0.1413 0.66317 0.0
H94 H 0.10083 0.10397 0.41583 0.0
H95 H 0.03004 0.12938 0.3621 0.0
H96 H 0.12657 0.06995 0.80899 0.0
H97 H 0.11112 0.19946 0.55939 0.0
H98 H 0.04967 0.1868 0.69201 0.0
C99 C 0.85675 0.58658 0.69857 0.0
C100 C 0.85494 0.5852 0.62062 0.0
N101 N 0.87254 0.59986 0.5967 0.0
N102 N 0.87514 0.60244 0.72363 0.0
C103 C 0.88465 0.60993 0.66007 0.0
H104 H 0.8452 0.57683 0.73454 0.0
Co105 Co 0.88451 0.6124 0.824 0.0
C106 C 0.89023 0.66845 0.81932 0.0
O107 O 0.87806 0.67242 0.88027 0.0
N108 N 0.89471 0.62225 0.92597 0.0
C109 C 0.91719 0.63945 0.02533 0.0
C110 C 0.91438 0.63693 0.94758 0.0
C111 C 0.88659 0.61517 0.99222 0.0
N112 N 0.89972 0.62563 0.05312 0.0
O113 O 0.91658 0.60053 0.8086 0.0
H114 H 0.9263 0.64501 0.90914 0.0
H115 H 0.87163 0.60232 0.99685 0.0
O116 O 0.89338 0.6459 0.79222 0.0
C117 C 0.91842 0.57823 0.83114 0.0
O118 O 0.89941 0.56814 0.85939 0.0
N119 N 0.85201 0.6211 0.83978 0.0
C120 C 0.80207 0.62209 0.86072 0.0
C121 C 0.81302 0.64085 0.82114 0.0
C122 C 0.83803 0.63968 0.80966 0.0
C123 C 0.84134 0.60231 0.87521 0.0
C124 C 0.81671 0.6027 0.88784 0.0
H125 H 0.84572 0.65303 0.7741 0.0
H126 H 0.85196 0.58621 0.89129 0.0
H127 H 0.89983 0.62296 0.66014 0.0
H128 H 0.8418 0.57418 0.58425 0.0
H129 H 0.9314 0.64992 0.05886 0.0
H130 H 0.80223 0.6557 0.79693 0.0
H131 H 0.80921 0.58767 0.9181 0.0
C132 C 0.36068 0.0803 0.20691 0.0
C133 C 0.35883 0.07815 0.12896 0.0
N134 N 0.37197 0.09695 0.10321 0.0
N135 N 0.37485 0.10039 0.23024 0.0
C136 C 0.38153 0.1101 0.16583 0.0
H137 H 0.3525 0.06782 0.24426 0.0
Co138 Co 0.3842 0.11025 0.33031 0.0
C139 C 0.39105 0.16603 0.32988 0.0
O140 O 0.37972 0.16944 0.3927 0.0
N141 N 0.39441 0.11989 0.43224 0.0
C142 C 0.41906 0.13363 0.53101 0.0
C143 C 0.41603 0.13119 0.45335 0.0
C144 C 0.38479 0.11543 0.49873 0.0
N145 N 0.39935 0.1237 0.5595 0.0
O146 O 0.41613 0.09792 0.31464 0.0
H147 H 0.42908 0.13692 0.41449 0.0
H148 H 0.368 0.10533 0.50357 0.0
O149 O 0.39342 0.14374 0.29979 0.0
C150 C 0.41729 0.07539 0.33564 0.0
O151 O 0.39792 0.06566 0.36279 0.0
N152 N 0.35187 0.11913 0.34564 0.0
C153 C 0.302 0.12037 0.36741 0.0
C154 C 0.31311 0.13945 0.32939 0.0
C155 C 0.33811 0.13822 0.31769 0.0
C156 C 0.34105 0.09997 0.37892 0.0
C157 C 0.31649 0.10051 0.39223 0.0
H158 H 0.34598 0.15203 0.28405 0.0
H159 H 0.3517 0.08385 0.39485 0.0
H160 H 0.39384 0.126 0.1647 0.0
H161 H 0.34858 0.06387 0.09403 0.0
H162 H 0.43464 0.1419 0.5639 0.0
H163 H 0.3025 0.15473 0.30692 0.0
H164 H 0.309 0.08533 0.42192 0.0
C165 C 0.91842 0.90508 0.63821 0.0
C166 C 0.91668 0.90769 0.71545 0.0
N167 N 0.92738 0.88765 0.74648 0.0
N168 N 0.93013 0.88351 0.62069 0.0
C169 C 0.93547 0.87337 0.68777 0.0
H170 H 0.91155 0.91802 0.59727 0.0
Co171 Co 0.93714 0.87182 0.52373 0.0
C172 C 0.93703 0.8163 0.52697 0.0
O173 O 0.92673 0.8157 0.45793 0.0
N174 N 0.94514 0.86044 0.42452 0.0
C175 C 0.96813 0.84466 0.33418 0.0
C176 C 0.9656 0.84743 0.41081 0.0
C177 C 0.9358 0.86569 0.35463 0.0
N178 N 0.94937 0.85622 0.29885 0.0
O179 O 0.97031 0.8831 0.54491 0.0
H180 H 0.97831 0.84088 0.45425 0.0
H181 H 0.92022 0.87742 0.34399 0.0
O182 O 0.94357 0.83765 0.56007 0.0
C183 C 0.97135 0.90419 0.51402 0.0
O184 O 0.9516 0.91209 0.47744 0.0
N185 N 0.90387 0.86424 0.50325 0.0
C186 C 0.85327 0.86299 0.48117 0.0
C187 C 0.86526 0.84666 0.53004 0.0
C188 C 0.89059 0.84794 0.54157 0.0
C189 C 0.89224 0.88129 0.45968 0.0
C190 C 0.86708 0.88053 0.44597 0.0
H191 H 0.89916 0.83681 0.58449 0.0
H192 H 0.90244 0.89651 0.43867 0.0
H193 H 0.9455 0.85608 0.69382 0.0
H194 H 0.90796 0.92299 0.7462 0.0
H195 H 0.98289 0.83525 0.30676 0.0
H196 H 0.85513 0.83354 0.56073 0.0
H197 H 0.8584 0.89447 0.41135 0.0
C198 C 0.12582 0.44885 0.74862 0.0
C199 C 0.12812 0.45004 0.67214 0.0
N200 N 0.11039 0.4357 0.63499 0.0
N201 N 0.10681 0.43374 0.75962 0.0
C202 C 0.09772 0.42603 0.68944 0.0
H203 H 0.13695 0.45877 0.79344 0.0
Co204 Co 0.09509 0.4283 0.85282 0.0
C205 C 0.07948 0.37502 0.84668 0.0
O206 O 0.08767 0.37454 0.91782 0.0
N207 N 0.08244 0.42376 0.94843 0.0
C208 C 0.05478 0.41778 0.03247 0.0
C209 C 0.05861 0.41916 0.95703 0.0
C210 C 0.09258 0.42535 0.0203 0.0
N211 N 0.07621 0.42161 0.0722 0.0
O212 O 0.06601 0.44566 0.82347 0.0
H213 H 0.0448 0.41673 0.91098 0.0
H214 H 0.11141 0.42971 0.03561 0.0
O215 O 0.08089 0.39556 0.81263 0.0
C216 C 0.06734 0.46905 0.84414 0.0
O217 O 0.08754 0.47775 0.88019 0.0
N218 N 0.12499 0.41318 0.88072 0.0
C219 C 0.17261 0.39775 0.91398 0.0
C220 C 0.15721 0.38357 0.86152 0.0
C221 C 0.1336 0.39186 0.84456 0.0
C222 C 0.14032 0.42796 0.92806 0.0
C223 C 0.16396 0.42025 0.94738 0.0
H224 H 0.12289 0.38173 0.79943 0.0
H225 H 0.13436 0.44628 0.94931 0.0
H226 H 0.08153 0.41442 0.67845 0.0
H227 H 0.14168 0.46079 0.64595 0.0
H228 H 0.03759 0.41398 0.05611 0.0
H229 H 0.16356 0.36656 0.83239 0.0
H230 H 0.17572 0.43236 0.98535 0.0
C231 C 0.54957 0.62285 0.94616 0.0
C232 C 0.54683 0.62433 0.86892 0.0
N233 N 0.56712 0.61533 0.83863 0.0
N234 N 0.57152 0.61307 0.96459 0.0
C235 C 0.58176 0.60856 0.89792 0.0
H236 H 0.53634 0.62836 0.9864 0.0
Co237 Co 0.58296 0.60657 0.06205 0.0
C238 C 0.63671 0.61315 0.06631 0.0
O239 O 0.63668 0.6226 0.13656 0.0
N240 N 0.59391 0.59909 0.16118 0.0
C241 C 0.61113 0.57727 0.2535 0.0
C242 C 0.60875 0.57961 0.17674 0.0
C243 C 0.58722 0.60803 0.22992 0.0
N244 N 0.59753 0.59514 0.28692 0.0
O245 O 0.57945 0.57093 0.03701 0.0
H246 H 0.61706 0.56751 0.13455 0.0
H247 H 0.57414 0.6228 0.23853 0.0
O248 O 0.61665 0.60623 0.03034 0.0
C249 C 0.55838 0.56322 0.05135 0.0
O250 O 0.54279 0.58001 0.07579 0.0
N251 N 0.584 0.64172 0.08665 0.0
C252 C 0.57792 0.69353 0.12031 0.0
C253 C 0.59757 0.68459 0.07971 0.0
C254 C 0.59986 0.65874 0.06149 0.0
C255 C 0.56412 0.65013 0.12225 0.0
C256 C 0.5608 0.6758 0.14015 0.0
H257 H 0.61401 0.65279 0.02534 0.0
H258 H 0.55042 0.63672 0.13566 0.0
H259 H 0.5993 0.5998 0.89265 0.0
H260 H 0.53115 0.63158 0.8376 0.0
H261 H 0.62184 0.5633 0.28237 0.0
H262 H 0.61116 0.69735 0.06185 0.0
H263 H 0.54469 0.68164 0.16819 0.0
C264 C 0.56867 0.51684 0.04273 0.0
C265 C 0.55132 0.53611 0.04499 0.0
C266 C 0.56154 0.49122 0.04149 0.0
C267 C 0.53652 0.48482 0.04179 0.0
C268 C 0.51903 0.50429 0.0433 0.0
C269 C 0.52664 0.52955 0.04517 0.0
C270 C 0.58072 0.47104 0.04061 0.0
C271 C 0.49211 0.49849 0.04255 0.0
C272 C 0.50494 0.42513 0.9615 0.0
C273 C 0.49701 0.4152 0.02718 0.0
C274 C 0.52045 0.44627 0.96551 0.0
C275 C 0.52792 0.45799 0.03715 0.0
C276 C 0.52217 0.44625 0.10375 0.0
C277 C 0.50671 0.42488 0.09798 0.0
C278 C 0.52623 0.45781 0.89291 0.0
C279 C 0.52997 0.45789 0.18126 0.0
H280 H 0.5878 0.52179 0.0434 0.0
H281 H 0.51309 0.54427 0.04661 0.0
H282 H 0.58004 0.46019 0.092 0.0
H283 H 0.57709 0.4575 0.99097 0.0
H284 H 0.59932 0.47903 0.03865 0.0
H285 H 0.48091 0.51583 0.04456 0.0
H286 H 0.48626 0.48679 0.99052 0.0
H287 H 0.48828 0.48749 0.09175 0.0
H288 H 0.49733 0.41766 0.90668 0.0
H289 H 0.50033 0.41741 0.14884 0.0
H290 H 0.54531 0.46473 0.89584 0.0
H291 H 0.51422 0.47424 0.88396 0.0
H292 H 0.52328 0.44414 0.84314 0.0
H293 H 0.54891 0.46519 0.18284 0.0
H294 H 0.52866 0.44414 0.22568 0.0
H295 H 0.51801 0.47407 0.19495 0.0
C296 C 0.44188 0.03863 0.37407 0.0
C297 C 0.43961 0.06008 0.33172 0.0
C298 C 0.46247 0.02332 0.37153 0.0
C299 C 0.48122 0.02933 0.32455 0.0
C300 C 0.47896 0.05078 0.28074 0.0
C301 C 0.45823 0.06608 0.28536 0.0
C302 C 0.46433 1.00095 0.42036 0.0
C303 C 0.49846 0.05756 0.22927 0.0
C304 C 0.54336 0.00434 0.38444 0.0
C305 C 0.54435 0.98183 0.33904 0.0
C306 C 0.52322 0.02029 0.37869 0.0
C307 C 0.50368 0.01382 0.32528 0.0
C308 C 0.50485 0.99149 0.27759 0.0
C309 C 0.5251 0.97558 0.28556 0.0
C310 C 0.52251 0.0436 0.43178 0.0
C311 C 0.4845 0.98417 0.21922 0.0
H312 H 0.42763 0.03391 0.41036 0.0
H313 H 0.45645 0.08251 0.25205 0.0
H314 H 0.46676 0.98336 0.3847 0.0
H315 H 0.48051 1.00319 0.46084 0.0
H316 H 0.44799 0.99869 0.45302 0.0
H317 H 0.49337 0.07398 0.19582 0.0
H318 H 0.51569 0.06211 0.26327 0.0
H319 H 0.50206 0.0412 0.18966 0.0
H320 H 0.55814 0.00928 0.4261 0.0
H321 H 0.52588 0.95833 0.24986 0.0
H322 H 0.50726 0.04198 0.46928 0.0
H323 H 0.51916 0.06057 0.3992 0.0
H324 H 0.53966 0.04655 0.46776 0.0
H325 H 0.46785 0.97963 0.24795 0.0
H326 H 0.48915 0.96755 0.18196 0.0
H327 H 0.4801 1.00021 0.18355 0.0
C328 C 0.9957 0.93797 0.46421 0.0
C329 C 0.99298 0.92104 0.5209 0.0
C330 C 0.0116 0.9587 0.47563 0.0
C331 C 0.02533 0.96264 0.54558 0.0
C332 C 0.02457 0.94415 0.60008 0.0
C333 C 0.00828 0.92349 0.58719 0.0
C334 C 0.0117 0.97774 0.41567 0.0
C335 C 0.0394 0.94728 0.67455 0.0
C336 C 0.06815 0.01973 0.55379 0.0
C337 C 0.05332 0.03877 0.58383 0.0
C338 C 0.06 0.9944 0.54511 0.0
C339 C 0.03639 0.98811 0.56596 0.0
C340 C 0.02178 0.00717 0.59873 0.0
C341 C 0.03045 0.0321 0.60749 0.0
C342 C 0.07631 0.97457 0.51133 0.0
C343 C 0.99642 1.00152 0.62137 0.0
H344 H 0.98415 0.93591 0.41229 0.0
H345 H 0.00628 0.91044 0.63114 0.0
H346 H 0.00213 0.99502 0.4355 0.0
H347 H 0.03057 0.98331 0.40539 0.0
H348 H 0.00248 0.97039 0.36115 0.0
H349 H 0.04106 0.92919 0.70273 0.0
H350 H 0.05787 0.95466 0.66642 0.0
H351 H 0.03044 0.96113 0.71286 0.0
H352 H 0.08596 0.02463 0.53613 0.0
H353 H 0.01886 0.04655 0.63137 0.0
H354 H 0.06959 0.9693 0.45215 0.0
H355 H 0.07602 0.95724 0.54325 0.0
H356 H 0.09539 0.9814 0.51092 0.0
H357 H 0.98467 0.99534 0.57036 0.0
H358 H 0.98793 0.01817 0.64983 0.0
H359 H 0.99682 0.98589 0.66019 0.0
C360 C 0.04635 0.50964 0.87351 0.0
C361 C 0.04637 0.48609 0.833 0.0
C362 C 0.02627 0.52567 0.86775 0.0
C363 C 0.00577 0.51821 0.81928 0.0
C364 C 0.00603 0.4949 0.77585 0.0
C365 C 0.02626 0.47897 0.78378 0.0
C366 C 0.02657 0.5501 0.91621 0.0
C367 C 0.98466 0.48647 0.72267 0.0
C368 C 0.94476 0.54344 0.8747 0.0
C369 C 0.94115 0.56359 0.82772 0.0
C370 C 0.96563 0.52856 0.87209 0.0
C371 C 0.98326 0.53362 0.82022 0.0
C372 C 0.97969 0.55385 0.7721 0.0
C373 C 0.95874 0.56882 0.77696 0.0
C374 C 0.96892 0.50755 0.92558 0.0
C375 C 0.99794 0.55956 0.71535 0.0
H376 H 0.06181 0.5153 0.9118 0.0
H377 H 0.02626 0.4609 0.75181 0.0
H378 H 0.02214 0.56617 0.88079 0.0
H379 H 0.01246 0.54934 0.958 0.0
H380 H 0.04447 0.55389 0.94741 0.0
H381 H 0.98873 0.46926 0.68703 0.0
H382 H 0.96883 0.48238 0.75576 0.0
H383 H 0.97926 0.50174 0.68513 0.0
H384 H 0.9313 0.5394 0.91444 0.0
H385 H 0.95589 0.58424 0.74011 0.0
H386 H 0.98595 0.51068 0.9619 0.0
H387 H 0.97063 0.48921 0.89301 0.0
H388 H 0.95353 0.50616 0.96271 0.0
H389 H 0.01578 0.56458 0.74513 0.0
H390 H 0.99208 0.57534 0.68018 0.0
H391 H 0.00071 0.54255 0.67746 0.0
C392 C 0.43453 0.40303 0.39355 0.0
C393 C 0.43117 0.38334 0.33736 0.0
C394 C 0.43671 0.39816 0.47066 0.0
C395 C 0.43534 0.37297 0.49231 0.0
C396 C 0.4317 0.353 0.43593 0.0
C397 C 0.42973 0.35842 0.3592 0.0
C398 C 0.44079 0.41996 0.52896 0.0
C399 C 0.42998 0.3259 0.45661 0.0
C400 C 0.46444 0.35853 0.68495 0.0
C401 C 0.44432 0.35865 0.72969 0.0
C402 C 0.46174 0.36298 0.60763 0.0
C403 C 0.43831 0.36753 0.57389 0.0
C404 C 0.41787 0.36742 0.61851 0.0
C405 C 0.42114 0.36309 0.69592 0.0
C406 C 0.48403 0.36319 0.56228 0.0
C407 C 0.39258 0.37199 0.58451 0.0
H408 H 0.43596 0.42227 0.37714 0.0
H409 H 0.42678 0.34313 0.31624 0.0
H410 H 0.42626 0.42022 0.56952 0.0
H411 H 0.45834 0.41762 0.56199 0.0
H412 H 0.44107 0.43846 0.50291 0.0
H413 H 0.42633 0.31265 0.40614 0.0
H414 H 0.44722 0.32038 0.48674 0.0
H415 H 0.41527 0.32378 0.49575 0.0
H416 H 0.48244 0.35552 0.71082 0.0
H417 H 0.40551 0.36293 0.73001 0.0
H418 H 0.48618 0.38197 0.53911 0.0
H419 H 0.4819 0.34911 0.51343 0.0
H420 H 0.5009 0.35893 0.5967 0.0
H421 H 0.39168 0.39099 0.56171 0.0
H422 H 0.37853 0.37068 0.62642 0.0
H423 H 0.38812 0.35803 0.53643 0.0
C424 C 0.59696 0.90975 0.01801 0.0
C425 C 0.60449 0.93336 0.05138 0.0
C426 C 0.59251 0.90605 0.9392 0.0
C427 C 0.59544 0.92652 0.89285 0.0
C428 C 0.60288 0.95043 0.92633 0.0
C429 C 0.60741 0.95352 0.00511 0.0
C430 C 0.5848 0.88022 0.9055 0.0
C431 C 0.60596 0.97281 0.87896 0.0
C432 C 0.60545 0.91467 0.68364 0.0
C433 C 0.5822 0.91895 0.6502 0.0
C434 C 0.60992 0.91656 0.76264 0.0
C435 C 0.5907 0.92308 0.80928 0.0
C436 C 0.56713 0.92719 0.7759 0.0
C437 C 0.56316 0.92499 0.69678 0.0
C438 C 0.63524 0.9118 0.79615 0.0
C439 C 0.54622 0.93441 0.82369 0.0
H440 H 0.59494 0.89407 0.05351 0.0
H441 H 0.61286 0.97189 0.03071 0.0
H442 H 0.56687 0.88132 0.8737 0.0
H443 H 0.59803 0.87325 0.86461 0.0
H444 H 0.58346 0.86626 0.94931 0.0
H445 H 0.61171 0.99016 0.91383 0.0
H446 H 0.61974 0.96859 0.83709 0.0
H447 H 0.58858 0.97661 0.84667 0.0
H448 H 0.62013 0.90961 0.64793 0.0
H449 H 0.54523 0.92858 0.67122 0.0
H450 H 0.63472 0.89683 0.8371 0.0
H451 H 0.64256 0.92915 0.8278 0.0
H452 H 0.64795 0.90598 0.75223 0.0
H453 H 0.5437 0.92005 0.86552 0.0
H454 H 0.52887 0.93626 0.78908 0.0
H455 H 0.55035 0.95264 0.85603 0.0
C456 C 0.08864 0.12676 0.92316 0.0
C457 C 0.09591 0.10335 0.89155 0.0
C458 C 0.08415 0.13002 1.00031 0.0
C459 C 0.08688 0.10933 0.04689 0.0
C460 C 0.09429 0.0857 0.0154 0.0
C461 C 0.09871 0.083 0.93826 0.0
C462 C 0.07663 0.15562 0.03214 0.0
C463 C 0.09736 0.06316 0.06308 0.0
C464 C 0.09559 0.12003 0.26111 0.0
C465 C 0.07212 0.11522 0.2835 0.0
C466 C 0.10054 0.11885 0.18422 0.0
C467 C 0.08167 0.11221 0.12841 0.0
C468 C 0.05793 0.10746 0.15068 0.0
C469 C 0.05342 0.10916 0.22787 0.0
C470 C 0.12609 0.12425 0.16308 0.0
C471 C 0.03735 0.10017 0.093 0.0
H472 H 0.08676 0.14264 0.88772 0.0
H473 H 0.10394 0.06475 0.91422 0.0
H474 H 0.05864 0.15419 0.05639 0.0
H475 H 0.08986 0.16243 0.07884 0.0
H476 H 0.07551 0.16983 0.9886 0.0
H477 H 0.10324 0.04608 0.02998 0.0
H478 H 0.11104 0.06751 0.1108 0.0
H479 H 0.07994 0.05882 0.0879 0.0
H480 H 0.11004 0.12502 0.30378 0.0
H481 H 0.03534 0.10516 0.24488 0.0
H482 H 0.12598 0.13583 0.11304 0.0
H483 H 0.13515 0.10617 0.14813 0.0
H484 H 0.1371 0.13427 0.2104 0.0
H485 H 0.03506 0.11482 0.05113 0.0
H486 H 0.01982 0.0977 0.11945 0.0
H487 H 0.04171 0.08225 0.06141 0.0
C488 C 0.8981 0.64282 0.1849 0.0
C489 C 0.89628 0.62218 0.13165 0.0
C490 C 0.89439 0.63985 0.26158 0.0
C491 C 0.88944 0.6155 0.28582 0.0
C492 C 0.88806 0.59452 0.23229 0.0
C493 C 0.89115 0.59818 0.15564 0.0
C494 C 0.89534 0.66281 0.31634 0.0
C495 C 0.88344 0.56817 0.25604 0.0
C496 C 0.90066 0.6046 0.4956 0.0
C497 C 0.87691 0.60435 0.51946 0.0
C498 C 0.90504 0.60802 0.41959 0.0
C499 C 0.8852 0.61203 0.36684 0.0
C500 C 0.86122 0.61242 0.39133 0.0
C501 C 0.85736 0.60821 0.4671 0.0
C502 C 0.93081 0.60685 0.39542 0.0
C503 C 0.83964 0.61735 0.33757 0.0
H504 H 0.90187 0.66139 0.16601 0.0
H505 H 0.89005 0.58222 0.11446 0.0
H506 H 0.87777 0.66485 0.34332 0.0
H507 H 0.90966 0.66054 0.36224 0.0
H508 H 0.89911 0.68043 0.28826 0.0
H509 H 0.88404 0.55375 0.20811 0.0
H510 H 0.89721 0.56339 0.30126 0.0
H511 H 0.86535 0.56715 0.27985 0.0
H512 H 0.91572 0.60141 0.53614 0.0
H513 H 0.83903 0.6083 0.48597 0.0
H514 H 0.93578 0.62483 0.37135 0.0
H515 H 0.9323 0.59163 0.35024 0.0
H516 H 0.94415 0.60326 0.44315 0.0
H517 H 0.84228 0.63545 0.31082 0.0
H518 H 0.82231 0.61821 0.36639 0.0
H519 H 0.83801 0.60224 0.29145 0.0
C520 C 0.37534 0.08139 0.97015 0.0
C521 C 0.37568 0.10151 0.02529 0.0
C522 C 0.3791 0.08546 0.89422 0.0
C523 C 0.38312 0.11031 0.87258 0.0
C524 C 0.38336 0.13075 0.92787 0.0
C525 C 0.37974 0.12609 1.00358 0.0
C526 C 0.37899 0.06312 0.83725 0.0
C527 C 0.38739 0.15755 0.90703 0.0
C528 C 0.41496 0.11764 0.69085 0.0
C529 C 0.3953 0.12105 0.63829 0.0
C530 C 0.41128 0.11439 0.76734 0.0
C531 C 0.38735 0.11477 0.79218 0.0
C532 C 0.36744 0.1186 0.73965 0.0
C533 C 0.37165 0.12156 0.6633 0.0
C534 C 0.43297 0.11007 0.8213 0.0
C535 C 0.34168 0.11939 0.76399 0.0
H536 H 0.37258 0.06233 0.98665 0.0
H537 H 0.37973 0.14175 0.04568 0.0
H538 H 0.36477 0.06551 0.79115 0.0
H539 H 0.39673 0.06195 0.81095 0.0
H540 H 0.37559 0.045 0.8632 0.0
H541 H 0.38683 0.17135 0.95657 0.0
H542 H 0.40528 0.15926 0.88234 0.0
H543 H 0.37328 0.16264 0.86324 0.0
H544 H 0.43324 0.1169 0.67177 0.0
H545 H 0.35643 0.12452 0.62316 0.0
H546 H 0.43132 0.09134 0.84517 0.0
H547 H 0.43355 0.12446 0.86945 0.0
H548 H 0.45043 0.11086 0.79341 0.0
H549 H 0.33682 0.10105 0.7861 0.0
H550 H 0.3283 0.12342 0.71679 0.0
H551 H 0.3401 0.13409 0.81064 0.0
C552 C 0.96566 0.8613 0.17393 0.0
C553 C 0.94569 0.85969 0.21881 0.0
C554 C 0.96243 0.86532 0.0964 0.0
C555 C 0.93863 0.86765 0.06261 0.0
C556 C 0.91836 0.86574 0.10733 0.0
C557 C 0.92214 0.86188 0.18493 0.0
C558 C 0.98453 0.86749 0.05091 0.0
C559 C 0.89269 0.86788 0.07326 0.0
C560 C 0.9315 0.90253 0.88146 0.0
C561 C 0.92979 0.88259 0.82567 0.0
C562 C 0.9342 0.89792 0.9587 0.0
C563 C 0.93504 0.87274 0.98088 0.0
C564 C 0.93301 0.8525 0.9249 0.0
C565 C 0.93054 0.85767 0.848 0.0
C566 C 0.93649 0.92002 0.01656 0.0
C567 C 0.93363 0.82539 0.94614 0.0
H568 H 0.98391 0.86001 0.19984 0.0
H569 H 0.90665 0.86035 0.21908 0.0
H570 H 0.9835 0.85322 1.00241 0.0
H571 H 0.98504 0.88634 0.02722 0.0
H572 H 0.00177 0.86482 0.08537 0.0
H573 H 0.87889 0.86529 0.11525 0.0
H574 H 0.8901 0.88668 0.05 0.0
H575 H 0.88939 0.85353 0.0255 0.0
H576 H 0.93123 0.9218 0.86462 0.0
H577 H 0.92889 0.84218 0.80529 0.0
H578 H 0.95424 0.91933 0.04964 0.0
H579 H 0.92205 0.91896 0.05713 0.0
H580 H 0.93513 0.93845 0.9901 0.0
H581 H 0.95171 0.82123 0.97351 0.0
H582 H 0.93007 0.8119 0.89623 0.0
H583 H 0.9199 0.82215 0.98776 0.0
C584 C 0.1104 0.45233 0.50813 0.0
C585 C 0.10524 0.43267 0.5542 0.0
C586 C 0.10543 0.44982 0.42946 0.0
C587 C 0.09519 0.42701 0.39578 0.0
C588 C 0.08999 0.40703 0.44188 0.0
C589 C 0.09497 0.41015 0.52065 0.0
C590 C 0.111 0.47168 0.38241 0.0
C591 C 0.07927 0.38234 0.40799 0.0
C592 C 0.06262 0.43031 0.2012 0.0
C593 C 0.08069 0.42211 0.15333 0.0
C594 C 0.06693 0.43155 0.28025 0.0
C595 C 0.08984 0.42428 0.31228 0.0
C596 C 0.108 0.41552 0.26433 0.0
C597 C 0.10323 0.41462 0.18545 0.0
C598 C 0.04717 0.4412 0.32943 0.0
C599 C 0.13258 0.4074 0.29632 0.0
H600 H 0.11796 0.46991 0.53384 0.0
H601 H 0.09119 0.39483 0.55597 0.0
H602 H 0.12401 0.46573 0.33965 0.0
H603 H 0.09414 0.47772 0.3512 0.0
H604 H 0.11888 0.48816 0.41738 0.0
H605 H 0.07651 0.3686 0.45155 0.0
H606 H 0.06151 0.3857 0.37731 0.0
H607 H 0.09142 0.37381 0.36606 0.0
H608 H 0.04526 0.43637 0.17676 0.0
H609 H 0.11711 0.40787 0.14881 0.0
H610 H 0.05341 0.4588 0.36202 0.0
H611 H 0.04319 0.4272 0.37105 0.0
H612 H 0.03006 0.44519 0.29582 0.0
H613 H 0.14205 0.42365 0.32802 0.0
H614 H 0.14432 0.39998 0.25152 0.0
H615 H 0.13036 0.39259 0.33694 0.0
C616 C 0.55257 0.60911 0.70419 0.0
C617 C 0.57183 0.61294 0.75941 0.0
C618 C 0.55679 0.60668 0.62688 0.0
C619 C 0.58088 0.60823 0.60405 0.0
C620 C 0.60043 0.61221 0.6594 0.0
C621 C 0.59568 0.61446 0.73645 0.0
C622 C 0.53548 0.60214 0.56966 0.0
C623 C 0.62634 0.61412 0.63713 0.0
C624 C 0.59402 0.57777 0.41175 0.0
C625 C 0.59355 0.59856 0.36646 0.0
C626 C 0.59003 0.58069 0.48913 0.0
C627 C 0.58562 0.60502 0.5223 0.0
C628 C 0.58527 0.62613 0.47705 0.0
C629 C 0.58913 0.62262 0.39955 0.0
C630 C 0.59028 0.55766 0.53522 0.0
C631 C 0.58081 0.65241 0.51052 0.0
H632 H 0.53415 0.60755 0.72152 0.0
H633 H 0.61061 0.61775 0.77873 0.0
H634 H 0.53483 0.61713 0.52865 0.0
H635 H 0.5377 0.58389 0.53697 0.0
H636 H 0.51784 0.60175 0.59663 0.0
H637 H 0.63951 0.61697 0.687 0.0
H638 H 0.63128 0.5967 0.60402 0.0
H639 H 0.62817 0.63009 0.60026 0.0
H640 H 0.59706 0.55909 0.38628 0.0
H641 H 0.58901 0.63875 0.36492 0.0
H642 H 0.5724 0.55541 0.55965 0.0
H643 H 0.60419 0.56002 0.58323 0.0
H644 H 0.59421 0.5401 0.501 0.0
H645 H 0.5627 0.6532 0.53451 0.0
H646 H 0.58157 0.66687 0.46798 0.0
H647 H 0.59456 0.65729 0.55766 0.0
C648 C 0.21283 0.38448 0.86851 0.0
C649 C 0.19825 0.39035 0.92899 0.0
C650 C 0.23765 0.37942 0.88139 0.0
C651 C 0.24802 0.37995 0.95663 0.0
C652 C 0.23316 0.38494 0.01803 0.0
C653 C 0.20846 0.39032 1.00342 0.0
C654 C 0.25297 0.37459 0.81441 0.0
C655 C 0.2435 0.38526 0.09902 0.0
C656 C 0.31054 0.35082 0.98622 0.0
C657 C 0.32572 0.37224 0.99007 0.0
C658 C 0.28514 0.35303 0.97702 0.0
C659 C 0.27473 0.37718 0.97061 0.0
C660 C 0.2899 0.39887 0.97538 0.0
C661 C 0.31514 0.39616 0.98577 0.0
C662 C 0.26947 0.32951 0.97314 0.0
C663 C 0.2795 0.42498 0.96843 0.0
H664 H 0.205 0.38478 0.8109 0.0
H665 H 0.1971 0.39467 0.05018 0.0
H666 H 0.2666 0.39 0.81325 0.0
H667 H 0.26312 0.35672 0.81961 0.0
H668 H 0.24188 0.37345 0.75972 0.0
H669 H 0.22913 0.38721 0.14016 0.0
H670 H 0.2537 0.36766 0.1088 0.0
H671 H 0.25653 0.40124 0.11044 0.0
H672 H 0.31853 0.33226 0.98905 0.0
H673 H 0.32661 0.41289 0.99077 0.0
H674 H 0.25968 0.32695 0.91654 0.0
H675 H 0.25552 0.33144 0.01554 0.0
H676 H 0.28028 0.31231 0.98347 0.0
H677 H 0.26914 0.42598 0.91294 0.0
H678 H 0.29381 0.4399 0.97334 0.0
H679 H 0.2666 0.42907 0.01306 0.0
C680 C 0.56247 0.84214 0.24685 0.0
C681 C 0.58279 0.84781 0.29655 0.0
C682 C 0.55942 0.81786 0.21045 0.0
C683 C 0.57748 0.79931 0.22275 0.0
C684 C 0.59857 0.80556 0.27003 0.0
C685 C 0.60079 0.82957 0.30698 0.0
C686 C 0.53651 0.81175 0.16149 0.0
C687 C 0.6186 0.78667 0.28324 0.0
C688 C 0.56565 0.72878 0.2112 0.0
C689 C 0.57539 0.72101 0.14229 0.0
C690 C 0.56457 0.7544 0.23526 0.0
C691 C 0.57407 0.77285 0.19052 0.0
C692 C 0.58314 0.76534 0.11976 0.0
C693 C 0.58344 0.73959 0.09613 0.0
C694 C 0.55441 0.7616 0.31065 0.0
C695 C 0.59377 0.78437 0.07085 0.0
H696 H 0.54859 0.85631 0.23886 0.0
H697 H 0.61675 0.83412 0.34443 0.0
H698 H 0.54099 0.80322 0.10548 0.0
H699 H 0.52557 0.79763 0.18859 0.0
H700 H 0.52518 0.82871 0.15276 0.0
H701 H 0.63466 0.7952 0.3166 0.0
H702 H 0.6117 0.77085 0.31419 0.0
H703 H 0.62458 0.77859 0.22835 0.0
H704 H 0.55963 0.7148 0.24812 0.0
H705 H 0.59039 0.73404 0.04186 0.0
H706 H 0.54167 0.77761 0.30536 0.0
H707 H 0.56945 0.76785 0.35228 0.0
H708 H 0.54471 0.74561 0.33342 0.0
H709 H 0.58123 0.80044 0.06359 0.0
H710 H 0.59765 0.77594 0.01405 0.0
H711 H 0.611 0.79212 0.09907 0.0
C712 C 0.26407 0.14316 0.4043 0.0
C713 C 0.27559 0.12066 0.38189 0.0
C714 C 0.24021 0.1429 0.42834 0.0
C715 C 0.22777 0.11958 0.43133 0.0
C716 C 0.23876 0.09702 0.4046 0.0
C717 C 0.26233 0.09789 0.37925 0.0
C718 C 0.22875 0.16745 0.45397 0.0
C719 C 0.22616 0.07176 0.40659 0.0
C720 C 0.18326 0.11538 0.58519 0.0
C721 C 0.16074 0.11584 0.54396 0.0
C722 C 0.20512 0.11632 0.54893 0.0
C723 C 0.20448 0.11836 0.46951 0.0
C724 C 0.18175 0.11872 0.4274 0.0
C725 C 0.16012 0.1173 0.46516 0.0
C726 C 0.22892 0.11509 0.59574 0.0
C727 C 0.18015 0.12142 0.34299 0.0
H728 H 0.27404 0.16086 0.40639 0.0
H729 H 0.27069 0.08048 0.3595 0.0
H730 H 0.20999 0.16869 0.42772 0.0
H731 H 0.22743 0.16824 0.51626 0.0
H732 H 0.23942 0.18409 0.43943 0.0
H733 H 0.23655 0.05616 0.37961 0.0
H734 H 0.22378 0.06755 0.46626 0.0
H735 H 0.20777 0.07222 0.37737 0.0
H736 H 0.18379 0.11418 0.64612 0.0
H737 H 0.14275 0.11819 0.43325 0.0
H738 H 0.23966 0.1326 0.59122 0.0
H739 H 0.23986 0.09907 0.57383 0.0
H740 H 0.22625 0.11273 0.65651 0.0
H741 H 0.18442 0.14125 0.33174 0.0
H742 H 0.16169 0.11663 0.31712 0.0
H743 H 0.19354 0.10922 0.3146 0.0
C744 C 0.88838 0.71362 0.78689 0.0
C745 C 0.89993 0.69017 0.78149 0.0
C746 C 0.89668 0.73416 0.74883 0.0
C747 C 0.91752 0.73143 0.70614 0.0
C748 C 0.92985 0.70806 0.70319 0.0
C749 C 0.92066 0.68758 0.73979 0.0
C750 C 0.88256 0.75847 0.75186 0.0
C751 C 0.9525 0.70454 0.66021 0.0
C752 C 0.92069 0.77293 0.53996 0.0
C753 C 0.93493 0.79349 0.57112 0.0
C754 C 0.91529 0.75255 0.58296 0.0
C755 C 0.92484 0.75222 0.65888 0.0
C756 C 0.94016 0.77231 0.68991 0.0
C757 C 0.94485 0.79285 0.64588 0.0
C758 C 0.89838 0.73193 0.54796 0.0
C759 C 0.95132 0.77226 0.76986 0.0
H760 H 0.87231 0.71569 0.81888 0.0
H761 H 0.92983 0.66956 0.73626 0.0
H762 H 0.89469 0.77449 0.7726 0.0
H763 H 0.87524 0.76243 0.69402 0.0
H764 H 0.86715 0.75778 0.7892 0.0
H765 H 0.96155 0.68632 0.67085 0.0
H766 H 0.94778 0.70504 0.59857 0.0
H767 H 0.96562 0.72018 0.67629 0.0
H768 H 0.9128 0.77315 0.48244 0.0
H769 H 0.95594 0.80855 0.67039 0.0
H770 H 0.88187 0.73113 0.58054 0.0
H771 H 0.90732 0.71331 0.55046 0.0
H772 H 0.89264 0.73488 0.48796 0.0
H773 H 0.93691 0.77086 0.81035 0.0
H774 H 0.96243 0.78948 0.7862 0.0
H775 H 0.96304 0.75545 0.77556 0.0
C776 C 0.81476 0.86532 0.39986 0.0
C777 C 0.82639 0.86365 0.47197 0.0
C778 C 0.78959 0.86902 0.39081 0.0
C779 C 0.77582 0.87133 0.45558 0.0
C780 C 0.78731 0.86864 0.52833 0.0
C781 C 0.8125 0.86474 0.53565 0.0
C782 C 0.77793 0.87146 0.3122 0.0
C783 C 0.77323 0.87114 0.59869 0.0
C784 C 0.71902 0.91097 0.43559 0.0
C785 C 0.70069 0.89247 0.42355 0.0
C786 C 0.74346 0.9043 0.4479 0.0
C787 C 0.7498 0.87848 0.44739 0.0
C788 C 0.73141 0.85969 0.43636 0.0
C789 C 0.70705 0.86691 0.42486 0.0
C790 C 0.76259 0.9249 0.45976 0.0
C791 C 0.73751 0.83197 0.4353 0.0
H792 H 0.82547 0.86425 0.35055 0.0
H793 H 0.8215 0.86372 0.59155 0.0
H794 H 0.76198 0.85858 0.30216 0.0
H795 H 0.77125 0.89099 0.30668 0.0
H796 H 0.7908 0.86714 0.2675 0.0
H797 H 0.7844 0.86635 0.65016 0.0
H798 H 0.76681 0.89083 0.60713 0.0
H799 H 0.7569 0.8587 0.59236 0.0
H800 H 0.71436 0.93073 0.43341 0.0
H801 H 0.69295 0.85251 0.41662 0.0
H802 H 0.77501 0.92354 0.41286 0.0
H803 H 0.77376 0.92256 0.51314 0.0
H804 H 0.75453 0.94405 0.46228 0.0
H805 H 0.74925 0.82706 0.38808 0.0
H806 H 0.72101 0.81973 0.42838 0.0
H807 H 0.74792 0.82772 0.48857 0.0
C808 C 0.09928 0.2392 0.66915 0.0
C809 C 0.0785 0.2246 0.6468 0.0
C810 C 0.09743 0.26486 0.69215 0.0
C811 C 0.07423 0.27627 0.69235 0.0
C812 C 0.05331 0.26196 0.66603 0.0
C813 C 0.05567 0.23626 0.64396 0.0
C814 C 0.12021 0.27938 0.72023 0.0
C815 C 0.02831 0.2735 0.66431 0.0
C816 C 0.07005 0.32911 0.84412 0.0
C817 C 0.07381 0.35062 0.80399 0.0
C818 C 0.06908 0.30495 0.80765 0.0
C819 C 0.07179 0.30211 0.72874 0.0
C820 C 0.07403 0.32385 0.6869 0.0
C821 C 0.07504 0.34791 0.7251 0.0
C822 C 0.06655 0.28234 0.85453 0.0
C823 C 0.07665 0.32163 0.60256 0.0
H824 H 0.11695 0.23029 0.67184 0.0
H825 H 0.03957 0.22517 0.62537 0.0
H826 H 0.12124 0.29736 0.6918 0.0
H827 H 0.11969 0.28422 0.7819 0.0
H828 H 0.13697 0.26845 0.71037 0.0
H829 H 0.01438 0.2609 0.63337 0.0
H830 H 0.02289 0.27736 0.72307 0.0
H831 H 0.02843 0.2918 0.6372 0.0
H832 H 0.06883 0.33106 0.90499 0.0
H833 H 0.078 0.36443 0.69368 0.0
H834 H 0.08346 0.27108 0.85386 0.0
H835 H 0.05143 0.26993 0.83008 0.0
H836 H 0.0631 0.28784 0.91434 0.0
H837 H 0.09479 0.31386 0.59103 0.0
H838 H 0.07485 0.34018 0.57695 0.0
H839 H 0.0628 0.3084 0.57424 0.0
C840 C 0.65943 0.61665 0.949 0.0
C841 C 0.65962 0.61372 0.02712 0.0
C842 C 0.68128 0.61935 0.91309 0.0
C843 C 0.70382 0.61828 0.95601 0.0
C844 C 0.70402 0.61483 0.03467 0.0
C845 C 0.68195 0.61289 0.0693 0.0
C846 C 0.6801 0.62331 0.82937 0.0
C847 C 0.7276 0.61311 0.0824 0.0
C848 C 0.76246 0.59915 0.86806 0.0
C849 C 0.77558 0.62203 0.87351 0.0
C850 C 0.73862 0.59787 0.89116 0.0
C851 C 0.72737 0.62008 0.91942 0.0
C852 C 0.7398 0.64355 0.91972 0.0
C853 C 0.76381 0.64425 0.89706 0.0
C854 C 0.726 0.57251 0.88923 0.0
C855 C 0.72811 0.66775 0.94732 0.0
H856 H 0.6422 0.61761 0.91626 0.0
H857 H 0.68218 0.61057 0.12969 0.0
H858 H 0.69412 0.63709 0.81552 0.0
H859 H 0.68357 0.60515 0.79774 0.0
H860 H 0.66195 0.63013 0.80916 0.0
H861 H 0.72461 0.61006 0.14256 0.0
H862 H 0.73865 0.59734 0.05951 0.0
H863 H 0.7384 0.63072 0.08018 0.0
H864 H 0.77114 0.58199 0.84777 0.0
H865 H 0.77374 0.66201 0.9012 0.0
H866 H 0.70784 0.57333 0.85873 0.0
H867 H 0.72312 0.56749 0.94789 0.0
H868 H 0.73663 0.55727 0.86135 0.0
H869 H 0.70956 0.66931 0.91977 0.0
H870 H 0.73894 0.68466 0.93585 0.0
H871 H 0.72624 0.66766 0.00924 0.0
C872 C 0.44263 0.29166 0.15491 0.0
C873 C 0.43083 0.2933 0.08287 0.0
C874 C 0.43865 0.27079 0.19833 0.0
C875 C 0.4221 0.25143 0.16968 0.0
C876 C 0.41048 0.25286 0.0966 0.0
C877 C 0.41519 0.27354 0.05397 0.0
C878 C 0.45187 0.26962 0.27521 0.0
C879 C 0.39227 0.23302 0.06435 0.0
C880 C 0.41929 0.18574 0.24435 0.0
C881 C 0.40002 0.18815 0.29226 0.0
C882 C 0.42762 0.20656 0.20744 0.0
C883 C 0.41589 0.23014 0.21665 0.0
C884 C 0.39657 0.2327 0.26563 0.0
C885 C 0.38913 0.21178 0.30363 0.0
C886 C 0.44867 0.20317 0.15739 0.0
C887 C 0.38305 0.25724 0.27543 0.0
H888 H 0.45475 0.30677 0.1777 0.0
H889 H 0.40582 0.27458 0.99864 0.0
H890 H 0.43864 0.27036 0.31986 0.0
H891 H 0.46167 0.25147 0.27868 0.0
H892 H 0.46514 0.2854 0.28758 0.0
H893 H 0.38478 0.23693 0.0066 0.0
H894 H 0.40084 0.21417 0.06173 0.0
H895 H 0.37695 0.23208 0.10187 0.0
H896 H 0.42795 0.16758 0.23599 0.0
H897 H 0.37416 0.21373 0.34034 0.0
H898 H 0.46234 0.21847 0.17098 0.0
H899 H 0.44212 0.20437 0.09726 0.0
H900 H 0.45772 0.18469 0.16358 0.0
H901 H 0.3959 0.27287 0.29397 0.0
H902 H 0.36897 0.25638 0.3174 0.0
H903 H 0.37406 0.26194 0.2203 0.0
loop_
_geom_bond_atom_site_label_1
_geom_bond_atom_site_label_2
_geom_bond_distance
_geom_bond_site_symmetry_2
_ccdc_geom_bond_type
C0 C1 1.351 . S
C0 N3 1.368 . S
C0 H5 0.931 . S
C1 C0 1.351 . S
C1 N2 1.373 . S
C1 H29 0.930 . S
N2 C1 1.373 . S
N2 C4 1.340 . S
N3 C0 1.368 . S
N3 C4 1.321 . S
N3 Co6 2.135 . S
C4 N2 1.340 . S
C4 N3 1.321 . S
C4 H28 0.930 . S
H5 C0 0.931 . S
Co6 N3 2.135 . S
Co6 N9 2.121 1_554 S
Co6 O14 2.055 . S
Co6 O17 2.039 . S
Co6 N20 2.140 . S
C7 O8 1.227 . S
C7 O17 1.265 . S
O8 C7 1.227 . S
N9 Co6 2.121 1_556 S
N9 C11 1.375 . S
N9 C12 1.313 . S
C10 C11 1.338 . S
C10 N13 1.377 . S
C10 H30 0.930 . S
C11 N9 1.375 . S
C11 C10 1.338 . S
C11 H15 0.931 . S
C12 N9 1.313 . S
C12 N13 1.344 . S
C12 H16 0.930 . S
N13 C10 1.377 . S
N13 C12 1.344 . S
O14 Co6 2.055 . S
O14 C18 1.253 . S
H15 C11 0.931 . S
H16 C12 0.930 . S
O17 Co6 2.039 . S
O17 C7 1.265 . S
C18 O14 1.253 . S
C18 O19 1.227 . S
O19 C18 1.227 . S
N20 Co6 2.140 . S
N20 C23 1.346 . S
N20 C24 1.345 . S
C21 C22 1.387 . S
C21 C25 1.391 . S
C22 C21 1.387 . S
C22 C23 1.369 . S
C22 H31 0.929 . S
C23 N20 1.346 . S
C23 C22 1.369 . S
C23 H26 0.928 . S
C24 N20 1.345 . S
C24 C25 1.371 . S
C24 H27 0.931 1_554 S
C25 C21 1.391 . S
C25 C24 1.371 . S
C25 H32 0.930 1_554 S
H26 C23 0.928 . S
H27 C24 0.931 1_556 S
H28 C4 0.930 . S
H29 C1 0.930 . S
H30 C10 0.930 . S
H31 C22 0.929 . S
H32 C25 0.930 1_556 S
C33 C34 1.351 . S
C33 N36 1.368 . S
C33 H38 0.931 . S
C34 C33 1.351 . S
C34 N35 1.373 . S
C34 H62 0.930 . S
N35 C34 1.373 . S
N35 C37 1.340 . S
N36 C33 1.368 . S
N36 C37 1.321 . S
N36 Co39 2.135 . S
C37 N35 1.340 . S
C37 N36 1.321 . S
C37 H61 0.930 . S
H38 C33 0.931 . S
Co39 N36 2.135 . S
Co39 N42 2.121 . S
Co39 O47 2.055 . S
Co39 O50 2.039 . S
Co39 N53 2.140 . S
C40 O41 1.227 . S
C40 O50 1.265 . S
O41 C40 1.227 . S
N42 Co39 2.121 . S
N42 C44 1.375 . S
N42 C45 1.313 . S
C43 C44 1.338 . S
C43 N46 1.377 . S
C43 H63 0.930 . S
C44 N42 1.375 . S
C44 C43 1.338 . S
C44 H48 0.931 . S
C45 N42 1.313 . S
C45 N46 1.344 . S
C45 H49 0.930 . S
N46 C43 1.377 . S
N46 C45 1.344 . S
O47 Co39 2.055 . S
O47 C51 1.253 . S
H48 C44 0.931 . S
H49 C45 0.930 . S
O50 Co39 2.039 . S
O50 C40 1.265 . S
C51 O47 1.253 . S
C51 O52 1.227 . S
O52 C51 1.227 . S
N53 Co39 2.140 . S
N53 C56 1.346 . S
N53 C57 1.345 . S
C54 C55 1.387 . S
C54 C58 1.391 . S
C55 C54 1.387 . S
C55 C56 1.369 . S
C55 H64 0.929 . S
C56 N53 1.346 . S
C56 C55 1.369 . S
C56 H59 0.928 . S
C57 N53 1.345 . S
C57 C58 1.371 . S
C57 H60 0.931 . S
C58 C54 1.391 . S
C58 C57 1.371 . S
C58 H65 0.930 . S
H59 C56 0.928 . S
H60 C57 0.931 . S
H61 C37 0.930 . S
H62 C34 0.930 . S
H63 C43 0.930 . S
H64 C55 0.929 . S
H65 C58 0.930 . S
C66 C67 1.351 . S
C66 N69 1.368 . S
C66 H71 0.931 . S
C67 C66 1.351 . S
C67 N68 1.373 . S
C67 H95 0.930 . S
N68 C67 1.373 . S
N68 C70 1.340 . S
N69 C66 1.368 . S
N69 C70 1.321 . S
N69 Co72 2.135 . S
C70 N68 1.340 . S
C70 N69 1.321 . S
C70 H94 0.930 . S
H71 C66 0.931 . S
Co72 N69 2.135 . S
Co72 N75 2.121 . S
Co72 O80 2.055 . S
Co72 O83 2.039 . S
Co72 N86 2.140 . S
C73 O74 1.227 . S
C73 O83 1.265 . S
O74 C73 1.227 . S
N75 Co72 2.121 . S
N75 C77 1.375 . S
N75 C78 1.313 . S
C76 C77 1.338 . S
C76 N79 1.377 . S
C76 H96 0.930 . S
C77 N75 1.375 . S
C77 C76 1.338 . S
C77 H81 0.931 . S
C78 N75 1.313 . S
C78 N79 1.344 . S
C78 H82 0.930 . S
N79 C76 1.377 . S
N79 C78 1.344 . S
O80 Co72 2.055 . S
O80 C84 1.253 . S
H81 C77 0.931 . S
H82 C78 0.930 . S
O83 Co72 2.039 . S
O83 C73 1.265 . S
C84 O80 1.253 . S
C84 O85 1.227 . S
O85 C84 1.227 . S
N86 Co72 2.140 . S
N86 C89 1.346 . S
N86 C90 1.345 . S
C87 C88 1.387 . S
C87 C91 1.391 . S
C88 C87 1.387 . S
C88 C89 1.369 . S
C88 H97 0.929 . S
C89 N86 1.346 . S
C89 C88 1.369 . S
C89 H92 0.928 . S
C90 N86 1.345 . S
C90 C91 1.371 . S
C90 H93 0.931 . S
C91 C87 1.391 . S
C91 C90 1.371 . S
C91 H98 0.930 . S
H92 C89 0.928 . S
H93 C90 0.931 . S
H94 C70 0.930 . S
H95 C67 0.930 . S
H96 C76 0.930 . S
H97 C88 0.929 . S
H98 C91 0.930 . S
C99 C100 1.351 . S
C99 N102 1.368 . S
C99 H104 0.931 . S
C100 C99 1.351 . S
C100 N101 1.373 . S
C100 H128 0.930 . S
N101 C100 1.373 . S
N101 C103 1.340 . S
N102 C99 1.368 . S
N102 C103 1.321 . S
N102 Co105 2.135 . S
C103 N101 1.340 . S
C103 N102 1.321 . S
C103 H127 0.930 . S
H104 C99 0.931 . S
Co105 N102 2.135 . S
Co105 N108 2.121 . S
Co105 O113 2.055 . S
Co105 O116 2.039 . S
Co105 N119 2.140 . S
C106 O107 1.227 . S
C106 O116 1.265 . S
O107 C106 1.227 . S
N108 Co105 2.121 . S
N108 C110 1.375 . S
N108 C111 1.313 1_556 S
C109 C110 1.338 1_554 S
C109 N112 1.377 . S
C109 H129 0.930 . S
C110 N108 1.375 . S
C110 C109 1.338 1_556 S
C110 H114 0.931 . S
C111 N108 1.313 1_554 S
C111 N112 1.344 . S
C111 H115 0.930 . S
N112 C109 1.377 . S
N112 C111 1.344 . S
O113 Co105 2.055 . S
O113 C117 1.253 . S
H114 C110 0.931 . S
H115 C111 0.930 . S
O116 Co105 2.039 . S
O116 C106 1.265 . S
C117 O113 1.253 . S
C117 O118 1.227 . S
O118 C117 1.227 . S
N119 Co105 2.140 . S
N119 C122 1.346 . S
N119 C123 1.345 . S
C120 C121 1.387 . S
C120 C124 1.391 . S
C121 C120 1.387 . S
C121 C122 1.369 . S
C121 H130 0.929 . S
C122 N119 1.346 . S
C122 C121 1.369 . S
C122 H125 0.928 . S
C123 N119 1.345 . S
C123 C124 1.371 . S
C123 H126 0.931 . S
C124 C120 1.391 . S
C124 C123 1.371 . S
C124 H131 0.930 . S
H125 C122 0.928 . S
H126 C123 0.931 . S
H127 C103 0.930 . S
H128 C100 0.930 . S
H129 C109 0.930 . S
H130 C121 0.929 . S
H131 C124 0.930 . S
C132 C133 1.351 . S
C132 N135 1.368 . S
C132 H137 0.931 . S
C133 C132 1.351 . S
C133 N134 1.373 . S
C133 H161 0.930 . S
N134 C133 1.373 . S
N134 C136 1.340 . S
N135 C132 1.368 . S
N135 C136 1.321 . S
N135 Co138 2.135 . S
C136 N134 1.340 . S
C136 N135 1.321 . S
C136 H160 0.930 . S
H137 C132 0.931 . S
Co138 N135 2.135 . S
Co138 N141 2.121 . S
Co138 O146 2.055 . S
Co138 O149 2.039 . S
Co138 N152 2.140 . S
C139 O140 1.227 . S
C139 O149 1.265 . S
O140 C139 1.227 . S
N141 Co138 2.121 . S
N141 C143 1.375 . S
N141 C144 1.313 . S
C142 C143 1.338 . S
C142 N145 1.377 . S
C142 H162 0.930 . S
C143 N141 1.375 . S
C143 C142 1.338 . S
C143 H147 0.931 . S
C144 N141 1.313 . S
C144 N145 1.344 . S
C144 H148 0.930 . S
N145 C142 1.377 . S
N145 C144 1.344 . S
O146 Co138 2.055 . S
O146 C150 1.253 . S
H147 C143 0.931 . S
H148 C144 0.930 . S
O149 Co138 2.039 . S
O149 C139 1.265 . S
C150 O146 1.253 . S
C150 O151 1.227 . S
O151 C150 1.227 . S
N152 Co138 2.140 . S
N152 C155 1.346 . S
N152 C156 1.345 . S
C153 C154 1.387 . S
C153 C157 1.391 . S
C154 C153 1.387 . S
C154 C155 1.369 . S
C154 H163 0.929 . S
C155 N152 1.346 . S
C155 C154 1.369 . S
C155 H158 0.928 . S
C156 N152 1.345 . S
C156 C157 1.371 . S
C156 H159 0.931 . S
C157 C153 1.391 . S
C157 C156 1.371 . S
C157 H164 0.930 . S
H158 C155 0.928 . S
H159 C156 0.931 . S
H160 C136 0.930 . S
H161 C133 0.930 . S
H162 C142 0.930 . S
H163 C154 0.929 . S
H164 C157 0.930 . S
C165 C166 1.351 . S
C165 N168 1.368 . S
C165 H170 0.931 . S
C166 C165 1.351 . S
C166 N167 1.373 . S
C166 H194 0.930 . S
N167 C166 1.373 . S
N167 C169 1.340 . S
N168 C165 1.368 . S
N168 C169 1.321 . S
N168 Co171 2.135 . S
C169 N167 1.340 . S
C169 N168 1.321 . S
C169 H193 0.930 . S
H170 C165 0.931 . S
Co171 N168 2.135 . S
Co171 N174 2.121 . S
Co171 O179 2.055 . S
Co171 O182 2.039 . S
Co171 N185 2.140 . S
C172 O173 1.227 . S
C172 O182 1.265 . S
O173 C172 1.227 . S
N174 Co171 2.121 . S
N174 C176 1.375 . S
N174 C177 1.313 . S
C175 C176 1.338 . S
C175 N178 1.377 . S
C175 H195 0.930 . S
C176 N174 1.375 . S
C176 C175 1.338 . S
C176 H180 0.931 . S
C177 N174 1.313 . S
C177 N178 1.344 . S
C177 H181 0.930 . S
N178 C175 1.377 . S
N178 C177 1.344 . S
O179 Co171 2.055 . S
O179 C183 1.253 . S
H180 C176 0.931 . S
H181 C177 0.930 . S
O182 Co171 2.039 . S
O182 C172 1.265 . S
C183 O179 1.253 . S
C183 O184 1.227 . S
O184 C183 1.227 . S
N185 Co171 2.140 . S
N185 C188 1.346 . S
N185 C189 1.345 . S
C186 C187 1.387 . S
C186 C190 1.391 . S
C187 C186 1.387 . S
C187 C188 1.369 . S
C187 H196 0.929 . S
C188 N185 1.346 . S
C188 C187 1.369 . S
C188 H191 0.928 . S
C189 N185 1.345 . S
C189 C190 1.371 . S
C189 H192 0.931 . S
C190 C186 1.391 . S
C190 C189 1.371 . S
C190 H197 0.930 . S
H191 C188 0.928 . S
H192 C189 0.931 . S
H193 C169 0.930 . S
H194 C166 0.930 . S
H195 C175 0.930 . S
H196 C187 0.929 . S
H197 C190 0.930 . S
C198 C199 1.351 . S
C198 N201 1.368 . S
C198 H203 0.931 . S
C199 C198 1.351 . S
C199 N200 1.373 . S
C199 H227 0.930 . S
N200 C199 1.373 . S
N200 C202 1.340 . S
N201 C198 1.368 . S
N201 C202 1.321 . S
N201 Co204 2.135 . S
C202 N200 1.340 . S
C202 N201 1.321 . S
C202 H226 0.930 . S
H203 C198 0.931 . S
Co204 N201 2.135 . S
Co204 N207 2.121 . S
Co204 O212 2.055 . S
Co204 O215 2.039 . S
Co204 N218 2.140 . S
C205 O206 1.227 . S
C205 O215 1.265 . S
O206 C205 1.227 . S
N207 Co204 2.121 . S
N207 C209 1.375 . S
N207 C210 1.313 . S
C208 C209 1.338 1_554 S
C208 N211 1.377 . S
C208 H228 0.930 . S
C209 N207 1.375 . S
C209 C208 1.338 1_556 S
C209 H213 0.931 . S
C210 N207 1.313 . S
C210 N211 1.344 1_556 S
C210 H214 0.930 . S
N211 C208 1.377 . S
N211 C210 1.344 1_554 S
O212 Co204 2.055 . S
O212 C216 1.253 . S
H213 C209 0.931 . S
H214 C210 0.930 . S
O215 Co204 2.039 . S
O215 C205 1.265 . S
C216 O212 1.253 . S
C216 O217 1.227 . S
O217 C216 1.227 . S
N218 Co204 2.140 . S
N218 C221 1.346 . S
N218 C222 1.345 . S
C219 C220 1.387 . S
C219 C223 1.391 . S
C220 C219 1.387 . S
C220 C221 1.369 . S
C220 H229 0.929 . S
C221 N218 1.346 . S
C221 C220 1.369 . S
C221 H224 0.928 . S
C222 N218 1.345 . S
C222 C223 1.371 . S
C222 H225 0.931 . S
C223 C219 1.391 . S
C223 C222 1.371 . S
C223 H230 0.930 . S
H224 C221 0.928 . S
H225 C222 0.931 . S
H226 C202 0.930 . S
H227 C199 0.930 . S
H228 C208 0.930 . S
H229 C220 0.929 . S
H230 C223 0.930 . S
C231 C232 1.351 . S
C231 N234 1.368 . S
C231 H236 0.931 . S
C232 C231 1.351 . S
C232 N233 1.373 . S
C232 H260 0.930 . S
N233 C232 1.373 . S
N233 C235 1.340 . S
N234 C231 1.368 . S
N234 C235 1.321 . S
N234 Co237 2.135 1_556 S
C235 N233 1.340 . S
C235 N234 1.321 . S
C235 H259 0.930 . S
H236 C231 0.931 . S
Co237 N234 2.135 1_554 S
Co237 N240 2.121 . S
Co237 O245 2.055 . S
Co237 O248 2.039 1_554 S
Co237 N251 2.140 . S
C238 O239 1.227 . S
C238 O248 1.265 . S
O239 C238 1.227 . S
N240 Co237 2.121 . S
N240 C242 1.375 . S
N240 C243 1.313 . S
C241 C242 1.338 . S
C241 N244 1.377 . S
C241 H261 0.930 . S
C242 N240 1.375 . S
C242 C241 1.338 . S
C242 H246 0.931 . S
C243 N240 1.313 . S
C243 N244 1.344 . S
C243 H247 0.930 . S
N244 C241 1.377 . S
N244 C243 1.344 . S
O245 Co237 2.055 . S
O245 C249 1.253 . S
H246 C242 0.931 . S
H247 C243 0.930 . S
O248 Co237 2.039 1_556 S
O248 C238 1.265 . S
C249 O245 1.253 . S
C249 O250 1.227 . S
O250 C249 1.227 . S
N251 Co237 2.140 . S
N251 C254 1.346 1_554 S
N251 C255 1.345 . S
C252 C253 1.387 1_554 S
C252 C256 1.391 . S
C253 C252 1.387 1_556 S
C253 C254 1.369 . S
C253 H262 0.929 . S
C254 N251 1.346 1_556 S
C254 C253 1.369 . S
C254 H257 0.928 . S
C255 N251 1.345 . S
C255 C256 1.371 . S
C255 H258 0.931 . S
C256 C252 1.391 . S
C256 C255 1.371 . S
C256 H263 0.930 . S
H257 C254 0.928 . S
H258 C255 0.931 . S
H259 C235 0.930 . S
H260 C232 0.930 . S
H261 C241 0.930 . S
H262 C253 0.929 . S
H263 C256 0.930 . S
C264 C265 1.391 . S
C264 C266 1.394 . S
C264 H280 0.931 . S
C265 C264 1.391 . S
C265 C269 1.376 1_554 S
C266 C264 1.394 . S
C266 C267 1.369 . S
C266 C270 1.531 . S
C267 C266 1.369 . S
C267 C268 1.410 . S
C267 C275 1.503 . S
C268 C267 1.410 . S
C268 C269 1.392 1_554 S
C268 C271 1.511 1_554 S
C269 C265 1.376 1_556 S
C269 C268 1.392 1_556 S
C269 H281 0.929 . S
C270 C266 1.531 . S
C270 H282 0.960 . S
C270 H283 0.962 . S
C270 H284 0.960 . S
C271 C268 1.511 1_556 S
C271 H285 0.961 . S
C271 H286 0.961 . S
C271 H287 0.961 1_556 S
C272 C273 1.370 . S
C272 C274 1.363 . S
C272 H288 0.931 1_554 S
C273 C272 1.370 . S
C273 C277 1.408 . S
C274 C272 1.363 . S
C274 C275 1.370 . S
C274 C278 1.524 1_554 S
C275 C267 1.503 . S
C275 C274 1.370 . S
C275 C276 1.403 . S
C276 C275 1.403 . S
C276 C277 1.404 . S
C276 C279 1.539 . S
C277 C273 1.408 . S
C277 C276 1.404 . S
C277 H289 0.930 . S
C278 C274 1.524 1_556 S
C278 H290 0.956 . S
C278 H291 0.961 . S
C278 H292 0.961 . S
C279 C276 1.539 . S
C279 H293 0.958 . S
C279 H294 0.961 . S
C279 H295 0.960 . S
H280 C264 0.931 . S
H281 C269 0.929 . S
H282 C270 0.960 . S
H283 C270 0.962 . S
H284 C270 0.960 . S
H285 C271 0.961 . S
H286 C271 0.961 . S
H287 C271 0.961 1_554 S
H288 C272 0.931 1_556 S
H289 C277 0.930 . S
H290 C278 0.956 . S
H291 C278 0.961 . S
H292 C278 0.961 . S
H293 C279 0.958 . S
H294 C279 0.961 . S
H295 C279 0.960 . S
C296 C297 1.391 . S
C296 C298 1.394 . S
C296 H312 0.931 . S
C297 C296 1.391 . S
C297 C301 1.376 . S
C298 C296 1.394 . S
C298 C299 1.369 . S
C298 C302 1.531 1_545 S
C299 C298 1.369 . S
C299 C300 1.410 . S
C299 C307 1.503 1_545 S
C300 C299 1.410 . S
C300 C301 1.392 . S
C300 C303 1.511 . S
C301 C297 1.376 . S
C301 C300 1.392 . S
C301 H313 0.929 . S
C302 C298 1.531 1_565 S
C302 H314 0.960 . S
C302 H315 0.962 . S
C302 H316 0.960 . S
C303 C300 1.511 . S
C303 H317 0.961 . S
C303 H318 0.961 . S
C303 H319 0.961 . S
C304 C305 1.370 . S
C304 C306 1.363 . S
C304 H320 0.931 . S
C305 C304 1.370 . S
C305 C309 1.408 . S
C306 C304 1.363 . S
C306 C307 1.370 . S
C306 C310 1.524 . S
C307 C299 1.503 1_565 S
C307 C306 1.370 . S
C307 C308 1.403 . S
C308 C307 1.403 . S
C308 C309 1.404 . S
C308 C311 1.539 1_565 S
C309 C305 1.408 . S
C309 C308 1.404 . S
C309 H321 0.930 . S
C310 C306 1.524 . S
C310 H322 0.956 . S
C310 H323 0.961 1_565 S
C310 H324 0.961 . S
C311 C308 1.539 1_545 S
C311 H325 0.958 . S
C311 H326 0.961 . S
C311 H327 0.960 . S
H312 C296 0.931 . S
H313 C301 0.929 . S
H314 C302 0.960 . S
H315 C302 0.962 . S
H316 C302 0.960 . S
H317 C303 0.961 . S
H318 C303 0.961 . S
H319 C303 0.961 . S
H320 C304 0.931 . S
H321 C309 0.930 . S
H322 C310 0.956 . S
H323 C310 0.961 1_545 S
H324 C310 0.961 . S
H325 C311 0.958 . S
H326 C311 0.961 . S
H327 C311 0.960 . S
C328 C329 1.391 . S
C328 C330 1.394 . S
C328 H344 0.931 . S
C329 C328 1.391 . S
C329 C333 1.376 . S
C330 C328 1.394 . S
C330 C331 1.369 . S
C330 C334 1.531 1_565 S
C331 C330 1.369 . S
C331 C332 1.410 1_655 S
C331 C339 1.503 1_665 S
C332 C331 1.410 1_455 S
C332 C333 1.392 1_455 S
C332 C335 1.511 . S
C333 C329 1.376 . S
C333 C332 1.392 1_655 S
C333 H345 0.929 . S
C334 C330 1.531 1_545 S
C334 H346 0.960 . S
C334 H347 0.962 . S
C334 H348 0.960 . S
C335 C332 1.511 . S
C335 H349 0.961 . S
C335 H350 0.961 . S
C335 H351 0.961 . S
C336 C337 1.370 . S
C336 C338 1.363 . S
C336 H352 0.931 . S
C337 C336 1.370 . S
C337 C341 1.408 . S
C338 C336 1.363 . S
C338 C339 1.370 . S
C338 C342 1.524 1_545 S
C339 C331 1.503 1_445 S
C339 C338 1.370 . S
C339 C340 1.403 . S
C340 C339 1.403 . S
C340 C341 1.404 . S
C340 C343 1.539 . S
C341 C337 1.408 . S
C341 C340 1.404 . S
C341 H353 0.930 . S
C342 C338 1.524 1_565 S
C342 H354 0.956 1_455 S
C342 H355 0.961 . S
C342 H356 0.961 . S
C343 C340 1.539 . S
C343 H357 0.958 1_455 S
C343 H358 0.961 . S
C343 H359 0.960 . S
H344 C328 0.931 . S
H345 C333 0.929 . S
H346 C334 0.960 . S
H347 C334 0.962 . S
H348 C334 0.960 . S
H349 C335 0.961 . S
H350 C335 0.961 . S
H351 C335 0.961 . S
H352 C336 0.931 . S
H353 C341 0.930 . S
H354 C342 0.956 1_655 S
H355 C342 0.961 . S
H356 C342 0.961 . S
H357 C343 0.958 1_655 S
H358 C343 0.961 . S
H359 C343 0.960 . S
C360 C361 1.391 . S
C360 C362 1.394 . S
C360 H376 0.931 . S
C361 C360 1.391 . S
C361 C365 1.376 . S
C362 C360 1.394 . S
C362 C363 1.369 . S
C362 C366 1.531 . S
C363 C362 1.369 . S
C363 C364 1.410 . S
C363 C371 1.503 1_455 S
C364 C363 1.410 . S
C364 C365 1.392 . S
C364 C367 1.511 . S
C365 C361 1.376 . S
C365 C364 1.392 . S
C365 H377 0.929 . S
C366 C362 1.531 . S
C366 H378 0.960 . S
C366 H379 0.962 1_556 S
C366 H380 0.960 1_556 S
C367 C364 1.511 . S
C367 H381 0.963 . S
C367 H382 0.961 1_455 S
C367 H383 0.961 . S
C368 C369 1.370 . S
C368 C370 1.363 . S
C368 H384 0.931 . S
C369 C368 1.370 . S
C369 C373 1.408 . S
C370 C368 1.363 . S
C370 C371 1.370 . S
C370 C374 1.524 . S
C371 C363 1.503 1_655 S
C371 C370 1.370 . S
C371 C372 1.403 . S
C372 C371 1.403 . S
C372 C373 1.404 . S
C372 C375 1.539 1_655 S
C373 C369 1.408 . S
C373 C372 1.404 . S
C373 H385 0.930 . S
C374 C370 1.524 . S
C374 H386 0.956 . S
C374 H387 0.961 . S
C374 H388 0.961 . S
C375 C372 1.539 1_455 S
C375 H389 0.958 . S
C375 H390 0.961 . S
C375 H391 0.960 . S
H376 C360 0.931 . S
H377 C365 0.929 . S
H378 C366 0.960 . S
H379 C366 0.962 1_554 S
H380 C366 0.960 1_554 S
H381 C367 0.963 . S
H382 C367 0.961 1_655 S
H383 C367 0.961 . S
H384 C368 0.931 . S
H385 C373 0.930 . S
H386 C374 0.956 . S
H387 C374 0.961 . S
H388 C374 0.961 . S
H389 C375 0.958 . S
H390 C375 0.961 . S
H391 C375 0.960 . S
C392 C393 1.391 . S
C392 C394 1.394 . S
C392 H408 0.931 . S
C393 C392 1.391 . S
C393 C397 1.376 . S
C394 C392 1.394 . S
C394 C395 1.369 . S
C394 C398 1.531 . S
C395 C394 1.369 . S
C395 C396 1.410 . S
C395 C403 1.503 . S
C396 C395 1.410 . S
C396 C397 1.392 . S
C396 C399 1.511 . S
C397 C393 1.376 . S
C397 C396 1.392 . S
C397 H409 0.929 . S
C398 C394 1.531 . S
C398 H410 0.960 . S
C398 H411 0.962 . S
C398 H412 0.960 . S
C399 C396 1.511 . S
C399 H413 0.961 . S
C399 H414 0.961 . S
C399 H415 0.961 . S
C400 C401 1.370 . S
C400 C402 1.363 . S
C400 H416 0.931 . S
C401 C400 1.370 . S
C401 C405 1.408 . S
C402 C400 1.363 . S
C402 C403 1.370 . S
C402 C406 1.524 . S
C403 C395 1.503 . S
C403 C402 1.370 . S
C403 C404 1.403 . S
C404 C403 1.403 . S
C404 C405 1.404 . S
C404 C407 1.539 . S
C405 C401 1.408 . S
C405 C404 1.404 . S
C405 H417 0.930 . S
C406 C402 1.524 . S
C406 H418 0.956 . S
C406 H419 0.961 . S
C406 H420 0.961 . S
C407 C404 1.539 . S
C407 H421 0.958 . S
C407 H422 0.961 . S
C407 H423 0.960 . S
H408 C392 0.931 . S
H409 C397 0.929 . S
H410 C398 0.960 . S
H411 C398 0.962 . S
H412 C398 0.960 . S
H413 C399 0.961 . S
H414 C399 0.961 . S
H415 C399 0.961 . S
H416 C400 0.931 . S
H417 C405 0.930 . S
H418 C406 0.956 . S
H419 C406 0.961 . S
H420 C406 0.961 . S
H421 C407 0.958 . S
H422 C407 0.961 . S
H423 C407 0.960 . S
C424 C425 1.391 1_556 S
C424 C426 1.394 . S
C424 H440 0.931 1_556 S
C425 C424 1.391 1_554 S
C425 C429 1.376 1_554 S
C426 C424 1.394 . S
C426 C427 1.369 . S
C426 C430 1.531 . S
C427 C426 1.369 . S
C427 C428 1.410 . S
C427 C435 1.503 . S
C428 C427 1.410 . S
C428 C429 1.392 . S
C428 C431 1.511 . S
C429 C425 1.376 1_556 S
C429 C428 1.392 . S
C429 H441 0.929 1_556 S
C430 C426 1.531 . S
C430 H442 0.960 . S
C430 H443 0.962 . S
C430 H444 0.960 . S
C431 C428 1.511 . S
C431 H445 0.961 . S
C431 H446 0.961 . S
C431 H447 0.961 . S
C432 C433 1.370 . S
C432 C434 1.363 . S
C432 H448 0.931 . S
C433 C432 1.370 . S
C433 C437 1.408 . S
C434 C432 1.363 . S
C434 C435 1.370 . S
C434 C438 1.524 . S
C435 C427 1.503 . S
C435 C434 1.370 . S
C435 C436 1.403 . S
C436 C435 1.403 . S
C436 C437 1.404 . S
C436 C439 1.539 . S
C437 C433 1.408 . S
C437 C436 1.404 . S
C437 H449 0.930 . S
C438 C434 1.524 . S
C438 H450 0.956 . S
C438 H451 0.961 . S
C438 H452 0.961 . S
C439 C436 1.539 . S
C439 H453 0.958 . S
C439 H454 0.961 . S
C439 H455 0.960 . S
H440 C424 0.931 1_554 S
H441 C429 0.929 1_554 S
H442 C430 0.960 . S
H443 C430 0.962 . S
H444 C430 0.960 . S
H445 C431 0.961 . S
H446 C431 0.961 . S
H447 C431 0.961 . S
H448 C432 0.931 . S
H449 C437 0.930 . S
H450 C438 0.956 . S
H451 C438 0.961 . S
H452 C438 0.961 . S
H453 C439 0.958 . S
H454 C439 0.961 . S
H455 C439 0.960 . S
C456 C457 1.391 . S
C456 C458 1.394 . S
C456 H472 0.931 . S
C457 C456 1.391 . S
C457 C461 1.376 . S
C458 C456 1.394 . S
C458 C459 1.369 . S
C458 C462 1.531 . S
C459 C458 1.369 . S
C459 C460 1.410 . S
C459 C467 1.503 1_556 S
C460 C459 1.410 . S
C460 C461 1.392 . S
C460 C463 1.511 . S
C461 C457 1.376 . S
C461 C460 1.392 . S
C461 H473 0.929 . S
C462 C458 1.531 . S
C462 H474 0.960 . S
C462 H475 0.962 . S
C462 H476 0.960 . S
C463 C460 1.511 . S
C463 H477 0.961 . S
C463 H478 0.961 1_556 S
C463 H479 0.963 . S
C464 C465 1.370 . S
C464 C466 1.363 . S
C464 H480 0.931 . S
C465 C464 1.370 . S
C465 C469 1.408 . S
C466 C464 1.363 . S
C466 C467 1.370 . S
C466 C470 1.524 . S
C467 C459 1.503 1_554 S
C467 C466 1.370 . S
C467 C468 1.403 . S
C468 C467 1.403 . S
C468 C469 1.404 . S
C468 C471 1.539 . S
C469 C465 1.408 . S
C469 C468 1.404 . S
C469 H481 0.930 . S
C470 C466 1.524 . S
C470 H482 0.956 . S
C470 H483 0.961 . S
C470 H484 0.961 . S
C471 C468 1.539 . S
C471 H485 0.958 . S
C471 H486 0.961 . S
C471 H487 0.960 . S
H472 C456 0.931 . S
H473 C461 0.929 . S
H474 C462 0.960 . S
H475 C462 0.962 . S
H476 C462 0.960 . S
H477 C463 0.961 . S
H478 C463 0.961 1_554 S
H479 C463 0.963 . S
H480 C464 0.931 . S
H481 C469 0.930 . S
H482 C470 0.956 . S
H483 C470 0.961 . S
H484 C470 0.961 . S
H485 C471 0.958 . S
H486 C471 0.961 . S
H487 C471 0.960 . S
C488 C489 1.391 . S
C488 C490 1.394 . S
C488 H504 0.931 . S
C489 C488 1.391 . S
C489 C493 1.376 . S
C490 C488 1.394 . S
C490 C491 1.369 . S
C490 C494 1.531 . S
C491 C490 1.369 . S
C491 C492 1.410 . S
C491 C499 1.503 . S
C492 C491 1.410 . S
C492 C493 1.392 . S
C492 C495 1.511 . S
C493 C489 1.376 . S
C493 C492 1.392 . S
C493 H505 0.929 . S
C494 C490 1.531 . S
C494 H506 0.960 . S
C494 H507 0.962 . S
C494 H508 0.960 . S
C495 C492 1.511 . S
C495 H509 0.961 . S
C495 H510 0.961 . S
C495 H511 0.961 . S
C496 C497 1.370 . S
C496 C498 1.363 . S
C496 H512 0.931 . S
C497 C496 1.370 . S
C497 C501 1.408 . S
C498 C496 1.363 . S
C498 C499 1.370 . S
C498 C502 1.524 . S
C499 C491 1.503 . S
C499 C498 1.370 . S
C499 C500 1.403 . S
C500 C499 1.403 . S
C500 C501 1.404 . S
C500 C503 1.539 . S
C501 C497 1.408 . S
C501 C500 1.404 . S
C501 H513 0.930 . S
C502 C498 1.524 . S
C502 H514 0.956 . S
C502 H515 0.961 . S
C502 H516 0.961 . S
C503 C500 1.539 . S
C503 H517 0.958 . S
C503 H518 0.961 . S
C503 H519 0.960 . S
H504 C488 0.931 . S
H505 C493 0.929 . S
H506 C494 0.960 . S
H507 C494 0.962 . S
H508 C494 0.960 . S
H509 C495 0.961 . S
H510 C495 0.961 . S
H511 C495 0.961 . S
H512 C496 0.931 . S
H513 C501 0.930 . S
H514 C502 0.956 . S
H515 C502 0.961 . S
H516 C502 0.961 . S
H517 C503 0.958 . S
H518 C503 0.961 . S
H519 C503 0.960 . S
C520 C521 1.391 1_556 S
C520 C522 1.394 . S
C520 H536 0.931 1_556 S
C521 C520 1.391 1_554 S
C521 C525 1.376 1_554 S
C522 C520 1.394 . S
C522 C523 1.369 . S
C522 C526 1.531 . S
C523 C522 1.369 . S
C523 C524 1.410 . S
C523 C531 1.503 . S
C524 C523 1.410 . S
C524 C525 1.392 . S
C524 C527 1.511 . S
C525 C521 1.376 1_556 S
C525 C524 1.392 . S
C525 H537 0.929 . S
C526 C522 1.531 . S
C526 H538 0.960 . S
C526 H539 0.962 . S
C526 H540 0.960 . S
C527 C524 1.511 . S
C527 H541 0.961 . S
C527 H542 0.961 . S
C527 H543 0.961 . S
C528 C529 1.370 . S
C528 C530 1.363 . S
C528 H544 0.931 . S
C529 C528 1.370 . S
C529 C533 1.408 . S
C530 C528 1.363 . S
C530 C531 1.370 . S
C530 C534 1.524 . S
C531 C523 1.503 . S
C531 C530 1.370 . S
C531 C532 1.403 . S
C532 C531 1.403 . S
C532 C533 1.404 . S
C532 C535 1.539 . S
C533 C529 1.408 . S
C533 C532 1.404 . S
C533 H545 0.930 . S
C534 C530 1.524 . S
C534 H546 0.956 . S
C534 H547 0.961 . S
C534 H548 0.961 . S
C535 C532 1.539 . S
C535 H549 0.958 . S
C535 H550 0.961 . S
C535 H551 0.960 . S
H536 C520 0.931 1_554 S
H537 C525 0.929 . S
H538 C526 0.960 . S
H539 C526 0.962 . S
H540 C526 0.960 . S
H541 C527 0.961 . S
H542 C527 0.961 . S
H543 C527 0.961 . S
H544 C528 0.931 . S
H545 C533 0.930 . S
H546 C534 0.956 . S
H547 C534 0.961 . S
H548 C534 0.961 . S
H549 C535 0.958 . S
H550 C535 0.961 . S
H551 C535 0.960 . S
C552 C553 1.391 . S
C552 C554 1.394 . S
C552 H568 0.931 . S
C553 C552 1.391 . S
C553 C557 1.376 . S
C554 C552 1.394 . S
C554 C555 1.369 . S
C554 C558 1.531 . S
C555 C554 1.369 . S
C555 C556 1.410 . S
C555 C563 1.503 . S
C556 C555 1.410 . S
C556 C557 1.392 . S
C556 C559 1.511 . S
C557 C553 1.376 . S
C557 C556 1.392 . S
C557 H569 0.929 . S
C558 C554 1.531 . S
C558 H570 0.960 . S
C558 H571 0.962 . S
C558 H572 0.960 . S
C559 C556 1.511 . S
C559 H573 0.961 . S
C559 H574 0.961 . S
C559 H575 0.961 . S
C560 C561 1.370 . S
C560 C562 1.363 1_556 S
C560 H576 0.931 . S
C561 C560 1.370 . S
C561 C565 1.408 . S
C562 C560 1.363 1_554 S
C562 C563 1.370 . S
C562 C566 1.524 . S
C563 C555 1.503 . S
C563 C562 1.370 . S
C563 C564 1.403 1_554 S
C564 C563 1.403 1_556 S
C564 C565 1.404 . S
C564 C567 1.539 1_556 S
C565 C561 1.408 . S
C565 C564 1.404 . S
C565 H577 0.930 . S
C566 C562 1.524 . S
C566 H578 0.956 . S
C566 H579 0.961 . S
C566 H580 0.961 . S
C567 C564 1.539 1_554 S
C567 H581 0.958 . S
C567 H582 0.961 1_554 S
C567 H583 0.960 . S
H568 C552 0.931 . S
H569 C557 0.929 . S
H570 C558 0.960 . S
H571 C558 0.962 . S
H572 C558 0.960 . S
H573 C559 0.961 . S
H574 C559 0.961 . S
H575 C559 0.961 . S
H576 C560 0.931 . S
H577 C565 0.930 . S
H578 C566 0.956 . S
H579 C566 0.961 . S
H580 C566 0.961 . S
H581 C567 0.958 . S
H582 C567 0.961 1_556 S
H583 C567 0.960 . S
C584 C585 1.391 . S
C584 C586 1.394 . S
C584 H600 0.931 . S
C585 C584 1.391 . S
C585 C589 1.376 . S
C586 C584 1.394 . S
C586 C587 1.369 . S
C586 C590 1.531 . S
C587 C586 1.369 . S
C587 C588 1.410 . S
C587 C595 1.503 . S
C588 C587 1.410 . S
C588 C589 1.392 . S
C588 C591 1.511 . S
C589 C585 1.376 . S
C589 C588 1.392 . S
C589 H601 0.929 . S
C590 C586 1.531 . S
C590 H602 0.960 . S
C590 H603 0.962 . S
C590 H604 0.960 . S
C591 C588 1.511 . S
C591 H605 0.961 . S
C591 H606 0.961 . S
C591 H607 0.961 . S
C592 C593 1.370 . S
C592 C594 1.363 . S
C592 H608 0.931 . S
C593 C592 1.370 . S
C593 C597 1.408 . S
C594 C592 1.363 . S
C594 C595 1.370 . S
C594 C598 1.524 . S
C595 C587 1.503 . S
C595 C594 1.370 . S
C595 C596 1.403 . S
C596 C595 1.403 . S
C596 C597 1.404 . S
C596 C599 1.539 . S
C597 C593 1.408 . S
C597 C596 1.404 . S
C597 H609 0.930 . S
C598 C594 1.524 . S
C598 H610 0.956 . S
C598 H611 0.961 . S
C598 H612 0.961 . S
C599 C596 1.539 . S
C599 H613 0.958 . S
C599 H614 0.961 . S
C599 H615 0.960 . S
H600 C584 0.931 . S
H601 C589 0.929 . S
H602 C590 0.960 . S
H603 C590 0.962 . S
H604 C590 0.960 . S
H605 C591 0.961 . S
H606 C591 0.961 . S
H607 C591 0.961 . S
H608 C592 0.931 . S
H609 C597 0.930 . S
H610 C598 0.956 . S
H611 C598 0.961 . S
H612 C598 0.961 . S
H613 C599 0.958 . S
H614 C599 0.961 . S
H615 C599 0.960 . S
C616 C617 1.391 . S
C616 C618 1.394 . S
C616 H632 0.931 . S
C617 C616 1.391 . S
C617 C621 1.376 . S
C618 C616 1.394 . S
C618 C619 1.369 . S
C618 C622 1.531 . S
C619 C618 1.369 . S
C619 C620 1.410 . S
C619 C627 1.503 . S
C620 C619 1.410 . S
C620 C621 1.392 . S
C620 C623 1.511 . S
C621 C617 1.376 . S
C621 C620 1.392 . S
C621 H633 0.929 . S
C622 C618 1.531 . S
C622 H634 0.960 . S
C622 H635 0.962 . S
C622 H636 0.960 . S
C623 C620 1.511 . S
C623 H637 0.961 . S
C623 H638 0.961 . S
C623 H639 0.961 . S
C624 C625 1.370 . S
C624 C626 1.363 . S
C624 H640 0.931 . S
C625 C624 1.370 . S
C625 C629 1.408 . S
C626 C624 1.363 . S
C626 C627 1.370 . S
C626 C630 1.524 . S
C627 C619 1.503 . S
C627 C626 1.370 . S
C627 C628 1.403 . S
C628 C627 1.403 . S
C628 C629 1.404 . S
C628 C631 1.539 . S
C629 C625 1.408 . S
C629 C628 1.404 . S
C629 H641 0.930 . S
C630 C626 1.524 . S
C630 H642 0.956 . S
C630 H643 0.961 . S
C630 H644 0.961 . S
C631 C628 1.539 . S
C631 H645 0.958 . S
C631 H646 0.961 . S
C631 H647 0.960 . S
H632 C616 0.931 . S
H633 C621 0.929 . S
H634 C622 0.960 . S
H635 C622 0.962 . S
H636 C622 0.960 . S
H637 C623 0.961 . S
H638 C623 0.961 . S
H639 C623 0.961 . S
H640 C624 0.931 . S
H641 C629 0.930 . S
H642 C630 0.956 . S
H643 C630 0.961 . S
H644 C630 0.961 . S
H645 C631 0.958 . S
H646 C631 0.961 . S
H647 C631 0.960 . S
C648 C649 1.391 . S
C648 C650 1.394 . S
C648 H664 0.931 . S
C649 C648 1.391 . S
C649 C653 1.376 . S
C650 C648 1.394 . S
C650 C651 1.369 . S
C650 C654 1.531 . S
C651 C650 1.369 . S
C651 C652 1.410 . S
C651 C659 1.503 . S
C652 C651 1.410 . S
C652 C653 1.392 . S
C652 C655 1.511 1_556 S
C653 C649 1.376 . S
C653 C652 1.392 . S
C653 H665 0.929 . S
C654 C650 1.531 . S
C654 H666 0.960 . S
C654 H667 0.962 . S
C654 H668 0.960 . S
C655 C652 1.511 1_554 S
C655 H669 0.961 . S
C655 H670 0.961 . S
C655 H671 0.961 . S
C656 C657 1.370 1_556 S
C656 C658 1.363 . S
C656 H672 0.931 . S
C657 C656 1.370 1_554 S
C657 C661 1.408 . S
C658 C656 1.363 . S
C658 C659 1.370 . S
C658 C662 1.524 . S
C659 C651 1.503 . S
C659 C658 1.370 . S
C659 C660 1.403 1_556 S
C660 C659 1.403 1_554 S
C660 C661 1.404 . S
C660 C663 1.539 . S
C661 C657 1.408 . S
C661 C660 1.404 . S
C661 H673 0.930 . S
C662 C658 1.524 . S
C662 H674 0.956 . S
C662 H675 0.961 . S
C662 H676 0.961 . S
C663 C660 1.539 . S
C663 H677 0.958 . S
C663 H678 0.961 . S
C663 H679 0.960 . S
H664 C648 0.931 . S
H665 C653 0.929 . S
H666 C654 0.960 . S
H667 C654 0.962 . S
H668 C654 0.960 . S
H669 C655 0.961 . S
H670 C655 0.961 . S
H671 C655 0.961 . S
H672 C656 0.931 . S
H673 C661 0.930 . S
H674 C662 0.956 . S
H675 C662 0.961 . S
H676 C662 0.961 . S
H677 C663 0.958 . S
H678 C663 0.961 . S
H679 C663 0.960 . S
C680 C681 1.391 . S
C680 C682 1.394 . S
C680 H696 0.931 . S
C681 C680 1.391 . S
C681 C685 1.376 . S
C682 C680 1.394 . S
C682 C683 1.369 . S
C682 C686 1.531 . S
C683 C682 1.369 . S
C683 C684 1.410 . S
C683 C691 1.503 . S
C684 C683 1.410 . S
C684 C685 1.392 . S
C684 C687 1.511 . S
C685 C681 1.376 . S
C685 C684 1.392 . S
C685 H697 0.929 . S
C686 C682 1.531 . S
C686 H698 0.960 . S
C686 H699 0.962 . S
C686 H700 0.960 . S
C687 C684 1.511 . S
C687 H701 0.961 . S
C687 H702 0.961 . S
C687 H703 0.961 . S
C688 C689 1.370 . S
C688 C690 1.363 . S
C688 H704 0.931 . S
C689 C688 1.370 . S
C689 C693 1.408 . S
C690 C688 1.363 . S
C690 C691 1.370 . S
C690 C694 1.524 . S
C691 C683 1.503 . S
C691 C690 1.370 . S
C691 C692 1.403 . S
C692 C691 1.403 . S
C692 C693 1.404 . S
C692 C695 1.539 . S
C693 C689 1.408 . S
C693 C692 1.404 . S
C693 H705 0.930 1_554 S
C694 C690 1.524 . S
C694 H706 0.956 . S
C694 H707 0.961 . S
C694 H708 0.961 . S
C695 C692 1.539 . S
C695 H709 0.958 1_554 S
C695 H710 0.961 1_554 S
C695 H711 0.960 . S
H696 C680 0.931 . S
H697 C685 0.929 . S
H698 C686 0.960 . S
H699 C686 0.962 . S
H700 C686 0.960 . S
H701 C687 0.961 . S
H702 C687 0.961 . S
H703 C687 0.961 . S
H704 C688 0.931 . S
H705 C693 0.930 1_556 S
H706 C694 0.956 . S
H707 C694 0.961 . S
H708 C694 0.961 . S
H709 C695 0.958 1_556 S
H710 C695 0.961 1_556 S
H711 C695 0.960 . S
C712 C713 1.391 . S
C712 C714 1.394 . S
C712 H728 0.931 . S
C713 C712 1.391 . S
C713 C717 1.376 . S
C714 C712 1.394 . S
C714 C715 1.369 . S
C714 C718 1.531 . S
C715 C714 1.369 . S
C715 C716 1.410 . S
C715 C723 1.503 . S
C716 C715 1.410 . S
C716 C717 1.392 . S
C716 C719 1.511 . S
C717 C713 1.376 . S
C717 C716 1.392 . S
C717 H729 0.929 . S
C718 C714 1.531 . S
C718 H730 0.960 . S
C718 H731 0.962 . S
C718 H732 0.960 . S
C719 C716 1.511 . S
C719 H733 0.961 . S
C719 H734 0.961 . S
C719 H735 0.961 . S
C720 C721 1.370 . S
C720 C722 1.363 . S
C720 H736 0.931 . S
C721 C720 1.370 . S
C721 C725 1.408 . S
C722 C720 1.363 . S
C722 C723 1.370 . S
C722 C726 1.524 . S
C723 C715 1.503 . S
C723 C722 1.370 . S
C723 C724 1.403 . S
C724 C723 1.403 . S
C724 C725 1.404 . S
C724 C727 1.539 . S
C725 C721 1.408 . S
C725 C724 1.404 . S
C725 H737 0.930 . S
C726 C722 1.524 . S
C726 H738 0.956 . S
C726 H739 0.961 . S
C726 H740 0.961 . S
C727 C724 1.539 . S
C727 H741 0.958 . S
C727 H742 0.961 . S
C727 H743 0.960 . S
H728 C712 0.931 . S
H729 C717 0.929 . S
H730 C718 0.960 . S
H731 C718 0.962 . S
H732 C718 0.960 . S
H733 C719 0.961 . S
H734 C719 0.961 . S
H735 C719 0.961 . S
H736 C720 0.931 . S
H737 C725 0.930 . S
H738 C726 0.956 . S
H739 C726 0.961 . S
H740 C726 0.961 . S
H741 C727 0.958 . S
H742 C727 0.961 . S
H743 C727 0.960 . S
C744 C745 1.391 . S
C744 C746 1.394 . S
C744 H760 0.931 . S
C745 C744 1.391 . S
C745 C749 1.376 . S
C746 C744 1.394 . S
C746 C747 1.369 . S
C746 C750 1.531 . S
C747 C746 1.369 . S
C747 C748 1.410 . S
C747 C755 1.503 . S
C748 C747 1.410 . S
C748 C749 1.392 . S
C748 C751 1.511 . S
C749 C745 1.376 . S
C749 C748 1.392 . S
C749 H761 0.929 . S
C750 C746 1.531 . S
C750 H762 0.960 . S
C750 H763 0.962 . S
C750 H764 0.960 . S
C751 C748 1.511 . S
C751 H765 0.961 . S
C751 H766 0.961 . S
C751 H767 0.961 . S
C752 C753 1.370 . S
C752 C754 1.363 . S
C752 H768 0.931 . S
C753 C752 1.370 . S
C753 C757 1.408 . S
C754 C752 1.363 . S
C754 C755 1.370 . S
C754 C758 1.524 . S
C755 C747 1.503 . S
C755 C754 1.370 . S
C755 C756 1.403 . S
C756 C755 1.403 . S
C756 C757 1.404 . S
C756 C759 1.539 . S
C757 C753 1.408 . S
C757 C756 1.404 . S
C757 H769 0.930 . S
C758 C754 1.524 . S
C758 H770 0.956 . S
C758 H771 0.961 . S
C758 H772 0.961 . S
C759 C756 1.539 . S
C759 H773 0.958 . S
C759 H774 0.961 . S
C759 H775 0.960 . S
H760 C744 0.931 . S
H761 C749 0.929 . S
H762 C750 0.960 . S
H763 C750 0.962 . S
H764 C750 0.960 . S
H765 C751 0.961 . S
H766 C751 0.961 . S
H767 C751 0.961 . S
H768 C752 0.931 . S
H769 C757 0.930 . S
H770 C758 0.956 . S
H771 C758 0.961 . S
H772 C758 0.961 . S
H773 C759 0.958 . S
H774 C759 0.961 . S
H775 C759 0.960 . S
C776 C777 1.391 . S
C776 C778 1.394 . S
C776 H792 0.931 . S
C777 C776 1.391 . S
C777 C781 1.376 . S
C778 C776 1.394 . S
C778 C779 1.369 . S
C778 C782 1.531 . S
C779 C778 1.369 . S
C779 C780 1.410 . S
C779 C787 1.503 . S
C780 C779 1.410 . S
C780 C781 1.392 . S
C780 C783 1.511 . S
C781 C777 1.376 . S
C781 C780 1.392 . S
C781 H793 0.929 . S
C782 C778 1.531 . S
C782 H794 0.960 . S
C782 H795 0.962 . S
C782 H796 0.960 . S
C783 C780 1.511 . S
C783 H797 0.961 . S
C783 H798 0.961 . S
C783 H799 0.961 . S
C784 C785 1.370 . S
C784 C786 1.363 . S
C784 H800 0.931 . S
C785 C784 1.370 . S
C785 C789 1.408 . S
C786 C784 1.363 . S
C786 C787 1.370 . S
C786 C790 1.524 . S
C787 C779 1.503 . S
C787 C786 1.370 . S
C787 C788 1.403 . S
C788 C787 1.403 . S
C788 C789 1.404 . S
C788 C791 1.539 . S
C789 C785 1.408 . S
C789 C788 1.404 . S
C789 H801 0.930 . S
C790 C786 1.524 . S
C790 H802 0.956 . S
C790 H803 0.961 . S
C790 H804 0.961 . S
C791 C788 1.539 . S
C791 H805 0.958 . S
C791 H806 0.961 . S
C791 H807 0.960 . S
H792 C776 0.931 . S
H793 C781 0.929 . S
H794 C782 0.960 . S
H795 C782 0.962 . S
H796 C782 0.960 . S
H797 C783 0.961 . S
H798 C783 0.961 . S
H799 C783 0.961 . S
H800 C784 0.931 . S
H801 C789 0.930 . S
H802 C790 0.956 . S
H803 C790 0.961 . S
H804 C790 0.961 . S
H805 C791 0.958 . S
H806 C791 0.961 . S
H807 C791 0.960 . S
C808 C809 1.391 . S
C808 C810 1.394 . S
C808 H824 0.931 . S
C809 C808 1.391 . S
C809 C813 1.376 . S
C810 C808 1.394 . S
C810 C811 1.369 . S
C810 C814 1.531 . S
C811 C810 1.369 . S
C811 C812 1.410 . S
C811 C819 1.503 . S
C812 C811 1.410 . S
C812 C813 1.392 . S
C812 C815 1.511 . S
C813 C809 1.376 . S
C813 C812 1.392 . S
C813 H825 0.929 . S
C814 C810 1.531 . S
C814 H826 0.960 . S
C814 H827 0.962 . S
C814 H828 0.960 . S
C815 C812 1.511 . S
C815 H829 0.961 . S
C815 H830 0.961 . S
C815 H831 0.961 . S
C816 C817 1.370 . S
C816 C818 1.363 . S
C816 H832 0.931 . S
C817 C816 1.370 . S
C817 C821 1.408 . S
C818 C816 1.363 . S
C818 C819 1.370 . S
C818 C822 1.524 . S
C819 C811 1.503 . S
C819 C818 1.370 . S
C819 C820 1.403 . S
C820 C819 1.403 . S
C820 C821 1.404 . S
C820 C823 1.539 . S
C821 C817 1.408 . S
C821 C820 1.404 . S
C821 H833 0.930 . S
C822 C818 1.524 . S
C822 H834 0.956 . S
C822 H835 0.961 . S
C822 H836 0.961 . S
C823 C820 1.539 . S
C823 H837 0.958 . S
C823 H838 0.961 . S
C823 H839 0.960 . S
H824 C808 0.931 . S
H825 C813 0.929 . S
H826 C814 0.960 . S
H827 C814 0.962 . S
H828 C814 0.960 . S
H829 C815 0.961 . S
H830 C815 0.961 . S
H831 C815 0.961 . S
H832 C816 0.931 . S
H833 C821 0.930 . S
H834 C822 0.956 . S
H835 C822 0.961 . S
H836 C822 0.961 . S
H837 C823 0.958 . S
H838 C823 0.961 . S
H839 C823 0.960 . S
C840 C841 1.391 . S
C840 C842 1.394 . S
C840 H856 0.931 . S
C841 C840 1.391 . S
C841 C845 1.376 1_556 S
C842 C840 1.394 . S
C842 C843 1.369 . S
C842 C846 1.531 . S
C843 C842 1.369 . S
C843 C844 1.410 . S
C843 C851 1.503 . S
C844 C843 1.410 . S
C844 C845 1.392 1_556 S
C844 C847 1.511 1_556 S
C845 C841 1.376 1_554 S
C845 C844 1.392 1_554 S
C845 H857 0.929 . S
C846 C842 1.531 . S
C846 H858 0.960 . S
C846 H859 0.962 . S
C846 H860 0.960 . S
C847 C844 1.511 1_554 S
C847 H861 0.961 . S
C847 H862 0.961 . S
C847 H863 0.961 . S
C848 C849 1.370 . S
C848 C850 1.363 . S
C848 H864 0.931 . S
C849 C848 1.370 . S
C849 C853 1.408 . S
C850 C848 1.363 . S
C850 C851 1.370 . S
C850 C854 1.524 . S
C851 C843 1.503 . S
C851 C850 1.370 . S
C851 C852 1.403 . S
C852 C851 1.403 . S
C852 C853 1.404 . S
C852 C855 1.539 . S
C853 C849 1.408 . S
C853 C852 1.404 . S
C853 H865 0.930 . S
C854 C850 1.524 . S
C854 H866 0.956 . S
C854 H867 0.961 . S
C854 H868 0.961 . S
C855 C852 1.539 . S
C855 H869 0.958 . S
C855 H870 0.961 . S
C855 H871 0.960 . S
H856 C840 0.931 . S
H857 C845 0.929 . S
H858 C846 0.960 . S
H859 C846 0.962 . S
H860 C846 0.960 . S
H861 C847 0.961 . S
H862 C847 0.961 . S
H863 C847 0.961 . S
H864 C848 0.931 . S
H865 C853 0.930 . S
H866 C854 0.956 . S
H867 C854 0.961 . S
H868 C854 0.961 . S
H869 C855 0.958 . S
H870 C855 0.961 . S
H871 C855 0.960 . S
C872 C873 1.391 . S
C872 C874 1.394 . S
C872 H888 0.931 . S
C873 C872 1.391 . S
C873 C877 1.376 . S
C874 C872 1.394 . S
C874 C875 1.369 . S
C874 C878 1.531 . S
C875 C874 1.369 . S
C875 C876 1.410 . S
C875 C883 1.503 . S
C876 C875 1.410 . S
C876 C877 1.392 . S
C876 C879 1.511 . S
C877 C873 1.376 . S
C877 C876 1.392 . S
C877 H889 0.929 . S
C878 C874 1.531 . S
C878 H890 0.960 . S
C878 H891 0.962 . S
C878 H892 0.960 . S
C879 C876 1.511 . S
C879 H893 0.961 . S
C879 H894 0.961 . S
C879 H895 0.961 . S
C880 C881 1.370 . S
C880 C882 1.363 . S
C880 H896 0.931 . S
C881 C880 1.370 . S
C881 C885 1.408 . S
C882 C880 1.363 . S
C882 C883 1.370 . S
C882 C886 1.524 . S
C883 C875 1.503 . S
C883 C882 1.370 . S
C883 C884 1.403 . S
C884 C883 1.403 . S
C884 C885 1.404 . S
C884 C887 1.539 . S
C885 C881 1.408 . S
C885 C884 1.404 . S
C885 H897 0.930 . S
C886 C882 1.524 . S
C886 H898 0.956 . S
C886 H899 0.961 . S
C886 H900 0.961 . S
C887 C884 1.539 . S
C887 H901 0.958 . S
C887 H902 0.961 . S
C887 H903 0.960 . S
H888 C872 0.931 . S
H889 C877 0.929 . S
H890 C878 0.960 . S
H891 C878 0.962 . S
H892 C878 0.960 . S
H893 C879 0.961 . S
H894 C879 0.961 . S
H895 C879 0.961 . S
H896 C880 0.931 . S
H897 C885 0.930 . S
H898 C886 0.956 . S
H899 C886 0.961 . S
H900 C886 0.961 . S
H901 C887 0.958 . S
H902 C887 0.961 . S
H903 C887 0.960 . S
C265 C249 1.160 . S
C273 C18 1.170 . S
C297 C150 1.174 . S
C305 C51 1.176 . S
C329 C183 1.172 . S
C337 C84 1.165 . S
C361 C216 1.171 . S
C369 C117 1.180 . S
C393 N2 1.281 . S
C401 N13 1.282 . S
C425 N35 1.270 . S
C433 N46 1.271 . S
C457 N79 1.314 . S
C465 N68 1.269 . S
C489 N112 1.267 . S
C497 N101 1.317 . S
C521 N134 1.301 . S
C529 N145 1.302 . S
C553 N178 1.263 . S
C561 N167 1.292 . S
C585 N200 1.266 . S
C593 N211 1.268 . S
C617 N233 1.312 . S
C625 N244 1.271 . S
C649 C219 1.380 . S
C657 C21 1.387 . S
C681 C40 1.325 . S
C689 C252 1.380 . S
C713 C153 1.655 . S
C721 C73 1.624 . S
C745 C106 1.605 . S
C753 C172 1.574 . S
C777 C186 1.378 . S
C785 C54 1.368 . S
C809 C87 1.394 . S
C817 C205 1.352 . S
C841 C238 1.601 . S
C849 C120 1.644 . S
C873 C7 1.552 . S
C881 C139 1.591 . S
