# Generated by pormake.
# Topology uop, (4)-cn, num edge types: 1
# Building blocks:
#     Node 0, Type 0, BuildingBlock: KOZSID_clean_sbu_0, # of connection points: 4
#     Node 1, Type 0, BuildingBlock: KOZSID_clean_sbu_0, # of connection points: 4
#     Node 2, Type 0, BuildingBlock: KOZSID_clean_sbu_0, # of connection points: 4
#     Node 3, Type 0, BuildingBlock: KOZSID_clean_sbu_0, # of connection points: 4
#     Node 4, Type 0, BuildingBlock: KOZSID_clean_sbu_0, # of connection points: 4
#     Node 5, Type 0, BuildingBlock: KOZSID_clean_sbu_0, # of connection points: 4
#     Node 6, Type 0, BuildingBlock: KOZSID_clean_sbu_0, # of connection points: 4
#     Node 7, Type 0, BuildingBlock: KOZSID_clean_sbu_0, # of connection points: 4
#     Node 8, Type 0, BuildingBlock: KOZSID_clean_sbu_0, # of connection points: 4
#     Node 9, Type 0, BuildingBlock: KOZSID_clean_sbu_0, # of connection points: 4
#     Node 10, Type 0, BuildingBlock: KOZSID_clean_sbu_0, # of connection points: 4
#     Node 11, Type 0, BuildingBlock: KOZSID_clean_sbu_0, # of connection points: 4
#     Edge 12, Type (0, 0), BuildingBlock: OJICUG_clean_linker_0, # of connection points: 2
#     Edge 13, Type (0, 0), BuildingBlock: OJICUG_clean_linker_0, # of connection points: 2
#     Edge 14, Type (0, 0), BuildingBlock: OJICUG_clean_linker_0, # of connection points: 2
#     Edge 15, Type (0, 0), BuildingBlock: OJICUG_clean_linker_0, # of connection points: 2
#     Edge 16, Type (0, 0), BuildingBlock: OJICUG_clean_linker_0, # of connection points: 2
#     Edge 17, Type (0, 0), BuildingBlock: OJICUG_clean_linker_0, # of connection points: 2
#     Edge 18, Type (0, 0), BuildingBlock: OJICUG_clean_linker_0, # of connection points: 2
#     Edge 19, Type (0, 0), BuildingBlock: OJICUG_clean_linker_0, # of connection points: 2
#     Edge 20, Type (0, 0), BuildingBlock: OJICUG_clean_linker_0, # of connection points: 2
#     Edge 21, Type (0, 0), BuildingBlock: OJICUG_clean_linker_0, # of connection points: 2
#     Edge 22, Type (0, 0), BuildingBlock: OJICUG_clean_linker_0, # of connection points: 2
#     Edge 23, Type (0, 0), BuildingBlock: OJICUG_clean_linker_0, # of connection points: 2
#     Edge 24, Type (0, 0), BuildingBlock: OJICUG_clean_linker_0, # of connection points: 2
#     Edge 25, Type (0, 0), BuildingBlock: OJICUG_clean_linker_0, # of connection points: 2
#     Edge 26, Type (0, 0), BuildingBlock: OJICUG_clean_linker_0, # of connection points: 2
#     Edge 27, Type (0, 0), BuildingBlock: OJICUG_clean_linker_0, # of connection points: 2
#     Edge 28, Type (0, 0), BuildingBlock: OJICUG_clean_linker_0, # of connection points: 2
#     Edge 29, Type (0, 0), BuildingBlock: OJICUG_clean_linker_0, # of connection points: 2
#     Edge 30, Type (0, 0), BuildingBlock: OJICUG_clean_linker_0, # of connection points: 2
#     Edge 31, Type (0, 0), BuildingBlock: OJICUG_clean_linker_0, # of connection points: 2
#     Edge 32, Type (0, 0), BuildingBlock: OJICUG_clean_linker_0, # of connection points: 2
#     Edge 33, Type (0, 0), BuildingBlock: OJICUG_clean_linker_0, # of connection points: 2
#     Edge 34, Type (0, 0), BuildingBlock: OJICUG_clean_linker_0, # of connection points: 2
#     Edge 35, Type (0, 0), BuildingBlock: OJICUG_clean_linker_0, # of connection points: 2
# Relax obj value: 0.081
# Max RMSD: 0.275
# Mean RMSD: 0.247
data_MOF--net-uop--node1-KOZSID_clean_sbu_0--edge1-OJICUG_clean_linker_0
_symmetry_space_group_name_H-M    P1
_symmetry_Int_Tables_number       1
_symmetry_cell_setting            triclinic
loop_
_symmetry_equiv_pos_as_xyz
'x, y, z'
_cell_length_a     30.802282
_cell_length_b     29.259701
_cell_length_c     51.590449
_cell_angle_alpha  90.023903
_cell_angle_beta   89.924936
_cell_angle_gamma 121.73292
loop_
_atom_site_label
_atom_site_type_symbol
_atom_site_fract_x
_atom_site_fract_y
_atom_site_fract_z
_atom_type_partial_charge
C0 C 0.38194 0.42758 0.21608 0.0
C1 C 0.40267 0.3997 0.20518 0.0
C2 C 0.36901 0.36601 0.18712 0.0
C3 C 0.32875 0.37334 0.18863 0.0
N4 N 0.33448 0.40976 0.20657 0.0
Co5 Co 0.27957 0.42182 0.21921 0.0
N6 N 0.22499 0.3581 0.19925 0.0
C7 C 0.23287 0.32706 0.18301 0.0
C8 C 0.18954 0.28577 0.17208 0.0
C9 C 0.15123 0.29124 0.18132 0.0
C10 C 0.1735 0.33607 0.19747 0.0
N11 N 0.22417 0.43427 0.23058 0.0
C12 C 0.17389 0.40955 0.22333 0.0
C13 C 0.15196 0.43723 0.23269 0.0
C14 C 0.18965 0.4815 0.24543 0.0
C15 C 0.23252 0.47852 0.24324 0.0
N16 N 0.33426 0.4834 0.23983 0.0
C17 C 0.32883 0.52081 0.25195 0.0
C18 C 0.37257 0.55921 0.2642 0.0
C19 C 0.40801 0.54527 0.25951 0.0
C20 C 0.38393 0.4988 0.24469 0.0
N21 N 0.29173 0.47214 0.18967 0.0
C22 C 0.29233 0.56095 0.16653 0.0
C23 C 0.33669 0.56679 0.17764 0.0
C24 C 0.33585 0.52193 0.18857 0.0
C25 C 0.2505 0.50821 0.16394 0.0
C26 C 0.25144 0.46476 0.17495 0.0
N27 N 0.26821 0.37536 0.25026 0.0
C28 C 0.2626 0.36795 0.29736 0.0
C29 C 0.27533 0.32844 0.29754 0.0
C30 C 0.2813 0.31069 0.27311 0.0
C31 C 0.2769 0.3339 0.2499 0.0
C32 C 0.25935 0.39054 0.27391 0.0
H33 H 0.28239 0.31927 0.23183 0.0
H34 H 0.25216 0.42251 0.27539 0.0
H35 H 0.37021 0.52881 0.19772 0.0
H36 H 0.21777 0.4259 0.17278 0.0
C37 C 0.28132 0.3373 0.17845 0.0
C38 C 0.41059 0.47303 0.23394 0.0
C39 C 0.14627 0.36232 0.206 0.0
C40 C 0.28145 0.51682 0.25226 0.0
H41 H 0.43829 0.40274 0.20995 0.0
H42 H 0.37173 0.33646 0.17578 0.0
H43 H 0.18635 0.25601 0.15845 0.0
H44 H 0.11193 0.2664 0.17537 0.0
H45 H 0.11316 0.42736 0.22975 0.0
H46 H 0.1865 0.51298 0.25453 0.0
H47 H 0.37805 0.59323 0.27532 0.0
H48 H 0.4473 0.5673 0.26592 0.0
H49 H 0.37111 0.60613 0.17923 0.0
H50 H 0.21634 0.5005 0.154 0.0
H51 H 0.2576 0.38363 0.31538 0.0
H52 H 0.28993 0.27936 0.27184 0.0
C53 C 0.97356 0.37254 0.57074 0.0
C54 C 0.02297 0.40054 0.56084 0.0
C55 C 0.02242 0.37478 0.5388 0.0
C56 C 0.97364 0.3313 0.53714 0.0
N57 N 0.94307 0.32722 0.55687 0.0
Co58 Co 0.87645 0.26126 0.5667 0.0
N59 N 0.88374 0.216 0.53948 0.0
C60 C 0.91919 0.23585 0.52046 0.0
C61 C 0.91203 0.19977 0.50166 0.0
C62 C 0.86886 0.15361 0.50871 0.0
C63 C 0.85256 0.16342 0.53213 0.0
N64 N 0.80929 0.19432 0.57558 0.0
C65 C 0.78568 0.1424 0.56638 0.0
C66 C 0.73857 0.11056 0.57826 0.0
C67 C 0.73114 0.1435 0.59412 0.0
C68 C 0.77423 0.19362 0.59152 0.0
N69 N 0.87029 0.30725 0.59355 0.0
C70 C 0.82769 0.29247 0.60721 0.0
C71 C 0.83238 0.33263 0.62302 0.0
C72 C 0.88098 0.37574 0.61897 0.0
C73 C 0.90368 0.35951 0.601 0.0
N74 N 0.83802 0.27973 0.5419 0.0
C75 C 0.75512 0.29046 0.52601 0.0
C76 C 0.79961 0.33361 0.53725 0.0
C77 C 0.84087 0.32794 0.54422 0.0
C78 C 0.7573 0.2449 0.51957 0.0
C79 C 0.79854 0.24039 0.52759 0.0
N80 N 0.9128 0.24438 0.59395 0.0
C81 C 0.91497 0.2311 0.64044 0.0
C82 C 0.96854 0.26038 0.64102 0.0
C83 C 0.99309 0.27533 0.61662 0.0
C84 C 0.96464 0.26591 0.59348 0.0
C85 C 0.88835 0.22363 0.61716 0.0
H86 H 0.98543 0.27936 0.57551 0.0
H87 H 0.84781 0.20417 0.61884 0.0
H88 H 0.87326 0.3615 0.5535 0.0
H89 H 0.79595 0.20308 0.5237 0.0
C90 C 0.95922 0.28865 0.52063 0.0
C91 C 0.95557 0.39577 0.59007 0.0
C92 C 0.80426 0.12279 0.54483 0.0
C93 C 0.78497 0.24013 0.60504 0.0
H94 H 0.05559 0.43717 0.56824 0.0
H95 H 0.05448 0.38491 0.52626 0.0
H96 H 0.93463 0.20675 0.48435 0.0
H97 H 0.85053 0.11793 0.49683 0.0
H98 H 0.71172 0.06808 0.57549 0.0
H99 H 0.69823 0.13211 0.60622 0.0
H100 H 0.8038 0.33093 0.63589 0.0
H101 H 0.89743 0.41483 0.62793 0.0
H102 H 0.80206 0.37084 0.54208 0.0
H103 H 0.72648 0.21144 0.50921 0.0
H104 H 0.89301 0.21523 0.65809 0.0
H105 H 0.03426 0.29661 0.61529 0.0
C106 C 0.66784 0.86626 0.99473 0.0
C107 C 0.66971 0.85314 0.02037 0.0
C108 C 0.63466 0.79915 0.02286 0.0
C109 C 0.61321 0.78227 0.99873 0.0
N110 N 0.63304 0.82215 0.98117 0.0
Co111 Co 0.61016 0.81623 0.94468 0.0
N112 N 0.54243 0.75109 0.9523 0.0
C113 C 0.5316 0.71962 0.97336 0.0
C114 C 0.48243 0.67639 0.97361 0.0
C115 C 0.46106 0.68027 0.95112 0.0
C116 C 0.49859 0.72586 0.93822 0.0
N117 N 0.58747 0.8103 0.90817 0.0
C118 C 0.54046 0.77856 0.8972 0.0
C119 C 0.5438 0.78459 0.87047 0.0
C120 C 0.59445 0.82029 0.86464 0.0
C121 C 0.61953 0.83433 0.88804 0.0
N122 N 0.67792 0.88195 0.9383 0.0
C123 C 0.70033 0.89862 0.91501 0.0
C124 C 0.74478 0.94833 0.91649 0.0
C125 C 0.75003 0.96344 0.94225 0.0
C126 C 0.70837 0.92228 0.9552 0.0
N127 N 0.63791 0.77031 0.93482 0.0
C128 C 0.68441 0.7251 0.90519 0.0
C129 C 0.71217 0.76545 0.92386 0.0
C130 C 0.68836 0.78744 0.9384 0.0
C131 C 0.63197 0.70493 0.9036 0.0
C132 C 0.60954 0.72703 0.9188 0.0
N133 N 0.58389 0.86331 0.95221 0.0
C134 C 0.58731 0.94416 0.93965 0.0
C135 C 0.55507 0.93929 0.95993 0.0
C136 C 0.53878 0.89569 0.97719 0.0
C137 C 0.55424 0.85832 0.97313 0.0
C138 C 0.59894 0.90525 0.93553 0.0
H139 H 0.54214 0.8255 0.98661 0.0
H140 H 0.6214 0.91031 0.91871 0.0
H141 H 0.71155 0.82062 0.95131 0.0
H142 H 0.56956 0.71122 0.91588 0.0
C143 C 0.56657 0.73502 0.99373 0.0
C144 C 0.69947 0.92055 0.98365 0.0
C145 C 0.49323 0.73864 0.91121 0.0
C146 C 0.67167 0.87371 0.89234 0.0
H147 H 0.69274 0.87981 0.03585 0.0
H148 H 0.62333 0.77605 0.04064 0.0
H149 H 0.46408 0.64594 0.98848 0.0
H150 H 0.42273 0.65157 0.94458 0.0
H151 H 0.51306 0.76431 0.8566 0.0
H152 H 0.61082 0.83463 0.84561 0.0
H153 H 0.76869 0.97252 0.90054 0.0
H154 H 0.78041 1.00067 0.95049 0.0
H155 H 0.7527 0.78204 0.92625 0.0
H156 H 0.60831 0.67281 0.89019 0.0
H157 H 0.60368 0.97791 0.92642 0.0
H158 H 0.51395 0.89002 0.99334 0.0
C159 C 0.66035 0.60175 0.2161 0.0
C160 C 0.63972 0.62975 0.20528 0.0
C161 C 0.67347 0.66353 0.18724 0.0
C162 C 0.71367 0.65612 0.18868 0.0
N163 N 0.70784 0.61957 0.20656 0.0
Co164 Co 0.76264 0.60733 0.2191 0.0
N165 N 0.81733 0.67107 0.19915 0.0
C166 C 0.80956 0.70226 0.18298 0.0
C167 C 0.85294 0.74354 0.17205 0.0
C168 C 0.89117 0.7379 0.18119 0.0
C169 C 0.8688 0.69298 0.1973 0.0
N170 N 0.81793 0.5947 0.23037 0.0
C171 C 0.86819 0.6193 0.22304 0.0
C172 C 0.89003 0.59152 0.23234 0.0
C173 C 0.85229 0.54729 0.24512 0.0
C174 C 0.80949 0.55041 0.24302 0.0
N175 N 0.70785 0.54573 0.23974 0.0
C176 C 0.71319 0.50826 0.25183 0.0
C177 C 0.6694 0.46985 0.26409 0.0
C178 C 0.634 0.48385 0.25943 0.0
C179 C 0.65817 0.53036 0.24463 0.0
N180 N 0.75045 0.55706 0.18952 0.0
C181 C 0.74988 0.46831 0.16629 0.0
C182 C 0.70552 0.46242 0.1775 0.0
C183 C 0.70634 0.50725 0.18847 0.0
C184 C 0.79167 0.52107 0.16364 0.0
C185 C 0.79071 0.56449 0.17471 0.0
N186 N 0.77403 0.65373 0.2502 0.0
C187 C 0.77964 0.66107 0.2973 0.0
C188 C 0.76708 0.70071 0.29754 0.0
C189 C 0.76117 0.71853 0.27313 0.0
C190 C 0.76547 0.69529 0.2499 0.0
C191 C 0.78281 0.63844 0.27382 0.0
H192 H 0.76005 0.70999 0.23185 0.0
H193 H 0.78988 0.6064 0.27526 0.0
H194 H 0.67198 0.50034 0.19768 0.0
H195 H 0.82434 0.60338 0.17248 0.0
C196 C 0.76115 0.69216 0.17849 0.0
C197 C 0.63158 0.55619 0.23391 0.0
C198 C 0.89589 0.66654 0.2057 0.0
C199 C 0.76053 0.51216 0.25208 0.0
H200 H 0.6041 0.62672 0.21009 0.0
H201 H 0.67083 0.69317 0.17595 0.0
H202 H 0.85623 0.7734 0.15846 0.0
H203 H 0.93049 0.76269 0.1752 0.0
H204 H 0.92879 0.60129 0.22933 0.0
H205 H 0.85535 0.51575 0.25418 0.0
H206 H 0.66384 0.43578 0.27518 0.0
H207 H 0.59469 0.46182 0.26586 0.0
H208 H 0.67114 0.42306 0.17914 0.0
H209 H 0.8258 0.52881 0.15361 0.0
H210 H 0.78457 0.64531 0.31529 0.0
H211 H 0.75267 0.74997 0.2719 0.0
C212 C 0.06764 0.65568 0.56888 0.0
C213 C 1.01872 0.62742 0.55843 0.0
C214 C 1.02011 0.65317 0.53624 0.0
C215 C 0.06881 0.6969 0.535 0.0
N216 N 0.09856 0.70114 0.55515 0.0
Co217 Co 0.16467 0.76729 0.56535 0.0
N218 N 0.15814 0.81246 0.53783 0.0
C219 C 0.12342 0.79254 0.51851 0.0
C220 C 0.13097 0.82873 0.49969 0.0
C221 C 0.17366 0.87504 0.50704 0.0
C222 C 0.18929 0.86516 0.53062 0.0
N223 N 0.23143 0.83433 0.57456 0.0
C224 C 0.25519 0.88626 0.56536 0.0
C225 C 0.30191 0.9182 0.57753 0.0
C226 C 0.30896 0.88532 0.5936 0.0
C227 C 0.26604 0.83514 0.59082 0.0
N228 N 0.17003 0.72146 0.59256 0.0
C229 C 0.21216 0.73638 0.6066 0.0
C230 C 0.20692 0.69641 0.62272 0.0
C231 C 0.15843 0.6533 0.6185 0.0
C232 C 0.13634 0.66933 0.6001 0.0
N233 N 0.20404 0.749 0.54107 0.0
C234 C 0.28726 0.73838 0.52558 0.0
C235 C 0.24269 0.69527 0.53684 0.0
C236 C 0.2013 0.70089 0.54363 0.0
C237 C 0.28511 0.78388 0.51899 0.0
C238 C 0.24373 0.78835 0.52681 0.0
N239 N 0.12726 0.78398 0.5921 0.0
C240 C 0.12404 0.79781 0.63845 0.0
C241 C 0.07047 0.76732 0.6389 0.0
C242 C 0.04632 0.75162 0.61447 0.0
C243 C 0.07528 0.76144 0.59144 0.0
C244 C 0.15119 0.80556 0.6153 0.0
H245 H 0.05481 0.74743 0.57344 0.0
H246 H 0.19178 0.82595 0.61712 0.0
H247 H 0.16884 0.66738 0.55292 0.0
H248 H 0.2463 0.82562 0.52281 0.0
C249 C 0.08366 0.73962 0.51846 0.0
C250 C 0.08478 0.63295 0.5889 0.0
C251 C 0.2371 0.90584 0.54361 0.0
C252 C 0.2549 0.78872 0.60454 0.0
H253 H 0.98581 0.59079 0.56566 0.0
H254 H 0.98856 0.64292 0.52334 0.0
H255 H 0.10894 0.82175 0.4822 0.0
H256 H 0.19217 0.91088 0.49527 0.0
H257 H 0.32873 0.96071 0.57483 0.0
H258 H 0.34147 0.89681 0.60598 0.0
H259 H 0.23505 0.69826 0.63595 0.0
H260 H 0.14166 0.61434 0.62764 0.0
H261 H 0.24028 0.65813 0.54182 0.0
H262 H 0.31606 0.81731 0.50863 0.0
H263 H 0.14564 0.81439 0.65612 0.0
H264 H 1.00514 0.72947 0.61303 0.0
C265 C 0.37289 0.16041 0.99334 0.0
C266 C 0.36793 0.1722 0.0188 0.0
C267 C 0.40079 0.22656 0.02179 0.0
C268 C 0.42375 0.24497 0.99804 0.0
N269 N 0.40688 0.20568 0.98026 0.0
Co270 Co 0.43176 0.21426 0.94405 0.0
N271 N 0.49741 0.28126 0.95256 0.0
C272 C 0.50577 0.31157 0.97383 0.0
C273 C 0.55411 0.35625 0.97475 0.0
C274 C 0.5775 0.35451 0.9525 0.0
C275 C 0.54194 0.30871 0.93906 0.0
N276 N 0.45644 0.22339 0.90775 0.0
C277 C 0.50357 0.25754 0.89737 0.0
C278 C 0.50176 0.25286 0.87058 0.0
C279 C 0.45193 0.21536 0.86413 0.0
C280 C 0.42578 0.19901 0.88724 0.0
N281 N 0.36629 0.14612 0.93682 0.0
C282 C 0.34567 0.12915 0.91321 0.0
C283 C 0.30291 0.07809 0.91405 0.0
C284 C 0.29678 0.06238 0.93973 0.0
C285 C 0.33611 0.10473 0.95337 0.0
N286 N 0.40052 0.25696 0.93409 0.0
C287 C 0.35337 0.29931 0.90299 0.0
C288 C 0.32438 0.25387 0.91882 0.0
C289 C 0.34859 0.23436 0.93471 0.0
C290 C 0.40656 0.32573 0.90507 0.0
C291 C 0.42917 0.30399 0.92042 0.0
N292 N 0.46148 0.17044 0.95163 0.0
C293 C 0.46484 0.09379 0.93816 0.0
C294 C 0.49405 0.09775 0.95968 0.0
C295 C 0.50554 0.13869 0.97787 0.0
C296 C 0.48845 0.1746 0.97353 0.0
C297 C 0.45095 0.13095 0.9341 0.0
H298 H 0.49688 0.20543 0.98769 0.0
H299 H 0.43018 0.12629 0.91669 0.0
H300 H 0.32485 0.19865 0.94608 0.0
H301 H 0.46999 0.32352 0.91937 0.0
C302 C 0.46943 0.29383 0.99373 0.0
C303 C 0.34386 0.10622 0.98199 0.0
C304 C 0.54949 0.29761 0.91209 0.0
C305 C 0.37451 0.15656 0.89092 0.0
H306 H 0.34396 0.14427 0.03374 0.0
H307 H 0.4096 0.24912 0.03967 0.0
H308 H 0.57062 0.38625 0.9899 0.0
H309 H 0.61578 0.38466 0.94644 0.0
H310 H 0.53301 0.27491 0.85711 0.0
H311 H 0.43688 0.20111 0.8449 0.0
H312 H 0.28079 0.05363 0.89775 0.0
H313 H 0.26743 0.02387 0.94734 0.0
H314 H 0.28309 0.23271 0.91848 0.0
H315 H 0.43077 0.36124 0.89355 0.0
H316 H 0.4525 0.06195 0.92402 0.0
H317 H 0.52785 0.14336 0.99496 0.0
C318 C 0.61598 0.65632 0.4681 0.0
C319 C 0.6371 0.62817 0.47815 0.0
C320 C 0.66202 0.65389 0.50022 0.0
C321 C 0.65687 0.6975 0.50177 0.0
N322 N 0.63072 0.70169 0.48194 0.0
Co323 Co 0.63016 0.76772 0.47211 0.0
N324 N 0.68233 0.81286 0.49944 0.0
C325 C 0.6977 0.79292 0.5185 0.0
C326 C 0.72639 0.82893 0.53734 0.0
C327 C 0.72948 0.87514 0.53029 0.0
C328 C 0.70364 0.86542 0.50683 0.0
N329 N 0.62994 0.83469 0.46327 0.0
C330 C 0.6581 0.88657 0.47252 0.0
C331 C 0.64291 0.91845 0.46063 0.0
C332 C 0.60274 0.88556 0.4447 0.0
C333 C 0.59575 0.83544 0.44728 0.0
N334 N 0.57844 0.72189 0.44512 0.0
C335 C 0.55082 0.73674 0.43139 0.0
C336 C 0.51571 0.69672 0.41543 0.0
C337 C 0.52126 0.65363 0.41945 0.0
C338 C 0.55983 0.66972 0.43756 0.0
N339 N 0.57296 0.74908 0.49679 0.0
C340 C 0.4792 0.73832 0.5125 0.0
C341 C 0.48066 0.69524 0.50121 0.0
C342 C 0.52766 0.70092 0.49432 0.0
C343 C 0.52683 0.78379 0.51909 0.0
C344 C 0.57265 0.78831 0.51115 0.0
N345 N 0.68371 0.78481 0.44497 0.0
C346 C 0.69975 0.79878 0.39854 0.0
C347 C 0.72356 0.769 0.39783 0.0
C348 C 0.73272 0.75348 0.42215 0.0
C349 C 0.71365 0.76283 0.44534 0.0
C350 C 0.68054 0.80615 0.42185 0.0
H351 H 0.72066 0.74895 0.46325 0.0
H352 H 0.65983 0.82604 0.42025 0.0
H353 H 0.52661 0.66744 0.48499 0.0
H354 H 0.60731 0.82558 0.51514 0.0
C355 C 0.6849 0.74011 0.51832 0.0
C356 C 0.57533 0.63338 0.44851 0.0
C357 C 0.69609 0.90611 0.49411 0.0
C358 C 0.56029 0.78903 0.43363 0.0
H359 H 0.63318 0.59153 0.47078 0.0
H360 H 0.68372 0.64367 0.51285 0.0
H361 H 0.7418 0.82188 0.55468 0.0
H362 H 0.74668 0.91078 0.5422 0.0
H363 H 0.65849 0.96092 0.46342 0.0
H364 H 0.58138 0.89701 0.43255 0.0
H365 H 0.48904 0.69851 0.40247 0.0
H366 H 0.49887 0.61464 0.41037 0.0
H367 H 0.44595 0.65808 0.49626 0.0
H368 H 0.52931 0.81717 0.52949 0.0
H369 H 0.69407 0.8151 0.38095 0.0
H370 H 0.75226 0.73182 0.42339 0.0
C371 C 0.97027 0.6046 0.8225 0.0
C372 C 1.01904 0.6338 0.83308 0.0
C373 C 1.01948 0.66986 0.84981 0.0
C374 C 0.97189 0.66238 0.84794 0.0
N375 N 0.9407 0.62337 0.83107 0.0
Co376 Co 0.87255 0.60835 0.81871 0.0
N377 N 0.88077 0.67269 0.83755 0.0
C378 C 0.92163 0.70854 0.85144 0.0
C379 C 0.91955 0.75173 0.8599 0.0
C380 C 0.87359 0.74218 0.8515 0.0
C381 C 0.8499 0.69294 0.83887 0.0
N382 N 0.8032 0.593 0.80803 0.0
C383 C 0.77564 0.61483 0.81664 0.0
C384 C 0.72527 0.58424 0.80861 0.0
C385 C 0.7205 0.54153 0.79509 0.0
C386 C 0.76795 0.54795 0.79568 0.0
N387 N 0.86677 0.54655 0.79873 0.0
C388 C 0.82433 0.50845 0.78663 0.0
C389 C 0.83049 0.47025 0.77473 0.0
C390 C 0.88002 0.4851 0.77959 0.0
C391 C 0.90167 0.53188 0.79417 0.0
N392 N 0.8365 0.55921 0.849 0.0
C393 C 0.74823 0.47169 0.8728 0.0
C394 C 0.7855 0.46462 0.86099 0.0
C395 C 0.82961 0.50882 0.84979 0.0
C396 C 0.76075 0.52497 0.87587 0.0
C397 C 0.80548 0.56776 0.86467 0.0
N398 N 0.90575 0.65345 0.78695 0.0
C399 C 0.9061 0.6587 0.73976 0.0
C400 C 0.95814 0.69881 0.73905 0.0
C401 C 0.98233 0.71803 0.76321 0.0
C402 C 0.95559 0.69558 0.78668 0.0
C403 C 0.88103 0.63689 0.76354 0.0
H404 H 0.97634 0.71154 0.80442 0.0
H405 H 0.84197 0.60456 0.76252 0.0
H406 H 0.85613 0.50094 0.84028 0.0
H407 H 0.81282 0.60725 0.86757 0.0
C408 C 0.96096 0.70016 0.85643 0.0
C409 C 0.95391 0.55845 0.80512 0.0
C410 C 0.79478 0.66164 0.83429 0.0
C411 C 0.78011 0.51087 0.78653 0.0
H412 H 0.0517 0.63061 0.82871 0.0
H413 H 0.05208 0.70104 0.86033 0.0
H414 H 0.94742 0.7853 0.87146 0.0
H415 H 0.85753 0.76648 0.85593 0.0
H416 H 0.69455 0.59064 0.81299 0.0
H417 H 0.68587 0.50831 0.78689 0.0
H418 H 0.80231 0.43559 0.76385 0.0
H419 H 0.89775 0.46327 0.77353 0.0
H420 H 0.77951 0.42485 0.85907 0.0
H421 H 0.73551 0.53374 0.88639 0.0
H422 H 0.88504 0.64203 0.72194 0.0
H423 H 0.02209 0.74999 0.76409 0.0
C424 C 0.22682 0.86893 0.04467 0.0
C425 C 0.2115 0.85651 0.01903 0.0
C426 C 0.19099 0.80227 0.01633 0.0
C427 C 0.19505 0.78453 0.04033 0.0
N428 N 0.21628 0.82413 0.05802 0.0
Co429 Co 0.23258 0.81655 0.09441 0.0
N430 N 0.23256 0.75003 0.08637 0.0
C431 C 0.2113 0.71925 0.06519 0.0
C432 C 0.2158 0.67507 0.0646 0.0
C433 C 0.24081 0.67764 0.08699 0.0
C434 C 0.25018 0.72345 0.10015 0.0
N435 N 0.24805 0.80848 0.13085 0.0
C436 C 0.26165 0.7751 0.14155 0.0
C437 C 0.26415 0.78028 0.16832 0.0
C438 C 0.25091 0.81726 0.17443 0.0
C439 C 0.24098 0.83284 0.15116 0.0
N440 N 0.23402 0.88415 0.10119 0.0
C441 C 0.22955 0.90126 0.12463 0.0
C442 C 0.2369 0.95194 0.12343 0.0
C443 C 0.24678 0.96723 0.09769 0.0
C444 C 0.24517 0.92518 0.08446 0.0
N445 N 0.15862 0.77301 0.10426 0.0
C446 C 0.06898 0.73013 0.13534 0.0
C447 C 0.08484 0.77511 0.11927 0.0
C448 C 0.12866 0.79487 0.10339 0.0
C449 C 0.09638 0.70434 0.13351 0.0
C450 C 0.14079 0.72634 0.11816 0.0
N451 N 0.30612 0.86122 0.08697 0.0
C452 C 0.38506 0.93933 0.10025 0.0
C453 C 0.41127 0.93494 0.07925 0.0
C454 C 0.38276 0.89304 0.06135 0.0
C455 C 0.32975 0.85671 0.06546 0.0
C456 C 0.33422 0.90153 0.10426 0.0
H457 H 0.30805 0.8252 0.05151 0.0
H458 H 0.31756 0.90633 0.12145 0.0
H459 H 0.14019 0.83025 0.09183 0.0
H460 H 0.1626 0.70738 0.11941 0.0
C461 C 0.1927 0.73623 0.04501 0.0
C462 C 0.25114 0.92329 0.05589 0.0
C463 C 0.26849 0.73528 0.12715 0.0
C464 C 0.23121 0.87457 0.14714 0.0
H465 H 0.21595 0.88372 1.00365 0.0
H466 H 0.17851 0.77946 0.99848 0.0
H467 H 0.20297 0.64487 0.04957 0.0
H468 H 0.24945 0.64802 0.0933 0.0
H469 H 0.27371 0.75891 0.18201 0.0
H470 H 0.24958 0.83168 0.19356 0.0
H471 H 0.23823 0.97639 0.13952 0.0
H472 H 0.2548 1.00504 0.08962 0.0
H473 H 0.06421 0.79576 0.11943 0.0
H474 H 0.08553 0.6692 0.14524 0.0
H475 H 0.40363 0.97192 0.11408 0.0
H476 H 0.40111 0.88794 0.04465 0.0
C477 C 0.42697 0.37309 0.46806 0.0
C478 C 0.40582 0.40118 0.4782 0.0
C479 C 0.38081 0.37529 0.50026 0.0
C480 C 0.38594 0.33166 0.50171 0.0
N481 N 0.41216 0.32761 0.48182 0.0
Co482 Co 0.41277 0.26167 0.47184 0.0
N483 N 0.36037 0.2163 0.49909 0.0
C484 C 0.34492 0.23606 0.51823 0.0
C485 C 0.31588 0.19978 0.53694 0.0
C486 C 0.31264 0.15357 0.52971 0.0
C487 C 0.33879 0.1636 0.50629 0.0
N488 N 0.41302 0.19478 0.46285 0.0
C489 C 0.3847 0.1428 0.47197 0.0
C490 C 0.40003 0.11103 0.46005 0.0
C491 C 0.44042 0.14408 0.44423 0.0
C492 C 0.4474 0.19418 0.4469 0.0
N493 N 0.46469 0.30773 0.44493 0.0
C494 C 0.49247 0.29302 0.43119 0.0
C495 C 0.5277 0.33318 0.41529 0.0
C496 C 0.52206 0.37621 0.41936 0.0
C497 C 0.48332 0.35995 0.43745 0.0
N498 N 0.46976 0.28003 0.49654 0.0
C499 C 0.56332 0.29059 0.51239 0.0
C500 C 0.56201 0.33377 0.50112 0.0
C501 C 0.51512 0.32818 0.49416 0.0
C502 C 0.51559 0.24508 0.51885 0.0
C503 C 0.46987 0.24064 0.51085 0.0
N504 N 0.35941 0.24484 0.4447 0.0
C505 C 0.34343 0.23098 0.39829 0.0
C506 C 0.31942 0.26055 0.39767 0.0
C507 C 0.3102 0.27596 0.42203 0.0
C508 C 0.32936 0.26668 0.44517 0.0
C509 C 0.36274 0.22368 0.42154 0.0
H510 H 0.32231 0.28047 0.46311 0.0
H511 H 0.38361 0.20398 0.41987 0.0
H512 H 0.51631 0.36175 0.48486 0.0
H513 H 0.43514 0.20335 0.51474 0.0
C514 C 0.35779 0.2889 0.51819 0.0
C515 C 0.46769 0.39617 0.44845 0.0
C516 C 0.34636 0.12303 0.49345 0.0
C517 C 0.48301 0.24073 0.43334 0.0
H518 H 0.40975 0.43786 0.47091 0.0
H519 H 0.35906 0.38541 0.51294 0.0
H520 H 0.30027 0.20662 0.55429 0.0
H521 H 0.29509 0.11768 0.54145 0.0
H522 H 0.3844 0.06853 0.46276 0.0
H523 H 0.46192 0.13274 0.43208 0.0
H524 H 0.55449 0.33153 0.40232 0.0
H525 H 0.5445 0.41527 0.41035 0.0
H526 H 0.5968 0.37096 0.49626 0.0
H527 H 0.51294 0.21159 0.52922 0.0
H528 H 0.3492 0.21476 0.38067 0.0
H529 H 0.29053 0.29749 0.42333 0.0
C530 C 0.07458 0.42987 0.82233 0.0
C531 C 0.0261 0.40266 0.83337 0.0
C532 C 0.02573 0.36869 0.8514 0.0
C533 C 0.07302 0.37532 0.84976 0.0
N534 N 0.10382 0.41149 0.83176 0.0
Co535 Co 0.17059 0.42298 0.81916 0.0
N536 N 0.16125 0.35944 0.83942 0.0
C537 C 0.12228 0.32869 0.85568 0.0
C538 C 0.12419 0.28749 0.86684 0.0
C539 C 0.16793 0.29269 0.85773 0.0
C540 C 0.19058 0.33726 0.8414 0.0
N541 N 0.23824 0.43483 0.80783 0.0
C542 C 0.2636 0.40993 0.81519 0.0
C543 C 0.31312 0.43714 0.80573 0.0
C544 C 0.31986 0.48131 0.79278 0.0
C545 C 0.2742 0.47873 0.79497 0.0
N546 N 0.17779 0.48447 0.79829 0.0
C547 C 0.22062 0.52147 0.78602 0.0
C548 C 0.21554 0.55996 0.77366 0.0
C549 C 0.16635 0.54656 0.77845 0.0
C550 C 0.14384 0.50031 0.79344 0.0
N551 N 0.20884 0.47366 0.84851 0.0
C552 C 0.29657 0.56325 0.87141 0.0
C553 C 0.2575 0.56835 0.86045 0.0
C554 C 0.21374 0.52311 0.84963 0.0
C555 C 0.2865 0.5108 0.87398 0.0
C556 C 0.24231 0.46693 0.86308 0.0
N557 N 0.13524 0.37614 0.78824 0.0
C558 C 0.13323 0.36813 0.74116 0.0
C559 C 0.08092 0.32895 0.74106 0.0
C560 C 0.05727 0.31165 0.76553 0.0
C561 C 0.085 0.33498 0.78868 0.0
C562 C 0.15921 0.39086 0.76456 0.0
H563 H 0.0649 0.32069 0.80679 0.0
H564 H 0.19843 0.42258 0.763 0.0
H565 H 0.18581 0.5294 0.84057 0.0
H566 H 0.23768 0.4283 0.86522 0.0
C567 C 0.08417 0.33917 0.86009 0.0
C568 C 0.0917 0.47531 0.80444 0.0
C569 C 0.24394 0.36302 0.83276 0.0
C570 C 0.26379 0.5171 0.78576 0.0
H571 H 0.99385 0.40638 0.82874 0.0
H572 H 0.99347 0.33956 0.86287 0.0
H573 H 0.09758 0.25797 0.88055 0.0
H574 H 0.18229 0.26782 0.86384 0.0
H575 H 0.34189 0.42706 0.80872 0.0
H576 H 0.35448 0.51247 0.78355 0.0
H577 H 0.24413 0.59373 0.76243 0.0
H578 H 0.14933 0.56882 0.77201 0.0
H579 H 0.26179 0.60742 0.85888 0.0
H580 H 0.31341 0.50361 0.8838 0.0
H581 H 0.15389 0.38348 0.72311 0.0
H582 H 1.01725 0.28057 0.76688 0.0
C583 C 0.81477 0.15784 0.04592 0.0
C584 C 0.83129 0.1697 0.02042 0.0
C585 C 0.8522 0.22398 0.01739 0.0
C586 C 0.84755 0.24227 0.04116 0.0
N587 N 0.82563 0.20298 0.05898 0.0
Co588 Co 0.80935 0.21133 0.09521 0.0
N589 N 0.80966 0.2778 0.08671 0.0
C590 C 0.83128 0.30821 0.06543 0.0
C591 C 0.82702 0.35254 0.06454 0.0
C592 C 0.80184 0.35046 0.08683 0.0
C593 C 0.79212 0.3048 0.10024 0.0
N594 N 0.79369 0.22015 0.13152 0.0
C595 C 0.78014 0.25382 0.14194 0.0
C596 C 0.77738 0.24909 0.16873 0.0
C597 C 0.79041 0.21211 0.17515 0.0
C598 C 0.80048 0.19608 0.15202 0.0
N599 N 0.80787 0.14378 0.10243 0.0
C600 C 0.81205 0.12711 0.12603 0.0
C601 C 0.80436 0.0763 0.12522 0.0
C602 C 0.79461 0.06041 0.09957 0.0
C603 C 0.79695 0.10244 0.08592 0.0
N604 N 0.88327 0.25488 0.10502 0.0
C605 C 0.97293 0.29806 0.13598 0.0
C606 C 0.95703 0.25289 0.12005 0.0
C607 C 0.9132 0.23298 0.10422 0.0
C608 C 0.94555 0.32386 0.13408 0.0
C609 C 0.90112 0.30172 0.11878 0.0
N610 N 0.73585 0.16669 0.08776 0.0
C611 C 0.65681 0.08854 0.10095 0.0
C612 C 0.63082 0.09269 0.07981 0.0
C613 C 0.65956 0.13459 0.06191 0.0
C614 C 0.71248 0.17103 0.06613 0.0
C615 C 0.70757 0.12652 0.10508 0.0
H616 H 0.73435 0.20244 0.05214 0.0
H617 H 0.72404 0.12191 0.12237 0.0
H618 H 0.90163 0.19747 0.09277 0.0
H619 H 0.87934 0.32071 0.11995 0.0
C620 C 0.85014 0.29084 0.04548 0.0
C621 C 0.79025 0.10371 0.05732 0.0
C622 C 0.77362 0.29352 0.12725 0.0
C623 C 0.81017 0.15423 0.14832 0.0
H624 H 0.82758 0.14188 1.00549 0.0
H625 H 0.86561 0.24652 0.99949 0.0
H626 H 0.84019 0.38254 0.04939 0.0
H627 H 0.79335 0.38034 0.09291 0.0
H628 H 0.76779 0.27078 0.18223 0.0
H629 H 0.79153 0.198 0.19438 0.0
H630 H 0.80243 0.05203 0.14152 0.0
H631 H 0.78573 0.02196 0.09201 0.0
H632 H 0.97764 0.23223 0.12026 0.0
H633 H 0.95643 0.35914 0.14569 0.0
H634 H 0.63825 0.05594 0.11478 0.0
H635 H 0.64148 0.1396 0.04509 0.0
C636 C 0.32367 0.69629 0.13686 0.0
C637 C 0.27799 0.69552 0.14082 0.0
H638 H 0.36447 0.65552 0.14179 0.0
C639 C 0.2381 0.6513 0.15407 0.0
H640 H 0.3547 0.72908 0.12617 0.0
C641 C 0.24322 0.60858 0.1626 0.0
C642 C 0.28852 0.60852 0.15825 0.0
H643 H 0.20206 0.64878 0.15697 0.0
H644 H 0.21124 0.57514 0.17248 0.0
C645 C 0.3291 0.65381 0.1457 0.0
C646 C 0.65826 0.24327 0.52079 0.0
C647 C 0.70648 0.29148 0.52208 0.0
H648 H 0.57781 0.20471 0.51589 0.0
C649 C 0.70676 0.3399 0.52051 0.0
H650 H 0.65478 0.20466 0.52254 0.0
C651 C 0.66108 0.33993 0.51788 0.0
C652 C 0.61294 0.29154 0.51632 0.0
H653 H 0.7423 0.37831 0.52112 0.0
H654 H 0.66397 0.37837 0.51725 0.0
C655 C 0.61293 0.2433 0.51763 0.0
C656 C 0.44088 0.65523 0.88383 0.0
C657 C 0.44452 0.6991 0.89711 0.0
H658 H 0.39242 0.57895 0.8654 0.0
C659 C 0.39927 0.69922 0.90097 0.0
H660 H 0.47468 0.65318 0.88103 0.0
C661 C 0.35165 0.65633 0.89211 0.0
C662 C 0.34763 0.61132 0.87961 0.0
H663 H 0.40049 0.73169 0.91171 0.0
H664 H 0.3177 0.65748 0.89601 0.0
C665 C 0.39335 0.61214 0.87526 0.0
C666 C 0.71315 0.3754 0.14553 0.0
C667 C 0.75375 0.42077 0.15798 0.0
H668 H 0.68751 0.29994 0.12616 0.0
C669 C 0.79908 0.42078 0.16226 0.0
H670 H 0.67776 0.37362 0.14168 0.0
C671 C 0.80419 0.37801 0.15379 0.0
C672 C 0.76426 0.33366 0.14066 0.0
H673 H 0.83107 0.45428 0.17207 0.0
H674 H 0.84022 0.38053 0.15667 0.0
C675 C 0.71858 0.33285 0.13674 0.0
C676 C 0.3814 0.68895 0.51779 0.0
C677 C 0.42954 0.73735 0.51631 0.0
H678 H 0.30013 0.65055 0.52085 0.0
C679 C 0.42954 0.78559 0.51756 0.0
H680 H 0.37853 0.65052 0.5172 0.0
C681 C 0.38417 0.78561 0.5206 0.0
C682 C 0.33594 0.73738 0.52181 0.0
H683 H 0.46468 0.82418 0.51588 0.0
H684 H 0.38761 0.8242 0.52232 0.0
C685 C 0.33568 0.68896 0.52029 0.0
C686 C 0.60386 0.38338 0.88644 0.0
C687 C 0.59894 0.33796 0.89873 0.0
H688 H 0.65374 0.46028 0.86877 0.0
C689 C 0.64337 0.33602 0.90187 0.0
H690 H 0.57069 0.38674 0.88418 0.0
C691 C 0.69139 0.3784 0.89308 0.0
C692 C 0.69671 0.42474 0.8814 0.0
H693 H 0.64117 0.30227 0.91181 0.0
H694 H 0.72466 0.37563 0.89629 0.0
C695 C 0.65183 0.426 0.87797 0.0
C696 C 0.54732 0.52317 0.2588 0.0
C697 C 0.57397 0.53088 0.2353 0.0
H698 H 0.47477 0.49808 0.27711 0.0
C699 C 0.5464 0.52097 0.21209 0.0
H700 H 0.56716 0.53085 0.27709 0.0
C701 C 0.4959 0.50846 0.2121 0.0
C702 C 0.46819 0.49837 0.23532 0.0
H703 H 0.5649 0.52559 0.19357 0.0
H704 H 0.4775 0.50398 0.19359 0.0
C705 C 0.49472 0.5059 0.2588 0.0
C706 C 0.03641 0.54338 0.61476 0.0
C707 C 0.05515 0.57174 0.59114 0.0
H708 H 0.99168 0.4656 0.63344 0.0
C709 C 0.03885 0.54124 0.56816 0.0
H710 H 0.04726 0.56506 0.63295 0.0
C711 C 1.00173 0.4865 0.56837 0.0
C712 C 0.98483 0.45704 0.59166 0.0
H713 H 0.0528 0.56054 0.5495 0.0
H714 H 0.98834 0.46636 0.54987 0.0
C715 C 1.00295 0.48646 0.61503 0.0
C716 C 0.52404 0.04269 0.93821 0.0
C717 C 0.51274 0.05971 0.96135 0.0
H718 H 0.53922 0.9886 0.91933 0.0
C719 C 0.51555 0.03661 0.98476 0.0
H720 H 0.52408 0.06019 0.91971 0.0
C721 C 0.5285 0.99678 0.98471 0.0
C722 C 0.53821 0.97902 0.96125 0.0
H723 H 0.50692 0.04871 1.00289 0.0
H724 H 0.53127 0.98014 1.00288 0.0
C725 C 0.53432 1.00194 0.93807 0.0
C726 C 0.53023 0.54212 0.46972 0.0
C727 C 0.54357 0.57213 0.44659 0.0
H728 H 0.50654 0.4676 0.48828 0.0
C729 C 0.5332 0.54328 0.42308 0.0
H730 H 0.53628 0.56184 0.48831 0.0
C731 C 0.50986 0.48636 0.42307 0.0
C732 C 0.49939 0.45743 0.44656 0.0
H733 H 0.5434 0.56458 0.40479 0.0
H734 H 0.49975 0.46512 0.40476 0.0
C735 C 0.51265 0.48737 0.46971 0.0
C736 C 1.00587 0.52538 0.8268 0.0
C737 C 0.9871 0.53419 0.80368 0.0
H738 H 0.05816 0.50843 0.84494 0.0
C739 C 1.00508 0.5256 0.78008 0.0
H740 H 0.99274 0.53068 0.8454 0.0
C741 C 0.04031 0.50822 0.77986 0.0
C742 C 0.06011 0.50139 0.80322 0.0
H743 H 0.99209 0.53248 0.76184 0.0
H744 H 0.05158 0.49958 0.76151 0.0
C745 C 0.04365 0.51255 0.82654 0.0
C746 C 0.49536 0.99266 0.1012 0.0
C747 C 0.46796 0.97344 0.0779 0.0
H748 H 0.56386 0.0484 0.1201 0.0
C749 C 0.4948 0.99444 0.05447 0.0
H750 H 0.47736 0.97678 0.11979 0.0
C751 C 0.54761 0.03408 0.05461 0.0
C752 C 0.57415 0.05384 0.0782 0.0
H753 H 0.47479 0.98068 0.03623 0.0
H754 H 0.56775 0.04887 0.03643 0.0
C755 C 0.54634 0.03337 0.10136 0.0
C756 C 0.32429 0.29823 0.32531 0.0
C757 C 0.28451 0.30832 0.32292 0.0
H758 H 0.36748 0.27784 0.34987 0.0
C759 C 0.25557 0.30169 0.34547 0.0
H760 H 0.34837 0.30383 0.30881 0.0
C761 C 0.26614 0.28584 0.36939 0.0
C762 C 0.30636 0.27623 0.37187 0.0
H763 H 0.22426 0.30846 0.34466 0.0
H764 H 0.24229 0.28078 0.38589 0.0
C765 C 0.33518 0.28296 0.34921 0.0
C766 C 0.97545 0.28334 0.68944 0.0
C767 C 0.99736 0.27623 0.6668 0.0
H768 H 0.98336 0.30467 0.72977 0.0
C769 C 0.04712 0.28565 0.66929 0.0
H770 H 0.93811 0.27839 0.68877 0.0
C771 C 0.07363 0.30167 0.69317 0.0
C772 C 0.05151 0.30868 0.7157 0.0
H773 H 0.06579 0.28031 0.65282 0.0
H774 H 0.11163 0.30825 0.69398 0.0
C775 C 1.00172 0.29879 0.7133 0.0
C776 C 0.70563 1.00311 1.00415 0.0
C777 C 0.72542 0.96957 1.00136 0.0
H778 H 0.7097 0.07022 0.02395 0.0
C779 C 0.76639 0.97984 0.0177 0.0
H780 H 0.67381 0.99628 0.99223 0.0
C781 C 0.7865 0.02179 0.0363 0.0
C782 C 0.76618 0.05489 0.03935 0.0
H783 H 0.78261 0.95486 0.01626 0.0
H784 H 0.81869 0.02894 0.04796 0.0
C785 C 0.72581 0.04512 0.02265 0.0
C786 C 0.77652 0.74335 0.36941 0.0
C787 C 0.73649 0.75324 0.37198 0.0
H788 H 0.81813 0.72042 0.34459 0.0
C789 C 0.7077 0.74668 0.34937 0.0
H790 H 0.80034 0.74826 0.38587 0.0
C791 C 0.71845 0.73129 0.32544 0.0
C792 C 0.75805 0.72093 0.32296 0.0
H793 H 0.67554 0.75202 0.3501 0.0
H794 H 0.6944 0.72584 0.30898 0.0
C795 C 0.78695 0.72739 0.34546 0.0
C796 C 0.991 0.74011 0.66697 0.0
C797 C 0.04133 0.75102 0.66461 0.0
H798 H 0.926 0.71627 0.69163 0.0
C799 C 0.06361 0.74499 0.68734 0.0
H800 H 0.97199 0.74448 0.6504 0.0
C801 C 0.03729 0.72944 0.71119 0.0
C802 C 0.98706 0.71834 0.71351 0.0
H803 H 0.10137 0.75097 0.68677 0.0
H804 H 0.05607 0.72459 0.72776 0.0
C805 C 0.9644 0.72393 0.69088 0.0
C806 C 0.32774 1.00555 0.03524 0.0
C807 C 0.27442 0.97244 0.0382 0.0
H808 H 0.39082 0.07226 1.01523 0.0
C809 C 0.24382 0.98312 0.02199 0.0
H810 H 0.35266 0.99844 0.04707 0.0
C811 C 0.26571 0.02488 1.00328 0.0
C812 C 0.31908 0.0575 1.00003 0.0
H813 H 0.20264 0.95853 0.02357 0.0
H814 H 0.24076 0.03224 0.99166 0.0
C815 C 0.34962 0.04747 0.01666 0.0
C816 C 1.01354 0.28141 0.17473 0.0
C817 C 1.01578 0.31652 0.15537 0.0
H818 H 0.05103 0.26925 0.20683 0.0
C819 C 0.05865 0.36943 0.15519 0.0
H820 H 0.98074 0.2408 0.17589 0.0
C821 C 0.0995 0.38548 0.1727 0.0
C822 C 0.09827 0.34953 0.19132 0.0
H823 H 0.06145 0.39788 0.14085 0.0
H824 H 0.13297 0.42546 0.17101 0.0
C825 C 0.05361 0.29798 0.19271 0.0
C826 C 0.72188 0.03991 0.52581 0.0
C827 C 0.77378 0.0655 0.53331 0.0
H828 H 0.65603 0.96975 0.50933 0.0
C829 C 0.79896 0.03825 0.52691 0.0
H830 H 0.70071 0.05926 0.52954 0.0
C831 C 0.77516 0.99056 0.51212 0.0
C832 C 0.72282 0.96339 0.50565 0.0
H833 H 0.83852 0.05539 0.53234 0.0
H834 H 0.7976 0.97336 0.50673 0.0
C835 C 0.69649 0.98905 0.5131 0.0
C836 C 0.72489 0.68293 0.84308 0.0
C837 C 0.76085 0.67104 0.8524 0.0
H838 H 0.67263 0.70868 0.85211 0.0
C839 C 0.76955 0.67523 0.87948 0.0
H840 H 0.71793 0.68187 0.82246 0.0
C841 C 0.74497 0.69239 0.89639 0.0
C842 C 0.70965 0.705 0.88708 0.0
H843 H 0.79714 0.66717 0.88771 0.0
H844 H 0.75382 0.69593 0.91687 0.0
C845 C 0.69927 0.69897 0.86016 0.0
C846 C 0.94243 0.64312 0.17229 0.0
C847 C 0.94381 0.67917 0.19091 0.0
H848 H 0.98029 0.63047 0.14037 0.0
C849 C 0.98856 0.73066 0.19221 0.0
H850 H 0.9089 0.60317 0.17067 0.0
C851 C 0.02857 0.74708 0.17416 0.0
C852 C 0.02617 0.71186 0.15479 0.0
H853 H 0.99128 0.75946 0.20634 0.0
H854 H 0.06144 0.78764 0.17525 0.0
C855 C 0.98321 0.65901 0.1547 0.0
C856 C 0.24268 0.99044 0.52562 0.0
C857 C 0.26776 0.96321 0.53219 0.0
H858 H 0.24456 0.05567 0.50554 0.0
C859 C 0.31985 0.98891 0.52496 0.0
H860 H 0.20295 0.97315 0.53083 0.0
C861 C 0.34551 0.03988 0.51237 0.0
C862 C 0.31934 0.0656 0.5048 0.0
H863 H 0.34095 0.96955 0.52883 0.0
H864 H 0.38606 0.05924 0.50879 0.0
C865 C 0.26684 0.03836 0.511 0.0
C866 C 0.27193 0.29851 0.84639 0.0
C867 C 0.27908 0.35022 0.84753 0.0
H868 H 0.28755 0.24141 0.86344 0.0
C869 C 0.3141 0.38643 0.86595 0.0
H870 H 0.24555 0.26958 0.83243 0.0
C871 C 0.33898 0.37053 0.88351 0.0
C872 C 0.32876 0.31753 0.88358 0.0
H873 H 0.32079 0.42652 0.86747 0.0
H874 H 0.36488 0.39922 0.89769 0.0
C875 C 0.29553 0.28211 0.86441 0.0
loop_
_geom_bond_atom_site_label_1
_geom_bond_atom_site_label_2
_geom_bond_distance
_geom_bond_site_symmetry_2
_ccdc_geom_bond_type
C0 C1 1.443 . S
C0 N4 1.376 . S
C0 C38 1.389 . S
C1 C0 1.443 . S
C1 C2 1.340 . S
C1 H41 0.951 . S
C2 C1 1.340 . S
C2 C3 1.439 . S
C2 H42 0.950 . S
C3 C2 1.439 . S
C3 N4 1.374 . S
C3 C37 1.395 . S
N4 C0 1.376 . S
N4 C3 1.374 . S
N4 Co5 2.008 . S
Co5 N4 2.008 . S
Co5 N6 1.995 . S
Co5 N11 2.008 . S
Co5 N16 1.995 . S
Co5 N21 2.282 . S
Co5 N27 2.282 . S
N6 Co5 1.995 . S
N6 C7 1.376 . S
N6 C10 1.383 . S
C7 N6 1.376 . S
C7 C8 1.446 . S
C7 C37 1.391 . S
C8 C7 1.446 . S
C8 C9 1.339 . S
C8 H43 0.949 . S
C9 C8 1.339 . S
C9 C10 1.439 . S
C9 H44 0.950 . S
C10 N6 1.383 . S
C10 C9 1.439 . S
C10 C39 1.392 . S
N11 Co5 2.008 . S
N11 C12 1.376 . S
N11 C15 1.374 . S
C12 N11 1.376 . S
C12 C13 1.443 . S
C12 C39 1.389 . S
C13 C12 1.443 . S
C13 C14 1.340 . S
C13 H45 0.951 . S
C14 C13 1.340 . S
C14 C15 1.439 . S
C14 H46 0.950 . S
C15 N11 1.374 . S
C15 C14 1.439 . S
C15 C40 1.395 . S
N16 Co5 1.995 . S
N16 C17 1.376 . S
N16 C20 1.383 . S
C17 N16 1.376 . S
C17 C18 1.446 . S
C17 C40 1.391 . S
C18 C17 1.446 . S
C18 C19 1.339 . S
C18 H47 0.949 . S
C19 C18 1.339 . S
C19 C20 1.439 . S
C19 H48 0.950 . S
C20 N16 1.383 . S
C20 C19 1.439 . S
C20 C38 1.392 . S
N21 Co5 2.282 . S
N21 C24 1.332 . S
N21 C26 1.332 . S
C22 C23 1.386 . S
C22 C25 1.388 . S
C23 C22 1.386 . S
C23 C24 1.382 . S
C23 H49 0.950 . S
C24 N21 1.332 . S
C24 C23 1.382 . S
C24 H35 0.952 . S
C25 C22 1.388 . S
C25 C26 1.382 . S
C25 H50 0.950 . S
C26 N21 1.332 . S
C26 C25 1.382 . S
C26 H36 0.948 . S
N27 Co5 2.282 . S
N27 C31 1.332 . S
N27 C32 1.332 . S
C28 C29 1.388 . S
C28 C32 1.382 . S
C28 H51 0.950 . S
C29 C28 1.388 . S
C29 C30 1.386 . S
C30 C29 1.386 . S
C30 C31 1.382 . S
C30 H52 0.950 . S
C31 N27 1.332 . S
C31 C30 1.382 . S
C31 H33 0.952 . S
C32 N27 1.332 . S
C32 C28 1.382 . S
C32 H34 0.948 . S
H33 C31 0.952 . S
H34 C32 0.948 . S
H35 C24 0.952 . S
H36 C26 0.948 . S
C37 C3 1.395 . S
C37 C7 1.391 . S
C38 C0 1.389 . S
C38 C20 1.392 . S
C39 C10 1.392 . S
C39 C12 1.389 . S
C40 C15 1.395 . S
C40 C17 1.391 . S
H41 C1 0.951 . S
H42 C2 0.950 . S
H43 C8 0.949 . S
H44 C9 0.950 . S
H45 C13 0.951 . S
H46 C14 0.950 . S
H47 C18 0.949 . S
H48 C19 0.950 . S
H49 C23 0.950 . S
H50 C25 0.950 . S
H51 C28 0.950 . S
H52 C30 0.950 . S
C53 C54 1.443 . S
C53 N57 1.376 . S
C53 C91 1.389 . S
C54 C53 1.443 . S
C54 C55 1.340 . S
C54 H94 0.951 1_655 S
C55 C54 1.340 . S
C55 C56 1.439 . S
C55 H95 0.950 1_655 S
C56 C55 1.439 . S
C56 N57 1.374 . S
C56 C90 1.395 . S
N57 C53 1.376 . S
N57 C56 1.374 . S
N57 Co58 2.008 . S
Co58 N57 2.008 . S
Co58 N59 1.995 . S
Co58 N64 2.008 . S
Co58 N69 1.995 . S
Co58 N74 2.282 . S
Co58 N80 2.282 . S
N59 Co58 1.995 . S
N59 C60 1.376 . S
N59 C63 1.383 . S
C60 N59 1.376 . S
C60 C61 1.446 . S
C60 C90 1.391 . S
C61 C60 1.446 . S
C61 C62 1.339 . S
C61 H96 0.949 . S
C62 C61 1.339 . S
C62 C63 1.439 . S
C62 H97 0.950 . S
C63 N59 1.383 . S
C63 C62 1.439 . S
C63 C92 1.392 . S
N64 Co58 2.008 . S
N64 C65 1.376 . S
N64 C68 1.374 . S
C65 N64 1.376 . S
C65 C66 1.443 . S
C65 C92 1.389 . S
C66 C65 1.443 . S
C66 C67 1.340 . S
C66 H98 0.951 . S
C67 C66 1.340 . S
C67 C68 1.439 . S
C67 H99 0.950 . S
C68 N64 1.374 . S
C68 C67 1.439 . S
C68 C93 1.395 . S
N69 Co58 1.995 . S
N69 C70 1.376 . S
N69 C73 1.383 . S
C70 N69 1.376 . S
C70 C71 1.446 . S
C70 C93 1.391 . S
C71 C70 1.446 . S
C71 C72 1.339 . S
C71 H100 0.949 . S
C72 C71 1.339 . S
C72 C73 1.439 . S
C72 H101 0.950 . S
C73 N69 1.383 . S
C73 C72 1.439 . S
C73 C91 1.392 . S
N74 Co58 2.282 . S
N74 C77 1.332 . S
N74 C79 1.332 . S
C75 C76 1.386 . S
C75 C78 1.388 . S
C76 C75 1.386 . S
C76 C77 1.382 . S
C76 H102 0.950 . S
C77 N74 1.332 . S
C77 C76 1.382 . S
C77 H88 0.952 . S
C78 C75 1.388 . S
C78 C79 1.382 . S
C78 H103 0.950 . S
C79 N74 1.332 . S
C79 C78 1.382 . S
C79 H89 0.948 . S
N80 Co58 2.282 . S
N80 C84 1.332 . S
N80 C85 1.332 . S
C81 C82 1.388 . S
C81 C85 1.382 . S
C81 H104 0.950 . S
C82 C81 1.388 . S
C82 C83 1.386 . S
C83 C82 1.386 . S
C83 C84 1.382 . S
C83 H105 0.950 1_655 S
C84 N80 1.332 . S
C84 C83 1.382 . S
C84 H86 0.952 . S
C85 N80 1.332 . S
C85 C81 1.382 . S
C85 H87 0.948 . S
H86 C84 0.952 . S
H87 C85 0.948 . S
H88 C77 0.952 . S
H89 C79 0.948 . S
C90 C56 1.395 . S
C90 C60 1.391 . S
C91 C53 1.389 . S
C91 C73 1.392 . S
C92 C63 1.392 . S
C92 C65 1.389 . S
C93 C68 1.395 . S
C93 C70 1.391 . S
H94 C54 0.951 1_455 S
H95 C55 0.950 1_455 S
H96 C61 0.949 . S
H97 C62 0.950 . S
H98 C66 0.951 . S
H99 C67 0.950 . S
H100 C71 0.949 . S
H101 C72 0.950 . S
H102 C76 0.950 . S
H103 C78 0.950 . S
H104 C81 0.950 . S
H105 C83 0.950 1_455 S
C106 C107 1.443 1_556 S
C106 N110 1.376 . S
C106 C144 1.389 . S
C107 C106 1.443 1_554 S
C107 C108 1.340 . S
C107 H147 0.951 . S
C108 C107 1.340 . S
C108 C109 1.439 1_554 S
C108 H148 0.950 . S
C109 C108 1.439 1_556 S
C109 N110 1.374 . S
C109 C143 1.395 . S
N110 C106 1.376 . S
N110 C109 1.374 . S
N110 Co111 2.008 . S
Co111 N110 2.008 . S
Co111 N112 1.995 . S
Co111 N117 2.008 . S
Co111 N122 1.995 . S
Co111 N127 2.282 . S
Co111 N133 2.282 . S
N112 Co111 1.995 . S
N112 C113 1.376 . S
N112 C116 1.383 . S
C113 N112 1.376 . S
C113 C114 1.446 . S
C113 C143 1.391 . S
C114 C113 1.446 . S
C114 C115 1.339 . S
C114 H149 0.949 . S
C115 C114 1.339 . S
C115 C116 1.439 . S
C115 H150 0.950 . S
C116 N112 1.383 . S
C116 C115 1.439 . S
C116 C145 1.392 . S
N117 Co111 2.008 . S
N117 C118 1.376 . S
N117 C121 1.374 . S
C118 N117 1.376 . S
C118 C119 1.443 . S
C118 C145 1.389 . S
C119 C118 1.443 . S
C119 C120 1.340 . S
C119 H151 0.951 . S
C120 C119 1.340 . S
C120 C121 1.439 . S
C120 H152 0.950 . S
C121 N117 1.374 . S
C121 C120 1.439 . S
C121 C146 1.395 . S
N122 Co111 1.995 . S
N122 C123 1.376 . S
N122 C126 1.383 . S
C123 N122 1.376 . S
C123 C124 1.446 . S
C123 C146 1.391 . S
C124 C123 1.446 . S
C124 C125 1.339 . S
C124 H153 0.949 . S
C125 C124 1.339 . S
C125 C126 1.439 . S
C125 H154 0.950 1_565 S
C126 N122 1.383 . S
C126 C125 1.439 . S
C126 C144 1.392 . S
N127 Co111 2.282 . S
N127 C130 1.332 . S
N127 C132 1.332 . S
C128 C129 1.386 . S
C128 C131 1.388 . S
C129 C128 1.386 . S
C129 C130 1.382 . S
C129 H155 0.950 . S
C130 N127 1.332 . S
C130 C129 1.382 . S
C130 H141 0.952 . S
C131 C128 1.388 . S
C131 C132 1.382 . S
C131 H156 0.950 . S
C132 N127 1.332 . S
C132 C131 1.382 . S
C132 H142 0.948 . S
N133 Co111 2.282 . S
N133 C137 1.332 . S
N133 C138 1.332 . S
C134 C135 1.388 . S
C134 C138 1.382 . S
C134 H157 0.950 . S
C135 C134 1.388 . S
C135 C136 1.386 . S
C136 C135 1.386 . S
C136 C137 1.382 . S
C136 H158 0.950 . S
C137 N133 1.332 . S
C137 C136 1.382 . S
C137 H139 0.952 . S
C138 N133 1.332 . S
C138 C134 1.382 . S
C138 H140 0.948 . S
H139 C137 0.952 . S
H140 C138 0.948 . S
H141 C130 0.952 . S
H142 C132 0.948 . S
C143 C109 1.395 . S
C143 C113 1.391 . S
C144 C106 1.389 . S
C144 C126 1.392 . S
C145 C116 1.392 . S
C145 C118 1.389 . S
C146 C121 1.395 . S
C146 C123 1.391 . S
H147 C107 0.951 . S
H148 C108 0.950 . S
H149 C114 0.949 . S
H150 C115 0.950 . S
H151 C119 0.951 . S
H152 C120 0.950 . S
H153 C124 0.949 . S
H154 C125 0.950 1_545 S
H155 C129 0.950 . S
H156 C131 0.950 . S
H157 C134 0.950 . S
H158 C136 0.950 . S
C159 C160 1.443 . S
C159 N163 1.376 . S
C159 C197 1.389 . S
C160 C159 1.443 . S
C160 C161 1.340 . S
C160 H200 0.951 . S
C161 C160 1.340 . S
C161 C162 1.439 . S
C161 H201 0.950 . S
C162 C161 1.439 . S
C162 N163 1.374 . S
C162 C196 1.395 . S
N163 C159 1.376 . S
N163 C162 1.374 . S
N163 Co164 2.008 . S
Co164 N163 2.008 . S
Co164 N165 1.995 . S
Co164 N170 2.008 . S
Co164 N175 1.995 . S
Co164 N180 2.282 . S
Co164 N186 2.282 . S
N165 Co164 1.995 . S
N165 C166 1.376 . S
N165 C169 1.383 . S
C166 N165 1.376 . S
C166 C167 1.446 . S
C166 C196 1.391 . S
C167 C166 1.446 . S
C167 C168 1.339 . S
C167 H202 0.949 . S
C168 C167 1.339 . S
C168 C169 1.439 . S
C168 H203 0.950 . S
C169 N165 1.383 . S
C169 C168 1.439 . S
C169 C198 1.392 . S
N170 Co164 2.008 . S
N170 C171 1.376 . S
N170 C174 1.374 . S
C171 N170 1.376 . S
C171 C172 1.443 . S
C171 C198 1.389 . S
C172 C171 1.443 . S
C172 C173 1.340 . S
C172 H204 0.951 . S
C173 C172 1.340 . S
C173 C174 1.439 . S
C173 H205 0.950 . S
C174 N170 1.374 . S
C174 C173 1.439 . S
C174 C199 1.395 . S
N175 Co164 1.995 . S
N175 C176 1.376 . S
N175 C179 1.383 . S
C176 N175 1.376 . S
C176 C177 1.446 . S
C176 C199 1.391 . S
C177 C176 1.446 . S
C177 C178 1.339 . S
C177 H206 0.949 . S
C178 C177 1.339 . S
C178 C179 1.439 . S
C178 H207 0.950 . S
C179 N175 1.383 . S
C179 C178 1.439 . S
C179 C197 1.392 . S
N180 Co164 2.282 . S
N180 C183 1.332 . S
N180 C185 1.332 . S
C181 C182 1.386 . S
C181 C184 1.388 . S
C182 C181 1.386 . S
C182 C183 1.382 . S
C182 H208 0.950 . S
C183 N180 1.332 . S
C183 C182 1.382 . S
C183 H194 0.952 . S
C184 C181 1.388 . S
C184 C185 1.382 . S
C184 H209 0.950 . S
C185 N180 1.332 . S
C185 C184 1.382 . S
C185 H195 0.948 . S
N186 Co164 2.282 . S
N186 C190 1.332 . S
N186 C191 1.332 . S
C187 C188 1.388 . S
C187 C191 1.382 . S
C187 H210 0.950 . S
C188 C187 1.388 . S
C188 C189 1.386 . S
C189 C188 1.386 . S
C189 C190 1.382 . S
C189 H211 0.950 . S
C190 N186 1.332 . S
C190 C189 1.382 . S
C190 H192 0.952 . S
C191 N186 1.332 . S
C191 C187 1.382 . S
C191 H193 0.948 . S
H192 C190 0.952 . S
H193 C191 0.948 . S
H194 C183 0.952 . S
H195 C185 0.948 . S
C196 C162 1.395 . S
C196 C166 1.391 . S
C197 C159 1.389 . S
C197 C179 1.392 . S
C198 C169 1.392 . S
C198 C171 1.389 . S
C199 C174 1.395 . S
C199 C176 1.391 . S
H200 C160 0.951 . S
H201 C161 0.950 . S
H202 C167 0.949 . S
H203 C168 0.950 . S
H204 C172 0.951 . S
H205 C173 0.950 . S
H206 C177 0.949 . S
H207 C178 0.950 . S
H208 C182 0.950 . S
H209 C184 0.950 . S
H210 C187 0.950 . S
H211 C189 0.950 . S
C212 C213 1.443 . S
C212 N216 1.376 . S
C212 C250 1.389 . S
C213 C212 1.443 . S
C213 C214 1.340 . S
C213 H253 0.951 1_455 S
C214 C213 1.340 . S
C214 C215 1.439 . S
C214 H254 0.950 1_455 S
C215 C214 1.439 . S
C215 N216 1.374 . S
C215 C249 1.395 . S
N216 C212 1.376 . S
N216 C215 1.374 . S
N216 Co217 2.008 . S
Co217 N216 2.008 . S
Co217 N218 1.995 . S
Co217 N223 2.008 . S
Co217 N228 1.995 . S
Co217 N233 2.282 . S
Co217 N239 2.282 . S
N218 Co217 1.995 . S
N218 C219 1.376 . S
N218 C222 1.383 . S
C219 N218 1.376 . S
C219 C220 1.446 . S
C219 C249 1.391 . S
C220 C219 1.446 . S
C220 C221 1.339 . S
C220 H255 0.949 . S
C221 C220 1.339 . S
C221 C222 1.439 . S
C221 H256 0.950 . S
C222 N218 1.383 . S
C222 C221 1.439 . S
C222 C251 1.392 . S
N223 Co217 2.008 . S
N223 C224 1.376 . S
N223 C227 1.374 . S
C224 N223 1.376 . S
C224 C225 1.443 . S
C224 C251 1.389 . S
C225 C224 1.443 . S
C225 C226 1.340 . S
C225 H257 0.951 . S
C226 C225 1.340 . S
C226 C227 1.439 . S
C226 H258 0.950 . S
C227 N223 1.374 . S
C227 C226 1.439 . S
C227 C252 1.395 . S
N228 Co217 1.995 . S
N228 C229 1.376 . S
N228 C232 1.383 . S
C229 N228 1.376 . S
C229 C230 1.446 . S
C229 C252 1.391 . S
C230 C229 1.446 . S
C230 C231 1.339 . S
C230 H259 0.949 . S
C231 C230 1.339 . S
C231 C232 1.439 . S
C231 H260 0.950 . S
C232 N228 1.383 . S
C232 C231 1.439 . S
C232 C250 1.392 . S
N233 Co217 2.282 . S
N233 C236 1.332 . S
N233 C238 1.332 . S
C234 C235 1.386 . S
C234 C237 1.388 . S
C235 C234 1.386 . S
C235 C236 1.382 . S
C235 H261 0.950 . S
C236 N233 1.332 . S
C236 C235 1.382 . S
C236 H247 0.952 . S
C237 C234 1.388 . S
C237 C238 1.382 . S
C237 H262 0.950 . S
C238 N233 1.332 . S
C238 C237 1.382 . S
C238 H248 0.948 . S
N239 Co217 2.282 . S
N239 C243 1.332 . S
N239 C244 1.332 . S
C240 C241 1.388 . S
C240 C244 1.382 . S
C240 H263 0.950 . S
C241 C240 1.388 . S
C241 C242 1.386 . S
C242 C241 1.386 . S
C242 C243 1.382 . S
C242 H264 0.950 1_455 S
C243 N239 1.332 . S
C243 C242 1.382 . S
C243 H245 0.952 . S
C244 N239 1.332 . S
C244 C240 1.382 . S
C244 H246 0.948 . S
H245 C243 0.952 . S
H246 C244 0.948 . S
H247 C236 0.952 . S
H248 C238 0.948 . S
C249 C215 1.395 . S
C249 C219 1.391 . S
C250 C212 1.389 . S
C250 C232 1.392 . S
C251 C222 1.392 . S
C251 C224 1.389 . S
C252 C227 1.395 . S
C252 C229 1.391 . S
H253 C213 0.951 1_655 S
H254 C214 0.950 1_655 S
H255 C220 0.949 . S
H256 C221 0.950 . S
H257 C225 0.951 . S
H258 C226 0.950 . S
H259 C230 0.949 . S
H260 C231 0.950 . S
H261 C235 0.950 . S
H262 C237 0.950 . S
H263 C240 0.950 . S
H264 C242 0.950 1_655 S
C265 C266 1.443 1_556 S
C265 N269 1.376 . S
C265 C303 1.389 . S
C266 C265 1.443 1_554 S
C266 C267 1.340 . S
C266 H306 0.951 . S
C267 C266 1.340 . S
C267 C268 1.439 1_554 S
C267 H307 0.950 . S
C268 C267 1.439 1_556 S
C268 N269 1.374 . S
C268 C302 1.395 . S
N269 C265 1.376 . S
N269 C268 1.374 . S
N269 Co270 2.008 . S
Co270 N269 2.008 . S
Co270 N271 1.995 . S
Co270 N276 2.008 . S
Co270 N281 1.995 . S
Co270 N286 2.282 . S
Co270 N292 2.282 . S
N271 Co270 1.995 . S
N271 C272 1.376 . S
N271 C275 1.383 . S
C272 N271 1.376 . S
C272 C273 1.446 . S
C272 C302 1.391 . S
C273 C272 1.446 . S
C273 C274 1.339 . S
C273 H308 0.949 . S
C274 C273 1.339 . S
C274 C275 1.439 . S
C274 H309 0.950 . S
C275 N271 1.383 . S
C275 C274 1.439 . S
C275 C304 1.392 . S
N276 Co270 2.008 . S
N276 C277 1.376 . S
N276 C280 1.374 . S
C277 N276 1.376 . S
C277 C278 1.443 . S
C277 C304 1.389 . S
C278 C277 1.443 . S
C278 C279 1.340 . S
C278 H310 0.951 . S
C279 C278 1.340 . S
C279 C280 1.439 . S
C279 H311 0.950 . S
C280 N276 1.374 . S
C280 C279 1.439 . S
C280 C305 1.395 . S
N281 Co270 1.995 . S
N281 C282 1.376 . S
N281 C285 1.383 . S
C282 N281 1.376 . S
C282 C283 1.446 . S
C282 C305 1.391 . S
C283 C282 1.446 . S
C283 C284 1.339 . S
C283 H312 0.949 . S
C284 C283 1.339 . S
C284 C285 1.439 . S
C284 H313 0.950 1_545 S
C285 N281 1.383 . S
C285 C284 1.439 . S
C285 C303 1.392 . S
N286 Co270 2.282 . S
N286 C289 1.332 . S
N286 C291 1.332 . S
C287 C288 1.386 . S
C287 C290 1.388 . S
C288 C287 1.386 . S
C288 C289 1.382 . S
C288 H314 0.950 . S
C289 N286 1.332 . S
C289 C288 1.382 . S
C289 H300 0.952 . S
C290 C287 1.388 . S
C290 C291 1.382 . S
C290 H315 0.950 . S
C291 N286 1.332 . S
C291 C290 1.382 . S
C291 H301 0.948 . S
N292 Co270 2.282 . S
N292 C296 1.332 . S
N292 C297 1.332 . S
C293 C294 1.388 . S
C293 C297 1.382 . S
C293 H316 0.950 . S
C294 C293 1.388 . S
C294 C295 1.386 . S
C295 C294 1.386 . S
C295 C296 1.382 . S
C295 H317 0.950 . S
C296 N292 1.332 . S
C296 C295 1.382 . S
C296 H298 0.952 . S
C297 N292 1.332 . S
C297 C293 1.382 . S
C297 H299 0.948 . S
H298 C296 0.952 . S
H299 C297 0.948 . S
H300 C289 0.952 . S
H301 C291 0.948 . S
C302 C268 1.395 . S
C302 C272 1.391 . S
C303 C265 1.389 . S
C303 C285 1.392 . S
C304 C275 1.392 . S
C304 C277 1.389 . S
C305 C280 1.395 . S
C305 C282 1.391 . S
H306 C266 0.951 . S
H307 C267 0.950 . S
H308 C273 0.949 . S
H309 C274 0.950 . S
H310 C278 0.951 . S
H311 C279 0.950 . S
H312 C283 0.949 . S
H313 C284 0.950 1_565 S
H314 C288 0.950 . S
H315 C290 0.950 . S
H316 C293 0.950 . S
H317 C295 0.950 . S
C318 C319 1.443 . S
C318 N322 1.376 . S
C318 C356 1.389 . S
C319 C318 1.443 . S
C319 C320 1.340 . S
C319 H359 0.951 . S
C320 C319 1.340 . S
C320 C321 1.439 . S
C320 H360 0.950 . S
C321 C320 1.439 . S
C321 N322 1.374 . S
C321 C355 1.395 . S
N322 C318 1.376 . S
N322 C321 1.374 . S
N322 Co323 2.008 . S
Co323 N322 2.008 . S
Co323 N324 1.995 . S
Co323 N329 2.008 . S
Co323 N334 1.995 . S
Co323 N339 2.282 . S
Co323 N345 2.282 . S
N324 Co323 1.995 . S
N324 C325 1.376 . S
N324 C328 1.383 . S
C325 N324 1.376 . S
C325 C326 1.446 . S
C325 C355 1.391 . S
C326 C325 1.446 . S
C326 C327 1.339 . S
C326 H361 0.949 . S
C327 C326 1.339 . S
C327 C328 1.439 . S
C327 H362 0.950 . S
C328 N324 1.383 . S
C328 C327 1.439 . S
C328 C357 1.392 . S
N329 Co323 2.008 . S
N329 C330 1.376 . S
N329 C333 1.374 . S
C330 N329 1.376 . S
C330 C331 1.443 . S
C330 C357 1.389 . S
C331 C330 1.443 . S
C331 C332 1.340 . S
C331 H363 0.951 . S
C332 C331 1.340 . S
C332 C333 1.439 . S
C332 H364 0.950 . S
C333 N329 1.374 . S
C333 C332 1.439 . S
C333 C358 1.395 . S
N334 Co323 1.995 . S
N334 C335 1.376 . S
N334 C338 1.383 . S
C335 N334 1.376 . S
C335 C336 1.446 . S
C335 C358 1.391 . S
C336 C335 1.446 . S
C336 C337 1.339 . S
C336 H365 0.949 . S
C337 C336 1.339 . S
C337 C338 1.439 . S
C337 H366 0.950 . S
C338 N334 1.383 . S
C338 C337 1.439 . S
C338 C356 1.392 . S
N339 Co323 2.282 . S
N339 C342 1.332 . S
N339 C344 1.332 . S
C340 C341 1.386 . S
C340 C343 1.388 . S
C341 C340 1.386 . S
C341 C342 1.382 . S
C341 H367 0.950 . S
C342 N339 1.332 . S
C342 C341 1.382 . S
C342 H353 0.952 . S
C343 C340 1.388 . S
C343 C344 1.382 . S
C343 H368 0.950 . S
C344 N339 1.332 . S
C344 C343 1.382 . S
C344 H354 0.948 . S
N345 Co323 2.282 . S
N345 C349 1.332 . S
N345 C350 1.332 . S
C346 C347 1.388 . S
C346 C350 1.382 . S
C346 H369 0.950 . S
C347 C346 1.388 . S
C347 C348 1.386 . S
C348 C347 1.386 . S
C348 C349 1.382 . S
C348 H370 0.950 . S
C349 N345 1.332 . S
C349 C348 1.382 . S
C349 H351 0.952 . S
C350 N345 1.332 . S
C350 C346 1.382 . S
C350 H352 0.948 . S
H351 C349 0.952 . S
H352 C350 0.948 . S
H353 C342 0.952 . S
H354 C344 0.948 . S
C355 C321 1.395 . S
C355 C325 1.391 . S
C356 C318 1.389 . S
C356 C338 1.392 . S
C357 C328 1.392 . S
C357 C330 1.389 . S
C358 C333 1.395 . S
C358 C335 1.391 . S
H359 C319 0.951 . S
H360 C320 0.950 . S
H361 C326 0.949 . S
H362 C327 0.950 . S
H363 C331 0.951 . S
H364 C332 0.950 . S
H365 C336 0.949 . S
H366 C337 0.950 . S
H367 C341 0.950 . S
H368 C343 0.950 . S
H369 C346 0.950 . S
H370 C348 0.950 . S
C371 C372 1.443 . S
C371 N375 1.376 . S
C371 C409 1.389 . S
C372 C371 1.443 . S
C372 C373 1.340 . S
C372 H412 0.951 . S
C373 C372 1.340 . S
C373 C374 1.439 . S
C373 H413 0.950 1_655 S
C374 C373 1.439 . S
C374 N375 1.374 . S
C374 C408 1.395 . S
N375 C371 1.376 . S
N375 C374 1.374 . S
N375 Co376 2.008 . S
Co376 N375 2.008 . S
Co376 N377 1.995 . S
Co376 N382 2.008 . S
Co376 N387 1.995 . S
Co376 N392 2.282 . S
Co376 N398 2.282 . S
N377 Co376 1.995 . S
N377 C378 1.376 . S
N377 C381 1.383 . S
C378 N377 1.376 . S
C378 C379 1.446 . S
C378 C408 1.391 . S
C379 C378 1.446 . S
C379 C380 1.339 . S
C379 H414 0.949 . S
C380 C379 1.339 . S
C380 C381 1.439 . S
C380 H415 0.950 . S
C381 N377 1.383 . S
C381 C380 1.439 . S
C381 C410 1.392 . S
N382 Co376 2.008 . S
N382 C383 1.376 . S
N382 C386 1.374 . S
C383 N382 1.376 . S
C383 C384 1.443 . S
C383 C410 1.389 . S
C384 C383 1.443 . S
C384 C385 1.340 . S
C384 H416 0.951 . S
C385 C384 1.340 . S
C385 C386 1.439 . S
C385 H417 0.950 . S
C386 N382 1.374 . S
C386 C385 1.439 . S
C386 C411 1.395 . S
N387 Co376 1.995 . S
N387 C388 1.376 . S
N387 C391 1.383 . S
C388 N387 1.376 . S
C388 C389 1.446 . S
C388 C411 1.391 . S
C389 C388 1.446 . S
C389 C390 1.339 . S
C389 H418 0.949 . S
C390 C389 1.339 . S
C390 C391 1.439 . S
C390 H419 0.950 . S
C391 N387 1.383 . S
C391 C390 1.439 . S
C391 C409 1.392 . S
N392 Co376 2.282 . S
N392 C395 1.332 . S
N392 C397 1.332 . S
C393 C394 1.386 . S
C393 C396 1.388 . S
C394 C393 1.386 . S
C394 C395 1.382 . S
C394 H420 0.950 . S
C395 N392 1.332 . S
C395 C394 1.382 . S
C395 H406 0.952 . S
C396 C393 1.388 . S
C396 C397 1.382 . S
C396 H421 0.950 . S
C397 N392 1.332 . S
C397 C396 1.382 . S
C397 H407 0.948 . S
N398 Co376 2.282 . S
N398 C402 1.332 . S
N398 C403 1.332 . S
C399 C400 1.388 . S
C399 C403 1.382 . S
C399 H422 0.950 . S
C400 C399 1.388 . S
C400 C401 1.386 . S
C401 C400 1.386 . S
C401 C402 1.382 . S
C401 H423 0.950 1_655 S
C402 N398 1.332 . S
C402 C401 1.382 . S
C402 H404 0.952 . S
C403 N398 1.332 . S
C403 C399 1.382 . S
C403 H405 0.948 . S
H404 C402 0.952 . S
H405 C403 0.948 . S
H406 C395 0.952 . S
H407 C397 0.948 . S
C408 C374 1.395 . S
C408 C378 1.391 . S
C409 C371 1.389 . S
C409 C391 1.392 . S
C410 C381 1.392 . S
C410 C383 1.389 . S
C411 C386 1.395 . S
C411 C388 1.391 . S
H412 C372 0.951 . S
H413 C373 0.950 1_455 S
H414 C379 0.949 . S
H415 C380 0.950 . S
H416 C384 0.951 . S
H417 C385 0.950 . S
H418 C389 0.949 . S
H419 C390 0.950 . S
H420 C394 0.950 . S
H421 C396 0.950 . S
H422 C399 0.950 . S
H423 C401 0.950 1_455 S
C424 C425 1.443 . S
C424 N428 1.376 . S
C424 C462 1.389 . S
C425 C424 1.443 . S
C425 C426 1.334 1_554 S
C425 H465 0.951 1_554 S
C426 C425 1.334 1_556 S
C426 C427 1.411 1_556 S
C426 H466 0.979 . S
C427 C426 1.411 1_554 S
C427 N428 1.374 . S
C427 C461 1.395 . S
N428 C424 1.376 . S
N428 C427 1.374 . S
N428 Co429 2.008 . S
Co429 N428 2.008 . S
Co429 N430 1.995 . S
Co429 N435 2.008 . S
Co429 N440 1.995 . S
Co429 N445 2.282 . S
Co429 N451 2.282 . S
N430 Co429 1.995 . S
N430 C431 1.376 . S
N430 C434 1.383 . S
C431 N430 1.376 . S
C431 C432 1.446 . S
C431 C461 1.391 . S
C432 C431 1.446 . S
C432 C433 1.339 . S
C432 H467 0.949 . S
C433 C432 1.339 . S
C433 C434 1.439 . S
C433 H468 0.950 . S
C434 N430 1.383 . S
C434 C433 1.439 . S
C434 C463 1.392 . S
N435 Co429 2.008 . S
N435 C436 1.376 . S
N435 C439 1.374 . S
C436 N435 1.376 . S
C436 C437 1.443 . S
C436 C463 1.389 . S
C437 C436 1.443 . S
C437 C438 1.340 . S
C437 H469 0.951 . S
C438 C437 1.340 . S
C438 C439 1.439 . S
C438 H470 0.950 . S
C439 N435 1.374 . S
C439 C438 1.439 . S
C439 C464 1.395 . S
N440 Co429 1.995 . S
N440 C441 1.376 . S
N440 C444 1.383 . S
C441 N440 1.376 . S
C441 C442 1.446 . S
C441 C464 1.391 . S
C442 C441 1.446 . S
C442 C443 1.339 . S
C442 H471 0.949 . S
C443 C442 1.339 . S
C443 C444 1.439 . S
C443 H472 0.950 1_565 S
C444 N440 1.383 . S
C444 C443 1.439 . S
C444 C462 1.392 . S
N445 Co429 2.282 . S
N445 C448 1.332 . S
N445 C450 1.332 . S
C446 C447 1.386 . S
C446 C449 1.388 . S
C447 C446 1.386 . S
C447 C448 1.382 . S
C447 H473 0.950 . S
C448 N445 1.332 . S
C448 C447 1.382 . S
C448 H459 0.952 . S
C449 C446 1.388 . S
C449 C450 1.382 . S
C449 H474 0.950 . S
C450 N445 1.332 . S
C450 C449 1.382 . S
C450 H460 0.948 . S
N451 Co429 2.282 . S
N451 C455 1.332 . S
N451 C456 1.332 . S
C452 C453 1.388 . S
C452 C456 1.382 . S
C452 H475 0.950 . S
C453 C452 1.388 . S
C453 C454 1.386 . S
C454 C453 1.386 . S
C454 C455 1.382 . S
C454 H476 0.950 . S
C455 N451 1.332 . S
C455 C454 1.382 . S
C455 H457 0.952 . S
C456 N451 1.332 . S
C456 C452 1.382 . S
C456 H458 0.948 . S
H457 C455 0.952 . S
H458 C456 0.948 . S
H459 C448 0.952 . S
H460 C450 0.948 . S
C461 C427 1.395 . S
C461 C431 1.391 . S
C462 C424 1.389 . S
C462 C444 1.392 . S
C463 C434 1.392 . S
C463 C436 1.389 . S
C464 C439 1.395 . S
C464 C441 1.391 . S
H465 C425 0.951 1_556 S
H466 C426 0.979 . S
H467 C432 0.949 . S
H468 C433 0.950 . S
H469 C437 0.951 . S
H470 C438 0.950 . S
H471 C442 0.949 . S
H472 C443 0.950 1_545 S
H473 C447 0.950 . S
H474 C449 0.950 . S
H475 C452 0.950 . S
H476 C454 0.950 . S
C477 C478 1.443 . S
C477 N481 1.376 . S
C477 C515 1.389 . S
C478 C477 1.443 . S
C478 C479 1.340 . S
C478 H518 0.951 . S
C479 C478 1.340 . S
C479 C480 1.439 . S
C479 H519 0.950 . S
C480 C479 1.439 . S
C480 N481 1.374 . S
C480 C514 1.395 . S
N481 C477 1.376 . S
N481 C480 1.374 . S
N481 Co482 2.008 . S
Co482 N481 2.008 . S
Co482 N483 1.995 . S
Co482 N488 2.008 . S
Co482 N493 1.995 . S
Co482 N498 2.282 . S
Co482 N504 2.282 . S
N483 Co482 1.995 . S
N483 C484 1.376 . S
N483 C487 1.383 . S
C484 N483 1.376 . S
C484 C485 1.446 . S
C484 C514 1.391 . S
C485 C484 1.446 . S
C485 C486 1.339 . S
C485 H520 0.949 . S
C486 C485 1.339 . S
C486 C487 1.439 . S
C486 H521 0.950 . S
C487 N483 1.383 . S
C487 C486 1.439 . S
C487 C516 1.392 . S
N488 Co482 2.008 . S
N488 C489 1.376 . S
N488 C492 1.374 . S
C489 N488 1.376 . S
C489 C490 1.443 . S
C489 C516 1.389 . S
C490 C489 1.443 . S
C490 C491 1.340 . S
C490 H522 0.951 . S
C491 C490 1.340 . S
C491 C492 1.439 . S
C491 H523 0.950 . S
C492 N488 1.374 . S
C492 C491 1.439 . S
C492 C517 1.395 . S
N493 Co482 1.995 . S
N493 C494 1.376 . S
N493 C497 1.383 . S
C494 N493 1.376 . S
C494 C495 1.446 . S
C494 C517 1.391 . S
C495 C494 1.446 . S
C495 C496 1.339 . S
C495 H524 0.949 . S
C496 C495 1.339 . S
C496 C497 1.439 . S
C496 H525 0.950 . S
C497 N493 1.383 . S
C497 C496 1.439 . S
C497 C515 1.392 . S
N498 Co482 2.282 . S
N498 C501 1.332 . S
N498 C503 1.332 . S
C499 C500 1.386 . S
C499 C502 1.388 . S
C500 C499 1.386 . S
C500 C501 1.382 . S
C500 H526 0.950 . S
C501 N498 1.332 . S
C501 C500 1.382 . S
C501 H512 0.952 . S
C502 C499 1.388 . S
C502 C503 1.382 . S
C502 H527 0.950 . S
C503 N498 1.332 . S
C503 C502 1.382 . S
C503 H513 0.948 . S
N504 Co482 2.282 . S
N504 C508 1.332 . S
N504 C509 1.332 . S
C505 C506 1.388 . S
C505 C509 1.382 . S
C505 H528 0.950 . S
C506 C505 1.388 . S
C506 C507 1.386 . S
C507 C506 1.386 . S
C507 C508 1.382 . S
C507 H529 0.950 . S
C508 N504 1.332 . S
C508 C507 1.382 . S
C508 H510 0.952 . S
C509 N504 1.332 . S
C509 C505 1.382 . S
C509 H511 0.948 . S
H510 C508 0.952 . S
H511 C509 0.948 . S
H512 C501 0.952 . S
H513 C503 0.948 . S
C514 C480 1.395 . S
C514 C484 1.391 . S
C515 C477 1.389 . S
C515 C497 1.392 . S
C516 C487 1.392 . S
C516 C489 1.389 . S
C517 C492 1.395 . S
C517 C494 1.391 . S
H518 C478 0.951 . S
H519 C479 0.950 . S
H520 C485 0.949 . S
H521 C486 0.950 . S
H522 C490 0.951 . S
H523 C491 0.950 . S
H524 C495 0.949 . S
H525 C496 0.950 . S
H526 C500 0.950 . S
H527 C502 0.950 . S
H528 C505 0.950 . S
H529 C507 0.950 . S
C530 C531 1.443 . S
C530 N534 1.376 . S
C530 C568 1.389 . S
C531 C530 1.443 . S
C531 C532 1.340 . S
C531 H571 0.951 . S
C532 C531 1.340 . S
C532 C533 1.439 . S
C532 H572 0.950 1_455 S
C533 C532 1.439 . S
C533 N534 1.374 . S
C533 C567 1.395 . S
N534 C530 1.376 . S
N534 C533 1.374 . S
N534 Co535 2.008 . S
Co535 N534 2.008 . S
Co535 N536 1.995 . S
Co535 N541 2.008 . S
Co535 N546 1.995 . S
Co535 N551 2.282 . S
Co535 N557 2.282 . S
N536 Co535 1.995 . S
N536 C537 1.376 . S
N536 C540 1.383 . S
C537 N536 1.376 . S
C537 C538 1.446 . S
C537 C567 1.391 . S
C538 C537 1.446 . S
C538 C539 1.339 . S
C538 H573 0.949 . S
C539 C538 1.339 . S
C539 C540 1.439 . S
C539 H574 0.950 . S
C540 N536 1.383 . S
C540 C539 1.439 . S
C540 C569 1.392 . S
N541 Co535 2.008 . S
N541 C542 1.376 . S
N541 C545 1.374 . S
C542 N541 1.376 . S
C542 C543 1.443 . S
C542 C569 1.389 . S
C543 C542 1.443 . S
C543 C544 1.340 . S
C543 H575 0.951 . S
C544 C543 1.340 . S
C544 C545 1.439 . S
C544 H576 0.950 . S
C545 N541 1.374 . S
C545 C544 1.439 . S
C545 C570 1.395 . S
N546 Co535 1.995 . S
N546 C547 1.376 . S
N546 C550 1.383 . S
C547 N546 1.376 . S
C547 C548 1.446 . S
C547 C570 1.391 . S
C548 C547 1.446 . S
C548 C549 1.339 . S
C548 H577 0.949 . S
C549 C548 1.339 . S
C549 C550 1.439 . S
C549 H578 0.950 . S
C550 N546 1.383 . S
C550 C549 1.439 . S
C550 C568 1.392 . S
N551 Co535 2.282 . S
N551 C554 1.332 . S
N551 C556 1.332 . S
C552 C553 1.386 . S
C552 C555 1.388 . S
C553 C552 1.386 . S
C553 C554 1.382 . S
C553 H579 0.950 . S
C554 N551 1.332 . S
C554 C553 1.382 . S
C554 H565 0.952 . S
C555 C552 1.388 . S
C555 C556 1.382 . S
C555 H580 0.950 . S
C556 N551 1.332 . S
C556 C555 1.382 . S
C556 H566 0.948 . S
N557 Co535 2.282 . S
N557 C561 1.332 . S
N557 C562 1.332 . S
C558 C559 1.388 . S
C558 C562 1.382 . S
C558 H581 0.950 . S
C559 C558 1.388 . S
C559 C560 1.386 . S
C560 C559 1.386 . S
C560 C561 1.382 . S
C560 H582 0.950 1_455 S
C561 N557 1.332 . S
C561 C560 1.382 . S
C561 H563 0.952 . S
C562 N557 1.332 . S
C562 C558 1.382 . S
C562 H564 0.948 . S
H563 C561 0.952 . S
H564 C562 0.948 . S
H565 C554 0.952 . S
H566 C556 0.948 . S
C567 C533 1.395 . S
C567 C537 1.391 . S
C568 C530 1.389 . S
C568 C550 1.392 . S
C569 C540 1.392 . S
C569 C542 1.389 . S
C570 C545 1.395 . S
C570 C547 1.391 . S
H571 C531 0.951 . S
H572 C532 0.950 1_655 S
H573 C538 0.949 . S
H574 C539 0.950 . S
H575 C543 0.951 . S
H576 C544 0.950 . S
H577 C548 0.949 . S
H578 C549 0.950 . S
H579 C553 0.950 . S
H580 C555 0.950 . S
H581 C558 0.950 . S
H582 C560 0.950 1_655 S
C583 C584 1.443 . S
C583 N587 1.376 . S
C583 C621 1.389 . S
C584 C583 1.443 . S
C584 C585 1.334 1_554 S
C584 H624 0.951 1_554 S
C585 C584 1.334 1_556 S
C585 C586 1.411 1_556 S
C585 H625 0.979 . S
C586 C585 1.411 1_554 S
C586 N587 1.374 . S
C586 C620 1.395 . S
N587 C583 1.376 . S
N587 C586 1.374 . S
N587 Co588 2.008 . S
Co588 N587 2.008 . S
Co588 N589 1.995 . S
Co588 N594 2.008 . S
Co588 N599 1.995 . S
Co588 N604 2.282 . S
Co588 N610 2.282 . S
N589 Co588 1.995 . S
N589 C590 1.376 . S
N589 C593 1.383 . S
C590 N589 1.376 . S
C590 C591 1.446 . S
C590 C620 1.391 . S
C591 C590 1.446 . S
C591 C592 1.339 . S
C591 H626 0.949 . S
C592 C591 1.339 . S
C592 C593 1.439 . S
C592 H627 0.950 . S
C593 N589 1.383 . S
C593 C592 1.439 . S
C593 C622 1.392 . S
N594 Co588 2.008 . S
N594 C595 1.376 . S
N594 C598 1.374 . S
C595 N594 1.376 . S
C595 C596 1.443 . S
C595 C622 1.389 . S
C596 C595 1.443 . S
C596 C597 1.340 . S
C596 H628 0.951 . S
C597 C596 1.340 . S
C597 C598 1.439 . S
C597 H629 0.950 . S
C598 N594 1.374 . S
C598 C597 1.439 . S
C598 C623 1.395 . S
N599 Co588 1.995 . S
N599 C600 1.376 . S
N599 C603 1.383 . S
C600 N599 1.376 . S
C600 C601 1.446 . S
C600 C623 1.391 . S
C601 C600 1.446 . S
C601 C602 1.339 . S
C601 H630 0.949 . S
C602 C601 1.339 . S
C602 C603 1.439 . S
C602 H631 0.950 1_545 S
C603 N599 1.383 . S
C603 C602 1.439 . S
C603 C621 1.392 . S
N604 Co588 2.282 . S
N604 C607 1.332 . S
N604 C609 1.332 . S
C605 C606 1.386 . S
C605 C608 1.388 . S
C606 C605 1.386 . S
C606 C607 1.382 . S
C606 H632 0.950 . S
C607 N604 1.332 . S
C607 C606 1.382 . S
C607 H618 0.952 . S
C608 C605 1.388 . S
C608 C609 1.382 . S
C608 H633 0.950 . S
C609 N604 1.332 . S
C609 C608 1.382 . S
C609 H619 0.948 . S
N610 Co588 2.282 . S
N610 C614 1.332 . S
N610 C615 1.332 . S
C611 C612 1.388 . S
C611 C615 1.382 . S
C611 H634 0.950 . S
C612 C611 1.388 . S
C612 C613 1.386 . S
C613 C612 1.386 . S
C613 C614 1.382 . S
C613 H635 0.950 . S
C614 N610 1.332 . S
C614 C613 1.382 . S
C614 H616 0.952 . S
C615 N610 1.332 . S
C615 C611 1.382 . S
C615 H617 0.948 . S
H616 C614 0.952 . S
H617 C615 0.948 . S
H618 C607 0.952 . S
H619 C609 0.948 . S
C620 C586 1.395 . S
C620 C590 1.391 . S
C621 C583 1.389 . S
C621 C603 1.392 . S
C622 C593 1.392 . S
C622 C595 1.389 . S
C623 C598 1.395 . S
C623 C600 1.391 . S
H624 C584 0.951 1_556 S
H625 C585 0.979 . S
H626 C591 0.949 . S
H627 C592 0.950 . S
H628 C596 0.951 . S
H629 C597 0.950 . S
H630 C601 0.949 . S
H631 C602 0.950 1_565 S
H632 C606 0.950 . S
H633 C608 0.950 . S
H634 C611 0.950 . S
H635 C613 0.950 . S
C636 C637 1.387 . S
C636 H640 0.950 . S
C636 C645 1.390 . S
C637 C636 1.387 . S
C637 C639 1.387 . S
H638 C645 0.950 . S
C639 C637 1.387 . S
C639 C641 1.390 . S
C639 H643 0.950 . S
H640 C636 0.950 . S
C641 C639 1.390 . S
C641 C642 1.387 . S
C641 H644 0.950 . S
C642 C641 1.387 . S
C642 C645 1.387 . S
H643 C639 0.950 . S
H644 C641 0.950 . S
C645 C636 1.390 . S
C645 H638 0.950 . S
C645 C642 1.387 . S
C646 C647 1.387 . S
C646 H650 0.950 . S
C646 C655 1.390 . S
C647 C646 1.387 . S
C647 C649 1.387 . S
H648 C655 0.950 . S
C649 C647 1.387 . S
C649 C651 1.390 . S
C649 H653 0.950 . S
H650 C646 0.950 . S
C651 C649 1.390 . S
C651 C652 1.387 . S
C651 H654 0.950 . S
C652 C651 1.387 . S
C652 C655 1.387 . S
H653 C649 0.950 . S
H654 C651 0.950 . S
C655 C646 1.390 . S
C655 H648 0.950 . S
C655 C652 1.387 . S
C656 C657 1.387 . S
C656 H660 0.950 . S
C656 C665 1.390 . S
C657 C656 1.387 . S
C657 C659 1.387 . S
H658 C665 0.950 . S
C659 C657 1.387 . S
C659 C661 1.390 . S
C659 H663 0.950 . S
H660 C656 0.950 . S
C661 C659 1.390 . S
C661 C662 1.387 . S
C661 H664 0.950 . S
C662 C661 1.387 . S
C662 C665 1.387 . S
H663 C659 0.950 . S
H664 C661 0.950 . S
C665 C656 1.390 . S
C665 H658 0.950 . S
C665 C662 1.387 . S
C666 C667 1.387 . S
C666 H670 0.950 . S
C666 C675 1.390 . S
C667 C666 1.387 . S
C667 C669 1.387 . S
H668 C675 0.950 . S
C669 C667 1.387 . S
C669 C671 1.390 . S
C669 H673 0.950 . S
H670 C666 0.950 . S
C671 C669 1.390 . S
C671 C672 1.387 . S
C671 H674 0.950 . S
C672 C671 1.387 . S
C672 C675 1.387 . S
H673 C669 0.950 . S
H674 C671 0.950 . S
C675 C666 1.390 . S
C675 H668 0.950 . S
C675 C672 1.387 . S
C676 C677 1.387 . S
C676 H680 0.950 . S
C676 C685 1.390 . S
C677 C676 1.387 . S
C677 C679 1.387 . S
H678 C685 0.950 . S
C679 C677 1.387 . S
C679 C681 1.390 . S
C679 H683 0.950 . S
H680 C676 0.950 . S
C681 C679 1.390 . S
C681 C682 1.387 . S
C681 H684 0.950 . S
C682 C681 1.387 . S
C682 C685 1.387 . S
H683 C679 0.950 . S
H684 C681 0.950 . S
C685 C676 1.390 . S
C685 H678 0.950 . S
C685 C682 1.387 . S
C686 C687 1.387 . S
C686 H690 0.950 . S
C686 C695 1.390 . S
C687 C686 1.387 . S
C687 C689 1.387 . S
H688 C695 0.950 . S
C689 C687 1.387 . S
C689 C691 1.390 . S
C689 H693 0.950 . S
H690 C686 0.950 . S
C691 C689 1.390 . S
C691 C692 1.387 . S
C691 H694 0.950 . S
C692 C691 1.387 . S
C692 C695 1.387 . S
H693 C689 0.950 . S
H694 C691 0.950 . S
C695 C686 1.390 . S
C695 H688 0.950 . S
C695 C692 1.387 . S
C696 C697 1.387 . S
C696 H700 0.950 . S
C696 C705 1.390 . S
C697 C696 1.387 . S
C697 C699 1.387 . S
H698 C705 0.950 . S
C699 C697 1.387 . S
C699 C701 1.390 . S
C699 H703 0.950 . S
H700 C696 0.950 . S
C701 C699 1.390 . S
C701 C702 1.387 . S
C701 H704 0.950 . S
C702 C701 1.387 . S
C702 C705 1.387 . S
H703 C699 0.950 . S
H704 C701 0.950 . S
C705 C696 1.390 . S
C705 H698 0.950 . S
C705 C702 1.387 . S
C706 C707 1.387 . S
C706 H710 0.950 . S
C706 C715 1.390 1_455 S
C707 C706 1.387 . S
C707 C709 1.387 . S
H708 C715 0.950 . S
C709 C707 1.387 . S
C709 C711 1.390 1_455 S
C709 H713 0.950 . S
H710 C706 0.950 . S
C711 C709 1.390 1_655 S
C711 C712 1.387 . S
C711 H714 0.950 . S
C712 C711 1.387 . S
C712 C715 1.387 . S
H713 C709 0.950 . S
H714 C711 0.950 . S
C715 C706 1.390 1_655 S
C715 H708 0.950 . S
C715 C712 1.387 . S
C716 C717 1.387 . S
C716 H720 0.950 . S
C716 C725 1.390 1_545 S
C717 C716 1.387 . S
C717 C719 1.387 . S
H718 C725 0.950 . S
C719 C717 1.387 . S
C719 C721 1.390 1_545 S
C719 H723 0.950 . S
H720 C716 0.950 . S
C721 C719 1.390 1_565 S
C721 C722 1.387 . S
C721 H724 0.950 . S
C722 C721 1.387 . S
C722 C725 1.387 . S
H723 C719 0.950 . S
H724 C721 0.950 . S
C725 C716 1.390 1_565 S
C725 H718 0.950 . S
C725 C722 1.387 . S
C726 C727 1.387 . S
C726 H730 0.950 . S
C726 C735 1.390 . S
C727 C726 1.387 . S
C727 C729 1.387 . S
H728 C735 0.950 . S
C729 C727 1.387 . S
C729 C731 1.390 . S
C729 H733 0.950 . S
H730 C726 0.950 . S
C731 C729 1.390 . S
C731 C732 1.387 . S
C731 H734 0.950 . S
C732 C731 1.387 . S
C732 C735 1.387 . S
H733 C729 0.950 . S
H734 C731 0.950 . S
C735 C726 1.390 . S
C735 H728 0.950 . S
C735 C732 1.387 . S
C736 C737 1.387 . S
C736 H740 0.950 . S
C736 C745 1.390 1_655 S
C737 C736 1.387 . S
C737 C739 1.387 . S
H738 C745 0.950 . S
C739 C737 1.387 . S
C739 C741 1.390 1_655 S
C739 H743 0.950 . S
H740 C736 0.950 . S
C741 C739 1.390 1_455 S
C741 C742 1.387 . S
C741 H744 0.950 . S
C742 C741 1.387 . S
C742 C745 1.387 . S
H743 C739 0.950 . S
H744 C741 0.950 . S
C745 C736 1.390 1_455 S
C745 H738 0.950 . S
C745 C742 1.387 . S
C746 C747 1.387 . S
C746 H750 0.950 . S
C746 C755 1.390 1_565 S
C747 C746 1.387 . S
C747 C749 1.387 . S
H748 C755 0.950 . S
C749 C747 1.387 . S
C749 C751 1.390 1_565 S
C749 H753 0.950 . S
H750 C746 0.950 . S
C751 C749 1.390 1_545 S
C751 C752 1.387 . S
C751 H754 0.950 . S
C752 C751 1.387 . S
C752 C755 1.387 . S
H753 C749 0.950 . S
H754 C751 0.950 . S
C755 C746 1.390 1_545 S
C755 H748 0.950 . S
C755 C752 1.387 . S
C756 C757 1.387 . S
C756 H760 0.950 . S
C756 C765 1.390 . S
C757 C756 1.387 . S
C757 C759 1.387 . S
H758 C765 0.950 . S
C759 C757 1.387 . S
C759 C761 1.390 . S
C759 H763 0.950 . S
H760 C756 0.950 . S
C761 C759 1.390 . S
C761 C762 1.387 . S
C761 H764 0.950 . S
C762 C761 1.387 . S
C762 C765 1.387 . S
H763 C759 0.950 . S
H764 C761 0.950 . S
C765 C756 1.390 . S
C765 H758 0.950 . S
C765 C762 1.387 . S
C766 C767 1.387 1_655 S
C766 H770 0.950 . S
C766 C775 1.390 . S
C767 C766 1.387 1_455 S
C767 C769 1.387 . S
H768 C775 0.950 . S
C769 C767 1.387 . S
C769 C771 1.390 . S
C769 H773 0.950 . S
H770 C766 0.950 . S
C771 C769 1.390 . S
C771 C772 1.387 . S
C771 H774 0.950 . S
C772 C771 1.387 . S
C772 C775 1.387 1_455 S
H773 C769 0.950 . S
H774 C771 0.950 . S
C775 C766 1.390 . S
C775 H768 0.950 . S
C775 C772 1.387 1_655 S
C776 C777 1.387 . S
C776 H780 0.950 . S
C776 C785 1.390 1_566 S
C777 C776 1.387 . S
C777 C779 1.387 . S
H778 C785 0.950 . S
C779 C777 1.387 . S
C779 C781 1.390 1_566 S
C779 H783 0.950 . S
H780 C776 0.950 . S
C781 C779 1.390 1_544 S
C781 C782 1.387 . S
C781 H784 0.950 . S
C782 C781 1.387 . S
C782 C785 1.387 . S
H783 C779 0.950 . S
H784 C781 0.950 . S
C785 C776 1.390 1_544 S
C785 H778 0.950 . S
C785 C782 1.387 . S
C786 C787 1.387 . S
C786 H790 0.950 . S
C786 C795 1.390 . S
C787 C786 1.387 . S
C787 C789 1.387 . S
H788 C795 0.950 . S
C789 C787 1.387 . S
C789 C791 1.390 . S
C789 H793 0.950 . S
H790 C786 0.950 . S
C791 C789 1.390 . S
C791 C792 1.387 . S
C791 H794 0.950 . S
C792 C791 1.387 . S
C792 C795 1.387 . S
H793 C789 0.950 . S
H794 C791 0.950 . S
C795 C786 1.390 . S
C795 H788 0.950 . S
C795 C792 1.387 . S
C796 C797 1.387 . S
C796 H800 0.950 . S
C796 C805 1.390 . S
C797 C796 1.387 . S
C797 C799 1.387 1_655 S
H798 C805 0.950 . S
C799 C797 1.387 1_455 S
C799 C801 1.390 . S
C799 H803 0.950 . S
H800 C796 0.950 . S
C801 C799 1.390 . S
C801 C802 1.387 1_455 S
C801 H804 0.950 . S
C802 C801 1.387 1_655 S
C802 C805 1.387 . S
H803 C799 0.950 . S
H804 C801 0.950 . S
C805 C796 1.390 . S
C805 H798 0.950 . S
C805 C802 1.387 . S
C806 C807 1.387 . S
C806 H810 0.950 . S
C806 C815 1.390 1_564 S
C807 C806 1.387 . S
C807 C809 1.387 . S
H808 C815 0.950 . S
C809 C807 1.387 . S
C809 C811 1.390 1_564 S
C809 H813 0.950 . S
H810 C806 0.950 . S
C811 C809 1.390 1_546 S
C811 C812 1.387 . S
C811 H814 0.950 . S
C812 C811 1.387 . S
C812 C815 1.387 . S
H813 C809 0.950 . S
H814 C811 0.950 . S
C815 C806 1.390 1_546 S
C815 H808 0.950 . S
C815 C812 1.387 . S
C816 C817 1.387 . S
C816 H820 0.950 . S
C816 C825 1.390 . S
C817 C816 1.387 . S
C817 C819 1.387 . S
H818 C825 0.950 . S
C819 C817 1.387 . S
C819 C821 1.390 . S
C819 H823 0.950 . S
H820 C816 0.950 . S
C821 C819 1.390 . S
C821 C822 1.387 . S
C821 H824 0.950 . S
C822 C821 1.387 . S
C822 C825 1.387 . S
H823 C819 0.950 . S
H824 C821 0.950 . S
C825 C816 1.390 . S
C825 H818 0.950 . S
C825 C822 1.387 . S
C826 C827 1.387 . S
C826 H830 0.950 . S
C826 C835 1.390 1_545 S
C827 C826 1.387 . S
C827 C829 1.387 . S
H828 C835 0.950 . S
C829 C827 1.387 . S
C829 C831 1.390 1_545 S
C829 H833 0.950 . S
H830 C826 0.950 . S
C831 C829 1.390 1_565 S
C831 C832 1.387 . S
C831 H834 0.950 . S
C832 C831 1.387 . S
C832 C835 1.387 . S
H833 C829 0.950 . S
H834 C831 0.950 . S
C835 C826 1.390 1_565 S
C835 H828 0.950 . S
C835 C832 1.387 . S
C836 C837 1.387 . S
C836 H840 0.950 . S
C836 C845 1.390 . S
C837 C836 1.387 . S
C837 C839 1.387 . S
H838 C845 0.950 . S
C839 C837 1.387 . S
C839 C841 1.390 . S
C839 H843 0.950 . S
H840 C836 0.950 . S
C841 C839 1.390 . S
C841 C842 1.387 . S
C841 H844 0.950 . S
C842 C841 1.387 . S
C842 C845 1.387 . S
H843 C839 0.950 . S
H844 C841 0.950 . S
C845 C836 1.390 . S
C845 H838 0.950 . S
C845 C842 1.387 . S
C846 C847 1.387 . S
C846 H850 0.950 . S
C846 C855 1.390 . S
C847 C846 1.387 . S
C847 C849 1.387 . S
H848 C855 0.950 . S
C849 C847 1.387 . S
C849 C851 1.390 . S
C849 H853 0.950 . S
H850 C846 0.950 . S
C851 C849 1.390 . S
C851 C852 1.387 . S
C851 H854 0.950 1_655 S
C852 C851 1.387 . S
C852 C855 1.387 . S
H853 C849 0.950 . S
H854 C851 0.950 1_455 S
C855 C846 1.390 . S
C855 H848 0.950 . S
C855 C852 1.387 . S
C856 C857 1.387 . S
C856 H860 0.950 . S
C856 C865 1.390 1_565 S
C857 C856 1.387 . S
C857 C859 1.387 . S
H858 C865 0.950 . S
C859 C857 1.387 . S
C859 C861 1.390 1_565 S
C859 H863 0.950 . S
H860 C856 0.950 . S
C861 C859 1.390 1_545 S
C861 C862 1.387 . S
C861 H864 0.950 . S
C862 C861 1.387 . S
C862 C865 1.387 . S
H863 C859 0.950 . S
H864 C861 0.950 . S
C865 C856 1.390 1_545 S
C865 H858 0.950 . S
C865 C862 1.387 . S
C866 C867 1.387 . S
C866 H870 0.950 . S
C866 C875 1.390 . S
C867 C866 1.387 . S
C867 C869 1.387 . S
H868 C875 0.950 . S
C869 C867 1.387 . S
C869 C871 1.390 . S
C869 H873 0.950 . S
H870 C866 0.950 . S
C871 C869 1.390 . S
C871 C872 1.387 . S
C871 H874 0.950 . S
C872 C871 1.387 . S
C872 C875 1.387 . S
H873 C869 0.950 . S
H874 C871 0.950 . S
C875 C866 1.390 . S
C875 H868 0.950 . S
C875 C872 1.387 . S
C637 C463 1.924 . S
C642 C22 1.920 . S
C647 C75 2.160 . S
C652 C499 2.160 . S
C657 C145 1.922 . S
C662 C552 1.920 . S
C667 C181 1.920 . S
C672 C622 1.924 . S
C677 C340 2.157 . S
C682 C234 2.157 . S
C687 C304 1.922 . S
C692 C393 1.920 . S
C697 C197 2.192 . S
C702 C38 2.192 . S
C707 C250 2.122 . S
C712 C91 2.122 . S
C717 C294 1.327 . S
C722 C135 1.327 . S
C727 C356 2.122 . S
C732 C515 2.122 . S
C737 C409 2.192 . S
C742 C568 2.192 . S
C747 C453 1.327 . S
C752 C612 1.327 . S
C757 C29 2.048 . S
C762 C506 2.021 . S
C767 C82 2.020 1_455 S
C772 C559 2.047 . S
C777 C144 1.541 . S
C782 C621 1.541 . S
C787 C347 2.020 . S
C792 C188 2.045 . S
C797 C241 2.020 1_655 S
C802 C400 2.045 . S
C807 C462 1.541 . S
C812 C303 1.541 . S
C817 C605 1.832 1_455 S
C822 C39 1.835 . S
C827 C92 2.195 . S
C832 C357 2.196 . S
C837 C410 1.837 . S
C842 C128 1.834 . S
C847 C198 1.838 . S
C852 C446 1.834 1_655 S
C857 C251 2.193 . S
C862 C516 2.193 . S
C867 C569 1.835 . S
C872 C287 1.832 . S
