# Generated by pormake.
# Topology yfx, (5)-cn, num edge types: 1
# Building blocks:
#     Node 0, Type 0, BuildingBlock: XOMCOT_clean_sbu_0, # of connection points: 5
#     Node 1, Type 0, BuildingBlock: XOMCOT_clean_sbu_0, # of connection points: 5
#     Node 2, Type 0, BuildingBlock: XOMCOT_clean_sbu_0, # of connection points: 5
#     Node 3, Type 0, BuildingBlock: XOMCOT_clean_sbu_0, # of connection points: 5
#     Node 4, Type 0, BuildingBlock: XOMCOT_clean_sbu_0, # of connection points: 5
#     Node 5, Type 0, BuildingBlock: XOMCOT_clean_sbu_0, # of connection points: 5
#     Node 6, Type 0, BuildingBlock: XOMCOT_clean_sbu_0, # of connection points: 5
#     Node 7, Type 0, BuildingBlock: XOMCOT_clean_sbu_0, # of connection points: 5
#     Edge 8, Type (0, 0), BuildingBlock: EZIPEK_clean_linker_0, # of connection points: 2
#     Edge 9, Type (0, 0), BuildingBlock: EZIPEK_clean_linker_0, # of connection points: 2
#     Edge 10, Type (0, 0), BuildingBlock: EZIPEK_clean_linker_0, # of connection points: 2
#     Edge 11, Type (0, 0), BuildingBlock: EZIPEK_clean_linker_0, # of connection points: 2
#     Edge 12, Type (0, 0), BuildingBlock: EZIPEK_clean_linker_0, # of connection points: 2
#     Edge 13, Type (0, 0), BuildingBlock: EZIPEK_clean_linker_0, # of connection points: 2
#     Edge 14, Type (0, 0), BuildingBlock: EZIPEK_clean_linker_0, # of connection points: 2
#     Edge 15, Type (0, 0), BuildingBlock: EZIPEK_clean_linker_0, # of connection points: 2
#     Edge 16, Type (0, 0), BuildingBlock: EZIPEK_clean_linker_0, # of connection points: 2
#     Edge 17, Type (0, 0), BuildingBlock: EZIPEK_clean_linker_0, # of connection points: 2
#     Edge 18, Type (0, 0), BuildingBlock: EZIPEK_clean_linker_0, # of connection points: 2
#     Edge 19, Type (0, 0), BuildingBlock: EZIPEK_clean_linker_0, # of connection points: 2
#     Edge 20, Type (0, 0), BuildingBlock: EZIPEK_clean_linker_0, # of connection points: 2
#     Edge 21, Type (0, 0), BuildingBlock: EZIPEK_clean_linker_0, # of connection points: 2
#     Edge 22, Type (0, 0), BuildingBlock: EZIPEK_clean_linker_0, # of connection points: 2
#     Edge 23, Type (0, 0), BuildingBlock: EZIPEK_clean_linker_0, # of connection points: 2
#     Edge 24, Type (0, 0), BuildingBlock: EZIPEK_clean_linker_0, # of connection points: 2
#     Edge 25, Type (0, 0), BuildingBlock: EZIPEK_clean_linker_0, # of connection points: 2
#     Edge 26, Type (0, 0), BuildingBlock: EZIPEK_clean_linker_0, # of connection points: 2
#     Edge 27, Type (0, 0), BuildingBlock: EZIPEK_clean_linker_0, # of connection points: 2
# Relax obj value: 0.097
# Max RMSD: 0.107
# Mean RMSD: 0.107
data_MOF--net-yfx--node1-XOMCOT_clean_sbu_0--edge1-EZIPEK_clean_linker_0
_symmetry_space_group_name_H-M    P1
_symmetry_Int_Tables_number       1
_symmetry_cell_setting            triclinic
loop_
_symmetry_equiv_pos_as_xyz
'x, y, z'
_cell_length_a     26.742062
_cell_length_b     26.715823
_cell_length_c     22.068786
_cell_angle_alpha  90.074267
_cell_angle_beta   89.942749
_cell_angle_gamma 89.3598
loop_
_atom_site_label
_atom_site_type_symbol
_atom_site_fract_x
_atom_site_fract_y
_atom_site_fract_z
_atom_type_partial_charge
Co0 Co 0.22406 0.36752 0.05738 0.0
C1 C 0.32082 0.31371 0.04225 0.0
C2 C 0.32466 0.37238 0.10887 0.0
C3 C 0.37125 0.35046 0.10339 0.0
N4 N 0.29333 0.34965 0.07014 0.0
N5 N 0.36859 0.31381 0.06152 0.0
H6 H 0.30693 0.2894 1.00698 0.0
H7 H 0.31457 0.40365 0.13774 0.0
C8 C 0.23027 0.47499 1.01585 0.0
O9 O 0.19683 0.46601 0.97372 0.0
N10 N 0.15345 0.38592 0.04675 0.0
C11 C 0.11595 0.35853 1.02312 0.0
C12 C 0.0722 0.38653 1.02409 0.0
C13 C 0.13087 0.42912 0.06459 0.0
N14 N 0.08206 0.43104 0.04971 0.0
C15 C 0.21389 0.31444 0.94488 0.0
C16 C 0.28787 0.36502 0.88331 0.0
C17 C 0.26745 0.32219 0.85722 0.0
C18 C 0.22956 0.29719 0.88806 0.0
C19 C 0.27136 0.38086 0.94044 0.0
N20 N 0.23426 0.3561 0.97058 0.0
H21 H 0.18848 0.29152 0.97009 0.0
H22 H 0.29185 0.41027 0.96238 0.0
H23 H 0.11918 0.32062 1.00688 0.0
H24 H 0.14948 0.45928 0.087 0.0
O25 O 0.206 0.30066 0.08109 0.0
O26 O 0.21411 0.36409 0.14414 0.0
O27 O 0.24468 0.44011 0.05163 0.0
C28 C 0.20689 0.31629 0.1368 0.0
H29 H 0.40508 0.36196 0.12618 0.0
H30 H 0.03619 0.3755 1.00651 0.0
H31 H 0.31814 0.38447 0.86115 0.0
H32 H 0.21376 0.2633 0.86951 0.0
Co33 Co 0.65967 0.22615 0.0524 0.0
C34 C 0.70198 0.32806 0.02901 0.0
C35 C 0.63599 0.32827 0.08477 0.0
C36 C 0.65026 0.3768 0.07649 0.0
N37 N 0.66822 0.29768 0.05524 0.0
N38 N 0.69144 0.37655 0.04151 0.0
H39 H 0.73366 0.3153 1.0024 0.0
H40 H 0.60411 0.31591 0.11074 0.0
C41 C 0.55492 0.224 0.9962 0.0
O42 O 0.56701 0.18932 0.95638 0.0
N43 N 0.64705 0.15429 0.05123 0.0
C44 C 0.67638 0.11649 0.03065 0.0
C45 C 0.64984 0.07242 0.03294 0.0
C46 C 0.60365 0.13219 0.06743 0.0
N47 N 0.60401 0.08254 0.05554 0.0
C48 C 0.73191 0.21132 0.95864 0.0
C49 C 0.68313 0.26251 0.86734 0.0
C50 C 0.73379 0.2501 0.85959 0.0
C51 C 0.75782 0.22346 0.90582 0.0
C52 C 0.65894 0.25105 0.92206 0.0
N53 N 0.68326 0.22609 0.96769 0.0
H54 H 0.75285 0.19283 0.99386 0.0
H55 H 0.62183 0.26503 0.9281 0.0
H56 H 0.71391 0.12023 1.01355 0.0
H57 H 0.5716 0.15227 0.08548 0.0
O58 O 0.7241 0.21538 0.09055 0.0
O59 O 0.65399 0.22739 0.14078 0.0
O60 O 0.58726 0.24093 0.03304 0.0
C61 C 0.7026 0.22305 0.14229 0.0
H62 H 0.63255 0.40987 0.09563 0.0
H63 H 0.66241 0.03611 1.01684 0.0
H64 H 0.6631 0.28308 0.83257 0.0
H65 H 0.79697 0.2131 0.90178 0.0
Co66 Co 0.81165 0.6629 0.06918 0.0
C67 C 0.71214 0.71121 0.04344 0.0
C68 C 0.70743 0.65257 0.10933 0.0
C69 C 0.66055 0.67307 0.10169 0.0
N70 N 0.74004 0.67644 0.07293 0.0
N71 N 0.66389 0.70988 0.06046 0.0
H72 H 0.72545 0.73631 1.00919 0.0
H73 H 0.71662 0.62114 0.13798 0.0
C74 C 0.76088 0.57424 1.01357 0.0
O75 O 0.72505 0.60288 0.99167 0.0
N76 N 0.88256 0.64832 0.06691 0.0
C77 C 0.92046 0.67912 0.05309 0.0
C78 C 0.96438 0.65123 0.05103 0.0
C79 C 0.90374 0.60252 0.07365 0.0
N80 N 0.95346 0.60322 0.06386 0.0
C81 C 0.81697 0.74427 0.98542 0.0
C82 C 0.79805 0.68987 0.8815 0.0
C83 C 0.79169 0.74201 0.88021 0.0
C84 C 0.80394 0.76939 0.93218 0.0
C85 C 0.81037 0.66613 0.9362 0.0
N86 N 0.81518 0.69324 0.9885 0.0
H87 H 0.82315 0.76624 0.02568 0.0
H88 H 0.81418 0.62601 0.93619 0.0
H89 H 0.91628 0.71859 0.04328 0.0
H90 H 0.88311 0.56888 0.08359 0.0
O91 O 0.82126 0.72175 0.12006 0.0
O92 O 0.81037 0.64543 0.15411 0.0
O93 O 0.79991 0.59336 0.03682 0.0
C94 C 0.81455 0.6926 0.16656 0.0
H95 H 0.62629 0.66077 0.12286 0.0
H96 H 1.00111 0.66469 0.03905 0.0
H97 H 0.79135 0.66762 0.84131 0.0
H98 H 0.80104 0.80987 0.93251 0.0
Co99 Co 0.37694 0.80731 0.0518 0.0
C100 C 0.32675 0.70898 0.03172 0.0
C101 C 0.39816 0.70256 0.07582 0.0
C102 C 0.37958 0.6554 0.06824 0.0
N103 N 0.36536 0.73612 0.0527 0.0
N104 N 0.3348 0.65956 0.0409 0.0
H105 H 0.29359 0.72474 1.01078 0.0
H106 H 0.43313 0.71185 0.09742 0.0
C107 C 0.48104 0.80483 0.99419 0.0
O108 O 0.4695 0.83865 0.95319 0.0
N109 N 0.3922 0.87876 0.05247 0.0
C110 C 0.36268 0.91818 0.0375 0.0
C111 C 0.39044 0.96144 0.0401 0.0
C112 C 0.43703 0.89918 0.06615 0.0
N113 N 0.4372 0.94928 0.05774 0.0
C114 C 0.30754 0.82806 0.95618 0.0
C115 C 0.35265 0.76793 0.86989 0.0
C116 C 0.30403 0.78537 0.85988 0.0
C117 C 0.28177 0.81686 0.90282 0.0
C118 C 0.37694 0.77989 0.92387 0.0
N119 N 0.35448 0.80907 0.96715 0.0
H120 H 0.28752 0.84876 0.99046 0.0
H121 H 0.41208 0.76238 0.93188 0.0
H122 H 0.32387 0.91631 1.02481 0.0
H123 H 0.46941 0.87782 0.08065 0.0
O124 O 0.31261 0.81986 0.08887 0.0
O125 O 0.38204 0.80456 0.13962 0.0
O126 O 0.44888 0.79039 0.03278 0.0
C127 C 0.33356 0.81051 0.14052 0.0
H128 H 0.39661 0.6207 0.08355 0.0
H129 H 0.37778 0.99876 0.02814 0.0
H130 H 0.37091 0.74341 0.83735 0.0
H131 H 0.24405 0.83101 0.89627 0.0
Co132 Co 0.72152 0.87611 0.56988 0.0
C133 C 0.82091 0.82682 0.54502 0.0
C134 C 0.82582 0.88682 0.60923 0.0
C135 C 0.87268 0.86613 0.60185 0.0
N136 N 0.79311 0.86226 0.57366 0.0
N137 N 0.86922 0.82847 0.56165 0.0
H138 H 0.80749 0.80094 0.51166 0.0
H139 H 0.81671 0.91886 0.63704 0.0
C140 C 0.77295 0.96368 0.51349 0.0
O141 O 0.8078 0.93422 0.49068 0.0
N142 N 0.65062 0.89096 0.56769 0.0
C143 C 0.61259 0.8597 0.55615 0.0
C144 C 0.56851 0.88735 0.55469 0.0
C145 C 0.62937 0.93685 0.57362 0.0
N146 N 0.57944 0.93571 0.56558 0.0
C147 C 0.71653 0.79455 0.48598 0.0
C148 C 0.73413 0.84908 0.38194 0.0
C149 C 0.74113 0.797 0.38045 0.0
C150 C 0.72951 0.76953 0.43254 0.0
C151 C 0.72191 0.87272 0.43687 0.0
N152 N 0.71789 0.8456 0.48918 0.0
H153 H 0.71086 0.77256 0.52628 0.0
H154 H 0.71754 0.9128 0.43703 0.0
H155 H 0.61672 0.81997 0.54783 0.0
H156 H 0.65 0.97075 0.58214 0.0
O157 O 0.71155 0.81746 0.62074 0.0
O158 O 0.72282 0.89385 0.65473 0.0
O159 O 0.73382 0.94546 0.53754 0.0
C160 C 0.71844 0.84672 0.66718 0.0
H161 H 0.907 0.87886 0.62243 0.0
H162 H 0.53157 0.87341 0.54467 0.0
H163 H 0.74026 0.87138 0.34171 0.0
H164 H 0.73287 0.72909 0.43276 0.0
Co165 Co 0.15621 0.73017 0.55176 0.0
C166 C 0.20617 0.82822 0.53052 0.0
C167 C 0.13463 0.83515 0.5744 0.0
C168 C 0.15319 0.88222 0.56608 0.0
N169 N 0.16756 0.80134 0.5519 0.0
N170 N 0.19806 0.87772 0.53889 0.0
H171 H 0.23946 0.81222 0.51002 0.0
H172 H 0.09962 0.8261 0.59614 0.0
C173 C 0.05158 0.73177 0.49537 0.0
O174 O 0.06262 0.69732 0.45484 0.0
N175 N 0.14131 0.65873 0.5531 0.0
C176 C 0.17075 0.61942 0.53733 0.0
C177 C 0.14326 0.57605 0.54087 0.0
C178 C 0.09684 0.6382 0.5681 0.0
N179 N 0.0968 0.58807 0.5599 0.0
C180 C 0.22594 0.7096 0.45626 0.0
C181 C 0.17999 0.76824 0.36943 0.0
C182 C 0.22905 0.75182 0.35975 0.0
C183 C 0.25169 0.72096 0.40292 0.0
C184 C 0.15569 0.75607 0.42337 0.0
N185 N 0.17863 0.72781 0.46703 0.0
H186 H 0.24622 0.68945 0.49069 0.0
H187 H 0.12004 0.77271 0.43099 0.0
H188 H 0.20925 0.62146 0.52331 0.0
H189 H 0.06457 0.65952 0.58322 0.0
O190 O 0.2206 0.71813 0.58878 0.0
O191 O 0.1511 0.73355 0.63957 0.0
O192 O 0.08417 0.74675 0.53306 0.0
C193 C 0.19957 0.72763 0.64043 0.0
H194 H 0.13616 0.91709 0.58096 0.0
H195 H 0.15583 0.53876 0.52849 0.0
H196 H 0.16135 0.79212 0.33664 0.0
H197 H 0.2897 0.7075 0.39658 0.0
Co198 Co 0.3068 0.16952 0.55483 0.0
C199 C 0.21201 0.22511 0.53633 0.0
C200 C 0.20176 0.16008 0.5921 0.0
C201 C 0.15571 0.18224 0.58209 0.0
N202 N 0.2368 0.18674 0.56289 0.0
N203 N 0.16253 0.22284 0.54708 0.0
H204 H 0.22935 0.25291 0.50784 0.0
H205 H 0.20899 0.12605 0.61725 0.0
C206 C 0.30359 0.06146 0.51416 0.0
O207 O 0.33857 0.0701 0.47377 0.0
N208 N 0.37799 0.15184 0.54804 0.0
C209 C 0.41542 0.17865 0.52331 0.0
C210 C 0.45924 0.15086 0.52527 0.0
C211 C 0.40068 0.10918 0.5674 0.0
N212 N 0.44954 0.10702 0.55249 0.0
C213 C 0.31905 0.22344 0.44332 0.0
C214 C 0.24781 0.17126 0.37908 0.0
C215 C 0.26665 0.21542 0.35474 0.0
C216 C 0.30335 0.24118 0.38676 0.0
C217 C 0.26422 0.155 0.43591 0.0
N218 N 0.29977 0.18069 0.46759 0.0
H219 H 0.34301 0.24704 0.46974 0.0
H220 H 0.24423 0.12472 0.45663 0.0
H221 H 0.41195 0.21579 0.50488 0.0
H222 H 0.38198 0.0793 0.59016 0.0
O223 O 0.32362 0.23664 0.57979 0.0
O224 O 0.31276 0.17313 0.64208 0.0
O225 O 0.28732 0.09672 0.54829 0.0
C226 C 0.3199 0.22097 0.63528 0.0
H227 H 0.11985 0.16888 0.59763 0.0
H228 H 0.49509 0.16134 0.50665 0.0
H229 H 0.21833 0.15126 0.3561 0.0
H230 H 0.31777 0.27617 0.36967 0.0
Co231 Co 0.88558 0.30571 0.5522 0.0
C232 C 0.84027 0.20643 0.53651 0.0
C233 C 0.91816 0.20082 0.5603 0.0
C234 C 0.90021 0.15334 0.55168 0.0
N235 N 0.88049 0.23391 0.55117 0.0
N236 N 0.85155 0.15721 0.53668 0.0
H237 H 0.80382 0.22195 0.52565 0.0
H238 H 0.95598 0.21046 0.57257 0.0
C239 C 0.98431 0.3199 0.48569 0.0
O240 O 0.96512 0.35397 0.44947 0.0
N241 N 0.89301 0.37841 0.55397 0.0
C242 C 0.86136 0.4153 0.53617 0.0
C243 C 0.88562 0.46063 0.5399 0.0
C244 C 0.93524 0.40236 0.57051 0.0
N245 N 0.93228 0.45221 0.56074 0.0
C246 C 0.81145 0.32052 0.45951 0.0
C247 C 0.85894 0.26223 0.37287 0.0
C248 C 0.8096 0.27781 0.36275 0.0
C249 C 0.78596 0.30789 0.40631 0.0
C250 C 0.88298 0.27561 0.42666 0.0
N251 N 0.85975 0.30507 0.46922 0.0
H252 H 0.7906 0.33918 0.49488 0.0
H253 H 0.91832 0.25789 0.43651 0.0
H254 H 0.82376 0.41041 0.52011 0.0
H255 H 0.96827 0.38337 0.58737 0.0
O256 O 0.82243 0.30987 0.59549 0.0
O257 O 0.89663 0.30338 0.63925 0.0
O258 O 0.95767 0.29831 0.52575 0.0
C259 C 0.84816 0.3045 0.64504 0.0
H260 H 0.92106 0.11857 0.55607 0.0
H261 H 0.87099 0.49668 0.52566 0.0
H262 H 0.87793 0.23796 0.34068 0.0
H263 H 0.74746 0.31988 0.40027 0.0
C264 C 0.46401 0.2137 1.02317 0.0
C265 C 0.50302 0.2444 1.00053 0.0
C266 C 0.44548 0.31652 1.00145 0.0
C267 C 0.4106 0.2883 0.03437 0.0
N268 N 0.3858 0.21084 0.07946 0.0
N269 N 0.53174 0.3275 0.97437 0.0
C270 C 0.41921 0.2368 0.04523 0.0
C271 C 0.4939 0.29645 0.99089 0.0
N272 N 0.47002 0.16287 1.02482 0.0
N273 N 0.43188 0.36262 0.97999 0.0
H274 H 0.56784 0.31508 0.96543 0.0
H275 H 0.52822 0.36638 0.97426 0.0
H276 H 0.39607 0.37766 0.98648 0.0
H277 H 0.45403 0.3833 0.95056 0.0
H278 H 0.44137 0.13843 0.03586 0.0
H279 H 0.50244 0.14462 1.01022 0.0
H280 H 0.3922 0.17455 0.095 0.0
H281 H 0.35282 0.22712 0.09582 0.0
C282 C 0.74699 0.44229 0.07639 0.0
C283 C 0.72039 0.42007 0.02852 0.0
C284 C 0.73532 0.49342 0.96522 0.0
C285 C 0.75346 0.51933 1.01685 0.0
N286 N 0.77093 0.51888 0.12511 0.0
N287 N 0.68571 0.42415 0.9285 0.0
C288 C 0.75897 0.49369 0.0732 0.0
C289 C 0.7142 0.44523 0.97277 0.0
N290 N 0.75897 0.41429 0.12607 0.0
N291 N 0.7389 0.51461 0.90911 0.0
H292 H 0.67024 0.38866 0.93311 0.0
H293 H 0.67507 0.4429 0.88914 0.0
H294 H 0.75555 0.54926 0.90205 0.0
H295 H 0.73008 0.49574 0.86927 0.0
H296 H 0.7831 0.42638 0.15995 0.0
H297 H 0.74804 0.37715 0.13044 0.0
H298 H 0.76922 0.50294 0.16808 0.0
H299 H 0.77802 0.55691 0.12709 0.0
C300 C 0.61586 0.7883 0.04289 0.0
C301 C 0.62269 0.73632 0.03321 0.0
C302 C 0.53936 0.7302 0.99021 0.0
C303 C 0.53212 0.78276 0.99818 0.0
N304 N 0.56822 0.86356 1.01932 0.0
N305 N 0.59914 0.66214 0.97976 0.0
C306 C 0.57219 0.81253 1.01969 0.0
C307 C 0.58706 0.70884 1.00073 0.0
N308 N 0.64961 0.81372 0.07722 0.0
N309 N 0.50046 0.69984 0.97573 0.0
H310 H 0.63445 0.64609 0.98626 0.0
H311 H 0.57629 0.64197 0.95057 0.0
H312 H 0.46457 0.71292 0.96776 0.0
H313 H 0.50293 0.66089 0.97694 0.0
H314 H 0.64414 0.85048 0.09169 0.0
H315 H 0.68161 0.79666 0.09509 0.0
H316 H 0.59783 0.88707 0.0296 0.0
H317 H 0.53669 0.88265 1.00354 0.0
C318 C 0.2531 0.5509 0.07796 0.0
C319 C 0.25296 0.52557 1.02097 0.0
C320 C 0.29655 0.5967 0.97455 0.0
C321 C 0.30082 0.61893 0.0323 0.0
N322 N 0.28444 0.61945 0.13898 0.0
N323 N 0.27958 0.52209 0.91604 0.0
C324 C 0.27882 0.59687 0.0838 0.0
C325 C 0.27527 0.54825 0.96917 0.0
N326 N 0.22785 0.53174 0.1264 0.0
N327 N 0.3139 0.62183 0.92507 0.0
H328 H 0.266 0.48612 0.90993 0.0
H329 H 0.30022 0.53416 0.87896 0.0
H330 H 0.33167 0.65627 0.92849 0.0
H331 H 0.30737 0.61084 0.88054 0.0
H332 H 0.22032 0.55169 0.16595 0.0
H333 H 0.21203 0.49651 0.12677 0.0
H334 H 0.27615 0.60256 0.18019 0.0
H335 H 0.29962 0.65504 0.14377 0.0
C336 C 0.99343 0.80653 0.4906 0.0
C337 C 1.0006 0.75411 0.49977 0.0
C338 C 0.91717 0.74969 0.54579 0.0
C339 C 0.91034 0.80146 0.53481 0.0
N340 N 0.93375 0.87454 0.47922 0.0
N341 N 0.96453 0.67387 0.52368 0.0
C342 C 0.94585 0.82823 0.50122 0.0
C343 C 0.96064 0.7249 0.52268 0.0
N344 N 0.0323 0.83648 0.4748 0.0
N345 N 0.88361 0.72505 0.58123 0.0
H346 H 0.99594 0.65442 0.50808 0.0
H347 H 0.93496 0.65063 0.53499 0.0
H348 H 0.85178 0.74253 0.59906 0.0
H349 H 0.88911 0.68857 0.59661 0.0
H350 H 0.02995 0.87545 0.47507 0.0
H351 H 0.06811 0.82314 0.46668 0.0
H352 H 0.95646 0.89407 0.44923 0.0
H353 H 0.89853 0.89083 0.48574 0.0
C354 C 0.27961 0.98625 0.57642 0.0
C355 C 0.28103 1.01087 0.51909 0.0
C356 C 0.23758 0.9397 0.47252 0.0
C357 C 0.23236 0.91806 0.53044 0.0
N358 N 0.24773 0.91793 0.63729 0.0
N359 N 0.25726 1.01314 0.41321 0.0
C360 C 0.25391 0.9403 0.58212 0.0
C361 C 0.25972 0.98774 0.46695 0.0
N362 N 0.30346 1.00624 0.62541 0.0
N363 N 0.22027 0.91438 0.42312 0.0
H364 H 0.27185 0.04866 0.40684 0.0
H365 H 0.23751 1.00088 0.37554 0.0
H366 H 0.2019 0.88028 0.42671 0.0
H367 H 0.22717 0.92485 0.37852 0.0
H368 H 0.31032 0.9869 0.66548 0.0
H369 H 0.31846 0.04182 0.62597 0.0
H370 H 0.25572 0.93482 0.6786 0.0
H371 H 0.23252 0.88236 0.64198 0.0
C372 C 0.09692 0.23578 0.4702 0.0
C373 C 0.12393 0.25366 0.5208 0.0
C374 C 0.07097 0.32871 0.52398 0.0
C375 C 0.03799 0.30583 0.48269 0.0
N376 N 0.02271 0.24351 0.40694 0.0
N377 N 0.13838 0.31672 0.59617 0.0
C378 C 0.05237 0.26132 0.45218 0.0
C379 C 0.11202 0.30058 0.54711 0.0
N380 N 0.11429 0.1945 0.43988 0.0
N381 N 0.06306 0.37746 0.54003 0.0
H382 H 0.16833 0.29627 0.61409 0.0
H383 H 0.1286 0.34835 0.62131 0.0
H384 H 0.03486 0.39893 0.51984 0.0
H385 H 0.0873 0.39778 0.56726 0.0
H386 H 0.09862 0.1808 0.40016 0.0
H387 H 0.14688 0.17554 0.45281 0.0
H388 H 0.02722 0.20855 0.38675 0.0
H389 H 0.99339 0.26493 0.38911 0.0
C390 C 0.82169 0.09079 0.46904 0.0
C391 C 0.81912 0.11593 0.52527 0.0
C392 C 0.77753 0.04503 0.57171 0.0
C393 C 0.78139 1.01845 0.51569 0.0
N394 N 0.79304 0.02151 0.40739 0.0
N395 N 0.78047 0.12536 0.62256 0.0
C396 C 0.79894 0.0432 0.46298 0.0
C397 C 0.79178 0.09588 0.57382 0.0
N398 N 0.84726 0.11207 0.42232 0.0
N399 N 0.76477 0.02118 0.62421 0.0
H400 H 0.79142 0.1626 0.62536 0.0
H401 H 0.75576 0.11461 0.65654 0.0
H402 H 0.75524 0.98373 0.62687 0.0
H403 H 0.76783 0.03765 0.66683 0.0
H404 H 0.85549 0.09362 0.38189 0.0
H405 H 0.86203 0.148 0.42544 0.0
H406 H 0.80156 0.03932 0.3668 0.0
H407 H 0.77499 0.9874 0.40163 0.0
C408 C 0.20582 0.2726 0.30085 0.0
C409 C 0.24529 0.23661 0.29796 0.0
C410 C 0.24104 0.23793 0.18716 0.0
C411 C 0.20953 0.28128 0.18981 0.0
N412 N 0.15588 0.33567 0.2485 0.0
N413 N 0.30355 0.18747 0.23881 0.0
C414 C 0.18984 0.29708 0.24666 0.0
C415 C 0.26362 0.21983 0.24122 0.0
N416 N 0.18339 0.28278 0.35529 0.0
N417 N 0.24801 0.21249 0.13402 0.0
H418 H 0.32035 0.17232 0.2774 0.0
H419 H 0.32256 0.17892 0.19881 0.0
H420 H 0.22767 0.21979 0.09489 0.0
H421 H 0.26803 0.1789 0.13108 0.0
H422 H 0.15131 0.30483 0.36012 0.0
H423 H 0.19493 0.26628 0.39582 0.0
H424 H 0.14468 0.35371 0.28815 0.0
H425 H 0.1392 0.35014 0.20942 0.0
C426 C 0.72077 0.21021 0.25423 0.0
C427 C 0.73251 0.234 0.19832 0.0
C428 C 0.79308 0.28748 0.25165 0.0
C429 C 0.78284 0.2624 0.30652 0.0
N430 N 0.74391 0.19435 0.35927 0.0
N431 N 0.78932 0.28826 0.1429 0.0
C432 C 0.74851 0.22222 0.30765 0.0
C433 C 0.77162 0.2702 0.19665 0.0
N434 N 0.68356 0.17558 0.25621 0.0
N435 N 0.82178 0.3296 0.25236 0.0
H436 H 0.77291 0.28263 0.10103 0.0
H437 H 0.82285 0.30752 0.13935 0.0
H438 H 0.83862 0.34343 0.29147 0.0
H439 H 0.82542 0.35345 0.21537 0.0
H440 H 0.6686 0.16176 0.29632 0.0
H441 H 0.6662 0.16166 0.21752 0.0
H442 H 0.72393 0.16121 0.36169 0.0
H443 H 0.76335 0.20232 0.39904 0.0
C444 C 0.8287 0.75552 0.25098 0.0
C445 C 0.80234 0.71362 0.22805 0.0
C446 C 0.73413 0.73138 0.29938 0.0
C447 C 0.76165 0.77072 0.32571 0.0
N448 N 0.84139 0.81162 0.3361 0.0
N449 N 0.74069 0.65047 0.2526 0.0
C450 C 0.8108 0.78058 0.30416 0.0
C451 C 0.75836 0.69792 0.2588 0.0
N452 N 0.87149 0.77068 0.223 0.0
N453 N 0.68448 0.7262 0.31218 0.0
H454 H 0.76075 0.62175 0.23172 0.0
H455 H 0.71013 0.63747 0.27713 0.0
H456 H 0.66485 0.75104 0.3402 0.0
H457 H 0.66192 0.70066 0.28954 0.0
H458 H 0.88874 0.80454 0.23269 0.0
H459 H 0.88889 0.74991 0.18873 0.0
H460 H 0.8791 0.81624 0.32593 0.0
H461 H 0.83058 0.82909 0.37637 0.0
C462 C 0.26433 0.76329 0.19393 0.0
C463 C 0.30332 0.7996 0.196 0.0
C464 C 0.29077 0.80732 0.30633 0.0
C465 C 0.25636 0.76725 0.30426 0.0
N466 N 0.21738 0.70082 0.2487 0.0
N467 N 0.35377 0.85625 0.25456 0.0
C468 C 0.2452 0.74353 0.24881 0.0
C469 C 0.31669 0.82146 0.25249 0.0
N470 N 0.24414 0.74803 0.14017 0.0
N471 N 0.29748 0.83278 0.35947 0.0
H472 H 0.36956 0.87184 0.2158 0.0
H473 H 0.37003 0.86874 0.29457 0.0
H474 H 0.28016 0.82259 0.39992 0.0
H475 H 0.31749 0.86583 0.36303 0.0
H476 H 0.2119 0.72663 0.13744 0.0
H477 H 0.25525 0.76018 0.09786 0.0
H478 H 0.21308 0.67809 0.21073 0.0
H479 H 0.20239 0.68523 0.28795 0.0
C480 C 0.70385 0.78438 0.75186 0.0
C481 C 0.73069 0.8258 0.72855 0.0
C482 C 0.79911 0.80728 0.79903 0.0
C483 C 0.77117 0.76846 0.82576 0.0
N484 N 0.6909 0.72876 0.83722 0.0
N485 N 0.79351 0.88806 0.75207 0.0
C486 C 0.72173 0.75925 0.80486 0.0
C487 C 0.77513 0.84094 0.75868 0.0
N488 N 0.66069 0.76975 0.72436 0.0
N489 N 0.84894 0.81174 0.81123 0.0
H490 H 0.77375 0.917 0.73133 0.0
H491 H 0.82445 0.90069 0.77614 0.0
H492 H 0.86837 0.78672 0.83909 0.0
H493 H 0.87174 0.83684 0.78825 0.0
H494 H 0.64298 0.73621 0.73436 0.0
H495 H 0.64346 0.79059 0.69014 0.0
H496 H 0.65306 0.72467 0.82752 0.0
H497 H 0.70174 0.71125 0.87737 0.0
C498 C 0.26846 0.77498 0.69414 0.0
C499 C 0.22971 0.73844 0.69593 0.0
C500 C 0.24258 0.72991 0.80604 0.0
C501 C 0.27671 0.77022 0.80434 0.0
N502 N 0.31529 0.83724 0.74949 0.0
N503 N 0.17966 0.6811 0.75397 0.0
C504 C 0.28763 0.79443 0.74917 0.0
C505 C 0.21659 0.71606 0.75217 0.0
N506 N 0.28841 0.79072 0.64047 0.0
N507 N 0.23621 0.70397 0.85883 0.0
H508 H 0.16375 0.66581 0.71508 0.0
H509 H 0.16363 0.66818 0.79391 0.0
H510 H 0.25354 0.71398 0.89933 0.0
H511 H 0.21645 0.67074 0.86201 0.0
H512 H 0.32049 0.81236 0.63778 0.0
H513 H 0.27718 0.77877 0.5981 0.0
H514 H 0.31931 0.86031 0.71184 0.0
H515 H 0.33047 0.85249 0.78884 0.0
C516 C 0.34053 0.2419 0.74367 0.0
C517 C 0.31656 0.25575 0.68853 0.0
C518 C 0.26424 0.31696 0.74379 0.0
C519 C 0.28702 0.30202 0.79881 0.0
N520 N 0.35319 0.25819 0.85117 0.0
N521 N 0.26817 0.31931 0.63469 0.0
C522 C 0.32737 0.26702 0.79869 0.0
C523 C 0.28253 0.29736 0.68793 0.0
N524 N 0.37576 0.20441 0.74319 0.0
N525 N 0.22371 0.34866 0.745 0.0
H526 H 0.28068 0.30838 0.59218 0.0
H527 H 0.24799 0.35283 0.63275 0.0
H528 H 0.21041 0.36553 0.7846 0.0
H529 H 0.20095 0.35542 0.70756 0.0
H530 H 0.39016 0.18759 0.78201 0.0
H531 H 0.39026 0.18937 0.70309 0.0
H532 H 0.38586 0.2368 0.85367 0.0
H533 H 0.34377 0.27511 0.89232 0.0
C534 C 0.7877 0.22796 0.7695 0.0
C535 C 0.76252 0.2652 0.8042 0.0
C536 C 0.79372 0.32953 0.73412 0.0
C537 C 0.82275 0.29262 0.70346 0.0
N538 N 0.85757 0.20873 0.7039 0.0
N539 N 0.7521 0.35307 0.82772 0.0
C540 C 0.82304 0.2425 0.72496 0.0
C541 C 0.76826 0.31658 0.78872 0.0
N542 N 0.77663 0.17857 0.77752 0.0
N543 N 0.79079 0.37705 0.71153 0.0
H544 H 0.73593 0.34513 0.86953 0.0
H545 H 0.75945 0.39094 0.82156 0.0
H546 H 0.8112 0.38852 0.67378 0.0
H547 H 0.76588 0.40404 0.72811 0.0
H548 H 0.79117 0.15005 0.75031 0.0
H549 H 0.74893 0.1665 0.80723 0.0
H550 H 0.86217 0.17299 0.72203 0.0
H551 H 0.88545 0.21821 0.67339 0.0
C552 C 1.00277 0.5363 0.11435 0.0
C553 C 0.98653 0.56019 0.06045 0.0
C554 C 0.03634 0.50077 0.99995 0.0
C555 C 0.04936 0.47437 0.05345 0.0
N556 N 0.04146 0.46294 0.16085 0.0
N557 N 0.98062 0.561 0.95184 0.0
C558 C 0.03165 0.49115 0.11061 0.0
C559 C 1.00138 0.54125 1.00314 0.0
N560 N 0.99137 0.55772 0.16892 0.0
N561 N 0.05905 0.48828 0.94649 0.0
H562 H 0.95471 0.59044 0.9529 0.0
H563 H 0.98581 0.54563 0.90886 0.0
H564 H 0.08548 0.45946 0.94298 0.0
H565 H 0.05507 0.50916 0.90692 0.0
H566 H 1.00561 0.54511 0.21013 0.0
H567 H 0.97018 0.59061 0.17244 0.0
H568 H 0.02616 0.47028 0.20338 0.0
H569 H 0.06233 0.42976 0.15891 0.0
C570 C 0.53927 0.03408 1.00137 0.0
C571 C 0.56171 0.04908 0.05662 0.0
C572 C 0.50008 0.9996 0.11318 0.0
C573 C 0.4801 0.98194 0.05775 0.0
N574 N 0.48551 0.97532 0.9494 0.0
N575 N 0.56778 0.04258 0.16476 0.0
C576 C 0.50112 0.99728 1.00189 0.0
C577 C 0.54317 0.03088 0.11255 0.0
N578 N 0.5532 0.05665 0.94859 0.0
N579 N 0.47686 0.98734 0.16614 0.0
H580 H 0.59913 0.06549 0.16514 0.0
H581 H 0.55942 0.02717 0.2068 0.0
H582 H 0.44572 0.96416 0.1674 0.0
H583 H 0.48623 1.00242 0.20807 0.0
H584 H 0.53486 0.05137 0.90752 0.0
H585 H 0.58038 0.08428 0.94692 0.0
H586 H 0.50272 0.98082 0.90764 0.0
H587 H 0.45794 0.94803 0.94853 0.0
C588 C 0.49354 0.03597 0.50284 0.0
C589 C 0.48212 0.06358 0.5561 0.0
C590 C 0.53127 1.00349 0.61648 0.0
C591 C 0.54591 0.97842 0.56256 0.0
N592 N 0.54791 0.97483 0.45381 0.0
N593 N 0.49317 0.07749 0.66262 0.0
C594 C 0.52883 0.99576 0.5055 0.0
C595 C 0.50178 0.04827 0.6128 0.0
N596 N 0.46915 0.0472 0.45016 0.0
N597 N 0.54475 0.98353 0.67108 0.0
H598 H 0.47163 0.11025 0.66073 0.0
H599 H 0.50989 0.07134 0.70457 0.0
H600 H 0.56632 0.95089 0.67455 0.0
H601 H 0.53187 0.99704 0.71258 0.0
H602 H 0.47181 0.02537 0.41112 0.0
H603 H 0.44275 0.07606 0.44697 0.0
H604 H 0.54105 0.989 0.41063 0.0
H605 H 0.57411 0.94564 0.45445 0.0
C606 C 0.03595 0.53623 0.61643 0.0
C607 C 0.05406 0.55529 0.56076 0.0
C608 C 0.99363 0.50401 0.50527 0.0
C609 C 0.97325 0.48727 0.561 0.0
N610 N 0.97057 0.49096 0.66953 0.0
N611 N 0.04556 0.5642 0.45301 0.0
C612 C 0.99331 0.50437 0.61667 0.0
C613 C 0.03148 0.54109 0.50539 0.0
N614 N 0.06054 0.54776 0.6687 0.0
N615 N 0.97829 0.48266 0.45229 0.0
H616 H 0.07325 0.59135 0.45179 0.0
H617 H 0.02709 0.5597 0.41189 0.0
H618 H 0.95118 0.45499 0.45065 0.0
H619 H 0.99531 0.48909 0.41062 0.0
H620 H 0.05263 0.53174 0.71053 0.0
H621 H 0.0913 0.57147 0.66932 0.0
H622 H 0.98013 0.5053 0.71177 0.0
H623 H 0.9395 0.46768 0.67046 0.0
loop_
_geom_bond_atom_site_label_1
_geom_bond_atom_site_label_2
_geom_bond_distance
_geom_bond_site_symmetry_2
_ccdc_geom_bond_type
Co0 N4 2.148 . S
Co0 N10 2.128 . S
Co0 N20 2.194 1_554 S
Co0 O25 2.351 . S
Co0 O26 2.155 . S
Co0 O27 2.096 . S
C1 N4 1.301 . S
C1 N5 1.328 . S
C1 H6 0.930 . S
C2 C3 1.333 . S
C2 N4 1.317 . S
C2 H7 0.930 . S
C3 C2 1.333 . S
C3 N5 1.350 . S
C3 H29 0.931 . S
N4 Co0 2.148 . S
N4 C1 1.301 . S
N4 C2 1.317 . S
N5 C1 1.328 . S
N5 C3 1.350 . S
H6 C1 0.930 . S
H7 C2 0.930 . S
C8 O9 1.224 1_554 S
C8 O27 1.247 . S
O9 C8 1.224 1_556 S
N10 Co0 2.128 . S
N10 C11 1.355 . S
N10 C13 1.311 . S
C11 N10 1.355 . S
C11 C12 1.363 1_554 S
C11 H23 0.929 1_554 S
C12 C11 1.363 1_556 S
C12 N14 1.375 1_556 S
C12 H30 0.931 . S
C13 N10 1.311 . S
C13 N14 1.347 . S
C13 H24 0.929 . S
N14 C12 1.375 1_554 S
N14 C13 1.347 . S
C15 C18 1.365 . S
C15 N20 1.328 . S
C15 H21 0.929 . S
C16 C17 1.362 . S
C16 C19 1.378 . S
C16 H31 0.929 . S
C17 C16 1.362 . S
C17 C18 1.366 . S
C18 C15 1.365 . S
C18 C17 1.366 . S
C18 H32 0.930 . S
C19 C16 1.378 . S
C19 N20 1.315 . S
C19 H22 0.930 . S
N20 Co0 2.194 1_556 S
N20 C15 1.328 . S
N20 C19 1.315 . S
H21 C15 0.929 . S
H22 C19 0.930 . S
H23 C11 0.929 1_556 S
H24 C13 0.929 . S
O25 Co0 2.351 . S
O25 C28 1.244 . S
O26 Co0 2.155 . S
O26 C28 1.240 . S
O27 Co0 2.096 . S
O27 C8 1.247 . S
C28 O25 1.244 . S
C28 O26 1.240 . S
H29 C3 0.931 . S
H30 C12 0.931 . S
H31 C16 0.929 . S
H32 C18 0.930 . S
Co33 N37 2.148 . S
Co33 N43 2.128 . S
Co33 N53 2.194 1_554 S
Co33 O58 2.351 . S
Co33 O59 2.155 . S
Co33 O60 2.096 . S
C34 N37 1.301 . S
C34 N38 1.328 . S
C34 H39 0.930 . S
C35 C36 1.333 . S
C35 N37 1.317 . S
C35 H40 0.930 . S
C36 C35 1.333 . S
C36 N38 1.350 . S
C36 H62 0.931 . S
N37 Co33 2.148 . S
N37 C34 1.301 . S
N37 C35 1.317 . S
N38 C34 1.328 . S
N38 C36 1.350 . S
H39 C34 0.930 . S
H40 C35 0.930 . S
C41 O42 1.224 1_554 S
C41 O60 1.247 . S
O42 C41 1.224 1_556 S
N43 Co33 2.128 . S
N43 C44 1.355 . S
N43 C46 1.311 . S
C44 N43 1.355 . S
C44 C45 1.363 1_554 S
C44 H56 0.929 1_554 S
C45 C44 1.363 1_556 S
C45 N47 1.375 1_556 S
C45 H63 0.931 . S
C46 N43 1.311 . S
C46 N47 1.347 . S
C46 H57 0.929 . S
N47 C45 1.375 1_554 S
N47 C46 1.347 . S
C48 C51 1.365 . S
C48 N53 1.328 . S
C48 H54 0.929 . S
C49 C50 1.362 . S
C49 C52 1.378 . S
C49 H64 0.929 . S
C50 C49 1.362 . S
C50 C51 1.366 . S
C51 C48 1.365 . S
C51 C50 1.366 . S
C51 H65 0.930 . S
C52 C49 1.378 . S
C52 N53 1.315 . S
C52 H55 0.930 . S
N53 Co33 2.194 1_556 S
N53 C48 1.328 . S
N53 C52 1.315 . S
H54 C48 0.929 . S
H55 C52 0.930 . S
H56 C44 0.929 1_556 S
H57 C46 0.929 . S
O58 Co33 2.351 . S
O58 C61 1.244 . S
O59 Co33 2.155 . S
O59 C61 1.240 . S
O60 Co33 2.096 . S
O60 C41 1.247 . S
C61 O58 1.244 . S
C61 O59 1.240 . S
H62 C36 0.931 . S
H63 C45 0.931 . S
H64 C49 0.929 . S
H65 C51 0.930 . S
Co66 N70 2.148 . S
Co66 N76 2.128 . S
Co66 N86 2.194 1_554 S
Co66 O91 2.351 . S
Co66 O92 2.155 . S
Co66 O93 2.096 . S
C67 N70 1.301 . S
C67 N71 1.328 . S
C67 H72 0.930 . S
C68 C69 1.333 . S
C68 N70 1.317 . S
C68 H73 0.930 . S
C69 C68 1.333 . S
C69 N71 1.350 . S
C69 H95 0.931 . S
N70 Co66 2.148 . S
N70 C67 1.301 . S
N70 C68 1.317 . S
N71 C67 1.328 . S
N71 C69 1.350 . S
H72 C67 0.930 . S
H73 C68 0.930 . S
C74 O75 1.224 1_554 S
C74 O93 1.247 . S
O75 C74 1.224 1_556 S
N76 Co66 2.128 . S
N76 C77 1.355 . S
N76 C79 1.311 . S
C77 N76 1.355 . S
C77 C78 1.363 1_554 S
C77 H89 0.929 1_554 S
C78 C77 1.363 1_556 S
C78 N80 1.375 1_556 S
C78 H96 0.931 . S
C79 N76 1.311 . S
C79 N80 1.347 . S
C79 H90 0.929 . S
N80 C78 1.375 1_554 S
N80 C79 1.347 . S
C81 C84 1.365 . S
C81 N86 1.328 . S
C81 H87 0.929 . S
C82 C83 1.362 . S
C82 C85 1.378 . S
C82 H97 0.929 . S
C83 C82 1.362 . S
C83 C84 1.366 . S
C84 C81 1.365 . S
C84 C83 1.366 . S
C84 H98 0.930 . S
C85 C82 1.378 . S
C85 N86 1.315 . S
C85 H88 0.930 . S
N86 Co66 2.194 1_556 S
N86 C81 1.328 . S
N86 C85 1.315 . S
H87 C81 0.929 . S
H88 C85 0.930 . S
H89 C77 0.929 1_556 S
H90 C79 0.929 . S
O91 Co66 2.351 . S
O91 C94 1.244 . S
O92 Co66 2.155 . S
O92 C94 1.240 . S
O93 Co66 2.096 . S
O93 C74 1.247 . S
C94 O91 1.244 . S
C94 O92 1.240 . S
H95 C69 0.931 . S
H96 C78 0.931 . S
H97 C82 0.929 . S
H98 C84 0.930 . S
Co99 N103 2.148 . S
Co99 N109 2.128 . S
Co99 N119 2.194 1_554 S
Co99 O124 2.351 . S
Co99 O125 2.155 . S
Co99 O126 2.096 . S
C100 N103 1.301 . S
C100 N104 1.328 . S
C100 H105 0.930 . S
C101 C102 1.333 . S
C101 N103 1.317 . S
C101 H106 0.930 . S
C102 C101 1.333 . S
C102 N104 1.350 . S
C102 H128 0.931 . S
N103 Co99 2.148 . S
N103 C100 1.301 . S
N103 C101 1.317 . S
N104 C100 1.328 . S
N104 C102 1.350 . S
H105 C100 0.930 . S
H106 C101 0.930 . S
C107 O108 1.224 1_554 S
C107 O126 1.247 . S
O108 C107 1.224 1_556 S
N109 Co99 2.128 . S
N109 C110 1.355 . S
N109 C112 1.311 . S
C110 N109 1.355 . S
C110 C111 1.363 1_554 S
C110 H122 0.929 1_554 S
C111 C110 1.363 1_556 S
C111 N113 1.375 1_556 S
C111 H129 0.931 . S
C112 N109 1.311 . S
C112 N113 1.347 . S
C112 H123 0.929 . S
N113 C111 1.375 1_554 S
N113 C112 1.347 . S
C114 C117 1.365 . S
C114 N119 1.328 . S
C114 H120 0.929 . S
C115 C116 1.362 . S
C115 C118 1.378 . S
C115 H130 0.929 . S
C116 C115 1.362 . S
C116 C117 1.366 . S
C117 C114 1.365 . S
C117 C116 1.366 . S
C117 H131 0.930 . S
C118 C115 1.378 . S
C118 N119 1.315 . S
C118 H121 0.930 . S
N119 Co99 2.194 1_556 S
N119 C114 1.328 . S
N119 C118 1.315 . S
H120 C114 0.929 . S
H121 C118 0.930 . S
H122 C110 0.929 1_556 S
H123 C112 0.929 . S
O124 Co99 2.351 . S
O124 C127 1.244 . S
O125 Co99 2.155 . S
O125 C127 1.240 . S
O126 Co99 2.096 . S
O126 C107 1.247 . S
C127 O124 1.244 . S
C127 O125 1.240 . S
H128 C102 0.931 . S
H129 C111 0.931 . S
H130 C115 0.929 . S
H131 C117 0.930 . S
Co132 N136 2.148 . S
Co132 N142 2.128 . S
Co132 N152 2.194 . S
Co132 O157 2.351 . S
Co132 O158 2.155 . S
Co132 O159 2.096 . S
C133 N136 1.301 . S
C133 N137 1.328 . S
C133 H138 0.930 . S
C134 C135 1.333 . S
C134 N136 1.317 . S
C134 H139 0.930 . S
C135 C134 1.333 . S
C135 N137 1.350 . S
C135 H161 0.931 . S
N136 Co132 2.148 . S
N136 C133 1.301 . S
N136 C134 1.317 . S
N137 C133 1.328 . S
N137 C135 1.350 . S
H138 C133 0.930 . S
H139 C134 0.930 . S
C140 O141 1.224 . S
C140 O159 1.247 . S
O141 C140 1.224 . S
N142 Co132 2.128 . S
N142 C143 1.355 . S
N142 C145 1.311 . S
C143 N142 1.355 . S
C143 C144 1.363 . S
C143 H155 0.929 . S
C144 C143 1.363 . S
C144 N146 1.375 . S
C144 H162 0.931 . S
C145 N142 1.311 . S
C145 N146 1.347 . S
C145 H156 0.929 . S
N146 C144 1.375 . S
N146 C145 1.347 . S
C147 C150 1.365 . S
C147 N152 1.328 . S
C147 H153 0.929 . S
C148 C149 1.362 . S
C148 C151 1.378 . S
C148 H163 0.929 . S
C149 C148 1.362 . S
C149 C150 1.366 . S
C150 C147 1.365 . S
C150 C149 1.366 . S
C150 H164 0.930 . S
C151 C148 1.378 . S
C151 N152 1.315 . S
C151 H154 0.930 . S
N152 Co132 2.194 . S
N152 C147 1.328 . S
N152 C151 1.315 . S
H153 C147 0.929 . S
H154 C151 0.930 . S
H155 C143 0.929 . S
H156 C145 0.929 . S
O157 Co132 2.351 . S
O157 C160 1.244 . S
O158 Co132 2.155 . S
O158 C160 1.240 . S
O159 Co132 2.096 . S
O159 C140 1.247 . S
C160 O157 1.244 . S
C160 O158 1.240 . S
H161 C135 0.931 . S
H162 C144 0.931 . S
H163 C148 0.929 . S
H164 C150 0.930 . S
Co165 N169 2.148 . S
Co165 N175 2.128 . S
Co165 N185 2.194 . S
Co165 O190 2.351 . S
Co165 O191 2.155 . S
Co165 O192 2.096 . S
C166 N169 1.301 . S
C166 N170 1.328 . S
C166 H171 0.930 . S
C167 C168 1.333 . S
C167 N169 1.317 . S
C167 H172 0.930 . S
C168 C167 1.333 . S
C168 N170 1.350 . S
C168 H194 0.931 . S
N169 Co165 2.148 . S
N169 C166 1.301 . S
N169 C167 1.317 . S
N170 C166 1.328 . S
N170 C168 1.350 . S
H171 C166 0.930 . S
H172 C167 0.930 . S
C173 O174 1.224 . S
C173 O192 1.247 . S
O174 C173 1.224 . S
N175 Co165 2.128 . S
N175 C176 1.355 . S
N175 C178 1.311 . S
C176 N175 1.355 . S
C176 C177 1.363 . S
C176 H188 0.929 . S
C177 C176 1.363 . S
C177 N179 1.375 . S
C177 H195 0.931 . S
C178 N175 1.311 . S
C178 N179 1.347 . S
C178 H189 0.929 . S
N179 C177 1.375 . S
N179 C178 1.347 . S
C180 C183 1.365 . S
C180 N185 1.328 . S
C180 H186 0.929 . S
C181 C182 1.362 . S
C181 C184 1.378 . S
C181 H196 0.929 . S
C182 C181 1.362 . S
C182 C183 1.366 . S
C183 C180 1.365 . S
C183 C182 1.366 . S
C183 H197 0.930 . S
C184 C181 1.378 . S
C184 N185 1.315 . S
C184 H187 0.930 . S
N185 Co165 2.194 . S
N185 C180 1.328 . S
N185 C184 1.315 . S
H186 C180 0.929 . S
H187 C184 0.930 . S
H188 C176 0.929 . S
H189 C178 0.929 . S
O190 Co165 2.351 . S
O190 C193 1.244 . S
O191 Co165 2.155 . S
O191 C193 1.240 . S
O192 Co165 2.096 . S
O192 C173 1.247 . S
C193 O190 1.244 . S
C193 O191 1.240 . S
H194 C168 0.931 . S
H195 C177 0.931 . S
H196 C181 0.929 . S
H197 C183 0.930 . S
Co198 N202 2.148 . S
Co198 N208 2.128 . S
Co198 N218 2.194 . S
Co198 O223 2.351 . S
Co198 O224 2.155 . S
Co198 O225 2.096 . S
C199 N202 1.301 . S
C199 N203 1.328 . S
C199 H204 0.930 . S
C200 C201 1.333 . S
C200 N202 1.317 . S
C200 H205 0.930 . S
C201 C200 1.333 . S
C201 N203 1.350 . S
C201 H227 0.931 . S
N202 Co198 2.148 . S
N202 C199 1.301 . S
N202 C200 1.317 . S
N203 C199 1.328 . S
N203 C201 1.350 . S
H204 C199 0.930 . S
H205 C200 0.930 . S
C206 O207 1.224 . S
C206 O225 1.247 . S
O207 C206 1.224 . S
N208 Co198 2.128 . S
N208 C209 1.355 . S
N208 C211 1.311 . S
C209 N208 1.355 . S
C209 C210 1.363 . S
C209 H221 0.929 . S
C210 C209 1.363 . S
C210 N212 1.375 . S
C210 H228 0.931 . S
C211 N208 1.311 . S
C211 N212 1.347 . S
C211 H222 0.929 . S
N212 C210 1.375 . S
N212 C211 1.347 . S
C213 C216 1.365 . S
C213 N218 1.328 . S
C213 H219 0.929 . S
C214 C215 1.362 . S
C214 C217 1.378 . S
C214 H229 0.929 . S
C215 C214 1.362 . S
C215 C216 1.366 . S
C216 C213 1.365 . S
C216 C215 1.366 . S
C216 H230 0.930 . S
C217 C214 1.378 . S
C217 N218 1.315 . S
C217 H220 0.930 . S
N218 Co198 2.194 . S
N218 C213 1.328 . S
N218 C217 1.315 . S
H219 C213 0.929 . S
H220 C217 0.930 . S
H221 C209 0.929 . S
H222 C211 0.929 . S
O223 Co198 2.351 . S
O223 C226 1.244 . S
O224 Co198 2.155 . S
O224 C226 1.240 . S
O225 Co198 2.096 . S
O225 C206 1.247 . S
C226 O223 1.244 . S
C226 O224 1.240 . S
H227 C201 0.931 . S
H228 C210 0.931 . S
H229 C214 0.929 . S
H230 C216 0.930 . S
Co231 N235 2.148 . S
Co231 N241 2.128 . S
Co231 N251 2.194 . S
Co231 O256 2.351 . S
Co231 O257 2.155 . S
Co231 O258 2.096 . S
C232 N235 1.301 . S
C232 N236 1.328 . S
C232 H237 0.930 . S
C233 C234 1.333 . S
C233 N235 1.317 . S
C233 H238 0.930 . S
C234 C233 1.333 . S
C234 N236 1.350 . S
C234 H260 0.931 . S
N235 Co231 2.148 . S
N235 C232 1.301 . S
N235 C233 1.317 . S
N236 C232 1.328 . S
N236 C234 1.350 . S
H237 C232 0.930 . S
H238 C233 0.930 . S
C239 O240 1.224 . S
C239 O258 1.247 . S
O240 C239 1.224 . S
N241 Co231 2.128 . S
N241 C242 1.355 . S
N241 C244 1.311 . S
C242 N241 1.355 . S
C242 C243 1.363 . S
C242 H254 0.929 . S
C243 C242 1.363 . S
C243 N245 1.375 . S
C243 H261 0.931 . S
C244 N241 1.311 . S
C244 N245 1.347 . S
C244 H255 0.929 . S
N245 C243 1.375 . S
N245 C244 1.347 . S
C246 C249 1.365 . S
C246 N251 1.328 . S
C246 H252 0.929 . S
C247 C248 1.362 . S
C247 C250 1.378 . S
C247 H262 0.929 . S
C248 C247 1.362 . S
C248 C249 1.366 . S
C249 C246 1.365 . S
C249 C248 1.366 . S
C249 H263 0.930 . S
C250 C247 1.378 . S
C250 N251 1.315 . S
C250 H253 0.930 . S
N251 Co231 2.194 . S
N251 C246 1.328 . S
N251 C250 1.315 . S
H252 C246 0.929 . S
H253 C250 0.930 . S
H254 C242 0.929 . S
H255 C244 0.929 . S
O256 Co231 2.351 . S
O256 C259 1.244 . S
O257 Co231 2.155 . S
O257 C259 1.240 . S
O258 Co231 2.096 . S
O258 C239 1.247 . S
C259 O256 1.244 . S
C259 O257 1.240 . S
H260 C234 0.931 . S
H261 C243 0.931 . S
H262 C247 0.929 . S
H263 C249 0.930 . S
C264 C265 1.363 . S
C264 C270 1.379 . S
C264 N272 1.356 . S
C265 C264 1.363 . S
C265 C271 1.361 1_554 S
C266 C267 1.363 . S
C266 C271 1.377 1_554 S
C266 N273 1.356 . S
C267 C266 1.363 . S
C267 C270 1.363 . S
N268 C270 1.356 . S
N268 H280 0.984 . S
N268 H281 0.985 . S
N269 C271 1.360 . S
N269 H274 0.984 . S
N269 H275 0.985 . S
C270 C264 1.379 . S
C270 C267 1.363 . S
C270 N268 1.356 . S
C271 C265 1.361 1_556 S
C271 C266 1.377 1_556 S
C271 N269 1.360 . S
N272 C264 1.356 . S
N272 H278 0.984 . S
N272 H279 0.984 . S
N273 C266 1.356 . S
N273 H276 0.984 . S
N273 H277 0.985 1_554 S
H274 N269 0.984 . S
H275 N269 0.985 . S
H276 N273 0.984 . S
H277 N273 0.985 1_556 S
H278 N272 0.984 . S
H279 N272 0.984 . S
H280 N268 0.984 . S
H281 N268 0.985 . S
C282 C283 1.363 . S
C282 C288 1.379 . S
C282 N290 1.356 . S
C283 C282 1.363 . S
C283 C289 1.363 1_554 S
C284 C285 1.363 1_556 S
C284 C289 1.379 . S
C284 N291 1.356 . S
C285 C284 1.363 1_554 S
C285 C288 1.363 . S
N286 C288 1.356 . S
N286 H298 0.984 . S
N286 H299 0.985 . S
N287 C289 1.356 . S
N287 H292 0.984 . S
N287 H293 0.985 . S
C288 C282 1.379 . S
C288 C285 1.363 . S
C288 N286 1.356 . S
C289 C283 1.363 1_556 S
C289 C284 1.379 . S
C289 N287 1.356 . S
N290 C282 1.356 . S
N290 H296 0.984 . S
N290 H297 0.984 . S
N291 C284 1.356 . S
N291 H294 0.984 . S
N291 H295 0.985 . S
H292 N287 0.984 . S
H293 N287 0.985 . S
H294 N291 0.984 . S
H295 N291 0.985 . S
H296 N290 0.984 . S
H297 N290 0.984 . S
H298 N286 0.984 . S
H299 N286 0.985 . S
C300 C301 1.363 . S
C300 C306 1.379 . S
C300 N308 1.356 . S
C301 C300 1.363 . S
C301 C307 1.363 1_554 S
C302 C303 1.363 1_556 S
C302 C307 1.379 . S
C302 N309 1.356 . S
C303 C302 1.363 1_554 S
C303 C306 1.363 . S
N304 C306 1.356 . S
N304 H316 0.984 . S
N304 H317 0.985 . S
N305 C307 1.356 . S
N305 H310 0.984 1_556 S
N305 H311 0.985 . S
C306 C300 1.379 . S
C306 C303 1.363 . S
C306 N304 1.356 . S
C307 C301 1.363 1_556 S
C307 C302 1.379 . S
C307 N305 1.356 . S
N308 C300 1.356 . S
N308 H314 0.984 . S
N308 H315 0.984 . S
N309 C302 1.356 . S
N309 H312 0.984 . S
N309 H313 0.985 . S
H310 N305 0.984 1_554 S
H311 N305 0.985 . S
H312 N309 0.984 . S
H313 N309 0.985 . S
H314 N308 0.984 . S
H315 N308 0.984 . S
H316 N304 0.984 . S
H317 N304 0.985 . S
C318 C319 1.363 . S
C318 C324 1.379 . S
C318 N326 1.356 . S
C319 C318 1.363 . S
C319 C325 1.363 1_554 S
C320 C321 1.363 1_556 S
C320 C325 1.379 . S
C320 N327 1.356 . S
C321 C320 1.363 1_554 S
C321 C324 1.363 . S
N322 C324 1.356 . S
N322 H334 0.984 . S
N322 H335 0.985 . S
N323 C325 1.356 . S
N323 H328 0.984 . S
N323 H329 0.985 . S
C324 C318 1.379 . S
C324 C321 1.363 . S
C324 N322 1.356 . S
C325 C319 1.363 1_556 S
C325 C320 1.379 . S
C325 N323 1.356 . S
N326 C318 1.356 . S
N326 H332 0.984 . S
N326 H333 0.984 . S
N327 C320 1.356 . S
N327 H330 0.984 . S
N327 H331 0.985 . S
H328 N323 0.984 . S
H329 N323 0.985 . S
H330 N327 0.984 . S
H331 N327 0.985 . S
H332 N326 0.984 . S
H333 N326 0.984 . S
H334 N322 0.984 . S
H335 N322 0.985 . S
C336 C337 1.363 1_655 S
C336 C342 1.379 . S
C336 N344 1.356 1_655 S
C337 C336 1.363 1_455 S
C337 C343 1.363 1_455 S
C338 C339 1.363 . S
C338 C343 1.379 . S
C338 N345 1.356 . S
C339 C338 1.363 . S
C339 C342 1.363 . S
N340 C342 1.356 . S
N340 H352 0.984 . S
N340 H353 0.985 . S
N341 C343 1.356 . S
N341 H346 0.984 1_655 S
N341 H347 0.985 . S
C342 C336 1.379 . S
C342 C339 1.363 . S
C342 N340 1.356 . S
C343 C337 1.363 1_655 S
C343 C338 1.379 . S
C343 N341 1.356 . S
N344 C336 1.356 1_455 S
N344 H350 0.984 . S
N344 H351 0.984 . S
N345 C338 1.356 . S
N345 H348 0.984 . S
N345 H349 0.985 . S
H346 N341 0.984 1_455 S
H347 N341 0.985 . S
H348 N345 0.984 . S
H349 N345 0.985 . S
H350 N344 0.984 . S
H351 N344 0.984 . S
H352 N340 0.984 . S
H353 N340 0.985 . S
C354 C355 1.363 1_565 S
C354 C360 1.379 . S
C354 N362 1.356 1_565 S
C355 C354 1.363 1_545 S
C355 C361 1.363 1_545 S
C356 C357 1.363 . S
C356 C361 1.379 . S
C356 N363 1.356 . S
C357 C356 1.363 . S
C357 C360 1.363 . S
N358 C360 1.356 . S
N358 H370 0.984 . S
N358 H371 0.985 . S
N359 C361 1.356 1_545 S
N359 H364 0.984 . S
N359 H365 0.985 . S
C360 C354 1.379 . S
C360 C357 1.363 . S
C360 N358 1.356 . S
C361 C355 1.363 1_565 S
C361 C356 1.379 . S
C361 N359 1.356 1_565 S
N362 C354 1.356 1_545 S
N362 H368 0.988 . S
N362 H369 0.984 . S
N363 C356 1.356 . S
N363 H366 0.984 . S
N363 H367 0.985 . S
H364 N359 0.984 . S
H365 N359 0.985 . S
H366 N363 0.984 . S
H367 N363 0.985 . S
H368 N362 0.988 . S
H369 N362 0.984 . S
H370 N358 0.984 . S
H371 N358 0.985 . S
C372 C373 1.363 . S
C372 C378 1.379 . S
C372 N380 1.356 . S
C373 C372 1.363 . S
C373 C379 1.363 . S
C374 C375 1.363 1_455 S
C374 C379 1.379 . S
C374 N381 1.356 . S
C375 C374 1.363 1_655 S
C375 C378 1.363 1_655 S
N376 C378 1.356 1_655 S
N376 H388 0.984 . S
N376 H389 0.985 . S
N377 C379 1.356 . S
N377 H382 0.984 . S
N377 H383 0.985 . S
C378 C372 1.379 . S
C378 C375 1.363 1_455 S
C378 N376 1.356 1_455 S
C379 C373 1.363 . S
C379 C374 1.379 . S
C379 N377 1.356 . S
N380 C372 1.356 . S
N380 H386 0.984 . S
N380 H387 0.984 . S
N381 C374 1.356 . S
N381 H384 0.984 1_455 S
N381 H385 0.985 . S
H382 N377 0.984 . S
H383 N377 0.985 . S
H384 N381 0.984 1_655 S
H385 N381 0.985 . S
H386 N380 0.984 . S
H387 N380 0.984 . S
H388 N376 0.984 . S
H389 N376 0.985 . S
C390 C391 1.363 . S
C390 C396 1.379 . S
C390 N398 1.356 . S
C391 C390 1.363 . S
C391 C397 1.363 . S
C392 C393 1.363 1_545 S
C392 C397 1.379 . S
C392 N399 1.356 1_545 S
C393 C392 1.363 1_565 S
C393 C396 1.363 1_565 S
N394 C396 1.356 . S
N394 H406 0.984 . S
N394 H407 0.985 1_545 S
N395 C397 1.356 . S
N395 H400 0.984 . S
N395 H401 0.985 . S
C396 C390 1.379 . S
C396 C393 1.363 1_545 S
C396 N394 1.356 . S
C397 C391 1.363 . S
C397 C392 1.379 . S
C397 N395 1.356 . S
N398 C390 1.356 . S
N398 H404 0.984 . S
N398 H405 0.984 . S
N399 C392 1.356 1_565 S
N399 H402 0.984 . S
N399 H403 0.985 . S
H400 N395 0.984 . S
H401 N395 0.985 . S
H402 N399 0.984 . S
H403 N399 0.985 . S
H404 N398 0.984 . S
H405 N398 0.984 . S
H406 N394 0.984 . S
H407 N394 0.985 1_565 S
C408 C409 1.363 . S
C408 C414 1.379 . S
C408 N416 1.356 . S
C409 C408 1.363 . S
C409 C415 1.363 . S
C410 C411 1.363 . S
C410 C415 1.379 . S
C410 N417 1.356 . S
C411 C410 1.363 . S
C411 C414 1.363 . S
N412 C414 1.356 . S
N412 H424 0.984 . S
N412 H425 0.985 . S
N413 C415 1.356 . S
N413 H418 0.984 . S
N413 H419 0.985 . S
C414 C408 1.379 . S
C414 C411 1.363 . S
C414 N412 1.356 . S
C415 C409 1.363 . S
C415 C410 1.379 . S
C415 N413 1.356 . S
N416 C408 1.356 . S
N416 H422 0.984 . S
N416 H423 0.984 . S
N417 C410 1.356 . S
N417 H420 0.984 . S
N417 H421 0.985 . S
H418 N413 0.984 . S
H419 N413 0.985 . S
H420 N417 0.984 . S
H421 N417 0.985 . S
H422 N416 0.984 . S
H423 N416 0.984 . S
H424 N412 0.984 . S
H425 N412 0.985 . S
C426 C427 1.363 . S
C426 C432 1.379 . S
C426 N434 1.356 . S
C427 C426 1.363 . S
C427 C433 1.363 . S
C428 C429 1.363 . S
C428 C433 1.379 . S
C428 N435 1.356 . S
C429 C428 1.363 . S
C429 C432 1.363 . S
N430 C432 1.356 . S
N430 H442 0.984 . S
N430 H443 0.985 . S
N431 C433 1.356 . S
N431 H436 0.984 . S
N431 H437 0.985 . S
C432 C426 1.379 . S
C432 C429 1.363 . S
C432 N430 1.356 . S
C433 C427 1.363 . S
C433 C428 1.379 . S
C433 N431 1.356 . S
N434 C426 1.356 . S
N434 H440 0.984 . S
N434 H441 0.984 . S
N435 C428 1.356 . S
N435 H438 0.984 . S
N435 H439 0.985 . S
H436 N431 0.984 . S
H437 N431 0.985 . S
H438 N435 0.984 . S
H439 N435 0.985 . S
H440 N434 0.984 . S
H441 N434 0.984 . S
H442 N430 0.984 . S
H443 N430 0.985 . S
C444 C445 1.363 . S
C444 C450 1.379 . S
C444 N452 1.356 . S
C445 C444 1.363 . S
C445 C451 1.363 . S
C446 C447 1.363 . S
C446 C451 1.379 . S
C446 N453 1.356 . S
C447 C446 1.363 . S
C447 C450 1.363 . S
N448 C450 1.356 . S
N448 H460 0.984 . S
N448 H461 0.985 . S
N449 C451 1.356 . S
N449 H454 0.984 . S
N449 H455 0.985 . S
C450 C444 1.379 . S
C450 C447 1.363 . S
C450 N448 1.356 . S
C451 C445 1.363 . S
C451 C446 1.379 . S
C451 N449 1.356 . S
N452 C444 1.356 . S
N452 H458 0.984 . S
N452 H459 0.984 . S
N453 C446 1.356 . S
N453 H456 0.984 . S
N453 H457 0.985 . S
H454 N449 0.984 . S
H455 N449 0.985 . S
H456 N453 0.984 . S
H457 N453 0.985 . S
H458 N452 0.984 . S
H459 N452 0.984 . S
H460 N448 0.984 . S
H461 N448 0.985 . S
C462 C463 1.363 . S
C462 C468 1.379 . S
C462 N470 1.356 . S
C463 C462 1.363 . S
C463 C469 1.363 . S
C464 C465 1.363 . S
C464 C469 1.379 . S
C464 N471 1.356 . S
C465 C464 1.363 . S
C465 C468 1.363 . S
N466 C468 1.356 . S
N466 H478 0.984 . S
N466 H479 0.985 . S
N467 C469 1.356 . S
N467 H472 0.984 . S
N467 H473 0.985 . S
C468 C462 1.379 . S
C468 C465 1.363 . S
C468 N466 1.356 . S
C469 C463 1.363 . S
C469 C464 1.379 . S
C469 N467 1.356 . S
N470 C462 1.356 . S
N470 H476 0.984 . S
N470 H477 0.984 . S
N471 C464 1.356 . S
N471 H474 0.984 . S
N471 H475 0.985 . S
H472 N467 0.984 . S
H473 N467 0.985 . S
H474 N471 0.984 . S
H475 N471 0.985 . S
H476 N470 0.984 . S
H477 N470 0.984 . S
H478 N466 0.984 . S
H479 N466 0.985 . S
C480 C481 1.363 . S
C480 C486 1.379 . S
C480 N488 1.356 . S
C481 C480 1.363 . S
C481 C487 1.363 . S
C482 C483 1.363 . S
C482 C487 1.379 . S
C482 N489 1.356 . S
C483 C482 1.363 . S
C483 C486 1.363 . S
N484 C486 1.356 . S
N484 H496 0.984 . S
N484 H497 0.985 . S
N485 C487 1.356 . S
N485 H490 0.984 . S
N485 H491 0.985 . S
C486 C480 1.379 . S
C486 C483 1.363 . S
C486 N484 1.356 . S
C487 C481 1.363 . S
C487 C482 1.379 . S
C487 N485 1.356 . S
N488 C480 1.356 . S
N488 H494 0.984 . S
N488 H495 0.984 . S
N489 C482 1.356 . S
N489 H492 0.984 . S
N489 H493 0.985 . S
H490 N485 0.984 . S
H491 N485 0.985 . S
H492 N489 0.984 . S
H493 N489 0.985 . S
H494 N488 0.984 . S
H495 N488 0.984 . S
H496 N484 0.984 . S
H497 N484 0.985 . S
C498 C499 1.363 . S
C498 C504 1.379 . S
C498 N506 1.356 . S
C499 C498 1.363 . S
C499 C505 1.363 . S
C500 C501 1.363 . S
C500 C505 1.379 . S
C500 N507 1.356 . S
C501 C500 1.363 . S
C501 C504 1.363 . S
N502 C504 1.356 . S
N502 H514 0.984 . S
N502 H515 0.985 . S
N503 C505 1.356 . S
N503 H508 0.984 . S
N503 H509 0.985 . S
C504 C498 1.379 . S
C504 C501 1.363 . S
C504 N502 1.356 . S
C505 C499 1.363 . S
C505 C500 1.379 . S
C505 N503 1.356 . S
N506 C498 1.356 . S
N506 H512 0.984 . S
N506 H513 0.984 . S
N507 C500 1.356 . S
N507 H510 0.984 . S
N507 H511 0.985 . S
H508 N503 0.984 . S
H509 N503 0.985 . S
H510 N507 0.984 . S
H511 N507 0.985 . S
H512 N506 0.984 . S
H513 N506 0.984 . S
H514 N502 0.984 . S
H515 N502 0.985 . S
C516 C517 1.363 . S
C516 C522 1.379 . S
C516 N524 1.356 . S
C517 C516 1.363 . S
C517 C523 1.363 . S
C518 C519 1.363 . S
C518 C523 1.379 . S
C518 N525 1.356 . S
C519 C518 1.363 . S
C519 C522 1.363 . S
N520 C522 1.356 . S
N520 H532 0.984 . S
N520 H533 0.985 . S
N521 C523 1.356 . S
N521 H526 0.984 . S
N521 H527 0.985 . S
C522 C516 1.379 . S
C522 C519 1.363 . S
C522 N520 1.356 . S
C523 C517 1.363 . S
C523 C518 1.379 . S
C523 N521 1.356 . S
N524 C516 1.356 . S
N524 H530 0.984 . S
N524 H531 0.984 . S
N525 C518 1.356 . S
N525 H528 0.984 . S
N525 H529 0.985 . S
H526 N521 0.984 . S
H527 N521 0.985 . S
H528 N525 0.984 . S
H529 N525 0.985 . S
H530 N524 0.984 . S
H531 N524 0.984 . S
H532 N520 0.984 . S
H533 N520 0.985 . S
C534 C535 1.363 . S
C534 C540 1.379 . S
C534 N542 1.356 . S
C535 C534 1.363 . S
C535 C541 1.363 . S
C536 C537 1.363 . S
C536 C541 1.379 . S
C536 N543 1.356 . S
C537 C536 1.363 . S
C537 C540 1.363 . S
N538 C540 1.356 . S
N538 H550 0.984 . S
N538 H551 0.985 . S
N539 C541 1.356 . S
N539 H544 0.984 . S
N539 H545 0.985 . S
C540 C534 1.379 . S
C540 C537 1.363 . S
C540 N538 1.356 . S
C541 C535 1.363 . S
C541 C536 1.379 . S
C541 N539 1.356 . S
N542 C534 1.356 . S
N542 H548 0.984 . S
N542 H549 0.984 . S
N543 C536 1.356 . S
N543 H546 0.984 . S
N543 H547 0.985 . S
H544 N539 0.984 . S
H545 N539 0.985 . S
H546 N543 0.984 . S
H547 N543 0.985 . S
H548 N542 0.984 . S
H549 N542 0.984 . S
H550 N538 0.984 . S
H551 N538 0.985 . S
C552 C553 1.363 . S
C552 C558 1.379 1_655 S
C552 N560 1.356 . S
C553 C552 1.363 . S
C553 C559 1.363 1_554 S
C554 C555 1.363 1_556 S
C554 C559 1.379 1_455 S
C554 N561 1.356 . S
C555 C554 1.363 1_554 S
C555 C558 1.363 . S
N556 C558 1.356 . S
N556 H568 0.984 . S
N556 H569 0.985 . S
N557 C559 1.356 . S
N557 H562 0.984 . S
N557 H563 0.985 . S
C558 C552 1.379 1_455 S
C558 C555 1.363 . S
C558 N556 1.356 . S
C559 C553 1.363 1_556 S
C559 C554 1.379 1_655 S
C559 N557 1.356 . S
N560 C552 1.356 . S
N560 H566 0.984 1_655 S
N560 H567 0.984 . S
N561 C554 1.356 . S
N561 H564 0.984 . S
N561 H565 0.985 1_455 S
H562 N557 0.984 . S
H563 N557 0.985 . S
H564 N561 0.984 . S
H565 N561 0.985 1_655 S
H566 N560 0.984 1_455 S
H567 N560 0.984 . S
H568 N556 0.984 . S
H569 N556 0.985 . S
C570 C571 1.363 1_556 S
C570 C576 1.379 1_545 S
C570 N578 1.356 . S
C571 C570 1.363 1_554 S
C571 C577 1.363 . S
C572 C573 1.363 . S
C572 C577 1.379 1_565 S
C572 N579 1.356 . S
C573 C572 1.363 . S
C573 C576 1.363 1_554 S
N574 C576 1.356 . S
N574 H586 0.984 1_565 S
N574 H587 0.985 . S
N575 C577 1.356 . S
N575 H580 0.984 . S
N575 H581 0.985 1_545 S
C576 C570 1.379 1_565 S
C576 C573 1.363 1_556 S
C576 N574 1.356 . S
C577 C571 1.363 . S
C577 C572 1.379 1_545 S
C577 N575 1.356 . S
N578 C570 1.356 . S
N578 H584 0.984 . S
N578 H585 0.984 . S
N579 C572 1.356 . S
N579 H582 0.984 . S
N579 H583 0.985 . S
H580 N575 0.984 . S
H581 N575 0.985 1_565 S
H582 N579 0.984 . S
H583 N579 0.985 . S
H584 N578 0.984 . S
H585 N578 0.984 . S
H586 N574 0.984 1_545 S
H587 N574 0.985 . S
C588 C589 1.349 1_565 S
C588 C594 1.393 . S
C588 N596 1.352 1_565 S
C589 C588 1.349 1_545 S
C589 C595 1.363 . S
C590 C591 1.349 1_545 S
C590 C595 1.393 . S
C590 N597 1.352 1_545 S
C591 C590 1.349 1_565 S
C591 C594 1.363 . S
N592 C594 1.356 . S
N592 H604 0.984 . S
N592 H605 0.985 . S
N593 C595 1.356 . S
N593 H598 0.984 . S
N593 H599 0.985 . S
C594 C588 1.393 . S
C594 C591 1.363 . S
C594 N592 1.356 . S
C595 C589 1.363 . S
C595 C590 1.393 . S
C595 N593 1.356 . S
N596 C588 1.352 1_545 S
N596 H602 0.984 1_545 S
N596 H603 0.984 . S
N597 C590 1.352 1_565 S
N597 H600 0.984 . S
N597 H601 0.985 1_565 S
H598 N593 0.984 . S
H599 N593 0.985 . S
H600 N597 0.984 . S
H601 N597 0.985 1_545 S
H602 N596 0.984 1_565 S
H603 N596 0.984 . S
H604 N592 0.984 . S
H605 N592 0.985 . S
C606 C607 1.363 . S
C606 C612 1.393 . S
C606 N614 1.356 . S
C607 C606 1.363 . S
C607 C613 1.349 1_455 S
C608 C609 1.363 . S
C608 C613 1.393 . S
C608 N615 1.356 . S
C609 C608 1.363 . S
C609 C612 1.349 1_655 S
N610 C612 1.352 1_655 S
N610 H622 0.984 1_655 S
N610 H623 0.985 . S
N611 C613 1.352 1_455 S
N611 H616 0.984 . S
N611 H617 0.985 1_455 S
C612 C606 1.393 . S
C612 C609 1.349 1_455 S
C612 N610 1.352 1_455 S
C613 C607 1.349 1_655 S
C613 C608 1.393 . S
C613 N611 1.352 1_655 S
N614 C606 1.356 . S
N614 H620 0.984 . S
N614 H621 0.984 . S
N615 C608 1.356 . S
N615 H618 0.984 . S
N615 H619 0.985 . S
H616 N611 0.984 . S
H617 N611 0.985 1_655 S
H618 N615 0.984 . S
H619 N615 0.985 . S
H620 N614 0.984 . S
H621 N614 0.984 . S
H622 N610 0.984 1_455 S
H623 N610 0.985 . S
C265 C41 1.029 . S
C267 N5 1.003 . S
C283 N38 1.003 . S
C285 C74 1.029 . S
C301 N71 1.003 . S
C303 C107 1.029 . S
C319 C8 1.029 . S
C321 N104 1.003 . S
C337 C173 1.029 . S
C339 N137 1.003 . S
C355 C206 1.029 . S
C357 N170 1.003 . S
C373 N203 1.003 . S
C375 C239 1.029 . S
C391 N236 1.003 . S
C393 C140 1.029 . S
C409 C215 1.565 . S
C411 C28 1.606 . S
C427 C61 1.608 . S
C429 C248 1.563 . S
C445 C94 1.608 . S
C447 C149 1.563 . S
C463 C127 1.608 . S
C465 C182 1.563 . S
C481 C160 1.608 . S
C483 C83 1.568 . S
C499 C193 1.608 . S
C501 C116 1.568 . S
C517 C226 1.608 . S
C519 C17 1.568 . S
C535 C50 1.565 . S
C537 C259 1.610 . S
C553 N80 2.028 . S
C555 N14 2.028 . S
C571 N47 2.028 . S
C573 N113 2.028 . S
C589 N212 2.028 . S
C591 N146 2.028 . S
C607 N179 2.028 . S
C609 N245 2.028 . S
