# Generated by pormake.
# Topology rac, (4)-cn, num edge types: 1
# Building blocks:
#     Node 0, Type 0, BuildingBlock: UXUYUI_clean_sbu_0, # of connection points: 4
#     Node 1, Type 0, BuildingBlock: UXUYUI_clean_sbu_0, # of connection points: 4
#     Node 2, Type 0, BuildingBlock: UXUYUI_clean_sbu_0, # of connection points: 4
#     Node 3, Type 0, BuildingBlock: UXUYUI_clean_sbu_0, # of connection points: 4
#     Node 4, Type 0, BuildingBlock: UXUYUI_clean_sbu_0, # of connection points: 4
#     Node 5, Type 0, BuildingBlock: UXUYUI_clean_sbu_0, # of connection points: 4
#     Node 6, Type 0, BuildingBlock: UXUYUI_clean_sbu_0, # of connection points: 4
#     Node 7, Type 0, BuildingBlock: UXUYUI_clean_sbu_0, # of connection points: 4
#     Edge 8, Type (0, 0), BuildingBlock: XUDNAN_clean_linker_2, # of connection points: 2
#     Edge 9, Type (0, 0), BuildingBlock: XUDNAN_clean_linker_2, # of connection points: 2
#     Edge 10, Type (0, 0), BuildingBlock: XUDNAN_clean_linker_2, # of connection points: 2
#     Edge 11, Type (0, 0), BuildingBlock: XUDNAN_clean_linker_2, # of connection points: 2
#     Edge 12, Type (0, 0), BuildingBlock: XUDNAN_clean_linker_2, # of connection points: 2
#     Edge 13, Type (0, 0), BuildingBlock: XUDNAN_clean_linker_2, # of connection points: 2
#     Edge 14, Type (0, 0), BuildingBlock: XUDNAN_clean_linker_2, # of connection points: 2
#     Edge 15, Type (0, 0), BuildingBlock: XUDNAN_clean_linker_2, # of connection points: 2
#     Edge 16, Type (0, 0), BuildingBlock: XUDNAN_clean_linker_2, # of connection points: 2
#     Edge 17, Type (0, 0), BuildingBlock: XUDNAN_clean_linker_2, # of connection points: 2
#     Edge 18, Type (0, 0), BuildingBlock: XUDNAN_clean_linker_2, # of connection points: 2
#     Edge 19, Type (0, 0), BuildingBlock: XUDNAN_clean_linker_2, # of connection points: 2
#     Edge 20, Type (0, 0), BuildingBlock: XUDNAN_clean_linker_2, # of connection points: 2
#     Edge 21, Type (0, 0), BuildingBlock: XUDNAN_clean_linker_2, # of connection points: 2
#     Edge 22, Type (0, 0), BuildingBlock: XUDNAN_clean_linker_2, # of connection points: 2
#     Edge 23, Type (0, 0), BuildingBlock: XUDNAN_clean_linker_2, # of connection points: 2
# Relax obj value: 0.361
# Max RMSD: 0.174
# Mean RMSD: 0.174
data_MOF--net-rac--node1-UXUYUI_clean_sbu_0--edge1-XUDNAN_clean_linker_2
_symmetry_space_group_name_H-M    P1
_symmetry_Int_Tables_number       1
_symmetry_cell_setting            triclinic
loop_
_symmetry_equiv_pos_as_xyz
'x, y, z'
_cell_length_a     57.129507
_cell_length_b     29.40749
_cell_length_c     61.672644
_cell_angle_alpha  89.990655
_cell_angle_beta   90.025853
_cell_angle_gamma 89.961771
loop_
_atom_site_label
_atom_site_type_symbol
_atom_site_fract_x
_atom_site_fract_y
_atom_site_fract_z
_atom_type_partial_charge
Li0 Li 0.40865 0.27457 0.06567 0.0
Li1 Li 0.39894 0.24248 0.10277 0.0
Li2 Li 0.37578 0.21943 0.06962 0.0
Li3 Li 0.37321 0.29472 0.08411 0.0
C4 C 0.429 0.18547 0.0691 0.0
N5 N 0.46794 0.13842 0.05485 0.0
C6 C 0.45059 0.1916 0.07932 0.0
C7 C 0.42709 0.15469 0.05192 0.0
C8 C 0.47011 0.16773 0.07179 0.0
C9 C 0.44702 0.13142 0.04487 0.0
C10 C 0.40513 0.34623 0.10327 0.0
C11 C 0.39718 0.39399 0.13418 0.0
N12 N 0.40254 0.43128 0.12211 0.0
C13 C 0.41066 0.38498 0.0912 0.0
C14 C 0.39841 0.35068 0.12496 0.0
C15 C 0.40921 0.4277 0.10101 0.0
C16 C 0.42779 0.33451 0.03369 0.0
N17 N 0.43346 0.30575 0.05021 0.0
C18 C 0.47093 0.34165 0.05381 0.0
C19 C 0.45478 0.30823 0.05997 0.0
C20 C 0.46501 0.37345 0.03764 0.0
C21 C 0.44342 0.36836 0.027 0.0
H22 H 0.4104 0.33411 0.02689 0.0
H23 H 0.45859 0.28674 0.07373 0.0
C24 C 0.39623 0.2141 0.14652 0.0
N25 N 0.41088 0.23036 0.131 0.0
C26 C 0.40247 0.21667 0.16841 0.0
C27 C 0.4393 0.25028 0.15781 0.0
C28 C 0.43227 0.24743 0.13616 0.0
C29 C 0.42398 0.23634 0.17438 0.0
H30 H 0.37906 0.20195 0.14202 0.0
H31 H 0.44323 0.26163 0.12358 0.0
C32 C 0.37601 0.27246 0.03136 0.0
N33 N 0.37497 0.25971 0.98699 0.0
C34 C 0.35947 0.29535 0.0187 0.0
C35 C 0.39213 0.24343 0.02145 0.0
C36 C 0.35919 0.28835 0.9963 0.0
C37 C 0.3913 0.23735 0.999 0.0
C38 C 0.34047 0.23215 0.09911 0.0
C39 C 0.32684 0.24974 0.08221 0.0
C40 C 0.32975 0.20686 0.11552 0.0
C41 C 0.30274 0.24176 0.08206 0.0
C42 C 0.30559 0.19963 0.11478 0.0
N43 N 0.2927 0.21706 0.0982 0.0
C44 C 0.35276 0.1336 0.07149 0.0
C45 C 0.34219 0.17757 0.0409 0.0
C46 C 0.33486 0.1023 0.067 0.0
N47 N 0.35595 0.17074 0.05863 0.0
C48 C 0.32429 0.14708 0.03574 0.0
C49 C 0.32009 0.10914 0.04904 0.0
H50 H 0.36339 0.12946 0.08588 0.0
H51 H 0.34405 0.20792 0.03132 0.0
C52 C 0.3545 0.37897 0.07411 0.0
N53 N 0.35418 0.34546 0.08924 0.0
C54 C 0.34204 0.41896 0.0776 0.0
C55 C 0.32894 0.3887 0.11204 0.0
C56 C 0.34189 0.34945 0.10799 0.0
C57 C 0.32906 0.42403 0.09675 0.0
H58 H 0.36473 0.37474 0.05949 0.0
H59 H 0.3424 0.3224 0.11986 0.0
O60 O 0.40962 0.20822 0.07634 0.0
O61 O 0.40583 0.30421 0.09379 0.0
O62 O 0.37642 0.27903 0.0533 0.0
O63 O 0.36425 0.23821 0.09926 0.0
H64 H 0.45228 0.21459 0.09289 0.0
H65 H 0.41037 0.14872 0.04415 0.0
H66 H 0.48698 0.17241 0.07946 0.0
H67 H 0.44582 0.10769 0.03152 0.0
H68 H 0.39186 0.39798 0.1509 0.0
H69 H 0.41576 0.38219 0.07436 0.0
H70 H 0.39386 0.32107 0.13448 0.0
H71 H 0.41331 0.45801 0.09183 0.0
H72 H 0.48741 0.34398 0.06241 0.0
H73 H 0.43784 0.39247 0.01477 0.0
H74 H 0.38989 0.20609 0.18053 0.0
H75 H 0.45618 0.26509 0.16154 0.0
H76 H 0.34692 0.31809 0.02615 0.0
H77 H 0.40532 0.22635 0.03094 0.0
H78 H 0.34643 0.30568 0.9863 0.0
H79 H 0.4037 0.21498 0.99112 0.0
H80 H 0.33473 0.269 0.06922 0.0
H81 H 0.33998 0.19258 0.12861 0.0
H82 H 0.29204 0.25505 0.06904 0.0
H83 H 0.2971 0.18001 0.12736 0.0
H84 H 0.33238 0.07349 0.07769 0.0
H85 H 0.31311 0.15447 0.02199 0.0
H86 H 0.34226 0.44533 0.06533 0.0
H87 H 0.31918 0.39167 0.12703 0.0
Li88 Li 0.09837 0.73416 0.06488 0.0
Li89 Li 0.10531 0.76846 0.10009 0.0
Li90 Li 0.12647 0.79884 0.06592 0.0
Li91 Li 0.13545 0.72604 0.08145 0.0
C92 C 0.06854 0.80737 0.0698 0.0
N93 N 0.02152 0.82272 0.06208 0.0
C94 C 0.05169 0.7907 0.08415 0.0
C95 C 0.06149 0.83262 0.05173 0.0
C96 C 0.02801 0.79856 0.0799 0.0
C97 C 0.03763 0.83983 0.04806 0.0
C98 C 0.10459 0.65696 0.09024 0.0
C99 C 0.09193 0.58308 0.10259 0.0
N100 N 0.10098 0.56398 0.08435 0.0
C101 C 0.1139 0.63647 0.07167 0.0
C102 C 0.09361 0.62997 0.10588 0.0
C103 C 0.11185 0.58949 0.06897 0.0
C104 C 0.0764 0.67991 0.03029 0.0
N105 N 0.07423 0.69804 0.05054 0.0
C106 C 0.0432 0.64596 0.05869 0.0
C107 C 0.05743 0.68266 0.06436 0.0
C108 C 0.04617 0.62446 0.03856 0.0
C109 C 0.06236 0.64311 0.02389 0.0
H110 H 0.09003 0.69145 0.01958 0.0
H111 H 0.05643 0.69622 0.08061 0.0
C112 C 0.10146 0.81897 0.13922 0.0
N113 N 0.09377 0.78178 0.12826 0.0
C114 C 0.09602 0.82442 0.16118 0.0
C115 C 0.07439 0.75385 0.15989 0.0
C116 C 0.08015 0.74988 0.13799 0.0
C117 C 0.08274 0.79102 0.1719 0.0
H118 H 0.11266 0.84333 0.13115 0.0
H119 H 0.07435 0.72063 0.12887 0.0
C120 C 0.12766 0.74342 0.02869 0.0
N121 N 0.12333 0.7516 0.98426 0.0
C122 C 0.1391 0.71276 0.015 0.0
C123 C 0.11413 0.77832 0.01981 0.0
C124 C 0.13666 0.71742 0.99257 0.0
C125 C 0.11213 0.78189 0.99731 0.0
C126 C 0.15849 0.78266 0.10681 0.0
C127 C 0.17965 0.7955 0.09722 0.0
C128 C 0.15842 0.76506 0.12786 0.0
C129 C 0.20047 0.79009 0.10883 0.0
C130 C 0.17962 0.76024 0.13893 0.0
N131 N 0.20003 0.77269 0.12926 0.0
C132 C 0.14495 0.8893 0.06612 0.0
C133 C 0.1602 0.84116 0.03881 0.0
C134 C 0.16238 0.9218 0.0619 0.0
N135 N 0.1443 0.84964 0.05473 0.0
C136 C 0.17765 0.87277 0.03392 0.0
C137 C 0.17929 0.9134 0.0458 0.0
H138 H 0.1328 0.89457 0.07933 0.0
H139 H 0.16047 0.80858 0.03079 0.0
C140 C 0.16377 0.66326 0.10421 0.0
N141 N 0.16181 0.68951 0.08618 0.0
C142 C 0.18467 0.6405 0.1085 0.0
C143 C 0.2008 0.67207 0.07546 0.0
C144 C 0.1796 0.69402 0.07178 0.0
C145 C 0.20356 0.64526 0.09411 0.0
H146 H 0.14936 0.66113 0.11553 0.0
H147 H 0.17746 0.71568 0.05774 0.0
O148 O 0.09182 0.79987 0.07372 0.0
O149 O 0.10567 0.7032 0.09299 0.0
O150 O 0.12989 0.73916 0.05066 0.0
O151 O 0.138 0.78639 0.09548 0.0
H152 H 0.0568 0.77153 0.09832 0.0
H153 H 0.07424 0.84692 0.04072 0.0
H154 H 0.01479 0.78547 0.09079 0.0
H155 H 0.03193 0.85917 0.03409 0.0
H156 H 0.08339 0.56187 0.11453 0.0
H157 H 0.12246 0.65648 0.05932 0.0
H158 H 0.08634 0.64504 0.12038 0.0
H159 H 0.11885 0.57332 0.05461 0.0
H160 H 0.03079 0.63306 0.07045 0.0
H161 H 0.06535 0.62744 0.00825 0.0
H162 H 0.10304 0.85334 0.16989 0.0
H163 H 0.06386 0.72765 0.16745 0.0
H164 H 0.14967 0.68557 0.02167 0.0
H165 H 0.1055 0.80256 0.03021 0.0
H166 H 0.14535 0.69388 0.98176 0.0
H167 H 0.10172 0.8088 0.99021 0.0
H168 H 0.18003 0.80892 0.0809 0.0
H169 H 0.14222 0.75457 0.13544 0.0
H170 H 0.21699 0.79957 0.10156 0.0
H171 H 0.17986 0.74637 0.15518 0.0
H172 H 0.16295 0.95262 0.07149 0.0
H173 H 0.19058 0.86416 0.02175 0.0
H174 H 0.18623 0.6203 0.12312 0.0
H175 H 0.21485 0.67594 0.06381 0.0
Li176 Li 0.37046 0.22205 0.42459 0.0
Li177 Li 0.37968 0.29802 0.43558 0.0
Li178 Li 0.4023 0.25692 0.40522 0.0
Li179 Li 0.40612 0.23255 0.44278 0.0
C180 C 0.35032 0.27181 0.39411 0.0
N181 N 0.31076 0.25791 0.3692 0.0
C182 C 0.32848 0.28662 0.4015 0.0
C183 C 0.35207 0.25024 0.37397 0.0
C184 C 0.30868 0.27916 0.38869 0.0
C185 C 0.33185 0.24349 0.36164 0.0
C186 C 0.3748 0.258 0.47569 0.0
C187 C 0.38957 0.30798 0.50349 0.0
N188 N 0.37657 0.28541 0.5185 0.0
C189 C 0.36146 0.23548 0.49135 0.0
C190 C 0.38887 0.29469 0.48176 0.0
C191 C 0.36264 0.24977 0.51292 0.0
C192 C 0.34201 0.15681 0.40375 0.0
N193 N 0.34379 0.1861 0.42068 0.0
C194 C 0.30447 0.17168 0.43136 0.0
C195 C 0.32572 0.19373 0.43448 0.0
C196 C 0.30187 0.14173 0.4138 0.0
C197 C 0.321 0.13409 0.39996 0.0
H198 H 0.35669 0.15212 0.39291 0.0
H199 H 0.32772 0.21771 0.44764 0.0
C200 C 0.36625 0.39058 0.42971 0.0
N201 N 0.36258 0.35297 0.44207 0.0
C202 C 0.34945 0.42534 0.42902 0.0
C203 C 0.32602 0.38323 0.45463 0.0
C204 C 0.34321 0.34932 0.45482 0.0
C205 C 0.32853 0.42113 0.44095 0.0
H206 H 0.38136 0.3921 0.41917 0.0
H207 H 0.34 0.31831 0.46372 0.0
C208 C 0.40059 0.14934 0.4228 0.0
N209 N 0.40192 0.05943 0.43595 0.0
C210 C 0.38872 0.1356 0.44154 0.0
C211 C 0.4131 0.11719 0.41077 0.0
C212 C 0.38962 0.09006 0.44791 0.0
C213 C 0.41357 0.07195 0.41768 0.0
C214 C 0.43835 0.29928 0.4335 0.0
C215 C 0.45431 0.27534 0.42068 0.0
C216 C 0.44659 0.32853 0.44966 0.0
C217 C 0.47827 0.28059 0.4244 0.0
C218 C 0.4707 0.33289 0.45287 0.0
N219 N 0.48591 0.309 0.4403 0.0
C220 C 0.41268 0.3038 0.36629 0.0
C221 C 0.42364 0.22607 0.36675 0.0
C222 C 0.41845 0.30707 0.34431 0.0
N223 N 0.4151 0.26357 0.37691 0.0
C224 C 0.42955 0.22775 0.3448 0.0
C225 C 0.42658 0.26842 0.33316 0.0
H226 H 0.40536 0.33281 0.37469 0.0
H227 H 0.42509 0.19444 0.37553 0.0
C228 C 0.42379 0.19183 0.48288 0.0
N229 N 0.42824 0.20025 0.46156 0.0
C230 C 0.43706 0.15992 0.49439 0.0
C231 C 0.46 0.14663 0.46223 0.0
C232 C 0.44626 0.17879 0.45132 0.0
C233 C 0.45519 0.13598 0.48399 0.0
H234 H 0.40923 0.20781 0.49086 0.0
H235 H 0.44917 0.18462 0.43423 0.0
O236 O 0.36982 0.27765 0.40667 0.0
O237 O 0.37361 0.24447 0.45451 0.0
O238 O 0.40057 0.19407 0.41649 0.0
O239 O 0.41481 0.29431 0.43016 0.0
H240 H 0.32678 0.30313 0.41707 0.0
H241 H 0.3688 0.23827 0.36806 0.0
H242 H 0.29164 0.29013 0.39429 0.0
H243 H 0.33292 0.22659 0.34609 0.0
H244 H 0.40042 0.3363 0.50842 0.0
H245 H 0.35038 0.20713 0.48686 0.0
H246 H 0.399 0.31287 0.46982 0.0
H247 H 0.35249 0.23255 0.52523 0.0
H248 H 0.29029 0.17786 0.44263 0.0
H249 H 0.31962 0.11152 0.38614 0.0
H250 H 0.35231 0.45412 0.4184 0.0
H251 H 0.3101 0.37794 0.46381 0.0
H252 H 0.37904 0.15972 0.45122 0.0
H253 H 0.42255 0.12706 0.39634 0.0
H254 H 0.38057 0.07908 0.46239 0.0
H255 H 0.42325 0.0468 0.40854 0.0
H256 H 0.44827 0.25245 0.40816 0.0
H257 H 0.43454 0.34785 0.45957 0.0
H258 H 0.4908 0.262 0.41469 0.0
H259 H 0.47731 0.35534 0.46534 0.0
H260 H 0.41558 0.33895 0.33593 0.0
H261 H 0.43599 0.19729 0.33693 0.0
H262 H 0.43233 0.15256 0.51102 0.0
H263 H 0.4739 0.12957 0.4535 0.0
Li264 Li 0.12601 0.71521 0.43364 0.0
Li265 Li 0.12999 0.79247 0.42244 0.0
Li266 Li 0.09465 0.77159 0.44042 0.0
Li267 Li 0.10288 0.74571 0.402 0.0
C268 C 0.12712 0.75817 0.47394 0.0
N269 N 0.12715 0.73258 0.51704 0.0
C270 C 0.14452 0.77417 0.48793 0.0
C271 C 0.10966 0.72947 0.48189 0.0
C272 C 0.14426 0.76074 0.50966 0.0
C273 C 0.10998 0.71685 0.50373 0.0
C274 C 0.16088 0.72961 0.40383 0.0
C275 C 0.19378 0.69324 0.38645 0.0
N276 N 0.20795 0.70768 0.40278 0.0
C277 C 0.17581 0.74409 0.42044 0.0
C278 C 0.16996 0.70399 0.38669 0.0
C279 C 0.19954 0.73271 0.4196 0.0
C280 C 0.14492 0.62902 0.42628 0.0
N281 N 0.14503 0.66312 0.44117 0.0
C282 C 0.18105 0.63523 0.45616 0.0
C283 C 0.16221 0.66581 0.45645 0.0
C284 C 0.18237 0.60205 0.43981 0.0
C285 C 0.16347 0.59801 0.42532 0.0
H286 H 0.1315 0.62839 0.4139 0.0
H287 H 0.16257 0.69407 0.4676 0.0
C288 C 0.15004 0.87447 0.43466 0.0
N289 N 0.14988 0.8425 0.41879 0.0
C290 C 0.16295 0.9142 0.43199 0.0
C291 C 0.1756 0.88662 0.39689 0.0
C292 C 0.16218 0.84772 0.40011 0.0
C293 C 0.17591 0.92043 0.41292 0.0
H294 H 0.13976 0.86934 0.44919 0.0
H295 H 0.16121 0.82204 0.38759 0.0
C296 C 0.07114 0.68678 0.43175 0.0
N297 N 0.02936 0.64337 0.44072 0.0
C298 C 0.05098 0.69761 0.42 0.0
C299 C 0.07016 0.65319 0.44777 0.0
C300 C 0.02999 0.6755 0.42486 0.0
C301 C 0.04884 0.63182 0.45215 0.0
C302 C 0.09892 0.84941 0.40561 0.0
C303 C 0.09352 0.8865 0.41887 0.0
C304 C 0.10621 0.85682 0.38427 0.0
C305 C 0.09564 0.93051 0.41057 0.0
C306 C 0.10811 0.90134 0.37658 0.0
N307 N 0.10285 0.93695 0.38978 0.0
C308 C 0.07679 0.82848 0.47422 0.0
C309 C 0.04947 0.80724 0.44721 0.0
C310 C 0.06201 0.86355 0.48131 0.0
N311 N 0.07059 0.8019 0.45706 0.0
C312 C 0.0342 0.8418 0.45376 0.0
C313 C 0.04083 0.87189 0.4704 0.0
H314 H 0.09408 0.82554 0.48115 0.0
H315 H 0.04532 0.7875 0.43297 0.0
C316 C 0.10345 0.71794 0.35806 0.0
N317 N 0.09054 0.73918 0.37354 0.0
C318 C 0.09798 0.72373 0.33613 0.0
C319 C 0.06519 0.77077 0.34664 0.0
C320 C 0.07137 0.76428 0.36832 0.0
C321 C 0.07911 0.75181 0.33015 0.0
H322 H 0.11887 0.69898 0.36266 0.0
H323 H 0.06179 0.78184 0.38092 0.0
O324 O 0.12728 0.771 0.45263 0.0
O325 O 0.13736 0.73863 0.40478 0.0
O326 O 0.09192 0.70767 0.42708 0.0
O327 O 0.09751 0.80609 0.4136 0.0
H328 H 0.15813 0.79655 0.482 0.0
H329 H 0.09586 0.71762 0.47141 0.0
H330 H 0.15767 0.77271 0.52066 0.0
H331 H 0.09654 0.69467 0.5101 0.0
H332 H 0.20099 0.67322 0.37334 0.0
H333 H 0.16914 0.76327 0.43405 0.0
H334 H 0.15869 0.69203 0.37381 0.0
H335 H 0.21123 0.74349 0.4324 0.0
H336 H 0.19534 0.63995 0.46748 0.0
H337 H 0.16365 0.57272 0.41255 0.0
H338 H 0.16303 0.9395 0.44476 0.0
H339 H 0.18533 0.89062 0.38193 0.0
H340 H 0.05151 0.72294 0.40732 0.0
H341 H 0.08573 0.64358 0.45667 0.0
H342 H 0.01422 0.68382 0.41599 0.0
H343 H 0.04781 0.60594 0.46457 0.0
H344 H 0.08799 0.88145 0.43546 0.0
H345 H 0.11074 0.82853 0.37386 0.0
H346 H 0.09163 0.95953 0.42068 0.0
H347 H 0.11388 0.90759 0.36014 0.0
H348 H 0.06806 0.88619 0.49397 0.0
H349 H 0.01796 0.8466 0.44498 0.0
H350 H 0.10938 0.70884 0.32404 0.0
H351 H 0.0503 0.79213 0.34283 0.0
Li352 Li 0.59768 0.73363 0.94094 0.0
Li353 Li 0.63158 0.70761 0.91807 0.0
Li354 Li 0.62894 0.78592 0.92864 0.0
Li355 Li 0.60295 0.75777 0.90086 0.0
C356 C 0.64653 0.74606 0.96323 0.0
N357 N 0.6779 0.77972 0.99326 0.0
C358 C 0.67046 0.73752 0.96088 0.0
C359 C 0.63851 0.77143 0.98088 0.0
C360 C 0.68606 0.75494 0.97623 0.0
C361 C 0.65467 0.78819 0.99589 0.0
C362 C 0.59666 0.65201 0.90754 0.0
C363 C 0.60276 0.59335 0.88077 0.0
N364 N 0.59574 0.56154 0.89539 0.0
C365 C 0.58942 0.61872 0.92227 0.0
C366 C 0.6033 0.63924 0.88659 0.0
C367 C 0.5891 0.57318 0.91583 0.0
C368 C 0.5542 0.69732 0.95554 0.0
N369 N 0.57659 0.70698 0.96153 0.0
C370 C 0.57334 0.65763 0.99225 0.0
C371 C 0.58613 0.68841 0.97969 0.0
C372 C 0.55054 0.6452 0.98598 0.0
C373 C 0.5408 0.6664 0.9676 0.0
H374 H 0.5473 0.71125 0.94061 0.0
H375 H 0.60424 0.69506 0.98364 0.0
C376 C 0.66831 0.65629 0.89936 0.0
N377 N 0.65131 0.65716 0.91472 0.0
C378 C 0.68245 0.61797 0.8971 0.0
C379 C 0.66156 0.58283 0.92685 0.0
C380 C 0.64797 0.62192 0.92861 0.0
C381 C 0.67903 0.5806 0.91091 0.0
H382 H 0.67105 0.68541 0.88902 0.0
H383 H 0.63475 0.62435 0.9411 0.0
C384 C 0.59177 0.84011 0.93219 0.0
N385 N 0.5881 0.93092 0.94299 0.0
C386 C 0.59859 0.87349 0.91737 0.0
C387 C 0.58291 0.85277 0.95242 0.0
C388 C 0.59669 0.91926 0.92318 0.0
C389 C 0.5812 0.89892 0.95758 0.0
C390 C 0.644 0.77585 0.88 0.0
C391 C 0.64941 0.82169 0.87656 0.0
C392 C 0.64506 0.74537 0.86262 0.0
C393 C 0.65586 0.83616 0.85583 0.0
C394 C 0.65149 0.76121 0.84212 0.0
N395 N 0.65673 0.80589 0.83918 0.0
C396 C 0.67241 0.82837 0.92761 0.0
C397 C 0.64734 0.86708 0.95192 0.0
C398 C 0.69083 0.85778 0.93249 0.0
N399 N 0.65101 0.83369 0.93698 0.0
C400 C 0.66549 0.89707 0.95753 0.0
C401 C 0.6876 0.89271 0.94766 0.0
H402 H 0.6754 0.80045 0.91657 0.0
H403 H 0.63064 0.86983 0.95995 0.0
C404 C 0.57147 0.7307 0.8686 0.0
N405 N 0.58671 0.76455 0.87363 0.0
C406 C 0.56461 0.72365 0.84715 0.0
C407 C 0.58709 0.78955 0.83671 0.0
C408 C 0.59314 0.79581 0.8585 0.0
C409 C 0.57369 0.75148 0.83063 0.0
H410 H 0.5659 0.70711 0.881 0.0
H411 H 0.60443 0.82365 0.86297 0.0
O412 O 0.63109 0.73062 0.948 0.0
O413 O 0.59754 0.69677 0.91365 0.0
O414 O 0.59339 0.7952 0.92679 0.0
O415 O 0.63779 0.76092 0.90025 0.0
H416 H 0.67691 0.71812 0.94722 0.0
H417 H 0.62003 0.77865 0.98277 0.0
H418 H 0.70465 0.74889 0.97457 0.0
H419 H 0.64874 0.80815 0.00956 0.0
H420 H 0.60794 0.58303 0.86464 0.0
H421 H 0.58443 0.62772 0.93861 0.0
H422 H 0.6089 0.66447 0.87497 0.0
H423 H 0.58366 0.54707 0.92711 0.0
H424 H 0.5818 0.64169 0.00601 0.0
H425 H 0.52327 0.65813 0.96221 0.0
H426 H 0.69587 0.61752 0.8847 0.0
H427 H 0.65881 0.55512 0.93813 0.0
H428 H 0.60537 0.86409 0.90161 0.0
H429 H 0.5775 0.82719 0.96402 0.0
H430 H 0.60202 0.94551 0.91193 0.0
H431 H 0.57444 0.9093 0.9732 0.0
H432 H 0.64828 0.84606 0.88964 0.0
H433 H 0.64079 0.7099 0.86486 0.0
H434 H 0.66001 0.87153 0.85295 0.0
H435 H 0.65227 0.73799 0.82854 0.0
H436 H 0.7077 0.85229 0.92491 0.0
H437 H 0.66228 0.92331 0.96948 0.0
H438 H 0.5534 0.69501 0.84344 0.0
H439 H 0.59435 0.81236 0.82469 0.0
Li440 Li 0.91061 0.26064 0.94474 0.0
Li441 Li 0.87418 0.27338 0.92562 0.0
Li442 Li 0.88206 0.19941 0.93818 0.0
Li443 Li 0.90392 0.22948 0.90634 0.0
C444 C 0.87463 0.28941 0.9707 0.0
N445 N 0.86812 0.36 0.9997 0.0
C446 C 0.87842 0.33434 0.96424 0.0
C447 C 0.86743 0.28043 0.99194 0.0
C448 C 0.87506 0.36954 0.97911 0.0
C449 C 0.86426 0.31656 0.00635 0.0
C450 C 0.90773 0.33224 0.9049 0.0
C451 C 0.90683 0.3716 0.87054 0.0
N452 N 0.91299 0.41083 0.88071 0.0
C453 C 0.91424 0.37297 0.91496 0.0
C454 C 0.90413 0.33156 0.88246 0.0
C455 C 0.91672 0.41231 0.90247 0.0
C456 C 0.9506 0.31465 0.9512 0.0
N457 N 0.93368 0.29167 0.96217 0.0
C458 C 0.94556 0.32672 0.99546 0.0
C459 C 0.93141 0.29609 0.98403 0.0
C460 C 0.96239 0.35285 0.98436 0.0
C461 C 0.96516 0.34553 0.96197 0.0
H462 H 0.95212 0.31051 0.93383 0.0
H463 H 0.91797 0.27735 0.9925 0.0
C464 C 0.8297 0.3031 0.93505 0.0
N465 N 0.84815 0.31293 0.92196 0.0
C466 C 0.80866 0.32642 0.93276 0.0
C467 C 0.82604 0.37016 0.90373 0.0
C468 C 0.84676 0.34586 0.90656 0.0
C469 C 0.80663 0.36018 0.91683 0.0
H470 H 0.83118 0.2762 0.94693 0.0
H471 H 0.86135 0.35252 0.89602 0.0
C472 C 0.92076 0.15426 0.93914 0.0
N473 N 0.92593 0.065 0.95214 0.0
C474 C 0.92354 0.11995 0.92369 0.0
C475 C 0.92072 0.14335 0.96119 0.0
C476 C 0.92611 0.07497 0.9306 0.0
C477 C 0.92331 0.09795 0.96744 0.0
C478 C 0.84921 0.22159 0.89964 0.0
C479 C 0.82896 0.20494 0.9096 0.0
C480 C 0.84736 0.24564 0.88015 0.0
C481 C 0.80721 0.21292 0.89996 0.0
C482 C 0.82529 0.25294 0.87104 0.0
N483 N 0.80583 0.2366 0.88106 0.0
C484 C 0.85133 0.15226 0.96615 0.0
C485 C 0.86232 0.11038 0.93502 0.0
C486 C 0.83359 0.12098 0.97083 0.0
N487 N 0.86495 0.14702 0.94827 0.0
C488 C 0.84489 0.07802 0.93918 0.0
C489 C 0.82968 0.08374 0.95695 0.0
H490 H 0.85309 0.18246 0.97596 0.0
H491 H 0.87273 0.10777 0.92043 0.0
C492 C 0.939 0.23751 0.8743 0.0
N493 N 0.9176 0.21958 0.87864 0.0
C494 C 0.94685 0.24082 0.85289 0.0
C495 C 0.91096 0.20517 0.84104 0.0
C496 C 0.90398 0.20195 0.86267 0.0
C497 C 0.93235 0.22619 0.83579 0.0
H498 H 0.94933 0.25175 0.88735 0.0
H499 H 0.88699 0.18806 0.8666 0.0
O500 O 0.87808 0.25423 0.95647 0.0
O501 O 0.90577 0.29302 0.9168 0.0
O502 O 0.91769 0.19829 0.9327 0.0
O503 O 0.87063 0.21531 0.90917 0.0
H504 H 0.88377 0.342 0.9479 0.0
H505 H 0.86456 0.24589 0.99734 0.0
H506 H 0.87796 0.40445 0.97428 0.0
H507 H 0.85878 0.31004 0.02285 0.0
H508 H 0.90396 0.3715 0.8532 0.0
H509 H 0.91742 0.37434 0.93223 0.0
H510 H 0.89895 0.30072 0.87431 0.0
H511 H 0.92167 0.44401 0.91009 0.0
H512 H 0.94261 0.33119 0.01266 0.0
H513 H 0.97817 0.36402 0.95276 0.0
H514 H 0.79416 0.31811 0.94336 0.0
H515 H 0.82504 0.39567 0.8911 0.0
H516 H 0.9235 0.12797 0.90655 0.0
H517 H 0.91847 0.16964 0.9733 0.0
H518 H 0.92819 0.04798 0.91884 0.0
H519 H 0.9232 0.08891 0.98444 0.0
H520 H 0.82993 0.18669 0.92477 0.0
H521 H 0.86276 0.25919 0.8723 0.0
H522 H 0.7914 0.20049 0.90758 0.0
H523 H 0.82361 0.2718 0.85606 0.0
H524 H 0.82218 0.12763 0.98447 0.0
H525 H 0.84286 0.04971 0.92812 0.0
H526 H 0.9637 0.25631 0.84978 0.0
H527 H 0.89897 0.1938 0.82858 0.0
Li528 Li 0.60519 0.73494 0.59941 0.0
Li529 Li 0.62445 0.70176 0.56607 0.0
Li530 Li 0.63034 0.77857 0.57577 0.0
Li531 Li 0.5926 0.75987 0.56227 0.0
C532 C 0.65947 0.73686 0.60129 0.0
N533 N 0.70226 0.7654 0.61706 0.0
C534 C 0.67999 0.7271 0.58984 0.0
C535 C 0.66071 0.76094 0.62078 0.0
C536 C 0.70145 0.74187 0.59808 0.0
C537 C 0.68252 0.77512 0.62848 0.0
C538 C 0.58261 0.6539 0.57767 0.0
C539 C 0.55855 0.59145 0.5656 0.0
N540 N 0.5674 0.56515 0.5818 0.0
C541 C 0.59133 0.62637 0.59426 0.0
C542 C 0.56598 0.63645 0.56327 0.0
C543 C 0.58349 0.58155 0.59605 0.0
C544 C 0.57762 0.74884 0.63712 0.0
N545 N 0.59612 0.72556 0.62878 0.0
C546 C 0.60453 0.69308 0.66344 0.0
C547 C 0.60956 0.69813 0.64143 0.0
C548 C 0.58571 0.71707 0.67261 0.0
C549 C 0.57214 0.74526 0.65918 0.0
H550 H 0.56736 0.77073 0.62671 0.0
H551 H 0.62449 0.68081 0.63448 0.0
C552 C 0.65681 0.65552 0.53819 0.0
N553 N 0.64384 0.65098 0.55659 0.0
C554 C 0.67657 0.62836 0.53472 0.0
C555 C 0.66891 0.59033 0.56861 0.0
C556 C 0.64928 0.61839 0.57148 0.0
C557 C 0.68341 0.59641 0.55043 0.0
H558 H 0.6532 0.68264 0.52694 0.0
H559 H 0.63969 0.61671 0.58653 0.0
C560 C 0.59491 0.84188 0.58446 0.0
N561 N 0.58217 0.93074 0.57578 0.0
C562 C 0.60198 0.86278 0.56517 0.0
C563 C 0.58146 0.86631 0.59938 0.0
C564 C 0.59534 0.90768 0.56108 0.0
C565 C 0.57517 0.91117 0.59468 0.0
C566 C 0.61901 0.74292 0.52554 0.0
C567 C 0.62978 0.766 0.50843 0.0
C568 C 0.60408 0.70646 0.52112 0.0
C569 C 0.6254 0.75221 0.48714 0.0
C570 C 0.60016 0.69368 0.49961 0.0
N571 N 0.6108 0.71663 0.4832 0.0
C572 C 0.66861 0.82128 0.55808 0.0
C573 C 0.65497 0.85678 0.59027 0.0
C574 C 0.6858 0.85425 0.55555 0.0
N575 N 0.65359 0.82345 0.57508 0.0
C576 C 0.67199 0.89051 0.58841 0.0
C577 C 0.68746 0.88963 0.57072 0.0
H578 H 0.66713 0.79392 0.54645 0.0
H579 H 0.64272 0.85736 0.60363 0.0
C580 C 0.54786 0.79857 0.56085 0.0
N581 N 0.5664 0.78885 0.54783 0.0
C582 C 0.53236 0.83365 0.55541 0.0
C583 C 0.55396 0.84546 0.52228 0.0
C584 C 0.56919 0.8104 0.52844 0.0
C585 C 0.53591 0.85898 0.53634 0.0
H586 H 0.5464 0.7821 0.57648 0.0
H587 H 0.58443 0.80377 0.51864 0.0
O588 O 0.63824 0.72376 0.59321 0.0
O589 O 0.58997 0.69795 0.57565 0.0
O590 O 0.60046 0.79736 0.58852 0.0
O591 O 0.62316 0.75633 0.54643 0.0
H592 H 0.67932 0.70878 0.57465 0.0
H593 H 0.64496 0.76914 0.62972 0.0
H594 H 0.71746 0.73477 0.58935 0.0
H595 H 0.68374 0.79402 0.64348 0.0
H596 H 0.54573 0.57746 0.55455 0.0
H597 H 0.60415 0.63935 0.60553 0.0
H598 H 0.55885 0.65749 0.55046 0.0
H599 H 0.5902 0.5598 0.60877 0.0
H600 H 0.61564 0.67154 0.6733 0.0
H601 H 0.55744 0.76417 0.66564 0.0
H602 H 0.68714 0.63413 0.52041 0.0
H603 H 0.67369 0.56666 0.58132 0.0
H604 H 0.61223 0.84438 0.55332 0.0
H605 H 0.57577 0.85066 0.61435 0.0
H606 H 0.60057 0.92412 0.54616 0.0
H607 H 0.56467 0.93039 0.60604 0.0
H608 H 0.64134 0.7944 0.51158 0.0
H609 H 0.59574 0.68804 0.53409 0.0
H610 H 0.63359 0.7698 0.47374 0.0
H611 H 0.58867 0.66547 0.49596 0.0
H612 H 0.69772 0.85198 0.54194 0.0
H613 H 0.67272 0.91743 0.60038 0.0
H614 H 0.51855 0.8426 0.56666 0.0
H615 H 0.55756 0.8643 0.50757 0.0
Li616 Li 0.88111 0.291 0.57949 0.0
Li617 Li 0.90462 0.25513 0.60665 0.0
Li618 Li 0.91158 0.23572 0.56698 0.0
Li619 Li 0.87591 0.21194 0.58735 0.0
C620 C 0.92025 0.33726 0.57363 0.0
N621 N 0.92792 0.42183 0.55554 0.0
C622 C 0.91552 0.37657 0.58559 0.0
C623 C 0.92897 0.34086 0.55254 0.0
C624 C 0.91948 0.41905 0.57612 0.0
C625 C 0.93272 0.38396 0.54367 0.0
C626 C 0.86647 0.27768 0.62742 0.0
C627 C 0.86019 0.26172 0.66536 0.0
N628 N 0.8599 0.30711 0.66956 0.0
C629 C 0.86608 0.3242 0.63213 0.0
C630 C 0.86341 0.24618 0.64416 0.0
C631 C 0.86271 0.33839 0.65353 0.0
C632 C 0.83981 0.34122 0.58249 0.0
N633 N 0.86067 0.3421 0.57184 0.0
C634 C 0.84757 0.40624 0.55098 0.0
C635 C 0.8647 0.37363 0.5561 0.0
C636 C 0.82599 0.40657 0.56213 0.0
C637 C 0.82246 0.37339 0.57817 0.0
H638 H 0.83634 0.31492 0.59426 0.0
H639 H 0.88086 0.37281 0.54705 0.0
C640 C 0.92721 0.22194 0.64413 0.0
N641 N 0.91967 0.2607 0.63436 0.0
C642 C 0.9345 0.22253 0.66572 0.0
C643 C 0.92759 0.30354 0.6665 0.0
C644 C 0.92063 0.3014 0.64478 0.0
C645 C 0.93403 0.26347 0.67746 0.0
H646 H 0.92696 0.19021 0.63537 0.0
H647 H 0.9149 0.33192 0.63658 0.0
C648 C 0.8642 0.25704 0.54301 0.0
N649 N 0.8347 0.29551 0.51263 0.0
C650 C 0.83995 0.2534 0.5454 0.0
C651 C 0.87348 0.28005 0.52515 0.0
C652 C 0.82532 0.27317 0.52987 0.0
C653 C 0.85826 0.29927 0.50996 0.0
C654 C 0.9061 0.14869 0.59574 0.0
C655 C 0.91335 0.11814 0.5797 0.0
C656 C 0.89528 0.1321 0.61447 0.0
C657 C 0.90954 0.07162 0.58263 0.0
C658 C 0.89175 0.08535 0.61678 0.0
N659 N 0.89889 0.05633 0.60095 0.0
C660 C 0.95504 0.19888 0.55309 0.0
C661 C 0.92405 0.19308 0.52771 0.0
C662 C 0.96854 0.16797 0.54111 0.0
N663 N 0.93305 0.21 0.54646 0.0
C664 C 0.93697 0.16238 0.5152 0.0
C665 C 0.95929 0.14832 0.52215 0.0
H666 H 0.96147 0.2115 0.56845 0.0
H667 H 0.90617 0.20076 0.52327 0.0
C668 C 0.83509 0.16465 0.60068 0.0
N669 N 0.85326 0.16619 0.58651 0.0
C670 C 0.8168 0.13408 0.59726 0.0
C671 C 0.83667 0.10722 0.56502 0.0
C672 C 0.8545 0.13817 0.56907 0.0
C673 C 0.8173 0.10565 0.57896 0.0
H674 H 0.83431 0.18838 0.61403 0.0
H675 H 0.86898 0.14113 0.55786 0.0
O676 O 0.91663 0.2954 0.58261 0.0
O677 O 0.87002 0.26308 0.60659 0.0
O678 O 0.87878 0.23916 0.55838 0.0
O679 O 0.90921 0.19456 0.59298 0.0
H680 H 0.90874 0.37428 0.60193 0.0
H681 H 0.93275 0.31067 0.54312 0.0
H682 H 0.9158 0.44979 0.58513 0.0
H683 H 0.9394 0.38732 0.52734 0.0
H684 H 0.85795 0.23768 0.67847 0.0
H685 H 0.86878 0.34914 0.61949 0.0
H686 H 0.86366 0.2101 0.64088 0.0
H687 H 0.8625 0.37426 0.6574 0.0
H688 H 0.85107 0.43023 0.53808 0.0
H689 H 0.80645 0.37211 0.58752 0.0
H690 H 0.93998 0.19101 0.67325 0.0
H691 H 0.92686 0.3359 0.67484 0.0
H692 H 0.83251 0.23601 0.55924 0.0
H693 H 0.89222 0.28354 0.52321 0.0
H694 H 0.80652 0.27089 0.53157 0.0
H695 H 0.86517 0.31739 0.49611 0.0
H696 H 0.92162 0.13004 0.56504 0.0
H697 H 0.88941 0.1551 0.62699 0.0
H698 H 0.915 0.04769 0.57031 0.0
H699 H 0.88327 0.07217 0.63115 0.0
H700 H 0.9857 0.15841 0.54702 0.0
H701 H 0.92889 0.14765 0.50096 0.0
H702 H 0.80197 0.13417 0.6082 0.0
H703 H 0.83775 0.08551 0.55087 0.0
H704 H 0.2892 0.06999 0.07818 0.0
H705 H 0.30494 0.07864 0.00943 0.0
H706 H 0.27012 0.0322 1.00128 0.0
H707 H 0.26874 0.95282 0.0773 0.0
H708 H 0.2461 0.96265 0.0971 0.0
H709 H 0.27238 0.99645 0.09756 0.0
H710 H 0.24733 0.06974 0.0953 0.0
H711 H 0.22098 0.03614 0.0946 0.0
H712 H 0.22682 0.07656 0.07331 0.0
H713 H 0.23333 0.98572 1.00035 0.0
H714 H 0.19811 0.9392 0.00684 0.0
H715 H 0.20626 0.95868 0.0762 0.0
C716 C 0.28553 0.06162 0.06142 0.0
C717 C 0.29988 0.07829 0.04444 0.0
C718 C 0.29413 0.06695 0.02273 0.0
C719 C 0.27439 0.04041 0.01792 0.0
C720 C 0.26046 0.02521 0.03498 0.0
C721 C 0.26582 0.03508 0.05631 0.0
C722 C 0.24788 0.0143 0.07156 0.0
C723 C 0.25947 0.97948 0.08678 0.0
C724 C 0.23499 0.05141 0.08445 0.0
C725 C 0.23164 0.99124 0.05546 0.0
C726 C 0.23923 0.99811 0.03445 0.0
C727 C 0.22728 0.97996 0.01675 0.0
C728 C 0.20729 0.95346 0.02061 0.0
C729 C 0.19933 0.94508 0.04202 0.0
C730 C 0.21163 0.96484 0.05963 0.0
H731 H 0.2106 0.55851 0.47003 0.0
H732 H 0.20444 0.58748 0.40125 0.0
H733 H 0.2415 0.54698 0.39451 0.0
H734 H 0.27353 0.5713 0.47349 0.0
H735 H 0.27741 0.52512 0.49237 0.0
H736 H 0.25037 0.55668 0.49206 0.0
H737 H 0.22716 0.48201 0.48633 0.0
H738 H 0.25412 0.45021 0.48672 0.0
H739 H 0.23456 0.44541 0.4639 0.0
H740 H 0.27921 0.50394 0.39497 0.0
H741 H 0.31406 0.45716 0.40228 0.0
H742 H 0.29661 0.45525 0.47082 0.0
C743 C 0.21708 0.55628 0.45357 0.0
C744 C 0.20441 0.57584 0.43614 0.0
C745 C 0.21351 0.57207 0.41482 0.0
C746 C 0.23469 0.54945 0.41084 0.0
C747 C 0.2467 0.53056 0.42831 0.0
C748 C 0.23821 0.5334 0.44925 0.0
C749 C 0.25445 0.50913 0.46499 0.0
C750 C 0.26454 0.54256 0.48172 0.0
C751 C 0.24182 0.46933 0.47614 0.0
C752 C 0.27333 0.49222 0.4496 0.0
C753 C 0.26854 0.50534 0.42856 0.0
C754 C 0.28321 0.49366 0.41141 0.0
C755 C 0.30316 0.46736 0.41579 0.0
C756 C 0.30839 0.45273 0.43717 0.0
C757 C 0.2932 0.46574 0.45429 0.0
H758 H 0.7191 0.93409 0.92032 0.0
H759 H 0.70153 0.9191 0.98836 0.0
H760 H 0.73621 0.96505 0.99828 0.0
H761 H 0.78123 0.9262 0.92612 0.0
H762 H 0.7875 0.9684 0.90574 0.0
H763 H 0.76111 0.93509 0.90399 0.0
H764 H 0.73624 0.00876 0.90282 0.0
H765 H 0.76255 0.04229 0.90436 0.0
H766 H 0.73958 0.05052 0.92399 0.0
H767 H 0.77407 0.01003 1.00071 0.0
H768 H 0.81002 0.05513 0.9955 0.0
H769 H 0.80182 0.04338 0.92569 0.0
C770 C 0.72254 0.9405 0.93732 0.0
C771 C 0.70758 0.92292 0.95359 0.0
C772 C 0.71257 0.93257 0.97562 0.0
C773 C 0.73233 0.95836 0.9814 0.0
C774 C 0.74688 0.97465 0.96497 0.0
C775 C 0.74205 0.96651 0.94336 0.0
C776 C 0.76023 0.98842 0.9288 0.0
C777 C 0.77329 0.95237 0.91538 0.0
C778 C 0.74898 0.02465 0.91413 0.0
C779 C 0.77619 0.00986 0.94558 0.0
C780 C 0.76826 1.00133 0.96635 0.0
C781 C 0.78028 0.01726 0.98449 0.0
C782 C 0.80069 0.04311 0.98134 0.0
C783 C 0.80893 0.05328 0.96017 0.0
C784 C 0.79641 0.03592 0.94212 0.0
H785 H 0.69499 0.50666 0.55911 0.0
H786 H 0.72506 0.63567 0.53942 0.0
H787 H 0.76432 0.60082 0.53885 0.0
H788 H 0.74127 0.47297 0.59442 0.0
H789 H 0.74018 0.41365 0.58714 0.0
H790 H 0.7142 0.44811 0.58517 0.0
H791 H 0.70974 0.42588 0.54473 0.0
H792 H 0.73568 0.39121 0.54661 0.0
H793 H 0.73379 0.43526 0.52636 0.0
H794 H 0.80082 0.55321 0.5426 0.0
H795 H 0.83147 0.49586 0.54919 0.0
H796 H 0.77772 0.39627 0.5644 0.0
C797 C 0.70983 0.52746 0.55456 0.0
C798 C 0.70682 0.57388 0.54909 0.0
C799 C 0.72676 0.59988 0.54325 0.0
C800 C 0.74921 0.58045 0.54301 0.0
C801 C 0.75157 0.53474 0.54852 0.0
C802 C 0.73241 0.50843 0.55401 0.0
C803 C 0.73987 0.46018 0.5594 0.0
C804 C 0.7335 0.44803 0.58293 0.0
C805 C 0.72913 0.42612 0.54331 0.0
C806 C 0.76619 0.46376 0.55645 0.0
C807 C 0.77258 0.50705 0.55019 0.0
C808 C 0.79598 0.51898 0.54723 0.0
C809 C 0.81333 0.48591 0.55087 0.0
C810 C 0.8073 0.44107 0.5573 0.0
C811 C 0.78324 0.43013 0.55984 0.0
H812 H 0.41367 0.1844 0.21053 0.0
H813 H 0.44558 0.31202 0.19099 0.0
H814 H 0.45204 0.33167 0.2293 0.0
H815 H 0.38239 0.22983 0.25508 0.0
H816 H 0.38613 0.18056 0.27212 0.0
H817 H 0.38598 0.17435 0.24309 0.0
H818 H 0.42651 0.13487 0.24473 0.0
H819 H 0.42678 0.14095 0.2738 0.0
H820 H 0.4506 0.16327 0.25788 0.0
H821 H 0.45266 0.3402 0.26983 0.0
H822 H 0.44773 0.33614 0.3096 0.0
H823 H 0.41428 0.20442 0.30279 0.0
C824 C 0.42215 0.21636 0.21426 0.0
C825 C 0.42935 0.24631 0.19758 0.0
C826 C 0.44042 0.28781 0.20331 0.0
C827 C 0.44402 0.29953 0.2251 0.0
C828 C 0.43646 0.26951 0.24107 0.0
C829 C 0.42581 0.22872 0.23594 0.0
C830 C 0.41832 0.20353 0.25623 0.0
C831 C 0.39162 0.19669 0.25665 0.0
C832 C 0.43134 0.15796 0.25828 0.0
C833 C 0.42614 0.23684 0.27352 0.0
C834 C 0.43666 0.27458 0.26445 0.0
C835 C 0.44458 0.31067 0.27713 0.0
C836 C 0.44159 0.30818 0.29969 0.0
C837 C 0.43073 0.26991 0.30936 0.0
C838 C 0.42307 0.23375 0.29598 0.0
H839 H 0.08353 0.69826 0.29358 0.0
H840 H 0.06737 0.83586 0.31433 0.0
H841 H 0.0642 0.85979 0.27619 0.0
H842 H 0.12001 0.72985 0.24979 0.0
H843 H 0.11062 0.68452 0.23216 0.0
H844 H 0.10959 0.67709 0.26111 0.0
H845 H 0.06543 0.65761 0.25874 0.0
H846 H 0.06633 0.66493 0.22974 0.0
H847 H 0.04568 0.69693 0.24573 0.0
H848 H 0.06563 0.87035 0.23579 0.0
H849 H 0.07054 0.86584 0.196 0.0
H850 H 0.08648 0.72201 0.20158 0.0
C851 C 0.07915 0.73335 0.29013 0.0
C852 C 0.07544 0.76498 0.30706 0.0
C853 C 0.06974 0.81061 0.30175 0.0
C854 C 0.06807 0.82469 0.28008 0.0
C855 C 0.07211 0.7928 0.26384 0.0
C856 C 0.07743 0.74802 0.26857 0.0
C857 C 0.08192 0.72101 0.24808 0.0
C858 C 0.10703 0.70202 0.24778 0.0
C859 C 0.06375 0.68287 0.24542 0.0
C860 C 0.07864 0.75775 0.23113 0.0
C861 C 0.07292 0.7989 0.24054 0.0
C862 C 0.06991 0.83822 0.22821 0.0
C863 C 0.07285 0.83541 0.20565 0.0
C864 C 0.07872 0.79356 0.19567 0.0
C865 C 0.08152 0.75429 0.20867 0.0
H866 H 0.56954 0.80636 0.79414 0.0
H867 H 0.57444 0.66499 0.81424 0.0
H868 H 0.57455 0.64116 0.77613 0.0
H869 H 0.53322 0.78751 0.7456 0.0
H870 H 0.5486 0.82965 0.72989 0.0
H871 H 0.54623 0.83591 0.75888 0.0
H872 H 0.59138 0.84144 0.76184 0.0
H873 H 0.59389 0.83513 0.7329 0.0
H874 H 0.60925 0.79664 0.75067 0.0
H875 H 0.57783 0.63221 0.73618 0.0
H876 H 0.58341 0.63924 0.69661 0.0
H877 H 0.57729 0.7859 0.70179 0.0
C878 C 0.57037 0.77036 0.79057 0.0
C879 C 0.57157 0.73766 0.80741 0.0
C880 C 0.57276 0.69086 0.80185 0.0
C881 C 0.57304 0.67686 0.78016 0.0
C882 C 0.57216 0.70991 0.76405 0.0
C883 C 0.57077 0.75569 0.76892 0.0
C884 C 0.57145 0.78426 0.74844 0.0
C885 C 0.54851 0.8109 0.74553 0.0
C886 C 0.59276 0.81624 0.74847 0.0
C887 C 0.57391 0.74737 0.73139 0.0
C888 C 0.57415 0.70473 0.74079 0.0
C889 C 0.57742 0.66538 0.72858 0.0
C890 C 0.5807 0.6697 0.70616 0.0
C891 C 0.58068 0.71304 0.69615 0.0
C892 C 0.57697 0.75228 0.70896 0.0
H893 H 0.92137 0.19931 0.7076 0.0
H894 H 0.95727 0.32873 0.70123 0.0
H895 H 0.96293 0.33104 0.74094 0.0
H896 H 0.89112 0.22417 0.75547 0.0
H897 H 0.894 0.16808 0.76696 0.0
H898 H 0.89399 0.17536 0.73799 0.0
H899 H 0.93396 0.13395 0.73543 0.0
H900 H 0.93405 0.12633 0.76443 0.0
H901 H 0.95833 0.15414 0.75131 0.0
H902 H 0.96207 0.32167 0.78156 0.0
H903 H 0.95515 0.30143 0.81973 0.0
H904 H 0.92237 0.17521 0.79924 0.0
C905 C 0.93094 0.22768 0.71441 0.0
C906 C 0.93895 0.26379 0.70118 0.0
C907 C 0.95076 0.30086 0.71098 0.0
C908 C 0.95421 0.30231 0.73352 0.0
C909 C 0.94593 0.26628 0.74604 0.0
C910 C 0.93467 0.22952 0.7368 0.0
C911 C 0.92665 0.19598 0.75389 0.0
C912 C 0.89986 0.19061 0.75355 0.0
C913 C 0.93899 0.14987 0.7511 0.0
C914 C 0.9348 0.21998 0.77425 0.0
C915 C 0.94593 0.2604 0.76938 0.0
C916 C 0.95377 0.28967 0.78556 0.0
C917 C 0.94992 0.27758 0.80727 0.0
C918 C 0.9384 0.23635 0.81273 0.0
C919 C 0.93112 0.20703 0.79582 0.0
H920 H 0.47511 0.41609 0.99862 0.0
H921 H 0.48794 0.42503 0.06789 0.0
H922 H 0.51046 0.49542 0.06223 0.0
H923 H 0.53186 0.45841 0.98158 0.0
H924 H 0.52025 0.48975 0.95887 0.0
H925 H 0.50553 0.43932 0.96827 0.0
H926 H 0.46722 0.48547 0.97291 0.0
H927 H 0.48187 0.53612 0.96369 0.0
H928 H 0.46728 0.53581 0.98959 0.0
H929 H 0.53072 0.56622 0.04938 0.0
H930 H 0.54902 0.63031 0.02992 0.0
H931 H 0.5235 0.57596 0.96887 0.0
C932 C 0.4827 0.43278 0.0126 0.0
C933 C 0.47987 0.41449 0.03371 0.0
C934 C 0.49021 0.43752 0.05151 0.0
C935 C 0.50288 0.4779 0.0485 0.0
C936 C 0.50515 0.49511 0.02756 0.0
C937 C 0.4955 0.47318 0.00988 0.0
C938 C 0.50066 0.49897 0.98908 0.0
C939 C 0.51546 0.46988 0.97354 0.0
C940 C 0.4779 0.51504 0.97818 0.0
C941 C 0.51461 0.53886 0.99787 0.0
C942 C 0.51693 0.53598 0.02012 0.0
C943 C 0.52912 0.5687 0.03193 0.0
C944 C 0.53953 0.60495 0.0207 0.0
C945 C 0.5378 0.60838 0.99782 0.0
C946 C 0.52492 0.57489 0.98637 0.0
H947 H 0.02455 0.59588 1.00067 0.0
H948 H 0.04147 0.55248 0.0661 0.0
H949 H 0.02255 0.47858 0.05921 0.0
H950 H 0.9678 0.54205 0.99819 0.0
H951 H 0.97049 0.52592 0.97011 0.0
H952 H 0.98556 0.57549 0.98005 0.0
H953 H 0.02488 0.54272 0.96613 0.0
H954 H 0.00993 0.49296 0.95622 0.0
H955 H 0.03407 0.48696 0.97484 0.0
H956 H 1.00216 0.40893 0.0453 0.0
H957 H 0.98063 0.34913 0.02562 0.0
H958 H 0.97585 0.4376 0.96938 0.0
C959 C 0.0243 0.57076 0.01351 0.0
C960 C 0.0343 0.58027 0.03402 0.0
C961 C 0.03353 0.54645 0.05041 0.0
C962 C 0.02298 0.50416 0.0466 0.0
C963 C 0.01319 0.49594 0.02629 0.0
C964 C 0.01364 0.52828 0.01002 0.0
C965 C 1.00147 0.5108 0.98978 0.0
C966 C 0.98006 0.54032 0.98421 0.0
C967 C 0.01862 0.50821 0.97061 0.0
C968 C 0.99417 0.46367 0.99724 0.0
C969 C 1.00119 0.45578 0.01833 0.0
C970 C 0.99647 0.4148 0.0288 0.0
C971 C 0.98408 0.38107 0.0175 0.0
C972 C 0.97638 0.38839 0.99591 0.0
C973 C 0.98169 0.4304 0.98572 0.0
H974 H 0.51738 0.89215 0.49792 0.0
H975 H 0.52587 0.92494 0.56609 0.0
H976 H 0.5067 0.99899 0.56004 0.0
H977 H 0.52865 0.00431 0.4774 0.0
H978 H 0.50703 1.00121 0.45617 0.0
H979 H 0.52099 0.95008 0.46577 0.0
H980 H 0.48046 0.91483 0.47423 0.0
H981 H 0.46638 0.96572 0.4645 0.0
H982 H 0.46032 0.94518 0.49145 0.0
H983 H 0.48787 0.07077 0.5465 0.0
H984 H 0.46868 0.13351 0.52681 0.0
H985 H 0.47113 0.05398 0.4675 0.0
C986 C 0.51511 0.91485 0.51157 0.0
C987 C 0.52294 0.90235 0.53255 0.0
C988 C 0.51961 0.93316 0.54997 0.0
C989 C 0.50891 0.97556 0.54667 0.0
C990 C 0.50152 0.98688 0.52583 0.0
C991 C 0.50428 0.95734 0.50859 0.0
C992 C 0.49458 0.97792 0.48785 0.0
C993 C 0.51397 0.98372 0.47079 0.0
C994 C 0.47422 0.9492 0.47899 0.0
C995 C 0.48606 0.02366 0.49613 0.0
C996 C 0.49034 0.02816 0.51806 0.0
C997 C 0.48425 0.06747 0.52935 0.0
C998 C 0.47321 0.1029 0.51801 0.0
C999 C 0.46817 0.09894 0.49556 0.0
C1000 C 0.47491 0.05864 0.48455 0.0
H1001 H 0.98425 0.07636 0.53946 0.0
H1002 H 0.96273 0.13579 0.47816 0.0
H1003 H 0.98084 0.07155 0.45865 0.0
H1004 H 0.04066 0.03313 0.52052 0.0
H1005 H 0.03894 0.98207 0.53661 0.0
H1006 H 0.02479 0.03335 0.54579 0.0
H1007 H 0.98542 0.99012 0.54852 0.0
H1008 H 0.9994 0.93881 0.53919 0.0
H1009 H 0.9742 0.9608 0.52504 0.0
H1010 H 1.00021 1.00006 0.44573 0.0
H1011 H 0.02107 0.92777 0.44006 0.0
H1012 H 0.03058 0.91391 0.50961 0.0
C1013 C 0.9837 0.07635 0.52191 0.0
C1014 C 0.97199 0.11134 0.51038 0.0
C1015 C 0.97133 0.10931 0.48741 0.0
C1016 C 0.98166 0.07299 0.47616 0.0
C1017 C 0.99269 0.0388 0.48804 0.0
C1018 C 0.99395 0.04026 0.51039 0.0
C1019 C 0.00664 0.99873 0.51921 0.0
C1020 C 0.02909 0.01266 0.53124 0.0
C1021 C 0.99044 0.97045 0.53385 0.0
C1022 C 0.01223 0.97366 0.49831 0.0
C1023 C 0.00394 0.99742 0.48056 0.0
C1024 C 0.00673 0.98113 0.45952 0.0
C1025 C 0.01844 0.93968 0.45649 0.0
C1026 C 0.02728 0.91461 0.47437 0.0
C1027 C 0.02409 0.93213 0.49558 0.0
H1028 H 0.20966 0.55729 0.10687 0.0
H1029 H 0.24776 0.67978 0.08989 0.0
H1030 H 0.28509 0.63779 0.09299 0.0
H1031 H 0.25391 0.51077 0.14552 0.0
H1032 H 0.24857 0.45326 0.13672 0.0
H1033 H 0.22522 0.49452 0.13613 0.0
H1034 H 0.21865 0.47793 0.09529 0.0
H1035 H 0.24197 0.43689 0.09572 0.0
H1036 H 0.24284 0.48342 0.07671 0.0
H1037 H 0.3174 0.58075 0.09339 0.0
H1038 H 0.34261 0.51244 0.09149 0.0
H1039 H 0.28335 0.42786 0.10881 0.0
C1040 C 0.22591 0.57558 0.10447 0.0
C1041 C 0.22593 0.62167 0.09819 0.0
C1042 C 0.24745 0.64428 0.09456 0.0
C1043 C 0.2687 0.62087 0.09647 0.0
C1044 C 0.26804 0.57508 0.10219 0.0
C1045 C 0.24722 0.55275 0.1063 0.0
C1046 C 0.25111 0.50259 0.11026 0.0
C1047 C 0.2443 0.48953 0.13355 0.0
C1048 C 0.23787 0.47353 0.09349 0.0
C1049 C 0.27728 0.49991 0.10698 0.0
C1050 C 0.28678 0.54215 0.10259 0.0
C1051 C 0.31029 0.54762 0.09721 0.0
C1052 C 0.3244 0.50874 0.09604 0.0
C1053 C 0.31486 0.46521 0.10019 0.0
C1054 C 0.29114 0.46094 0.10609 0.0
H1055 H 0.29564 0.05265 0.40278 0.0
H1056 H 0.25755 0.17655 0.41763 0.0
H1057 H 0.22029 0.13425 0.41572 0.0
H1058 H 0.25142 0.00456 0.36493 0.0
H1059 H 0.25677 0.94744 0.37432 0.0
H1060 H 0.28011 0.98864 0.37447 0.0
H1061 H 0.28669 0.97383 0.41547 0.0
H1062 H 0.26332 0.93291 0.41549 0.0
H1063 H 0.26251 0.98032 0.434 0.0
H1064 H 0.18798 0.07701 0.41656 0.0
H1065 H 0.16264 0.00886 0.41857 0.0
H1066 H 0.22185 0.92356 0.4018 0.0
C1067 C 0.27944 0.0712 0.40499 0.0
C1068 C 0.27945 0.11779 0.41038 0.0
C1069 C 0.25791 0.14065 0.41373 0.0
C1070 C 0.23668 0.11705 0.4125 0.0
C1071 C 0.23734 0.07085 0.40764 0.0
C1072 C 0.25813 0.04826 0.4037 0.0
C1073 C 0.25423 0.99797 0.40027 0.0
C1074 C 0.26103 0.98383 0.37711 0.0
C1075 C 0.26747 0.96962 0.41733 0.0
C1076 C 0.22808 0.99556 0.40359 0.0
C1077 C 0.2186 0.03797 0.40768 0.0
C1078 C 0.19508 0.04373 0.41296 0.0
C1079 C 0.18089 0.00498 0.4142 0.0
C1080 C 0.19037 0.96137 0.41012 0.0
C1081 C 0.21414 0.95675 0.40449 0.0
H1082 H 0.72651 0.57973 0.90713 0.0
H1083 H 0.66608 0.49106 0.91208 0.0
H1084 H 0.69223 0.42396 0.9121 0.0
H1085 H 0.76166 0.50614 0.87199 0.0
H1086 H 0.7886 0.52095 0.88547 0.0
H1087 H 0.76496 0.56147 0.8842 0.0
H1088 H 0.76564 0.56873 0.92611 0.0
H1089 H 0.78918 0.52817 0.92752 0.0
H1090 H 0.7626 0.51835 0.94252 0.0
H1091 H 0.72505 0.36732 0.9136 0.0
H1092 H 0.76229 0.32492 0.91658 0.0
H1093 H 0.80088 0.45148 0.91102 0.0
C1094 C 0.71877 0.54614 0.90773 0.0
C1095 C 0.69435 0.54036 0.90946 0.0
C1096 C 0.68482 0.49602 0.91082 0.0
C1097 C 0.69948 0.45782 0.91072 0.0
C1098 C 0.72354 0.46477 0.90924 0.0
C1099 C 0.73311 0.50781 0.90772 0.0
C1100 C 0.75954 0.50626 0.90751 0.0
C1101 C 0.76926 0.5248 0.88601 0.0
C1102 C 0.76983 0.53188 0.92708 0.0
C1103 C 0.76338 0.45563 0.90943 0.0
C1104 C 0.74242 0.43222 0.91027 0.0
C1105 C 0.74158 0.38521 0.91282 0.0
C1106 C 0.76276 0.36152 0.91465 0.0
C1107 C 0.78439 0.38502 0.91401 0.0
C1108 C 0.78461 0.43259 0.91121 0.0
H1109 H 0.71627 0.92544 0.60176 0.0
H1110 H 0.69883 0.9341 0.53336 0.0
H1111 H 0.72981 0.99156 0.52823 0.0
H1112 H 0.72902 0.04568 0.60935 0.0
H1113 H 0.75288 0.03495 0.6278 0.0
H1114 H 0.72878 0.9956 0.62622 0.0
H1115 H 0.75779 0.92993 0.6181 0.0
H1116 H 0.78195 0.96907 0.61957 0.0
H1117 H 0.77773 0.93501 0.59559 0.0
H1118 H 0.76309 0.04578 0.53027 0.0
H1119 H 0.79666 0.09486 0.53944 0.0
H1120 H 0.79244 0.05093 0.60653 0.0
C1121 C 0.71876 0.93996 0.58578 0.0
C1122 C 0.70526 0.92543 0.56793 0.0
C1123 C 0.70923 0.94453 0.54718 0.0
C1124 C 0.72665 0.97728 0.54414 0.0
C1125 C 0.73983 0.99051 0.56203 0.0
C1126 C 0.73608 0.97264 0.58245 0.0
C1127 C 0.75311 0.99191 0.59882 0.0
C1128 C 0.74017 0.01863 0.61659 0.0
C1129 C 0.76856 0.95423 0.60859 0.0
C1130 C 0.76712 0.02318 0.58435 0.0
C1131 C 0.75913 0.02189 0.5632 0.0
C1132 C 0.76952 0.04718 0.54676 0.0
C1133 C 0.78864 0.07463 0.55209 0.0
C1134 C 0.79714 0.07639 0.57366 0.0
C1135 C 0.78615 0.05046 0.58997 0.0
loop_
_geom_bond_atom_site_label_1
_geom_bond_atom_site_label_2
_geom_bond_distance
_geom_bond_site_symmetry_2
_ccdc_geom_bond_type
Li0 N17 1.990 . S
Li0 O60 1.956 . S
Li0 O61 1.970 . S
Li0 O62 1.961 . S
Li1 N25 1.990 . S
Li1 O60 1.970 . S
Li1 O61 1.956 . S
Li1 O63 1.961 . S
Li2 N47 1.990 . S
Li2 O60 1.961 . S
Li2 O62 1.956 . S
Li2 O63 1.970 . S
Li3 N53 1.990 . S
Li3 O61 1.961 . S
Li3 O62 1.970 . S
Li3 O63 1.956 . S
C4 C6 1.348 . S
C4 C7 1.356 . S
C4 O60 1.325 . S
N5 C8 1.314 . S
N5 C9 1.279 . S
C6 C4 1.348 . S
C6 C8 1.353 . S
C6 H64 0.929 . S
C7 C4 1.356 . S
C7 C9 1.358 . S
C7 H65 0.930 . S
C8 N5 1.314 . S
C8 C6 1.353 . S
C8 H66 0.930 . S
C9 N5 1.279 . S
C9 C7 1.358 . S
C9 H67 0.930 . S
C10 C13 1.348 . S
C10 C14 1.356 . S
C10 O61 1.325 . S
C11 N12 1.279 . S
C11 C14 1.358 . S
C11 H68 0.930 . S
N12 C11 1.279 . S
N12 C15 1.314 . S
C13 C10 1.348 . S
C13 C15 1.353 . S
C13 H69 0.929 . S
C14 C10 1.356 . S
C14 C11 1.358 . S
C14 H70 0.930 . S
C15 N12 1.314 . S
C15 C13 1.353 . S
C15 H71 0.930 . S
C16 N17 1.314 . S
C16 C21 1.353 . S
C16 H22 0.930 . S
N17 Li0 1.990 . S
N17 C16 1.314 . S
N17 C19 1.279 . S
C18 C19 1.358 . S
C18 C20 1.356 . S
C18 H72 0.930 . S
C19 N17 1.279 . S
C19 C18 1.358 . S
C19 H23 0.930 . S
C20 C18 1.356 . S
C20 C21 1.348 . S
C21 C16 1.353 . S
C21 C20 1.348 . S
C21 H73 0.913 1_554 S
H22 C16 0.930 . S
H23 C19 0.930 . S
C24 N25 1.314 . S
C24 C26 1.353 . S
C24 H30 0.930 . S
N25 Li1 1.990 . S
N25 C24 1.314 . S
N25 C28 1.279 . S
C26 C24 1.353 . S
C26 C29 1.348 . S
C26 H74 0.929 . S
C27 C28 1.358 . S
C27 C29 1.356 . S
C27 H75 0.930 . S
C28 N25 1.279 . S
C28 C27 1.358 . S
C28 H31 0.930 . S
C29 C26 1.348 . S
C29 C27 1.356 . S
H30 C24 0.930 . S
H31 C28 0.930 . S
C32 C34 1.348 . S
C32 C35 1.356 . S
C32 O62 1.325 . S
N33 C36 1.314 . S
N33 C37 1.279 . S
C34 C32 1.348 . S
C34 C36 1.353 1_554 S
C34 H76 0.929 . S
C35 C32 1.356 . S
C35 C37 1.358 1_554 S
C35 H77 0.930 . S
C36 N33 1.314 . S
C36 C34 1.353 1_556 S
C36 H78 0.930 . S
C37 N33 1.279 . S
C37 C35 1.358 1_556 S
C37 H79 0.930 . S
C38 C39 1.348 . S
C38 C40 1.356 . S
C38 O63 1.325 . S
C39 C38 1.348 . S
C39 C41 1.353 . S
C39 H80 0.929 . S
C40 C38 1.356 . S
C40 C42 1.358 . S
C40 H81 0.930 . S
C41 C39 1.353 . S
C41 N43 1.314 . S
C41 H82 0.930 . S
C42 C40 1.358 . S
C42 N43 1.279 . S
C42 H83 0.930 . S
N43 C41 1.314 . S
N43 C42 1.279 . S
C44 C46 1.353 . S
C44 N47 1.314 . S
C44 H50 0.930 . S
C45 N47 1.279 . S
C45 C48 1.358 . S
C45 H51 0.930 . S
C46 C44 1.353 . S
C46 C49 1.348 . S
C46 H84 0.929 . S
N47 Li2 1.990 . S
N47 C44 1.314 . S
N47 C45 1.279 . S
C48 C45 1.358 . S
C48 C49 1.356 . S
C48 H85 0.930 . S
C49 C46 1.348 . S
C49 C48 1.356 . S
H50 C44 0.930 . S
H51 C45 0.930 . S
C52 N53 1.314 . S
C52 C54 1.353 . S
C52 H58 0.930 . S
N53 Li3 1.990 . S
N53 C52 1.314 . S
N53 C56 1.279 . S
C54 C52 1.353 . S
C54 C57 1.348 . S
C54 H86 0.929 . S
C55 C56 1.358 . S
C55 C57 1.356 . S
C55 H87 0.930 . S
C56 N53 1.279 . S
C56 C55 1.358 . S
C56 H59 0.930 . S
C57 C54 1.348 . S
C57 C55 1.356 . S
H58 C52 0.930 . S
H59 C56 0.930 . S
O60 Li0 1.956 . S
O60 Li1 1.970 . S
O60 Li2 1.961 . S
O60 C4 1.325 . S
O61 Li0 1.970 . S
O61 Li1 1.956 . S
O61 Li3 1.961 . S
O61 C10 1.325 . S
O62 Li0 1.961 . S
O62 Li2 1.956 . S
O62 Li3 1.970 . S
O62 C32 1.325 . S
O63 Li1 1.961 . S
O63 Li2 1.970 . S
O63 Li3 1.956 . S
O63 C38 1.325 . S
H64 C6 0.929 . S
H65 C7 0.930 . S
H66 C8 0.930 . S
H67 C9 0.930 . S
H68 C11 0.930 . S
H69 C13 0.929 . S
H70 C14 0.930 . S
H71 C15 0.930 . S
H72 C18 0.930 . S
H73 C21 0.913 1_556 S
H74 C26 0.929 . S
H75 C27 0.930 . S
H76 C34 0.929 . S
H77 C35 0.930 . S
H78 C36 0.930 . S
H79 C37 0.930 . S
H80 C39 0.929 . S
H81 C40 0.930 . S
H82 C41 0.930 . S
H83 C42 0.930 . S
H84 C46 0.929 . S
H85 C48 0.930 . S
H86 C54 0.929 . S
H87 C55 0.930 . S
Li88 N105 1.990 . S
Li88 O148 1.956 . S
Li88 O149 1.970 . S
Li88 O150 1.961 . S
Li89 N113 1.990 . S
Li89 O148 1.970 . S
Li89 O149 1.956 . S
Li89 O151 1.961 . S
Li90 N135 1.990 . S
Li90 O148 1.961 . S
Li90 O150 1.956 . S
Li90 O151 1.970 . S
Li91 N141 1.990 . S
Li91 O149 1.961 . S
Li91 O150 1.970 . S
Li91 O151 1.956 . S
C92 C94 1.348 . S
C92 C95 1.356 . S
C92 O148 1.325 . S
N93 C96 1.314 . S
N93 C97 1.279 . S
C94 C92 1.348 . S
C94 C96 1.353 . S
C94 H152 0.929 . S
C95 C92 1.356 . S
C95 C97 1.358 . S
C95 H153 0.930 . S
C96 N93 1.314 . S
C96 C94 1.353 . S
C96 H154 0.930 . S
C97 N93 1.279 . S
C97 C95 1.358 . S
C97 H155 0.930 . S
C98 C101 1.348 . S
C98 C102 1.356 . S
C98 O149 1.325 . S
C99 N100 1.279 . S
C99 C102 1.358 . S
C99 H156 0.930 . S
N100 C99 1.279 . S
N100 C103 1.314 . S
C101 C98 1.348 . S
C101 C103 1.353 . S
C101 H157 0.929 . S
C102 C98 1.356 . S
C102 C99 1.358 . S
C102 H158 0.930 . S
C103 N100 1.314 . S
C103 C101 1.353 . S
C103 H159 0.930 . S
C104 N105 1.314 . S
C104 C109 1.353 . S
C104 H110 0.930 . S
N105 Li88 1.990 . S
N105 C104 1.314 . S
N105 C107 1.279 . S
C106 C107 1.358 . S
C106 C108 1.356 . S
C106 H160 0.930 . S
C107 N105 1.279 . S
C107 C106 1.358 . S
C107 H111 0.930 . S
C108 C106 1.356 . S
C108 C109 1.348 . S
C109 C104 1.353 . S
C109 C108 1.348 . S
C109 H161 0.913 1_554 S
H110 C104 0.930 . S
H111 C107 0.930 . S
C112 N113 1.314 . S
C112 C114 1.353 . S
C112 H118 0.930 . S
N113 Li89 1.990 . S
N113 C112 1.314 . S
N113 C116 1.279 . S
C114 C112 1.353 . S
C114 C117 1.348 . S
C114 H162 0.929 . S
C115 C116 1.358 . S
C115 C117 1.356 . S
C115 H163 0.930 . S
C116 N113 1.279 . S
C116 C115 1.358 . S
C116 H119 0.930 . S
C117 C114 1.348 . S
C117 C115 1.356 . S
H118 C112 0.930 . S
H119 C116 0.930 . S
C120 C122 1.348 . S
C120 C123 1.356 . S
C120 O150 1.325 . S
N121 C124 1.314 . S
N121 C125 1.279 . S
C122 C120 1.348 . S
C122 C124 1.353 1_554 S
C122 H164 0.929 . S
C123 C120 1.356 . S
C123 C125 1.358 1_554 S
C123 H165 0.930 . S
C124 N121 1.314 . S
C124 C122 1.353 1_556 S
C124 H166 0.930 . S
C125 N121 1.279 . S
C125 C123 1.358 1_556 S
C125 H167 0.930 . S
C126 C127 1.348 . S
C126 C128 1.356 . S
C126 O151 1.325 . S
C127 C126 1.348 . S
C127 C129 1.353 . S
C127 H168 0.929 . S
C128 C126 1.356 . S
C128 C130 1.358 . S
C128 H169 0.930 . S
C129 C127 1.353 . S
C129 N131 1.314 . S
C129 H170 0.930 . S
C130 C128 1.358 . S
C130 N131 1.279 . S
C130 H171 0.930 . S
N131 C129 1.314 . S
N131 C130 1.279 . S
C132 C134 1.353 . S
C132 N135 1.314 . S
C132 H138 0.930 . S
C133 N135 1.279 . S
C133 C136 1.358 . S
C133 H139 0.930 . S
C134 C132 1.353 . S
C134 C137 1.348 . S
C134 H172 0.929 . S
N135 Li90 1.990 . S
N135 C132 1.314 . S
N135 C133 1.279 . S
C136 C133 1.358 . S
C136 C137 1.356 . S
C136 H173 0.930 . S
C137 C134 1.348 . S
C137 C136 1.356 . S
H138 C132 0.930 . S
H139 C133 0.930 . S
C140 N141 1.314 . S
C140 C142 1.353 . S
C140 H146 0.930 . S
N141 Li91 1.990 . S
N141 C140 1.314 . S
N141 C144 1.279 . S
C142 C140 1.353 . S
C142 C145 1.348 . S
C142 H174 0.929 . S
C143 C144 1.358 . S
C143 C145 1.356 . S
C143 H175 0.930 . S
C144 N141 1.279 . S
C144 C143 1.358 . S
C144 H147 0.930 . S
C145 C142 1.348 . S
C145 C143 1.356 . S
H146 C140 0.930 . S
H147 C144 0.930 . S
O148 Li88 1.956 . S
O148 Li89 1.970 . S
O148 Li90 1.961 . S
O148 C92 1.325 . S
O149 Li88 1.970 . S
O149 Li89 1.956 . S
O149 Li91 1.961 . S
O149 C98 1.325 . S
O150 Li88 1.961 . S
O150 Li90 1.956 . S
O150 Li91 1.970 . S
O150 C120 1.325 . S
O151 Li89 1.961 . S
O151 Li90 1.970 . S
O151 Li91 1.956 . S
O151 C126 1.325 . S
H152 C94 0.929 . S
H153 C95 0.930 . S
H154 C96 0.930 . S
H155 C97 0.930 . S
H156 C99 0.930 . S
H157 C101 0.929 . S
H158 C102 0.930 . S
H159 C103 0.930 . S
H160 C106 0.930 . S
H161 C109 0.913 1_556 S
H162 C114 0.929 . S
H163 C115 0.930 . S
H164 C122 0.929 . S
H165 C123 0.930 . S
H166 C124 0.930 . S
H167 C125 0.930 . S
H168 C127 0.929 . S
H169 C128 0.930 . S
H170 C129 0.930 . S
H171 C130 0.930 . S
H172 C134 0.929 . S
H173 C136 0.930 . S
H174 C142 0.929 . S
H175 C143 0.930 . S
Li176 N193 1.990 . S
Li176 O236 1.956 . S
Li176 O237 1.970 . S
Li176 O238 1.961 . S
Li177 N201 1.990 . S
Li177 O236 1.970 . S
Li177 O237 1.956 . S
Li177 O239 1.961 . S
Li178 N223 1.990 . S
Li178 O236 1.961 . S
Li178 O238 1.956 . S
Li178 O239 1.970 . S
Li179 N229 1.990 . S
Li179 O237 1.961 . S
Li179 O238 1.970 . S
Li179 O239 1.956 . S
C180 C182 1.348 . S
C180 C183 1.356 . S
C180 O236 1.325 . S
N181 C184 1.314 . S
N181 C185 1.279 . S
C182 C180 1.348 . S
C182 C184 1.353 . S
C182 H240 0.929 . S
C183 C180 1.356 . S
C183 C185 1.358 . S
C183 H241 0.930 . S
C184 N181 1.314 . S
C184 C182 1.353 . S
C184 H242 0.930 . S
C185 N181 1.279 . S
C185 C183 1.358 . S
C185 H243 0.930 . S
C186 C189 1.348 . S
C186 C190 1.356 . S
C186 O237 1.325 . S
C187 N188 1.279 . S
C187 C190 1.358 . S
C187 H244 0.930 . S
N188 C187 1.279 . S
N188 C191 1.314 . S
C189 C186 1.348 . S
C189 C191 1.353 . S
C189 H245 0.929 . S
C190 C186 1.356 . S
C190 C187 1.358 . S
C190 H246 0.930 . S
C191 N188 1.314 . S
C191 C189 1.353 . S
C191 H247 0.930 . S
C192 N193 1.314 . S
C192 C197 1.353 . S
C192 H198 0.930 . S
N193 Li176 1.990 . S
N193 C192 1.314 . S
N193 C195 1.279 . S
C194 C195 1.358 . S
C194 C196 1.356 . S
C194 H248 0.930 . S
C195 N193 1.279 . S
C195 C194 1.358 . S
C195 H199 0.930 . S
C196 C194 1.356 . S
C196 C197 1.348 . S
C197 C192 1.353 . S
C197 C196 1.348 . S
C197 H249 0.929 . S
H198 C192 0.930 . S
H199 C195 0.930 . S
C200 N201 1.314 . S
C200 C202 1.353 . S
C200 H206 0.930 . S
N201 Li177 1.990 . S
N201 C200 1.314 . S
N201 C204 1.279 . S
C202 C200 1.353 . S
C202 C205 1.348 . S
C202 H250 0.929 . S
C203 C204 1.358 . S
C203 C205 1.356 . S
C203 H251 0.930 . S
C204 N201 1.279 . S
C204 C203 1.358 . S
C204 H207 0.930 . S
C205 C202 1.348 . S
C205 C203 1.356 . S
H206 C200 0.930 . S
H207 C204 0.930 . S
C208 C210 1.348 . S
C208 C211 1.356 . S
C208 O238 1.325 . S
N209 C212 1.314 . S
N209 C213 1.279 . S
C210 C208 1.348 . S
C210 C212 1.353 . S
C210 H252 0.929 . S
C211 C208 1.356 . S
C211 C213 1.358 . S
C211 H253 0.930 . S
C212 N209 1.314 . S
C212 C210 1.353 . S
C212 H254 0.930 . S
C213 N209 1.279 . S
C213 C211 1.358 . S
C213 H255 0.930 . S
C214 C215 1.348 . S
C214 C216 1.356 . S
C214 O239 1.325 . S
C215 C214 1.348 . S
C215 C217 1.353 . S
C215 H256 0.929 . S
C216 C214 1.356 . S
C216 C218 1.358 . S
C216 H257 0.930 . S
C217 C215 1.353 . S
C217 N219 1.314 . S
C217 H258 0.930 . S
C218 C216 1.358 . S
C218 N219 1.279 . S
C218 H259 0.930 . S
N219 C217 1.314 . S
N219 C218 1.279 . S
C220 C222 1.353 . S
C220 N223 1.314 . S
C220 H226 0.930 . S
C221 N223 1.279 . S
C221 C224 1.358 . S
C221 H227 0.930 . S
C222 C220 1.353 . S
C222 C225 1.348 . S
C222 H260 0.929 . S
N223 Li178 1.990 . S
N223 C220 1.314 . S
N223 C221 1.279 . S
C224 C221 1.358 . S
C224 C225 1.356 . S
C224 H261 0.930 . S
C225 C222 1.348 . S
C225 C224 1.356 . S
H226 C220 0.930 . S
H227 C221 0.930 . S
C228 N229 1.314 . S
C228 C230 1.353 . S
C228 H234 0.930 . S
N229 Li179 1.990 . S
N229 C228 1.314 . S
N229 C232 1.279 . S
C230 C228 1.353 . S
C230 C233 1.348 . S
C230 H262 0.929 . S
C231 C232 1.358 . S
C231 C233 1.356 . S
C231 H263 0.930 . S
C232 N229 1.279 . S
C232 C231 1.358 . S
C232 H235 0.930 . S
C233 C230 1.348 . S
C233 C231 1.356 . S
H234 C228 0.930 . S
H235 C232 0.930 . S
O236 Li176 1.956 . S
O236 Li177 1.970 . S
O236 Li178 1.961 . S
O236 C180 1.325 . S
O237 Li176 1.970 . S
O237 Li177 1.956 . S
O237 Li179 1.961 . S
O237 C186 1.325 . S
O238 Li176 1.961 . S
O238 Li178 1.956 . S
O238 Li179 1.970 . S
O238 C208 1.325 . S
O239 Li177 1.961 . S
O239 Li178 1.970 . S
O239 Li179 1.956 . S
O239 C214 1.325 . S
H240 C182 0.929 . S
H241 C183 0.930 . S
H242 C184 0.930 . S
H243 C185 0.930 . S
H244 C187 0.930 . S
H245 C189 0.929 . S
H246 C190 0.930 . S
H247 C191 0.930 . S
H248 C194 0.930 . S
H249 C197 0.929 . S
H250 C202 0.929 . S
H251 C203 0.930 . S
H252 C210 0.929 . S
H253 C211 0.930 . S
H254 C212 0.930 . S
H255 C213 0.930 . S
H256 C215 0.929 . S
H257 C216 0.930 . S
H258 C217 0.930 . S
H259 C218 0.930 . S
H260 C222 0.929 . S
H261 C224 0.930 . S
H262 C230 0.929 . S
H263 C231 0.930 . S
Li264 N281 1.990 . S
Li264 O324 1.956 . S
Li264 O325 1.970 . S
Li264 O326 1.961 . S
Li265 N289 1.990 . S
Li265 O324 1.970 . S
Li265 O325 1.956 . S
Li265 O327 1.961 . S
Li266 N311 1.990 . S
Li266 O324 1.961 . S
Li266 O326 1.956 . S
Li266 O327 1.970 . S
Li267 N317 1.990 . S
Li267 O325 1.961 . S
Li267 O326 1.970 . S
Li267 O327 1.956 . S
C268 C270 1.348 . S
C268 C271 1.356 . S
C268 O324 1.325 . S
N269 C272 1.314 . S
N269 C273 1.279 . S
C270 C268 1.348 . S
C270 C272 1.353 . S
C270 H328 0.929 . S
C271 C268 1.356 . S
C271 C273 1.358 . S
C271 H329 0.930 . S
C272 N269 1.314 . S
C272 C270 1.353 . S
C272 H330 0.930 . S
C273 N269 1.279 . S
C273 C271 1.358 . S
C273 H331 0.930 . S
C274 C277 1.348 . S
C274 C278 1.356 . S
C274 O325 1.325 . S
C275 N276 1.279 . S
C275 C278 1.358 . S
C275 H332 0.930 . S
N276 C275 1.279 . S
N276 C279 1.314 . S
C277 C274 1.348 . S
C277 C279 1.353 . S
C277 H333 0.929 . S
C278 C274 1.356 . S
C278 C275 1.358 . S
C278 H334 0.930 . S
C279 N276 1.314 . S
C279 C277 1.353 . S
C279 H335 0.930 . S
C280 N281 1.314 . S
C280 C285 1.353 . S
C280 H286 0.930 . S
N281 Li264 1.990 . S
N281 C280 1.314 . S
N281 C283 1.279 . S
C282 C283 1.358 . S
C282 C284 1.356 . S
C282 H336 0.930 . S
C283 N281 1.279 . S
C283 C282 1.358 . S
C283 H287 0.930 . S
C284 C282 1.356 . S
C284 C285 1.348 . S
C285 C280 1.353 . S
C285 C284 1.348 . S
C285 H337 0.929 . S
H286 C280 0.930 . S
H287 C283 0.930 . S
C288 N289 1.314 . S
C288 C290 1.353 . S
C288 H294 0.930 . S
N289 Li265 1.990 . S
N289 C288 1.314 . S
N289 C292 1.279 . S
C290 C288 1.353 . S
C290 C293 1.348 . S
C290 H338 0.929 . S
C291 C292 1.358 . S
C291 C293 1.356 . S
C291 H339 0.930 . S
C292 N289 1.279 . S
C292 C291 1.358 . S
C292 H295 0.930 . S
C293 C290 1.348 . S
C293 C291 1.356 . S
H294 C288 0.930 . S
H295 C292 0.930 . S
C296 C298 1.348 . S
C296 C299 1.356 . S
C296 O326 1.325 . S
N297 C300 1.314 . S
N297 C301 1.279 . S
C298 C296 1.348 . S
C298 C300 1.353 . S
C298 H340 0.929 . S
C299 C296 1.356 . S
C299 C301 1.358 . S
C299 H341 0.930 . S
C300 N297 1.314 . S
C300 C298 1.353 . S
C300 H342 0.930 . S
C301 N297 1.279 . S
C301 C299 1.358 . S
C301 H343 0.930 . S
C302 C303 1.348 . S
C302 C304 1.356 . S
C302 O327 1.325 . S
C303 C302 1.348 . S
C303 C305 1.353 . S
C303 H344 0.929 . S
C304 C302 1.356 . S
C304 C306 1.358 . S
C304 H345 0.930 . S
C305 C303 1.353 . S
C305 N307 1.314 . S
C305 H346 0.930 . S
C306 C304 1.358 . S
C306 N307 1.279 . S
C306 H347 0.930 . S
N307 C305 1.314 . S
N307 C306 1.279 . S
C308 C310 1.353 . S
C308 N311 1.314 . S
C308 H314 0.930 . S
C309 N311 1.279 . S
C309 C312 1.358 . S
C309 H315 0.930 . S
C310 C308 1.353 . S
C310 C313 1.348 . S
C310 H348 0.929 . S
N311 Li266 1.990 . S
N311 C308 1.314 . S
N311 C309 1.279 . S
C312 C309 1.358 . S
C312 C313 1.356 . S
C312 H349 0.930 . S
C313 C310 1.348 . S
C313 C312 1.356 . S
H314 C308 0.930 . S
H315 C309 0.930 . S
C316 N317 1.314 . S
C316 C318 1.353 . S
C316 H322 0.930 . S
N317 Li267 1.990 . S
N317 C316 1.314 . S
N317 C320 1.279 . S
C318 C316 1.353 . S
C318 C321 1.348 . S
C318 H350 0.929 . S
C319 C320 1.358 . S
C319 C321 1.356 . S
C319 H351 0.930 . S
C320 N317 1.279 . S
C320 C319 1.358 . S
C320 H323 0.930 . S
C321 C318 1.348 . S
C321 C319 1.356 . S
H322 C316 0.930 . S
H323 C320 0.930 . S
O324 Li264 1.956 . S
O324 Li265 1.970 . S
O324 Li266 1.961 . S
O324 C268 1.325 . S
O325 Li264 1.970 . S
O325 Li265 1.956 . S
O325 Li267 1.961 . S
O325 C274 1.325 . S
O326 Li264 1.961 . S
O326 Li266 1.956 . S
O326 Li267 1.970 . S
O326 C296 1.325 . S
O327 Li265 1.961 . S
O327 Li266 1.970 . S
O327 Li267 1.956 . S
O327 C302 1.325 . S
H328 C270 0.929 . S
H329 C271 0.930 . S
H330 C272 0.930 . S
H331 C273 0.930 . S
H332 C275 0.930 . S
H333 C277 0.929 . S
H334 C278 0.930 . S
H335 C279 0.930 . S
H336 C282 0.930 . S
H337 C285 0.929 . S
H338 C290 0.929 . S
H339 C291 0.930 . S
H340 C298 0.929 . S
H341 C299 0.930 . S
H342 C300 0.930 . S
H343 C301 0.930 . S
H344 C303 0.929 . S
H345 C304 0.930 . S
H346 C305 0.930 . S
H347 C306 0.930 . S
H348 C310 0.929 . S
H349 C312 0.930 . S
H350 C318 0.929 . S
H351 C319 0.930 . S
Li352 N369 1.990 . S
Li352 O412 1.956 . S
Li352 O413 1.970 . S
Li352 O414 1.961 . S
Li353 N377 1.990 . S
Li353 O412 1.970 . S
Li353 O413 1.956 . S
Li353 O415 1.961 . S
Li354 N399 1.990 . S
Li354 O412 1.961 . S
Li354 O414 1.956 . S
Li354 O415 1.970 . S
Li355 N405 1.990 . S
Li355 O413 1.961 . S
Li355 O414 1.970 . S
Li355 O415 1.956 . S
C356 C358 1.348 . S
C356 C359 1.356 . S
C356 O412 1.325 . S
N357 C360 1.314 . S
N357 C361 1.279 . S
C358 C356 1.348 . S
C358 C360 1.353 1_556 S
C358 H416 0.929 . S
C359 C356 1.356 . S
C359 C361 1.358 1_556 S
C359 H417 0.930 . S
C360 N357 1.314 . S
C360 C358 1.353 1_554 S
C360 H418 0.930 . S
C361 N357 1.279 . S
C361 C359 1.358 1_554 S
C361 H419 0.930 . S
C362 C365 1.348 . S
C362 C366 1.356 . S
C362 O413 1.325 . S
C363 N364 1.279 . S
C363 C366 1.358 . S
C363 H420 0.930 . S
N364 C363 1.279 . S
N364 C367 1.314 . S
C365 C362 1.348 . S
C365 C367 1.353 . S
C365 H421 0.929 . S
C366 C362 1.356 . S
C366 C363 1.358 . S
C366 H422 0.930 . S
C367 N364 1.314 . S
C367 C365 1.353 . S
C367 H423 0.930 . S
C368 N369 1.314 . S
C368 C373 1.353 . S
C368 H374 0.930 . S
N369 Li352 1.990 . S
N369 C368 1.314 . S
N369 C371 1.279 . S
C370 C371 1.358 . S
C370 C372 1.356 . S
C370 H424 0.930 1_556 S
C371 N369 1.279 . S
C371 C370 1.358 . S
C371 H375 0.930 . S
C372 C370 1.356 . S
C372 C373 1.348 . S
C373 C368 1.353 . S
C373 C372 1.348 . S
C373 H425 0.929 . S
H374 C368 0.930 . S
H375 C371 0.930 . S
C376 N377 1.314 . S
C376 C378 1.353 . S
C376 H382 0.930 . S
N377 Li353 1.990 . S
N377 C376 1.314 . S
N377 C380 1.279 . S
C378 C376 1.353 . S
C378 C381 1.348 . S
C378 H426 0.929 . S
C379 C380 1.358 . S
C379 C381 1.356 . S
C379 H427 0.930 . S
C380 N377 1.279 . S
C380 C379 1.358 . S
C380 H383 0.930 . S
C381 C378 1.348 . S
C381 C379 1.356 . S
H382 C376 0.930 . S
H383 C380 0.930 . S
C384 C386 1.348 . S
C384 C387 1.356 . S
C384 O414 1.325 . S
N385 C388 1.314 . S
N385 C389 1.279 . S
C386 C384 1.348 . S
C386 C388 1.353 . S
C386 H428 0.929 . S
C387 C384 1.356 . S
C387 C389 1.358 . S
C387 H429 0.930 . S
C388 N385 1.314 . S
C388 C386 1.353 . S
C388 H430 0.930 . S
C389 N385 1.279 . S
C389 C387 1.358 . S
C389 H431 0.930 . S
C390 C391 1.348 . S
C390 C392 1.356 . S
C390 O415 1.325 . S
C391 C390 1.348 . S
C391 C393 1.353 . S
C391 H432 0.929 . S
C392 C390 1.356 . S
C392 C394 1.358 . S
C392 H433 0.930 . S
C393 C391 1.353 . S
C393 N395 1.314 . S
C393 H434 0.930 . S
C394 C392 1.358 . S
C394 N395 1.279 . S
C394 H435 0.930 . S
N395 C393 1.314 . S
N395 C394 1.279 . S
C396 C398 1.353 . S
C396 N399 1.314 . S
C396 H402 0.930 . S
C397 N399 1.279 . S
C397 C400 1.358 . S
C397 H403 0.930 . S
C398 C396 1.353 . S
C398 C401 1.348 . S
C398 H436 0.929 . S
N399 Li354 1.990 . S
N399 C396 1.314 . S
N399 C397 1.279 . S
C400 C397 1.358 . S
C400 C401 1.356 . S
C400 H437 0.930 . S
C401 C398 1.348 . S
C401 C400 1.356 . S
H402 C396 0.930 . S
H403 C397 0.930 . S
C404 N405 1.314 . S
C404 C406 1.353 . S
C404 H410 0.930 . S
N405 Li355 1.990 . S
N405 C404 1.314 . S
N405 C408 1.279 . S
C406 C404 1.353 . S
C406 C409 1.348 . S
C406 H438 0.929 . S
C407 C408 1.358 . S
C407 C409 1.356 . S
C407 H439 0.930 . S
C408 N405 1.279 . S
C408 C407 1.358 . S
C408 H411 0.930 . S
C409 C406 1.348 . S
C409 C407 1.356 . S
H410 C404 0.930 . S
H411 C408 0.930 . S
O412 Li352 1.956 . S
O412 Li353 1.970 . S
O412 Li354 1.961 . S
O412 C356 1.325 . S
O413 Li352 1.970 . S
O413 Li353 1.956 . S
O413 Li355 1.961 . S
O413 C362 1.325 . S
O414 Li352 1.961 . S
O414 Li354 1.956 . S
O414 Li355 1.970 . S
O414 C384 1.325 . S
O415 Li353 1.961 . S
O415 Li354 1.970 . S
O415 Li355 1.956 . S
O415 C390 1.325 . S
H416 C358 0.929 . S
H417 C359 0.930 . S
H418 C360 0.930 . S
H419 C361 0.930 . S
H420 C363 0.930 . S
H421 C365 0.929 . S
H422 C366 0.930 . S
H423 C367 0.930 . S
H424 C370 0.930 1_554 S
H425 C373 0.929 . S
H426 C378 0.929 . S
H427 C379 0.930 . S
H428 C386 0.929 . S
H429 C387 0.930 . S
H430 C388 0.930 . S
H431 C389 0.930 . S
H432 C391 0.929 . S
H433 C392 0.930 . S
H434 C393 0.930 . S
H435 C394 0.930 . S
H436 C398 0.929 . S
H437 C400 0.930 . S
H438 C406 0.929 . S
H439 C407 0.930 . S
Li440 N457 1.990 . S
Li440 O500 1.956 . S
Li440 O501 1.970 . S
Li440 O502 1.961 . S
Li441 N465 1.990 . S
Li441 O500 1.970 . S
Li441 O501 1.956 . S
Li441 O503 1.961 . S
Li442 N487 1.990 . S
Li442 O500 1.961 . S
Li442 O502 1.956 . S
Li442 O503 1.970 . S
Li443 N493 1.990 . S
Li443 O501 1.961 . S
Li443 O502 1.970 . S
Li443 O503 1.956 . S
C444 C446 1.348 . S
C444 C447 1.356 . S
C444 O500 1.325 . S
N445 C448 1.314 . S
N445 C449 1.279 . S
C446 C444 1.348 . S
C446 C448 1.353 1_556 S
C446 H504 0.929 . S
C447 C444 1.356 . S
C447 C449 1.358 1_556 S
C447 H505 0.930 . S
C448 N445 1.314 . S
C448 C446 1.353 1_554 S
C448 H506 0.930 . S
C449 N445 1.279 . S
C449 C447 1.358 1_554 S
C449 H507 0.930 . S
C450 C453 1.348 . S
C450 C454 1.356 . S
C450 O501 1.325 . S
C451 N452 1.279 . S
C451 C454 1.358 . S
C451 H508 0.930 . S
N452 C451 1.279 . S
N452 C455 1.314 . S
C453 C450 1.348 . S
C453 C455 1.353 . S
C453 H509 0.929 . S
C454 C450 1.356 . S
C454 C451 1.358 . S
C454 H510 0.930 . S
C455 N452 1.314 . S
C455 C453 1.353 . S
C455 H511 0.930 . S
C456 N457 1.314 . S
C456 C461 1.353 . S
C456 H462 0.930 . S
N457 Li440 1.990 . S
N457 C456 1.314 . S
N457 C459 1.279 . S
C458 C459 1.358 . S
C458 C460 1.356 . S
C458 H512 0.930 1_556 S
C459 N457 1.279 . S
C459 C458 1.358 . S
C459 H463 0.930 . S
C460 C458 1.356 . S
C460 C461 1.348 . S
C461 C456 1.353 . S
C461 C460 1.348 . S
C461 H513 0.929 . S
H462 C456 0.930 . S
H463 C459 0.930 . S
C464 N465 1.314 . S
C464 C466 1.353 . S
C464 H470 0.930 . S
N465 Li441 1.990 . S
N465 C464 1.314 . S
N465 C468 1.279 . S
C466 C464 1.353 . S
C466 C469 1.348 . S
C466 H514 0.929 . S
C467 C468 1.358 . S
C467 C469 1.356 . S
C467 H515 0.930 . S
C468 N465 1.279 . S
C468 C467 1.358 . S
C468 H471 0.930 . S
C469 C466 1.348 . S
C469 C467 1.356 . S
H470 C464 0.930 . S
H471 C468 0.930 . S
C472 C474 1.348 . S
C472 C475 1.356 . S
C472 O502 1.325 . S
N473 C476 1.314 . S
N473 C477 1.279 . S
C474 C472 1.348 . S
C474 C476 1.353 . S
C474 H516 0.929 . S
C475 C472 1.356 . S
C475 C477 1.358 . S
C475 H517 0.930 . S
C476 N473 1.314 . S
C476 C474 1.353 . S
C476 H518 0.930 . S
C477 N473 1.279 . S
C477 C475 1.358 . S
C477 H519 0.930 . S
C478 C479 1.348 . S
C478 C480 1.356 . S
C478 O503 1.325 . S
C479 C478 1.348 . S
C479 C481 1.353 . S
C479 H520 0.929 . S
C480 C478 1.356 . S
C480 C482 1.358 . S
C480 H521 0.930 . S
C481 C479 1.353 . S
C481 N483 1.314 . S
C481 H522 0.930 . S
C482 C480 1.358 . S
C482 N483 1.279 . S
C482 H523 0.930 . S
N483 C481 1.314 . S
N483 C482 1.279 . S
C484 C486 1.353 . S
C484 N487 1.314 . S
C484 H490 0.930 . S
C485 N487 1.279 . S
C485 C488 1.358 . S
C485 H491 0.930 . S
C486 C484 1.353 . S
C486 C489 1.348 . S
C486 H524 0.929 . S
N487 Li442 1.990 . S
N487 C484 1.314 . S
N487 C485 1.279 . S
C488 C485 1.358 . S
C488 C489 1.356 . S
C488 H525 0.930 . S
C489 C486 1.348 . S
C489 C488 1.356 . S
H490 C484 0.930 . S
H491 C485 0.930 . S
C492 N493 1.314 . S
C492 C494 1.353 . S
C492 H498 0.930 . S
N493 Li443 1.990 . S
N493 C492 1.314 . S
N493 C496 1.279 . S
C494 C492 1.353 . S
C494 C497 1.348 . S
C494 H526 0.929 . S
C495 C496 1.358 . S
C495 C497 1.356 . S
C495 H527 0.930 . S
C496 N493 1.279 . S
C496 C495 1.358 . S
C496 H499 0.930 . S
C497 C494 1.348 . S
C497 C495 1.356 . S
H498 C492 0.930 . S
H499 C496 0.930 . S
O500 Li440 1.956 . S
O500 Li441 1.970 . S
O500 Li442 1.961 . S
O500 C444 1.325 . S
O501 Li440 1.970 . S
O501 Li441 1.956 . S
O501 Li443 1.961 . S
O501 C450 1.325 . S
O502 Li440 1.961 . S
O502 Li442 1.956 . S
O502 Li443 1.970 . S
O502 C472 1.325 . S
O503 Li441 1.961 . S
O503 Li442 1.970 . S
O503 Li443 1.956 . S
O503 C478 1.325 . S
H504 C446 0.929 . S
H505 C447 0.930 . S
H506 C448 0.930 . S
H507 C449 0.930 . S
H508 C451 0.930 . S
H509 C453 0.929 . S
H510 C454 0.930 . S
H511 C455 0.930 . S
H512 C458 0.930 1_554 S
H513 C461 0.929 . S
H514 C466 0.929 . S
H515 C467 0.930 . S
H516 C474 0.929 . S
H517 C475 0.930 . S
H518 C476 0.930 . S
H519 C477 0.930 . S
H520 C479 0.929 . S
H521 C480 0.930 . S
H522 C481 0.930 . S
H523 C482 0.930 . S
H524 C486 0.929 . S
H525 C488 0.930 . S
H526 C494 0.929 . S
H527 C495 0.930 . S
Li528 N545 1.990 . S
Li528 O588 1.956 . S
Li528 O589 1.970 . S
Li528 O590 1.961 . S
Li529 N553 1.990 . S
Li529 O588 1.970 . S
Li529 O589 1.956 . S
Li529 O591 1.961 . S
Li530 N575 1.990 . S
Li530 O588 1.961 . S
Li530 O590 1.956 . S
Li530 O591 1.970 . S
Li531 N581 1.990 . S
Li531 O589 1.961 . S
Li531 O590 1.970 . S
Li531 O591 1.956 . S
C532 C534 1.348 . S
C532 C535 1.356 . S
C532 O588 1.325 . S
N533 C536 1.314 . S
N533 C537 1.279 . S
C534 C532 1.348 . S
C534 C536 1.353 . S
C534 H592 0.929 . S
C535 C532 1.356 . S
C535 C537 1.358 . S
C535 H593 0.930 . S
C536 N533 1.314 . S
C536 C534 1.353 . S
C536 H594 0.930 . S
C537 N533 1.279 . S
C537 C535 1.358 . S
C537 H595 0.930 . S
C538 C541 1.348 . S
C538 C542 1.356 . S
C538 O589 1.325 . S
C539 N540 1.279 . S
C539 C542 1.358 . S
C539 H596 0.930 . S
N540 C539 1.279 . S
N540 C543 1.314 . S
C541 C538 1.348 . S
C541 C543 1.353 . S
C541 H597 0.929 . S
C542 C538 1.356 . S
C542 C539 1.358 . S
C542 H598 0.930 . S
C543 N540 1.314 . S
C543 C541 1.353 . S
C543 H599 0.930 . S
C544 N545 1.314 . S
C544 C549 1.353 . S
C544 H550 0.930 . S
N545 Li528 1.990 . S
N545 C544 1.314 . S
N545 C547 1.279 . S
C546 C547 1.358 . S
C546 C548 1.356 . S
C546 H600 0.930 . S
C547 N545 1.279 . S
C547 C546 1.358 . S
C547 H551 0.930 . S
C548 C546 1.356 . S
C548 C549 1.348 . S
C549 C544 1.353 . S
C549 C548 1.348 . S
C549 H601 0.929 . S
H550 C544 0.930 . S
H551 C547 0.930 . S
C552 N553 1.314 . S
C552 C554 1.353 . S
C552 H558 0.930 . S
N553 Li529 1.990 . S
N553 C552 1.314 . S
N553 C556 1.279 . S
C554 C552 1.353 . S
C554 C557 1.348 . S
C554 H602 0.929 . S
C555 C556 1.358 . S
C555 C557 1.356 . S
C555 H603 0.930 . S
C556 N553 1.279 . S
C556 C555 1.358 . S
C556 H559 0.930 . S
C557 C554 1.348 . S
C557 C555 1.356 . S
H558 C552 0.930 . S
H559 C556 0.930 . S
C560 C562 1.348 . S
C560 C563 1.356 . S
C560 O590 1.325 . S
N561 C564 1.314 . S
N561 C565 1.279 . S
C562 C560 1.348 . S
C562 C564 1.353 . S
C562 H604 0.929 . S
C563 C560 1.356 . S
C563 C565 1.358 . S
C563 H605 0.930 . S
C564 N561 1.314 . S
C564 C562 1.353 . S
C564 H606 0.930 . S
C565 N561 1.279 . S
C565 C563 1.358 . S
C565 H607 0.930 . S
C566 C567 1.348 . S
C566 C568 1.356 . S
C566 O591 1.325 . S
C567 C566 1.348 . S
C567 C569 1.353 . S
C567 H608 0.929 . S
C568 C566 1.356 . S
C568 C570 1.358 . S
C568 H609 0.930 . S
C569 C567 1.353 . S
C569 N571 1.314 . S
C569 H610 0.930 . S
C570 C568 1.358 . S
C570 N571 1.279 . S
C570 H611 0.930 . S
N571 C569 1.314 . S
N571 C570 1.279 . S
C572 C574 1.353 . S
C572 N575 1.314 . S
C572 H578 0.930 . S
C573 N575 1.279 . S
C573 C576 1.358 . S
C573 H579 0.930 . S
C574 C572 1.353 . S
C574 C577 1.348 . S
C574 H612 0.929 . S
N575 Li530 1.990 . S
N575 C572 1.314 . S
N575 C573 1.279 . S
C576 C573 1.358 . S
C576 C577 1.356 . S
C576 H613 0.930 . S
C577 C574 1.348 . S
C577 C576 1.356 . S
H578 C572 0.930 . S
H579 C573 0.930 . S
C580 N581 1.314 . S
C580 C582 1.353 . S
C580 H586 0.930 . S
N581 Li531 1.990 . S
N581 C580 1.314 . S
N581 C584 1.279 . S
C582 C580 1.353 . S
C582 C585 1.348 . S
C582 H614 0.929 . S
C583 C584 1.358 . S
C583 C585 1.356 . S
C583 H615 0.930 . S
C584 N581 1.279 . S
C584 C583 1.358 . S
C584 H587 0.930 . S
C585 C582 1.348 . S
C585 C583 1.356 . S
H586 C580 0.930 . S
H587 C584 0.930 . S
O588 Li528 1.956 . S
O588 Li529 1.970 . S
O588 Li530 1.961 . S
O588 C532 1.325 . S
O589 Li528 1.970 . S
O589 Li529 1.956 . S
O589 Li531 1.961 . S
O589 C538 1.325 . S
O590 Li528 1.961 . S
O590 Li530 1.956 . S
O590 Li531 1.970 . S
O590 C560 1.325 . S
O591 Li529 1.961 . S
O591 Li530 1.970 . S
O591 Li531 1.956 . S
O591 C566 1.325 . S
H592 C534 0.929 . S
H593 C535 0.930 . S
H594 C536 0.930 . S
H595 C537 0.930 . S
H596 C539 0.930 . S
H597 C541 0.929 . S
H598 C542 0.930 . S
H599 C543 0.930 . S
H600 C546 0.930 . S
H601 C549 0.929 . S
H602 C554 0.929 . S
H603 C555 0.930 . S
H604 C562 0.929 . S
H605 C563 0.930 . S
H606 C564 0.930 . S
H607 C565 0.930 . S
H608 C567 0.929 . S
H609 C568 0.930 . S
H610 C569 0.930 . S
H611 C570 0.930 . S
H612 C574 0.929 . S
H613 C576 0.930 . S
H614 C582 0.929 . S
H615 C583 0.930 . S
Li616 N633 1.990 . S
Li616 O676 1.956 . S
Li616 O677 1.970 . S
Li616 O678 1.961 . S
Li617 N641 1.990 . S
Li617 O676 1.970 . S
Li617 O677 1.956 . S
Li617 O679 1.961 . S
Li618 N663 1.990 . S
Li618 O676 1.961 . S
Li618 O678 1.956 . S
Li618 O679 1.970 . S
Li619 N669 1.990 . S
Li619 O677 1.961 . S
Li619 O678 1.970 . S
Li619 O679 1.956 . S
C620 C622 1.348 . S
C620 C623 1.356 . S
C620 O676 1.325 . S
N621 C624 1.314 . S
N621 C625 1.279 . S
C622 C620 1.348 . S
C622 C624 1.353 . S
C622 H680 0.929 . S
C623 C620 1.356 . S
C623 C625 1.358 . S
C623 H681 0.930 . S
C624 N621 1.314 . S
C624 C622 1.353 . S
C624 H682 0.930 . S
C625 N621 1.279 . S
C625 C623 1.358 . S
C625 H683 0.930 . S
C626 C629 1.348 . S
C626 C630 1.356 . S
C626 O677 1.325 . S
C627 N628 1.279 . S
C627 C630 1.358 . S
C627 H684 0.930 . S
N628 C627 1.279 . S
N628 C631 1.314 . S
C629 C626 1.348 . S
C629 C631 1.353 . S
C629 H685 0.929 . S
C630 C626 1.356 . S
C630 C627 1.358 . S
C630 H686 0.930 . S
C631 N628 1.314 . S
C631 C629 1.353 . S
C631 H687 0.930 . S
C632 N633 1.314 . S
C632 C637 1.353 . S
C632 H638 0.930 . S
N633 Li616 1.990 . S
N633 C632 1.314 . S
N633 C635 1.279 . S
C634 C635 1.358 . S
C634 C636 1.356 . S
C634 H688 0.930 . S
C635 N633 1.279 . S
C635 C634 1.358 . S
C635 H639 0.930 . S
C636 C634 1.356 . S
C636 C637 1.348 . S
C637 C632 1.353 . S
C637 C636 1.348 . S
C637 H689 0.929 . S
H638 C632 0.930 . S
H639 C635 0.930 . S
C640 N641 1.314 . S
C640 C642 1.353 . S
C640 H646 0.930 . S
N641 Li617 1.990 . S
N641 C640 1.314 . S
N641 C644 1.279 . S
C642 C640 1.353 . S
C642 C645 1.348 . S
C642 H690 0.929 . S
C643 C644 1.358 . S
C643 C645 1.356 . S
C643 H691 0.930 . S
C644 N641 1.279 . S
C644 C643 1.358 . S
C644 H647 0.930 . S
C645 C642 1.348 . S
C645 C643 1.356 . S
H646 C640 0.930 . S
H647 C644 0.930 . S
C648 C650 1.348 . S
C648 C651 1.356 . S
C648 O678 1.325 . S
N649 C652 1.314 . S
N649 C653 1.279 . S
C650 C648 1.348 . S
C650 C652 1.353 . S
C650 H692 0.929 . S
C651 C648 1.356 . S
C651 C653 1.358 . S
C651 H693 0.930 . S
C652 N649 1.314 . S
C652 C650 1.353 . S
C652 H694 0.930 . S
C653 N649 1.279 . S
C653 C651 1.358 . S
C653 H695 0.930 . S
C654 C655 1.348 . S
C654 C656 1.356 . S
C654 O679 1.325 . S
C655 C654 1.348 . S
C655 C657 1.353 . S
C655 H696 0.929 . S
C656 C654 1.356 . S
C656 C658 1.358 . S
C656 H697 0.930 . S
C657 C655 1.353 . S
C657 N659 1.314 . S
C657 H698 0.930 . S
C658 C656 1.358 . S
C658 N659 1.279 . S
C658 H699 0.930 . S
N659 C657 1.314 . S
N659 C658 1.279 . S
C660 C662 1.353 . S
C660 N663 1.314 . S
C660 H666 0.930 . S
C661 N663 1.279 . S
C661 C664 1.358 . S
C661 H667 0.930 . S
C662 C660 1.353 . S
C662 C665 1.348 . S
C662 H700 0.929 . S
N663 Li618 1.990 . S
N663 C660 1.314 . S
N663 C661 1.279 . S
C664 C661 1.358 . S
C664 C665 1.356 . S
C664 H701 0.930 . S
C665 C662 1.348 . S
C665 C664 1.356 . S
H666 C660 0.930 . S
H667 C661 0.930 . S
C668 N669 1.314 . S
C668 C670 1.353 . S
C668 H674 0.930 . S
N669 Li619 1.990 . S
N669 C668 1.314 . S
N669 C672 1.279 . S
C670 C668 1.353 . S
C670 C673 1.348 . S
C670 H702 0.929 . S
C671 C672 1.358 . S
C671 C673 1.356 . S
C671 H703 0.930 . S
C672 N669 1.279 . S
C672 C671 1.358 . S
C672 H675 0.930 . S
C673 C670 1.348 . S
C673 C671 1.356 . S
H674 C668 0.930 . S
H675 C672 0.930 . S
O676 Li616 1.956 . S
O676 Li617 1.970 . S
O676 Li618 1.961 . S
O676 C620 1.325 . S
O677 Li616 1.970 . S
O677 Li617 1.956 . S
O677 Li619 1.961 . S
O677 C626 1.325 . S
O678 Li616 1.961 . S
O678 Li618 1.956 . S
O678 Li619 1.970 . S
O678 C648 1.325 . S
O679 Li617 1.961 . S
O679 Li618 1.970 . S
O679 Li619 1.956 . S
O679 C654 1.325 . S
H680 C622 0.929 . S
H681 C623 0.930 . S
H682 C624 0.930 . S
H683 C625 0.930 . S
H684 C627 0.930 . S
H685 C629 0.929 . S
H686 C630 0.930 . S
H687 C631 0.930 . S
H688 C634 0.930 . S
H689 C637 0.929 . S
H690 C642 0.929 . S
H691 C643 0.930 . S
H692 C650 0.929 . S
H693 C651 0.930 . S
H694 C652 0.930 . S
H695 C653 0.930 . S
H696 C655 0.929 . S
H697 C656 0.930 . S
H698 C657 0.930 . S
H699 C658 0.930 . S
H700 C662 0.929 . S
H701 C664 0.930 . S
H702 C670 0.929 . S
H703 C671 0.930 . S
H704 C716 0.930 . S
H705 C718 0.930 1_556 S
H706 C719 0.930 1_556 S
H707 C723 0.959 . S
H708 C723 0.959 . S
H709 C723 0.961 . S
H710 C724 0.960 . S
H711 C724 0.961 . S
H712 C724 0.959 . S
H713 C727 0.929 1_556 S
H714 C728 0.931 1_556 S
H715 C730 0.930 . S
C716 H704 0.930 . S
C716 C717 1.399 . S
C716 C721 1.399 . S
C717 C716 1.399 . S
C717 C718 1.376 . S
C718 H705 0.930 1_554 S
C718 C717 1.376 . S
C718 C719 1.388 . S
C719 H706 0.930 1_554 S
C719 C718 1.388 . S
C719 C720 1.390 . S
C720 C719 1.390 . S
C720 C721 1.394 . S
C720 C726 1.465 1_545 S
C721 C716 1.399 . S
C721 C720 1.394 . S
C721 C722 1.509 1_545 S
C722 C721 1.509 1_565 S
C722 C723 1.521 . S
C722 C724 1.542 1_565 S
C722 C725 1.532 . S
C723 H707 0.959 . S
C723 H708 0.959 . S
C723 H709 0.961 . S
C723 C722 1.521 . S
C724 H710 0.960 . S
C724 H711 0.961 . S
C724 H712 0.959 . S
C724 C722 1.542 1_545 S
C725 C722 1.532 . S
C725 C726 1.396 . S
C725 C730 1.390 . S
C726 C720 1.465 1_565 S
C726 C725 1.396 . S
C726 C727 1.399 . S
C727 H713 0.929 1_554 S
C727 C726 1.399 . S
C727 C728 1.385 . S
C728 H714 0.931 1_554 S
C728 C727 1.385 . S
C728 C729 1.389 . S
C729 C728 1.389 . S
C729 C730 1.387 . S
C730 H715 0.930 . S
C730 C725 1.390 . S
C730 C729 1.387 . S
H731 C743 0.930 . S
H732 C745 0.930 . S
H733 C746 0.930 . S
H734 C750 0.959 . S
H735 C750 0.959 . S
H736 C750 0.961 . S
H737 C751 0.960 . S
H738 C751 0.961 . S
H739 C751 0.959 . S
H740 C754 0.929 . S
H741 C755 0.931 . S
H742 C757 0.930 . S
C743 H731 0.930 . S
C743 C744 1.399 . S
C743 C748 1.399 . S
C744 C743 1.399 . S
C744 C745 1.376 . S
C745 H732 0.930 . S
C745 C744 1.376 . S
C745 C746 1.388 . S
C746 H733 0.930 . S
C746 C745 1.388 . S
C746 C747 1.390 . S
C747 C746 1.390 . S
C747 C748 1.394 . S
C747 C753 1.465 . S
C748 C743 1.399 . S
C748 C747 1.394 . S
C748 C749 1.516 . S
C749 C748 1.516 . S
C749 C750 1.502 . S
C749 C751 1.561 . S
C749 C752 1.526 . S
C750 H734 0.959 . S
C750 H735 0.959 . S
C750 H736 0.961 . S
C750 C749 1.502 . S
C751 H737 0.960 . S
C751 H738 0.961 . S
C751 H739 0.959 . S
C751 C749 1.561 . S
C752 C749 1.526 . S
C752 C753 1.396 . S
C752 C757 1.390 . S
C753 C747 1.465 . S
C753 C752 1.396 . S
C753 C754 1.399 . S
C754 H740 0.929 . S
C754 C753 1.399 . S
C754 C755 1.385 . S
C755 H741 0.931 . S
C755 C754 1.385 . S
C755 C756 1.389 . S
C756 C755 1.389 . S
C756 C757 1.387 . S
C757 H742 0.930 . S
C757 C752 1.390 . S
C757 C756 1.387 . S
H758 C770 0.930 . S
H759 C772 0.930 . S
H760 C773 0.930 . S
H761 C777 0.959 . S
H762 C777 0.959 . S
H763 C777 0.961 . S
H764 C778 0.960 . S
H765 C778 0.961 . S
H766 C778 0.959 . S
H767 C781 0.929 . S
H768 C782 0.931 . S
H769 C784 0.930 1_565 S
C770 H758 0.930 . S
C770 C771 1.399 . S
C770 C775 1.399 . S
C771 C770 1.399 . S
C771 C772 1.376 1_565 S
C772 H759 0.930 . S
C772 C771 1.376 1_545 S
C772 C773 1.388 . S
C773 H760 0.930 . S
C773 C772 1.388 . S
C773 C774 1.390 . S
C774 C773 1.390 . S
C774 C775 1.394 1_545 S
C774 C780 1.465 . S
C775 C770 1.399 . S
C775 C774 1.394 1_565 S
C775 C776 1.516 . S
C776 C775 1.516 . S
C776 C777 1.502 . S
C776 C778 1.561 . S
C776 C779 1.526 . S
C777 H761 0.959 . S
C777 H762 0.959 . S
C777 H763 0.961 . S
C777 C776 1.502 . S
C778 H764 0.960 . S
C778 H765 0.961 . S
C778 H766 0.959 . S
C778 C776 1.561 . S
C779 C776 1.526 . S
C779 C780 1.396 1_565 S
C779 C784 1.390 1_565 S
C780 C774 1.465 . S
C780 C779 1.396 1_545 S
C780 C781 1.399 . S
C781 H767 0.929 . S
C781 C780 1.399 . S
C781 C782 1.385 . S
C782 H768 0.931 . S
C782 C781 1.385 . S
C782 C783 1.389 . S
C783 C782 1.389 . S
C783 C784 1.387 . S
C784 H769 0.930 1_545 S
C784 C779 1.390 1_545 S
C784 C783 1.387 . S
H785 C797 0.930 . S
H786 C799 0.930 . S
H787 C800 0.930 . S
H788 C804 0.959 . S
H789 C804 0.959 . S
H790 C804 0.961 . S
H791 C805 0.960 . S
H792 C805 0.961 . S
H793 C805 0.959 . S
H794 C808 0.929 . S
H795 C809 0.931 . S
H796 C811 0.930 . S
C797 H785 0.930 . S
C797 C798 1.399 . S
C797 C802 1.399 . S
C798 C797 1.399 . S
C798 C799 1.376 . S
C799 H786 0.930 . S
C799 C798 1.376 . S
C799 C800 1.388 . S
C800 H787 0.930 . S
C800 C799 1.388 . S
C800 C801 1.390 . S
C801 C800 1.390 . S
C801 C802 1.394 . S
C801 C807 1.465 . S
C802 C797 1.399 . S
C802 C801 1.394 . S
C802 C803 1.516 . S
C803 C802 1.516 . S
C803 C804 1.502 . S
C803 C805 1.561 . S
C803 C806 1.526 . S
C804 H788 0.959 . S
C804 H789 0.959 . S
C804 H790 0.961 . S
C804 C803 1.502 . S
C805 H791 0.960 . S
C805 H792 0.961 . S
C805 H793 0.959 . S
C805 C803 1.561 . S
C806 C803 1.526 . S
C806 C807 1.396 . S
C806 C811 1.390 . S
C807 C801 1.465 . S
C807 C806 1.396 . S
C807 C808 1.399 . S
C808 H794 0.929 . S
C808 C807 1.399 . S
C808 C809 1.385 . S
C809 H795 0.931 . S
C809 C808 1.385 . S
C809 C810 1.389 . S
C810 C809 1.389 . S
C810 C811 1.387 . S
C811 H796 0.930 . S
C811 C806 1.390 . S
C811 C810 1.387 . S
H812 C824 0.930 . S
H813 C826 0.930 . S
H814 C827 0.930 . S
H815 C831 0.959 . S
H816 C831 0.959 . S
H817 C831 0.961 . S
H818 C832 0.960 . S
H819 C832 0.961 . S
H820 C832 0.959 . S
H821 C835 0.929 . S
H822 C836 0.931 . S
H823 C838 0.930 . S
C824 H812 0.930 . S
C824 C825 1.399 . S
C824 C829 1.399 . S
C825 C824 1.399 . S
C825 C826 1.376 . S
C826 H813 0.930 . S
C826 C825 1.376 . S
C826 C827 1.388 . S
C827 H814 0.930 . S
C827 C826 1.388 . S
C827 C828 1.390 . S
C828 C827 1.390 . S
C828 C829 1.394 . S
C828 C834 1.465 . S
C829 C824 1.399 . S
C829 C828 1.394 . S
C829 C830 1.516 . S
C830 C829 1.516 . S
C830 C831 1.502 . S
C830 C832 1.561 . S
C830 C833 1.526 . S
C831 H815 0.959 . S
C831 H816 0.959 . S
C831 H817 0.961 . S
C831 C830 1.502 . S
C832 H818 0.960 . S
C832 H819 0.961 . S
C832 H820 0.959 . S
C832 C830 1.561 . S
C833 C830 1.526 . S
C833 C834 1.396 . S
C833 C838 1.390 . S
C834 C828 1.465 . S
C834 C833 1.396 . S
C834 C835 1.399 . S
C835 H821 0.929 . S
C835 C834 1.399 . S
C835 C836 1.385 . S
C836 H822 0.931 . S
C836 C835 1.385 . S
C836 C837 1.389 . S
C837 C836 1.389 . S
C837 C838 1.387 . S
C838 H823 0.930 . S
C838 C833 1.390 . S
C838 C837 1.387 . S
H839 C851 0.930 . S
H840 C853 0.930 . S
H841 C854 0.930 . S
H842 C858 0.959 . S
H843 C858 0.959 . S
H844 C858 0.961 . S
H845 C859 0.960 . S
H846 C859 0.961 . S
H847 C859 0.959 . S
H848 C862 0.929 . S
H849 C863 0.931 . S
H850 C865 0.930 . S
C851 H839 0.930 . S
C851 C852 1.399 . S
C851 C856 1.399 . S
C852 C851 1.399 . S
C852 C853 1.376 . S
C853 H840 0.930 . S
C853 C852 1.376 . S
C853 C854 1.388 . S
C854 H841 0.930 . S
C854 C853 1.388 . S
C854 C855 1.390 . S
C855 C854 1.390 . S
C855 C856 1.394 . S
C855 C861 1.465 . S
C856 C851 1.399 . S
C856 C855 1.394 . S
C856 C857 1.516 . S
C857 C856 1.516 . S
C857 C858 1.502 . S
C857 C859 1.561 . S
C857 C860 1.526 . S
C858 H842 0.959 . S
C858 H843 0.959 . S
C858 H844 0.961 . S
C858 C857 1.502 . S
C859 H845 0.960 . S
C859 H846 0.961 . S
C859 H847 0.959 . S
C859 C857 1.561 . S
C860 C857 1.526 . S
C860 C861 1.396 . S
C860 C865 1.390 . S
C861 C855 1.465 . S
C861 C860 1.396 . S
C861 C862 1.399 . S
C862 H848 0.929 . S
C862 C861 1.399 . S
C862 C863 1.385 . S
C863 H849 0.931 . S
C863 C862 1.385 . S
C863 C864 1.389 . S
C864 C863 1.389 . S
C864 C865 1.387 . S
C865 H850 0.930 . S
C865 C860 1.390 . S
C865 C864 1.387 . S
H866 C878 0.930 . S
H867 C880 0.930 . S
H868 C881 0.930 . S
H869 C885 0.959 . S
H870 C885 0.959 . S
H871 C885 0.961 . S
H872 C886 0.960 . S
H873 C886 0.961 . S
H874 C886 0.959 . S
H875 C889 0.929 . S
H876 C890 0.931 . S
H877 C892 0.930 . S
C878 H866 0.930 . S
C878 C879 1.399 . S
C878 C883 1.399 . S
C879 C878 1.399 . S
C879 C880 1.376 . S
C880 H867 0.930 . S
C880 C879 1.376 . S
C880 C881 1.388 . S
C881 H868 0.930 . S
C881 C880 1.388 . S
C881 C882 1.390 . S
C882 C881 1.390 . S
C882 C883 1.394 . S
C882 C888 1.465 . S
C883 C878 1.399 . S
C883 C882 1.394 . S
C883 C884 1.516 . S
C884 C883 1.516 . S
C884 C885 1.502 . S
C884 C886 1.561 . S
C884 C887 1.526 . S
C885 H869 0.959 . S
C885 H870 0.959 . S
C885 H871 0.961 . S
C885 C884 1.502 . S
C886 H872 0.960 . S
C886 H873 0.961 . S
C886 H874 0.959 . S
C886 C884 1.561 . S
C887 C884 1.526 . S
C887 C888 1.396 . S
C887 C892 1.390 . S
C888 C882 1.465 . S
C888 C887 1.396 . S
C888 C889 1.399 . S
C889 H875 0.929 . S
C889 C888 1.399 . S
C889 C890 1.385 . S
C890 H876 0.931 . S
C890 C889 1.385 . S
C890 C891 1.389 . S
C891 C890 1.389 . S
C891 C892 1.387 . S
C892 H877 0.930 . S
C892 C887 1.390 . S
C892 C891 1.387 . S
H893 C905 0.930 . S
H894 C907 0.930 . S
H895 C908 0.930 . S
H896 C912 0.959 . S
H897 C912 0.959 . S
H898 C912 0.961 . S
H899 C913 0.960 . S
H900 C913 0.961 . S
H901 C913 0.959 . S
H902 C916 0.929 . S
H903 C917 0.931 . S
H904 C919 0.930 . S
C905 H893 0.930 . S
C905 C906 1.399 . S
C905 C910 1.399 . S
C906 C905 1.399 . S
C906 C907 1.376 . S
C907 H894 0.930 . S
C907 C906 1.376 . S
C907 C908 1.388 . S
C908 H895 0.930 . S
C908 C907 1.388 . S
C908 C909 1.390 . S
C909 C908 1.390 . S
C909 C910 1.394 . S
C909 C915 1.465 . S
C910 C905 1.399 . S
C910 C909 1.394 . S
C910 C911 1.516 . S
C911 C910 1.516 . S
C911 C912 1.502 . S
C911 C913 1.561 . S
C911 C914 1.526 . S
C912 H896 0.959 . S
C912 H897 0.959 . S
C912 H898 0.961 . S
C912 C911 1.502 . S
C913 H899 0.960 . S
C913 H900 0.961 . S
C913 H901 0.959 . S
C913 C911 1.561 . S
C914 C911 1.526 . S
C914 C915 1.396 . S
C914 C919 1.390 . S
C915 C909 1.465 . S
C915 C914 1.396 . S
C915 C916 1.399 . S
C916 H902 0.929 . S
C916 C915 1.399 . S
C916 C917 1.385 . S
C917 H903 0.931 . S
C917 C916 1.385 . S
C917 C918 1.389 . S
C918 C917 1.389 . S
C918 C919 1.387 . S
C919 H904 0.930 . S
C919 C914 1.390 . S
C919 C918 1.387 . S
H920 C932 0.930 . S
H921 C934 0.930 . S
H922 C935 0.930 . S
H923 C939 0.959 . S
H924 C939 0.959 . S
H925 C939 0.961 . S
H926 C940 0.960 . S
H927 C940 0.961 . S
H928 C940 0.959 . S
H929 C943 0.929 . S
H930 C944 0.931 . S
H931 C946 0.930 . S
C932 H920 0.930 . S
C932 C933 1.399 1_556 S
C932 C937 1.399 . S
C933 C932 1.399 1_554 S
C933 C934 1.376 . S
C934 H921 0.930 . S
C934 C933 1.376 . S
C934 C935 1.388 . S
C935 H922 0.930 . S
C935 C934 1.388 . S
C935 C936 1.390 . S
C936 C935 1.390 . S
C936 C937 1.394 1_554 S
C936 C942 1.465 . S
C937 C932 1.399 . S
C937 C936 1.394 1_556 S
C937 C938 1.516 . S
C938 C937 1.516 . S
C938 C939 1.502 . S
C938 C940 1.561 . S
C938 C941 1.526 . S
C939 H923 0.959 . S
C939 H924 0.959 . S
C939 H925 0.961 . S
C939 C938 1.502 . S
C940 H926 0.960 . S
C940 H927 0.961 . S
C940 H928 0.959 . S
C940 C938 1.561 . S
C941 C938 1.526 . S
C941 C942 1.396 1_556 S
C941 C946 1.390 . S
C942 C936 1.465 . S
C942 C941 1.396 1_554 S
C942 C943 1.399 . S
C943 H929 0.929 . S
C943 C942 1.399 . S
C943 C944 1.385 . S
C944 H930 0.931 . S
C944 C943 1.385 . S
C944 C945 1.389 1_554 S
C945 C944 1.389 1_556 S
C945 C946 1.387 . S
C946 H931 0.930 . S
C946 C941 1.390 . S
C946 C945 1.387 . S
H947 C959 0.930 . S
H948 C961 0.930 . S
H949 C962 0.930 . S
H950 C966 0.959 . S
H951 C966 0.959 . S
H952 C966 0.961 . S
H953 C967 0.960 . S
H954 C967 0.961 . S
H955 C967 0.959 . S
H956 C970 0.929 . S
H957 C971 0.931 . S
H958 C973 0.930 . S
C959 H947 0.930 . S
C959 C960 1.399 1_556 S
C959 C964 1.399 . S
C960 C959 1.399 1_554 S
C960 C961 1.376 . S
C961 H948 0.930 . S
C961 C960 1.376 . S
C961 C962 1.388 . S
C962 H949 0.930 . S
C962 C961 1.388 . S
C962 C963 1.390 . S
C963 C962 1.390 . S
C963 C964 1.394 1_554 S
C963 C969 1.465 . S
C964 C959 1.399 . S
C964 C963 1.394 1_556 S
C964 C965 1.516 1_455 S
C965 C964 1.516 1_655 S
C965 C966 1.502 . S
C965 C967 1.561 1_655 S
C965 C968 1.526 . S
C966 H950 0.959 . S
C966 H951 0.959 . S
C966 H952 0.961 . S
C966 C965 1.502 . S
C967 H953 0.960 . S
C967 H954 0.961 . S
C967 H955 0.959 . S
C967 C965 1.561 1_455 S
C968 C965 1.526 . S
C968 C969 1.396 1_656 S
C968 C973 1.390 . S
C969 C963 1.465 . S
C969 C968 1.396 1_454 S
C969 C970 1.399 . S
C970 H956 0.929 . S
C970 C969 1.399 . S
C970 C971 1.385 1_455 S
C971 H957 0.931 . S
C971 C970 1.385 1_655 S
C971 C972 1.389 1_554 S
C972 C971 1.389 1_556 S
C972 C973 1.387 . S
C973 H958 0.930 . S
C973 C968 1.390 . S
C973 C972 1.387 . S
H974 C986 0.930 . S
H975 C988 0.930 . S
H976 C989 0.930 . S
H977 C993 0.959 . S
H978 C993 0.959 . S
H979 C993 0.961 1_565 S
H980 C994 0.960 . S
H981 C994 0.961 1_545 S
H982 C994 0.959 . S
H983 C997 0.929 . S
H984 C998 0.931 . S
H985 C1000 0.930 . S
C986 H974 0.930 . S
C986 C987 1.399 . S
C986 C991 1.399 . S
C987 C986 1.399 . S
C987 C988 1.376 . S
C988 H975 0.930 . S
C988 C987 1.376 . S
C988 C989 1.388 . S
C989 H976 0.930 . S
C989 C988 1.388 . S
C989 C990 1.390 . S
C990 C989 1.390 . S
C990 C991 1.394 . S
C990 C996 1.465 1_565 S
C991 C986 1.399 . S
C991 C990 1.394 . S
C991 C992 1.529 . S
C992 C991 1.529 . S
C992 C993 1.498 1_565 S
C992 C994 1.566 . S
C992 C995 1.513 1_565 S
C993 H977 0.959 . S
C993 H978 0.959 . S
C993 H979 0.961 1_545 S
C993 C992 1.498 1_545 S
C994 H980 0.960 . S
C994 H981 0.961 1_565 S
C994 H982 0.959 . S
C994 C992 1.566 . S
C995 C992 1.513 1_545 S
C995 C996 1.396 . S
C995 C1000 1.390 . S
C996 C990 1.465 1_545 S
C996 C995 1.396 . S
C996 C997 1.399 . S
C997 H983 0.929 . S
C997 C996 1.399 . S
C997 C998 1.385 . S
C998 H984 0.931 . S
C998 C997 1.385 . S
C998 C999 1.389 . S
C999 C998 1.389 . S
C999 C1000 1.387 . S
C1000 H985 0.930 . S
C1000 C995 1.390 . S
C1000 C999 1.387 . S
H1001 C1013 0.930 . S
H1002 C1015 0.930 . S
H1003 C1016 0.930 . S
H1004 C1020 0.959 . S
H1005 C1020 0.959 1_565 S
H1006 C1020 0.961 . S
H1007 C1021 0.960 1_545 S
H1008 C1021 0.961 . S
H1009 C1021 0.959 . S
H1010 C1024 0.929 . S
H1011 C1025 0.931 . S
H1012 C1027 0.930 . S
C1013 H1001 0.930 . S
C1013 C1014 1.399 . S
C1013 C1018 1.399 . S
C1014 C1013 1.399 . S
C1014 C1015 1.376 . S
C1015 H1002 0.930 . S
C1015 C1014 1.376 . S
C1015 C1016 1.388 . S
C1016 H1003 0.930 . S
C1016 C1015 1.388 . S
C1016 C1017 1.390 . S
C1017 C1016 1.390 . S
C1017 C1018 1.394 . S
C1017 C1023 1.465 1_545 S
C1018 C1013 1.399 . S
C1018 C1017 1.394 . S
C1018 C1019 1.516 1_645 S
C1019 C1018 1.516 1_465 S
C1019 C1020 1.502 1_565 S
C1019 C1021 1.561 1_455 S
C1019 C1022 1.526 . S
C1020 H1004 0.959 . S
C1020 H1005 0.959 1_545 S
C1020 H1006 0.961 . S
C1020 C1019 1.502 1_545 S
C1021 H1007 0.960 1_565 S
C1021 H1008 0.961 . S
C1021 H1009 0.959 . S
C1021 C1019 1.561 1_655 S
C1022 C1019 1.526 . S
C1022 C1023 1.396 1_455 S
C1022 C1027 1.390 . S
C1023 C1017 1.465 1_565 S
C1023 C1022 1.396 1_655 S
C1023 C1024 1.399 . S
C1024 H1010 0.929 . S
C1024 C1023 1.399 . S
C1024 C1025 1.385 1_655 S
C1025 H1011 0.931 . S
C1025 C1024 1.385 1_455 S
C1025 C1026 1.389 . S
C1026 C1025 1.389 . S
C1026 C1027 1.387 . S
C1027 H1012 0.930 . S
C1027 C1022 1.390 . S
C1027 C1026 1.387 . S
H1028 C1040 0.930 . S
H1029 C1042 0.930 . S
H1030 C1043 0.930 . S
H1031 C1047 0.959 . S
H1032 C1047 0.959 . S
H1033 C1047 0.961 . S
H1034 C1048 0.960 . S
H1035 C1048 0.996 . S
H1036 C1048 0.959 . S
H1037 C1051 0.929 . S
H1038 C1052 0.931 . S
H1039 C1054 0.930 . S
C1040 H1028 0.930 . S
C1040 C1041 1.399 . S
C1040 C1045 1.399 . S
C1041 C1040 1.399 . S
C1041 C1042 1.376 . S
C1042 H1029 0.930 . S
C1042 C1041 1.376 . S
C1042 C1043 1.388 . S
C1043 H1030 0.930 . S
C1043 C1042 1.388 . S
C1043 C1044 1.390 . S
C1044 C1043 1.390 . S
C1044 C1045 1.394 . S
C1044 C1050 1.465 . S
C1045 C1040 1.399 . S
C1045 C1044 1.394 . S
C1045 C1046 1.516 . S
C1046 C1045 1.516 . S
C1046 C1047 1.502 . S
C1046 C1048 1.561 . S
C1046 C1049 1.526 . S
C1047 H1031 0.959 . S
C1047 H1032 0.959 . S
C1047 H1033 0.961 . S
C1047 C1046 1.502 . S
C1048 H1034 0.960 . S
C1048 H1035 0.996 . S
C1048 H1036 0.959 . S
C1048 C1046 1.561 . S
C1049 C1046 1.526 . S
C1049 C1050 1.396 . S
C1049 C1054 1.390 . S
C1050 C1044 1.465 . S
C1050 C1049 1.396 . S
C1050 C1051 1.399 . S
C1051 H1037 0.929 . S
C1051 C1050 1.399 . S
C1051 C1052 1.385 . S
C1052 H1038 0.931 . S
C1052 C1051 1.385 . S
C1052 C1053 1.389 . S
C1053 C1052 1.389 . S
C1053 C1054 1.387 . S
C1054 H1039 0.930 . S
C1054 C1049 1.390 . S
C1054 C1053 1.387 . S
H1055 C1067 0.930 . S
H1056 C1069 0.930 . S
H1057 C1070 0.930 . S
H1058 C1074 0.959 . S
H1059 C1074 0.959 . S
H1060 C1074 0.961 . S
H1061 C1075 0.960 . S
H1062 C1075 0.961 . S
H1063 C1075 0.959 . S
H1064 C1078 0.929 . S
H1065 C1079 0.931 . S
H1066 C1081 0.930 . S
C1067 H1055 0.930 . S
C1067 C1068 1.399 . S
C1067 C1072 1.399 . S
C1068 C1067 1.399 . S
C1068 C1069 1.376 . S
C1069 H1056 0.930 . S
C1069 C1068 1.376 . S
C1069 C1070 1.388 . S
C1070 H1057 0.930 . S
C1070 C1069 1.388 . S
C1070 C1071 1.390 . S
C1071 C1070 1.390 . S
C1071 C1072 1.394 . S
C1071 C1077 1.465 1_545 S
C1072 C1067 1.399 . S
C1072 C1071 1.394 . S
C1072 C1073 1.516 1_545 S
C1073 C1072 1.516 1_565 S
C1073 C1074 1.502 . S
C1073 C1075 1.561 1_565 S
C1073 C1076 1.526 . S
C1074 H1058 0.959 . S
C1074 H1059 0.959 . S
C1074 H1060 0.961 . S
C1074 C1073 1.502 . S
C1075 H1061 0.960 . S
C1075 H1062 0.961 . S
C1075 H1063 0.959 . S
C1075 C1073 1.561 1_545 S
C1076 C1073 1.526 . S
C1076 C1077 1.396 . S
C1076 C1081 1.390 . S
C1077 C1071 1.465 1_565 S
C1077 C1076 1.396 . S
C1077 C1078 1.399 . S
C1078 H1064 0.929 . S
C1078 C1077 1.399 . S
C1078 C1079 1.385 . S
C1079 H1065 0.931 . S
C1079 C1078 1.385 . S
C1079 C1080 1.389 . S
C1080 C1079 1.389 . S
C1080 C1081 1.387 . S
C1081 H1066 0.930 . S
C1081 C1076 1.390 . S
C1081 C1080 1.387 . S
H1082 C1094 0.930 . S
H1083 C1096 0.930 . S
H1084 C1097 0.930 . S
H1085 C1101 0.959 . S
H1086 C1101 0.959 . S
H1087 C1101 0.961 . S
H1088 C1102 0.962 . S
H1089 C1102 0.939 1_554 S
H1090 C1102 0.959 . S
H1091 C1105 0.929 . S
H1092 C1106 0.931 . S
H1093 C1108 0.930 . S
C1094 H1082 0.930 . S
C1094 C1095 1.399 . S
C1094 C1099 1.399 . S
C1095 C1094 1.399 . S
C1095 C1096 1.376 . S
C1096 H1083 0.930 . S
C1096 C1095 1.376 . S
C1096 C1097 1.388 . S
C1097 H1084 0.930 . S
C1097 C1096 1.388 . S
C1097 C1098 1.390 . S
C1098 C1097 1.390 . S
C1098 C1099 1.394 . S
C1098 C1104 1.465 . S
C1099 C1094 1.399 . S
C1099 C1098 1.394 . S
C1099 C1100 1.516 . S
C1100 C1099 1.516 . S
C1100 C1101 1.502 . S
C1100 C1102 1.561 . S
C1100 C1103 1.526 . S
C1101 H1085 0.959 . S
C1101 H1086 0.959 . S
C1101 H1087 0.961 . S
C1101 C1100 1.502 . S
C1102 H1088 0.962 . S
C1102 H1089 0.939 1_556 S
C1102 H1090 0.959 . S
C1102 C1100 1.561 . S
C1103 C1100 1.526 . S
C1103 C1104 1.396 . S
C1103 C1108 1.390 . S
C1104 C1098 1.465 . S
C1104 C1103 1.396 . S
C1104 C1105 1.399 . S
C1105 H1091 0.929 . S
C1105 C1104 1.399 . S
C1105 C1106 1.385 . S
C1106 H1092 0.931 . S
C1106 C1105 1.385 . S
C1106 C1107 1.389 . S
C1107 C1106 1.389 . S
C1107 C1108 1.387 . S
C1108 H1093 0.930 . S
C1108 C1103 1.390 . S
C1108 C1107 1.387 . S
H1109 C1121 0.930 . S
H1110 C1123 0.930 . S
H1111 C1124 0.930 . S
H1112 C1128 0.959 . S
H1113 C1128 0.959 . S
H1114 C1128 0.961 . S
H1115 C1129 0.960 . S
H1116 C1129 0.961 1_545 S
H1117 C1129 0.959 . S
H1118 C1132 0.929 1_565 S
H1119 C1133 0.931 . S
H1120 C1135 0.930 . S
C1121 H1109 0.930 . S
C1121 C1122 1.399 . S
C1121 C1126 1.399 . S
C1122 C1121 1.399 . S
C1122 C1123 1.376 . S
C1123 H1110 0.930 . S
C1123 C1122 1.376 . S
C1123 C1124 1.388 . S
C1124 H1111 0.930 . S
C1124 C1123 1.388 . S
C1124 C1125 1.390 . S
C1125 C1124 1.390 . S
C1125 C1126 1.394 . S
C1125 C1131 1.465 1_565 S
C1126 C1121 1.399 . S
C1126 C1125 1.394 . S
C1126 C1127 1.516 1_565 S
C1127 C1126 1.516 1_545 S
C1127 C1128 1.502 . S
C1127 C1129 1.561 1_545 S
C1127 C1130 1.526 . S
C1128 H1112 0.959 . S
C1128 H1113 0.959 . S
C1128 H1114 0.961 . S
C1128 C1127 1.502 . S
C1129 H1115 0.960 . S
C1129 H1116 0.961 1_565 S
C1129 H1117 0.959 . S
C1129 C1127 1.561 1_565 S
C1130 C1127 1.526 . S
C1130 C1131 1.396 . S
C1130 C1135 1.390 . S
C1131 C1125 1.465 1_545 S
C1131 C1130 1.396 . S
C1131 C1132 1.399 . S
C1132 H1118 0.929 1_545 S
C1132 C1131 1.399 . S
C1132 C1133 1.385 . S
C1133 H1119 0.931 . S
C1133 C1132 1.385 . S
C1133 C1134 1.389 . S
C1134 C1133 1.389 . S
C1134 C1135 1.387 . S
C1135 H1120 0.930 . S
C1135 C1130 1.390 . S
C1135 C1134 1.387 . S
C717 C49 1.931 . S
C729 C137 1.965 . S
C744 C284 1.956 . S
C756 C205 1.905 . S
C771 C401 1.988 . S
C783 C489 1.919 . S
C798 C557 1.906 . S
C810 C636 1.967 . S
C825 C29 1.620 . S
C837 C225 1.629 . S
C852 C321 1.617 . S
C864 C117 1.627 . S
C879 C409 1.596 . S
C891 C548 1.615 . S
C906 C645 1.629 . S
C918 C497 1.617 . S
C933 C20 2.224 . S
C945 C372 2.289 . S
C960 C108 2.223 . S
C972 C460 2.292 . S
C987 C585 2.269 . S
C999 C233 2.265 . S
C1014 C665 2.248 . S
C1026 C313 2.259 . S
C1041 C145 0.064 . S
C1053 C57 0.110 . S
C1068 C196 0.055 . S
C1080 C293 0.095 . S
C1095 C381 0.161 . S
C1107 C469 0.080 . S
C1122 C577 0.222 . S
C1134 C673 0.258 . S
