# Generated by pormake.
# Topology pbp, (3)-cn, num edge types: 1
# Building blocks:
#     Node 0, Type 0, BuildingBlock: WUSLED_clean_sbu_0, # of connection points: 3
#     Node 1, Type 0, BuildingBlock: WUSLED_clean_sbu_0, # of connection points: 3
#     Node 2, Type 0, BuildingBlock: WUSLED_clean_sbu_0, # of connection points: 3
#     Node 3, Type 0, BuildingBlock: WUSLED_clean_sbu_0, # of connection points: 3
#     Node 4, Type 0, BuildingBlock: WUSLED_clean_sbu_0, # of connection points: 3
#     Node 5, Type 0, BuildingBlock: WUSLED_clean_sbu_0, # of connection points: 3
#     Node 6, Type 0, BuildingBlock: WUSLED_clean_sbu_0, # of connection points: 3
#     Node 7, Type 0, BuildingBlock: WUSLED_clean_sbu_0, # of connection points: 3
#     Node 8, Type 0, BuildingBlock: WUSLED_clean_sbu_0, # of connection points: 3
#     Node 9, Type 0, BuildingBlock: WUSLED_clean_sbu_0, # of connection points: 3
#     Node 10, Type 0, BuildingBlock: WUSLED_clean_sbu_0, # of connection points: 3
#     Node 11, Type 0, BuildingBlock: WUSLED_clean_sbu_0, # of connection points: 3
#     Node 12, Type 0, BuildingBlock: WUSLED_clean_sbu_0, # of connection points: 3
#     Node 13, Type 0, BuildingBlock: WUSLED_clean_sbu_0, # of connection points: 3
#     Node 14, Type 0, BuildingBlock: WUSLED_clean_sbu_0, # of connection points: 3
#     Node 15, Type 0, BuildingBlock: WUSLED_clean_sbu_0, # of connection points: 3
#     Node 16, Type 0, BuildingBlock: WUSLED_clean_sbu_0, # of connection points: 3
#     Node 17, Type 0, BuildingBlock: WUSLED_clean_sbu_0, # of connection points: 3
#     Node 18, Type 0, BuildingBlock: WUSLED_clean_sbu_0, # of connection points: 3
#     Node 19, Type 0, BuildingBlock: WUSLED_clean_sbu_0, # of connection points: 3
#     Node 20, Type 0, BuildingBlock: WUSLED_clean_sbu_0, # of connection points: 3
#     Node 21, Type 0, BuildingBlock: WUSLED_clean_sbu_0, # of connection points: 3
#     Node 22, Type 0, BuildingBlock: WUSLED_clean_sbu_0, # of connection points: 3
#     Node 23, Type 0, BuildingBlock: WUSLED_clean_sbu_0, # of connection points: 3
#     Node 24, Type 0, BuildingBlock: WUSLED_clean_sbu_0, # of connection points: 3
#     Node 25, Type 0, BuildingBlock: WUSLED_clean_sbu_0, # of connection points: 3
#     Node 26, Type 0, BuildingBlock: WUSLED_clean_sbu_0, # of connection points: 3
#     Node 27, Type 0, BuildingBlock: WUSLED_clean_sbu_0, # of connection points: 3
#     Node 28, Type 0, BuildingBlock: WUSLED_clean_sbu_0, # of connection points: 3
#     Node 29, Type 0, BuildingBlock: WUSLED_clean_sbu_0, # of connection points: 3
#     Node 30, Type 0, BuildingBlock: WUSLED_clean_sbu_0, # of connection points: 3
#     Node 31, Type 0, BuildingBlock: WUSLED_clean_sbu_0, # of connection points: 3
#     Node 32, Type 0, BuildingBlock: WUSLED_clean_sbu_0, # of connection points: 3
#     Node 33, Type 0, BuildingBlock: WUSLED_clean_sbu_0, # of connection points: 3
#     Node 34, Type 0, BuildingBlock: WUSLED_clean_sbu_0, # of connection points: 3
#     Node 35, Type 0, BuildingBlock: WUSLED_clean_sbu_0, # of connection points: 3
#     Node 36, Type 0, BuildingBlock: WUSLED_clean_sbu_0, # of connection points: 3
#     Node 37, Type 0, BuildingBlock: WUSLED_clean_sbu_0, # of connection points: 3
#     Node 38, Type 0, BuildingBlock: WUSLED_clean_sbu_0, # of connection points: 3
#     Node 39, Type 0, BuildingBlock: WUSLED_clean_sbu_0, # of connection points: 3
#     Node 40, Type 0, BuildingBlock: WUSLED_clean_sbu_0, # of connection points: 3
#     Node 41, Type 0, BuildingBlock: WUSLED_clean_sbu_0, # of connection points: 3
#     Node 42, Type 0, BuildingBlock: WUSLED_clean_sbu_0, # of connection points: 3
#     Node 43, Type 0, BuildingBlock: WUSLED_clean_sbu_0, # of connection points: 3
#     Node 44, Type 0, BuildingBlock: WUSLED_clean_sbu_0, # of connection points: 3
#     Node 45, Type 0, BuildingBlock: WUSLED_clean_sbu_0, # of connection points: 3
#     Node 46, Type 0, BuildingBlock: WUSLED_clean_sbu_0, # of connection points: 3
#     Node 47, Type 0, BuildingBlock: WUSLED_clean_sbu_0, # of connection points: 3
#     Edge 48, Type (0, 0), BuildingBlock: KIFKEQ_clean_linker_1, # of connection points: 2
#     Edge 49, Type (0, 0), BuildingBlock: KIFKEQ_clean_linker_1, # of connection points: 2
#     Edge 50, Type (0, 0), BuildingBlock: KIFKEQ_clean_linker_1, # of connection points: 2
#     Edge 51, Type (0, 0), BuildingBlock: KIFKEQ_clean_linker_1, # of connection points: 2
#     Edge 52, Type (0, 0), BuildingBlock: KIFKEQ_clean_linker_1, # of connection points: 2
#     Edge 53, Type (0, 0), BuildingBlock: KIFKEQ_clean_linker_1, # of connection points: 2
#     Edge 54, Type (0, 0), BuildingBlock: KIFKEQ_clean_linker_1, # of connection points: 2
#     Edge 55, Type (0, 0), BuildingBlock: KIFKEQ_clean_linker_1, # of connection points: 2
#     Edge 56, Type (0, 0), BuildingBlock: KIFKEQ_clean_linker_1, # of connection points: 2
#     Edge 57, Type (0, 0), BuildingBlock: KIFKEQ_clean_linker_1, # of connection points: 2
#     Edge 58, Type (0, 0), BuildingBlock: KIFKEQ_clean_linker_1, # of connection points: 2
#     Edge 59, Type (0, 0), BuildingBlock: KIFKEQ_clean_linker_1, # of connection points: 2
#     Edge 60, Type (0, 0), BuildingBlock: KIFKEQ_clean_linker_1, # of connection points: 2
#     Edge 61, Type (0, 0), BuildingBlock: KIFKEQ_clean_linker_1, # of connection points: 2
#     Edge 62, Type (0, 0), BuildingBlock: KIFKEQ_clean_linker_1, # of connection points: 2
#     Edge 63, Type (0, 0), BuildingBlock: KIFKEQ_clean_linker_1, # of connection points: 2
#     Edge 64, Type (0, 0), BuildingBlock: KIFKEQ_clean_linker_1, # of connection points: 2
#     Edge 65, Type (0, 0), BuildingBlock: KIFKEQ_clean_linker_1, # of connection points: 2
#     Edge 66, Type (0, 0), BuildingBlock: KIFKEQ_clean_linker_1, # of connection points: 2
#     Edge 67, Type (0, 0), BuildingBlock: KIFKEQ_clean_linker_1, # of connection points: 2
#     Edge 68, Type (0, 0), BuildingBlock: KIFKEQ_clean_linker_1, # of connection points: 2
#     Edge 69, Type (0, 0), BuildingBlock: KIFKEQ_clean_linker_1, # of connection points: 2
#     Edge 70, Type (0, 0), BuildingBlock: KIFKEQ_clean_linker_1, # of connection points: 2
#     Edge 71, Type (0, 0), BuildingBlock: KIFKEQ_clean_linker_1, # of connection points: 2
#     Edge 72, Type (0, 0), BuildingBlock: KIFKEQ_clean_linker_1, # of connection points: 2
#     Edge 73, Type (0, 0), BuildingBlock: KIFKEQ_clean_linker_1, # of connection points: 2
#     Edge 74, Type (0, 0), BuildingBlock: KIFKEQ_clean_linker_1, # of connection points: 2
#     Edge 75, Type (0, 0), BuildingBlock: KIFKEQ_clean_linker_1, # of connection points: 2
#     Edge 76, Type (0, 0), BuildingBlock: KIFKEQ_clean_linker_1, # of connection points: 2
#     Edge 77, Type (0, 0), BuildingBlock: KIFKEQ_clean_linker_1, # of connection points: 2
#     Edge 78, Type (0, 0), BuildingBlock: KIFKEQ_clean_linker_1, # of connection points: 2
#     Edge 79, Type (0, 0), BuildingBlock: KIFKEQ_clean_linker_1, # of connection points: 2
#     Edge 80, Type (0, 0), BuildingBlock: KIFKEQ_clean_linker_1, # of connection points: 2
#     Edge 81, Type (0, 0), BuildingBlock: KIFKEQ_clean_linker_1, # of connection points: 2
#     Edge 82, Type (0, 0), BuildingBlock: KIFKEQ_clean_linker_1, # of connection points: 2
#     Edge 83, Type (0, 0), BuildingBlock: KIFKEQ_clean_linker_1, # of connection points: 2
#     Edge 84, Type (0, 0), BuildingBlock: KIFKEQ_clean_linker_1, # of connection points: 2
#     Edge 85, Type (0, 0), BuildingBlock: KIFKEQ_clean_linker_1, # of connection points: 2
#     Edge 86, Type (0, 0), BuildingBlock: KIFKEQ_clean_linker_1, # of connection points: 2
#     Edge 87, Type (0, 0), BuildingBlock: KIFKEQ_clean_linker_1, # of connection points: 2
#     Edge 88, Type (0, 0), BuildingBlock: KIFKEQ_clean_linker_1, # of connection points: 2
#     Edge 89, Type (0, 0), BuildingBlock: KIFKEQ_clean_linker_1, # of connection points: 2
#     Edge 90, Type (0, 0), BuildingBlock: KIFKEQ_clean_linker_1, # of connection points: 2
#     Edge 91, Type (0, 0), BuildingBlock: KIFKEQ_clean_linker_1, # of connection points: 2
#     Edge 92, Type (0, 0), BuildingBlock: KIFKEQ_clean_linker_1, # of connection points: 2
#     Edge 93, Type (0, 0), BuildingBlock: KIFKEQ_clean_linker_1, # of connection points: 2
#     Edge 94, Type (0, 0), BuildingBlock: KIFKEQ_clean_linker_1, # of connection points: 2
#     Edge 95, Type (0, 0), BuildingBlock: KIFKEQ_clean_linker_1, # of connection points: 2
#     Edge 96, Type (0, 0), BuildingBlock: KIFKEQ_clean_linker_1, # of connection points: 2
#     Edge 97, Type (0, 0), BuildingBlock: KIFKEQ_clean_linker_1, # of connection points: 2
#     Edge 98, Type (0, 0), BuildingBlock: KIFKEQ_clean_linker_1, # of connection points: 2
#     Edge 99, Type (0, 0), BuildingBlock: KIFKEQ_clean_linker_1, # of connection points: 2
#     Edge 100, Type (0, 0), BuildingBlock: KIFKEQ_clean_linker_1, # of connection points: 2
#     Edge 101, Type (0, 0), BuildingBlock: KIFKEQ_clean_linker_1, # of connection points: 2
#     Edge 102, Type (0, 0), BuildingBlock: KIFKEQ_clean_linker_1, # of connection points: 2
#     Edge 103, Type (0, 0), BuildingBlock: KIFKEQ_clean_linker_1, # of connection points: 2
#     Edge 104, Type (0, 0), BuildingBlock: KIFKEQ_clean_linker_1, # of connection points: 2
#     Edge 105, Type (0, 0), BuildingBlock: KIFKEQ_clean_linker_1, # of connection points: 2
#     Edge 106, Type (0, 0), BuildingBlock: KIFKEQ_clean_linker_1, # of connection points: 2
#     Edge 107, Type (0, 0), BuildingBlock: KIFKEQ_clean_linker_1, # of connection points: 2
#     Edge 108, Type (0, 0), BuildingBlock: KIFKEQ_clean_linker_1, # of connection points: 2
#     Edge 109, Type (0, 0), BuildingBlock: KIFKEQ_clean_linker_1, # of connection points: 2
#     Edge 110, Type (0, 0), BuildingBlock: KIFKEQ_clean_linker_1, # of connection points: 2
#     Edge 111, Type (0, 0), BuildingBlock: KIFKEQ_clean_linker_1, # of connection points: 2
#     Edge 112, Type (0, 0), BuildingBlock: KIFKEQ_clean_linker_1, # of connection points: 2
#     Edge 113, Type (0, 0), BuildingBlock: KIFKEQ_clean_linker_1, # of connection points: 2
#     Edge 114, Type (0, 0), BuildingBlock: KIFKEQ_clean_linker_1, # of connection points: 2
#     Edge 115, Type (0, 0), BuildingBlock: KIFKEQ_clean_linker_1, # of connection points: 2
#     Edge 116, Type (0, 0), BuildingBlock: KIFKEQ_clean_linker_1, # of connection points: 2
#     Edge 117, Type (0, 0), BuildingBlock: KIFKEQ_clean_linker_1, # of connection points: 2
#     Edge 118, Type (0, 0), BuildingBlock: KIFKEQ_clean_linker_1, # of connection points: 2
#     Edge 119, Type (0, 0), BuildingBlock: KIFKEQ_clean_linker_1, # of connection points: 2
# Relax obj value: 0.000
# Max RMSD: 0.009
# Mean RMSD: 0.006
data_MOF--net-pbp--node1-WUSLED_clean_sbu_0--edge1-KIFKEQ_clean_linker_1
_symmetry_space_group_name_H-M    P1
_symmetry_Int_Tables_number       1
_symmetry_cell_setting            triclinic
loop_
_symmetry_equiv_pos_as_xyz
'x, y, z'
_cell_length_a     126.20748
_cell_length_b     126.15644
_cell_length_c     126.19948
_cell_angle_alpha  89.993227
_cell_angle_beta   89.96579
_cell_angle_gamma 90.60905
loop_
_atom_site_label
_atom_site_type_symbol
_atom_site_fract_x
_atom_site_fract_y
_atom_site_fract_z
_atom_type_partial_charge
C0 C 0.11395 0.30296 0.34599 0.0
C1 C 0.12492 0.304 0.34442 0.0
C2 C 0.12818 0.29059 0.35798 0.0
C3 C 0.13198 0.29787 0.35036 0.0
C4 C 0.11716 0.28963 0.35949 0.0
C5 C 0.11013 0.29575 0.35356 0.0
U6 U 0.10722 0.32462 0.32574 0.0
O7 O 0.09461 0.32501 0.31371 0.0
O8 O 0.09486 0.33683 0.32647 0.0
C9 C 0.08964 0.33286 0.31835 0.0
C10 C 0.10635 0.30937 0.33994 0.0
C11 C 0.07807 0.33155 0.31976 0.0
C12 C 0.06239 0.32071 0.32336 0.0
C13 C 0.07343 0.32175 0.32245 0.0
C14 C 0.0605 0.3393 0.31909 0.0
C15 C 0.05576 0.32947 0.32163 0.0
C16 C 0.07152 0.34031 0.31816 0.0
C17 C 0.13037 0.33965 0.31196 0.0
C18 C 0.12934 0.35116 0.2965 0.0
C19 C 0.14554 0.3505 0.30675 0.0
C20 C 0.14083 0.3431 0.31358 0.0
C21 C 0.13988 0.35463 0.2981 0.0
C22 C 0.12462 0.34375 0.30339 0.0
C23 C 0.12581 0.33165 0.31922 0.0
O24 O 0.10612 0.31949 0.34238 0.0
O25 O 0.10604 0.30764 0.32968 0.0
O26 O 0.12078 0.32361 0.31483 0.0
O27 O 0.12099 0.33533 0.32767 0.0
H28 H 0.12802 0.30954 0.3386 0.0
H29 H 0.1404 0.29875 0.34891 0.0
H30 H 0.11393 0.28426 0.36539 0.0
H31 H 0.10169 0.29488 0.35492 0.0
H32 H 0.05904 0.313 0.32523 0.0
H33 H 0.07834 0.31487 0.32375 0.0
H34 H 0.05571 0.34627 0.3179 0.0
H35 H 0.07493 0.34797 0.31612 0.0
H36 H 0.12472 0.35425 0.29 0.0
H37 H 0.1537 0.35284 0.30815 0.0
H38 H 0.14542 0.34 0.32012 0.0
H39 H 0.11651 0.34121 0.30202 0.0
C40 C 0.68867 0.11838 0.30294 0.0
C41 C 0.68979 0.12934 0.30463 0.0
C42 C 0.67665 0.13287 0.29089 0.0
C43 C 0.68383 0.13651 0.29867 0.0
C44 C 0.67563 0.12186 0.28924 0.0
C45 C 0.68158 0.11471 0.29521 0.0
U46 U 0.70925 0.1117 0.32416 0.0
O47 O 0.70884 0.09943 0.33658 0.0
O48 O 0.72129 0.0992 0.32445 0.0
C49 C 0.71692 0.09431 0.33258 0.0
C50 C 0.69474 0.11069 0.30923 0.0
C51 C 0.71561 0.0827 0.33164 0.0
C52 C 0.70948 0.0669 0.32228 0.0
C53 C 0.71047 0.07798 0.32295 0.0
C54 C 0.7187 0.0652 0.33901 0.0
C55 C 0.71357 0.06036 0.33033 0.0
C56 C 0.71969 0.07623 0.33964 0.0
C57 C 0.72332 0.13507 0.33847 0.0
C58 C 0.73739 0.13355 0.35155 0.0
C59 C 0.73017 0.15077 0.34739 0.0
C60 C 0.72326 0.14605 0.3401 0.0
C61 C 0.73732 0.1446 0.35325 0.0
C62 C 0.73043 0.12882 0.34424 0.0
C63 C 0.71588 0.13042 0.33071 0.0
O64 O 0.70496 0.11039 0.30728 0.0
O65 O 0.69251 0.1104 0.3194 0.0
O66 O 0.70754 0.12551 0.33466 0.0
O67 O 0.72014 0.12537 0.32268 0.0
H68 H 0.69526 0.13232 0.31056 0.0
H69 H 0.68492 0.14492 0.30008 0.0
H70 H 0.67008 0.11874 0.28346 0.0
H71 H 0.68058 0.10628 0.29382 0.0
H72 H 0.7054 0.06347 0.31554 0.0
H73 H 0.70723 0.08286 0.31669 0.0
H74 H 0.7221 0.06045 0.34526 0.0
H75 H 0.72372 0.07972 0.3464 0.0
H76 H 0.74272 0.12855 0.35598 0.0
H77 H 0.73 0.1593 0.34833 0.0
H78 H 0.71785 0.151 0.3357 0.0
H79 H 0.73057 0.12031 0.34309 0.0
C80 C 0.9159 0.73764 0.34615 0.0
C81 C 0.90524 0.73768 0.343 0.0
C82 C 0.90093 0.74982 0.35742 0.0
C83 C 0.89783 0.74373 0.34856 0.0
C84 C 0.91163 0.74963 0.36059 0.0
C85 C 0.91903 0.74361 0.355 0.0
U86 U 0.92334 0.7166 0.32569 0.0
O87 O 0.93598 0.71668 0.31365 0.0
O88 O 0.93585 0.70456 0.32611 0.0
C89 C 0.941 0.70872 0.31803 0.0
C90 C 0.92386 0.7315 0.34026 0.0
C91 C 0.95253 0.71015 0.31942 0.0
C92 C 0.96779 0.71918 0.32719 0.0
C93 C 0.95678 0.71799 0.32612 0.0
C94 C 0.9704 0.7047 0.31491 0.0
C95 C 0.97476 0.71257 0.32156 0.0
C96 C 0.95942 0.70352 0.31385 0.0
C97 C 0.90014 0.702 0.31136 0.0
C98 C 0.90006 0.69258 0.29451 0.0
C99 C 0.88496 0.69111 0.30628 0.0
C100 C 0.89007 0.69775 0.31357 0.0
C101 C 0.88979 0.68857 0.29657 0.0
C102 C 0.90518 0.69925 0.30184 0.0
C103 C 0.90482 0.70967 0.3189 0.0
O104 O 0.92418 0.72133 0.34248 0.0
O105 O 0.92446 0.73346 0.33005 0.0
O106 O 0.90982 0.7179 0.3148 0.0
O107 O 0.90966 0.70568 0.32719 0.0
H108 H 0.90266 0.73306 0.33622 0.0
H109 H 0.88965 0.74356 0.34598 0.0
H110 H 0.91433 0.7543 0.36727 0.0
H111 H 0.92722 0.74368 0.35754 0.0
H112 H 0.97085 0.72539 0.3323 0.0
H113 H 0.95157 0.72319 0.33048 0.0
H114 H 0.97547 0.69934 0.31059 0.0
H115 H 0.95629 0.69739 0.30867 0.0
H116 H 0.90399 0.69084 0.28709 0.0
H117 H 0.87716 0.68802 0.30824 0.0
H118 H 0.88606 0.69974 0.32089 0.0
H119 H 0.91297 0.70243 0.29997 0.0
C120 C 0.29945 0.92061 0.34602 0.0
C121 C 0.30064 0.90976 0.34396 0.0
C122 C 0.28717 0.90543 0.35723 0.0
C123 C 0.29455 0.90223 0.34951 0.0
C124 C 0.2861 0.91634 0.35928 0.0
C125 C 0.29217 0.92384 0.35372 0.0
U126 U 0.32064 0.9286 0.32566 0.0
O127 O 0.32052 0.9414 0.31377 0.0
O128 O 0.33265 0.94136 0.32621 0.0
C129 C 0.32831 0.94665 0.31837 0.0
C130 C 0.30564 0.92867 0.34015 0.0
C131 C 0.32677 0.95822 0.31992 0.0
C132 C 0.32178 0.97535 0.31258 0.0
C133 C 0.32256 0.96433 0.31164 0.0
C134 C 0.32936 0.97446 0.33015 0.0
C135 C 0.32528 0.98059 0.32181 0.0
C136 C 0.3301 0.96342 0.32923 0.0
C137 C 0.33542 0.90584 0.31132 0.0
C138 C 0.34899 0.90771 0.29771 0.0
C139 C 0.34399 0.89027 0.30411 0.0
C140 C 0.33665 0.89483 0.31098 0.0
C141 C 0.3503 0.89663 0.2974 0.0
C142 C 0.34161 0.91229 0.30463 0.0
C143 C 0.32764 0.91027 0.31877 0.0
O144 O 0.3158 0.9292 0.34242 0.0
O145 O 0.30374 0.92921 0.32993 0.0
O146 O 0.31952 0.91517 0.31456 0.0
O147 O 0.33153 0.91516 0.32713 0.0
H148 H 0.30626 0.90712 0.33805 0.0
H149 H 0.29569 0.89391 0.3478 0.0
H150 H 0.2804 0.91911 0.36505 0.0
H151 H 0.29113 0.93218 0.3554 0.0
H152 H 0.31873 0.97981 0.30594 0.0
H153 H 0.32006 0.96058 0.30432 0.0
H154 H 0.33203 0.9782 0.33741 0.0
H155 H 0.33343 0.959 0.33577 0.0
H156 H 0.35376 0.91286 0.29272 0.0
H157 H 0.34462 0.88171 0.30397 0.0
H158 H 0.33191 0.88972 0.31606 0.0
H159 H 0.34077 0.92082 0.3048 0.0
C160 C 0.11413 0.69404 0.73687 0.0
C161 C 0.12503 0.69622 0.73603 0.0
C162 C 0.12886 0.68224 0.74884 0.0
C163 C 0.13233 0.69037 0.74196 0.0
C164 C 0.11791 0.68012 0.7496 0.0
C165 C 0.11064 0.68596 0.74368 0.0
U166 U 0.10683 0.71424 0.71542 0.0
O167 O 0.09416 0.71347 0.7034 0.0
O168 O 0.09429 0.72623 0.71521 0.0
C169 C 0.08908 0.72155 0.70746 0.0
C170 C 0.10631 0.7 0.73064 0.0
C171 C 0.07751 0.72009 0.70893 0.0
C172 C 0.06188 0.71815 0.72015 0.0
C173 C 0.07292 0.71902 0.71903 0.0
C174 C 0.05989 0.71918 0.7011 0.0
C175 C 0.05521 0.71827 0.71119 0.0
C176 C 0.0709 0.7201 0.7 0.0
C177 C 0.12988 0.72809 0.70024 0.0
C178 C 0.12861 0.74302 0.68809 0.0
C179 C 0.14527 0.7339 0.69013 0.0
C180 C 0.14057 0.72704 0.69749 0.0
C181 C 0.13937 0.742 0.68532 0.0
C182 C 0.12389 0.7361 0.69547 0.0
C183 C 0.12533 0.72081 0.70821 0.0
O184 O 0.10603 0.71026 0.7324 0.0
O185 O 0.10577 0.69757 0.72053 0.0
O186 O 0.12034 0.7124 0.70453 0.0
O187 O 0.12048 0.72521 0.71629 0.0
H188 H 0.12788 0.70243 0.7308 0.0
H189 H 0.14068 0.69231 0.74125 0.0
H190 H 0.11494 0.67381 0.75465 0.0
H191 H 0.10226 0.68412 0.74439 0.0
H192 H 0.05857 0.71732 0.72803 0.0
H193 H 0.07784 0.71892 0.72606 0.0
H194 H 0.05502 0.71943 0.69404 0.0
H195 H 0.07426 0.72096 0.69214 0.0
H196 H 0.1238 0.74909 0.68447 0.0
H197 H 0.15361 0.73297 0.68835 0.0
H198 H 0.14533 0.72094 0.70111 0.0
H199 H 0.1156 0.73702 0.69748 0.0
C200 C 0.29936 0.11864 0.69275 0.0
C201 C 0.29905 0.12937 0.69568 0.0
C202 C 0.28664 0.13302 0.68131 0.0
C203 C 0.29275 0.13649 0.69002 0.0
C204 C 0.28711 0.12227 0.67836 0.0
C205 C 0.2934 0.11517 0.68403 0.0
U206 U 0.32076 0.112 0.71314 0.0
O207 O 0.32101 0.09964 0.72544 0.0
O208 O 0.33299 0.09966 0.71283 0.0
C209 C 0.32903 0.09468 0.7211 0.0
C210 C 0.30572 0.11095 0.69876 0.0
C211 C 0.32794 0.08306 0.72017 0.0
C212 C 0.31853 0.06715 0.71432 0.0
C213 C 0.31946 0.07825 0.71473 0.0
C214 C 0.33459 0.06561 0.72465 0.0
C215 C 0.32604 0.06068 0.71937 0.0
C216 C 0.33552 0.07665 0.72505 0.0
C217 C 0.33527 0.13551 0.72697 0.0
C218 C 0.34423 0.13621 0.74405 0.0
C219 C 0.34678 0.15044 0.7314 0.0
C220 C 0.34008 0.1452 0.72426 0.0
C221 C 0.34881 0.14612 0.74147 0.0
C222 C 0.33752 0.13095 0.73686 0.0
C223 C 0.32754 0.13072 0.71954 0.0
O224 O 0.31587 0.11076 0.69642 0.0
O225 O 0.30388 0.11054 0.709 0.0
O226 O 0.31936 0.12574 0.72376 0.0
O227 O 0.33147 0.12581 0.71127 0.0
H228 H 0.30361 0.13221 0.70239 0.0
H229 H 0.2925 0.14467 0.69261 0.0
H230 H 0.28268 0.11934 0.67161 0.0
H231 H 0.29358 0.10693 0.68161 0.0
H232 H 0.31181 0.06365 0.71024 0.0
H233 H 0.31353 0.08307 0.71091 0.0
H234 H 0.34064 0.06092 0.72846 0.0
H235 H 0.34215 0.08021 0.72924 0.0
H236 H 0.34556 0.13267 0.75175 0.0
H237 H 0.35031 0.15794 0.72905 0.0
H238 H 0.33848 0.14884 0.71665 0.0
H239 H 0.33391 0.12346 0.73913 0.0
C240 C 0.91769 0.34672 0.73718 0.0
C241 C 0.90685 0.34565 0.73491 0.0
C242 C 0.90259 0.35831 0.74889 0.0
C243 C 0.89937 0.35139 0.74071 0.0
C244 C 0.91349 0.35933 0.75109 0.0
C245 C 0.92095 0.35359 0.74529 0.0
U246 U 0.92528 0.32626 0.71618 0.0
O247 O 0.93817 0.32658 0.70442 0.0
O248 O 0.93762 0.31405 0.71646 0.0
C249 C 0.94297 0.3184 0.70862 0.0
C250 C 0.92568 0.34071 0.73121 0.0
C251 C 0.95451 0.31957 0.71022 0.0
C252 C 0.9698 0.32789 0.71869 0.0
C253 C 0.95878 0.32695 0.71741 0.0
C254 C 0.97234 0.31409 0.70563 0.0
C255 C 0.97674 0.32146 0.71281 0.0
C256 C 0.96136 0.31317 0.70436 0.0
C257 C 0.90238 0.31235 0.70083 0.0
C258 C 0.90234 0.29554 0.69134 0.0
C259 C 0.8879 0.30779 0.68891 0.0
C260 C 0.89275 0.31487 0.69597 0.0
C261 C 0.89257 0.29798 0.68656 0.0
C262 C 0.90721 0.30267 0.6984 0.0
C263 C 0.90685 0.31977 0.70874 0.0
O264 O 0.92587 0.33047 0.73311 0.0
O265 O 0.92644 0.34299 0.72107 0.0
O266 O 0.912 0.32807 0.70499 0.0
O267 O 0.91144 0.31555 0.71706 0.0
H268 H 0.90418 0.34038 0.72865 0.0
H269 H 0.89107 0.35048 0.7387 0.0
H270 H 0.91626 0.36445 0.75742 0.0
H271 H 0.92929 0.35449 0.74718 0.0
H272 H 0.97287 0.33357 0.72437 0.0
H273 H 0.9536 0.33196 0.72202 0.0
H274 H 0.9774 0.30913 0.70083 0.0
H275 H 0.95822 0.30745 0.69874 0.0
H276 H 0.90622 0.28812 0.68962 0.0
H277 H 0.88033 0.30989 0.68553 0.0
H278 H 0.88886 0.32227 0.69778 0.0
H279 H 0.91467 0.30057 0.70204 0.0
C280 C 0.69009 0.92091 0.73696 0.0
C281 C 0.69252 0.9101 0.73641 0.0
C282 C 0.67842 0.90594 0.74907 0.0
C283 C 0.68674 0.90268 0.74241 0.0
C284 C 0.67598 0.9168 0.74948 0.0
C285 C 0.68177 0.9242 0.74349 0.0
U286 U 0.7105 0.9287 0.71573 0.0
O287 O 0.7102 0.94165 0.70406 0.0
O288 O 0.72282 0.94124 0.716 0.0
C289 C 0.71838 0.94661 0.7083 0.0
C290 C 0.69618 0.92889 0.73088 0.0
C291 C 0.71725 0.95813 0.71006 0.0
C292 C 0.70679 0.97355 0.71479 0.0
C293 C 0.70772 0.96253 0.71366 0.0
C294 C 0.72494 0.97586 0.70896 0.0
C295 C 0.71539 0.98037 0.71241 0.0
C296 C 0.72585 0.96488 0.70779 0.0
C297 C 0.72405 0.90609 0.70006 0.0
C298 C 0.74038 0.90675 0.68977 0.0
C299 C 0.72845 0.89169 0.68808 0.0
C300 C 0.7216 0.89627 0.69544 0.0
C301 C 0.73796 0.89683 0.68516 0.0
C302 C 0.73348 0.91135 0.69713 0.0
C303 C 0.71678 0.9104 0.70811 0.0
O304 O 0.70644 0.92917 0.73268 0.0
O305 O 0.69382 0.92961 0.72077 0.0
O306 O 0.70847 0.91545 0.7045 0.0
O307 O 0.72115 0.91502 0.71639 0.0
H308 H 0.69893 0.90741 0.7314 0.0
H309 H 0.68892 0.89441 0.74197 0.0
H310 H 0.66954 0.9196 0.75436 0.0
H311 H 0.67974 0.93251 0.74398 0.0
H312 H 0.69936 0.97672 0.71758 0.0
H313 H 0.70099 0.95746 0.71552 0.0
H314 H 0.73168 0.98084 0.70691 0.0
H315 H 0.73326 0.96165 0.70497 0.0
H316 H 0.74758 0.91098 0.68762 0.0
H317 H 0.72639 0.88399 0.68484 0.0
H318 H 0.71439 0.89205 0.69762 0.0
H319 H 0.73552 0.91896 0.70058 0.0
C320 C 0.29795 0.12061 0.34626 0.0
C321 C 0.30102 0.13133 0.34676 0.0
C322 C 0.28532 0.13539 0.35728 0.0
C323 C 0.29478 0.13865 0.35225 0.0
C324 C 0.2823 0.12463 0.3567 0.0
C325 C 0.28856 0.11733 0.35126 0.0
U326 U 0.31981 0.11308 0.32656 0.0
O327 O 0.33195 0.1007 0.32773 0.0
O328 O 0.32028 0.10015 0.31486 0.0
C329 C 0.32801 0.09524 0.31975 0.0
C330 C 0.30441 0.11273 0.34061 0.0
C331 C 0.32682 0.08361 0.32136 0.0
C332 C 0.31711 0.06694 0.31899 0.0
C333 C 0.31761 0.07804 0.31827 0.0
C334 C 0.3349 0.06679 0.3261 0.0
C335 C 0.3258 0.06115 0.32279 0.0
C336 C 0.33541 0.07786 0.32534 0.0
C337 C 0.33492 0.13585 0.31215 0.0
C338 C 0.34487 0.13542 0.29561 0.0
C339 C 0.34662 0.15052 0.30734 0.0
C340 C 0.33949 0.14576 0.31441 0.0
C341 C 0.34935 0.14546 0.29779 0.0
C342 C 0.33774 0.13064 0.30273 0.0
C343 C 0.32692 0.13145 0.31953 0.0
O344 O 0.30278 0.11201 0.33035 0.0
O345 O 0.3145 0.11253 0.34316 0.0
O346 O 0.33056 0.12688 0.32813 0.0
O347 O 0.31886 0.12632 0.31528 0.0
H348 H 0.30823 0.13403 0.34291 0.0
H349 H 0.29729 0.14688 0.35242 0.0
H350 H 0.27515 0.12181 0.36058 0.0
H351 H 0.28606 0.10909 0.35098 0.0
H352 H 0.31001 0.0629 0.31626 0.0
H353 H 0.31086 0.0822 0.3151 0.0
H354 H 0.34169 0.06266 0.32924 0.0
H355 H 0.34263 0.08192 0.32773 0.0
H356 H 0.34687 0.13124 0.28839 0.0
H357 H 0.34977 0.15831 0.30923 0.0
H358 H 0.33739 0.14994 0.3216 0.0
H359 H 0.33433 0.12295 0.30083 0.0
C360 C 0.91664 0.3473 0.30215 0.0
C361 C 0.90598 0.34401 0.30193 0.0
C362 C 0.90167 0.35855 0.28995 0.0
C363 C 0.89857 0.34957 0.29588 0.0
C364 C 0.91236 0.36186 0.29031 0.0
C365 C 0.91976 0.35627 0.29634 0.0
U366 U 0.92411 0.32636 0.3227 0.0
O367 O 0.93688 0.31461 0.32247 0.0
O368 O 0.9365 0.32665 0.335 0.0
C369 C 0.94176 0.31882 0.33068 0.0
C370 C 0.92459 0.34141 0.30829 0.0
C371 C 0.9533 0.32045 0.32955 0.0
C372 C 0.96863 0.32844 0.32083 0.0
C373 C 0.95761 0.3272 0.32178 0.0
C374 C 0.97112 0.31626 0.33542 0.0
C375 C 0.97555 0.32298 0.32765 0.0
C376 C 0.96013 0.31501 0.33635 0.0
C377 C 0.90101 0.31088 0.33629 0.0
C378 C 0.9007 0.30133 0.35307 0.0
C379 C 0.88636 0.29894 0.34053 0.0
C380 C 0.89137 0.306 0.33356 0.0
C381 C 0.89088 0.2966 0.35044 0.0
C382 C 0.90572 0.30841 0.34606 0.0
C383 C 0.90562 0.31883 0.32897 0.0
O384 O 0.92475 0.34332 0.31853 0.0
O385 O 0.92536 0.33128 0.30602 0.0
O386 O 0.91074 0.31513 0.32072 0.0
O387 O 0.91029 0.32713 0.3333 0.0
H388 H 0.90341 0.33712 0.30641 0.0
H389 H 0.8904 0.34688 0.29591 0.0
H390 H 0.91506 0.36865 0.28577 0.0
H391 H 0.92795 0.35893 0.2964 0.0
H392 H 0.97174 0.33376 0.31483 0.0
H393 H 0.95245 0.33148 0.31647 0.0
H394 H 0.97616 0.3118 0.3407 0.0
H395 H 0.95696 0.30973 0.34237 0.0
H396 H 0.90438 0.29976 0.36065 0.0
H397 H 0.87893 0.2953 0.33813 0.0
H398 H 0.88761 0.30777 0.32605 0.0
H399 H 0.91318 0.31208 0.34833 0.0
C400 C 0.6894 0.92021 0.30348 0.0
C401 C 0.69234 0.90952 0.30358 0.0
C402 C 0.67826 0.90518 0.29099 0.0
C403 C 0.68684 0.90207 0.29738 0.0
C404 C 0.67531 0.91591 0.29102 0.0
C405 C 0.68083 0.92334 0.2972 0.0
U406 U 0.70963 0.92806 0.32482 0.0
O407 O 0.72138 0.94107 0.32503 0.0
O408 O 0.70879 0.94053 0.33703 0.0
C409 C 0.71667 0.94603 0.33287 0.0
C410 C 0.69518 0.92821 0.30981 0.0
C411 C 0.71493 0.95757 0.33158 0.0
C412 C 0.71473 0.97365 0.32083 0.0
C413 C 0.71575 0.96261 0.32166 0.0
C414 C 0.71183 0.97475 0.33975 0.0
C415 C 0.71281 0.97987 0.32989 0.0
C416 C 0.7129 0.96375 0.34058 0.0
C417 C 0.72423 0.90524 0.33923 0.0
C418 C 0.73833 0.90704 0.35229 0.0
C419 C 0.73164 0.88961 0.34757 0.0
C420 C 0.7245 0.89422 0.34052 0.0
C421 C 0.7387 0.89594 0.35352 0.0
C422 C 0.73116 0.91166 0.34518 0.0
C423 C 0.71671 0.9097 0.33155 0.0
O424 O 0.69287 0.92841 0.31997 0.0
O425 O 0.7054 0.92905 0.30794 0.0
O426 O 0.72085 0.91488 0.32349 0.0
O427 O 0.70831 0.91431 0.33552 0.0
H428 H 0.69891 0.90694 0.30844 0.0
H429 H 0.68925 0.89386 0.29765 0.0
H430 H 0.66885 0.91862 0.2861 0.0
H431 H 0.67845 0.93156 0.29701 0.0
H432 H 0.71542 0.9773 0.3131 0.0
H433 H 0.71728 0.95807 0.31455 0.0
H434 H 0.7105 0.97928 0.34691 0.0
H435 H 0.71231 0.96008 0.34832 0.0
H436 H 0.7437 0.91215 0.35669 0.0
H437 H 0.73154 0.88107 0.34844 0.0
H438 H 0.71918 0.88914 0.33603 0.0
H439 H 0.73107 0.9202 0.34429 0.0
C440 C 0.113 0.69427 0.30271 0.0
C441 C 0.12393 0.6947 0.30475 0.0
C442 C 0.12714 0.68193 0.29057 0.0
C443 C 0.13095 0.68859 0.29872 0.0
C444 C 0.11618 0.68168 0.28851 0.0
C445 C 0.1092 0.68778 0.29452 0.0
U446 U 0.10629 0.71455 0.32436 0.0
O447 O 0.09383 0.72662 0.32473 0.0
O448 O 0.09376 0.71386 0.33654 0.0
C449 C 0.08869 0.72198 0.33255 0.0
C450 C 0.10541 0.70036 0.30911 0.0
C451 C 0.07713 0.72053 0.33114 0.0
C452 C 0.06168 0.7168 0.32015 0.0
C453 C 0.0727 0.7178 0.32129 0.0
C454 C 0.0594 0.72106 0.33871 0.0
C455 C 0.05488 0.71844 0.32885 0.0
C456 C 0.0704 0.72211 0.33983 0.0
C457 C 0.12953 0.72827 0.33926 0.0
C458 C 0.12795 0.74172 0.35298 0.0
C459 C 0.14526 0.73531 0.34797 0.0
C460 C 0.14055 0.72854 0.34054 0.0
C461 C 0.13904 0.74198 0.35433 0.0
C462 C 0.12323 0.73491 0.34551 0.0
C463 C 0.12492 0.721 0.33133 0.0
O464 O 0.10501 0.69792 0.31922 0.0
O465 O 0.10526 0.71063 0.30737 0.0
O466 O 0.12 0.72543 0.32331 0.0
O467 O 0.1199 0.71261 0.33506 0.0
H468 H 0.12702 0.69967 0.31106 0.0
H469 H 0.13932 0.68892 0.30059 0.0
H470 H 0.11297 0.6768 0.2822 0.0
H471 H 0.10079 0.68738 0.2928 0.0
H472 H 0.05848 0.71465 0.31247 0.0
H473 H 0.07774 0.71648 0.31448 0.0
H474 H 0.05443 0.72251 0.34555 0.0
H475 H 0.07365 0.72424 0.34749 0.0
H476 H 0.12291 0.74668 0.35779 0.0
H477 H 0.15382 0.73541 0.34863 0.0
H478 H 0.14555 0.72351 0.33575 0.0
H479 H 0.11469 0.73479 0.34464 0.0
C480 C 0.29975 0.92127 0.69393 0.0
C481 C 0.30225 0.91046 0.69435 0.0
C482 C 0.28777 0.90629 0.68213 0.0
C483 C 0.29632 0.90305 0.6885 0.0
C484 C 0.28533 0.91716 0.68178 0.0
C485 C 0.29126 0.92455 0.68762 0.0
U486 U 0.32091 0.92869 0.71444 0.0
O487 O 0.33271 0.94166 0.71437 0.0
O488 O 0.3207 0.9409 0.72694 0.0
C489 C 0.3285 0.94638 0.72263 0.0
C490 C 0.30584 0.92919 0.70007 0.0
C491 C 0.32687 0.95793 0.72174 0.0
C492 C 0.32212 0.97368 0.71169 0.0
C493 C 0.32322 0.96264 0.71235 0.0
C494 C 0.32814 0.9754 0.72983 0.0
C495 C 0.32459 0.98021 0.72043 0.0
C496 C 0.32927 0.9644 0.73046 0.0
C497 C 0.33596 0.90566 0.7279 0.0
C498 C 0.35008 0.90743 0.74093 0.0
C499 C 0.34403 0.88999 0.73547 0.0
C500 C 0.33668 0.89462 0.72867 0.0
C501 C 0.35088 0.89631 0.74167 0.0
C502 C 0.34269 0.91207 0.73409 0.0
C503 C 0.32814 0.91018 0.72055 0.0
O504 O 0.30398 0.92929 0.71031 0.0
O505 O 0.31597 0.92998 0.69776 0.0
O506 O 0.33198 0.91547 0.71241 0.0
O507 O 0.31991 0.91476 0.72492 0.0
H508 H 0.30878 0.90778 0.69918 0.0
H509 H 0.29852 0.89478 0.68888 0.0
H510 H 0.27873 0.91994 0.67712 0.0
H511 H 0.28919 0.93286 0.68724 0.0
H512 H 0.31927 0.9771 0.70437 0.0
H513 H 0.32127 0.95779 0.70552 0.0
H514 H 0.33027 0.98016 0.73666 0.0
H515 H 0.33213 0.96094 0.73776 0.0
H516 H 0.35528 0.91255 0.74552 0.0
H517 H 0.34426 0.88142 0.73596 0.0
H518 H 0.33151 0.88955 0.724 0.0
H519 H 0.34224 0.92063 0.73359 0.0
C520 C 0.11581 0.3035 0.69289 0.0
C521 C 0.12642 0.30245 0.69603 0.0
C522 C 0.13014 0.29188 0.68026 0.0
C523 C 0.13352 0.29666 0.68979 0.0
C524 C 0.11949 0.29299 0.67719 0.0
C525 C 0.11242 0.29873 0.68344 0.0
U526 U 0.1086 0.32377 0.71447 0.0
O527 O 0.09611 0.33588 0.71435 0.0
O528 O 0.0958 0.32324 0.7263 0.0
C529 C 0.0908 0.33131 0.72209 0.0
C530 C 0.10813 0.3095 0.69928 0.0
C531 C 0.07924 0.32999 0.72043 0.0
C532 C 0.06351 0.31897 0.71763 0.0
C533 C 0.07454 0.31999 0.71865 0.0
C534 C 0.06174 0.33792 0.71993 0.0
C535 C 0.05696 0.32792 0.71831 0.0
C536 C 0.07275 0.33892 0.721 0.0
C537 C 0.13127 0.33797 0.72974 0.0
C538 C 0.12986 0.35374 0.74075 0.0
C539 C 0.14616 0.3438 0.74057 0.0
C540 C 0.14167 0.33664 0.73336 0.0
C541 C 0.14035 0.35249 0.74433 0.0
C542 C 0.12535 0.34653 0.73353 0.0
C543 C 0.12699 0.33048 0.72181 0.0
O544 O 0.10763 0.30709 0.70941 0.0
O545 O 0.10787 0.31975 0.6975 0.0
O546 O 0.12228 0.33468 0.71355 0.0
O547 O 0.12199 0.32209 0.72554 0.0
H548 H 0.12921 0.30612 0.70329 0.0
H549 H 0.14168 0.29606 0.69234 0.0
H550 H 0.11656 0.28929 0.67001 0.0
H551 H 0.10426 0.29942 0.6809 0.0
H552 H 0.06011 0.31118 0.71626 0.0
H553 H 0.07937 0.31297 0.71812 0.0
H554 H 0.05696 0.34497 0.72062 0.0
H555 H 0.07619 0.3467 0.7224 0.0
H556 H 0.12511 0.36027 0.74356 0.0
H557 H 0.15429 0.34265 0.74301 0.0
H558 H 0.14638 0.33011 0.7305 0.0
H559 H 0.11729 0.34768 0.73086 0.0
C560 C 0.68882 0.11933 0.73775 0.0
C561 C 0.68986 0.13026 0.73589 0.0
C562 C 0.67684 0.13392 0.74972 0.0
C563 C 0.68392 0.13749 0.74181 0.0
C564 C 0.6759 0.12294 0.75154 0.0
C565 C 0.68183 0.11573 0.74562 0.0
U566 U 0.70919 0.11226 0.71638 0.0
O567 O 0.72113 0.09968 0.71613 0.0
O568 O 0.70851 0.09976 0.70418 0.0
C569 C 0.71658 0.09463 0.7082 0.0
C570 C 0.69483 0.11157 0.73149 0.0
C571 C 0.71516 0.08305 0.7094 0.0
C572 C 0.71137 0.06734 0.72004 0.0
C573 C 0.71225 0.0784 0.71911 0.0
C574 C 0.71609 0.06548 0.70154 0.0
C575 C 0.71331 0.06072 0.71126 0.0
C576 C 0.71701 0.0765 0.70064 0.0
C577 C 0.72323 0.13527 0.70143 0.0
C578 C 0.73869 0.13408 0.68995 0.0
C579 C 0.72868 0.15033 0.69063 0.0
C580 C 0.72177 0.14572 0.698 0.0
C581 C 0.73725 0.14459 0.6865 0.0
C582 C 0.73172 0.12944 0.69733 0.0
C583 C 0.71587 0.1308 0.70938 0.0
O584 O 0.6925 0.11114 0.72135 0.0
O585 O 0.70508 0.11128 0.73333 0.0
O586 O 0.72017 0.12588 0.71746 0.0
O587 O 0.70743 0.1259 0.70564 0.0
H588 H 0.69525 0.13319 0.72984 0.0
H589 H 0.68494 0.14588 0.74026 0.0
H590 H 0.67043 0.11987 0.75743 0.0
H591 H 0.68089 0.10732 0.74714 0.0
H592 H 0.70911 0.06396 0.72761 0.0
H593 H 0.71073 0.08331 0.72598 0.0
H594 H 0.71779 0.06066 0.69466 0.0
H595 H 0.71929 0.07992 0.69309 0.0
H596 H 0.74514 0.12939 0.68686 0.0
H597 H 0.72741 0.15848 0.68829 0.0
H598 H 0.71529 0.15036 0.7011 0.0
H599 H 0.73297 0.12134 0.69986 0.0
C600 C 0.91564 0.73764 0.69334 0.0
C601 C 0.90479 0.73527 0.69424 0.0
C602 C 0.9006 0.74939 0.6817 0.0
C603 C 0.89734 0.74108 0.68847 0.0
C604 C 0.91151 0.75171 0.68087 0.0
C605 C 0.91893 0.74589 0.68663 0.0
U606 U 0.92343 0.71734 0.71451 0.0
O607 O 0.93604 0.7054 0.71436 0.0
O608 O 0.93628 0.71803 0.72629 0.0
C609 C 0.94126 0.70991 0.72219 0.0
C610 C 0.92362 0.73168 0.69937 0.0
C611 C 0.95279 0.71126 0.7207 0.0
C612 C 0.96805 0.71907 0.71169 0.0
C613 C 0.95702 0.71795 0.71284 0.0
C614 C 0.97066 0.70685 0.72622 0.0
C615 C 0.97502 0.71355 0.7184 0.0
C616 C 0.95968 0.70573 0.72735 0.0
C617 C 0.90098 0.70321 0.73038 0.0
C618 C 0.89874 0.68551 0.73789 0.0
C619 C 0.88902 0.70022 0.74525 0.0
C620 C 0.89374 0.70704 0.73786 0.0
C621 C 0.89138 0.68934 0.74532 0.0
C622 C 0.90351 0.69237 0.73051 0.0
C623 C 0.9052 0.71057 0.7222 0.0
O624 O 0.92434 0.73405 0.70949 0.0
O625 O 0.92389 0.72143 0.69755 0.0
O626 O 0.90978 0.70636 0.71385 0.0
O627 O 0.91013 0.71911 0.72569 0.0
H628 H 0.90208 0.72892 0.69939 0.0
H629 H 0.88903 0.73898 0.68923 0.0
H630 H 0.91432 0.75814 0.6759 0.0
H631 H 0.92728 0.74787 0.68587 0.0
H632 H 0.9711 0.72438 0.70565 0.0
H633 H 0.95182 0.72231 0.70763 0.0
H634 H 0.97574 0.70233 0.73142 0.0
H635 H 0.95656 0.7005 0.73344 0.0
H636 H 0.90082 0.67721 0.73779 0.0
H637 H 0.88329 0.70343 0.75074 0.0
H638 H 0.89157 0.71533 0.73786 0.0
H639 H 0.90907 0.68916 0.72484 0.0
C640 C 0.29931 0.34669 0.11889 0.0
C641 C 0.29775 0.34283 0.12922 0.0
C642 C 0.28671 0.35805 0.13349 0.0
C643 C 0.2915 0.34845 0.13644 0.0
C644 C 0.28848 0.36194 0.12317 0.0
C645 C 0.2947 0.35631 0.11596 0.0
U646 U 0.32064 0.32655 0.11104 0.0
O647 O 0.32072 0.31489 0.09807 0.0
O648 O 0.33268 0.32764 0.0984 0.0
C649 C 0.32849 0.31973 0.093 0.0
C650 C 0.3056 0.34082 0.11101 0.0
C651 C 0.32713 0.32147 0.08144 0.0
C652 C 0.31655 0.32074 0.06527 0.0
C653 C 0.31736 0.31975 0.07632 0.0
C654 C 0.33517 0.32538 0.0643 0.0
C655 C 0.32547 0.3235 0.05911 0.0
C656 C 0.33599 0.32434 0.07531 0.0
C657 C 0.33589 0.31216 0.13346 0.0
C658 C 0.34605 0.29586 0.13263 0.0
C659 C 0.34789 0.30753 0.14777 0.0
C660 C 0.34057 0.31444 0.14328 0.0
C661 C 0.35072 0.29812 0.14253 0.0
C662 C 0.33871 0.30283 0.12812 0.0
C663 C 0.32789 0.31951 0.12925 0.0
O664 O 0.31574 0.34326 0.1106 0.0
O665 O 0.30373 0.33057 0.11038 0.0
O666 O 0.31972 0.31525 0.1243 0.0
O667 O 0.33157 0.3281 0.12458 0.0
H668 H 0.30128 0.33543 0.13166 0.0
H669 H 0.29024 0.34515 0.14427 0.0
H670 H 0.2851 0.36938 0.12065 0.0
H671 H 0.29587 0.35946 0.10805 0.0
H672 H 0.30893 0.31934 0.06156 0.0
H673 H 0.31036 0.31753 0.0808 0.0
H674 H 0.34224 0.32736 0.05982 0.0
H675 H 0.34363 0.32561 0.07903 0.0
H676 H 0.34812 0.28875 0.12833 0.0
H677 H 0.35119 0.30946 0.15546 0.0
H678 H 0.33846 0.32156 0.14756 0.0
H679 H 0.33523 0.30092 0.12051 0.0
C680 C 0.29987 0.6937 0.92052 0.0
C681 C 0.29857 0.69727 0.91007 0.0
C682 C 0.28711 0.68205 0.9061 0.0
C683 C 0.29224 0.69151 0.90294 0.0
C684 C 0.2886 0.67845 0.91656 0.0
C685 C 0.29491 0.68422 0.92368 0.0
U686 U 0.32097 0.71466 0.92749 0.0
O687 O 0.32119 0.72658 0.94022 0.0
O688 O 0.33345 0.7144 0.9397 0.0
C689 C 0.32936 0.72233 0.945 0.0
C690 C 0.30626 0.69976 0.92827 0.0
C691 C 0.32841 0.72086 0.95657 0.0
C692 C 0.31888 0.71464 0.97222 0.0
C693 C 0.31962 0.71571 0.96116 0.0
C694 C 0.33574 0.72377 0.97416 0.0
C695 C 0.32695 0.71866 0.97887 0.0
C696 C 0.33645 0.72484 0.96315 0.0
C697 C 0.33478 0.72943 0.90424 0.0
C698 C 0.34826 0.74328 0.90585 0.0
C699 C 0.34255 0.73739 0.88848 0.0
C700 C 0.33551 0.73018 0.89319 0.0
C701 C 0.34904 0.74404 0.89472 0.0
C702 C 0.34119 0.73602 0.91057 0.0
C703 C 0.32724 0.72171 0.90886 0.0
O704 O 0.31646 0.69775 0.92833 0.0
O705 O 0.30421 0.70993 0.92894 0.0
O706 O 0.31918 0.72567 0.91408 0.0
O707 O 0.33141 0.71345 0.91356 0.0
H708 H 0.30236 0.70456 0.90747 0.0
H709 H 0.29119 0.6946 0.895 0.0
H710 H 0.28495 0.67112 0.91924 0.0
H711 H 0.29587 0.6813 0.93169 0.0
H712 H 0.31205 0.71057 0.97555 0.0
H713 H 0.31333 0.71254 0.95621 0.0
H714 H 0.34202 0.72712 0.979 0.0
H715 H 0.34328 0.72888 0.95977 0.0
H716 H 0.35319 0.7482 0.9109 0.0
H717 H 0.34277 0.73787 0.87991 0.0
H718 H 0.33059 0.72519 0.88818 0.0
H719 H 0.34074 0.73553 0.91913 0.0
C720 C 0.29989 0.34652 0.91968 0.0
C721 C 0.29866 0.34268 0.90931 0.0
C722 C 0.28744 0.35769 0.90483 0.0
C723 C 0.29247 0.34819 0.90197 0.0
C724 C 0.28882 0.36155 0.91521 0.0
C725 C 0.29497 0.35601 0.92255 0.0
U726 U 0.32088 0.32612 0.92716 0.0
O727 O 0.3333 0.3268 0.93943 0.0
O728 O 0.32101 0.31438 0.94005 0.0
C729 C 0.32917 0.31886 0.94482 0.0
C730 C 0.30618 0.34073 0.92761 0.0
C731 C 0.3282 0.32043 0.95637 0.0
C732 C 0.31838 0.326 0.97201 0.0
C733 C 0.31915 0.32492 0.96096 0.0
C734 C 0.33574 0.31825 0.97396 0.0
C735 C 0.32668 0.32267 0.97866 0.0
C736 C 0.33647 0.31715 0.96296 0.0
C737 C 0.33484 0.31127 0.90427 0.0
C738 C 0.34848 0.29792 0.90628 0.0
C739 C 0.34268 0.30307 0.88875 0.0
C740 C 0.33558 0.31021 0.89325 0.0
C741 C 0.34922 0.29681 0.89518 0.0
C742 C 0.34133 0.30509 0.91079 0.0
C743 C 0.32726 0.31891 0.90867 0.0
O744 O 0.30411 0.33053 0.92845 0.0
O745 O 0.31638 0.34295 0.92772 0.0
O746 O 0.3314 0.32733 0.91328 0.0
O747 O 0.31916 0.31488 0.9139 0.0
H748 H 0.30246 0.3354 0.90691 0.0
H749 H 0.2917 0.34505 0.89401 0.0
H750 H 0.28498 0.36876 0.91773 0.0
H751 H 0.29582 0.35911 0.93052 0.0
H752 H 0.31134 0.32954 0.97533 0.0
H753 H 0.31267 0.32754 0.95601 0.0
H754 H 0.34221 0.31544 0.9788 0.0
H755 H 0.34351 0.31363 0.95958 0.0
H756 H 0.35333 0.29317 0.91148 0.0
H757 H 0.34315 0.30258 0.88019 0.0
H758 H 0.33066 0.31495 0.88809 0.0
H759 H 0.34086 0.3058 0.91933 0.0
C760 C 0.68929 0.30385 0.92121 0.0
C761 C 0.69245 0.3031 0.91057 0.0
C762 C 0.67763 0.29105 0.90684 0.0
C763 C 0.68669 0.29675 0.90345 0.0
C764 C 0.67445 0.29197 0.91749 0.0
C765 C 0.68023 0.2983 0.92459 0.0
U766 U 0.70992 0.32533 0.92796 0.0
O767 O 0.70959 0.33774 0.94024 0.0
O768 O 0.72202 0.32573 0.94052 0.0
C769 C 0.71769 0.3338 0.9454 0.0
C770 C 0.69536 0.31029 0.9289 0.0
C771 C 0.71639 0.33276 0.95698 0.0
C772 C 0.70935 0.32377 0.97258 0.0
C773 C 0.71035 0.32454 0.96152 0.0
C774 C 0.72039 0.33944 0.97462 0.0
C775 C 0.71434 0.33124 0.97928 0.0
C776 C 0.72139 0.34019 0.9636 0.0
C777 C 0.72398 0.33966 0.90461 0.0
C778 C 0.73825 0.35271 0.90605 0.0
C779 C 0.73064 0.34866 0.88889 0.0
C780 C 0.72372 0.34136 0.89364 0.0
C781 C 0.73799 0.35447 0.89502 0.0
C782 C 0.73128 0.34538 0.91081 0.0
C783 C 0.71653 0.33188 0.90927 0.0
O784 O 0.70558 0.30845 0.92936 0.0
O785 O 0.69314 0.32045 0.92908 0.0
O786 O 0.70823 0.3358 0.91412 0.0
O787 O 0.72076 0.32389 0.91438 0.0
H788 H 0.69943 0.30735 0.9078 0.0
H789 H 0.68945 0.29615 0.89535 0.0
H790 H 0.66744 0.28787 0.92036 0.0
H791 H 0.67763 0.29883 0.93276 0.0
H792 H 0.70455 0.31741 0.97588 0.0
H793 H 0.7064 0.31873 0.95653 0.0
H794 H 0.7245 0.34524 0.97949 0.0
H795 H 0.72613 0.34657 0.96025 0.0
H796 H 0.74374 0.3571 0.91102 0.0
H797 H 0.73031 0.34965 0.88038 0.0
H798 H 0.71816 0.33699 0.88872 0.0
H799 H 0.73158 0.34419 0.91931 0.0
C800 C 0.68843 0.73703 0.92108 0.0
C801 C 0.69073 0.73706 0.91019 0.0
C802 C 0.67628 0.74938 0.90695 0.0
C803 C 0.68471 0.74318 0.90319 0.0
C804 C 0.67401 0.74924 0.91787 0.0
C805 C 0.68003 0.74314 0.92485 0.0
U806 U 0.70924 0.71602 0.92765 0.0
O807 O 0.72129 0.71583 0.94024 0.0
O808 O 0.70885 0.70355 0.93991 0.0
C809 C 0.71682 0.70777 0.94519 0.0
C810 C 0.69462 0.73069 0.92863 0.0
C811 C 0.71541 0.70873 0.95682 0.0
C812 C 0.7157 0.719 0.9732 0.0
C813 C 0.71632 0.71851 0.96211 0.0
C814 C 0.71299 0.7 0.97389 0.0
C815 C 0.71415 0.70973 0.97926 0.0
C816 C 0.71365 0.69951 0.96283 0.0
C817 C 0.72346 0.70208 0.90436 0.0
C818 C 0.73609 0.68771 0.90592 0.0
C819 C 0.73166 0.69467 0.88862 0.0
C820 C 0.72479 0.7019 0.89334 0.0
C821 C 0.73736 0.68742 0.89482 0.0
C822 C 0.72918 0.69497 0.91065 0.0
C823 C 0.71596 0.70967 0.90898 0.0
O824 O 0.69246 0.72048 0.92875 0.0
O825 O 0.70484 0.7328 0.92901 0.0
O826 O 0.72015 0.71775 0.91411 0.0
O827 O 0.70765 0.70553 0.91379 0.0
H828 H 0.6972 0.73238 0.90713 0.0
H829 H 0.68676 0.74316 0.89485 0.0
H830 H 0.66747 0.75374 0.92105 0.0
H831 H 0.67809 0.74317 0.93321 0.0
H832 H 0.71672 0.72662 0.97703 0.0
H833 H 0.71769 0.72577 0.9577 0.0
H834 H 0.71158 0.69272 0.97823 0.0
H835 H 0.71292 0.69187 0.95896 0.0
H836 H 0.74028 0.6822 0.91094 0.0
H837 H 0.73256 0.69483 0.88009 0.0
H838 H 0.72047 0.70735 0.88836 0.0
H839 H 0.72825 0.69499 0.91919 0.0
C840 C 0.68975 0.73659 0.11944 0.0
C841 C 0.69039 0.73449 0.13034 0.0
C842 C 0.67766 0.74849 0.13402 0.0
C843 C 0.68438 0.74037 0.13757 0.0
C844 C 0.67711 0.75054 0.12306 0.0
C845 C 0.6831 0.74466 0.11587 0.0
U846 U 0.71077 0.71604 0.11184 0.0
O847 O 0.7104 0.70396 0.09926 0.0
O848 O 0.72249 0.71656 0.09889 0.0
C849 C 0.71806 0.70857 0.09381 0.0
C850 C 0.69588 0.73048 0.11164 0.0
C851 C 0.71634 0.70993 0.08222 0.0
C852 C 0.72247 0.71673 0.06514 0.0
C853 C 0.72342 0.71616 0.07618 0.0
C854 C 0.7073 0.70488 0.06585 0.0
C855 C 0.71447 0.711 0.0598 0.0
C856 C 0.70823 0.70433 0.0769 0.0
C857 C 0.72607 0.70178 0.13424 0.0
C858 C 0.73635 0.68561 0.13287 0.0
C859 C 0.73725 0.69619 0.14885 0.0
C860 C 0.73017 0.70341 0.14443 0.0
C861 C 0.74039 0.68715 0.14317 0.0
C862 C 0.72926 0.69287 0.12843 0.0
C863 C 0.71822 0.70931 0.13008 0.0
O864 O 0.70604 0.73278 0.11107 0.0
O865 O 0.6939 0.72023 0.11136 0.0
O866 O 0.70983 0.70516 0.12543 0.0
O867 O 0.72204 0.71767 0.12511 0.0
H868 H 0.69553 0.72831 0.13325 0.0
H869 H 0.68509 0.73864 0.14594 0.0
H870 H 0.67192 0.75659 0.12001 0.0
H871 H 0.68248 0.74637 0.10748 0.0
H872 H 0.72823 0.7214 0.06075 0.0
H873 H 0.72987 0.72043 0.07998 0.0
H874 H 0.70098 0.70045 0.06203 0.0
H875 H 0.70269 0.69936 0.08124 0.0
H876 H 0.73868 0.67881 0.12822 0.0
H877 H 0.74006 0.69758 0.15685 0.0
H878 H 0.72777 0.71021 0.14906 0.0
H879 H 0.72622 0.69149 0.12052 0.0
C880 C 0.299 0.69426 0.11916 0.0
C881 C 0.30108 0.69539 0.13003 0.0
C882 C 0.28664 0.68303 0.13424 0.0
C883 C 0.29497 0.68982 0.1375 0.0
C884 C 0.28463 0.68196 0.12332 0.0
C885 C 0.29075 0.68751 0.11587 0.0
U886 U 0.32058 0.71439 0.11121 0.0
O887 O 0.33268 0.71341 0.09863 0.0
O888 O 0.32085 0.72604 0.09822 0.0
C889 C 0.32862 0.72129 0.09321 0.0
C890 C 0.30533 0.70001 0.11115 0.0
C891 C 0.32733 0.71955 0.08165 0.0
C892 C 0.3167 0.71954 0.06551 0.0
C893 C 0.31748 0.72052 0.07656 0.0
C894 C 0.33555 0.71637 0.06448 0.0
C895 C 0.32575 0.71751 0.05932 0.0
C896 C 0.33633 0.71741 0.0755 0.0
C897 C 0.33564 0.72912 0.13376 0.0
C898 C 0.34552 0.7458 0.13312 0.0
C899 C 0.34704 0.73435 0.14843 0.0
C900 C 0.34004 0.72708 0.14373 0.0
C901 C 0.34981 0.74386 0.14325 0.0
C902 C 0.33852 0.73849 0.12841 0.0
C903 C 0.32771 0.72158 0.12945 0.0
O904 O 0.3036 0.71024 0.11044 0.0
O905 O 0.31544 0.69767 0.1108 0.0
O906 O 0.33143 0.71306 0.12483 0.0
O907 O 0.31959 0.72568 0.12444 0.0
H908 H 0.30741 0.7006 0.13272 0.0
H909 H 0.29667 0.69094 0.14584 0.0
H910 H 0.27841 0.6767 0.1205 0.0
H911 H 0.28905 0.68651 0.10751 0.0
H912 H 0.30901 0.72035 0.06182 0.0
H913 H 0.31038 0.72215 0.08108 0.0
H914 H 0.34271 0.71496 0.05999 0.0
H915 H 0.34403 0.71671 0.07921 0.0
H916 H 0.34757 0.75298 0.12885 0.0
H917 H 0.35003 0.73264 0.15628 0.0
H918 H 0.33789 0.71993 0.14802 0.0
H919 H 0.33524 0.74022 0.12067 0.0
C920 C 0.68982 0.30232 0.11906 0.0
C921 C 0.6916 0.30388 0.12993 0.0
C922 C 0.67847 0.29016 0.13422 0.0
C923 C 0.68598 0.29785 0.13744 0.0
C924 C 0.67675 0.28865 0.12329 0.0
C925 C 0.68237 0.29467 0.1158 0.0
U926 U 0.71029 0.32355 0.1114 0.0
O927 O 0.72192 0.3239 0.0984 0.0
O928 O 0.70955 0.33599 0.09914 0.0
C929 C 0.71734 0.3319 0.09361 0.0
C930 C 0.69561 0.30861 0.11105 0.0
C931 C 0.71554 0.33088 0.08204 0.0
C932 C 0.7142 0.32037 0.06587 0.0
C933 C 0.71526 0.32098 0.07692 0.0
C934 C 0.71342 0.3395 0.06492 0.0
C935 C 0.71332 0.32964 0.05972 0.0
C936 C 0.71454 0.34011 0.07594 0.0
C937 C 0.72522 0.33764 0.13444 0.0
C938 C 0.73672 0.35321 0.13321 0.0
C939 C 0.73446 0.34423 0.15004 0.0
C940 C 0.72765 0.33687 0.14524 0.0
C941 C 0.73901 0.35258 0.14413 0.0
C942 C 0.72986 0.34581 0.12841 0.0
C943 C 0.7176 0.32998 0.12986 0.0
O944 O 0.69347 0.31878 0.11089 0.0
O945 O 0.70579 0.30668 0.11023 0.0
O946 O 0.72163 0.32201 0.12457 0.0
O947 O 0.7092 0.33401 0.1253 0.0
H948 H 0.6973 0.30977 0.1326 0.0
H949 H 0.68742 0.29933 0.14577 0.0
H950 H 0.67116 0.28271 0.1205 0.0
H951 H 0.68091 0.29334 0.10745 0.0
H952 H 0.71403 0.31264 0.06214 0.0
H953 H 0.71598 0.31371 0.08143 0.0
H954 H 0.71291 0.34681 0.06045 0.0
H955 H 0.71479 0.34783 0.07969 0.0
H956 H 0.74003 0.35957 0.12844 0.0
H957 H 0.73618 0.34337 0.1584 0.0
H958 H 0.72418 0.33059 0.15002 0.0
H959 H 0.72807 0.34653 0.12005 0.0
C960 C 0.61386 0.80381 0.84653 0.0
C961 C 0.62479 0.80431 0.84449 0.0
C962 C 0.62814 0.79216 0.85916 0.0
C963 C 0.63187 0.79851 0.85073 0.0
C964 C 0.61716 0.79169 0.8611 0.0
C965 C 0.61011 0.79745 0.85485 0.0
U966 U 0.6072 0.82435 0.82516 0.0
O967 O 0.59456 0.82415 0.81315 0.0
O968 O 0.59494 0.83668 0.8252 0.0
C969 C 0.58969 0.83232 0.81731 0.0
C970 C 0.60626 0.80993 0.84019 0.0
C971 C 0.57814 0.83114 0.81882 0.0
C972 C 0.56263 0.8212 0.82487 0.0
C973 C 0.57366 0.82219 0.82378 0.0
C974 C 0.56045 0.83815 0.81619 0.0
C975 C 0.55586 0.82916 0.82104 0.0
C976 C 0.57145 0.83911 0.81509 0.0
C977 C 0.63034 0.83829 0.81039 0.0
C978 C 0.62868 0.85299 0.79802 0.0
C979 C 0.64583 0.84513 0.80109 0.0
C980 C 0.64122 0.83799 0.80825 0.0
C981 C 0.63964 0.85275 0.79588 0.0
C982 C 0.62406 0.8458 0.8052 0.0
C983 C 0.62583 0.83079 0.81818 0.0
O984 O 0.60611 0.82017 0.84207 0.0
O985 O 0.60586 0.80764 0.83004 0.0
O986 O 0.62072 0.82254 0.81428 0.0
O987 O 0.62106 0.83501 0.82639 0.0
H988 H 0.62784 0.80922 0.83811 0.0
H989 H 0.64027 0.79915 0.84907 0.0
H990 H 0.61398 0.78677 0.86741 0.0
H991 H 0.6017 0.79695 0.85653 0.0
H992 H 0.5594 0.81412 0.82856 0.0
H993 H 0.57869 0.81594 0.82672 0.0
H994 H 0.55555 0.84453 0.81332 0.0
H995 H 0.57475 0.84611 0.81129 0.0
H996 H 0.62366 0.85867 0.79408 0.0
H997 H 0.65431 0.8448 0.79979 0.0
H998 H 0.6462 0.83228 0.81221 0.0
H999 H 0.61563 0.84613 0.80674 0.0
C1000 C 0.1897 0.61977 0.80257 0.0
C1001 C 0.1904 0.63065 0.80483 0.0
C1002 C 0.1778 0.63448 0.79067 0.0
C1003 C 0.18449 0.63794 0.79894 0.0
C1004 C 0.17722 0.62355 0.78843 0.0
C1005 C 0.1831 0.61629 0.79432 0.0
U1006 U 0.2098 0.61218 0.82407 0.0
O1007 O 0.20878 0.59952 0.83608 0.0
O1008 O 0.22154 0.5994 0.82426 0.0
C1009 C 0.21673 0.59426 0.83199 0.0
C1010 C 0.1956 0.61191 0.80881 0.0
C1011 C 0.21508 0.58267 0.83064 0.0
C1012 C 0.21571 0.5665 0.82005 0.0
C1013 C 0.21663 0.57757 0.82085 0.0
C1014 C 0.21146 0.56546 0.83872 0.0
C1015 C 0.21317 0.56029 0.82899 0.0
C1016 C 0.21243 0.57649 0.83952 0.0
C1017 C 0.22395 0.63484 0.83952 0.0
C1018 C 0.23953 0.6336 0.85082 0.0
C1019 C 0.22917 0.64965 0.85077 0.0
C1020 C 0.22229 0.64513 0.84331 0.0
C1021 C 0.2379 0.64397 0.85462 0.0
C1022 C 0.23259 0.62906 0.84335 0.0
C1023 C 0.21665 0.63052 0.83143 0.0
O1024 O 0.20586 0.61156 0.80707 0.0
O1025 O 0.19316 0.61138 0.81892 0.0
O1026 O 0.2081 0.62568 0.835 0.0
O1027 O 0.22099 0.62566 0.82333 0.0
H1028 H 0.19548 0.63349 0.81117 0.0
H1029 H 0.18524 0.64629 0.80082 0.0
H1030 H 0.17204 0.62056 0.78226 0.0
H1031 H 0.18243 0.60792 0.79249 0.0
H1032 H 0.21697 0.56281 0.81241 0.0
H1033 H 0.21868 0.58209 0.81383 0.0
H1034 H 0.20964 0.56095 0.8458 0.0
H1035 H 0.21129 0.5802 0.84718 0.0
H1036 H 0.2461 0.62896 0.85369 0.0
H1037 H 0.22775 0.65769 0.85336 0.0
H1038 H 0.2157 0.64974 0.84042 0.0
H1039 H 0.234 0.62108 0.84055 0.0
C1040 C 0.4166 0.23699 0.84631 0.0
C1041 C 0.40603 0.23752 0.84293 0.0
C1042 C 0.40178 0.24926 0.8577 0.0
C1043 C 0.39869 0.2436 0.84856 0.0
C1044 C 0.41238 0.24858 0.86109 0.0
C1045 C 0.4197 0.24252 0.85545 0.0
U1046 U 0.42398 0.216 0.82573 0.0
O1047 O 0.43677 0.216 0.81387 0.0
O1048 O 0.43636 0.2038 0.82626 0.0
C1049 C 0.44168 0.20801 0.81832 0.0
C1050 C 0.4245 0.23079 0.84041 0.0
C1051 C 0.45321 0.20936 0.81994 0.0
C1052 C 0.4686 0.21995 0.82514 0.0
C1053 C 0.45758 0.21881 0.82398 0.0
C1054 C 0.47095 0.20217 0.8184 0.0
C1055 C 0.47543 0.21164 0.82233 0.0
C1056 C 0.45997 0.20106 0.81721 0.0
C1057 C 0.40076 0.20171 0.8111 0.0
C1058 C 0.40085 0.19215 0.79433 0.0
C1059 C 0.38543 0.1912 0.80572 0.0
C1060 C 0.39053 0.19776 0.81308 0.0
C1061 C 0.39044 0.18843 0.79616 0.0
C1062 C 0.40597 0.19875 0.80173 0.0
C1063 C 0.40547 0.20929 0.81871 0.0
O1064 O 0.42468 0.2206 0.84256 0.0
O1065 O 0.4252 0.23282 0.83021 0.0
O1066 O 0.4106 0.21748 0.81469 0.0
O1067 O 0.41017 0.20521 0.82703 0.0
H1068 H 0.40347 0.23329 0.83589 0.0
H1069 H 0.39064 0.24402 0.84563 0.0
H1070 H 0.41502 0.25267 0.86818 0.0
H1071 H 0.42781 0.24216 0.85822 0.0
H1072 H 0.47175 0.22731 0.82831 0.0
H1073 H 0.4525 0.22531 0.8262 0.0
H1074 H 0.47595 0.19565 0.81603 0.0
H1075 H 0.45676 0.19371 0.81406 0.0
H1076 H 0.40493 0.19022 0.78703 0.0
H1077 H 0.37751 0.18833 0.80751 0.0
H1078 H 0.38639 0.19992 0.82028 0.0
H1079 H 0.41388 0.2017 0.80004 0.0
C1080 C 0.79999 0.42057 0.84537 0.0
C1081 C 0.7982 0.41038 0.84122 0.0
C1082 C 0.78739 0.40566 0.85661 0.0
C1083 C 0.79193 0.40301 0.84677 0.0
C1084 C 0.78937 0.41584 0.86078 0.0
C1085 C 0.79559 0.42321 0.8552 0.0
U1086 U 0.82084 0.42849 0.82459 0.0
O1087 O 0.82083 0.44156 0.81305 0.0
O1088 O 0.83323 0.44093 0.8252 0.0
C1089 C 0.82901 0.44638 0.81743 0.0
C1090 C 0.80629 0.42858 0.83952 0.0
C1091 C 0.82799 0.45789 0.8192 0.0
C1092 C 0.8182 0.47325 0.82537 0.0
C1093 C 0.81904 0.46223 0.82411 0.0
C1094 C 0.8353 0.47567 0.81695 0.0
C1095 C 0.82633 0.48012 0.82179 0.0
C1096 C 0.83611 0.46469 0.81568 0.0
C1097 C 0.83467 0.40606 0.80901 0.0
C1098 C 0.85091 0.40738 0.79864 0.0
C1099 C 0.84013 0.39141 0.7978 0.0
C1100 C 0.83294 0.39586 0.80492 0.0
C1101 C 0.84926 0.39707 0.79461 0.0
C1102 C 0.84367 0.41184 0.80576 0.0
C1103 C 0.82716 0.41023 0.81691 0.0
O1104 O 0.81651 0.42874 0.84152 0.0
O1105 O 0.80412 0.42954 0.82938 0.0
O1106 O 0.81898 0.41538 0.81316 0.0
O1107 O 0.83135 0.41472 0.82535 0.0
H1108 H 0.80159 0.40815 0.83366 0.0
H1109 H 0.79069 0.3952 0.84338 0.0
H1110 H 0.78591 0.4182 0.86827 0.0
H1111 H 0.79688 0.43103 0.85854 0.0
H1112 H 0.81124 0.47638 0.82923 0.0
H1113 H 0.81269 0.45711 0.82692 0.0
H1114 H 0.84164 0.48068 0.81394 0.0
H1115 H 0.84306 0.46151 0.81183 0.0
H1116 H 0.85779 0.41201 0.79627 0.0
H1117 H 0.83866 0.38342 0.79501 0.0
H1118 H 0.82606 0.39125 0.80736 0.0
H1119 H 0.84514 0.41975 0.8088 0.0
C1120 C 0.614 0.19316 0.23667 0.0
C1121 C 0.62496 0.1948 0.23551 0.0
C1122 C 0.62845 0.18099 0.2486 0.0
C1123 C 0.63212 0.18876 0.24142 0.0
C1124 C 0.61744 0.17942 0.24969 0.0
C1125 C 0.61031 0.18544 0.24379 0.0
U1126 U 0.60717 0.21437 0.21606 0.0
O1127 O 0.59476 0.21431 0.20379 0.0
O1128 O 0.59464 0.22638 0.21629 0.0
C1129 C 0.58966 0.22225 0.20811 0.0
C1130 C 0.60631 0.19938 0.23054 0.0
C1131 C 0.5781 0.22081 0.20928 0.0
C1132 C 0.5627 0.21248 0.21755 0.0
C1133 C 0.57373 0.21365 0.21664 0.0
C1134 C 0.56032 0.22557 0.20375 0.0
C1135 C 0.55584 0.21841 0.21109 0.0
C1136 C 0.57132 0.22674 0.20286 0.0
C1137 C 0.63023 0.22924 0.20208 0.0
C1138 C 0.62893 0.2404 0.18641 0.0
C1139 C 0.64543 0.23965 0.19614 0.0
C1140 C 0.6408 0.23253 0.20331 0.0
C1141 C 0.63959 0.24366 0.18756 0.0
C1142 C 0.62428 0.23327 0.19362 0.0
C1143 C 0.62577 0.22143 0.20959 0.0
O1144 O 0.60596 0.20954 0.23279 0.0
O1145 O 0.60605 0.19747 0.2203 0.0
O1146 O 0.6209 0.21318 0.2054 0.0
O1147 O 0.62079 0.2253 0.21785 0.0
H1148 H 0.62796 0.20075 0.23006 0.0
H1149 H 0.64053 0.19028 0.24045 0.0
H1150 H 0.61431 0.17341 0.255 0.0
H1151 H 0.60188 0.18404 0.24476 0.0
H1152 H 0.55954 0.20682 0.22321 0.0
H1153 H 0.57885 0.20898 0.22165 0.0
H1154 H 0.55532 0.23039 0.19876 0.0
H1155 H 0.57454 0.23234 0.19716 0.0
H1156 H 0.62416 0.24341 0.17997 0.0
H1157 H 0.65369 0.24184 0.1972 0.0
H1158 H 0.64553 0.22948 0.20976 0.0
H1159 H 0.61609 0.23086 0.19256 0.0
C1160 C 0.79894 0.61925 0.19287 0.0
C1161 C 0.80096 0.63016 0.19388 0.0
C1162 C 0.78658 0.63403 0.18156 0.0
C1163 C 0.79485 0.63749 0.18826 0.0
C1164 C 0.78462 0.62306 0.18061 0.0
C1165 C 0.79074 0.61576 0.1862 0.0
U1166 U 0.8203 0.61222 0.21312 0.0
O1167 O 0.82063 0.59951 0.22507 0.0
O1168 O 0.83267 0.60004 0.21253 0.0
C1169 C 0.82871 0.59475 0.22061 0.0
C1170 C 0.80526 0.61142 0.19872 0.0
C1171 C 0.82774 0.58316 0.21926 0.0
C1172 C 0.81816 0.56733 0.21345 0.0
C1173 C 0.81886 0.57841 0.21444 0.0
C1174 C 0.83522 0.56569 0.22203 0.0
C1175 C 0.82635 0.56082 0.21723 0.0
C1176 C 0.83589 0.57672 0.22302 0.0
C1177 C 0.83466 0.63563 0.22735 0.0
C1178 C 0.84378 0.63616 0.24436 0.0
C1179 C 0.8459 0.6507 0.23199 0.0
C1180 C 0.83924 0.64547 0.2248 0.0
C1181 C 0.84813 0.64621 0.24194 0.0
C1182 C 0.8371 0.63091 0.23713 0.0
C1183 C 0.82695 0.63086 0.2199 0.0
O1184 O 0.81542 0.61127 0.19641 0.0
O1185 O 0.8034 0.61082 0.20895 0.0
O1186 O 0.81886 0.62569 0.22407 0.0
O1187 O 0.83089 0.62616 0.21151 0.0
H1188 H 0.80724 0.63301 0.19902 0.0
H1189 H 0.79651 0.64586 0.1893 0.0
H1190 H 0.77843 0.6201 0.17542 0.0
H1191 H 0.78908 0.60736 0.18531 0.0
H1192 H 0.81127 0.56388 0.20963 0.0
H1193 H 0.81248 0.58325 0.21145 0.0
H1194 H 0.8416 0.56097 0.22519 0.0
H1195 H 0.84279 0.58023 0.2268 0.0
H1196 H 0.84527 0.6325 0.25197 0.0
H1197 H 0.84926 0.65832 0.22976 0.0
H1198 H 0.8375 0.64923 0.21729 0.0
H1199 H 0.83366 0.6233 0.23927 0.0
C1200 C 0.41642 0.84759 0.23626 0.0
C1201 C 0.40598 0.8438 0.23731 0.0
C1202 C 0.40153 0.85893 0.24847 0.0
C1203 C 0.39861 0.8494 0.24338 0.0
C1204 C 0.41196 0.86278 0.24721 0.0
C1205 C 0.41933 0.85715 0.24118 0.0
U1206 U 0.42422 0.8263 0.21613 0.0
O1207 O 0.43694 0.82625 0.20419 0.0
O1208 O 0.43688 0.81441 0.21694 0.0
C1209 C 0.44208 0.81854 0.20888 0.0
C1210 C 0.42444 0.84157 0.23031 0.0
C1211 C 0.45364 0.82005 0.21036 0.0
C1212 C 0.46937 0.8313 0.2121 0.0
C1213 C 0.45833 0.83017 0.21119 0.0
C1214 C 0.47115 0.81223 0.21156 0.0
C1215 C 0.47595 0.82233 0.21221 0.0
C1216 C 0.46015 0.81112 0.21062 0.0
C1217 C 0.40131 0.81071 0.20234 0.0
C1218 C 0.40142 0.80056 0.18591 0.0
C1219 C 0.38647 0.7991 0.19787 0.0
C1220 C 0.3914 0.80624 0.2048 0.0
C1221 C 0.39134 0.79625 0.18826 0.0
C1222 C 0.40636 0.80774 0.19288 0.0
C1223 C 0.40584 0.81877 0.20957 0.0
O1224 O 0.42513 0.83147 0.23274 0.0
O1225 O 0.42481 0.84333 0.22005 0.0
O1226 O 0.4107 0.82692 0.20516 0.0
O1227 O 0.41073 0.81519 0.21802 0.0
H1228 H 0.40355 0.83646 0.23352 0.0
H1229 H 0.39061 0.84628 0.24406 0.0
H1230 H 0.41453 0.87001 0.2511 0.0
H1231 H 0.42736 0.8602 0.24047 0.0
H1232 H 0.47276 0.83921 0.21248 0.0
H1233 H 0.4535 0.83721 0.21103 0.0
H1234 H 0.47589 0.80513 0.21183 0.0
H1235 H 0.45671 0.80323 0.21003 0.0
H1236 H 0.40538 0.7986 0.17857 0.0
H1237 H 0.37883 0.79579 0.20007 0.0
H1238 H 0.38738 0.8084 0.21207 0.0
H1239 H 0.41403 0.81109 0.19082 0.0
C1240 C 0.18999 0.42068 0.23643 0.0
C1241 C 0.19343 0.41019 0.23756 0.0
C1242 C 0.17847 0.40617 0.24925 0.0
C1243 C 0.18773 0.403 0.24392 0.0
C1244 C 0.17501 0.41666 0.24793 0.0
C1245 C 0.18072 0.42382 0.24161 0.0
U1246 U 0.21021 0.42803 0.21479 0.0
O1247 O 0.20937 0.44044 0.20251 0.0
O1248 O 0.22211 0.4409 0.21434 0.0
C1249 C 0.21742 0.44582 0.20647 0.0
C1250 C 0.19594 0.42847 0.22998 0.0
C1251 C 0.21599 0.45741 0.20757 0.0
C1252 C 0.21508 0.47352 0.2182 0.0
C1253 C 0.21573 0.46244 0.21751 0.0
C1254 C 0.21465 0.47466 0.19906 0.0
C1255 C 0.21466 0.4798 0.20897 0.0
C1256 C 0.21534 0.46362 0.19839 0.0
C1257 C 0.2242 0.40521 0.19987 0.0
C1258 C 0.24002 0.40626 0.18883 0.0
C1259 C 0.22907 0.39038 0.18863 0.0
C1260 C 0.22223 0.39497 0.196 0.0
C1261 C 0.23807 0.39594 0.18495 0.0
C1262 C 0.23312 0.41087 0.19621 0.0
C1263 C 0.21691 0.40961 0.20785 0.0
O1264 O 0.2062 0.42908 0.23173 0.0
O1265 O 0.19352 0.42871 0.21986 0.0
O1266 O 0.20841 0.41427 0.20415 0.0
O1267 O 0.22125 0.41469 0.21587 0.0
H1268 H 0.20057 0.40759 0.2336 0.0
H1269 H 0.1907 0.39504 0.24481 0.0
H1270 H 0.16782 0.41934 0.25173 0.0
H1271 H 0.17789 0.43186 0.24078 0.0
H1272 H 0.21518 0.47717 0.22596 0.0
H1273 H 0.21621 0.45784 0.22474 0.0
H1274 H 0.21412 0.47917 0.19179 0.0
H1275 H 0.21549 0.45993 0.19064 0.0
H1276 H 0.2468 0.41081 0.18609 0.0
H1277 H 0.2274 0.38238 0.18597 0.0
H1278 H 0.21542 0.39045 0.19876 0.0
H1279 H 0.23477 0.41881 0.19907 0.0
C1280 C 0.79792 0.62039 0.84641 0.0
C1281 C 0.79791 0.63102 0.84314 0.0
C1282 C 0.7856 0.63545 0.85739 0.0
C1283 C 0.79179 0.63848 0.84857 0.0
C1284 C 0.78575 0.62478 0.86065 0.0
C1285 C 0.79184 0.61734 0.85521 0.0
U1286 U 0.81924 0.61244 0.82633 0.0
O1287 O 0.83133 0.59999 0.82741 0.0
O1288 O 0.81939 0.59936 0.81479 0.0
C1289 C 0.8272 0.59447 0.81958 0.0
C1290 C 0.80417 0.61236 0.84073 0.0
C1291 C 0.82592 0.5829 0.82138 0.0
C1292 C 0.81541 0.56656 0.82104 0.0
C1293 C 0.81613 0.57762 0.82005 0.0
C1294 C 0.83416 0.56587 0.82493 0.0
C1295 C 0.82443 0.56053 0.82342 0.0
C1296 C 0.83489 0.5769 0.82389 0.0
C1297 C 0.83429 0.63502 0.81148 0.0
C1298 C 0.84334 0.63507 0.79442 0.0
C1299 C 0.84663 0.64926 0.80693 0.0
C1300 C 0.83958 0.6445 0.81409 0.0
C1301 C 0.84854 0.64468 0.79696 0.0
C1302 C 0.8363 0.63027 0.80162 0.0
C1303 C 0.82637 0.63069 0.819 0.0
O1304 O 0.80232 0.61152 0.83051 0.0
O1305 O 0.8143 0.61213 0.84307 0.0
O1306 O 0.83012 0.62618 0.82758 0.0
O1307 O 0.8182 0.62558 0.81493 0.0
H1308 H 0.80262 0.63354 0.8364 0.0
H1309 H 0.79198 0.64665 0.84591 0.0
H1310 H 0.78099 0.62213 0.8673 0.0
H1311 H 0.79174 0.60916 0.85784 0.0
H1312 H 0.80777 0.56272 0.81994 0.0
H1313 H 0.80906 0.58201 0.81812 0.0
H1314 H 0.8413 0.5615 0.82662 0.0
H1315 H 0.84254 0.58075 0.82486 0.0
H1316 H 0.84472 0.63125 0.78686 0.0
H1317 H 0.85034 0.65673 0.80912 0.0
H1318 H 0.83811 0.64834 0.82162 0.0
H1319 H 0.83234 0.62293 0.79943 0.0
C1320 C 0.41709 0.84752 0.8029 0.0
C1321 C 0.40649 0.84408 0.80232 0.0
C1322 C 0.40233 0.8587 0.79039 0.0
C1323 C 0.39919 0.8496 0.79611 0.0
C1324 C 0.41295 0.86217 0.79113 0.0
C1325 C 0.42024 0.85662 0.79731 0.0
U1326 U 0.42434 0.82701 0.82399 0.0
O1327 O 0.43697 0.81512 0.82408 0.0
O1328 O 0.43679 0.82754 0.83624 0.0
C1329 C 0.44198 0.81957 0.83209 0.0
C1330 C 0.42496 0.84166 0.80918 0.0
C1331 C 0.45351 0.82116 0.83077 0.0
C1332 C 0.46882 0.82708 0.82054 0.0
C1333 C 0.45781 0.82596 0.82168 0.0
C1334 C 0.47134 0.81874 0.83762 0.0
C1335 C 0.47574 0.82346 0.82849 0.0
C1336 C 0.46035 0.8176 0.83873 0.0
C1337 C 0.40113 0.81233 0.83812 0.0
C1338 C 0.4027 0.79868 0.85164 0.0
C1339 C 0.38535 0.80431 0.84588 0.0
C1340 C 0.39008 0.81148 0.83883 0.0
C1341 C 0.39157 0.79781 0.8524 0.0
C1342 C 0.40744 0.80589 0.84457 0.0
C1343 C 0.40576 0.81997 0.83054 0.0
O1344 O 0.42519 0.84384 0.81936 0.0
O1345 O 0.42558 0.83146 0.80718 0.0
O1346 O 0.41084 0.81592 0.82242 0.0
O1347 O 0.41059 0.82828 0.83465 0.0
H1348 H 0.40388 0.8371 0.80664 0.0
H1349 H 0.39106 0.84678 0.79583 0.0
H1350 H 0.41568 0.86906 0.78675 0.0
H1351 H 0.42839 0.85939 0.79765 0.0
H1352 H 0.47192 0.83087 0.81346 0.0
H1353 H 0.45265 0.82881 0.81546 0.0
H1354 H 0.47639 0.81573 0.84384 0.0
H1355 H 0.45719 0.81384 0.84579 0.0
H1356 H 0.40774 0.79386 0.8566 0.0
H1357 H 0.37678 0.80375 0.84607 0.0
H1358 H 0.38508 0.81635 0.83388 0.0
H1359 H 0.416 0.80645 0.84412 0.0
C1360 C 0.19008 0.42083 0.80362 0.0
C1361 C 0.19153 0.40995 0.80531 0.0
C1362 C 0.17872 0.40573 0.79138 0.0
C1363 C 0.18591 0.40247 0.79925 0.0
C1364 C 0.17732 0.41667 0.78976 0.0
C1365 C 0.18294 0.42413 0.79582 0.0
U1366 U 0.21045 0.42833 0.82484 0.0
O1367 O 0.22239 0.44118 0.82507 0.0
O1368 O 0.20992 0.44066 0.83719 0.0
C1369 C 0.21795 0.44601 0.83314 0.0
C1370 C 0.19594 0.42881 0.8099 0.0
C1371 C 0.21651 0.45756 0.83208 0.0
C1372 C 0.21079 0.4731 0.82224 0.0
C1373 C 0.21183 0.46206 0.82306 0.0
C1374 C 0.21899 0.47522 0.83946 0.0
C1375 C 0.21436 0.47983 0.83044 0.0
C1376 C 0.22005 0.46423 0.84025 0.0
C1377 C 0.22478 0.40523 0.839 0.0
C1378 C 0.23887 0.40687 0.85208 0.0
C1379 C 0.2321 0.38951 0.84723 0.0
C1380 C 0.225 0.3942 0.8402 0.0
C1381 C 0.23918 0.39576 0.85323 0.0
C1382 C 0.23174 0.41157 0.84501 0.0
C1383 C 0.21727 0.4098 0.83136 0.0
O1384 O 0.1937 0.42903 0.82007 0.0
O1385 O 0.20616 0.42952 0.80797 0.0
O1386 O 0.22145 0.41499 0.82332 0.0
O1387 O 0.20895 0.4145 0.8354 0.0
H1388 H 0.197 0.40724 0.81133 0.0
H1389 H 0.18711 0.39413 0.80082 0.0
H1390 H 0.17199 0.4195 0.78369 0.0
H1391 H 0.18174 0.4325 0.79438 0.0
H1392 H 0.20709 0.47635 0.81523 0.0
H1393 H 0.20901 0.45704 0.81667 0.0
H1394 H 0.22198 0.48013 0.84585 0.0
H1395 H 0.22372 0.46092 0.84725 0.0
H1396 H 0.24426 0.41192 0.85652 0.0
H1397 H 0.23196 0.38096 0.84804 0.0
H1398 H 0.21965 0.38918 0.83568 0.0
H1399 H 0.23169 0.42012 0.84417 0.0
C1400 C 0.61389 0.19413 0.80373 0.0
C1401 C 0.62484 0.19587 0.80485 0.0
C1402 C 0.62844 0.18207 0.79178 0.0
C1403 C 0.63205 0.18989 0.79893 0.0
C1404 C 0.61744 0.18039 0.79073 0.0
C1405 C 0.61026 0.18636 0.79664 0.0
U1406 U 0.60688 0.21458 0.82504 0.0
O1407 O 0.5945 0.22674 0.82511 0.0
O1408 O 0.5942 0.21411 0.83705 0.0
C1409 C 0.58927 0.22228 0.83297 0.0
C1410 C 0.60616 0.20024 0.80992 0.0
C1411 C 0.57774 0.22096 0.83147 0.0
C1412 C 0.5625 0.21431 0.82157 0.0
C1413 C 0.57351 0.21532 0.82283 0.0
C1414 C 0.55985 0.22449 0.8376 0.0
C1415 C 0.55551 0.21892 0.82893 0.0
C1416 C 0.57083 0.2255 0.83884 0.0
C1417 C 0.62994 0.22827 0.84024 0.0
C1418 C 0.62865 0.2434 0.85214 0.0
C1419 C 0.64514 0.23384 0.85075 0.0
C1420 C 0.6405 0.227 0.84333 0.0
C1421 C 0.63929 0.24214 0.85527 0.0
C1422 C 0.624 0.2365 0.8447 0.0
C1423 C 0.62543 0.22097 0.83226 0.0
O1424 O 0.60558 0.1979 0.82005 0.0
O1425 O 0.60605 0.2105 0.8081 0.0
O1426 O 0.62068 0.22535 0.82412 0.0
O1427 O 0.62034 0.21262 0.83596 0.0
H1428 H 0.6278 0.20184 0.81029 0.0
H1429 H 0.64044 0.19149 0.79987 0.0
H1430 H 0.61435 0.17434 0.78545 0.0
H1431 H 0.60184 0.18487 0.79571 0.0
H1432 H 0.55947 0.21006 0.81475 0.0
H1433 H 0.57873 0.21176 0.81705 0.0
H1434 H 0.55476 0.22799 0.84353 0.0
H1435 H 0.57393 0.22984 0.84558 0.0
H1436 H 0.62389 0.24963 0.85553 0.0
H1437 H 0.65338 0.23273 0.85282 0.0
H1438 H 0.64522 0.22072 0.83994 0.0
H1439 H 0.61581 0.23759 0.84244 0.0
C1440 C 0.79879 0.42086 0.1935 0.0
C1441 C 0.8013 0.41005 0.19363 0.0
C1442 C 0.78606 0.40602 0.18234 0.0
C1443 C 0.79501 0.4027 0.18808 0.0
C1444 C 0.78362 0.41689 0.18226 0.0
C1445 C 0.78993 0.42422 0.18777 0.0
U1446 U 0.82043 0.42851 0.21355 0.0
O1447 O 0.83268 0.44108 0.21262 0.0
O1448 O 0.82079 0.44138 0.22531 0.0
C1449 C 0.8286 0.44645 0.22054 0.0
C1450 C 0.80527 0.42876 0.19926 0.0
C1451 C 0.82731 0.45801 0.21882 0.0
C1452 C 0.81666 0.47404 0.21896 0.0
C1453 C 0.81746 0.463 0.21997 0.0
C1454 C 0.83548 0.47527 0.21541 0.0
C1455 C 0.82568 0.48033 0.21672 0.0
C1456 C 0.83628 0.46426 0.21647 0.0
C1457 C 0.83482 0.40567 0.22811 0.0
C1458 C 0.84893 0.40753 0.24115 0.0
C1459 C 0.84234 0.39007 0.2364 0.0
C1460 C 0.83521 0.39464 0.22933 0.0
C1461 C 0.84928 0.39644 0.24245 0.0
C1462 C 0.84174 0.41212 0.23405 0.0
C1463 C 0.82711 0.41012 0.2206 0.0
O1464 O 0.80349 0.42943 0.20949 0.0
O1465 O 0.81541 0.42903 0.19687 0.0
O1466 O 0.83106 0.41484 0.21217 0.0
O1467 O 0.8191 0.4152 0.22478 0.0
H1468 H 0.8081 0.4073 0.19805 0.0
H1469 H 0.79705 0.39439 0.18843 0.0
H1470 H 0.7769 0.41976 0.17782 0.0
H1471 H 0.78788 0.43253 0.18755 0.0
H1472 H 0.80897 0.47765 0.21991 0.0
H1473 H 0.81038 0.45841 0.22175 0.0
H1474 H 0.84261 0.47985 0.21382 0.0
H1475 H 0.84398 0.46063 0.21563 0.0
H1476 H 0.8541 0.41268 0.24574 0.0
H1477 H 0.8425 0.38151 0.23703 0.0
H1478 H 0.82997 0.38953 0.22477 0.0
H1479 H 0.84154 0.42066 0.23322 0.0
C1480 C 0.61431 0.80301 0.19336 0.0
C1481 C 0.62521 0.80381 0.19545 0.0
C1482 C 0.62889 0.79089 0.18153 0.0
C1483 C 0.63244 0.7978 0.18959 0.0
C1484 C 0.61793 0.79016 0.1795 0.0
C1485 C 0.61073 0.79615 0.18536 0.0
U1486 U 0.60744 0.82414 0.21398 0.0
O1487 O 0.59519 0.83644 0.2136 0.0
O1488 O 0.59481 0.82429 0.22602 0.0
C1489 C 0.58996 0.83236 0.22165 0.0
C1490 C 0.60657 0.80927 0.19939 0.0
C1491 C 0.5784 0.83114 0.22025 0.0
C1492 C 0.56299 0.82219 0.21268 0.0
C1493 C 0.57403 0.82321 0.21374 0.0
C1494 C 0.56063 0.83703 0.22458 0.0
C1495 C 0.55614 0.82906 0.21814 0.0
C1496 C 0.57163 0.83804 0.22562 0.0
C1497 C 0.63077 0.83834 0.22829 0.0
C1498 C 0.62933 0.85297 0.24077 0.0
C1499 C 0.64652 0.84563 0.23676 0.0
C1500 C 0.64175 0.83835 0.22986 0.0
C1501 C 0.6404 0.85309 0.24227 0.0
C1502 C 0.62455 0.84566 0.23382 0.0
C1503 C 0.62611 0.83068 0.22075 0.0
O1504 O 0.60606 0.80729 0.2096 0.0
O1505 O 0.60641 0.81945 0.1972 0.0
O1506 O 0.62133 0.83473 0.21246 0.0
O1507 O 0.62095 0.82259 0.22491 0.0
H1508 H 0.62812 0.80906 0.20161 0.0
H1509 H 0.64079 0.79849 0.19145 0.0
H1510 H 0.61491 0.78507 0.17327 0.0
H1511 H 0.60235 0.79547 0.18361 0.0
H1512 H 0.55983 0.8159 0.20773 0.0
H1513 H 0.57914 0.8178 0.20953 0.0
H1514 H 0.55564 0.84257 0.22876 0.0
H1515 H 0.57486 0.84425 0.23065 0.0
H1516 H 0.62437 0.85864 0.24481 0.0
H1517 H 0.65503 0.84534 0.23785 0.0
H1518 H 0.64668 0.83273 0.22569 0.0
H1519 H 0.61604 0.84576 0.2327 0.0
C1520 C 0.18791 0.62002 0.23591 0.0
C1521 C 0.19152 0.63043 0.23777 0.0
C1522 C 0.17514 0.63447 0.24723 0.0
C1523 C 0.1852 0.63758 0.24342 0.0
C1524 C 0.17159 0.62404 0.24527 0.0
C1525 C 0.17791 0.61691 0.23968 0.0
U1526 U 0.20996 0.61246 0.21628 0.0
O1527 O 0.22161 0.5996 0.21725 0.0
O1528 O 0.21009 0.59982 0.20425 0.0
C1529 C 0.21754 0.59446 0.20912 0.0
C1530 C 0.19439 0.61225 0.23014 0.0
C1531 C 0.21577 0.58283 0.21038 0.0
C1532 C 0.22109 0.56587 0.21792 0.0
C1533 C 0.22198 0.57695 0.21748 0.0
C1534 C 0.20769 0.56627 0.20424 0.0
C1535 C 0.21404 0.56036 0.2112 0.0
C1536 C 0.20856 0.57734 0.20382 0.0
C1537 C 0.22576 0.63492 0.20222 0.0
C1538 C 0.23632 0.63368 0.18612 0.0
C1539 C 0.23712 0.64964 0.19676 0.0
C1540 C 0.2299 0.64513 0.20392 0.0
C1541 C 0.24037 0.64402 0.18771 0.0
C1542 C 0.2291 0.62916 0.19332 0.0
C1543 C 0.21766 0.63074 0.2096 0.0
O1544 O 0.19287 0.61178 0.21985 0.0
O1545 O 0.20444 0.6118 0.23281 0.0
O1546 O 0.22117 0.62587 0.21809 0.0
O1547 O 0.20942 0.62596 0.20528 0.0
H1548 H 0.1992 0.63302 0.23487 0.0
H1549 H 0.18815 0.64557 0.24468 0.0
H1550 H 0.16397 0.62131 0.24821 0.0
H1551 H 0.17499 0.60891 0.23835 0.0
H1552 H 0.22621 0.5616 0.22327 0.0
H1553 H 0.22774 0.58087 0.22253 0.0
H1554 H 0.20209 0.56232 0.19904 0.0
H1555 H 0.20373 0.58157 0.19816 0.0
H1556 H 0.23874 0.62907 0.17932 0.0
H1557 H 0.23993 0.65765 0.19818 0.0
H1558 H 0.22739 0.64973 0.21071 0.0
H1559 H 0.22603 0.62124 0.19188 0.0
C1560 C 0.41601 0.23666 0.19222 0.0
C1561 C 0.40597 0.23889 0.19642 0.0
C1562 C 0.40151 0.24911 0.1806 0.0
C1563 C 0.39879 0.24507 0.19067 0.0
C1564 C 0.41152 0.24664 0.17638 0.0
C1565 C 0.41868 0.24051 0.18214 0.0
U1566 U 0.42383 0.21657 0.21371 0.0
O1567 O 0.4362 0.20434 0.21337 0.0
O1568 O 0.437 0.21716 0.2251 0.0
C1569 C 0.44178 0.20896 0.22089 0.0
C1570 C 0.42389 0.23057 0.19826 0.0
C1571 C 0.4533 0.2101 0.21895 0.0
C1572 C 0.46909 0.22087 0.21558 0.0
C1573 C 0.45806 0.21997 0.21668 0.0
C1574 C 0.47074 0.20204 0.21872 0.0
C1575 C 0.47561 0.21193 0.21669 0.0
C1576 C 0.45974 0.20116 0.21986 0.0
C1577 C 0.40155 0.20316 0.23038 0.0
C1578 C 0.4001 0.18583 0.23885 0.0
C1579 C 0.38909 0.20024 0.24484 0.0
C1580 C 0.39372 0.20693 0.23727 0.0
C1581 C 0.39214 0.18958 0.24568 0.0
C1582 C 0.40478 0.19256 0.23129 0.0
C1583 C 0.40569 0.21031 0.222 0.0
O1584 O 0.42498 0.23312 0.20831 0.0
O1585 O 0.42386 0.22028 0.19663 0.0
O1586 O 0.40997 0.20586 0.21363 0.0
O1587 O 0.4109 0.21879 0.22524 0.0
H1588 H 0.40373 0.23598 0.20419 0.0
H1589 H 0.39122 0.24687 0.19423 0.0
H1590 H 0.41383 0.24943 0.16859 0.0
H1591 H 0.42636 0.23882 0.17873 0.0
H1592 H 0.47253 0.22864 0.2141 0.0
H1593 H 0.45327 0.22701 0.21594 0.0
H1594 H 0.47544 0.19494 0.21943 0.0
H1595 H 0.45624 0.19346 0.22158 0.0
H1596 H 0.40272 0.17771 0.23936 0.0
H1597 H 0.38289 0.20336 0.24985 0.0
H1598 H 0.39103 0.21503 0.23667 0.0
H1599 H 0.41082 0.18944 0.22609 0.0
C1600 C 0.7991 0.84691 0.61952 0.0
C1601 C 0.79678 0.84269 0.62957 0.0
C1602 C 0.78663 0.85845 0.6341 0.0
C1603 C 0.79059 0.84839 0.63678 0.0
C1604 C 0.78918 0.8627 0.62408 0.0
C1605 C 0.79533 0.85698 0.61689 0.0
U1606 U 0.81952 0.82589 0.6115 0.0
O1607 O 0.81911 0.81448 0.59832 0.0
O1608 O 0.83172 0.82658 0.59898 0.0
C1609 C 0.82716 0.819 0.5934 0.0
C1610 C 0.80525 0.84094 0.6116 0.0
C1611 C 0.82598 0.821 0.58186 0.0
C1612 C 0.81555 0.82081 0.56559 0.0
C1613 C 0.81622 0.81967 0.57662 0.0
C1614 C 0.83432 0.82485 0.56484 0.0
C1615 C 0.82461 0.82333 0.55954 0.0
C1616 C 0.83499 0.82366 0.57585 0.0
C1617 C 0.8334 0.80998 0.63376 0.0
C1618 C 0.84963 0.79977 0.63259 0.0
C1619 C 0.83859 0.79841 0.64823 0.0
C1620 C 0.83148 0.80558 0.64378 0.0
C1621 C 0.8478 0.79545 0.64274 0.0
C1622 C 0.84248 0.80696 0.62813 0.0
C1623 C 0.826 0.81797 0.62963 0.0
O1624 O 0.8155 0.84286 0.61144 0.0
O1625 O 0.80287 0.83082 0.61064 0.0
O1626 O 0.81767 0.81432 0.6245 0.0
O1627 O 0.83028 0.82642 0.62519 0.0
H1628 H 0.79965 0.83493 0.63178 0.0
H1629 H 0.78872 0.84482 0.64436 0.0
H1630 H 0.78645 0.87048 0.62179 0.0
H1631 H 0.79708 0.86041 0.6092 0.0
H1632 H 0.80793 0.8197 0.56179 0.0
H1633 H 0.80911 0.81762 0.58101 0.0
H1634 H 0.84149 0.82666 0.56045 0.0
H1635 H 0.84263 0.82463 0.57966 0.0
H1636 H 0.85657 0.79758 0.62808 0.0
H1637 H 0.83697 0.79539 0.65611 0.0
H1638 H 0.82455 0.80785 0.64828 0.0
H1639 H 0.8441 0.81023 0.62035 0.0
C1640 C 0.7992 0.19389 0.41945 0.0
C1641 C 0.79771 0.19801 0.40923 0.0
C1642 C 0.78672 0.18269 0.40447 0.0
C1643 C 0.7915 0.19247 0.40182 0.0
C1644 C 0.7884 0.17853 0.41467 0.0
C1645 C 0.79456 0.18409 0.42208 0.0
U1646 U 0.82024 0.2145 0.42767 0.0
O1647 O 0.81996 0.22621 0.44064 0.0
O1648 O 0.83214 0.21394 0.44039 0.0
C1649 C 0.82775 0.22166 0.44579 0.0
C1650 C 0.80535 0.19975 0.42753 0.0
C1651 C 0.8262 0.21998 0.45736 0.0
C1652 C 0.82065 0.2269 0.47453 0.0
C1653 C 0.82136 0.22788 0.46349 0.0
C1654 C 0.82958 0.21006 0.4736 0.0
C1655 C 0.82487 0.21804 0.47975 0.0
C1656 C 0.83024 0.21101 0.46255 0.0
C1657 C 0.83525 0.22955 0.40523 0.0
C1658 C 0.84441 0.24664 0.40556 0.0
C1659 C 0.84709 0.23464 0.39085 0.0
C1660 C 0.84018 0.22729 0.39555 0.0
C1661 C 0.84923 0.24447 0.39573 0.0
C1662 C 0.83749 0.23924 0.41028 0.0
C1663 C 0.82744 0.22185 0.4095 0.0
O1664 O 0.81551 0.19762 0.42797 0.0
O1665 O 0.80338 0.20994 0.42831 0.0
O1666 O 0.81915 0.22575 0.4144 0.0
O1667 O 0.83131 0.21343 0.4142 0.0
H1668 H 0.80129 0.20553 0.407 0.0
H1669 H 0.79049 0.19584 0.39399 0.0
H1670 H 0.78475 0.17109 0.41703 0.0
H1671 H 0.79561 0.18078 0.42993 0.0
H1672 H 0.81711 0.23328 0.479 0.0
H1673 H 0.81831 0.23496 0.45977 0.0
H1674 H 0.8328 0.20307 0.47734 0.0
H1675 H 0.83409 0.20479 0.45812 0.0
H1676 H 0.84596 0.25406 0.4096 0.0
H1677 H 0.85051 0.23274 0.38322 0.0
H1678 H 0.83852 0.21989 0.39149 0.0
H1679 H 0.8338 0.24114 0.41779 0.0
C1680 C 0.7996 0.84713 0.4201 0.0
C1681 C 0.79838 0.84327 0.40974 0.0
C1682 C 0.78713 0.85824 0.40524 0.0
C1683 C 0.79218 0.84875 0.40239 0.0
C1684 C 0.78851 0.86213 0.41561 0.0
C1685 C 0.79467 0.85661 0.42296 0.0
U1686 U 0.82057 0.82671 0.42758 0.0
O1687 O 0.83298 0.82735 0.43986 0.0
O1688 O 0.82068 0.81495 0.44046 0.0
C1689 C 0.82884 0.8194 0.44523 0.0
C1690 C 0.8059 0.84135 0.42804 0.0
C1691 C 0.82787 0.82095 0.45679 0.0
C1692 C 0.81814 0.82668 0.47241 0.0
C1693 C 0.81892 0.82563 0.46136 0.0
C1694 C 0.83528 0.81849 0.47439 0.0
C1695 C 0.82632 0.82311 0.47908 0.0
C1696 C 0.83603 0.81743 0.46339 0.0
C1697 C 0.83441 0.81183 0.4046 0.0
C1698 C 0.84842 0.79885 0.40642 0.0
C1699 C 0.84171 0.80327 0.38901 0.0
C1700 C 0.83467 0.81041 0.3936 0.0
C1701 C 0.84868 0.79736 0.39534 0.0
C1702 C 0.84132 0.80601 0.41101 0.0
C1703 C 0.82689 0.8195 0.40908 0.0
O1704 O 0.80381 0.83115 0.4289 0.0
O1705 O 0.8161 0.84354 0.42814 0.0
O1706 O 0.83108 0.82788 0.41369 0.0
O1707 O 0.81879 0.81548 0.41431 0.0
H1708 H 0.8022 0.83599 0.40735 0.0
H1709 H 0.79142 0.84561 0.39444 0.0
H1710 H 0.78465 0.86933 0.41812 0.0
H1711 H 0.79551 0.85972 0.43092 0.0
H1712 H 0.81117 0.83038 0.47572 0.0
H1713 H 0.81253 0.82843 0.4564 0.0
H1714 H 0.84166 0.81549 0.47924 0.0
H1715 H 0.84299 0.81375 0.46002 0.0
H1716 H 0.8536 0.79437 0.41154 0.0
H1717 H 0.8418 0.8025 0.38047 0.0
H1718 H 0.82942 0.81487 0.38851 0.0
H1719 H 0.84123 0.80701 0.41954 0.0
C1720 C 0.18877 0.80344 0.42063 0.0
C1721 C 0.19249 0.80232 0.41021 0.0
C1722 C 0.17743 0.7908 0.40589 0.0
C1723 C 0.18689 0.79603 0.40292 0.0
C1724 C 0.17368 0.79209 0.41631 0.0
C1725 C 0.17931 0.79834 0.4236 0.0
U1726 U 0.20963 0.82449 0.4278 0.0
O1727 O 0.20927 0.83708 0.4399 0.0
O1728 O 0.2214 0.82477 0.44065 0.0
C1729 C 0.21715 0.83302 0.44531 0.0
C1730 C 0.19468 0.80982 0.4285 0.0
C1731 C 0.21561 0.8322 0.45687 0.0
C1732 C 0.20885 0.8231 0.47254 0.0
C1733 C 0.20996 0.82373 0.46149 0.0
C1734 C 0.21895 0.83941 0.47444 0.0
C1735 C 0.21334 0.83094 0.47917 0.0
C1736 C 0.22006 0.84002 0.46343 0.0
C1737 C 0.22475 0.83805 0.40465 0.0
C1738 C 0.23621 0.85365 0.40582 0.0
C1739 C 0.23459 0.84415 0.38921 0.0
C1740 C 0.22758 0.83694 0.39398 0.0
C1741 C 0.23892 0.85267 0.39502 0.0
C1742 C 0.22917 0.8464 0.41059 0.0
C1743 C 0.21695 0.83055 0.40922 0.0
O1744 O 0.20483 0.80774 0.42936 0.0
O1745 O 0.1927 0.82003 0.42848 0.0
O1746 O 0.20863 0.83477 0.41377 0.0
O1747 O 0.22081 0.82252 0.41454 0.0
H1748 H 0.19975 0.80626 0.40773 0.0
H1749 H 0.18994 0.79533 0.39493 0.0
H1750 H 0.1665 0.7881 0.41891 0.0
H1751 H 0.17631 0.79911 0.43161 0.0
H1752 H 0.20439 0.81652 0.47589 0.0
H1753 H 0.20644 0.81762 0.45655 0.0
H1754 H 0.22266 0.8455 0.47925 0.0
H1755 H 0.22448 0.84659 0.46002 0.0
H1756 H 0.23933 0.86015 0.41051 0.0
H1757 H 0.23663 0.84302 0.38096 0.0
H1758 H 0.22428 0.83052 0.38927 0.0
H1759 H 0.22707 0.84738 0.41885 0.0
C1760 C 0.18862 0.23689 0.42102 0.0
C1761 C 0.1914 0.23731 0.41025 0.0
C1762 C 0.17587 0.24806 0.40644 0.0
C1763 C 0.18511 0.24288 0.40303 0.0
C1764 C 0.17314 0.24756 0.41724 0.0
C1765 C 0.17945 0.24204 0.42444 0.0
U1766 U 0.21039 0.21713 0.42834 0.0
O1767 O 0.22269 0.21825 0.44071 0.0
O1768 O 0.21087 0.20537 0.44119 0.0
C1769 C 0.21871 0.21023 0.44612 0.0
C1770 C 0.19515 0.23118 0.42881 0.0
C1771 C 0.21756 0.21184 0.45771 0.0
C1772 C 0.20699 0.21204 0.47389 0.0
C1773 C 0.20768 0.21116 0.46283 0.0
C1774 C 0.226 0.21452 0.47487 0.0
C1775 C 0.21616 0.21367 0.48007 0.0
C1776 C 0.22669 0.21359 0.46384 0.0
C1777 C 0.22492 0.20286 0.40533 0.0
C1778 C 0.23586 0.1871 0.40629 0.0
C1779 C 0.2349 0.19708 0.38993 0.0
C1780 C 0.22804 0.20424 0.39476 0.0
C1781 C 0.2388 0.18833 0.39558 0.0
C1782 C 0.22896 0.1943 0.41113 0.0
C1783 C 0.21714 0.21023 0.40988 0.0
O1784 O 0.19342 0.22092 0.42947 0.0
O1785 O 0.20527 0.23374 0.42897 0.0
O1786 O 0.221 0.21875 0.41453 0.0
O1787 O 0.20913 0.20593 0.41503 0.0
H1788 H 0.19844 0.23334 0.40744 0.0
H1789 H 0.18739 0.243 0.39475 0.0
H1790 H 0.16619 0.25157 0.42018 0.0
H1791 H 0.17718 0.24182 0.43273 0.0
H1792 H 0.19927 0.21146 0.47761 0.0
H1793 H 0.20049 0.20984 0.45832 0.0
H1794 H 0.23325 0.21563 0.47935 0.0
H1795 H 0.23441 0.21407 0.46009 0.0
H1796 H 0.23866 0.18042 0.41085 0.0
H1797 H 0.23714 0.1984 0.38175 0.0
H1798 H 0.22504 0.21082 0.39017 0.0
H1799 H 0.22665 0.19309 0.41931 0.0
C1800 C 0.19061 0.23647 0.6186 0.0
C1801 C 0.19156 0.23506 0.62959 0.0
C1802 C 0.17791 0.2483 0.6327 0.0
C1803 C 0.18528 0.24094 0.63658 0.0
C1804 C 0.17708 0.24969 0.62166 0.0
C1805 C 0.18336 0.24384 0.6147 0.0
U1806 U 0.21125 0.21527 0.61189 0.0
O1807 O 0.21117 0.20348 0.59904 0.0
O1808 O 0.22383 0.21551 0.59976 0.0
C1809 C 0.21951 0.20769 0.59434 0.0
C1810 C 0.19701 0.23032 0.61104 0.0
C1811 C 0.21866 0.20931 0.58279 0.0
C1812 C 0.20948 0.21594 0.5672 0.0
C1813 C 0.21015 0.21475 0.57825 0.0
C1814 C 0.22587 0.20634 0.56517 0.0
C1815 C 0.21735 0.21175 0.56052 0.0
C1816 C 0.2265 0.20514 0.57617 0.0
C1817 C 0.22434 0.19987 0.63487 0.0
C1818 C 0.23907 0.18766 0.63324 0.0
C1819 C 0.23012 0.18963 0.65009 0.0
C1820 C 0.22334 0.19707 0.64556 0.0
C1821 C 0.23808 0.18481 0.64401 0.0
C1822 C 0.23224 0.19511 0.6287 0.0
C1823 C 0.21712 0.20784 0.63044 0.0
O1824 O 0.20727 0.23221 0.6112 0.0
O1825 O 0.19463 0.22018 0.61035 0.0
O1826 O 0.20892 0.20413 0.62516 0.0
O1827 O 0.2216 0.21612 0.6259 0.0
H1828 H 0.19712 0.22938 0.63274 0.0
H1829 H 0.18607 0.23959 0.64502 0.0
H1830 H 0.17163 0.2554 0.61838 0.0
H1831 H 0.18254 0.24507 0.60624 0.0
H1832 H 0.20287 0.22025 0.56392 0.0
H1833 H 0.20402 0.21806 0.58323 0.0
H1834 H 0.23198 0.20285 0.5603 0.0
H1835 H 0.23311 0.20087 0.57952 0.0
H1836 H 0.24503 0.18403 0.62829 0.0
H1837 H 0.22921 0.18779 0.65843 0.0
H1838 H 0.21732 0.20069 0.65046 0.0
H1839 H 0.23313 0.19715 0.62041 0.0
C1840 C 0.79934 0.19369 0.62018 0.0
C1841 C 0.7982 0.19735 0.63062 0.0
C1842 C 0.78656 0.18232 0.63482 0.0
C1843 C 0.79187 0.19172 0.63787 0.0
C1844 C 0.78791 0.17863 0.62438 0.0
C1845 C 0.79422 0.18426 0.61715 0.0
U1846 U 0.82005 0.21485 0.61229 0.0
O1847 O 0.83235 0.2143 0.59987 0.0
O1848 O 0.81986 0.22624 0.5991 0.0
C1849 C 0.82792 0.22183 0.59424 0.0
C1850 C 0.80565 0.19963 0.61228 0.0
C1851 C 0.82684 0.21987 0.58268 0.0
C1852 C 0.81694 0.22106 0.56612 0.0
C1853 C 0.81741 0.22203 0.57718 0.0
C1854 C 0.83522 0.21551 0.56585 0.0
C1855 C 0.82589 0.21791 0.56028 0.0
C1856 C 0.8357 0.21652 0.57688 0.0
C1857 C 0.83376 0.23132 0.63449 0.0
C1858 C 0.85137 0.23926 0.63622 0.0
C1859 C 0.83684 0.24599 0.64669 0.0
C1860 C 0.83001 0.23853 0.64205 0.0
C1861 C 0.84764 0.2464 0.64391 0.0
C1862 C 0.8445 0.23181 0.63154 0.0
C1863 C 0.82642 0.22306 0.63038 0.0
O1864 O 0.80338 0.20972 0.61124 0.0
O1865 O 0.81589 0.19783 0.61229 0.0
O1866 O 0.83067 0.2146 0.6261 0.0
O1867 O 0.81807 0.22643 0.62521 0.0
H1868 H 0.80211 0.20462 0.63312 0.0
H1869 H 0.79094 0.19486 0.6458 0.0
H1870 H 0.78411 0.17134 0.62178 0.0
H1871 H 0.79505 0.18127 0.60914 0.0
H1872 H 0.80965 0.22309 0.56213 0.0
H1873 H 0.81044 0.2247 0.58137 0.0
H1874 H 0.84222 0.21289 0.56167 0.0
H1875 H 0.84309 0.21486 0.58089 0.0
H1876 H 0.85961 0.23943 0.63382 0.0
H1877 H 0.83371 0.25125 0.65267 0.0
H1878 H 0.82179 0.23825 0.64453 0.0
H1879 H 0.84763 0.22636 0.62572 0.0
C1880 C 0.18954 0.80393 0.61973 0.0
C1881 C 0.19416 0.8013 0.62949 0.0
C1882 C 0.17824 0.79137 0.6346 0.0
C1883 C 0.18858 0.79505 0.63684 0.0
C1884 C 0.1736 0.79419 0.62488 0.0
C1885 C 0.17921 0.80038 0.61752 0.0
U1886 U 0.21046 0.82471 0.6115 0.0
O1887 O 0.22178 0.82459 0.59824 0.0
O1888 O 0.20972 0.83698 0.59906 0.0
C1889 C 0.21727 0.83262 0.59341 0.0
C1890 C 0.19537 0.81018 0.61168 0.0
C1891 C 0.21521 0.83146 0.5819 0.0
C1892 C 0.21417 0.82083 0.56578 0.0
C1893 C 0.21537 0.82154 0.57681 0.0
C1894 C 0.21238 0.83988 0.56477 0.0
C1895 C 0.21274 0.83 0.55961 0.0
C1896 C 0.21364 0.84059 0.57577 0.0
C1897 C 0.22661 0.83871 0.63372 0.0
C1898 C 0.23664 0.85528 0.63276 0.0
C1899 C 0.23852 0.84382 0.64802 0.0
C1900 C 0.23128 0.83663 0.64356 0.0
C1901 C 0.24124 0.85329 0.64273 0.0
C1902 C 0.2294 0.84805 0.62828 0.0
C1903 C 0.21855 0.8312 0.62961 0.0
O1904 O 0.19348 0.8204 0.61157 0.0
O1905 O 0.20547 0.80798 0.61053 0.0
O1906 O 0.22211 0.82296 0.62438 0.0
O1907 O 0.21009 0.83537 0.62527 0.0
H1908 H 0.2021 0.80403 0.63141 0.0
H1909 H 0.19234 0.79315 0.6443 0.0
H1910 H 0.16572 0.7914 0.62284 0.0
H1911 H 0.1755 0.80232 0.61004 0.0
H1912 H 0.21437 0.81308 0.56208 0.0
H1913 H 0.21654 0.81434 0.58131 0.0
H1914 H 0.21144 0.84712 0.56028 0.0
H1915 H 0.21356 0.84833 0.57948 0.0
H1916 H 0.23864 0.86242 0.62841 0.0
H1917 H 0.24176 0.84207 0.65576 0.0
H1918 H 0.2292 0.8295 0.6479 0.0
H1919 H 0.22591 0.84979 0.62065 0.0
H1920 H 0.18217 0.26114 0.39013 0.0
H1921 H 0.1542 0.24843 0.40547 0.0
H1922 H 0.171 0.27106 0.37791 0.0
H1923 H 0.14307 0.25857 0.3935 0.0
H1924 H 0.12598 0.26975 0.36388 0.0
H1925 H 0.13764 0.25933 0.37508 0.0
H1926 H 0.15898 0.28616 0.37789 0.0
H1927 H 0.14728 0.29662 0.36671 0.0
C1928 C 0.17364 0.26042 0.39087 0.0
C1929 C 0.1691 0.25398 0.39881 0.0
C1930 C 0.16724 0.2662 0.38393 0.0
C1931 C 0.15612 0.26564 0.38471 0.0
C1932 C 0.15159 0.25912 0.39258 0.0
C1933 C 0.15798 0.25339 0.39953 0.0
C1934 C 0.13312 0.27347 0.36693 0.0
C1935 C 0.13562 0.28407 0.36443 0.0
C1936 C 0.13982 0.26748 0.37336 0.0
C1937 C 0.14923 0.27191 0.37746 0.0
C1938 C 0.15186 0.28244 0.37478 0.0
C1939 C 0.14514 0.28845 0.36836 0.0
H1940 H 0.77189 0.19104 0.39109 0.0
H1941 H 0.78579 0.16131 0.40036 0.0
H1942 H 0.76026 0.18166 0.37875 0.0
H1943 H 0.77392 0.15189 0.38824 0.0
H1944 H 0.75827 0.1402 0.35711 0.0
H1945 H 0.77035 0.14922 0.36935 0.0
H1946 H 0.74502 0.16972 0.37925 0.0
H1947 H 0.73297 0.16072 0.36709 0.0
C1948 C 0.77251 0.1825 0.39046 0.0
C1949 C 0.77979 0.17694 0.39673 0.0
C1950 C 0.76575 0.17711 0.38347 0.0
C1951 C 0.76609 0.166 0.38253 0.0
C1952 C 0.77348 0.16044 0.3887 0.0
C1953 C 0.78022 0.16584 0.39573 0.0
C1954 C 0.75525 0.14655 0.36198 0.0
C1955 C 0.74464 0.14976 0.36104 0.0
C1956 C 0.76218 0.15174 0.369 0.0
C1957 C 0.75869 0.16026 0.37524 0.0
C1958 C 0.74805 0.16334 0.37441 0.0
C1959 C 0.74113 0.15816 0.36743 0.0
H1960 H 0.86953 0.79383 0.40042 0.0
H1961 H 0.84487 0.78373 0.37884 0.0
H1962 H 0.882 0.78214 0.39153 0.0
H1963 H 0.85729 0.77205 0.36999 0.0
H1964 H 0.88511 0.76201 0.34911 0.0
H1965 H 0.87252 0.77307 0.35853 0.0
H1966 H 0.88639 0.76377 0.38836 0.0
H1967 H 0.89903 0.75272 0.37891 0.0
C1968 C 0.86672 0.78902 0.39387 0.0
C1969 C 0.8562 0.7898 0.39032 0.0
C1970 C 0.87388 0.78231 0.38876 0.0
C1971 C 0.8707 0.77618 0.37997 0.0
C1972 C 0.86011 0.7768 0.37658 0.0
C1973 C 0.85296 0.7835 0.38167 0.0
C1974 C 0.88541 0.76222 0.35769 0.0
C1975 C 0.8931 0.75644 0.36323 0.0
C1976 C 0.87818 0.76857 0.3631 0.0
C1977 C 0.8784 0.76932 0.37423 0.0
C1978 C 0.88607 0.76352 0.37979 0.0
C1979 C 0.89332 0.75717 0.37436 0.0
H1980 H 0.27758 0.88751 0.34928 0.0
H1981 H 0.28156 0.9053 0.37827 0.0
H1982 H 0.26634 0.87473 0.35858 0.0
H1983 H 0.26998 0.89273 0.38748 0.0
H1984 H 0.25707 0.86205 0.40287 0.0
H1985 H 0.26895 0.8746 0.39394 0.0
H1986 H 0.24883 0.8737 0.36628 0.0
H1987 H 0.23701 0.8612 0.37517 0.0
C1988 C 0.27611 0.88868 0.35765 0.0
C1989 C 0.28049 0.89747 0.363 0.0
C1990 C 0.26954 0.88141 0.36296 0.0
C1991 C 0.26717 0.88272 0.37378 0.0
C1992 C 0.27168 0.89142 0.37918 0.0
C1993 C 0.27823 0.8987 0.37386 0.0
C1994 C 0.25514 0.8646 0.39492 0.0
C1995 C 0.2461 0.86054 0.38973 0.0
C1996 C 0.26196 0.8718 0.38979 0.0
C1997 C 0.2599 0.87512 0.37934 0.0
C1998 C 0.2508 0.87115 0.37422 0.0
C1999 C 0.244 0.86397 0.37934 0.0
H2000 H 0.15373 0.73714 0.6698 0.0
H2001 H 0.13679 0.76352 0.68321 0.0
H2002 H 0.16294 0.74917 0.65774 0.0
H2003 H 0.14598 0.77558 0.67106 0.0
H2004 H 0.15726 0.79213 0.64028 0.0
H2005 H 0.14758 0.78028 0.65226 0.0
H2006 H 0.17639 0.76316 0.65838 0.0
H2007 H 0.18598 0.7748 0.6462 0.0
C2008 C 0.152 0.74552 0.67022 0.0
C2009 C 0.14455 0.74935 0.67755 0.0
C2010 C 0.1573 0.75243 0.6633 0.0
C2011 C 0.15528 0.76337 0.66348 0.0
C2012 C 0.14767 0.76719 0.67064 0.0
C2013 C 0.14238 0.76026 0.6776 0.0
C2014 C 0.16151 0.7858 0.64414 0.0
C2015 C 0.1724 0.78442 0.64225 0.0
C2016 C 0.15598 0.77907 0.65109 0.0
C2017 C 0.16118 0.77073 0.65627 0.0
C2018 C 0.17209 0.76941 0.65444 0.0
C2019 C 0.17763 0.77617 0.64754 0.0
H2020 H 0.29071 0.1538 0.67591 0.0
H2021 H 0.26671 0.12926 0.6734 0.0
H2022 H 0.27909 0.1661 0.66672 0.0
H2023 H 0.25531 0.1414 0.66382 0.0
H2024 H 0.23297 0.16913 0.6582 0.0
H2025 H 0.24477 0.1568 0.667 0.0
H2026 H 0.27131 0.16991 0.64959 0.0
H2027 H 0.25953 0.18256 0.64107 0.0
C2028 C 0.28296 0.15102 0.6734 0.0
C2029 C 0.27967 0.14052 0.67544 0.0
C2030 C 0.27634 0.15804 0.668 0.0
C2031 C 0.26623 0.15477 0.66451 0.0
C2032 C 0.26297 0.14425 0.66649 0.0
C2033 C 0.26959 0.13724 0.67188 0.0
C2034 C 0.24133 0.16945 0.65629 0.0
C2035 C 0.24529 0.1769 0.64895 0.0
C2036 C 0.2481 0.16227 0.66125 0.0
C2037 C 0.25902 0.16232 0.65902 0.0
C2038 C 0.26297 0.16971 0.6516 0.0
C2039 C 0.25619 0.17689 0.64661 0.0
H2040 H 0.84398 0.2672 0.64886 0.0
H2041 H 0.86785 0.24303 0.65113 0.0
H2042 H 0.85541 0.27944 0.6586 0.0
H2043 H 0.87946 0.25541 0.6606 0.0
H2044 H 0.8907 0.27639 0.68881 0.0
H2045 H 0.88053 0.26401 0.67787 0.0
H2046 H 0.87166 0.28973 0.65722 0.0
H2047 H 0.88183 0.30209 0.66814 0.0
C2048 C 0.85169 0.2645 0.6514 0.0
C2049 C 0.85496 0.2541 0.64924 0.0
C2050 C 0.85831 0.27157 0.65689 0.0
C2051 C 0.86838 0.26843 0.66041 0.0
C2052 C 0.87172 0.25807 0.65811 0.0
C2053 C 0.86511 0.25101 0.65257 0.0
C2054 C 0.88673 0.27938 0.68184 0.0
C2055 C 0.88705 0.29027 0.67942 0.0
C2056 C 0.88088 0.27227 0.67556 0.0
C2057 C 0.87519 0.27587 0.66669 0.0
C2058 C 0.87576 0.2867 0.6641 0.0
C2059 C 0.88161 0.2938 0.67037 0.0
H2060 H 0.75971 0.89605 0.68583 0.0
H2061 H 0.73287 0.88604 0.66699 0.0
H2062 H 0.77162 0.88723 0.67346 0.0
H2063 H 0.74469 0.8769 0.65488 0.0
H2064 H 0.76912 0.87027 0.62941 0.0
H2065 H 0.75784 0.88007 0.6415 0.0
H2066 H 0.77677 0.86961 0.66795 0.0
H2067 H 0.78836 0.86016 0.65577 0.0
C2068 C 0.75635 0.89202 0.67903 0.0
C2069 C 0.74531 0.89176 0.67744 0.0
C2070 C 0.76317 0.88685 0.672 0.0
C2071 C 0.75914 0.88131 0.66316 0.0
C2072 C 0.74811 0.88117 0.66152 0.0
C2073 C 0.7413 0.88632 0.66854 0.0
C2074 C 0.77099 0.87016 0.63779 0.0
C2075 C 0.7797 0.86441 0.64158 0.0
C2076 C 0.76442 0.87568 0.64475 0.0
C2077 C 0.76634 0.87562 0.65573 0.0
C2078 C 0.77509 0.86993 0.65954 0.0
C2079 C 0.78167 0.8644 0.65256 0.0
H2080 H 0.34763 0.14622 0.27611 0.0
H2081 H 0.3674 0.15704 0.30194 0.0
H2082 H 0.35864 0.15621 0.26364 0.0
H2083 H 0.3784 0.16702 0.28949 0.0
H2084 H 0.38661 0.19397 0.26621 0.0
H2085 H 0.37687 0.18272 0.27861 0.0
H2086 H 0.37609 0.15754 0.25542 0.0
H2087 H 0.38555 0.16895 0.24287 0.0
C2088 C 0.35442 0.15059 0.27912 0.0
C2089 C 0.35656 0.15087 0.29006 0.0
C2090 C 0.36074 0.15632 0.27196 0.0
C2091 C 0.36938 0.1625 0.27555 0.0
C2092 C 0.3717 0.16253 0.28645 0.0
C2093 C 0.36538 0.15679 0.2936 0.0
C2094 C 0.38434 0.18604 0.26373 0.0
C2095 C 0.38683 0.1824 0.2535 0.0
C2096 C 0.37885 0.17954 0.27089 0.0
C2097 C 0.37567 0.16921 0.26803 0.0
C2098 C 0.37831 0.16549 0.25786 0.0
C2099 C 0.38385 0.17199 0.2507 0.0
H2100 H 0.87012 0.40179 0.24623 0.0
H2101 H 0.84556 0.3797 0.25582 0.0
H2102 H 0.88265 0.3929 0.2579 0.0
H2103 H 0.85803 0.37086 0.26748 0.0
H2104 H 0.88588 0.35022 0.27748 0.0
H2105 H 0.87327 0.35963 0.26642 0.0
H2106 H 0.88709 0.38951 0.27625 0.0
H2107 H 0.89975 0.38007 0.2873 0.0
C2108 C 0.86735 0.39512 0.25092 0.0
C2109 C 0.85683 0.39142 0.25001 0.0
C2110 C 0.87454 0.39001 0.25762 0.0
C2111 C 0.8714 0.38109 0.26359 0.0
C2112 C 0.86081 0.37755 0.26284 0.0
C2113 C 0.85364 0.38264 0.25615 0.0
C2114 C 0.88617 0.3588 0.27738 0.0
C2115 C 0.89384 0.36437 0.28331 0.0
C2116 C 0.87892 0.36421 0.27103 0.0
C2117 C 0.87912 0.37536 0.27043 0.0
C2118 C 0.88679 0.38093 0.27638 0.0
C2119 C 0.89405 0.37551 0.28273 0.0
H2120 H 0.68664 0.88907 0.27915 0.0
H2121 H 0.65685 0.9035 0.28734 0.0
H2122 H 0.67733 0.8765 0.26772 0.0
H2123 H 0.64757 0.89114 0.27561 0.0
H2124 H 0.63365 0.86008 0.26177 0.0
H2125 H 0.64261 0.8725 0.2737 0.0
H2126 H 0.66796 0.87633 0.25097 0.0
H2127 H 0.65902 0.86397 0.23907 0.0
C2128 C 0.6781 0.88954 0.27856 0.0
C2129 C 0.67252 0.89733 0.28417 0.0
C2130 C 0.67276 0.8824 0.2719 0.0
C2131 C 0.66169 0.88283 0.27068 0.0
C2132 C 0.65609 0.89052 0.27641 0.0
C2133 C 0.66143 0.89769 0.28305 0.0
C2134 C 0.64108 0.86365 0.25927 0.0
C2135 C 0.64563 0.86095 0.24947 0.0
C2136 C 0.64623 0.87078 0.26613 0.0
C2137 C 0.65606 0.87537 0.26335 0.0
C2138 C 0.66052 0.87278 0.25348 0.0
C2139 C 0.65538 0.86568 0.24664 0.0
H2140 H 0.15373 0.63727 0.24549 0.0
H2141 H 0.18115 0.64872 0.26263 0.0
H2142 H 0.14245 0.64889 0.25584 0.0
H2143 H 0.16983 0.66035 0.27307 0.0
H2144 H 0.14698 0.687 0.2829 0.0
H2145 H 0.15873 0.67595 0.27231 0.0
H2146 H 0.13569 0.65041 0.27357 0.0
H2147 H 0.124 0.66142 0.2841 0.0
C2148 C 0.15735 0.64222 0.25152 0.0
C2149 C 0.16835 0.64198 0.25326 0.0
C2150 C 0.15087 0.64889 0.25748 0.0
C2151 C 0.15519 0.65551 0.26538 0.0
C2152 C 0.16622 0.65544 0.26698 0.0
C2153 C 0.17273 0.64877 0.261 0.0
C2154 C 0.14446 0.679 0.28099 0.0
C2155 C 0.13449 0.67515 0.28431 0.0
C2156 C 0.1512 0.67265 0.27491 0.0
C2157 C 0.14815 0.66229 0.272 0.0
C2158 C 0.13823 0.65841 0.27545 0.0
C2159 C 0.13151 0.66475 0.28151 0.0
H2160 H 0.38724 0.8502 0.77721 0.0
H2161 H 0.40005 0.8802 0.78795 0.0
H2162 H 0.37491 0.8595 0.76572 0.0
H2163 H 0.38792 0.88951 0.7762 0.0
H2164 H 0.35674 0.90225 0.76184 0.0
H2165 H 0.3691 0.89339 0.77372 0.0
H2166 H 0.37525 0.87 0.74957 0.0
H2167 H 0.36298 0.87885 0.73771 0.0
C2168 C 0.38739 0.85878 0.77717 0.0
C2169 C 0.39465 0.86444 0.78352 0.0
C2170 C 0.3804 0.86413 0.77048 0.0
C2171 C 0.38044 0.87527 0.76997 0.0
C2172 C 0.38761 0.88094 0.77643 0.0
C2173 C 0.39464 0.87559 0.78309 0.0
C2174 C 0.36082 0.89529 0.75902 0.0
C2175 C 0.35878 0.89123 0.74882 0.0
C2176 C 0.3679 0.89019 0.76585 0.0
C2177 C 0.37312 0.88091 0.76265 0.0
C2178 C 0.37121 0.87699 0.75239 0.0
C2179 C 0.36417 0.88208 0.74558 0.0
H2180 H 0.15338 0.34844 0.76121 0.0
H2181 H 0.13871 0.37418 0.74431 0.0
H2182 H 0.16232 0.36115 0.77278 0.0
H2183 H 0.14767 0.38691 0.75589 0.0
H2184 H 0.15798 0.40638 0.78485 0.0
H2185 H 0.14839 0.39357 0.7739 0.0
H2186 H 0.1764 0.37428 0.77209 0.0
H2187 H 0.18599 0.38708 0.78302 0.0
C2188 C 0.15209 0.35682 0.75993 0.0
C2189 C 0.14535 0.36027 0.75178 0.0
C2190 C 0.15724 0.36411 0.76657 0.0
C2191 C 0.15579 0.37508 0.76525 0.0
C2192 C 0.14888 0.37853 0.75723 0.0
C2193 C 0.14373 0.37122 0.75058 0.0
C2194 C 0.16212 0.39944 0.78206 0.0
C2195 C 0.17278 0.39779 0.78484 0.0
C2196 C 0.15661 0.39209 0.77577 0.0
C2197 C 0.16159 0.38287 0.77209 0.0
C2198 C 0.17223 0.38119 0.77492 0.0
C2199 C 0.17775 0.38855 0.7812 0.0
H2200 H 0.6474 0.17375 0.79824 0.0
H2201 H 0.62675 0.1757 0.77105 0.0
H2202 H 0.65959 0.16283 0.78809 0.0
H2203 H 0.6387 0.16443 0.76105 0.0
H2204 H 0.66689 0.15185 0.74266 0.0
H2205 H 0.65588 0.16401 0.75276 0.0
H2206 H 0.66066 0.14517 0.78091 0.0
H2207 H 0.67201 0.13328 0.77092 0.0
C2208 C 0.64548 0.1719 0.79009 0.0
C2209 C 0.63605 0.17561 0.7855 0.0
C2210 C 0.65242 0.16552 0.78429 0.0
C2211 C 0.65013 0.16269 0.77374 0.0
C2212 C 0.64079 0.16652 0.76911 0.0
C2213 C 0.63385 0.17289 0.7749 0.0
C2214 C 0.66573 0.15039 0.75104 0.0
C2215 C 0.67034 0.14155 0.75595 0.0
C2216 C 0.6593 0.15729 0.75681 0.0
C2217 C 0.65732 0.15557 0.76766 0.0
C2218 C 0.66207 0.14683 0.7726 0.0
C2219 C 0.66849 0.13992 0.76683 0.0
H2220 H 0.8833 0.66938 0.74164 0.0
H2221 H 0.88711 0.69281 0.76632 0.0
H2222 H 0.87375 0.65782 0.75399 0.0
H2223 H 0.87729 0.68144 0.77854 0.0
H2224 H 0.86745 0.65491 0.80079 0.0
H2225 H 0.87838 0.66501 0.78837 0.0
H2226 H 0.8567 0.65702 0.76306 0.0
H2227 H 0.84576 0.64692 0.7755 0.0
C2228 C 0.88218 0.67203 0.74972 0.0
C2229 C 0.88597 0.68205 0.75297 0.0
C2230 C 0.8766 0.66545 0.75677 0.0
C2231 C 0.87471 0.66869 0.76727 0.0
C2232 C 0.87868 0.67862 0.77056 0.0
C2233 C 0.88422 0.68521 0.76351 0.0
C2234 C 0.86499 0.65531 0.79258 0.0
C2235 C 0.85566 0.65014 0.78918 0.0
C2236 C 0.87127 0.66111 0.78545 0.0
C2237 C 0.8684 0.66191 0.77471 0.0
C2238 C 0.85923 0.65649 0.77124 0.0
C2239 C 0.85295 0.65068 0.77838 0.0
H2240 H 0.25986 0.39661 0.18454 0.0
H2241 H 0.23284 0.38378 0.16771 0.0
H2242 H 0.27172 0.38789 0.17205 0.0
H2243 H 0.24465 0.37476 0.15551 0.0
H2244 H 0.2682 0.36838 0.12915 0.0
H2245 H 0.25688 0.37806 0.1413 0.0
H2246 H 0.27778 0.37035 0.1672 0.0
H2247 H 0.28939 0.36103 0.15493 0.0
C2248 C 0.25644 0.39198 0.17815 0.0
C2249 C 0.24537 0.3909 0.17716 0.0
C2250 C 0.26325 0.38686 0.17106 0.0
C2251 C 0.25917 0.38058 0.16277 0.0
C2252 C 0.2481 0.37961 0.16172 0.0
C2253 C 0.24131 0.3847 0.1688 0.0
C2254 C 0.27048 0.36885 0.1374 0.0
C2255 C 0.27975 0.36392 0.14102 0.0
C2256 C 0.2639 0.37431 0.14442 0.0
C2257 C 0.26637 0.37498 0.15527 0.0
C2258 C 0.27567 0.3701 0.15889 0.0
C2259 C 0.28227 0.36463 0.15186 0.0
H2260 H 0.26822 0.67198 0.91044 0.0
H2261 H 0.29001 0.67849 0.88479 0.0
H2262 H 0.25675 0.66218 0.89834 0.0
H2263 H 0.27827 0.66907 0.87257 0.0
H2264 H 0.25964 0.64292 0.85537 0.0
H2265 H 0.27164 0.65159 0.86793 0.0
H2266 H 0.24483 0.66535 0.88394 0.0
H2267 H 0.23286 0.65637 0.87169 0.0
C2268 C 0.2706 0.67129 0.90223 0.0
C2269 C 0.28009 0.67604 0.89863 0.0
C2270 C 0.26394 0.66577 0.89524 0.0
C2271 C 0.26653 0.66484 0.88444 0.0
C2272 C 0.27605 0.66952 0.88084 0.0
C2273 C 0.28273 0.67505 0.88784 0.0
C2274 C 0.2563 0.64767 0.86166 0.0
C2275 C 0.24527 0.64895 0.86248 0.0
C2276 C 0.26319 0.65276 0.86879 0.0
C2277 C 0.25923 0.65922 0.87695 0.0
C2278 C 0.24819 0.66036 0.87784 0.0
C2279 C 0.24131 0.6553 0.87072 0.0
H2280 H 0.36971 0.29262 0.90113 0.0
H2281 H 0.34595 0.28385 0.87803 0.0
H2282 H 0.38227 0.28075 0.89261 0.0
H2283 H 0.3586 0.2723 0.8693 0.0
H2284 H 0.38082 0.24491 0.86197 0.0
H2285 H 0.36816 0.25591 0.87143 0.0
H2286 H 0.39251 0.27971 0.87634 0.0
H2287 H 0.40515 0.26875 0.86685 0.0
C2288 C 0.36713 0.28812 0.89428 0.0
C2289 C 0.35681 0.28924 0.89026 0.0
C2290 C 0.37438 0.2814 0.88931 0.0
C2291 C 0.37148 0.27559 0.88022 0.0
C2292 C 0.3611 0.27657 0.87633 0.0
C2293 C 0.35387 0.2833 0.88127 0.0
C2294 C 0.38346 0.25252 0.86499 0.0
C2295 C 0.39403 0.25592 0.86362 0.0
C2296 C 0.3762 0.25883 0.87044 0.0
C2297 C 0.37929 0.26871 0.87467 0.0
C2298 C 0.38988 0.27207 0.87335 0.0
C2299 C 0.39714 0.26577 0.8679 0.0
H2300 H 0.77215 0.3924 0.84839 0.0
H2301 H 0.78684 0.40148 0.87797 0.0
H2302 H 0.76051 0.38008 0.85784 0.0
H2303 H 0.77496 0.38938 0.88748 0.0
H2304 H 0.75908 0.35825 0.89922 0.0
H2305 H 0.77115 0.3705 0.89013 0.0
H2306 H 0.74554 0.38058 0.86994 0.0
H2307 H 0.7335 0.36841 0.87903 0.0
C2308 C 0.77294 0.39173 0.8569 0.0
C2309 C 0.78044 0.39795 0.8624 0.0
C2310 C 0.76617 0.38475 0.86235 0.0
C2311 C 0.76674 0.38377 0.87344 0.0
C2312 C 0.77434 0.38988 0.87893 0.0
C2313 C 0.78108 0.3969 0.87349 0.0
C2314 C 0.75599 0.36317 0.89292 0.0
C2315 C 0.74531 0.36227 0.88982 0.0
C2316 C 0.76293 0.37019 0.8877 0.0
C2317 C 0.75935 0.37648 0.87923 0.0
C2318 C 0.74863 0.3757 0.87627 0.0
C2319 C 0.74171 0.36872 0.88149 0.0
H2320 H 0.66856 0.76936 0.91025 0.0
H2321 H 0.66934 0.74435 0.88689 0.0
H2322 H 0.65737 0.77979 0.8986 0.0
H2323 H 0.65817 0.75485 0.87519 0.0
H2324 H 0.64571 0.78096 0.85312 0.0
H2325 H 0.6578 0.77098 0.86438 0.0
H2326 H 0.63937 0.77946 0.89188 0.0
H2327 H 0.62753 0.78969 0.88071 0.0
C2328 C 0.6663 0.76604 0.90265 0.0
C2329 C 0.66981 0.75595 0.89957 0.0
C2330 C 0.65988 0.77205 0.89596 0.0
C2331 C 0.6568 0.76815 0.88597 0.0
C2332 C 0.66048 0.75815 0.88278 0.0
C2333 C 0.66689 0.75213 0.88949 0.0
C2334 C 0.64431 0.78079 0.86158 0.0
C2335 C 0.63562 0.78613 0.86599 0.0
C2336 C 0.65118 0.77497 0.86803 0.0
C2337 C 0.64957 0.7744 0.87905 0.0
C2338 C 0.64093 0.77981 0.88345 0.0
C2339 C 0.63405 0.78558 0.87702 0.0
H2340 H 0.7579 0.69105 0.15552 0.0
H2341 H 0.7393 0.66543 0.14215 0.0
H2342 H 0.76903 0.67826 0.16459 0.0
H2343 H 0.7507 0.65261 0.1509 0.0
H2344 H 0.76511 0.63345 0.17819 0.0
H2345 H 0.75433 0.6461 0.16852 0.0
H2346 H 0.78231 0.66492 0.16175 0.0
H2347 H 0.7931 0.65226 0.17146 0.0
C2348 C 0.7562 0.68268 0.15448 0.0
C2349 C 0.74764 0.67929 0.14813 0.0
C2350 C 0.76267 0.67533 0.1596 0.0
C2351 C 0.76077 0.66437 0.15852 0.0
C2352 C 0.75232 0.66098 0.15203 0.0
C2353 C 0.74586 0.66834 0.14689 0.0
C2354 C 0.76899 0.64023 0.17456 0.0
C2355 C 0.77999 0.64181 0.17562 0.0
C2356 C 0.7628 0.64749 0.16899 0.0
C2357 C 0.76743 0.65655 0.16431 0.0
C2358 C 0.77844 0.65813 0.16536 0.0
C2359 C 0.78463 0.65086 0.17095 0.0
H2360 H 0.37029 0.7959 0.18303 0.0
H2361 H 0.39974 0.78009 0.17637 0.0
H2362 H 0.36092 0.78352 0.17153 0.0
H2363 H 0.39039 0.76789 0.16448 0.0
H2364 H 0.36755 0.74035 0.15529 0.0
H2365 H 0.37789 0.75322 0.16545 0.0
H2366 H 0.35843 0.77843 0.15332 0.0
H2367 H 0.34782 0.76551 0.14351 0.0
C2368 C 0.37479 0.78979 0.17909 0.0
C2369 C 0.38577 0.78896 0.18073 0.0
C2370 C 0.36942 0.78276 0.17236 0.0
C2371 C 0.37487 0.77468 0.16704 0.0
C2372 C 0.3859 0.77394 0.16853 0.0
C2373 C 0.39129 0.781 0.17527 0.0
C2374 C 0.36546 0.74864 0.1548 0.0
C2375 C 0.35677 0.75185 0.14863 0.0
C2376 C 0.37148 0.75605 0.16054 0.0
C2377 C 0.36898 0.76689 0.16027 0.0
C2378 C 0.3605 0.77014 0.15385 0.0
C2379 C 0.35448 0.76273 0.1481 0.0
H2380 H 0.65749 0.28415 0.13381 0.0
H2381 H 0.68587 0.28147 0.15269 0.0
H2382 H 0.64781 0.27334 0.14666 0.0
H2383 H 0.67619 0.27066 0.16553 0.0
H2384 H 0.65337 0.26013 0.19157 0.0
H2385 H 0.66246 0.27157 0.17885 0.0
H2386 H 0.64659 0.25529 0.15316 0.0
H2387 H 0.63749 0.24385 0.1659 0.0
C2388 C 0.6617 0.2812 0.14066 0.0
C2389 C 0.67249 0.28369 0.14218 0.0
C2390 C 0.65613 0.27499 0.14804 0.0
C2391 C 0.6612 0.2711 0.15715 0.0
C2392 C 0.67197 0.27365 0.1587 0.0
C2393 C 0.67754 0.27986 0.15133 0.0
C2394 C 0.65185 0.25895 0.18321 0.0
C2395 C 0.64471 0.25102 0.17978 0.0
C2396 C 0.65708 0.26552 0.1759 0.0
C2397 C 0.65533 0.26434 0.16496 0.0
C2398 C 0.64805 0.25653 0.16153 0.0
C2399 C 0.64281 0.24996 0.16885 0.0
H2400 H 0.90217 0.75685 0.6613 0.0
H2401 H 0.88109 0.75627 0.68828 0.0
H2402 H 0.88949 0.76753 0.65153 0.0
H2403 H 0.8684 0.76691 0.67849 0.0
H2404 H 0.84364 0.77763 0.65459 0.0
H2405 H 0.85623 0.76625 0.66365 0.0
H2406 H 0.88214 0.78524 0.65139 0.0
H2407 H 0.86954 0.79664 0.64234 0.0
C2408 C 0.89486 0.75905 0.66518 0.0
C2409 C 0.8927 0.75569 0.67561 0.0
C2410 C 0.88758 0.76518 0.65957 0.0
C2411 C 0.8779 0.76811 0.66421 0.0
C2412 C 0.87569 0.76468 0.67459 0.0
C2413 C 0.88298 0.75856 0.68022 0.0
C2414 C 0.85202 0.77942 0.65385 0.0
C2415 C 0.85555 0.78811 0.64775 0.0
C2416 C 0.85925 0.77289 0.65906 0.0
C2417 C 0.87022 0.77484 0.65831 0.0
C2418 C 0.87376 0.7834 0.65204 0.0
C2419 C 0.86653 0.78995 0.64684 0.0
H2420 H 0.25941 0.84934 0.65393 0.0
H2421 H 0.23979 0.87499 0.64307 0.0
H2422 H 0.27089 0.86202 0.66307 0.0
H2423 H 0.25128 0.88767 0.65222 0.0
H2424 H 0.2797 0.90833 0.66203 0.0
H2425 H 0.26888 0.89563 0.65214 0.0
H2426 H 0.27049 0.87367 0.67833 0.0
H2427 H 0.28126 0.88637 0.68824 0.0
C2428 C 0.25752 0.85768 0.65351 0.0
C2429 C 0.24863 0.86112 0.64778 0.0
C2430 C 0.26411 0.86496 0.65878 0.0
C2431 C 0.262 0.87588 0.65845 0.0
C2432 C 0.25323 0.87934 0.65254 0.0
C2433 C 0.24663 0.87206 0.64728 0.0
C2434 C 0.27769 0.90082 0.66572 0.0
C2435 C 0.28136 0.89841 0.67596 0.0
C2436 C 0.27148 0.89353 0.66003 0.0
C2437 C 0.26879 0.8836 0.66441 0.0
C2438 C 0.27253 0.88116 0.67462 0.0
C2439 C 0.27873 0.88846 0.68032 0.0
H2440 H 0.18329 0.25758 0.65171 0.0
H2441 H 0.1569 0.25298 0.63038 0.0
H2442 H 0.17211 0.26817 0.66334 0.0
H2443 H 0.14575 0.26349 0.64197 0.0
H2444 H 0.13183 0.29203 0.65863 0.0
H2445 H 0.14347 0.28155 0.64748 0.0
H2446 H 0.15709 0.26727 0.67537 0.0
H2447 H 0.14544 0.27784 0.68656 0.0
C2448 C 0.17508 0.25874 0.64955 0.0
C2449 C 0.17104 0.25448 0.64005 0.0
C2450 C 0.16866 0.26482 0.65622 0.0
C2451 C 0.15802 0.26678 0.65358 0.0
C2452 C 0.15395 0.26236 0.64417 0.0
C2453 C 0.16036 0.25631 0.63751 0.0
C2454 C 0.13726 0.28661 0.6624 0.0
C2455 C 0.13762 0.28574 0.67351 0.0
C2456 C 0.14394 0.28058 0.656 0.0
C2457 C 0.15118 0.27347 0.6605 0.0
C2458 C 0.1517 0.27273 0.67162 0.0
C2459 C 0.14501 0.2788 0.67804 0.0
H2460 H 0.78963 0.17867 0.65609 0.0
H2461 H 0.76741 0.17272 0.6307 0.0
H2462 H 0.77785 0.1694 0.66842 0.0
H2463 H 0.75588 0.1631 0.6429 0.0
H2464 H 0.73225 0.15751 0.66982 0.0
H2465 H 0.74423 0.16649 0.65757 0.0
H2466 H 0.77096 0.15188 0.6729 0.0
H2467 H 0.75895 0.14318 0.68545 0.0
C2468 C 0.78224 0.17539 0.65312 0.0
C2469 C 0.77949 0.17648 0.64237 0.0
C2470 C 0.77554 0.16995 0.66018 0.0
C2471 C 0.76589 0.16549 0.65668 0.0
C2472 C 0.76318 0.16653 0.64592 0.0
C2473 C 0.76987 0.17195 0.63888 0.0
C2474 C 0.74069 0.15625 0.67064 0.0
C2475 C 0.74462 0.14964 0.67868 0.0
C2476 C 0.74756 0.16132 0.66352 0.0
C2477 C 0.75859 0.15992 0.66422 0.0
C2478 C 0.76253 0.15323 0.67219 0.0
C2479 C 0.75563 0.14814 0.67932 0.0
H2480 H 0.86765 0.24119 0.38466 0.0
H2481 H 0.84642 0.26597 0.39443 0.0
H2482 H 0.87795 0.25403 0.37442 0.0
H2483 H 0.85698 0.2789 0.38454 0.0
H2484 H 0.86961 0.29565 0.35472 0.0
H2485 H 0.86016 0.28337 0.36629 0.0
H2486 H 0.88982 0.26917 0.3753 0.0
H2487 H 0.89927 0.28123 0.36334 0.0
C2488 C 0.86521 0.24939 0.38469 0.0
C2489 C 0.85613 0.2525 0.39032 0.0
C2490 C 0.87121 0.25679 0.37891 0.0
C2491 C 0.86829 0.26752 0.37859 0.0
C2492 C 0.85939 0.27069 0.38448 0.0
C2493 C 0.85339 0.26328 0.39027 0.0
C2494 C 0.87414 0.28986 0.3591 0.0
C2495 C 0.88522 0.28939 0.358 0.0
C2496 C 0.86871 0.2829 0.36587 0.0
C2497 C 0.8742 0.27525 0.37177 0.0
C2498 C 0.88531 0.27488 0.37081 0.0
C2499 C 0.89075 0.28187 0.36403 0.0
H2500 H 0.78591 0.87971 0.40184 0.0
H2501 H 0.77287 0.84981 0.39112 0.0
H2502 H 0.77463 0.88907 0.38931 0.0
H2503 H 0.76156 0.85913 0.37866 0.0
H2504 H 0.75033 0.87803 0.35026 0.0
H2505 H 0.76219 0.8692 0.36254 0.0
H2506 H 0.75636 0.89349 0.3859 0.0
H2507 H 0.7445 0.90236 0.37354 0.0
C2508 C 0.78058 0.87513 0.39687 0.0
C2509 C 0.78033 0.86399 0.39749 0.0
C2510 C 0.7741 0.8805 0.38968 0.0
C2511 C 0.76717 0.87488 0.38293 0.0
C2512 C 0.76692 0.86374 0.38357 0.0
C2513 C 0.77342 0.85837 0.39073 0.0
C2514 C 0.75152 0.88147 0.35804 0.0
C2515 C 0.74637 0.89088 0.36092 0.0
C2516 C 0.75833 0.87639 0.3651 0.0
C2517 C 0.7602 0.88056 0.37528 0.0
C2518 C 0.75522 0.89009 0.3781 0.0
C2519 C 0.7484 0.89519 0.37101 0.0
H2520 H 0.13404 0.76258 0.35927 0.0
H2521 H 0.15575 0.73763 0.36742 0.0
H2522 H 0.14309 0.77446 0.37168 0.0
H2523 H 0.16479 0.74949 0.37975 0.0
H2524 H 0.18568 0.77668 0.39169 0.0
H2525 H 0.17619 0.76514 0.37936 0.0
H2526 H 0.1464 0.7774 0.3906 0.0
H2527 H 0.15593 0.78919 0.40273 0.0
C2528 C 0.14066 0.75958 0.36378 0.0
C2529 C 0.1442 0.74915 0.36226 0.0
C2530 C 0.14586 0.7664 0.3709 0.0
C2531 C 0.15473 0.76297 0.37666 0.0
C2532 C 0.15813 0.75248 0.37528 0.0
C2533 C 0.15293 0.74567 0.3682 0.0
C2534 C 0.17712 0.77701 0.39146 0.0
C2535 C 0.17159 0.78388 0.39822 0.0
C2536 C 0.17166 0.7703 0.38447 0.0
C2537 C 0.16052 0.77028 0.38401 0.0
C2538 C 0.15498 0.77724 0.39068 0.0
C2539 C 0.16045 0.78393 0.39772 0.0
H2540 H 0.26367 0.13673 0.3572 0.0
H2541 H 0.29164 0.15164 0.37041 0.0
H2542 H 0.25257 0.14919 0.36676 0.0
H2543 H 0.28052 0.16436 0.37973 0.0
H2544 H 0.2565 0.1784 0.40333 0.0
H2545 H 0.26771 0.16553 0.3943 0.0
H2546 H 0.24803 0.16778 0.36642 0.0
H2547 H 0.23668 0.18032 0.37553 0.0
C2548 C 0.26746 0.14266 0.36217 0.0
C2549 C 0.27857 0.14316 0.36303 0.0
C2550 C 0.26109 0.14988 0.36757 0.0
C2551 C 0.26563 0.15781 0.37401 0.0
C2552 C 0.27674 0.1583 0.37492 0.0
C2553 C 0.28313 0.15108 0.36948 0.0
C2554 C 0.25452 0.17608 0.39531 0.0
C2555 C 0.24569 0.18044 0.39016 0.0
C2556 C 0.26101 0.16878 0.39009 0.0
C2557 C 0.25879 0.16561 0.37962 0.0
C2558 C 0.24993 0.16994 0.37451 0.0
C2559 C 0.24348 0.17724 0.3797 0.0
H2560 H 0.63564 0.87399 0.7937 0.0
H2561 H 0.65518 0.84904 0.78117 0.0
H2562 H 0.64447 0.88674 0.78203 0.0
H2563 H 0.66427 0.86184 0.76981 0.0
H2564 H 0.67175 0.88586 0.74361 0.0
H2565 H 0.66196 0.87307 0.75444 0.0
H2566 H 0.66159 0.89548 0.78031 0.0
H2567 H 0.67138 0.90823 0.76951 0.0
C2568 C 0.64176 0.8712 0.78841 0.0
C2569 C 0.64471 0.86048 0.78842 0.0
C2570 C 0.64693 0.87854 0.7818 0.0
C2571 C 0.65514 0.87535 0.775 0.0
C2572 C 0.65793 0.86458 0.77487 0.0
C2573 C 0.65279 0.85725 0.78148 0.0
C2574 C 0.66965 0.88804 0.75163 0.0
C2575 C 0.67237 0.8981 0.75566 0.0
C2576 C 0.66402 0.8807 0.75785 0.0
C2577 C 0.66095 0.88323 0.76827 0.0
C2578 C 0.66364 0.89331 0.77227 0.0
C2579 C 0.66928 0.90063 0.76606 0.0
H2580 H 0.14832 0.67486 0.74262 0.0
H2581 H 0.12693 0.67521 0.76934 0.0
H2582 H 0.16067 0.66413 0.75275 0.0
H2583 H 0.13905 0.66411 0.7793 0.0
H2584 H 0.16711 0.65186 0.79801 0.0
H2585 H 0.156 0.66399 0.78801 0.0
H2586 H 0.16225 0.64633 0.75941 0.0
H2587 H 0.17369 0.63448 0.76931 0.0
C2588 C 0.14626 0.67271 0.75067 0.0
C2589 C 0.13658 0.6759 0.75513 0.0
C2590 C 0.1533 0.66643 0.75645 0.0
C2591 C 0.15087 0.66318 0.76685 0.0
C2592 C 0.14126 0.66652 0.77136 0.0
C2593 C 0.13423 0.67279 0.76558 0.0
C2594 C 0.16625 0.65065 0.78956 0.0
C2595 C 0.1713 0.64215 0.7845 0.0
C2596 C 0.15976 0.65755 0.78384 0.0
C2597 C 0.15815 0.65613 0.77289 0.0
C2598 C 0.16336 0.64774 0.7678 0.0
C2599 C 0.16983 0.64085 0.77352 0.0
H2600 H 0.39792 0.17222 0.78369 0.0
H2601 H 0.36972 0.19019 0.79018 0.0
H2602 H 0.38821 0.16193 0.77035 0.0
H2603 H 0.35998 0.17974 0.77719 0.0
H2604 H 0.34858 0.16743 0.74544 0.0
H2605 H 0.35902 0.17744 0.75825 0.0
H2606 H 0.37394 0.14858 0.76858 0.0
H2607 H 0.36372 0.13856 0.75543 0.0
C2608 C 0.38967 0.17398 0.78228 0.0
C2609 C 0.38461 0.18203 0.78805 0.0
C2610 C 0.38407 0.16801 0.77471 0.0
C2611 C 0.3733 0.17 0.77267 0.0
C2612 C 0.36828 0.17805 0.77844 0.0
C2613 C 0.37385 0.18398 0.78601 0.0
C2614 C 0.35418 0.16321 0.75033 0.0
C2615 C 0.35531 0.15217 0.74935 0.0
C2616 C 0.36008 0.16895 0.75779 0.0
C2617 C 0.36729 0.16383 0.76451 0.0
C2618 C 0.36852 0.1528 0.76348 0.0
C2619 C 0.36258 0.14703 0.75602 0.0
H2620 H 0.8453 0.38473 0.77712 0.0
H2621 H 0.87099 0.39802 0.79559 0.0
H2622 H 0.85803 0.37573 0.76583 0.0
H2623 H 0.88373 0.38901 0.78429 0.0
H2624 H 0.90397 0.37887 0.75597 0.0
H2625 H 0.89117 0.3886 0.76657 0.0
H2626 H 0.87036 0.3612 0.76668 0.0
H2627 H 0.88316 0.35147 0.75611 0.0
C2628 C 0.85366 0.3857 0.77881 0.0
C2629 C 0.85709 0.39208 0.78732 0.0
C2630 C 0.86097 0.38053 0.77233 0.0
C2631 C 0.87193 0.38157 0.77416 0.0
C2632 C 0.87537 0.38812 0.78254 0.0
C2633 C 0.86805 0.3933 0.78903 0.0
C2634 C 0.8967 0.37489 0.75831 0.0
C2635 C 0.89464 0.36436 0.75518 0.0
C2636 C 0.88934 0.38048 0.7644 0.0
C2637 C 0.87971 0.3757 0.7675 0.0
C2638 C 0.87761 0.3652 0.7643 0.0
C2639 C 0.88497 0.35961 0.75822 0.0
H2640 H 0.66688 0.15096 0.29779 0.0
H2641 H 0.67165 0.13197 0.26974 0.0
H2642 H 0.65591 0.16307 0.28762 0.0
H2643 H 0.66033 0.14383 0.25969 0.0
H2644 H 0.6473 0.17242 0.24211 0.0
H2645 H 0.65942 0.16146 0.25231 0.0
H2646 H 0.63865 0.16351 0.27943 0.0
H2647 H 0.62677 0.1748 0.26939 0.0
C2648 C 0.66565 0.14939 0.28944 0.0
C2649 C 0.67015 0.14045 0.28461 0.0
C2650 C 0.65924 0.15628 0.28363 0.0
C2651 C 0.65717 0.15443 0.27282 0.0
C2652 C 0.66181 0.14558 0.26796 0.0
C2653 C 0.66821 0.13869 0.27377 0.0
C2654 C 0.64539 0.17065 0.25029 0.0
C2655 C 0.63602 0.17449 0.2549 0.0
C2656 C 0.65228 0.16426 0.25611 0.0
C2657 C 0.65002 0.16154 0.2667 0.0
C2658 C 0.64073 0.1655 0.27134 0.0
C2659 C 0.63383 0.17188 0.26552 0.0
H2660 H 0.86341 0.63872 0.25553 0.0
H2661 H 0.84742 0.66741 0.2464 0.0
H2662 H 0.87361 0.64872 0.26872 0.0
H2663 H 0.85782 0.6774 0.25924 0.0
H2664 H 0.86887 0.68984 0.29115 0.0
H2665 H 0.8591 0.67934 0.27822 0.0
H2666 H 0.88762 0.66239 0.27042 0.0
H2667 H 0.89738 0.67272 0.2837 0.0
C2668 C 0.86207 0.64714 0.25632 0.0
C2669 C 0.85458 0.65224 0.24987 0.0
C2670 C 0.868 0.6529 0.2638 0.0
C2671 C 0.86653 0.66387 0.26507 0.0
C2672 C 0.85908 0.66895 0.25859 0.0
C2673 C 0.85319 0.66322 0.25111 0.0
C2674 C 0.87306 0.68379 0.28679 0.0
C2675 C 0.88393 0.68211 0.28853 0.0
C2676 C 0.86747 0.67785 0.27926 0.0
C2677 C 0.87256 0.67003 0.27323 0.0
C2678 C 0.88342 0.66828 0.27498 0.0
C2679 C 0.88905 0.67428 0.28252 0.0
H2680 H 0.3551 0.90188 0.27676 0.0
H2681 H 0.36341 0.88 0.30167 0.0
H2682 H 0.36739 0.89301 0.26478 0.0
H2683 H 0.37561 0.87115 0.28972 0.0
H2684 H 0.38728 0.85051 0.26262 0.0
H2685 H 0.37501 0.85986 0.27413 0.0
H2686 H 0.38628 0.8898 0.26165 0.0
H2687 H 0.39836 0.88041 0.24988 0.0
C2688 C 0.35962 0.89526 0.27973 0.0
C2689 C 0.35818 0.89162 0.29017 0.0
C2690 C 0.36666 0.89016 0.27284 0.0
C2691 C 0.37243 0.88129 0.27624 0.0
C2692 C 0.37113 0.8778 0.28675 0.0
C2693 C 0.36413 0.88289 0.29361 0.0
C2694 C 0.38706 0.85908 0.26222 0.0
C2695 C 0.39383 0.86469 0.25531 0.0
C2696 C 0.3801 0.86446 0.26892 0.0
C2697 C 0.37968 0.8756 0.26888 0.0
C2698 C 0.38633 0.88122 0.26185 0.0
C2699 C 0.39334 0.87584 0.25518 0.0
H2700 H 0.13852 0.3557 0.27638 0.0
H2701 H 0.15299 0.37128 0.30328 0.0
H2702 H 0.14742 0.36823 0.2645 0.0
H2703 H 0.16218 0.38351 0.29142 0.0
H2704 H 0.169 0.41033 0.26835 0.0
H2705 H 0.15917 0.39819 0.27976 0.0
H2706 H 0.16493 0.37264 0.25778 0.0
H2707 H 0.1744 0.38492 0.24611 0.0
C2708 C 0.14356 0.36182 0.27977 0.0
C2709 C 0.14504 0.36245 0.29081 0.0
C2710 C 0.14876 0.36894 0.27294 0.0
C2711 C 0.15556 0.37689 0.27697 0.0
C2712 C 0.15693 0.37757 0.28802 0.0
C2713 C 0.15175 0.37047 0.29483 0.0
C2714 C 0.16807 0.40216 0.26586 0.0
C2715 C 0.1725 0.39864 0.25626 0.0
C2716 C 0.16252 0.39515 0.27249 0.0
C2717 C 0.16126 0.3844 0.26974 0.0
C2718 C 0.16564 0.38088 0.26012 0.0
C2719 C 0.1712 0.3879 0.25348 0.0
H2720 H 0.75705 0.68091 0.90132 0.0
H2721 H 0.73385 0.67615 0.87658 0.0
H2722 H 0.76889 0.66853 0.89245 0.0
H2723 H 0.74565 0.66385 0.86774 0.0
H2724 H 0.7735 0.6512 0.8488 0.0
H2725 H 0.7622 0.66377 0.858 0.0
H2726 H 0.77083 0.64984 0.888 0.0
H2727 H 0.78242 0.6375 0.87882 0.0
C2728 C 0.75443 0.67715 0.89405 0.0
C2729 C 0.74451 0.6796 0.88965 0.0
C2730 C 0.76122 0.67006 0.88895 0.0
C2731 C 0.75827 0.66523 0.87932 0.0
C2732 C 0.74829 0.66758 0.87501 0.0
C2733 C 0.74151 0.67464 0.8801 0.0
C2734 C 0.7731 0.6509 0.85737 0.0
C2735 C 0.77888 0.64331 0.86305 0.0
C2736 C 0.76651 0.65803 0.86264 0.0
C2737 C 0.76553 0.6578 0.87375 0.0
C2738 C 0.77143 0.65031 0.87945 0.0
C2739 C 0.778 0.64315 0.87417 0.0
H2740 H 0.7922 0.38893 0.1704 0.0
H2741 H 0.76439 0.40544 0.18115 0.0
H2742 H 0.78092 0.37615 0.16105 0.0
H2743 H 0.75316 0.39291 0.17155 0.0
H2744 H 0.7361 0.36184 0.1635 0.0
H2745 H 0.74756 0.37453 0.17257 0.0
H2746 H 0.76892 0.37463 0.14582 0.0
H2747 H 0.75758 0.3616 0.13685 0.0
C2748 C 0.78369 0.38984 0.17078 0.0
C2749 C 0.77922 0.39823 0.17655 0.0
C2750 C 0.77722 0.38258 0.16532 0.0
C2751 C 0.76612 0.38349 0.16553 0.0
C2752 C 0.76167 0.39189 0.17129 0.0
C2753 C 0.76812 0.39915 0.17671 0.0
C2754 C 0.74328 0.36449 0.15957 0.0
C2755 C 0.74593 0.36063 0.14945 0.0
C2756 C 0.74981 0.37187 0.16473 0.0
C2757 C 0.75918 0.37564 0.15993 0.0
C2758 C 0.76182 0.37183 0.14979 0.0
C2759 C 0.75526 0.36445 0.1446 0.0
H2760 H 0.64843 0.797 0.17393 0.0
H2761 H 0.62672 0.77031 0.17473 0.0
H2762 H 0.66071 0.78672 0.16322 0.0
H2763 H 0.63879 0.76019 0.16368 0.0
H2764 H 0.66685 0.74134 0.15157 0.0
H2765 H 0.65572 0.75148 0.16361 0.0
H2766 H 0.6622 0.77985 0.14547 0.0
H2767 H 0.67364 0.76981 0.1337 0.0
C2768 C 0.64629 0.78893 0.17188 0.0
C2769 C 0.63655 0.78452 0.17519 0.0
C2770 C 0.65328 0.78306 0.16562 0.0
C2771 C 0.65074 0.77262 0.16253 0.0
C2772 C 0.64107 0.76816 0.16598 0.0
C2773 C 0.63408 0.77403 0.17222 0.0
C2774 C 0.66603 0.74977 0.15023 0.0
C2775 C 0.67114 0.75473 0.14162 0.0
C2776 C 0.65953 0.75557 0.15708 0.0
C2777 C 0.658 0.76649 0.15551 0.0
C2778 C 0.66326 0.77148 0.147 0.0
C2779 C 0.66973 0.76569 0.14016 0.0
H2780 H 0.23943 0.64304 0.166 0.0
H2781 H 0.25783 0.6566 0.19157 0.0
H2782 H 0.25086 0.652 0.15316 0.0
H2783 H 0.26901 0.66588 0.17874 0.0
H2784 H 0.29316 0.67311 0.15247 0.0
H2785 H 0.28237 0.66329 0.16526 0.0
H2786 H 0.25439 0.66974 0.14675 0.0
H2787 H 0.26516 0.67953 0.13398 0.0
C2788 C 0.24595 0.64787 0.1689 0.0
C2789 C 0.24767 0.6491 0.17984 0.0
C2790 C 0.25244 0.65312 0.16152 0.0
C2791 C 0.26084 0.65974 0.16489 0.0
C2792 C 0.26268 0.6608 0.17584 0.0
C2793 C 0.25619 0.65556 0.18321 0.0
C2794 C 0.28469 0.67251 0.15117 0.0
C2795 C 0.28005 0.67711 0.14216 0.0
C2796 C 0.2785 0.66687 0.15851 0.0
C2797 C 0.26749 0.66567 0.15704 0.0
C2798 C 0.26286 0.67031 0.14805 0.0
C2799 C 0.26905 0.67594 0.14072 0.0
H2800 H 0.36899 0.3031 0.15323 0.0
H2801 H 0.34988 0.27634 0.14318 0.0
H2802 H 0.38104 0.29116 0.16224 0.0
H2803 H 0.3622 0.26433 0.15187 0.0
H2804 H 0.37982 0.24728 0.17888 0.0
H2805 H 0.36773 0.25894 0.16946 0.0
H2806 H 0.3943 0.27808 0.15896 0.0
H2807 H 0.40632 0.26673 0.16873 0.0
C2808 C 0.36737 0.29466 0.15292 0.0
C2809 C 0.35841 0.29071 0.14751 0.0
C2810 C 0.37436 0.28779 0.15799 0.0
C2811 C 0.37263 0.27675 0.1578 0.0
C2812 C 0.36374 0.27278 0.15229 0.0
C2813 C 0.35674 0.27966 0.14719 0.0
C2814 C 0.38308 0.25403 0.17464 0.0
C2815 C 0.39408 0.25604 0.17461 0.0
C2816 C 0.37615 0.26065 0.16912 0.0
C2817 C 0.38001 0.26948 0.16343 0.0
C2818 C 0.39101 0.27144 0.16334 0.0
C2819 C 0.39793 0.26483 0.16886 0.0
H2820 H 0.27317 0.34933 0.89068 0.0
H2821 H 0.28631 0.37916 0.90148 0.0
H2822 H 0.26188 0.35872 0.87824 0.0
H2823 H 0.27506 0.38859 0.88898 0.0
H2824 H 0.24498 0.40204 0.8733 0.0
H2825 H 0.2568 0.39307 0.88561 0.0
H2826 H 0.26253 0.36886 0.86216 0.0
H2827 H 0.25071 0.37778 0.84991 0.0
C2828 C 0.27374 0.35789 0.89032 0.0
C2829 C 0.28067 0.36347 0.89709 0.0
C2830 C 0.26727 0.3633 0.88317 0.0
C2831 C 0.26755 0.37444 0.88256 0.0
C2832 C 0.2745 0.38002 0.88932 0.0
C2833 C 0.28097 0.37461 0.89649 0.0
C2834 C 0.24885 0.39487 0.87073 0.0
C2835 C 0.24681 0.39061 0.86062 0.0
C2836 C 0.25564 0.38971 0.8778 0.0
C2837 C 0.26059 0.38017 0.87493 0.0
C2838 C 0.2587 0.37605 0.86474 0.0
C2839 C 0.25192 0.38119 0.8577 0.0
H2840 H 0.67292 0.29462 0.88586 0.0
H2841 H 0.66871 0.27153 0.91083 0.0
H2842 H 0.66346 0.28293 0.87361 0.0
H2843 H 0.65887 0.26008 0.89874 0.0
H2844 H 0.65284 0.23704 0.87139 0.0
H2845 H 0.66189 0.24893 0.88367 0.0
H2846 H 0.64606 0.27565 0.86959 0.0
H2847 H 0.63729 0.26376 0.85699 0.0
C2848 C 0.66998 0.28706 0.88876 0.0
C2849 C 0.67162 0.28404 0.89936 0.0
C2850 C 0.66442 0.2804 0.88176 0.0
C2851 C 0.66038 0.27054 0.88516 0.0
C2852 C 0.66197 0.26756 0.89578 0.0
C2853 C 0.66751 0.2742 0.90277 0.0
C2854 C 0.65133 0.24546 0.87085 0.0
C2855 C 0.64436 0.24943 0.86314 0.0
C2856 C 0.65644 0.25228 0.87799 0.0
C2857 C 0.65473 0.26328 0.87765 0.0
C2858 C 0.64767 0.26725 0.87002 0.0
C2859 C 0.64253 0.26041 0.86287 0.0
H2860 H 0.36134 0.74108 0.87707 0.0
H2861 H 0.35353 0.76458 0.90061 0.0
H2862 H 0.37222 0.75409 0.86772 0.0
H2863 H 0.3648 0.77751 0.89149 0.0
H2864 H 0.37387 0.80073 0.86463 0.0
H2865 H 0.36446 0.78774 0.87545 0.0
H2866 H 0.38826 0.76448 0.86816 0.0
H2867 H 0.39745 0.77738 0.85693 0.0
C2868 C 0.36199 0.74901 0.8803 0.0
C2869 C 0.35644 0.75179 0.88955 0.0
C2870 C 0.36835 0.75646 0.875 0.0
C2871 C 0.36939 0.76689 0.8788 0.0
C2872 C 0.36409 0.76959 0.88823 0.0
C2873 C 0.35771 0.76214 0.89354 0.0
C2874 C 0.3771 0.79284 0.86529 0.0
C2875 C 0.38638 0.7901 0.85979 0.0
C2876 C 0.37176 0.78541 0.87163 0.0
C2877 C 0.37555 0.77502 0.87268 0.0
C2878 C 0.38501 0.77236 0.86743 0.0
C2879 C 0.39036 0.7798 0.86108 0.0
H2880 H 0.99024 0.32456 0.3436 0.0
H2881 H 0.98754 0.32411 0.30949 0.0
H2882 H 1.00944 0.32604 0.34207 0.0
H2883 H 1.00677 0.32554 0.30795 0.0
H2884 H 0.04069 0.33875 0.30907 0.0
H2885 H 0.02149 0.33747 0.3106 0.0
H2886 H 0.02478 0.31608 0.33709 0.0
H2887 H 0.044 0.31774 0.33588 0.0
C2888 C 0.99374 0.3247 0.33576 0.0
C2889 C 0.9873 0.32419 0.32667 0.0
C2890 C 1.00478 0.32553 0.33489 0.0
C2891 C 1.00972 0.32587 0.32489 0.0
C2892 C 1.00327 0.32545 0.31579 0.0
C2893 C 0.99222 0.32463 0.31667 0.0
C2894 C 0.03734 0.33386 0.31531 0.0
C2895 C 0.04396 0.3284 0.32239 0.0
C2896 C 0.02629 0.33301 0.3161 0.0
C2897 C 0.02152 0.32667 0.32398 0.0
C2898 C 0.02814 0.32115 0.33101 0.0
C2899 C 0.0392 0.322 0.33022 0.0
H2900 H 0.71586 0.04747 0.31291 0.0
H2901 H 0.70908 0.04644 0.34644 0.0
H2902 H 0.71489 0.02813 0.31219 0.0
H2903 H 0.70854 0.02718 0.34582 0.0
H2904 H 0.6989 0.99301 0.34002 0.0
H2905 H 0.69838 1.01231 0.3396 0.0
H2906 H 0.72474 1.01281 0.31775 0.0
H2907 H 0.72519 0.99349 0.31811 0.0
C2908 C 0.71411 0.04314 0.32012 0.0
C2909 C 0.71259 0.04855 0.32974 0.0
C2910 C 0.71367 0.03203 0.31973 0.0
C2911 C 0.71167 0.02604 0.32895 0.0
C2912 C 0.70998 0.03148 0.33853 0.0
C2913 C 0.71043 0.04256 0.33891 0.0
C2914 C 0.7046 0.99723 0.33514 0.0
C2915 C 0.71212 0.99167 0.32915 0.0
C2916 C 0.70432 1.00832 0.3349 0.0
C2917 C 0.71157 1.01418 0.32869 0.0
C2918 C 0.71894 1.0086 0.32252 0.0
C2919 C 0.71921 0.9975 0.32273 0.0
H2920 H 0.9864 0.71691 0.33949 0.0
H2921 H 0.98984 0.711 0.30596 0.0
H2922 H 1.0056 0.71862 0.34116 0.0
H2923 H 1.00902 0.71223 0.30771 0.0
H2924 H 0.04252 0.7256 0.3125 0.0
H2925 H 0.0233 0.7245 0.31077 0.0
H2926 H 0.02135 0.70812 0.34078 0.0
H2927 H 0.04056 0.7093 0.34254 0.0
C2928 C 0.99123 0.71601 0.33246 0.0
C2929 C 0.98652 0.71379 0.32259 0.0
C2930 C 1.00227 0.71685 0.33344 0.0
C2931 C 1.00892 0.71552 0.32458 0.0
C2932 C 1.00419 0.71341 0.3147 0.0
C2933 C 0.99316 0.71257 0.31372 0.0
C2934 C 0.038 0.72168 0.31869 0.0
C2935 C 0.04312 0.71755 0.32766 0.0
C2936 C 0.02696 0.72105 0.3177 0.0
C2937 C 0.02071 0.71624 0.32564 0.0
C2938 C 0.02585 0.71205 0.33459 0.0
C2939 C 0.03689 0.71271 0.33559 0.0
H2940 H 0.34189 0.04748 0.31804 0.0
H2941 H 0.30911 0.04785 0.3279 0.0
H2942 H 0.34155 0.02819 0.31827 0.0
H2943 H 0.30875 0.02849 0.328 0.0
H2944 H 0.30952 0.99399 0.31534 0.0
H2945 H 0.30953 1.01335 0.31579 0.0
H2946 H 0.34038 1.0133 0.33056 0.0
H2947 H 0.3405 0.99399 0.32985 0.0
C2948 C 0.33463 0.04347 0.32039 0.0
C2949 C 0.32554 0.04929 0.32301 0.0
C2950 C 0.33444 0.03238 0.3205 0.0
C2951 C 0.32514 0.02676 0.32319 0.0
C2952 C 0.31602 0.03255 0.32577 0.0
C2953 C 0.31623 0.04367 0.3257 0.0
C2954 C 0.31632 0.99811 0.31865 0.0
C2955 C 0.32502 0.9924 0.32254 0.0
C2956 C 0.31628 1.00921 0.31901 0.0
C2957 C 0.32497 1.01491 0.32319 0.0
C2958 C 0.33361 1.00919 0.32718 0.0
C2959 C 0.33362 0.9981 0.32688 0.0
H2960 H 0.04104 0.70694 0.69906 0.0
H2961 H 0.04267 0.72815 0.72588 0.0
H2962 H 0.02181 0.70609 0.70073 0.0
H2963 H 0.02342 0.72738 0.7275 0.0
H2964 H 0.98992 0.71481 0.73419 0.0
H2965 H 1.00912 0.7158 0.73246 0.0
H2966 H 1.00604 0.71635 0.69838 0.0
H2967 H 0.98683 0.71489 0.70011 0.0
C2968 C 0.03729 0.7115 0.70527 0.0
C2969 C 0.04344 0.71761 0.71234 0.0
C2970 C 0.02624 0.71103 0.70621 0.0
C2971 C 0.021 0.71668 0.71424 0.0
C2972 C 0.02716 0.72278 0.72132 0.0
C2973 C 0.03822 0.72322 0.7204 0.0
C2974 C 0.99333 0.71505 0.72631 0.0
C2975 C 0.98678 0.7147 0.71729 0.0
C2976 C 1.00436 0.71575 0.72532 0.0
C2977 C 1.00919 0.71615 0.71528 0.0
C2978 C 1.00264 0.71593 0.70625 0.0
C2979 C 0.99159 0.71522 0.70724 0.0
H2980 H 0.33018 0.99336 0.70393 0.0
H2981 H 0.31695 0.9938 0.73548 0.0
H2982 H 0.32981 1.01271 0.70343 0.0
H2983 H 0.31653 1.01309 0.73498 0.0
H2984 H 0.32977 0.04693 0.73569 0.0
H2985 H 0.32887 0.02767 0.73554 0.0
H2986 H 0.31859 0.02826 0.70291 0.0
H2987 H 0.31989 0.04762 0.70294 0.0
C2988 C 0.32705 0.99757 0.7107 0.0
C2989 C 0.32368 0.992 0.71978 0.0
C2990 C 0.32683 1.00868 0.71041 0.0
C2991 C 0.32323 1.01451 0.7192 0.0
C2992 C 0.31957 1.0089 0.72815 0.0
C2993 C 0.31981 0.99782 0.72844 0.0
C2994 C 0.32739 0.04298 0.72844 0.0
C2995 C 0.32498 0.04887 0.71931 0.0
C2996 C 0.32674 0.0319 0.7284 0.0
C2997 C 0.32363 0.02636 0.71922 0.0
C2998 C 0.32111 0.03224 0.71009 0.0
C2999 C 0.32175 0.04336 0.71015 0.0
H3000 H 0.99137 0.30551 0.71311 0.0
H3001 H 0.98882 0.33955 0.71534 0.0
H3002 H 1.01057 0.30706 0.71426 0.0
H3003 H 1.00803 0.34107 0.71698 0.0
H3004 H 0.04315 0.34083 0.70772 0.0
H3005 H 0.02391 0.3393 0.70667 0.0
H3006 H 0.02479 0.31117 0.72616 0.0
H3007 H 0.04404 0.31266 0.72712 0.0
C3008 C 0.99489 0.31334 0.71386 0.0
C3009 C 0.98849 0.32241 0.71407 0.0
C3010 C 1.00593 0.31422 0.71466 0.0
C3011 C 1.01092 0.32419 0.71571 0.0
C3012 C 1.00451 0.33326 0.71604 0.0
C3013 C 0.99346 0.33238 0.71524 0.0
C3014 C 0.03924 0.33435 0.71184 0.0
C3015 C 0.04518 0.32686 0.7175 0.0
C3016 C 0.02818 0.33348 0.71126 0.0
C3017 C 0.02273 0.32512 0.71635 0.0
C3018 C 0.02869 0.31762 0.722 0.0
C3019 C 0.03975 0.31847 0.72255 0.0
H3020 H 0.72997 0.99472 0.72007 0.0
H3021 H 0.69857 0.99271 0.70659 0.0
H3022 H 0.72886 1.014 0.72029 0.0
H3023 H 0.69732 1.012 0.70714 0.0
H3024 H 0.70491 0.04648 0.69707 0.0
H3025 H 0.70498 0.02719 0.69799 0.0
H3026 H 0.72009 0.02886 0.72865 0.0
H3027 H 0.72033 0.04819 0.72756 0.0
C3028 C 0.7228 0.99838 0.71719 0.0
C3029 C 0.71439 0.99213 0.71325 0.0
C3030 C 0.72212 1.00945 0.71743 0.0
C3031 C 0.71301 1.0146 0.71371 0.0
C3032 C 0.70451 1.00834 0.70996 0.0
C3033 C 0.70517 0.99725 0.70975 0.0
C3034 C 0.70828 0.04274 0.704 0.0
C3035 C 0.71268 0.04892 0.71221 0.0
C3036 C 0.70821 0.03166 0.70459 0.0
C3037 C 0.71256 0.02643 0.71339 0.0
C3038 C 0.71678 0.03261 0.7217 0.0
C3039 C 0.71681 0.04371 0.72113 0.0
H3040 H 0.30938 0.31895 0.99145 0.0
H3041 H 0.3423 0.32857 0.99263 0.0
H3042 H 0.30843 0.3199 1.01076 0.0
H3043 H 0.34148 0.3291 1.01188 0.0
H3044 H 0.33463 0.33825 0.0459 0.0
H3045 H 0.33436 0.33871 0.02659 0.0
H3046 H 0.31461 0.31054 0.02621 0.0
H3047 H 0.31482 0.31013 0.04553 0.0
C3048 C 0.3164 0.32133 0.99581 0.0
C3049 C 0.32593 0.32365 0.99044 0.0
C3050 C 0.31589 0.32176 1.0069 0.0
C3051 C 0.32488 0.32454 1.01293 0.0
C3052 C 0.33435 0.32703 1.00754 0.0
C3053 C 0.33486 0.3266 0.99647 0.0
C3054 C 0.33024 0.33214 0.0417 0.0
C3055 C 0.32479 0.32412 0.0473 0.0
C3056 C 0.33009 0.33239 0.0306 0.0
C3057 C 0.32451 0.32463 0.02478 0.0
C3058 C 0.31887 0.31674 0.0304 0.0
C3059 C 0.319 0.3165 0.0415 0.0
H3060 H 0.34287 0.71405 0.99285 0.0
H3061 H 0.30946 0.72102 0.99165 0.0
H3062 H 0.34206 0.71342 1.0121 0.0
H3063 H 0.30855 0.71996 1.01095 0.0
H3064 H 0.31434 0.73007 0.0458 0.0
H3065 H 0.31416 0.72973 0.02647 0.0
H3066 H 0.33548 0.70318 0.02674 0.0
H3067 H 0.33571 0.70357 0.04604 0.0
C3068 C 0.33533 0.71542 0.99669 0.0
C3069 C 0.32625 0.71765 0.99065 0.0
C3070 C 0.33483 0.71493 1.00775 0.0
C3071 C 0.32523 0.71663 1.01314 0.0
C3072 C 0.3161 0.71872 1.00711 0.0
C3073 C 0.3166 0.7192 0.99601 0.0
C3074 C 0.31888 0.72406 0.04174 0.0
C3075 C 0.32509 0.71688 0.04751 0.0
C3076 C 0.31877 0.72386 0.03063 0.0
C3077 C 0.32486 0.71647 0.02499 0.0
C3078 C 0.33086 0.70913 0.03078 0.0
C3079 C 0.33099 0.70934 0.04187 0.0
H3080 H 0.70066 0.34129 0.04656 0.0
H3081 H 0.72431 0.31682 0.04609 0.0
H3082 H 0.70018 0.34121 0.02725 0.0
H3083 H 0.72391 0.31678 0.02676 0.0
H3084 H 0.71464 0.31345 0.9919 0.0
H3085 H 0.71354 0.31251 1.01121 0.0
H3086 H 0.71108 0.34661 1.01265 0.0
H3087 H 0.71174 0.3475 0.99342 0.0
C3088 C 0.70579 0.33591 0.04234 0.0
C3089 C 0.71257 0.32911 0.04791 0.0
C3090 C 0.70553 0.33587 0.03125 0.0
C3091 C 0.71206 0.32904 0.02539 0.0
C3092 C 0.71866 0.32206 0.03097 0.0
C3093 C 0.7189 0.32208 0.04208 0.0
C3094 C 0.71371 0.32073 0.99633 0.0
C3095 C 0.71332 0.33056 0.99106 0.0
C3096 C 0.71321 0.32021 1.00743 0.0
C3097 C 0.71225 0.32949 1.01355 0.0
C3098 C 0.7117 0.33928 1.00825 0.0
C3099 C 0.71221 0.3398 0.99718 0.0
H3100 H 0.71724 0.72785 0.04622 0.0
H3101 H 0.7105 0.69422 0.04654 0.0
H3102 H 0.71706 0.72769 0.02686 0.0
H3103 H 0.71001 0.69412 0.02724 0.0
H3104 H 0.72266 0.69551 0.99323 0.0
H3105 H 0.72235 0.69597 1.0125 0.0
H3106 H 0.70518 0.72537 1.01158 0.0
H3107 H 0.70537 0.72487 0.99223 0.0
C3108 C 0.71569 0.72043 0.04217 0.0
C3109 C 0.7139 0.71105 0.04798 0.0
C3110 C 0.71549 0.72035 0.03106 0.0
C3111 C 0.71355 0.71088 0.02546 0.0
C3112 C 0.71165 0.70154 0.03127 0.0
C3113 C 0.7118 0.70162 0.04237 0.0
C3114 C 0.71868 0.70201 0.9971 0.0
C3115 C 0.71398 0.71012 0.99111 0.0
C3116 C 0.71853 0.70228 1.00819 0.0
C3117 C 0.7137 0.71068 1.01363 0.0
C3118 C 0.70907 0.71884 1.00766 0.0
C3119 C 0.70919 0.71855 0.99655 0.0
H3120 H 0.48773 0.82015 0.81065 0.0
H3121 H 0.49041 0.82903 0.84359 0.0
H3122 H 0.50694 0.82132 0.80882 0.0
H3123 H 0.5096 0.83028 0.84176 0.0
H3124 H 0.54428 0.82117 0.83777 0.0
H3125 H 0.52508 0.81961 0.83939 0.0
H3126 H 0.52149 0.83369 0.80841 0.0
H3127 H 0.54067 0.83479 0.80659 0.0
C3128 C 0.4924 0.82247 0.81748 0.0
C3129 C 0.48749 0.82448 0.82728 0.0
C3130 C 0.50344 0.82314 0.81643 0.0
C3131 C 0.50989 0.82587 0.82515 0.0
C3132 C 0.50495 0.82796 0.83492 0.0
C3133 C 0.49392 0.82726 0.83597 0.0
C3134 C 0.53941 0.82381 0.83124 0.0
C3135 C 0.54409 0.82812 0.82205 0.0
C3136 C 0.52837 0.82305 0.83223 0.0
C3137 C 0.52168 0.82656 0.82405 0.0
C3138 C 0.52636 0.8308 0.81483 0.0
C3139 C 0.53739 0.83156 0.81384 0.0
H3140 H 0.21764 0.49259 0.81304 0.0
H3141 H 0.20884 0.49381 0.84608 0.0
H3142 H 0.21661 0.51189 0.81202 0.0
H3143 H 0.20821 0.51305 0.84518 0.0
H3144 H 0.19868 0.54687 0.83832 0.0
H3145 H 0.19832 0.52755 0.83811 0.0
H3146 H 0.22605 0.52755 0.81803 0.0
H3147 H 0.22635 0.54689 0.81819 0.0
C3148 C 0.21543 0.49696 0.82007 0.0
C3149 C 0.21336 0.49161 0.82965 0.0
C3150 C 0.21495 0.50805 0.81952 0.0
C3151 C 0.21236 0.51409 0.82852 0.0
C3152 C 0.21013 0.50871 0.83805 0.0
C3153 C 0.21061 0.49764 0.8386 0.0
C3154 C 0.20471 0.54275 0.83387 0.0
C3155 C 0.21258 0.54847 0.82832 0.0
C3156 C 0.20452 0.53165 0.83376 0.0
C3157 C 0.2122 0.52594 0.82811 0.0
C3158 C 0.21992 0.53166 0.82236 0.0
C3159 C 0.2201 0.54277 0.82245 0.0
H3160 H 0.54044 0.23399 0.83276 0.0
H3161 H 0.54387 0.20164 0.82219 0.0
H3162 H 0.52126 0.23223 0.83138 0.0
H3163 H 0.52469 0.20003 0.82035 0.0
H3164 H 0.48966 0.19698 0.82947 0.0
H3165 H 0.50886 0.19877 0.83086 0.0
H3166 H 0.50707 0.23077 0.81885 0.0
H3167 H 0.48785 0.22899 0.81755 0.0
C3168 C 0.53712 0.22649 0.83013 0.0
C3169 C 0.54375 0.21794 0.82765 0.0
C3170 C 0.52609 0.22553 0.82921 0.0
C3171 C 0.52136 0.21598 0.82576 0.0
C3172 C 0.52801 0.20746 0.82317 0.0
C3173 C 0.53904 0.20843 0.8241 0.0
C3174 C 0.49336 0.20438 0.82706 0.0
C3175 C 0.48718 0.21284 0.82339 0.0
C3176 C 0.5044 0.20541 0.82784 0.0
C3177 C 0.50957 0.21491 0.82494 0.0
C3178 C 0.50338 0.22338 0.82131 0.0
C3179 C 0.49233 0.22237 0.82056 0.0
H3180 H 0.83408 0.54739 0.83771 0.0
H3181 H 0.81349 0.54685 0.8104 0.0
H3182 H 0.83398 0.52807 0.83803 0.0
H3183 H 0.81344 0.52752 0.81066 0.0
H3184 H 0.8088 0.49257 0.81893 0.0
H3185 H 0.80768 0.51185 0.82013 0.0
H3186 H 0.84096 0.5136 0.82799 0.0
H3187 H 0.84197 0.49436 0.82721 0.0
C3188 C 0.82955 0.54315 0.83175 0.0
C3189 C 0.82383 0.54871 0.824 0.0
C3190 C 0.8295 0.53205 0.83192 0.0
C3191 C 0.82376 0.52618 0.82433 0.0
C3192 C 0.81785 0.53174 0.81672 0.0
C3193 C 0.81788 0.54285 0.81657 0.0
C3194 C 0.81584 0.49706 0.82107 0.0
C3195 C 0.82549 0.49188 0.82293 0.0
C3196 C 0.81523 0.50814 0.82163 0.0
C3197 C 0.82424 0.51433 0.82412 0.0
C3198 C 0.83383 0.50912 0.82616 0.0
C3199 C 0.83444 0.49807 0.82559 0.0
H3200 H 0.49063 0.20173 0.22854 0.0
H3201 H 0.48742 0.22436 0.20308 0.0
H3202 H 0.50983 0.203 0.22708 0.0
H3203 H 0.50665 0.226 0.20195 0.0
H3204 H 0.54119 0.21788 0.19503 0.0
H3205 H 0.52199 0.21635 0.19641 0.0
H3206 H 0.52454 0.21473 0.2305 0.0
H3207 H 0.54378 0.21621 0.22911 0.0
C3208 C 0.494 0.20697 0.22261 0.0
C3209 C 0.48741 0.2129 0.21589 0.0
C3210 C 0.50505 0.20781 0.22187 0.0
C3211 C 0.50985 0.21461 0.2144 0.0
C3212 C 0.50326 0.22058 0.20771 0.0
C3213 C 0.4922 0.21973 0.20845 0.0
C3214 C 0.53767 0.21727 0.20284 0.0
C3215 C 0.54407 0.2172 0.21196 0.0
C3216 C 0.52662 0.21641 0.20363 0.0
C3217 C 0.52165 0.21545 0.21357 0.0
C3218 C 0.52807 0.2153 0.2227 0.0
C3219 C 0.53912 0.21615 0.2219 0.0
H3220 H 0.83539 0.49364 0.20244 0.0
H3221 H 0.81441 0.49377 0.22947 0.0
H3222 H 0.83501 0.51295 0.20188 0.0
H3223 H 0.81409 0.51309 0.22898 0.0
H3224 H 0.80901 0.54775 0.22019 0.0
H3225 H 0.80822 0.52842 0.21929 0.0
H3226 H 0.84159 0.52782 0.21172 0.0
H3227 H 0.84227 0.54709 0.21218 0.0
C3228 C 0.83072 0.49779 0.2083 0.0
C3229 C 0.82497 0.49212 0.21603 0.0
C3230 C 0.83051 0.50888 0.20798 0.0
C3231 C 0.82457 0.51464 0.21543 0.0
C3232 C 0.81864 0.50896 0.22303 0.0
C3233 C 0.81883 0.49785 0.22332 0.0
C3234 C 0.81614 0.5435 0.21817 0.0
C3235 C 0.82571 0.54902 0.2163 0.0
C3236 C 0.81572 0.53239 0.21778 0.0
C3237 C 0.82485 0.5265 0.21547 0.0
C3238 C 0.83437 0.53204 0.21342 0.0
C3239 C 0.83479 0.54313 0.21382 0.0
H3240 H 0.54437 0.82464 0.20032 0.0
H3241 H 0.54119 0.83096 0.2338 0.0
H3242 H 0.52514 0.82319 0.19876 0.0
H3243 H 0.52201 0.82947 0.23226 0.0
H3244 H 0.48762 0.83658 0.22404 0.0
H3245 H 0.50684 0.83835 0.22517 0.0
H3246 H 0.51028 0.81213 0.20348 0.0
H3247 H 0.49109 0.81068 0.20196 0.0
C3248 C 0.53958 0.82562 0.20737 0.0
C3249 C 0.54437 0.82795 0.21718 0.0
C3250 C 0.52853 0.82479 0.20648 0.0
C3251 C 0.52196 0.82624 0.21538 0.0
C3252 C 0.52677 0.8285 0.22519 0.0
C3253 C 0.5378 0.82935 0.22608 0.0
C3254 C 0.49246 0.83127 0.21941 0.0
C3255 C 0.48774 0.82347 0.21292 0.0
C3256 C 0.50351 0.8322 0.22016 0.0
C3257 C 0.51017 0.82536 0.21445 0.0
C3258 C 0.50544 0.81761 0.20792 0.0
C3259 C 0.4944 0.81669 0.20716 0.0
H3260 H 0.21476 0.54666 0.22816 0.0
H3261 H 0.21253 0.54717 0.19402 0.0
H3262 H 0.21488 0.52729 0.22783 0.0
H3263 H 0.21232 0.52787 0.19372 0.0
H3264 H 0.22492 0.49415 0.19615 0.0
H3265 H 0.22445 0.5134 0.19687 0.0
H3266 H 0.20367 0.51173 0.22401 0.0
H3267 H 0.20405 0.49238 0.22325 0.0
C3268 C 0.21427 0.54266 0.22059 0.0
C3269 C 0.21365 0.54852 0.21112 0.0
C3270 C 0.21424 0.53154 0.22041 0.0
C3271 C 0.21364 0.52599 0.21075 0.0
C3272 C 0.21291 0.53186 0.2013 0.0
C3273 C 0.21291 0.54295 0.20148 0.0
C3274 C 0.22013 0.49785 0.20221 0.0
C3275 C 0.21445 0.49164 0.20959 0.0
C3276 C 0.21988 0.50893 0.20263 0.0
C3277 C 0.21397 0.51415 0.21046 0.0
C3278 C 0.20839 0.50798 0.21794 0.0
C3279 C 0.20862 0.49687 0.2175 0.0
H3280 H 0.84202 0.82847 0.49317 0.0
H3281 H 0.80886 0.81979 0.49176 0.0
H3282 H 0.84111 0.82888 0.51242 0.0
H3283 H 0.80784 0.82063 0.51106 0.0
H3284 H 0.81369 0.81041 0.54577 0.0
H3285 H 0.81363 0.81098 0.52646 0.0
H3286 H 0.83424 0.83853 0.5272 0.0
H3287 H 0.83435 0.83789 0.54651 0.0
C3288 C 0.83451 0.82668 0.49696 0.0
C3289 C 0.82553 0.82403 0.49087 0.0
C3290 C 0.83396 0.82705 0.50803 0.0
C3291 C 0.8244 0.82478 0.51336 0.0
C3292 C 0.81536 0.8223 0.50726 0.0
C3293 C 0.81592 0.82194 0.49617 0.0
C3294 C 0.81809 0.81668 0.54182 0.0
C3295 C 0.82407 0.82407 0.54773 0.0
C3296 C 0.81806 0.81701 0.53072 0.0
C3297 C 0.82397 0.82477 0.52521 0.0
C3298 C 0.82975 0.83231 0.53114 0.0
C3299 C 0.82981 0.83195 0.54223 0.0
H3300 H 0.80958 0.21119 0.54732 0.0
H3301 H 0.84154 0.22376 0.54628 0.0
H3302 H 0.80914 0.21083 0.52798 0.0
H3303 H 0.84112 0.22327 0.52701 0.0
H3304 H 0.84072 0.21138 0.49293 0.0
H3305 H 0.84077 0.2108 0.51224 0.0
H3306 H 0.8089 0.22293 0.51274 0.0
H3307 H 0.80874 0.22323 0.49338 0.0
C3308 C 0.8165 0.21392 0.543 0.0
C3309 C 0.82561 0.21747 0.54843 0.0
C3310 C 0.81624 0.2137 0.53189 0.0
C3311 C 0.8251 0.21699 0.52591 0.0
C3312 C 0.83421 0.2205 0.53134 0.0
C3313 C 0.83446 0.22076 0.54242 0.0
C3314 C 0.83366 0.21379 0.49714 0.0
C3315 C 0.82472 0.21735 0.49157 0.0
C3316 C 0.83373 0.21357 0.50824 0.0
C3317 C 0.82486 0.21687 0.51408 0.0
C3318 C 0.81585 0.22026 0.50851 0.0
C3319 C 0.8158 0.22053 0.4974 0.0
H3320 H 0.20977 0.84717 0.49314 0.0
H3321 H 0.21461 0.81335 0.49197 0.0
H3322 H 0.20921 0.84645 0.51239 0.0
H3323 H 0.2136 0.81255 0.51128 0.0
H3324 H 0.22434 0.81774 0.54599 0.0
H3325 H 0.2238 0.81753 0.52667 0.0
H3326 H 0.19878 0.84062 0.52716 0.0
H3327 H 0.19939 0.84089 0.54647 0.0
C3328 C 0.21068 0.83956 0.49698 0.0
C3329 C 0.21231 0.83033 0.49096 0.0
C3330 C 0.21022 0.83912 0.50805 0.0
C3331 C 0.21136 0.82944 0.51345 0.0
C3332 C 0.21282 0.82017 0.50742 0.0
C3333 C 0.21327 0.82061 0.49633 0.0
C3334 C 0.21862 0.82267 0.54198 0.0
C3335 C 0.21195 0.82937 0.54781 0.0
C3336 C 0.2183 0.82255 0.53088 0.0
C3337 C 0.21128 0.82911 0.5253 0.0
C3338 C 0.20443 0.83562 0.53115 0.0
C3339 C 0.20477 0.83576 0.54224 0.0
H3340 H 0.19976 0.21007 0.54773 0.0
H3341 H 0.23351 0.21596 0.54655 0.0
H3342 H 0.1989 0.21132 0.52844 0.0
H3343 H 0.23273 0.21678 0.52731 0.0
H3344 H 0.22692 0.22712 0.49345 0.0
H3345 H 0.22674 0.22734 0.51276 0.0
H3346 H 0.20396 0.20153 0.51283 0.0
H3347 H 0.2041 0.20138 0.4935 0.0
C3348 C 0.20699 0.21169 0.54338 0.0
C3349 C 0.21671 0.21288 0.54874 0.0
C3350 C 0.20652 0.21228 0.53229 0.0
C3351 C 0.21575 0.21412 0.52626 0.0
C3352 C 0.22543 0.21547 0.53165 0.0
C3353 C 0.2259 0.21487 0.54271 0.0
C3354 C 0.22189 0.22147 0.49758 0.0
C3355 C 0.21557 0.2142 0.49189 0.0
C3356 C 0.22179 0.22159 0.50867 0.0
C3357 C 0.21538 0.2144 0.51441 0.0
C3358 C 0.20889 0.20728 0.50871 0.0
C3359 C 0.20897 0.20718 0.4976 0.0
loop_
_geom_bond_atom_site_label_1
_geom_bond_atom_site_label_2
_geom_bond_distance
_geom_bond_site_symmetry_2
_ccdc_geom_bond_type
C0 C1 1.264 . S
C0 C5 1.479 . S
C0 C10 1.465 . S
C1 C0 1.264 . S
C1 C3 1.339 . S
C1 H28 0.931 . S
C2 C3 1.395 . S
C2 C4 1.320 . S
C3 C1 1.339 . S
C3 C2 1.395 . S
C3 H29 0.929 . S
C4 C2 1.320 . S
C4 C5 1.405 . S
C4 H30 0.930 . S
C5 C0 1.479 . S
C5 C4 1.405 . S
C5 H31 0.931 . S
U6 O7 2.454 . S
U6 O8 2.458 . S
U6 C9 2.984 . S
U6 C10 2.847 . S
U6 C23 2.882 . S
U6 O24 2.441 . S
U6 O25 2.420 . S
U6 O26 2.455 . S
U6 O27 2.449 . S
O7 U6 2.454 . S
O7 C9 1.353 . S
O8 U6 2.458 . S
O8 C9 1.286 . S
C9 U6 2.984 . S
C9 O7 1.353 . S
C9 O8 1.286 . S
C9 C11 1.363 . S
C10 C0 1.465 . S
C10 U6 2.847 . S
C10 O24 1.249 . S
C10 O25 1.202 . S
C11 C9 1.363 . S
C11 C13 1.408 . S
C11 C16 1.342 . S
C12 C13 1.310 . S
C12 C15 1.461 . S
C12 H32 0.932 . S
C13 C11 1.408 . S
C13 C12 1.310 . S
C13 H33 0.930 . S
C14 C15 1.474 . S
C14 C16 1.285 . S
C14 H34 0.929 . S
C15 C12 1.461 . S
C15 C14 1.474 . S
C16 C11 1.342 . S
C16 C14 1.285 . S
C16 H35 0.930 . S
C17 C20 1.424 . S
C17 C22 1.245 . S
C17 C23 1.428 . S
C18 C21 1.260 . S
C18 C22 1.477 . S
C18 H36 0.932 . S
C19 C20 1.384 . S
C19 C21 1.479 . S
C19 H37 0.929 . S
C20 C17 1.424 . S
C20 C19 1.384 . S
C20 H38 0.928 . S
C21 C18 1.260 . S
C21 C19 1.479 . S
C22 C17 1.245 . S
C22 C18 1.477 . S
C22 H39 0.932 . S
C23 U6 2.882 . S
C23 C17 1.428 . S
C23 O26 1.301 . S
C23 O27 1.282 . S
O24 U6 2.441 . S
O24 C10 1.249 . S
O25 U6 2.420 . S
O25 C10 1.202 . S
O26 U6 2.455 . S
O26 C23 1.301 . S
O27 U6 2.449 . S
O27 C23 1.282 . S
H28 C1 0.931 . S
H29 C3 0.929 . S
H30 C4 0.930 . S
H31 C5 0.931 . S
H32 C12 0.932 . S
H33 C13 0.930 . S
H34 C14 0.929 . S
H35 C16 0.930 . S
H36 C18 0.932 . S
H37 C19 0.929 . S
H38 C20 0.928 . S
H39 C22 0.932 . S
C40 C41 1.264 . S
C40 C45 1.479 . S
C40 C50 1.465 . S
C41 C40 1.264 . S
C41 C43 1.339 . S
C41 H68 0.931 . S
C42 C43 1.395 . S
C42 C44 1.320 . S
C43 C41 1.339 . S
C43 C42 1.395 . S
C43 H69 0.929 . S
C44 C42 1.320 . S
C44 C45 1.405 . S
C44 H70 0.930 . S
C45 C40 1.479 . S
C45 C44 1.405 . S
C45 H71 0.931 . S
U46 O47 2.454 . S
U46 O48 2.458 . S
U46 C49 2.984 . S
U46 C50 2.847 . S
U46 C63 2.882 . S
U46 O64 2.441 . S
U46 O65 2.420 . S
U46 O66 2.455 . S
U46 O67 2.449 . S
O47 U46 2.454 . S
O47 C49 1.353 . S
O48 U46 2.458 . S
O48 C49 1.286 . S
C49 U46 2.984 . S
C49 O47 1.353 . S
C49 O48 1.286 . S
C49 C51 1.363 . S
C50 C40 1.465 . S
C50 U46 2.847 . S
C50 O64 1.249 . S
C50 O65 1.202 . S
C51 C49 1.363 . S
C51 C53 1.408 . S
C51 C56 1.342 . S
C52 C53 1.310 . S
C52 C55 1.461 . S
C52 H72 0.932 . S
C53 C51 1.408 . S
C53 C52 1.310 . S
C53 H73 0.930 . S
C54 C55 1.474 . S
C54 C56 1.285 . S
C54 H74 0.929 . S
C55 C52 1.461 . S
C55 C54 1.474 . S
C56 C51 1.342 . S
C56 C54 1.285 . S
C56 H75 0.930 . S
C57 C60 1.424 . S
C57 C62 1.245 . S
C57 C63 1.428 . S
C58 C61 1.260 . S
C58 C62 1.477 . S
C58 H76 0.932 . S
C59 C60 1.384 . S
C59 C61 1.479 . S
C59 H77 0.929 . S
C60 C57 1.424 . S
C60 C59 1.384 . S
C60 H78 0.928 . S
C61 C58 1.260 . S
C61 C59 1.479 . S
C62 C57 1.245 . S
C62 C58 1.477 . S
C62 H79 0.932 . S
C63 U46 2.882 . S
C63 C57 1.428 . S
C63 O66 1.301 . S
C63 O67 1.282 . S
O64 U46 2.441 . S
O64 C50 1.249 . S
O65 U46 2.420 . S
O65 C50 1.202 . S
O66 U46 2.455 . S
O66 C63 1.301 . S
O67 U46 2.449 . S
O67 C63 1.282 . S
H68 C41 0.931 . S
H69 C43 0.929 . S
H70 C44 0.930 . S
H71 C45 0.931 . S
H72 C52 0.932 . S
H73 C53 0.930 . S
H74 C54 0.929 . S
H75 C56 0.930 . S
H76 C58 0.932 . S
H77 C59 0.929 . S
H78 C60 0.928 . S
H79 C62 0.932 . S
C80 C81 1.264 . S
C80 C85 1.479 . S
C80 C90 1.465 . S
C81 C80 1.264 . S
C81 C83 1.339 . S
C81 H108 0.931 . S
C82 C83 1.395 . S
C82 C84 1.320 . S
C83 C81 1.339 . S
C83 C82 1.395 . S
C83 H109 0.929 . S
C84 C82 1.320 . S
C84 C85 1.405 . S
C84 H110 0.930 . S
C85 C80 1.479 . S
C85 C84 1.405 . S
C85 H111 0.931 . S
U86 O87 2.454 . S
U86 O88 2.458 . S
U86 C89 2.984 . S
U86 C90 2.847 . S
U86 C103 2.882 . S
U86 O104 2.441 . S
U86 O105 2.420 . S
U86 O106 2.455 . S
U86 O107 2.449 . S
O87 U86 2.454 . S
O87 C89 1.353 . S
O88 U86 2.458 . S
O88 C89 1.286 . S
C89 U86 2.984 . S
C89 O87 1.353 . S
C89 O88 1.286 . S
C89 C91 1.363 . S
C90 C80 1.465 . S
C90 U86 2.847 . S
C90 O104 1.249 . S
C90 O105 1.202 . S
C91 C89 1.363 . S
C91 C93 1.408 . S
C91 C96 1.342 . S
C92 C93 1.310 . S
C92 C95 1.461 . S
C92 H112 0.932 . S
C93 C91 1.408 . S
C93 C92 1.310 . S
C93 H113 0.930 . S
C94 C95 1.474 . S
C94 C96 1.285 . S
C94 H114 0.929 . S
C95 C92 1.461 . S
C95 C94 1.474 . S
C96 C91 1.342 . S
C96 C94 1.285 . S
C96 H115 0.930 . S
C97 C100 1.424 . S
C97 C102 1.245 . S
C97 C103 1.428 . S
C98 C101 1.260 . S
C98 C102 1.477 . S
C98 H116 0.932 . S
C99 C100 1.384 . S
C99 C101 1.479 . S
C99 H117 0.929 . S
C100 C97 1.424 . S
C100 C99 1.384 . S
C100 H118 0.928 . S
C101 C98 1.260 . S
C101 C99 1.479 . S
C102 C97 1.245 . S
C102 C98 1.477 . S
C102 H119 0.932 . S
C103 U86 2.882 . S
C103 C97 1.428 . S
C103 O106 1.301 . S
C103 O107 1.282 . S
O104 U86 2.441 . S
O104 C90 1.249 . S
O105 U86 2.420 . S
O105 C90 1.202 . S
O106 U86 2.455 . S
O106 C103 1.301 . S
O107 U86 2.449 . S
O107 C103 1.282 . S
H108 C81 0.931 . S
H109 C83 0.929 . S
H110 C84 0.930 . S
H111 C85 0.931 . S
H112 C92 0.932 . S
H113 C93 0.930 . S
H114 C94 0.929 . S
H115 C96 0.930 . S
H116 C98 0.932 . S
H117 C99 0.929 . S
H118 C100 0.928 . S
H119 C102 0.932 . S
C120 C121 1.264 . S
C120 C125 1.479 . S
C120 C130 1.465 . S
C121 C120 1.264 . S
C121 C123 1.339 . S
C121 H148 0.931 . S
C122 C123 1.395 . S
C122 C124 1.320 . S
C123 C121 1.339 . S
C123 C122 1.395 . S
C123 H149 0.929 . S
C124 C122 1.320 . S
C124 C125 1.405 . S
C124 H150 0.930 . S
C125 C120 1.479 . S
C125 C124 1.405 . S
C125 H151 0.931 . S
U126 O127 2.454 . S
U126 O128 2.458 . S
U126 C129 2.984 . S
U126 C130 2.847 . S
U126 C143 2.882 . S
U126 O144 2.441 . S
U126 O145 2.420 . S
U126 O146 2.455 . S
U126 O147 2.449 . S
O127 U126 2.454 . S
O127 C129 1.353 . S
O128 U126 2.458 . S
O128 C129 1.286 . S
C129 U126 2.984 . S
C129 O127 1.353 . S
C129 O128 1.286 . S
C129 C131 1.363 . S
C130 C120 1.465 . S
C130 U126 2.847 . S
C130 O144 1.249 . S
C130 O145 1.202 . S
C131 C129 1.363 . S
C131 C133 1.408 . S
C131 C136 1.342 . S
C132 C133 1.310 . S
C132 C135 1.461 . S
C132 H152 0.932 . S
C133 C131 1.408 . S
C133 C132 1.310 . S
C133 H153 0.930 . S
C134 C135 1.474 . S
C134 C136 1.285 . S
C134 H154 0.929 . S
C135 C132 1.461 . S
C135 C134 1.474 . S
C136 C131 1.342 . S
C136 C134 1.285 . S
C136 H155 0.930 . S
C137 C140 1.424 . S
C137 C142 1.245 . S
C137 C143 1.428 . S
C138 C141 1.260 . S
C138 C142 1.477 . S
C138 H156 0.932 . S
C139 C140 1.384 . S
C139 C141 1.479 . S
C139 H157 0.929 . S
C140 C137 1.424 . S
C140 C139 1.384 . S
C140 H158 0.928 . S
C141 C138 1.260 . S
C141 C139 1.479 . S
C142 C137 1.245 . S
C142 C138 1.477 . S
C142 H159 0.932 . S
C143 U126 2.882 . S
C143 C137 1.428 . S
C143 O146 1.301 . S
C143 O147 1.282 . S
O144 U126 2.441 . S
O144 C130 1.249 . S
O145 U126 2.420 . S
O145 C130 1.202 . S
O146 U126 2.455 . S
O146 C143 1.301 . S
O147 U126 2.449 . S
O147 C143 1.282 . S
H148 C121 0.931 . S
H149 C123 0.929 . S
H150 C124 0.930 . S
H151 C125 0.931 . S
H152 C132 0.932 . S
H153 C133 0.930 . S
H154 C134 0.929 . S
H155 C136 0.930 . S
H156 C138 0.932 . S
H157 C139 0.929 . S
H158 C140 0.928 . S
H159 C142 0.932 . S
C160 C161 1.264 . S
C160 C165 1.479 . S
C160 C170 1.465 . S
C161 C160 1.264 . S
C161 C163 1.339 . S
C161 H188 0.931 . S
C162 C163 1.395 . S
C162 C164 1.320 . S
C163 C161 1.339 . S
C163 C162 1.395 . S
C163 H189 0.929 . S
C164 C162 1.320 . S
C164 C165 1.405 . S
C164 H190 0.930 . S
C165 C160 1.479 . S
C165 C164 1.405 . S
C165 H191 0.931 . S
U166 O167 2.454 . S
U166 O168 2.458 . S
U166 C169 2.984 . S
U166 C170 2.847 . S
U166 C183 2.882 . S
U166 O184 2.441 . S
U166 O185 2.420 . S
U166 O186 2.455 . S
U166 O187 2.449 . S
O167 U166 2.454 . S
O167 C169 1.353 . S
O168 U166 2.458 . S
O168 C169 1.286 . S
C169 U166 2.984 . S
C169 O167 1.353 . S
C169 O168 1.286 . S
C169 C171 1.363 . S
C170 C160 1.465 . S
C170 U166 2.847 . S
C170 O184 1.249 . S
C170 O185 1.202 . S
C171 C169 1.363 . S
C171 C173 1.408 . S
C171 C176 1.342 . S
C172 C173 1.310 . S
C172 C175 1.461 . S
C172 H192 0.932 . S
C173 C171 1.408 . S
C173 C172 1.310 . S
C173 H193 0.930 . S
C174 C175 1.474 . S
C174 C176 1.285 . S
C174 H194 0.929 . S
C175 C172 1.461 . S
C175 C174 1.474 . S
C176 C171 1.342 . S
C176 C174 1.285 . S
C176 H195 0.930 . S
C177 C180 1.424 . S
C177 C182 1.245 . S
C177 C183 1.428 . S
C178 C181 1.260 . S
C178 C182 1.477 . S
C178 H196 0.932 . S
C179 C180 1.384 . S
C179 C181 1.479 . S
C179 H197 0.929 . S
C180 C177 1.424 . S
C180 C179 1.384 . S
C180 H198 0.928 . S
C181 C178 1.260 . S
C181 C179 1.479 . S
C182 C177 1.245 . S
C182 C178 1.477 . S
C182 H199 0.932 . S
C183 U166 2.882 . S
C183 C177 1.428 . S
C183 O186 1.301 . S
C183 O187 1.282 . S
O184 U166 2.441 . S
O184 C170 1.249 . S
O185 U166 2.420 . S
O185 C170 1.202 . S
O186 U166 2.455 . S
O186 C183 1.301 . S
O187 U166 2.449 . S
O187 C183 1.282 . S
H188 C161 0.931 . S
H189 C163 0.929 . S
H190 C164 0.930 . S
H191 C165 0.931 . S
H192 C172 0.932 . S
H193 C173 0.930 . S
H194 C174 0.929 . S
H195 C176 0.930 . S
H196 C178 0.932 . S
H197 C179 0.929 . S
H198 C180 0.928 . S
H199 C182 0.932 . S
C200 C201 1.264 . S
C200 C205 1.479 . S
C200 C210 1.465 . S
C201 C200 1.264 . S
C201 C203 1.339 . S
C201 H228 0.931 . S
C202 C203 1.395 . S
C202 C204 1.320 . S
C203 C201 1.339 . S
C203 C202 1.395 . S
C203 H229 0.929 . S
C204 C202 1.320 . S
C204 C205 1.405 . S
C204 H230 0.930 . S
C205 C200 1.479 . S
C205 C204 1.405 . S
C205 H231 0.931 . S
U206 O207 2.454 . S
U206 O208 2.458 . S
U206 C209 2.984 . S
U206 C210 2.847 . S
U206 C223 2.882 . S
U206 O224 2.441 . S
U206 O225 2.420 . S
U206 O226 2.455 . S
U206 O227 2.449 . S
O207 U206 2.454 . S
O207 C209 1.353 . S
O208 U206 2.458 . S
O208 C209 1.286 . S
C209 U206 2.984 . S
C209 O207 1.353 . S
C209 O208 1.286 . S
C209 C211 1.363 . S
C210 C200 1.465 . S
C210 U206 2.847 . S
C210 O224 1.249 . S
C210 O225 1.202 . S
C211 C209 1.363 . S
C211 C213 1.408 . S
C211 C216 1.342 . S
C212 C213 1.310 . S
C212 C215 1.461 . S
C212 H232 0.932 . S
C213 C211 1.408 . S
C213 C212 1.310 . S
C213 H233 0.930 . S
C214 C215 1.474 . S
C214 C216 1.285 . S
C214 H234 0.929 . S
C215 C212 1.461 . S
C215 C214 1.474 . S
C216 C211 1.342 . S
C216 C214 1.285 . S
C216 H235 0.930 . S
C217 C220 1.424 . S
C217 C222 1.245 . S
C217 C223 1.428 . S
C218 C221 1.260 . S
C218 C222 1.477 . S
C218 H236 0.932 . S
C219 C220 1.384 . S
C219 C221 1.479 . S
C219 H237 0.929 . S
C220 C217 1.424 . S
C220 C219 1.384 . S
C220 H238 0.928 . S
C221 C218 1.260 . S
C221 C219 1.479 . S
C222 C217 1.245 . S
C222 C218 1.477 . S
C222 H239 0.932 . S
C223 U206 2.882 . S
C223 C217 1.428 . S
C223 O226 1.301 . S
C223 O227 1.282 . S
O224 U206 2.441 . S
O224 C210 1.249 . S
O225 U206 2.420 . S
O225 C210 1.202 . S
O226 U206 2.455 . S
O226 C223 1.301 . S
O227 U206 2.449 . S
O227 C223 1.282 . S
H228 C201 0.931 . S
H229 C203 0.929 . S
H230 C204 0.930 . S
H231 C205 0.931 . S
H232 C212 0.932 . S
H233 C213 0.930 . S
H234 C214 0.929 . S
H235 C216 0.930 . S
H236 C218 0.932 . S
H237 C219 0.929 . S
H238 C220 0.928 . S
H239 C222 0.932 . S
C240 C241 1.264 . S
C240 C245 1.479 . S
C240 C250 1.465 . S
C241 C240 1.264 . S
C241 C243 1.339 . S
C241 H268 0.931 . S
C242 C243 1.395 . S
C242 C244 1.320 . S
C243 C241 1.339 . S
C243 C242 1.395 . S
C243 H269 0.929 . S
C244 C242 1.320 . S
C244 C245 1.405 . S
C244 H270 0.930 . S
C245 C240 1.479 . S
C245 C244 1.405 . S
C245 H271 0.931 . S
U246 O247 2.454 . S
U246 O248 2.458 . S
U246 C249 2.984 . S
U246 C250 2.847 . S
U246 C263 2.882 . S
U246 O264 2.441 . S
U246 O265 2.420 . S
U246 O266 2.455 . S
U246 O267 2.449 . S
O247 U246 2.454 . S
O247 C249 1.353 . S
O248 U246 2.458 . S
O248 C249 1.286 . S
C249 U246 2.984 . S
C249 O247 1.353 . S
C249 O248 1.286 . S
C249 C251 1.363 . S
C250 C240 1.465 . S
C250 U246 2.847 . S
C250 O264 1.249 . S
C250 O265 1.202 . S
C251 C249 1.363 . S
C251 C253 1.408 . S
C251 C256 1.342 . S
C252 C253 1.310 . S
C252 C255 1.461 . S
C252 H272 0.932 . S
C253 C251 1.408 . S
C253 C252 1.310 . S
C253 H273 0.930 . S
C254 C255 1.474 . S
C254 C256 1.285 . S
C254 H274 0.929 . S
C255 C252 1.461 . S
C255 C254 1.474 . S
C256 C251 1.342 . S
C256 C254 1.285 . S
C256 H275 0.930 . S
C257 C260 1.424 . S
C257 C262 1.245 . S
C257 C263 1.428 . S
C258 C261 1.260 . S
C258 C262 1.477 . S
C258 H276 0.932 . S
C259 C260 1.384 . S
C259 C261 1.479 . S
C259 H277 0.929 . S
C260 C257 1.424 . S
C260 C259 1.384 . S
C260 H278 0.928 . S
C261 C258 1.260 . S
C261 C259 1.479 . S
C262 C257 1.245 . S
C262 C258 1.477 . S
C262 H279 0.932 . S
C263 U246 2.882 . S
C263 C257 1.428 . S
C263 O266 1.301 . S
C263 O267 1.282 . S
O264 U246 2.441 . S
O264 C250 1.249 . S
O265 U246 2.420 . S
O265 C250 1.202 . S
O266 U246 2.455 . S
O266 C263 1.301 . S
O267 U246 2.449 . S
O267 C263 1.282 . S
H268 C241 0.931 . S
H269 C243 0.929 . S
H270 C244 0.930 . S
H271 C245 0.931 . S
H272 C252 0.932 . S
H273 C253 0.930 . S
H274 C254 0.929 . S
H275 C256 0.930 . S
H276 C258 0.932 . S
H277 C259 0.929 . S
H278 C260 0.928 . S
H279 C262 0.932 . S
C280 C281 1.264 . S
C280 C285 1.479 . S
C280 C290 1.465 . S
C281 C280 1.264 . S
C281 C283 1.339 . S
C281 H308 0.931 . S
C282 C283 1.395 . S
C282 C284 1.320 . S
C283 C281 1.339 . S
C283 C282 1.395 . S
C283 H309 0.929 . S
C284 C282 1.320 . S
C284 C285 1.405 . S
C284 H310 0.930 . S
C285 C280 1.479 . S
C285 C284 1.405 . S
C285 H311 0.931 . S
U286 O287 2.454 . S
U286 O288 2.458 . S
U286 C289 2.984 . S
U286 C290 2.847 . S
U286 C303 2.882 . S
U286 O304 2.441 . S
U286 O305 2.420 . S
U286 O306 2.455 . S
U286 O307 2.449 . S
O287 U286 2.454 . S
O287 C289 1.353 . S
O288 U286 2.458 . S
O288 C289 1.286 . S
C289 U286 2.984 . S
C289 O287 1.353 . S
C289 O288 1.286 . S
C289 C291 1.363 . S
C290 C280 1.465 . S
C290 U286 2.847 . S
C290 O304 1.249 . S
C290 O305 1.202 . S
C291 C289 1.363 . S
C291 C293 1.408 . S
C291 C296 1.342 . S
C292 C293 1.310 . S
C292 C295 1.461 . S
C292 H312 0.932 . S
C293 C291 1.408 . S
C293 C292 1.310 . S
C293 H313 0.930 . S
C294 C295 1.474 . S
C294 C296 1.285 . S
C294 H314 0.929 . S
C295 C292 1.461 . S
C295 C294 1.474 . S
C296 C291 1.342 . S
C296 C294 1.285 . S
C296 H315 0.930 . S
C297 C300 1.424 . S
C297 C302 1.245 . S
C297 C303 1.428 . S
C298 C301 1.260 . S
C298 C302 1.477 . S
C298 H316 0.932 . S
C299 C300 1.384 . S
C299 C301 1.479 . S
C299 H317 0.929 . S
C300 C297 1.424 . S
C300 C299 1.384 . S
C300 H318 0.928 . S
C301 C298 1.260 . S
C301 C299 1.479 . S
C302 C297 1.245 . S
C302 C298 1.477 . S
C302 H319 0.932 . S
C303 U286 2.882 . S
C303 C297 1.428 . S
C303 O306 1.301 . S
C303 O307 1.282 . S
O304 U286 2.441 . S
O304 C290 1.249 . S
O305 U286 2.420 . S
O305 C290 1.202 . S
O306 U286 2.455 . S
O306 C303 1.301 . S
O307 U286 2.449 . S
O307 C303 1.282 . S
H308 C281 0.931 . S
H309 C283 0.929 . S
H310 C284 0.930 . S
H311 C285 0.931 . S
H312 C292 0.932 . S
H313 C293 0.930 . S
H314 C294 0.929 . S
H315 C296 0.930 . S
H316 C298 0.932 . S
H317 C299 0.929 . S
H318 C300 0.928 . S
H319 C302 0.932 . S
C320 C321 1.264 . S
C320 C325 1.479 . S
C320 C330 1.465 . S
C321 C320 1.264 . S
C321 C323 1.339 . S
C321 H348 0.931 . S
C322 C323 1.395 . S
C322 C324 1.320 . S
C323 C321 1.339 . S
C323 C322 1.395 . S
C323 H349 0.929 . S
C324 C322 1.320 . S
C324 C325 1.405 . S
C324 H350 0.930 . S
C325 C320 1.479 . S
C325 C324 1.405 . S
C325 H351 0.931 . S
U326 O327 2.454 . S
U326 O328 2.458 . S
U326 C329 2.984 . S
U326 C330 2.847 . S
U326 C343 2.882 . S
U326 O344 2.441 . S
U326 O345 2.420 . S
U326 O346 2.455 . S
U326 O347 2.449 . S
O327 U326 2.454 . S
O327 C329 1.353 . S
O328 U326 2.458 . S
O328 C329 1.286 . S
C329 U326 2.984 . S
C329 O327 1.353 . S
C329 O328 1.286 . S
C329 C331 1.363 . S
C330 C320 1.465 . S
C330 U326 2.847 . S
C330 O344 1.249 . S
C330 O345 1.202 . S
C331 C329 1.363 . S
C331 C333 1.408 . S
C331 C336 1.342 . S
C332 C333 1.310 . S
C332 C335 1.461 . S
C332 H352 0.932 . S
C333 C331 1.408 . S
C333 C332 1.310 . S
C333 H353 0.930 . S
C334 C335 1.474 . S
C334 C336 1.285 . S
C334 H354 0.929 . S
C335 C332 1.461 . S
C335 C334 1.474 . S
C336 C331 1.342 . S
C336 C334 1.285 . S
C336 H355 0.930 . S
C337 C340 1.424 . S
C337 C342 1.245 . S
C337 C343 1.428 . S
C338 C341 1.260 . S
C338 C342 1.477 . S
C338 H356 0.932 . S
C339 C340 1.384 . S
C339 C341 1.479 . S
C339 H357 0.929 . S
C340 C337 1.424 . S
C340 C339 1.384 . S
C340 H358 0.928 . S
C341 C338 1.260 . S
C341 C339 1.479 . S
C342 C337 1.245 . S
C342 C338 1.477 . S
C342 H359 0.932 . S
C343 U326 2.882 . S
C343 C337 1.428 . S
C343 O346 1.301 . S
C343 O347 1.282 . S
O344 U326 2.441 . S
O344 C330 1.249 . S
O345 U326 2.420 . S
O345 C330 1.202 . S
O346 U326 2.455 . S
O346 C343 1.301 . S
O347 U326 2.449 . S
O347 C343 1.282 . S
H348 C321 0.931 . S
H349 C323 0.929 . S
H350 C324 0.930 . S
H351 C325 0.931 . S
H352 C332 0.932 . S
H353 C333 0.930 . S
H354 C334 0.929 . S
H355 C336 0.930 . S
H356 C338 0.932 . S
H357 C339 0.929 . S
H358 C340 0.928 . S
H359 C342 0.932 . S
C360 C361 1.264 . S
C360 C365 1.479 . S
C360 C370 1.465 . S
C361 C360 1.264 . S
C361 C363 1.339 . S
C361 H388 0.931 . S
C362 C363 1.395 . S
C362 C364 1.320 . S
C363 C361 1.339 . S
C363 C362 1.395 . S
C363 H389 0.929 . S
C364 C362 1.320 . S
C364 C365 1.405 . S
C364 H390 0.930 . S
C365 C360 1.479 . S
C365 C364 1.405 . S
C365 H391 0.931 . S
U366 O367 2.454 . S
U366 O368 2.458 . S
U366 C369 2.984 . S
U366 C370 2.847 . S
U366 C383 2.882 . S
U366 O384 2.441 . S
U366 O385 2.420 . S
U366 O386 2.455 . S
U366 O387 2.449 . S
O367 U366 2.454 . S
O367 C369 1.353 . S
O368 U366 2.458 . S
O368 C369 1.286 . S
C369 U366 2.984 . S
C369 O367 1.353 . S
C369 O368 1.286 . S
C369 C371 1.363 . S
C370 C360 1.465 . S
C370 U366 2.847 . S
C370 O384 1.249 . S
C370 O385 1.202 . S
C371 C369 1.363 . S
C371 C373 1.408 . S
C371 C376 1.342 . S
C372 C373 1.310 . S
C372 C375 1.461 . S
C372 H392 0.932 . S
C373 C371 1.408 . S
C373 C372 1.310 . S
C373 H393 0.930 . S
C374 C375 1.474 . S
C374 C376 1.285 . S
C374 H394 0.929 . S
C375 C372 1.461 . S
C375 C374 1.474 . S
C376 C371 1.342 . S
C376 C374 1.285 . S
C376 H395 0.930 . S
C377 C380 1.424 . S
C377 C382 1.245 . S
C377 C383 1.428 . S
C378 C381 1.260 . S
C378 C382 1.477 . S
C378 H396 0.932 . S
C379 C380 1.384 . S
C379 C381 1.479 . S
C379 H397 0.929 . S
C380 C377 1.424 . S
C380 C379 1.384 . S
C380 H398 0.928 . S
C381 C378 1.260 . S
C381 C379 1.479 . S
C382 C377 1.245 . S
C382 C378 1.477 . S
C382 H399 0.932 . S
C383 U366 2.882 . S
C383 C377 1.428 . S
C383 O386 1.301 . S
C383 O387 1.282 . S
O384 U366 2.441 . S
O384 C370 1.249 . S
O385 U366 2.420 . S
O385 C370 1.202 . S
O386 U366 2.455 . S
O386 C383 1.301 . S
O387 U366 2.449 . S
O387 C383 1.282 . S
H388 C361 0.931 . S
H389 C363 0.929 . S
H390 C364 0.930 . S
H391 C365 0.931 . S
H392 C372 0.932 . S
H393 C373 0.930 . S
H394 C374 0.929 . S
H395 C376 0.930 . S
H396 C378 0.932 . S
H397 C379 0.929 . S
H398 C380 0.928 . S
H399 C382 0.932 . S
C400 C401 1.264 . S
C400 C405 1.479 . S
C400 C410 1.465 . S
C401 C400 1.264 . S
C401 C403 1.339 . S
C401 H428 0.931 . S
C402 C403 1.395 . S
C402 C404 1.320 . S
C403 C401 1.339 . S
C403 C402 1.395 . S
C403 H429 0.929 . S
C404 C402 1.320 . S
C404 C405 1.405 . S
C404 H430 0.930 . S
C405 C400 1.479 . S
C405 C404 1.405 . S
C405 H431 0.931 . S
U406 O407 2.454 . S
U406 O408 2.458 . S
U406 C409 2.984 . S
U406 C410 2.847 . S
U406 C423 2.882 . S
U406 O424 2.441 . S
U406 O425 2.420 . S
U406 O426 2.455 . S
U406 O427 2.449 . S
O407 U406 2.454 . S
O407 C409 1.353 . S
O408 U406 2.458 . S
O408 C409 1.286 . S
C409 U406 2.984 . S
C409 O407 1.353 . S
C409 O408 1.286 . S
C409 C411 1.363 . S
C410 C400 1.465 . S
C410 U406 2.847 . S
C410 O424 1.249 . S
C410 O425 1.202 . S
C411 C409 1.363 . S
C411 C413 1.408 . S
C411 C416 1.342 . S
C412 C413 1.310 . S
C412 C415 1.461 . S
C412 H432 0.932 . S
C413 C411 1.408 . S
C413 C412 1.310 . S
C413 H433 0.930 . S
C414 C415 1.474 . S
C414 C416 1.285 . S
C414 H434 0.929 . S
C415 C412 1.461 . S
C415 C414 1.474 . S
C416 C411 1.342 . S
C416 C414 1.285 . S
C416 H435 0.930 . S
C417 C420 1.424 . S
C417 C422 1.245 . S
C417 C423 1.428 . S
C418 C421 1.260 . S
C418 C422 1.477 . S
C418 H436 0.932 . S
C419 C420 1.384 . S
C419 C421 1.479 . S
C419 H437 0.929 . S
C420 C417 1.424 . S
C420 C419 1.384 . S
C420 H438 0.928 . S
C421 C418 1.260 . S
C421 C419 1.479 . S
C422 C417 1.245 . S
C422 C418 1.477 . S
C422 H439 0.932 . S
C423 U406 2.882 . S
C423 C417 1.428 . S
C423 O426 1.301 . S
C423 O427 1.282 . S
O424 U406 2.441 . S
O424 C410 1.249 . S
O425 U406 2.420 . S
O425 C410 1.202 . S
O426 U406 2.455 . S
O426 C423 1.301 . S
O427 U406 2.449 . S
O427 C423 1.282 . S
H428 C401 0.931 . S
H429 C403 0.929 . S
H430 C404 0.930 . S
H431 C405 0.931 . S
H432 C412 0.932 . S
H433 C413 0.930 . S
H434 C414 0.929 . S
H435 C416 0.930 . S
H436 C418 0.932 . S
H437 C419 0.929 . S
H438 C420 0.928 . S
H439 C422 0.932 . S
C440 C441 1.264 . S
C440 C445 1.479 . S
C440 C450 1.465 . S
C441 C440 1.264 . S
C441 C443 1.339 . S
C441 H468 0.931 . S
C442 C443 1.395 . S
C442 C444 1.320 . S
C443 C441 1.339 . S
C443 C442 1.395 . S
C443 H469 0.929 . S
C444 C442 1.320 . S
C444 C445 1.405 . S
C444 H470 0.930 . S
C445 C440 1.479 . S
C445 C444 1.405 . S
C445 H471 0.931 . S
U446 O447 2.454 . S
U446 O448 2.458 . S
U446 C449 2.984 . S
U446 C450 2.847 . S
U446 C463 2.882 . S
U446 O464 2.441 . S
U446 O465 2.420 . S
U446 O466 2.455 . S
U446 O467 2.449 . S
O447 U446 2.454 . S
O447 C449 1.353 . S
O448 U446 2.458 . S
O448 C449 1.286 . S
C449 U446 2.984 . S
C449 O447 1.353 . S
C449 O448 1.286 . S
C449 C451 1.363 . S
C450 C440 1.465 . S
C450 U446 2.847 . S
C450 O464 1.249 . S
C450 O465 1.202 . S
C451 C449 1.363 . S
C451 C453 1.408 . S
C451 C456 1.342 . S
C452 C453 1.310 . S
C452 C455 1.461 . S
C452 H472 0.932 . S
C453 C451 1.408 . S
C453 C452 1.310 . S
C453 H473 0.930 . S
C454 C455 1.474 . S
C454 C456 1.285 . S
C454 H474 0.929 . S
C455 C452 1.461 . S
C455 C454 1.474 . S
C456 C451 1.342 . S
C456 C454 1.285 . S
C456 H475 0.930 . S
C457 C460 1.424 . S
C457 C462 1.245 . S
C457 C463 1.428 . S
C458 C461 1.260 . S
C458 C462 1.477 . S
C458 H476 0.932 . S
C459 C460 1.384 . S
C459 C461 1.479 . S
C459 H477 0.929 . S
C460 C457 1.424 . S
C460 C459 1.384 . S
C460 H478 0.928 . S
C461 C458 1.260 . S
C461 C459 1.479 . S
C462 C457 1.245 . S
C462 C458 1.477 . S
C462 H479 0.932 . S
C463 U446 2.882 . S
C463 C457 1.428 . S
C463 O466 1.301 . S
C463 O467 1.282 . S
O464 U446 2.441 . S
O464 C450 1.249 . S
O465 U446 2.420 . S
O465 C450 1.202 . S
O466 U446 2.455 . S
O466 C463 1.301 . S
O467 U446 2.449 . S
O467 C463 1.282 . S
H468 C441 0.931 . S
H469 C443 0.929 . S
H470 C444 0.930 . S
H471 C445 0.931 . S
H472 C452 0.932 . S
H473 C453 0.930 . S
H474 C454 0.929 . S
H475 C456 0.930 . S
H476 C458 0.932 . S
H477 C459 0.929 . S
H478 C460 0.928 . S
H479 C462 0.932 . S
C480 C481 1.264 . S
C480 C485 1.479 . S
C480 C490 1.465 . S
C481 C480 1.264 . S
C481 C483 1.339 . S
C481 H508 0.931 . S
C482 C483 1.395 . S
C482 C484 1.320 . S
C483 C481 1.339 . S
C483 C482 1.395 . S
C483 H509 0.929 . S
C484 C482 1.320 . S
C484 C485 1.405 . S
C484 H510 0.930 . S
C485 C480 1.479 . S
C485 C484 1.405 . S
C485 H511 0.931 . S
U486 O487 2.454 . S
U486 O488 2.458 . S
U486 C489 2.984 . S
U486 C490 2.847 . S
U486 C503 2.882 . S
U486 O504 2.441 . S
U486 O505 2.420 . S
U486 O506 2.455 . S
U486 O507 2.449 . S
O487 U486 2.454 . S
O487 C489 1.353 . S
O488 U486 2.458 . S
O488 C489 1.286 . S
C489 U486 2.984 . S
C489 O487 1.353 . S
C489 O488 1.286 . S
C489 C491 1.363 . S
C490 C480 1.465 . S
C490 U486 2.847 . S
C490 O504 1.249 . S
C490 O505 1.202 . S
C491 C489 1.363 . S
C491 C493 1.408 . S
C491 C496 1.342 . S
C492 C493 1.310 . S
C492 C495 1.461 . S
C492 H512 0.932 . S
C493 C491 1.408 . S
C493 C492 1.310 . S
C493 H513 0.930 . S
C494 C495 1.474 . S
C494 C496 1.285 . S
C494 H514 0.929 . S
C495 C492 1.461 . S
C495 C494 1.474 . S
C496 C491 1.342 . S
C496 C494 1.285 . S
C496 H515 0.930 . S
C497 C500 1.424 . S
C497 C502 1.245 . S
C497 C503 1.428 . S
C498 C501 1.260 . S
C498 C502 1.477 . S
C498 H516 0.932 . S
C499 C500 1.384 . S
C499 C501 1.479 . S
C499 H517 0.929 . S
C500 C497 1.424 . S
C500 C499 1.384 . S
C500 H518 0.928 . S
C501 C498 1.260 . S
C501 C499 1.479 . S
C502 C497 1.245 . S
C502 C498 1.477 . S
C502 H519 0.932 . S
C503 U486 2.882 . S
C503 C497 1.428 . S
C503 O506 1.301 . S
C503 O507 1.282 . S
O504 U486 2.441 . S
O504 C490 1.249 . S
O505 U486 2.420 . S
O505 C490 1.202 . S
O506 U486 2.455 . S
O506 C503 1.301 . S
O507 U486 2.449 . S
O507 C503 1.282 . S
H508 C481 0.931 . S
H509 C483 0.929 . S
H510 C484 0.930 . S
H511 C485 0.931 . S
H512 C492 0.932 . S
H513 C493 0.930 . S
H514 C494 0.929 . S
H515 C496 0.930 . S
H516 C498 0.932 . S
H517 C499 0.929 . S
H518 C500 0.928 . S
H519 C502 0.932 . S
C520 C521 1.264 . S
C520 C525 1.479 . S
C520 C530 1.465 . S
C521 C520 1.264 . S
C521 C523 1.339 . S
C521 H548 0.931 . S
C522 C523 1.395 . S
C522 C524 1.320 . S
C523 C521 1.339 . S
C523 C522 1.395 . S
C523 H549 0.929 . S
C524 C522 1.320 . S
C524 C525 1.405 . S
C524 H550 0.930 . S
C525 C520 1.479 . S
C525 C524 1.405 . S
C525 H551 0.931 . S
U526 O527 2.454 . S
U526 O528 2.458 . S
U526 C529 2.984 . S
U526 C530 2.847 . S
U526 C543 2.882 . S
U526 O544 2.441 . S
U526 O545 2.420 . S
U526 O546 2.455 . S
U526 O547 2.449 . S
O527 U526 2.454 . S
O527 C529 1.353 . S
O528 U526 2.458 . S
O528 C529 1.286 . S
C529 U526 2.984 . S
C529 O527 1.353 . S
C529 O528 1.286 . S
C529 C531 1.363 . S
C530 C520 1.465 . S
C530 U526 2.847 . S
C530 O544 1.249 . S
C530 O545 1.202 . S
C531 C529 1.363 . S
C531 C533 1.408 . S
C531 C536 1.342 . S
C532 C533 1.310 . S
C532 C535 1.461 . S
C532 H552 0.932 . S
C533 C531 1.408 . S
C533 C532 1.310 . S
C533 H553 0.930 . S
C534 C535 1.474 . S
C534 C536 1.285 . S
C534 H554 0.929 . S
C535 C532 1.461 . S
C535 C534 1.474 . S
C536 C531 1.342 . S
C536 C534 1.285 . S
C536 H555 0.930 . S
C537 C540 1.424 . S
C537 C542 1.245 . S
C537 C543 1.428 . S
C538 C541 1.260 . S
C538 C542 1.477 . S
C538 H556 0.932 . S
C539 C540 1.384 . S
C539 C541 1.479 . S
C539 H557 0.929 . S
C540 C537 1.424 . S
C540 C539 1.384 . S
C540 H558 0.928 . S
C541 C538 1.260 . S
C541 C539 1.479 . S
C542 C537 1.245 . S
C542 C538 1.477 . S
C542 H559 0.932 . S
C543 U526 2.882 . S
C543 C537 1.428 . S
C543 O546 1.301 . S
C543 O547 1.282 . S
O544 U526 2.441 . S
O544 C530 1.249 . S
O545 U526 2.420 . S
O545 C530 1.202 . S
O546 U526 2.455 . S
O546 C543 1.301 . S
O547 U526 2.449 . S
O547 C543 1.282 . S
H548 C521 0.931 . S
H549 C523 0.929 . S
H550 C524 0.930 . S
H551 C525 0.931 . S
H552 C532 0.932 . S
H553 C533 0.930 . S
H554 C534 0.929 . S
H555 C536 0.930 . S
H556 C538 0.932 . S
H557 C539 0.929 . S
H558 C540 0.928 . S
H559 C542 0.932 . S
C560 C561 1.264 . S
C560 C565 1.479 . S
C560 C570 1.465 . S
C561 C560 1.264 . S
C561 C563 1.339 . S
C561 H588 0.931 . S
C562 C563 1.395 . S
C562 C564 1.320 . S
C563 C561 1.339 . S
C563 C562 1.395 . S
C563 H589 0.929 . S
C564 C562 1.320 . S
C564 C565 1.405 . S
C564 H590 0.930 . S
C565 C560 1.479 . S
C565 C564 1.405 . S
C565 H591 0.931 . S
U566 O567 2.454 . S
U566 O568 2.458 . S
U566 C569 2.984 . S
U566 C570 2.847 . S
U566 C583 2.882 . S
U566 O584 2.441 . S
U566 O585 2.420 . S
U566 O586 2.455 . S
U566 O587 2.449 . S
O567 U566 2.454 . S
O567 C569 1.353 . S
O568 U566 2.458 . S
O568 C569 1.286 . S
C569 U566 2.984 . S
C569 O567 1.353 . S
C569 O568 1.286 . S
C569 C571 1.363 . S
C570 C560 1.465 . S
C570 U566 2.847 . S
C570 O584 1.249 . S
C570 O585 1.202 . S
C571 C569 1.363 . S
C571 C573 1.408 . S
C571 C576 1.342 . S
C572 C573 1.310 . S
C572 C575 1.461 . S
C572 H592 0.932 . S
C573 C571 1.408 . S
C573 C572 1.310 . S
C573 H593 0.930 . S
C574 C575 1.474 . S
C574 C576 1.285 . S
C574 H594 0.929 . S
C575 C572 1.461 . S
C575 C574 1.474 . S
C576 C571 1.342 . S
C576 C574 1.285 . S
C576 H595 0.930 . S
C577 C580 1.424 . S
C577 C582 1.245 . S
C577 C583 1.428 . S
C578 C581 1.260 . S
C578 C582 1.477 . S
C578 H596 0.932 . S
C579 C580 1.384 . S
C579 C581 1.479 . S
C579 H597 0.929 . S
C580 C577 1.424 . S
C580 C579 1.384 . S
C580 H598 0.928 . S
C581 C578 1.260 . S
C581 C579 1.479 . S
C582 C577 1.245 . S
C582 C578 1.477 . S
C582 H599 0.932 . S
C583 U566 2.882 . S
C583 C577 1.428 . S
C583 O586 1.301 . S
C583 O587 1.282 . S
O584 U566 2.441 . S
O584 C570 1.249 . S
O585 U566 2.420 . S
O585 C570 1.202 . S
O586 U566 2.455 . S
O586 C583 1.301 . S
O587 U566 2.449 . S
O587 C583 1.282 . S
H588 C561 0.931 . S
H589 C563 0.929 . S
H590 C564 0.930 . S
H591 C565 0.931 . S
H592 C572 0.932 . S
H593 C573 0.930 . S
H594 C574 0.929 . S
H595 C576 0.930 . S
H596 C578 0.932 . S
H597 C579 0.929 . S
H598 C580 0.928 . S
H599 C582 0.932 . S
C600 C601 1.264 . S
C600 C605 1.479 . S
C600 C610 1.465 . S
C601 C600 1.264 . S
C601 C603 1.339 . S
C601 H628 0.931 . S
C602 C603 1.395 . S
C602 C604 1.320 . S
C603 C601 1.339 . S
C603 C602 1.395 . S
C603 H629 0.929 . S
C604 C602 1.320 . S
C604 C605 1.405 . S
C604 H630 0.930 . S
C605 C600 1.479 . S
C605 C604 1.405 . S
C605 H631 0.931 . S
U606 O607 2.454 . S
U606 O608 2.458 . S
U606 C609 2.984 . S
U606 C610 2.847 . S
U606 C623 2.882 . S
U606 O624 2.441 . S
U606 O625 2.420 . S
U606 O626 2.455 . S
U606 O627 2.449 . S
O607 U606 2.454 . S
O607 C609 1.353 . S
O608 U606 2.458 . S
O608 C609 1.286 . S
C609 U606 2.984 . S
C609 O607 1.353 . S
C609 O608 1.286 . S
C609 C611 1.363 . S
C610 C600 1.465 . S
C610 U606 2.847 . S
C610 O624 1.249 . S
C610 O625 1.202 . S
C611 C609 1.363 . S
C611 C613 1.408 . S
C611 C616 1.342 . S
C612 C613 1.310 . S
C612 C615 1.461 . S
C612 H632 0.932 . S
C613 C611 1.408 . S
C613 C612 1.310 . S
C613 H633 0.930 . S
C614 C615 1.474 . S
C614 C616 1.285 . S
C614 H634 0.929 . S
C615 C612 1.461 . S
C615 C614 1.474 . S
C616 C611 1.342 . S
C616 C614 1.285 . S
C616 H635 0.930 . S
C617 C620 1.424 . S
C617 C622 1.245 . S
C617 C623 1.428 . S
C618 C621 1.260 . S
C618 C622 1.477 . S
C618 H636 0.932 . S
C619 C620 1.384 . S
C619 C621 1.479 . S
C619 H637 0.929 . S
C620 C617 1.424 . S
C620 C619 1.384 . S
C620 H638 0.928 . S
C621 C618 1.260 . S
C621 C619 1.479 . S
C622 C617 1.245 . S
C622 C618 1.477 . S
C622 H639 0.932 . S
C623 U606 2.882 . S
C623 C617 1.428 . S
C623 O626 1.301 . S
C623 O627 1.282 . S
O624 U606 2.441 . S
O624 C610 1.249 . S
O625 U606 2.420 . S
O625 C610 1.202 . S
O626 U606 2.455 . S
O626 C623 1.301 . S
O627 U606 2.449 . S
O627 C623 1.282 . S
H628 C601 0.931 . S
H629 C603 0.929 . S
H630 C604 0.930 . S
H631 C605 0.931 . S
H632 C612 0.932 . S
H633 C613 0.930 . S
H634 C614 0.929 . S
H635 C616 0.930 . S
H636 C618 0.932 . S
H637 C619 0.929 . S
H638 C620 0.928 . S
H639 C622 0.932 . S
C640 C641 1.264 . S
C640 C645 1.479 . S
C640 C650 1.465 . S
C641 C640 1.264 . S
C641 C643 1.339 . S
C641 H668 0.931 . S
C642 C643 1.395 . S
C642 C644 1.320 . S
C643 C641 1.339 . S
C643 C642 1.395 . S
C643 H669 0.929 . S
C644 C642 1.320 . S
C644 C645 1.405 . S
C644 H670 0.930 . S
C645 C640 1.479 . S
C645 C644 1.405 . S
C645 H671 0.931 . S
U646 O647 2.454 . S
U646 O648 2.458 . S
U646 C649 2.984 . S
U646 C650 2.847 . S
U646 C663 2.882 . S
U646 O664 2.441 . S
U646 O665 2.420 . S
U646 O666 2.455 . S
U646 O667 2.449 . S
O647 U646 2.454 . S
O647 C649 1.353 . S
O648 U646 2.458 . S
O648 C649 1.286 . S
C649 U646 2.984 . S
C649 O647 1.353 . S
C649 O648 1.286 . S
C649 C651 1.363 . S
C650 C640 1.465 . S
C650 U646 2.847 . S
C650 O664 1.249 . S
C650 O665 1.202 . S
C651 C649 1.363 . S
C651 C653 1.408 . S
C651 C656 1.342 . S
C652 C653 1.310 . S
C652 C655 1.461 . S
C652 H672 0.932 . S
C653 C651 1.408 . S
C653 C652 1.310 . S
C653 H673 0.930 . S
C654 C655 1.474 . S
C654 C656 1.285 . S
C654 H674 0.929 . S
C655 C652 1.461 . S
C655 C654 1.474 . S
C656 C651 1.342 . S
C656 C654 1.285 . S
C656 H675 0.930 . S
C657 C660 1.424 . S
C657 C662 1.245 . S
C657 C663 1.428 . S
C658 C661 1.260 . S
C658 C662 1.477 . S
C658 H676 0.932 . S
C659 C660 1.384 . S
C659 C661 1.479 . S
C659 H677 0.929 . S
C660 C657 1.424 . S
C660 C659 1.384 . S
C660 H678 0.928 . S
C661 C658 1.260 . S
C661 C659 1.479 . S
C662 C657 1.245 . S
C662 C658 1.477 . S
C662 H679 0.932 . S
C663 U646 2.882 . S
C663 C657 1.428 . S
C663 O666 1.301 . S
C663 O667 1.282 . S
O664 U646 2.441 . S
O664 C650 1.249 . S
O665 U646 2.420 . S
O665 C650 1.202 . S
O666 U646 2.455 . S
O666 C663 1.301 . S
O667 U646 2.449 . S
O667 C663 1.282 . S
H668 C641 0.931 . S
H669 C643 0.929 . S
H670 C644 0.930 . S
H671 C645 0.931 . S
H672 C652 0.932 . S
H673 C653 0.930 . S
H674 C654 0.929 . S
H675 C656 0.930 . S
H676 C658 0.932 . S
H677 C659 0.929 . S
H678 C660 0.928 . S
H679 C662 0.932 . S
C680 C681 1.264 . S
C680 C685 1.479 . S
C680 C690 1.465 . S
C681 C680 1.264 . S
C681 C683 1.339 . S
C681 H708 0.931 . S
C682 C683 1.395 . S
C682 C684 1.320 . S
C683 C681 1.339 . S
C683 C682 1.395 . S
C683 H709 0.929 . S
C684 C682 1.320 . S
C684 C685 1.405 . S
C684 H710 0.930 . S
C685 C680 1.479 . S
C685 C684 1.405 . S
C685 H711 0.931 . S
U686 O687 2.454 . S
U686 O688 2.458 . S
U686 C689 2.984 . S
U686 C690 2.847 . S
U686 C703 2.882 . S
U686 O704 2.441 . S
U686 O705 2.420 . S
U686 O706 2.455 . S
U686 O707 2.449 . S
O687 U686 2.454 . S
O687 C689 1.353 . S
O688 U686 2.458 . S
O688 C689 1.286 . S
C689 U686 2.984 . S
C689 O687 1.353 . S
C689 O688 1.286 . S
C689 C691 1.363 . S
C690 C680 1.465 . S
C690 U686 2.847 . S
C690 O704 1.249 . S
C690 O705 1.202 . S
C691 C689 1.363 . S
C691 C693 1.408 . S
C691 C696 1.342 . S
C692 C693 1.310 . S
C692 C695 1.461 . S
C692 H712 0.932 . S
C693 C691 1.408 . S
C693 C692 1.310 . S
C693 H713 0.930 . S
C694 C695 1.474 . S
C694 C696 1.285 . S
C694 H714 0.929 . S
C695 C692 1.461 . S
C695 C694 1.474 . S
C696 C691 1.342 . S
C696 C694 1.285 . S
C696 H715 0.930 . S
C697 C700 1.424 . S
C697 C702 1.245 . S
C697 C703 1.428 . S
C698 C701 1.260 . S
C698 C702 1.477 . S
C698 H716 0.932 . S
C699 C700 1.384 . S
C699 C701 1.479 . S
C699 H717 0.929 . S
C700 C697 1.424 . S
C700 C699 1.384 . S
C700 H718 0.928 . S
C701 C698 1.260 . S
C701 C699 1.479 . S
C702 C697 1.245 . S
C702 C698 1.477 . S
C702 H719 0.932 . S
C703 U686 2.882 . S
C703 C697 1.428 . S
C703 O706 1.301 . S
C703 O707 1.282 . S
O704 U686 2.441 . S
O704 C690 1.249 . S
O705 U686 2.420 . S
O705 C690 1.202 . S
O706 U686 2.455 . S
O706 C703 1.301 . S
O707 U686 2.449 . S
O707 C703 1.282 . S
H708 C681 0.931 . S
H709 C683 0.929 . S
H710 C684 0.930 . S
H711 C685 0.931 . S
H712 C692 0.932 . S
H713 C693 0.930 . S
H714 C694 0.929 . S
H715 C696 0.930 . S
H716 C698 0.932 . S
H717 C699 0.929 . S
H718 C700 0.928 . S
H719 C702 0.932 . S
C720 C721 1.264 . S
C720 C725 1.479 . S
C720 C730 1.465 . S
C721 C720 1.264 . S
C721 C723 1.339 . S
C721 H748 0.931 . S
C722 C723 1.395 . S
C722 C724 1.320 . S
C723 C721 1.339 . S
C723 C722 1.395 . S
C723 H749 0.929 . S
C724 C722 1.320 . S
C724 C725 1.405 . S
C724 H750 0.930 . S
C725 C720 1.479 . S
C725 C724 1.405 . S
C725 H751 0.931 . S
U726 O727 2.454 . S
U726 O728 2.458 . S
U726 C729 2.984 . S
U726 C730 2.847 . S
U726 C743 2.882 . S
U726 O744 2.441 . S
U726 O745 2.420 . S
U726 O746 2.455 . S
U726 O747 2.449 . S
O727 U726 2.454 . S
O727 C729 1.353 . S
O728 U726 2.458 . S
O728 C729 1.286 . S
C729 U726 2.984 . S
C729 O727 1.353 . S
C729 O728 1.286 . S
C729 C731 1.363 . S
C730 C720 1.465 . S
C730 U726 2.847 . S
C730 O744 1.249 . S
C730 O745 1.202 . S
C731 C729 1.363 . S
C731 C733 1.408 . S
C731 C736 1.342 . S
C732 C733 1.310 . S
C732 C735 1.461 . S
C732 H752 0.932 . S
C733 C731 1.408 . S
C733 C732 1.310 . S
C733 H753 0.930 . S
C734 C735 1.474 . S
C734 C736 1.285 . S
C734 H754 0.929 . S
C735 C732 1.461 . S
C735 C734 1.474 . S
C736 C731 1.342 . S
C736 C734 1.285 . S
C736 H755 0.930 . S
C737 C740 1.424 . S
C737 C742 1.245 . S
C737 C743 1.428 . S
C738 C741 1.260 . S
C738 C742 1.477 . S
C738 H756 0.932 . S
C739 C740 1.384 . S
C739 C741 1.479 . S
C739 H757 0.929 . S
C740 C737 1.424 . S
C740 C739 1.384 . S
C740 H758 0.928 . S
C741 C738 1.260 . S
C741 C739 1.479 . S
C742 C737 1.245 . S
C742 C738 1.477 . S
C742 H759 0.932 . S
C743 U726 2.882 . S
C743 C737 1.428 . S
C743 O746 1.301 . S
C743 O747 1.282 . S
O744 U726 2.441 . S
O744 C730 1.249 . S
O745 U726 2.420 . S
O745 C730 1.202 . S
O746 U726 2.455 . S
O746 C743 1.301 . S
O747 U726 2.449 . S
O747 C743 1.282 . S
H748 C721 0.931 . S
H749 C723 0.929 . S
H750 C724 0.930 . S
H751 C725 0.931 . S
H752 C732 0.932 . S
H753 C733 0.930 . S
H754 C734 0.929 . S
H755 C736 0.930 . S
H756 C738 0.932 . S
H757 C739 0.929 . S
H758 C740 0.928 . S
H759 C742 0.932 . S
C760 C761 1.264 . S
C760 C765 1.479 . S
C760 C770 1.465 . S
C761 C760 1.264 . S
C761 C763 1.339 . S
C761 H788 0.931 . S
C762 C763 1.395 . S
C762 C764 1.320 . S
C763 C761 1.339 . S
C763 C762 1.395 . S
C763 H789 0.929 . S
C764 C762 1.320 . S
C764 C765 1.405 . S
C764 H790 0.930 . S
C765 C760 1.479 . S
C765 C764 1.405 . S
C765 H791 0.931 . S
U766 O767 2.454 . S
U766 O768 2.458 . S
U766 C769 2.984 . S
U766 C770 2.847 . S
U766 C783 2.882 . S
U766 O784 2.441 . S
U766 O785 2.420 . S
U766 O786 2.455 . S
U766 O787 2.449 . S
O767 U766 2.454 . S
O767 C769 1.353 . S
O768 U766 2.458 . S
O768 C769 1.286 . S
C769 U766 2.984 . S
C769 O767 1.353 . S
C769 O768 1.286 . S
C769 C771 1.363 . S
C770 C760 1.465 . S
C770 U766 2.847 . S
C770 O784 1.249 . S
C770 O785 1.202 . S
C771 C769 1.363 . S
C771 C773 1.408 . S
C771 C776 1.342 . S
C772 C773 1.310 . S
C772 C775 1.461 . S
C772 H792 0.932 . S
C773 C771 1.408 . S
C773 C772 1.310 . S
C773 H793 0.930 . S
C774 C775 1.474 . S
C774 C776 1.285 . S
C774 H794 0.929 . S
C775 C772 1.461 . S
C775 C774 1.474 . S
C776 C771 1.342 . S
C776 C774 1.285 . S
C776 H795 0.930 . S
C777 C780 1.424 . S
C777 C782 1.245 . S
C777 C783 1.428 . S
C778 C781 1.260 . S
C778 C782 1.477 . S
C778 H796 0.932 . S
C779 C780 1.384 . S
C779 C781 1.479 . S
C779 H797 0.929 . S
C780 C777 1.424 . S
C780 C779 1.384 . S
C780 H798 0.928 . S
C781 C778 1.260 . S
C781 C779 1.479 . S
C782 C777 1.245 . S
C782 C778 1.477 . S
C782 H799 0.932 . S
C783 U766 2.882 . S
C783 C777 1.428 . S
C783 O786 1.301 . S
C783 O787 1.282 . S
O784 U766 2.441 . S
O784 C770 1.249 . S
O785 U766 2.420 . S
O785 C770 1.202 . S
O786 U766 2.455 . S
O786 C783 1.301 . S
O787 U766 2.449 . S
O787 C783 1.282 . S
H788 C761 0.931 . S
H789 C763 0.929 . S
H790 C764 0.930 . S
H791 C765 0.931 . S
H792 C772 0.932 . S
H793 C773 0.930 . S
H794 C774 0.929 . S
H795 C776 0.930 . S
H796 C778 0.932 . S
H797 C779 0.929 . S
H798 C780 0.928 . S
H799 C782 0.932 . S
C800 C801 1.264 . S
C800 C805 1.479 . S
C800 C810 1.465 . S
C801 C800 1.264 . S
C801 C803 1.339 . S
C801 H828 0.931 . S
C802 C803 1.395 . S
C802 C804 1.320 . S
C803 C801 1.339 . S
C803 C802 1.395 . S
C803 H829 0.929 . S
C804 C802 1.320 . S
C804 C805 1.405 . S
C804 H830 0.930 . S
C805 C800 1.479 . S
C805 C804 1.405 . S
C805 H831 0.931 . S
U806 O807 2.454 . S
U806 O808 2.458 . S
U806 C809 2.984 . S
U806 C810 2.847 . S
U806 C823 2.882 . S
U806 O824 2.441 . S
U806 O825 2.420 . S
U806 O826 2.455 . S
U806 O827 2.449 . S
O807 U806 2.454 . S
O807 C809 1.353 . S
O808 U806 2.458 . S
O808 C809 1.286 . S
C809 U806 2.984 . S
C809 O807 1.353 . S
C809 O808 1.286 . S
C809 C811 1.363 . S
C810 C800 1.465 . S
C810 U806 2.847 . S
C810 O824 1.249 . S
C810 O825 1.202 . S
C811 C809 1.363 . S
C811 C813 1.408 . S
C811 C816 1.342 . S
C812 C813 1.310 . S
C812 C815 1.461 . S
C812 H832 0.932 . S
C813 C811 1.408 . S
C813 C812 1.310 . S
C813 H833 0.930 . S
C814 C815 1.474 . S
C814 C816 1.285 . S
C814 H834 0.929 . S
C815 C812 1.461 . S
C815 C814 1.474 . S
C816 C811 1.342 . S
C816 C814 1.285 . S
C816 H835 0.930 . S
C817 C820 1.424 . S
C817 C822 1.245 . S
C817 C823 1.428 . S
C818 C821 1.260 . S
C818 C822 1.477 . S
C818 H836 0.932 . S
C819 C820 1.384 . S
C819 C821 1.479 . S
C819 H837 0.929 . S
C820 C817 1.424 . S
C820 C819 1.384 . S
C820 H838 0.928 . S
C821 C818 1.260 . S
C821 C819 1.479 . S
C822 C817 1.245 . S
C822 C818 1.477 . S
C822 H839 0.932 . S
C823 U806 2.882 . S
C823 C817 1.428 . S
C823 O826 1.301 . S
C823 O827 1.282 . S
O824 U806 2.441 . S
O824 C810 1.249 . S
O825 U806 2.420 . S
O825 C810 1.202 . S
O826 U806 2.455 . S
O826 C823 1.301 . S
O827 U806 2.449 . S
O827 C823 1.282 . S
H828 C801 0.931 . S
H829 C803 0.929 . S
H830 C804 0.930 . S
H831 C805 0.931 . S
H832 C812 0.932 . S
H833 C813 0.930 . S
H834 C814 0.929 . S
H835 C816 0.930 . S
H836 C818 0.932 . S
H837 C819 0.929 . S
H838 C820 0.928 . S
H839 C822 0.932 . S
C840 C841 1.264 . S
C840 C845 1.479 . S
C840 C850 1.465 . S
C841 C840 1.264 . S
C841 C843 1.339 . S
C841 H868 0.931 . S
C842 C843 1.395 . S
C842 C844 1.320 . S
C843 C841 1.339 . S
C843 C842 1.395 . S
C843 H869 0.929 . S
C844 C842 1.320 . S
C844 C845 1.405 . S
C844 H870 0.930 . S
C845 C840 1.479 . S
C845 C844 1.405 . S
C845 H871 0.931 . S
U846 O847 2.454 . S
U846 O848 2.458 . S
U846 C849 2.984 . S
U846 C850 2.847 . S
U846 C863 2.882 . S
U846 O864 2.441 . S
U846 O865 2.420 . S
U846 O866 2.455 . S
U846 O867 2.449 . S
O847 U846 2.454 . S
O847 C849 1.353 . S
O848 U846 2.458 . S
O848 C849 1.286 . S
C849 U846 2.984 . S
C849 O847 1.353 . S
C849 O848 1.286 . S
C849 C851 1.363 . S
C850 C840 1.465 . S
C850 U846 2.847 . S
C850 O864 1.249 . S
C850 O865 1.202 . S
C851 C849 1.363 . S
C851 C853 1.408 . S
C851 C856 1.342 . S
C852 C853 1.310 . S
C852 C855 1.461 . S
C852 H872 0.932 . S
C853 C851 1.408 . S
C853 C852 1.310 . S
C853 H873 0.930 . S
C854 C855 1.474 . S
C854 C856 1.285 . S
C854 H874 0.929 . S
C855 C852 1.461 . S
C855 C854 1.474 . S
C856 C851 1.342 . S
C856 C854 1.285 . S
C856 H875 0.930 . S
C857 C860 1.424 . S
C857 C862 1.245 . S
C857 C863 1.428 . S
C858 C861 1.260 . S
C858 C862 1.477 . S
C858 H876 0.932 . S
C859 C860 1.384 . S
C859 C861 1.479 . S
C859 H877 0.929 . S
C860 C857 1.424 . S
C860 C859 1.384 . S
C860 H878 0.928 . S
C861 C858 1.260 . S
C861 C859 1.479 . S
C862 C857 1.245 . S
C862 C858 1.477 . S
C862 H879 0.932 . S
C863 U846 2.882 . S
C863 C857 1.428 . S
C863 O866 1.301 . S
C863 O867 1.282 . S
O864 U846 2.441 . S
O864 C850 1.249 . S
O865 U846 2.420 . S
O865 C850 1.202 . S
O866 U846 2.455 . S
O866 C863 1.301 . S
O867 U846 2.449 . S
O867 C863 1.282 . S
H868 C841 0.931 . S
H869 C843 0.929 . S
H870 C844 0.930 . S
H871 C845 0.931 . S
H872 C852 0.932 . S
H873 C853 0.930 . S
H874 C854 0.929 . S
H875 C856 0.930 . S
H876 C858 0.932 . S
H877 C859 0.929 . S
H878 C860 0.928 . S
H879 C862 0.932 . S
C880 C881 1.264 . S
C880 C885 1.479 . S
C880 C890 1.465 . S
C881 C880 1.264 . S
C881 C883 1.339 . S
C881 H908 0.931 . S
C882 C883 1.395 . S
C882 C884 1.320 . S
C883 C881 1.339 . S
C883 C882 1.395 . S
C883 H909 0.929 . S
C884 C882 1.320 . S
C884 C885 1.405 . S
C884 H910 0.930 . S
C885 C880 1.479 . S
C885 C884 1.405 . S
C885 H911 0.931 . S
U886 O887 2.454 . S
U886 O888 2.458 . S
U886 C889 2.984 . S
U886 C890 2.847 . S
U886 C903 2.882 . S
U886 O904 2.441 . S
U886 O905 2.420 . S
U886 O906 2.455 . S
U886 O907 2.449 . S
O887 U886 2.454 . S
O887 C889 1.353 . S
O888 U886 2.458 . S
O888 C889 1.286 . S
C889 U886 2.984 . S
C889 O887 1.353 . S
C889 O888 1.286 . S
C889 C891 1.363 . S
C890 C880 1.465 . S
C890 U886 2.847 . S
C890 O904 1.249 . S
C890 O905 1.202 . S
C891 C889 1.363 . S
C891 C893 1.408 . S
C891 C896 1.342 . S
C892 C893 1.310 . S
C892 C895 1.461 . S
C892 H912 0.932 . S
C893 C891 1.408 . S
C893 C892 1.310 . S
C893 H913 0.930 . S
C894 C895 1.474 . S
C894 C896 1.285 . S
C894 H914 0.929 . S
C895 C892 1.461 . S
C895 C894 1.474 . S
C896 C891 1.342 . S
C896 C894 1.285 . S
C896 H915 0.930 . S
C897 C900 1.424 . S
C897 C902 1.245 . S
C897 C903 1.428 . S
C898 C901 1.260 . S
C898 C902 1.477 . S
C898 H916 0.932 . S
C899 C900 1.384 . S
C899 C901 1.479 . S
C899 H917 0.929 . S
C900 C897 1.424 . S
C900 C899 1.384 . S
C900 H918 0.928 . S
C901 C898 1.260 . S
C901 C899 1.479 . S
C902 C897 1.245 . S
C902 C898 1.477 . S
C902 H919 0.932 . S
C903 U886 2.882 . S
C903 C897 1.428 . S
C903 O906 1.301 . S
C903 O907 1.282 . S
O904 U886 2.441 . S
O904 C890 1.249 . S
O905 U886 2.420 . S
O905 C890 1.202 . S
O906 U886 2.455 . S
O906 C903 1.301 . S
O907 U886 2.449 . S
O907 C903 1.282 . S
H908 C881 0.931 . S
H909 C883 0.929 . S
H910 C884 0.930 . S
H911 C885 0.931 . S
H912 C892 0.932 . S
H913 C893 0.930 . S
H914 C894 0.929 . S
H915 C896 0.930 . S
H916 C898 0.932 . S
H917 C899 0.929 . S
H918 C900 0.928 . S
H919 C902 0.932 . S
C920 C921 1.264 . S
C920 C925 1.479 . S
C920 C930 1.465 . S
C921 C920 1.264 . S
C921 C923 1.339 . S
C921 H948 0.931 . S
C922 C923 1.395 . S
C922 C924 1.320 . S
C923 C921 1.339 . S
C923 C922 1.395 . S
C923 H949 0.929 . S
C924 C922 1.320 . S
C924 C925 1.405 . S
C924 H950 0.930 . S
C925 C920 1.479 . S
C925 C924 1.405 . S
C925 H951 0.931 . S
U926 O927 2.454 . S
U926 O928 2.458 . S
U926 C929 2.984 . S
U926 C930 2.847 . S
U926 C943 2.882 . S
U926 O944 2.441 . S
U926 O945 2.420 . S
U926 O946 2.455 . S
U926 O947 2.449 . S
O927 U926 2.454 . S
O927 C929 1.353 . S
O928 U926 2.458 . S
O928 C929 1.286 . S
C929 U926 2.984 . S
C929 O927 1.353 . S
C929 O928 1.286 . S
C929 C931 1.363 . S
C930 C920 1.465 . S
C930 U926 2.847 . S
C930 O944 1.249 . S
C930 O945 1.202 . S
C931 C929 1.363 . S
C931 C933 1.408 . S
C931 C936 1.342 . S
C932 C933 1.310 . S
C932 C935 1.461 . S
C932 H952 0.932 . S
C933 C931 1.408 . S
C933 C932 1.310 . S
C933 H953 0.930 . S
C934 C935 1.474 . S
C934 C936 1.285 . S
C934 H954 0.929 . S
C935 C932 1.461 . S
C935 C934 1.474 . S
C936 C931 1.342 . S
C936 C934 1.285 . S
C936 H955 0.930 . S
C937 C940 1.424 . S
C937 C942 1.245 . S
C937 C943 1.428 . S
C938 C941 1.260 . S
C938 C942 1.477 . S
C938 H956 0.932 . S
C939 C940 1.384 . S
C939 C941 1.479 . S
C939 H957 0.929 . S
C940 C937 1.424 . S
C940 C939 1.384 . S
C940 H958 0.928 . S
C941 C938 1.260 . S
C941 C939 1.479 . S
C942 C937 1.245 . S
C942 C938 1.477 . S
C942 H959 0.932 . S
C943 U926 2.882 . S
C943 C937 1.428 . S
C943 O946 1.301 . S
C943 O947 1.282 . S
O944 U926 2.441 . S
O944 C930 1.249 . S
O945 U926 2.420 . S
O945 C930 1.202 . S
O946 U926 2.455 . S
O946 C943 1.301 . S
O947 U926 2.449 . S
O947 C943 1.282 . S
H948 C921 0.931 . S
H949 C923 0.929 . S
H950 C924 0.930 . S
H951 C925 0.931 . S
H952 C932 0.932 . S
H953 C933 0.930 . S
H954 C934 0.929 . S
H955 C936 0.930 . S
H956 C938 0.932 . S
H957 C939 0.929 . S
H958 C940 0.928 . S
H959 C942 0.932 . S
C960 C961 1.264 . S
C960 C965 1.479 . S
C960 C970 1.465 . S
C961 C960 1.264 . S
C961 C963 1.339 . S
C961 H988 0.931 . S
C962 C963 1.395 . S
C962 C964 1.320 . S
C963 C961 1.339 . S
C963 C962 1.395 . S
C963 H989 0.929 . S
C964 C962 1.320 . S
C964 C965 1.405 . S
C964 H990 0.930 . S
C965 C960 1.479 . S
C965 C964 1.405 . S
C965 H991 0.931 . S
U966 O967 2.454 . S
U966 O968 2.458 . S
U966 C969 2.984 . S
U966 C970 2.847 . S
U966 C983 2.882 . S
U966 O984 2.441 . S
U966 O985 2.420 . S
U966 O986 2.455 . S
U966 O987 2.449 . S
O967 U966 2.454 . S
O967 C969 1.353 . S
O968 U966 2.458 . S
O968 C969 1.286 . S
C969 U966 2.984 . S
C969 O967 1.353 . S
C969 O968 1.286 . S
C969 C971 1.363 . S
C970 C960 1.465 . S
C970 U966 2.847 . S
C970 O984 1.249 . S
C970 O985 1.202 . S
C971 C969 1.363 . S
C971 C973 1.408 . S
C971 C976 1.342 . S
C972 C973 1.310 . S
C972 C975 1.461 . S
C972 H992 0.932 . S
C973 C971 1.408 . S
C973 C972 1.310 . S
C973 H993 0.930 . S
C974 C975 1.474 . S
C974 C976 1.285 . S
C974 H994 0.929 . S
C975 C972 1.461 . S
C975 C974 1.474 . S
C976 C971 1.342 . S
C976 C974 1.285 . S
C976 H995 0.930 . S
C977 C980 1.424 . S
C977 C982 1.245 . S
C977 C983 1.428 . S
C978 C981 1.260 . S
C978 C982 1.477 . S
C978 H996 0.932 . S
C979 C980 1.384 . S
C979 C981 1.479 . S
C979 H997 0.929 . S
C980 C977 1.424 . S
C980 C979 1.384 . S
C980 H998 0.928 . S
C981 C978 1.260 . S
C981 C979 1.479 . S
C982 C977 1.245 . S
C982 C978 1.477 . S
C982 H999 0.932 . S
C983 U966 2.882 . S
C983 C977 1.428 . S
C983 O986 1.301 . S
C983 O987 1.282 . S
O984 U966 2.441 . S
O984 C970 1.249 . S
O985 U966 2.420 . S
O985 C970 1.202 . S
O986 U966 2.455 . S
O986 C983 1.301 . S
O987 U966 2.449 . S
O987 C983 1.282 . S
H988 C961 0.931 . S
H989 C963 0.929 . S
H990 C964 0.930 . S
H991 C965 0.931 . S
H992 C972 0.932 . S
H993 C973 0.930 . S
H994 C974 0.929 . S
H995 C976 0.930 . S
H996 C978 0.932 . S
H997 C979 0.929 . S
H998 C980 0.928 . S
H999 C982 0.932 . S
C1000 C1001 1.264 . S
C1000 C1005 1.479 . S
C1000 C1010 1.465 . S
C1001 C1000 1.264 . S
C1001 C1003 1.339 . S
C1001 H1028 0.931 . S
C1002 C1003 1.395 . S
C1002 C1004 1.320 . S
C1003 C1001 1.339 . S
C1003 C1002 1.395 . S
C1003 H1029 0.929 . S
C1004 C1002 1.320 . S
C1004 C1005 1.405 . S
C1004 H1030 0.930 . S
C1005 C1000 1.479 . S
C1005 C1004 1.405 . S
C1005 H1031 0.931 . S
U1006 O1007 2.454 . S
U1006 O1008 2.458 . S
U1006 C1009 2.984 . S
U1006 C1010 2.847 . S
U1006 C1023 2.882 . S
U1006 O1024 2.441 . S
U1006 O1025 2.420 . S
U1006 O1026 2.455 . S
U1006 O1027 2.449 . S
O1007 U1006 2.454 . S
O1007 C1009 1.353 . S
O1008 U1006 2.458 . S
O1008 C1009 1.286 . S
C1009 U1006 2.984 . S
C1009 O1007 1.353 . S
C1009 O1008 1.286 . S
C1009 C1011 1.363 . S
C1010 C1000 1.465 . S
C1010 U1006 2.847 . S
C1010 O1024 1.249 . S
C1010 O1025 1.202 . S
C1011 C1009 1.363 . S
C1011 C1013 1.408 . S
C1011 C1016 1.342 . S
C1012 C1013 1.310 . S
C1012 C1015 1.461 . S
C1012 H1032 0.932 . S
C1013 C1011 1.408 . S
C1013 C1012 1.310 . S
C1013 H1033 0.930 . S
C1014 C1015 1.474 . S
C1014 C1016 1.285 . S
C1014 H1034 0.929 . S
C1015 C1012 1.461 . S
C1015 C1014 1.474 . S
C1016 C1011 1.342 . S
C1016 C1014 1.285 . S
C1016 H1035 0.930 . S
C1017 C1020 1.424 . S
C1017 C1022 1.245 . S
C1017 C1023 1.428 . S
C1018 C1021 1.260 . S
C1018 C1022 1.477 . S
C1018 H1036 0.932 . S
C1019 C1020 1.384 . S
C1019 C1021 1.479 . S
C1019 H1037 0.929 . S
C1020 C1017 1.424 . S
C1020 C1019 1.384 . S
C1020 H1038 0.928 . S
C1021 C1018 1.260 . S
C1021 C1019 1.479 . S
C1022 C1017 1.245 . S
C1022 C1018 1.477 . S
C1022 H1039 0.932 . S
C1023 U1006 2.882 . S
C1023 C1017 1.428 . S
C1023 O1026 1.301 . S
C1023 O1027 1.282 . S
O1024 U1006 2.441 . S
O1024 C1010 1.249 . S
O1025 U1006 2.420 . S
O1025 C1010 1.202 . S
O1026 U1006 2.455 . S
O1026 C1023 1.301 . S
O1027 U1006 2.449 . S
O1027 C1023 1.282 . S
H1028 C1001 0.931 . S
H1029 C1003 0.929 . S
H1030 C1004 0.930 . S
H1031 C1005 0.931 . S
H1032 C1012 0.932 . S
H1033 C1013 0.930 . S
H1034 C1014 0.929 . S
H1035 C1016 0.930 . S
H1036 C1018 0.932 . S
H1037 C1019 0.929 . S
H1038 C1020 0.928 . S
H1039 C1022 0.932 . S
C1040 C1041 1.264 . S
C1040 C1045 1.479 . S
C1040 C1050 1.465 . S
C1041 C1040 1.264 . S
C1041 C1043 1.339 . S
C1041 H1068 0.931 . S
C1042 C1043 1.395 . S
C1042 C1044 1.320 . S
C1043 C1041 1.339 . S
C1043 C1042 1.395 . S
C1043 H1069 0.929 . S
C1044 C1042 1.320 . S
C1044 C1045 1.405 . S
C1044 H1070 0.930 . S
C1045 C1040 1.479 . S
C1045 C1044 1.405 . S
C1045 H1071 0.931 . S
U1046 O1047 2.454 . S
U1046 O1048 2.458 . S
U1046 C1049 2.984 . S
U1046 C1050 2.847 . S
U1046 C1063 2.882 . S
U1046 O1064 2.441 . S
U1046 O1065 2.420 . S
U1046 O1066 2.455 . S
U1046 O1067 2.449 . S
O1047 U1046 2.454 . S
O1047 C1049 1.353 . S
O1048 U1046 2.458 . S
O1048 C1049 1.286 . S
C1049 U1046 2.984 . S
C1049 O1047 1.353 . S
C1049 O1048 1.286 . S
C1049 C1051 1.363 . S
C1050 C1040 1.465 . S
C1050 U1046 2.847 . S
C1050 O1064 1.249 . S
C1050 O1065 1.202 . S
C1051 C1049 1.363 . S
C1051 C1053 1.408 . S
C1051 C1056 1.342 . S
C1052 C1053 1.310 . S
C1052 C1055 1.461 . S
C1052 H1072 0.932 . S
C1053 C1051 1.408 . S
C1053 C1052 1.310 . S
C1053 H1073 0.930 . S
C1054 C1055 1.474 . S
C1054 C1056 1.285 . S
C1054 H1074 0.929 . S
C1055 C1052 1.461 . S
C1055 C1054 1.474 . S
C1056 C1051 1.342 . S
C1056 C1054 1.285 . S
C1056 H1075 0.930 . S
C1057 C1060 1.424 . S
C1057 C1062 1.245 . S
C1057 C1063 1.428 . S
C1058 C1061 1.260 . S
C1058 C1062 1.477 . S
C1058 H1076 0.932 . S
C1059 C1060 1.384 . S
C1059 C1061 1.479 . S
C1059 H1077 0.929 . S
C1060 C1057 1.424 . S
C1060 C1059 1.384 . S
C1060 H1078 0.928 . S
C1061 C1058 1.260 . S
C1061 C1059 1.479 . S
C1062 C1057 1.245 . S
C1062 C1058 1.477 . S
C1062 H1079 0.932 . S
C1063 U1046 2.882 . S
C1063 C1057 1.428 . S
C1063 O1066 1.301 . S
C1063 O1067 1.282 . S
O1064 U1046 2.441 . S
O1064 C1050 1.249 . S
O1065 U1046 2.420 . S
O1065 C1050 1.202 . S
O1066 U1046 2.455 . S
O1066 C1063 1.301 . S
O1067 U1046 2.449 . S
O1067 C1063 1.282 . S
H1068 C1041 0.931 . S
H1069 C1043 0.929 . S
H1070 C1044 0.930 . S
H1071 C1045 0.931 . S
H1072 C1052 0.932 . S
H1073 C1053 0.930 . S
H1074 C1054 0.929 . S
H1075 C1056 0.930 . S
H1076 C1058 0.932 . S
H1077 C1059 0.929 . S
H1078 C1060 0.928 . S
H1079 C1062 0.932 . S
C1080 C1081 1.264 . S
C1080 C1085 1.479 . S
C1080 C1090 1.465 . S
C1081 C1080 1.264 . S
C1081 C1083 1.339 . S
C1081 H1108 0.931 . S
C1082 C1083 1.395 . S
C1082 C1084 1.320 . S
C1083 C1081 1.339 . S
C1083 C1082 1.395 . S
C1083 H1109 0.929 . S
C1084 C1082 1.320 . S
C1084 C1085 1.405 . S
C1084 H1110 0.930 . S
C1085 C1080 1.479 . S
C1085 C1084 1.405 . S
C1085 H1111 0.931 . S
U1086 O1087 2.454 . S
U1086 O1088 2.458 . S
U1086 C1089 2.984 . S
U1086 C1090 2.847 . S
U1086 C1103 2.882 . S
U1086 O1104 2.441 . S
U1086 O1105 2.420 . S
U1086 O1106 2.455 . S
U1086 O1107 2.449 . S
O1087 U1086 2.454 . S
O1087 C1089 1.353 . S
O1088 U1086 2.458 . S
O1088 C1089 1.286 . S
C1089 U1086 2.984 . S
C1089 O1087 1.353 . S
C1089 O1088 1.286 . S
C1089 C1091 1.363 . S
C1090 C1080 1.465 . S
C1090 U1086 2.847 . S
C1090 O1104 1.249 . S
C1090 O1105 1.202 . S
C1091 C1089 1.363 . S
C1091 C1093 1.408 . S
C1091 C1096 1.342 . S
C1092 C1093 1.310 . S
C1092 C1095 1.461 . S
C1092 H1112 0.932 . S
C1093 C1091 1.408 . S
C1093 C1092 1.310 . S
C1093 H1113 0.930 . S
C1094 C1095 1.474 . S
C1094 C1096 1.285 . S
C1094 H1114 0.929 . S
C1095 C1092 1.461 . S
C1095 C1094 1.474 . S
C1096 C1091 1.342 . S
C1096 C1094 1.285 . S
C1096 H1115 0.930 . S
C1097 C1100 1.424 . S
C1097 C1102 1.245 . S
C1097 C1103 1.428 . S
C1098 C1101 1.260 . S
C1098 C1102 1.477 . S
C1098 H1116 0.932 . S
C1099 C1100 1.384 . S
C1099 C1101 1.479 . S
C1099 H1117 0.929 . S
C1100 C1097 1.424 . S
C1100 C1099 1.384 . S
C1100 H1118 0.928 . S
C1101 C1098 1.260 . S
C1101 C1099 1.479 . S
C1102 C1097 1.245 . S
C1102 C1098 1.477 . S
C1102 H1119 0.932 . S
C1103 U1086 2.882 . S
C1103 C1097 1.428 . S
C1103 O1106 1.301 . S
C1103 O1107 1.282 . S
O1104 U1086 2.441 . S
O1104 C1090 1.249 . S
O1105 U1086 2.420 . S
O1105 C1090 1.202 . S
O1106 U1086 2.455 . S
O1106 C1103 1.301 . S
O1107 U1086 2.449 . S
O1107 C1103 1.282 . S
H1108 C1081 0.931 . S
H1109 C1083 0.929 . S
H1110 C1084 0.930 . S
H1111 C1085 0.931 . S
H1112 C1092 0.932 . S
H1113 C1093 0.930 . S
H1114 C1094 0.929 . S
H1115 C1096 0.930 . S
H1116 C1098 0.932 . S
H1117 C1099 0.929 . S
H1118 C1100 0.928 . S
H1119 C1102 0.932 . S
C1120 C1121 1.264 . S
C1120 C1125 1.479 . S
C1120 C1130 1.465 . S
C1121 C1120 1.264 . S
C1121 C1123 1.339 . S
C1121 H1148 0.931 . S
C1122 C1123 1.395 . S
C1122 C1124 1.320 . S
C1123 C1121 1.339 . S
C1123 C1122 1.395 . S
C1123 H1149 0.929 . S
C1124 C1122 1.320 . S
C1124 C1125 1.405 . S
C1124 H1150 0.930 . S
C1125 C1120 1.479 . S
C1125 C1124 1.405 . S
C1125 H1151 0.931 . S
U1126 O1127 2.454 . S
U1126 O1128 2.458 . S
U1126 C1129 2.984 . S
U1126 C1130 2.847 . S
U1126 C1143 2.882 . S
U1126 O1144 2.441 . S
U1126 O1145 2.420 . S
U1126 O1146 2.455 . S
U1126 O1147 2.449 . S
O1127 U1126 2.454 . S
O1127 C1129 1.353 . S
O1128 U1126 2.458 . S
O1128 C1129 1.286 . S
C1129 U1126 2.984 . S
C1129 O1127 1.353 . S
C1129 O1128 1.286 . S
C1129 C1131 1.363 . S
C1130 C1120 1.465 . S
C1130 U1126 2.847 . S
C1130 O1144 1.249 . S
C1130 O1145 1.202 . S
C1131 C1129 1.363 . S
C1131 C1133 1.408 . S
C1131 C1136 1.342 . S
C1132 C1133 1.310 . S
C1132 C1135 1.461 . S
C1132 H1152 0.932 . S
C1133 C1131 1.408 . S
C1133 C1132 1.310 . S
C1133 H1153 0.930 . S
C1134 C1135 1.474 . S
C1134 C1136 1.285 . S
C1134 H1154 0.929 . S
C1135 C1132 1.461 . S
C1135 C1134 1.474 . S
C1136 C1131 1.342 . S
C1136 C1134 1.285 . S
C1136 H1155 0.930 . S
C1137 C1140 1.424 . S
C1137 C1142 1.245 . S
C1137 C1143 1.428 . S
C1138 C1141 1.260 . S
C1138 C1142 1.477 . S
C1138 H1156 0.932 . S
C1139 C1140 1.384 . S
C1139 C1141 1.479 . S
C1139 H1157 0.929 . S
C1140 C1137 1.424 . S
C1140 C1139 1.384 . S
C1140 H1158 0.928 . S
C1141 C1138 1.260 . S
C1141 C1139 1.479 . S
C1142 C1137 1.245 . S
C1142 C1138 1.477 . S
C1142 H1159 0.932 . S
C1143 U1126 2.882 . S
C1143 C1137 1.428 . S
C1143 O1146 1.301 . S
C1143 O1147 1.282 . S
O1144 U1126 2.441 . S
O1144 C1130 1.249 . S
O1145 U1126 2.420 . S
O1145 C1130 1.202 . S
O1146 U1126 2.455 . S
O1146 C1143 1.301 . S
O1147 U1126 2.449 . S
O1147 C1143 1.282 . S
H1148 C1121 0.931 . S
H1149 C1123 0.929 . S
H1150 C1124 0.930 . S
H1151 C1125 0.931 . S
H1152 C1132 0.932 . S
H1153 C1133 0.930 . S
H1154 C1134 0.929 . S
H1155 C1136 0.930 . S
H1156 C1138 0.932 . S
H1157 C1139 0.929 . S
H1158 C1140 0.928 . S
H1159 C1142 0.932 . S
C1160 C1161 1.264 . S
C1160 C1165 1.479 . S
C1160 C1170 1.465 . S
C1161 C1160 1.264 . S
C1161 C1163 1.339 . S
C1161 H1188 0.931 . S
C1162 C1163 1.395 . S
C1162 C1164 1.320 . S
C1163 C1161 1.339 . S
C1163 C1162 1.395 . S
C1163 H1189 0.929 . S
C1164 C1162 1.320 . S
C1164 C1165 1.405 . S
C1164 H1190 0.930 . S
C1165 C1160 1.479 . S
C1165 C1164 1.405 . S
C1165 H1191 0.931 . S
U1166 O1167 2.454 . S
U1166 O1168 2.458 . S
U1166 C1169 2.984 . S
U1166 C1170 2.847 . S
U1166 C1183 2.882 . S
U1166 O1184 2.441 . S
U1166 O1185 2.420 . S
U1166 O1186 2.455 . S
U1166 O1187 2.449 . S
O1167 U1166 2.454 . S
O1167 C1169 1.353 . S
O1168 U1166 2.458 . S
O1168 C1169 1.286 . S
C1169 U1166 2.984 . S
C1169 O1167 1.353 . S
C1169 O1168 1.286 . S
C1169 C1171 1.363 . S
C1170 C1160 1.465 . S
C1170 U1166 2.847 . S
C1170 O1184 1.249 . S
C1170 O1185 1.202 . S
C1171 C1169 1.363 . S
C1171 C1173 1.408 . S
C1171 C1176 1.342 . S
C1172 C1173 1.310 . S
C1172 C1175 1.461 . S
C1172 H1192 0.932 . S
C1173 C1171 1.408 . S
C1173 C1172 1.310 . S
C1173 H1193 0.930 . S
C1174 C1175 1.474 . S
C1174 C1176 1.285 . S
C1174 H1194 0.929 . S
C1175 C1172 1.461 . S
C1175 C1174 1.474 . S
C1176 C1171 1.342 . S
C1176 C1174 1.285 . S
C1176 H1195 0.930 . S
C1177 C1180 1.424 . S
C1177 C1182 1.245 . S
C1177 C1183 1.428 . S
C1178 C1181 1.260 . S
C1178 C1182 1.477 . S
C1178 H1196 0.932 . S
C1179 C1180 1.384 . S
C1179 C1181 1.479 . S
C1179 H1197 0.929 . S
C1180 C1177 1.424 . S
C1180 C1179 1.384 . S
C1180 H1198 0.928 . S
C1181 C1178 1.260 . S
C1181 C1179 1.479 . S
C1182 C1177 1.245 . S
C1182 C1178 1.477 . S
C1182 H1199 0.932 . S
C1183 U1166 2.882 . S
C1183 C1177 1.428 . S
C1183 O1186 1.301 . S
C1183 O1187 1.282 . S
O1184 U1166 2.441 . S
O1184 C1170 1.249 . S
O1185 U1166 2.420 . S
O1185 C1170 1.202 . S
O1186 U1166 2.455 . S
O1186 C1183 1.301 . S
O1187 U1166 2.449 . S
O1187 C1183 1.282 . S
H1188 C1161 0.931 . S
H1189 C1163 0.929 . S
H1190 C1164 0.930 . S
H1191 C1165 0.931 . S
H1192 C1172 0.932 . S
H1193 C1173 0.930 . S
H1194 C1174 0.929 . S
H1195 C1176 0.930 . S
H1196 C1178 0.932 . S
H1197 C1179 0.929 . S
H1198 C1180 0.928 . S
H1199 C1182 0.932 . S
C1200 C1201 1.264 . S
C1200 C1205 1.479 . S
C1200 C1210 1.465 . S
C1201 C1200 1.264 . S
C1201 C1203 1.339 . S
C1201 H1228 0.931 . S
C1202 C1203 1.395 . S
C1202 C1204 1.320 . S
C1203 C1201 1.339 . S
C1203 C1202 1.395 . S
C1203 H1229 0.929 . S
C1204 C1202 1.320 . S
C1204 C1205 1.405 . S
C1204 H1230 0.930 . S
C1205 C1200 1.479 . S
C1205 C1204 1.405 . S
C1205 H1231 0.931 . S
U1206 O1207 2.454 . S
U1206 O1208 2.458 . S
U1206 C1209 2.984 . S
U1206 C1210 2.847 . S
U1206 C1223 2.882 . S
U1206 O1224 2.441 . S
U1206 O1225 2.420 . S
U1206 O1226 2.455 . S
U1206 O1227 2.449 . S
O1207 U1206 2.454 . S
O1207 C1209 1.353 . S
O1208 U1206 2.458 . S
O1208 C1209 1.286 . S
C1209 U1206 2.984 . S
C1209 O1207 1.353 . S
C1209 O1208 1.286 . S
C1209 C1211 1.363 . S
C1210 C1200 1.465 . S
C1210 U1206 2.847 . S
C1210 O1224 1.249 . S
C1210 O1225 1.202 . S
C1211 C1209 1.363 . S
C1211 C1213 1.408 . S
C1211 C1216 1.342 . S
C1212 C1213 1.310 . S
C1212 C1215 1.461 . S
C1212 H1232 0.932 . S
C1213 C1211 1.408 . S
C1213 C1212 1.310 . S
C1213 H1233 0.930 . S
C1214 C1215 1.474 . S
C1214 C1216 1.285 . S
C1214 H1234 0.929 . S
C1215 C1212 1.461 . S
C1215 C1214 1.474 . S
C1216 C1211 1.342 . S
C1216 C1214 1.285 . S
C1216 H1235 0.930 . S
C1217 C1220 1.424 . S
C1217 C1222 1.245 . S
C1217 C1223 1.428 . S
C1218 C1221 1.260 . S
C1218 C1222 1.477 . S
C1218 H1236 0.932 . S
C1219 C1220 1.384 . S
C1219 C1221 1.479 . S
C1219 H1237 0.929 . S
C1220 C1217 1.424 . S
C1220 C1219 1.384 . S
C1220 H1238 0.928 . S
C1221 C1218 1.260 . S
C1221 C1219 1.479 . S
C1222 C1217 1.245 . S
C1222 C1218 1.477 . S
C1222 H1239 0.932 . S
C1223 U1206 2.882 . S
C1223 C1217 1.428 . S
C1223 O1226 1.301 . S
C1223 O1227 1.282 . S
O1224 U1206 2.441 . S
O1224 C1210 1.249 . S
O1225 U1206 2.420 . S
O1225 C1210 1.202 . S
O1226 U1206 2.455 . S
O1226 C1223 1.301 . S
O1227 U1206 2.449 . S
O1227 C1223 1.282 . S
H1228 C1201 0.931 . S
H1229 C1203 0.929 . S
H1230 C1204 0.930 . S
H1231 C1205 0.931 . S
H1232 C1212 0.932 . S
H1233 C1213 0.930 . S
H1234 C1214 0.929 . S
H1235 C1216 0.930 . S
H1236 C1218 0.932 . S
H1237 C1219 0.929 . S
H1238 C1220 0.928 . S
H1239 C1222 0.932 . S
C1240 C1241 1.264 . S
C1240 C1245 1.479 . S
C1240 C1250 1.465 . S
C1241 C1240 1.264 . S
C1241 C1243 1.339 . S
C1241 H1268 0.931 . S
C1242 C1243 1.395 . S
C1242 C1244 1.320 . S
C1243 C1241 1.339 . S
C1243 C1242 1.395 . S
C1243 H1269 0.929 . S
C1244 C1242 1.320 . S
C1244 C1245 1.405 . S
C1244 H1270 0.930 . S
C1245 C1240 1.479 . S
C1245 C1244 1.405 . S
C1245 H1271 0.931 . S
U1246 O1247 2.454 . S
U1246 O1248 2.458 . S
U1246 C1249 2.984 . S
U1246 C1250 2.847 . S
U1246 C1263 2.882 . S
U1246 O1264 2.441 . S
U1246 O1265 2.420 . S
U1246 O1266 2.455 . S
U1246 O1267 2.449 . S
O1247 U1246 2.454 . S
O1247 C1249 1.353 . S
O1248 U1246 2.458 . S
O1248 C1249 1.286 . S
C1249 U1246 2.984 . S
C1249 O1247 1.353 . S
C1249 O1248 1.286 . S
C1249 C1251 1.363 . S
C1250 C1240 1.465 . S
C1250 U1246 2.847 . S
C1250 O1264 1.249 . S
C1250 O1265 1.202 . S
C1251 C1249 1.363 . S
C1251 C1253 1.408 . S
C1251 C1256 1.342 . S
C1252 C1253 1.310 . S
C1252 C1255 1.461 . S
C1252 H1272 0.932 . S
C1253 C1251 1.408 . S
C1253 C1252 1.310 . S
C1253 H1273 0.930 . S
C1254 C1255 1.474 . S
C1254 C1256 1.285 . S
C1254 H1274 0.929 . S
C1255 C1252 1.461 . S
C1255 C1254 1.474 . S
C1256 C1251 1.342 . S
C1256 C1254 1.285 . S
C1256 H1275 0.930 . S
C1257 C1260 1.424 . S
C1257 C1262 1.245 . S
C1257 C1263 1.428 . S
C1258 C1261 1.260 . S
C1258 C1262 1.477 . S
C1258 H1276 0.932 . S
C1259 C1260 1.384 . S
C1259 C1261 1.479 . S
C1259 H1277 0.929 . S
C1260 C1257 1.424 . S
C1260 C1259 1.384 . S
C1260 H1278 0.928 . S
C1261 C1258 1.260 . S
C1261 C1259 1.479 . S
C1262 C1257 1.245 . S
C1262 C1258 1.477 . S
C1262 H1279 0.932 . S
C1263 U1246 2.882 . S
C1263 C1257 1.428 . S
C1263 O1266 1.301 . S
C1263 O1267 1.282 . S
O1264 U1246 2.441 . S
O1264 C1250 1.249 . S
O1265 U1246 2.420 . S
O1265 C1250 1.202 . S
O1266 U1246 2.455 . S
O1266 C1263 1.301 . S
O1267 U1246 2.449 . S
O1267 C1263 1.282 . S
H1268 C1241 0.931 . S
H1269 C1243 0.929 . S
H1270 C1244 0.930 . S
H1271 C1245 0.931 . S
H1272 C1252 0.932 . S
H1273 C1253 0.930 . S
H1274 C1254 0.929 . S
H1275 C1256 0.930 . S
H1276 C1258 0.932 . S
H1277 C1259 0.929 . S
H1278 C1260 0.928 . S
H1279 C1262 0.932 . S
C1280 C1281 1.264 . S
C1280 C1285 1.479 . S
C1280 C1290 1.465 . S
C1281 C1280 1.264 . S
C1281 C1283 1.339 . S
C1281 H1308 0.931 . S
C1282 C1283 1.395 . S
C1282 C1284 1.320 . S
C1283 C1281 1.339 . S
C1283 C1282 1.395 . S
C1283 H1309 0.929 . S
C1284 C1282 1.320 . S
C1284 C1285 1.405 . S
C1284 H1310 0.930 . S
C1285 C1280 1.479 . S
C1285 C1284 1.405 . S
C1285 H1311 0.931 . S
U1286 O1287 2.454 . S
U1286 O1288 2.458 . S
U1286 C1289 2.984 . S
U1286 C1290 2.847 . S
U1286 C1303 2.882 . S
U1286 O1304 2.441 . S
U1286 O1305 2.420 . S
U1286 O1306 2.455 . S
U1286 O1307 2.449 . S
O1287 U1286 2.454 . S
O1287 C1289 1.353 . S
O1288 U1286 2.458 . S
O1288 C1289 1.286 . S
C1289 U1286 2.984 . S
C1289 O1287 1.353 . S
C1289 O1288 1.286 . S
C1289 C1291 1.363 . S
C1290 C1280 1.465 . S
C1290 U1286 2.847 . S
C1290 O1304 1.249 . S
C1290 O1305 1.202 . S
C1291 C1289 1.363 . S
C1291 C1293 1.408 . S
C1291 C1296 1.342 . S
C1292 C1293 1.310 . S
C1292 C1295 1.461 . S
C1292 H1312 0.932 . S
C1293 C1291 1.408 . S
C1293 C1292 1.310 . S
C1293 H1313 0.930 . S
C1294 C1295 1.474 . S
C1294 C1296 1.285 . S
C1294 H1314 0.929 . S
C1295 C1292 1.461 . S
C1295 C1294 1.474 . S
C1296 C1291 1.342 . S
C1296 C1294 1.285 . S
C1296 H1315 0.930 . S
C1297 C1300 1.424 . S
C1297 C1302 1.245 . S
C1297 C1303 1.428 . S
C1298 C1301 1.260 . S
C1298 C1302 1.477 . S
C1298 H1316 0.932 . S
C1299 C1300 1.384 . S
C1299 C1301 1.479 . S
C1299 H1317 0.929 . S
C1300 C1297 1.424 . S
C1300 C1299 1.384 . S
C1300 H1318 0.928 . S
C1301 C1298 1.260 . S
C1301 C1299 1.479 . S
C1302 C1297 1.245 . S
C1302 C1298 1.477 . S
C1302 H1319 0.932 . S
C1303 U1286 2.882 . S
C1303 C1297 1.428 . S
C1303 O1306 1.301 . S
C1303 O1307 1.282 . S
O1304 U1286 2.441 . S
O1304 C1290 1.249 . S
O1305 U1286 2.420 . S
O1305 C1290 1.202 . S
O1306 U1286 2.455 . S
O1306 C1303 1.301 . S
O1307 U1286 2.449 . S
O1307 C1303 1.282 . S
H1308 C1281 0.931 . S
H1309 C1283 0.929 . S
H1310 C1284 0.930 . S
H1311 C1285 0.931 . S
H1312 C1292 0.932 . S
H1313 C1293 0.930 . S
H1314 C1294 0.929 . S
H1315 C1296 0.930 . S
H1316 C1298 0.932 . S
H1317 C1299 0.929 . S
H1318 C1300 0.928 . S
H1319 C1302 0.932 . S
C1320 C1321 1.264 . S
C1320 C1325 1.479 . S
C1320 C1330 1.465 . S
C1321 C1320 1.264 . S
C1321 C1323 1.339 . S
C1321 H1348 0.931 . S
C1322 C1323 1.395 . S
C1322 C1324 1.320 . S
C1323 C1321 1.339 . S
C1323 C1322 1.395 . S
C1323 H1349 0.929 . S
C1324 C1322 1.320 . S
C1324 C1325 1.405 . S
C1324 H1350 0.930 . S
C1325 C1320 1.479 . S
C1325 C1324 1.405 . S
C1325 H1351 0.931 . S
U1326 O1327 2.454 . S
U1326 O1328 2.458 . S
U1326 C1329 2.984 . S
U1326 C1330 2.847 . S
U1326 C1343 2.882 . S
U1326 O1344 2.441 . S
U1326 O1345 2.420 . S
U1326 O1346 2.455 . S
U1326 O1347 2.449 . S
O1327 U1326 2.454 . S
O1327 C1329 1.353 . S
O1328 U1326 2.458 . S
O1328 C1329 1.286 . S
C1329 U1326 2.984 . S
C1329 O1327 1.353 . S
C1329 O1328 1.286 . S
C1329 C1331 1.363 . S
C1330 C1320 1.465 . S
C1330 U1326 2.847 . S
C1330 O1344 1.249 . S
C1330 O1345 1.202 . S
C1331 C1329 1.363 . S
C1331 C1333 1.408 . S
C1331 C1336 1.342 . S
C1332 C1333 1.310 . S
C1332 C1335 1.461 . S
C1332 H1352 0.932 . S
C1333 C1331 1.408 . S
C1333 C1332 1.310 . S
C1333 H1353 0.930 . S
C1334 C1335 1.474 . S
C1334 C1336 1.285 . S
C1334 H1354 0.929 . S
C1335 C1332 1.461 . S
C1335 C1334 1.474 . S
C1336 C1331 1.342 . S
C1336 C1334 1.285 . S
C1336 H1355 0.930 . S
C1337 C1340 1.424 . S
C1337 C1342 1.245 . S
C1337 C1343 1.428 . S
C1338 C1341 1.260 . S
C1338 C1342 1.477 . S
C1338 H1356 0.932 . S
C1339 C1340 1.384 . S
C1339 C1341 1.479 . S
C1339 H1357 0.929 . S
C1340 C1337 1.424 . S
C1340 C1339 1.384 . S
C1340 H1358 0.928 . S
C1341 C1338 1.260 . S
C1341 C1339 1.479 . S
C1342 C1337 1.245 . S
C1342 C1338 1.477 . S
C1342 H1359 0.932 . S
C1343 U1326 2.882 . S
C1343 C1337 1.428 . S
C1343 O1346 1.301 . S
C1343 O1347 1.282 . S
O1344 U1326 2.441 . S
O1344 C1330 1.249 . S
O1345 U1326 2.420 . S
O1345 C1330 1.202 . S
O1346 U1326 2.455 . S
O1346 C1343 1.301 . S
O1347 U1326 2.449 . S
O1347 C1343 1.282 . S
H1348 C1321 0.931 . S
H1349 C1323 0.929 . S
H1350 C1324 0.930 . S
H1351 C1325 0.931 . S
H1352 C1332 0.932 . S
H1353 C1333 0.930 . S
H1354 C1334 0.929 . S
H1355 C1336 0.930 . S
H1356 C1338 0.932 . S
H1357 C1339 0.929 . S
H1358 C1340 0.928 . S
H1359 C1342 0.932 . S
C1360 C1361 1.264 . S
C1360 C1365 1.479 . S
C1360 C1370 1.465 . S
C1361 C1360 1.264 . S
C1361 C1363 1.339 . S
C1361 H1388 0.931 . S
C1362 C1363 1.395 . S
C1362 C1364 1.320 . S
C1363 C1361 1.339 . S
C1363 C1362 1.395 . S
C1363 H1389 0.929 . S
C1364 C1362 1.320 . S
C1364 C1365 1.405 . S
C1364 H1390 0.930 . S
C1365 C1360 1.479 . S
C1365 C1364 1.405 . S
C1365 H1391 0.931 . S
U1366 O1367 2.454 . S
U1366 O1368 2.458 . S
U1366 C1369 2.984 . S
U1366 C1370 2.847 . S
U1366 C1383 2.882 . S
U1366 O1384 2.441 . S
U1366 O1385 2.420 . S
U1366 O1386 2.455 . S
U1366 O1387 2.449 . S
O1367 U1366 2.454 . S
O1367 C1369 1.353 . S
O1368 U1366 2.458 . S
O1368 C1369 1.286 . S
C1369 U1366 2.984 . S
C1369 O1367 1.353 . S
C1369 O1368 1.286 . S
C1369 C1371 1.363 . S
C1370 C1360 1.465 . S
C1370 U1366 2.847 . S
C1370 O1384 1.249 . S
C1370 O1385 1.202 . S
C1371 C1369 1.363 . S
C1371 C1373 1.408 . S
C1371 C1376 1.342 . S
C1372 C1373 1.310 . S
C1372 C1375 1.461 . S
C1372 H1392 0.932 . S
C1373 C1371 1.408 . S
C1373 C1372 1.310 . S
C1373 H1393 0.930 . S
C1374 C1375 1.474 . S
C1374 C1376 1.285 . S
C1374 H1394 0.929 . S
C1375 C1372 1.461 . S
C1375 C1374 1.474 . S
C1376 C1371 1.342 . S
C1376 C1374 1.285 . S
C1376 H1395 0.930 . S
C1377 C1380 1.424 . S
C1377 C1382 1.245 . S
C1377 C1383 1.428 . S
C1378 C1381 1.260 . S
C1378 C1382 1.477 . S
C1378 H1396 0.932 . S
C1379 C1380 1.384 . S
C1379 C1381 1.479 . S
C1379 H1397 0.929 . S
C1380 C1377 1.424 . S
C1380 C1379 1.384 . S
C1380 H1398 0.928 . S
C1381 C1378 1.260 . S
C1381 C1379 1.479 . S
C1382 C1377 1.245 . S
C1382 C1378 1.477 . S
C1382 H1399 0.932 . S
C1383 U1366 2.882 . S
C1383 C1377 1.428 . S
C1383 O1386 1.301 . S
C1383 O1387 1.282 . S
O1384 U1366 2.441 . S
O1384 C1370 1.249 . S
O1385 U1366 2.420 . S
O1385 C1370 1.202 . S
O1386 U1366 2.455 . S
O1386 C1383 1.301 . S
O1387 U1366 2.449 . S
O1387 C1383 1.282 . S
H1388 C1361 0.931 . S
H1389 C1363 0.929 . S
H1390 C1364 0.930 . S
H1391 C1365 0.931 . S
H1392 C1372 0.932 . S
H1393 C1373 0.930 . S
H1394 C1374 0.929 . S
H1395 C1376 0.930 . S
H1396 C1378 0.932 . S
H1397 C1379 0.929 . S
H1398 C1380 0.928 . S
H1399 C1382 0.932 . S
C1400 C1401 1.264 . S
C1400 C1405 1.479 . S
C1400 C1410 1.465 . S
C1401 C1400 1.264 . S
C1401 C1403 1.339 . S
C1401 H1428 0.931 . S
C1402 C1403 1.395 . S
C1402 C1404 1.320 . S
C1403 C1401 1.339 . S
C1403 C1402 1.395 . S
C1403 H1429 0.929 . S
C1404 C1402 1.320 . S
C1404 C1405 1.405 . S
C1404 H1430 0.930 . S
C1405 C1400 1.479 . S
C1405 C1404 1.405 . S
C1405 H1431 0.931 . S
U1406 O1407 2.454 . S
U1406 O1408 2.458 . S
U1406 C1409 2.984 . S
U1406 C1410 2.847 . S
U1406 C1423 2.882 . S
U1406 O1424 2.441 . S
U1406 O1425 2.420 . S
U1406 O1426 2.455 . S
U1406 O1427 2.449 . S
O1407 U1406 2.454 . S
O1407 C1409 1.353 . S
O1408 U1406 2.458 . S
O1408 C1409 1.286 . S
C1409 U1406 2.984 . S
C1409 O1407 1.353 . S
C1409 O1408 1.286 . S
C1409 C1411 1.363 . S
C1410 C1400 1.465 . S
C1410 U1406 2.847 . S
C1410 O1424 1.249 . S
C1410 O1425 1.202 . S
C1411 C1409 1.363 . S
C1411 C1413 1.408 . S
C1411 C1416 1.342 . S
C1412 C1413 1.310 . S
C1412 C1415 1.461 . S
C1412 H1432 0.932 . S
C1413 C1411 1.408 . S
C1413 C1412 1.310 . S
C1413 H1433 0.930 . S
C1414 C1415 1.474 . S
C1414 C1416 1.285 . S
C1414 H1434 0.929 . S
C1415 C1412 1.461 . S
C1415 C1414 1.474 . S
C1416 C1411 1.342 . S
C1416 C1414 1.285 . S
C1416 H1435 0.930 . S
C1417 C1420 1.424 . S
C1417 C1422 1.245 . S
C1417 C1423 1.428 . S
C1418 C1421 1.260 . S
C1418 C1422 1.477 . S
C1418 H1436 0.932 . S
C1419 C1420 1.384 . S
C1419 C1421 1.479 . S
C1419 H1437 0.929 . S
C1420 C1417 1.424 . S
C1420 C1419 1.384 . S
C1420 H1438 0.928 . S
C1421 C1418 1.260 . S
C1421 C1419 1.479 . S
C1422 C1417 1.245 . S
C1422 C1418 1.477 . S
C1422 H1439 0.932 . S
C1423 U1406 2.882 . S
C1423 C1417 1.428 . S
C1423 O1426 1.301 . S
C1423 O1427 1.282 . S
O1424 U1406 2.441 . S
O1424 C1410 1.249 . S
O1425 U1406 2.420 . S
O1425 C1410 1.202 . S
O1426 U1406 2.455 . S
O1426 C1423 1.301 . S
O1427 U1406 2.449 . S
O1427 C1423 1.282 . S
H1428 C1401 0.931 . S
H1429 C1403 0.929 . S
H1430 C1404 0.930 . S
H1431 C1405 0.931 . S
H1432 C1412 0.932 . S
H1433 C1413 0.930 . S
H1434 C1414 0.929 . S
H1435 C1416 0.930 . S
H1436 C1418 0.932 . S
H1437 C1419 0.929 . S
H1438 C1420 0.928 . S
H1439 C1422 0.932 . S
C1440 C1441 1.264 . S
C1440 C1445 1.479 . S
C1440 C1450 1.465 . S
C1441 C1440 1.264 . S
C1441 C1443 1.339 . S
C1441 H1468 0.931 . S
C1442 C1443 1.395 . S
C1442 C1444 1.320 . S
C1443 C1441 1.339 . S
C1443 C1442 1.395 . S
C1443 H1469 0.929 . S
C1444 C1442 1.320 . S
C1444 C1445 1.405 . S
C1444 H1470 0.930 . S
C1445 C1440 1.479 . S
C1445 C1444 1.405 . S
C1445 H1471 0.931 . S
U1446 O1447 2.454 . S
U1446 O1448 2.458 . S
U1446 C1449 2.984 . S
U1446 C1450 2.847 . S
U1446 C1463 2.882 . S
U1446 O1464 2.441 . S
U1446 O1465 2.420 . S
U1446 O1466 2.455 . S
U1446 O1467 2.449 . S
O1447 U1446 2.454 . S
O1447 C1449 1.353 . S
O1448 U1446 2.458 . S
O1448 C1449 1.286 . S
C1449 U1446 2.984 . S
C1449 O1447 1.353 . S
C1449 O1448 1.286 . S
C1449 C1451 1.363 . S
C1450 C1440 1.465 . S
C1450 U1446 2.847 . S
C1450 O1464 1.249 . S
C1450 O1465 1.202 . S
C1451 C1449 1.363 . S
C1451 C1453 1.408 . S
C1451 C1456 1.342 . S
C1452 C1453 1.310 . S
C1452 C1455 1.461 . S
C1452 H1472 0.932 . S
C1453 C1451 1.408 . S
C1453 C1452 1.310 . S
C1453 H1473 0.930 . S
C1454 C1455 1.474 . S
C1454 C1456 1.285 . S
C1454 H1474 0.929 . S
C1455 C1452 1.461 . S
C1455 C1454 1.474 . S
C1456 C1451 1.342 . S
C1456 C1454 1.285 . S
C1456 H1475 0.930 . S
C1457 C1460 1.424 . S
C1457 C1462 1.245 . S
C1457 C1463 1.428 . S
C1458 C1461 1.260 . S
C1458 C1462 1.477 . S
C1458 H1476 0.932 . S
C1459 C1460 1.384 . S
C1459 C1461 1.479 . S
C1459 H1477 0.929 . S
C1460 C1457 1.424 . S
C1460 C1459 1.384 . S
C1460 H1478 0.928 . S
C1461 C1458 1.260 . S
C1461 C1459 1.479 . S
C1462 C1457 1.245 . S
C1462 C1458 1.477 . S
C1462 H1479 0.932 . S
C1463 U1446 2.882 . S
C1463 C1457 1.428 . S
C1463 O1466 1.301 . S
C1463 O1467 1.282 . S
O1464 U1446 2.441 . S
O1464 C1450 1.249 . S
O1465 U1446 2.420 . S
O1465 C1450 1.202 . S
O1466 U1446 2.455 . S
O1466 C1463 1.301 . S
O1467 U1446 2.449 . S
O1467 C1463 1.282 . S
H1468 C1441 0.931 . S
H1469 C1443 0.929 . S
H1470 C1444 0.930 . S
H1471 C1445 0.931 . S
H1472 C1452 0.932 . S
H1473 C1453 0.930 . S
H1474 C1454 0.929 . S
H1475 C1456 0.930 . S
H1476 C1458 0.932 . S
H1477 C1459 0.929 . S
H1478 C1460 0.928 . S
H1479 C1462 0.932 . S
C1480 C1481 1.264 . S
C1480 C1485 1.479 . S
C1480 C1490 1.465 . S
C1481 C1480 1.264 . S
C1481 C1483 1.339 . S
C1481 H1508 0.931 . S
C1482 C1483 1.395 . S
C1482 C1484 1.320 . S
C1483 C1481 1.339 . S
C1483 C1482 1.395 . S
C1483 H1509 0.929 . S
C1484 C1482 1.320 . S
C1484 C1485 1.405 . S
C1484 H1510 0.930 . S
C1485 C1480 1.479 . S
C1485 C1484 1.405 . S
C1485 H1511 0.931 . S
U1486 O1487 2.454 . S
U1486 O1488 2.458 . S
U1486 C1489 2.984 . S
U1486 C1490 2.847 . S
U1486 C1503 2.882 . S
U1486 O1504 2.441 . S
U1486 O1505 2.420 . S
U1486 O1506 2.455 . S
U1486 O1507 2.449 . S
O1487 U1486 2.454 . S
O1487 C1489 1.353 . S
O1488 U1486 2.458 . S
O1488 C1489 1.286 . S
C1489 U1486 2.984 . S
C1489 O1487 1.353 . S
C1489 O1488 1.286 . S
C1489 C1491 1.363 . S
C1490 C1480 1.465 . S
C1490 U1486 2.847 . S
C1490 O1504 1.249 . S
C1490 O1505 1.202 . S
C1491 C1489 1.363 . S
C1491 C1493 1.408 . S
C1491 C1496 1.342 . S
C1492 C1493 1.310 . S
C1492 C1495 1.461 . S
C1492 H1512 0.932 . S
C1493 C1491 1.408 . S
C1493 C1492 1.310 . S
C1493 H1513 0.930 . S
C1494 C1495 1.474 . S
C1494 C1496 1.285 . S
C1494 H1514 0.929 . S
C1495 C1492 1.461 . S
C1495 C1494 1.474 . S
C1496 C1491 1.342 . S
C1496 C1494 1.285 . S
C1496 H1515 0.930 . S
C1497 C1500 1.424 . S
C1497 C1502 1.245 . S
C1497 C1503 1.428 . S
C1498 C1501 1.260 . S
C1498 C1502 1.477 . S
C1498 H1516 0.932 . S
C1499 C1500 1.384 . S
C1499 C1501 1.479 . S
C1499 H1517 0.929 . S
C1500 C1497 1.424 . S
C1500 C1499 1.384 . S
C1500 H1518 0.928 . S
C1501 C1498 1.260 . S
C1501 C1499 1.479 . S
C1502 C1497 1.245 . S
C1502 C1498 1.477 . S
C1502 H1519 0.932 . S
C1503 U1486 2.882 . S
C1503 C1497 1.428 . S
C1503 O1506 1.301 . S
C1503 O1507 1.282 . S
O1504 U1486 2.441 . S
O1504 C1490 1.249 . S
O1505 U1486 2.420 . S
O1505 C1490 1.202 . S
O1506 U1486 2.455 . S
O1506 C1503 1.301 . S
O1507 U1486 2.449 . S
O1507 C1503 1.282 . S
H1508 C1481 0.931 . S
H1509 C1483 0.929 . S
H1510 C1484 0.930 . S
H1511 C1485 0.931 . S
H1512 C1492 0.932 . S
H1513 C1493 0.930 . S
H1514 C1494 0.929 . S
H1515 C1496 0.930 . S
H1516 C1498 0.932 . S
H1517 C1499 0.929 . S
H1518 C1500 0.928 . S
H1519 C1502 0.932 . S
C1520 C1521 1.264 . S
C1520 C1525 1.479 . S
C1520 C1530 1.465 . S
C1521 C1520 1.264 . S
C1521 C1523 1.339 . S
C1521 H1548 0.931 . S
C1522 C1523 1.395 . S
C1522 C1524 1.320 . S
C1523 C1521 1.339 . S
C1523 C1522 1.395 . S
C1523 H1549 0.929 . S
C1524 C1522 1.320 . S
C1524 C1525 1.405 . S
C1524 H1550 0.930 . S
C1525 C1520 1.479 . S
C1525 C1524 1.405 . S
C1525 H1551 0.931 . S
U1526 O1527 2.454 . S
U1526 O1528 2.458 . S
U1526 C1529 2.984 . S
U1526 C1530 2.847 . S
U1526 C1543 2.882 . S
U1526 O1544 2.441 . S
U1526 O1545 2.420 . S
U1526 O1546 2.455 . S
U1526 O1547 2.449 . S
O1527 U1526 2.454 . S
O1527 C1529 1.353 . S
O1528 U1526 2.458 . S
O1528 C1529 1.286 . S
C1529 U1526 2.984 . S
C1529 O1527 1.353 . S
C1529 O1528 1.286 . S
C1529 C1531 1.363 . S
C1530 C1520 1.465 . S
C1530 U1526 2.847 . S
C1530 O1544 1.249 . S
C1530 O1545 1.202 . S
C1531 C1529 1.363 . S
C1531 C1533 1.408 . S
C1531 C1536 1.342 . S
C1532 C1533 1.310 . S
C1532 C1535 1.461 . S
C1532 H1552 0.932 . S
C1533 C1531 1.408 . S
C1533 C1532 1.310 . S
C1533 H1553 0.930 . S
C1534 C1535 1.474 . S
C1534 C1536 1.285 . S
C1534 H1554 0.929 . S
C1535 C1532 1.461 . S
C1535 C1534 1.474 . S
C1536 C1531 1.342 . S
C1536 C1534 1.285 . S
C1536 H1555 0.930 . S
C1537 C1540 1.424 . S
C1537 C1542 1.245 . S
C1537 C1543 1.428 . S
C1538 C1541 1.260 . S
C1538 C1542 1.477 . S
C1538 H1556 0.932 . S
C1539 C1540 1.384 . S
C1539 C1541 1.479 . S
C1539 H1557 0.929 . S
C1540 C1537 1.424 . S
C1540 C1539 1.384 . S
C1540 H1558 0.928 . S
C1541 C1538 1.260 . S
C1541 C1539 1.479 . S
C1542 C1537 1.245 . S
C1542 C1538 1.477 . S
C1542 H1559 0.932 . S
C1543 U1526 2.882 . S
C1543 C1537 1.428 . S
C1543 O1546 1.301 . S
C1543 O1547 1.282 . S
O1544 U1526 2.441 . S
O1544 C1530 1.249 . S
O1545 U1526 2.420 . S
O1545 C1530 1.202 . S
O1546 U1526 2.455 . S
O1546 C1543 1.301 . S
O1547 U1526 2.449 . S
O1547 C1543 1.282 . S
H1548 C1521 0.931 . S
H1549 C1523 0.929 . S
H1550 C1524 0.930 . S
H1551 C1525 0.931 . S
H1552 C1532 0.932 . S
H1553 C1533 0.930 . S
H1554 C1534 0.929 . S
H1555 C1536 0.930 . S
H1556 C1538 0.932 . S
H1557 C1539 0.929 . S
H1558 C1540 0.928 . S
H1559 C1542 0.932 . S
C1560 C1561 1.264 . S
C1560 C1565 1.479 . S
C1560 C1570 1.465 . S
C1561 C1560 1.264 . S
C1561 C1563 1.339 . S
C1561 H1588 0.931 . S
C1562 C1563 1.395 . S
C1562 C1564 1.320 . S
C1563 C1561 1.339 . S
C1563 C1562 1.395 . S
C1563 H1589 0.929 . S
C1564 C1562 1.320 . S
C1564 C1565 1.405 . S
C1564 H1590 0.930 . S
C1565 C1560 1.479 . S
C1565 C1564 1.405 . S
C1565 H1591 0.931 . S
U1566 O1567 2.454 . S
U1566 O1568 2.458 . S
U1566 C1569 2.984 . S
U1566 C1570 2.847 . S
U1566 C1583 2.882 . S
U1566 O1584 2.441 . S
U1566 O1585 2.420 . S
U1566 O1586 2.455 . S
U1566 O1587 2.449 . S
O1567 U1566 2.454 . S
O1567 C1569 1.353 . S
O1568 U1566 2.458 . S
O1568 C1569 1.286 . S
C1569 U1566 2.984 . S
C1569 O1567 1.353 . S
C1569 O1568 1.286 . S
C1569 C1571 1.363 . S
C1570 C1560 1.465 . S
C1570 U1566 2.847 . S
C1570 O1584 1.249 . S
C1570 O1585 1.202 . S
C1571 C1569 1.363 . S
C1571 C1573 1.408 . S
C1571 C1576 1.342 . S
C1572 C1573 1.310 . S
C1572 C1575 1.461 . S
C1572 H1592 0.932 . S
C1573 C1571 1.408 . S
C1573 C1572 1.310 . S
C1573 H1593 0.930 . S
C1574 C1575 1.474 . S
C1574 C1576 1.285 . S
C1574 H1594 0.929 . S
C1575 C1572 1.461 . S
C1575 C1574 1.474 . S
C1576 C1571 1.342 . S
C1576 C1574 1.285 . S
C1576 H1595 0.930 . S
C1577 C1580 1.424 . S
C1577 C1582 1.245 . S
C1577 C1583 1.428 . S
C1578 C1581 1.260 . S
C1578 C1582 1.477 . S
C1578 H1596 0.932 . S
C1579 C1580 1.384 . S
C1579 C1581 1.479 . S
C1579 H1597 0.929 . S
C1580 C1577 1.424 . S
C1580 C1579 1.384 . S
C1580 H1598 0.928 . S
C1581 C1578 1.260 . S
C1581 C1579 1.479 . S
C1582 C1577 1.245 . S
C1582 C1578 1.477 . S
C1582 H1599 0.932 . S
C1583 U1566 2.882 . S
C1583 C1577 1.428 . S
C1583 O1586 1.301 . S
C1583 O1587 1.282 . S
O1584 U1566 2.441 . S
O1584 C1570 1.249 . S
O1585 U1566 2.420 . S
O1585 C1570 1.202 . S
O1586 U1566 2.455 . S
O1586 C1583 1.301 . S
O1587 U1566 2.449 . S
O1587 C1583 1.282 . S
H1588 C1561 0.931 . S
H1589 C1563 0.929 . S
H1590 C1564 0.930 . S
H1591 C1565 0.931 . S
H1592 C1572 0.932 . S
H1593 C1573 0.930 . S
H1594 C1574 0.929 . S
H1595 C1576 0.930 . S
H1596 C1578 0.932 . S
H1597 C1579 0.929 . S
H1598 C1580 0.928 . S
H1599 C1582 0.932 . S
C1600 C1601 1.264 . S
C1600 C1605 1.479 . S
C1600 C1610 1.465 . S
C1601 C1600 1.264 . S
C1601 C1603 1.339 . S
C1601 H1628 0.931 . S
C1602 C1603 1.395 . S
C1602 C1604 1.320 . S
C1603 C1601 1.339 . S
C1603 C1602 1.395 . S
C1603 H1629 0.929 . S
C1604 C1602 1.320 . S
C1604 C1605 1.405 . S
C1604 H1630 0.930 . S
C1605 C1600 1.479 . S
C1605 C1604 1.405 . S
C1605 H1631 0.931 . S
U1606 O1607 2.454 . S
U1606 O1608 2.458 . S
U1606 C1609 2.984 . S
U1606 C1610 2.847 . S
U1606 C1623 2.882 . S
U1606 O1624 2.441 . S
U1606 O1625 2.420 . S
U1606 O1626 2.455 . S
U1606 O1627 2.449 . S
O1607 U1606 2.454 . S
O1607 C1609 1.353 . S
O1608 U1606 2.458 . S
O1608 C1609 1.286 . S
C1609 U1606 2.984 . S
C1609 O1607 1.353 . S
C1609 O1608 1.286 . S
C1609 C1611 1.363 . S
C1610 C1600 1.465 . S
C1610 U1606 2.847 . S
C1610 O1624 1.249 . S
C1610 O1625 1.202 . S
C1611 C1609 1.363 . S
C1611 C1613 1.408 . S
C1611 C1616 1.342 . S
C1612 C1613 1.310 . S
C1612 C1615 1.461 . S
C1612 H1632 0.932 . S
C1613 C1611 1.408 . S
C1613 C1612 1.310 . S
C1613 H1633 0.930 . S
C1614 C1615 1.474 . S
C1614 C1616 1.285 . S
C1614 H1634 0.929 . S
C1615 C1612 1.461 . S
C1615 C1614 1.474 . S
C1616 C1611 1.342 . S
C1616 C1614 1.285 . S
C1616 H1635 0.930 . S
C1617 C1620 1.424 . S
C1617 C1622 1.245 . S
C1617 C1623 1.428 . S
C1618 C1621 1.260 . S
C1618 C1622 1.477 . S
C1618 H1636 0.932 . S
C1619 C1620 1.384 . S
C1619 C1621 1.479 . S
C1619 H1637 0.929 . S
C1620 C1617 1.424 . S
C1620 C1619 1.384 . S
C1620 H1638 0.928 . S
C1621 C1618 1.260 . S
C1621 C1619 1.479 . S
C1622 C1617 1.245 . S
C1622 C1618 1.477 . S
C1622 H1639 0.932 . S
C1623 U1606 2.882 . S
C1623 C1617 1.428 . S
C1623 O1626 1.301 . S
C1623 O1627 1.282 . S
O1624 U1606 2.441 . S
O1624 C1610 1.249 . S
O1625 U1606 2.420 . S
O1625 C1610 1.202 . S
O1626 U1606 2.455 . S
O1626 C1623 1.301 . S
O1627 U1606 2.449 . S
O1627 C1623 1.282 . S
H1628 C1601 0.931 . S
H1629 C1603 0.929 . S
H1630 C1604 0.930 . S
H1631 C1605 0.931 . S
H1632 C1612 0.932 . S
H1633 C1613 0.930 . S
H1634 C1614 0.929 . S
H1635 C1616 0.930 . S
H1636 C1618 0.932 . S
H1637 C1619 0.929 . S
H1638 C1620 0.928 . S
H1639 C1622 0.932 . S
C1640 C1641 1.264 . S
C1640 C1645 1.479 . S
C1640 C1650 1.465 . S
C1641 C1640 1.264 . S
C1641 C1643 1.339 . S
C1641 H1668 0.931 . S
C1642 C1643 1.395 . S
C1642 C1644 1.320 . S
C1643 C1641 1.339 . S
C1643 C1642 1.395 . S
C1643 H1669 0.929 . S
C1644 C1642 1.320 . S
C1644 C1645 1.405 . S
C1644 H1670 0.930 . S
C1645 C1640 1.479 . S
C1645 C1644 1.405 . S
C1645 H1671 0.931 . S
U1646 O1647 2.454 . S
U1646 O1648 2.458 . S
U1646 C1649 2.984 . S
U1646 C1650 2.847 . S
U1646 C1663 2.882 . S
U1646 O1664 2.441 . S
U1646 O1665 2.420 . S
U1646 O1666 2.455 . S
U1646 O1667 2.449 . S
O1647 U1646 2.454 . S
O1647 C1649 1.353 . S
O1648 U1646 2.458 . S
O1648 C1649 1.286 . S
C1649 U1646 2.984 . S
C1649 O1647 1.353 . S
C1649 O1648 1.286 . S
C1649 C1651 1.363 . S
C1650 C1640 1.465 . S
C1650 U1646 2.847 . S
C1650 O1664 1.249 . S
C1650 O1665 1.202 . S
C1651 C1649 1.363 . S
C1651 C1653 1.408 . S
C1651 C1656 1.342 . S
C1652 C1653 1.310 . S
C1652 C1655 1.461 . S
C1652 H1672 0.932 . S
C1653 C1651 1.408 . S
C1653 C1652 1.310 . S
C1653 H1673 0.930 . S
C1654 C1655 1.474 . S
C1654 C1656 1.285 . S
C1654 H1674 0.929 . S
C1655 C1652 1.461 . S
C1655 C1654 1.474 . S
C1656 C1651 1.342 . S
C1656 C1654 1.285 . S
C1656 H1675 0.930 . S
C1657 C1660 1.424 . S
C1657 C1662 1.245 . S
C1657 C1663 1.428 . S
C1658 C1661 1.260 . S
C1658 C1662 1.477 . S
C1658 H1676 0.932 . S
C1659 C1660 1.384 . S
C1659 C1661 1.479 . S
C1659 H1677 0.929 . S
C1660 C1657 1.424 . S
C1660 C1659 1.384 . S
C1660 H1678 0.928 . S
C1661 C1658 1.260 . S
C1661 C1659 1.479 . S
C1662 C1657 1.245 . S
C1662 C1658 1.477 . S
C1662 H1679 0.932 . S
C1663 U1646 2.882 . S
C1663 C1657 1.428 . S
C1663 O1666 1.301 . S
C1663 O1667 1.282 . S
O1664 U1646 2.441 . S
O1664 C1650 1.249 . S
O1665 U1646 2.420 . S
O1665 C1650 1.202 . S
O1666 U1646 2.455 . S
O1666 C1663 1.301 . S
O1667 U1646 2.449 . S
O1667 C1663 1.282 . S
H1668 C1641 0.931 . S
H1669 C1643 0.929 . S
H1670 C1644 0.930 . S
H1671 C1645 0.931 . S
H1672 C1652 0.932 . S
H1673 C1653 0.930 . S
H1674 C1654 0.929 . S
H1675 C1656 0.930 . S
H1676 C1658 0.932 . S
H1677 C1659 0.929 . S
H1678 C1660 0.928 . S
H1679 C1662 0.932 . S
C1680 C1681 1.264 . S
C1680 C1685 1.479 . S
C1680 C1690 1.465 . S
C1681 C1680 1.264 . S
C1681 C1683 1.339 . S
C1681 H1708 0.931 . S
C1682 C1683 1.395 . S
C1682 C1684 1.320 . S
C1683 C1681 1.339 . S
C1683 C1682 1.395 . S
C1683 H1709 0.929 . S
C1684 C1682 1.320 . S
C1684 C1685 1.405 . S
C1684 H1710 0.930 . S
C1685 C1680 1.479 . S
C1685 C1684 1.405 . S
C1685 H1711 0.931 . S
U1686 O1687 2.454 . S
U1686 O1688 2.458 . S
U1686 C1689 2.984 . S
U1686 C1690 2.847 . S
U1686 C1703 2.882 . S
U1686 O1704 2.441 . S
U1686 O1705 2.420 . S
U1686 O1706 2.455 . S
U1686 O1707 2.449 . S
O1687 U1686 2.454 . S
O1687 C1689 1.353 . S
O1688 U1686 2.458 . S
O1688 C1689 1.286 . S
C1689 U1686 2.984 . S
C1689 O1687 1.353 . S
C1689 O1688 1.286 . S
C1689 C1691 1.363 . S
C1690 C1680 1.465 . S
C1690 U1686 2.847 . S
C1690 O1704 1.249 . S
C1690 O1705 1.202 . S
C1691 C1689 1.363 . S
C1691 C1693 1.408 . S
C1691 C1696 1.342 . S
C1692 C1693 1.310 . S
C1692 C1695 1.461 . S
C1692 H1712 0.932 . S
C1693 C1691 1.408 . S
C1693 C1692 1.310 . S
C1693 H1713 0.930 . S
C1694 C1695 1.474 . S
C1694 C1696 1.285 . S
C1694 H1714 0.929 . S
C1695 C1692 1.461 . S
C1695 C1694 1.474 . S
C1696 C1691 1.342 . S
C1696 C1694 1.285 . S
C1696 H1715 0.930 . S
C1697 C1700 1.424 . S
C1697 C1702 1.245 . S
C1697 C1703 1.428 . S
C1698 C1701 1.260 . S
C1698 C1702 1.477 . S
C1698 H1716 0.932 . S
C1699 C1700 1.384 . S
C1699 C1701 1.479 . S
C1699 H1717 0.929 . S
C1700 C1697 1.424 . S
C1700 C1699 1.384 . S
C1700 H1718 0.928 . S
C1701 C1698 1.260 . S
C1701 C1699 1.479 . S
C1702 C1697 1.245 . S
C1702 C1698 1.477 . S
C1702 H1719 0.932 . S
C1703 U1686 2.882 . S
C1703 C1697 1.428 . S
C1703 O1706 1.301 . S
C1703 O1707 1.282 . S
O1704 U1686 2.441 . S
O1704 C1690 1.249 . S
O1705 U1686 2.420 . S
O1705 C1690 1.202 . S
O1706 U1686 2.455 . S
O1706 C1703 1.301 . S
O1707 U1686 2.449 . S
O1707 C1703 1.282 . S
H1708 C1681 0.931 . S
H1709 C1683 0.929 . S
H1710 C1684 0.930 . S
H1711 C1685 0.931 . S
H1712 C1692 0.932 . S
H1713 C1693 0.930 . S
H1714 C1694 0.929 . S
H1715 C1696 0.930 . S
H1716 C1698 0.932 . S
H1717 C1699 0.929 . S
H1718 C1700 0.928 . S
H1719 C1702 0.932 . S
C1720 C1721 1.264 . S
C1720 C1725 1.479 . S
C1720 C1730 1.465 . S
C1721 C1720 1.264 . S
C1721 C1723 1.339 . S
C1721 H1748 0.931 . S
C1722 C1723 1.395 . S
C1722 C1724 1.320 . S
C1723 C1721 1.339 . S
C1723 C1722 1.395 . S
C1723 H1749 0.929 . S
C1724 C1722 1.320 . S
C1724 C1725 1.405 . S
C1724 H1750 0.930 . S
C1725 C1720 1.479 . S
C1725 C1724 1.405 . S
C1725 H1751 0.931 . S
U1726 O1727 2.454 . S
U1726 O1728 2.458 . S
U1726 C1729 2.984 . S
U1726 C1730 2.847 . S
U1726 C1743 2.882 . S
U1726 O1744 2.441 . S
U1726 O1745 2.420 . S
U1726 O1746 2.455 . S
U1726 O1747 2.449 . S
O1727 U1726 2.454 . S
O1727 C1729 1.353 . S
O1728 U1726 2.458 . S
O1728 C1729 1.286 . S
C1729 U1726 2.984 . S
C1729 O1727 1.353 . S
C1729 O1728 1.286 . S
C1729 C1731 1.363 . S
C1730 C1720 1.465 . S
C1730 U1726 2.847 . S
C1730 O1744 1.249 . S
C1730 O1745 1.202 . S
C1731 C1729 1.363 . S
C1731 C1733 1.408 . S
C1731 C1736 1.342 . S
C1732 C1733 1.310 . S
C1732 C1735 1.461 . S
C1732 H1752 0.932 . S
C1733 C1731 1.408 . S
C1733 C1732 1.310 . S
C1733 H1753 0.930 . S
C1734 C1735 1.474 . S
C1734 C1736 1.285 . S
C1734 H1754 0.929 . S
C1735 C1732 1.461 . S
C1735 C1734 1.474 . S
C1736 C1731 1.342 . S
C1736 C1734 1.285 . S
C1736 H1755 0.930 . S
C1737 C1740 1.424 . S
C1737 C1742 1.245 . S
C1737 C1743 1.428 . S
C1738 C1741 1.260 . S
C1738 C1742 1.477 . S
C1738 H1756 0.932 . S
C1739 C1740 1.384 . S
C1739 C1741 1.479 . S
C1739 H1757 0.929 . S
C1740 C1737 1.424 . S
C1740 C1739 1.384 . S
C1740 H1758 0.928 . S
C1741 C1738 1.260 . S
C1741 C1739 1.479 . S
C1742 C1737 1.245 . S
C1742 C1738 1.477 . S
C1742 H1759 0.932 . S
C1743 U1726 2.882 . S
C1743 C1737 1.428 . S
C1743 O1746 1.301 . S
C1743 O1747 1.282 . S
O1744 U1726 2.441 . S
O1744 C1730 1.249 . S
O1745 U1726 2.420 . S
O1745 C1730 1.202 . S
O1746 U1726 2.455 . S
O1746 C1743 1.301 . S
O1747 U1726 2.449 . S
O1747 C1743 1.282 . S
H1748 C1721 0.931 . S
H1749 C1723 0.929 . S
H1750 C1724 0.930 . S
H1751 C1725 0.931 . S
H1752 C1732 0.932 . S
H1753 C1733 0.930 . S
H1754 C1734 0.929 . S
H1755 C1736 0.930 . S
H1756 C1738 0.932 . S
H1757 C1739 0.929 . S
H1758 C1740 0.928 . S
H1759 C1742 0.932 . S
C1760 C1761 1.264 . S
C1760 C1765 1.479 . S
C1760 C1770 1.465 . S
C1761 C1760 1.264 . S
C1761 C1763 1.339 . S
C1761 H1788 0.931 . S
C1762 C1763 1.395 . S
C1762 C1764 1.320 . S
C1763 C1761 1.339 . S
C1763 C1762 1.395 . S
C1763 H1789 0.929 . S
C1764 C1762 1.320 . S
C1764 C1765 1.405 . S
C1764 H1790 0.930 . S
C1765 C1760 1.479 . S
C1765 C1764 1.405 . S
C1765 H1791 0.931 . S
U1766 O1767 2.454 . S
U1766 O1768 2.458 . S
U1766 C1769 2.984 . S
U1766 C1770 2.847 . S
U1766 C1783 2.882 . S
U1766 O1784 2.441 . S
U1766 O1785 2.420 . S
U1766 O1786 2.455 . S
U1766 O1787 2.449 . S
O1767 U1766 2.454 . S
O1767 C1769 1.353 . S
O1768 U1766 2.458 . S
O1768 C1769 1.286 . S
C1769 U1766 2.984 . S
C1769 O1767 1.353 . S
C1769 O1768 1.286 . S
C1769 C1771 1.363 . S
C1770 C1760 1.465 . S
C1770 U1766 2.847 . S
C1770 O1784 1.249 . S
C1770 O1785 1.202 . S
C1771 C1769 1.363 . S
C1771 C1773 1.408 . S
C1771 C1776 1.342 . S
C1772 C1773 1.310 . S
C1772 C1775 1.461 . S
C1772 H1792 0.932 . S
C1773 C1771 1.408 . S
C1773 C1772 1.310 . S
C1773 H1793 0.930 . S
C1774 C1775 1.474 . S
C1774 C1776 1.285 . S
C1774 H1794 0.929 . S
C1775 C1772 1.461 . S
C1775 C1774 1.474 . S
C1776 C1771 1.342 . S
C1776 C1774 1.285 . S
C1776 H1795 0.930 . S
C1777 C1780 1.424 . S
C1777 C1782 1.245 . S
C1777 C1783 1.428 . S
C1778 C1781 1.260 . S
C1778 C1782 1.477 . S
C1778 H1796 0.932 . S
C1779 C1780 1.384 . S
C1779 C1781 1.479 . S
C1779 H1797 0.929 . S
C1780 C1777 1.424 . S
C1780 C1779 1.384 . S
C1780 H1798 0.928 . S
C1781 C1778 1.260 . S
C1781 C1779 1.479 . S
C1782 C1777 1.245 . S
C1782 C1778 1.477 . S
C1782 H1799 0.932 . S
C1783 U1766 2.882 . S
C1783 C1777 1.428 . S
C1783 O1786 1.301 . S
C1783 O1787 1.282 . S
O1784 U1766 2.441 . S
O1784 C1770 1.249 . S
O1785 U1766 2.420 . S
O1785 C1770 1.202 . S
O1786 U1766 2.455 . S
O1786 C1783 1.301 . S
O1787 U1766 2.449 . S
O1787 C1783 1.282 . S
H1788 C1761 0.931 . S
H1789 C1763 0.929 . S
H1790 C1764 0.930 . S
H1791 C1765 0.931 . S
H1792 C1772 0.932 . S
H1793 C1773 0.930 . S
H1794 C1774 0.929 . S
H1795 C1776 0.930 . S
H1796 C1778 0.932 . S
H1797 C1779 0.929 . S
H1798 C1780 0.928 . S
H1799 C1782 0.932 . S
C1800 C1801 1.264 . S
C1800 C1805 1.479 . S
C1800 C1810 1.465 . S
C1801 C1800 1.264 . S
C1801 C1803 1.339 . S
C1801 H1828 0.931 . S
C1802 C1803 1.395 . S
C1802 C1804 1.320 . S
C1803 C1801 1.339 . S
C1803 C1802 1.395 . S
C1803 H1829 0.929 . S
C1804 C1802 1.320 . S
C1804 C1805 1.405 . S
C1804 H1830 0.930 . S
C1805 C1800 1.479 . S
C1805 C1804 1.405 . S
C1805 H1831 0.931 . S
U1806 O1807 2.454 . S
U1806 O1808 2.458 . S
U1806 C1809 2.984 . S
U1806 C1810 2.847 . S
U1806 C1823 2.882 . S
U1806 O1824 2.441 . S
U1806 O1825 2.420 . S
U1806 O1826 2.455 . S
U1806 O1827 2.449 . S
O1807 U1806 2.454 . S
O1807 C1809 1.353 . S
O1808 U1806 2.458 . S
O1808 C1809 1.286 . S
C1809 U1806 2.984 . S
C1809 O1807 1.353 . S
C1809 O1808 1.286 . S
C1809 C1811 1.363 . S
C1810 C1800 1.465 . S
C1810 U1806 2.847 . S
C1810 O1824 1.249 . S
C1810 O1825 1.202 . S
C1811 C1809 1.363 . S
C1811 C1813 1.408 . S
C1811 C1816 1.342 . S
C1812 C1813 1.310 . S
C1812 C1815 1.461 . S
C1812 H1832 0.932 . S
C1813 C1811 1.408 . S
C1813 C1812 1.310 . S
C1813 H1833 0.930 . S
C1814 C1815 1.474 . S
C1814 C1816 1.285 . S
C1814 H1834 0.929 . S
C1815 C1812 1.461 . S
C1815 C1814 1.474 . S
C1816 C1811 1.342 . S
C1816 C1814 1.285 . S
C1816 H1835 0.930 . S
C1817 C1820 1.424 . S
C1817 C1822 1.245 . S
C1817 C1823 1.428 . S
C1818 C1821 1.260 . S
C1818 C1822 1.477 . S
C1818 H1836 0.932 . S
C1819 C1820 1.384 . S
C1819 C1821 1.479 . S
C1819 H1837 0.929 . S
C1820 C1817 1.424 . S
C1820 C1819 1.384 . S
C1820 H1838 0.928 . S
C1821 C1818 1.260 . S
C1821 C1819 1.479 . S
C1822 C1817 1.245 . S
C1822 C1818 1.477 . S
C1822 H1839 0.932 . S
C1823 U1806 2.882 . S
C1823 C1817 1.428 . S
C1823 O1826 1.301 . S
C1823 O1827 1.282 . S
O1824 U1806 2.441 . S
O1824 C1810 1.249 . S
O1825 U1806 2.420 . S
O1825 C1810 1.202 . S
O1826 U1806 2.455 . S
O1826 C1823 1.301 . S
O1827 U1806 2.449 . S
O1827 C1823 1.282 . S
H1828 C1801 0.931 . S
H1829 C1803 0.929 . S
H1830 C1804 0.930 . S
H1831 C1805 0.931 . S
H1832 C1812 0.932 . S
H1833 C1813 0.930 . S
H1834 C1814 0.929 . S
H1835 C1816 0.930 . S
H1836 C1818 0.932 . S
H1837 C1819 0.929 . S
H1838 C1820 0.928 . S
H1839 C1822 0.932 . S
C1840 C1841 1.264 . S
C1840 C1845 1.479 . S
C1840 C1850 1.465 . S
C1841 C1840 1.264 . S
C1841 C1843 1.339 . S
C1841 H1868 0.931 . S
C1842 C1843 1.395 . S
C1842 C1844 1.320 . S
C1843 C1841 1.339 . S
C1843 C1842 1.395 . S
C1843 H1869 0.929 . S
C1844 C1842 1.320 . S
C1844 C1845 1.405 . S
C1844 H1870 0.930 . S
C1845 C1840 1.479 . S
C1845 C1844 1.405 . S
C1845 H1871 0.931 . S
U1846 O1847 2.454 . S
U1846 O1848 2.458 . S
U1846 C1849 2.984 . S
U1846 C1850 2.847 . S
U1846 C1863 2.882 . S
U1846 O1864 2.441 . S
U1846 O1865 2.420 . S
U1846 O1866 2.455 . S
U1846 O1867 2.449 . S
O1847 U1846 2.454 . S
O1847 C1849 1.353 . S
O1848 U1846 2.458 . S
O1848 C1849 1.286 . S
C1849 U1846 2.984 . S
C1849 O1847 1.353 . S
C1849 O1848 1.286 . S
C1849 C1851 1.363 . S
C1850 C1840 1.465 . S
C1850 U1846 2.847 . S
C1850 O1864 1.249 . S
C1850 O1865 1.202 . S
C1851 C1849 1.363 . S
C1851 C1853 1.408 . S
C1851 C1856 1.342 . S
C1852 C1853 1.310 . S
C1852 C1855 1.461 . S
C1852 H1872 0.932 . S
C1853 C1851 1.408 . S
C1853 C1852 1.310 . S
C1853 H1873 0.930 . S
C1854 C1855 1.474 . S
C1854 C1856 1.285 . S
C1854 H1874 0.929 . S
C1855 C1852 1.461 . S
C1855 C1854 1.474 . S
C1856 C1851 1.342 . S
C1856 C1854 1.285 . S
C1856 H1875 0.930 . S
C1857 C1860 1.424 . S
C1857 C1862 1.245 . S
C1857 C1863 1.428 . S
C1858 C1861 1.260 . S
C1858 C1862 1.477 . S
C1858 H1876 0.932 . S
C1859 C1860 1.384 . S
C1859 C1861 1.479 . S
C1859 H1877 0.929 . S
C1860 C1857 1.424 . S
C1860 C1859 1.384 . S
C1860 H1878 0.928 . S
C1861 C1858 1.260 . S
C1861 C1859 1.479 . S
C1862 C1857 1.245 . S
C1862 C1858 1.477 . S
C1862 H1879 0.932 . S
C1863 U1846 2.882 . S
C1863 C1857 1.428 . S
C1863 O1866 1.301 . S
C1863 O1867 1.282 . S
O1864 U1846 2.441 . S
O1864 C1850 1.249 . S
O1865 U1846 2.420 . S
O1865 C1850 1.202 . S
O1866 U1846 2.455 . S
O1866 C1863 1.301 . S
O1867 U1846 2.449 . S
O1867 C1863 1.282 . S
H1868 C1841 0.931 . S
H1869 C1843 0.929 . S
H1870 C1844 0.930 . S
H1871 C1845 0.931 . S
H1872 C1852 0.932 . S
H1873 C1853 0.930 . S
H1874 C1854 0.929 . S
H1875 C1856 0.930 . S
H1876 C1858 0.932 . S
H1877 C1859 0.929 . S
H1878 C1860 0.928 . S
H1879 C1862 0.932 . S
C1880 C1881 1.264 . S
C1880 C1885 1.479 . S
C1880 C1890 1.465 . S
C1881 C1880 1.264 . S
C1881 C1883 1.339 . S
C1881 H1908 0.931 . S
C1882 C1883 1.395 . S
C1882 C1884 1.320 . S
C1883 C1881 1.339 . S
C1883 C1882 1.395 . S
C1883 H1909 0.929 . S
C1884 C1882 1.320 . S
C1884 C1885 1.405 . S
C1884 H1910 0.930 . S
C1885 C1880 1.479 . S
C1885 C1884 1.405 . S
C1885 H1911 0.931 . S
U1886 O1887 2.454 . S
U1886 O1888 2.458 . S
U1886 C1889 2.984 . S
U1886 C1890 2.847 . S
U1886 C1903 2.882 . S
U1886 O1904 2.441 . S
U1886 O1905 2.420 . S
U1886 O1906 2.455 . S
U1886 O1907 2.449 . S
O1887 U1886 2.454 . S
O1887 C1889 1.353 . S
O1888 U1886 2.458 . S
O1888 C1889 1.286 . S
C1889 U1886 2.984 . S
C1889 O1887 1.353 . S
C1889 O1888 1.286 . S
C1889 C1891 1.363 . S
C1890 C1880 1.465 . S
C1890 U1886 2.847 . S
C1890 O1904 1.249 . S
C1890 O1905 1.202 . S
C1891 C1889 1.363 . S
C1891 C1893 1.408 . S
C1891 C1896 1.342 . S
C1892 C1893 1.310 . S
C1892 C1895 1.461 . S
C1892 H1912 0.932 . S
C1893 C1891 1.408 . S
C1893 C1892 1.310 . S
C1893 H1913 0.930 . S
C1894 C1895 1.474 . S
C1894 C1896 1.285 . S
C1894 H1914 0.929 . S
C1895 C1892 1.461 . S
C1895 C1894 1.474 . S
C1896 C1891 1.342 . S
C1896 C1894 1.285 . S
C1896 H1915 0.930 . S
C1897 C1900 1.424 . S
C1897 C1902 1.245 . S
C1897 C1903 1.428 . S
C1898 C1901 1.260 . S
C1898 C1902 1.477 . S
C1898 H1916 0.932 . S
C1899 C1900 1.384 . S
C1899 C1901 1.479 . S
C1899 H1917 0.929 . S
C1900 C1897 1.424 . S
C1900 C1899 1.384 . S
C1900 H1918 0.928 . S
C1901 C1898 1.260 . S
C1901 C1899 1.479 . S
C1902 C1897 1.245 . S
C1902 C1898 1.477 . S
C1902 H1919 0.932 . S
C1903 U1886 2.882 . S
C1903 C1897 1.428 . S
C1903 O1906 1.301 . S
C1903 O1907 1.282 . S
O1904 U1886 2.441 . S
O1904 C1890 1.249 . S
O1905 U1886 2.420 . S
O1905 C1890 1.202 . S
O1906 U1886 2.455 . S
O1906 C1903 1.301 . S
O1907 U1886 2.449 . S
O1907 C1903 1.282 . S
H1908 C1881 0.931 . S
H1909 C1883 0.929 . S
H1910 C1884 0.930 . S
H1911 C1885 0.931 . S
H1912 C1892 0.932 . S
H1913 C1893 0.930 . S
H1914 C1894 0.929 . S
H1915 C1896 0.930 . S
H1916 C1898 0.932 . S
H1917 C1899 0.929 . S
H1918 C1900 0.928 . S
H1919 C1902 0.932 . S
H1920 C1928 0.950 . S
H1921 C1933 0.950 . S
H1922 C1930 0.950 . S
H1923 C1932 0.950 . S
H1924 C1934 0.950 . S
H1925 C1936 0.950 . S
H1926 C1938 0.950 . S
H1927 C1939 0.950 . S
C1928 H1920 0.950 . S
C1928 C1929 1.386 . S
C1928 C1930 1.391 . S
C1929 C1928 1.386 . S
C1929 C1933 1.393 . S
C1930 H1922 0.950 . S
C1930 C1928 1.391 . S
C1930 C1931 1.400 . S
C1931 C1930 1.400 . S
C1931 C1932 1.398 . S
C1931 C1937 1.491 . S
C1932 H1923 0.950 . S
C1932 C1931 1.398 . S
C1932 C1933 1.391 . S
C1933 H1921 0.950 . S
C1933 C1929 1.393 . S
C1933 C1932 1.391 . S
C1934 H1924 0.950 . S
C1934 C1935 1.386 . S
C1934 C1936 1.391 . S
C1935 C1934 1.386 . S
C1935 C1939 1.393 . S
C1936 H1925 0.950 . S
C1936 C1934 1.391 . S
C1936 C1937 1.400 . S
C1937 C1931 1.491 . S
C1937 C1936 1.400 . S
C1937 C1938 1.398 . S
C1938 H1926 0.950 . S
C1938 C1937 1.398 . S
C1938 C1939 1.391 . S
C1939 H1927 0.950 . S
C1939 C1935 1.393 . S
C1939 C1938 1.391 . S
H1940 C1948 0.950 . S
H1941 C1953 0.950 . S
H1942 C1950 0.950 . S
H1943 C1952 0.950 . S
H1944 C1954 0.950 . S
H1945 C1956 0.950 . S
H1946 C1958 0.950 . S
H1947 C1959 0.950 . S
C1948 H1940 0.950 . S
C1948 C1949 1.386 . S
C1948 C1950 1.391 . S
C1949 C1948 1.386 . S
C1949 C1953 1.393 . S
C1950 H1942 0.950 . S
C1950 C1948 1.391 . S
C1950 C1951 1.400 . S
C1951 C1950 1.400 . S
C1951 C1952 1.398 . S
C1951 C1957 1.491 . S
C1952 H1943 0.950 . S
C1952 C1951 1.398 . S
C1952 C1953 1.391 . S
C1953 H1941 0.950 . S
C1953 C1949 1.393 . S
C1953 C1952 1.391 . S
C1954 H1944 0.950 . S
C1954 C1955 1.386 . S
C1954 C1956 1.391 . S
C1955 C1954 1.386 . S
C1955 C1959 1.393 . S
C1956 H1945 0.950 . S
C1956 C1954 1.391 . S
C1956 C1957 1.400 . S
C1957 C1951 1.491 . S
C1957 C1956 1.400 . S
C1957 C1958 1.398 . S
C1958 H1946 0.950 . S
C1958 C1957 1.398 . S
C1958 C1959 1.391 . S
C1959 H1947 0.950 . S
C1959 C1955 1.393 . S
C1959 C1958 1.391 . S
H1960 C1968 0.950 . S
H1961 C1973 0.950 . S
H1962 C1970 0.950 . S
H1963 C1972 0.950 . S
H1964 C1974 0.950 . S
H1965 C1976 0.950 . S
H1966 C1978 0.950 . S
H1967 C1979 0.950 . S
C1968 H1960 0.950 . S
C1968 C1969 1.386 . S
C1968 C1970 1.391 . S
C1969 C1968 1.386 . S
C1969 C1973 1.393 . S
C1970 H1962 0.950 . S
C1970 C1968 1.391 . S
C1970 C1971 1.400 . S
C1971 C1970 1.400 . S
C1971 C1972 1.398 . S
C1971 C1977 1.491 . S
C1972 H1963 0.950 . S
C1972 C1971 1.398 . S
C1972 C1973 1.391 . S
C1973 H1961 0.950 . S
C1973 C1969 1.393 . S
C1973 C1972 1.391 . S
C1974 H1964 0.950 . S
C1974 C1975 1.386 . S
C1974 C1976 1.391 . S
C1975 C1974 1.386 . S
C1975 C1979 1.393 . S
C1976 H1965 0.950 . S
C1976 C1974 1.391 . S
C1976 C1977 1.400 . S
C1977 C1971 1.491 . S
C1977 C1976 1.400 . S
C1977 C1978 1.398 . S
C1978 H1966 0.950 . S
C1978 C1977 1.398 . S
C1978 C1979 1.391 . S
C1979 H1967 0.950 . S
C1979 C1975 1.393 . S
C1979 C1978 1.391 . S
H1980 C1988 0.950 . S
H1981 C1993 0.950 . S
H1982 C1990 0.950 . S
H1983 C1992 0.950 . S
H1984 C1994 0.950 . S
H1985 C1996 0.950 . S
H1986 C1998 0.950 . S
H1987 C1999 0.950 . S
C1988 H1980 0.950 . S
C1988 C1989 1.386 . S
C1988 C1990 1.391 . S
C1989 C1988 1.386 . S
C1989 C1993 1.393 . S
C1990 H1982 0.950 . S
C1990 C1988 1.391 . S
C1990 C1991 1.400 . S
C1991 C1990 1.400 . S
C1991 C1992 1.398 . S
C1991 C1997 1.491 . S
C1992 H1983 0.950 . S
C1992 C1991 1.398 . S
C1992 C1993 1.391 . S
C1993 H1981 0.950 . S
C1993 C1989 1.393 . S
C1993 C1992 1.391 . S
C1994 H1984 0.950 . S
C1994 C1995 1.386 . S
C1994 C1996 1.391 . S
C1995 C1994 1.386 . S
C1995 C1999 1.393 . S
C1996 H1985 0.950 . S
C1996 C1994 1.391 . S
C1996 C1997 1.400 . S
C1997 C1991 1.491 . S
C1997 C1996 1.400 . S
C1997 C1998 1.398 . S
C1998 H1986 0.950 . S
C1998 C1997 1.398 . S
C1998 C1999 1.391 . S
C1999 H1987 0.950 . S
C1999 C1995 1.393 . S
C1999 C1998 1.391 . S
H2000 C2008 0.950 . S
H2001 C2013 0.950 . S
H2002 C2010 0.950 . S
H2003 C2012 0.950 . S
H2004 C2014 0.950 . S
H2005 C2016 0.950 . S
H2006 C2018 0.950 . S
H2007 C2019 0.950 . S
C2008 H2000 0.950 . S
C2008 C2009 1.386 . S
C2008 C2010 1.391 . S
C2009 C2008 1.386 . S
C2009 C2013 1.393 . S
C2010 H2002 0.950 . S
C2010 C2008 1.391 . S
C2010 C2011 1.400 . S
C2011 C2010 1.400 . S
C2011 C2012 1.398 . S
C2011 C2017 1.491 . S
C2012 H2003 0.950 . S
C2012 C2011 1.398 . S
C2012 C2013 1.391 . S
C2013 H2001 0.950 . S
C2013 C2009 1.393 . S
C2013 C2012 1.391 . S
C2014 H2004 0.950 . S
C2014 C2015 1.386 . S
C2014 C2016 1.391 . S
C2015 C2014 1.386 . S
C2015 C2019 1.393 . S
C2016 H2005 0.950 . S
C2016 C2014 1.391 . S
C2016 C2017 1.400 . S
C2017 C2011 1.491 . S
C2017 C2016 1.400 . S
C2017 C2018 1.398 . S
C2018 H2006 0.950 . S
C2018 C2017 1.398 . S
C2018 C2019 1.391 . S
C2019 H2007 0.950 . S
C2019 C2015 1.393 . S
C2019 C2018 1.391 . S
H2020 C2028 0.950 . S
H2021 C2033 0.950 . S
H2022 C2030 0.950 . S
H2023 C2032 0.950 . S
H2024 C2034 0.950 . S
H2025 C2036 0.950 . S
H2026 C2038 0.950 . S
H2027 C2039 0.950 . S
C2028 H2020 0.950 . S
C2028 C2029 1.386 . S
C2028 C2030 1.391 . S
C2029 C2028 1.386 . S
C2029 C2033 1.393 . S
C2030 H2022 0.950 . S
C2030 C2028 1.391 . S
C2030 C2031 1.400 . S
C2031 C2030 1.400 . S
C2031 C2032 1.398 . S
C2031 C2037 1.491 . S
C2032 H2023 0.950 . S
C2032 C2031 1.398 . S
C2032 C2033 1.391 . S
C2033 H2021 0.950 . S
C2033 C2029 1.393 . S
C2033 C2032 1.391 . S
C2034 H2024 0.950 . S
C2034 C2035 1.386 . S
C2034 C2036 1.391 . S
C2035 C2034 1.386 . S
C2035 C2039 1.393 . S
C2036 H2025 0.950 . S
C2036 C2034 1.391 . S
C2036 C2037 1.400 . S
C2037 C2031 1.491 . S
C2037 C2036 1.400 . S
C2037 C2038 1.398 . S
C2038 H2026 0.950 . S
C2038 C2037 1.398 . S
C2038 C2039 1.391 . S
C2039 H2027 0.950 . S
C2039 C2035 1.393 . S
C2039 C2038 1.391 . S
H2040 C2048 0.950 . S
H2041 C2053 0.950 . S
H2042 C2050 0.950 . S
H2043 C2052 0.950 . S
H2044 C2054 0.950 . S
H2045 C2056 0.950 . S
H2046 C2058 0.950 . S
H2047 C2059 0.950 . S
C2048 H2040 0.950 . S
C2048 C2049 1.386 . S
C2048 C2050 1.391 . S
C2049 C2048 1.386 . S
C2049 C2053 1.393 . S
C2050 H2042 0.950 . S
C2050 C2048 1.391 . S
C2050 C2051 1.400 . S
C2051 C2050 1.400 . S
C2051 C2052 1.398 . S
C2051 C2057 1.491 . S
C2052 H2043 0.950 . S
C2052 C2051 1.398 . S
C2052 C2053 1.391 . S
C2053 H2041 0.950 . S
C2053 C2049 1.393 . S
C2053 C2052 1.391 . S
C2054 H2044 0.950 . S
C2054 C2055 1.386 . S
C2054 C2056 1.391 . S
C2055 C2054 1.386 . S
C2055 C2059 1.393 . S
C2056 H2045 0.950 . S
C2056 C2054 1.391 . S
C2056 C2057 1.400 . S
C2057 C2051 1.491 . S
C2057 C2056 1.400 . S
C2057 C2058 1.398 . S
C2058 H2046 0.950 . S
C2058 C2057 1.398 . S
C2058 C2059 1.391 . S
C2059 H2047 0.950 . S
C2059 C2055 1.393 . S
C2059 C2058 1.391 . S
H2060 C2068 0.950 . S
H2061 C2073 0.950 . S
H2062 C2070 0.950 . S
H2063 C2072 0.950 . S
H2064 C2074 0.950 . S
H2065 C2076 0.950 . S
H2066 C2078 0.950 . S
H2067 C2079 0.950 . S
C2068 H2060 0.950 . S
C2068 C2069 1.386 . S
C2068 C2070 1.391 . S
C2069 C2068 1.386 . S
C2069 C2073 1.393 . S
C2070 H2062 0.950 . S
C2070 C2068 1.391 . S
C2070 C2071 1.400 . S
C2071 C2070 1.400 . S
C2071 C2072 1.398 . S
C2071 C2077 1.491 . S
C2072 H2063 0.950 . S
C2072 C2071 1.398 . S
C2072 C2073 1.391 . S
C2073 H2061 0.950 . S
C2073 C2069 1.393 . S
C2073 C2072 1.391 . S
C2074 H2064 0.950 . S
C2074 C2075 1.386 . S
C2074 C2076 1.391 . S
C2075 C2074 1.386 . S
C2075 C2079 1.393 . S
C2076 H2065 0.950 . S
C2076 C2074 1.391 . S
C2076 C2077 1.400 . S
C2077 C2071 1.491 . S
C2077 C2076 1.400 . S
C2077 C2078 1.398 . S
C2078 H2066 0.950 . S
C2078 C2077 1.398 . S
C2078 C2079 1.391 . S
C2079 H2067 0.950 . S
C2079 C2075 1.393 . S
C2079 C2078 1.391 . S
H2080 C2088 0.950 . S
H2081 C2093 0.950 . S
H2082 C2090 0.950 . S
H2083 C2092 0.950 . S
H2084 C2094 0.950 . S
H2085 C2096 0.950 . S
H2086 C2098 0.950 . S
H2087 C2099 0.950 . S
C2088 H2080 0.950 . S
C2088 C2089 1.386 . S
C2088 C2090 1.391 . S
C2089 C2088 1.386 . S
C2089 C2093 1.393 . S
C2090 H2082 0.950 . S
C2090 C2088 1.391 . S
C2090 C2091 1.400 . S
C2091 C2090 1.400 . S
C2091 C2092 1.398 . S
C2091 C2097 1.491 . S
C2092 H2083 0.950 . S
C2092 C2091 1.398 . S
C2092 C2093 1.391 . S
C2093 H2081 0.950 . S
C2093 C2089 1.393 . S
C2093 C2092 1.391 . S
C2094 H2084 0.950 . S
C2094 C2095 1.386 . S
C2094 C2096 1.391 . S
C2095 C2094 1.386 . S
C2095 C2099 1.393 . S
C2096 H2085 0.950 . S
C2096 C2094 1.391 . S
C2096 C2097 1.400 . S
C2097 C2091 1.491 . S
C2097 C2096 1.400 . S
C2097 C2098 1.398 . S
C2098 H2086 0.950 . S
C2098 C2097 1.398 . S
C2098 C2099 1.391 . S
C2099 H2087 0.950 . S
C2099 C2095 1.393 . S
C2099 C2098 1.391 . S
H2100 C2108 0.950 . S
H2101 C2113 0.950 . S
H2102 C2110 0.950 . S
H2103 C2112 0.950 . S
H2104 C2114 0.950 . S
H2105 C2116 0.950 . S
H2106 C2118 0.950 . S
H2107 C2119 0.950 . S
C2108 H2100 0.950 . S
C2108 C2109 1.386 . S
C2108 C2110 1.391 . S
C2109 C2108 1.386 . S
C2109 C2113 1.393 . S
C2110 H2102 0.950 . S
C2110 C2108 1.391 . S
C2110 C2111 1.400 . S
C2111 C2110 1.400 . S
C2111 C2112 1.398 . S
C2111 C2117 1.491 . S
C2112 H2103 0.950 . S
C2112 C2111 1.398 . S
C2112 C2113 1.391 . S
C2113 H2101 0.950 . S
C2113 C2109 1.393 . S
C2113 C2112 1.391 . S
C2114 H2104 0.950 . S
C2114 C2115 1.386 . S
C2114 C2116 1.391 . S
C2115 C2114 1.386 . S
C2115 C2119 1.393 . S
C2116 H2105 0.950 . S
C2116 C2114 1.391 . S
C2116 C2117 1.400 . S
C2117 C2111 1.491 . S
C2117 C2116 1.400 . S
C2117 C2118 1.398 . S
C2118 H2106 0.950 . S
C2118 C2117 1.398 . S
C2118 C2119 1.391 . S
C2119 H2107 0.950 . S
C2119 C2115 1.393 . S
C2119 C2118 1.391 . S
H2120 C2128 0.950 . S
H2121 C2133 0.950 . S
H2122 C2130 0.950 . S
H2123 C2132 0.950 . S
H2124 C2134 0.950 . S
H2125 C2136 0.950 . S
H2126 C2138 0.950 . S
H2127 C2139 0.950 . S
C2128 H2120 0.950 . S
C2128 C2129 1.386 . S
C2128 C2130 1.391 . S
C2129 C2128 1.386 . S
C2129 C2133 1.393 . S
C2130 H2122 0.950 . S
C2130 C2128 1.391 . S
C2130 C2131 1.400 . S
C2131 C2130 1.400 . S
C2131 C2132 1.398 . S
C2131 C2137 1.491 . S
C2132 H2123 0.950 . S
C2132 C2131 1.398 . S
C2132 C2133 1.391 . S
C2133 H2121 0.950 . S
C2133 C2129 1.393 . S
C2133 C2132 1.391 . S
C2134 H2124 0.950 . S
C2134 C2135 1.386 . S
C2134 C2136 1.391 . S
C2135 C2134 1.386 . S
C2135 C2139 1.393 . S
C2136 H2125 0.950 . S
C2136 C2134 1.391 . S
C2136 C2137 1.400 . S
C2137 C2131 1.491 . S
C2137 C2136 1.400 . S
C2137 C2138 1.398 . S
C2138 H2126 0.950 . S
C2138 C2137 1.398 . S
C2138 C2139 1.391 . S
C2139 H2127 0.950 . S
C2139 C2135 1.393 . S
C2139 C2138 1.391 . S
H2140 C2148 0.950 . S
H2141 C2153 0.950 . S
H2142 C2150 0.950 . S
H2143 C2152 0.950 . S
H2144 C2154 0.950 . S
H2145 C2156 0.950 . S
H2146 C2158 0.950 . S
H2147 C2159 0.950 . S
C2148 H2140 0.950 . S
C2148 C2149 1.386 . S
C2148 C2150 1.391 . S
C2149 C2148 1.386 . S
C2149 C2153 1.393 . S
C2150 H2142 0.950 . S
C2150 C2148 1.391 . S
C2150 C2151 1.400 . S
C2151 C2150 1.400 . S
C2151 C2152 1.398 . S
C2151 C2157 1.491 . S
C2152 H2143 0.950 . S
C2152 C2151 1.398 . S
C2152 C2153 1.391 . S
C2153 H2141 0.950 . S
C2153 C2149 1.393 . S
C2153 C2152 1.391 . S
C2154 H2144 0.950 . S
C2154 C2155 1.386 . S
C2154 C2156 1.391 . S
C2155 C2154 1.386 . S
C2155 C2159 1.393 . S
C2156 H2145 0.950 . S
C2156 C2154 1.391 . S
C2156 C2157 1.400 . S
C2157 C2151 1.491 . S
C2157 C2156 1.400 . S
C2157 C2158 1.398 . S
C2158 H2146 0.950 . S
C2158 C2157 1.398 . S
C2158 C2159 1.391 . S
C2159 H2147 0.950 . S
C2159 C2155 1.393 . S
C2159 C2158 1.391 . S
H2160 C2168 0.950 . S
H2161 C2173 0.950 . S
H2162 C2170 0.950 . S
H2163 C2172 0.950 . S
H2164 C2174 0.950 . S
H2165 C2176 0.950 . S
H2166 C2178 0.950 . S
H2167 C2179 0.950 . S
C2168 H2160 0.950 . S
C2168 C2169 1.386 . S
C2168 C2170 1.391 . S
C2169 C2168 1.386 . S
C2169 C2173 1.393 . S
C2170 H2162 0.950 . S
C2170 C2168 1.391 . S
C2170 C2171 1.400 . S
C2171 C2170 1.400 . S
C2171 C2172 1.398 . S
C2171 C2177 1.491 . S
C2172 H2163 0.950 . S
C2172 C2171 1.398 . S
C2172 C2173 1.391 . S
C2173 H2161 0.950 . S
C2173 C2169 1.393 . S
C2173 C2172 1.391 . S
C2174 H2164 0.950 . S
C2174 C2175 1.386 . S
C2174 C2176 1.391 . S
C2175 C2174 1.386 . S
C2175 C2179 1.393 . S
C2176 H2165 0.950 . S
C2176 C2174 1.391 . S
C2176 C2177 1.400 . S
C2177 C2171 1.491 . S
C2177 C2176 1.400 . S
C2177 C2178 1.398 . S
C2178 H2166 0.950 . S
C2178 C2177 1.398 . S
C2178 C2179 1.391 . S
C2179 H2167 0.950 . S
C2179 C2175 1.393 . S
C2179 C2178 1.391 . S
H2180 C2188 0.950 . S
H2181 C2193 0.950 . S
H2182 C2190 0.950 . S
H2183 C2192 0.950 . S
H2184 C2194 0.950 . S
H2185 C2196 0.950 . S
H2186 C2198 0.950 . S
H2187 C2199 0.950 . S
C2188 H2180 0.950 . S
C2188 C2189 1.386 . S
C2188 C2190 1.391 . S
C2189 C2188 1.386 . S
C2189 C2193 1.393 . S
C2190 H2182 0.950 . S
C2190 C2188 1.391 . S
C2190 C2191 1.400 . S
C2191 C2190 1.400 . S
C2191 C2192 1.398 . S
C2191 C2197 1.491 . S
C2192 H2183 0.950 . S
C2192 C2191 1.398 . S
C2192 C2193 1.391 . S
C2193 H2181 0.950 . S
C2193 C2189 1.393 . S
C2193 C2192 1.391 . S
C2194 H2184 0.950 . S
C2194 C2195 1.386 . S
C2194 C2196 1.391 . S
C2195 C2194 1.386 . S
C2195 C2199 1.393 . S
C2196 H2185 0.950 . S
C2196 C2194 1.391 . S
C2196 C2197 1.400 . S
C2197 C2191 1.491 . S
C2197 C2196 1.400 . S
C2197 C2198 1.398 . S
C2198 H2186 0.950 . S
C2198 C2197 1.398 . S
C2198 C2199 1.391 . S
C2199 H2187 0.950 . S
C2199 C2195 1.393 . S
C2199 C2198 1.391 . S
H2200 C2208 0.950 . S
H2201 C2213 0.950 . S
H2202 C2210 0.950 . S
H2203 C2212 0.950 . S
H2204 C2214 0.950 . S
H2205 C2216 0.950 . S
H2206 C2218 0.950 . S
H2207 C2219 0.950 . S
C2208 H2200 0.950 . S
C2208 C2209 1.386 . S
C2208 C2210 1.391 . S
C2209 C2208 1.386 . S
C2209 C2213 1.393 . S
C2210 H2202 0.950 . S
C2210 C2208 1.391 . S
C2210 C2211 1.400 . S
C2211 C2210 1.400 . S
C2211 C2212 1.398 . S
C2211 C2217 1.491 . S
C2212 H2203 0.950 . S
C2212 C2211 1.398 . S
C2212 C2213 1.391 . S
C2213 H2201 0.950 . S
C2213 C2209 1.393 . S
C2213 C2212 1.391 . S
C2214 H2204 0.950 . S
C2214 C2215 1.386 . S
C2214 C2216 1.391 . S
C2215 C2214 1.386 . S
C2215 C2219 1.393 . S
C2216 H2205 0.950 . S
C2216 C2214 1.391 . S
C2216 C2217 1.400 . S
C2217 C2211 1.491 . S
C2217 C2216 1.400 . S
C2217 C2218 1.398 . S
C2218 H2206 0.950 . S
C2218 C2217 1.398 . S
C2218 C2219 1.391 . S
C2219 H2207 0.950 . S
C2219 C2215 1.393 . S
C2219 C2218 1.391 . S
H2220 C2228 0.950 . S
H2221 C2233 0.950 . S
H2222 C2230 0.950 . S
H2223 C2232 0.950 . S
H2224 C2234 0.950 . S
H2225 C2236 0.950 . S
H2226 C2238 0.950 . S
H2227 C2239 0.950 . S
C2228 H2220 0.950 . S
C2228 C2229 1.386 . S
C2228 C2230 1.391 . S
C2229 C2228 1.386 . S
C2229 C2233 1.393 . S
C2230 H2222 0.950 . S
C2230 C2228 1.391 . S
C2230 C2231 1.400 . S
C2231 C2230 1.400 . S
C2231 C2232 1.398 . S
C2231 C2237 1.491 . S
C2232 H2223 0.950 . S
C2232 C2231 1.398 . S
C2232 C2233 1.391 . S
C2233 H2221 0.950 . S
C2233 C2229 1.393 . S
C2233 C2232 1.391 . S
C2234 H2224 0.950 . S
C2234 C2235 1.386 . S
C2234 C2236 1.391 . S
C2235 C2234 1.386 . S
C2235 C2239 1.393 . S
C2236 H2225 0.950 . S
C2236 C2234 1.391 . S
C2236 C2237 1.400 . S
C2237 C2231 1.491 . S
C2237 C2236 1.400 . S
C2237 C2238 1.398 . S
C2238 H2226 0.950 . S
C2238 C2237 1.398 . S
C2238 C2239 1.391 . S
C2239 H2227 0.950 . S
C2239 C2235 1.393 . S
C2239 C2238 1.391 . S
H2240 C2248 0.950 . S
H2241 C2253 0.950 . S
H2242 C2250 0.950 . S
H2243 C2252 0.950 . S
H2244 C2254 0.950 . S
H2245 C2256 0.950 . S
H2246 C2258 0.950 . S
H2247 C2259 0.950 . S
C2248 H2240 0.950 . S
C2248 C2249 1.386 . S
C2248 C2250 1.391 . S
C2249 C2248 1.386 . S
C2249 C2253 1.393 . S
C2250 H2242 0.950 . S
C2250 C2248 1.391 . S
C2250 C2251 1.400 . S
C2251 C2250 1.400 . S
C2251 C2252 1.398 . S
C2251 C2257 1.491 . S
C2252 H2243 0.950 . S
C2252 C2251 1.398 . S
C2252 C2253 1.391 . S
C2253 H2241 0.950 . S
C2253 C2249 1.393 . S
C2253 C2252 1.391 . S
C2254 H2244 0.950 . S
C2254 C2255 1.386 . S
C2254 C2256 1.391 . S
C2255 C2254 1.386 . S
C2255 C2259 1.393 . S
C2256 H2245 0.950 . S
C2256 C2254 1.391 . S
C2256 C2257 1.400 . S
C2257 C2251 1.491 . S
C2257 C2256 1.400 . S
C2257 C2258 1.398 . S
C2258 H2246 0.950 . S
C2258 C2257 1.398 . S
C2258 C2259 1.391 . S
C2259 H2247 0.950 . S
C2259 C2255 1.393 . S
C2259 C2258 1.391 . S
H2260 C2268 0.950 . S
H2261 C2273 0.950 . S
H2262 C2270 0.950 . S
H2263 C2272 0.950 . S
H2264 C2274 0.950 . S
H2265 C2276 0.950 . S
H2266 C2278 0.950 . S
H2267 C2279 0.950 . S
C2268 H2260 0.950 . S
C2268 C2269 1.386 . S
C2268 C2270 1.391 . S
C2269 C2268 1.386 . S
C2269 C2273 1.393 . S
C2270 H2262 0.950 . S
C2270 C2268 1.391 . S
C2270 C2271 1.400 . S
C2271 C2270 1.400 . S
C2271 C2272 1.398 . S
C2271 C2277 1.491 . S
C2272 H2263 0.950 . S
C2272 C2271 1.398 . S
C2272 C2273 1.391 . S
C2273 H2261 0.950 . S
C2273 C2269 1.393 . S
C2273 C2272 1.391 . S
C2274 H2264 0.950 . S
C2274 C2275 1.386 . S
C2274 C2276 1.391 . S
C2275 C2274 1.386 . S
C2275 C2279 1.393 . S
C2276 H2265 0.950 . S
C2276 C2274 1.391 . S
C2276 C2277 1.400 . S
C2277 C2271 1.491 . S
C2277 C2276 1.400 . S
C2277 C2278 1.398 . S
C2278 H2266 0.950 . S
C2278 C2277 1.398 . S
C2278 C2279 1.391 . S
C2279 H2267 0.950 . S
C2279 C2275 1.393 . S
C2279 C2278 1.391 . S
H2280 C2288 0.950 . S
H2281 C2293 0.950 . S
H2282 C2290 0.950 . S
H2283 C2292 0.950 . S
H2284 C2294 0.950 . S
H2285 C2296 0.950 . S
H2286 C2298 0.950 . S
H2287 C2299 0.950 . S
C2288 H2280 0.950 . S
C2288 C2289 1.386 . S
C2288 C2290 1.391 . S
C2289 C2288 1.386 . S
C2289 C2293 1.393 . S
C2290 H2282 0.950 . S
C2290 C2288 1.391 . S
C2290 C2291 1.400 . S
C2291 C2290 1.400 . S
C2291 C2292 1.398 . S
C2291 C2297 1.491 . S
C2292 H2283 0.950 . S
C2292 C2291 1.398 . S
C2292 C2293 1.391 . S
C2293 H2281 0.950 . S
C2293 C2289 1.393 . S
C2293 C2292 1.391 . S
C2294 H2284 0.950 . S
C2294 C2295 1.386 . S
C2294 C2296 1.391 . S
C2295 C2294 1.386 . S
C2295 C2299 1.393 . S
C2296 H2285 0.950 . S
C2296 C2294 1.391 . S
C2296 C2297 1.400 . S
C2297 C2291 1.491 . S
C2297 C2296 1.400 . S
C2297 C2298 1.398 . S
C2298 H2286 0.950 . S
C2298 C2297 1.398 . S
C2298 C2299 1.391 . S
C2299 H2287 0.950 . S
C2299 C2295 1.393 . S
C2299 C2298 1.391 . S
H2300 C2308 0.950 . S
H2301 C2313 0.950 . S
H2302 C2310 0.950 . S
H2303 C2312 0.950 . S
H2304 C2314 0.950 . S
H2305 C2316 0.950 . S
H2306 C2318 0.950 . S
H2307 C2319 0.950 . S
C2308 H2300 0.950 . S
C2308 C2309 1.386 . S
C2308 C2310 1.391 . S
C2309 C2308 1.386 . S
C2309 C2313 1.393 . S
C2310 H2302 0.950 . S
C2310 C2308 1.391 . S
C2310 C2311 1.400 . S
C2311 C2310 1.400 . S
C2311 C2312 1.398 . S
C2311 C2317 1.491 . S
C2312 H2303 0.950 . S
C2312 C2311 1.398 . S
C2312 C2313 1.391 . S
C2313 H2301 0.950 . S
C2313 C2309 1.393 . S
C2313 C2312 1.391 . S
C2314 H2304 0.950 . S
C2314 C2315 1.386 . S
C2314 C2316 1.391 . S
C2315 C2314 1.386 . S
C2315 C2319 1.393 . S
C2316 H2305 0.950 . S
C2316 C2314 1.391 . S
C2316 C2317 1.400 . S
C2317 C2311 1.491 . S
C2317 C2316 1.400 . S
C2317 C2318 1.398 . S
C2318 H2306 0.950 . S
C2318 C2317 1.398 . S
C2318 C2319 1.391 . S
C2319 H2307 0.950 . S
C2319 C2315 1.393 . S
C2319 C2318 1.391 . S
H2320 C2328 0.950 . S
H2321 C2333 0.950 . S
H2322 C2330 0.950 . S
H2323 C2332 0.950 . S
H2324 C2334 0.950 . S
H2325 C2336 0.950 . S
H2326 C2338 0.950 . S
H2327 C2339 0.950 . S
C2328 H2320 0.950 . S
C2328 C2329 1.386 . S
C2328 C2330 1.391 . S
C2329 C2328 1.386 . S
C2329 C2333 1.393 . S
C2330 H2322 0.950 . S
C2330 C2328 1.391 . S
C2330 C2331 1.400 . S
C2331 C2330 1.400 . S
C2331 C2332 1.398 . S
C2331 C2337 1.491 . S
C2332 H2323 0.950 . S
C2332 C2331 1.398 . S
C2332 C2333 1.391 . S
C2333 H2321 0.950 . S
C2333 C2329 1.393 . S
C2333 C2332 1.391 . S
C2334 H2324 0.950 . S
C2334 C2335 1.386 . S
C2334 C2336 1.391 . S
C2335 C2334 1.386 . S
C2335 C2339 1.393 . S
C2336 H2325 0.950 . S
C2336 C2334 1.391 . S
C2336 C2337 1.400 . S
C2337 C2331 1.491 . S
C2337 C2336 1.400 . S
C2337 C2338 1.398 . S
C2338 H2326 0.950 . S
C2338 C2337 1.398 . S
C2338 C2339 1.391 . S
C2339 H2327 0.950 . S
C2339 C2335 1.393 . S
C2339 C2338 1.391 . S
H2340 C2348 0.950 . S
H2341 C2353 0.950 . S
H2342 C2350 0.950 . S
H2343 C2352 0.950 . S
H2344 C2354 0.950 . S
H2345 C2356 0.950 . S
H2346 C2358 0.950 . S
H2347 C2359 0.950 . S
C2348 H2340 0.950 . S
C2348 C2349 1.386 . S
C2348 C2350 1.391 . S
C2349 C2348 1.386 . S
C2349 C2353 1.393 . S
C2350 H2342 0.950 . S
C2350 C2348 1.391 . S
C2350 C2351 1.400 . S
C2351 C2350 1.400 . S
C2351 C2352 1.398 . S
C2351 C2357 1.491 . S
C2352 H2343 0.950 . S
C2352 C2351 1.398 . S
C2352 C2353 1.391 . S
C2353 H2341 0.950 . S
C2353 C2349 1.393 . S
C2353 C2352 1.391 . S
C2354 H2344 0.950 . S
C2354 C2355 1.386 . S
C2354 C2356 1.391 . S
C2355 C2354 1.386 . S
C2355 C2359 1.393 . S
C2356 H2345 0.950 . S
C2356 C2354 1.391 . S
C2356 C2357 1.400 . S
C2357 C2351 1.491 . S
C2357 C2356 1.400 . S
C2357 C2358 1.398 . S
C2358 H2346 0.950 . S
C2358 C2357 1.398 . S
C2358 C2359 1.391 . S
C2359 H2347 0.950 . S
C2359 C2355 1.393 . S
C2359 C2358 1.391 . S
H2360 C2368 0.950 . S
H2361 C2373 0.950 . S
H2362 C2370 0.950 . S
H2363 C2372 0.950 . S
H2364 C2374 0.950 . S
H2365 C2376 0.950 . S
H2366 C2378 0.950 . S
H2367 C2379 0.950 . S
C2368 H2360 0.950 . S
C2368 C2369 1.386 . S
C2368 C2370 1.391 . S
C2369 C2368 1.386 . S
C2369 C2373 1.393 . S
C2370 H2362 0.950 . S
C2370 C2368 1.391 . S
C2370 C2371 1.400 . S
C2371 C2370 1.400 . S
C2371 C2372 1.398 . S
C2371 C2377 1.491 . S
C2372 H2363 0.950 . S
C2372 C2371 1.398 . S
C2372 C2373 1.391 . S
C2373 H2361 0.950 . S
C2373 C2369 1.393 . S
C2373 C2372 1.391 . S
C2374 H2364 0.950 . S
C2374 C2375 1.386 . S
C2374 C2376 1.391 . S
C2375 C2374 1.386 . S
C2375 C2379 1.393 . S
C2376 H2365 0.950 . S
C2376 C2374 1.391 . S
C2376 C2377 1.400 . S
C2377 C2371 1.491 . S
C2377 C2376 1.400 . S
C2377 C2378 1.398 . S
C2378 H2366 0.950 . S
C2378 C2377 1.398 . S
C2378 C2379 1.391 . S
C2379 H2367 0.950 . S
C2379 C2375 1.393 . S
C2379 C2378 1.391 . S
H2380 C2388 0.950 . S
H2381 C2393 0.950 . S
H2382 C2390 0.950 . S
H2383 C2392 0.950 . S
H2384 C2394 0.950 . S
H2385 C2396 0.950 . S
H2386 C2398 0.950 . S
H2387 C2399 0.950 . S
C2388 H2380 0.950 . S
C2388 C2389 1.386 . S
C2388 C2390 1.391 . S
C2389 C2388 1.386 . S
C2389 C2393 1.393 . S
C2390 H2382 0.950 . S
C2390 C2388 1.391 . S
C2390 C2391 1.400 . S
C2391 C2390 1.400 . S
C2391 C2392 1.398 . S
C2391 C2397 1.491 . S
C2392 H2383 0.950 . S
C2392 C2391 1.398 . S
C2392 C2393 1.391 . S
C2393 H2381 0.950 . S
C2393 C2389 1.393 . S
C2393 C2392 1.391 . S
C2394 H2384 0.950 . S
C2394 C2395 1.386 . S
C2394 C2396 1.391 . S
C2395 C2394 1.386 . S
C2395 C2399 1.393 . S
C2396 H2385 0.950 . S
C2396 C2394 1.391 . S
C2396 C2397 1.400 . S
C2397 C2391 1.491 . S
C2397 C2396 1.400 . S
C2397 C2398 1.398 . S
C2398 H2386 0.950 . S
C2398 C2397 1.398 . S
C2398 C2399 1.391 . S
C2399 H2387 0.950 . S
C2399 C2395 1.393 . S
C2399 C2398 1.391 . S
H2400 C2408 0.950 . S
H2401 C2413 0.950 . S
H2402 C2410 0.950 . S
H2403 C2412 0.950 . S
H2404 C2414 0.950 . S
H2405 C2416 0.950 . S
H2406 C2418 0.950 . S
H2407 C2419 0.950 . S
C2408 H2400 0.950 . S
C2408 C2409 1.386 . S
C2408 C2410 1.391 . S
C2409 C2408 1.386 . S
C2409 C2413 1.393 . S
C2410 H2402 0.950 . S
C2410 C2408 1.391 . S
C2410 C2411 1.400 . S
C2411 C2410 1.400 . S
C2411 C2412 1.398 . S
C2411 C2417 1.491 . S
C2412 H2403 0.950 . S
C2412 C2411 1.398 . S
C2412 C2413 1.391 . S
C2413 H2401 0.950 . S
C2413 C2409 1.393 . S
C2413 C2412 1.391 . S
C2414 H2404 0.950 . S
C2414 C2415 1.386 . S
C2414 C2416 1.391 . S
C2415 C2414 1.386 . S
C2415 C2419 1.393 . S
C2416 H2405 0.950 . S
C2416 C2414 1.391 . S
C2416 C2417 1.400 . S
C2417 C2411 1.491 . S
C2417 C2416 1.400 . S
C2417 C2418 1.398 . S
C2418 H2406 0.950 . S
C2418 C2417 1.398 . S
C2418 C2419 1.391 . S
C2419 H2407 0.950 . S
C2419 C2415 1.393 . S
C2419 C2418 1.391 . S
H2420 C2428 0.950 . S
H2421 C2433 0.950 . S
H2422 C2430 0.950 . S
H2423 C2432 0.950 . S
H2424 C2434 0.950 . S
H2425 C2436 0.950 . S
H2426 C2438 0.950 . S
H2427 C2439 0.950 . S
C2428 H2420 0.950 . S
C2428 C2429 1.386 . S
C2428 C2430 1.391 . S
C2429 C2428 1.386 . S
C2429 C2433 1.393 . S
C2430 H2422 0.950 . S
C2430 C2428 1.391 . S
C2430 C2431 1.400 . S
C2431 C2430 1.400 . S
C2431 C2432 1.398 . S
C2431 C2437 1.491 . S
C2432 H2423 0.950 . S
C2432 C2431 1.398 . S
C2432 C2433 1.391 . S
C2433 H2421 0.950 . S
C2433 C2429 1.393 . S
C2433 C2432 1.391 . S
C2434 H2424 0.950 . S
C2434 C2435 1.386 . S
C2434 C2436 1.391 . S
C2435 C2434 1.386 . S
C2435 C2439 1.393 . S
C2436 H2425 0.950 . S
C2436 C2434 1.391 . S
C2436 C2437 1.400 . S
C2437 C2431 1.491 . S
C2437 C2436 1.400 . S
C2437 C2438 1.398 . S
C2438 H2426 0.950 . S
C2438 C2437 1.398 . S
C2438 C2439 1.391 . S
C2439 H2427 0.950 . S
C2439 C2435 1.393 . S
C2439 C2438 1.391 . S
H2440 C2448 0.950 . S
H2441 C2453 0.950 . S
H2442 C2450 0.950 . S
H2443 C2452 0.950 . S
H2444 C2454 0.950 . S
H2445 C2456 0.950 . S
H2446 C2458 0.950 . S
H2447 C2459 0.950 . S
C2448 H2440 0.950 . S
C2448 C2449 1.386 . S
C2448 C2450 1.391 . S
C2449 C2448 1.386 . S
C2449 C2453 1.393 . S
C2450 H2442 0.950 . S
C2450 C2448 1.391 . S
C2450 C2451 1.400 . S
C2451 C2450 1.400 . S
C2451 C2452 1.398 . S
C2451 C2457 1.491 . S
C2452 H2443 0.950 . S
C2452 C2451 1.398 . S
C2452 C2453 1.391 . S
C2453 H2441 0.950 . S
C2453 C2449 1.393 . S
C2453 C2452 1.391 . S
C2454 H2444 0.950 . S
C2454 C2455 1.386 . S
C2454 C2456 1.391 . S
C2455 C2454 1.386 . S
C2455 C2459 1.393 . S
C2456 H2445 0.950 . S
C2456 C2454 1.391 . S
C2456 C2457 1.400 . S
C2457 C2451 1.491 . S
C2457 C2456 1.400 . S
C2457 C2458 1.398 . S
C2458 H2446 0.950 . S
C2458 C2457 1.398 . S
C2458 C2459 1.391 . S
C2459 H2447 0.950 . S
C2459 C2455 1.393 . S
C2459 C2458 1.391 . S
H2460 C2468 0.950 . S
H2461 C2473 0.950 . S
H2462 C2470 0.950 . S
H2463 C2472 0.950 . S
H2464 C2474 0.950 . S
H2465 C2476 0.950 . S
H2466 C2478 0.950 . S
H2467 C2479 0.950 . S
C2468 H2460 0.950 . S
C2468 C2469 1.386 . S
C2468 C2470 1.391 . S
C2469 C2468 1.386 . S
C2469 C2473 1.393 . S
C2470 H2462 0.950 . S
C2470 C2468 1.391 . S
C2470 C2471 1.400 . S
C2471 C2470 1.400 . S
C2471 C2472 1.398 . S
C2471 C2477 1.491 . S
C2472 H2463 0.950 . S
C2472 C2471 1.398 . S
C2472 C2473 1.391 . S
C2473 H2461 0.950 . S
C2473 C2469 1.393 . S
C2473 C2472 1.391 . S
C2474 H2464 0.950 . S
C2474 C2475 1.386 . S
C2474 C2476 1.391 . S
C2475 C2474 1.386 . S
C2475 C2479 1.393 . S
C2476 H2465 0.950 . S
C2476 C2474 1.391 . S
C2476 C2477 1.400 . S
C2477 C2471 1.491 . S
C2477 C2476 1.400 . S
C2477 C2478 1.398 . S
C2478 H2466 0.950 . S
C2478 C2477 1.398 . S
C2478 C2479 1.391 . S
C2479 H2467 0.950 . S
C2479 C2475 1.393 . S
C2479 C2478 1.391 . S
H2480 C2488 0.950 . S
H2481 C2493 0.950 . S
H2482 C2490 0.950 . S
H2483 C2492 0.950 . S
H2484 C2494 0.950 . S
H2485 C2496 0.950 . S
H2486 C2498 0.950 . S
H2487 C2499 0.950 . S
C2488 H2480 0.950 . S
C2488 C2489 1.386 . S
C2488 C2490 1.391 . S
C2489 C2488 1.386 . S
C2489 C2493 1.393 . S
C2490 H2482 0.950 . S
C2490 C2488 1.391 . S
C2490 C2491 1.400 . S
C2491 C2490 1.400 . S
C2491 C2492 1.398 . S
C2491 C2497 1.491 . S
C2492 H2483 0.950 . S
C2492 C2491 1.398 . S
C2492 C2493 1.391 . S
C2493 H2481 0.950 . S
C2493 C2489 1.393 . S
C2493 C2492 1.391 . S
C2494 H2484 0.950 . S
C2494 C2495 1.386 . S
C2494 C2496 1.391 . S
C2495 C2494 1.386 . S
C2495 C2499 1.393 . S
C2496 H2485 0.950 . S
C2496 C2494 1.391 . S
C2496 C2497 1.400 . S
C2497 C2491 1.491 . S
C2497 C2496 1.400 . S
C2497 C2498 1.398 . S
C2498 H2486 0.950 . S
C2498 C2497 1.398 . S
C2498 C2499 1.391 . S
C2499 H2487 0.950 . S
C2499 C2495 1.393 . S
C2499 C2498 1.391 . S
H2500 C2508 0.950 . S
H2501 C2513 0.950 . S
H2502 C2510 0.950 . S
H2503 C2512 0.950 . S
H2504 C2514 0.950 . S
H2505 C2516 0.950 . S
H2506 C2518 0.950 . S
H2507 C2519 0.950 . S
C2508 H2500 0.950 . S
C2508 C2509 1.386 . S
C2508 C2510 1.391 . S
C2509 C2508 1.386 . S
C2509 C2513 1.393 . S
C2510 H2502 0.950 . S
C2510 C2508 1.391 . S
C2510 C2511 1.400 . S
C2511 C2510 1.400 . S
C2511 C2512 1.398 . S
C2511 C2517 1.491 . S
C2512 H2503 0.950 . S
C2512 C2511 1.398 . S
C2512 C2513 1.391 . S
C2513 H2501 0.950 . S
C2513 C2509 1.393 . S
C2513 C2512 1.391 . S
C2514 H2504 0.950 . S
C2514 C2515 1.386 . S
C2514 C2516 1.391 . S
C2515 C2514 1.386 . S
C2515 C2519 1.393 . S
C2516 H2505 0.950 . S
C2516 C2514 1.391 . S
C2516 C2517 1.400 . S
C2517 C2511 1.491 . S
C2517 C2516 1.400 . S
C2517 C2518 1.398 . S
C2518 H2506 0.950 . S
C2518 C2517 1.398 . S
C2518 C2519 1.391 . S
C2519 H2507 0.950 . S
C2519 C2515 1.393 . S
C2519 C2518 1.391 . S
H2520 C2528 0.950 . S
H2521 C2533 0.950 . S
H2522 C2530 0.950 . S
H2523 C2532 0.950 . S
H2524 C2534 0.950 . S
H2525 C2536 0.950 . S
H2526 C2538 0.950 . S
H2527 C2539 0.950 . S
C2528 H2520 0.950 . S
C2528 C2529 1.386 . S
C2528 C2530 1.391 . S
C2529 C2528 1.386 . S
C2529 C2533 1.393 . S
C2530 H2522 0.950 . S
C2530 C2528 1.391 . S
C2530 C2531 1.400 . S
C2531 C2530 1.400 . S
C2531 C2532 1.398 . S
C2531 C2537 1.491 . S
C2532 H2523 0.950 . S
C2532 C2531 1.398 . S
C2532 C2533 1.391 . S
C2533 H2521 0.950 . S
C2533 C2529 1.393 . S
C2533 C2532 1.391 . S
C2534 H2524 0.950 . S
C2534 C2535 1.386 . S
C2534 C2536 1.391 . S
C2535 C2534 1.386 . S
C2535 C2539 1.393 . S
C2536 H2525 0.950 . S
C2536 C2534 1.391 . S
C2536 C2537 1.400 . S
C2537 C2531 1.491 . S
C2537 C2536 1.400 . S
C2537 C2538 1.398 . S
C2538 H2526 0.950 . S
C2538 C2537 1.398 . S
C2538 C2539 1.391 . S
C2539 H2527 0.950 . S
C2539 C2535 1.393 . S
C2539 C2538 1.391 . S
H2540 C2548 0.950 . S
H2541 C2553 0.950 . S
H2542 C2550 0.950 . S
H2543 C2552 0.950 . S
H2544 C2554 0.950 . S
H2545 C2556 0.950 . S
H2546 C2558 0.950 . S
H2547 C2559 0.950 . S
C2548 H2540 0.950 . S
C2548 C2549 1.386 . S
C2548 C2550 1.391 . S
C2549 C2548 1.386 . S
C2549 C2553 1.393 . S
C2550 H2542 0.950 . S
C2550 C2548 1.391 . S
C2550 C2551 1.400 . S
C2551 C2550 1.400 . S
C2551 C2552 1.398 . S
C2551 C2557 1.491 . S
C2552 H2543 0.950 . S
C2552 C2551 1.398 . S
C2552 C2553 1.391 . S
C2553 H2541 0.950 . S
C2553 C2549 1.393 . S
C2553 C2552 1.391 . S
C2554 H2544 0.950 . S
C2554 C2555 1.386 . S
C2554 C2556 1.391 . S
C2555 C2554 1.386 . S
C2555 C2559 1.393 . S
C2556 H2545 0.950 . S
C2556 C2554 1.391 . S
C2556 C2557 1.400 . S
C2557 C2551 1.491 . S
C2557 C2556 1.400 . S
C2557 C2558 1.398 . S
C2558 H2546 0.950 . S
C2558 C2557 1.398 . S
C2558 C2559 1.391 . S
C2559 H2547 0.950 . S
C2559 C2555 1.393 . S
C2559 C2558 1.391 . S
H2560 C2568 0.950 . S
H2561 C2573 0.950 . S
H2562 C2570 0.950 . S
H2563 C2572 0.950 . S
H2564 C2574 0.950 . S
H2565 C2576 0.950 . S
H2566 C2578 0.950 . S
H2567 C2579 0.950 . S
C2568 H2560 0.950 . S
C2568 C2569 1.386 . S
C2568 C2570 1.391 . S
C2569 C2568 1.386 . S
C2569 C2573 1.393 . S
C2570 H2562 0.950 . S
C2570 C2568 1.391 . S
C2570 C2571 1.400 . S
C2571 C2570 1.400 . S
C2571 C2572 1.398 . S
C2571 C2577 1.491 . S
C2572 H2563 0.950 . S
C2572 C2571 1.398 . S
C2572 C2573 1.391 . S
C2573 H2561 0.950 . S
C2573 C2569 1.393 . S
C2573 C2572 1.391 . S
C2574 H2564 0.950 . S
C2574 C2575 1.386 . S
C2574 C2576 1.391 . S
C2575 C2574 1.386 . S
C2575 C2579 1.393 . S
C2576 H2565 0.950 . S
C2576 C2574 1.391 . S
C2576 C2577 1.400 . S
C2577 C2571 1.491 . S
C2577 C2576 1.400 . S
C2577 C2578 1.398 . S
C2578 H2566 0.950 . S
C2578 C2577 1.398 . S
C2578 C2579 1.391 . S
C2579 H2567 0.950 . S
C2579 C2575 1.393 . S
C2579 C2578 1.391 . S
H2580 C2588 0.950 . S
H2581 C2593 0.950 . S
H2582 C2590 0.950 . S
H2583 C2592 0.950 . S
H2584 C2594 0.950 . S
H2585 C2596 0.950 . S
H2586 C2598 0.950 . S
H2587 C2599 0.950 . S
C2588 H2580 0.950 . S
C2588 C2589 1.386 . S
C2588 C2590 1.391 . S
C2589 C2588 1.386 . S
C2589 C2593 1.393 . S
C2590 H2582 0.950 . S
C2590 C2588 1.391 . S
C2590 C2591 1.400 . S
C2591 C2590 1.400 . S
C2591 C2592 1.398 . S
C2591 C2597 1.491 . S
C2592 H2583 0.950 . S
C2592 C2591 1.398 . S
C2592 C2593 1.391 . S
C2593 H2581 0.950 . S
C2593 C2589 1.393 . S
C2593 C2592 1.391 . S
C2594 H2584 0.950 . S
C2594 C2595 1.386 . S
C2594 C2596 1.391 . S
C2595 C2594 1.386 . S
C2595 C2599 1.393 . S
C2596 H2585 0.950 . S
C2596 C2594 1.391 . S
C2596 C2597 1.400 . S
C2597 C2591 1.491 . S
C2597 C2596 1.400 . S
C2597 C2598 1.398 . S
C2598 H2586 0.950 . S
C2598 C2597 1.398 . S
C2598 C2599 1.391 . S
C2599 H2587 0.950 . S
C2599 C2595 1.393 . S
C2599 C2598 1.391 . S
H2600 C2608 0.950 . S
H2601 C2613 0.950 . S
H2602 C2610 0.950 . S
H2603 C2612 0.950 . S
H2604 C2614 0.950 . S
H2605 C2616 0.950 . S
H2606 C2618 0.950 . S
H2607 C2619 0.950 . S
C2608 H2600 0.950 . S
C2608 C2609 1.386 . S
C2608 C2610 1.391 . S
C2609 C2608 1.386 . S
C2609 C2613 1.393 . S
C2610 H2602 0.950 . S
C2610 C2608 1.391 . S
C2610 C2611 1.400 . S
C2611 C2610 1.400 . S
C2611 C2612 1.398 . S
C2611 C2617 1.491 . S
C2612 H2603 0.950 . S
C2612 C2611 1.398 . S
C2612 C2613 1.391 . S
C2613 H2601 0.950 . S
C2613 C2609 1.393 . S
C2613 C2612 1.391 . S
C2614 H2604 0.950 . S
C2614 C2615 1.386 . S
C2614 C2616 1.391 . S
C2615 C2614 1.386 . S
C2615 C2619 1.393 . S
C2616 H2605 0.950 . S
C2616 C2614 1.391 . S
C2616 C2617 1.400 . S
C2617 C2611 1.491 . S
C2617 C2616 1.400 . S
C2617 C2618 1.398 . S
C2618 H2606 0.950 . S
C2618 C2617 1.398 . S
C2618 C2619 1.391 . S
C2619 H2607 0.950 . S
C2619 C2615 1.393 . S
C2619 C2618 1.391 . S
H2620 C2628 0.950 . S
H2621 C2633 0.950 . S
H2622 C2630 0.950 . S
H2623 C2632 0.950 . S
H2624 C2634 0.950 . S
H2625 C2636 0.950 . S
H2626 C2638 0.950 . S
H2627 C2639 0.950 . S
C2628 H2620 0.950 . S
C2628 C2629 1.386 . S
C2628 C2630 1.391 . S
C2629 C2628 1.386 . S
C2629 C2633 1.393 . S
C2630 H2622 0.950 . S
C2630 C2628 1.391 . S
C2630 C2631 1.400 . S
C2631 C2630 1.400 . S
C2631 C2632 1.398 . S
C2631 C2637 1.491 . S
C2632 H2623 0.950 . S
C2632 C2631 1.398 . S
C2632 C2633 1.391 . S
C2633 H2621 0.950 . S
C2633 C2629 1.393 . S
C2633 C2632 1.391 . S
C2634 H2624 0.950 . S
C2634 C2635 1.386 . S
C2634 C2636 1.391 . S
C2635 C2634 1.386 . S
C2635 C2639 1.393 . S
C2636 H2625 0.950 . S
C2636 C2634 1.391 . S
C2636 C2637 1.400 . S
C2637 C2631 1.491 . S
C2637 C2636 1.400 . S
C2637 C2638 1.398 . S
C2638 H2626 0.950 . S
C2638 C2637 1.398 . S
C2638 C2639 1.391 . S
C2639 H2627 0.950 . S
C2639 C2635 1.393 . S
C2639 C2638 1.391 . S
H2640 C2648 0.950 . S
H2641 C2653 0.950 . S
H2642 C2650 0.950 . S
H2643 C2652 0.950 . S
H2644 C2654 0.950 . S
H2645 C2656 0.950 . S
H2646 C2658 0.950 . S
H2647 C2659 0.950 . S
C2648 H2640 0.950 . S
C2648 C2649 1.386 . S
C2648 C2650 1.391 . S
C2649 C2648 1.386 . S
C2649 C2653 1.393 . S
C2650 H2642 0.950 . S
C2650 C2648 1.391 . S
C2650 C2651 1.400 . S
C2651 C2650 1.400 . S
C2651 C2652 1.398 . S
C2651 C2657 1.491 . S
C2652 H2643 0.950 . S
C2652 C2651 1.398 . S
C2652 C2653 1.391 . S
C2653 H2641 0.950 . S
C2653 C2649 1.393 . S
C2653 C2652 1.391 . S
C2654 H2644 0.950 . S
C2654 C2655 1.386 . S
C2654 C2656 1.391 . S
C2655 C2654 1.386 . S
C2655 C2659 1.393 . S
C2656 H2645 0.950 . S
C2656 C2654 1.391 . S
C2656 C2657 1.400 . S
C2657 C2651 1.491 . S
C2657 C2656 1.400 . S
C2657 C2658 1.398 . S
C2658 H2646 0.950 . S
C2658 C2657 1.398 . S
C2658 C2659 1.391 . S
C2659 H2647 0.950 . S
C2659 C2655 1.393 . S
C2659 C2658 1.391 . S
H2660 C2668 0.950 . S
H2661 C2673 0.950 . S
H2662 C2670 0.950 . S
H2663 C2672 0.950 . S
H2664 C2674 0.950 . S
H2665 C2676 0.950 . S
H2666 C2678 0.950 . S
H2667 C2679 0.950 . S
C2668 H2660 0.950 . S
C2668 C2669 1.386 . S
C2668 C2670 1.391 . S
C2669 C2668 1.386 . S
C2669 C2673 1.393 . S
C2670 H2662 0.950 . S
C2670 C2668 1.391 . S
C2670 C2671 1.400 . S
C2671 C2670 1.400 . S
C2671 C2672 1.398 . S
C2671 C2677 1.491 . S
C2672 H2663 0.950 . S
C2672 C2671 1.398 . S
C2672 C2673 1.391 . S
C2673 H2661 0.950 . S
C2673 C2669 1.393 . S
C2673 C2672 1.391 . S
C2674 H2664 0.950 . S
C2674 C2675 1.386 . S
C2674 C2676 1.391 . S
C2675 C2674 1.386 . S
C2675 C2679 1.393 . S
C2676 H2665 0.950 . S
C2676 C2674 1.391 . S
C2676 C2677 1.400 . S
C2677 C2671 1.491 . S
C2677 C2676 1.400 . S
C2677 C2678 1.398 . S
C2678 H2666 0.950 . S
C2678 C2677 1.398 . S
C2678 C2679 1.391 . S
C2679 H2667 0.950 . S
C2679 C2675 1.393 . S
C2679 C2678 1.391 . S
H2680 C2688 0.950 . S
H2681 C2693 0.950 . S
H2682 C2690 0.950 . S
H2683 C2692 0.950 . S
H2684 C2694 0.950 . S
H2685 C2696 0.950 . S
H2686 C2698 0.950 . S
H2687 C2699 0.950 . S
C2688 H2680 0.950 . S
C2688 C2689 1.386 . S
C2688 C2690 1.391 . S
C2689 C2688 1.386 . S
C2689 C2693 1.393 . S
C2690 H2682 0.950 . S
C2690 C2688 1.391 . S
C2690 C2691 1.400 . S
C2691 C2690 1.400 . S
C2691 C2692 1.398 . S
C2691 C2697 1.491 . S
C2692 H2683 0.950 . S
C2692 C2691 1.398 . S
C2692 C2693 1.391 . S
C2693 H2681 0.950 . S
C2693 C2689 1.393 . S
C2693 C2692 1.391 . S
C2694 H2684 0.950 . S
C2694 C2695 1.386 . S
C2694 C2696 1.391 . S
C2695 C2694 1.386 . S
C2695 C2699 1.393 . S
C2696 H2685 0.950 . S
C2696 C2694 1.391 . S
C2696 C2697 1.400 . S
C2697 C2691 1.491 . S
C2697 C2696 1.400 . S
C2697 C2698 1.398 . S
C2698 H2686 0.950 . S
C2698 C2697 1.398 . S
C2698 C2699 1.391 . S
C2699 H2687 0.950 . S
C2699 C2695 1.393 . S
C2699 C2698 1.391 . S
H2700 C2708 0.950 . S
H2701 C2713 0.950 . S
H2702 C2710 0.950 . S
H2703 C2712 0.950 . S
H2704 C2714 0.950 . S
H2705 C2716 0.950 . S
H2706 C2718 0.950 . S
H2707 C2719 0.950 . S
C2708 H2700 0.950 . S
C2708 C2709 1.386 . S
C2708 C2710 1.391 . S
C2709 C2708 1.386 . S
C2709 C2713 1.393 . S
C2710 H2702 0.950 . S
C2710 C2708 1.391 . S
C2710 C2711 1.400 . S
C2711 C2710 1.400 . S
C2711 C2712 1.398 . S
C2711 C2717 1.491 . S
C2712 H2703 0.950 . S
C2712 C2711 1.398 . S
C2712 C2713 1.391 . S
C2713 H2701 0.950 . S
C2713 C2709 1.393 . S
C2713 C2712 1.391 . S
C2714 H2704 0.950 . S
C2714 C2715 1.386 . S
C2714 C2716 1.391 . S
C2715 C2714 1.386 . S
C2715 C2719 1.393 . S
C2716 H2705 0.950 . S
C2716 C2714 1.391 . S
C2716 C2717 1.400 . S
C2717 C2711 1.491 . S
C2717 C2716 1.400 . S
C2717 C2718 1.398 . S
C2718 H2706 0.950 . S
C2718 C2717 1.398 . S
C2718 C2719 1.391 . S
C2719 H2707 0.950 . S
C2719 C2715 1.393 . S
C2719 C2718 1.391 . S
H2720 C2728 0.950 . S
H2721 C2733 0.950 . S
H2722 C2730 0.950 . S
H2723 C2732 0.950 . S
H2724 C2734 0.950 . S
H2725 C2736 0.950 . S
H2726 C2738 0.950 . S
H2727 C2739 0.950 . S
C2728 H2720 0.950 . S
C2728 C2729 1.386 . S
C2728 C2730 1.391 . S
C2729 C2728 1.386 . S
C2729 C2733 1.393 . S
C2730 H2722 0.950 . S
C2730 C2728 1.391 . S
C2730 C2731 1.400 . S
C2731 C2730 1.400 . S
C2731 C2732 1.398 . S
C2731 C2737 1.491 . S
C2732 H2723 0.950 . S
C2732 C2731 1.398 . S
C2732 C2733 1.391 . S
C2733 H2721 0.950 . S
C2733 C2729 1.393 . S
C2733 C2732 1.391 . S
C2734 H2724 0.950 . S
C2734 C2735 1.386 . S
C2734 C2736 1.391 . S
C2735 C2734 1.386 . S
C2735 C2739 1.393 . S
C2736 H2725 0.950 . S
C2736 C2734 1.391 . S
C2736 C2737 1.400 . S
C2737 C2731 1.491 . S
C2737 C2736 1.400 . S
C2737 C2738 1.398 . S
C2738 H2726 0.950 . S
C2738 C2737 1.398 . S
C2738 C2739 1.391 . S
C2739 H2727 0.950 . S
C2739 C2735 1.393 . S
C2739 C2738 1.391 . S
H2740 C2748 0.950 . S
H2741 C2753 0.950 . S
H2742 C2750 0.950 . S
H2743 C2752 0.950 . S
H2744 C2754 0.950 . S
H2745 C2756 0.950 . S
H2746 C2758 0.950 . S
H2747 C2759 0.950 . S
C2748 H2740 0.950 . S
C2748 C2749 1.386 . S
C2748 C2750 1.391 . S
C2749 C2748 1.386 . S
C2749 C2753 1.393 . S
C2750 H2742 0.950 . S
C2750 C2748 1.391 . S
C2750 C2751 1.400 . S
C2751 C2750 1.400 . S
C2751 C2752 1.398 . S
C2751 C2757 1.491 . S
C2752 H2743 0.950 . S
C2752 C2751 1.398 . S
C2752 C2753 1.391 . S
C2753 H2741 0.950 . S
C2753 C2749 1.393 . S
C2753 C2752 1.391 . S
C2754 H2744 0.950 . S
C2754 C2755 1.386 . S
C2754 C2756 1.391 . S
C2755 C2754 1.386 . S
C2755 C2759 1.393 . S
C2756 H2745 0.950 . S
C2756 C2754 1.391 . S
C2756 C2757 1.400 . S
C2757 C2751 1.491 . S
C2757 C2756 1.400 . S
C2757 C2758 1.398 . S
C2758 H2746 0.950 . S
C2758 C2757 1.398 . S
C2758 C2759 1.391 . S
C2759 H2747 0.950 . S
C2759 C2755 1.393 . S
C2759 C2758 1.391 . S
H2760 C2768 0.950 . S
H2761 C2773 0.950 . S
H2762 C2770 0.950 . S
H2763 C2772 0.950 . S
H2764 C2774 0.950 . S
H2765 C2776 0.950 . S
H2766 C2778 0.950 . S
H2767 C2779 0.950 . S
C2768 H2760 0.950 . S
C2768 C2769 1.386 . S
C2768 C2770 1.391 . S
C2769 C2768 1.386 . S
C2769 C2773 1.393 . S
C2770 H2762 0.950 . S
C2770 C2768 1.391 . S
C2770 C2771 1.400 . S
C2771 C2770 1.400 . S
C2771 C2772 1.398 . S
C2771 C2777 1.491 . S
C2772 H2763 0.950 . S
C2772 C2771 1.398 . S
C2772 C2773 1.391 . S
C2773 H2761 0.950 . S
C2773 C2769 1.393 . S
C2773 C2772 1.391 . S
C2774 H2764 0.950 . S
C2774 C2775 1.386 . S
C2774 C2776 1.391 . S
C2775 C2774 1.386 . S
C2775 C2779 1.393 . S
C2776 H2765 0.950 . S
C2776 C2774 1.391 . S
C2776 C2777 1.400 . S
C2777 C2771 1.491 . S
C2777 C2776 1.400 . S
C2777 C2778 1.398 . S
C2778 H2766 0.950 . S
C2778 C2777 1.398 . S
C2778 C2779 1.391 . S
C2779 H2767 0.950 . S
C2779 C2775 1.393 . S
C2779 C2778 1.391 . S
H2780 C2788 0.950 . S
H2781 C2793 0.950 . S
H2782 C2790 0.950 . S
H2783 C2792 0.950 . S
H2784 C2794 0.950 . S
H2785 C2796 0.950 . S
H2786 C2798 0.950 . S
H2787 C2799 0.950 . S
C2788 H2780 0.950 . S
C2788 C2789 1.386 . S
C2788 C2790 1.391 . S
C2789 C2788 1.386 . S
C2789 C2793 1.393 . S
C2790 H2782 0.950 . S
C2790 C2788 1.391 . S
C2790 C2791 1.400 . S
C2791 C2790 1.400 . S
C2791 C2792 1.398 . S
C2791 C2797 1.491 . S
C2792 H2783 0.950 . S
C2792 C2791 1.398 . S
C2792 C2793 1.391 . S
C2793 H2781 0.950 . S
C2793 C2789 1.393 . S
C2793 C2792 1.391 . S
C2794 H2784 0.950 . S
C2794 C2795 1.386 . S
C2794 C2796 1.391 . S
C2795 C2794 1.386 . S
C2795 C2799 1.393 . S
C2796 H2785 0.950 . S
C2796 C2794 1.391 . S
C2796 C2797 1.400 . S
C2797 C2791 1.491 . S
C2797 C2796 1.400 . S
C2797 C2798 1.398 . S
C2798 H2786 0.950 . S
C2798 C2797 1.398 . S
C2798 C2799 1.391 . S
C2799 H2787 0.950 . S
C2799 C2795 1.393 . S
C2799 C2798 1.391 . S
H2800 C2808 0.950 . S
H2801 C2813 0.950 . S
H2802 C2810 0.950 . S
H2803 C2812 0.950 . S
H2804 C2814 0.950 . S
H2805 C2816 0.950 . S
H2806 C2818 0.950 . S
H2807 C2819 0.950 . S
C2808 H2800 0.950 . S
C2808 C2809 1.386 . S
C2808 C2810 1.391 . S
C2809 C2808 1.386 . S
C2809 C2813 1.393 . S
C2810 H2802 0.950 . S
C2810 C2808 1.391 . S
C2810 C2811 1.400 . S
C2811 C2810 1.400 . S
C2811 C2812 1.398 . S
C2811 C2817 1.491 . S
C2812 H2803 0.950 . S
C2812 C2811 1.398 . S
C2812 C2813 1.391 . S
C2813 H2801 0.950 . S
C2813 C2809 1.393 . S
C2813 C2812 1.391 . S
C2814 H2804 0.950 . S
C2814 C2815 1.386 . S
C2814 C2816 1.391 . S
C2815 C2814 1.386 . S
C2815 C2819 1.393 . S
C2816 H2805 0.950 . S
C2816 C2814 1.391 . S
C2816 C2817 1.400 . S
C2817 C2811 1.491 . S
C2817 C2816 1.400 . S
C2817 C2818 1.398 . S
C2818 H2806 0.950 . S
C2818 C2817 1.398 . S
C2818 C2819 1.391 . S
C2819 H2807 0.950 . S
C2819 C2815 1.393 . S
C2819 C2818 1.391 . S
H2820 C2828 0.950 . S
H2821 C2833 0.950 . S
H2822 C2830 0.950 . S
H2823 C2832 0.950 . S
H2824 C2834 0.950 . S
H2825 C2836 0.950 . S
H2826 C2838 0.950 . S
H2827 C2839 0.950 . S
C2828 H2820 0.950 . S
C2828 C2829 1.386 . S
C2828 C2830 1.391 . S
C2829 C2828 1.386 . S
C2829 C2833 1.393 . S
C2830 H2822 0.950 . S
C2830 C2828 1.391 . S
C2830 C2831 1.400 . S
C2831 C2830 1.400 . S
C2831 C2832 1.398 . S
C2831 C2837 1.491 . S
C2832 H2823 0.950 . S
C2832 C2831 1.398 . S
C2832 C2833 1.391 . S
C2833 H2821 0.950 . S
C2833 C2829 1.393 . S
C2833 C2832 1.391 . S
C2834 H2824 0.950 . S
C2834 C2835 1.386 . S
C2834 C2836 1.391 . S
C2835 C2834 1.386 . S
C2835 C2839 1.393 . S
C2836 H2825 0.950 . S
C2836 C2834 1.391 . S
C2836 C2837 1.400 . S
C2837 C2831 1.491 . S
C2837 C2836 1.400 . S
C2837 C2838 1.398 . S
C2838 H2826 0.950 . S
C2838 C2837 1.398 . S
C2838 C2839 1.391 . S
C2839 H2827 0.950 . S
C2839 C2835 1.393 . S
C2839 C2838 1.391 . S
H2840 C2848 0.950 . S
H2841 C2853 0.950 . S
H2842 C2850 0.950 . S
H2843 C2852 0.950 . S
H2844 C2854 0.950 . S
H2845 C2856 0.950 . S
H2846 C2858 0.950 . S
H2847 C2859 0.950 . S
C2848 H2840 0.950 . S
C2848 C2849 1.386 . S
C2848 C2850 1.391 . S
C2849 C2848 1.386 . S
C2849 C2853 1.393 . S
C2850 H2842 0.950 . S
C2850 C2848 1.391 . S
C2850 C2851 1.400 . S
C2851 C2850 1.400 . S
C2851 C2852 1.398 . S
C2851 C2857 1.491 . S
C2852 H2843 0.950 . S
C2852 C2851 1.398 . S
C2852 C2853 1.391 . S
C2853 H2841 0.950 . S
C2853 C2849 1.393 . S
C2853 C2852 1.391 . S
C2854 H2844 0.950 . S
C2854 C2855 1.386 . S
C2854 C2856 1.391 . S
C2855 C2854 1.386 . S
C2855 C2859 1.393 . S
C2856 H2845 0.950 . S
C2856 C2854 1.391 . S
C2856 C2857 1.400 . S
C2857 C2851 1.491 . S
C2857 C2856 1.400 . S
C2857 C2858 1.398 . S
C2858 H2846 0.950 . S
C2858 C2857 1.398 . S
C2858 C2859 1.391 . S
C2859 H2847 0.950 . S
C2859 C2855 1.393 . S
C2859 C2858 1.391 . S
H2860 C2868 0.950 . S
H2861 C2873 0.950 . S
H2862 C2870 0.950 . S
H2863 C2872 0.950 . S
H2864 C2874 0.950 . S
H2865 C2876 0.950 . S
H2866 C2878 0.950 . S
H2867 C2879 0.950 . S
C2868 H2860 0.950 . S
C2868 C2869 1.386 . S
C2868 C2870 1.391 . S
C2869 C2868 1.386 . S
C2869 C2873 1.393 . S
C2870 H2862 0.950 . S
C2870 C2868 1.391 . S
C2870 C2871 1.400 . S
C2871 C2870 1.400 . S
C2871 C2872 1.398 . S
C2871 C2877 1.491 . S
C2872 H2863 0.950 . S
C2872 C2871 1.398 . S
C2872 C2873 1.391 . S
C2873 H2861 0.950 . S
C2873 C2869 1.393 . S
C2873 C2872 1.391 . S
C2874 H2864 0.950 . S
C2874 C2875 1.386 . S
C2874 C2876 1.391 . S
C2875 C2874 1.386 . S
C2875 C2879 1.393 . S
C2876 H2865 0.950 . S
C2876 C2874 1.391 . S
C2876 C2877 1.400 . S
C2877 C2871 1.491 . S
C2877 C2876 1.400 . S
C2877 C2878 1.398 . S
C2878 H2866 0.950 . S
C2878 C2877 1.398 . S
C2878 C2879 1.391 . S
C2879 H2867 0.950 . S
C2879 C2875 1.393 . S
C2879 C2878 1.391 . S
H2880 C2888 0.950 . S
H2881 C2893 0.950 . S
H2882 C2890 0.950 . S
H2883 C2892 0.950 . S
H2884 C2894 0.950 . S
H2885 C2896 0.950 . S
H2886 C2898 0.950 . S
H2887 C2899 0.950 . S
C2888 H2880 0.950 . S
C2888 C2889 1.386 . S
C2888 C2890 1.391 . S
C2889 C2888 1.386 . S
C2889 C2893 1.393 . S
C2890 H2882 0.950 . S
C2890 C2888 1.391 . S
C2890 C2891 1.400 . S
C2891 C2890 1.400 . S
C2891 C2892 1.398 . S
C2891 C2897 1.460 1_655 S
C2892 H2883 0.950 . S
C2892 C2891 1.398 . S
C2892 C2893 1.391 . S
C2893 H2881 0.950 . S
C2893 C2889 1.393 . S
C2893 C2892 1.391 . S
C2894 H2884 0.950 . S
C2894 C2895 1.386 . S
C2894 C2896 1.391 . S
C2895 C2894 1.386 . S
C2895 C2899 1.393 . S
C2896 H2885 0.950 . S
C2896 C2894 1.391 . S
C2896 C2897 1.416 . S
C2897 C2891 1.460 1_455 S
C2897 C2896 1.416 . S
C2897 C2898 1.415 . S
C2898 H2886 0.950 . S
C2898 C2897 1.415 . S
C2898 C2899 1.391 . S
C2899 H2887 0.950 . S
C2899 C2895 1.393 . S
C2899 C2898 1.391 . S
H2900 C2908 0.950 . S
H2901 C2913 0.950 . S
H2902 C2910 0.950 . S
H2903 C2912 0.950 . S
H2904 C2914 0.950 . S
H2905 C2916 0.950 . S
H2906 C2918 0.950 . S
H2907 C2919 0.950 . S
C2908 H2900 0.950 . S
C2908 C2909 1.386 . S
C2908 C2910 1.391 . S
C2909 C2908 1.386 . S
C2909 C2913 1.393 . S
C2910 H2902 0.950 . S
C2910 C2908 1.391 . S
C2910 C2911 1.400 . S
C2911 C2910 1.400 . S
C2911 C2912 1.398 . S
C2911 C2917 1.491 1_545 S
C2912 H2903 0.950 . S
C2912 C2911 1.398 . S
C2912 C2913 1.391 . S
C2913 H2901 0.950 . S
C2913 C2909 1.393 . S
C2913 C2912 1.391 . S
C2914 H2904 0.950 . S
C2914 C2915 1.386 . S
C2914 C2916 1.391 . S
C2915 C2914 1.386 . S
C2915 C2919 1.393 . S
C2916 H2905 0.950 . S
C2916 C2914 1.391 . S
C2916 C2917 1.400 . S
C2917 C2911 1.491 1_565 S
C2917 C2916 1.400 . S
C2917 C2918 1.398 . S
C2918 H2906 0.950 . S
C2918 C2917 1.398 . S
C2918 C2919 1.391 . S
C2919 H2907 0.950 . S
C2919 C2915 1.393 . S
C2919 C2918 1.391 . S
H2920 C2928 0.950 . S
H2921 C2933 0.950 . S
H2922 C2930 0.950 . S
H2923 C2932 0.950 . S
H2924 C2934 0.950 . S
H2925 C2936 0.950 . S
H2926 C2938 0.950 . S
H2927 C2939 0.950 . S
C2928 H2920 0.950 . S
C2928 C2929 1.386 . S
C2928 C2930 1.391 . S
C2929 C2928 1.386 . S
C2929 C2933 1.393 . S
C2930 H2922 0.950 . S
C2930 C2928 1.391 . S
C2930 C2931 1.400 . S
C2931 C2930 1.400 . S
C2931 C2932 1.398 . S
C2931 C2937 1.560 . S
C2932 H2923 0.950 . S
C2932 C2931 1.398 . S
C2932 C2933 1.391 . S
C2933 H2921 0.950 . S
C2933 C2929 1.393 . S
C2933 C2932 1.391 . S
C2934 H2924 0.950 . S
C2934 C2935 1.386 . S
C2934 C2936 1.391 . S
C2935 C2934 1.386 . S
C2935 C2939 1.393 . S
C2936 H2925 0.950 . S
C2936 C2934 1.391 . S
C2936 C2937 1.367 1_455 S
C2937 C2931 1.560 . S
C2937 C2936 1.367 1_655 S
C2937 C2938 1.362 1_655 S
C2938 H2926 0.950 . S
C2938 C2937 1.362 1_455 S
C2938 C2939 1.391 . S
C2939 H2927 0.950 . S
C2939 C2935 1.393 . S
C2939 C2938 1.391 . S
H2940 C2948 0.950 . S
H2941 C2953 0.950 . S
H2942 C2950 0.950 . S
H2943 C2952 0.950 . S
H2944 C2954 0.950 . S
H2945 C2956 0.950 . S
H2946 C2958 0.950 . S
H2947 C2959 0.950 . S
C2948 H2940 0.950 . S
C2948 C2949 1.386 . S
C2948 C2950 1.391 . S
C2949 C2948 1.386 . S
C2949 C2953 1.393 . S
C2950 H2942 0.950 . S
C2950 C2948 1.391 . S
C2950 C2951 1.400 . S
C2951 C2950 1.400 . S
C2951 C2952 1.398 . S
C2951 C2957 1.491 1_545 S
C2952 H2943 0.950 . S
C2952 C2951 1.398 . S
C2952 C2953 1.391 . S
C2953 H2941 0.950 . S
C2953 C2949 1.393 . S
C2953 C2952 1.391 . S
C2954 H2944 0.950 . S
C2954 C2955 1.386 . S
C2954 C2956 1.391 . S
C2955 C2954 1.386 . S
C2955 C2959 1.393 . S
C2956 H2945 0.950 . S
C2956 C2954 1.391 . S
C2956 C2957 1.400 . S
C2957 C2951 1.491 1_565 S
C2957 C2956 1.400 . S
C2957 C2958 1.398 . S
C2958 H2946 0.950 . S
C2958 C2957 1.398 . S
C2958 C2959 1.391 . S
C2959 H2947 0.950 . S
C2959 C2955 1.393 . S
C2959 C2958 1.391 . S
H2960 C2968 0.950 . S
H2961 C2973 0.950 . S
H2962 C2970 0.950 . S
H2963 C2972 1.012 . S
H2964 C2974 0.950 . S
H2965 C2976 0.950 . S
H2966 C2978 0.950 . S
H2967 C2979 0.950 . S
C2968 H2960 0.950 . S
C2968 C2969 1.386 . S
C2968 C2970 1.391 . S
C2969 C2968 1.386 . S
C2969 C2973 1.393 . S
C2970 H2962 0.950 . S
C2970 C2968 1.391 . S
C2970 C2971 1.363 1_455 S
C2971 C2970 1.363 1_655 S
C2971 C2972 1.365 1_655 S
C2971 C2977 1.561 . S
C2972 H2963 1.012 . S
C2972 C2971 1.365 1_455 S
C2972 C2973 1.391 . S
C2973 H2961 0.950 . S
C2973 C2969 1.393 . S
C2973 C2972 1.391 . S
C2974 H2964 0.950 . S
C2974 C2975 1.386 . S
C2974 C2976 1.391 . S
C2975 C2974 1.386 . S
C2975 C2979 1.393 . S
C2976 H2965 0.950 . S
C2976 C2974 1.391 . S
C2976 C2977 1.400 . S
C2977 C2971 1.561 . S
C2977 C2976 1.400 . S
C2977 C2978 1.398 . S
C2978 H2966 0.950 . S
C2978 C2977 1.398 . S
C2978 C2979 1.391 . S
C2979 H2967 0.950 . S
C2979 C2975 1.393 . S
C2979 C2978 1.391 . S
H2980 C2988 0.950 . S
H2981 C2993 0.950 . S
H2982 C2990 0.950 . S
H2983 C2992 0.950 . S
H2984 C2994 0.950 . S
H2985 C2996 0.950 . S
H2986 C2998 0.950 . S
H2987 C2999 0.950 . S
C2988 H2980 0.950 . S
C2988 C2989 1.386 . S
C2988 C2990 1.391 . S
C2989 C2988 1.386 . S
C2989 C2993 1.393 . S
C2990 H2982 0.950 . S
C2990 C2988 1.391 . S
C2990 C2991 1.400 . S
C2991 C2990 1.400 . S
C2991 C2992 1.398 . S
C2991 C2997 1.491 1_565 S
C2992 H2983 0.950 . S
C2992 C2991 1.398 . S
C2992 C2993 1.391 . S
C2993 H2981 0.950 . S
C2993 C2989 1.393 . S
C2993 C2992 1.391 . S
C2994 H2984 0.950 . S
C2994 C2995 1.386 . S
C2994 C2996 1.391 . S
C2995 C2994 1.386 . S
C2995 C2999 1.393 . S
C2996 H2985 0.950 . S
C2996 C2994 1.391 . S
C2996 C2997 1.400 . S
C2997 C2991 1.491 1_545 S
C2997 C2996 1.400 . S
C2997 C2998 1.398 . S
C2998 H2986 0.950 . S
C2998 C2997 1.398 . S
C2998 C2999 1.391 . S
C2999 H2987 0.950 . S
C2999 C2995 1.393 . S
C2999 C2998 1.391 . S
H3000 C3008 0.950 . S
H3001 C3013 0.950 . S
H3002 C3010 0.950 . S
H3003 C3012 0.950 . S
H3004 C3014 0.950 . S
H3005 C3016 0.950 . S
H3006 C3018 0.950 . S
H3007 C3019 0.950 . S
C3008 H3000 0.950 . S
C3008 C3009 1.386 . S
C3008 C3010 1.391 . S
C3009 C3008 1.386 . S
C3009 C3013 1.393 . S
C3010 H3002 0.950 . S
C3010 C3008 1.391 . S
C3010 C3011 1.400 . S
C3011 C3010 1.400 . S
C3011 C3012 1.398 . S
C3011 C3017 1.462 1_655 S
C3012 H3003 0.950 . S
C3012 C3011 1.398 . S
C3012 C3013 1.391 . S
C3013 H3001 0.950 . S
C3013 C3009 1.393 . S
C3013 C3012 1.391 . S
C3014 H3004 0.950 . S
C3014 C3015 1.386 . S
C3014 C3016 1.391 . S
C3015 C3014 1.386 . S
C3015 C3019 1.393 . S
C3016 H3005 0.950 . S
C3016 C3014 1.391 . S
C3016 C3017 1.417 . S
C3017 C3011 1.462 1_455 S
C3017 C3016 1.417 . S
C3017 C3018 1.412 . S
C3018 H3006 0.950 . S
C3018 C3017 1.412 . S
C3018 C3019 1.391 . S
C3019 H3007 0.950 . S
C3019 C3015 1.393 . S
C3019 C3018 1.391 . S
H3020 C3028 0.950 . S
H3021 C3033 0.950 . S
H3022 C3030 0.950 . S
H3023 C3032 0.950 . S
H3024 C3034 0.950 . S
H3025 C3036 0.950 . S
H3026 C3038 0.950 . S
H3027 C3039 0.950 . S
C3028 H3020 0.950 . S
C3028 C3029 1.386 . S
C3028 C3030 1.391 . S
C3029 C3028 1.386 . S
C3029 C3033 1.393 . S
C3030 H3022 0.950 . S
C3030 C3028 1.391 . S
C3030 C3031 1.400 . S
C3031 C3030 1.400 . S
C3031 C3032 1.398 . S
C3031 C3037 1.491 1_565 S
C3032 H3023 0.950 . S
C3032 C3031 1.398 . S
C3032 C3033 1.391 . S
C3033 H3021 0.950 . S
C3033 C3029 1.393 . S
C3033 C3032 1.391 . S
C3034 H3024 0.950 . S
C3034 C3035 1.386 . S
C3034 C3036 1.391 . S
C3035 C3034 1.386 . S
C3035 C3039 1.393 . S
C3036 H3025 0.950 . S
C3036 C3034 1.391 . S
C3036 C3037 1.400 . S
C3037 C3031 1.491 1_545 S
C3037 C3036 1.400 . S
C3037 C3038 1.398 . S
C3038 H3026 0.950 . S
C3038 C3037 1.398 . S
C3038 C3039 1.391 . S
C3039 H3027 0.950 . S
C3039 C3035 1.393 . S
C3039 C3038 1.391 . S
H3040 C3048 0.950 . S
H3041 C3053 0.950 . S
H3042 C3050 0.950 . S
H3043 C3052 0.950 . S
H3044 C3054 0.950 . S
H3045 C3056 0.950 . S
H3046 C3058 0.950 . S
H3047 C3059 0.950 . S
C3048 H3040 0.950 . S
C3048 C3049 1.386 . S
C3048 C3050 1.391 . S
C3049 C3048 1.386 . S
C3049 C3053 1.393 . S
C3050 H3042 0.950 . S
C3050 C3048 1.391 . S
C3050 C3051 1.400 . S
C3051 C3050 1.400 . S
C3051 C3052 1.398 . S
C3051 C3057 1.491 1_556 S
C3052 H3043 0.950 . S
C3052 C3051 1.398 . S
C3052 C3053 1.391 . S
C3053 H3041 0.950 . S
C3053 C3049 1.393 . S
C3053 C3052 1.391 . S
C3054 H3044 0.950 . S
C3054 C3055 1.386 . S
C3054 C3056 1.391 . S
C3055 C3054 1.386 . S
C3055 C3059 1.393 . S
C3056 H3045 0.950 . S
C3056 C3054 1.391 . S
C3056 C3057 1.400 . S
C3057 C3051 1.491 1_554 S
C3057 C3056 1.400 . S
C3057 C3058 1.398 . S
C3058 H3046 0.950 . S
C3058 C3057 1.398 . S
C3058 C3059 1.391 . S
C3059 H3047 0.950 . S
C3059 C3055 1.393 . S
C3059 C3058 1.391 . S
H3060 C3068 0.950 . S
H3061 C3073 0.950 . S
H3062 C3070 0.950 . S
H3063 C3072 0.950 . S
H3064 C3074 0.950 . S
H3065 C3076 0.950 . S
H3066 C3078 0.950 . S
H3067 C3079 0.950 . S
C3068 H3060 0.950 . S
C3068 C3069 1.386 . S
C3068 C3070 1.391 . S
C3069 C3068 1.386 . S
C3069 C3073 1.393 . S
C3070 H3062 0.950 . S
C3070 C3068 1.391 . S
C3070 C3071 1.400 . S
C3071 C3070 1.400 . S
C3071 C3072 1.398 . S
C3071 C3077 1.491 1_556 S
C3072 H3063 0.950 . S
C3072 C3071 1.398 . S
C3072 C3073 1.391 . S
C3073 H3061 0.950 . S
C3073 C3069 1.393 . S
C3073 C3072 1.391 . S
C3074 H3064 0.950 . S
C3074 C3075 1.386 . S
C3074 C3076 1.391 . S
C3075 C3074 1.386 . S
C3075 C3079 1.393 . S
C3076 H3065 0.950 . S
C3076 C3074 1.391 . S
C3076 C3077 1.400 . S
C3077 C3071 1.491 1_554 S
C3077 C3076 1.400 . S
C3077 C3078 1.398 . S
C3078 H3066 0.950 . S
C3078 C3077 1.398 . S
C3078 C3079 1.391 . S
C3079 H3067 0.950 . S
C3079 C3075 1.393 . S
C3079 C3078 1.391 . S
H3080 C3088 0.950 . S
H3081 C3093 0.950 . S
H3082 C3090 0.950 . S
H3083 C3092 0.950 . S
H3084 C3094 0.950 . S
H3085 C3096 0.950 . S
H3086 C3098 0.950 . S
H3087 C3099 0.950 . S
C3088 H3080 0.950 . S
C3088 C3089 1.386 . S
C3088 C3090 1.391 . S
C3089 C3088 1.386 . S
C3089 C3093 1.393 . S
C3090 H3082 0.950 . S
C3090 C3088 1.391 . S
C3090 C3091 1.400 . S
C3091 C3090 1.400 . S
C3091 C3092 1.398 . S
C3091 C3097 1.491 1_554 S
C3092 H3083 0.950 . S
C3092 C3091 1.398 . S
C3092 C3093 1.391 . S
C3093 H3081 0.950 . S
C3093 C3089 1.393 . S
C3093 C3092 1.391 . S
C3094 H3084 0.950 . S
C3094 C3095 1.386 . S
C3094 C3096 1.391 . S
C3095 C3094 1.386 . S
C3095 C3099 1.393 . S
C3096 H3085 0.950 . S
C3096 C3094 1.391 . S
C3096 C3097 1.400 . S
C3097 C3091 1.491 1_556 S
C3097 C3096 1.400 . S
C3097 C3098 1.398 . S
C3098 H3086 0.950 . S
C3098 C3097 1.398 . S
C3098 C3099 1.391 . S
C3099 H3087 0.950 . S
C3099 C3095 1.393 . S
C3099 C3098 1.391 . S
H3100 C3108 0.950 . S
H3101 C3113 0.950 . S
H3102 C3110 0.950 . S
H3103 C3112 0.950 . S
H3104 C3114 0.950 . S
H3105 C3116 0.950 . S
H3106 C3118 0.950 . S
H3107 C3119 0.950 . S
C3108 H3100 0.950 . S
C3108 C3109 1.386 . S
C3108 C3110 1.391 . S
C3109 C3108 1.386 . S
C3109 C3113 1.393 . S
C3110 H3102 0.950 . S
C3110 C3108 1.391 . S
C3110 C3111 1.400 . S
C3111 C3110 1.400 . S
C3111 C3112 1.398 . S
C3111 C3117 1.491 1_554 S
C3112 H3103 0.950 . S
C3112 C3111 1.398 . S
C3112 C3113 1.391 . S
C3113 H3101 0.950 . S
C3113 C3109 1.393 . S
C3113 C3112 1.391 . S
C3114 H3104 0.950 . S
C3114 C3115 1.386 . S
C3114 C3116 1.391 . S
C3115 C3114 1.386 . S
C3115 C3119 1.393 . S
C3116 H3105 0.950 . S
C3116 C3114 1.391 . S
C3116 C3117 1.400 . S
C3117 C3111 1.491 1_556 S
C3117 C3116 1.400 . S
C3117 C3118 1.398 . S
C3118 H3106 0.950 . S
C3118 C3117 1.398 . S
C3118 C3119 1.391 . S
C3119 H3107 0.950 . S
C3119 C3115 1.393 . S
C3119 C3118 1.391 . S
H3120 C3128 0.950 . S
H3121 C3133 0.950 . S
H3122 C3130 0.950 . S
H3123 C3132 0.950 . S
H3124 C3134 0.950 . S
H3125 C3136 0.950 . S
H3126 C3138 0.950 . S
H3127 C3139 0.950 . S
C3128 H3120 0.950 . S
C3128 C3129 1.386 . S
C3128 C3130 1.391 . S
C3129 C3128 1.386 . S
C3129 C3133 1.393 . S
C3130 H3122 0.950 . S
C3130 C3128 1.391 . S
C3130 C3131 1.400 . S
C3131 C3130 1.400 . S
C3131 C3132 1.398 . S
C3131 C3137 1.491 . S
C3132 H3123 0.950 . S
C3132 C3131 1.398 . S
C3132 C3133 1.391 . S
C3133 H3121 0.950 . S
C3133 C3129 1.393 . S
C3133 C3132 1.391 . S
C3134 H3124 0.950 . S
C3134 C3135 1.386 . S
C3134 C3136 1.391 . S
C3135 C3134 1.386 . S
C3135 C3139 1.393 . S
C3136 H3125 0.950 . S
C3136 C3134 1.391 . S
C3136 C3137 1.400 . S
C3137 C3131 1.491 . S
C3137 C3136 1.400 . S
C3137 C3138 1.398 . S
C3138 H3126 0.950 . S
C3138 C3137 1.398 . S
C3138 C3139 1.391 . S
C3139 H3127 0.950 . S
C3139 C3135 1.393 . S
C3139 C3138 1.391 . S
H3140 C3148 0.950 . S
H3141 C3153 0.950 . S
H3142 C3150 0.950 . S
H3143 C3152 0.950 . S
H3144 C3154 0.950 . S
H3145 C3156 0.950 . S
H3146 C3158 0.950 . S
H3147 C3159 0.950 . S
C3148 H3140 0.950 . S
C3148 C3149 1.386 . S
C3148 C3150 1.391 . S
C3149 C3148 1.386 . S
C3149 C3153 1.393 . S
C3150 H3142 0.950 . S
C3150 C3148 1.391 . S
C3150 C3151 1.400 . S
C3151 C3150 1.400 . S
C3151 C3152 1.398 . S
C3151 C3157 1.491 . S
C3152 H3143 0.950 . S
C3152 C3151 1.398 . S
C3152 C3153 1.391 . S
C3153 H3141 0.950 . S
C3153 C3149 1.393 . S
C3153 C3152 1.391 . S
C3154 H3144 0.950 . S
C3154 C3155 1.386 . S
C3154 C3156 1.391 . S
C3155 C3154 1.386 . S
C3155 C3159 1.393 . S
C3156 H3145 0.950 . S
C3156 C3154 1.391 . S
C3156 C3157 1.400 . S
C3157 C3151 1.491 . S
C3157 C3156 1.400 . S
C3157 C3158 1.398 . S
C3158 H3146 0.950 . S
C3158 C3157 1.398 . S
C3158 C3159 1.391 . S
C3159 H3147 0.950 . S
C3159 C3155 1.393 . S
C3159 C3158 1.391 . S
H3160 C3168 0.950 . S
H3161 C3173 0.950 . S
H3162 C3170 0.950 . S
H3163 C3172 0.950 . S
H3164 C3174 0.950 . S
H3165 C3176 0.950 . S
H3166 C3178 0.950 . S
H3167 C3179 0.950 . S
C3168 H3160 0.950 . S
C3168 C3169 1.386 . S
C3168 C3170 1.391 . S
C3169 C3168 1.386 . S
C3169 C3173 1.393 . S
C3170 H3162 0.950 . S
C3170 C3168 1.391 . S
C3170 C3171 1.400 . S
C3171 C3170 1.400 . S
C3171 C3172 1.398 . S
C3171 C3177 1.491 . S
C3172 H3163 0.950 . S
C3172 C3171 1.398 . S
C3172 C3173 1.391 . S
C3173 H3161 0.950 . S
C3173 C3169 1.393 . S
C3173 C3172 1.391 . S
C3174 H3164 0.950 . S
C3174 C3175 1.386 . S
C3174 C3176 1.391 . S
C3175 C3174 1.386 . S
C3175 C3179 1.393 . S
C3176 H3165 0.950 . S
C3176 C3174 1.391 . S
C3176 C3177 1.400 . S
C3177 C3171 1.491 . S
C3177 C3176 1.400 . S
C3177 C3178 1.398 . S
C3178 H3166 0.950 . S
C3178 C3177 1.398 . S
C3178 C3179 1.391 . S
C3179 H3167 0.950 . S
C3179 C3175 1.393 . S
C3179 C3178 1.391 . S
H3180 C3188 0.950 . S
H3181 C3193 0.950 . S
H3182 C3190 0.950 . S
H3183 C3192 0.950 . S
H3184 C3194 0.950 . S
H3185 C3196 0.950 . S
H3186 C3198 0.950 . S
H3187 C3199 0.950 . S
C3188 H3180 0.950 . S
C3188 C3189 1.386 . S
C3188 C3190 1.391 . S
C3189 C3188 1.386 . S
C3189 C3193 1.393 . S
C3190 H3182 0.950 . S
C3190 C3188 1.391 . S
C3190 C3191 1.400 . S
C3191 C3190 1.400 . S
C3191 C3192 1.398 . S
C3191 C3197 1.491 . S
C3192 H3183 0.950 . S
C3192 C3191 1.398 . S
C3192 C3193 1.391 . S
C3193 H3181 0.950 . S
C3193 C3189 1.393 . S
C3193 C3192 1.391 . S
C3194 H3184 0.950 . S
C3194 C3195 1.386 . S
C3194 C3196 1.391 . S
C3195 C3194 1.386 . S
C3195 C3199 1.393 . S
C3196 H3185 0.950 . S
C3196 C3194 1.391 . S
C3196 C3197 1.400 . S
C3197 C3191 1.491 . S
C3197 C3196 1.400 . S
C3197 C3198 1.398 . S
C3198 H3186 0.950 . S
C3198 C3197 1.398 . S
C3198 C3199 1.391 . S
C3199 H3187 0.950 . S
C3199 C3195 1.393 . S
C3199 C3198 1.391 . S
H3200 C3208 0.950 . S
H3201 C3213 0.950 . S
H3202 C3210 0.950 . S
H3203 C3212 0.950 . S
H3204 C3214 0.950 . S
H3205 C3216 0.950 . S
H3206 C3218 0.950 . S
H3207 C3219 0.950 . S
C3208 H3200 0.950 . S
C3208 C3209 1.386 . S
C3208 C3210 1.391 . S
C3209 C3208 1.386 . S
C3209 C3213 1.393 . S
C3210 H3202 0.950 . S
C3210 C3208 1.391 . S
C3210 C3211 1.400 . S
C3211 C3210 1.400 . S
C3211 C3212 1.398 . S
C3211 C3217 1.491 . S
C3212 H3203 0.950 . S
C3212 C3211 1.398 . S
C3212 C3213 1.391 . S
C3213 H3201 0.950 . S
C3213 C3209 1.393 . S
C3213 C3212 1.391 . S
C3214 H3204 0.950 . S
C3214 C3215 1.386 . S
C3214 C3216 1.391 . S
C3215 C3214 1.386 . S
C3215 C3219 1.393 . S
C3216 H3205 0.950 . S
C3216 C3214 1.391 . S
C3216 C3217 1.400 . S
C3217 C3211 1.491 . S
C3217 C3216 1.400 . S
C3217 C3218 1.398 . S
C3218 H3206 0.950 . S
C3218 C3217 1.398 . S
C3218 C3219 1.391 . S
C3219 H3207 0.950 . S
C3219 C3215 1.393 . S
C3219 C3218 1.391 . S
H3220 C3228 0.950 . S
H3221 C3233 0.950 . S
H3222 C3230 0.950 . S
H3223 C3232 0.950 . S
H3224 C3234 0.950 . S
H3225 C3236 0.950 . S
H3226 C3238 0.950 . S
H3227 C3239 0.950 . S
C3228 H3220 0.950 . S
C3228 C3229 1.386 . S
C3228 C3230 1.391 . S
C3229 C3228 1.386 . S
C3229 C3233 1.393 . S
C3230 H3222 0.950 . S
C3230 C3228 1.391 . S
C3230 C3231 1.400 . S
C3231 C3230 1.400 . S
C3231 C3232 1.398 . S
C3231 C3237 1.491 . S
C3232 H3223 0.950 . S
C3232 C3231 1.398 . S
C3232 C3233 1.391 . S
C3233 H3221 0.950 . S
C3233 C3229 1.393 . S
C3233 C3232 1.391 . S
C3234 H3224 0.950 . S
C3234 C3235 1.386 . S
C3234 C3236 1.391 . S
C3235 C3234 1.386 . S
C3235 C3239 1.393 . S
C3236 H3225 0.950 . S
C3236 C3234 1.391 . S
C3236 C3237 1.400 . S
C3237 C3231 1.491 . S
C3237 C3236 1.400 . S
C3237 C3238 1.398 . S
C3238 H3226 0.950 . S
C3238 C3237 1.398 . S
C3238 C3239 1.391 . S
C3239 H3227 0.950 . S
C3239 C3235 1.393 . S
C3239 C3238 1.391 . S
H3240 C3248 0.950 . S
H3241 C3253 0.950 . S
H3242 C3250 0.950 . S
H3243 C3252 0.950 . S
H3244 C3254 0.950 . S
H3245 C3256 0.950 . S
H3246 C3258 0.950 . S
H3247 C3259 0.950 . S
C3248 H3240 0.950 . S
C3248 C3249 1.386 . S
C3248 C3250 1.391 . S
C3249 C3248 1.386 . S
C3249 C3253 1.393 . S
C3250 H3242 0.950 . S
C3250 C3248 1.391 . S
C3250 C3251 1.400 . S
C3251 C3250 1.400 . S
C3251 C3252 1.398 . S
C3251 C3257 1.491 . S
C3252 H3243 0.950 . S
C3252 C3251 1.398 . S
C3252 C3253 1.391 . S
C3253 H3241 0.950 . S
C3253 C3249 1.393 . S
C3253 C3252 1.391 . S
C3254 H3244 0.950 . S
C3254 C3255 1.386 . S
C3254 C3256 1.391 . S
C3255 C3254 1.386 . S
C3255 C3259 1.393 . S
C3256 H3245 0.950 . S
C3256 C3254 1.391 . S
C3256 C3257 1.400 . S
C3257 C3251 1.491 . S
C3257 C3256 1.400 . S
C3257 C3258 1.398 . S
C3258 H3246 0.950 . S
C3258 C3257 1.398 . S
C3258 C3259 1.391 . S
C3259 H3247 0.950 . S
C3259 C3255 1.393 . S
C3259 C3258 1.391 . S
H3260 C3268 0.950 . S
H3261 C3273 0.950 . S
H3262 C3270 0.950 . S
H3263 C3272 0.950 . S
H3264 C3274 0.950 . S
H3265 C3276 0.950 . S
H3266 C3278 0.950 . S
H3267 C3279 0.950 . S
C3268 H3260 0.950 . S
C3268 C3269 1.386 . S
C3268 C3270 1.391 . S
C3269 C3268 1.386 . S
C3269 C3273 1.393 . S
C3270 H3262 0.950 . S
C3270 C3268 1.391 . S
C3270 C3271 1.400 . S
C3271 C3270 1.400 . S
C3271 C3272 1.398 . S
C3271 C3277 1.491 . S
C3272 H3263 0.950 . S
C3272 C3271 1.398 . S
C3272 C3273 1.391 . S
C3273 H3261 0.950 . S
C3273 C3269 1.393 . S
C3273 C3272 1.391 . S
C3274 H3264 0.950 . S
C3274 C3275 1.386 . S
C3274 C3276 1.391 . S
C3275 C3274 1.386 . S
C3275 C3279 1.393 . S
C3276 H3265 0.950 . S
C3276 C3274 1.391 . S
C3276 C3277 1.400 . S
C3277 C3271 1.491 . S
C3277 C3276 1.400 . S
C3277 C3278 1.398 . S
C3278 H3266 0.950 . S
C3278 C3277 1.398 . S
C3278 C3279 1.391 . S
C3279 H3267 0.950 . S
C3279 C3275 1.393 . S
C3279 C3278 1.391 . S
H3280 C3288 0.950 . S
H3281 C3293 0.950 . S
H3282 C3290 0.950 . S
H3283 C3292 0.950 . S
H3284 C3294 0.950 . S
H3285 C3296 0.950 . S
H3286 C3298 0.950 . S
H3287 C3299 0.950 . S
C3288 H3280 0.950 . S
C3288 C3289 1.386 . S
C3288 C3290 1.391 . S
C3289 C3288 1.386 . S
C3289 C3293 1.393 . S
C3290 H3282 0.950 . S
C3290 C3288 1.391 . S
C3290 C3291 1.400 . S
C3291 C3290 1.400 . S
C3291 C3292 1.398 . S
C3291 C3297 1.491 . S
C3292 H3283 0.950 . S
C3292 C3291 1.398 . S
C3292 C3293 1.391 . S
C3293 H3281 0.950 . S
C3293 C3289 1.393 . S
C3293 C3292 1.391 . S
C3294 H3284 0.950 . S
C3294 C3295 1.386 . S
C3294 C3296 1.391 . S
C3295 C3294 1.386 . S
C3295 C3299 1.393 . S
C3296 H3285 0.950 . S
C3296 C3294 1.391 . S
C3296 C3297 1.400 . S
C3297 C3291 1.491 . S
C3297 C3296 1.400 . S
C3297 C3298 1.398 . S
C3298 H3286 0.950 . S
C3298 C3297 1.398 . S
C3298 C3299 1.391 . S
C3299 H3287 0.950 . S
C3299 C3295 1.393 . S
C3299 C3298 1.391 . S
H3300 C3308 0.950 . S
H3301 C3313 0.950 . S
H3302 C3310 0.950 . S
H3303 C3312 0.950 . S
H3304 C3314 0.950 . S
H3305 C3316 0.950 . S
H3306 C3318 0.950 . S
H3307 C3319 0.950 . S
C3308 H3300 0.950 . S
C3308 C3309 1.386 . S
C3308 C3310 1.391 . S
C3309 C3308 1.386 . S
C3309 C3313 1.393 . S
C3310 H3302 0.950 . S
C3310 C3308 1.391 . S
C3310 C3311 1.400 . S
C3311 C3310 1.400 . S
C3311 C3312 1.398 . S
C3311 C3317 1.491 . S
C3312 H3303 0.950 . S
C3312 C3311 1.398 . S
C3312 C3313 1.391 . S
C3313 H3301 0.950 . S
C3313 C3309 1.393 . S
C3313 C3312 1.391 . S
C3314 H3304 0.950 . S
C3314 C3315 1.386 . S
C3314 C3316 1.391 . S
C3315 C3314 1.386 . S
C3315 C3319 1.393 . S
C3316 H3305 0.950 . S
C3316 C3314 1.391 . S
C3316 C3317 1.400 . S
C3317 C3311 1.491 . S
C3317 C3316 1.400 . S
C3317 C3318 1.398 . S
C3318 H3306 0.950 . S
C3318 C3317 1.398 . S
C3318 C3319 1.391 . S
C3319 H3307 0.950 . S
C3319 C3315 1.393 . S
C3319 C3318 1.391 . S
H3320 C3328 0.950 . S
H3321 C3333 0.950 . S
H3322 C3330 0.950 . S
H3323 C3332 0.950 . S
H3324 C3334 0.950 . S
H3325 C3336 0.950 . S
H3326 C3338 0.950 . S
H3327 C3339 0.950 . S
C3328 H3320 0.950 . S
C3328 C3329 1.386 . S
C3328 C3330 1.391 . S
C3329 C3328 1.386 . S
C3329 C3333 1.393 . S
C3330 H3322 0.950 . S
C3330 C3328 1.391 . S
C3330 C3331 1.400 . S
C3331 C3330 1.400 . S
C3331 C3332 1.398 . S
C3331 C3337 1.491 . S
C3332 H3323 0.950 . S
C3332 C3331 1.398 . S
C3332 C3333 1.391 . S
C3333 H3321 0.950 . S
C3333 C3329 1.393 . S
C3333 C3332 1.391 . S
C3334 H3324 0.950 . S
C3334 C3335 1.386 . S
C3334 C3336 1.391 . S
C3335 C3334 1.386 . S
C3335 C3339 1.393 . S
C3336 H3325 0.950 . S
C3336 C3334 1.391 . S
C3336 C3337 1.400 . S
C3337 C3331 1.491 . S
C3337 C3336 1.400 . S
C3337 C3338 1.398 . S
C3338 H3326 0.950 . S
C3338 C3337 1.398 . S
C3338 C3339 1.391 . S
C3339 H3327 0.950 . S
C3339 C3335 1.393 . S
C3339 C3338 1.391 . S
H3340 C3348 0.950 . S
H3341 C3353 0.950 . S
H3342 C3350 0.950 . S
H3343 C3352 0.950 . S
H3344 C3354 0.950 . S
H3345 C3356 0.950 . S
H3346 C3358 0.950 . S
H3347 C3359 0.950 . S
C3348 H3340 0.950 . S
C3348 C3349 1.386 . S
C3348 C3350 1.391 . S
C3349 C3348 1.386 . S
C3349 C3353 1.393 . S
C3350 H3342 0.950 . S
C3350 C3348 1.391 . S
C3350 C3351 1.400 . S
C3351 C3350 1.400 . S
C3351 C3352 1.398 . S
C3351 C3357 1.491 . S
C3352 H3343 0.950 . S
C3352 C3351 1.398 . S
C3352 C3353 1.391 . S
C3353 H3341 0.950 . S
C3353 C3349 1.393 . S
C3353 C3352 1.391 . S
C3354 H3344 0.950 . S
C3354 C3355 1.386 . S
C3354 C3356 1.391 . S
C3355 C3354 1.386 . S
C3355 C3359 1.393 . S
C3356 H3345 0.950 . S
C3356 C3354 1.391 . S
C3356 C3357 1.400 . S
C3357 C3351 1.491 . S
C3357 C3356 1.400 . S
C3357 C3358 1.398 . S
C3358 H3346 0.950 . S
C3358 C3357 1.398 . S
C3358 C3359 1.391 . S
C3359 H3347 0.950 . S
C3359 C3355 1.393 . S
C3359 C3358 1.391 . S
C1929 C1762 1.532 . S
C1935 C2 1.535 . S
C1949 C1642 1.571 . S
C1955 C61 1.613 . S
C1969 C1701 1.654 . S
C1975 C82 1.590 . S
C1989 C122 1.575 . S
C1995 C1741 1.613 . S
C2009 C181 1.574 . S
C2015 C1882 1.532 . S
C2029 C202 1.562 . S
C2035 C1821 1.615 . S
C2049 C1861 1.664 . S
C2055 C261 1.663 . S
C2069 C301 1.615 . S
C2075 C1602 1.571 . S
C2089 C341 1.653 . S
C2095 C1581 1.652 . S
C2109 C1461 1.664 . S
C2115 C362 1.597 . S
C2129 C402 1.532 . S
C2135 C1501 1.563 . S
C2149 C1522 1.520 . S
C2155 C442 1.521 . S
C2169 C1322 1.618 . S
C2175 C501 1.664 . S
C2189 C541 1.563 . S
C2195 C1362 1.533 . S
C2209 C1402 1.534 . S
C2215 C562 1.531 . S
C2229 C621 1.652 . S
C2235 C1301 1.653 . S
C2249 C1261 1.615 . S
C2255 C642 1.567 . S
C2269 C682 1.562 . S
C2275 C1021 1.613 . S
C2289 C741 1.653 . S
C2295 C1042 1.589 . S
C2309 C1082 1.572 . S
C2315 C781 1.613 . S
C2329 C802 1.512 . S
C2335 C962 1.516 . S
C2349 C861 1.614 . S
C2355 C1162 1.573 . S
C2369 C1221 1.662 . S
C2375 C901 1.664 . S
C2389 C922 1.520 . S
C2395 C1141 1.575 . S
C2409 C602 1.647 . S
C2415 C1621 1.614 . S
C2429 C1901 1.564 . S
C2435 C482 1.606 . S
C2449 C1802 1.557 . S
C2455 C522 1.557 . S
C2469 C1842 1.610 . S
C2475 C581 1.574 . S
C2489 C1661 1.612 . S
C2495 C381 1.617 . S
C2509 C1682 1.610 . S
C2515 C421 1.581 . S
C2529 C461 1.545 . S
C2535 C1722 1.571 . S
C2549 C322 1.601 . S
C2555 C1781 1.563 . S
C2569 C981 1.533 . S
C2575 C282 1.557 . S
C2589 C162 1.572 . S
C2595 C1002 1.563 . S
C2609 C1061 1.612 . S
C2615 C221 1.615 . S
C2629 C1101 1.608 . S
C2635 C242 1.655 . S
C2649 C42 1.571 . S
C2655 C1122 1.564 . S
C2669 C1181 1.614 . S
C2675 C101 1.614 . S
C2689 C141 1.626 . S
C2695 C1202 1.660 . S
C2709 C21 1.531 . S
C2715 C1242 1.562 . S
C2729 C821 1.581 . S
C2735 C1282 1.610 . S
C2749 C1442 1.610 . S
C2755 C941 1.576 . S
C2769 C1482 1.561 . S
C2775 C842 1.553 . S
C2789 C1541 1.572 . S
C2795 C882 1.603 . S
C2809 C661 1.604 . S
C2815 C1562 1.642 . S
C2829 C722 1.602 . S
C2835 C1381 1.560 . S
C2849 C762 1.571 . S
C2855 C1421 1.537 . S
C2869 C701 1.609 . S
C2875 C1341 1.614 . S
C2889 C375 1.552 . S
C2895 C15 1.562 . S
C2909 C55 1.542 . S
C2915 C415 1.542 . S
C2929 C95 1.555 . S
C2935 C455 1.555 . S
C2949 C335 1.571 . S
C2955 C135 1.565 . S
C2969 C175 1.557 . S
C2975 C615 1.555 . S
C2989 C495 1.568 . S
C2995 C215 1.570 . S
C3009 C255 1.559 . S
C3015 C535 1.561 . S
C3029 C295 1.543 . S
C3035 C575 1.540 . S
C3049 C735 1.569 . S
C3055 C655 1.569 . S
C3069 C695 1.568 . S
C3075 C895 1.570 . S
C3089 C935 1.539 . S
C3095 C775 1.544 . S
C3109 C855 1.540 . S
C3115 C815 1.542 . S
C3129 C1335 1.559 . S
C3135 C975 1.559 . S
C3149 C1375 1.541 . S
C3155 C1015 1.542 . S
C3169 C1415 1.555 . S
C3175 C1055 1.555 . S
C3189 C1295 1.570 . S
C3195 C1095 1.568 . S
C3209 C1575 1.558 . S
C3215 C1135 1.556 . S
C3229 C1455 1.570 . S
C3235 C1175 1.568 . S
C3249 C1495 1.560 . S
C3255 C1215 1.561 . S
C3269 C1535 1.543 . S
C3275 C1255 1.541 . S
C3289 C1695 1.570 . S
C3295 C1615 1.567 . S
C3309 C1855 1.568 . S
C3315 C1655 1.571 . S
C3329 C1735 1.543 . S
C3335 C1895 1.540 . S
C3349 C1815 1.541 . S
C3355 C1775 1.541 . S
