# Generated by pormake.
# Topology ato, (4)-cn, num edge types: 1
# Building blocks:
#     Node 0, Type 0, BuildingBlock: QUQFOY_clean_sbu_1, # of connection points: 4
#     Node 1, Type 0, BuildingBlock: QUQFOY_clean_sbu_1, # of connection points: 4
#     Node 2, Type 0, BuildingBlock: QUQFOY_clean_sbu_1, # of connection points: 4
#     Node 3, Type 0, BuildingBlock: QUQFOY_clean_sbu_1, # of connection points: 4
#     Node 4, Type 0, BuildingBlock: QUQFOY_clean_sbu_1, # of connection points: 4
#     Node 5, Type 0, BuildingBlock: QUQFOY_clean_sbu_1, # of connection points: 4
#     Node 6, Type 0, BuildingBlock: QUQFOY_clean_sbu_1, # of connection points: 4
#     Node 7, Type 0, BuildingBlock: QUQFOY_clean_sbu_1, # of connection points: 4
#     Node 8, Type 0, BuildingBlock: QUQFOY_clean_sbu_1, # of connection points: 4
#     Node 9, Type 0, BuildingBlock: QUQFOY_clean_sbu_1, # of connection points: 4
#     Node 10, Type 0, BuildingBlock: QUQFOY_clean_sbu_1, # of connection points: 4
#     Node 11, Type 0, BuildingBlock: QUQFOY_clean_sbu_1, # of connection points: 4
#     Node 12, Type 0, BuildingBlock: QUQFOY_clean_sbu_1, # of connection points: 4
#     Node 13, Type 0, BuildingBlock: QUQFOY_clean_sbu_1, # of connection points: 4
#     Node 14, Type 0, BuildingBlock: QUQFOY_clean_sbu_1, # of connection points: 4
#     Node 15, Type 0, BuildingBlock: QUQFOY_clean_sbu_1, # of connection points: 4
#     Node 16, Type 0, BuildingBlock: QUQFOY_clean_sbu_1, # of connection points: 4
#     Node 17, Type 0, BuildingBlock: QUQFOY_clean_sbu_1, # of connection points: 4
#     Node 18, Type 0, BuildingBlock: QUQFOY_clean_sbu_1, # of connection points: 4
#     Node 19, Type 0, BuildingBlock: QUQFOY_clean_sbu_1, # of connection points: 4
#     Node 20, Type 0, BuildingBlock: QUQFOY_clean_sbu_1, # of connection points: 4
#     Node 21, Type 0, BuildingBlock: QUQFOY_clean_sbu_1, # of connection points: 4
#     Node 22, Type 0, BuildingBlock: QUQFOY_clean_sbu_1, # of connection points: 4
#     Node 23, Type 0, BuildingBlock: QUQFOY_clean_sbu_1, # of connection points: 4
#     Node 24, Type 0, BuildingBlock: QUQFOY_clean_sbu_1, # of connection points: 4
#     Node 25, Type 0, BuildingBlock: QUQFOY_clean_sbu_1, # of connection points: 4
#     Node 26, Type 0, BuildingBlock: QUQFOY_clean_sbu_1, # of connection points: 4
#     Node 27, Type 0, BuildingBlock: QUQFOY_clean_sbu_1, # of connection points: 4
#     Node 28, Type 0, BuildingBlock: QUQFOY_clean_sbu_1, # of connection points: 4
#     Node 29, Type 0, BuildingBlock: QUQFOY_clean_sbu_1, # of connection points: 4
#     Node 30, Type 0, BuildingBlock: QUQFOY_clean_sbu_1, # of connection points: 4
#     Node 31, Type 0, BuildingBlock: QUQFOY_clean_sbu_1, # of connection points: 4
#     Node 32, Type 0, BuildingBlock: QUQFOY_clean_sbu_1, # of connection points: 4
#     Node 33, Type 0, BuildingBlock: QUQFOY_clean_sbu_1, # of connection points: 4
#     Node 34, Type 0, BuildingBlock: QUQFOY_clean_sbu_1, # of connection points: 4
#     Node 35, Type 0, BuildingBlock: QUQFOY_clean_sbu_1, # of connection points: 4
#     Edge 36, Type (0, 0), BuildingBlock: EZIPEK_clean_linker_0, # of connection points: 2
#     Edge 37, Type (0, 0), BuildingBlock: EZIPEK_clean_linker_0, # of connection points: 2
#     Edge 38, Type (0, 0), BuildingBlock: EZIPEK_clean_linker_0, # of connection points: 2
#     Edge 39, Type (0, 0), BuildingBlock: EZIPEK_clean_linker_0, # of connection points: 2
#     Edge 40, Type (0, 0), BuildingBlock: EZIPEK_clean_linker_0, # of connection points: 2
#     Edge 41, Type (0, 0), BuildingBlock: EZIPEK_clean_linker_0, # of connection points: 2
#     Edge 42, Type (0, 0), BuildingBlock: EZIPEK_clean_linker_0, # of connection points: 2
#     Edge 43, Type (0, 0), BuildingBlock: EZIPEK_clean_linker_0, # of connection points: 2
#     Edge 44, Type (0, 0), BuildingBlock: EZIPEK_clean_linker_0, # of connection points: 2
#     Edge 45, Type (0, 0), BuildingBlock: EZIPEK_clean_linker_0, # of connection points: 2
#     Edge 46, Type (0, 0), BuildingBlock: EZIPEK_clean_linker_0, # of connection points: 2
#     Edge 47, Type (0, 0), BuildingBlock: EZIPEK_clean_linker_0, # of connection points: 2
#     Edge 48, Type (0, 0), BuildingBlock: EZIPEK_clean_linker_0, # of connection points: 2
#     Edge 49, Type (0, 0), BuildingBlock: EZIPEK_clean_linker_0, # of connection points: 2
#     Edge 50, Type (0, 0), BuildingBlock: EZIPEK_clean_linker_0, # of connection points: 2
#     Edge 51, Type (0, 0), BuildingBlock: EZIPEK_clean_linker_0, # of connection points: 2
#     Edge 52, Type (0, 0), BuildingBlock: EZIPEK_clean_linker_0, # of connection points: 2
#     Edge 53, Type (0, 0), BuildingBlock: EZIPEK_clean_linker_0, # of connection points: 2
#     Edge 54, Type (0, 0), BuildingBlock: EZIPEK_clean_linker_0, # of connection points: 2
#     Edge 55, Type (0, 0), BuildingBlock: EZIPEK_clean_linker_0, # of connection points: 2
#     Edge 56, Type (0, 0), BuildingBlock: EZIPEK_clean_linker_0, # of connection points: 2
#     Edge 57, Type (0, 0), BuildingBlock: EZIPEK_clean_linker_0, # of connection points: 2
#     Edge 58, Type (0, 0), BuildingBlock: EZIPEK_clean_linker_0, # of connection points: 2
#     Edge 59, Type (0, 0), BuildingBlock: EZIPEK_clean_linker_0, # of connection points: 2
#     Edge 60, Type (0, 0), BuildingBlock: EZIPEK_clean_linker_0, # of connection points: 2
#     Edge 61, Type (0, 0), BuildingBlock: EZIPEK_clean_linker_0, # of connection points: 2
#     Edge 62, Type (0, 0), BuildingBlock: EZIPEK_clean_linker_0, # of connection points: 2
#     Edge 63, Type (0, 0), BuildingBlock: EZIPEK_clean_linker_0, # of connection points: 2
#     Edge 64, Type (0, 0), BuildingBlock: EZIPEK_clean_linker_0, # of connection points: 2
#     Edge 65, Type (0, 0), BuildingBlock: EZIPEK_clean_linker_0, # of connection points: 2
#     Edge 66, Type (0, 0), BuildingBlock: EZIPEK_clean_linker_0, # of connection points: 2
#     Edge 67, Type (0, 0), BuildingBlock: EZIPEK_clean_linker_0, # of connection points: 2
#     Edge 68, Type (0, 0), BuildingBlock: EZIPEK_clean_linker_0, # of connection points: 2
#     Edge 69, Type (0, 0), BuildingBlock: EZIPEK_clean_linker_0, # of connection points: 2
#     Edge 70, Type (0, 0), BuildingBlock: EZIPEK_clean_linker_0, # of connection points: 2
#     Edge 71, Type (0, 0), BuildingBlock: EZIPEK_clean_linker_0, # of connection points: 2
#     Edge 72, Type (0, 0), BuildingBlock: EZIPEK_clean_linker_0, # of connection points: 2
#     Edge 73, Type (0, 0), BuildingBlock: EZIPEK_clean_linker_0, # of connection points: 2
#     Edge 74, Type (0, 0), BuildingBlock: EZIPEK_clean_linker_0, # of connection points: 2
#     Edge 75, Type (0, 0), BuildingBlock: EZIPEK_clean_linker_0, # of connection points: 2
#     Edge 76, Type (0, 0), BuildingBlock: EZIPEK_clean_linker_0, # of connection points: 2
#     Edge 77, Type (0, 0), BuildingBlock: EZIPEK_clean_linker_0, # of connection points: 2
#     Edge 78, Type (0, 0), BuildingBlock: EZIPEK_clean_linker_0, # of connection points: 2
#     Edge 79, Type (0, 0), BuildingBlock: EZIPEK_clean_linker_0, # of connection points: 2
#     Edge 80, Type (0, 0), BuildingBlock: EZIPEK_clean_linker_0, # of connection points: 2
#     Edge 81, Type (0, 0), BuildingBlock: EZIPEK_clean_linker_0, # of connection points: 2
#     Edge 82, Type (0, 0), BuildingBlock: EZIPEK_clean_linker_0, # of connection points: 2
#     Edge 83, Type (0, 0), BuildingBlock: EZIPEK_clean_linker_0, # of connection points: 2
#     Edge 84, Type (0, 0), BuildingBlock: EZIPEK_clean_linker_0, # of connection points: 2
#     Edge 85, Type (0, 0), BuildingBlock: EZIPEK_clean_linker_0, # of connection points: 2
#     Edge 86, Type (0, 0), BuildingBlock: EZIPEK_clean_linker_0, # of connection points: 2
#     Edge 87, Type (0, 0), BuildingBlock: EZIPEK_clean_linker_0, # of connection points: 2
#     Edge 88, Type (0, 0), BuildingBlock: EZIPEK_clean_linker_0, # of connection points: 2
#     Edge 89, Type (0, 0), BuildingBlock: EZIPEK_clean_linker_0, # of connection points: 2
#     Edge 90, Type (0, 0), BuildingBlock: EZIPEK_clean_linker_0, # of connection points: 2
#     Edge 91, Type (0, 0), BuildingBlock: EZIPEK_clean_linker_0, # of connection points: 2
#     Edge 92, Type (0, 0), BuildingBlock: EZIPEK_clean_linker_0, # of connection points: 2
#     Edge 93, Type (0, 0), BuildingBlock: EZIPEK_clean_linker_0, # of connection points: 2
#     Edge 94, Type (0, 0), BuildingBlock: EZIPEK_clean_linker_0, # of connection points: 2
#     Edge 95, Type (0, 0), BuildingBlock: EZIPEK_clean_linker_0, # of connection points: 2
#     Edge 96, Type (0, 0), BuildingBlock: EZIPEK_clean_linker_0, # of connection points: 2
#     Edge 97, Type (0, 0), BuildingBlock: EZIPEK_clean_linker_0, # of connection points: 2
#     Edge 98, Type (0, 0), BuildingBlock: EZIPEK_clean_linker_0, # of connection points: 2
#     Edge 99, Type (0, 0), BuildingBlock: EZIPEK_clean_linker_0, # of connection points: 2
#     Edge 100, Type (0, 0), BuildingBlock: EZIPEK_clean_linker_0, # of connection points: 2
#     Edge 101, Type (0, 0), BuildingBlock: EZIPEK_clean_linker_0, # of connection points: 2
#     Edge 102, Type (0, 0), BuildingBlock: EZIPEK_clean_linker_0, # of connection points: 2
#     Edge 103, Type (0, 0), BuildingBlock: EZIPEK_clean_linker_0, # of connection points: 2
#     Edge 104, Type (0, 0), BuildingBlock: EZIPEK_clean_linker_0, # of connection points: 2
#     Edge 105, Type (0, 0), BuildingBlock: EZIPEK_clean_linker_0, # of connection points: 2
#     Edge 106, Type (0, 0), BuildingBlock: EZIPEK_clean_linker_0, # of connection points: 2
#     Edge 107, Type (0, 0), BuildingBlock: EZIPEK_clean_linker_0, # of connection points: 2
# Relax obj value: 0.083
# Max RMSD: 0.156
# Mean RMSD: 0.156
data_MOF--net-ato--node1-QUQFOY_clean_sbu_1--edge1-EZIPEK_clean_linker_0
_symmetry_space_group_name_H-M    P1
_symmetry_Int_Tables_number       1
_symmetry_cell_setting            triclinic
loop_
_symmetry_equiv_pos_as_xyz
'x, y, z'
_cell_length_a     82.577285
_cell_length_b     82.582525
_cell_length_c     18.128965
_cell_angle_alpha  89.993032
_cell_angle_beta   90.001517
_cell_angle_gamma 119.9951
loop_
_atom_site_label
_atom_site_type_symbol
_atom_site_fract_x
_atom_site_fract_y
_atom_site_fract_z
_atom_type_partial_charge
O0 O 0.24297 0.02413 0.16831 0.0
Cd1 Cd 0.25934 0.03822 0.25747 0.0
Cd2 Cd 0.25565 0.06725 0.18904 0.0
O3 O 0.23638 0.04519 0.12515 0.0
O4 O 0.25793 0.01768 0.32012 0.0
O5 O 0.24827 0.03686 0.35819 0.0
C6 C 0.25053 0.02273 0.37117 0.0
C7 C 0.24919 0.09087 0.22136 0.0
C8 C 0.23458 0.02899 0.12233 0.0
C9 C 0.29416 0.07059 0.1977 0.0
O10 O 0.28387 0.07674 0.1727 0.0
O11 O 0.28732 0.05582 0.23655 0.0
O12 O 0.25353 0.08906 0.15492 0.0
O13 O 0.24774 0.07877 0.26993 0.0
O14 O 0.97925 0.22007 0.15513 0.0
Cd15 Cd 0.96537 0.22224 0.24518 0.0
Cd16 Cd 0.93613 0.18939 0.17644 0.0
O17 O 0.95805 0.19269 0.11029 0.0
O18 O 0.98611 0.24162 0.30646 0.0
O19 O 0.96725 0.21284 0.34592 0.0
C20 C 0.98134 0.22932 0.35796 0.0
C21 C 0.91289 0.15914 0.20877 0.0
C22 C 0.97428 0.20706 0.10797 0.0
C23 C 0.9325 0.22437 0.18853 0.0
O24 O 0.92627 0.20792 0.16351 0.0
O25 O 0.94754 0.23242 0.22575 0.0
O26 O 0.91429 0.16543 0.14274 0.0
O27 O 0.92521 0.16975 0.25674 0.0
O28 O 0.78307 0.75805 0.17019 0.0
Cd29 Cd 0.78394 0.74356 0.26038 0.0
Cd30 Cd 0.81374 0.74589 0.17354 0.0
O31 O 0.80758 0.7622 0.10548 0.0
O32 O 0.76498 0.74462 0.32521 0.0
O33 O 0.79481 0.75743 0.35587 0.0
C34 C 0.7782 0.75427 0.37123 0.0
C35 C 0.8446 0.75402 0.19896 0.0
C36 C 0.79364 0.76459 0.11424 0.0
C37 C 0.78003 0.70766 0.2032 0.0
O38 O 0.79542 0.71746 0.16951 0.0
O39 O 0.77345 0.71521 0.24567 0.0
O40 O 0.83733 0.74807 0.13485 0.0
O41 O 0.83468 0.75635 0.24839 0.0
O42 O 0.025 0.24362 0.83419 0.0
Cd43 Cd 0.03945 0.25965 0.74485 0.0
Cd44 Cd 0.06799 0.25525 0.81499 0.0
O45 O 0.04541 0.23611 0.87712 0.0
O46 O 0.01915 0.25868 0.68186 0.0
O47 O 0.03775 0.24822 0.6446 0.0
C48 C 0.02387 0.25087 0.6313 0.0
C49 C 0.09141 0.24825 0.78598 0.0
C50 C 0.02943 0.23483 0.87989 0.0
C51 C 0.07225 0.29414 0.80485 0.0
O52 O 0.07793 0.28358 0.83117 0.0
O53 O 0.05764 0.28755 0.76503 0.0
O54 O 0.08911 0.25233 0.85219 0.0
O55 O 0.07996 0.24743 0.73561 0.0
O56 O 0.75818 0.78169 0.83163 0.0
Cd57 Cd 0.74365 0.78273 0.74188 0.0
Cd58 Cd 0.74672 0.81271 0.8269 0.0
O59 O 0.76316 0.80669 0.89471 0.0
O60 O 0.7446 0.76391 0.67597 0.0
O61 O 0.7576 0.79385 0.64681 0.0
C62 C 0.75439 0.77727 0.63065 0.0
C63 C 0.75523 0.84344 0.79712 0.0
C64 C 0.76516 0.7925 0.88668 0.0
C65 C 0.70813 0.77937 0.80037 0.0
O66 O 0.71824 0.79474 0.83366 0.0
O67 O 0.71536 0.77257 0.75724 0.0
O68 O 0.74956 0.83681 0.86231 0.0
O69 O 0.75708 0.83292 0.74906 0.0
O70 O 0.22012 0.97887 0.84856 0.0
Cd71 Cd 0.22246 0.96497 0.7589 0.0
Cd72 Cd 0.18979 0.93578 0.82757 0.0
O73 O 0.19245 0.95781 0.89148 0.0
O74 O 0.24173 0.98566 0.69712 0.0
O75 O 0.21293 0.96664 0.65816 0.0
C76 C 0.22937 0.98075 0.64576 0.0
C77 C 0.15999 0.91196 0.79375 0.0
C78 C 0.20686 0.97399 0.89451 0.0
C79 C 0.22495 0.93253 0.81784 0.0
O80 O 0.20859 0.9264 0.84363 0.0
O81 O 0.23278 0.94729 0.77889 0.0
O82 O 0.16586 0.91381 0.86066 0.0
O83 O 0.1707 0.9242 0.7457 0.0
O84 O 0.75813 0.97796 0.84153 0.0
Cd85 Cd 0.74371 0.96345 0.74939 0.0
Cd86 Cd 0.74807 0.93552 0.82201 0.0
O87 O 0.7663 0.95816 0.88594 0.0
O88 O 0.74484 0.98328 0.683 0.0
O89 O 0.7576 0.96604 0.6545 0.0
C90 C 0.75436 0.97936 0.63745 0.0
C91 C 0.75572 0.91253 0.79399 0.0
C92 C 0.76689 0.97383 0.88854 0.0
C93 C 0.709 0.93028 0.80498 0.0
O94 O 0.71959 0.92508 0.83488 0.0
O95 O 0.71569 0.94465 0.76381 0.0
O96 O 0.75117 0.91455 0.85979 0.0
O97 O 0.75676 0.92409 0.74372 0.0
O98 O 0.02714 0.77937 0.82815 0.0
Cd99 Cd 0.0419 0.78095 0.73396 0.0
Cd100 Cd 0.06902 0.81146 0.81381 0.0
O101 O 0.04619 0.80719 0.87538 0.0
O102 O 0.02205 0.76256 0.66674 0.0
O103 O 0.03862 0.7928 0.64179 0.0
C104 C 0.02551 0.77627 0.62342 0.0
C105 C 0.0923 0.84196 0.78618 0.0
C106 C 0.03075 0.79188 0.87646 0.0
C107 C 0.07436 0.77819 0.7897 0.0
O108 O 0.07849 0.79268 0.82773 0.0
O109 O 0.06131 0.77222 0.74216 0.0
O110 O 0.09005 0.83539 0.85209 0.0
O111 O 0.08094 0.83144 0.73536 0.0
O112 O 0.22116 0.24304 0.84753 0.0
Cd113 Cd 0.22328 0.2591 0.75753 0.0
Cd114 Cd 0.19035 0.25523 0.82548 0.0
O115 O 0.19365 0.23662 0.89177 0.0
O116 O 0.24273 0.25789 0.69623 0.0
O117 O 0.21393 0.24785 0.65675 0.0
C118 C 0.23045 0.25034 0.64469 0.0
C119 C 0.16016 0.24812 0.79176 0.0
C120 C 0.2081 0.2349 0.89443 0.0
C121 C 0.22514 0.29394 0.81437 0.0
O122 O 0.20869 0.28362 0.83919 0.0
O123 O 0.2333 0.28707 0.7771 0.0
O124 O 0.16622 0.25288 0.85812 0.0
O125 O 0.17095 0.24655 0.74425 0.0
O126 O 0.97837 0.75573 0.15481 0.0
Cd127 Cd 0.96349 0.74293 0.24937 0.0
Cd128 Cd 0.9369 0.74689 0.16823 0.0
O129 O 0.95993 0.76523 0.10719 0.0
O130 O 0.98312 0.74376 0.31623 0.0
O131 O 0.96737 0.75826 0.34147 0.0
C132 C 0.98014 0.75432 0.35965 0.0
C133 C 0.91374 0.75424 0.19638 0.0
C134 C 0.97512 0.76487 0.10633 0.0
C135 C 0.93066 0.70804 0.19366 0.0
O136 O 0.92707 0.71859 0.15426 0.0
O137 O 0.9435 0.71495 0.24211 0.0
O138 O 0.91597 0.75001 0.13026 0.0
O139 O 0.9252 0.75512 0.24685 0.0
O140 O 0.245 0.22136 0.16827 0.0
Cd141 Cd 0.26113 0.22311 0.2575 0.0
Cd142 Cd 0.25671 0.19017 0.18919 0.0
O143 O 0.23748 0.19334 0.12655 0.0
O144 O 0.26003 0.24233 0.32062 0.0
O145 O 0.24975 0.21329 0.35769 0.0
C146 C 0.25228 0.22977 0.3711 0.0
C147 C 0.24975 0.15994 0.22116 0.0
C148 C 0.23617 0.20802 0.12311 0.0
C149 C 0.29559 0.22479 0.19755 0.0
O150 O 0.28501 0.20848 0.17189 0.0
O151 O 0.28904 0.23288 0.23708 0.0
O152 O 0.25368 0.16591 0.15437 0.0
O153 O 0.24907 0.17088 0.27045 0.0
O154 O 0.78123 0.0247 0.16554 0.0
Cd155 Cd 0.7813 0.03921 0.25768 0.0
Cd156 Cd 0.81341 0.06713 0.18477 0.0
O157 O 0.80927 0.04446 0.12171 0.0
O158 O 0.7627 0.01936 0.3242 0.0
O159 O 0.79269 0.03669 0.35243 0.0
C160 C 0.77617 0.02333 0.36961 0.0
C161 C 0.84395 0.09034 0.21305 0.0
C162 C 0.79419 0.0288 0.11891 0.0
C163 C 0.77945 0.0721 0.2011 0.0
O164 O 0.79514 0.07724 0.17054 0.0
O165 O 0.77197 0.05793 0.24335 0.0
O166 O 0.83745 0.08816 0.14707 0.0
O167 O 0.83339 0.07884 0.26346 0.0
O168 O 0.91356 0.36012 0.50516 0.0
Cd169 Cd 0.92707 0.37596 0.59645 0.0
Cd170 Cd 0.92456 0.40206 0.50495 0.0
O171 O 0.90782 0.37929 0.4398 0.0
O172 O 0.92643 0.35633 0.66252 0.0
O173 O 0.91224 0.37225 0.68997 0.0
C174 C 0.91601 0.35929 0.70676 0.0
C175 C 0.91658 0.42466 0.53387 0.0
C176 C 0.90638 0.36339 0.44922 0.0
C177 C 0.96285 0.40775 0.53784 0.0
O178 O 0.95286 0.41187 0.49747 0.0
O179 O 0.95539 0.39494 0.58629 0.0
O180 O 0.92193 0.42335 0.46848 0.0
O181 O 0.91478 0.41246 0.58267 0.0
O182 O 0.64307 0.55563 0.50462 0.0
Cd183 Cd 0.62824 0.55469 0.5978 0.0
Cd184 Cd 0.60121 0.52345 0.52027 0.0
O185 O 0.62409 0.52751 0.45968 0.0
O186 O 0.64795 0.57353 0.66439 0.0
O187 O 0.63147 0.54343 0.69179 0.0
C188 C 0.64449 0.56008 0.70922 0.0
C189 C 0.57788 0.49298 0.54859 0.0
C190 C 0.63951 0.54284 0.4577 0.0
C191 C 0.59569 0.55684 0.53907 0.0
O192 O 0.59158 0.54202 0.50347 0.0
O193 O 0.60881 0.56331 0.58642 0.0
O194 O 0.58008 0.49952 0.48262 0.0
O195 O 0.58941 0.50351 0.59895 0.0
O196 O 0.45009 0.09176 0.49718 0.0
Cd197 Cd 0.45088 0.07672 0.58632 0.0
Cd198 Cd 0.48032 0.0798 0.49524 0.0
O199 O 0.4747 0.09696 0.43084 0.0
O200 O 0.43073 0.07674 0.64692 0.0
O201 O 0.45978 0.08897 0.68628 0.0
C202 C 0.44291 0.08551 0.69761 0.0
C203 C 0.51065 0.08736 0.52633 0.0
C204 C 0.46059 0.09895 0.44137 0.0
C205 C 0.44736 0.04136 0.52329 0.0
O206 O 0.46192 0.05156 0.48546 0.0
O207 O 0.44141 0.04853 0.57061 0.0
O208 O 0.50438 0.08252 0.46017 0.0
O209 O 0.50004 0.08897 0.57469 0.0
O210 O 0.69051 0.57892 0.18025 0.0
Cd211 Cd 0.70491 0.59335 0.08791 0.0
Cd212 Cd 0.73286 0.58907 0.16032 0.0
O213 O 0.71036 0.57082 0.22484 0.0
O214 O 0.68497 0.59207 0.02166 0.0
O215 O 0.70233 0.57947 0.99292 0.0
C216 C 0.68893 0.58259 0.97604 0.0
C217 C 0.75599 0.58182 0.12987 0.0
C218 C 0.69469 0.57024 0.22747 0.0
C219 C 0.73802 0.62804 0.14406 0.0
O220 O 0.74319 0.61745 0.17399 0.0
O221 O 0.7237 0.62138 0.1026 0.0
O222 O 0.75401 0.58604 0.19627 0.0
O223 O 0.74426 0.58079 0.0804 0.0
O224 O 0.42483 0.11564 0.15968 0.0
Cd225 Cd 0.40909 0.11503 0.07103 0.0
Cd226 Cd 0.41166 0.14539 0.15467 0.0
O227 O 0.42832 0.13998 0.22371 0.0
O228 O 0.41032 0.09553 0.01039 0.0
O229 O 0.42077 0.12432 0.97053 0.0
C230 C 0.41839 0.10782 0.95937 0.0
C231 C 0.41987 0.17598 0.12374 0.0
C232 C 0.43128 0.1264 0.21514 0.0
C233 C 0.37339 0.1112 0.13089 0.0
O234 O 0.38326 0.12704 0.16139 0.0
O235 O 0.3808 0.10416 0.09002 0.0
O236 O 0.41411 0.16942 0.18892 0.0
O237 O 0.42189 0.16546 0.07622 0.0
O238 O 0.88968 0.31097 0.16621 0.0
Cd239 Cd 0.88827 0.29561 0.07507 0.0
Cd240 Cd 0.85848 0.26852 0.16017 0.0
O241 O 0.86451 0.29091 0.22832 0.0
O242 O 0.90683 0.31552 0.00882 0.0
O243 O 0.87677 0.2986 0.98137 0.0
C244 C 0.89328 0.312 0.96455 0.0
C245 C 0.82776 0.24622 0.13111 0.0
C246 C 0.87883 0.30704 0.22119 0.0
C247 C 0.8917 0.26328 0.13093 0.0
O248 O 0.87654 0.2581 0.16585 0.0
O249 O 0.89829 0.27727 0.08766 0.0
O250 O 0.83437 0.24739 0.19645 0.0
O251 O 0.83829 0.25835 0.08232 0.0
O252 O 0.42422 0.31127 0.16465 0.0
Cd253 Cd 0.40956 0.29676 0.0728 0.0
Cd254 Cd 0.41374 0.26873 0.14514 0.0
O255 O 0.43241 0.29138 0.2079 0.0
O256 O 0.41089 0.31661 0.00608 0.0
O257 O 0.42332 0.29907 0.97784 0.0
C258 C 0.42027 0.3125 0.96057 0.0
C259 C 0.42087 0.24533 0.11787 0.0
C260 C 0.4331 0.30709 0.21093 0.0
C261 C 0.37481 0.26396 0.12972 0.0
O262 O 0.38538 0.25873 0.15962 0.0
O263 O 0.38149 0.27819 0.08777 0.0
O264 O 0.41657 0.24767 0.18366 0.0
O265 O 0.42192 0.25678 0.06708 0.0
O266 O 0.69275 0.1156 0.17291 0.0
Cd267 Cd 0.70669 0.11386 0.08206 0.0
Cd268 Cd 0.73585 0.14663 0.15365 0.0
O269 O 0.71386 0.14266 0.22064 0.0
O270 O 0.68586 0.09446 0.02107 0.0
O271 O 0.7045 0.12326 0.98162 0.0
C272 C 0.69042 0.10677 0.96974 0.0
C273 C 0.75901 0.17727 0.12582 0.0
C274 C 0.69764 0.12826 0.22165 0.0
C275 C 0.73969 0.11179 0.13783 0.0
O276 O 0.74581 0.12813 0.16385 0.0
O277 O 0.72468 0.10378 0.10037 0.0
O278 O 0.75751 0.1703 0.19061 0.0
O279 O 0.74686 0.16711 0.07655 0.0
O280 O 0.88681 0.57808 0.1704 0.0
Cd281 Cd 0.88726 0.59303 0.07844 0.0
Cd282 Cd 0.8557 0.58944 0.15616 0.0
O283 O 0.85924 0.57038 0.21761 0.0
O284 O 0.907 0.59226 0.01735 0.0
O285 O 0.8779 0.58069 0.97904 0.0
C286 C 0.89464 0.58384 0.96673 0.0
C287 C 0.8254 0.58274 0.12705 0.0
C288 C 0.87412 0.56942 0.21831 0.0
C289 C 0.88984 0.62803 0.13784 0.0
O290 O 0.87463 0.6176 0.17178 0.0
O291 O 0.89651 0.62111 0.09266 0.0
O292 O 0.83191 0.58715 0.19302 0.0
O293 O 0.83584 0.5814 0.07717 0.0
O294 O 0.64549 0.09099 0.49523 0.0
Cd295 Cd 0.63052 0.07602 0.58642 0.0
Cd296 Cd 0.6033 0.08056 0.50842 0.0
O297 O 0.62645 0.10012 0.45103 0.0
O298 O 0.65059 0.07641 0.64924 0.0
O299 O 0.63333 0.08846 0.68546 0.0
C300 C 0.64671 0.08507 0.69898 0.0
C301 C 0.57949 0.08711 0.53491 0.0
C302 C 0.64198 0.10045 0.44926 0.0
C303 C 0.59811 0.04164 0.52375 0.0
O304 O 0.59397 0.05249 0.48919 0.0
O305 O 0.61125 0.0481 0.57097 0.0
O306 O 0.58248 0.08362 0.46873 0.0
O307 O 0.59044 0.08757 0.58673 0.0
O308 O 0.911 0.55492 0.49268 0.0
Cd309 Cd 0.92658 0.55615 0.58319 0.0
Cd310 Cd 0.92269 0.52365 0.51009 0.0
O311 O 0.90391 0.52737 0.44687 0.0
O312 O 0.92527 0.57537 0.6457 0.0
O313 O 0.91474 0.54633 0.68291 0.0
C314 C 0.91728 0.56282 0.69602 0.0
C315 C 0.91579 0.49321 0.53763 0.0
C316 C 0.90256 0.54204 0.44535 0.0
C317 C 0.96143 0.55827 0.52502 0.0
O318 O 0.95104 0.54224 0.49662 0.0
O319 O 0.95461 0.56598 0.56533 0.0
O320 O 0.92015 0.49986 0.47186 0.0
O321 O 0.91459 0.50357 0.58825 0.0
O322 O 0.44789 0.35764 0.48779 0.0
Cd323 Cd 0.44763 0.37199 0.57981 0.0
Cd324 Cd 0.47979 0.40001 0.50894 0.0
O325 O 0.47599 0.37758 0.44492 0.0
O326 O 0.42897 0.35208 0.64598 0.0
O327 O 0.4589 0.36955 0.67501 0.0
C328 C 0.44238 0.35614 0.69186 0.0
C329 C 0.50992 0.42321 0.54172 0.0
C330 C 0.46095 0.36189 0.44148 0.0
C331 C 0.44582 0.40493 0.52345 0.0
O332 O 0.46164 0.41021 0.49382 0.0
O333 O 0.43821 0.39061 0.56488 0.0
O334 O 0.50407 0.42131 0.47477 0.0
O335 O 0.49901 0.41135 0.59042 0.0
O336 O 0.5789 0.69171 0.82558 0.0
Cd337 Cd 0.59358 0.70579 0.918 0.0
Cd338 Cd 0.58989 0.73435 0.84648 0.0
O339 O 0.57195 0.71229 0.77957 0.0
O340 O 0.59192 0.68556 0.98357 0.0
O341 O 0.57996 0.70341 0.01353 0.0
C342 C 0.58275 0.68976 0.0298 0.0
C343 C 0.58242 0.75738 0.87672 0.0
C344 C 0.57078 0.69635 0.77744 0.0
C345 C 0.62865 0.73876 0.86322 0.0
O346 O 0.61831 0.74447 0.83499 0.0
O347 O 0.62172 0.7241 0.90287 0.0
O348 O 0.58757 0.75596 0.81119 0.0
O349 O 0.58064 0.74515 0.92528 0.0
O350 O 0.31061 0.88832 0.83842 0.0
Cd351 Cd 0.29557 0.88736 0.92999 0.0
Cd352 Cd 0.26778 0.85759 0.84463 0.0
O353 O 0.28995 0.86374 0.77496 0.0
O354 O 0.31579 0.90587 0.99534 0.0
O355 O 0.29849 0.87593 0.02406 0.0
C356 C 0.31209 0.89238 0.04021 0.0
C357 C 0.24527 0.82663 0.8696 0.0
C358 C 0.30631 0.87769 0.78256 0.0
C359 C 0.26334 0.89128 0.87626 0.0
O360 O 0.25766 0.87591 0.84229 0.0
O361 O 0.27766 0.8979 0.91775 0.0
O362 O 0.24635 0.83403 0.80598 0.0
O363 O 0.25756 0.83652 0.91895 0.0
O364 O 0.11427 0.42289 0.8325 0.0
Cd365 Cd 0.11419 0.40846 0.92507 0.0
Cd366 Cd 0.14637 0.41237 0.85176 0.0
O367 O 0.14195 0.43037 0.78661 0.0
O368 O 0.0956 0.40992 0.99115 0.0
O369 O 0.12553 0.42233 0.02001 0.0
C370 C 0.10904 0.41934 0.03679 0.0
C371 C 0.1771 0.42006 0.87844 0.0
C372 C 0.12703 0.43125 0.78457 0.0
C373 C 0.11229 0.37349 0.87013 0.0
O374 O 0.12811 0.38392 0.84022 0.0
O375 O 0.1047 0.38034 0.91098 0.0
O376 O 0.17026 0.41517 0.81317 0.0
O377 O 0.16677 0.42132 0.929 0.0
O378 O 0.35978 0.91259 0.49952 0.0
Cd379 Cd 0.3759 0.92597 0.40871 0.0
Cd380 Cd 0.40148 0.92292 0.50088 0.0
O381 O 0.37836 0.90579 0.56373 0.0
O382 O 0.35658 0.92571 0.3419 0.0
O383 O 0.3721 0.91105 0.3154 0.0
C384 C 0.35936 0.91509 0.29809 0.0
C385 C 0.42431 0.9153 0.47164 0.0
C386 C 0.36267 0.90488 0.55463 0.0
C387 C 0.4077 0.96139 0.46932 0.0
O388 O 0.41129 0.95118 0.51076 0.0
O389 O 0.39527 0.95416 0.41933 0.0
O390 O 0.42246 0.9198 0.53785 0.0
O391 O 0.41253 0.91412 0.42203 0.0
O392 O 0.09038 0.44639 0.50806 0.0
Cd393 Cd 0.0766 0.44755 0.41502 0.0
Cd394 Cd 0.08155 0.47882 0.49101 0.0
O395 O 0.10076 0.475 0.54992 0.0
O396 O 0.0771 0.42859 0.34811 0.0
O397 O 0.09114 0.45874 0.32117 0.0
C398 C 0.08727 0.44202 0.3035 0.0
C399 C 0.08812 0.50881 0.45789 0.0
C400 C 0.10021 0.45937 0.55341 0.0
C401 C 0.04246 0.446 0.47593 0.0
O402 O 0.05354 0.46057 0.5121 0.0
O403 O 0.04869 0.43949 0.427 0.0
O404 O 0.085 0.50326 0.52541 0.0
O405 O 0.08843 0.49765 0.40867 0.0
O406 O 0.55572 0.64434 0.50145 0.0
Cd407 Cd 0.55443 0.62923 0.40872 0.0
Cd408 Cd 0.52317 0.60279 0.48716 0.0
O409 O 0.52724 0.62608 0.54463 0.0
O410 O 0.57344 0.64864 0.34165 0.0
O411 O 0.5433 0.6326 0.31464 0.0
C412 C 0.56003 0.6454 0.29694 0.0
C413 C 0.49276 0.57921 0.45989 0.0
C414 C 0.54282 0.64123 0.54721 0.0
C415 C 0.55622 0.59676 0.47017 0.0
O416 O 0.54167 0.59321 0.50672 0.0
O417 O 0.56256 0.60944 0.42096 0.0
O418 O 0.49913 0.58209 0.52626 0.0
O419 O 0.50338 0.59022 0.40843 0.0
O420 O 0.09221 0.6435 0.4992 0.0
Cd421 Cd 0.0764 0.62965 0.40846 0.0
Cd422 Cd 0.07928 0.60018 0.47982 0.0
O423 O 0.09772 0.62206 0.54642 0.0
O424 O 0.07828 0.65058 0.34694 0.0
O425 O 0.08799 0.6315 0.30831 0.0
C426 C 0.08589 0.64575 0.29596 0.0
C427 C 0.08637 0.57679 0.45136 0.0
C428 C 0.09987 0.6384 0.54763 0.0
C429 C 0.04096 0.5971 0.46399 0.0
O430 O 0.05092 0.59071 0.49049 0.0
O431 O 0.04825 0.61208 0.42633 0.0
O432 O 0.08109 0.57838 0.5164 0.0
O433 O 0.08827 0.5889 0.40199 0.0
O434 O 0.35946 0.44816 0.49991 0.0
Cd435 Cd 0.37492 0.44944 0.40942 0.0
Cd436 Cd 0.40192 0.47923 0.49443 0.0
O437 O 0.37955 0.47311 0.56307 0.0
O438 O 0.35507 0.4307 0.34364 0.0
O439 O 0.37195 0.4607 0.31505 0.0
C440 C 0.3586 0.44412 0.29869 0.0
C441 C 0.42416 0.50995 0.46488 0.0
C442 C 0.36337 0.4589 0.55524 0.0
C443 C 0.40719 0.446 0.4656 0.0
O444 O 0.41249 0.4613 0.49959 0.0
O445 O 0.39308 0.43928 0.42297 0.0
O446 O 0.42324 0.50328 0.52996 0.0
O447 O 0.41174 0.4995 0.41686 0.0
O448 O 0.55652 0.91327 0.50258 0.0
Cd449 Cd 0.55513 0.9266 0.40841 0.0
Cd450 Cd 0.52441 0.92317 0.48911 0.0
O451 O 0.52874 0.90459 0.55021 0.0
O452 O 0.57388 0.92551 0.3421 0.0
O453 O 0.54373 0.91166 0.31547 0.0
C454 C 0.56038 0.91531 0.29785 0.0
C455 C 0.49382 0.91619 0.46408 0.0
C456 C 0.54402 0.90437 0.55095 0.0
C457 C 0.55779 0.9618 0.46399 0.0
O458 O 0.54329 0.95143 0.50198 0.0
O459 O 0.5638 0.95471 0.41664 0.0
O460 O 0.50089 0.92093 0.52914 0.0
O461 O 0.50385 0.91464 0.41293 0.0
O462 O 0.31092 0.42367 0.83861 0.0
Cd463 Cd 0.29545 0.40943 0.92908 0.0
Cd464 Cd 0.26841 0.41193 0.84321 0.0
O465 O 0.29076 0.42828 0.77473 0.0
O466 O 0.31536 0.41069 0.99496 0.0
O467 O 0.29834 0.42367 0.02335 0.0
C468 C 0.31176 0.42055 0.0398 0.0
C469 C 0.24609 0.42028 0.87302 0.0
C470 C 0.307 0.43041 0.783 0.0
C471 C 0.26341 0.37357 0.87283 0.0
O472 O 0.2581 0.38347 0.83815 0.0
O473 O 0.27742 0.38106 0.91593 0.0
O474 O 0.24695 0.41447 0.80801 0.0
O475 O 0.25862 0.4224 0.92077 0.0
O476 O 0.58053 0.88936 0.82805 0.0
Cd477 Cd 0.59462 0.88887 0.92063 0.0
Cd478 Cd 0.59033 0.8569 0.84707 0.0
O479 O 0.57231 0.8615 0.78242 0.0
O480 O 0.59319 0.90729 0.98768 0.0
O481 O 0.58037 0.8772 0.01457 0.0
C482 C 0.58348 0.89367 0.03227 0.0
C483 C 0.58254 0.8263 0.87652 0.0
C484 C 0.57184 0.87665 0.78034 0.0
C485 C 0.6294 0.89052 0.86554 0.0
O486 O 0.61882 0.87487 0.83473 0.0
O487 O 0.62268 0.89809 0.90725 0.0
O488 O 0.58712 0.8327 0.81048 0.0
O489 O 0.58154 0.83699 0.92618 0.0
O490 O 0.11586 0.69054 0.82099 0.0
Cd491 Cd 0.11582 0.70544 0.91231 0.0
Cd492 Cd 0.14743 0.73255 0.83475 0.0
O493 O 0.14406 0.70953 0.7769 0.0
O494 O 0.09603 0.68534 0.97461 0.0
O495 O 0.1253 0.70253 0.01153 0.0
C496 C 0.1085 0.68918 0.02468 0.0
C497 C 0.17748 0.75644 0.86486 0.0
C498 C 0.12882 0.69403 0.77498 0.0
C499 C 0.11375 0.73774 0.84952 0.0
O500 O 0.12867 0.74181 0.81471 0.0
O501 O 0.10713 0.72468 0.89709 0.0
O502 O 0.17149 0.75371 0.79793 0.0
O503 O 0.16672 0.74509 0.9152 0.0
C504 C 0.25121 0.99536 0.53855 0.0
C505 C 0.23425 0.99108 0.57446 0.0
C506 C 0.22698 0.00615 0.47313 0.0
C507 C 0.24504 0.01251 0.44272 0.0
N508 N 0.27606 0.01692 0.45853 0.0
N509 N 0.20796 0.99625 0.58348 0.0
C510 C 0.25767 0.0082 0.4789 0.0
C511 C 0.22264 0.99753 0.54393 0.0
N512 N 0.26082 0.98659 0.55909 0.0
N513 N 0.21364 0.00751 0.43344 0.0
H514 H 0.20468 0.99075 0.63667 0.0
H515 H 0.20027 0.00246 0.56653 0.0
H516 H 0.2159 0.013 0.38025 0.0
H517 H 0.19974 0.00136 0.45032 0.0
H518 H 0.27232 0.98797 0.52988 0.0
H519 H 0.25609 0.97629 0.59978 0.0
H520 H 0.28614 0.01551 0.48791 0.0
H521 H 0.28167 0.0272 0.4178 0.0
C522 C 0.00688 0.22708 0.53045 0.0
C523 C 0.0135 0.24527 0.56006 0.0
C524 C 0.9963 0.25138 0.4643 0.0
C525 C 0.99181 0.2343 0.42897 0.0
N526 N 0.99673 0.20783 0.42079 0.0
N527 N 0.01825 0.27638 0.54281 0.0
C528 C 0.99817 0.22264 0.45984 0.0
C529 C 0.0093 0.25791 0.52342 0.0
N530 N 0.00805 0.21372 0.57073 0.0
N531 N 0.9876 0.26106 0.44377 0.0
H532 H 0.02866 0.28202 0.58301 0.0
H533 H 0.01688 0.28643 0.51305 0.0
H534 H 0.97716 0.25627 0.40363 0.0
H535 H 0.98917 0.27268 0.47259 0.0
H536 H 1.00173 0.19977 0.55436 0.0
H537 H 0.01355 0.21603 0.62392 0.0
H538 H 0.00285 0.20009 0.43806 0.0
H539 H 0.9912 0.20449 0.36766 0.0
C540 C 0.76576 0.77329 0.42982 0.0
C541 C 0.77427 0.76211 0.438 0.0
C542 C 0.77358 0.765 0.57224 0.0
C543 C 0.76241 0.77354 0.56397 0.0
N544 N 0.74591 0.78388 0.48447 0.0
N545 N 0.78431 0.74532 0.51733 0.0
C546 C 0.75809 0.77733 0.49264 0.0
C547 C 0.77782 0.75754 0.50932 0.0
N548 N 0.76546 0.7805 0.36226 0.0
N549 N 0.78058 0.7645 0.64001 0.0
H550 H 0.78741 0.73934 0.4728 0.0
H551 H 0.7851 0.73984 0.56811 0.0
H552 H 0.7782 0.77028 0.68708 0.0
H553 H 0.7903 0.76013 0.64809 0.0
H554 H 0.76111 0.79023 0.35433 0.0
H555 H 0.77139 0.77827 0.3153 0.0
H556 H 0.74061 0.78485 0.43356 0.0
H557 H 0.73982 0.78685 0.52893 0.0
C558 C 0.75686 0.98152 0.49871 0.0
C559 C 0.76176 0.99042 0.56862 0.0
C560 C 0.77663 0.02117 0.50832 0.0
C561 C 0.7726 0.01227 0.43841 0.0
N562 N 0.76323 0.98423 0.36745 0.0
N563 N 0.78042 0.01848 0.63949 0.0
C564 C 0.76403 0.9925 0.43374 0.0
C565 C 0.77292 0.0102 0.57326 0.0
N566 N 0.7446 0.96274 0.49392 0.0
N567 N 0.7831 0.03994 0.51317 0.0
H568 H 0.77842 0.01087 0.68792 0.0
H569 H 0.79016 0.03265 0.64494 0.0
H570 H 0.78576 0.04849 0.46716 0.0
H571 H 0.78425 0.04676 0.5629 0.0
H572 H 0.7389 0.95591 0.44423 0.0
H573 H 0.73879 0.95418 0.53996 0.0
H574 H 0.75884 0.97007 0.36196 0.0
H575 H 0.76877 0.99184 0.31898 0.0
C576 C 0.02267 0.77671 0.48505 0.0
C577 C 0.01414 0.77291 0.55567 0.0
C578 C 0.98305 0.75756 0.49803 0.0
C579 C 0.9916 0.76201 0.42739 0.0
N580 N 0.01932 0.77977 0.35372 0.0
N581 N 0.98662 0.76396 0.62935 0.0
C582 C 0.01137 0.77282 0.42096 0.0
C583 C 0.99443 0.76463 0.56211 0.0
N584 N 0.04141 0.78312 0.47885 0.0
N585 N 0.9642 0.74577 0.50426 0.0
H586 H 0.99454 0.7693 0.67726 0.0
H587 H 0.97256 0.75983 0.63643 0.0
H588 H 0.95536 0.74019 0.45886 0.0
H589 H 0.95752 0.7403 0.55438 0.0
H590 H 0.048 0.78406 0.42875 0.0
H591 H 0.0502 0.78608 0.52428 0.0
H592 H 0.03349 0.78929 0.34665 0.0
H593 H 0.01146 0.7775 0.30582 0.0
C594 C 0.22843 0.22277 0.47189 0.0
C595 C 0.24661 0.23444 0.44237 0.0
C596 C 0.25256 0.25765 0.53835 0.0
C597 C 0.23549 0.24496 0.5736 0.0
N598 N 0.20915 0.2135 0.58149 0.0
N599 N 0.27763 0.26092 0.4598 0.0
C600 C 0.22393 0.22695 0.54255 0.0
C601 C 0.25917 0.2513 0.47915 0.0
N602 N 0.21514 0.20823 0.43148 0.0
N603 N 0.26213 0.27602 0.55906 0.0
H604 H 0.28335 0.25624 0.41952 0.0
H605 H 0.28764 0.27236 0.48964 0.0
H606 H 0.25727 0.28158 0.59928 0.0
H607 H 0.27373 0.28614 0.53032 0.0
H608 H 0.20119 0.20052 0.44779 0.0
H609 H 0.21749 0.2051 0.37824 0.0
H610 H 0.20148 0.19964 0.56408 0.0
H611 H 0.20577 0.21562 0.63465 0.0
C612 C 0.89725 0.32765 0.76417 0.0
C613 C 0.90804 0.34736 0.77305 0.0
C614 C 0.90489 0.34346 0.90717 0.0
C615 C 0.89676 0.32382 0.89827 0.0
N616 N 0.88692 0.29719 0.81812 0.0
N617 N 0.92395 0.37414 0.85319 0.0
C618 C 0.89321 0.31585 0.82671 0.0
C619 C 0.91221 0.35535 0.84462 0.0
N620 N 0.89043 0.32024 0.69611 0.0
N621 N 0.90517 0.35072 0.97526 0.0
H622 H 0.92971 0.38335 0.8089 0.0
H623 H 0.92922 0.38041 0.90413 0.0
H624 H 0.89955 0.34241 0.02209 0.0
H625 H 0.90922 0.36471 0.98395 0.0
H626 H 0.88096 0.30611 0.68744 0.0
H627 H 0.89274 0.32847 0.64931 0.0
H628 H 0.88617 0.29103 0.76716 0.0
H629 H 0.88389 0.28806 0.86241 0.0
C630 C 0.64693 0.55962 0.84787 0.0
C631 C 0.65573 0.56387 0.7777 0.0
C632 C 0.68657 0.58015 0.83729 0.0
C633 C 0.67779 0.57507 0.90741 0.0
N634 N 0.64997 0.55599 0.97894 0.0
N635 N 0.68377 0.57397 0.70585 0.0
C636 C 0.65806 0.56358 0.91252 0.0
C637 C 0.67552 0.57286 0.77251 0.0
N638 N 0.62809 0.5527 0.85321 0.0
N639 N 0.70528 0.59267 0.83219 0.0
H640 H 0.67612 0.56839 0.65749 0.0
H641 H 0.69798 0.57867 0.69984 0.0
H642 H 0.71387 0.59852 0.87811 0.0
H643 H 0.712 0.5985 0.78246 0.0
H644 H 0.62128 0.55137 0.90313 0.0
H645 H 0.61942 0.54981 0.80743 0.0
H646 H 0.63588 0.54601 0.98474 0.0
H647 H 0.65769 0.5582 0.02719 0.0
C648 C 0.42024 0.0787 0.80122 0.0
C649 C 0.43735 0.09137 0.76626 0.0
C650 C 0.44304 0.11457 0.86227 0.0
C651 C 0.42474 0.10284 0.89059 0.0
N652 N 0.39422 0.07559 0.87303 0.0
N653 N 0.46291 0.1232 0.75461 0.0
C654 C 0.41282 0.08543 0.85598 0.0
C655 C 0.44821 0.10985 0.79419 0.0
N656 N 0.41136 0.06008 0.78455 0.0
N657 N 0.45584 0.12972 0.90151 0.0
H658 H 0.46672 0.12072 0.70288 0.0
H659 H 0.47003 0.13727 0.76961 0.0
H660 H 0.45306 0.13327 0.95322 0.0
H661 H 0.46986 0.13755 0.88622 0.0
H662 H 0.39971 0.05011 0.8135 0.0
H663 H 0.41688 0.05431 0.74812 0.0
H664 H 0.3847 0.06364 0.84432 0.0
H665 H 0.38792 0.08053 0.90955 0.0
C666 C 0.43011 0.32538 0.75668 0.0
C667 C 0.43872 0.34516 0.76093 0.0
C668 C 0.43895 0.34324 0.89584 0.0
C669 C 0.42773 0.32347 0.89155 0.0
N670 N 0.4105 0.29571 0.81724 0.0
N671 N 0.4492 0.37292 0.83514 0.0
C672 C 0.42284 0.31448 0.8218 0.0
C673 C 0.44272 0.35414 0.83067 0.0
N674 N 0.42935 0.31702 0.69068 0.0
N675 N 0.44647 0.35159 0.96195 0.0
H676 H 0.45188 0.38142 0.78897 0.0
H677 H 0.45033 0.37979 0.88472 0.0
H678 H 0.44445 0.34404 0.01055 0.0
H679 H 0.45625 0.36575 0.96714 0.0
H680 H 0.42492 0.30284 0.68558 0.0
H681 H 0.43497 0.32456 0.64214 0.0
H682 H 0.40483 0.28885 0.76759 0.0
H683 H 0.40459 0.28723 0.86337 0.0
C684 C 0.67472 0.08452 0.86446 0.0
C685 C 0.6797 0.10179 0.89923 0.0
C686 C 0.66461 0.10913 0.79816 0.0
C687 C 0.65743 0.09077 0.76951 0.0
N688 N 0.65192 0.05943 0.78867 0.0
N689 N 0.67538 0.12865 0.90698 0.0
C690 C 0.6614 0.07799 0.8065 0.0
C691 C 0.67354 0.11362 0.86834 0.0
N692 N 0.68325 0.07463 0.88435 0.0
N693 N 0.66375 0.12259 0.75739 0.0
H694 H 0.68099 0.132 0.95996 0.0
H695 H 0.66944 0.13655 0.88961 0.0
H696 H 0.65819 0.12027 0.70431 0.0
H697 H 0.67044 0.13661 0.77313 0.0
H698 H 0.68125 0.06281 0.85582 0.0
H699 H 0.69395 0.07942 0.92332 0.0
H700 H 0.65319 0.04936 0.8188 0.0
H701 H 0.6412 0.05378 0.74973 0.0
C702 C 0.89327 0.55575 0.79643 0.0
C703 C 0.91141 0.56753 0.76677 0.0
C704 C 0.91685 0.59104 0.86074 0.0
C705 C 0.89988 0.57828 0.89642 0.0
N706 N 0.87404 0.54657 0.90617 0.0
N707 N 0.94224 0.59435 0.78414 0.0
C708 C 0.88863 0.56006 0.86658 0.0
C709 C 0.92373 0.5846 0.80284 0.0
N710 N 0.88011 0.54096 0.75662 0.0
N711 N 0.92607 0.60954 0.87965 0.0
H712 H 0.94817 0.58959 0.74516 0.0
H713 H 0.95205 0.60599 0.81359 0.0
H714 H 0.92094 0.61517 0.91848 0.0
H715 H 0.93759 0.61962 0.85046 0.0
H716 H 0.86619 0.53313 0.77309 0.0
H717 H 0.88252 0.53774 0.70364 0.0
H718 H 0.86663 0.53262 0.88957 0.0
H719 H 0.87064 0.54877 0.95915 0.0
C720 C 0.55944 0.64783 0.15829 0.0
C721 C 0.56395 0.65665 0.22841 0.0
C722 C 0.5806 0.68744 0.16861 0.0
C723 C 0.57524 0.67867 0.09856 0.0
N724 N 0.55565 0.65093 0.0274 0.0
N725 N 0.57465 0.68479 0.3002 0.0
C726 C 0.56346 0.65897 0.09363 0.0
C727 C 0.57327 0.67646 0.23351 0.0
N728 N 0.5522 0.62894 0.15297 0.0
N729 N 0.59342 0.70608 0.17351 0.0
H730 H 0.56906 0.67721 0.34867 0.0
H731 H 0.57961 0.69906 0.30617 0.0
H732 H 0.59932 0.71462 0.1275 0.0
H733 H 0.59942 0.71274 0.22313 0.0
H734 H 0.55065 0.62208 0.10302 0.0
H735 H 0.54925 0.62027 0.19876 0.0
H736 H 0.54548 0.6369 0.0218 0.0
H737 H 0.55789 0.65867 0.97917 0.0
C738 C 0.32768 0.8966 0.24075 0.0
C739 C 0.34741 0.90713 0.23185 0.0
C740 C 0.3435 0.90373 0.09779 0.0
C741 C 0.32389 0.89586 0.10659 0.0
N742 N 0.29731 0.88661 0.18657 0.0
N743 N 0.37424 0.92256 0.15166 0.0
C744 C 0.31592 0.8926 0.17812 0.0
C745 C 0.3554 0.91106 0.1603 0.0
N746 N 0.3202 0.88999 0.30893 0.0
N747 N 0.35071 0.90375 0.02986 0.0
H748 H 0.38345 0.9283 0.19592 0.0
H749 H 0.38055 0.92765 0.10064 0.0
H750 H 0.34237 0.89812 0.98309 0.0
H751 H 0.36465 0.90759 0.02131 0.0
H752 H 0.30604 0.88069 0.31766 0.0
H753 H 0.3284 0.89227 0.35583 0.0
H754 H 0.2912 0.88609 0.23742 0.0
H755 H 0.28821 0.88363 0.14222 0.0
C756 C 0.09028 0.44256 0.1649 0.0
C757 C 0.09466 0.43816 0.23507 0.0
C758 C 0.10902 0.42168 0.17553 0.0
C759 C 0.10548 0.4269 0.10542 0.0
N760 N 0.09705 0.44622 0.0339 0.0
N761 N 0.11229 0.42771 0.30707 0.0
C762 C 0.09741 0.43855 0.10029 0.0
C763 C 0.10529 0.42898 0.24033 0.0
N764 N 0.07852 0.44968 0.1595 0.0
N765 N 0.11504 0.40901 0.18059 0.0
H766 H 0.11023 0.43327 0.35547 0.0
H767 H 0.12169 0.42286 0.31317 0.0
H768 H 0.11776 0.40316 0.13465 0.0
H769 H 0.11579 0.40309 0.23027 0.0
H770 H 0.07315 0.45115 0.10955 0.0
H771 H 0.0728 0.45264 0.20525 0.0
H772 H 0.09308 0.4563 0.0281 0.0
H773 H 0.10254 0.44396 0.98569 0.0
C774 C 0.07962 0.66145 0.18996 0.0
C775 C 0.09177 0.65634 0.22523 0.0
C776 C 0.11434 0.6712 0.12445 0.0
C777 C 0.10332 0.67851 0.09529 0.0
N778 N 0.07765 0.68432 0.11345 0.0
N779 N 0.12278 0.66028 0.23373 0.0
C780 C 0.08658 0.67472 0.13184 0.0
C781 C 0.10974 0.66229 0.1947 0.0
N782 N 0.0612 0.6531 0.2096 0.0
N783 N 0.12866 0.67191 0.08412 0.0
H784 H 0.1204 0.65465 0.28671 0.0
H785 H 0.13664 0.66608 0.21665 0.0
H786 H 0.13202 0.67749 0.03107 0.0
H787 H 0.13587 0.66513 0.1002 0.0
H788 H 0.05147 0.65518 0.18072 0.0
H789 H 0.05518 0.64245 0.24876 0.0
H790 H 0.06634 0.68319 0.14326 0.0
H791 H 0.08285 0.69501 0.07435 0.0
C792 C 0.35494 0.44414 0.16075 0.0
C793 C 0.34684 0.44043 0.23211 0.0
C794 C 0.31541 0.4243 0.17772 0.0
C795 C 0.3235 0.42869 0.10636 0.0
N796 N 0.35063 0.44697 0.03017 0.0
N797 N 0.31968 0.43148 0.30826 0.0
C798 C 0.34319 0.43992 0.09796 0.0
C799 C 0.32714 0.43189 0.24049 0.0
N800 N 0.37367 0.45076 0.15256 0.0
N801 N 0.29669 0.41212 0.18594 0.0
H802 H 0.32787 0.43733 0.3552 0.0
H803 H 0.30559 0.4271 0.31644 0.0
H804 H 0.2876 0.40609 0.14151 0.0
H805 H 0.29043 0.40675 0.23683 0.0
H806 H 0.37994 0.45166 0.10169 0.0
H807 H 0.38277 0.45388 0.19701 0.0
H808 H 0.3647 0.45672 0.02196 0.0
H809 H 0.34243 0.44457 0.9832 0.0
C810 C 0.57315 0.89699 0.23534 0.0
C811 C 0.56414 0.90776 0.22967 0.0
C812 C 0.56411 0.90521 0.09491 0.0
C813 C 0.57566 0.89703 0.10055 0.0
N814 N 0.59306 0.88703 0.17643 0.0
N815 N 0.55295 0.92413 0.15363 0.0
C816 C 0.58057 0.89326 0.17086 0.0
C817 C 0.55996 0.91228 0.15933 0.0
N818 N 0.57419 0.88989 0.30219 0.0
N819 N 0.55669 0.90575 0.02815 0.0
H820 H 0.54988 0.9298 0.19924 0.0
H821 H 0.55168 0.92961 0.10363 0.0
H822 H 0.55908 0.90033 0.98003 0.0
H823 H 0.54669 0.90981 0.02185 0.0
H824 H 0.57891 0.8804 0.30859 0.0
H825 H 0.56855 0.89197 0.35033 0.0
H826 H 0.59878 0.8861 0.22634 0.0
H827 H 0.59895 0.88427 0.13072 0.0
C828 C 0.21653 0.00654 0.93366 0.0
C829 C 0.20907 0.9875 0.95334 0.0
C830 C 0.21155 0.99644 0.0834 0.0
C831 C 0.22322 0.01546 0.06364 0.0
N832 N 0.23851 0.03844 0.96653 0.0
N833 N 0.20128 0.96447 0.05032 0.0
C834 C 0.22593 0.02061 0.98784 0.0
C835 C 0.20669 0.98235 0.02914 0.0
N836 N 0.21472 0.01118 0.86302 0.0
N837 N 0.20519 0.99184 0.15415 0.0
H838 H 0.19828 0.95365 0.01363 0.0
H839 H 0.20145 0.96076 0.10514 0.0
H840 H 0.20813 0.00194 0.19463 0.0
H841 H 0.19536 0.97829 0.17008 0.0
H842 H 0.21854 0.02477 0.84719 0.0
H843 H 0.20744 1.0011 0.82262 0.0
H844 H 0.24233 0.04213 0.91164 0.0
H845 H 0.24651 0.04922 0.00314 0.0
C846 C 0.00676 0.21655 0.06809 0.0
C847 C 0.98775 0.20947 0.04866 0.0
C848 C 0.99663 0.21239 0.91839 0.0
C849 C 0.01571 0.22362 0.93828 0.0
N850 N 0.03876 0.23826 0.03561 0.0
N851 N 0.96481 0.20263 0.95223 0.0
C852 C 0.02085 0.22598 0.01407 0.0
C853 C 0.98261 0.20756 0.97293 0.0
N854 N 0.01133 0.21433 0.13832 0.0
N855 N 0.99191 0.20636 0.84731 0.0
H856 H 0.95407 0.19972 0.98928 0.0
H857 H 0.96113 0.20315 0.89765 0.0
H858 H 0.00193 0.20923 0.80657 0.0
H859 H 0.97827 0.19684 0.83121 0.0
H860 H 0.02486 0.21786 0.1538 0.0
H861 H 1.00122 0.20702 0.1786 0.0
H862 H 0.04249 0.24182 0.09065 0.0
H863 H 0.04956 0.24634 0.99918 0.0
C864 C 0.76127 0.76846 0.97821 0.0
C865 C 0.77289 0.7864 0.94719 0.0
C866 C 0.79853 0.79085 0.02874 0.0
C867 C 0.78741 0.77213 0.05352 0.0
N868 N 0.75999 0.74169 0.0373 0.0
N869 N 0.8033 0.81392 0.93522 0.0
C870 C 0.7693 0.76052 0.02397 0.0
C871 C 0.79175 0.79746 0.97039 0.0
N872 N 0.74238 0.75926 0.96632 0.0
N873 N 0.81521 0.80242 0.0624 0.0
H874 H 0.79873 0.81916 0.89271 0.0
H875 H 0.81766 0.82164 0.94438 0.0
H876 H 0.82058 0.79795 0.10479 0.0
H877 H 0.82302 0.81673 0.05209 0.0
H878 H 0.7331 0.747 0.99388 0.0
H879 H 0.73572 0.76487 0.93532 0.0
H880 H 0.74756 0.73237 0.01082 0.0
H881 H 0.76564 0.73508 0.0684 0.0
C882 C 0.77418 0.98212 0.0235 0.0
C883 C 0.77731 0.98749 0.948 0.0
C884 C 0.79341 0.02049 0.98407 0.0
C885 C 0.79103 0.01512 0.05959 0.0
N886 N 0.78467 0.99108 0.14932 0.0
N887 N 0.79517 0.01152 0.85851 0.0
C888 C 0.78328 0.996 0.07861 0.0
C889 C 0.78874 0.00662 0.92906 0.0
N890 N 0.76152 0.96419 0.04339 0.0
N891 N 0.79872 0.03842 0.96403 0.0
H892 H 0.79244 0.00164 0.81736 0.0
H893 H 0.80486 0.02518 0.84324 0.0
H894 H 0.80145 0.04902 0.00157 0.0
H895 H 0.79862 0.04236 0.90948 0.0
H896 H 0.75737 0.96026 0.09786 0.0
H897 H 0.75372 0.95359 0.00575 0.0
H898 H 0.78066 0.97742 0.16469 0.0
H899 H 0.79175 1.00097 0.19055 0.0
C900 C 0.02214 0.79004 0.01128 0.0
C901 C 0.01685 0.788 0.93571 0.0
C902 C 0.98383 0.77143 0.9715 0.0
C903 C 0.98913 0.77454 0.04707 0.0
N904 N 0.01327 0.79181 0.13698 0.0
N905 N 0.99292 0.7819 0.84578 0.0
C906 C 0.00829 0.78552 0.0663 0.0
C907 C 0.99776 0.78039 0.91647 0.0
N908 N 0.03999 0.79501 0.03121 0.0
N909 N 0.96584 0.75895 0.95154 0.0
H910 H 0.00282 0.78895 0.80459 0.0
H911 H 0.9793 0.77804 0.83035 0.0
H912 H 0.95522 0.75122 0.98924 0.0
H913 H 0.96188 0.75484 0.89708 0.0
H914 H 0.04387 0.79471 0.08568 0.0
H915 H 0.05052 0.79758 0.9935 0.0
H916 H 0.027 0.80123 0.15239 0.0
H917 H 0.00346 0.78929 0.17817 0.0
C918 C 0.21355 0.21813 0.08432 0.0
C919 C 0.22486 0.21035 0.06464 0.0
C920 C 0.21774 0.21206 0.93474 0.0
C921 C 0.21056 0.22391 0.95392 0.0
N922 N 0.20356 0.23998 0.04998 0.0
N923 N 0.23953 0.20189 0.96762 0.0
C924 C 0.20862 0.22719 0.02957 0.0
C925 C 0.22721 0.20749 0.98892 0.0
N926 N 0.20756 0.21688 0.15543 0.0
N927 N 0.21557 0.20525 0.86457 0.0
H928 H 0.2476 0.19919 0.0042 0.0
H929 H 0.2431 0.20167 0.91263 0.0
H930 H 0.20824 0.20798 0.82418 0.0
H931 H 0.21917 0.19529 0.84924 0.0
H932 H 0.19798 0.22093 0.17143 0.0
H933 H 0.21052 0.20984 0.19634 0.0
H934 H 0.20407 0.24423 0.10447 0.0
H935 H 0.20055 0.2477 0.01276 0.0
C936 C 0.88009 0.3415 0.36502 0.0
C937 C 0.89884 0.34925 0.3897 0.0
C938 C 0.90274 0.32704 0.31359 0.0
C939 C 0.88483 0.32072 0.28227 0.0
N940 N 0.85721 0.32346 0.27066 0.0
N941 N 0.9294 0.35253 0.37323 0.0
C942 C 0.87363 0.32832 0.30601 0.0
C943 C 0.91057 0.34291 0.35994 0.0
N944 N 0.86832 0.34624 0.39941 0.0
N945 N 0.91205 0.31748 0.30126 0.0
H946 H 0.93597 0.3648 0.40428 0.0
H947 H 0.93878 0.34951 0.34667 0.0
H948 H 0.90653 0.30531 0.2697 0.0
H949 H 0.9243 0.32045 0.32894 0.0
H950 H 0.85401 0.3396 0.38902 0.0
H951 H 0.8726 0.35582 0.44273 0.0
H952 H 0.84943 0.33002 0.28025 0.0
H953 H 0.85208 0.31383 0.2275 0.0
C954 C 0.66198 0.54834 0.2684 0.0
C955 C 0.68107 0.55994 0.28723 0.0
C956 C 0.67257 0.55453 0.41802 0.0
C957 C 0.65341 0.54645 0.39875 0.0
N958 N 0.63011 0.53824 0.30277 0.0
N959 N 0.70433 0.57631 0.38213 0.0
C960 C 0.64808 0.54376 0.32318 0.0
C961 C 0.68642 0.56347 0.36267 0.0
N962 N 0.65713 0.54164 0.19815 0.0
N963 N 0.67752 0.55355 0.48908 0.0
H964 H 0.71492 0.58391 0.34417 0.0
H965 H 0.70825 0.58077 0.43632 0.0
H966 H 0.66768 0.54657 0.53054 0.0
H967 H 0.69122 0.5578 0.50474 0.0
H968 H 0.6435 0.5318 0.18308 0.0
H969 H 0.66704 0.54433 0.15717 0.0
H970 H 0.62617 0.53808 0.24805 0.0
H971 H 0.61951 0.53568 0.34005 0.0
C972 C 0.42772 0.10254 0.30678 0.0
C973 C 0.43912 0.12056 0.27613 0.0
C974 C 0.46483 0.12537 0.35806 0.0
C975 C 0.45399 0.10655 0.38211 0.0
N976 N 0.42692 0.07588 0.36478 0.0
N977 N 0.46919 0.14856 0.26568 0.0
C978 C 0.43594 0.09475 0.3523 0.0
C979 C 0.45789 0.13191 0.29998 0.0
N980 N 0.40885 0.09306 0.29444 0.0
N981 N 0.4814 0.13709 0.3921 0.0
H982 H 0.46444 0.15377 0.22364 0.0
H983 H 0.48351 0.15655 0.27519 0.0
H984 H 0.48686 0.13268 0.43439 0.0
H985 H 0.48902 0.15142 0.38228 0.0
H986 H 0.39968 0.0807 0.32174 0.0
H987 H 0.40206 0.09851 0.26329 0.0
H988 H 0.41456 0.06648 0.33807 0.0
H989 H 0.43274 0.06934 0.39524 0.0
C990 C 0.45523 0.33984 0.2512 0.0
C991 C 0.44377 0.32073 0.27018 0.0
C992 C 0.45016 0.32918 0.40069 0.0
C993 C 0.45791 0.34831 0.38189 0.0
N994 N 0.4656 0.3717 0.2867 0.0
N995 N 0.42818 0.29742 0.36576 0.0
C996 C 0.46016 0.35372 0.30643 0.0
C997 C 0.44085 0.31534 0.34568 0.0
N998 N 0.46146 0.34473 0.18041 0.0
N999 N 0.45169 0.32424 0.47117 0.0
H1000 H 0.42022 0.28684 0.32826 0.0
H1001 H 0.4242 0.29348 0.42034 0.0
H1002 H 0.4589 0.33411 0.5123 0.0
H1003 H 0.44768 0.31057 0.48636 0.0
H1004 H 0.47117 0.35837 0.16499 0.0
H1005 H 0.45853 0.33484 0.13908 0.0
H1006 H 0.46537 0.37568 0.23231 0.0
H1007 H 0.4686 0.38234 0.32443 0.0
C1008 C 0.68918 0.12658 0.35693 0.0
C1009 C 0.68412 0.1254 0.2813 0.0
C1010 C 0.65102 0.10933 0.31557 0.0
C1011 C 0.65608 0.11121 0.39141 0.0
N1012 N 0.68003 0.12727 0.48324 0.0
N1013 N 0.66078 0.12156 0.19221 0.0
C1014 C 0.67521 0.12177 0.4117 0.0
C1015 C 0.6652 0.1188 0.26194 0.0
N1016 N 0.70683 0.13087 0.37706 0.0
N1017 N 0.63305 0.09743 0.29354 0.0
H1018 H 0.67094 0.12893 0.15221 0.0
H1019 H 0.64734 0.11842 0.17704 0.0
H1020 H 0.6222 0.08921 0.3296 0.0
H1021 H 0.62931 0.09424 0.2383 0.0
H1022 H 0.71042 0.12983 0.43127 0.0
H1023 H 0.71747 0.13369 0.3396 0.0
H1024 H 0.69376 0.13635 0.49971 0.0
H1025 H 0.67011 0.12448 0.52429 0.0
C1026 C 0.89465 0.54285 0.31077 0.0
C1027 C 0.89166 0.54489 0.38666 0.0
C1028 C 0.87514 0.56151 0.35276 0.0
C1029 C 0.87743 0.55878 0.27683 0.0
N1030 N 0.88362 0.54126 0.18581 0.0
N1031 N 0.87355 0.55031 0.47741 0.0
C1032 C 0.88524 0.54753 0.25666 0.0
C1033 C 0.87999 0.55222 0.40673 0.0
N1034 N 0.90745 0.53788 0.28951 0.0
N1035 N 0.86978 0.574 0.3743 0.0
H1036 H 0.87642 0.54307 0.51774 0.0
H1037 H 0.8637 0.55401 0.49339 0.0
H1038 H 0.86703 0.58205 0.33777 0.0
H1039 H 0.86991 0.57779 0.42923 0.0
H1040 H 0.91144 0.53826 0.23471 0.0
H1041 H 0.91548 0.53517 0.32626 0.0
H1042 H 0.88769 0.5317 0.16974 0.0
H1043 H 0.87628 0.54395 0.14537 0.0
C1044 C 0.54343 0.64992 0.68135 0.0
C1045 C 0.5466 0.65526 0.6058 0.0
C1046 C 0.5644 0.68822 0.64199 0.0
C1047 C 0.56041 0.6829 0.71733 0.0
N1048 N 0.54113 0.65922 0.80574 0.0
N1049 N 0.55489 0.67954 0.51508 0.0
C1050 C 0.5482 0.6639 0.73591 0.0
C1051 C 0.55535 0.67445 0.58644 0.0
N1052 N 0.53726 0.63184 0.70207 0.0
N1053 N 0.57776 0.70598 0.62294 0.0
H1054 H 0.54785 0.66977 0.47345 0.0
H1055 H 0.55966 0.69333 0.49918 0.0
H1056 H 0.58544 0.71647 0.66114 0.0
H1057 H 0.58251 0.70981 0.56899 0.0
H1058 H 0.53671 0.62784 0.75696 0.0
H1059 H 0.53454 0.62114 0.66508 0.0
H1060 H 0.53088 0.64572 0.82046 0.0
H1061 H 0.54396 0.66921 0.84653 0.0
C1062 C 0.32672 0.90172 0.69133 0.0
C1063 C 0.31991 0.88359 0.72125 0.0
C1064 C 0.34019 0.87847 0.63705 0.0
C1065 C 0.34846 0.89739 0.61387 0.0
N1066 N 0.35267 0.92825 0.63308 0.0
N1067 N 0.32165 0.85536 0.72995 0.0
C1068 C 0.34259 0.90937 0.645 0.0
C1069 C 0.32699 0.87206 0.69602 0.0
N1070 N 0.31763 0.91143 0.70503 0.0
N1071 N 0.34447 0.86653 0.6013 0.0
H1072 H 0.31198 0.85025 0.77301 0.0
H1073 H 0.32782 0.84727 0.71928 0.0
H1074 H 0.35405 0.87077 0.55797 0.0
H1075 H 0.33747 0.85216 0.6106 0.0
H1076 H 0.32095 0.9239 0.67838 0.0
H1077 H 0.30547 0.90608 0.73668 0.0
H1078 H 0.35 0.93774 0.66067 0.0
H1079 H 0.36497 0.93467 0.60213 0.0
C1080 C 0.12534 0.43768 0.64921 0.0
C1081 C 0.12381 0.44154 0.72451 0.0
C1082 C 0.10796 0.45865 0.6879 0.0
C1083 C 0.11037 0.45561 0.61245 0.0
N1084 N 0.12652 0.44738 0.52236 0.0
N1085 N 0.11905 0.46058 0.81299 0.0
C1086 C 0.12082 0.44685 0.59352 0.0
C1087 C 0.11693 0.4537 0.74293 0.0
N1088 N 0.12975 0.42432 0.63031 0.0
N1089 N 0.09609 0.46491 0.70797 0.0
H1090 H 0.12602 0.45762 0.85416 0.0
H1091 H 0.11576 0.4708 0.82771 0.0
H1092 H 0.08838 0.46789 0.67049 0.0
H1093 H 0.09242 0.46535 0.76264 0.0
H1094 H 0.129 0.41967 0.5763 0.0
H1095 H 0.13237 0.41651 0.66861 0.0
H1096 H 0.13556 0.44261 0.50681 0.0
H1097 H 0.12391 0.45448 0.48062 0.0
C1098 C 0.11663 0.66078 0.73732 0.0
C1099 C 0.12538 0.67992 0.71702 0.0
C1100 C 0.12338 0.67071 0.58746 0.0
C1101 C 0.11086 0.65186 0.60703 0.0
N1102 N 0.09366 0.62927 0.70326 0.0
N1103 N 0.13479 0.70297 0.61914 0.0
C1104 C 0.10715 0.64684 0.68276 0.0
C1105 C 0.12846 0.68496 0.64113 0.0
N1106 N 0.11742 0.65593 0.80872 0.0
N1107 N 0.13041 0.67501 0.51747 0.0
H1108 H 0.13777 0.7139 0.65526 0.0
H1109 H 0.13527 0.70673 0.56395 0.0
H1110 H 0.12734 0.66479 0.47743 0.0
H1111 H 0.14083 0.68837 0.50206 0.0
H1112 H 0.11263 0.64217 0.82516 0.0
H1113 H 0.12477 0.66584 0.84956 0.0
H1114 H 0.08918 0.62575 0.75765 0.0
H1115 H 0.08561 0.61867 0.66602 0.0
C1116 C 0.32838 0.45688 0.69827 0.0
C1117 C 0.32084 0.43812 0.7225 0.0
C1118 C 0.34342 0.43473 0.64673 0.0
C1119 C 0.34963 0.45269 0.61612 0.0
N1120 N 0.34656 0.48012 0.60515 0.0
N1121 N 0.31803 0.40779 0.70537 0.0
C1122 C 0.34175 0.46364 0.63987 0.0
C1123 C 0.32745 0.42664 0.69252 0.0
N1124 N 0.32325 0.46837 0.73255 0.0
N1125 N 0.35319 0.42564 0.63432 0.0
H1126 H 0.30576 0.40107 0.73638 0.0
H1127 H 0.32122 0.39856 0.67859 0.0
H1128 H 0.36546 0.43137 0.60322 0.0
H1129 H 0.3503 0.41336 0.66153 0.0
H1130 H 0.3297 0.48268 0.72262 0.0
H1131 H 0.31345 0.46382 0.77514 0.0
H1132 H 0.33984 0.48776 0.61468 0.0
H1133 H 0.35638 0.48549 0.56266 0.0
C1134 C 0.56489 0.87821 0.64535 0.0
C1135 C 0.56158 0.88015 0.72093 0.0
C1136 C 0.54551 0.89711 0.68556 0.0
C1137 C 0.54788 0.89425 0.60988 0.0
N1138 N 0.55452 0.8769 0.5195 0.0
N1139 N 0.54358 0.88606 0.81065 0.0
C1140 C 0.55581 0.88306 0.59038 0.0
C1141 C 0.55013 0.88779 0.74018 0.0
N1142 N 0.57764 0.87305 0.62535 0.0
N1143 N 0.54021 0.90971 0.70613 0.0
H1144 H 0.54624 0.87878 0.8515 0.0
H1145 H 0.53386 0.88997 0.82603 0.0
H1146 H 0.53767 0.91779 0.6689 0.0
H1147 H 0.54025 0.9136 0.76085 0.0
H1148 H 0.58191 0.87346 0.57095 0.0
H1149 H 0.58537 0.87015 0.66301 0.0
H1150 H 0.55866 0.86737 0.50384 0.0
H1151 H 0.54738 0.87966 0.47836 0.0
C1152 C 0.3398 0.09493 0.08934 0.0
C1153 C 0.35308 0.10037 0.14722 0.0
C1154 C 0.32773 0.08766 0.2384 0.0
C1155 C 0.31443 0.08073 0.18035 0.0
N1156 N 0.30781 0.07448 0.05041 0.0
N1157 N 0.35964 0.09833 0.27569 0.0
C1158 C 0.32046 0.08345 0.10566 0.0
C1159 C 0.34703 0.09572 0.2215 0.0
N1160 N 0.34558 0.1013 0.01923 0.0
N1161 N 0.32201 0.08726 0.3095 0.0
H1162 H 0.37386 0.10381 0.26556 0.0
H1163 H 0.35573 0.09335 0.3293 0.0
H1164 H 0.30802 0.08179 0.32421 0.0
H1165 H 0.33125 0.09395 0.35291 0.0
H1166 H 0.3364 0.09948 0.97646 0.0
H1167 H 0.35961 0.10987 0.00515 0.0
H1168 H 0.31165 0.07436 0.99579 0.0
H1169 H 0.29357 0.06565 0.06006 0.0
C1170 C 0.90685 0.24517 0.08587 0.0
C1171 C 0.90238 0.25352 0.1449 0.0
C1172 C 0.916 0.24112 0.23299 0.0
C1173 C 0.92212 0.23438 0.17345 0.0
N1174 N 0.92663 0.23327 0.04228 0.0
N1175 N 0.90636 0.26297 0.27284 0.0
C1176 C 0.91844 0.23729 0.09951 0.0
C1177 C 0.90797 0.25249 0.21803 0.0
N1178 N 0.89947 0.24411 0.01736 0.0
N1179 N 0.91714 0.23607 0.30379 0.0
H1180 H 0.90103 0.2719 0.26407 0.0
H1181 H 0.91206 0.26427 0.32527 0.0
H1182 H 0.92253 0.2274 0.31715 0.0
H1183 H 0.91105 0.23894 0.3485 0.0
H1184 H 0.90061 0.2364 0.97425 0.0
H1185 H 0.89071 0.24949 0.00535 0.0
H1186 H 0.92602 0.23694 0.9878 0.0
H1187 H 0.93558 0.2279 0.04982 0.0
C1188 C 0.75592 0.66133 0.10006 0.0
C1189 C 0.74865 0.64842 0.15932 0.0
C1190 C 0.76349 0.67431 0.24779 0.0
C1191 C 0.76908 0.68726 0.18865 0.0
N1192 N 0.76677 0.69301 0.05935 0.0
N1193 N 0.74212 0.64285 0.28971 0.0
C1194 C 0.76422 0.68076 0.11493 0.0
C1195 C 0.75149 0.65496 0.23334 0.0
N1196 N 0.7556 0.65516 0.02982 0.0
N1197 N 0.77018 0.68037 0.31732 0.0
H1198 H 0.73274 0.62866 0.28147 0.0
H1199 H 0.74219 0.6472 0.3437 0.0
H1200 H 0.77928 0.69438 0.32997 0.0
H1201 H 0.76815 0.67132 0.3609 0.0
H1202 H 0.76249 0.66413 0.98588 0.0
H1203 H 0.75008 0.64107 0.01667 0.0
H1204 H 0.76167 0.68873 0.0061 0.0
H1205 H 0.77222 0.70729 0.06794 0.0
C1206 C 0.08984 0.32764 0.76339 0.0
C1207 C 0.08268 0.31444 0.82176 0.0
C1208 C 0.09673 0.33998 0.91204 0.0
C1209 C 0.10214 0.35316 0.85379 0.0
N1210 N 0.10045 0.35943 0.72467 0.0
N1211 N 0.07621 0.30808 0.95177 0.0
C1212 C 0.09778 0.34697 0.77954 0.0
C1213 C 0.08529 0.32061 0.89624 0.0
N1214 N 0.0897 0.32179 0.69271 0.0
N1215 N 0.10305 0.34589 0.9821 0.0
H1216 H 0.06737 0.29383 0.94258 0.0
H1217 H 0.076 0.31206 0.00613 0.0
H1218 H 0.11166 0.35994 0.99573 0.0
H1219 H 0.10121 0.33678 0.02521 0.0
H1220 H 0.09654 0.33096 0.64924 0.0
H1221 H 0.08435 0.30778 0.67866 0.0
H1222 H 0.09565 0.35539 0.67093 0.0
H1223 H 0.10576 0.37367 0.73415 0.0
C1224 C 0.67466 0.76353 0.75751 0.0
C1225 C 0.68776 0.76872 0.81591 0.0
C1226 C 0.6621 0.75581 0.90581 0.0
C1227 C 0.64899 0.74899 0.84713 0.0
N1228 N 0.64291 0.74287 0.71674 0.0
N1229 N 0.69381 0.76603 0.9445 0.0
C1230 C 0.65529 0.75188 0.77276 0.0
C1231 C 0.68145 0.76381 0.88983 0.0
N1232 N 0.6806 0.77028 0.68794 0.0
N1233 N 0.65618 0.75533 0.97662 0.0
H1234 H 0.70803 0.7713 0.93503 0.0
H1235 H 0.68966 0.76086 0.99775 0.0
H1236 H 0.64216 0.74995 0.99059 0.0
H1237 H 0.66532 0.76192 0.02043 0.0
H1238 H 0.6715 0.76858 0.64501 0.0
H1239 H 0.69464 0.77911 0.6747 0.0
H1240 H 0.64703 0.74294 0.66237 0.0
H1241 H 0.62868 0.73375 0.72548 0.0
C1242 C 0.2413 0.9156 0.77388 0.0
C1243 C 0.235 0.92221 0.83327 0.0
C1244 C 0.24606 0.9073 0.92147 0.0
C1245 C 0.2539 0.90226 0.86232 0.0
N1246 N 0.2627 0.90542 0.73373 0.0
N1247 N 0.23466 0.9276 0.96405 0.0
C1248 C 0.25258 0.90749 0.78888 0.0
C1249 C 0.23828 0.91896 0.90732 0.0
N1250 N 0.23589 0.91634 0.70325 0.0
N1251 N 0.24539 0.9004 0.99063 0.0
H1252 H 0.22935 0.93657 0.95599 0.0
H1253 H 0.2386 0.92731 0.0184 0.0
H1254 H 0.25075 0.89166 0.00305 0.0
H1255 H 0.23804 0.90196 0.03413 0.0
H1256 H 0.23842 0.90988 0.65893 0.0
H1257 H 0.22725 0.92176 0.68984 0.0
H1258 H 0.26379 0.91083 0.68087 0.0
H1259 H 0.27158 0.90003 0.74249 0.0
C1260 C 0.67566 0.9125 0.76139 0.0
C1261 C 0.68863 0.91979 0.8205 0.0
C1262 C 0.66273 0.90584 0.9092 0.0
C1263 C 0.64978 0.90043 0.85014 0.0
N1264 N 0.64407 0.90204 0.7203 0.0
N1265 N 0.69437 0.92665 0.95063 0.0
C1266 C 0.65627 0.90467 0.77619 0.0
C1267 C 0.68214 0.91733 0.89451 0.0
N1268 N 0.68178 0.91243 0.69137 0.0
N1269 N 0.65659 0.89947 0.97901 0.0
H1270 H 0.70863 0.93567 0.9423 0.0
H1271 H 0.69009 0.92691 0.00447 0.0
H1272 H 0.64251 0.8907 0.99185 0.0
H1273 H 0.66557 0.90136 0.02268 0.0
H1274 H 0.67277 0.90552 0.64757 0.0
H1275 H 0.69584 0.91767 0.67842 0.0
H1276 H 0.64838 0.90674 0.66663 0.0
H1277 H 0.62983 0.89688 0.72874 0.0
C1278 C 0.10434 0.77753 0.80644 0.0
C1279 C 0.08449 0.76779 0.80311 0.0
C1280 C 0.08418 0.73817 0.81955 0.0
C1281 C 0.10373 0.74812 0.83328 0.0
N1282 N 0.1317 0.77783 0.85561 0.0
N1283 N 0.05541 0.73904 0.82496 0.0
C1284 C 0.11365 0.76798 0.8311 0.0
C1285 C 0.07434 0.74815 0.81476 0.0
N1286 N 0.11438 0.7957 0.7835 0.0
N1287 N 0.07504 0.71929 0.80793 0.0
H1288 H 0.04766 0.74585 0.82596 0.0
H1289 H 0.04774 0.72505 0.84077 0.0
H1290 H 0.0818 0.71149 0.80711 0.0
H1291 H 0.06114 0.71177 0.79079 0.0
H1292 H 0.12889 0.80283 0.77827 0.0
H1293 H 0.10816 0.80299 0.76201 0.0
H1294 H 0.13888 0.79232 0.86174 0.0
H1295 H 0.13882 0.77147 0.87746 0.0
C1296 C 0.23785 0.32084 0.9037 0.0
C1297 C 0.235 0.31431 0.82968 0.0
C1298 C 0.25287 0.34661 0.78544 0.0
C1299 C 0.25382 0.35316 0.85866 0.0
N1300 N 0.24445 0.34651 0.98619 0.0
N1301 N 0.23666 0.32106 0.69941 0.0
C1302 C 0.24557 0.34027 0.91757 0.0
C1303 C 0.24166 0.32722 0.77028 0.0
N1304 N 0.23391 0.30859 0.96077 0.0
N1305 N 0.26329 0.3588 0.73074 0.0
H1306 H 0.2281 0.30699 0.6859 0.0
H1307 H 0.23946 0.33003 0.65481 0.0
H1308 H 0.27211 0.37307 0.73967 0.0
H1309 H 0.26466 0.35448 0.67826 0.0
H1310 H 0.23754 0.31284 0.0153 0.0
H1311 H 0.22866 0.29431 0.95304 0.0
H1312 H 0.23679 0.33759 0.02924 0.0
H1313 H 0.24972 0.36061 0.99836 0.0
C1314 C 0.90032 0.67782 0.1757 0.0
C1315 C 0.92014 0.68748 0.18097 0.0
C1316 C 0.91966 0.6577 0.16852 0.0
C1317 C 0.90021 0.64849 0.15278 0.0
N1318 N 0.87288 0.651 0.12557 0.0
N1319 N 0.9489 0.68687 0.16365 0.0
C1320 C 0.89074 0.65887 0.15196 0.0
C1321 C 0.92991 0.67751 0.17217 0.0
N1322 N 0.89053 0.68641 0.19602 0.0
N1323 N 0.92829 0.6476 0.18322 0.0
H1324 H 0.95698 0.70141 0.16177 0.0
H1325 H 0.95635 0.68017 0.14998 0.0
H1326 H 0.92118 0.63303 0.18513 0.0
H1327 H 0.94205 0.65373 0.20183 0.0
H1328 H 0.87599 0.67937 0.1998 0.0
H1329 H 0.89691 0.69999 0.21688 0.0
H1330 H 0.86607 0.6586 0.1173 0.0
H1331 H 0.86559 0.63746 0.10436 0.0
C1332 C 0.34122 0.24582 0.08908 0.0
C1333 C 0.35452 0.25378 0.14684 0.0
C1334 C 0.32918 0.24087 0.23807 0.0
C1335 C 0.31586 0.23463 0.18008 0.0
N1336 N 0.30926 0.23436 0.05013 0.0
N1337 N 0.36106 0.26217 0.27552 0.0
C1338 C 0.32188 0.23795 0.1054 0.0
C1339 C 0.34849 0.2522 0.22122 0.0
N1340 N 0.34698 0.24514 0.01903 0.0
N1341 N 0.32347 0.23539 0.30906 0.0
H1342 H 0.37527 0.27103 0.2655 0.0
H1343 H 0.35713 0.26309 0.32926 0.0
H1344 H 0.30949 0.22679 0.32362 0.0
H1345 H 0.33272 0.23787 0.35236 0.0
H1346 H 0.33778 0.23772 0.97639 0.0
H1347 H 0.361 0.25048 0.00503 0.0
H1348 H 0.31314 0.23837 0.99555 0.0
H1349 H 0.29502 0.229 0.05967 0.0
C1350 C 0.75297 0.09843 0.22819 0.0
C1351 C 0.74993 0.10169 0.15385 0.0
C1352 C 0.7646 0.08389 0.11097 0.0
C1353 C 0.7694 0.08239 0.18493 0.0
N1354 N 0.77123 0.09127 0.31277 0.0
N1355 N 0.75592 0.10056 0.0242 0.0
C1356 C 0.76444 0.09051 0.24331 0.0
C1357 C 0.7566 0.09526 0.09507 0.0
N1358 N 0.74425 0.10214 0.28436 0.0
N1359 N 0.76692 0.07383 0.05626 0.0
H1360 H 0.75044 0.10911 0.01032 0.0
H1361 H 0.7624 0.09795 0.98015 0.0
H1362 H 0.77232 0.06498 0.06564 0.0
H1363 H 0.76181 0.07284 0.00292 0.0
H1364 H 0.74437 0.09819 0.33883 0.0
H1365 H 0.73535 0.10752 0.27576 0.0
H1366 H 0.76972 0.0988 0.3557 0.0
H1367 H 0.77992 0.08589 0.3259 0.0
C1368 C 0.01233 0.41668 0.50674 0.0
C1369 C 0.02212 0.43622 0.49277 0.0
C1370 C 0.99369 0.43736 0.52179 0.0
C1371 C 0.98338 0.41754 0.52547 0.0
N1372 N 0.98244 0.38815 0.50391 0.0
N1373 N 0.02091 0.46453 0.4722 0.0
C1374 C 0.99256 0.40711 0.5132 0.0
C1375 C 0.01248 0.44643 0.49628 0.0
N1376 N 0.0219 0.4073 0.517 0.0
N1377 N 0.9858 0.44761 0.54493 0.0
H1378 H 0.03436 0.47148 0.45006 0.0
H1379 H 0.01383 0.47196 0.46687 0.0
H1380 H 0.9723 0.44153 0.56657 0.0
H1381 H 0.99332 0.46212 0.55002 0.0
H1382 H 0.01545 0.39343 0.53445 0.0
H1383 H 0.03645 0.41386 0.51621 0.0
H1384 H 0.98846 0.38026 0.48742 0.0
H1385 H 0.96787 0.38055 0.50467 0.0
C1386 C 0.5957 0.58658 0.50761 0.0
C1387 C 0.58554 0.56709 0.52264 0.0
C1388 C 0.55635 0.56668 0.49286 0.0
C1389 C 0.56631 0.5865 0.48743 0.0
N1390 N 0.59513 0.61553 0.50882 0.0
N1391 N 0.55567 0.5394 0.54528 0.0
C1392 C 0.5859 0.59654 0.50024 0.0
C1393 C 0.56569 0.55734 0.51974 0.0
N1394 N 0.61461 0.59552 0.49678 0.0
N1395 N 0.5382 0.55666 0.4696 0.0
H1396 H 0.5619 0.53228 0.56834 0.0
H1397 H 0.54117 0.53233 0.55089 0.0
H1398 H 0.53106 0.56287 0.44658 0.0
H1399 H 0.53093 0.54212 0.46578 0.0
H1400 H 0.62227 0.60932 0.4786 0.0
H1401 H 0.62233 0.58868 0.49769 0.0
H1402 H 0.60907 0.62317 0.52535 0.0
H1403 H 0.58843 0.62339 0.50776 0.0
C1404 C 0.41757 0.01133 0.4959 0.0
C1405 C 0.43707 0.02084 0.51063 0.0
C1406 C 0.43761 0.9919 0.48674 0.0
C1407 C 0.4178 0.98194 0.48145 0.0
N1408 N 0.38866 0.98175 0.49892 0.0
N1409 N 0.46487 0.01906 0.53602 0.0
C1410 C 0.40767 0.99152 0.491 0.0
C1411 C 0.4469 0.01081 0.51056 0.0
N1412 N 0.40857 0.02117 0.48329 0.0
N1413 N 0.44766 0.98357 0.46636 0.0
H1414 H 0.47197 0.03264 0.55692 0.0
H1415 H 0.47201 0.01175 0.54378 0.0
H1416 H 0.44145 0.96997 0.44579 0.0
H1417 H 0.46219 0.99081 0.46238 0.0
H1418 H 0.39476 0.0149 0.46505 0.0
H1419 H 0.41536 0.03574 0.48322 0.0
H1420 H 0.38091 0.98809 0.5134 0.0
H1421 H 0.38083 0.96719 0.49905 0.0
C1422 C 0.56788 0.01126 0.5054 0.0
C1423 C 0.58774 0.02125 0.5074 0.0
C1424 C 0.5878 0.99188 0.48868 0.0
C1425 C 0.56815 0.98233 0.47725 0.0
N1426 N 0.54017 0.98422 0.45793 0.0
N1427 N 0.61659 0.02147 0.48133 0.0
C1428 C 0.55835 0.99239 0.48073 0.0
C1429 C 0.59773 0.01169 0.49336 0.0
N1430 N 0.558 0.01941 0.5301 0.0
N1431 N 0.59697 0.98211 0.49878 0.0
H1432 H 0.62435 0.03603 0.48034 0.0
H1433 H 0.62412 0.01512 0.46398 0.0
H1434 H 0.5902 0.96756 0.49995 0.0
H1435 H 0.61098 0.98848 0.51438 0.0
H1436 H 0.54352 0.01207 0.53635 0.0
H1437 H 0.56434 0.03288 0.55197 0.0
H1438 H 0.53301 0.99157 0.45284 0.0
H1439 H 0.53289 0.97071 0.4364 0.0
C1440 C 0.98822 0.57263 0.43552 0.0
C1441 C 0.98179 0.56826 0.50947 0.0
C1442 C 0.0142 0.58458 0.55358 0.0
C1443 C 0.0206 0.58719 0.47945 0.0
N1444 N 0.01368 0.58077 0.34988 0.0
N1445 N 0.98856 0.56704 0.63819 0.0
C1446 C 0.0076 0.58042 0.42032 0.0
C1447 C 0.99475 0.57341 0.56841 0.0
N1448 N 0.97593 0.57005 0.38005 0.0
N1449 N 0.0266 0.5934 0.60975 0.0
H1450 H 0.97444 0.5586 0.65122 0.0
H1451 H 0.99747 0.56865 0.68174 0.0
H1452 H 0.04092 0.60203 0.60128 0.0
H1453 H 0.0225 0.59363 0.66389 0.0
H1454 H 0.98013 0.57485 0.32642 0.0
H1455 H 0.96167 0.56472 0.38891 0.0
H1456 H 0.00467 0.57418 0.30574 0.0
H1457 H 0.02773 0.58612 0.33654 0.0
C1458 C 0.42455 0.43009 0.42041 0.0
C1459 C 0.41698 0.43536 0.47977 0.0
C1460 C 0.43016 0.42252 0.56785 0.0
C1461 C 0.43598 0.41548 0.50836 0.0
N1462 N 0.4352 0.4092 0.3778 0.0
N1463 N 0.40891 0.43277 0.60913 0.0
C1464 C 0.43222 0.41834 0.43445 0.0
C1465 C 0.41876 0.43052 0.55334 0.0
N1466 N 0.42508 0.43683 0.35107 0.0
N1467 N 0.43612 0.42227 0.63799 0.0
H1468 H 0.39986 0.43798 0.60078 0.0
H1469 H 0.4082 0.42766 0.66228 0.0
H1470 H 0.44492 0.41701 0.65086 0.0
H1471 H 0.43389 0.42901 0.68211 0.0
H1472 H 0.43223 0.43503 0.30738 0.0
H1473 H 0.41994 0.44576 0.33872 0.0
H1474 H 0.43089 0.40927 0.32385 0.0
H1475 H 0.44026 0.40002 0.3857 0.0
C1476 C 0.26004 0.12193 0.28207 0.0
C1477 C 0.24636 0.10678 0.23981 0.0
C1478 C 0.23146 0.12522 0.20846 0.0
C1479 C 0.2469 0.14121 0.23968 0.0
N1480 N 0.27611 0.15533 0.30601 0.0
N1481 N 0.21835 0.09317 0.16617 0.0
C1482 C 0.26104 0.13964 0.27805 0.0
C1483 C 0.23171 0.10813 0.20474 0.0
N1484 N 0.27233 0.11951 0.32463 0.0
N1485 N 0.21652 0.12647 0.18312 0.0
H1486 H 0.21742 0.08009 0.16683 0.0
H1487 H 0.20859 0.09377 0.13171 0.0
H1488 H 0.21601 0.13883 0.18615 0.0
H1489 H 0.20407 0.11508 0.16503 0.0
H1490 H 0.28139 0.12935 0.36248 0.0
H1491 H 0.27252 0.10699 0.32671 0.0
H1492 H 0.28808 0.15566 0.32605 0.0
H1493 H 0.27717 0.16845 0.30551 0.0
C1494 C 0.86463 0.12189 0.26974 0.0
C1495 C 0.8628 0.1063 0.22956 0.0
C1496 C 0.89555 0.12444 0.19029 0.0
C1497 C 0.89715 0.1403 0.2275 0.0
N1498 N 0.88504 0.15317 0.31696 0.0
N1499 N 0.87718 0.09097 0.1677 0.0
C1500 C 0.88233 0.13862 0.27265 0.0
C1501 C 0.87855 0.10704 0.19506 0.0
N1502 N 0.84915 0.12116 0.30049 0.0
N1503 N 0.91019 0.12623 0.14881 0.0
H1504 H 0.8649 0.07804 0.17146 0.0
H1505 H 0.88845 0.09004 0.14711 0.0
H1506 H 0.92325 0.1384 0.14858 0.0
H1507 H 0.90932 0.116 0.11285 0.0
H1508 H 0.84895 0.13274 0.32205 0.0
H1509 H 0.83602 0.10911 0.3007 0.0
H1510 H 0.87552 0.15216 0.35685 0.0
H1511 H 0.89751 0.16591 0.31832 0.0
C1512 C 0.89657 0.77167 0.17739 0.0
C1513 C 0.89771 0.75701 0.21312 0.0
C1514 C 0.86578 0.74451 0.26045 0.0
C1515 C 0.86364 0.75726 0.21459 0.0
N1516 N 0.87681 0.78348 0.13132 0.0
N1517 N 0.88339 0.72888 0.2866 0.0
C1518 C 0.87908 0.77113 0.1742 0.0
C1519 C 0.88246 0.74349 0.25557 0.0
N1520 N 0.91235 0.78621 0.14747 0.0
N1521 N 0.85171 0.73307 0.30743 0.0
H1522 H 0.89537 0.72769 0.28525 0.0
H1523 H 0.87195 0.71723 0.30967 0.0
H1524 H 0.83897 0.73277 0.31035 0.0
H1525 H 0.85318 0.72495 0.34789 0.0
H1526 H 0.913 0.7982 0.12595 0.0
H1527 H 0.92535 0.787 0.15003 0.0
H1528 H 0.88667 0.79244 0.09332 0.0
H1529 H 0.86458 0.78428 0.13188 0.0
C1530 C 0.10801 0.23023 0.80312 0.0
C1531 C 0.10738 0.24538 0.76934 0.0
C1532 C 0.13981 0.25831 0.72744 0.0
C1533 C 0.14136 0.24502 0.77214 0.0
N1534 N 0.12708 0.21763 0.84929 0.0
N1535 N 0.1224 0.27409 0.69971 0.0
C1536 C 0.1254 0.23062 0.80832 0.0
C1537 C 0.12306 0.25926 0.72999 0.0
N1538 N 0.09186 0.21544 0.82946 0.0
N1539 N 0.15448 0.27028 0.68394 0.0
H1540 H 0.11034 0.27515 0.69921 0.0
H1541 H 0.13403 0.28593 0.67879 0.0
H1542 H 0.16722 0.27053 0.68284 0.0
H1543 H 0.1536 0.27895 0.64443 0.0
H1544 H 0.09088 0.20317 0.84947 0.0
H1545 H 0.07895 0.21481 0.82535 0.0
H1546 H 0.11674 0.20814 0.88455 0.0
H1547 H 0.13926 0.21676 0.84979 0.0
C1548 C 0.7727 0.87805 0.81831 0.0
C1549 C 0.75872 0.86245 0.77894 0.0
C1550 C 0.74518 0.88125 0.73529 0.0
C1551 C 0.75865 0.89659 0.77744 0.0
N1552 N 0.78782 0.91142 0.84317 0.0
N1553 N 0.73463 0.85026 0.68573 0.0
C1554 C 0.77329 0.89555 0.81378 0.0
C1555 C 0.74608 0.86449 0.73204 0.0
N1556 N 0.78507 0.87591 0.86155 0.0
N1557 N 0.73069 0.88219 0.70304 0.0
H1558 H 0.73425 0.83747 0.68397 0.0
H1559 H 0.72657 0.85161 0.64465 0.0
H1560 H 0.72961 0.89424 0.70314 0.0
H1561 H 0.71906 0.87074 0.68 0.0
H1562 H 0.79413 0.88592 0.89887 0.0
H1563 H 0.78583 0.86367 0.8618 0.0
H1564 H 0.79979 0.91213 0.86529 0.0
H1565 H 0.78862 0.92441 0.8396 0.0
C1566 C 0.14112 0.88054 0.7343 0.0
C1567 C 0.14165 0.89565 0.77377 0.0
C1568 C 0.108 0.87667 0.79883 0.0
C1569 C 0.10822 0.86084 0.77004 0.0
N1570 N 0.12456 0.84712 0.71033 0.0
N1571 N 0.12587 0.90888 0.84082 0.0
C1572 C 0.12456 0.86268 0.73622 0.0
C1573 C 0.12508 0.89399 0.80447 0.0
N1574 N 0.15656 0.88318 0.69628 0.0
N1575 N 0.09137 0.87506 0.82003 0.0
H1576 H 0.13788 0.92206 0.84163 0.0
H1577 H 0.11496 0.90812 0.87213 0.0
H1578 H 0.0787 0.86252 0.81574 0.0
H1579 H 0.08979 0.88629 0.83597 0.0
H1580 H 0.15657 0.87334 0.66048 0.0
H1581 H 0.16914 0.89583 0.69594 0.0
H1582 H 0.13654 0.84694 0.69396 0.0
H1583 H 0.11256 0.83396 0.70866 0.0
C1584 C 0.89899 0.44175 0.51438 0.0
C1585 C 0.91338 0.44038 0.55158 0.0
C1586 C 0.92718 0.4729 0.59352 0.0
C1587 C 0.91322 0.47447 0.55374 0.0
N1588 N 0.88349 0.45975 0.49201 0.0
N1589 N 0.9386 0.45287 0.64005 0.0
C1590 C 0.89833 0.45862 0.51925 0.0
C1591 C 0.9265 0.45533 0.59631 0.0
N1592 N 0.88628 0.42704 0.47284 0.0
N1593 N 0.94184 0.4885 0.62404 0.0
H1594 H 0.93916 0.44055 0.64105 0.0
H1595 H 0.94711 0.46247 0.67973 0.0
H1596 H 0.9427 0.50153 0.62438 0.0
H1597 H 0.95374 0.4889 0.64528 0.0
H1598 H 0.87683 0.42778 0.43698 0.0
H1599 H 0.88562 0.41409 0.47234 0.0
H1600 H 0.87136 0.44838 0.47149 0.0
H1601 H 0.88264 0.47193 0.49579 0.0
C1602 C 0.52914 0.4548 0.59998 0.0
C1603 C 0.52833 0.43944 0.56142 0.0
C1604 C 0.56151 0.45834 0.52904 0.0
C1605 C 0.56213 0.47395 0.5646 0.0
N1606 N 0.54818 0.48625 0.64812 0.0
N1607 N 0.54417 0.42487 0.50523 0.0
C1608 C 0.54652 0.47184 0.60548 0.0
C1609 C 0.54473 0.44069 0.53116 0.0
N1610 N 0.51305 0.45353 0.62665 0.0
N1611 N 0.57689 0.4606 0.4916 0.0
H1612 H 0.53204 0.41178 0.50705 0.0
H1613 H 0.55588 0.4243 0.48776 0.0
H1614 H 0.58975 0.47298 0.49343 0.0
H1615 H 0.57683 0.45054 0.45687 0.0
H1616 H 0.51216 0.46487 0.64663 0.0
H1617 H 0.50013 0.44123 0.62506 0.0
H1618 H 0.538 0.48498 0.68523 0.0
H1619 H 0.56038 0.4992 0.65096 0.0
C1620 C 0.54728 0.07537 0.58634 0.0
C1621 C 0.56327 0.08968 0.54991 0.0
C1622 C 0.54547 0.10473 0.51144 0.0
C1623 C 0.52931 0.09007 0.5455 0.0
N1624 N 0.51551 0.06381 0.62908 0.0
N1625 N 0.57914 0.12012 0.49382 0.0
C1626 C 0.53051 0.07628 0.58817 0.0
C1627 C 0.56283 0.10509 0.51764 0.0
N1628 N 0.54772 0.06022 0.6145 0.0
N1629 N 0.54404 0.11801 0.47152 0.0
H1630 H 0.59204 0.12074 0.49862 0.0
H1631 H 0.58023 0.13255 0.47529 0.0
H1632 H 0.53183 0.11883 0.47013 0.0
H1633 H 0.5546 0.12776 0.43772 0.0
H1634 H 0.53594 0.04814 0.63289 0.0
H1635 H 0.55979 0.05918 0.61562 0.0
H1636 H 0.51609 0.05472 0.66734 0.0
H1637 H 0.50272 0.06347 0.62929 0.0
C1638 C 0.77317 0.56424 0.14312 0.0
C1639 C 0.77215 0.5794 0.11157 0.0
C1640 C 0.8046 0.59319 0.06853 0.0
C1641 C 0.80647 0.57969 0.11048 0.0
N1642 N 0.79274 0.55179 0.18485 0.0
N1643 N 0.78662 0.60859 0.04504 0.0
C1644 C 0.79072 0.5649 0.14627 0.0
C1645 C 0.78766 0.59374 0.07292 0.0
N1646 N 0.75722 0.54916 0.16926 0.0
N1647 N 0.81916 0.60573 0.0259 0.0
H1648 H 0.7744 0.60936 0.04579 0.0
H1649 H 0.79807 0.6207 0.02486 0.0
H1650 H 0.83206 0.60634 0.02389 0.0
H1651 H 0.81808 0.61462 0.98807 0.0
H1652 H 0.75648 0.53688 0.18765 0.0
H1653 H 0.7442 0.54835 0.16673 0.0
H1654 H 0.78257 0.54196 0.21975 0.0
H1655 H 0.80504 0.55114 0.18381 0.0
C1656 C 0.43752 0.21063 0.14365 0.0
C1657 C 0.42341 0.19497 0.10502 0.0
C1658 C 0.40998 0.21382 0.0607 0.0
C1659 C 0.4236 0.22924 0.10204 0.0
N1660 N 0.45292 0.24409 0.16683 0.0
N1661 N 0.39914 0.18263 0.01259 0.0
C1662 C 0.43825 0.22818 0.13831 0.0
C1663 C 0.41074 0.19697 0.05817 0.0
N1664 N 0.44989 0.20851 0.18699 0.0
N1665 N 0.3955 0.21478 0.0285 0.0
H1666 H 0.3987 0.16981 0.01138 0.0
H1667 H 0.39101 0.1839 0.97159 0.0
H1668 H 0.39452 0.22689 0.02811 0.0
H1669 H 0.38379 0.20331 0.00599 0.0
H1670 H 0.45905 0.2186 0.22384 0.0
H1671 H 0.45053 0.19621 0.18789 0.0
H1672 H 0.46489 0.24477 0.18877 0.0
H1673 H 0.45382 0.25712 0.16265 0.0
C1674 C 0.78953 0.19874 0.06342 0.0
C1675 C 0.77468 0.19638 0.10996 0.0
C1676 C 0.79314 0.22918 0.14907 0.0
C1677 C 0.80893 0.23046 0.11281 0.0
N1678 N 0.82272 0.21667 0.03625 0.0
N1679 N 0.76145 0.20929 0.19369 0.0
C1680 C 0.8072 0.21547 0.06867 0.0
C1681 C 0.77617 0.2117 0.15115 0.0
N1682 N 0.78692 0.18485 0.01552 0.0
N1683 N 0.79446 0.24482 0.18076 0.0
H1684 H 0.74841 0.19711 0.19206 0.0
H1685 H 0.76223 0.219 0.23217 0.0
H1686 H 0.80672 0.2578 0.17906 0.0
H1687 H 0.78317 0.24542 0.20311 0.0
H1688 H 0.79647 0.18647 0.97469 0.0
H1689 H 0.7745 0.1721 0.01227 0.0
H1690 H 0.82298 0.20542 0.01164 0.0
H1691 H 0.83583 0.22873 0.03763 0.0
C1692 C 0.56507 0.77465 0.85581 0.0
C1693 C 0.5792 0.77311 0.89435 0.0
C1694 C 0.59318 0.80569 0.93558 0.0
C1695 C 0.57956 0.80747 0.8941 0.0
N1696 N 0.55006 0.79301 0.83068 0.0
N1697 N 0.60384 0.78533 0.98525 0.0
C1698 C 0.56466 0.79167 0.85941 0.0
C1699 C 0.59218 0.78798 0.93967 0.0
N1700 N 0.55236 0.75995 0.81423 0.0
N1701 N 0.60785 0.82121 0.96646 0.0
H1702 H 0.60411 0.77287 0.98754 0.0
H1703 H 0.61222 0.79492 0.02526 0.0
H1704 H 0.60896 0.83435 0.96583 0.0
H1705 H 0.61955 0.82143 0.98894 0.0
H1706 H 0.54312 0.76077 0.77745 0.0
H1707 H 0.55147 0.74689 0.8148 0.0
H1708 H 0.53793 0.78171 0.8098 0.0
H1709 H 0.54942 0.8053 0.83355 0.0
C1710 C 0.1971 0.78796 0.92382 0.0
C1711 C 0.19599 0.77284 0.88234 0.0
C1712 C 0.22879 0.79217 0.84508 0.0
C1713 C 0.22975 0.80743 0.88475 0.0
N1714 N 0.21664 0.81886 0.9759 0.0
N1715 N 0.21154 0.75882 0.8194 0.0
C1716 C 0.21454 0.80491 0.9294 0.0
C1717 C 0.21215 0.77442 0.84808 0.0
N1718 N 0.18123 0.78666 0.95316 0.0
N1719 N 0.24367 0.79484 0.803 0.0
H1720 H 0.19956 0.74562 0.82193 0.0
H1721 H 0.22319 0.75853 0.79914 0.0
H1722 H 0.25647 0.8073 0.80357 0.0
H1723 H 0.24317 0.78506 0.76547 0.0
H1724 H 0.18062 0.79796 0.97544 0.0
H1725 H 0.1682 0.77452 0.95103 0.0
H1726 H 0.20679 0.81718 0.01549 0.0
H1727 H 0.22894 0.83173 0.97939 0.0
C1728 C 0.21157 0.43778 0.85653 0.0
C1729 C 0.19609 0.4232 0.89408 0.0
C1730 C 0.21602 0.41108 0.93934 0.0
C1731 C 0.23048 0.42363 0.89143 0.0
N1732 N 0.24286 0.44965 0.80724 0.0
N1733 N 0.18303 0.39557 0.97028 0.0
C1734 C 0.22856 0.43736 0.85148 0.0
C1735 C 0.19826 0.40999 0.93677 0.0
N1736 N 0.20996 0.4521 0.82651 0.0
N1737 N 0.21909 0.39987 0.98598 0.0
H1738 H 0.16986 0.39439 0.97074 0.0
H1739 H 0.18305 0.38409 0.99388 0.0
H1740 H 0.23155 0.3996 0.98727 0.0
H1741 H 0.20987 0.39192 0.02772 0.0
H1742 H 0.22106 0.46403 0.80347 0.0
H1743 H 0.1977 0.45278 0.83043 0.0
H1744 H 0.24168 0.45851 0.76953 0.0
H1745 H 0.25592 0.45056 0.80656 0.0
C1746 C 0.44173 0.89797 0.48616 0.0
C1747 C 0.44048 0.91287 0.45336 0.0
C1748 C 0.47264 0.92637 0.40715 0.0
C1749 C 0.47479 0.91314 0.4498 0.0
N1750 N 0.4616 0.88582 0.52744 0.0
N1751 N 0.45451 0.94162 0.38385 0.0
C1752 C 0.45931 0.89865 0.48799 0.0
C1753 C 0.45573 0.92696 0.41269 0.0
N1754 N 0.42598 0.88309 0.51461 0.0
N1755 N 0.48689 0.93864 0.36266 0.0
H1756 H 0.44228 0.94237 0.38506 0.0
H1757 H 0.46584 0.95363 0.3624 0.0
H1758 H 0.49982 0.93933 0.35984 0.0
H1759 H 0.48552 0.94724 0.32419 0.0
H1760 H 0.42539 0.87095 0.53402 0.0
H1761 H 0.41294 0.88224 0.51309 0.0
H1762 H 0.4517 0.87629 0.56393 0.0
H1763 H 0.47387 0.88513 0.52551 0.0
C1764 C 0.07662 0.54574 0.39283 0.0
C1765 C 0.0898 0.56115 0.43532 0.0
C1766 C 0.10538 0.54358 0.47007 0.0
C1767 C 0.09037 0.52727 0.43852 0.0
N1768 N 0.06127 0.51231 0.37117 0.0
N1769 N 0.11729 0.57549 0.51195 0.0
C1770 C 0.07608 0.52828 0.39868 0.0
C1771 C 0.1045 0.56034 0.47255 0.0
N1772 N 0.06435 0.54769 0.34819 0.0
N1773 N 0.12055 0.54296 0.4968 0.0
H1774 H 0.11776 0.58836 0.51068 0.0
H1775 H 0.12697 0.5752 0.54787 0.0
H1776 H 0.12157 0.53087 0.49459 0.0
H1777 H 0.13273 0.55464 0.51508 0.0
H1778 H 0.0557 0.53763 0.31011 0.0
H1779 H 0.06388 0.56003 0.3446 0.0
H1780 H 0.0492 0.51162 0.35032 0.0
H1781 H 0.06045 0.49931 0.37316 0.0
C1782 C 0.47229 0.54743 0.40448 0.0
C1783 C 0.47398 0.56302 0.44426 0.0
C1784 C 0.44129 0.54463 0.48412 0.0
C1785 C 0.43978 0.52887 0.44652 0.0
N1786 N 0.452 0.51622 0.35658 0.0
N1787 N 0.45934 0.57814 0.50583 0.0
C1788 C 0.45463 0.53067 0.40128 0.0
C1789 C 0.45817 0.56213 0.47888 0.0
N1790 N 0.48784 0.54814 0.37455 0.0
N1791 N 0.4267 0.54267 0.52642 0.0
H1792 H 0.4715 0.59115 0.50168 0.0
H1793 H 0.44797 0.57892 0.52629 0.0
H1794 H 0.41374 0.53039 0.5273 0.0
H1795 H 0.42759 0.55286 0.5626 0.0
H1796 H 0.48807 0.53653 0.35355 0.0
H1797 H 0.50099 0.56015 0.37485 0.0
H1798 H 0.46156 0.51736 0.3166 0.0
H1799 H 0.43956 0.50345 0.35492 0.0
loop_
_geom_bond_atom_site_label_1
_geom_bond_atom_site_label_2
_geom_bond_distance
_geom_bond_site_symmetry_2
_ccdc_geom_bond_type
O0 Cd1 2.223 . S
O0 C8 1.315 . S
Cd1 O0 2.223 . S
Cd1 O4 2.297 . S
Cd1 O5 2.439 . S
Cd1 O11 2.240 . S
Cd2 O3 2.240 . S
Cd2 O10 2.223 . S
Cd2 O12 2.297 . S
Cd2 O13 2.439 . S
O3 Cd2 2.240 . S
O3 C8 1.279 . S
O4 Cd1 2.297 . S
O4 C6 1.247 . S
O5 Cd1 2.439 . S
O5 C6 1.208 . S
C6 O4 1.247 . S
C6 O5 1.208 . S
C7 O12 1.247 . S
C7 O13 1.208 . S
C8 O0 1.315 . S
C8 O3 1.279 . S
C9 O10 1.315 . S
C9 O11 1.279 . S
O10 Cd2 2.223 . S
O10 C9 1.315 . S
O11 Cd1 2.240 . S
O11 C9 1.279 . S
O12 Cd2 2.297 . S
O12 C7 1.247 . S
O13 Cd2 2.439 . S
O13 C7 1.208 . S
O14 Cd15 2.223 . S
O14 C22 1.315 . S
Cd15 O14 2.223 . S
Cd15 O18 2.297 . S
Cd15 O19 2.439 . S
Cd15 O25 2.240 . S
Cd16 O17 2.240 . S
Cd16 O24 2.223 . S
Cd16 O26 2.297 . S
Cd16 O27 2.439 . S
O17 Cd16 2.240 . S
O17 C22 1.279 . S
O18 Cd15 2.297 . S
O18 C20 1.247 . S
O19 Cd15 2.439 . S
O19 C20 1.208 . S
C20 O18 1.247 . S
C20 O19 1.208 . S
C21 O26 1.247 . S
C21 O27 1.208 . S
C22 O14 1.315 . S
C22 O17 1.279 . S
C23 O24 1.315 . S
C23 O25 1.279 . S
O24 Cd16 2.223 . S
O24 C23 1.315 . S
O25 Cd15 2.240 . S
O25 C23 1.279 . S
O26 Cd16 2.297 . S
O26 C21 1.247 . S
O27 Cd16 2.439 . S
O27 C21 1.208 . S
O28 Cd29 2.223 . S
O28 C36 1.315 . S
Cd29 O28 2.223 . S
Cd29 O32 2.297 . S
Cd29 O33 2.439 . S
Cd29 O39 2.240 . S
Cd30 O31 2.240 . S
Cd30 O38 2.223 . S
Cd30 O40 2.297 . S
Cd30 O41 2.439 . S
O31 Cd30 2.240 . S
O31 C36 1.279 . S
O32 Cd29 2.297 . S
O32 C34 1.247 . S
O33 Cd29 2.439 . S
O33 C34 1.208 . S
C34 O32 1.247 . S
C34 O33 1.208 . S
C35 O40 1.247 . S
C35 O41 1.208 . S
C36 O28 1.315 . S
C36 O31 1.279 . S
C37 O38 1.315 . S
C37 O39 1.279 . S
O38 Cd30 2.223 . S
O38 C37 1.315 . S
O39 Cd29 2.240 . S
O39 C37 1.279 . S
O40 Cd30 2.297 . S
O40 C35 1.247 . S
O41 Cd30 2.439 . S
O41 C35 1.208 . S
O42 Cd43 2.223 . S
O42 C50 1.315 . S
Cd43 O42 2.223 . S
Cd43 O46 2.297 . S
Cd43 O47 2.439 . S
Cd43 O53 2.240 . S
Cd44 O45 2.240 . S
Cd44 O52 2.223 . S
Cd44 O54 2.297 . S
Cd44 O55 2.439 . S
O45 Cd44 2.240 . S
O45 C50 1.279 . S
O46 Cd43 2.297 . S
O46 C48 1.247 . S
O47 Cd43 2.439 . S
O47 C48 1.208 . S
C48 O46 1.247 . S
C48 O47 1.208 . S
C49 O54 1.247 . S
C49 O55 1.208 . S
C50 O42 1.315 . S
C50 O45 1.279 . S
C51 O52 1.315 . S
C51 O53 1.279 . S
O52 Cd44 2.223 . S
O52 C51 1.315 . S
O53 Cd43 2.240 . S
O53 C51 1.279 . S
O54 Cd44 2.297 . S
O54 C49 1.247 . S
O55 Cd44 2.439 . S
O55 C49 1.208 . S
O56 Cd57 2.223 . S
O56 C64 1.315 . S
Cd57 O56 2.223 . S
Cd57 O60 2.297 . S
Cd57 O61 2.439 . S
Cd57 O67 2.240 . S
Cd58 O59 2.240 . S
Cd58 O66 2.223 . S
Cd58 O68 2.297 . S
Cd58 O69 2.439 . S
O59 Cd58 2.240 . S
O59 C64 1.279 . S
O60 Cd57 2.297 . S
O60 C62 1.247 . S
O61 Cd57 2.439 . S
O61 C62 1.208 . S
C62 O60 1.247 . S
C62 O61 1.208 . S
C63 O68 1.247 . S
C63 O69 1.208 . S
C64 O56 1.315 . S
C64 O59 1.279 . S
C65 O66 1.315 . S
C65 O67 1.279 . S
O66 Cd58 2.223 . S
O66 C65 1.315 . S
O67 Cd57 2.240 . S
O67 C65 1.279 . S
O68 Cd58 2.297 . S
O68 C63 1.247 . S
O69 Cd58 2.439 . S
O69 C63 1.208 . S
O70 Cd71 2.223 . S
O70 C78 1.315 . S
Cd71 O70 2.223 . S
Cd71 O74 2.297 . S
Cd71 O75 2.439 . S
Cd71 O81 2.240 . S
Cd72 O73 2.240 . S
Cd72 O80 2.223 . S
Cd72 O82 2.297 . S
Cd72 O83 2.439 . S
O73 Cd72 2.240 . S
O73 C78 1.279 . S
O74 Cd71 2.297 . S
O74 C76 1.247 . S
O75 Cd71 2.439 . S
O75 C76 1.208 . S
C76 O74 1.247 . S
C76 O75 1.208 . S
C77 O82 1.247 . S
C77 O83 1.208 . S
C78 O70 1.315 . S
C78 O73 1.279 . S
C79 O80 1.315 . S
C79 O81 1.279 . S
O80 Cd72 2.223 . S
O80 C79 1.315 . S
O81 Cd71 2.240 . S
O81 C79 1.279 . S
O82 Cd72 2.297 . S
O82 C77 1.247 . S
O83 Cd72 2.439 . S
O83 C77 1.208 . S
O84 Cd85 2.223 . S
O84 C92 1.315 . S
Cd85 O84 2.223 . S
Cd85 O88 2.297 . S
Cd85 O89 2.439 . S
Cd85 O95 2.240 . S
Cd86 O87 2.240 . S
Cd86 O94 2.223 . S
Cd86 O96 2.297 . S
Cd86 O97 2.439 . S
O87 Cd86 2.240 . S
O87 C92 1.279 . S
O88 Cd85 2.297 . S
O88 C90 1.247 . S
O89 Cd85 2.439 . S
O89 C90 1.208 . S
C90 O88 1.247 . S
C90 O89 1.208 . S
C91 O96 1.247 . S
C91 O97 1.208 . S
C92 O84 1.315 . S
C92 O87 1.279 . S
C93 O94 1.315 . S
C93 O95 1.279 . S
O94 Cd86 2.223 . S
O94 C93 1.315 . S
O95 Cd85 2.240 . S
O95 C93 1.279 . S
O96 Cd86 2.297 . S
O96 C91 1.247 . S
O97 Cd86 2.439 . S
O97 C91 1.208 . S
O98 Cd99 2.223 . S
O98 C106 1.315 . S
Cd99 O98 2.223 . S
Cd99 O102 2.297 . S
Cd99 O103 2.439 . S
Cd99 O109 2.240 . S
Cd100 O101 2.240 . S
Cd100 O108 2.223 . S
Cd100 O110 2.297 . S
Cd100 O111 2.439 . S
O101 Cd100 2.240 . S
O101 C106 1.279 . S
O102 Cd99 2.297 . S
O102 C104 1.247 . S
O103 Cd99 2.439 . S
O103 C104 1.208 . S
C104 O102 1.247 . S
C104 O103 1.208 . S
C105 O110 1.247 . S
C105 O111 1.208 . S
C106 O98 1.315 . S
C106 O101 1.279 . S
C107 O108 1.315 . S
C107 O109 1.279 . S
O108 Cd100 2.223 . S
O108 C107 1.315 . S
O109 Cd99 2.240 . S
O109 C107 1.279 . S
O110 Cd100 2.297 . S
O110 C105 1.247 . S
O111 Cd100 2.439 . S
O111 C105 1.208 . S
O112 Cd113 2.223 . S
O112 C120 1.315 . S
Cd113 O112 2.223 . S
Cd113 O116 2.297 . S
Cd113 O117 2.439 . S
Cd113 O123 2.240 . S
Cd114 O115 2.240 . S
Cd114 O122 2.223 . S
Cd114 O124 2.297 . S
Cd114 O125 2.439 . S
O115 Cd114 2.240 . S
O115 C120 1.279 . S
O116 Cd113 2.297 . S
O116 C118 1.247 . S
O117 Cd113 2.439 . S
O117 C118 1.208 . S
C118 O116 1.247 . S
C118 O117 1.208 . S
C119 O124 1.247 . S
C119 O125 1.208 . S
C120 O112 1.315 . S
C120 O115 1.279 . S
C121 O122 1.315 . S
C121 O123 1.279 . S
O122 Cd114 2.223 . S
O122 C121 1.315 . S
O123 Cd113 2.240 . S
O123 C121 1.279 . S
O124 Cd114 2.297 . S
O124 C119 1.247 . S
O125 Cd114 2.439 . S
O125 C119 1.208 . S
O126 Cd127 2.223 . S
O126 C134 1.315 . S
Cd127 O126 2.223 . S
Cd127 O130 2.297 . S
Cd127 O131 2.439 . S
Cd127 O137 2.240 . S
Cd128 O129 2.240 . S
Cd128 O136 2.223 . S
Cd128 O138 2.297 . S
Cd128 O139 2.439 . S
O129 Cd128 2.240 . S
O129 C134 1.279 . S
O130 Cd127 2.297 . S
O130 C132 1.247 . S
O131 Cd127 2.439 . S
O131 C132 1.208 . S
C132 O130 1.247 . S
C132 O131 1.208 . S
C133 O138 1.247 . S
C133 O139 1.208 . S
C134 O126 1.315 . S
C134 O129 1.279 . S
C135 O136 1.315 . S
C135 O137 1.279 . S
O136 Cd128 2.223 . S
O136 C135 1.315 . S
O137 Cd127 2.240 . S
O137 C135 1.279 . S
O138 Cd128 2.297 . S
O138 C133 1.247 . S
O139 Cd128 2.439 . S
O139 C133 1.208 . S
O140 Cd141 2.223 . S
O140 C148 1.315 . S
Cd141 O140 2.223 . S
Cd141 O144 2.297 . S
Cd141 O145 2.439 . S
Cd141 O151 2.240 . S
Cd142 O143 2.240 . S
Cd142 O150 2.223 . S
Cd142 O152 2.297 . S
Cd142 O153 2.439 . S
O143 Cd142 2.240 . S
O143 C148 1.279 . S
O144 Cd141 2.297 . S
O144 C146 1.247 . S
O145 Cd141 2.439 . S
O145 C146 1.208 . S
C146 O144 1.247 . S
C146 O145 1.208 . S
C147 O152 1.247 . S
C147 O153 1.208 . S
C148 O140 1.315 . S
C148 O143 1.279 . S
C149 O150 1.315 . S
C149 O151 1.279 . S
O150 Cd142 2.223 . S
O150 C149 1.315 . S
O151 Cd141 2.240 . S
O151 C149 1.279 . S
O152 Cd142 2.297 . S
O152 C147 1.247 . S
O153 Cd142 2.439 . S
O153 C147 1.208 . S
O154 Cd155 2.223 . S
O154 C162 1.315 . S
Cd155 O154 2.223 . S
Cd155 O158 2.297 . S
Cd155 O159 2.439 . S
Cd155 O165 2.240 . S
Cd156 O157 2.240 . S
Cd156 O164 2.223 . S
Cd156 O166 2.297 . S
Cd156 O167 2.439 . S
O157 Cd156 2.240 . S
O157 C162 1.279 . S
O158 Cd155 2.297 . S
O158 C160 1.247 . S
O159 Cd155 2.439 . S
O159 C160 1.208 . S
C160 O158 1.247 . S
C160 O159 1.208 . S
C161 O166 1.247 . S
C161 O167 1.208 . S
C162 O154 1.315 . S
C162 O157 1.279 . S
C163 O164 1.315 . S
C163 O165 1.279 . S
O164 Cd156 2.223 . S
O164 C163 1.315 . S
O165 Cd155 2.240 . S
O165 C163 1.279 . S
O166 Cd156 2.297 . S
O166 C161 1.247 . S
O167 Cd156 2.439 . S
O167 C161 1.208 . S
O168 Cd169 2.223 . S
O168 C176 1.315 . S
Cd169 O168 2.223 . S
Cd169 O172 2.297 . S
Cd169 O173 2.439 . S
Cd169 O179 2.240 . S
Cd170 O171 2.240 . S
Cd170 O178 2.223 . S
Cd170 O180 2.297 . S
Cd170 O181 2.439 . S
O171 Cd170 2.240 . S
O171 C176 1.279 . S
O172 Cd169 2.297 . S
O172 C174 1.247 . S
O173 Cd169 2.439 . S
O173 C174 1.208 . S
C174 O172 1.247 . S
C174 O173 1.208 . S
C175 O180 1.247 . S
C175 O181 1.208 . S
C176 O168 1.315 . S
C176 O171 1.279 . S
C177 O178 1.315 . S
C177 O179 1.279 . S
O178 Cd170 2.223 . S
O178 C177 1.315 . S
O179 Cd169 2.240 . S
O179 C177 1.279 . S
O180 Cd170 2.297 . S
O180 C175 1.247 . S
O181 Cd170 2.439 . S
O181 C175 1.208 . S
O182 Cd183 2.223 . S
O182 C190 1.315 . S
Cd183 O182 2.223 . S
Cd183 O186 2.297 . S
Cd183 O187 2.439 . S
Cd183 O193 2.240 . S
Cd184 O185 2.240 . S
Cd184 O192 2.223 . S
Cd184 O194 2.297 . S
Cd184 O195 2.439 . S
O185 Cd184 2.240 . S
O185 C190 1.279 . S
O186 Cd183 2.297 . S
O186 C188 1.247 . S
O187 Cd183 2.439 . S
O187 C188 1.208 . S
C188 O186 1.247 . S
C188 O187 1.208 . S
C189 O194 1.247 . S
C189 O195 1.208 . S
C190 O182 1.315 . S
C190 O185 1.279 . S
C191 O192 1.315 . S
C191 O193 1.279 . S
O192 Cd184 2.223 . S
O192 C191 1.315 . S
O193 Cd183 2.240 . S
O193 C191 1.279 . S
O194 Cd184 2.297 . S
O194 C189 1.247 . S
O195 Cd184 2.439 . S
O195 C189 1.208 . S
O196 Cd197 2.223 . S
O196 C204 1.315 . S
Cd197 O196 2.223 . S
Cd197 O200 2.297 . S
Cd197 O201 2.439 . S
Cd197 O207 2.240 . S
Cd198 O199 2.240 . S
Cd198 O206 2.223 . S
Cd198 O208 2.297 . S
Cd198 O209 2.439 . S
O199 Cd198 2.240 . S
O199 C204 1.279 . S
O200 Cd197 2.297 . S
O200 C202 1.247 . S
O201 Cd197 2.439 . S
O201 C202 1.208 . S
C202 O200 1.247 . S
C202 O201 1.208 . S
C203 O208 1.247 . S
C203 O209 1.208 . S
C204 O196 1.315 . S
C204 O199 1.279 . S
C205 O206 1.315 . S
C205 O207 1.279 . S
O206 Cd198 2.223 . S
O206 C205 1.315 . S
O207 Cd197 2.240 . S
O207 C205 1.279 . S
O208 Cd198 2.297 . S
O208 C203 1.247 . S
O209 Cd198 2.439 . S
O209 C203 1.208 . S
O210 Cd211 2.223 . S
O210 C218 1.315 . S
Cd211 O210 2.223 . S
Cd211 O214 2.297 1_554 S
Cd211 O215 2.439 1_554 S
Cd211 O221 2.240 . S
Cd212 O213 2.240 . S
Cd212 O220 2.223 . S
Cd212 O222 2.297 . S
Cd212 O223 2.439 . S
O213 Cd212 2.240 . S
O213 C218 1.279 . S
O214 Cd211 2.297 1_556 S
O214 C216 1.247 . S
O215 Cd211 2.439 1_556 S
O215 C216 1.208 . S
C216 O214 1.247 . S
C216 O215 1.208 . S
C217 O222 1.247 . S
C217 O223 1.208 . S
C218 O210 1.315 . S
C218 O213 1.279 . S
C219 O220 1.315 . S
C219 O221 1.279 . S
O220 Cd212 2.223 . S
O220 C219 1.315 . S
O221 Cd211 2.240 . S
O221 C219 1.279 . S
O222 Cd212 2.297 . S
O222 C217 1.247 . S
O223 Cd212 2.439 . S
O223 C217 1.208 . S
O224 Cd225 2.223 . S
O224 C232 1.315 . S
Cd225 O224 2.223 . S
Cd225 O228 2.297 1_554 S
Cd225 O229 2.439 1_554 S
Cd225 O235 2.240 . S
Cd226 O227 2.240 . S
Cd226 O234 2.223 . S
Cd226 O236 2.297 . S
Cd226 O237 2.439 . S
O227 Cd226 2.240 . S
O227 C232 1.279 . S
O228 Cd225 2.297 1_556 S
O228 C230 1.247 . S
O229 Cd225 2.439 1_556 S
O229 C230 1.208 . S
C230 O228 1.247 . S
C230 O229 1.208 . S
C231 O236 1.247 . S
C231 O237 1.208 . S
C232 O224 1.315 . S
C232 O227 1.279 . S
C233 O234 1.315 . S
C233 O235 1.279 . S
O234 Cd226 2.223 . S
O234 C233 1.315 . S
O235 Cd225 2.240 . S
O235 C233 1.279 . S
O236 Cd226 2.297 . S
O236 C231 1.247 . S
O237 Cd226 2.439 . S
O237 C231 1.208 . S
O238 Cd239 2.223 . S
O238 C246 1.315 . S
Cd239 O238 2.223 . S
Cd239 O242 2.297 1_554 S
Cd239 O243 2.439 1_554 S
Cd239 O249 2.240 . S
Cd240 O241 2.240 . S
Cd240 O248 2.223 . S
Cd240 O250 2.297 . S
Cd240 O251 2.439 . S
O241 Cd240 2.240 . S
O241 C246 1.279 . S
O242 Cd239 2.297 1_556 S
O242 C244 1.247 . S
O243 Cd239 2.439 1_556 S
O243 C244 1.208 . S
C244 O242 1.247 . S
C244 O243 1.208 . S
C245 O250 1.247 . S
C245 O251 1.208 . S
C246 O238 1.315 . S
C246 O241 1.279 . S
C247 O248 1.315 . S
C247 O249 1.279 . S
O248 Cd240 2.223 . S
O248 C247 1.315 . S
O249 Cd239 2.240 . S
O249 C247 1.279 . S
O250 Cd240 2.297 . S
O250 C245 1.247 . S
O251 Cd240 2.439 . S
O251 C245 1.208 . S
O252 Cd253 2.223 . S
O252 C260 1.315 . S
Cd253 O252 2.223 . S
Cd253 O256 2.297 1_554 S
Cd253 O257 2.439 1_554 S
Cd253 O263 2.240 . S
Cd254 O255 2.240 . S
Cd254 O262 2.223 . S
Cd254 O264 2.297 . S
Cd254 O265 2.439 . S
O255 Cd254 2.240 . S
O255 C260 1.279 . S
O256 Cd253 2.297 1_556 S
O256 C258 1.247 . S
O257 Cd253 2.439 1_556 S
O257 C258 1.208 . S
C258 O256 1.247 . S
C258 O257 1.208 . S
C259 O264 1.247 . S
C259 O265 1.208 . S
C260 O252 1.315 . S
C260 O255 1.279 . S
C261 O262 1.315 . S
C261 O263 1.279 . S
O262 Cd254 2.223 . S
O262 C261 1.315 . S
O263 Cd253 2.240 . S
O263 C261 1.279 . S
O264 Cd254 2.297 . S
O264 C259 1.247 . S
O265 Cd254 2.439 . S
O265 C259 1.208 . S
O266 Cd267 2.223 . S
O266 C274 1.315 . S
Cd267 O266 2.223 . S
Cd267 O270 2.297 1_554 S
Cd267 O271 2.439 1_554 S
Cd267 O277 2.240 . S
Cd268 O269 2.240 . S
Cd268 O276 2.223 . S
Cd268 O278 2.297 . S
Cd268 O279 2.439 . S
O269 Cd268 2.240 . S
O269 C274 1.279 . S
O270 Cd267 2.297 1_556 S
O270 C272 1.247 . S
O271 Cd267 2.439 1_556 S
O271 C272 1.208 . S
C272 O270 1.247 . S
C272 O271 1.208 . S
C273 O278 1.247 . S
C273 O279 1.208 . S
C274 O266 1.315 . S
C274 O269 1.279 . S
C275 O276 1.315 . S
C275 O277 1.279 . S
O276 Cd268 2.223 . S
O276 C275 1.315 . S
O277 Cd267 2.240 . S
O277 C275 1.279 . S
O278 Cd268 2.297 . S
O278 C273 1.247 . S
O279 Cd268 2.439 . S
O279 C273 1.208 . S
O280 Cd281 2.223 . S
O280 C288 1.315 . S
Cd281 O280 2.223 . S
Cd281 O284 2.297 1_554 S
Cd281 O285 2.439 1_554 S
Cd281 O291 2.240 . S
Cd282 O283 2.240 . S
Cd282 O290 2.223 . S
Cd282 O292 2.297 . S
Cd282 O293 2.439 . S
O283 Cd282 2.240 . S
O283 C288 1.279 . S
O284 Cd281 2.297 1_556 S
O284 C286 1.247 . S
O285 Cd281 2.439 1_556 S
O285 C286 1.208 . S
C286 O284 1.247 . S
C286 O285 1.208 . S
C287 O292 1.247 . S
C287 O293 1.208 . S
C288 O280 1.315 . S
C288 O283 1.279 . S
C289 O290 1.315 . S
C289 O291 1.279 . S
O290 Cd282 2.223 . S
O290 C289 1.315 . S
O291 Cd281 2.240 . S
O291 C289 1.279 . S
O292 Cd282 2.297 . S
O292 C287 1.247 . S
O293 Cd282 2.439 . S
O293 C287 1.208 . S
O294 Cd295 2.223 . S
O294 C302 1.315 . S
Cd295 O294 2.223 . S
Cd295 O298 2.297 . S
Cd295 O299 2.439 . S
Cd295 O305 2.240 . S
Cd296 O297 2.240 . S
Cd296 O304 2.223 . S
Cd296 O306 2.297 . S
Cd296 O307 2.439 . S
O297 Cd296 2.240 . S
O297 C302 1.279 . S
O298 Cd295 2.297 . S
O298 C300 1.247 . S
O299 Cd295 2.439 . S
O299 C300 1.208 . S
C300 O298 1.247 . S
C300 O299 1.208 . S
C301 O306 1.247 . S
C301 O307 1.208 . S
C302 O294 1.315 . S
C302 O297 1.279 . S
C303 O304 1.315 . S
C303 O305 1.279 . S
O304 Cd296 2.223 . S
O304 C303 1.315 . S
O305 Cd295 2.240 . S
O305 C303 1.279 . S
O306 Cd296 2.297 . S
O306 C301 1.247 . S
O307 Cd296 2.439 . S
O307 C301 1.208 . S
O308 Cd309 2.223 . S
O308 C316 1.315 . S
Cd309 O308 2.223 . S
Cd309 O312 2.297 . S
Cd309 O313 2.439 . S
Cd309 O319 2.240 . S
Cd310 O311 2.240 . S
Cd310 O318 2.223 . S
Cd310 O320 2.297 . S
Cd310 O321 2.439 . S
O311 Cd310 2.240 . S
O311 C316 1.279 . S
O312 Cd309 2.297 . S
O312 C314 1.247 . S
O313 Cd309 2.439 . S
O313 C314 1.208 . S
C314 O312 1.247 . S
C314 O313 1.208 . S
C315 O320 1.247 . S
C315 O321 1.208 . S
C316 O308 1.315 . S
C316 O311 1.279 . S
C317 O318 1.315 . S
C317 O319 1.279 . S
O318 Cd310 2.223 . S
O318 C317 1.315 . S
O319 Cd309 2.240 . S
O319 C317 1.279 . S
O320 Cd310 2.297 . S
O320 C315 1.247 . S
O321 Cd310 2.439 . S
O321 C315 1.208 . S
O322 Cd323 2.223 . S
O322 C330 1.315 . S
Cd323 O322 2.223 . S
Cd323 O326 2.297 . S
Cd323 O327 2.439 . S
Cd323 O333 2.240 . S
Cd324 O325 2.240 . S
Cd324 O332 2.223 . S
Cd324 O334 2.297 . S
Cd324 O335 2.439 . S
O325 Cd324 2.240 . S
O325 C330 1.279 . S
O326 Cd323 2.297 . S
O326 C328 1.247 . S
O327 Cd323 2.439 . S
O327 C328 1.208 . S
C328 O326 1.247 . S
C328 O327 1.208 . S
C329 O334 1.247 . S
C329 O335 1.208 . S
C330 O322 1.315 . S
C330 O325 1.279 . S
C331 O332 1.315 . S
C331 O333 1.279 . S
O332 Cd324 2.223 . S
O332 C331 1.315 . S
O333 Cd323 2.240 . S
O333 C331 1.279 . S
O334 Cd324 2.297 . S
O334 C329 1.247 . S
O335 Cd324 2.439 . S
O335 C329 1.208 . S
O336 Cd337 2.223 . S
O336 C344 1.315 . S
Cd337 O336 2.223 . S
Cd337 O340 2.297 1_556 S
Cd337 O341 2.439 1_556 S
Cd337 O347 2.240 . S
Cd338 O339 2.240 . S
Cd338 O346 2.223 . S
Cd338 O348 2.297 . S
Cd338 O349 2.439 . S
O339 Cd338 2.240 . S
O339 C344 1.279 . S
O340 Cd337 2.297 1_554 S
O340 C342 1.247 . S
O341 Cd337 2.439 1_554 S
O341 C342 1.208 . S
C342 O340 1.247 . S
C342 O341 1.208 . S
C343 O348 1.247 . S
C343 O349 1.208 . S
C344 O336 1.315 . S
C344 O339 1.279 . S
C345 O346 1.315 . S
C345 O347 1.279 . S
O346 Cd338 2.223 . S
O346 C345 1.315 . S
O347 Cd337 2.240 . S
O347 C345 1.279 . S
O348 Cd338 2.297 . S
O348 C343 1.247 . S
O349 Cd338 2.439 . S
O349 C343 1.208 . S
O350 Cd351 2.223 . S
O350 C358 1.315 . S
Cd351 O350 2.223 . S
Cd351 O354 2.297 1_556 S
Cd351 O355 2.439 1_556 S
Cd351 O361 2.240 . S
Cd352 O353 2.240 . S
Cd352 O360 2.223 . S
Cd352 O362 2.297 . S
Cd352 O363 2.439 . S
O353 Cd352 2.240 . S
O353 C358 1.279 . S
O354 Cd351 2.297 1_554 S
O354 C356 1.247 . S
O355 Cd351 2.439 1_554 S
O355 C356 1.208 . S
C356 O354 1.247 . S
C356 O355 1.208 . S
C357 O362 1.247 . S
C357 O363 1.208 . S
C358 O350 1.315 . S
C358 O353 1.279 . S
C359 O360 1.315 . S
C359 O361 1.279 . S
O360 Cd352 2.223 . S
O360 C359 1.315 . S
O361 Cd351 2.240 . S
O361 C359 1.279 . S
O362 Cd352 2.297 . S
O362 C357 1.247 . S
O363 Cd352 2.439 . S
O363 C357 1.208 . S
O364 Cd365 2.223 . S
O364 C372 1.315 . S
Cd365 O364 2.223 . S
Cd365 O368 2.297 1_556 S
Cd365 O369 2.439 1_556 S
Cd365 O375 2.240 . S
Cd366 O367 2.240 . S
Cd366 O374 2.223 . S
Cd366 O376 2.297 . S
Cd366 O377 2.439 . S
O367 Cd366 2.240 . S
O367 C372 1.279 . S
O368 Cd365 2.297 1_554 S
O368 C370 1.247 . S
O369 Cd365 2.439 1_554 S
O369 C370 1.208 . S
C370 O368 1.247 . S
C370 O369 1.208 . S
C371 O376 1.247 . S
C371 O377 1.208 . S
C372 O364 1.315 . S
C372 O367 1.279 . S
C373 O374 1.315 . S
C373 O375 1.279 . S
O374 Cd366 2.223 . S
O374 C373 1.315 . S
O375 Cd365 2.240 . S
O375 C373 1.279 . S
O376 Cd366 2.297 . S
O376 C371 1.247 . S
O377 Cd366 2.439 . S
O377 C371 1.208 . S
O378 Cd379 2.223 . S
O378 C386 1.315 . S
Cd379 O378 2.223 . S
Cd379 O382 2.297 . S
Cd379 O383 2.439 . S
Cd379 O389 2.240 . S
Cd380 O381 2.240 . S
Cd380 O388 2.223 . S
Cd380 O390 2.297 . S
Cd380 O391 2.439 . S
O381 Cd380 2.240 . S
O381 C386 1.279 . S
O382 Cd379 2.297 . S
O382 C384 1.247 . S
O383 Cd379 2.439 . S
O383 C384 1.208 . S
C384 O382 1.247 . S
C384 O383 1.208 . S
C385 O390 1.247 . S
C385 O391 1.208 . S
C386 O378 1.315 . S
C386 O381 1.279 . S
C387 O388 1.315 . S
C387 O389 1.279 . S
O388 Cd380 2.223 . S
O388 C387 1.315 . S
O389 Cd379 2.240 . S
O389 C387 1.279 . S
O390 Cd380 2.297 . S
O390 C385 1.247 . S
O391 Cd380 2.439 . S
O391 C385 1.208 . S
O392 Cd393 2.223 . S
O392 C400 1.315 . S
Cd393 O392 2.223 . S
Cd393 O396 2.297 . S
Cd393 O397 2.439 . S
Cd393 O403 2.240 . S
Cd394 O395 2.240 . S
Cd394 O402 2.223 . S
Cd394 O404 2.297 . S
Cd394 O405 2.439 . S
O395 Cd394 2.240 . S
O395 C400 1.279 . S
O396 Cd393 2.297 . S
O396 C398 1.247 . S
O397 Cd393 2.439 . S
O397 C398 1.208 . S
C398 O396 1.247 . S
C398 O397 1.208 . S
C399 O404 1.247 . S
C399 O405 1.208 . S
C400 O392 1.315 . S
C400 O395 1.279 . S
C401 O402 1.315 . S
C401 O403 1.279 . S
O402 Cd394 2.223 . S
O402 C401 1.315 . S
O403 Cd393 2.240 . S
O403 C401 1.279 . S
O404 Cd394 2.297 . S
O404 C399 1.247 . S
O405 Cd394 2.439 . S
O405 C399 1.208 . S
O406 Cd407 2.223 . S
O406 C414 1.315 . S
Cd407 O406 2.223 . S
Cd407 O410 2.297 . S
Cd407 O411 2.439 . S
Cd407 O417 2.240 . S
Cd408 O409 2.240 . S
Cd408 O416 2.223 . S
Cd408 O418 2.297 . S
Cd408 O419 2.439 . S
O409 Cd408 2.240 . S
O409 C414 1.279 . S
O410 Cd407 2.297 . S
O410 C412 1.247 . S
O411 Cd407 2.439 . S
O411 C412 1.208 . S
C412 O410 1.247 . S
C412 O411 1.208 . S
C413 O418 1.247 . S
C413 O419 1.208 . S
C414 O406 1.315 . S
C414 O409 1.279 . S
C415 O416 1.315 . S
C415 O417 1.279 . S
O416 Cd408 2.223 . S
O416 C415 1.315 . S
O417 Cd407 2.240 . S
O417 C415 1.279 . S
O418 Cd408 2.297 . S
O418 C413 1.247 . S
O419 Cd408 2.439 . S
O419 C413 1.208 . S
O420 Cd421 2.223 . S
O420 C428 1.315 . S
Cd421 O420 2.223 . S
Cd421 O424 2.297 . S
Cd421 O425 2.439 . S
Cd421 O431 2.240 . S
Cd422 O423 2.240 . S
Cd422 O430 2.223 . S
Cd422 O432 2.297 . S
Cd422 O433 2.439 . S
O423 Cd422 2.240 . S
O423 C428 1.279 . S
O424 Cd421 2.297 . S
O424 C426 1.247 . S
O425 Cd421 2.439 . S
O425 C426 1.208 . S
C426 O424 1.247 . S
C426 O425 1.208 . S
C427 O432 1.247 . S
C427 O433 1.208 . S
C428 O420 1.315 . S
C428 O423 1.279 . S
C429 O430 1.315 . S
C429 O431 1.279 . S
O430 Cd422 2.223 . S
O430 C429 1.315 . S
O431 Cd421 2.240 . S
O431 C429 1.279 . S
O432 Cd422 2.297 . S
O432 C427 1.247 . S
O433 Cd422 2.439 . S
O433 C427 1.208 . S
O434 Cd435 2.223 . S
O434 C442 1.315 . S
Cd435 O434 2.223 . S
Cd435 O438 2.297 . S
Cd435 O439 2.439 . S
Cd435 O445 2.240 . S
Cd436 O437 2.240 . S
Cd436 O444 2.223 . S
Cd436 O446 2.297 . S
Cd436 O447 2.439 . S
O437 Cd436 2.240 . S
O437 C442 1.279 . S
O438 Cd435 2.297 . S
O438 C440 1.247 . S
O439 Cd435 2.439 . S
O439 C440 1.208 . S
C440 O438 1.247 . S
C440 O439 1.208 . S
C441 O446 1.247 . S
C441 O447 1.208 . S
C442 O434 1.315 . S
C442 O437 1.279 . S
C443 O444 1.315 . S
C443 O445 1.279 . S
O444 Cd436 2.223 . S
O444 C443 1.315 . S
O445 Cd435 2.240 . S
O445 C443 1.279 . S
O446 Cd436 2.297 . S
O446 C441 1.247 . S
O447 Cd436 2.439 . S
O447 C441 1.208 . S
O448 Cd449 2.223 . S
O448 C456 1.315 . S
Cd449 O448 2.223 . S
Cd449 O452 2.297 . S
Cd449 O453 2.439 . S
Cd449 O459 2.240 . S
Cd450 O451 2.240 . S
Cd450 O458 2.223 . S
Cd450 O460 2.297 . S
Cd450 O461 2.439 . S
O451 Cd450 2.240 . S
O451 C456 1.279 . S
O452 Cd449 2.297 . S
O452 C454 1.247 . S
O453 Cd449 2.439 . S
O453 C454 1.208 . S
C454 O452 1.247 . S
C454 O453 1.208 . S
C455 O460 1.247 . S
C455 O461 1.208 . S
C456 O448 1.315 . S
C456 O451 1.279 . S
C457 O458 1.315 . S
C457 O459 1.279 . S
O458 Cd450 2.223 . S
O458 C457 1.315 . S
O459 Cd449 2.240 . S
O459 C457 1.279 . S
O460 Cd450 2.297 . S
O460 C455 1.247 . S
O461 Cd450 2.439 . S
O461 C455 1.208 . S
O462 Cd463 2.223 . S
O462 C470 1.315 . S
Cd463 O462 2.223 . S
Cd463 O466 2.297 1_556 S
Cd463 O467 2.439 1_556 S
Cd463 O473 2.240 . S
Cd464 O465 2.240 . S
Cd464 O472 2.223 . S
Cd464 O474 2.297 . S
Cd464 O475 2.439 . S
O465 Cd464 2.240 . S
O465 C470 1.279 . S
O466 Cd463 2.297 1_554 S
O466 C468 1.247 . S
O467 Cd463 2.439 1_554 S
O467 C468 1.208 . S
C468 O466 1.247 . S
C468 O467 1.208 . S
C469 O474 1.247 . S
C469 O475 1.208 . S
C470 O462 1.315 . S
C470 O465 1.279 . S
C471 O472 1.315 . S
C471 O473 1.279 . S
O472 Cd464 2.223 . S
O472 C471 1.315 . S
O473 Cd463 2.240 . S
O473 C471 1.279 . S
O474 Cd464 2.297 . S
O474 C469 1.247 . S
O475 Cd464 2.439 . S
O475 C469 1.208 . S
O476 Cd477 2.223 . S
O476 C484 1.315 . S
Cd477 O476 2.223 . S
Cd477 O480 2.297 1_556 S
Cd477 O481 2.439 1_556 S
Cd477 O487 2.240 . S
Cd478 O479 2.240 . S
Cd478 O486 2.223 . S
Cd478 O488 2.297 . S
Cd478 O489 2.439 . S
O479 Cd478 2.240 . S
O479 C484 1.279 . S
O480 Cd477 2.297 1_554 S
O480 C482 1.247 . S
O481 Cd477 2.439 1_554 S
O481 C482 1.208 . S
C482 O480 1.247 . S
C482 O481 1.208 . S
C483 O488 1.247 . S
C483 O489 1.208 . S
C484 O476 1.315 . S
C484 O479 1.279 . S
C485 O486 1.315 . S
C485 O487 1.279 . S
O486 Cd478 2.223 . S
O486 C485 1.315 . S
O487 Cd477 2.240 . S
O487 C485 1.279 . S
O488 Cd478 2.297 . S
O488 C483 1.247 . S
O489 Cd478 2.439 . S
O489 C483 1.208 . S
O490 Cd491 2.223 . S
O490 C498 1.315 . S
Cd491 O490 2.223 . S
Cd491 O494 2.297 1_556 S
Cd491 O495 2.439 1_556 S
Cd491 O501 2.240 . S
Cd492 O493 2.240 . S
Cd492 O500 2.223 . S
Cd492 O502 2.297 . S
Cd492 O503 2.439 . S
O493 Cd492 2.240 . S
O493 C498 1.279 . S
O494 Cd491 2.297 1_554 S
O494 C496 1.247 . S
O495 Cd491 2.439 1_554 S
O495 C496 1.208 . S
C496 O494 1.247 . S
C496 O495 1.208 . S
C497 O502 1.247 . S
C497 O503 1.208 . S
C498 O490 1.315 . S
C498 O493 1.279 . S
C499 O500 1.315 . S
C499 O501 1.279 . S
O500 Cd492 2.223 . S
O500 C499 1.315 . S
O501 Cd491 2.240 . S
O501 C499 1.279 . S
O502 Cd492 2.297 . S
O502 C497 1.247 . S
O503 Cd492 2.439 . S
O503 C497 1.208 . S
C504 C505 1.363 . S
C504 C510 1.356 1_565 S
C504 N512 1.356 . S
C505 C504 1.363 . S
C505 C511 1.404 . S
C506 C507 1.363 . S
C506 C511 1.357 1_545 S
C506 N513 1.356 . S
C507 C506 1.363 . S
C507 C510 1.405 . S
N508 C510 1.351 . S
N508 H520 0.943 1_545 S
N508 H521 0.985 . S
N509 C511 1.351 . S
N509 H514 0.984 . S
N509 H515 0.942 1_565 S
C510 C504 1.356 1_545 S
C510 C507 1.405 . S
C510 N508 1.351 . S
C511 C505 1.404 . S
C511 C506 1.357 1_565 S
C511 N509 1.351 . S
N512 C504 1.356 . S
N512 H518 0.984 . S
N512 H519 0.984 . S
N513 C506 1.356 . S
N513 H516 0.984 . S
N513 H517 0.985 . S
H514 N509 0.984 . S
H515 N509 0.942 1_545 S
H516 N513 0.984 . S
H517 N513 0.985 . S
H518 N512 0.984 . S
H519 N512 0.984 . S
H520 N508 0.943 1_565 S
H521 N508 0.985 . S
C522 C523 1.364 . S
C522 C528 1.375 1_455 S
C522 N530 1.361 . S
C523 C522 1.364 . S
C523 C529 1.363 . S
C524 C525 1.364 . S
C524 C529 1.375 1_655 S
C524 N531 1.360 . S
C525 C524 1.364 . S
C525 C528 1.363 . S
N526 C528 1.356 . S
N526 H538 0.984 . S
N526 H539 0.985 . S
N527 C529 1.356 . S
N527 H532 0.984 . S
N527 H533 0.985 . S
C528 C522 1.375 1_655 S
C528 C525 1.363 . S
C528 N526 1.356 . S
C529 C523 1.363 . S
C529 C524 1.375 1_455 S
C529 N527 1.356 . S
N530 C522 1.361 . S
N530 H536 0.984 1_455 S
N530 H537 0.984 . S
N531 C524 1.360 . S
N531 H534 0.984 . S
N531 H535 0.985 1_655 S
H532 N527 0.984 . S
H533 N527 0.985 . S
H534 N531 0.984 . S
H535 N531 0.985 1_455 S
H536 N530 0.984 1_655 S
H537 N530 0.984 . S
H538 N526 0.984 . S
H539 N526 0.985 . S
C540 C541 1.363 . S
C540 C546 1.379 . S
C540 N548 1.356 . S
C541 C540 1.363 . S
C541 C547 1.363 . S
C542 C543 1.363 . S
C542 C547 1.379 . S
C542 N549 1.356 . S
C543 C542 1.363 . S
C543 C546 1.363 . S
N544 C546 1.356 . S
N544 H556 0.984 . S
N544 H557 0.985 . S
N545 C547 1.356 . S
N545 H550 0.984 . S
N545 H551 0.985 . S
C546 C540 1.379 . S
C546 C543 1.363 . S
C546 N544 1.356 . S
C547 C541 1.363 . S
C547 C542 1.379 . S
C547 N545 1.356 . S
N548 C540 1.356 . S
N548 H554 0.984 . S
N548 H555 0.984 . S
N549 C542 1.356 . S
N549 H552 0.984 . S
N549 H553 0.985 . S
H550 N545 0.984 . S
H551 N545 0.985 . S
H552 N549 0.984 . S
H553 N549 0.985 . S
H554 N548 0.984 . S
H555 N548 0.984 . S
H556 N544 0.984 . S
H557 N544 0.985 . S
C558 C559 1.363 . S
C558 C564 1.379 . S
C558 N566 1.356 . S
C559 C558 1.363 . S
C559 C565 1.363 1_565 S
C560 C561 1.363 . S
C560 C565 1.379 . S
C560 N567 1.356 . S
C561 C560 1.363 . S
C561 C564 1.363 1_545 S
N562 C564 1.356 . S
N562 H574 0.984 . S
N562 H575 0.985 1_565 S
N563 C565 1.356 . S
N563 H568 0.984 1_545 S
N563 H569 0.985 . S
C564 C558 1.379 . S
C564 C561 1.363 1_565 S
C564 N562 1.356 . S
C565 C559 1.363 1_545 S
C565 C560 1.379 . S
C565 N563 1.356 . S
N566 C558 1.356 . S
N566 H572 0.984 . S
N566 H573 0.984 . S
N567 C560 1.356 . S
N567 H570 0.984 . S
N567 H571 0.985 . S
H568 N563 0.984 1_565 S
H569 N563 0.985 . S
H570 N567 0.984 . S
H571 N567 0.985 . S
H572 N566 0.984 . S
H573 N566 0.984 . S
H574 N562 0.984 . S
H575 N562 0.985 1_545 S
C576 C577 1.363 . S
C576 C582 1.379 . S
C576 N584 1.356 . S
C577 C576 1.363 . S
C577 C583 1.363 1_455 S
C578 C579 1.363 . S
C578 C583 1.379 . S
C578 N585 1.356 . S
C579 C578 1.363 . S
C579 C582 1.363 1_655 S
N580 C582 1.356 . S
N580 H592 0.984 . S
N580 H593 0.994 . S
N581 C583 1.356 . S
N581 H586 0.994 . S
N581 H587 0.985 . S
C582 C576 1.379 . S
C582 C579 1.363 1_455 S
C582 N580 1.356 . S
C583 C577 1.363 1_655 S
C583 C578 1.379 . S
C583 N581 1.356 . S
N584 C576 1.356 . S
N584 H590 0.984 . S
N584 H591 0.984 . S
N585 C578 1.356 . S
N585 H588 0.984 . S
N585 H589 0.985 . S
H586 N581 0.994 . S
H587 N581 0.985 . S
H588 N585 0.984 . S
H589 N585 0.985 . S
H590 N584 0.984 . S
H591 N584 0.984 . S
H592 N580 0.984 . S
H593 N580 0.994 . S
C594 C595 1.363 . S
C594 C600 1.379 . S
C594 N602 1.356 . S
C595 C594 1.363 . S
C595 C601 1.363 . S
C596 C597 1.363 . S
C596 C601 1.379 . S
C596 N603 1.356 . S
C597 C596 1.363 . S
C597 C600 1.363 . S
N598 C600 1.356 . S
N598 H610 0.984 . S
N598 H611 0.985 . S
N599 C601 1.356 . S
N599 H604 0.984 . S
N599 H605 0.985 . S
C600 C594 1.379 . S
C600 C597 1.363 . S
C600 N598 1.356 . S
C601 C595 1.363 . S
C601 C596 1.379 . S
C601 N599 1.356 . S
N602 C594 1.356 . S
N602 H608 0.984 . S
N602 H609 0.984 . S
N603 C596 1.356 . S
N603 H606 0.984 . S
N603 H607 0.985 . S
H604 N599 0.984 . S
H605 N599 0.985 . S
H606 N603 0.984 . S
H607 N603 0.985 . S
H608 N602 0.984 . S
H609 N602 0.984 . S
H610 N598 0.984 . S
H611 N598 0.985 . S
C612 C613 1.363 . S
C612 C618 1.379 . S
C612 N620 1.356 . S
C613 C612 1.363 . S
C613 C619 1.363 . S
C614 C615 1.363 . S
C614 C619 1.379 . S
C614 N621 1.356 . S
C615 C614 1.363 . S
C615 C618 1.363 . S
N616 C618 1.356 . S
N616 H628 0.984 . S
N616 H629 0.985 . S
N617 C619 1.356 . S
N617 H622 0.984 . S
N617 H623 0.985 . S
C618 C612 1.379 . S
C618 C615 1.363 . S
C618 N616 1.356 . S
C619 C613 1.363 . S
C619 C614 1.379 . S
C619 N617 1.356 . S
N620 C612 1.356 . S
N620 H626 0.984 . S
N620 H627 0.984 . S
N621 C614 1.356 . S
N621 H624 0.984 . S
N621 H625 0.985 . S
H622 N617 0.984 . S
H623 N617 0.985 . S
H624 N621 0.984 . S
H625 N621 0.985 . S
H626 N620 0.984 . S
H627 N620 0.984 . S
H628 N616 0.984 . S
H629 N616 0.985 . S
C630 C631 1.363 . S
C630 C636 1.379 . S
C630 N638 1.356 . S
C631 C630 1.363 . S
C631 C637 1.363 . S
C632 C633 1.363 . S
C632 C637 1.379 . S
C632 N639 1.356 . S
C633 C632 1.363 . S
C633 C636 1.363 . S
N634 C636 1.356 . S
N634 H646 0.984 . S
N634 H647 0.986 . S
N635 C637 1.356 . S
N635 H640 0.984 . S
N635 H641 0.985 . S
C636 C630 1.379 . S
C636 C633 1.363 . S
C636 N634 1.356 . S
C637 C631 1.363 . S
C637 C632 1.379 . S
C637 N635 1.356 . S
N638 C630 1.356 . S
N638 H644 0.984 . S
N638 H645 0.984 . S
N639 C632 1.356 . S
N639 H642 0.984 . S
N639 H643 0.985 . S
H640 N635 0.984 . S
H641 N635 0.985 . S
H642 N639 0.984 . S
H643 N639 0.985 . S
H644 N638 0.984 . S
H645 N638 0.984 . S
H646 N634 0.984 . S
H647 N634 0.986 . S
C648 C649 1.363 . S
C648 C654 1.379 . S
C648 N656 1.356 . S
C649 C648 1.363 . S
C649 C655 1.363 . S
C650 C651 1.363 . S
C650 C655 1.379 . S
C650 N657 1.356 . S
C651 C650 1.363 . S
C651 C654 1.363 . S
N652 C654 1.356 . S
N652 H664 0.984 . S
N652 H665 0.985 . S
N653 C655 1.356 . S
N653 H658 0.984 . S
N653 H659 0.985 . S
C654 C648 1.379 . S
C654 C651 1.363 . S
C654 N652 1.356 . S
C655 C649 1.363 . S
C655 C650 1.379 . S
C655 N653 1.356 . S
N656 C648 1.356 . S
N656 H662 0.984 . S
N656 H663 0.984 . S
N657 C650 1.356 . S
N657 H660 0.984 . S
N657 H661 0.985 . S
H658 N653 0.984 . S
H659 N653 0.985 . S
H660 N657 0.984 . S
H661 N657 0.985 . S
H662 N656 0.984 . S
H663 N656 0.984 . S
H664 N652 0.984 . S
H665 N652 0.985 . S
C666 C667 1.363 . S
C666 C672 1.379 . S
C666 N674 1.356 . S
C667 C666 1.363 . S
C667 C673 1.363 . S
C668 C669 1.363 . S
C668 C673 1.379 . S
C668 N675 1.356 . S
C669 C668 1.363 . S
C669 C672 1.363 . S
N670 C672 1.356 . S
N670 H682 0.984 . S
N670 H683 0.985 . S
N671 C673 1.356 . S
N671 H676 0.984 . S
N671 H677 0.985 . S
C672 C666 1.379 . S
C672 C669 1.363 . S
C672 N670 1.356 . S
C673 C667 1.363 . S
C673 C668 1.379 . S
C673 N671 1.356 . S
N674 C666 1.356 . S
N674 H680 0.984 . S
N674 H681 0.984 . S
N675 C668 1.356 . S
N675 H678 0.984 . S
N675 H679 0.985 . S
H676 N671 0.984 . S
H677 N671 0.985 . S
H678 N675 0.984 . S
H679 N675 0.985 . S
H680 N674 0.984 . S
H681 N674 0.984 . S
H682 N670 0.984 . S
H683 N670 0.985 . S
C684 C685 1.363 . S
C684 C690 1.379 . S
C684 N692 1.356 . S
C685 C684 1.363 . S
C685 C691 1.363 . S
C686 C687 1.363 . S
C686 C691 1.379 . S
C686 N693 1.356 . S
C687 C686 1.363 . S
C687 C690 1.363 . S
N688 C690 1.356 . S
N688 H700 0.984 . S
N688 H701 0.985 . S
N689 C691 1.356 . S
N689 H694 0.984 . S
N689 H695 0.985 . S
C690 C684 1.379 . S
C690 C687 1.363 . S
C690 N688 1.356 . S
C691 C685 1.363 . S
C691 C686 1.379 . S
C691 N689 1.356 . S
N692 C684 1.356 . S
N692 H698 0.984 . S
N692 H699 0.984 . S
N693 C686 1.356 . S
N693 H696 0.984 . S
N693 H697 0.985 . S
H694 N689 0.984 . S
H695 N689 0.985 . S
H696 N693 0.984 . S
H697 N693 0.985 . S
H698 N692 0.984 . S
H699 N692 0.984 . S
H700 N688 0.984 . S
H701 N688 0.985 . S
C702 C703 1.363 . S
C702 C708 1.379 . S
C702 N710 1.356 . S
C703 C702 1.363 . S
C703 C709 1.363 . S
C704 C705 1.363 . S
C704 C709 1.379 . S
C704 N711 1.356 . S
C705 C704 1.363 . S
C705 C708 1.363 . S
N706 C708 1.356 . S
N706 H718 0.984 . S
N706 H719 0.985 . S
N707 C709 1.356 . S
N707 H712 0.984 . S
N707 H713 0.985 . S
C708 C702 1.379 . S
C708 C705 1.363 . S
C708 N706 1.356 . S
C709 C703 1.363 . S
C709 C704 1.379 . S
C709 N707 1.356 . S
N710 C702 1.356 . S
N710 H716 0.984 . S
N710 H717 0.984 . S
N711 C704 1.356 . S
N711 H714 0.984 . S
N711 H715 0.985 . S
H712 N707 0.984 . S
H713 N707 0.985 . S
H714 N711 0.984 . S
H715 N711 0.985 . S
H716 N710 0.984 . S
H717 N710 0.984 . S
H718 N706 0.984 . S
H719 N706 0.985 . S
C720 C721 1.363 . S
C720 C726 1.379 . S
C720 N728 1.356 . S
C721 C720 1.363 . S
C721 C727 1.363 . S
C722 C723 1.363 . S
C722 C727 1.379 . S
C722 N729 1.356 . S
C723 C722 1.363 . S
C723 C726 1.363 . S
N724 C726 1.356 . S
N724 H736 0.984 . S
N724 H737 0.985 1_554 S
N725 C727 1.356 . S
N725 H730 0.984 . S
N725 H731 0.985 . S
C726 C720 1.379 . S
C726 C723 1.363 . S
C726 N724 1.356 . S
C727 C721 1.363 . S
C727 C722 1.379 . S
C727 N725 1.356 . S
N728 C720 1.356 . S
N728 H734 0.984 . S
N728 H735 0.984 . S
N729 C722 1.356 . S
N729 H732 0.984 . S
N729 H733 0.985 . S
H730 N725 0.984 . S
H731 N725 0.985 . S
H732 N729 0.984 . S
H733 N729 0.985 . S
H734 N728 0.984 . S
H735 N728 0.984 . S
H736 N724 0.984 . S
H737 N724 0.985 1_556 S
C738 C739 1.363 . S
C738 C744 1.379 . S
C738 N746 1.356 . S
C739 C738 1.363 . S
C739 C745 1.363 . S
C740 C741 1.363 . S
C740 C745 1.379 . S
C740 N747 1.356 . S
C741 C740 1.363 . S
C741 C744 1.363 . S
N742 C744 1.356 . S
N742 H754 0.984 . S
N742 H755 0.985 . S
N743 C745 1.356 . S
N743 H748 0.984 . S
N743 H749 0.985 . S
C744 C738 1.379 . S
C744 C741 1.363 . S
C744 N742 1.356 . S
C745 C739 1.363 . S
C745 C740 1.379 . S
C745 N743 1.356 . S
N746 C738 1.356 . S
N746 H752 0.984 . S
N746 H753 0.984 . S
N747 C740 1.356 . S
N747 H750 0.984 1_554 S
N747 H751 0.985 . S
H748 N743 0.984 . S
H749 N743 0.985 . S
H750 N747 0.984 1_556 S
H751 N747 0.985 . S
H752 N746 0.984 . S
H753 N746 0.984 . S
H754 N742 0.984 . S
H755 N742 0.985 . S
C756 C757 1.363 . S
C756 C762 1.379 . S
C756 N764 1.356 . S
C757 C756 1.363 . S
C757 C763 1.363 . S
C758 C759 1.363 . S
C758 C763 1.379 . S
C758 N765 1.356 . S
C759 C758 1.363 . S
C759 C762 1.363 . S
N760 C762 1.356 . S
N760 H772 0.984 . S
N760 H773 0.985 . S
N761 C763 1.356 . S
N761 H766 0.984 . S
N761 H767 0.985 . S
C762 C756 1.379 . S
C762 C759 1.363 . S
C762 N760 1.356 . S
C763 C757 1.363 . S
C763 C758 1.379 . S
C763 N761 1.356 . S
N764 C756 1.356 . S
N764 H770 0.984 . S
N764 H771 0.984 . S
N765 C758 1.356 . S
N765 H768 0.984 . S
N765 H769 0.985 . S
H766 N761 0.984 . S
H767 N761 0.985 . S
H768 N765 0.984 . S
H769 N765 0.985 . S
H770 N764 0.984 . S
H771 N764 0.984 . S
H772 N760 0.984 . S
H773 N760 0.985 . S
C774 C775 1.363 . S
C774 C780 1.379 . S
C774 N782 1.356 . S
C775 C774 1.363 . S
C775 C781 1.363 . S
C776 C777 1.363 . S
C776 C781 1.379 . S
C776 N783 1.356 . S
C777 C776 1.363 . S
C777 C780 1.363 . S
N778 C780 1.356 . S
N778 H790 0.984 . S
N778 H791 0.985 . S
N779 C781 1.356 . S
N779 H784 0.984 . S
N779 H785 0.985 . S
C780 C774 1.379 . S
C780 C777 1.363 . S
C780 N778 1.356 . S
C781 C775 1.363 . S
C781 C776 1.379 . S
C781 N779 1.356 . S
N782 C774 1.356 . S
N782 H788 0.984 . S
N782 H789 0.984 . S
N783 C776 1.356 . S
N783 H786 0.984 . S
N783 H787 0.985 . S
H784 N779 0.984 . S
H785 N779 0.985 . S
H786 N783 0.984 . S
H787 N783 0.985 . S
H788 N782 0.984 . S
H789 N782 0.984 . S
H790 N778 0.984 . S
H791 N778 0.985 . S
C792 C793 1.363 . S
C792 C798 1.379 . S
C792 N800 1.356 . S
C793 C792 1.363 . S
C793 C799 1.363 . S
C794 C795 1.363 . S
C794 C799 1.379 . S
C794 N801 1.356 . S
C795 C794 1.363 . S
C795 C798 1.363 . S
N796 C798 1.356 . S
N796 H808 0.984 . S
N796 H809 0.985 1_554 S
N797 C799 1.356 . S
N797 H802 0.984 . S
N797 H803 0.985 . S
C798 C792 1.379 . S
C798 C795 1.363 . S
C798 N796 1.356 . S
C799 C793 1.363 . S
C799 C794 1.379 . S
C799 N797 1.356 . S
N800 C792 1.356 . S
N800 H806 0.984 . S
N800 H807 0.984 . S
N801 C794 1.356 . S
N801 H804 0.984 . S
N801 H805 0.985 . S
H802 N797 0.984 . S
H803 N797 0.985 . S
H804 N801 0.984 . S
H805 N801 0.985 . S
H806 N800 0.984 . S
H807 N800 0.984 . S
H808 N796 0.984 . S
H809 N796 0.985 1_556 S
C810 C811 1.363 . S
C810 C816 1.379 . S
C810 N818 1.356 . S
C811 C810 1.363 . S
C811 C817 1.363 . S
C812 C813 1.363 . S
C812 C817 1.379 . S
C812 N819 1.356 . S
C813 C812 1.363 . S
C813 C816 1.363 . S
N814 C816 1.356 . S
N814 H826 0.984 . S
N814 H827 0.985 . S
N815 C817 1.356 . S
N815 H820 0.984 . S
N815 H821 0.985 . S
C816 C810 1.379 . S
C816 C813 1.363 . S
C816 N814 1.356 . S
C817 C811 1.363 . S
C817 C812 1.379 . S
C817 N815 1.356 . S
N818 C810 1.356 . S
N818 H824 0.984 . S
N818 H825 0.984 . S
N819 C812 1.356 . S
N819 H822 0.984 1_554 S
N819 H823 0.985 . S
H820 N815 0.984 . S
H821 N815 0.985 . S
H822 N819 0.984 1_556 S
H823 N819 0.985 . S
H824 N818 0.984 . S
H825 N818 0.984 . S
H826 N814 0.984 . S
H827 N814 0.985 . S
C828 C829 1.363 1_545 S
C828 C834 1.379 1_556 S
C828 N836 1.356 1_545 S
C829 C828 1.363 1_565 S
C829 C835 1.363 . S
C830 C831 1.363 1_565 S
C830 C835 1.379 1_554 S
C830 N837 1.356 1_565 S
C831 C830 1.363 1_545 S
C831 C834 1.363 . S
N832 C834 1.356 . S
N832 H844 0.984 . S
N832 H845 0.985 . S
N833 C835 1.356 . S
N833 H838 0.984 . S
N833 H839 0.985 . S
C834 C828 1.379 1_554 S
C834 C831 1.363 . S
C834 N832 1.356 . S
C835 C829 1.363 . S
C835 C830 1.379 1_556 S
C835 N833 1.356 . S
N836 C828 1.356 1_565 S
N836 H842 0.984 1_565 S
N836 H843 0.984 . S
N837 C830 1.356 1_545 S
N837 H840 0.984 . S
N837 H841 0.985 1_545 S
H838 N833 0.984 . S
H839 N833 0.985 . S
H840 N837 0.984 . S
H841 N837 0.985 1_565 S
H842 N836 0.984 1_545 S
H843 N836 0.984 . S
H844 N832 0.984 . S
H845 N832 0.985 . S
C846 C847 1.363 1_455 S
C846 C852 1.379 1_554 S
C846 N854 1.352 . S
C847 C846 1.363 1_655 S
C847 C853 1.363 . S
C848 C849 1.363 1_655 S
C848 C853 1.379 1_556 S
C848 N855 1.352 . S
C849 C848 1.363 1_455 S
C849 C852 1.363 . S
N850 C852 1.356 . S
N850 H862 0.984 1_556 S
N850 H863 0.985 . S
N851 C853 1.356 . S
N851 H856 0.984 . S
N851 H857 0.985 1_554 S
C852 C846 1.379 1_556 S
C852 C849 1.363 . S
C852 N850 1.356 . S
C853 C847 1.363 . S
C853 C848 1.379 1_554 S
C853 N851 1.356 . S
N854 C846 1.352 . S
N854 H860 1.012 . S
N854 H861 0.962 1_455 S
N855 C848 1.352 . S
N855 H858 0.962 1_655 S
N855 H859 1.013 . S
H856 N851 0.984 . S
H857 N851 0.985 1_556 S
H858 N855 0.962 1_455 S
H859 N855 1.013 . S
H860 N854 1.012 . S
H861 N854 0.962 1_655 S
H862 N850 0.984 1_554 S
H863 N850 0.985 . S
C864 C865 1.363 . S
C864 C870 1.379 1_556 S
C864 N872 1.356 . S
C865 C864 1.363 . S
C865 C871 1.363 . S
C866 C867 1.363 . S
C866 C871 1.379 1_554 S
C866 N873 1.356 . S
C867 C866 1.363 . S
C867 C870 1.363 . S
N868 C870 1.356 . S
N868 H880 0.984 . S
N868 H881 0.985 . S
N869 C871 1.356 . S
N869 H874 0.984 . S
N869 H875 0.985 . S
C870 C864 1.379 1_554 S
C870 C867 1.363 . S
C870 N868 1.356 . S
C871 C865 1.363 . S
C871 C866 1.379 1_556 S
C871 N869 1.356 . S
N872 C864 1.356 . S
N872 H878 0.984 . S
N872 H879 0.984 . S
N873 C866 1.356 . S
N873 H876 0.984 . S
N873 H877 0.985 . S
H874 N869 0.984 . S
H875 N869 0.985 . S
H876 N873 0.984 . S
H877 N873 0.985 . S
H878 N872 0.984 . S
H879 N872 0.984 . S
H880 N868 0.984 . S
H881 N868 0.985 . S
C882 C883 1.363 1_554 S
C882 C888 1.379 . S
C882 N890 1.356 1_554 S
C883 C882 1.363 1_556 S
C883 C889 1.363 1_565 S
C884 C885 1.363 1_556 S
C884 C889 1.379 . S
C884 N891 1.356 1_556 S
C885 C884 1.363 1_554 S
C885 C888 1.363 1_545 S
N886 C888 1.356 . S
N886 H898 0.984 . S
N886 H899 0.985 1_565 S
N887 C889 1.356 . S
N887 H892 0.984 1_545 S
N887 H893 0.985 . S
C888 C882 1.379 . S
C888 C885 1.363 1_565 S
C888 N886 1.356 . S
C889 C883 1.363 1_545 S
C889 C884 1.379 . S
C889 N887 1.356 . S
N890 C882 1.356 1_556 S
N890 H896 0.984 1_556 S
N890 H897 0.984 . S
N891 C884 1.356 1_554 S
N891 H894 0.984 . S
N891 H895 0.985 1_554 S
H892 N887 0.984 1_565 S
H893 N887 0.985 . S
H894 N891 0.984 . S
H895 N891 0.985 1_556 S
H896 N890 0.984 1_554 S
H897 N890 0.984 . S
H898 N886 0.984 . S
H899 N886 0.985 1_545 S
C900 C901 1.363 1_554 S
C900 C906 1.379 . S
C900 N908 1.356 1_554 S
C901 C900 1.363 1_556 S
C901 C907 1.363 1_455 S
C902 C903 1.363 1_556 S
C902 C907 1.379 . S
C902 N909 1.356 1_556 S
C903 C902 1.363 1_554 S
C903 C906 1.363 1_655 S
N904 C906 1.356 . S
N904 H916 0.984 . S
N904 H917 0.985 1_455 S
N905 C907 1.356 . S
N905 H910 0.984 1_655 S
N905 H911 0.985 . S
C906 C900 1.379 . S
C906 C903 1.363 1_455 S
C906 N904 1.356 . S
C907 C901 1.363 1_655 S
C907 C902 1.379 . S
C907 N905 1.356 . S
N908 C900 1.356 1_556 S
N908 H914 0.984 1_556 S
N908 H915 0.984 . S
N909 C902 1.356 1_554 S
N909 H912 0.984 . S
N909 H913 0.985 1_554 S
H910 N905 0.984 1_455 S
H911 N905 0.985 . S
H912 N909 0.984 . S
H913 N909 0.985 1_556 S
H914 N908 0.984 1_554 S
H915 N908 0.984 . S
H916 N904 0.984 . S
H917 N904 0.985 1_655 S
C918 C919 1.363 . S
C918 C924 1.379 1_554 S
C918 N926 1.356 . S
C919 C918 1.363 . S
C919 C925 1.363 . S
C920 C921 1.363 . S
C920 C925 1.379 1_556 S
C920 N927 1.356 . S
C921 C920 1.363 . S
C921 C924 1.363 . S
N922 C924 1.356 . S
N922 H934 0.984 . S
N922 H935 0.985 . S
N923 C925 1.356 . S
N923 H928 0.984 . S
N923 H929 0.985 . S
C924 C918 1.379 1_556 S
C924 C921 1.363 . S
C924 N922 1.356 . S
C925 C919 1.363 . S
C925 C920 1.379 1_554 S
C925 N923 1.356 . S
N926 C918 1.356 . S
N926 H932 0.984 . S
N926 H933 0.984 . S
N927 C920 1.356 . S
N927 H930 0.984 . S
N927 H931 0.985 . S
H928 N923 0.984 . S
H929 N923 0.985 . S
H930 N927 0.984 . S
H931 N927 0.985 . S
H932 N926 0.984 . S
H933 N926 0.984 . S
H934 N922 0.984 . S
H935 N922 0.985 . S
C936 C937 1.363 . S
C936 C942 1.379 . S
C936 N944 1.356 . S
C937 C936 1.363 . S
C937 C943 1.363 . S
C938 C939 1.363 . S
C938 C943 1.379 . S
C938 N945 1.356 . S
C939 C938 1.363 . S
C939 C942 1.363 . S
N940 C942 1.356 . S
N940 H952 0.984 . S
N940 H953 0.985 . S
N941 C943 1.356 . S
N941 H946 0.984 . S
N941 H947 0.985 . S
C942 C936 1.379 . S
C942 C939 1.363 . S
C942 N940 1.356 . S
C943 C937 1.363 . S
C943 C938 1.379 . S
C943 N941 1.356 . S
N944 C936 1.356 . S
N944 H950 0.984 . S
N944 H951 0.984 . S
N945 C938 1.356 . S
N945 H948 0.984 . S
N945 H949 0.985 . S
H946 N941 0.984 . S
H947 N941 0.985 . S
H948 N945 0.984 . S
H949 N945 0.985 . S
H950 N944 0.984 . S
H951 N944 0.984 . S
H952 N940 0.984 . S
H953 N940 0.985 . S
C954 C955 1.363 . S
C954 C960 1.379 . S
C954 N962 1.356 . S
C955 C954 1.363 . S
C955 C961 1.363 . S
C956 C957 1.363 . S
C956 C961 1.379 . S
C956 N963 1.356 . S
C957 C956 1.363 . S
C957 C960 1.363 . S
N958 C960 1.356 . S
N958 H970 0.984 . S
N958 H971 0.985 . S
N959 C961 1.356 . S
N959 H964 0.984 . S
N959 H965 0.985 . S
C960 C954 1.379 . S
C960 C957 1.363 . S
C960 N958 1.356 . S
C961 C955 1.363 . S
C961 C956 1.379 . S
C961 N959 1.356 . S
N962 C954 1.356 . S
N962 H968 0.984 . S
N962 H969 0.984 . S
N963 C956 1.356 . S
N963 H966 0.984 . S
N963 H967 0.985 . S
H964 N959 0.984 . S
H965 N959 0.985 . S
H966 N963 0.984 . S
H967 N963 0.985 . S
H968 N962 0.984 . S
H969 N962 0.984 . S
H970 N958 0.984 . S
H971 N958 0.985 . S
C972 C973 1.363 . S
C972 C978 1.379 . S
C972 N980 1.356 . S
C973 C972 1.363 . S
C973 C979 1.363 . S
C974 C975 1.363 . S
C974 C979 1.379 . S
C974 N981 1.356 . S
C975 C974 1.363 . S
C975 C978 1.363 . S
N976 C978 1.356 . S
N976 H988 0.984 . S
N976 H989 0.985 . S
N977 C979 1.356 . S
N977 H982 0.984 . S
N977 H983 0.985 . S
C978 C972 1.379 . S
C978 C975 1.363 . S
C978 N976 1.356 . S
C979 C973 1.363 . S
C979 C974 1.379 . S
C979 N977 1.356 . S
N980 C972 1.356 . S
N980 H986 0.984 . S
N980 H987 0.984 . S
N981 C974 1.356 . S
N981 H984 0.984 . S
N981 H985 0.985 . S
H982 N977 0.984 . S
H983 N977 0.985 . S
H984 N981 0.984 . S
H985 N981 0.985 . S
H986 N980 0.984 . S
H987 N980 0.984 . S
H988 N976 0.984 . S
H989 N976 0.985 . S
C990 C991 1.363 . S
C990 C996 1.379 . S
C990 N998 1.356 . S
C991 C990 1.363 . S
C991 C997 1.363 . S
C992 C993 1.363 . S
C992 C997 1.379 . S
C992 N999 1.356 . S
C993 C992 1.363 . S
C993 C996 1.363 . S
N994 C996 1.356 . S
N994 H1006 0.984 . S
N994 H1007 0.985 . S
N995 C997 1.356 . S
N995 H1000 0.984 . S
N995 H1001 0.985 . S
C996 C990 1.379 . S
C996 C993 1.363 . S
C996 N994 1.356 . S
C997 C991 1.363 . S
C997 C992 1.379 . S
C997 N995 1.356 . S
N998 C990 1.356 . S
N998 H1004 0.984 . S
N998 H1005 0.984 . S
N999 C992 1.356 . S
N999 H1002 0.984 . S
N999 H1003 0.985 . S
H1000 N995 0.984 . S
H1001 N995 0.985 . S
H1002 N999 0.984 . S
H1003 N999 0.985 . S
H1004 N998 0.984 . S
H1005 N998 0.984 . S
H1006 N994 0.984 . S
H1007 N994 0.985 . S
C1008 C1009 1.363 . S
C1008 C1014 1.379 . S
C1008 N1016 1.356 . S
C1009 C1008 1.363 . S
C1009 C1015 1.363 . S
C1010 C1011 1.363 . S
C1010 C1015 1.379 . S
C1010 N1017 1.356 . S
C1011 C1010 1.363 . S
C1011 C1014 1.363 . S
N1012 C1014 1.356 . S
N1012 H1024 0.984 . S
N1012 H1025 0.985 . S
N1013 C1015 1.356 . S
N1013 H1018 0.984 . S
N1013 H1019 0.985 . S
C1014 C1008 1.379 . S
C1014 C1011 1.363 . S
C1014 N1012 1.356 . S
C1015 C1009 1.363 . S
C1015 C1010 1.379 . S
C1015 N1013 1.356 . S
N1016 C1008 1.356 . S
N1016 H1022 0.984 . S
N1016 H1023 0.984 . S
N1017 C1010 1.356 . S
N1017 H1020 0.984 . S
N1017 H1021 0.985 . S
H1018 N1013 0.984 . S
H1019 N1013 0.985 . S
H1020 N1017 0.984 . S
H1021 N1017 0.985 . S
H1022 N1016 0.984 . S
H1023 N1016 0.984 . S
H1024 N1012 0.984 . S
H1025 N1012 0.985 . S
C1026 C1027 1.363 . S
C1026 C1032 1.379 . S
C1026 N1034 1.356 . S
C1027 C1026 1.363 . S
C1027 C1033 1.363 . S
C1028 C1029 1.363 . S
C1028 C1033 1.379 . S
C1028 N1035 1.356 . S
C1029 C1028 1.363 . S
C1029 C1032 1.363 . S
N1030 C1032 1.356 . S
N1030 H1042 0.984 . S
N1030 H1043 0.985 . S
N1031 C1033 1.356 . S
N1031 H1036 0.984 . S
N1031 H1037 0.985 . S
C1032 C1026 1.379 . S
C1032 C1029 1.363 . S
C1032 N1030 1.356 . S
C1033 C1027 1.363 . S
C1033 C1028 1.379 . S
C1033 N1031 1.356 . S
N1034 C1026 1.356 . S
N1034 H1040 0.984 . S
N1034 H1041 0.984 . S
N1035 C1028 1.356 . S
N1035 H1038 0.984 . S
N1035 H1039 0.985 . S
H1036 N1031 0.984 . S
H1037 N1031 0.985 . S
H1038 N1035 0.984 . S
H1039 N1035 0.985 . S
H1040 N1034 0.984 . S
H1041 N1034 0.984 . S
H1042 N1030 0.984 . S
H1043 N1030 0.985 . S
C1044 C1045 1.363 . S
C1044 C1050 1.379 . S
C1044 N1052 1.356 . S
C1045 C1044 1.363 . S
C1045 C1051 1.363 . S
C1046 C1047 1.363 . S
C1046 C1051 1.379 . S
C1046 N1053 1.356 . S
C1047 C1046 1.363 . S
C1047 C1050 1.363 . S
N1048 C1050 1.356 . S
N1048 H1060 0.984 . S
N1048 H1061 0.985 . S
N1049 C1051 1.356 . S
N1049 H1054 0.984 . S
N1049 H1055 0.985 . S
C1050 C1044 1.379 . S
C1050 C1047 1.363 . S
C1050 N1048 1.356 . S
C1051 C1045 1.363 . S
C1051 C1046 1.379 . S
C1051 N1049 1.356 . S
N1052 C1044 1.356 . S
N1052 H1058 0.984 . S
N1052 H1059 0.984 . S
N1053 C1046 1.356 . S
N1053 H1056 0.984 . S
N1053 H1057 0.985 . S
H1054 N1049 0.984 . S
H1055 N1049 0.985 . S
H1056 N1053 0.984 . S
H1057 N1053 0.985 . S
H1058 N1052 0.984 . S
H1059 N1052 0.984 . S
H1060 N1048 0.984 . S
H1061 N1048 0.985 . S
C1062 C1063 1.363 . S
C1062 C1068 1.379 . S
C1062 N1070 1.356 . S
C1063 C1062 1.363 . S
C1063 C1069 1.363 . S
C1064 C1065 1.363 . S
C1064 C1069 1.379 . S
C1064 N1071 1.356 . S
C1065 C1064 1.363 . S
C1065 C1068 1.363 . S
N1066 C1068 1.356 . S
N1066 H1078 0.984 . S
N1066 H1079 0.985 . S
N1067 C1069 1.356 . S
N1067 H1072 0.984 . S
N1067 H1073 0.985 . S
C1068 C1062 1.379 . S
C1068 C1065 1.363 . S
C1068 N1066 1.356 . S
C1069 C1063 1.363 . S
C1069 C1064 1.379 . S
C1069 N1067 1.356 . S
N1070 C1062 1.356 . S
N1070 H1076 0.984 . S
N1070 H1077 0.984 . S
N1071 C1064 1.356 . S
N1071 H1074 0.984 . S
N1071 H1075 0.985 . S
H1072 N1067 0.984 . S
H1073 N1067 0.985 . S
H1074 N1071 0.984 . S
H1075 N1071 0.985 . S
H1076 N1070 0.984 . S
H1077 N1070 0.984 . S
H1078 N1066 0.984 . S
H1079 N1066 0.985 . S
C1080 C1081 1.363 . S
C1080 C1086 1.379 . S
C1080 N1088 1.356 . S
C1081 C1080 1.363 . S
C1081 C1087 1.363 . S
C1082 C1083 1.363 . S
C1082 C1087 1.379 . S
C1082 N1089 1.356 . S
C1083 C1082 1.363 . S
C1083 C1086 1.363 . S
N1084 C1086 1.356 . S
N1084 H1096 0.984 . S
N1084 H1097 0.985 . S
N1085 C1087 1.356 . S
N1085 H1090 0.984 . S
N1085 H1091 0.985 . S
C1086 C1080 1.379 . S
C1086 C1083 1.363 . S
C1086 N1084 1.356 . S
C1087 C1081 1.363 . S
C1087 C1082 1.379 . S
C1087 N1085 1.356 . S
N1088 C1080 1.356 . S
N1088 H1094 0.984 . S
N1088 H1095 0.984 . S
N1089 C1082 1.356 . S
N1089 H1092 0.984 . S
N1089 H1093 0.985 . S
H1090 N1085 0.984 . S
H1091 N1085 0.985 . S
H1092 N1089 0.984 . S
H1093 N1089 0.985 . S
H1094 N1088 0.984 . S
H1095 N1088 0.984 . S
H1096 N1084 0.984 . S
H1097 N1084 0.985 . S
C1098 C1099 1.363 . S
C1098 C1104 1.379 . S
C1098 N1106 1.356 . S
C1099 C1098 1.363 . S
C1099 C1105 1.363 . S
C1100 C1101 1.363 . S
C1100 C1105 1.379 . S
C1100 N1107 1.356 . S
C1101 C1100 1.363 . S
C1101 C1104 1.363 . S
N1102 C1104 1.356 . S
N1102 H1114 0.984 . S
N1102 H1115 0.985 . S
N1103 C1105 1.356 . S
N1103 H1108 0.984 . S
N1103 H1109 0.985 . S
C1104 C1098 1.379 . S
C1104 C1101 1.363 . S
C1104 N1102 1.356 . S
C1105 C1099 1.363 . S
C1105 C1100 1.379 . S
C1105 N1103 1.356 . S
N1106 C1098 1.356 . S
N1106 H1112 0.984 . S
N1106 H1113 0.984 . S
N1107 C1100 1.356 . S
N1107 H1110 0.984 . S
N1107 H1111 0.985 . S
H1108 N1103 0.984 . S
H1109 N1103 0.985 . S
H1110 N1107 0.984 . S
H1111 N1107 0.985 . S
H1112 N1106 0.984 . S
H1113 N1106 0.984 . S
H1114 N1102 0.984 . S
H1115 N1102 0.985 . S
C1116 C1117 1.363 . S
C1116 C1122 1.379 . S
C1116 N1124 1.356 . S
C1117 C1116 1.363 . S
C1117 C1123 1.363 . S
C1118 C1119 1.363 . S
C1118 C1123 1.379 . S
C1118 N1125 1.356 . S
C1119 C1118 1.363 . S
C1119 C1122 1.363 . S
N1120 C1122 1.356 . S
N1120 H1132 0.984 . S
N1120 H1133 0.985 . S
N1121 C1123 1.356 . S
N1121 H1126 0.984 . S
N1121 H1127 0.985 . S
C1122 C1116 1.379 . S
C1122 C1119 1.363 . S
C1122 N1120 1.356 . S
C1123 C1117 1.363 . S
C1123 C1118 1.379 . S
C1123 N1121 1.356 . S
N1124 C1116 1.356 . S
N1124 H1130 0.984 . S
N1124 H1131 0.984 . S
N1125 C1118 1.356 . S
N1125 H1128 0.984 . S
N1125 H1129 0.985 . S
H1126 N1121 0.984 . S
H1127 N1121 0.985 . S
H1128 N1125 0.984 . S
H1129 N1125 0.985 . S
H1130 N1124 0.984 . S
H1131 N1124 0.984 . S
H1132 N1120 0.984 . S
H1133 N1120 0.985 . S
C1134 C1135 1.363 . S
C1134 C1140 1.379 . S
C1134 N1142 1.356 . S
C1135 C1134 1.363 . S
C1135 C1141 1.363 . S
C1136 C1137 1.363 . S
C1136 C1141 1.379 . S
C1136 N1143 1.356 . S
C1137 C1136 1.363 . S
C1137 C1140 1.363 . S
N1138 C1140 1.356 . S
N1138 H1150 0.984 . S
N1138 H1151 0.985 . S
N1139 C1141 1.356 . S
N1139 H1144 0.984 . S
N1139 H1145 0.985 . S
C1140 C1134 1.379 . S
C1140 C1137 1.363 . S
C1140 N1138 1.356 . S
C1141 C1135 1.363 . S
C1141 C1136 1.379 . S
C1141 N1139 1.356 . S
N1142 C1134 1.356 . S
N1142 H1148 0.984 . S
N1142 H1149 0.984 . S
N1143 C1136 1.356 . S
N1143 H1146 0.984 . S
N1143 H1147 0.985 . S
H1144 N1139 0.984 . S
H1145 N1139 0.985 . S
H1146 N1143 0.984 . S
H1147 N1143 0.985 . S
H1148 N1142 0.984 . S
H1149 N1142 0.984 . S
H1150 N1138 0.984 . S
H1151 N1138 0.985 . S
C1152 C1153 1.363 . S
C1152 C1158 1.379 . S
C1152 N1160 1.356 . S
C1153 C1152 1.363 . S
C1153 C1159 1.363 . S
C1154 C1155 1.363 . S
C1154 C1159 1.379 . S
C1154 N1161 1.356 . S
C1155 C1154 1.363 . S
C1155 C1158 1.363 . S
N1156 C1158 1.356 . S
N1156 H1168 0.984 . S
N1156 H1169 0.985 . S
N1157 C1159 1.356 . S
N1157 H1162 0.984 . S
N1157 H1163 0.985 . S
C1158 C1152 1.379 . S
C1158 C1155 1.363 . S
C1158 N1156 1.356 . S
C1159 C1153 1.363 . S
C1159 C1154 1.379 . S
C1159 N1157 1.356 . S
N1160 C1152 1.356 . S
N1160 H1166 0.984 . S
N1160 H1167 0.984 . S
N1161 C1154 1.356 . S
N1161 H1164 0.984 . S
N1161 H1165 0.985 . S
H1162 N1157 0.984 . S
H1163 N1157 0.985 . S
H1164 N1161 0.984 . S
H1165 N1161 0.985 . S
H1166 N1160 0.984 . S
H1167 N1160 0.984 . S
H1168 N1156 0.984 . S
H1169 N1156 0.985 . S
C1170 C1171 1.363 . S
C1170 C1176 1.379 . S
C1170 N1178 1.356 . S
C1171 C1170 1.363 . S
C1171 C1177 1.363 . S
C1172 C1173 1.363 . S
C1172 C1177 1.379 . S
C1172 N1179 1.356 . S
C1173 C1172 1.363 . S
C1173 C1176 1.363 . S
N1174 C1176 1.356 . S
N1174 H1186 0.984 . S
N1174 H1187 0.985 . S
N1175 C1177 1.356 . S
N1175 H1180 0.984 . S
N1175 H1181 0.985 . S
C1176 C1170 1.379 . S
C1176 C1173 1.363 . S
C1176 N1174 1.356 . S
C1177 C1171 1.363 . S
C1177 C1172 1.379 . S
C1177 N1175 1.356 . S
N1178 C1170 1.356 . S
N1178 H1184 0.984 . S
N1178 H1185 0.984 . S
N1179 C1172 1.356 . S
N1179 H1182 0.984 . S
N1179 H1183 0.985 . S
H1180 N1175 0.984 . S
H1181 N1175 0.985 . S
H1182 N1179 0.984 . S
H1183 N1179 0.985 . S
H1184 N1178 0.984 . S
H1185 N1178 0.984 . S
H1186 N1174 0.984 . S
H1187 N1174 0.985 . S
C1188 C1189 1.363 . S
C1188 C1194 1.379 . S
C1188 N1196 1.356 . S
C1189 C1188 1.363 . S
C1189 C1195 1.363 . S
C1190 C1191 1.363 . S
C1190 C1195 1.379 . S
C1190 N1197 1.356 . S
C1191 C1190 1.363 . S
C1191 C1194 1.363 . S
N1192 C1194 1.356 . S
N1192 H1204 0.984 . S
N1192 H1205 0.985 . S
N1193 C1195 1.356 . S
N1193 H1198 0.984 . S
N1193 H1199 0.985 . S
C1194 C1188 1.379 . S
C1194 C1191 1.363 . S
C1194 N1192 1.356 . S
C1195 C1189 1.363 . S
C1195 C1190 1.379 . S
C1195 N1193 1.356 . S
N1196 C1188 1.356 . S
N1196 H1202 0.984 . S
N1196 H1203 0.984 . S
N1197 C1190 1.356 . S
N1197 H1200 0.984 . S
N1197 H1201 0.985 . S
H1198 N1193 0.984 . S
H1199 N1193 0.985 . S
H1200 N1197 0.984 . S
H1201 N1197 0.985 . S
H1202 N1196 0.984 . S
H1203 N1196 0.984 . S
H1204 N1192 0.984 . S
H1205 N1192 0.985 . S
C1206 C1207 1.363 . S
C1206 C1212 1.379 . S
C1206 N1214 1.356 . S
C1207 C1206 1.363 . S
C1207 C1213 1.363 . S
C1208 C1209 1.363 . S
C1208 C1213 1.379 . S
C1208 N1215 1.356 . S
C1209 C1208 1.363 . S
C1209 C1212 1.363 . S
N1210 C1212 1.356 . S
N1210 H1222 0.984 . S
N1210 H1223 0.985 . S
N1211 C1213 1.356 . S
N1211 H1216 0.984 . S
N1211 H1217 0.985 . S
C1212 C1206 1.379 . S
C1212 C1209 1.363 . S
C1212 N1210 1.356 . S
C1213 C1207 1.363 . S
C1213 C1208 1.379 . S
C1213 N1211 1.356 . S
N1214 C1206 1.356 . S
N1214 H1220 0.984 . S
N1214 H1221 0.984 . S
N1215 C1208 1.356 . S
N1215 H1218 0.984 . S
N1215 H1219 0.985 . S
H1216 N1211 0.984 . S
H1217 N1211 0.985 . S
H1218 N1215 0.984 . S
H1219 N1215 0.985 . S
H1220 N1214 0.984 . S
H1221 N1214 0.984 . S
H1222 N1210 0.984 . S
H1223 N1210 0.985 . S
C1224 C1225 1.363 . S
C1224 C1230 1.379 . S
C1224 N1232 1.356 . S
C1225 C1224 1.363 . S
C1225 C1231 1.363 . S
C1226 C1227 1.363 . S
C1226 C1231 1.379 . S
C1226 N1233 1.356 . S
C1227 C1226 1.363 . S
C1227 C1230 1.363 . S
N1228 C1230 1.356 . S
N1228 H1240 0.984 . S
N1228 H1241 0.985 . S
N1229 C1231 1.356 . S
N1229 H1234 0.984 . S
N1229 H1235 0.985 . S
C1230 C1224 1.379 . S
C1230 C1227 1.363 . S
C1230 N1228 1.356 . S
C1231 C1225 1.363 . S
C1231 C1226 1.379 . S
C1231 N1229 1.356 . S
N1232 C1224 1.356 . S
N1232 H1238 0.984 . S
N1232 H1239 0.984 . S
N1233 C1226 1.356 . S
N1233 H1236 0.984 . S
N1233 H1237 0.985 . S
H1234 N1229 0.984 . S
H1235 N1229 0.985 . S
H1236 N1233 0.984 . S
H1237 N1233 0.985 . S
H1238 N1232 0.984 . S
H1239 N1232 0.984 . S
H1240 N1228 0.984 . S
H1241 N1228 0.985 . S
C1242 C1243 1.363 . S
C1242 C1248 1.379 . S
C1242 N1250 1.356 . S
C1243 C1242 1.363 . S
C1243 C1249 1.363 . S
C1244 C1245 1.363 . S
C1244 C1249 1.379 . S
C1244 N1251 1.356 . S
C1245 C1244 1.363 . S
C1245 C1248 1.363 . S
N1246 C1248 1.356 . S
N1246 H1258 0.984 . S
N1246 H1259 0.985 . S
N1247 C1249 1.356 . S
N1247 H1252 0.984 . S
N1247 H1253 0.985 . S
C1248 C1242 1.379 . S
C1248 C1245 1.363 . S
C1248 N1246 1.356 . S
C1249 C1243 1.363 . S
C1249 C1244 1.379 . S
C1249 N1247 1.356 . S
N1250 C1242 1.356 . S
N1250 H1256 0.984 . S
N1250 H1257 0.984 . S
N1251 C1244 1.356 . S
N1251 H1254 0.984 . S
N1251 H1255 0.985 . S
H1252 N1247 0.984 . S
H1253 N1247 0.985 . S
H1254 N1251 0.984 . S
H1255 N1251 0.985 . S
H1256 N1250 0.984 . S
H1257 N1250 0.984 . S
H1258 N1246 0.984 . S
H1259 N1246 0.985 . S
C1260 C1261 1.363 . S
C1260 C1266 1.379 . S
C1260 N1268 1.356 . S
C1261 C1260 1.363 . S
C1261 C1267 1.363 . S
C1262 C1263 1.363 . S
C1262 C1267 1.379 . S
C1262 N1269 1.356 . S
C1263 C1262 1.363 . S
C1263 C1266 1.363 . S
N1264 C1266 1.356 . S
N1264 H1276 0.984 . S
N1264 H1277 0.985 . S
N1265 C1267 1.356 . S
N1265 H1270 0.984 . S
N1265 H1271 0.985 . S
C1266 C1260 1.379 . S
C1266 C1263 1.363 . S
C1266 N1264 1.356 . S
C1267 C1261 1.363 . S
C1267 C1262 1.379 . S
C1267 N1265 1.356 . S
N1268 C1260 1.356 . S
N1268 H1274 0.984 . S
N1268 H1275 0.984 . S
N1269 C1262 1.356 . S
N1269 H1272 0.984 . S
N1269 H1273 0.985 . S
H1270 N1265 0.984 . S
H1271 N1265 0.985 . S
H1272 N1269 0.984 . S
H1273 N1269 0.985 . S
H1274 N1268 0.984 . S
H1275 N1268 0.984 . S
H1276 N1264 0.984 . S
H1277 N1264 0.985 . S
C1278 C1279 1.363 . S
C1278 C1284 1.379 . S
C1278 N1286 1.356 . S
C1279 C1278 1.363 . S
C1279 C1285 1.363 . S
C1280 C1281 1.363 . S
C1280 C1285 1.379 . S
C1280 N1287 1.356 . S
C1281 C1280 1.363 . S
C1281 C1284 1.363 . S
N1282 C1284 1.356 . S
N1282 H1294 0.984 . S
N1282 H1295 0.985 . S
N1283 C1285 1.356 . S
N1283 H1288 0.984 . S
N1283 H1289 0.985 . S
C1284 C1278 1.379 . S
C1284 C1281 1.363 . S
C1284 N1282 1.356 . S
C1285 C1279 1.363 . S
C1285 C1280 1.379 . S
C1285 N1283 1.356 . S
N1286 C1278 1.356 . S
N1286 H1292 0.984 . S
N1286 H1293 0.984 . S
N1287 C1280 1.356 . S
N1287 H1290 0.984 . S
N1287 H1291 0.985 . S
H1288 N1283 0.984 . S
H1289 N1283 0.985 . S
H1290 N1287 0.984 . S
H1291 N1287 0.985 . S
H1292 N1286 0.984 . S
H1293 N1286 0.984 . S
H1294 N1282 0.984 . S
H1295 N1282 0.985 . S
C1296 C1297 1.363 . S
C1296 C1302 1.379 . S
C1296 N1304 1.356 . S
C1297 C1296 1.363 . S
C1297 C1303 1.363 . S
C1298 C1299 1.363 . S
C1298 C1303 1.379 . S
C1298 N1305 1.356 . S
C1299 C1298 1.363 . S
C1299 C1302 1.363 . S
N1300 C1302 1.356 . S
N1300 H1312 0.984 . S
N1300 H1313 0.985 . S
N1301 C1303 1.356 . S
N1301 H1306 0.984 . S
N1301 H1307 0.985 . S
C1302 C1296 1.379 . S
C1302 C1299 1.363 . S
C1302 N1300 1.356 . S
C1303 C1297 1.363 . S
C1303 C1298 1.379 . S
C1303 N1301 1.356 . S
N1304 C1296 1.356 . S
N1304 H1310 0.984 . S
N1304 H1311 0.984 . S
N1305 C1298 1.356 . S
N1305 H1308 0.984 . S
N1305 H1309 0.985 . S
H1306 N1301 0.984 . S
H1307 N1301 0.985 . S
H1308 N1305 0.984 . S
H1309 N1305 0.985 . S
H1310 N1304 0.984 . S
H1311 N1304 0.984 . S
H1312 N1300 0.984 . S
H1313 N1300 0.985 . S
C1314 C1315 1.363 . S
C1314 C1320 1.379 . S
C1314 N1322 1.356 . S
C1315 C1314 1.363 . S
C1315 C1321 1.363 . S
C1316 C1317 1.363 . S
C1316 C1321 1.379 . S
C1316 N1323 1.356 . S
C1317 C1316 1.363 . S
C1317 C1320 1.363 . S
N1318 C1320 1.356 . S
N1318 H1330 0.984 . S
N1318 H1331 0.985 . S
N1319 C1321 1.356 . S
N1319 H1324 0.984 . S
N1319 H1325 0.985 . S
C1320 C1314 1.379 . S
C1320 C1317 1.363 . S
C1320 N1318 1.356 . S
C1321 C1315 1.363 . S
C1321 C1316 1.379 . S
C1321 N1319 1.356 . S
N1322 C1314 1.356 . S
N1322 H1328 0.984 . S
N1322 H1329 0.984 . S
N1323 C1316 1.356 . S
N1323 H1326 0.984 . S
N1323 H1327 0.985 . S
H1324 N1319 0.984 . S
H1325 N1319 0.985 . S
H1326 N1323 0.984 . S
H1327 N1323 0.985 . S
H1328 N1322 0.984 . S
H1329 N1322 0.984 . S
H1330 N1318 0.984 . S
H1331 N1318 0.985 . S
C1332 C1333 1.363 . S
C1332 C1338 1.379 . S
C1332 N1340 1.356 . S
C1333 C1332 1.363 . S
C1333 C1339 1.363 . S
C1334 C1335 1.363 . S
C1334 C1339 1.379 . S
C1334 N1341 1.356 . S
C1335 C1334 1.363 . S
C1335 C1338 1.363 . S
N1336 C1338 1.356 . S
N1336 H1348 0.984 . S
N1336 H1349 0.985 . S
N1337 C1339 1.356 . S
N1337 H1342 0.984 . S
N1337 H1343 0.985 . S
C1338 C1332 1.379 . S
C1338 C1335 1.363 . S
C1338 N1336 1.356 . S
C1339 C1333 1.363 . S
C1339 C1334 1.379 . S
C1339 N1337 1.356 . S
N1340 C1332 1.356 . S
N1340 H1346 0.984 . S
N1340 H1347 0.984 . S
N1341 C1334 1.356 . S
N1341 H1344 0.984 . S
N1341 H1345 0.985 . S
H1342 N1337 0.984 . S
H1343 N1337 0.985 . S
H1344 N1341 0.984 . S
H1345 N1341 0.985 . S
H1346 N1340 0.984 . S
H1347 N1340 0.984 . S
H1348 N1336 0.984 . S
H1349 N1336 0.985 . S
C1350 C1351 1.363 . S
C1350 C1356 1.379 . S
C1350 N1358 1.356 . S
C1351 C1350 1.363 . S
C1351 C1357 1.363 . S
C1352 C1353 1.363 . S
C1352 C1357 1.379 . S
C1352 N1359 1.356 . S
C1353 C1352 1.363 . S
C1353 C1356 1.363 . S
N1354 C1356 1.356 . S
N1354 H1366 0.984 . S
N1354 H1367 0.985 . S
N1355 C1357 1.356 . S
N1355 H1360 0.984 . S
N1355 H1361 0.985 . S
C1356 C1350 1.379 . S
C1356 C1353 1.363 . S
C1356 N1354 1.356 . S
C1357 C1351 1.363 . S
C1357 C1352 1.379 . S
C1357 N1355 1.356 . S
N1358 C1350 1.356 . S
N1358 H1364 0.984 . S
N1358 H1365 0.984 . S
N1359 C1352 1.356 . S
N1359 H1362 0.984 . S
N1359 H1363 0.985 . S
H1360 N1355 0.984 . S
H1361 N1355 0.985 . S
H1362 N1359 0.984 . S
H1363 N1359 0.985 . S
H1364 N1358 0.984 . S
H1365 N1358 0.984 . S
H1366 N1354 0.984 . S
H1367 N1354 0.985 . S
C1368 C1369 1.363 . S
C1368 C1374 1.379 1_455 S
C1368 N1376 1.356 . S
C1369 C1368 1.363 . S
C1369 C1375 1.363 . S
C1370 C1371 1.363 . S
C1370 C1375 1.379 1_655 S
C1370 N1377 1.356 . S
C1371 C1370 1.363 . S
C1371 C1374 1.363 . S
N1372 C1374 1.356 . S
N1372 H1384 0.984 . S
N1372 H1385 0.985 . S
N1373 C1375 1.356 . S
N1373 H1378 0.984 . S
N1373 H1379 0.985 . S
C1374 C1368 1.379 1_655 S
C1374 C1371 1.363 . S
C1374 N1372 1.356 . S
C1375 C1369 1.363 . S
C1375 C1370 1.379 1_455 S
C1375 N1373 1.356 . S
N1376 C1368 1.356 . S
N1376 H1382 0.984 . S
N1376 H1383 0.984 . S
N1377 C1370 1.356 . S
N1377 H1380 0.984 . S
N1377 H1381 0.985 . S
H1378 N1373 0.984 . S
H1379 N1373 0.985 . S
H1380 N1377 0.984 . S
H1381 N1377 0.985 . S
H1382 N1376 0.984 . S
H1383 N1376 0.984 . S
H1384 N1372 0.984 . S
H1385 N1372 0.985 . S
C1386 C1387 1.363 . S
C1386 C1392 1.379 . S
C1386 N1394 1.356 . S
C1387 C1386 1.363 . S
C1387 C1393 1.363 . S
C1388 C1389 1.363 . S
C1388 C1393 1.379 . S
C1388 N1395 1.356 . S
C1389 C1388 1.363 . S
C1389 C1392 1.363 . S
N1390 C1392 1.356 . S
N1390 H1402 0.984 . S
N1390 H1403 0.985 . S
N1391 C1393 1.356 . S
N1391 H1396 0.984 . S
N1391 H1397 0.985 . S
C1392 C1386 1.379 . S
C1392 C1389 1.363 . S
C1392 N1390 1.356 . S
C1393 C1387 1.363 . S
C1393 C1388 1.379 . S
C1393 N1391 1.356 . S
N1394 C1386 1.356 . S
N1394 H1400 0.984 . S
N1394 H1401 0.984 . S
N1395 C1388 1.356 . S
N1395 H1398 0.984 . S
N1395 H1399 0.985 . S
H1396 N1391 0.984 . S
H1397 N1391 0.985 . S
H1398 N1395 0.984 . S
H1399 N1395 0.985 . S
H1400 N1394 0.984 . S
H1401 N1394 0.984 . S
H1402 N1390 0.984 . S
H1403 N1390 0.985 . S
C1404 C1405 1.363 . S
C1404 C1410 1.379 1_545 S
C1404 N1412 1.356 . S
C1405 C1404 1.363 . S
C1405 C1411 1.363 . S
C1406 C1407 1.363 . S
C1406 C1411 1.379 1_565 S
C1406 N1413 1.356 . S
C1407 C1406 1.363 . S
C1407 C1410 1.363 . S
N1408 C1410 1.356 . S
N1408 H1420 0.984 . S
N1408 H1421 0.985 . S
N1409 C1411 1.356 . S
N1409 H1414 0.984 . S
N1409 H1415 0.985 . S
C1410 C1404 1.379 1_565 S
C1410 C1407 1.363 . S
C1410 N1408 1.356 . S
C1411 C1405 1.363 . S
C1411 C1406 1.379 1_545 S
C1411 N1409 1.356 . S
N1412 C1404 1.356 . S
N1412 H1418 0.984 . S
N1412 H1419 0.984 . S
N1413 C1406 1.356 . S
N1413 H1416 0.984 . S
N1413 H1417 0.985 . S
H1414 N1409 0.984 . S
H1415 N1409 0.985 . S
H1416 N1413 0.984 . S
H1417 N1413 0.985 . S
H1418 N1412 0.984 . S
H1419 N1412 0.984 . S
H1420 N1408 0.984 . S
H1421 N1408 0.985 . S
C1422 C1423 1.363 . S
C1422 C1428 1.379 1_545 S
C1422 N1430 1.356 . S
C1423 C1422 1.363 . S
C1423 C1429 1.363 . S
C1424 C1425 1.363 . S
C1424 C1429 1.379 1_565 S
C1424 N1431 1.356 . S
C1425 C1424 1.363 . S
C1425 C1428 1.363 . S
N1426 C1428 1.356 . S
N1426 H1438 0.984 . S
N1426 H1439 0.985 . S
N1427 C1429 1.356 . S
N1427 H1432 0.984 . S
N1427 H1433 0.985 . S
C1428 C1422 1.379 1_565 S
C1428 C1425 1.363 . S
C1428 N1426 1.356 . S
C1429 C1423 1.363 . S
C1429 C1424 1.379 1_545 S
C1429 N1427 1.356 . S
N1430 C1422 1.356 . S
N1430 H1436 0.984 . S
N1430 H1437 0.984 . S
N1431 C1424 1.356 . S
N1431 H1434 0.984 . S
N1431 H1435 0.985 . S
H1432 N1427 0.984 . S
H1433 N1427 0.985 . S
H1434 N1431 0.984 . S
H1435 N1431 0.985 . S
H1436 N1430 0.984 . S
H1437 N1430 0.984 . S
H1438 N1426 0.984 . S
H1439 N1426 0.985 . S
C1440 C1441 1.363 . S
C1440 C1446 1.379 1_655 S
C1440 N1448 1.356 . S
C1441 C1440 1.363 . S
C1441 C1447 1.363 . S
C1442 C1443 1.363 . S
C1442 C1447 1.379 1_455 S
C1442 N1449 1.356 . S
C1443 C1442 1.363 . S
C1443 C1446 1.363 . S
N1444 C1446 1.356 . S
N1444 H1456 0.984 . S
N1444 H1457 0.985 . S
N1445 C1447 1.356 . S
N1445 H1450 0.984 . S
N1445 H1451 0.985 . S
C1446 C1440 1.379 1_455 S
C1446 C1443 1.363 . S
C1446 N1444 1.356 . S
C1447 C1441 1.363 . S
C1447 C1442 1.379 1_655 S
C1447 N1445 1.356 . S
N1448 C1440 1.356 . S
N1448 H1454 0.984 . S
N1448 H1455 0.984 . S
N1449 C1442 1.356 . S
N1449 H1452 0.984 . S
N1449 H1453 0.985 . S
H1450 N1445 0.984 . S
H1451 N1445 0.985 . S
H1452 N1449 0.984 . S
H1453 N1449 0.985 . S
H1454 N1448 0.984 . S
H1455 N1448 0.984 . S
H1456 N1444 0.984 . S
H1457 N1444 0.985 . S
C1458 C1459 1.363 . S
C1458 C1464 1.379 . S
C1458 N1466 1.356 . S
C1459 C1458 1.363 . S
C1459 C1465 1.363 . S
C1460 C1461 1.363 . S
C1460 C1465 1.379 . S
C1460 N1467 1.356 . S
C1461 C1460 1.363 . S
C1461 C1464 1.363 . S
N1462 C1464 1.356 . S
N1462 H1474 0.984 . S
N1462 H1475 0.985 . S
N1463 C1465 1.356 . S
N1463 H1468 0.984 . S
N1463 H1469 0.985 . S
C1464 C1458 1.379 . S
C1464 C1461 1.363 . S
C1464 N1462 1.356 . S
C1465 C1459 1.363 . S
C1465 C1460 1.379 . S
C1465 N1463 1.356 . S
N1466 C1458 1.356 . S
N1466 H1472 0.984 . S
N1466 H1473 0.984 . S
N1467 C1460 1.356 . S
N1467 H1470 0.984 . S
N1467 H1471 0.985 . S
H1468 N1463 0.984 . S
H1469 N1463 0.985 . S
H1470 N1467 0.984 . S
H1471 N1467 0.985 . S
H1472 N1466 0.984 . S
H1473 N1466 0.984 . S
H1474 N1462 0.984 . S
H1475 N1462 0.985 . S
C1476 C1477 1.363 . S
C1476 C1482 1.379 . S
C1476 N1484 1.356 . S
C1477 C1476 1.363 . S
C1477 C1483 1.363 . S
C1478 C1479 1.363 . S
C1478 C1483 1.379 . S
C1478 N1485 1.356 . S
C1479 C1478 1.363 . S
C1479 C1482 1.363 . S
N1480 C1482 1.356 . S
N1480 H1492 0.984 . S
N1480 H1493 0.985 . S
N1481 C1483 1.356 . S
N1481 H1486 0.984 . S
N1481 H1487 0.985 . S
C1482 C1476 1.379 . S
C1482 C1479 1.363 . S
C1482 N1480 1.356 . S
C1483 C1477 1.363 . S
C1483 C1478 1.379 . S
C1483 N1481 1.356 . S
N1484 C1476 1.356 . S
N1484 H1490 0.984 . S
N1484 H1491 0.984 . S
N1485 C1478 1.356 . S
N1485 H1488 0.984 . S
N1485 H1489 0.985 . S
H1486 N1481 0.984 . S
H1487 N1481 0.985 . S
H1488 N1485 0.984 . S
H1489 N1485 0.985 . S
H1490 N1484 0.984 . S
H1491 N1484 0.984 . S
H1492 N1480 0.984 . S
H1493 N1480 0.985 . S
C1494 C1495 1.363 . S
C1494 C1500 1.379 . S
C1494 N1502 1.356 . S
C1495 C1494 1.363 . S
C1495 C1501 1.363 . S
C1496 C1497 1.363 . S
C1496 C1501 1.379 . S
C1496 N1503 1.356 . S
C1497 C1496 1.363 . S
C1497 C1500 1.363 . S
N1498 C1500 1.356 . S
N1498 H1510 0.984 . S
N1498 H1511 0.985 . S
N1499 C1501 1.356 . S
N1499 H1504 0.984 . S
N1499 H1505 0.985 . S
C1500 C1494 1.379 . S
C1500 C1497 1.363 . S
C1500 N1498 1.356 . S
C1501 C1495 1.363 . S
C1501 C1496 1.379 . S
C1501 N1499 1.356 . S
N1502 C1494 1.356 . S
N1502 H1508 0.984 . S
N1502 H1509 0.984 . S
N1503 C1496 1.356 . S
N1503 H1506 0.984 . S
N1503 H1507 0.985 . S
H1504 N1499 0.984 . S
H1505 N1499 0.985 . S
H1506 N1503 0.984 . S
H1507 N1503 0.985 . S
H1508 N1502 0.984 . S
H1509 N1502 0.984 . S
H1510 N1498 0.984 . S
H1511 N1498 0.985 . S
C1512 C1513 1.363 . S
C1512 C1518 1.379 . S
C1512 N1520 1.356 . S
C1513 C1512 1.363 . S
C1513 C1519 1.363 . S
C1514 C1515 1.363 . S
C1514 C1519 1.379 . S
C1514 N1521 1.356 . S
C1515 C1514 1.363 . S
C1515 C1518 1.363 . S
N1516 C1518 1.356 . S
N1516 H1528 0.984 . S
N1516 H1529 0.985 . S
N1517 C1519 1.356 . S
N1517 H1522 0.984 . S
N1517 H1523 0.985 . S
C1518 C1512 1.379 . S
C1518 C1515 1.363 . S
C1518 N1516 1.356 . S
C1519 C1513 1.363 . S
C1519 C1514 1.379 . S
C1519 N1517 1.356 . S
N1520 C1512 1.356 . S
N1520 H1526 0.984 . S
N1520 H1527 0.984 . S
N1521 C1514 1.356 . S
N1521 H1524 0.984 . S
N1521 H1525 0.985 . S
H1522 N1517 0.984 . S
H1523 N1517 0.985 . S
H1524 N1521 0.984 . S
H1525 N1521 0.985 . S
H1526 N1520 0.984 . S
H1527 N1520 0.984 . S
H1528 N1516 0.984 . S
H1529 N1516 0.985 . S
C1530 C1531 1.363 . S
C1530 C1536 1.379 . S
C1530 N1538 1.356 . S
C1531 C1530 1.363 . S
C1531 C1537 1.363 . S
C1532 C1533 1.363 . S
C1532 C1537 1.379 . S
C1532 N1539 1.356 . S
C1533 C1532 1.363 . S
C1533 C1536 1.363 . S
N1534 C1536 1.356 . S
N1534 H1546 0.984 . S
N1534 H1547 0.985 . S
N1535 C1537 1.356 . S
N1535 H1540 0.984 . S
N1535 H1541 0.985 . S
C1536 C1530 1.379 . S
C1536 C1533 1.363 . S
C1536 N1534 1.356 . S
C1537 C1531 1.363 . S
C1537 C1532 1.379 . S
C1537 N1535 1.356 . S
N1538 C1530 1.356 . S
N1538 H1544 0.984 . S
N1538 H1545 0.984 . S
N1539 C1532 1.356 . S
N1539 H1542 0.984 . S
N1539 H1543 0.985 . S
H1540 N1535 0.984 . S
H1541 N1535 0.985 . S
H1542 N1539 0.984 . S
H1543 N1539 0.985 . S
H1544 N1538 0.984 . S
H1545 N1538 0.984 . S
H1546 N1534 0.984 . S
H1547 N1534 0.985 . S
C1548 C1549 1.363 . S
C1548 C1554 1.379 . S
C1548 N1556 1.356 . S
C1549 C1548 1.363 . S
C1549 C1555 1.363 . S
C1550 C1551 1.363 . S
C1550 C1555 1.379 . S
C1550 N1557 1.356 . S
C1551 C1550 1.363 . S
C1551 C1554 1.363 . S
N1552 C1554 1.356 . S
N1552 H1564 0.984 . S
N1552 H1565 0.985 . S
N1553 C1555 1.356 . S
N1553 H1558 0.984 . S
N1553 H1559 0.985 . S
C1554 C1548 1.379 . S
C1554 C1551 1.363 . S
C1554 N1552 1.356 . S
C1555 C1549 1.363 . S
C1555 C1550 1.379 . S
C1555 N1553 1.356 . S
N1556 C1548 1.356 . S
N1556 H1562 0.984 . S
N1556 H1563 0.984 . S
N1557 C1550 1.356 . S
N1557 H1560 0.984 . S
N1557 H1561 0.985 . S
H1558 N1553 0.984 . S
H1559 N1553 0.985 . S
H1560 N1557 0.984 . S
H1561 N1557 0.985 . S
H1562 N1556 0.984 . S
H1563 N1556 0.984 . S
H1564 N1552 0.984 . S
H1565 N1552 0.985 . S
C1566 C1567 1.363 . S
C1566 C1572 1.379 . S
C1566 N1574 1.356 . S
C1567 C1566 1.363 . S
C1567 C1573 1.363 . S
C1568 C1569 1.363 . S
C1568 C1573 1.379 . S
C1568 N1575 1.356 . S
C1569 C1568 1.363 . S
C1569 C1572 1.363 . S
N1570 C1572 1.356 . S
N1570 H1582 0.984 . S
N1570 H1583 0.985 . S
N1571 C1573 1.356 . S
N1571 H1576 0.984 . S
N1571 H1577 0.985 . S
C1572 C1566 1.379 . S
C1572 C1569 1.363 . S
C1572 N1570 1.356 . S
C1573 C1567 1.363 . S
C1573 C1568 1.379 . S
C1573 N1571 1.356 . S
N1574 C1566 1.356 . S
N1574 H1580 0.984 . S
N1574 H1581 0.984 . S
N1575 C1568 1.356 . S
N1575 H1578 0.984 . S
N1575 H1579 0.985 . S
H1576 N1571 0.984 . S
H1577 N1571 0.985 . S
H1578 N1575 0.984 . S
H1579 N1575 0.985 . S
H1580 N1574 0.984 . S
H1581 N1574 0.984 . S
H1582 N1570 0.984 . S
H1583 N1570 0.985 . S
C1584 C1585 1.363 . S
C1584 C1590 1.379 . S
C1584 N1592 1.356 . S
C1585 C1584 1.363 . S
C1585 C1591 1.363 . S
C1586 C1587 1.363 . S
C1586 C1591 1.379 . S
C1586 N1593 1.356 . S
C1587 C1586 1.363 . S
C1587 C1590 1.363 . S
N1588 C1590 1.356 . S
N1588 H1600 0.984 . S
N1588 H1601 0.985 . S
N1589 C1591 1.356 . S
N1589 H1594 0.984 . S
N1589 H1595 0.985 . S
C1590 C1584 1.379 . S
C1590 C1587 1.363 . S
C1590 N1588 1.356 . S
C1591 C1585 1.363 . S
C1591 C1586 1.379 . S
C1591 N1589 1.356 . S
N1592 C1584 1.356 . S
N1592 H1598 0.984 . S
N1592 H1599 0.984 . S
N1593 C1586 1.356 . S
N1593 H1596 0.984 . S
N1593 H1597 0.985 . S
H1594 N1589 0.984 . S
H1595 N1589 0.985 . S
H1596 N1593 0.984 . S
H1597 N1593 0.985 . S
H1598 N1592 0.984 . S
H1599 N1592 0.984 . S
H1600 N1588 0.984 . S
H1601 N1588 0.985 . S
C1602 C1603 1.363 . S
C1602 C1608 1.379 . S
C1602 N1610 1.356 . S
C1603 C1602 1.363 . S
C1603 C1609 1.363 . S
C1604 C1605 1.363 . S
C1604 C1609 1.379 . S
C1604 N1611 1.356 . S
C1605 C1604 1.363 . S
C1605 C1608 1.363 . S
N1606 C1608 1.356 . S
N1606 H1618 0.984 . S
N1606 H1619 0.985 . S
N1607 C1609 1.356 . S
N1607 H1612 0.984 . S
N1607 H1613 0.985 . S
C1608 C1602 1.379 . S
C1608 C1605 1.363 . S
C1608 N1606 1.356 . S
C1609 C1603 1.363 . S
C1609 C1604 1.379 . S
C1609 N1607 1.356 . S
N1610 C1602 1.356 . S
N1610 H1616 0.984 . S
N1610 H1617 0.984 . S
N1611 C1604 1.356 . S
N1611 H1614 0.984 . S
N1611 H1615 0.985 . S
H1612 N1607 0.984 . S
H1613 N1607 0.985 . S
H1614 N1611 0.984 . S
H1615 N1611 0.985 . S
H1616 N1610 0.984 . S
H1617 N1610 0.984 . S
H1618 N1606 0.984 . S
H1619 N1606 0.985 . S
C1620 C1621 1.363 . S
C1620 C1626 1.379 . S
C1620 N1628 1.356 . S
C1621 C1620 1.363 . S
C1621 C1627 1.363 . S
C1622 C1623 1.363 . S
C1622 C1627 1.379 . S
C1622 N1629 1.356 . S
C1623 C1622 1.363 . S
C1623 C1626 1.363 . S
N1624 C1626 1.356 . S
N1624 H1636 0.984 . S
N1624 H1637 0.985 . S
N1625 C1627 1.356 . S
N1625 H1630 0.984 . S
N1625 H1631 0.985 . S
C1626 C1620 1.379 . S
C1626 C1623 1.363 . S
C1626 N1624 1.356 . S
C1627 C1621 1.363 . S
C1627 C1622 1.379 . S
C1627 N1625 1.356 . S
N1628 C1620 1.356 . S
N1628 H1634 0.984 . S
N1628 H1635 0.984 . S
N1629 C1622 1.356 . S
N1629 H1632 0.984 . S
N1629 H1633 0.985 . S
H1630 N1625 0.984 . S
H1631 N1625 0.985 . S
H1632 N1629 0.984 . S
H1633 N1629 0.985 . S
H1634 N1628 0.984 . S
H1635 N1628 0.984 . S
H1636 N1624 0.984 . S
H1637 N1624 0.985 . S
C1638 C1639 1.363 . S
C1638 C1644 1.379 . S
C1638 N1646 1.356 . S
C1639 C1638 1.363 . S
C1639 C1645 1.363 . S
C1640 C1641 1.363 . S
C1640 C1645 1.379 . S
C1640 N1647 1.356 1_554 S
C1641 C1640 1.363 . S
C1641 C1644 1.363 . S
N1642 C1644 1.356 . S
N1642 H1654 0.984 . S
N1642 H1655 0.985 . S
N1643 C1645 1.356 1_556 S
N1643 H1648 0.984 . S
N1643 H1649 0.985 . S
C1644 C1638 1.379 . S
C1644 C1641 1.363 . S
C1644 N1642 1.356 . S
C1645 C1639 1.363 . S
C1645 C1640 1.379 . S
C1645 N1643 1.356 1_554 S
N1646 C1638 1.356 . S
N1646 H1652 0.984 . S
N1646 H1653 0.984 . S
N1647 C1640 1.356 1_556 S
N1647 H1650 0.984 . S
N1647 H1651 0.985 . S
H1648 N1643 0.984 . S
H1649 N1643 0.985 . S
H1650 N1647 0.984 . S
H1651 N1647 0.985 . S
H1652 N1646 0.984 . S
H1653 N1646 0.984 . S
H1654 N1642 0.984 . S
H1655 N1642 0.985 . S
C1656 C1657 1.363 . S
C1656 C1662 1.379 . S
C1656 N1664 1.356 1_554 S
C1657 C1656 1.363 . S
C1657 C1663 1.363 . S
C1658 C1659 1.363 . S
C1658 C1663 1.379 . S
C1658 N1665 1.356 . S
C1659 C1658 1.363 . S
C1659 C1662 1.363 . S
N1660 C1662 1.356 1_556 S
N1660 H1672 0.984 . S
N1660 H1673 0.985 . S
N1661 C1663 1.356 . S
N1661 H1666 0.984 . S
N1661 H1667 0.985 . S
C1662 C1656 1.379 . S
C1662 C1659 1.363 . S
C1662 N1660 1.356 1_554 S
C1663 C1657 1.363 . S
C1663 C1658 1.379 . S
C1663 N1661 1.356 . S
N1664 C1656 1.356 1_556 S
N1664 H1670 0.984 . S
N1664 H1671 0.984 . S
N1665 C1658 1.356 . S
N1665 H1668 0.984 . S
N1665 H1669 0.985 . S
H1666 N1661 0.984 . S
H1667 N1661 0.985 . S
H1668 N1665 0.984 . S
H1669 N1665 0.985 . S
H1670 N1664 0.984 . S
H1671 N1664 0.984 . S
H1672 N1660 0.984 . S
H1673 N1660 0.985 . S
C1674 C1675 1.363 . S
C1674 C1680 1.379 . S
C1674 N1682 1.356 1_554 S
C1675 C1674 1.363 . S
C1675 C1681 1.363 . S
C1676 C1677 1.363 . S
C1676 C1681 1.379 . S
C1676 N1683 1.356 . S
C1677 C1676 1.363 . S
C1677 C1680 1.363 . S
N1678 C1680 1.356 1_556 S
N1678 H1690 0.984 . S
N1678 H1691 0.985 . S
N1679 C1681 1.356 . S
N1679 H1684 0.984 . S
N1679 H1685 0.985 . S
C1680 C1674 1.379 . S
C1680 C1677 1.363 . S
C1680 N1678 1.356 1_554 S
C1681 C1675 1.363 . S
C1681 C1676 1.379 . S
C1681 N1679 1.356 . S
N1682 C1674 1.356 1_556 S
N1682 H1688 0.984 . S
N1682 H1689 0.984 . S
N1683 C1676 1.356 . S
N1683 H1686 0.984 . S
N1683 H1687 0.985 . S
H1684 N1679 0.984 . S
H1685 N1679 0.985 . S
H1686 N1683 0.984 . S
H1687 N1683 0.985 . S
H1688 N1682 0.984 . S
H1689 N1682 0.984 . S
H1690 N1678 0.984 . S
H1691 N1678 0.985 . S
C1692 C1693 1.363 . S
C1692 C1698 1.379 . S
C1692 N1700 1.356 1_556 S
C1693 C1692 1.363 . S
C1693 C1699 1.363 . S
C1694 C1695 1.363 . S
C1694 C1699 1.379 . S
C1694 N1701 1.356 . S
C1695 C1694 1.363 . S
C1695 C1698 1.363 . S
N1696 C1698 1.356 1_554 S
N1696 H1708 0.984 . S
N1696 H1709 0.985 . S
N1697 C1699 1.356 . S
N1697 H1702 0.984 . S
N1697 H1703 0.985 . S
C1698 C1692 1.379 . S
C1698 C1695 1.363 . S
C1698 N1696 1.356 1_556 S
C1699 C1693 1.363 . S
C1699 C1694 1.379 . S
C1699 N1697 1.356 . S
N1700 C1692 1.356 1_554 S
N1700 H1706 0.984 . S
N1700 H1707 0.984 . S
N1701 C1694 1.356 . S
N1701 H1704 0.984 . S
N1701 H1705 0.985 . S
H1702 N1697 0.984 . S
H1703 N1697 0.985 . S
H1704 N1701 0.984 . S
H1705 N1701 0.985 . S
H1706 N1700 0.984 . S
H1707 N1700 0.984 . S
H1708 N1696 0.984 . S
H1709 N1696 0.985 . S
C1710 C1711 1.363 . S
C1710 C1716 1.379 . S
C1710 N1718 1.356 1_556 S
C1711 C1710 1.363 . S
C1711 C1717 1.363 . S
C1712 C1713 1.363 . S
C1712 C1717 1.379 . S
C1712 N1719 1.356 . S
C1713 C1712 1.363 . S
C1713 C1716 1.363 . S
N1714 C1716 1.356 1_554 S
N1714 H1726 0.984 . S
N1714 H1727 0.985 . S
N1715 C1717 1.356 . S
N1715 H1720 0.984 . S
N1715 H1721 0.985 . S
C1716 C1710 1.379 . S
C1716 C1713 1.363 . S
C1716 N1714 1.356 1_556 S
C1717 C1711 1.363 . S
C1717 C1712 1.379 . S
C1717 N1715 1.356 . S
N1718 C1710 1.356 1_554 S
N1718 H1724 0.984 . S
N1718 H1725 0.984 . S
N1719 C1712 1.356 . S
N1719 H1722 0.984 . S
N1719 H1723 0.985 . S
H1720 N1715 0.984 . S
H1721 N1715 0.985 . S
H1722 N1719 0.984 . S
H1723 N1719 0.985 . S
H1724 N1718 0.984 . S
H1725 N1718 0.984 . S
H1726 N1714 0.984 . S
H1727 N1714 0.985 . S
C1728 C1729 1.363 . S
C1728 C1734 1.379 . S
C1728 N1736 1.356 . S
C1729 C1728 1.363 . S
C1729 C1735 1.363 . S
C1730 C1731 1.363 . S
C1730 C1735 1.379 . S
C1730 N1737 1.356 . S
C1731 C1730 1.363 . S
C1731 C1734 1.363 . S
N1732 C1734 1.356 . S
N1732 H1744 0.984 . S
N1732 H1745 0.985 . S
N1733 C1735 1.356 . S
N1733 H1738 0.984 . S
N1733 H1739 0.990 . S
C1734 C1728 1.379 . S
C1734 C1731 1.363 . S
C1734 N1732 1.356 . S
C1735 C1729 1.363 . S
C1735 C1730 1.379 . S
C1735 N1733 1.356 . S
N1736 C1728 1.356 . S
N1736 H1742 0.984 . S
N1736 H1743 0.984 . S
N1737 C1730 1.356 . S
N1737 H1740 0.984 . S
N1737 H1741 0.990 . S
H1738 N1733 0.984 . S
H1739 N1733 0.990 . S
H1740 N1737 0.984 . S
H1741 N1737 0.990 . S
H1742 N1736 0.984 . S
H1743 N1736 0.984 . S
H1744 N1732 0.984 . S
H1745 N1732 0.985 . S
C1746 C1747 1.363 . S
C1746 C1752 1.379 . S
C1746 N1754 1.356 . S
C1747 C1746 1.363 . S
C1747 C1753 1.363 . S
C1748 C1749 1.363 . S
C1748 C1753 1.379 . S
C1748 N1755 1.356 . S
C1749 C1748 1.363 . S
C1749 C1752 1.363 . S
N1750 C1752 1.356 . S
N1750 H1762 0.984 . S
N1750 H1763 0.985 . S
N1751 C1753 1.356 . S
N1751 H1756 0.984 . S
N1751 H1757 0.985 . S
C1752 C1746 1.379 . S
C1752 C1749 1.363 . S
C1752 N1750 1.356 . S
C1753 C1747 1.363 . S
C1753 C1748 1.379 . S
C1753 N1751 1.356 . S
N1754 C1746 1.356 . S
N1754 H1760 0.984 . S
N1754 H1761 0.984 . S
N1755 C1748 1.356 . S
N1755 H1758 0.984 . S
N1755 H1759 0.985 . S
H1756 N1751 0.984 . S
H1757 N1751 0.985 . S
H1758 N1755 0.984 . S
H1759 N1755 0.985 . S
H1760 N1754 0.984 . S
H1761 N1754 0.984 . S
H1762 N1750 0.984 . S
H1763 N1750 0.985 . S
C1764 C1765 1.363 . S
C1764 C1770 1.379 . S
C1764 N1772 1.356 . S
C1765 C1764 1.363 . S
C1765 C1771 1.363 . S
C1766 C1767 1.363 . S
C1766 C1771 1.379 . S
C1766 N1773 1.356 . S
C1767 C1766 1.363 . S
C1767 C1770 1.363 . S
N1768 C1770 1.356 . S
N1768 H1780 0.984 . S
N1768 H1781 0.985 . S
N1769 C1771 1.356 . S
N1769 H1774 0.984 . S
N1769 H1775 0.985 . S
C1770 C1764 1.379 . S
C1770 C1767 1.363 . S
C1770 N1768 1.356 . S
C1771 C1765 1.363 . S
C1771 C1766 1.379 . S
C1771 N1769 1.356 . S
N1772 C1764 1.356 . S
N1772 H1778 0.984 . S
N1772 H1779 0.984 . S
N1773 C1766 1.356 . S
N1773 H1776 0.984 . S
N1773 H1777 0.985 . S
H1774 N1769 0.984 . S
H1775 N1769 0.985 . S
H1776 N1773 0.984 . S
H1777 N1773 0.985 . S
H1778 N1772 0.984 . S
H1779 N1772 0.984 . S
H1780 N1768 0.984 . S
H1781 N1768 0.985 . S
C1782 C1783 1.363 . S
C1782 C1788 1.379 . S
C1782 N1790 1.356 . S
C1783 C1782 1.363 . S
C1783 C1789 1.363 . S
C1784 C1785 1.363 . S
C1784 C1789 1.379 . S
C1784 N1791 1.356 . S
C1785 C1784 1.363 . S
C1785 C1788 1.363 . S
N1786 C1788 1.356 . S
N1786 H1798 0.984 . S
N1786 H1799 0.985 . S
N1787 C1789 1.356 . S
N1787 H1792 0.984 . S
N1787 H1793 0.985 . S
C1788 C1782 1.379 . S
C1788 C1785 1.363 . S
C1788 N1786 1.356 . S
C1789 C1783 1.363 . S
C1789 C1784 1.379 . S
C1789 N1787 1.356 . S
N1790 C1782 1.356 . S
N1790 H1796 0.984 . S
N1790 H1797 0.984 . S
N1791 C1784 1.356 . S
N1791 H1794 0.984 . S
N1791 H1795 0.985 . S
H1792 N1787 0.984 . S
H1793 N1787 0.985 . S
H1794 N1791 0.984 . S
H1795 N1791 0.985 . S
H1796 N1790 0.984 . S
H1797 N1790 0.984 . S
H1798 N1786 0.984 . S
H1799 N1786 0.985 . S
C505 C76 1.325 . S
C507 C6 1.325 . S
C523 C48 1.325 . S
C525 C20 1.325 . S
C541 C34 1.325 . S
C543 C62 1.325 . S
C559 C90 1.325 . S
C561 C160 1.325 . S
C577 C104 1.325 . S
C579 C132 1.325 . S
C595 C146 1.325 . S
C597 C118 1.325 . S
C613 C174 1.325 . S
C615 C244 1.325 . S
C631 C188 1.325 . S
C633 C216 1.325 . S
C649 C202 1.325 . S
C651 C230 1.325 . S
C667 C328 1.325 . S
C669 C258 1.325 . S
C685 C272 1.325 . S
C687 C300 1.325 . S
C703 C314 1.325 . S
C705 C286 1.325 . S
C721 C412 1.325 . S
C723 C342 1.325 . S
C739 C384 1.325 . S
C741 C356 1.325 . S
C757 C398 1.325 . S
C759 C370 1.325 . S
C775 C426 1.325 . S
C777 C496 1.325 . S
C793 C440 1.325 . S
C795 C468 1.325 . S
C811 C454 1.325 . S
C813 C482 1.325 . S
C829 C78 1.937 . S
C831 C8 1.937 . S
C847 C22 1.937 . S
C849 C50 1.937 . S
C865 C64 1.937 . S
C867 C36 1.937 . S
C883 C92 1.937 . S
C885 C162 1.937 . S
C901 C106 1.937 . S
C903 C134 1.937 . S
C919 C148 1.937 . S
C921 C120 1.937 . S
C937 C176 1.937 . S
C939 C246 1.937 . S
C955 C218 1.937 . S
C957 C190 1.937 . S
C973 C232 1.937 . S
C975 C204 1.937 . S
C991 C260 1.937 . S
C993 C330 1.937 . S
C1009 C274 1.937 . S
C1011 C302 1.937 . S
C1027 C316 1.937 . S
C1029 C288 1.937 . S
C1045 C414 1.937 . S
C1047 C344 1.937 . S
C1063 C358 1.937 . S
C1065 C386 1.937 . S
C1081 C372 1.937 . S
C1083 C400 1.937 . S
C1099 C498 1.937 . S
C1101 C428 1.937 . S
C1117 C470 1.937 . S
C1119 C442 1.937 . S
C1135 C484 1.937 . S
C1137 C456 1.937 . S
C1153 C233 1.641 . S
C1155 C9 1.641 . S
C1171 C247 1.641 . S
C1173 C23 1.641 . S
C1189 C219 1.641 . S
C1191 C37 1.641 . S
C1207 C51 1.641 . S
C1209 C373 1.641 . S
C1225 C65 1.641 . S
C1227 C345 1.641 . S
C1243 C79 1.641 . S
C1245 C359 1.641 . S
C1261 C93 1.641 . S
C1263 C485 1.641 . S
C1279 C107 1.641 . S
C1281 C499 1.641 . S
C1297 C121 1.641 . S
C1299 C471 1.641 . S
C1315 C135 1.641 . S
C1317 C289 1.641 . S
C1333 C261 1.641 . S
C1335 C149 1.641 . S
C1351 C275 1.641 . S
C1353 C163 1.641 . S
C1369 C401 1.641 . S
C1371 C177 1.641 . S
C1387 C191 1.641 . S
C1389 C415 1.641 . S
C1405 C205 1.641 . S
C1407 C387 1.641 . S
C1423 C303 1.641 . S
C1425 C457 1.641 . S
C1441 C317 1.641 . S
C1443 C429 1.641 . S
C1459 C443 1.641 . S
C1461 C331 1.641 . S
C1477 C7 1.441 . S
C1479 C147 1.441 . S
C1495 C161 1.441 . S
C1497 C21 1.441 . S
C1513 C133 1.442 . S
C1515 C35 1.442 . S
C1531 C49 1.441 . S
C1533 C119 1.441 . S
C1549 C63 1.441 . S
C1551 C91 1.441 . S
C1567 C77 1.441 . S
C1569 C105 1.441 . S
C1585 C175 1.441 . S
C1587 C315 1.441 . S
C1603 C329 1.441 . S
C1605 C189 1.441 . S
C1621 C301 1.441 . S
C1623 C203 1.441 . S
C1639 C217 1.441 . S
C1641 C287 1.441 . S
C1657 C231 1.441 . S
C1659 C259 1.441 . S
C1675 C273 1.441 . S
C1677 C245 1.441 . S
C1693 C343 1.441 . S
C1695 C483 1.441 . S
C1711 C497 1.441 . S
C1713 C357 1.441 . S
C1729 C371 1.441 . S
C1731 C469 1.441 . S
C1747 C385 1.441 . S
C1749 C455 1.441 . S
C1765 C427 1.441 . S
C1767 C399 1.441 . S
C1783 C413 1.441 . S
C1785 C441 1.441 . S
