# Generated by pormake.
# Topology hcp, (12)-cn, num edge types: 1
# Building blocks:
#     Node 0, Type 0, BuildingBlock: ZALLEG_clean_sbu_0, # of connection points: 12
#     Node 1, Type 0, BuildingBlock: ZALLEG_clean_sbu_0, # of connection points: 12
#     Edge 2, Type (0, 0), BuildingBlock: MIFKUJ_clean_linker_0, # of connection points: 2
#     Edge 3, Type (0, 0), BuildingBlock: MIFKUJ_clean_linker_0, # of connection points: 2
#     Edge 4, Type (0, 0), BuildingBlock: MIFKUJ_clean_linker_0, # of connection points: 2
#     Edge 5, Type (0, 0), BuildingBlock: MIFKUJ_clean_linker_0, # of connection points: 2
#     Edge 6, Type (0, 0), BuildingBlock: MIFKUJ_clean_linker_0, # of connection points: 2
#     Edge 7, Type (0, 0), BuildingBlock: MIFKUJ_clean_linker_0, # of connection points: 2
#     Edge 8, Type (0, 0), BuildingBlock: MIFKUJ_clean_linker_0, # of connection points: 2
#     Edge 9, Type (0, 0), BuildingBlock: MIFKUJ_clean_linker_0, # of connection points: 2
#     Edge 10, Type (0, 0), BuildingBlock: MIFKUJ_clean_linker_0, # of connection points: 2
#     Edge 11, Type (0, 0), BuildingBlock: MIFKUJ_clean_linker_0, # of connection points: 2
#     Edge 12, Type (0, 0), BuildingBlock: MIFKUJ_clean_linker_0, # of connection points: 2
#     Edge 13, Type (0, 0), BuildingBlock: MIFKUJ_clean_linker_0, # of connection points: 2
# Relax obj value: 0.186
# Max RMSD: 0.270
# Mean RMSD: 0.270
data_MOF--net-hcp--node1-ZALLEG_clean_sbu_0--edge1-MIFKUJ_clean_linker_0
_symmetry_space_group_name_H-M    P1
_symmetry_Int_Tables_number       1
_symmetry_cell_setting            triclinic
loop_
_symmetry_equiv_pos_as_xyz
'x, y, z'
_cell_length_a     22.910157
_cell_length_b     22.850228
_cell_length_c     36.055297
_cell_angle_alpha  90.313795
_cell_angle_beta   89.75329
_cell_angle_gamma 119.62072
loop_
_atom_site_label
_atom_site_type_symbol
_atom_site_fract_x
_atom_site_fract_y
_atom_site_fract_z
_atom_type_partial_charge
H0 H 0.58811 0.18008 0.26058 0.0
O1 O 0.6087 0.22687 0.26981 0.0
Tb2 Tb 0.5553 0.27485 0.25206 0.0
Tb3 Tb 0.61445 0.22852 0.32816 0.0
Tb4 Tb 0.70554 0.2822 0.24888 0.0
O5 O 0.55563 0.27084 0.31068 0.0
O6 O 0.65187 0.32805 0.22908 0.0
O7 O 0.59916 0.37274 0.27231 0.0
O8 O 0.65727 0.3264 0.3493 0.0
O9 O 0.75299 0.38195 0.26878 0.0
O10 O 0.7118 0.28274 0.30734 0.0
H11 H 0.50977 0.24523 0.32099 0.0
H12 H 0.65035 0.32813 0.20168 0.0
Tb13 Tb 0.60094 0.36919 0.3306 0.0
Tb14 Tb 0.69769 0.42624 0.25101 0.0
H15 H 0.57211 0.39315 0.26435 0.0
H16 H 0.65859 0.32636 0.37664 0.0
Tb17 Tb 0.75357 0.38231 0.32713 0.0
H18 H 0.79915 0.40789 0.25904 0.0
H19 H 0.73858 0.26237 0.31599 0.0
O20 O 0.69935 0.42813 0.30977 0.0
H21 H 0.72037 0.4746 0.31962 0.0
O22 O 0.47604 0.17357 0.26432 0.0
O23 O 0.83312 0.48369 0.31585 0.0
O24 O 0.77481 0.33608 0.37321 0.0
O25 O 0.53963 0.32999 0.20542 0.0
O26 O 0.6384 0.14956 0.31577 0.0
O27 O 0.67449 0.50567 0.26493 0.0
O28 O 0.76275 0.4386 0.20151 0.0
O29 O 0.55253 0.21041 0.37681 0.0
O30 O 0.65012 0.21602 0.20093 0.0
O31 O 0.64899 0.43302 0.3779 0.0
O32 O 0.49879 0.34785 0.32176 0.0
O33 O 0.80824 0.30408 0.25862 0.0
O34 O 0.51624 0.13948 0.31632 0.0
O35 O 0.79561 0.51513 0.262 0.0
O36 O 0.64049 0.43618 0.20566 0.0
O37 O 0.6747 0.22983 0.37782 0.0
O38 O 0.46631 0.28217 0.26639 0.0
O39 O 0.84231 0.37461 0.31242 0.0
O40 O 0.75534 0.43827 0.37895 0.0
O41 O 0.5439 0.21092 0.20432 0.0
O42 O 0.54676 0.31148 0.38179 0.0
O43 O 0.76523 0.33571 0.20102 0.0
O44 O 0.70021 0.18561 0.25927 0.0
O45 O 0.60706 0.46621 0.31972 0.0
C46 C 0.47038 0.12948 0.29028 0.0
C47 C 0.84046 0.52618 0.28867 0.0
C48 C 0.73645 0.27703 0.38943 0.0
C49 C 0.57925 0.39315 0.19285 0.0
C50 C 0.6723 0.14269 0.28742 0.0
C51 C 0.6378 0.51084 0.29247 0.0
C52 C 0.78356 0.39683 0.18776 0.0
C53 C 0.53351 0.25014 0.39378 0.0
C54 C 0.58683 0.1939 0.18926 0.0
C55 C 0.70873 0.45222 0.39285 0.0
C56 C 0.45538 0.31345 0.2948 0.0
C57 C 0.85273 0.3415 0.28469 0.0
H58 H 0.17793 0.60297 0.7546 0.0
O59 O 0.22392 0.61981 0.76407 0.0
Tb60 Tb 0.2249 0.62286 0.8225 0.0
Tb61 Tb 0.2642 0.55949 0.74495 0.0
Tb62 Tb 0.28609 0.71751 0.74516 0.0
O63 O 0.2592 0.55735 0.80339 0.0
O64 O 0.28653 0.72093 0.80387 0.0
O65 O 0.32156 0.65635 0.84361 0.0
O66 O 0.36117 0.59478 0.76488 0.0
O67 O 0.38481 0.75582 0.76557 0.0
O68 O 0.32474 0.65749 0.72424 0.0
H69 H 0.23006 0.51116 0.81258 0.0
H70 H 0.26914 0.75009 0.81332 0.0
Tb71 Tb 0.35645 0.59335 0.8231 0.0
Tb72 Tb 0.3849 0.75368 0.82394 0.0
H73 H 0.32137 0.65612 0.87096 0.0
H74 H 0.37829 0.56511 0.75605 0.0
Tb75 Tb 0.42184 0.69459 0.746 0.0
H76 H 0.41427 0.80229 0.75691 0.0
H77 H 0.32579 0.65807 0.69683 0.0
O78 O 0.4224 0.69245 0.80456 0.0
H79 H 0.46837 0.70928 0.8141 0.0
O80 O 0.13119 0.5287 0.81017 0.0
O81 O 0.51568 0.78864 0.75797 0.0
O82 O 0.42469 0.63857 0.69761 0.0
O83 O 0.23076 0.68272 0.8736 0.0
O84 O 0.20874 0.55775 0.6959 0.0
O85 O 0.43987 0.74682 0.8744 0.0
O86 O 0.38531 0.84847 0.81183 0.0
O87 O 0.26211 0.46423 0.75627 0.0
O88 O 0.19219 0.71889 0.7556 0.0
O89 O 0.45087 0.59231 0.81158 0.0
O90 O 0.29458 0.53923 0.87325 0.0
O91 O 0.34507 0.77897 0.69851 0.0
O92 O 0.1585 0.4862 0.756 0.0
O93 O 0.4896 0.82832 0.81331 0.0
O94 O 0.34225 0.77595 0.87176 0.0
O95 O 0.31648 0.54031 0.69794 0.0
O96 O 0.20068 0.5572 0.86973 0.0
O97 O 0.44144 0.76476 0.69857 0.0
O98 O 0.49472 0.66127 0.75769 0.0
O99 O 0.15135 0.65522 0.81111 0.0
O100 O 0.32529 0.48795 0.81197 0.0
O101 O 0.31775 0.82299 0.75727 0.0
O102 O 0.21917 0.66681 0.69621 0.0
O103 O 0.41933 0.63417 0.87108 0.0
C104 C 0.11635 0.48333 0.78282 0.0
C105 C 0.53096 0.83319 0.78572 0.0
C106 C 0.37898 0.57857 0.68431 0.0
C107 C 0.28172 0.74093 0.88703 0.0
C108 C 0.19607 0.60433 0.68206 0.0
C109 C 0.44667 0.6947 0.88693 0.0
C110 C 0.35655 0.8645 0.78423 0.0
C111 C 0.28911 0.44733 0.7842 0.0
C112 C 0.14752 0.69155 0.7832 0.0
C113 C 0.4966 0.62162 0.78443 0.0
C114 C 0.23527 0.53141 0.88552 0.0
C115 C 0.40483 0.79161 0.68545 0.0
H116 H 0.25312 0.84026 0.90422 0.0
H117 H 0.29918 0.91525 0.95822 0.0
H118 H 0.3633 0.78282 1.00451 0.0
H119 H 0.3161 0.70761 0.95118 0.0
H120 H 0.29075 0.91205 1.03492 0.0
H121 H 0.53764 0.89244 1.0311 0.0
H122 H 0.6082 0.8743 0.98589 0.0
H123 H 0.51492 0.92083 0.8965 0.0
H124 H 0.44642 0.94282 0.94117 0.0
H125 H 0.47571 0.07218 0.19415 0.0
H126 H 0.41819 0.99041 0.1447 0.0
H127 H 0.5722 0.11912 0.06727 0.0
H128 H 0.63213 0.19952 0.11777 0.0
H129 H 0.53556 -0.00063 0.04853 0.0
H130 H 0.40997 0.10932 0.07419 0.0
H131 H 0.35143 0.15266 0.11364 0.0
H132 H 0.21044 0.95132 0.14766 0.0
H133 H 0.26854 0.90682 0.10862 0.0
C134 C 0.27304 0.82502 0.92712 0.0
C135 C 0.27845 0.76651 0.92416 0.0
C136 C 0.30049 0.86851 0.95771 0.0
C137 C 0.33557 0.85519 0.98532 0.0
C138 C 0.33655 0.79427 0.98369 0.0
C139 C 0.30815 0.75039 0.95352 0.0
C140 C 0.37626 0.90731 1.01376 0.0
C141 C 0.34417 0.93075 1.03801 0.0
C142 C 0.44672 0.93404 1.01698 0.0
C143 C 0.48584 0.91817 0.98964 0.0
C144 C 0.53228 0.89909 1.00183 0.0
C145 C 0.57248 0.88882 0.97629 0.0
C146 C 0.56605 0.89641 0.93835 0.0
C147 C 0.51973 0.91478 0.92589 0.0
C148 C 0.4803 0.92633 0.95136 0.0
C149 C 0.49782 0.08245 0.16665 0.0
C150 C 0.55829 0.1421 0.1597 0.0
C151 C 0.46447 0.03598 0.13823 0.0
C152 C 0.4893 0.04908 0.10169 0.0
C153 C 0.55141 0.10768 0.09503 0.0
C154 C 0.58584 0.15364 0.12386 0.0
C155 C 0.44969 0.00221 0.07068 0.0
C156 C 0.482 0.98004 0.04574 0.0
C157 C 0.38 0.97855 0.06589 0.0
C158 C 0.34381 0.0048 0.08865 0.0
C159 C 0.36655 0.07432 0.09014 0.0
C160 C 0.33346 0.09909 0.11243 0.0
C161 C 0.2773 0.05478 0.13317 0.0
C162 C 0.25393 0.98557 0.13154 0.0
C163 C 0.28682 0.96052 0.10928 0.0
H164 H 0.25185 0.07406 0.15049 0.0
H165 H 0.59677 0.8878 0.91861 0.0
H166 H 0.44076 0.6467 0.62232 0.0
H167 H 0.50147 0.61816 0.57644 0.0
H168 H 0.43812 0.42879 0.63133 0.0
H169 H 0.37637 0.45747 0.67756 0.0
H170 H 0.5772 0.49941 0.61576 0.0
H171 H 0.37378 0.4245 0.54933 0.0
H172 H 0.27672 0.42961 0.52384 0.0
H173 H 0.40907 0.60206 0.45889 0.0
H174 H 0.50706 0.59864 0.48439 0.0
H175 H 0.70578 0.39559 0.45898 0.0
H176 H 0.65483 0.41315 0.51455 0.0
H177 H 0.67029 0.59223 0.4656 0.0
H178 H 0.71728 0.57169 0.40935 0.0
H179 H 0.54622 0.50929 0.48035 0.0
H180 H 0.74864 0.59681 0.55836 0.0
H181 H 0.84553 0.59234 0.58492 0.0
H182 H 0.71438 0.39188 0.62411 0.0
H183 H 0.6164 0.39644 0.59922 0.0
C184 C 0.43823 0.59815 0.62402 0.0
C185 C 0.40274 0.5537 0.65298 0.0
C186 C 0.47326 0.58199 0.5979 0.0
C187 C 0.47436 0.52121 0.60027 0.0
C188 C 0.43789 0.47589 0.62886 0.0
C189 C 0.40181 0.49178 0.65489 0.0
C190 C 0.51563 0.50736 0.57323 0.0
C191 C 0.56979 0.50045 0.58612 0.0
C192 C 0.50669 0.50936 0.53454 0.0
C193 C 0.44786 0.51162 0.51904 0.0
C194 C 0.38226 0.46388 0.52985 0.0
C195 C 0.32706 0.46643 0.51537 0.0
C196 C 0.33675 0.51629 0.48988 0.0
C197 C 0.40166 0.56355 0.4787 0.0
C198 C 0.45705 0.56127 0.49312 0.0
C199 C 0.7015 0.44049 0.46099 0.0
C200 C 0.71566 0.48226 0.42994 0.0
C201 C 0.67198 0.45056 0.49282 0.0
C202 C 0.65758 0.50371 0.49437 0.0
C203 C 0.67996 0.55037 0.4651 0.0
C204 C 0.70811 0.53942 0.43312 0.0
C205 C 0.61004 0.50476 0.5227 0.0
C206 C 0.55394 0.50835 0.50996 0.0
C207 C 0.61716 0.49944 0.56136 0.0
C208 C 0.6755 0.49685 0.5768 0.0
C209 C 0.74056 0.55196 0.57282 0.0
C210 C 0.79552 0.54961 0.58785 0.0
C211 C 0.78611 0.49188 0.60624 0.0
C212 C 0.72156 0.43671 0.61007 0.0
C213 C 0.66623 0.43941 0.59587 0.0
H214 H 0.82883 0.48985 0.61746 0.0
H215 H 0.29395 0.51818 0.47869 0.0
H216 H 0.81066 0.48745 0.12961 0.0
H217 H 0.89305 0.51337 0.07897 0.0
H218 H 0.95306 0.37953 0.12813 0.0
H219 H 0.87448 0.35578 0.17815 0.0
H220 H 0.05808 0.4842 0.10726 0.0
H221 H 0.84362 0.33557 0.0528 0.0
H222 H 0.72821 0.30001 1.03237 0.0
H223 H 0.80261 0.47131 0.96039 0.0
H224 H 0.91841 0.50869 0.98101 0.0
H225 H 0.12478 0.41029 0.89889 0.0
H226 H 0.05184 0.38525 0.95335 0.0
H227 H 0.20039 0.56909 1.00479 0.0
H228 H 0.27616 0.59027 0.95215 0.0
H229 H -0.00806 0.44515 0.97507 0.0
H230 H 0.17863 0.57258 0.10036 0.0
H231 H 0.28116 0.57985 0.12657 0.0
H232 H 0.25071 0.40944 0.06132 0.0
H233 H 0.14628 0.39895 1.036 0.0
C234 C 0.84213 0.46442 0.12964 0.0
C235 C 0.83509 0.41889 0.15776 0.0
C236 C 0.88883 0.47874 0.10057 0.0
C237 C 0.92926 0.44797 0.0994 0.0
C238 C 0.92305 0.40422 0.12812 0.0
C239 C 0.87717 0.39015 0.15674 0.0
C240 C 0.97806 0.45935 0.06872 0.0
C241 C 0.04383 0.47585 0.07832 0.0
C242 C 0.95916 0.44733 1.03093 0.0
C243 C 0.88957 0.42541 1.01881 0.0
C244 C 0.8353 0.36607 1.03292 0.0
C245 C 0.76982 0.34552 1.02127 0.0
C246 C 0.75807 0.38345 0.99516 0.0
C247 C 0.81178 0.44203 0.98066 0.0
C248 C 0.87733 0.46299 0.99237 0.0
C249 C 0.14379 0.44268 0.92306 0.0
C250 C 0.20728 0.501 0.92187 0.0
C251 C 0.10132 0.42941 0.95385 0.0
C252 C 0.12069 0.47519 0.98371 0.0
C253 C 0.18538 0.53173 0.98307 0.0
C254 C 0.22872 0.5437 0.95295 0.0
C255 C 0.07193 0.46749 1.01385 0.0
C256 C 0.0066 0.45308 1.00402 0.0
C257 C 0.09022 0.47793 0.05189 0.0
C258 C 0.15496 0.4858 0.06564 0.0
C259 C 0.19366 0.53656 0.09155 0.0
C260 C 0.25191 0.54094 0.1065 0.0
C261 C 0.27266 0.49543 0.09543 0.0
C262 C 0.23483 0.44499 0.06967 0.0
C263 C 0.17597 0.43972 0.05505 0.0
H264 H 0.31802 0.49922 0.10686 0.0
H265 H 0.70735 0.36741 0.98613 0.0
H266 H 0.45181 0.92368 0.69717 0.0
H267 H 0.47324 0.00995 0.65069 0.0
H268 H 0.44027 0.86684 0.56353 0.0
H269 H 0.41809 0.78006 0.6104 0.0
H270 H 0.54375 -0.00604 0.54642 0.0
H271 H 0.31839 0.89477 0.59268 0.0
H272 H 0.22987 0.86166 0.64006 0.0
H273 H 0.30312 0.06941 0.66771 0.0
H274 H 0.39396 0.10371 0.62166 0.0
H275 H 0.41272 0.14136 0.40913 0.0
H276 H 0.38979 0.0702 0.46397 0.0
H277 H 0.57242 0.22319 0.51435 0.0
H278 H 0.59296 0.29599 0.46037 0.0
H279 H 0.39202 0.09111 0.54943 0.0
H280 H 0.65274 0.11777 0.52908 0.0
H281 H 0.73746 0.14219 0.48023 0.0
H282 H 0.58353 0.07123 0.39708 0.0
H283 H 0.49781 0.04469 0.44548 0.0
C284 C 0.45068 0.91122 0.66806 0.0
C285 C 0.43389 0.84554 0.65731 0.0
C286 C 0.46249 0.96039 0.6415 0.0
C287 C 0.45733 0.94484 0.60348 0.0
C288 C 0.44444 0.88015 0.59266 0.0
C289 C 0.43229 0.83069 0.61937 0.0
C290 C 0.46172 -0.00523 0.57529 0.0
C291 C 0.51073 0.01535 0.54732 0.0
C292 C 0.41824 0.02258 0.57602 0.0
C293 C 0.36373 0.0018 0.60399 0.0
C294 C 0.31636 0.9334 0.60924 0.0
C295 C 0.26572 0.91439 0.6359 0.0
C296 C 0.26106 0.96337 0.65701 0.0
C297 C 0.30692 0.03148 0.65143 0.0
C298 C 0.35824 0.05071 0.6252 0.0
C299 C 0.44551 0.16161 0.43297 0.0
C300 C 0.50409 0.22483 0.43075 0.0
C301 C 0.43298 0.12042 0.46408 0.0
C302 C 0.47996 0.1408 0.49301 0.0
C303 C 0.53557 0.20622 0.49231 0.0
C304 C 0.54689 0.24822 0.46166 0.0
C305 C 0.47485 0.09105 0.52132 0.0
C306 C 0.42557 0.07035 0.54907 0.0
C307 C 0.5177 0.06279 0.52035 0.0
C308 C 0.56902 0.08025 0.4909 0.0
C309 C 0.63701 0.10739 0.50037 0.0
C310 C 0.68514 0.12117 0.47279 0.0
C311 C 0.66583 0.10804 0.4356 0.0
C312 C 0.59841 0.08137 0.4259 0.0
C313 C 0.55005 0.06707 0.4534 0.0
H314 H 0.70319 0.11877 0.4143 0.0
H315 H 0.22182 0.94858 0.67763 0.0
H316 H 0.54741 0.35847 0.11947 0.0
H317 H 0.52976 0.42561 0.07223 0.0
H318 H 0.54008 0.56427 0.15711 0.0
H319 H 0.55575 0.49621 0.20404 0.0
H320 H 0.45372 0.55553 0.10606 0.0
H321 H 0.67867 0.59623 0.10625 0.0
H322 H 0.76771 0.5654 0.10399 0.0
H323 H 0.70488 0.48334 0.9946 0.0
H324 H 0.61488 0.51269 0.99647 0.0
H325 H 0.45767 0.75924 0.95504 0.0
H326 H 0.49959 0.73737 1.0132 0.0
H327 H 0.54717 0.60129 0.95374 0.0
H328 H 0.52013 0.63451 0.89659 0.0
H329 H 0.61916 0.63145 1.00341 0.0
H330 H 0.37695 0.58571 1.0121 0.0
H331 H 0.30734 0.64026 1.01726 0.0
H332 H 0.41134 0.74284 0.11615 0.0
H333 H 0.48602 0.6942 0.10977 0.0
C334 C 0.54372 0.40204 0.12802 0.0
C335 C 0.55306 0.42235 0.16533 0.0
C336 C 0.53443 0.44096 0.10103 0.0
C337 C 0.53498 0.50117 0.11085 0.0
C338 C 0.53976 0.51858 0.14856 0.0
C339 C 0.54897 0.47977 0.17539 0.0
C340 C 0.53613 0.54858 0.08182 0.0
C341 C 0.48929 0.5714 0.08326 0.0
C342 C 0.58461 0.57267 0.05308 0.0
C343 C 0.63967 0.55618 0.05163 0.0
C344 C 0.68365 0.57127 0.0818 0.0
C345 C 0.73428 0.55399 0.0806 0.0
C346 C 0.74184 0.52212 0.04925 0.0
C347 C 0.69895 0.50779 1.01895 0.0
C348 C 0.64814 0.5248 1.02004 0.0
C349 C 0.48105 0.72806 0.95444 0.0
C350 C 0.48543 0.69873 0.92095 0.0
C351 C 0.50254 0.71298 0.98805 0.0
C352 C 0.5228 0.66351 0.98919 0.0
C353 C 0.53149 0.63885 0.95502 0.0
C354 C 0.5152 0.6577 0.92175 0.0
C355 C 0.53101 0.6322 1.02442 0.0
C356 C 0.58151 0.61384 1.02517 0.0
C357 C 0.48609 0.61275 0.05523 0.0
C358 C 0.43731 0.63678 0.06029 0.0
C359 C 0.38472 0.61962 1.03503 0.0
C360 C 0.34468 0.64984 1.03801 0.0
C361 C 0.35399 0.69393 0.06726 0.0
C362 C 0.40409 0.70867 0.09347 0.0
C363 C 0.44587 0.68053 0.08994 0.0
H364 H 0.32253 0.71682 0.06952 0.0
H365 H 0.78101 0.50871 0.0484 0.0
H366 H 0.69207 0.28583 0.45774 0.0
H367 H 0.76719 0.33888 0.51083 0.0
H368 H 0.92152 0.31568 0.45531 0.0
H369 H 0.84798 0.26714 0.40138 0.0
H370 H 0.91469 0.29629 0.53572 0.0
H371 H 0.93549 0.44936 0.44282 0.0
H372 H 0.91015 0.51534 0.39852 0.0
H373 H 0.84309 0.59262 0.4879 0.0
H374 H 0.86637 0.52535 0.53259 0.0
H375 H 0.21091 0.54479 0.62068 0.0
H376 H 0.12661 0.48106 0.57352 0.0
H377 H -0.00738 0.54083 0.62351 0.0
H378 H 0.07852 0.60668 0.67048 0.0
H379 H 0.98472 0.5386 0.54803 0.0
H380 H 0.98036 0.38036 0.64092 0.0
H381 H 0.03293 0.32752 0.67748 0.0
H382 H 0.0956 0.27219 0.57743 0.0
H383 H 0.04395 0.32471 0.54017 0.0
C384 C 0.74097 0.28959 0.4576 0.0
C385 C 0.76395 0.27213 0.42551 0.0
C386 C 0.78425 0.32066 0.48774 0.0
C387 C 0.85061 0.33259 0.48677 0.0
C388 C 0.87074 0.3074 0.45666 0.0
C389 C 0.82821 0.27847 0.42607 0.0
C390 C 0.90079 0.37663 0.5151 0.0
C391 C 0.92987 0.34924 0.53844 0.0
C392 C 0.92166 0.44612 0.51834 0.0
C393 C 0.90128 0.48116 0.49109 0.0
C394 C 0.91363 0.47892 0.45298 0.0
C395 C 0.90029 0.51709 0.42778 0.0
C396 C 0.87551 0.55852 0.4404 0.0
C397 C 0.86275 0.56086 0.47816 0.0
C398 C 0.87553 0.52235 0.5034 0.0
C399 C 0.16415 0.54588 0.62102 0.0
C400 C 0.15161 0.58133 0.64906 0.0
C401 C 0.11545 0.50846 0.59435 0.0
C402 C 0.05208 0.50401 0.5955 0.0
C403 C 0.04077 0.54272 0.62218 0.0
C404 C 0.09013 0.58105 0.64878 0.0
C405 C -0.00223 0.45812 0.56927 0.0
C406 C 0.96818 0.48526 0.54604 0.0
C407 C 0.97837 0.38896 0.56515 0.0
C408 C 0.00855 0.35676 0.58777 0.0
C409 C 0.00556 0.35714 0.62673 0.0
C410 C 0.03513 0.32726 0.64756 0.0
C411 C 0.06762 0.2968 0.62983 0.0
C412 C 0.07042 0.29581 0.59115 0.0
C413 C 0.04087 0.32544 0.57015 0.0
H414 H 0.09054 0.27385 0.64607 0.0
H415 H 0.86581 0.58853 0.42088 0.0
H416 H 0.6724 0.07193 0.34726 0.0
H417 H 0.66951 0.96386 0.3471 0.0
H418 H 0.6826 0.96897 0.22757 0.0
H419 H 0.6856 0.07762 0.22744 0.0
H420 H 0.57242 0.85366 0.25707 0.0
H421 H 0.80948 0.98406 0.27202 0.0
H422 H 0.91755 0.06881 0.29878 0.0
H423 H 0.86343 0.96498 0.40299 0.0
H424 H 0.75439 0.88026 0.37709 0.0
H425 H 0.65117 0.58948 0.2334 0.0
H426 H 0.64475 0.69269 0.23353 0.0
H427 H 0.60326 0.67164 0.35102 0.0
H428 H 0.6073 0.56655 0.35109 0.0
H429 H 0.72447 0.79317 0.32329 0.0
H430 H 0.48785 0.65925 0.30585 0.0
H431 H 0.38226 0.57387 0.27708 0.0
H432 H 0.43804 0.68421 0.175 0.0
H433 H 0.54496 0.76944 0.20274 0.0
C434 C 0.67542 0.05035 0.32099 0.0
C435 C 0.67844 0.08223 0.28732 0.0
C436 C 0.67433 0.98915 0.32099 0.0
C437 C 0.67596 0.95925 0.28733 0.0
C438 C 0.68151 0.99203 0.25371 0.0
C439 C 0.68337 0.05378 0.25371 0.0
C440 C 0.66508 0.89072 0.28737 0.0
C441 C 0.6061 0.84025 0.27094 0.0
C442 C 0.70835 0.87417 0.30667 0.0
C443 C 0.77323 0.9262 0.3227 0.0
C444 C 0.82012 0.97978 0.3008 0.0
C445 C 0.88171 0.02772 0.31579 0.0
C446 C 0.89726 0.0224 0.35259 0.0
C447 C 0.85125 0.96913 0.3745 0.0
C448 C 0.78953 0.92114 0.35968 0.0
C449 C 0.63929 0.60596 0.25913 0.0
C450 C 0.62991 0.57039 0.29228 0.0
C451 C 0.63517 0.66447 0.25905 0.0
C452 C 0.62293 0.68856 0.29219 0.0
C453 C 0.61191 0.6526 0.3252 0.0
C454 C 0.61453 0.5931 0.32518 0.0
C455 C 0.63191 0.75622 0.293 0.0
C456 C 0.69068 0.80659 0.30953 0.0
C457 C 0.58876 0.77261 0.27349 0.0
C458 C 0.52511 0.72041 0.25631 0.0
C459 C 0.47827 0.66484 0.27706 0.0
C460 C 0.41802 0.61651 0.26094 0.0
C461 C 0.40363 0.62345 0.22415 0.0
C462 C 0.44947 0.67873 0.2034 0.0
C463 C 0.50994 0.72705 0.21932 0.0
H464 H 0.35686 0.58613 0.21175 0.0
H465 H 0.94504 0.05947 0.36411 0.0
H466 H 0.07951 0.6925 0.7217 0.0
H467 H 0.96783 0.68239 0.71984 0.0
H468 H 0.9664 0.69337 0.83928 0.0
H469 H 0.07715 0.70186 0.84136 0.0
H470 H 0.85425 0.57259 0.75616 0.0
H471 H 0.8789 0.77808 0.86023 0.0
H472 H 0.95973 0.89518 0.87795 0.0
H473 H 0.05055 0.9303 0.77004 0.0
H474 H 0.97059 0.8134 0.75172 0.0
H475 H 0.56184 0.60838 0.84408 0.0
H476 H 0.67185 0.61476 0.84391 0.0
H477 H 0.67407 0.61873 0.72434 0.0
H478 H 0.56523 0.6147 0.7244 0.0
H479 H 0.7855 0.73201 0.80645 0.0
H480 H 0.75678 0.52546 0.70225 0.0
H481 H 0.67501 0.40771 0.68597 0.0
H482 H 0.59216 0.37448 0.79574 0.0
H483 H 0.67282 0.49191 0.81272 0.0
C484 C 0.0559 0.6942 0.74747 0.0
C485 C 0.08647 0.69746 0.78169 0.0
C486 C -0.00785 0.6881 0.74637 0.0
C487 C 0.95908 0.687 0.77942 0.0
C488 C -0.00866 0.69437 0.8135 0.0
C489 C 0.05436 0.699 0.81465 0.0
C490 C 0.88851 0.67184 0.77878 0.0
C491 C 0.83922 0.60788 0.76649 0.0
C492 C 0.86912 0.71714 0.79347 0.0
C493 C 0.9191 0.78674 0.80475 0.0
C494 C 0.91626 0.81074 0.84032 0.0
C495 C 0.9619 0.87709 0.85046 0.0
C496 C 0.0101 0.92018 0.8251 0.0
C497 C 0.01317 0.89684 0.78965 0.0
C498 C 0.96804 0.83039 0.77948 0.0
C499 C 0.58526 0.60943 0.81783 0.0
C500 C 0.55583 0.61236 0.78434 0.0
C501 C 0.64796 0.61308 0.81775 0.0
C502 C 0.68087 0.61752 0.78412 0.0
C503 C 0.64924 0.61527 0.75055 0.0
C504 C 0.58738 0.61331 0.75064 0.0
C505 C 0.75141 0.63282 0.78397 0.0
C506 C 0.80064 0.69685 0.79604 0.0
C507 C 0.7707 0.58757 0.7692 0.0
C508 C 0.72045 0.5177 0.75862 0.0
C509 C 0.72096 0.4931 0.72287 0.0
C510 C 0.67487 0.42643 0.71352 0.0
C511 C 0.62874 0.38366 0.7398 0.0
C512 C 0.62802 0.40765 0.77542 0.0
C513 C 0.67351 0.4744 0.78483 0.0
H514 H 0.5933 0.33203 0.73252 0.0
H515 H 0.04523 0.9716 0.83295 0.0
H516 H 0.44117 0.01218 0.32568 0.0
H517 H 0.334 0.90613 0.3238 0.0
H518 H 0.25155 -0.00254 0.25199 0.0
H519 H 0.35656 0.10263 0.25386 0.0
H520 H 0.17082 0.93169 0.3117 0.0
H521 H 0.29615 0.89691 0.21506 0.0
H522 H 0.39186 0.89016 0.18828 0.0
H523 H 0.35679 0.73113 0.26361 0.0
H524 H 0.26139 0.73763 0.29133 0.0
H525 H 0.87251 0.64163 0.25072 0.0
H526 H 0.98237 0.74441 0.24905 0.0
H527 H 0.0632 0.6524 0.32152 0.0
H528 H 0.95497 0.55021 0.32328 0.0
H529 H 0.14517 0.71784 0.26103 0.0
H530 H 0.01925 0.75411 0.35752 0.0
H531 H 0.92282 0.76097 0.38309 0.0
H532 H 0.95924 0.91871 0.30646 0.0
H533 H 0.05525 0.91189 0.27992 0.0
C534 C 0.40008 0.00949 0.3096 0.0
C535 C 0.40724 0.06549 0.28989 0.0
C536 C 0.33937 0.94911 0.3084 0.0
C537 C 0.28573 0.94472 0.28763 0.0
C538 C 0.29276 0.00044 0.26812 0.0
C539 C 0.353 0.06032 0.26916 0.0
C540 C 0.22108 0.88263 0.28668 0.0
C541 C 0.16489 0.88497 0.30033 0.0
C542 C 0.21453 0.8222 0.27217 0.0
C543 C 0.2721 0.81838 0.25563 0.0
C544 C 0.30925 0.86101 0.22623 0.0
C545 C 0.36336 0.85712 0.21081 0.0
C546 C 0.38053 0.81042 0.22433 0.0
C547 C 0.3435 0.76738 0.25324 0.0
C548 C 0.28939 0.77114 0.26881 0.0
C549 C 0.91379 0.64344 0.26619 0.0
C550 C 0.90513 0.5884 0.2874 0.0
C551 C 0.97616 0.70186 0.26521 0.0
C552 C 0.03004 0.70528 0.28529 0.0
C553 C 0.02182 0.65013 0.30588 0.0
C554 C 0.95976 0.59216 0.30708 0.0
C555 C 0.095 0.76706 0.28596 0.0
C556 C 0.15119 0.76461 0.27236 0.0
C557 C 0.10161 0.82758 0.30036 0.0
C558 C 0.04398 0.83189 0.31641 0.0
C559 C 0.00632 0.78979 0.34585 0.0
C560 C 0.95179 0.79374 0.36056 0.0
C561 C 0.93477 0.8401 0.34632 0.0
C562 C 0.97239 0.88271 0.31739 0.0
C563 C 0.02686 0.87881 0.3025 0.0
H564 H 0.89257 0.84314 0.35775 0.0
H565 H 0.4224 0.80745 0.21234 0.0
H566 H 0.29105 0.37494 0.8432 0.0
H567 H 0.29993 0.27276 0.84146 0.0
H568 H 0.28239 0.2663 0.72224 0.0
H569 H 0.27318 0.36865 0.7237 0.0
H570 H 0.22123 0.13989 0.81036 0.0
H571 H 0.4135 0.23984 0.69173 0.0
H572 H 0.48753 0.34821 0.66098 0.0
H573 H 0.50762 0.4535 0.76329 0.0
H574 H 0.43531 0.34581 0.79484 0.0
H575 H 0.35919 0.9356 0.72359 0.0
H576 H 0.35742 0.04143 0.72272 0.0
H577 H 0.37008 0.05198 0.84199 0.0
H578 H 0.37452 0.94697 0.84321 0.0
H579 H 0.43284 0.17559 0.75141 0.0
H580 H 0.23518 0.06891 0.86873 0.0
H581 H 0.15756 0.95785 0.89571 0.0
H582 H 0.14342 0.86297 0.79045 0.0
H583 H 0.21955 0.97348 0.76268 0.0
C584 C 0.28782 0.35104 0.81667 0.0
C585 C 0.28233 0.37999 0.78353 0.0
C586 C 0.29244 0.29255 0.81578 0.0
C587 C 0.29261 0.26288 0.78173 0.0
C588 C 0.28269 0.28905 0.74874 0.0
C589 C 0.27729 0.34725 0.74964 0.0
C590 C 0.31063 0.20938 0.7807 0.0
C591 C 0.26768 0.14779 0.79779 0.0
C592 C 0.37078 0.21983 0.76358 0.0
C593 C 0.41807 0.28469 0.7455 0.0
C594 C 0.43413 0.28607 0.70772 0.0
C595 C 0.47572 0.34741 0.69014 0.0
C596 C 0.50168 0.40774 0.71007 0.0
C597 C 0.4869 0.40681 0.74777 0.0
C598 C 0.44579 0.3456 0.76554 0.0
C599 C 0.36351 0.96139 0.74959 0.0
C600 C 0.36629 0.93295 0.78354 0.0
C601 C 0.36272 0.02186 0.74895 0.0
C602 C 0.36254 0.0535 0.7822 0.0
C603 C 0.36998 0.02779 0.81604 0.0
C604 C 0.37236 0.96794 0.8167 0.0
C605 C 0.344 0.10666 0.78168 0.0
C606 C 0.38655 0.16789 0.7641 0.0
C607 C 0.28303 0.09566 0.79784 0.0
C608 C 0.23387 0.02944 0.8138 0.0
C609 C 0.21512 0.0244 0.85131 0.0
C610 C 0.17148 0.96151 0.86674 0.0
C611 C 0.1461 0.90333 0.8449 0.0
C612 C 0.16363 0.90798 0.80744 0.0
C613 C 0.20687 0.97075 0.79183 0.0
H614 H 0.11238 0.85472 0.85689 0.0
H615 H 0.53369 0.45515 0.69639 0.0
H616 H 0.42928 0.40225 0.33081 0.0
H617 H 0.32566 0.40679 0.32963 0.0
H618 H 0.23391 0.22892 0.26044 0.0
H619 H 0.33845 0.22446 0.26087 0.0
H620 H 0.21989 0.33116 0.23323 0.0
H621 H 0.19093 0.22127 0.35064 0.0
H622 H 0.22332 0.20698 0.41364 0.0
H623 H 0.23634 0.3934 0.44764 0.0
H624 H 0.20557 0.40968 0.38465 0.0
H625 H 0.88458 0.2578 0.24721 0.0
H626 H -0.00851 0.25965 0.24756 0.0
H627 H 0.07594 0.43615 0.31785 0.0
H628 H 0.96834 0.43414 0.3183 0.0
H629 H 0.09588 0.33841 0.34472 0.0
H630 H 0.12461 0.44843 0.22792 0.0
H631 H 0.09176 0.46311 0.16529 0.0
H632 H 0.07923 0.2773 0.13026 0.0
H633 H 0.11113 0.26097 0.193 0.0
C634 C 0.38681 0.36343 0.31578 0.0
C635 C 0.39154 0.31288 0.29592 0.0
C636 C 0.32774 0.36609 0.31524 0.0
C637 C 0.27251 0.3177 0.29535 0.0
C638 C 0.27649 0.26644 0.276 0.0
C639 C 0.33593 0.26407 0.27622 0.0
C640 C 0.21208 0.32359 0.2928 0.0
C641 C 0.19196 0.33168 0.25749 0.0
C642 C 0.17796 0.32677 0.32478 0.0
C643 C 0.19654 0.317 0.36276 0.0
C644 C 0.20138 0.25959 0.37144 0.0
C645 C 0.21943 0.25113 0.40718 0.0
C646 C 0.23222 0.29944 0.4346 0.0
C647 C 0.22678 0.35622 0.42636 0.0
C648 C 0.209 0.36506 0.39064 0.0
C649 C 0.92606 0.29757 0.26235 0.0
C650 C 0.91826 0.3456 0.28294 0.0
C651 C 0.98711 0.29873 0.26235 0.0
C652 C 0.04125 0.34847 0.28239 0.0
C653 C 0.03429 0.39756 0.3022 0.0
C654 C 0.97297 0.39613 0.3025 0.0
C655 C 0.10331 0.34546 0.2851 0.0
C656 C 0.12389 0.33806 0.32046 0.0
C657 C 0.13796 0.34304 0.25319 0.0
C658 C 0.11959 0.35317 0.21529 0.0
C659 C 0.11438 0.41044 0.20695 0.0
C660 C 0.09599 0.41907 0.17137 0.0
C661 C 0.08303 0.37092 0.14381 0.0
C662 C 0.08909 0.31441 0.15168 0.0
C663 C 0.1074 0.30549 0.18723 0.0
H664 H 0.06816 0.37714 0.11638 0.0
H665 H 0.24612 0.29278 0.46226 0.0
H666 H 0.0456 0.41031 0.72322 0.0
H667 H 0.94267 0.30096 0.72353 0.0
H668 H 0.93268 0.31122 0.84275 0.0
H669 H 0.0365 0.42035 0.84259 0.0
H670 H 0.92372 0.19437 0.81993 0.0
H671 H 0.81583 0.32232 0.78779 0.0
H672 H 0.80153 0.40589 0.75174 0.0
H673 H 0.77617 0.29215 0.65206 0.0
H674 H 0.7905 0.20798 0.68749 0.0
H675 H 0.59865 0.91403 0.8441 0.0
H676 H 0.69893 0.02485 0.84195 0.0
H677 H 0.71144 0.00563 0.72349 0.0
H678 H 0.61044 0.89422 0.72536 0.0
H679 H 0.7192 0.12647 0.74458 0.0
H680 H 0.82581 -0.00132 0.77568 0.0
H681 H 0.84323 0.91588 0.81046 0.0
H682 H 0.874 0.02998 0.91061 0.0
H683 H 0.85628 0.11322 0.87649 0.0
C684 C 0.02104 0.38937 0.74943 0.0
C685 C 0.04923 0.42312 0.78288 0.0
C686 C 0.96204 0.3273 0.74956 0.0
C687 C 0.93013 0.29801 0.78315 0.0
C688 C 0.95666 0.33302 0.81653 0.0
C689 C 0.01561 0.39544 0.81639 0.0
C690 C 0.87246 0.22857 0.7835 0.0
C691 C 0.87845 0.17975 0.804 0.0
C692 C 0.81465 0.20919 0.76155 0.0
C693 C 0.80471 0.25907 0.74027 0.0
C694 C 0.80745 0.31526 0.75816 0.0
C695 C 0.79925 0.36268 0.73785 0.0
C696 C 0.7882 0.35443 0.69963 0.0
C697 C 0.78477 0.29846 0.68167 0.0
C698 C 0.79271 0.25077 0.70187 0.0
C699 C 0.62319 0.93292 0.81763 0.0
C700 C 0.59671 0.89546 0.78488 0.0
C701 C 0.68059 -0.00381 0.81647 0.0
C702 C 0.71254 0.0233 0.78257 0.0
C703 C 0.68735 0.98541 0.74991 0.0
C704 C 0.63011 0.92164 0.75108 0.0
C705 C 0.77029 0.09258 0.78134 0.0
C706 C 0.76441 0.14124 0.76059 0.0
C707 C 0.82839 0.11186 0.80293 0.0
C708 C 0.83907 0.06187 0.82358 0.0
C709 C 0.83577 0.00585 0.80518 0.0
C710 C 0.84585 0.95891 0.82475 0.0
C711 C 0.85945 0.96755 0.86274 0.0
C712 C 0.86336 0.02332 0.88119 0.0
C713 C 0.85344 0.07046 0.86173 0.0
H714 H 0.867 0.93108 0.87788 0.0
H715 H 0.78232 0.39141 0.68392 0.0
loop_
_geom_bond_atom_site_label_1
_geom_bond_atom_site_label_2
_geom_bond_distance
_geom_bond_site_symmetry_2
_ccdc_geom_bond_type
H0 O1 0.850 . S
O1 H0 0.850 . S
O1 Tb2 2.341 . S
O1 Tb3 2.341 . S
O1 Tb4 2.341 . S
Tb2 O1 2.341 . S
Tb2 O5 2.341 . S
Tb2 O6 2.341 . S
Tb2 O7 2.341 . S
Tb2 O22 2.344 . S
Tb2 O25 2.344 . S
Tb2 O38 2.344 . S
Tb2 O41 2.344 . S
Tb3 O1 2.341 . S
Tb3 O5 2.341 . S
Tb3 O8 2.341 . S
Tb3 O10 2.341 . S
Tb3 O26 2.344 . S
Tb3 O29 2.344 . S
Tb3 O34 2.344 . S
Tb3 O37 2.344 . S
Tb4 O1 2.341 . S
Tb4 O6 2.341 . S
Tb4 O9 2.341 . S
Tb4 O10 2.341 . S
Tb4 O30 2.344 . S
Tb4 O33 2.344 . S
Tb4 O43 2.344 . S
Tb4 O44 2.344 . S
O5 Tb2 2.341 . S
O5 Tb3 2.341 . S
O5 H11 0.850 . S
O5 Tb13 2.341 . S
O6 Tb2 2.341 . S
O6 Tb4 2.341 . S
O6 H12 0.850 . S
O6 Tb14 2.341 . S
O7 Tb2 2.341 . S
O7 Tb13 2.341 . S
O7 Tb14 2.341 . S
O7 H15 0.850 . S
O8 Tb3 2.341 . S
O8 Tb13 2.341 . S
O8 H16 0.850 . S
O8 Tb17 2.341 . S
O9 Tb4 2.341 . S
O9 Tb14 2.341 . S
O9 Tb17 2.341 . S
O9 H18 0.850 . S
O10 Tb3 2.341 . S
O10 Tb4 2.341 . S
O10 Tb17 2.341 . S
O10 H19 0.850 . S
H11 O5 0.850 . S
H12 O6 0.850 . S
Tb13 O5 2.341 . S
Tb13 O7 2.341 . S
Tb13 O8 2.341 . S
Tb13 O20 2.341 . S
Tb13 O31 2.344 . S
Tb13 O32 2.344 . S
Tb13 O42 2.344 . S
Tb13 O45 2.344 . S
Tb14 O6 2.341 . S
Tb14 O7 2.341 . S
Tb14 O9 2.341 . S
Tb14 O20 2.341 . S
Tb14 O27 2.344 . S
Tb14 O28 2.344 . S
Tb14 O35 2.344 . S
Tb14 O36 2.344 . S
H15 O7 0.850 . S
H16 O8 0.850 . S
Tb17 O8 2.341 . S
Tb17 O9 2.341 . S
Tb17 O10 2.341 . S
Tb17 O20 2.341 . S
Tb17 O23 2.344 . S
Tb17 O24 2.344 . S
Tb17 O39 2.344 . S
Tb17 O40 2.344 . S
H18 O9 0.850 . S
H19 O10 0.850 . S
O20 Tb13 2.341 . S
O20 Tb14 2.341 . S
O20 Tb17 2.341 . S
O20 H21 0.850 . S
H21 O20 0.850 . S
O22 Tb2 2.344 . S
O22 C46 1.272 . S
O23 Tb17 2.344 . S
O23 C47 1.272 . S
O24 Tb17 2.344 . S
O24 C48 1.272 . S
O25 Tb2 2.344 . S
O25 C49 1.272 . S
O26 Tb3 2.344 . S
O26 C50 1.272 . S
O27 Tb14 2.344 . S
O27 C51 1.272 . S
O28 Tb14 2.344 . S
O28 C52 1.272 . S
O29 Tb3 2.344 . S
O29 C53 1.272 . S
O30 Tb4 2.344 . S
O30 C54 1.272 . S
O31 Tb13 2.344 . S
O31 C55 1.272 . S
O32 Tb13 2.344 . S
O32 C56 1.272 . S
O33 Tb4 2.344 . S
O33 C57 1.272 . S
O34 Tb3 2.344 . S
O34 C46 1.272 . S
O35 Tb14 2.344 . S
O35 C47 1.272 . S
O36 Tb14 2.344 . S
O36 C49 1.272 . S
O37 Tb3 2.344 . S
O37 C48 1.272 . S
O38 Tb2 2.344 . S
O38 C56 1.272 . S
O39 Tb17 2.344 . S
O39 C57 1.272 . S
O40 Tb17 2.344 . S
O40 C55 1.272 . S
O41 Tb2 2.344 . S
O41 C54 1.272 . S
O42 Tb13 2.344 . S
O42 C53 1.272 . S
O43 Tb4 2.344 . S
O43 C52 1.272 . S
O44 Tb4 2.344 . S
O44 C50 1.272 . S
O45 Tb13 2.344 . S
O45 C51 1.272 . S
C46 O22 1.272 . S
C46 O34 1.272 . S
C47 O23 1.272 . S
C47 O35 1.272 . S
C48 O24 1.272 . S
C48 O37 1.272 . S
C49 O25 1.272 . S
C49 O36 1.272 . S
C50 O26 1.272 . S
C50 O44 1.272 . S
C51 O27 1.272 . S
C51 O45 1.272 . S
C52 O28 1.272 . S
C52 O43 1.272 . S
C53 O29 1.272 . S
C53 O42 1.272 . S
C54 O30 1.272 . S
C54 O41 1.272 . S
C55 O31 1.272 . S
C55 O40 1.272 . S
C56 O32 1.272 . S
C56 O38 1.272 . S
C57 O33 1.272 . S
C57 O39 1.272 . S
H58 O59 0.850 . S
O59 H58 0.850 . S
O59 Tb60 2.341 . S
O59 Tb61 2.341 . S
O59 Tb62 2.341 . S
Tb60 O59 2.341 . S
Tb60 O63 2.341 . S
Tb60 O64 2.341 . S
Tb60 O65 2.341 . S
Tb60 O80 2.344 . S
Tb60 O83 2.344 . S
Tb60 O96 2.344 . S
Tb60 O99 2.344 . S
Tb61 O59 2.341 . S
Tb61 O63 2.341 . S
Tb61 O66 2.341 . S
Tb61 O68 2.341 . S
Tb61 O84 2.344 . S
Tb61 O87 2.344 . S
Tb61 O92 2.344 . S
Tb61 O95 2.344 . S
Tb62 O59 2.341 . S
Tb62 O64 2.341 . S
Tb62 O67 2.341 . S
Tb62 O68 2.341 . S
Tb62 O88 2.344 . S
Tb62 O91 2.344 . S
Tb62 O101 2.344 . S
Tb62 O102 2.344 . S
O63 Tb60 2.341 . S
O63 Tb61 2.341 . S
O63 H69 0.850 . S
O63 Tb71 2.341 . S
O64 Tb60 2.341 . S
O64 Tb62 2.341 . S
O64 H70 0.850 . S
O64 Tb72 2.341 . S
O65 Tb60 2.341 . S
O65 Tb71 2.341 . S
O65 Tb72 2.341 . S
O65 H73 0.850 . S
O66 Tb61 2.341 . S
O66 Tb71 2.341 . S
O66 H74 0.850 . S
O66 Tb75 2.341 . S
O67 Tb62 2.341 . S
O67 Tb72 2.341 . S
O67 Tb75 2.341 . S
O67 H76 0.850 . S
O68 Tb61 2.341 . S
O68 Tb62 2.341 . S
O68 Tb75 2.341 . S
O68 H77 0.850 . S
H69 O63 0.850 . S
H70 O64 0.850 . S
Tb71 O63 2.341 . S
Tb71 O65 2.341 . S
Tb71 O66 2.341 . S
Tb71 O78 2.341 . S
Tb71 O89 2.344 . S
Tb71 O90 2.344 . S
Tb71 O100 2.344 . S
Tb71 O103 2.344 . S
Tb72 O64 2.341 . S
Tb72 O65 2.341 . S
Tb72 O67 2.341 . S
Tb72 O78 2.341 . S
Tb72 O85 2.344 . S
Tb72 O86 2.344 . S
Tb72 O93 2.344 . S
Tb72 O94 2.344 . S
H73 O65 0.850 . S
H74 O66 0.850 . S
Tb75 O66 2.341 . S
Tb75 O67 2.341 . S
Tb75 O68 2.341 . S
Tb75 O78 2.341 . S
Tb75 O81 2.344 . S
Tb75 O82 2.344 . S
Tb75 O97 2.344 . S
Tb75 O98 2.344 . S
H76 O67 0.850 . S
H77 O68 0.850 . S
O78 Tb71 2.341 . S
O78 Tb72 2.341 . S
O78 Tb75 2.341 . S
O78 H79 0.850 . S
H79 O78 0.850 . S
O80 Tb60 2.344 . S
O80 C104 1.272 . S
O81 Tb75 2.344 . S
O81 C105 1.272 . S
O82 Tb75 2.344 . S
O82 C106 1.272 . S
O83 Tb60 2.344 . S
O83 C107 1.272 . S
O84 Tb61 2.344 . S
O84 C108 1.272 . S
O85 Tb72 2.344 . S
O85 C109 1.272 . S
O86 Tb72 2.344 . S
O86 C110 1.272 . S
O87 Tb61 2.344 . S
O87 C111 1.272 . S
O88 Tb62 2.344 . S
O88 C112 1.272 . S
O89 Tb71 2.344 . S
O89 C113 1.272 . S
O90 Tb71 2.344 . S
O90 C114 1.272 . S
O91 Tb62 2.344 . S
O91 C115 1.272 . S
O92 Tb61 2.344 . S
O92 C104 1.272 . S
O93 Tb72 2.344 . S
O93 C105 1.272 . S
O94 Tb72 2.344 . S
O94 C107 1.272 . S
O95 Tb61 2.344 . S
O95 C106 1.272 . S
O96 Tb60 2.344 . S
O96 C114 1.272 . S
O97 Tb75 2.344 . S
O97 C115 1.272 . S
O98 Tb75 2.344 . S
O98 C113 1.272 . S
O99 Tb60 2.344 . S
O99 C112 1.272 . S
O100 Tb71 2.344 . S
O100 C111 1.272 . S
O101 Tb62 2.344 . S
O101 C110 1.272 . S
O102 Tb62 2.344 . S
O102 C108 1.272 . S
O103 Tb71 2.344 . S
O103 C109 1.272 . S
C104 O80 1.272 . S
C104 O92 1.272 . S
C105 O81 1.272 . S
C105 O93 1.272 . S
C106 O82 1.272 . S
C106 O95 1.272 . S
C107 O83 1.272 . S
C107 O94 1.272 . S
C108 O84 1.272 . S
C108 O102 1.272 . S
C109 O85 1.272 . S
C109 O103 1.272 . S
C110 O86 1.272 . S
C110 O101 1.272 . S
C111 O87 1.272 . S
C111 O100 1.272 . S
C112 O88 1.272 . S
C112 O99 1.272 . S
C113 O89 1.272 . S
C113 O98 1.272 . S
C114 O90 1.272 . S
C114 O96 1.272 . S
C115 O91 1.272 . S
C115 O97 1.272 . S
H116 C134 0.951 . S
H117 C136 0.951 . S
H118 C138 0.950 . S
H119 C139 0.950 . S
H120 C141 0.950 . S
H121 C144 0.950 . S
H122 C145 0.950 . S
H123 C147 0.950 . S
H124 C148 0.950 . S
H125 C149 0.951 . S
H126 C151 0.951 . S
H127 C153 0.950 . S
H128 C154 0.950 . S
H129 C156 0.950 . S
H130 C159 0.950 . S
H131 C160 0.950 . S
H132 C162 0.950 1_565 S
H133 C163 0.950 . S
C134 H116 0.951 . S
C134 C135 1.366 . S
C134 C136 1.388 . S
C135 C134 1.366 . S
C135 C139 1.385 . S
C136 H117 0.951 . S
C136 C134 1.388 . S
C136 C137 1.366 . S
C137 C136 1.366 . S
C137 C138 1.414 . S
C137 C140 1.499 . S
C138 H118 0.950 . S
C138 C137 1.414 . S
C138 C139 1.374 . S
C139 H119 0.950 . S
C139 C135 1.385 . S
C139 C138 1.374 . S
C140 C137 1.499 . S
C140 C141 1.373 . S
C140 C142 1.389 . S
C141 H120 0.950 . S
C141 C140 1.373 . S
C141 C157 1.377 1_556 S
C142 C140 1.389 . S
C142 C143 1.524 . S
C142 C156 1.377 1_556 S
C143 C142 1.524 . S
C143 C144 1.397 . S
C143 C148 1.363 . S
C144 H121 0.950 . S
C144 C143 1.397 . S
C144 C145 1.334 . S
C145 H122 0.950 . S
C145 C144 1.334 . S
C145 C146 1.287 . S
C146 C145 1.287 . S
C146 C147 1.524 . S
C146 H165 0.913 . S
C147 H123 0.950 . S
C147 C146 1.524 . S
C147 C148 1.415 . S
C148 H124 0.950 . S
C148 C143 1.363 . S
C148 C147 1.415 . S
C149 H125 0.951 . S
C149 C150 1.366 . S
C149 C151 1.388 . S
C150 C149 1.366 . S
C150 C154 1.385 . S
C151 H126 0.951 . S
C151 C149 1.388 . S
C151 C152 1.366 . S
C152 C151 1.366 . S
C152 C153 1.414 . S
C152 C155 1.499 . S
C153 H127 0.950 . S
C153 C152 1.414 . S
C153 C154 1.374 . S
C154 H128 0.950 . S
C154 C150 1.385 . S
C154 C153 1.374 . S
C155 C152 1.499 . S
C155 C156 1.373 1_545 S
C155 C157 1.389 1_545 S
C156 H129 0.950 . S
C156 C142 1.377 1_554 S
C156 C155 1.373 1_565 S
C157 C141 1.377 1_554 S
C157 C155 1.389 1_565 S
C157 C158 1.524 1_565 S
C158 C157 1.524 1_545 S
C158 C159 1.397 . S
C158 C163 1.363 1_545 S
C159 H130 0.950 . S
C159 C158 1.397 . S
C159 C160 1.334 . S
C160 H131 0.950 . S
C160 C159 1.334 . S
C160 C161 1.287 . S
C161 C160 1.287 . S
C161 C162 1.524 . S
C161 H164 0.999 . S
C162 H132 0.950 1_545 S
C162 C161 1.524 . S
C162 C163 1.415 1_545 S
C163 H133 0.950 . S
C163 C158 1.363 1_565 S
C163 C162 1.415 1_565 S
H164 C161 0.999 . S
H165 C146 0.913 . S
H166 C184 0.951 . S
H167 C186 0.951 . S
H168 C188 0.950 . S
H169 C189 0.950 . S
H170 C191 0.950 . S
H171 C194 0.950 . S
H172 C195 0.950 . S
H173 C197 0.950 . S
H174 C198 0.950 . S
H175 C199 0.951 . S
H176 C201 0.951 . S
H177 C203 0.950 . S
H178 C204 0.950 . S
H179 C206 0.950 . S
H180 C209 0.950 . S
H181 C210 0.950 . S
H182 C212 0.950 . S
H183 C213 0.950 . S
C184 H166 0.951 . S
C184 C185 1.366 . S
C184 C186 1.388 . S
C185 C184 1.366 . S
C185 C189 1.385 . S
C186 H167 0.951 . S
C186 C184 1.388 . S
C186 C187 1.366 . S
C187 C186 1.366 . S
C187 C188 1.414 . S
C187 C190 1.499 . S
C188 H168 0.950 . S
C188 C187 1.414 . S
C188 C189 1.374 . S
C189 H169 0.950 . S
C189 C185 1.385 . S
C189 C188 1.374 . S
C190 C187 1.499 . S
C190 C191 1.373 . S
C190 C192 1.389 . S
C191 H170 0.950 . S
C191 C190 1.373 . S
C191 C207 1.377 . S
C192 C190 1.389 . S
C192 C193 1.524 . S
C192 C206 1.377 . S
C193 C192 1.524 . S
C193 C194 1.397 . S
C193 C198 1.363 . S
C194 H171 0.950 . S
C194 C193 1.397 . S
C194 C195 1.334 . S
C195 H172 0.950 . S
C195 C194 1.334 . S
C195 C196 1.287 . S
C196 C195 1.287 . S
C196 C197 1.524 . S
C196 H215 0.913 . S
C197 H173 0.950 . S
C197 C196 1.524 . S
C197 C198 1.415 . S
C198 H174 0.950 . S
C198 C193 1.363 . S
C198 C197 1.415 . S
C199 H175 0.951 . S
C199 C200 1.366 . S
C199 C201 1.388 . S
C200 C199 1.366 . S
C200 C204 1.385 . S
C201 H176 0.951 . S
C201 C199 1.388 . S
C201 C202 1.366 . S
C202 C201 1.366 . S
C202 C203 1.414 . S
C202 C205 1.499 . S
C203 H177 0.950 . S
C203 C202 1.414 . S
C203 C204 1.374 . S
C204 H178 0.950 . S
C204 C200 1.385 . S
C204 C203 1.374 . S
C205 C202 1.499 . S
C205 C206 1.373 . S
C205 C207 1.389 . S
C206 H179 0.950 . S
C206 C192 1.377 . S
C206 C205 1.373 . S
C207 C191 1.377 . S
C207 C205 1.389 . S
C207 C208 1.524 . S
C208 C207 1.524 . S
C208 C209 1.397 . S
C208 C213 1.363 . S
C209 H180 0.950 . S
C209 C208 1.397 . S
C209 C210 1.334 . S
C210 H181 0.950 . S
C210 C209 1.334 . S
C210 C211 1.287 . S
C211 C210 1.287 . S
C211 C212 1.524 . S
C211 H214 0.999 . S
C212 H182 0.950 . S
C212 C211 1.524 . S
C212 C213 1.415 . S
C213 H183 0.950 . S
C213 C208 1.363 . S
C213 C212 1.415 . S
H214 C211 0.999 . S
H215 C196 0.913 . S
H216 C234 0.951 . S
H217 C236 0.951 . S
H218 C238 0.950 . S
H219 C239 0.950 . S
H220 C241 0.950 . S
H221 C244 0.950 1_554 S
H222 C245 0.950 . S
H223 C247 0.950 . S
H224 C248 0.950 . S
H225 C249 0.951 . S
H226 C251 0.951 . S
H227 C253 0.950 . S
H228 C254 0.950 . S
H229 C256 0.950 . S
H230 C259 0.950 1_556 S
H231 C260 0.950 . S
H232 C262 0.950 . S
H233 C263 0.950 . S
C234 H216 0.951 . S
C234 C235 1.366 . S
C234 C236 1.388 . S
C235 C234 1.366 . S
C235 C239 1.385 . S
C236 H217 0.951 . S
C236 C234 1.388 . S
C236 C237 1.366 . S
C237 C236 1.366 . S
C237 C238 1.414 . S
C237 C240 1.499 . S
C238 H218 0.950 . S
C238 C237 1.414 . S
C238 C239 1.374 . S
C239 H219 0.950 . S
C239 C235 1.385 . S
C239 C238 1.374 . S
C240 C237 1.499 . S
C240 C241 1.373 1_655 S
C240 C242 1.389 1_554 S
C241 H220 0.950 . S
C241 C240 1.373 1_455 S
C241 C257 1.377 . S
C242 C240 1.389 1_556 S
C242 C243 1.524 . S
C242 C256 1.377 1_655 S
C243 C242 1.524 . S
C243 C244 1.397 . S
C243 C248 1.363 . S
C244 H221 0.950 1_556 S
C244 C243 1.397 . S
C244 C245 1.334 . S
C245 H222 0.950 . S
C245 C244 1.334 . S
C245 C246 1.287 . S
C246 C245 1.287 . S
C246 C247 1.524 . S
C246 H265 0.913 . S
C247 H223 0.950 . S
C247 C246 1.524 . S
C247 C248 1.415 . S
C248 H224 0.950 . S
C248 C243 1.363 . S
C248 C247 1.415 . S
C249 H225 0.951 . S
C249 C250 1.366 . S
C249 C251 1.388 . S
C250 C249 1.366 . S
C250 C254 1.385 . S
C251 H226 0.951 . S
C251 C249 1.388 . S
C251 C252 1.366 . S
C252 C251 1.366 . S
C252 C253 1.414 . S
C252 C255 1.499 . S
C253 H227 0.950 . S
C253 C252 1.414 . S
C253 C254 1.374 . S
C254 H228 0.950 . S
C254 C250 1.385 . S
C254 C253 1.374 . S
C255 C252 1.499 . S
C255 C256 1.373 . S
C255 C257 1.389 1_556 S
C256 H229 0.950 . S
C256 C242 1.377 1_455 S
C256 C255 1.373 . S
C257 C241 1.377 . S
C257 C255 1.389 1_554 S
C257 C258 1.524 . S
C258 C257 1.524 . S
C258 C259 1.397 . S
C258 C263 1.363 . S
C259 H230 0.950 1_554 S
C259 C258 1.397 . S
C259 C260 1.334 . S
C260 H231 0.950 . S
C260 C259 1.334 . S
C260 C261 1.287 . S
C261 C260 1.287 . S
C261 C262 1.524 . S
C261 H264 0.999 . S
C262 H232 0.950 . S
C262 C261 1.524 . S
C262 C263 1.415 . S
C263 H233 0.950 . S
C263 C258 1.363 . S
C263 C262 1.415 . S
H264 C261 0.999 . S
H265 C246 0.913 . S
H266 C284 0.951 . S
H267 C286 0.951 1_545 S
H268 C288 0.950 . S
H269 C289 0.950 . S
H270 C291 0.950 1_565 S
H271 C294 0.950 . S
H272 C295 0.950 . S
H273 C297 0.950 . S
H274 C298 0.950 . S
H275 C299 0.951 . S
H276 C301 0.951 . S
H277 C303 0.950 . S
H278 C304 0.950 . S
H279 C306 0.950 . S
H280 C309 0.950 . S
H281 C310 0.950 . S
H282 C312 0.950 . S
H283 C313 0.950 1_565 S
C284 H266 0.951 . S
C284 C285 1.366 . S
C284 C286 1.388 . S
C285 C284 1.366 . S
C285 C289 1.385 . S
C286 H267 0.951 1_565 S
C286 C284 1.388 . S
C286 C287 1.366 . S
C287 C286 1.366 . S
C287 C288 1.414 . S
C287 C290 1.499 . S
C288 H268 0.950 . S
C288 C287 1.414 . S
C288 C289 1.374 . S
C289 H269 0.950 . S
C289 C285 1.385 . S
C289 C288 1.374 . S
C290 C287 1.499 . S
C290 C291 1.373 1_565 S
C290 C292 1.389 1_565 S
C291 H270 0.950 1_545 S
C291 C290 1.373 1_545 S
C291 C307 1.377 . S
C292 C290 1.389 1_545 S
C292 C293 1.524 1_545 S
C292 C306 1.377 . S
C293 C292 1.524 1_565 S
C293 C294 1.397 . S
C293 C298 1.363 1_565 S
C294 H271 0.950 . S
C294 C293 1.397 . S
C294 C295 1.334 . S
C295 H272 0.950 . S
C295 C294 1.334 . S
C295 C296 1.287 . S
C296 C295 1.287 . S
C296 C297 1.524 1_565 S
C296 H315 0.913 . S
C297 H273 0.950 . S
C297 C296 1.524 1_545 S
C297 C298 1.415 . S
C298 H274 0.950 . S
C298 C293 1.363 1_545 S
C298 C297 1.415 . S
C299 H275 0.951 . S
C299 C300 1.366 . S
C299 C301 1.388 . S
C300 C299 1.366 . S
C300 C304 1.385 . S
C301 H276 0.951 . S
C301 C299 1.388 . S
C301 C302 1.366 . S
C302 C301 1.366 . S
C302 C303 1.414 . S
C302 C305 1.499 . S
C303 H277 0.950 . S
C303 C302 1.414 . S
C303 C304 1.374 . S
C304 H278 0.950 . S
C304 C300 1.385 . S
C304 C303 1.374 . S
C305 C302 1.499 . S
C305 C306 1.373 . S
C305 C307 1.389 . S
C306 H279 0.950 . S
C306 C292 1.377 . S
C306 C305 1.373 . S
C307 C291 1.377 . S
C307 C305 1.389 . S
C307 C308 1.524 . S
C308 C307 1.524 . S
C308 C309 1.397 . S
C308 C313 1.363 . S
C309 H280 0.950 . S
C309 C308 1.397 . S
C309 C310 1.334 . S
C310 H281 0.950 . S
C310 C309 1.334 . S
C310 C311 1.287 . S
C311 C310 1.287 . S
C311 C312 1.524 . S
C311 H314 0.999 . S
C312 H282 0.950 . S
C312 C311 1.524 . S
C312 C313 1.415 . S
C313 H283 0.950 1_545 S
C313 C308 1.363 . S
C313 C312 1.415 . S
H314 C311 0.999 . S
H315 C296 0.913 . S
H316 C334 0.951 . S
H317 C336 0.951 . S
H318 C338 0.950 . S
H319 C339 0.950 . S
H320 C341 0.950 . S
H321 C344 0.950 . S
H322 C345 0.950 . S
H323 C347 0.950 . S
H324 C348 0.950 . S
H325 C349 0.951 . S
H326 C351 0.951 . S
H327 C353 0.950 . S
H328 C354 0.950 . S
H329 C356 0.950 . S
H330 C359 0.950 . S
H331 C360 0.950 . S
H332 C362 0.950 . S
H333 C363 0.950 . S
C334 H316 0.951 . S
C334 C335 1.366 . S
C334 C336 1.388 . S
C335 C334 1.366 . S
C335 C339 1.385 . S
C336 H317 0.951 . S
C336 C334 1.388 . S
C336 C337 1.366 . S
C337 C336 1.366 . S
C337 C338 1.414 . S
C337 C340 1.499 . S
C338 H318 0.950 . S
C338 C337 1.414 . S
C338 C339 1.374 . S
C339 H319 0.950 . S
C339 C335 1.385 . S
C339 C338 1.374 . S
C340 C337 1.499 . S
C340 C341 1.373 . S
C340 C342 1.389 1_554 S
C341 H320 0.950 . S
C341 C340 1.373 . S
C341 C357 1.377 . S
C342 C340 1.389 1_556 S
C342 C343 1.524 . S
C342 C356 1.377 . S
C343 C342 1.524 . S
C343 C344 1.397 1_556 S
C343 C348 1.363 . S
C344 H321 0.950 . S
C344 C343 1.397 1_554 S
C344 C345 1.334 . S
C345 H322 0.950 . S
C345 C344 1.334 . S
C345 C346 1.287 1_554 S
C346 C345 1.287 1_556 S
C346 C347 1.524 . S
C346 H365 0.913 . S
C347 H323 0.950 . S
C347 C346 1.524 . S
C347 C348 1.415 . S
C348 H324 0.950 . S
C348 C343 1.363 . S
C348 C347 1.415 . S
C349 H325 0.951 . S
C349 C350 1.366 . S
C349 C351 1.388 . S
C350 C349 1.366 . S
C350 C354 1.385 . S
C351 H326 0.951 . S
C351 C349 1.388 . S
C351 C352 1.366 . S
C352 C351 1.366 . S
C352 C353 1.414 . S
C352 C355 1.499 . S
C353 H327 0.950 . S
C353 C352 1.414 . S
C353 C354 1.374 . S
C354 H328 0.950 . S
C354 C350 1.385 . S
C354 C353 1.374 . S
C355 C352 1.499 . S
C355 C356 1.373 . S
C355 C357 1.389 1_556 S
C356 H329 0.950 . S
C356 C342 1.377 . S
C356 C355 1.373 . S
C357 C341 1.377 . S
C357 C355 1.389 1_554 S
C357 C358 1.524 . S
C358 C357 1.524 . S
C358 C359 1.397 1_554 S
C358 C363 1.363 . S
C359 H330 0.950 . S
C359 C358 1.397 1_556 S
C359 C360 1.334 . S
C360 H331 0.950 . S
C360 C359 1.334 . S
C360 C361 1.287 1_556 S
C361 C360 1.287 1_554 S
C361 C362 1.524 . S
C361 H364 0.999 . S
C362 H332 0.950 . S
C362 C361 1.524 . S
C362 C363 1.415 . S
C363 H333 0.950 . S
C363 C358 1.363 . S
C363 C362 1.415 . S
H364 C361 0.999 . S
H365 C346 0.913 . S
H366 C384 0.951 . S
H367 C386 0.951 . S
H368 C388 0.950 . S
H369 C389 0.950 . S
H370 C391 0.950 . S
H371 C394 0.950 . S
H372 C395 0.950 . S
H373 C397 0.950 . S
H374 C398 0.950 . S
H375 C399 0.951 . S
H376 C401 0.951 . S
H377 C403 0.950 1_655 S
H378 C404 0.950 . S
H379 C406 0.950 . S
H380 C409 0.950 . S
H381 C410 0.950 . S
H382 C412 0.950 . S
H383 C413 0.950 . S
C384 H366 0.951 . S
C384 C385 1.366 . S
C384 C386 1.388 . S
C385 C384 1.366 . S
C385 C389 1.385 . S
C386 H367 0.951 . S
C386 C384 1.388 . S
C386 C387 1.366 . S
C387 C386 1.366 . S
C387 C388 1.414 . S
C387 C390 1.499 . S
C388 H368 0.950 . S
C388 C387 1.414 . S
C388 C389 1.374 . S
C389 H369 0.950 . S
C389 C385 1.385 . S
C389 C388 1.374 . S
C390 C387 1.499 . S
C390 C391 1.373 . S
C390 C392 1.389 . S
C391 H370 0.950 . S
C391 C390 1.373 . S
C391 C407 1.377 1_655 S
C392 C390 1.389 . S
C392 C393 1.524 . S
C392 C406 1.377 . S
C393 C392 1.524 . S
C393 C394 1.397 . S
C393 C398 1.363 . S
C394 H371 0.950 . S
C394 C393 1.397 . S
C394 C395 1.334 . S
C395 H372 0.950 . S
C395 C394 1.334 . S
C395 C396 1.287 . S
C396 C395 1.287 . S
C396 C397 1.524 . S
C396 H415 0.913 . S
C397 H373 0.950 . S
C397 C396 1.524 . S
C397 C398 1.415 . S
C398 H374 0.950 . S
C398 C393 1.363 . S
C398 C397 1.415 . S
C399 H375 0.951 . S
C399 C400 1.366 . S
C399 C401 1.388 . S
C400 C399 1.366 . S
C400 C404 1.385 . S
C401 H376 0.951 . S
C401 C399 1.388 . S
C401 C402 1.366 . S
C402 C401 1.366 . S
C402 C403 1.414 . S
C402 C405 1.499 . S
C403 H377 0.950 1_455 S
C403 C402 1.414 . S
C403 C404 1.374 . S
C404 H378 0.950 . S
C404 C400 1.385 . S
C404 C403 1.374 . S
C405 C402 1.499 . S
C405 C406 1.373 1_455 S
C405 C407 1.389 . S
C406 H379 0.950 . S
C406 C392 1.377 . S
C406 C405 1.373 1_655 S
C407 C391 1.377 1_455 S
C407 C405 1.389 . S
C407 C408 1.524 . S
C408 C407 1.524 . S
C408 C409 1.397 . S
C408 C413 1.363 . S
C409 H380 0.950 . S
C409 C408 1.397 . S
C409 C410 1.334 . S
C410 H381 0.950 . S
C410 C409 1.334 . S
C410 C411 1.287 . S
C411 C410 1.287 . S
C411 C412 1.524 . S
C411 H414 0.999 . S
C412 H382 0.950 . S
C412 C411 1.524 . S
C412 C413 1.415 . S
C413 H383 0.950 . S
C413 C408 1.363 . S
C413 C412 1.415 . S
H414 C411 0.999 . S
H415 C396 0.913 . S
H416 C434 0.951 . S
H417 C436 0.951 . S
H418 C438 0.950 . S
H419 C439 0.950 . S
H420 C441 0.950 . S
H421 C444 0.950 . S
H422 C445 0.950 . S
H423 C447 0.950 . S
H424 C448 0.950 . S
H425 C449 0.951 . S
H426 C451 0.951 . S
H427 C453 0.950 . S
H428 C454 0.950 . S
H429 C456 0.950 . S
H430 C459 0.950 . S
H431 C460 0.950 . S
H432 C462 0.950 . S
H433 C463 0.950 . S
C434 H416 0.951 . S
C434 C435 1.366 . S
C434 C436 1.388 . S
C435 C434 1.366 . S
C435 C439 1.385 . S
C436 H417 0.951 . S
C436 C434 1.388 . S
C436 C437 1.366 1_545 S
C437 C436 1.366 1_565 S
C437 C438 1.414 . S
C437 C440 1.499 . S
C438 H418 0.950 . S
C438 C437 1.414 . S
C438 C439 1.374 1_565 S
C439 H419 0.950 . S
C439 C435 1.385 . S
C439 C438 1.374 1_545 S
C440 C437 1.499 . S
C440 C441 1.373 . S
C440 C442 1.389 . S
C441 H420 0.950 . S
C441 C440 1.373 . S
C441 C457 1.377 . S
C442 C440 1.389 . S
C442 C443 1.524 . S
C442 C456 1.377 . S
C443 C442 1.524 . S
C443 C444 1.397 . S
C443 C448 1.363 . S
C444 H421 0.950 . S
C444 C443 1.397 . S
C444 C445 1.334 1_565 S
C445 H422 0.950 . S
C445 C444 1.334 1_545 S
C445 C446 1.287 . S
C446 C445 1.287 . S
C446 C447 1.524 . S
C446 H465 0.913 . S
C447 H423 0.950 . S
C447 C446 1.524 . S
C447 C448 1.415 1_545 S
C448 H424 0.950 . S
C448 C443 1.363 . S
C448 C447 1.415 1_565 S
C449 H425 0.951 . S
C449 C450 1.366 . S
C449 C451 1.388 . S
C450 C449 1.366 . S
C450 C454 1.385 . S
C451 H426 0.951 . S
C451 C449 1.388 . S
C451 C452 1.366 . S
C452 C451 1.366 . S
C452 C453 1.414 . S
C452 C455 1.499 . S
C453 H427 0.950 . S
C453 C452 1.414 . S
C453 C454 1.374 . S
C454 H428 0.950 . S
C454 C450 1.385 . S
C454 C453 1.374 . S
C455 C452 1.499 . S
C455 C456 1.373 . S
C455 C457 1.389 . S
C456 H429 0.950 . S
C456 C442 1.377 . S
C456 C455 1.373 . S
C457 C441 1.377 . S
C457 C455 1.389 . S
C457 C458 1.524 . S
C458 C457 1.524 . S
C458 C459 1.397 . S
C458 C463 1.363 . S
C459 H430 0.950 . S
C459 C458 1.397 . S
C459 C460 1.334 . S
C460 H431 0.950 . S
C460 C459 1.334 . S
C460 C461 1.287 . S
C461 C460 1.287 . S
C461 C462 1.524 . S
C461 H464 0.999 . S
C462 H432 0.950 . S
C462 C461 1.524 . S
C462 C463 1.415 . S
C463 H433 0.950 . S
C463 C458 1.363 . S
C463 C462 1.415 . S
H464 C461 0.999 . S
H465 C446 0.913 . S
H466 C484 0.951 . S
H467 C486 0.951 . S
H468 C488 0.950 . S
H469 C489 0.950 . S
H470 C491 0.950 . S
H471 C494 0.950 . S
H472 C495 0.950 . S
H473 C497 0.950 . S
H474 C498 0.950 . S
H475 C499 0.951 . S
H476 C501 0.951 . S
H477 C503 0.950 . S
H478 C504 0.950 . S
H479 C506 0.950 . S
H480 C509 0.950 . S
H481 C510 0.950 . S
H482 C512 0.950 . S
H483 C513 0.950 . S
C484 H466 0.951 . S
C484 C485 1.366 . S
C484 C486 1.388 . S
C485 C484 1.366 . S
C485 C489 1.385 . S
C486 H467 0.951 . S
C486 C484 1.388 . S
C486 C487 1.366 1_455 S
C487 C486 1.366 1_655 S
C487 C488 1.414 . S
C487 C490 1.499 . S
C488 H468 0.950 . S
C488 C487 1.414 . S
C488 C489 1.374 1_655 S
C489 H469 0.950 . S
C489 C485 1.385 . S
C489 C488 1.374 1_455 S
C490 C487 1.499 . S
C490 C491 1.373 . S
C490 C492 1.389 . S
C491 H470 0.950 . S
C491 C490 1.373 . S
C491 C507 1.377 . S
C492 C490 1.389 . S
C492 C493 1.524 . S
C492 C506 1.377 . S
C493 C492 1.524 . S
C493 C494 1.397 . S
C493 C498 1.363 . S
C494 H471 0.950 . S
C494 C493 1.397 . S
C494 C495 1.334 1_655 S
C495 H472 0.950 . S
C495 C494 1.334 1_455 S
C495 C496 1.287 . S
C496 C495 1.287 . S
C496 C497 1.524 . S
C496 H515 0.913 . S
C497 H473 0.950 . S
C497 C496 1.524 . S
C497 C498 1.415 1_455 S
C498 H474 0.950 . S
C498 C493 1.363 . S
C498 C497 1.415 1_655 S
C499 H475 0.951 . S
C499 C500 1.366 . S
C499 C501 1.388 . S
C500 C499 1.366 . S
C500 C504 1.385 . S
C501 H476 0.951 . S
C501 C499 1.388 . S
C501 C502 1.366 . S
C502 C501 1.366 . S
C502 C503 1.414 . S
C502 C505 1.499 . S
C503 H477 0.950 . S
C503 C502 1.414 . S
C503 C504 1.374 . S
C504 H478 0.950 . S
C504 C500 1.385 . S
C504 C503 1.374 . S
C505 C502 1.499 . S
C505 C506 1.373 . S
C505 C507 1.389 . S
C506 H479 0.950 . S
C506 C492 1.377 . S
C506 C505 1.373 . S
C507 C491 1.377 . S
C507 C505 1.389 . S
C507 C508 1.524 . S
C508 C507 1.524 . S
C508 C509 1.397 . S
C508 C513 1.363 . S
C509 H480 0.950 . S
C509 C508 1.397 . S
C509 C510 1.334 . S
C510 H481 0.950 . S
C510 C509 1.334 . S
C510 C511 1.287 . S
C511 C510 1.287 . S
C511 C512 1.524 . S
C511 H514 0.999 . S
C512 H482 0.950 . S
C512 C511 1.524 . S
C512 C513 1.415 . S
C513 H483 0.950 . S
C513 C508 1.363 . S
C513 C512 1.415 . S
H514 C511 0.999 . S
H515 C496 0.913 . S
H516 C534 0.941 1_565 S
H517 C536 0.951 . S
H518 C538 0.950 . S
H519 C539 0.950 . S
H520 C541 0.950 . S
H521 C544 0.950 . S
H522 C545 0.950 . S
H523 C547 0.950 . S
H524 C548 0.950 . S
H525 C549 0.951 . S
H526 C551 0.951 . S
H527 C553 0.950 . S
H528 C554 0.950 . S
H529 C556 0.950 . S
H530 C559 0.950 . S
H531 C560 0.950 . S
H532 C562 0.950 . S
H533 C563 0.950 . S
C534 H516 0.941 1_545 S
C534 C535 1.366 . S
C534 C536 1.388 1_545 S
C535 C534 1.366 . S
C535 C539 1.385 . S
C536 H517 0.951 . S
C536 C534 1.388 1_565 S
C536 C537 1.366 . S
C537 C536 1.366 . S
C537 C538 1.414 1_565 S
C537 C540 1.499 . S
C538 H518 0.950 . S
C538 C537 1.414 1_545 S
C538 C539 1.374 . S
C539 H519 0.950 . S
C539 C535 1.385 . S
C539 C538 1.374 . S
C540 C537 1.499 . S
C540 C541 1.373 . S
C540 C542 1.389 . S
C541 H520 0.950 . S
C541 C540 1.373 . S
C541 C557 1.377 . S
C542 C540 1.389 . S
C542 C543 1.524 . S
C542 C556 1.377 . S
C543 C542 1.524 . S
C543 C544 1.397 . S
C543 C548 1.363 . S
C544 H521 0.950 . S
C544 C543 1.397 . S
C544 C545 1.334 . S
C545 H522 0.950 . S
C545 C544 1.334 . S
C545 C546 1.287 . S
C546 C545 1.287 . S
C546 C547 1.524 . S
C546 H565 0.913 . S
C547 H523 0.950 . S
C547 C546 1.524 . S
C547 C548 1.415 . S
C548 H524 0.950 . S
C548 C543 1.363 . S
C548 C547 1.415 . S
C549 H525 0.951 . S
C549 C550 1.366 . S
C549 C551 1.388 . S
C550 C549 1.366 . S
C550 C554 1.385 . S
C551 H526 0.951 . S
C551 C549 1.388 . S
C551 C552 1.366 1_655 S
C552 C551 1.366 1_455 S
C552 C553 1.414 . S
C552 C555 1.499 . S
C553 H527 0.950 . S
C553 C552 1.414 . S
C553 C554 1.374 1_455 S
C554 H528 0.950 . S
C554 C550 1.385 . S
C554 C553 1.374 1_655 S
C555 C552 1.499 . S
C555 C556 1.373 . S
C555 C557 1.389 . S
C556 H529 0.950 . S
C556 C542 1.377 . S
C556 C555 1.373 . S
C557 C541 1.377 . S
C557 C555 1.389 . S
C557 C558 1.524 . S
C558 C557 1.524 . S
C558 C559 1.397 . S
C558 C563 1.363 . S
C559 H530 0.950 . S
C559 C558 1.397 . S
C559 C560 1.334 . S
C560 H531 0.950 . S
C560 C559 1.334 . S
C560 C561 1.287 . S
C561 C560 1.287 . S
C561 C562 1.524 . S
C561 H564 0.999 1_455 S
C562 H532 0.950 . S
C562 C561 1.524 . S
C562 C563 1.415 . S
C563 H533 0.950 . S
C563 C558 1.363 . S
C563 C562 1.415 . S
H564 C561 0.999 1_655 S
H565 C546 0.913 . S
H566 C584 0.951 . S
H567 C586 0.951 . S
H568 C588 0.950 . S
H569 C589 0.950 . S
H570 C591 0.950 . S
H571 C594 0.950 . S
H572 C595 0.950 . S
H573 C597 0.950 . S
H574 C598 0.950 . S
H575 C599 0.951 . S
H576 C601 0.951 . S
H577 C603 0.950 . S
H578 C604 0.950 . S
H579 C606 0.950 . S
H580 C609 0.950 . S
H581 C610 0.950 . S
H582 C612 0.950 . S
H583 C613 0.950 . S
C584 H566 0.951 . S
C584 C585 1.366 . S
C584 C586 1.388 . S
C585 C584 1.366 . S
C585 C589 1.385 . S
C586 H567 0.951 . S
C586 C584 1.388 . S
C586 C587 1.366 . S
C587 C586 1.366 . S
C587 C588 1.414 . S
C587 C590 1.499 . S
C588 H568 0.950 . S
C588 C587 1.414 . S
C588 C589 1.374 . S
C589 H569 0.950 . S
C589 C585 1.385 . S
C589 C588 1.374 . S
C590 C587 1.499 . S
C590 C591 1.373 . S
C590 C592 1.389 . S
C591 H570 0.950 . S
C591 C590 1.373 . S
C591 C607 1.377 . S
C592 C590 1.389 . S
C592 C593 1.524 . S
C592 C606 1.377 . S
C593 C592 1.524 . S
C593 C594 1.397 . S
C593 C598 1.363 . S
C594 H571 0.950 . S
C594 C593 1.397 . S
C594 C595 1.334 . S
C595 H572 0.950 . S
C595 C594 1.334 . S
C595 C596 1.287 . S
C596 C595 1.287 . S
C596 C597 1.524 . S
C596 H615 0.913 . S
C597 H573 0.950 . S
C597 C596 1.524 . S
C597 C598 1.415 . S
C598 H574 0.950 . S
C598 C593 1.363 . S
C598 C597 1.415 . S
C599 H575 0.951 . S
C599 C600 1.366 . S
C599 C601 1.388 . S
C600 C599 1.366 . S
C600 C604 1.385 . S
C601 H576 0.951 . S
C601 C599 1.388 . S
C601 C602 1.366 1_565 S
C602 C601 1.366 1_545 S
C602 C603 1.414 . S
C602 C605 1.499 . S
C603 H577 0.950 . S
C603 C602 1.414 . S
C603 C604 1.374 1_545 S
C604 H578 0.950 . S
C604 C600 1.385 . S
C604 C603 1.374 1_565 S
C605 C602 1.499 . S
C605 C606 1.373 . S
C605 C607 1.389 . S
C606 H579 0.950 . S
C606 C592 1.377 . S
C606 C605 1.373 . S
C607 C591 1.377 . S
C607 C605 1.389 . S
C607 C608 1.524 . S
C608 C607 1.524 . S
C608 C609 1.397 . S
C608 C613 1.363 . S
C609 H580 0.950 . S
C609 C608 1.397 . S
C609 C610 1.334 1_545 S
C610 H581 0.950 . S
C610 C609 1.334 1_565 S
C610 C611 1.287 . S
C611 C610 1.287 . S
C611 C612 1.524 . S
C611 H614 0.999 . S
C612 H582 0.950 . S
C612 C611 1.524 . S
C612 C613 1.415 1_565 S
C613 H583 0.950 . S
C613 C608 1.363 . S
C613 C612 1.415 1_545 S
H614 C611 0.999 . S
H615 C596 0.913 . S
H616 C634 0.951 . S
H617 C636 0.951 . S
H618 C638 0.950 . S
H619 C639 0.950 . S
H620 C641 0.950 . S
H621 C644 0.950 . S
H622 C645 0.950 . S
H623 C647 0.950 . S
H624 C648 0.950 . S
H625 C649 0.951 . S
H626 C651 0.951 . S
H627 C653 0.950 . S
H628 C654 0.950 . S
H629 C656 0.950 . S
H630 C659 0.950 . S
H631 C660 0.950 . S
H632 C662 0.950 . S
H633 C663 0.950 . S
C634 H616 0.951 . S
C634 C635 1.366 . S
C634 C636 1.388 . S
C635 C634 1.366 . S
C635 C639 1.385 . S
C636 H617 0.951 . S
C636 C634 1.388 . S
C636 C637 1.366 . S
C637 C636 1.366 . S
C637 C638 1.414 . S
C637 C640 1.499 . S
C638 H618 0.950 . S
C638 C637 1.414 . S
C638 C639 1.374 . S
C639 H619 0.950 . S
C639 C635 1.385 . S
C639 C638 1.374 . S
C640 C637 1.499 . S
C640 C641 1.373 . S
C640 C642 1.389 . S
C641 H620 0.950 . S
C641 C640 1.373 . S
C641 C657 1.377 . S
C642 C640 1.389 . S
C642 C643 1.524 . S
C642 C656 1.377 . S
C643 C642 1.524 . S
C643 C644 1.397 . S
C643 C648 1.363 . S
C644 H621 0.950 . S
C644 C643 1.397 . S
C644 C645 1.334 . S
C645 H622 0.950 . S
C645 C644 1.334 . S
C645 C646 1.287 . S
C646 C645 1.287 . S
C646 C647 1.524 . S
C646 H665 0.913 . S
C647 H623 0.950 . S
C647 C646 1.524 . S
C647 C648 1.415 . S
C648 H624 0.950 . S
C648 C643 1.363 . S
C648 C647 1.415 . S
C649 H625 0.951 . S
C649 C650 1.366 . S
C649 C651 1.388 . S
C650 C649 1.366 . S
C650 C654 1.385 . S
C651 H626 0.951 . S
C651 C649 1.388 . S
C651 C652 1.366 1_655 S
C652 C651 1.366 1_455 S
C652 C653 1.414 . S
C652 C655 1.499 . S
C653 H627 0.950 . S
C653 C652 1.414 . S
C653 C654 1.374 1_455 S
C654 H628 0.950 . S
C654 C650 1.385 . S
C654 C653 1.374 1_655 S
C655 C652 1.499 . S
C655 C656 1.373 . S
C655 C657 1.389 . S
C656 H629 0.950 . S
C656 C642 1.377 . S
C656 C655 1.373 . S
C657 C641 1.377 . S
C657 C655 1.389 . S
C657 C658 1.524 . S
C658 C657 1.524 . S
C658 C659 1.397 . S
C658 C663 1.363 . S
C659 H630 0.950 . S
C659 C658 1.397 . S
C659 C660 1.334 . S
C660 H631 0.950 . S
C660 C659 1.334 . S
C660 C661 1.287 . S
C661 C660 1.287 . S
C661 C662 1.524 . S
C661 H664 0.999 . S
C662 H632 0.950 . S
C662 C661 1.524 . S
C662 C663 1.415 . S
C663 H633 0.950 . S
C663 C658 1.363 . S
C663 C662 1.415 . S
H664 C661 0.999 . S
H665 C646 0.913 . S
H666 C684 0.951 . S
H667 C686 0.951 . S
H668 C688 0.950 . S
H669 C689 0.950 . S
H670 C691 0.950 . S
H671 C694 0.950 . S
H672 C695 0.950 . S
H673 C697 0.950 . S
H674 C698 0.950 . S
H675 C699 0.951 . S
H676 C701 0.951 . S
H677 C703 0.950 . S
H678 C704 0.950 . S
H679 C706 0.950 . S
H680 C709 0.950 . S
H681 C710 0.950 1_565 S
H682 C712 0.950 . S
H683 C713 0.950 . S
C684 H666 0.951 . S
C684 C685 1.366 . S
C684 C686 1.388 . S
C685 C684 1.366 . S
C685 C689 1.385 . S
C686 H667 0.951 . S
C686 C684 1.388 . S
C686 C687 1.366 1_455 S
C687 C686 1.366 1_655 S
C687 C688 1.414 . S
C687 C690 1.499 . S
C688 H668 0.950 . S
C688 C687 1.414 . S
C688 C689 1.374 1_655 S
C689 H669 0.950 . S
C689 C685 1.385 . S
C689 C688 1.374 1_455 S
C690 C687 1.499 . S
C690 C691 1.373 . S
C690 C692 1.389 . S
C691 H670 0.950 . S
C691 C690 1.373 . S
C691 C707 1.377 . S
C692 C690 1.389 . S
C692 C693 1.524 . S
C692 C706 1.377 . S
C693 C692 1.524 . S
C693 C694 1.397 . S
C693 C698 1.363 . S
C694 H671 0.950 . S
C694 C693 1.397 . S
C694 C695 1.334 . S
C695 H672 0.950 . S
C695 C694 1.334 . S
C695 C696 1.287 . S
C696 C695 1.287 . S
C696 C697 1.524 . S
C696 H715 0.913 . S
C697 H673 0.950 . S
C697 C696 1.524 . S
C697 C698 1.415 . S
C698 H674 0.950 . S
C698 C693 1.363 . S
C698 C697 1.415 . S
C699 H675 0.951 . S
C699 C700 1.366 . S
C699 C701 1.388 1_565 S
C700 C699 1.366 . S
C700 C704 1.385 . S
C701 H676 0.951 . S
C701 C699 1.388 1_545 S
C701 C702 1.366 . S
C702 C701 1.366 . S
C702 C703 1.414 1_545 S
C702 C705 1.499 . S
C703 H677 0.950 . S
C703 C702 1.414 1_565 S
C703 C704 1.374 . S
C704 H678 0.950 . S
C704 C700 1.385 . S
C704 C703 1.374 . S
C705 C702 1.499 . S
C705 C706 1.373 . S
C705 C707 1.389 . S
C706 H679 0.950 . S
C706 C692 1.377 . S
C706 C705 1.373 . S
C707 C691 1.377 . S
C707 C705 1.389 . S
C707 C708 1.524 . S
C708 C707 1.524 . S
C708 C709 1.397 . S
C708 C713 1.363 . S
C709 H680 0.950 . S
C709 C708 1.397 . S
C709 C710 1.334 . S
C710 H681 0.950 1_545 S
C710 C709 1.334 . S
C710 C711 1.287 . S
C711 C710 1.287 . S
C711 C712 1.524 . S
C711 H714 0.999 . S
C712 H682 0.950 . S
C712 C711 1.524 . S
C712 C713 1.415 . S
C713 H683 0.950 . S
C713 C708 1.363 . S
C713 C712 1.415 . S
H714 C711 0.999 . S
H715 C696 0.913 . S
C135 C107 1.754 . S
C150 C54 1.857 . S
C185 C106 1.857 . S
C200 C55 1.753 . S
C235 C52 1.857 . S
C250 C114 1.753 . S
C285 C115 1.857 . S
C300 C53 1.754 . S
C335 C49 1.857 . S
C350 C109 1.754 . S
C385 C48 1.754 . S
C400 C108 1.857 . S
C435 C50 1.009 . S
C450 C51 1.009 . S
C485 C112 1.009 . S
C500 C113 1.009 . S
C535 C46 1.009 . S
C550 C47 1.009 . S
C585 C111 1.010 . S
C600 C110 1.010 . S
C635 C56 1.009 . S
C650 C57 1.009 . S
C685 C104 1.009 . S
C700 C105 1.009 . S
