# Generated by pormake.
# Topology kag, (6)-cn, num edge types: 1
# Building blocks:
#     Node 0, Type 0, BuildingBlock: KUMJIN_clean_sbu_0, # of connection points: 6
#     Node 1, Type 0, BuildingBlock: KUMJIN_clean_sbu_0, # of connection points: 6
#     Node 2, Type 0, BuildingBlock: KUMJIN_clean_sbu_0, # of connection points: 6
#     Edge 3, Type (0, 0), BuildingBlock: FUNLAD_clean_linker_1, # of connection points: 2
#     Edge 4, Type (0, 0), BuildingBlock: FUNLAD_clean_linker_1, # of connection points: 2
#     Edge 5, Type (0, 0), BuildingBlock: FUNLAD_clean_linker_1, # of connection points: 2
#     Edge 6, Type (0, 0), BuildingBlock: FUNLAD_clean_linker_1, # of connection points: 2
#     Edge 7, Type (0, 0), BuildingBlock: FUNLAD_clean_linker_1, # of connection points: 2
#     Edge 8, Type (0, 0), BuildingBlock: FUNLAD_clean_linker_1, # of connection points: 2
#     Edge 9, Type (0, 0), BuildingBlock: FUNLAD_clean_linker_1, # of connection points: 2
#     Edge 10, Type (0, 0), BuildingBlock: FUNLAD_clean_linker_1, # of connection points: 2
#     Edge 11, Type (0, 0), BuildingBlock: FUNLAD_clean_linker_1, # of connection points: 2
# Relax obj value: 0.068
# Max RMSD: 0.186
# Mean RMSD: 0.139
data_MOF--net-kag--node1-KUMJIN_clean_sbu_0--edge1-FUNLAD_clean_linker_1
_symmetry_space_group_name_H-M    P1
_symmetry_Int_Tables_number       1
_symmetry_cell_setting            triclinic
loop_
_symmetry_equiv_pos_as_xyz
'x, y, z'
_cell_length_a     41.516138
_cell_length_b     31.131577
_cell_length_c     15.857619
_cell_angle_alpha  94.664528
_cell_angle_beta   114.15315
_cell_angle_gamma 97.507667
loop_
_atom_site_label
_atom_site_type_symbol
_atom_site_fract_x
_atom_site_fract_y
_atom_site_fract_z
_atom_type_partial_charge
Eu0 Eu 0.99536 0.48485 0.96855 0.0
C1 C 1.0069 0.6683 0.17808 0.0
C2 C 0.95035 0.69036 0.08746 0.0
C3 C 0.98156 0.71558 0.25471 0.0
C4 C 0.97779 0.66677 0.09332 0.0
C5 C 0.00947 0.69338 0.25944 0.0
C6 C 0.95205 0.71406 0.16889 0.0
C7 C 0.06819 0.67523 0.34252 0.0
N8 N 0.03346 0.64661 0.18024 0.0
C9 C 0.06446 0.65091 0.25989 0.0
C10 C 0.0404 0.69616 0.34258 0.0
Eu11 Eu 0.02432 0.60453 0.03882 0.0
N12 N 0.97709 0.64384 0.01588 0.0
C13 C 0.95097 0.6454 0.92949 0.0
C14 C 0.92253 0.69036 -0.00045 0.0
C15 C 0.92317 0.66835 0.9201 0.0
H16 H 0.08587 0.63452 0.26014 0.0
H17 H 0.90227 0.66904 0.8516 0.0
H18 H 0.93107 0.7321 0.1659 0.0
H19 H 0.09242 0.67774 0.40608 0.0
H20 H 0.95104 0.62822 0.86768 0.0
H21 H 0.11443 0.41491 0.15259 0.0
H22 H 0.90094 0.70806 0.99202 0.0
H23 H 0.93381 0.45794 0.74632 0.0
H24 H 0.06822 0.45994 0.13734 0.0
H25 H 0.92619 0.41466 0.5994 0.0
H26 H 0.98288 0.73473 0.31661 0.0
H27 H 0.11441 0.37465 0.0115 0.0
H28 H 0.08416 0.35194 0.83729 0.0
H29 H 0.04338 0.71505 0.40664 0.0
H30 H 0.03289 0.35173 0.68687 0.0
N31 N 0.04181 0.44464 0.98923 0.0
C32 C 0.0677 0.44222 0.07529 0.0
C33 C 0.09384 0.39407 0.00436 0.0
C34 C 0.06655 0.39561 0.91659 0.0
C35 C 0.09397 0.41679 0.08417 0.0
C36 C 0.04026 0.42108 0.91136 0.0
H37 H 0.97368 0.3746 0.59767 0.0
N38 N 0.98544 0.44343 0.82563 0.0
C39 C 0.95027 0.41612 0.66284 0.0
C40 C 0.01122 0.4205 0.82694 0.0
C41 C 0.95461 0.44048 0.74605 0.0
C42 C 0.97719 0.39364 0.66211 0.0
C43 C 1.0079 0.3951 0.74508 0.0
O44 O 0.94401 0.4437 0.93788 0.0
O45 O 0.98039 0.54766 0.0024 0.0
O46 O 0.01531 0.57708 0.15668 0.0
O47 O 0.02187 0.50462 0.12865 0.0
O48 O 0.94056 0.50449 0.89474 0.0
O49 O 0.99207 0.43501 0.05545 0.0
O50 O 0.07599 0.64407 0.06752 0.0
O51 O 0.03956 0.54168 0.00521 0.0
O52 O 1.00525 0.51256 0.85187 0.0
O53 O 0.99791 0.58466 0.879 0.0
O54 O 0.07881 0.58465 0.11429 0.0
O55 O 0.02776 0.65571 0.95466 0.0
C56 C 0.9477 0.54187 0.94609 0.0
C57 C 0.94533 0.37335 0.98168 0.0
C58 C 0.90302 0.30934 0.97522 0.0
C59 C 0.91629 0.35467 -0.0015 0.0
C60 C 0.91913 0.28295 0.93307 0.0
C61 C 0.96123 0.34659 0.94056 0.0
C62 C 0.94809 0.30159 0.9163 0.0
C63 C 0.02 0.53822 0.18294 0.0
C64 C 0.95776 0.42095 0.00525 0.0
C65 C 0.03484 0.37123 0.74912 0.0
C66 C 0.06406 0.3714 0.83475 0.0
C67 C 0.07222 0.54752 0.06238 0.0
C68 C 0.07651 0.71517 0.02862 0.0
C69 C 0.1029 0.73309 0.0015 0.0
C70 C 0.11905 0.77745 0.03004 0.0
C71 C 0.10776 0.8041 0.08496 0.0
C72 C 0.06562 0.74192 0.08368 0.0
C73 C 0.08115 0.78629 0.11136 0.0
C74 C 1.00035 0.55133 0.82529 0.0
C75 C 0.06238 0.66803 0.00255 0.0
H76 H 0.90401 0.3756 0.03006 0.0
H77 H 0.90933 0.24814 0.91145 0.0
H78 H 0.98355 0.36046 0.92672 0.0
H79 H 0.96024 0.28108 0.88379 0.0
H80 H 0.11136 0.71216 0.95931 0.0
H81 H 0.11889 0.83869 0.10631 0.0
H82 H 0.04535 0.72853 0.10545 0.0
H83 H 0.07258 0.80695 0.15351 0.0
Eu84 Eu 0.55775 0.06412 0.06167 0.0
C85 C 0.43075 0.12179 0.81917 0.0
C86 C 0.42003 0.16915 0.93035 0.0
C87 C 0.40599 0.18773 0.77516 0.0
C88 C 0.43202 0.13126 0.90731 0.0
C89 C 0.41668 0.14938 0.75129 0.0
C90 C 0.40794 0.19778 0.86478 0.0
C91 C 0.4191 0.09594 0.63655 0.0
N92 N 0.44024 0.0838 0.79704 0.0
C93 C 0.43227 0.06944 0.70551 0.0
C94 C 0.41214 0.13665 0.66002 0.0
Eu95 Eu 0.46268 1.04 0.91847 0.0
N96 N 0.44297 0.10234 0.96868 0.0
C97 C 0.43966 0.10811 0.05113 0.0
C98 C 0.41943 0.17655 0.01767 0.0
C99 C 0.4288 0.14554 0.07771 0.0
H100 H 0.43525 1.03695 0.68428 0.0
H101 H 0.42693 0.14995 0.14389 0.0
H102 H 0.39907 0.22716 0.88183 0.0
H103 H 0.41382 0.08458 0.56498 0.0
H104 H 0.44398 0.08367 0.09637 0.0
H105 H 0.59152 0.93684 0.86741 0.0
H106 H 0.41057 0.20527 0.03801 0.0
H107 H 0.58907 0.08572 0.29674 0.0
H108 H 0.57141 1.00493 0.89277 0.0
H109 H 0.61259 0.04788 0.43401 0.0
H110 H 0.39556 0.20943 0.72426 0.0
H111 H 0.61149 0.89132 0.99345 0.0
H112 H 0.62508 0.88174 0.1589 0.0
H113 H 0.40158 0.15697 0.60622 0.0
H114 H 0.62939 0.91113 0.31247 0.0
N115 N 0.57737 0.99814 0.03095 0.0
C116 C 0.57895 0.98548 0.94824 0.0
C117 C 0.60212 0.92121 0.00485 0.0
C118 C 0.60227 0.93525 0.09098 0.0
C119 C 0.59088 0.94679 0.93364 0.0
C120 C 0.58966 0.97441 0.10223 0.0
H121 H 0.62455 0.97279 0.4156 0.0
N122 N 0.583 1.03065 0.19893 0.0
C123 C 0.60646 1.03112 0.36525 0.0
C124 C 0.59203 0.99086 0.18851 0.0
C125 C 0.59242 0.05211 0.28684 0.0
C126 C 0.61313 0.98878 0.35454 0.0
C127 C 0.60723 0.96876 0.26604 0.0
O128 O 0.60527 0.11046 0.1601 0.0
O129 O 0.51125 0.09479 0.97162 0.0
O130 O 0.48837 1.03455 0.81846 0.0
O131 O 0.54735 0.06879 0.91048 0.0
O132 O 0.54431 0.12888 0.10254 0.0
O133 O 0.60124 0.0879 0.02348 0.0
O134 O 0.41683 0.99892 0.80383 0.0
O135 O 0.50922 1.00925 0.00652 0.0
O136 O 0.53118 0.06925 0.15984 0.0
O137 O 0.47407 1.02922 0.06817 0.0
O138 O 0.47562 0.97478 0.87709 0.0
O139 O 0.41534 1.01131 0.93973 0.0
C140 C 0.51742 0.13091 0.02495 0.0
C141 C 0.65936 0.10452 0.14674 0.0
C142 C 0.72036 0.12272 0.15825 0.0
C143 C 0.68409 0.12805 0.12006 0.0
C144 C 0.73111 0.0932 0.22277 0.0
C145 C 0.6709 0.07539 0.21144 0.0
C146 C 0.70657 0.0698 0.24909 0.0
C147 C 0.52067 0.05187 0.82888 0.0
C148 C 0.6216 0.11035 0.10544 0.0
C149 C 0.61804 0.92871 0.25398 0.0
C150 C 0.61573 0.91208 0.16668 0.0
C151 C 0.50286 0.97289 0.95391 0.0
C152 C 0.36247 0.96495 0.81189 0.0
C153 C 0.34461 0.95293 0.86753 0.0
C154 C 0.3102 0.92647 0.82695 0.0
C155 C 0.29353 0.91327 0.72938 0.0
C156 C 0.34543 0.95062 0.71506 0.0
C157 C 0.31118 0.92513 0.67431 0.0
C158 C 0.50001 0.04793 0.14999 0.0
C159 C 0.39876 0.99216 0.85319 0.0
H160 H 0.67459 0.14995 0.06927 0.0
H161 H 0.75869 0.08823 0.25322 0.0
H162 H 0.65246 0.05697 0.23306 0.0
H163 H 0.71526 1.04722 0.29892 0.0
H164 H 0.35755 0.96379 0.94231 0.0
H165 H 0.26658 0.89453 0.69455 0.0
H166 H 0.35843 0.95941 0.67039 0.0
H167 H 0.29812 0.91476 0.59947 0.0
Eu168 Eu 0.45918 0.53437 0.95017 0.0
C169 C 0.6066 0.64623 0.21254 0.0
C170 C 0.60922 0.7145 0.15033 0.0
C171 C 0.63783 0.71432 0.31819 0.0
C172 C 0.59752 0.66881 0.13684 0.0
C173 C 0.62789 0.66848 0.30379 0.0
C174 C 0.62843 0.7373 0.24157 0.0
C175 C 0.63162 0.59806 0.35796 0.0
N176 N 0.59703 0.60191 0.19593 0.0
C177 C 0.61071 0.57745 0.26603 0.0
C178 C 0.63975 0.64381 0.37719 0.0
Eu179 Eu 0.55966 0.56982 0.03906 0.0
N180 N 0.57953 0.64564 0.04959 0.0
C181 C 0.57479 0.66556 0.9727 0.0
C182 C 0.60237 0.7356 0.07166 0.0
C183 C 0.58567 0.71089 0.98252 0.0
H184 H 0.60413 0.54208 0.251 0.0
H185 H 0.58088 0.72677 0.92132 0.0
H186 H 0.6372 0.77249 0.25343 0.0
H187 H 0.64146 0.57868 0.41385 0.0
H188 H 0.56144 0.64692 0.90343 0.0
H189 H 0.43796 0.37676 0.06534 0.0
H190 H 0.61075 0.77069 0.07905 0.0
H191 H 0.41531 0.56301 0.73891 0.0
H192 H 0.45775 0.45662 0.08449 0.0
H193 H 0.37776 0.52704 0.57572 0.0
H194 H 0.65378 0.73212 0.38794 0.0
H195 H 0.40737 0.33349 0.907 0.0
H196 H 0.38045 0.33242 0.7328 0.0
H197 H 0.65616 0.65967 0.44835 0.0
H198 H 0.36401 0.37337 0.59917 0.0
N199 N 0.43912 0.45852 0.93842 0.0
C200 C 0.44408 0.43825 0.01498 0.0
C201 C 0.41589 0.36858 0.91495 0.0
C202 C 0.40889 0.39004 0.8367 0.0
C203 C 0.43301 0.39292 0.00444 0.0
C204 C 0.4208 0.4357 0.85092 0.0
H205 H 0.36227 0.4461 0.54 0.0
N206 N 0.42176 0.50288 0.793 0.0
C207 C 0.38736 0.50741 0.63123 0.0
C208 C 0.41182 0.4586 0.7757 0.0
C209 C 0.40841 0.52766 0.72336 0.0
C210 C 0.37879 0.46169 0.61132 0.0
C211 C 0.39038 0.4367 0.68422 0.0
O212 O 0.41234 0.56599 0.92212 0.0
O213 O 0.50579 0.59049 -0.00304 0.0
O214 O 0.54309 0.58264 0.15742 0.0
O215 O 0.48897 0.53341 0.10743 0.0
O216 O 0.4566 0.60527 0.91982 0.0
O217 O 0.4278 0.5267 0.03298 0.0
O218 O 0.6067 0.53845 0.06871 0.0
O219 O 0.51305 0.51382 0.99285 0.0
O220 O 0.47585 0.5211 0.83216 0.0
O221 O 0.52983 0.57057 0.88174 0.0
O222 O 0.56224 0.49872 0.06813 0.0
O223 O 0.59109 0.5769 0.95635 0.0
C224 C 0.49012 0.62217 0.9655 0.0
C225 C 0.36522 0.52724 0.95007 0.0
C226 C 0.30609 0.52086 0.95543 0.0
C227 C 0.34281 0.54104 0.99086 0.0
C228 C 0.29288 0.4859 0.88092 0.0
C229 C 0.35052 0.49299 0.87479 0.0
C230 C 0.31487 0.47239 0.84102 0.0
C231 C 0.5174 0.55996 0.17331 0.0
C232 C 0.40356 0.54847 0.98358 0.0
C233 C 0.3801 0.3909 0.6691 0.0
C234 C 0.38942 0.36759 0.74522 0.0
C235 C 0.52868 0.48193 0.02288 0.0
C236 C 0.65372 0.57694 0.04015 0.0
C237 C 0.67686 0.56142 0.00377 0.0
C238 C 0.71345 0.58209 0.03865 0.0
C239 C 0.72626 0.61772 0.11173 0.0
C240 C 0.66767 0.61291 0.11156 0.0
C241 C 0.7035 0.63302 0.14701 0.0
C242 C 0.50146 0.54384 0.81605 0.0
C243 C 0.61544 0.55551 0.00676 0.0
H244 H 0.35376 0.56756 0.04902 0.0
H245 H 0.26565 0.46811 0.85397 0.0
H246 H 0.3666 0.48205 0.84173 0.0
H247 H 0.30421 0.44559 0.78355 0.0
H248 H 0.66649 0.53343 0.94888 0.0
H249 H 0.75413 0.6335 0.14407 0.0
H250 H 0.65103 0.62517 0.14128 0.0
H251 H 0.71383 0.66037 0.20323 0.0
H252 H 0.99454 0.59061 0.71125 0.0
C253 C 0.99892 0.55879 0.73268 0.0
H254 H 0.01093 0.49748 0.7002 0.0
H255 H 0.95099 0.56789 0.28534 0.0
H256 H 0.89481 0.56805 0.29775 0.0
H257 H 0.88865 0.55106 0.44018 0.0
H258 H 0.93921 0.53587 0.573 0.0
C259 C 1.00481 0.52857 0.67722 0.0
C260 C 1.00771 0.53788 0.58914 0.0
C261 C 0.97751 0.54519 0.51067 0.0
C262 C 0.98073 0.55346 0.42703 0.0
C263 C 0.95023 0.56144 0.35059 0.0
C264 C 0.91764 0.56125 0.35637 0.0
C265 C 0.91424 0.55193 0.43678 0.0
C266 C 0.94362 0.54363 0.51291 0.0
H267 H 0.02591 0.49919 0.29758 0.0
C268 C 0.02185 0.53108 0.27614 0.0
H269 H 0.0109 0.59301 0.30912 0.0
H270 H 0.07121 0.52644 0.72671 0.0
H271 H 0.12807 0.52914 0.71656 0.0
H272 H 0.13357 0.54345 0.57186 0.0
H273 H 0.08224 0.55513 0.4364 0.0
C274 C 0.01659 0.56179 0.33201 0.0
C275 C 0.01381 0.55302 0.42047 0.0
C276 C 0.0441 0.54611 0.49921 0.0
C277 C 0.04098 0.5383 0.58321 0.0
C278 C 0.07185 0.53212 0.66096 0.0
C279 C 0.10475 0.53375 0.65627 0.0
C280 C 0.10785 0.5418 0.57479 0.0
C281 C 0.07804 0.54812 0.49718 0.0
H282 H 0.47165 1.01834 0.22834 0.0
C283 C 0.49435 1.04227 0.23455 0.0
H284 H 0.53843 0.09069 0.325 0.0
H285 H 0.49064 0.11405 0.65095 0.0
H286 H 0.47988 0.18166 0.58795 0.0
H287 H 0.4842 0.19309 0.44046 0.0
H288 H 0.4992 0.13673 0.35521 0.0
C289 C 0.5171 0.06466 0.31863 0.0
C290 C 0.51314 0.05664 0.40516 0.0
C291 C 0.50463 0.09005 0.45445 0.0
C292 C 0.50204 0.08339 0.53922 0.0
C293 C 0.49307 0.1172 0.58639 0.0
C294 C 0.48679 0.15628 0.55092 0.0
C295 C 0.48923 0.16272 0.46795 0.0
C296 C 0.49799 0.13012 0.41991 0.0
H297 H 0.55111 0.07712 0.7518 0.0
C298 C 0.52705 0.05557 0.74474 0.0
H299 H 0.48015 1.01149 0.65197 0.0
H300 H 0.53334 0.98719 0.3326 0.0
H301 H 0.54382 0.91948 0.39541 0.0
H302 H 0.53743 0.90708 0.54 0.0
H303 H 0.52097 0.96282 0.62316 0.0
C304 C 0.50326 1.03508 0.65989 0.0
C305 C 0.50782 1.04316 0.57412 0.0
C306 C 0.51645 1.00981 0.52503 0.0
C307 C 0.51955 1.0167 0.44093 0.0
C308 C 0.52976 0.9835 0.39553 0.0
C309 C 0.53604 0.94443 0.43113 0.0
C310 C 0.53248 0.93748 0.51254 0.0
C311 C 0.52289 0.96969 0.55939 0.0
H312 H 0.47314 0.5177 0.66546 0.0
C313 C 0.49697 0.5393 0.71775 0.0
H314 H 0.54422 0.58301 0.74128 0.0
H315 H 0.50776 0.46628 0.33102 0.0
H316 H 0.51999 0.40471 0.41632 0.0
H317 H 0.53093 0.41168 0.58228 0.0
H318 H 0.52946 0.48013 0.66387 0.0
C319 C 0.52082 0.56023 0.69063 0.0
C320 C 0.51479 0.55567 0.59013 0.0
C321 C 0.51608 0.51544 0.54339 0.0
C322 C 0.5103 0.51159 0.44775 0.0
C323 C 0.51182 0.47104 0.40327 0.0
C324 C 0.51894 0.43543 0.4515 0.0
C325 C 0.52505 0.43935 0.54491 0.0
C326 C 0.52386 0.47881 0.59077 0.0
H327 H 0.54573 0.58588 0.324 0.0
C328 C 0.52186 0.56441 0.27158 0.0
H329 H 0.47445 0.52092 0.24774 0.0
H330 H 0.51074 0.63744 0.65795 0.0
H331 H 0.49843 0.69898 0.57258 0.0
H332 H 0.48763 0.69204 0.40671 0.0
H333 H 0.48925 0.62364 0.32524 0.0
C334 C 0.49791 0.54357 0.29851 0.0
C335 C 0.50389 0.54811 0.39897 0.0
C336 C 0.50258 0.58833 0.4457 0.0
C337 C 0.50833 0.59217 0.54132 0.0
C338 C 0.50674 0.63269 0.58573 0.0
C339 C 0.49957 0.66828 0.53747 0.0
C340 C 0.49353 0.66439 0.4441 0.0
C341 C 0.4948 0.62495 0.39831 0.0
H342 H 0.0931 0.50693 0.98014 0.0
C343 C 0.10082 0.53254 0.03906 0.0
H344 H 0.14254 0.58166 0.13655 0.0
H345 H 0.24702 0.4624 0.04014 0.0
H346 H 0.22955 0.41029 0.12627 0.0
H347 H 0.18332 0.42147 0.18167 0.0
H348 H 0.15362 0.48449 0.14931 0.0
C349 C 0.13525 0.55429 0.08124 0.0
C350 C 0.16356 0.5471 0.04794 0.0
C351 C 0.18193 0.51131 0.07041 0.0
C352 C 0.20976 0.50584 0.04152 0.0
C353 C 0.22628 0.46862 0.06168 0.0
C354 C 0.21652 0.43847 0.11115 0.0
C355 C 0.19042 0.44471 0.14218 0.0
C356 C 0.17337 0.48075 0.12256 0.0
H357 H 0.29425 0.54964 0.07132 0.0
C358 C 0.28202 0.5346 -0.00148 0.0
H359 H 0.23326 0.51629 0.87619 0.0
H360 H 0.13594 0.62096 -0.00238 0.0
H361 H 0.15556 0.67509 0.91864 0.0
H362 H 0.20464 0.66663 0.8727 0.0
H363 H 0.23471 0.60401 0.9058 0.0
C364 C 0.24574 0.5282 0.9506 0.0
C365 C 0.22038 0.53709 0.99304 0.0
C366 C 0.20288 0.57373 0.97352 0.0
C367 C 0.17458 0.57873 0.00076 0.0
C368 C 0.15771 0.61567 0.97946 0.0
C369 C 0.16861 0.64694 0.93386 0.0
C370 C 0.19624 0.64215 0.90785 0.0
C371 C 0.2132 0.60601 0.92703 0.0
H372 H 0.77437 0.13712 0.16082 0.0
C373 C 0.74801 0.14643 0.133 0.0
H374 H 0.71754 0.18934 0.04857 0.0
H375 H 0.88855 0.27914 0.17343 0.0
H376 H 0.8908 0.29622 0.32782 0.0
H377 H 0.83871 0.27055 0.35984 0.0
H378 H 0.78422 0.22705 0.23782 0.0
C379 C 0.74315 0.17871 0.07981 0.0
C380 C 0.77272 0.19939 0.05782 0.0
C381 C 0.8039 0.22616 0.12901 0.0
C382 C 0.83342 0.24239 0.10956 0.0
C383 C 0.86487 0.26715 0.18329 0.0
C384 C 0.86661 0.27702 0.27249 0.0
C385 C 0.83733 0.26246 0.2906 0.0
C386 C 0.80629 0.2373 0.22003 0.0
H387 H 0.85715 0.31458 0.01068 0.0
C388 C 0.87204 0.29141 0.99458 0.0
H389 H 0.87629 0.22418 0.98264 0.0
H390 H 0.7161 0.15148 0.90427 0.0
H391 H 0.71263 0.13732 0.74775 0.0
H392 H 0.76317 0.16705 0.71295 0.0
H393 H 0.81757 0.21102 0.83453 0.0
C394 C 0.86232 0.24875 -0.00265 0.0
C395 C 0.8312 0.23313 0.018 0.0
C396 C 0.79949 0.20776 0.94608 0.0
C397 C 0.77021 0.19094 0.96595 0.0
C398 C 0.73905 0.16529 0.89294 0.0
C399 C 0.7367 0.15689 0.80277 0.0
C400 C 0.76517 0.17361 0.78319 0.0
C401 C 0.79626 0.19874 0.85368 0.0
H402 H 0.49693 0.92332 0.04265 0.0
C403 C 0.50548 0.92873 0.98768 0.0
H404 H 0.51961 0.90246 0.88591 0.0
H405 H 0.51176 0.73067 0.12493 0.0
H406 H 0.54215 0.7809 0.26973 0.0
H407 H 0.55761 0.86003 0.26949 0.0
H408 H 0.5419 0.88953 0.12468 0.0
C409 C 0.51162 0.89427 0.94062 0.0
C410 C 0.5046 0.84492 0.94713 0.0
C411 C 0.51601 0.82705 0.03298 0.0
C412 C 0.50945 0.78021 0.03339 0.0
C413 C 0.51812 0.76483 0.12014 0.0
C414 C 0.53526 0.79347 0.20403 0.0
C415 C 0.5438 0.83807 0.20388 0.0
C416 C 0.53427 0.85473 0.11979 0.0
H417 H 0.5301 0.68423 0.04036 0.0
C418 C 0.50384 0.67129 0.98619 0.0
H419 H 0.45581 0.68659 0.89127 0.0
H420 H 0.47373 0.86343 0.76739 0.0
H421 H 0.45168 0.81279 0.62471 0.0
H422 H 0.45116 0.73372 0.6275 0.0
H423 H 0.4715 0.70469 0.77347 0.0
C424 C 0.4829 0.70041 0.94271 0.0
C425 C 0.49427 0.75005 0.94837 0.0
C426 C 0.48518 0.76792 0.86332 0.0
C427 C 0.48847 0.81441 0.8623 0.0
C428 C 0.47486 0.82935 0.77417 0.0
C429 C 0.46151 0.80046 0.69093 0.0
C430 C 0.46098 0.75594 0.69244 0.0
C431 C 0.47248 0.73971 0.77707 0.0
H432 H 0.92799 0.58146 0.0323 0.0
C433 C 0.91965 0.55878 0.96837 0.0
H434 H 0.87581 0.52061 0.85216 0.0
H435 H 0.79401 0.53543 0.12922 0.0
H436 H 0.83312 0.48774 0.2162 0.0
H437 H 0.88229 0.46988 0.17843 0.0
H438 H 0.89294 0.49987 0.05392 0.0
C439 C 0.8843 0.54315 0.91643 0.0
C440 C 0.8553 0.55525 0.94246 0.0
C441 C 0.84891 0.53696 0.01466 0.0
C442 C 0.81983 0.5465 0.0351 0.0
C443 C 0.81502 0.52865 0.10931 0.0
C444 C 0.83731 0.50121 0.1599 0.0
C445 C 0.86505 0.4912 0.13874 0.0
C446 C 0.87095 0.5088 0.06722 0.0
H447 H 0.7314 0.53165 0.96726 0.0
C448 C 0.73853 0.56524 0.00235 0.0
H449 H 0.7759 0.62456 0.04015 0.0
H450 H 0.85846 0.59395 0.79711 0.0
H451 H 0.81858 0.64038 0.70748 0.0
H452 H 0.76829 0.65662 0.74206 0.0
H453 H 0.75743 0.62642 0.86634 0.0
C454 C 0.76975 0.58998 0.01252 0.0
C455 C 0.79666 0.57392 0.98256 0.0
C456 C 0.80276 0.59149 0.90935 0.0
C457 C 0.8318 0.58198 0.88905 0.0
C458 C 0.83687 0.60004 0.81536 0.0
C459 C 0.81419 0.62677 0.76339 0.0
C460 C 0.78591 0.63597 0.78297 0.0
C461 C 0.78009 0.61858 0.85481 0.0
H462 H 0.14655 0.77674 0.93669 0.0
C463 C 0.1468 0.79462 -0.00108 0.0
H464 H 0.17475 0.84789 0.10852 0.0
H465 H 0.28763 0.81124 0.91798 0.0
H466 H 0.2901 0.74347 0.98421 0.0
H467 H 0.25211 0.72208 0.06494 0.0
H468 H 0.21134 0.76818 0.0796 0.0
C469 C 0.17306 0.82944 0.04532 0.0
C470 C 0.19956 0.84487 0.00835 0.0
C471 C 0.22396 0.81811 0.0026 0.0
C472 C 0.24617 0.83073 0.95706 0.0
C473 C 0.26996 0.80308 0.95125 0.0
C474 C 0.27177 0.7642 0.98934 0.0
C475 C 0.25038 0.75213 0.03475 0.0
C476 C 0.22686 0.77874 0.04198 0.0
H477 H 0.30023 0.93497 0.95421 0.0
C478 C 0.29159 0.91471 0.88695 0.0
H479 H 0.2571 0.85747 0.79823 0.0
H480 H 0.15832 0.90555 0.0158 0.0
H481 H 0.15581 0.97335 0.95011 0.0
H482 H 0.19299 0.99438 0.86712 0.0
H483 H 0.23306 0.94811 0.85005 0.0
C484 C 0.26441 0.88043 0.8611 0.0
C485 C 0.24438 0.87039 0.91859 0.0
C486 C 0.22099 0.89804 0.92769 0.0
C487 C 0.19894 0.88549 0.97383 0.0
C488 C 0.17559 0.91342 0.98129 0.0
C489 C 0.17382 0.95242 0.94376 0.0
C490 C 0.1948 0.96429 0.89718 0.0
C491 C 0.21796 0.93747 0.88851 0.0
H492 H 0.48872 0.42005 0.94606 0.0
C493 C 0.51489 0.43283 0.00101 0.0
H494 H 0.56264 0.41722 0.09683 0.0
H495 H 0.54247 0.23876 0.21327 0.0
H496 H 0.5624 0.28832 0.35662 0.0
H497 H 0.56305 0.36751 0.35585 0.0
H498 H 0.54478 0.39775 0.2113 0.0
C499 C 0.53573 0.40355 0.04422 0.0
C500 C 0.52437 0.35378 0.03641 0.0
C501 C 0.53235 0.33516 0.12031 0.0
C502 C 0.52915 0.28857 0.11984 0.0
C503 C 0.54143 0.27292 0.20729 0.0
C504 C 0.55354 0.30119 0.29097 0.0
C505 C 0.55413 0.34578 0.29062 0.0
C506 C 0.54384 0.36271 0.20685 0.0
H507 H 0.52491 0.18176 0.94045 0.0
C508 C 0.515 0.17536 0.99259 0.0
H509 H 0.49825 0.19987 0.09046 0.0
H510 H 0.50887 0.37493 0.86198 0.0
H511 H 0.481 0.3256 0.71563 0.0
H512 H 0.46634 0.24599 0.7124 0.0
H513 H 0.4804 0.21522 0.85533 0.0
C514 C 0.50755 0.20904 0.03855 0.0
C515 C 0.51449 0.25866 0.03427 0.0
C516 C 0.50429 0.27728 0.94937 0.0
C517 C 0.51051 0.32427 0.95077 0.0
C518 C 0.50284 0.34049 0.86519 0.0
C519 C 0.48713 0.31241 0.78046 0.0
C520 C 0.47906 0.26757 0.77866 0.0
C521 C 0.48758 0.25016 0.8617 0.0
loop_
_geom_bond_atom_site_label_1
_geom_bond_atom_site_label_2
_geom_bond_distance
_geom_bond_site_symmetry_2
_ccdc_geom_bond_type
Eu0 N31 2.657 1_656 S
Eu0 N38 2.609 . S
Eu0 O44 2.558 . S
Eu0 O45 2.615 . S
Eu0 O47 2.343 1_656 S
Eu0 O48 2.563 . S
Eu0 O49 2.419 1_556 S
Eu0 O51 2.380 1_656 S
Eu0 O52 2.432 . S
Eu0 C64 2.848 . S
C1 C4 1.429 . S
C1 C5 1.411 . S
C1 N8 1.377 1_655 S
C2 C4 1.420 1_556 S
C2 C6 1.423 1_556 S
C2 C14 1.392 . S
C3 C5 1.420 . S
C3 C6 1.351 . S
C3 H26 0.931 . S
C4 C1 1.429 . S
C4 C2 1.420 1_554 S
C4 N12 1.362 1_554 S
C5 C1 1.411 . S
C5 C3 1.420 . S
C5 C10 1.395 1_655 S
C6 C2 1.423 1_554 S
C6 C3 1.351 . S
C6 H18 0.930 1_554 S
C7 C9 1.400 . S
C7 C10 1.386 . S
C7 H19 0.930 . S
N8 C1 1.377 1_455 S
N8 C9 1.321 . S
N8 Eu11 2.609 . S
C9 C7 1.400 . S
C9 N8 1.321 . S
C9 H16 0.930 . S
C10 C5 1.395 1_455 S
C10 C7 1.386 . S
C10 H29 0.930 . S
Eu11 N8 2.609 . S
Eu11 N12 2.657 1_454 S
Eu11 O45 2.383 1_454 S
Eu11 O46 2.432 . S
Eu11 O50 2.558 . S
Eu11 O51 2.612 . S
Eu11 O53 2.339 1_554 S
Eu11 O54 2.563 . S
Eu11 O55 2.419 1_554 S
Eu11 C75 2.848 . S
N12 C4 1.362 1_556 S
N12 Eu11 2.657 1_656 S
N12 C13 1.334 . S
C13 N12 1.334 . S
C13 C15 1.413 . S
C13 H20 0.929 . S
C14 C2 1.392 . S
C14 C15 1.367 . S
C14 H22 0.930 . S
C15 C13 1.413 . S
C15 C14 1.367 . S
C15 H17 0.930 . S
H16 C9 0.930 . S
H17 C15 0.930 . S
H18 C6 0.930 1_556 S
H19 C7 0.930 . S
H20 C13 0.929 . S
H21 C35 0.930 . S
H22 C14 0.930 . S
H23 C41 0.930 . S
H24 C32 0.929 . S
H25 C39 0.930 . S
H26 C3 0.931 . S
H27 C33 0.930 . S
H28 C66 0.930 1_554 S
H29 C10 0.930 . S
H30 C65 0.931 . S
N31 Eu0 2.657 1_454 S
N31 C32 1.334 . S
N31 C36 1.356 1_554 S
C32 H24 0.929 . S
C32 N31 1.334 . S
C32 C35 1.413 . S
C33 H27 0.930 . S
C33 C34 1.392 . S
C33 C35 1.367 . S
C34 C33 1.392 . S
C34 C36 1.418 1_554 S
C34 C66 1.423 1_554 S
C35 H21 0.930 . S
C35 C32 1.413 . S
C35 C33 1.367 . S
C36 N31 1.356 1_556 S
C36 C34 1.418 1_556 S
C36 C40 1.437 . S
H37 C42 0.942 . S
N38 Eu0 2.609 . S
N38 C40 1.377 1_655 S
N38 C41 1.321 . S
C39 H25 0.930 . S
C39 C41 1.400 . S
C39 C42 1.386 . S
C40 C36 1.437 . S
C40 N38 1.377 1_455 S
C40 C43 1.411 . S
C41 H23 0.930 . S
C41 N38 1.321 . S
C41 C39 1.400 . S
C42 H37 0.942 . S
C42 C39 1.386 . S
C42 C43 1.395 1_655 S
C43 C40 1.411 . S
C43 C42 1.395 1_455 S
C43 C65 1.420 . S
O44 Eu0 2.558 . S
O44 C64 1.257 . S
O45 Eu0 2.615 . S
O45 Eu11 2.383 1_656 S
O45 C56 1.274 . S
O46 Eu11 2.432 . S
O46 C63 1.264 . S
O47 Eu0 2.343 1_454 S
O47 C63 1.250 . S
O48 Eu0 2.563 . S
O48 C56 1.235 . S
O49 Eu0 2.419 1_554 S
O49 C64 1.249 1_554 S
O50 Eu11 2.558 . S
O50 C75 1.257 . S
O51 Eu0 2.380 1_454 S
O51 Eu11 2.612 . S
O51 C67 1.276 . S
O52 Eu0 2.432 . S
O52 C74 1.264 . S
O53 Eu11 2.339 1_556 S
O53 C74 1.254 1_455 S
O54 Eu11 2.563 . S
O54 C67 1.235 . S
O55 Eu11 2.419 1_556 S
O55 C75 1.249 1_556 S
C56 O45 1.274 . S
C56 O48 1.235 . S
C57 C59 1.397 . S
C57 C61 1.395 . S
C57 C64 1.492 . S
C58 C59 1.391 . S
C58 C60 1.386 . S
C59 C57 1.397 . S
C59 C58 1.391 . S
C59 H76 0.927 1_556 S
C60 C58 1.386 . S
C60 C62 1.395 . S
C60 H77 0.930 . S
C61 C57 1.395 . S
C61 C62 1.379 . S
C61 H78 0.930 . S
C62 C60 1.395 . S
C62 C61 1.379 . S
C62 H79 0.930 . S
C63 O46 1.264 . S
C63 O47 1.250 . S
C64 Eu0 2.848 . S
C64 O44 1.257 . S
C64 O49 1.249 1_556 S
C64 C57 1.492 . S
C65 H30 0.931 . S
C65 C43 1.420 . S
C65 C66 1.351 . S
C66 H28 0.930 1_556 S
C66 C34 1.423 1_556 S
C66 C65 1.351 . S
C67 O51 1.276 . S
C67 O54 1.235 . S
C68 C69 1.393 . S
C68 C72 1.395 . S
C68 C75 1.492 . S
C69 C68 1.393 . S
C69 C70 1.392 . S
C69 H80 0.930 1_554 S
C70 C69 1.392 . S
C70 C71 1.386 . S
C71 C70 1.386 . S
C71 C73 1.395 . S
C71 H81 0.930 . S
C72 C68 1.395 . S
C72 C73 1.379 . S
C72 H82 0.930 . S
C73 C71 1.395 . S
C73 C72 1.379 . S
C73 H83 0.930 . S
C74 O52 1.264 . S
C74 O53 1.254 1_655 S
C75 Eu11 2.848 . S
C75 O50 1.257 . S
C75 O55 1.249 1_554 S
C75 C68 1.492 . S
H76 C59 0.927 1_554 S
H77 C60 0.930 . S
H78 C61 0.930 . S
H79 C62 0.930 . S
H80 C69 0.930 1_556 S
H81 C71 0.930 . S
H82 C72 0.930 . S
H83 C73 0.930 . S
Eu84 N115 2.657 1_545 S
Eu84 N122 2.609 1_545 S
Eu84 O128 2.558 . S
Eu84 O129 2.612 1_554 S
Eu84 O131 2.339 1_554 S
Eu84 O132 2.563 . S
Eu84 O133 2.419 . S
Eu84 O135 2.380 1_545 S
Eu84 O136 2.432 . S
Eu84 C148 2.848 . S
C85 C88 1.429 . S
C85 C89 1.411 . S
C85 N92 1.377 . S
C86 C88 1.420 . S
C86 C90 1.423 . S
C86 C98 1.392 1_556 S
C87 C89 1.420 . S
C87 C90 1.351 . S
C87 H110 0.931 . S
C88 C85 1.429 . S
C88 C86 1.420 . S
C88 N96 1.362 . S
C89 C85 1.411 . S
C89 C87 1.420 . S
C89 C94 1.395 . S
C90 C86 1.423 . S
C90 C87 1.351 . S
C90 H102 0.930 . S
C91 C93 1.395 1_545 S
C91 C94 1.394 . S
C91 H103 0.926 1_545 S
N92 C85 1.377 . S
N92 C93 1.321 1_545 S
N92 Eu95 2.609 1_545 S
C93 C91 1.395 1_565 S
C93 N92 1.321 1_565 S
C93 H100 0.930 . S
C94 C89 1.395 . S
C94 C91 1.394 . S
C94 H113 0.930 . S
Eu95 N92 2.609 1_565 S
Eu95 N96 2.657 1_565 S
Eu95 O129 2.380 1_565 S
Eu95 O130 2.432 . S
Eu95 O134 2.558 . S
Eu95 O135 2.612 1_556 S
Eu95 O137 2.339 1_556 S
Eu95 O138 2.563 . S
Eu95 O139 2.419 . S
Eu95 C159 2.848 . S
N96 C88 1.362 . S
N96 Eu95 2.657 1_545 S
N96 C97 1.334 1_556 S
C97 N96 1.334 1_554 S
C97 C99 1.413 . S
C97 H104 0.929 . S
C98 C86 1.392 1_554 S
C98 C99 1.367 . S
C98 H106 0.930 . S
C99 C97 1.413 . S
C99 C98 1.367 . S
C99 H101 0.930 . S
H100 C93 0.930 . S
H101 C99 0.930 . S
H102 C90 0.930 . S
H103 C91 0.926 1_565 S
H104 C97 0.929 . S
H105 C119 0.930 . S
H106 C98 0.930 . S
H107 C125 0.930 . S
H108 C116 0.929 . S
H109 C123 0.931 . S
H110 C87 0.931 . S
H111 C117 0.930 . S
H112 C150 0.930 . S
H113 C94 0.930 . S
H114 C149 0.931 . S
N115 Eu84 2.657 1_565 S
N115 C116 1.334 1_554 S
N115 C120 1.362 . S
C116 H108 0.929 . S
C116 N115 1.334 1_556 S
C116 C119 1.413 . S
C117 H111 0.930 . S
C117 C118 1.392 1_556 S
C117 C119 1.367 . S
C118 C117 1.392 1_554 S
C118 C120 1.420 . S
C118 C150 1.423 . S
C119 H105 0.930 . S
C119 C116 1.413 . S
C119 C117 1.367 . S
C120 N115 1.362 . S
C120 C118 1.420 . S
C120 C124 1.429 . S
H121 C126 0.930 . S
N122 Eu84 2.609 1_565 S
N122 C124 1.377 . S
N122 C125 1.321 1_565 S
C123 H109 0.931 . S
C123 C125 1.401 . S
C123 C126 1.383 1_545 S
C124 C120 1.429 . S
C124 N122 1.377 . S
C124 C127 1.411 . S
C125 H107 0.930 . S
C125 N122 1.321 1_545 S
C125 C123 1.401 . S
C126 H121 0.930 . S
C126 C123 1.383 1_565 S
C126 C127 1.395 . S
C127 C124 1.411 . S
C127 C126 1.395 . S
C127 C149 1.420 . S
O128 Eu84 2.558 . S
O128 C148 1.257 . S
O129 Eu84 2.612 1_556 S
O129 Eu95 2.380 1_545 S
O129 C140 1.276 . S
O130 Eu95 2.432 . S
O130 C147 1.258 1_565 S
O131 Eu84 2.339 1_556 S
O131 C147 1.252 . S
O132 Eu84 2.563 . S
O132 C140 1.235 1_554 S
O133 Eu84 2.419 . S
O133 C148 1.249 . S
O134 Eu95 2.558 . S
O134 C159 1.257 . S
O135 Eu84 2.380 1_565 S
O135 Eu95 2.612 1_554 S
O135 C151 1.276 . S
O136 Eu84 2.432 . S
O136 C158 1.265 1_545 S
O137 Eu95 2.339 1_554 S
O137 C158 1.254 . S
O138 Eu95 2.563 . S
O138 C151 1.235 1_556 S
O139 Eu95 2.419 . S
O139 C159 1.249 . S
C140 O129 1.276 . S
C140 O132 1.235 1_556 S
C141 C143 1.393 . S
C141 C145 1.395 . S
C141 C148 1.492 . S
C142 C143 1.392 . S
C142 C144 1.386 . S
C143 C141 1.393 . S
C143 C142 1.392 . S
C143 H160 0.930 1_554 S
C144 C142 1.386 . S
C144 C146 1.395 . S
C144 H161 0.930 . S
C145 C141 1.395 . S
C145 C146 1.379 . S
C145 H162 0.930 . S
C146 C144 1.395 . S
C146 C145 1.379 . S
C146 H163 0.930 . S
C147 O130 1.258 1_545 S
C147 O131 1.252 . S
C148 Eu84 2.848 . S
C148 O128 1.257 . S
C148 O133 1.249 . S
C148 C141 1.492 . S
C149 H114 0.931 . S
C149 C127 1.420 . S
C149 C150 1.351 . S
C150 H112 0.930 . S
C150 C118 1.423 . S
C150 C149 1.351 . S
C151 O135 1.276 . S
C151 O138 1.235 1_554 S
C152 C153 1.393 . S
C152 C156 1.395 . S
C152 C159 1.492 . S
C153 C152 1.393 . S
C153 C154 1.392 . S
C153 H164 0.930 1_556 S
C154 C153 1.392 . S
C154 C155 1.386 . S
C155 C154 1.386 . S
C155 C157 1.395 . S
C155 H165 0.930 . S
C156 C152 1.395 . S
C156 C157 1.379 . S
C156 H166 0.930 . S
C157 C155 1.395 . S
C157 C156 1.379 . S
C157 H167 0.930 . S
C158 O136 1.265 1_565 S
C158 O137 1.254 . S
C159 Eu95 2.848 . S
C159 O134 1.257 . S
C159 O139 1.249 . S
C159 C152 1.492 . S
H160 C143 0.930 1_556 S
H161 C144 0.930 . S
H162 C145 0.930 . S
H163 C146 0.930 . S
H164 C153 0.930 1_554 S
H165 C155 0.930 . S
H166 C156 0.930 . S
H167 C157 0.930 . S
Eu168 N199 2.657 . S
Eu168 N206 2.609 . S
Eu168 O212 2.558 . S
Eu168 O213 2.612 1_556 S
Eu168 O215 2.339 1_556 S
Eu168 O216 2.563 . S
Eu168 O217 2.419 . S
Eu168 O219 2.380 . S
Eu168 O220 2.432 . S
Eu168 C232 2.848 . S
C169 C172 1.429 . S
C169 C173 1.411 . S
C169 N176 1.377 . S
C170 C172 1.420 . S
C170 C174 1.423 . S
C170 C182 1.392 1_554 S
C171 C173 1.420 . S
C171 C174 1.351 . S
C171 H194 0.931 . S
C172 C169 1.429 . S
C172 C170 1.420 . S
C172 N180 1.362 . S
C173 C169 1.411 . S
C173 C171 1.420 . S
C173 C178 1.395 . S
C174 C170 1.423 . S
C174 C171 1.351 . S
C174 H186 0.930 . S
C175 C177 1.400 . S
C175 C178 1.386 . S
C175 H187 0.930 . S
N176 C169 1.377 . S
N176 C177 1.321 . S
N176 Eu179 2.609 . S
C177 C175 1.400 . S
C177 N176 1.321 . S
C177 H184 0.930 . S
C178 C173 1.395 . S
C178 C175 1.386 . S
C178 H197 0.930 . S
Eu179 N176 2.609 . S
Eu179 N180 2.657 . S
Eu179 O213 2.380 . S
Eu179 O214 2.432 . S
Eu179 O218 2.558 . S
Eu179 O219 2.612 1_554 S
Eu179 O221 2.339 1_554 S
Eu179 O222 2.563 . S
Eu179 O223 2.419 . S
Eu179 C243 2.848 . S
N180 C172 1.362 . S
N180 Eu179 2.657 . S
N180 C181 1.334 1_554 S
C181 N180 1.334 1_556 S
C181 C183 1.413 . S
C181 H188 0.929 . S
C182 C170 1.392 1_556 S
C182 C183 1.367 . S
C182 H190 0.930 . S
C183 C181 1.413 . S
C183 C182 1.367 . S
C183 H185 0.930 . S
H184 C177 0.930 . S
H185 C183 0.930 . S
H186 C174 0.930 . S
H187 C175 0.930 . S
H188 C181 0.929 . S
H189 C203 0.930 . S
H190 C182 0.930 . S
H191 C209 0.930 . S
H192 C200 0.929 . S
H193 C207 0.930 . S
H194 C171 0.931 . S
H195 C201 0.930 . S
H196 C234 0.930 . S
H197 C178 0.930 . S
H198 C233 0.931 . S
N199 Eu168 2.657 . S
N199 C200 1.334 1_556 S
N199 C204 1.362 . S
C200 H192 0.929 . S
C200 N199 1.334 1_554 S
C200 C203 1.413 . S
C201 H195 0.930 . S
C201 C202 1.392 1_554 S
C201 C203 1.367 . S
C202 C201 1.392 1_556 S
C202 C204 1.420 . S
C202 C234 1.423 . S
C203 H189 0.930 . S
C203 C200 1.413 . S
C203 C201 1.367 . S
C204 N199 1.362 . S
C204 C202 1.420 . S
C204 C208 1.429 . S
H205 C210 0.930 . S
N206 Eu168 2.609 . S
N206 C208 1.377 . S
N206 C209 1.321 . S
C207 H193 0.930 . S
C207 C209 1.400 . S
C207 C210 1.386 . S
C208 C204 1.429 . S
C208 N206 1.377 . S
C208 C211 1.411 . S
C209 H191 0.930 . S
C209 N206 1.321 . S
C209 C207 1.400 . S
C210 H205 0.930 . S
C210 C207 1.386 . S
C210 C211 1.395 . S
C211 C208 1.411 . S
C211 C210 1.395 . S
C211 C233 1.420 . S
O212 Eu168 2.558 . S
O212 C232 1.257 . S
O213 Eu168 2.612 1_554 S
O213 Eu179 2.380 . S
O213 C224 1.276 . S
O214 Eu179 2.432 . S
O214 C231 1.264 . S
O215 Eu168 2.339 1_554 S
O215 C231 1.254 . S
O216 Eu168 2.563 . S
O216 C224 1.235 1_556 S
O217 Eu168 2.419 . S
O217 C232 1.249 . S
O218 Eu179 2.558 . S
O218 C243 1.257 . S
O219 Eu168 2.380 . S
O219 Eu179 2.612 1_556 S
O219 C235 1.276 . S
O220 Eu168 2.432 . S
O220 C242 1.264 . S
O221 Eu179 2.339 1_556 S
O221 C242 1.254 . S
O222 Eu179 2.563 . S
O222 C235 1.235 1_554 S
O223 Eu179 2.419 . S
O223 C243 1.249 . S
C224 O213 1.276 . S
C224 O216 1.235 1_554 S
C225 C227 1.393 . S
C225 C229 1.395 . S
C225 C232 1.492 . S
C226 C227 1.392 . S
C226 C228 1.386 . S
C227 C225 1.393 . S
C227 C226 1.392 . S
C227 H244 0.930 1_556 S
C228 C226 1.386 . S
C228 C230 1.395 . S
C228 H245 0.930 . S
C229 C225 1.395 . S
C229 C230 1.379 . S
C229 H246 0.930 . S
C230 C228 1.395 . S
C230 C229 1.379 . S
C230 H247 0.930 . S
C231 O214 1.264 . S
C231 O215 1.254 . S
C232 Eu168 2.848 . S
C232 O212 1.257 . S
C232 O217 1.249 . S
C232 C225 1.492 . S
C233 H198 0.931 . S
C233 C211 1.420 . S
C233 C234 1.351 . S
C234 H196 0.930 . S
C234 C202 1.423 . S
C234 C233 1.351 . S
C235 O219 1.276 . S
C235 O222 1.235 1_556 S
C236 C237 1.393 . S
C236 C240 1.395 . S
C236 C243 1.492 . S
C237 C236 1.393 . S
C237 C238 1.392 . S
C237 H248 0.930 1_554 S
C238 C237 1.392 . S
C238 C239 1.386 . S
C239 C238 1.386 . S
C239 C241 1.395 . S
C239 H249 0.930 . S
C240 C236 1.395 . S
C240 C241 1.379 . S
C240 H250 0.930 . S
C241 C239 1.395 . S
C241 C240 1.379 . S
C241 H251 0.930 . S
C242 O220 1.264 . S
C242 O221 1.254 . S
C243 Eu179 2.848 . S
C243 O218 1.257 . S
C243 O223 1.249 . S
C243 C236 1.492 . S
H244 C227 0.930 1_554 S
H245 C228 0.930 . S
H246 C229 0.930 . S
H247 C230 0.930 . S
H248 C237 0.930 1_556 S
H249 C239 0.930 . S
H250 C240 0.930 . S
H251 C241 0.930 . S
H252 C253 0.951 . S
C253 H252 0.951 . S
C253 C259 1.265 1_455 S
H254 C259 0.950 . S
H255 C263 0.949 . S
H256 C264 0.950 . S
H257 C265 0.951 . S
H258 C266 0.951 . S
C259 C253 1.265 1_655 S
C259 H254 0.950 . S
C259 C260 1.478 . S
C260 C259 1.478 . S
C260 C261 1.397 . S
C260 C277 1.410 . S
C261 C260 1.397 . S
C261 C262 1.438 1_655 S
C261 C266 1.429 . S
C262 C261 1.438 1_455 S
C262 C263 1.428 . S
C262 C275 1.394 . S
C263 H255 0.949 . S
C263 C262 1.428 . S
C263 C264 1.345 . S
C264 H256 0.950 . S
C264 C263 1.345 . S
C264 C265 1.424 1_455 S
C265 H257 0.951 . S
C265 C264 1.424 1_655 S
C265 C266 1.347 . S
C266 H258 0.951 . S
C266 C261 1.429 . S
C266 C265 1.347 . S
H267 C268 0.976 . S
C268 H267 0.976 . S
C268 C274 1.259 1_655 S
H269 C274 0.950 . S
H270 C278 0.949 . S
H271 C279 0.950 . S
H272 C280 0.951 . S
H273 C281 0.951 . S
C274 C268 1.259 1_455 S
C274 H269 0.950 . S
C274 C275 1.478 . S
C275 C262 1.394 . S
C275 C274 1.478 . S
C275 C276 1.397 . S
C276 C275 1.397 . S
C276 C277 1.418 1_455 S
C276 C281 1.429 . S
C277 C260 1.410 . S
C277 C276 1.418 1_655 S
C277 C278 1.433 . S
C278 H270 0.949 . S
C278 C277 1.433 . S
C278 C279 1.345 1_655 S
C279 H271 0.950 . S
C279 C278 1.345 1_455 S
C279 C280 1.424 . S
C280 H272 0.951 . S
C280 C279 1.424 . S
C280 C281 1.347 . S
C281 H273 0.951 . S
C281 C276 1.429 . S
C281 C280 1.347 . S
H282 C283 0.951 . S
C283 H282 0.951 . S
C283 C289 1.265 1_565 S
H284 C289 0.950 . S
H285 C293 0.949 . S
H286 C294 0.950 . S
H287 C295 0.951 . S
H288 C296 0.951 . S
C289 C283 1.265 1_545 S
C289 H284 0.950 . S
C289 C290 1.478 . S
C290 C289 1.478 . S
C290 C291 1.397 . S
C290 C307 1.394 1_545 S
C291 C290 1.397 . S
C291 C292 1.438 . S
C291 C296 1.429 . S
C292 C291 1.438 . S
C292 C293 1.428 . S
C292 C305 1.394 1_545 S
C293 H285 0.949 . S
C293 C292 1.428 . S
C293 C294 1.345 . S
C294 H286 0.950 . S
C294 C293 1.345 . S
C294 C295 1.424 . S
C295 H287 0.951 . S
C295 C294 1.424 . S
C295 C296 1.347 . S
C296 H288 0.951 . S
C296 C291 1.429 . S
C296 C295 1.347 . S
H297 C298 0.951 . S
C298 H297 0.951 . S
C298 C304 1.265 1_545 S
H299 C304 0.950 . S
H300 C308 0.949 . S
H301 C309 0.950 . S
H302 C310 0.951 . S
H303 C311 0.951 . S
C304 C298 1.265 1_565 S
C304 H299 0.950 . S
C304 C305 1.478 . S
C305 C292 1.394 1_565 S
C305 C304 1.478 . S
C305 C306 1.397 . S
C306 C305 1.397 . S
C306 C307 1.438 . S
C306 C311 1.429 . S
C307 C290 1.394 1_565 S
C307 C306 1.438 . S
C307 C308 1.428 . S
C308 H300 0.949 . S
C308 C307 1.428 . S
C308 C309 1.345 . S
C309 H301 0.950 . S
C309 C308 1.345 . S
C309 C310 1.424 . S
C310 H302 0.951 . S
C310 C309 1.424 . S
C310 C311 1.347 . S
C311 H303 0.951 . S
C311 C306 1.429 . S
C311 C310 1.347 . S
H312 C313 0.951 . S
C313 H312 0.951 . S
C313 C319 1.265 . S
H314 C319 0.950 . S
H315 C323 0.949 . S
H316 C324 0.950 . S
H317 C325 0.951 . S
H318 C326 0.951 . S
C319 C313 1.265 . S
C319 H314 0.950 . S
C319 C320 1.478 . S
C320 C319 1.478 . S
C320 C321 1.397 . S
C320 C337 1.394 . S
C321 C320 1.397 . S
C321 C322 1.438 . S
C321 C326 1.429 . S
C322 C321 1.438 . S
C322 C323 1.428 . S
C322 C335 1.394 . S
C323 H315 0.949 . S
C323 C322 1.428 . S
C323 C324 1.345 . S
C324 H316 0.950 . S
C324 C323 1.345 . S
C324 C325 1.424 . S
C325 H317 0.951 . S
C325 C324 1.424 . S
C325 C326 1.347 . S
C326 H318 0.951 . S
C326 C321 1.429 . S
C326 C325 1.347 . S
H327 C328 0.951 . S
C328 H327 0.951 . S
C328 C334 1.265 . S
H329 C334 0.950 . S
H330 C338 0.949 . S
H331 C339 0.950 . S
H332 C340 0.951 . S
H333 C341 0.951 . S
C334 C328 1.265 . S
C334 H329 0.950 . S
C334 C335 1.478 . S
C335 C322 1.394 . S
C335 C334 1.478 . S
C335 C336 1.397 . S
C336 C335 1.397 . S
C336 C337 1.438 . S
C336 C341 1.429 . S
C337 C320 1.394 . S
C337 C336 1.438 . S
C337 C338 1.428 . S
C338 H330 0.949 . S
C338 C337 1.428 . S
C338 C339 1.345 . S
C339 H331 0.950 . S
C339 C338 1.345 . S
C339 C340 1.424 . S
C340 H332 0.951 . S
C340 C339 1.424 . S
C340 C341 1.347 . S
C341 H333 0.951 . S
C341 C336 1.429 . S
C341 C340 1.347 . S
H342 C343 0.951 1_556 S
C343 H342 0.951 1_554 S
C343 C349 1.265 . S
H344 C349 0.950 . S
H345 C353 0.949 . S
H346 C354 0.950 . S
H347 C355 0.951 . S
H348 C356 0.951 . S
C349 C343 1.265 . S
C349 H344 0.950 . S
C349 C350 1.478 . S
C350 C349 1.478 . S
C350 C351 1.397 1_554 S
C350 C367 1.394 . S
C351 C350 1.397 1_556 S
C351 C352 1.438 . S
C351 C356 1.429 . S
C352 C351 1.438 . S
C352 C353 1.428 . S
C352 C365 1.394 . S
C353 H345 0.949 . S
C353 C352 1.428 . S
C353 C354 1.345 . S
C354 H346 0.950 . S
C354 C353 1.345 . S
C354 C355 1.424 . S
C355 H347 0.951 . S
C355 C354 1.424 . S
C355 C356 1.347 . S
C356 H348 0.951 . S
C356 C351 1.429 . S
C356 C355 1.347 . S
H357 C358 0.951 . S
C358 H357 0.951 . S
C358 C364 1.265 1_554 S
H359 C364 0.950 . S
H360 C368 0.949 . S
H361 C369 0.950 . S
H362 C370 0.951 . S
H363 C371 0.951 . S
C364 C358 1.265 1_556 S
C364 H359 0.950 . S
C364 C365 1.479 . S
C365 C352 1.394 . S
C365 C364 1.479 . S
C365 C366 1.396 1_556 S
C366 C365 1.396 1_554 S
C366 C367 1.438 . S
C366 C371 1.429 . S
C367 C350 1.394 . S
C367 C366 1.438 . S
C367 C368 1.428 . S
C368 H360 0.949 . S
C368 C367 1.428 . S
C368 C369 1.345 . S
C369 H361 0.950 . S
C369 C368 1.345 . S
C369 C370 1.424 . S
C370 H362 0.951 . S
C370 C369 1.424 . S
C370 C371 1.347 . S
C371 H363 0.951 . S
C371 C366 1.429 . S
C371 C370 1.347 . S
H372 C373 0.951 . S
C373 H372 0.951 . S
C373 C379 1.265 . S
H374 C379 0.950 . S
H375 C383 0.949 . S
H376 C384 0.950 . S
H377 C385 0.951 . S
H378 C386 0.951 . S
C379 C373 1.265 . S
C379 H374 0.950 . S
C379 C380 1.478 . S
C380 C379 1.478 . S
C380 C381 1.397 . S
C380 C397 1.394 1_554 S
C381 C380 1.397 . S
C381 C382 1.438 . S
C381 C386 1.429 . S
C382 C381 1.438 . S
C382 C383 1.428 . S
C382 C395 1.394 . S
C383 H375 0.949 . S
C383 C382 1.428 . S
C383 C384 1.345 . S
C384 H376 0.950 . S
C384 C383 1.345 . S
C384 C385 1.424 . S
C385 H377 0.951 . S
C385 C384 1.424 . S
C385 C386 1.347 . S
C386 H378 0.951 . S
C386 C381 1.429 . S
C386 C385 1.347 . S
H387 C388 0.951 . S
C388 H387 0.951 . S
C388 C394 1.265 . S
H389 C394 0.950 . S
H390 C398 0.949 . S
H391 C399 0.950 . S
H392 C400 0.951 . S
H393 C401 0.951 . S
C394 C388 1.265 . S
C394 H389 0.950 . S
C394 C395 1.478 . S
C395 C382 1.394 . S
C395 C394 1.478 . S
C395 C396 1.397 1_554 S
C396 C395 1.397 1_556 S
C396 C397 1.438 . S
C396 C401 1.429 . S
C397 C380 1.394 1_556 S
C397 C396 1.438 . S
C397 C398 1.428 . S
C398 H390 0.949 . S
C398 C397 1.428 . S
C398 C399 1.345 . S
C399 H391 0.950 . S
C399 C398 1.345 . S
C399 C400 1.424 . S
C400 H392 0.951 . S
C400 C399 1.424 . S
C400 C401 1.347 . S
C401 H393 0.951 . S
C401 C396 1.429 . S
C401 C400 1.347 . S
H402 C403 0.951 . S
C403 H402 0.951 . S
C403 C409 1.265 . S
H404 C409 0.950 . S
H405 C413 0.949 . S
H406 C414 0.950 . S
H407 C415 0.951 . S
H408 C416 0.951 . S
C409 C403 1.265 . S
C409 H404 0.950 . S
C409 C410 1.478 . S
C410 C409 1.478 . S
C410 C411 1.397 . S
C410 C427 1.394 1_554 S
C411 C410 1.397 . S
C411 C412 1.438 . S
C411 C416 1.429 . S
C412 C411 1.438 . S
C412 C413 1.428 . S
C412 C425 1.394 . S
C413 H405 0.949 . S
C413 C412 1.428 . S
C413 C414 1.345 . S
C414 H406 0.950 . S
C414 C413 1.345 . S
C414 C415 1.424 . S
C415 H407 0.951 . S
C415 C414 1.424 . S
C415 C416 1.347 . S
C416 H408 0.951 . S
C416 C411 1.429 . S
C416 C415 1.347 . S
H417 C418 0.951 . S
C418 H417 0.951 . S
C418 C424 1.265 . S
H419 C424 0.950 1_556 S
H420 C428 0.949 . S
H421 C429 0.950 . S
H422 C430 0.951 . S
H423 C431 0.951 . S
C424 C418 1.265 . S
C424 H419 0.950 1_554 S
C424 C425 1.478 . S
C425 C412 1.394 . S
C425 C424 1.478 . S
C425 C426 1.397 1_554 S
C426 C425 1.397 1_556 S
C426 C427 1.438 . S
C426 C431 1.429 . S
C427 C410 1.394 1_556 S
C427 C426 1.438 . S
C427 C428 1.428 . S
C428 H420 0.949 . S
C428 C427 1.428 . S
C428 C429 1.345 . S
C429 H421 0.950 . S
C429 C428 1.345 . S
C429 C430 1.424 . S
C430 H422 0.951 . S
C430 C429 1.424 . S
C430 C431 1.347 . S
C431 H423 0.951 . S
C431 C426 1.429 . S
C431 C430 1.347 . S
H432 C433 0.951 . S
C433 H432 0.951 . S
C433 C439 1.265 1_556 S
H434 C439 0.950 . S
H435 C443 0.949 . S
H436 C444 0.950 . S
H437 C445 0.951 . S
H438 C446 0.951 . S
C439 C433 1.265 1_554 S
C439 H434 0.950 . S
C439 C440 1.478 . S
C440 C439 1.478 . S
C440 C441 1.397 . S
C440 C457 1.394 1_554 S
C441 C440 1.397 . S
C441 C442 1.438 . S
C441 C446 1.429 . S
C442 C441 1.438 . S
C442 C443 1.428 . S
C442 C455 1.394 1_554 S
C443 H435 0.949 . S
C443 C442 1.428 . S
C443 C444 1.345 . S
C444 H436 0.950 . S
C444 C443 1.345 . S
C444 C445 1.424 . S
C445 H437 0.951 . S
C445 C444 1.424 . S
C445 C446 1.347 . S
C446 H438 0.951 . S
C446 C441 1.429 . S
C446 C445 1.347 . S
H447 C448 0.951 . S
C448 H447 0.951 . S
C448 C454 1.265 1_554 S
H449 C454 0.950 . S
H450 C458 0.949 . S
H451 C459 0.950 . S
H452 C460 0.951 . S
H453 C461 0.951 . S
C454 C448 1.265 1_556 S
C454 H449 0.950 . S
C454 C455 1.478 . S
C455 C442 1.394 1_556 S
C455 C454 1.478 . S
C455 C456 1.397 . S
C456 C455 1.397 . S
C456 C457 1.438 . S
C456 C461 1.429 . S
C457 C440 1.394 1_556 S
C457 C456 1.438 . S
C457 C458 1.428 . S
C458 H450 0.949 . S
C458 C457 1.428 . S
C458 C459 1.345 . S
C459 H451 0.950 . S
C459 C458 1.345 . S
C459 C460 1.424 . S
C460 H452 0.951 . S
C460 C459 1.424 . S
C460 C461 1.347 . S
C461 H453 0.951 . S
C461 C456 1.429 . S
C461 C460 1.347 . S
H462 C463 0.951 . S
C463 H462 0.951 . S
C463 C469 1.265 1_556 S
H464 C469 0.950 . S
H465 C473 0.949 . S
H466 C474 0.950 . S
H467 C475 0.951 . S
H468 C476 0.951 . S
C469 C463 1.265 1_554 S
C469 H464 0.950 . S
C469 C470 1.478 1_554 S
C470 C469 1.478 1_556 S
C470 C471 1.397 1_556 S
C470 C487 1.394 . S
C471 C470 1.397 1_554 S
C471 C472 1.438 . S
C471 C476 1.429 . S
C472 C471 1.438 . S
C472 C473 1.428 . S
C472 C485 1.394 1_554 S
C473 H465 0.949 . S
C473 C472 1.428 . S
C473 C474 1.345 . S
C474 H466 0.950 . S
C474 C473 1.345 . S
C474 C475 1.424 . S
C475 H467 0.951 . S
C475 C474 1.424 . S
C475 C476 1.347 . S
C476 H468 0.951 . S
C476 C471 1.429 . S
C476 C475 1.347 . S
H477 C478 0.951 1_554 S
C478 H477 0.951 1_556 S
C478 C484 1.265 . S
H479 C484 0.950 . S
H480 C488 0.949 . S
H481 C489 0.950 . S
H482 C490 0.951 . S
H483 C491 0.951 . S
C484 C478 1.265 . S
C484 H479 0.950 . S
C484 C485 1.478 . S
C485 C472 1.394 1_556 S
C485 C484 1.478 . S
C485 C486 1.397 . S
C486 C485 1.397 . S
C486 C487 1.438 . S
C486 C491 1.429 . S
C487 C470 1.394 . S
C487 C486 1.438 . S
C487 C488 1.428 . S
C488 H480 0.949 . S
C488 C487 1.428 . S
C488 C489 1.345 . S
C489 H481 0.950 . S
C489 C488 1.345 . S
C489 C490 1.424 . S
C490 H482 0.951 . S
C490 C489 1.424 . S
C490 C491 1.347 . S
C491 H483 0.951 . S
C491 C486 1.429 . S
C491 C490 1.347 . S
H492 C493 0.951 . S
C493 H492 0.951 . S
C493 C499 1.265 . S
H494 C499 0.950 . S
H495 C503 0.949 . S
H496 C504 0.950 . S
H497 C505 0.951 . S
H498 C506 0.951 . S
C499 C493 1.265 . S
C499 H494 0.950 . S
C499 C500 1.478 . S
C500 C499 1.478 . S
C500 C501 1.397 1_556 S
C500 C517 1.394 . S
C501 C500 1.397 1_554 S
C501 C502 1.438 . S
C501 C506 1.429 . S
C502 C501 1.438 . S
C502 C503 1.428 . S
C502 C515 1.394 1_554 S
C503 H495 0.949 . S
C503 C502 1.428 . S
C503 C504 1.345 . S
C504 H496 0.950 . S
C504 C503 1.345 . S
C504 C505 1.424 . S
C505 H497 0.951 . S
C505 C504 1.424 . S
C505 C506 1.347 . S
C506 H498 0.951 . S
C506 C501 1.429 . S
C506 C505 1.347 . S
H507 C508 0.951 . S
C508 H507 0.951 . S
C508 C514 1.265 . S
H509 C514 0.950 . S
H510 C518 0.949 . S
H511 C519 0.950 . S
H512 C520 0.951 . S
H513 C521 0.951 . S
C514 C508 1.265 . S
C514 H509 0.950 . S
C514 C515 1.478 . S
C515 C502 1.394 1_556 S
C515 C514 1.478 . S
C515 C516 1.397 . S
C516 C515 1.397 . S
C516 C517 1.438 . S
C516 C521 1.429 . S
C517 C500 1.394 . S
C517 C516 1.438 . S
C517 C518 1.428 . S
C518 H510 0.949 . S
C518 C517 1.428 . S
C518 C519 1.345 . S
C519 H511 0.950 . S
C519 C518 1.345 . S
C519 C520 1.424 . S
C520 H512 0.951 . S
C520 C519 1.424 . S
C520 C521 1.347 . S
C521 H513 0.951 . S
C521 C516 1.429 . S
C521 C520 1.347 . S
C253 C74 1.504 1_455 S
C268 C63 1.487 1_655 S
C283 C158 1.503 . S
C298 C147 1.511 . S
C313 C242 1.442 . S
C328 C231 1.442 . S
C343 C67 1.503 . S
C358 C226 1.455 1_554 S
C373 C142 0.753 . S
C388 C58 0.861 1_554 S
C403 C151 2.269 . S
C418 C224 2.371 . S
C433 C56 1.611 . S
C448 C238 1.482 . S
C463 C70 0.916 1_556 S
C478 C154 0.895 . S
C493 C235 2.370 . S
C508 C140 2.270 . S
