# Generated by pormake.
# Topology umy, (4)-cn, num edge types: 1
# Building blocks:
#     Node 0, Type 0, BuildingBlock: NAHDIM_clean_sbu_0, # of connection points: 4
#     Node 1, Type 0, BuildingBlock: NAHDIM_clean_sbu_0, # of connection points: 4
#     Node 2, Type 0, BuildingBlock: NAHDIM_clean_sbu_0, # of connection points: 4
#     Node 3, Type 0, BuildingBlock: NAHDIM_clean_sbu_0, # of connection points: 4
#     Node 4, Type 0, BuildingBlock: NAHDIM_clean_sbu_0, # of connection points: 4
#     Node 5, Type 0, BuildingBlock: NAHDIM_clean_sbu_0, # of connection points: 4
#     Node 6, Type 0, BuildingBlock: NAHDIM_clean_sbu_0, # of connection points: 4
#     Node 7, Type 0, BuildingBlock: NAHDIM_clean_sbu_0, # of connection points: 4
#     Node 8, Type 0, BuildingBlock: NAHDIM_clean_sbu_0, # of connection points: 4
#     Node 9, Type 0, BuildingBlock: NAHDIM_clean_sbu_0, # of connection points: 4
#     Node 10, Type 0, BuildingBlock: NAHDIM_clean_sbu_0, # of connection points: 4
#     Node 11, Type 0, BuildingBlock: NAHDIM_clean_sbu_0, # of connection points: 4
#     Edge 12, Type (0, 0), BuildingBlock: EZIPEK_clean_linker_0, # of connection points: 2
#     Edge 13, Type (0, 0), BuildingBlock: EZIPEK_clean_linker_0, # of connection points: 2
#     Edge 14, Type (0, 0), BuildingBlock: EZIPEK_clean_linker_0, # of connection points: 2
#     Edge 15, Type (0, 0), BuildingBlock: EZIPEK_clean_linker_0, # of connection points: 2
#     Edge 16, Type (0, 0), BuildingBlock: EZIPEK_clean_linker_0, # of connection points: 2
#     Edge 17, Type (0, 0), BuildingBlock: EZIPEK_clean_linker_0, # of connection points: 2
#     Edge 18, Type (0, 0), BuildingBlock: EZIPEK_clean_linker_0, # of connection points: 2
#     Edge 19, Type (0, 0), BuildingBlock: EZIPEK_clean_linker_0, # of connection points: 2
#     Edge 20, Type (0, 0), BuildingBlock: EZIPEK_clean_linker_0, # of connection points: 2
#     Edge 21, Type (0, 0), BuildingBlock: EZIPEK_clean_linker_0, # of connection points: 2
#     Edge 22, Type (0, 0), BuildingBlock: EZIPEK_clean_linker_0, # of connection points: 2
#     Edge 23, Type (0, 0), BuildingBlock: EZIPEK_clean_linker_0, # of connection points: 2
#     Edge 24, Type (0, 0), BuildingBlock: EZIPEK_clean_linker_0, # of connection points: 2
#     Edge 25, Type (0, 0), BuildingBlock: EZIPEK_clean_linker_0, # of connection points: 2
#     Edge 26, Type (0, 0), BuildingBlock: EZIPEK_clean_linker_0, # of connection points: 2
#     Edge 27, Type (0, 0), BuildingBlock: EZIPEK_clean_linker_0, # of connection points: 2
#     Edge 28, Type (0, 0), BuildingBlock: EZIPEK_clean_linker_0, # of connection points: 2
#     Edge 29, Type (0, 0), BuildingBlock: EZIPEK_clean_linker_0, # of connection points: 2
#     Edge 30, Type (0, 0), BuildingBlock: EZIPEK_clean_linker_0, # of connection points: 2
#     Edge 31, Type (0, 0), BuildingBlock: EZIPEK_clean_linker_0, # of connection points: 2
#     Edge 32, Type (0, 0), BuildingBlock: EZIPEK_clean_linker_0, # of connection points: 2
#     Edge 33, Type (0, 0), BuildingBlock: EZIPEK_clean_linker_0, # of connection points: 2
#     Edge 34, Type (0, 0), BuildingBlock: EZIPEK_clean_linker_0, # of connection points: 2
#     Edge 35, Type (0, 0), BuildingBlock: EZIPEK_clean_linker_0, # of connection points: 2
# Relax obj value: 0.157
# Max RMSD: 0.142
# Mean RMSD: 0.142
data_MOF--net-umy--node1-NAHDIM_clean_sbu_0--edge1-EZIPEK_clean_linker_0
_symmetry_space_group_name_H-M    P1
_symmetry_Int_Tables_number       1
_symmetry_cell_setting            triclinic
loop_
_symmetry_equiv_pos_as_xyz
'x, y, z'
_cell_length_a     28.662411
_cell_length_b     28.622745
_cell_length_c     35.464541
_cell_angle_alpha  90.174361
_cell_angle_beta   89.915866
_cell_angle_gamma 120.01731
loop_
_atom_site_label
_atom_site_type_symbol
_atom_site_fract_x
_atom_site_fract_y
_atom_site_fract_z
_atom_type_partial_charge
C0 C -0.00326 0.39892 0.09978 0.0
O1 O 0.95707 0.35085 0.09057 0.0
O2 O 0.97342 0.28111 0.15237 0.0
Zn3 Zn 0.04377 0.33921 0.13081 0.0
O4 O 0.06787 0.31301 0.08626 0.0
C5 C 0.10625 0.32436 0.18574 0.0
O6 O 0.08333 0.27681 0.16938 0.0
O7 O 0.03778 0.40357 0.11677 0.0
C8 C 0.11441 0.34497 0.07315 0.0
O9 O 0.14296 0.39339 0.08789 0.0
C10 C 0.9556 0.23093 0.14772 0.0
O11 O 0.98106 0.21465 0.12519 0.0
O12 O 0.09818 0.36092 0.1726 0.0
C13 C 0.58314 0.99146 0.28418 0.0
O14 O 0.58583 0.94744 0.28907 0.0
O15 O 0.69503 0.9808 0.31808 0.0
Zn16 Zn 0.6989 0.04863 0.29778 0.0
O17 O 0.74584 0.08029 0.25173 0.0
C18 C 0.77314 0.10744 0.35551 0.0
O19 O 0.78986 0.0739 0.34595 0.0
O20 O 0.62537 0.03744 0.28685 0.0
C21 C 0.78843 0.07805 0.24625 0.0
O22 O 0.8012 0.0509 0.26967 0.0
C23 C 0.69602 0.94204 0.30132 0.0
O24 O 0.69957 0.94157 0.26442 0.0
O25 O 0.73236 0.10431 0.33901 0.0
C26 C 0.58446 0.59679 0.43223 0.0
O27 O 0.62959 0.61165 0.4139 0.0
O28 O 0.70903 0.69034 0.47498 0.0
Zn29 Zn 0.64666 0.70194 0.46331 0.0
O30 O 0.65882 0.74519 0.41571 0.0
C31 C 0.66824 0.76377 0.53236 0.0
O32 O 0.7149 0.76582 0.52988 0.0
O33 O 0.5816 0.62911 0.45547 0.0
C34 C 0.68354 0.79642 0.41657 0.0
O35 O 0.70491 0.8218 0.44832 0.0
C36 C 0.75831 0.72343 0.46797 0.0
O37 O 0.77048 0.77015 0.45329 0.0
O38 O 0.63232 0.73826 0.50751 0.0
C39 C 0.97797 0.6 0.59312 0.0
O40 O 0.00239 0.64401 0.57266 0.0
O41 O 0.00617 0.72194 0.64768 0.0
Zn42 Zn 0.93643 0.66017 0.62889 0.0
O43 O 0.91036 0.67539 0.58035 0.0
C44 C 0.88332 0.6804 0.68922 0.0
O45 O 0.92244 0.72988 0.68311 0.0
O46 O 0.94711 0.5971 0.61986 0.0
C47 C 0.89289 0.70819 0.57791 0.0
O48 O 0.89526 0.73732 0.60726 0.0
C49 C 0.04357 0.76056 0.62936 0.0
O50 O 0.03909 0.76471 0.59284 0.0
O51 O 0.88039 0.64197 0.66937 0.0
C52 C 0.37839 0.97375 0.74544 0.0
O53 O 0.36017 -0.00037 0.72527 0.0
O54 O 0.30376 0.02094 0.80947 0.0
Zn55 Zn 0.28557 0.94797 0.78987 0.0
O56 O 0.23418 0.92528 0.7461 0.0
C57 C 0.20877 0.89594 0.84695 0.0
O58 O 0.19138 0.9265 0.83236 0.0
O59 O 0.3531 0.94829 0.77474 0.0
C60 C 0.21666 0.87802 0.7331 0.0
O61 O 0.23408 0.84734 0.74753 0.0
C62 C 0.28387 0.04901 0.79756 0.0
O63 O 0.25085 0.03246 0.76862 0.0
O64 O 0.24987 0.8966 0.8329 0.0
C65 C 0.39169 0.3822 0.91922 0.0
O66 O 0.3482 0.36071 0.89813 0.0
O67 O 0.27341 0.29618 0.98325 0.0
Zn68 Zn 0.33165 0.28532 0.96134 0.0
O69 O 0.30632 0.23633 0.91615 0.0
C70 C 0.3144 0.20708 0.01488 0.0
O71 O 0.26607 0.18706 0.00023 0.0
O72 O 0.39411 0.35702 0.94785 0.0
C73 C 0.33657 0.21842 0.90496 0.0
O74 O 0.38276 0.23433 0.92206 0.0
C75 C 0.23504 0.2971 0.96614 0.0
O76 O 0.22955 0.28959 0.9295 0.0
O77 O 0.35261 0.25121 0.00234 0.0
C78 C 0.57253 0.97264 0.70379 0.0
O79 O 0.58854 0.9784 0.66854 0.0
O80 O 0.71829 0.02594 0.68947 0.0
Zn81 Zn 0.66195 0.95696 0.71352 0.0
O82 O 0.69151 0.93646 0.75774 0.0
C83 C 0.67342 0.89026 0.6591 0.0
O84 O 0.72341 0.91779 0.67093 0.0
O85 O 0.59827 0.96357 0.72909 0.0
C86 C 0.66154 0.88949 0.77092 0.0
O87 O 0.613 0.85925 0.75694 0.0
C88 C 0.76845 0.04254 0.69172 0.0
O89 O 0.78558 0.01686 0.71316 0.0
O90 O 0.6378 0.89837 0.67408 0.0
C91 C 0.58021 0.58948 0.89396 0.0
O92 O 0.58085 0.63562 0.896 0.0
O93 O 0.68098 0.71707 0.86394 0.0
Zn94 Zn 0.69344 0.65738 0.8803 0.0
O95 O 0.73771 0.67717 0.9274 0.0
C96 C 0.73318 0.66028 0.80549 0.0
O97 O 0.69902 0.67649 0.79684 0.0
O98 O 0.62349 0.58891 0.8875 0.0
C99 C 0.75385 0.64508 0.93739 0.0
O100 O 0.73723 0.59971 0.9188 0.0
C101 C 0.71237 0.7663 0.87206 0.0
O102 O 0.75332 0.7801 0.89487 0.0
O103 O 0.73624 0.64747 0.8393 0.0
C104 C -0.00294 0.59673 0.06824 0.0
O105 O 0.96448 0.60997 0.08511 0.0
O106 O 0.9657 0.68817 0.01621 0.0
Zn107 Zn 0.03692 0.7001 0.03439 0.0
O108 O 0.061 0.74638 0.08091 0.0
C109 C 0.09279 0.78056 0.9797 0.0
O110 O 0.06427 0.79956 0.99561 0.0
O111 O 0.03184 0.62908 0.04498 0.0
C112 C 0.10785 0.7607 0.09324 0.0
O113 O 0.13696 0.74323 0.07621 0.0
C114 C 0.92908 0.68899 0.03587 0.0
O115 O 0.93576 0.69851 0.07228 0.0
O116 O 0.08974 0.73766 0.99237 0.0
C117 C 0.39048 -0.00305 0.24659 0.0
O118 O 0.34875 0.98016 0.26914 0.0
O119 O 0.2672 0.96135 0.18566 0.0
Zn120 Zn 0.32988 0.03115 0.20349 0.0
O121 O 0.3147 0.06366 0.24895 0.0
C122 C 0.31153 0.08102 0.14085 0.0
O123 O 0.26173 0.04414 0.14859 0.0
O124 O 0.39159 0.01989 0.21575 0.0
C125 C 0.27413 0.07018 0.25106 0.0
O126 O 0.23706 0.05027 0.22472 0.0
C127 C 0.23012 0.92209 0.2037 0.0
O128 O 0.22807 0.92348 0.24065 0.0
O129 O 0.34993 0.0843 0.16075 0.0
C130 C 0.39307 0.39046 0.40699 0.0
O131 O 0.38895 0.34414 0.41624 0.0
O132 O 0.29764 0.26455 0.36366 0.0
Zn133 Zn 0.28415 0.32452 0.37901 0.0
O134 O 0.23404 0.30355 0.42371 0.0
C135 C 0.20355 0.32161 0.32689 0.0
O136 O 0.16853 0.29162 0.35265 0.0
O137 O 0.35376 0.39136 0.39131 0.0
C138 C 0.21853 0.3361 0.43413 0.0
O139 O 0.2366 0.38207 0.4162 0.0
C140 C 0.25839 0.22231 0.34955 0.0
O141 O 0.2099 0.21632 0.35047 0.0
O142 O 0.2536 0.34107 0.33283 0.0
C143 C -0.00466 0.41102 0.56287 0.0
O144 O 0.0388 0.40801 0.56956 0.0
O145 O 0.01868 0.30685 0.52389 0.0
Zn146 Zn 0.94873 0.29851 0.54301 0.0
O147 O 0.92201 0.25469 0.59033 0.0
C148 C 0.90587 0.26249 0.46858 0.0
O149 O 0.95413 0.3003 0.45815 0.0
O150 O 0.95297 0.36986 0.55084 0.0
C151 C 0.91637 0.20783 0.58991 0.0
O152 O 0.93386 0.19265 0.56078 0.0
C153 C 0.0576 0.3083 0.54192 0.0
O154 O 0.05594 0.30452 0.57885 0.0
O155 O 0.89351 0.25613 0.50333 0.0
C156 C 0.98372 0.50735 0.04698 0.0
C157 C -0.00606 0.5447 0.07661 0.0
C158 C -0.00342 0.48183 0.12199 0.0
C159 C -0.00678 0.44769 0.09175 0.0
N160 N -0.00807 0.43171 0.02477 0.0
N161 N 0.019 0.5718 0.1414 0.0
C162 C 0.98879 0.46127 0.05401 0.0
C163 C 0.00259 0.53308 0.11395 0.0
N164 N 0.96749 0.515 0.01244 0.0
N165 N -0.00772 0.46456 0.1584 0.0
H166 H 0.02469 0.61023 0.13664 0.0
H167 H 0.03176 0.56753 0.168 0.0
H168 H 0.98667 0.42673 0.16546 0.0
H169 H 0.98889 0.48545 0.18137 0.0
H170 H 0.95408 0.48624 0.99098 0.0
H171 H 0.96244 0.54784 0.00637 0.0
H172 H -0.00501 0.44334 0.99666 0.0
H173 H -0.00365 0.39803 0.02866 0.0
C174 C 0.5117 0.01339 0.30125 0.0
C175 C 0.53101 0.98817 0.2762 0.0
C176 C 0.45249 0.9605 0.23544 0.0
C177 C 0.43727 0.99181 0.25784 0.0
N178 N 0.45632 0.05456 0.30913 0.0
N179 N 0.52393 0.94336 0.2169 0.0
C180 C 0.4677 0.01979 0.29013 0.0
C181 C 0.50234 0.96282 0.2427 0.0
N182 N 0.53449 0.02988 0.33614 0.0
N183 N 0.41863 0.9275 0.20787 0.0
H184 H 0.56056 0.9446 0.22095 0.0
H185 H 0.50781 0.93005 0.19011 0.0
H186 H 0.38157 0.9245 0.20198 0.0
H187 H 0.42488 0.89948 0.19326 0.0
H188 H 0.51857 0.04346 0.35706 0.0
H189 H 0.56626 0.02499 0.34554 0.0
H190 H 0.48099 0.08062 0.33019 0.0
H191 H 0.42479 0.06099 0.30171 0.0
C192 C 0.51393 0.52889 0.38898 0.0
C193 C 0.53692 0.54297 0.42554 0.0
C194 C 0.46441 0.45752 0.45048 0.0
C195 C 0.44392 0.4417 0.41338 0.0
N196 N 0.45583 0.45704 0.34627 0.0
N197 N 0.54093 0.51662 0.48949 0.0
C198 C 0.47063 0.47587 0.38228 0.0
C199 C 0.51416 0.50609 0.45588 0.0
N200 N 0.53174 0.5668 0.36105 0.0
N201 N 0.43524 0.42756 0.48071 0.0
H202 H 0.57788 0.55145 0.49437 0.0
H203 H 0.52912 0.48862 0.51127 0.0
H204 H 0.39824 0.39207 0.47804 0.0
H205 H 0.44535 0.44035 0.50854 0.0
H206 H 0.51242 0.56039 0.33511 0.0
H207 H 0.56282 0.60643 0.3649 0.0
H208 H 0.47748 0.47825 0.32256 0.0
H209 H 0.42508 0.41795 0.34015 0.0
C210 C 0.97038 0.52803 0.54888 0.0
C211 C 0.98549 0.5536 0.58467 0.0
C212 C 0.00592 0.4848 0.6067 0.0
C213 C -0.00517 0.4617 0.57002 0.0
N214 N 0.97809 0.46821 0.50411 0.0
N215 N 0.02876 0.56372 0.64484 0.0
C216 C 0.98048 0.48537 0.54045 0.0
C217 C 0.0066 0.53419 0.61278 0.0
N218 N 0.94407 0.54266 0.52357 0.0
N219 N 0.01305 0.45832 0.63618 0.0
H220 H 0.03071 0.60055 0.65007 0.0
H221 H 0.04985 0.55438 0.66447 0.0
H222 H 0.01168 0.42141 0.63325 0.0
H223 H 0.01532 0.47043 0.66416 0.0
H224 H 0.92686 0.52133 0.49879 0.0
H225 H 0.93496 0.57308 0.52883 0.0
H226 H 0.97322 0.48767 0.48095 0.0
H227 H 0.98634 0.43777 0.49669 0.0
C228 C 0.52678 0.0197 0.7316 0.0
C229 C 0.52294 0.97352 0.7137 0.0
C230 C 0.42438 0.92673 0.71797 0.0
C231 C 0.42808 0.97396 0.73403 0.0
N232 N 0.48113 0.06724 0.75281 0.0
N233 N 0.46947 0.88541 0.68572 0.0
C234 C 0.47886 0.02108 0.7398 0.0
C235 C 0.47207 0.92771 0.70561 0.0
N236 N 0.57628 0.06178 0.74135 0.0
N237 N 0.37527 0.88066 0.7152 0.0
H238 H 0.5035 0.88347 0.67777 0.0
H239 H 0.43391 0.85363 0.67499 0.0
H240 H 0.33922 0.87898 0.72246 0.0
H241 H 0.37015 0.84314 0.7079 0.0
H242 H 0.58194 0.09399 0.75824 0.0
H243 H 0.6123 0.06315 0.73433 0.0
H244 H 0.51626 0.10465 0.75367 0.0
H245 H 0.44707 0.06907 0.76086 0.0
C246 C 0.46673 0.44638 0.87711 0.0
C247 C 0.43693 0.43666 0.91097 0.0
C248 C 0.50121 0.52724 0.93389 0.0
C249 C 0.52938 0.53806 0.89918 0.0
N250 N 0.53275 0.51283 0.83468 0.0
N251 N 0.4179 0.47124 0.96749 0.0
C252 C 0.51029 0.49904 0.86982 0.0
C253 C 0.45179 0.47817 0.93815 0.0
N254 N 0.455 0.40486 0.8527 0.0
N255 N 0.5229 0.56246 0.96345 0.0
H256 H 0.38084 0.43608 0.97117 0.0
H257 H 0.42399 0.50213 0.98598 0.0
H258 H 0.55948 0.59858 0.96177 0.0
H259 H 0.50707 0.5537 0.99063 0.0
H260 H 0.47931 0.40815 0.82984 0.0
H261 H 0.4232 0.36573 0.8569 0.0
H262 H 0.51697 0.4878 0.81119 0.0
H263 H 0.56422 0.55133 0.82811 0.0
C264 C 0.15704 0.35938 0.00938 0.0
C265 C 0.13769 0.32766 0.04254 0.0
C266 C 0.16814 0.26726 0.01824 0.0
C267 C 0.19557 0.30415 0.98868 0.0
N268 N 0.22023 0.38812 0.95736 0.0
N269 N 0.13081 0.25467 0.08088 0.0
C270 C 0.19064 0.35071 0.98421 0.0
C271 C 0.14418 0.28199 0.04746 0.0
N272 N 0.14238 0.39702 0.00162 0.0
N273 N 0.16451 0.21778 0.01806 0.0
H274 H 0.11414 0.26452 0.10347 0.0
H275 H 0.14078 0.22529 0.08747 0.0
H276 H 0.18052 0.20534 0.99639 0.0
H277 H 0.14086 0.18724 0.03702 0.0
H278 H 0.151 0.41777 0.97616 0.0
H279 H 0.11692 0.40362 0.01912 0.0
H280 H 0.22313 0.42582 0.95578 0.0
H281 H 0.24515 0.38321 0.93826 0.0
C282 C 0.8757 0.16257 0.23604 0.0
C283 C 0.82994 0.1172 0.22044 0.0
C284 C 0.86372 0.14928 0.15664 0.0
C285 C 0.91195 0.19164 0.17247 0.0
N286 N 0.96828 0.23174 0.22734 0.0
N287 N 0.78185 0.06331 0.16654 0.0
C288 C 0.91912 0.19653 0.2122 0.0
C289 C 0.82423 0.1094 0.18086 0.0
N290 N 0.8771 0.17433 0.27357 0.0
N291 N 0.85489 0.14831 0.11871 0.0
H292 H 0.75185 0.03392 0.18356 0.0
H293 H 0.77836 0.05233 0.13823 0.0
H294 H 0.88282 0.17702 0.10025 0.0
H295 H 0.81835 0.12179 0.10589 0.0
H296 H 0.90649 0.21043 0.28556 0.0
H297 H 0.84617 0.15047 0.2922 0.0
H298 H 0.97741 0.23242 0.25583 0.0
H299 H 0.0017 0.25673 0.21105 0.0
C300 C 0.73863 0.86891 0.37003 0.0
C301 C 0.68727 0.82782 0.3824 0.0
C302 C 0.64443 0.85202 0.3322 0.0
C303 C 0.69465 0.89847 0.32443 0.0
N304 N 0.78995 0.95297 0.33626 0.0
N305 N 0.59011 0.78345 0.37787 0.0
C306 C 0.74198 0.90725 0.34326 0.0
C307 C 0.63975 0.81953 0.36382 0.0
N308 N 0.78416 0.8703 0.38307 0.0
N309 N 0.6012 0.83926 0.30948 0.0
H310 H 0.58448 0.75985 0.40161 0.0
H311 H 0.55441 0.78024 0.36802 0.0
H312 H 0.60365 0.86241 0.2861 0.0
H313 H 0.56472 0.80318 0.31152 0.0
H314 H 0.82252 0.89606 0.37243 0.0
H315 H 0.78306 0.84195 0.40196 0.0
H316 H 0.82434 0.96536 0.35262 0.0
H317 H 0.79457 0.98005 0.31508 0.0
C318 C 0.78528 0.66381 0.50217 0.0
C319 C 0.80079 0.71408 0.48501 0.0
C320 C 0.88489 0.75591 0.5212 0.0
C321 C 0.86388 0.70864 0.54362 0.0
N322 N 0.79282 0.61741 0.55654 0.0
N323 N 0.87719 0.79654 0.46328 0.0
C324 C 0.81428 0.66203 0.53394 0.0
C325 C 0.85432 0.75715 0.49 0.0
N326 N 0.74453 0.6176 0.48673 0.0
N327 N 0.93339 0.7999 0.53028 0.0
H328 H 0.85842 0.7937 0.43753 0.0
H329 H 0.91718 0.82748 0.46393 0.0
H330 H 0.95824 0.79925 0.5515 0.0
H331 H 0.94785 0.83772 0.5181 0.0
H332 H 0.73404 0.57909 0.49605 0.0
H333 H 0.72624 0.61781 0.46134 0.0
H334 H 0.75383 0.58504 0.55325 0.0
H335 H 0.812 0.61434 0.58057 0.0
C336 C 0.08501 0.8298 0.67987 0.0
C337 C 0.09183 0.80045 0.65028 0.0
C338 C 0.18558 0.83564 0.66947 0.0
C339 C 0.1754 0.8564 0.70293 0.0
N340 N 0.1128 0.868 0.74221 0.0
N341 N 0.14747 0.77204 0.61774 0.0
C342 C 0.12465 0.85283 0.70859 0.0
C343 C 0.14206 0.80297 0.6449 0.0
N344 N 0.04072 0.83596 0.68024 0.0
N345 N 0.23701 0.84809 0.66086 0.0
H346 H 0.11678 0.74806 0.59888 0.0
H347 H 0.18111 0.76728 0.61556 0.0
H348 H 0.26993 0.87315 0.67781 0.0
H349 H 0.24772 0.83826 0.63521 0.0
H350 H 0.03572 0.8609 0.69928 0.0
H351 H 0.01184 0.82067 0.65885 0.0
H352 H 0.07433 0.86042 0.74924 0.0
H353 H 0.13994 0.88376 0.76454 0.0
C354 C 0.25426 0.09044 0.84708 0.0
C355 C 0.29304 0.0965 0.81981 0.0
C356 C 0.35445 0.18773 0.84312 0.0
C357 C 0.31935 0.17813 0.87411 0.0
N358 N 0.23897 0.11653 0.90865 0.0
N359 N 0.38118 0.14915 0.79228 0.0
C360 C 0.26966 0.12877 0.87672 0.0
C361 C 0.34344 0.14481 0.81781 0.0
N362 N 0.20287 0.04776 0.84493 0.0
N363 N 0.39739 0.23825 0.83731 0.0
H364 H 0.37335 0.11955 0.77205 0.0
H365 H 0.421 0.18059 0.79248 0.0
H366 H 0.40589 0.2709 0.85482 0.0
H367 H 0.42149 0.24903 0.81329 0.0
H368 H 0.17152 0.04415 0.86187 0.0
H369 H 0.19021 0.01868 0.8237 0.0
H370 H 0.20581 0.07856 0.91381 0.0
H371 H 0.24934 0.14231 0.93177 0.0
C372 C 0.74081 0.83281 0.81964 0.0
C373 C 0.70667 0.80749 0.85099 0.0
C374 C 0.65248 0.84886 0.83462 0.0
C375 C 0.68148 0.86723 0.80032 0.0
N376 N 0.75092 0.87359 0.75832 0.0
N377 N 0.62948 0.78948 0.88865 0.0
C378 C 0.72574 0.85935 0.79259 0.0
C379 C 0.66255 0.81533 0.85876 0.0
N380 N 0.78707 0.83054 0.81529 0.0
N381 N 0.61623 0.8646 0.84441 0.0
H382 H 0.63752 0.7671 0.90809 0.0
H383 H 0.59286 0.78796 0.89321 0.0
H384 H 0.60874 0.88995 0.82754 0.0
H385 H 0.59727 0.85678 0.87056 0.0
H386 H 0.81665 0.85326 0.79549 0.0
H387 H 0.79826 0.80924 0.83338 0.0
H388 H 0.77835 0.86231 0.74903 0.0
H389 H 0.74168 0.89342 0.73769 0.0
C390 C 0.84706 0.70802 0.96147 0.0
C391 C 0.79589 0.66108 0.96661 0.0
C392 C 0.83019 0.63529 0.02128 0.0
C393 C 0.8808 0.68278 0.01645 0.0
N394 N 0.93284 0.77141 0.98961 0.0
N395 N 0.73484 0.58714 0.00612 0.0
C396 C 0.88762 0.72151 0.98903 0.0
C397 C 0.78621 0.62693 0.9981 0.0
N398 N 0.85836 0.73773 0.92915 0.0
N399 N 0.82488 0.59702 0.0466 0.0
H400 H 0.70173 0.58047 0.98987 0.0
H401 H 0.7244 0.56419 0.03065 0.0
H402 H 0.85594 0.60225 0.06454 0.0
H403 H 0.79088 0.55876 0.0482 0.0
H404 H 0.89691 0.76854 0.92219 0.0
H405 H 0.83062 0.72874 0.90747 0.0
H406 H 0.93789 0.80313 0.97249 0.0
H407 H 0.96273 0.78271 0.01008 0.0
C408 C 0.15842 0.88601 0.15489 0.0
C409 C 0.18877 0.87594 0.18176 0.0
C410 C 0.15259 0.78453 0.15657 0.0
C411 C 0.13082 0.79851 0.1255 0.0
N412 N 0.11866 0.86579 0.09276 0.0
N413 N 0.21781 0.81671 0.20743 0.0
C414 C 0.13445 0.84984 0.12422 0.0
C415 C 0.18614 0.82518 0.18283 0.0
N416 N 0.15242 0.93021 0.15889 0.0
N417 N 0.14036 0.73224 0.1613 0.0
H418 H 0.24231 0.84518 0.22746 0.0
H419 H 0.2225 0.78292 0.20632 0.0
H420 H 0.11503 0.7013 0.14297 0.0
H421 H 0.15088 0.71864 0.18527 0.0
H422 H 0.12674 0.93719 0.1421 0.0
H423 H 0.16871 0.95673 0.18166 0.0
H424 H 0.12626 0.90504 0.08884 0.0
H425 H 0.1025 0.8416 0.06894 0.0
C426 C 0.23723 0.09004 0.30926 0.0
C427 C 0.27404 0.10884 0.27872 0.0
C428 C 0.30277 0.20255 0.29547 0.0
C429 C 0.26775 0.18391 0.32721 0.0
N430 N 0.20992 0.11124 0.36874 0.0
N431 N 0.34881 0.18249 0.24632 0.0
C432 C 0.23732 0.12794 0.33538 0.0
C433 C 0.3093 0.16493 0.27318 0.0
N434 N 0.20172 0.03604 0.31297 0.0
N435 N 0.3269 0.25552 0.28481 0.0
H436 H 0.3531 0.15686 0.22751 0.0
H437 H 0.37996 0.22235 0.24439 0.0
H438 H 0.32342 0.28502 0.29969 0.0
H439 H 0.3467 0.26971 0.25917 0.0
H440 H 0.16971 0.02017 0.33194 0.0
H441 H 0.20229 0.00702 0.29539 0.0
H442 H 0.19114 0.0715 0.37813 0.0
H443 H 0.21013 0.13808 0.38881 0.0
C444 C 0.19485 0.36202 0.49565 0.0
C445 C 0.18086 0.32337 0.46631 0.0
C446 C 0.09226 0.26759 0.49544 0.0
C447 C 0.10286 0.31072 0.5202 0.0
N448 N 0.16333 0.4003 0.54356 0.0
N449 N 0.11468 0.23944 0.4372 0.0
C450 C 0.15419 0.35808 0.52064 0.0
C451 C 0.12945 0.27566 0.4662 0.0
N452 N 0.24734 0.40169 0.50015 0.0
N453 N 0.04684 0.21854 0.50035 0.0
H454 H 0.14062 0.24225 0.4157 0.0
H455 H 0.07535 0.20814 0.43304 0.0
H456 H 0.01933 0.21127 0.52195 0.0
H457 H 0.03926 0.18384 0.48572 0.0
H458 H 0.26098 0.42807 0.52305 0.0
H459 H 0.27835 0.40463 0.48303 0.0
H460 H 0.19764 0.43831 0.54177 0.0
H461 H 0.13496 0.39842 0.56286 0.0
C462 C 0.89103 0.17052 0.65556 0.0
C463 C 0.8786 0.1668 0.61661 0.0
C464 C 0.79681 0.07997 0.62662 0.0
C465 C 0.80643 0.08568 0.66611 0.0
N466 N 0.85784 0.14051 0.71896 0.0
N467 N 0.81315 0.12522 0.56664 0.0
C468 C 0.85232 0.1321 0.68087 0.0
C469 C 0.82961 0.12362 0.60257 0.0
N470 N 0.9403 0.20978 0.66816 0.0
N471 N 0.75803 0.03203 0.6117 0.0
H472 H 0.83504 0.15737 0.54833 0.0
H473 H 0.77509 0.09748 0.55637 0.0
H474 H 0.73381 -0.0018 0.62796 0.0
H475 H 0.75361 0.02405 0.58284 0.0
H476 H 0.95403 0.21111 0.69553 0.0
H477 H 0.96927 0.23882 0.65038 0.0
H478 H 0.88745 0.17617 0.73126 0.0
H479 H 0.82991 0.11367 0.7383 0.0
C480 C 0.19726 0.31128 0.25633 0.0
C481 C 0.18421 0.32925 0.29 0.0
C482 C 0.12177 0.34786 0.25495 0.0
C483 C 0.13723 0.33276 0.22093 0.0
N484 N 0.19982 0.31409 0.18809 0.0
N485 N 0.14466 0.37695 0.31988 0.0
C486 C 0.17836 0.31905 0.22129 0.0
C487 C 0.14982 0.3515 0.28881 0.0
N488 N 0.22464 0.28362 0.25786 0.0
N489 N 0.07832 0.35544 0.25566 0.0
H490 H 0.16513 0.38089 0.34505 0.0
H491 H 0.12446 0.39873 0.31948 0.0
H492 H 0.05579 0.35268 0.2319 0.0
H493 H 0.06158 0.35989 0.28055 0.0
H494 H 0.23012 0.26464 0.23454 0.0
H495 H 0.23724 0.27489 0.28303 0.0
H496 H 0.2334 0.30912 0.18675 0.0
H497 H 0.18762 0.32067 0.16189 0.0
C498 C 0.85055 0.16729 0.44546 0.0
C499 C 0.86874 0.223 0.44055 0.0
C500 C 0.8236 0.20358 0.37914 0.0
C501 C 0.80168 0.14747 0.38577 0.0
N502 N 0.78275 0.07591 0.42973 0.0
N503 N 0.86379 0.29319 0.40649 0.0
C504 C 0.81151 0.12934 0.42039 0.0
C505 C 0.85258 0.2409 0.4085 0.0
N506 N 0.87294 0.15067 0.47249 0.0
N507 N 0.81939 0.2216 0.34436 0.0
H508 H 0.88451 0.3215 0.42765 0.0
H509 H 0.84821 0.30709 0.38563 0.0
H510 H 0.79903 0.19597 0.32186 0.0
H511 H 0.84005 0.2622 0.33685 0.0
H512 H 0.86466 0.11095 0.47476 0.0
H513 H 0.90429 0.17738 0.48991 0.0
H514 H 0.78482 0.06143 0.45624 0.0
H515 H 0.7525 0.04699 0.41254 0.0
C516 C 0.6665 0.80569 0.63332 0.0
C517 C 0.65997 0.85117 0.6279 0.0
C518 C 0.64902 0.83372 0.5598 0.0
C519 C 0.65758 0.78939 0.56511 0.0
N520 N 0.66002 0.72436 0.60673 0.0
N521 N 0.63357 0.90218 0.58801 0.0
C522 C 0.66188 0.77268 0.60191 0.0
C523 C 0.64701 0.86282 0.5918 0.0
N524 N 0.67804 0.79472 0.66849 0.0
N525 N 0.64624 0.85016 0.52413 0.0
H526 H 0.63422 0.92627 0.6103 0.0
H527 H 0.61788 0.90857 0.56338 0.0
H528 H 0.64531 0.82889 0.50004 0.0
H529 H 0.64766 0.88639 0.51805 0.0
H530 H 0.69032 0.76674 0.67375 0.0
H531 H 0.67725 0.81529 0.6926 0.0
H532 H 0.65815 0.70723 0.63293 0.0
H533 H 0.65533 0.69873 0.58427 0.0
C534 C 0.86335 0.69062 0.75633 0.0
C535 C 0.84401 0.6702 0.71968 0.0
C536 C 0.75127 0.63448 0.74174 0.0
C537 C 0.77121 0.6617 0.77661 0.0
N538 N 0.84732 0.72519 0.81412 0.0
N539 N 0.76975 0.6303 0.6756 0.0
C540 C 0.82757 0.69219 0.78326 0.0
C541 C 0.78795 0.64383 0.71182 0.0
N542 N 0.91562 0.7073 0.76577 0.0
N543 N 0.69751 0.59861 0.7375 0.0
H544 H 0.7952 0.63762 0.65262 0.0
H545 H 0.72987 0.6164 0.66787 0.0
H546 H 0.66956 0.58986 0.75907 0.0
H547 H 0.68155 0.57367 0.71397 0.0
H548 H 0.9303 0.71762 0.79321 0.0
H549 H 0.94275 0.70526 0.74714 0.0
H550 H 0.8882 0.7524 0.81805 0.0
H551 H 0.82289 0.72978 0.83382 0.0
C552 C 0.14667 0.80879 0.87905 0.0
C553 C 0.18332 0.86499 0.88153 0.0
C554 C 0.16781 0.86286 0.94964 0.0
C555 C 0.12639 0.80819 0.94637 0.0
N556 N 0.07102 0.73054 0.9073 0.0
N557 N 0.22651 0.94732 0.91795 0.0
C558 C 0.11471 0.78122 0.91098 0.0
C559 C 0.19331 0.89257 0.91651 0.0
N560 N 0.14216 0.78191 0.8461 0.0
N561 N 0.184 0.88574 0.98457 0.0
H562 H 0.24823 0.97018 0.89472 0.0
H563 H 0.23013 0.97064 0.94155 0.0
H564 H 0.16692 0.86474 0.00948 0.0
H565 H 0.21751 0.92368 0.98913 0.0
H566 H 0.12059 0.74003 0.84367 0.0
H567 H 0.16346 0.80121 0.82173 0.0
H568 H 0.05679 0.71127 0.88145 0.0
H569 H 0.0459 0.70915 0.92974 0.0
C570 C 0.30121 0.15612 0.11512 0.0
C571 C 0.32149 0.1203 0.11065 0.0
C572 C 0.34898 0.15185 0.04585 0.0
C573 C 0.32192 0.18179 0.04876 0.0
N574 N 0.27179 0.21312 0.08529 0.0
N575 N 0.36269 0.08136 0.07209 0.0
C576 C 0.29819 0.18442 0.08327 0.0
C577 C 0.34571 0.11803 0.07629 0.0
N578 N 0.28608 0.1639 0.15012 0.0
N579 N 0.37726 0.15539 0.01386 0.0
H580 H 0.36171 0.05658 0.09394 0.0
H581 H 0.37477 0.07299 0.04648 0.0
H582 H 0.37878 0.17823 0.99055 0.0
H583 H 0.40239 0.13903 0.01131 0.0
H584 H 0.27595 0.19331 0.15623 0.0
H585 H 0.28812 0.14392 0.17406 0.0
H586 H 0.24767 0.21105 0.10792 0.0
H587 H 0.27187 0.23742 0.06339 0.0
loop_
_geom_bond_atom_site_label_1
_geom_bond_atom_site_label_2
_geom_bond_distance
_geom_bond_site_symmetry_2
_ccdc_geom_bond_type
C0 O1 1.148 1_455 S
C0 O7 1.185 . S
O1 C0 1.148 1_655 S
O2 Zn3 1.899 1_655 S
O2 C10 1.284 . S
Zn3 O2 1.899 1_455 S
Zn3 O4 2.032 . S
Zn3 O7 2.086 . S
Zn3 O12 1.977 . S
O4 Zn3 2.032 . S
O4 C8 1.278 . S
C5 O6 1.203 . S
C5 O12 1.267 . S
O6 C5 1.203 . S
O7 C0 1.185 . S
O7 Zn3 2.086 . S
C8 O4 1.278 . S
C8 O9 1.211 . S
O9 C8 1.211 . S
C10 O2 1.284 . S
C10 O11 1.273 . S
O11 C10 1.273 . S
O12 Zn3 1.977 . S
O12 C5 1.267 . S
C13 O14 1.139 1_545 S
C13 O20 1.185 . S
O14 C13 1.139 1_565 S
O15 Zn16 1.899 1_565 S
O15 C23 1.284 . S
Zn16 O15 1.899 1_545 S
Zn16 O17 2.032 . S
Zn16 O20 2.086 . S
Zn16 O25 1.977 . S
O17 Zn16 2.032 . S
O17 C21 1.278 . S
C18 O19 1.203 . S
C18 O25 1.267 . S
O19 C18 1.203 . S
O20 C13 1.185 . S
O20 Zn16 2.086 . S
C21 O17 1.278 . S
C21 O22 1.211 . S
O22 C21 1.211 . S
C23 O15 1.284 . S
C23 O24 1.273 . S
O24 C23 1.273 . S
O25 Zn16 1.977 . S
O25 C18 1.267 . S
C26 O27 1.160 . S
C26 O33 1.185 . S
O27 C26 1.160 . S
O28 Zn29 1.899 . S
O28 C36 1.284 . S
Zn29 O28 1.899 . S
Zn29 O30 2.032 . S
Zn29 O33 2.086 . S
Zn29 O38 1.977 . S
O30 Zn29 2.032 . S
O30 C34 1.278 . S
C31 O32 1.203 . S
C31 O38 1.267 . S
O32 C31 1.203 . S
O33 C26 1.185 . S
O33 Zn29 2.086 . S
C34 O30 1.278 . S
C34 O35 1.211 . S
O35 C34 1.211 . S
C36 O28 1.284 . S
C36 O37 1.273 . S
O37 C36 1.273 . S
O38 Zn29 1.977 . S
O38 C31 1.267 . S
C39 O40 1.148 1_655 S
C39 O46 1.185 . S
O40 C39 1.148 1_455 S
O41 Zn42 1.899 1_455 S
O41 C49 1.284 . S
Zn42 O41 1.899 1_655 S
Zn42 O43 2.032 . S
Zn42 O46 2.086 . S
Zn42 O51 1.977 . S
O43 Zn42 2.032 . S
O43 C47 1.278 . S
C44 O45 1.203 . S
C44 O51 1.267 . S
O45 C44 1.203 . S
O46 C39 1.185 . S
O46 Zn42 2.086 . S
C47 O43 1.278 . S
C47 O48 1.211 . S
O48 C47 1.211 . S
C49 O41 1.284 . S
C49 O50 1.273 . S
O50 C49 1.273 . S
O51 Zn42 1.977 . S
O51 C44 1.267 . S
C52 O53 1.139 1_565 S
C52 O59 1.185 . S
O53 C52 1.139 1_545 S
O54 Zn55 1.899 1_545 S
O54 C62 1.284 . S
Zn55 O54 1.899 1_565 S
Zn55 O56 2.032 . S
Zn55 O59 2.086 . S
Zn55 O64 1.977 . S
O56 Zn55 2.032 . S
O56 C60 1.278 . S
C57 O58 1.203 . S
C57 O64 1.267 . S
O58 C57 1.203 . S
O59 C52 1.185 . S
O59 Zn55 2.086 . S
C60 O56 1.278 . S
C60 O61 1.211 . S
O61 C60 1.211 . S
C62 O54 1.284 . S
C62 O63 1.273 . S
O63 C62 1.273 . S
O64 Zn55 1.977 . S
O64 C57 1.267 . S
C65 O66 1.160 . S
C65 O72 1.185 . S
O66 C65 1.160 . S
O67 Zn68 1.899 . S
O67 C75 1.284 . S
Zn68 O67 1.899 . S
Zn68 O69 2.032 . S
Zn68 O72 2.086 . S
Zn68 O77 1.977 . S
O69 Zn68 2.032 . S
O69 C73 1.278 . S
C70 O71 1.203 . S
C70 O77 1.267 1_554 S
O71 C70 1.203 . S
O72 C65 1.185 . S
O72 Zn68 2.086 . S
C73 O69 1.278 . S
C73 O74 1.211 . S
O74 C73 1.211 . S
C75 O67 1.284 . S
C75 O76 1.273 . S
O76 C75 1.273 . S
O77 Zn68 1.977 . S
O77 C70 1.267 1_556 S
C78 O79 1.148 1_565 S
C78 O85 1.185 . S
O79 C78 1.148 1_545 S
O80 Zn81 1.899 1_545 S
O80 C88 1.284 . S
Zn81 O80 1.899 1_565 S
Zn81 O82 2.032 . S
Zn81 O85 2.086 . S
Zn81 O90 1.977 . S
O82 Zn81 2.032 . S
O82 C86 1.278 . S
C83 O84 1.203 . S
C83 O90 1.267 . S
O84 C83 1.203 . S
O85 C78 1.185 . S
O85 Zn81 2.086 . S
C86 O82 1.278 . S
C86 O87 1.211 . S
O87 C86 1.211 . S
C88 O80 1.284 . S
C88 O89 1.273 . S
O89 C88 1.273 . S
O90 Zn81 1.977 . S
O90 C83 1.267 . S
C91 O92 1.160 . S
C91 O98 1.185 . S
O92 C91 1.160 . S
O93 Zn94 1.899 . S
O93 C101 1.284 . S
Zn94 O93 1.899 . S
Zn94 O95 2.032 . S
Zn94 O98 2.086 . S
Zn94 O103 1.977 . S
O95 Zn94 2.032 . S
O95 C99 1.278 . S
C96 O97 1.203 . S
C96 O103 1.267 . S
O97 C96 1.203 . S
O98 C91 1.185 . S
O98 Zn94 2.086 . S
C99 O95 1.278 . S
C99 O100 1.211 . S
O100 C99 1.211 . S
C101 O93 1.284 . S
C101 O102 1.273 . S
O102 C101 1.273 . S
O103 Zn94 1.977 . S
O103 C96 1.267 . S
C104 O105 1.139 1_455 S
C104 O111 1.185 . S
O105 C104 1.139 1_655 S
O106 Zn107 1.899 1_655 S
O106 C114 1.284 . S
Zn107 O106 1.899 1_455 S
Zn107 O108 2.032 . S
Zn107 O111 2.086 . S
Zn107 O116 1.977 . S
O108 Zn107 2.032 . S
O108 C112 1.278 . S
C109 O110 1.203 . S
C109 O116 1.267 1_556 S
O110 C109 1.203 . S
O111 C104 1.185 . S
O111 Zn107 2.086 . S
C112 O108 1.278 . S
C112 O113 1.211 . S
O113 C112 1.211 . S
C114 O106 1.284 . S
C114 O115 1.273 . S
O115 C114 1.273 . S
O116 Zn107 1.977 . S
O116 C109 1.267 1_554 S
C117 O118 1.148 1_545 S
C117 O124 1.185 . S
O118 C117 1.148 1_565 S
O119 Zn120 1.899 1_565 S
O119 C127 1.284 . S
Zn120 O119 1.899 1_545 S
Zn120 O121 2.032 . S
Zn120 O124 2.086 . S
Zn120 O129 1.977 . S
O121 Zn120 2.032 . S
O121 C125 1.278 . S
C122 O123 1.203 . S
C122 O129 1.267 . S
O123 C122 1.203 . S
O124 C117 1.185 . S
O124 Zn120 2.086 . S
C125 O121 1.278 . S
C125 O126 1.211 . S
O126 C125 1.211 . S
C127 O119 1.284 . S
C127 O128 1.273 . S
O128 C127 1.273 . S
O129 Zn120 1.977 . S
O129 C122 1.267 . S
C130 O131 1.160 . S
C130 O137 1.185 . S
O131 C130 1.160 . S
O132 Zn133 1.899 . S
O132 C140 1.284 . S
Zn133 O132 1.899 . S
Zn133 O134 2.032 . S
Zn133 O137 2.086 . S
Zn133 O142 1.977 . S
O134 Zn133 2.032 . S
O134 C138 1.278 . S
C135 O136 1.203 . S
C135 O142 1.267 . S
O136 C135 1.203 . S
O137 C130 1.185 . S
O137 Zn133 2.086 . S
C138 O134 1.278 . S
C138 O139 1.211 . S
O139 C138 1.211 . S
C140 O132 1.284 . S
C140 O141 1.273 . S
O141 C140 1.273 . S
O142 Zn133 1.977 . S
O142 C135 1.267 . S
C143 O144 1.139 1_655 S
C143 O150 1.185 . S
O144 C143 1.139 1_455 S
O145 Zn146 1.899 1_455 S
O145 C153 1.284 . S
Zn146 O145 1.899 1_655 S
Zn146 O147 2.032 . S
Zn146 O150 2.086 . S
Zn146 O155 1.977 . S
O147 Zn146 2.032 . S
O147 C151 1.278 . S
C148 O149 1.203 . S
C148 O155 1.267 . S
O149 C148 1.203 . S
O150 C143 1.185 . S
O150 Zn146 2.086 . S
C151 O147 1.278 . S
C151 O152 1.211 . S
O152 C151 1.211 . S
C153 O145 1.284 . S
C153 O154 1.273 . S
O154 C153 1.273 . S
O155 Zn146 1.977 . S
O155 C148 1.267 . S
C156 C157 1.363 . S
C156 C162 1.379 . S
C156 N164 1.356 . S
C157 C156 1.363 . S
C157 C163 1.363 . S
C158 C159 1.363 . S
C158 C163 1.379 . S
C158 N165 1.356 . S
C159 C158 1.363 . S
C159 C162 1.363 . S
N160 C162 1.356 . S
N160 H172 0.984 1_455 S
N160 H173 0.985 . S
N161 C163 1.356 . S
N161 H166 0.984 . S
N161 H167 0.985 . S
C162 C156 1.379 . S
C162 C159 1.363 . S
C162 N160 1.356 . S
C163 C157 1.363 . S
C163 C158 1.379 . S
C163 N161 1.356 . S
N164 C156 1.356 . S
N164 H170 0.984 1_455 S
N164 H171 0.984 . S
N165 C158 1.356 . S
N165 H168 0.984 . S
N165 H169 0.985 . S
H166 N161 0.984 . S
H167 N161 0.985 . S
H168 N165 0.984 . S
H169 N165 0.985 . S
H170 N164 0.984 1_655 S
H171 N164 0.984 . S
H172 N160 0.984 1_655 S
H173 N160 0.985 . S
C174 C175 1.363 . S
C174 C180 1.379 . S
C174 N182 1.356 . S
C175 C174 1.363 . S
C175 C181 1.363 . S
C176 C177 1.363 . S
C176 C181 1.379 . S
C176 N183 1.356 1_545 S
C177 C176 1.363 . S
C177 C180 1.363 . S
N178 C180 1.356 . S
N178 H190 0.984 . S
N178 H191 0.985 . S
N179 C181 1.356 1_565 S
N179 H184 0.984 . S
N179 H185 0.985 . S
C180 C174 1.379 . S
C180 C177 1.363 . S
C180 N178 1.356 . S
C181 C175 1.363 . S
C181 C176 1.379 . S
C181 N179 1.356 1_545 S
N182 C174 1.356 . S
N182 H188 0.984 . S
N182 H189 0.984 . S
N183 C176 1.356 1_565 S
N183 H186 0.984 . S
N183 H187 0.985 . S
H184 N179 0.984 . S
H185 N179 0.985 . S
H186 N183 0.984 . S
H187 N183 0.985 . S
H188 N182 0.984 . S
H189 N182 0.984 . S
H190 N178 0.984 . S
H191 N178 0.985 . S
C192 C193 1.363 . S
C192 C198 1.379 . S
C192 N200 1.356 . S
C193 C192 1.363 . S
C193 C199 1.363 . S
C194 C195 1.363 . S
C194 C199 1.379 . S
C194 N201 1.356 . S
C195 C194 1.363 . S
C195 C198 1.363 . S
N196 C198 1.356 . S
N196 H208 0.984 . S
N196 H209 0.985 . S
N197 C199 1.356 . S
N197 H202 0.984 . S
N197 H203 0.985 . S
C198 C192 1.379 . S
C198 C195 1.363 . S
C198 N196 1.356 . S
C199 C193 1.363 . S
C199 C194 1.379 . S
C199 N197 1.356 . S
N200 C192 1.356 . S
N200 H206 0.984 . S
N200 H207 0.984 . S
N201 C194 1.356 . S
N201 H204 0.984 . S
N201 H205 0.985 . S
H202 N197 0.984 . S
H203 N197 0.985 . S
H204 N201 0.984 . S
H205 N201 0.985 . S
H206 N200 0.984 . S
H207 N200 0.984 . S
H208 N196 0.984 . S
H209 N196 0.985 . S
C210 C211 1.363 . S
C210 C216 1.379 . S
C210 N218 1.356 . S
C211 C210 1.363 . S
C211 C217 1.363 . S
C212 C213 1.363 . S
C212 C217 1.379 . S
C212 N219 1.356 . S
C213 C212 1.363 . S
C213 C216 1.363 . S
N214 C216 1.356 . S
N214 H226 0.984 . S
N214 H227 0.985 . S
N215 C217 1.356 . S
N215 H220 0.984 . S
N215 H221 0.985 1_655 S
C216 C210 1.379 . S
C216 C213 1.363 . S
C216 N214 1.356 . S
C217 C211 1.363 . S
C217 C212 1.379 . S
C217 N215 1.356 . S
N218 C210 1.356 . S
N218 H224 0.984 . S
N218 H225 0.984 . S
N219 C212 1.356 . S
N219 H222 0.984 . S
N219 H223 0.985 1_655 S
H220 N215 0.984 . S
H221 N215 0.985 1_455 S
H222 N219 0.984 . S
H223 N219 0.985 1_455 S
H224 N218 0.984 . S
H225 N218 0.984 . S
H226 N214 0.984 . S
H227 N214 0.985 . S
C228 C229 1.363 . S
C228 C234 1.379 . S
C228 N236 1.356 1_565 S
C229 C228 1.363 . S
C229 C235 1.363 . S
C230 C231 1.363 . S
C230 C235 1.379 . S
C230 N237 1.356 . S
C231 C230 1.363 . S
C231 C234 1.363 . S
N232 C234 1.356 1_545 S
N232 H244 0.984 . S
N232 H245 0.985 . S
N233 C235 1.356 . S
N233 H238 0.984 . S
N233 H239 0.985 . S
C234 C228 1.379 . S
C234 C231 1.363 . S
C234 N232 1.356 1_565 S
C235 C229 1.363 . S
C235 C230 1.379 . S
C235 N233 1.356 . S
N236 C228 1.356 1_545 S
N236 H242 0.984 . S
N236 H243 0.984 . S
N237 C230 1.356 . S
N237 H240 0.984 . S
N237 H241 0.985 . S
H238 N233 0.984 . S
H239 N233 0.985 . S
H240 N237 0.984 . S
H241 N237 0.985 . S
H242 N236 0.984 . S
H243 N236 0.984 . S
H244 N232 0.984 . S
H245 N232 0.985 . S
C246 C247 1.363 . S
C246 C252 1.379 . S
C246 N254 1.356 . S
C247 C246 1.363 . S
C247 C253 1.363 . S
C248 C249 1.363 . S
C248 C253 1.379 . S
C248 N255 1.356 . S
C249 C248 1.363 . S
C249 C252 1.363 . S
N250 C252 1.356 . S
N250 H262 0.984 . S
N250 H263 0.985 . S
N251 C253 1.356 . S
N251 H256 0.984 . S
N251 H257 0.985 . S
C252 C246 1.379 . S
C252 C249 1.363 . S
C252 N250 1.356 . S
C253 C247 1.363 . S
C253 C248 1.379 . S
C253 N251 1.356 . S
N254 C246 1.356 . S
N254 H260 0.984 . S
N254 H261 0.984 . S
N255 C248 1.356 . S
N255 H258 0.984 . S
N255 H259 0.985 . S
H256 N251 0.984 . S
H257 N251 0.985 . S
H258 N255 0.984 . S
H259 N255 0.985 . S
H260 N254 0.984 . S
H261 N254 0.984 . S
H262 N250 0.984 . S
H263 N250 0.985 . S
C264 C265 1.363 . S
C264 C270 1.379 1_554 S
C264 N272 1.356 . S
C265 C264 1.363 . S
C265 C271 1.363 . S
C266 C267 1.363 1_554 S
C266 C271 1.379 . S
C266 N273 1.356 . S
C267 C266 1.363 1_556 S
C267 C270 1.363 . S
N268 C270 1.356 . S
N268 H280 0.984 . S
N268 H281 0.985 . S
N269 C271 1.356 . S
N269 H274 0.984 . S
N269 H275 0.985 . S
C270 C264 1.379 1_556 S
C270 C267 1.363 . S
C270 N268 1.356 . S
C271 C265 1.363 . S
C271 C266 1.379 . S
C271 N269 1.356 . S
N272 C264 1.356 . S
N272 H278 0.984 . S
N272 H279 0.984 . S
N273 C266 1.356 . S
N273 H276 0.984 1_554 S
N273 H277 0.985 . S
H274 N269 0.984 . S
H275 N269 0.985 . S
H276 N273 0.984 1_556 S
H277 N273 0.985 . S
H278 N272 0.984 . S
H279 N272 0.984 . S
H280 N268 0.984 . S
H281 N268 0.985 . S
C282 C283 1.363 . S
C282 C288 1.379 . S
C282 N290 1.356 . S
C283 C282 1.363 . S
C283 C289 1.363 . S
C284 C285 1.363 . S
C284 C289 1.379 . S
C284 N291 1.356 . S
C285 C284 1.363 . S
C285 C288 1.363 . S
N286 C288 1.356 . S
N286 H298 0.984 . S
N286 H299 0.985 . S
N287 C289 1.356 . S
N287 H292 0.984 . S
N287 H293 0.985 . S
C288 C282 1.379 . S
C288 C285 1.363 . S
C288 N286 1.356 . S
C289 C283 1.363 . S
C289 C284 1.379 . S
C289 N287 1.356 . S
N290 C282 1.356 . S
N290 H296 0.984 . S
N290 H297 0.984 . S
N291 C284 1.356 . S
N291 H294 0.984 . S
N291 H295 0.985 . S
H292 N287 0.984 . S
H293 N287 0.985 . S
H294 N291 0.984 . S
H295 N291 0.985 . S
H296 N290 0.984 . S
H297 N290 0.984 . S
H298 N286 0.984 . S
H299 N286 0.985 . S
C300 C301 1.363 . S
C300 C306 1.379 . S
C300 N308 1.356 . S
C301 C300 1.363 . S
C301 C307 1.363 . S
C302 C303 1.363 . S
C302 C307 1.379 . S
C302 N309 1.356 . S
C303 C302 1.363 . S
C303 C306 1.363 . S
N304 C306 1.356 . S
N304 H316 0.984 . S
N304 H317 0.985 . S
N305 C307 1.356 . S
N305 H310 0.984 . S
N305 H311 0.985 . S
C306 C300 1.379 . S
C306 C303 1.363 . S
C306 N304 1.356 . S
C307 C301 1.363 . S
C307 C302 1.379 . S
C307 N305 1.356 . S
N308 C300 1.356 . S
N308 H314 0.984 . S
N308 H315 0.984 . S
N309 C302 1.356 . S
N309 H312 0.984 . S
N309 H313 0.985 . S
H310 N305 0.984 . S
H311 N305 0.985 . S
H312 N309 0.984 . S
H313 N309 0.985 . S
H314 N308 0.984 . S
H315 N308 0.984 . S
H316 N304 0.984 . S
H317 N304 0.985 . S
C318 C319 1.363 . S
C318 C324 1.379 . S
C318 N326 1.356 . S
C319 C318 1.363 . S
C319 C325 1.363 . S
C320 C321 1.363 . S
C320 C325 1.379 . S
C320 N327 1.356 . S
C321 C320 1.363 . S
C321 C324 1.363 . S
N322 C324 1.356 . S
N322 H334 0.984 . S
N322 H335 0.985 . S
N323 C325 1.356 . S
N323 H328 0.984 . S
N323 H329 0.985 . S
C324 C318 1.379 . S
C324 C321 1.363 . S
C324 N322 1.356 . S
C325 C319 1.363 . S
C325 C320 1.379 . S
C325 N323 1.356 . S
N326 C318 1.356 . S
N326 H332 0.984 . S
N326 H333 0.984 . S
N327 C320 1.356 . S
N327 H330 0.984 . S
N327 H331 0.985 . S
H328 N323 0.984 . S
H329 N323 0.985 . S
H330 N327 0.984 . S
H331 N327 0.985 . S
H332 N326 0.984 . S
H333 N326 0.984 . S
H334 N322 0.984 . S
H335 N322 0.985 . S
C336 C337 1.363 . S
C336 C342 1.379 . S
C336 N344 1.356 . S
C337 C336 1.363 . S
C337 C343 1.363 . S
C338 C339 1.363 . S
C338 C343 1.379 . S
C338 N345 1.356 . S
C339 C338 1.363 . S
C339 C342 1.363 . S
N340 C342 1.356 . S
N340 H352 0.984 . S
N340 H353 0.985 . S
N341 C343 1.356 . S
N341 H346 0.984 . S
N341 H347 0.985 . S
C342 C336 1.379 . S
C342 C339 1.363 . S
C342 N340 1.356 . S
C343 C337 1.363 . S
C343 C338 1.379 . S
C343 N341 1.356 . S
N344 C336 1.356 . S
N344 H350 0.984 1_455 S
N344 H351 0.984 . S
N345 C338 1.356 . S
N345 H348 0.984 . S
N345 H349 0.985 . S
H346 N341 0.984 . S
H347 N341 0.985 . S
H348 N345 0.984 . S
H349 N345 0.985 . S
H350 N344 0.984 1_655 S
H351 N344 0.984 . S
H352 N340 0.984 . S
H353 N340 0.985 . S
C354 C355 1.363 . S
C354 C360 1.379 . S
C354 N362 1.356 . S
C355 C354 1.363 . S
C355 C361 1.363 . S
C356 C357 1.363 . S
C356 C361 1.379 . S
C356 N363 1.356 . S
C357 C356 1.363 . S
C357 C360 1.363 . S
N358 C360 1.356 . S
N358 H370 0.984 . S
N358 H371 0.985 . S
N359 C361 1.356 . S
N359 H364 0.984 . S
N359 H365 0.985 . S
C360 C354 1.379 . S
C360 C357 1.363 . S
C360 N358 1.356 . S
C361 C355 1.363 . S
C361 C356 1.379 . S
C361 N359 1.356 . S
N362 C354 1.356 . S
N362 H368 0.984 1_545 S
N362 H369 0.992 . S
N363 C356 1.356 . S
N363 H366 0.984 . S
N363 H367 0.985 . S
H364 N359 0.984 . S
H365 N359 0.985 . S
H366 N363 0.984 . S
H367 N363 0.985 . S
H368 N362 0.984 1_565 S
H369 N362 0.992 . S
H370 N358 0.984 . S
H371 N358 0.985 . S
C372 C373 1.363 . S
C372 C378 1.379 . S
C372 N380 1.356 . S
C373 C372 1.363 . S
C373 C379 1.363 . S
C374 C375 1.363 . S
C374 C379 1.379 . S
C374 N381 1.356 . S
C375 C374 1.363 . S
C375 C378 1.363 . S
N376 C378 1.356 . S
N376 H388 0.984 . S
N376 H389 0.985 . S
N377 C379 1.356 . S
N377 H382 0.984 . S
N377 H383 0.985 . S
C378 C372 1.379 . S
C378 C375 1.363 . S
C378 N376 1.356 . S
C379 C373 1.363 . S
C379 C374 1.379 . S
C379 N377 1.356 . S
N380 C372 1.356 . S
N380 H386 0.984 . S
N380 H387 0.984 . S
N381 C374 1.356 . S
N381 H384 0.984 . S
N381 H385 0.985 . S
H382 N377 0.984 . S
H383 N377 0.985 . S
H384 N381 0.984 . S
H385 N381 0.985 . S
H386 N380 0.984 . S
H387 N380 0.984 . S
H388 N376 0.984 . S
H389 N376 0.985 . S
C390 C391 1.363 . S
C390 C396 1.379 . S
C390 N398 1.356 . S
C391 C390 1.363 . S
C391 C397 1.363 . S
C392 C393 1.363 . S
C392 C397 1.379 1_554 S
C392 N399 1.356 . S
C393 C392 1.363 . S
C393 C396 1.363 1_554 S
N394 C396 1.356 . S
N394 H406 0.984 1_655 S
N394 H407 0.985 1_556 S
N395 C397 1.356 . S
N395 H400 0.984 . S
N395 H401 0.985 . S
C396 C390 1.379 . S
C396 C393 1.363 1_556 S
C396 N394 1.356 . S
C397 C391 1.363 . S
C397 C392 1.379 1_556 S
C397 N395 1.356 . S
N398 C390 1.356 . S
N398 H404 0.984 . S
N398 H405 0.984 . S
N399 C392 1.356 . S
N399 H402 0.984 . S
N399 H403 0.985 . S
H400 N395 0.984 . S
H401 N395 0.985 . S
H402 N399 0.984 . S
H403 N399 0.985 . S
H404 N398 0.984 . S
H405 N398 0.984 . S
H406 N394 0.984 1_455 S
H407 N394 0.985 1_554 S
C408 C409 1.363 . S
C408 C414 1.379 . S
C408 N416 1.356 . S
C409 C408 1.363 . S
C409 C415 1.363 . S
C410 C411 1.363 . S
C410 C415 1.379 . S
C410 N417 1.356 . S
C411 C410 1.363 . S
C411 C414 1.363 . S
N412 C414 1.356 . S
N412 H424 0.984 . S
N412 H425 0.985 . S
N413 C415 1.356 . S
N413 H418 0.984 . S
N413 H419 0.985 . S
C414 C408 1.379 . S
C414 C411 1.363 . S
C414 N412 1.356 . S
C415 C409 1.363 . S
C415 C410 1.379 . S
C415 N413 1.356 . S
N416 C408 1.356 . S
N416 H422 0.984 1_565 S
N416 H423 0.986 . S
N417 C410 1.356 . S
N417 H420 0.984 . S
N417 H421 0.985 . S
H418 N413 0.984 . S
H419 N413 0.985 . S
H420 N417 0.984 . S
H421 N417 0.985 . S
H422 N416 0.984 1_545 S
H423 N416 0.986 . S
H424 N412 0.984 . S
H425 N412 0.985 . S
C426 C427 1.363 . S
C426 C432 1.379 . S
C426 N434 1.356 . S
C427 C426 1.363 . S
C427 C433 1.363 . S
C428 C429 1.363 . S
C428 C433 1.379 . S
C428 N435 1.356 . S
C429 C428 1.363 . S
C429 C432 1.363 . S
N430 C432 1.356 . S
N430 H442 0.984 . S
N430 H443 0.985 . S
N431 C433 1.356 . S
N431 H436 0.984 . S
N431 H437 0.985 . S
C432 C426 1.379 . S
C432 C429 1.363 . S
C432 N430 1.356 . S
C433 C427 1.363 . S
C433 C428 1.379 . S
C433 N431 1.356 . S
N434 C426 1.356 . S
N434 H440 0.984 . S
N434 H441 0.984 . S
N435 C428 1.356 . S
N435 H438 0.984 . S
N435 H439 0.985 . S
H436 N431 0.984 . S
H437 N431 0.985 . S
H438 N435 0.984 . S
H439 N435 0.985 . S
H440 N434 0.984 . S
H441 N434 0.984 . S
H442 N430 0.984 . S
H443 N430 0.985 . S
C444 C445 1.363 . S
C444 C450 1.379 . S
C444 N452 1.356 . S
C445 C444 1.363 . S
C445 C451 1.363 . S
C446 C447 1.363 . S
C446 C451 1.379 . S
C446 N453 1.356 . S
C447 C446 1.363 . S
C447 C450 1.363 . S
N448 C450 1.356 . S
N448 H460 0.984 . S
N448 H461 0.985 . S
N449 C451 1.356 . S
N449 H454 0.984 . S
N449 H455 0.985 . S
C450 C444 1.379 . S
C450 C447 1.363 . S
C450 N448 1.356 . S
C451 C445 1.363 . S
C451 C446 1.379 . S
C451 N449 1.356 . S
N452 C444 1.356 . S
N452 H458 0.984 . S
N452 H459 0.984 . S
N453 C446 1.356 . S
N453 H456 0.984 . S
N453 H457 0.985 1_455 S
H454 N449 0.984 . S
H455 N449 0.985 . S
H456 N453 0.984 . S
H457 N453 0.985 1_655 S
H458 N452 0.984 . S
H459 N452 0.984 . S
H460 N448 0.984 . S
H461 N448 0.985 . S
C462 C463 1.363 . S
C462 C468 1.379 . S
C462 N470 1.356 . S
C463 C462 1.363 . S
C463 C469 1.363 . S
C464 C465 1.363 . S
C464 C469 1.379 . S
C464 N471 1.356 . S
C465 C464 1.363 . S
C465 C468 1.363 . S
N466 C468 1.356 . S
N466 H478 0.984 . S
N466 H479 0.985 . S
N467 C469 1.356 . S
N467 H472 0.984 . S
N467 H473 0.985 . S
C468 C462 1.379 . S
C468 C465 1.363 . S
C468 N466 1.356 . S
C469 C463 1.363 . S
C469 C464 1.379 . S
C469 N467 1.356 . S
N470 C462 1.356 . S
N470 H476 0.984 . S
N470 H477 0.984 . S
N471 C464 1.356 . S
N471 H474 0.984 . S
N471 H475 0.985 . S
H472 N467 0.984 . S
H473 N467 0.985 . S
H474 N471 0.984 . S
H475 N471 0.985 . S
H476 N470 0.984 . S
H477 N470 0.984 . S
H478 N466 0.984 . S
H479 N466 0.985 . S
C480 C481 1.363 . S
C480 C486 1.379 . S
C480 N488 1.356 . S
C481 C480 1.363 . S
C481 C487 1.363 . S
C482 C483 1.363 . S
C482 C487 1.379 . S
C482 N489 1.356 . S
C483 C482 1.363 . S
C483 C486 1.363 . S
N484 C486 1.356 . S
N484 H496 0.984 . S
N484 H497 0.985 . S
N485 C487 1.356 . S
N485 H490 0.984 . S
N485 H491 0.985 . S
C486 C480 1.379 . S
C486 C483 1.363 . S
C486 N484 1.356 . S
C487 C481 1.363 . S
C487 C482 1.379 . S
C487 N485 1.356 . S
N488 C480 1.356 . S
N488 H494 0.984 . S
N488 H495 0.984 . S
N489 C482 1.356 . S
N489 H492 0.984 . S
N489 H493 0.985 . S
H490 N485 0.984 . S
H491 N485 0.985 . S
H492 N489 0.984 . S
H493 N489 0.985 . S
H494 N488 0.984 . S
H495 N488 0.984 . S
H496 N484 0.984 . S
H497 N484 0.985 . S
C498 C499 1.363 . S
C498 C504 1.379 . S
C498 N506 1.356 . S
C499 C498 1.363 . S
C499 C505 1.363 . S
C500 C501 1.363 . S
C500 C505 1.379 . S
C500 N507 1.356 . S
C501 C500 1.363 . S
C501 C504 1.363 . S
N502 C504 1.356 . S
N502 H514 0.984 . S
N502 H515 0.985 . S
N503 C505 1.356 . S
N503 H508 0.984 . S
N503 H509 0.985 . S
C504 C498 1.379 . S
C504 C501 1.363 . S
C504 N502 1.356 . S
C505 C499 1.363 . S
C505 C500 1.379 . S
C505 N503 1.356 . S
N506 C498 1.356 . S
N506 H512 0.984 . S
N506 H513 0.984 . S
N507 C500 1.356 . S
N507 H510 0.984 . S
N507 H511 0.985 . S
H508 N503 0.984 . S
H509 N503 0.985 . S
H510 N507 0.984 . S
H511 N507 0.985 . S
H512 N506 0.984 . S
H513 N506 0.984 . S
H514 N502 0.984 . S
H515 N502 0.985 . S
C516 C517 1.363 . S
C516 C522 1.379 . S
C516 N524 1.356 . S
C517 C516 1.363 . S
C517 C523 1.363 . S
C518 C519 1.363 . S
C518 C523 1.379 . S
C518 N525 1.356 . S
C519 C518 1.363 . S
C519 C522 1.363 . S
N520 C522 1.356 . S
N520 H532 0.984 . S
N520 H533 0.985 . S
N521 C523 1.356 . S
N521 H526 0.984 . S
N521 H527 0.985 . S
C522 C516 1.379 . S
C522 C519 1.363 . S
C522 N520 1.356 . S
C523 C517 1.363 . S
C523 C518 1.379 . S
C523 N521 1.356 . S
N524 C516 1.356 . S
N524 H530 0.984 . S
N524 H531 0.984 . S
N525 C518 1.356 . S
N525 H528 0.984 . S
N525 H529 0.985 . S
H526 N521 0.984 . S
H527 N521 0.985 . S
H528 N525 0.984 . S
H529 N525 0.985 . S
H530 N524 0.984 . S
H531 N524 0.984 . S
H532 N520 0.984 . S
H533 N520 0.985 . S
C534 C535 1.363 . S
C534 C540 1.379 . S
C534 N542 1.356 . S
C535 C534 1.363 . S
C535 C541 1.363 . S
C536 C537 1.363 . S
C536 C541 1.379 . S
C536 N543 1.356 . S
C537 C536 1.363 . S
C537 C540 1.363 . S
N538 C540 1.356 . S
N538 H550 0.984 . S
N538 H551 0.985 . S
N539 C541 1.356 . S
N539 H544 0.984 . S
N539 H545 0.985 . S
C540 C534 1.379 . S
C540 C537 1.363 . S
C540 N538 1.356 . S
C541 C535 1.363 . S
C541 C536 1.379 . S
C541 N539 1.356 . S
N542 C534 1.356 . S
N542 H548 0.984 . S
N542 H549 0.984 . S
N543 C536 1.356 . S
N543 H546 0.984 . S
N543 H547 0.985 . S
H544 N539 0.984 . S
H545 N539 0.985 . S
H546 N543 0.984 . S
H547 N543 0.985 . S
H548 N542 0.984 . S
H549 N542 0.984 . S
H550 N538 0.984 . S
H551 N538 0.985 . S
C552 C553 1.363 . S
C552 C558 1.379 . S
C552 N560 1.356 . S
C553 C552 1.363 . S
C553 C559 1.363 . S
C554 C555 1.363 . S
C554 C559 1.379 . S
C554 N561 1.356 . S
C555 C554 1.363 . S
C555 C558 1.363 . S
N556 C558 1.356 . S
N556 H568 0.984 . S
N556 H569 0.985 . S
N557 C559 1.356 . S
N557 H562 0.984 . S
N557 H563 0.985 . S
C558 C552 1.379 . S
C558 C555 1.363 . S
C558 N556 1.356 . S
C559 C553 1.363 . S
C559 C554 1.379 . S
C559 N557 1.356 . S
N560 C552 1.356 . S
N560 H566 0.984 . S
N560 H567 0.984 . S
N561 C554 1.356 . S
N561 H564 0.984 1_556 S
N561 H565 0.985 . S
H562 N557 0.984 . S
H563 N557 0.985 . S
H564 N561 0.984 1_554 S
H565 N561 0.985 . S
H566 N560 0.984 . S
H567 N560 0.984 . S
H568 N556 0.984 . S
H569 N556 0.985 . S
C570 C571 1.363 . S
C570 C576 1.379 . S
C570 N578 1.356 . S
C571 C570 1.363 . S
C571 C577 1.363 . S
C572 C573 1.363 . S
C572 C577 1.379 . S
C572 N579 1.356 . S
C573 C572 1.363 . S
C573 C576 1.363 . S
N574 C576 1.356 . S
N574 H586 0.984 . S
N574 H587 0.985 . S
N575 C577 1.356 . S
N575 H580 0.984 . S
N575 H581 0.985 . S
C576 C570 1.379 . S
C576 C573 1.363 . S
C576 N574 1.356 . S
C577 C571 1.363 . S
C577 C572 1.379 . S
C577 N575 1.356 . S
N578 C570 1.356 . S
N578 H584 0.984 . S
N578 H585 0.984 . S
N579 C572 1.356 . S
N579 H582 0.984 1_554 S
N579 H583 0.985 . S
H580 N575 0.984 . S
H581 N575 0.985 . S
H582 N579 0.984 1_556 S
H583 N579 0.985 . S
H584 N578 0.984 . S
H585 N578 0.984 . S
H586 N574 0.984 . S
H587 N574 0.985 . S
C157 C104 1.457 . S
C159 C0 1.457 . S
C175 C13 1.457 . S
C177 C117 1.457 . S
C193 C26 1.457 . S
C195 C130 1.457 . S
C211 C39 1.457 . S
C213 C143 1.457 . S
C229 C78 1.457 . S
C231 C52 1.457 . S
C247 C65 1.457 . S
C249 C91 1.457 . S
C265 C8 1.417 . S
C267 C75 1.463 . S
C283 C21 1.417 . S
C285 C10 1.462 . S
C301 C34 1.417 . S
C303 C23 1.462 . S
C319 C36 1.463 . S
C321 C47 1.417 . S
C337 C49 1.463 . S
C339 C60 1.417 . S
C355 C62 1.462 . S
C357 C73 1.417 . S
C373 C101 1.463 . S
C375 C86 1.417 . S
C391 C99 1.417 . S
C393 C114 1.462 . S
C409 C127 1.463 . S
C411 C112 1.417 . S
C427 C125 1.417 . S
C429 C140 1.462 . S
C445 C138 1.417 . S
C447 C153 1.463 . S
C463 C151 1.417 . S
C465 C88 1.463 . S
C481 C135 1.268 . S
C483 C5 1.268 . S
C499 C148 1.268 . S
C501 C18 1.268 . S
C517 C83 1.268 . S
C519 C31 1.268 . S
C535 C44 1.268 . S
C537 C96 1.268 . S
C553 C57 1.268 . S
C555 C109 1.268 . S
C571 C122 1.268 . S
C573 C70 1.268 . S
