# Generated by pormake.
# Topology smc, (6)-cn, num edge types: 1
# Building blocks:
#     Node 0, Type 0, BuildingBlock: BETDAH_clean_sbu_0, # of connection points: 6
#     Node 1, Type 0, BuildingBlock: BETDAH_clean_sbu_0, # of connection points: 6
#     Node 2, Type 0, BuildingBlock: BETDAH_clean_sbu_0, # of connection points: 6
#     Node 3, Type 0, BuildingBlock: BETDAH_clean_sbu_0, # of connection points: 6
#     Node 4, Type 0, BuildingBlock: BETDAH_clean_sbu_0, # of connection points: 6
#     Node 5, Type 0, BuildingBlock: BETDAH_clean_sbu_0, # of connection points: 6
#     Node 6, Type 0, BuildingBlock: BETDAH_clean_sbu_0, # of connection points: 6
#     Node 7, Type 0, BuildingBlock: BETDAH_clean_sbu_0, # of connection points: 6
#     Node 8, Type 0, BuildingBlock: BETDAH_clean_sbu_0, # of connection points: 6
#     Edge 9, Type (0, 0), BuildingBlock: UVAHIK_clean_linker_0, # of connection points: 2
#     Edge 10, Type (0, 0), BuildingBlock: UVAHIK_clean_linker_0, # of connection points: 2
#     Edge 11, Type (0, 0), BuildingBlock: UVAHIK_clean_linker_0, # of connection points: 2
#     Edge 12, Type (0, 0), BuildingBlock: UVAHIK_clean_linker_0, # of connection points: 2
#     Edge 13, Type (0, 0), BuildingBlock: UVAHIK_clean_linker_0, # of connection points: 2
#     Edge 14, Type (0, 0), BuildingBlock: UVAHIK_clean_linker_0, # of connection points: 2
#     Edge 15, Type (0, 0), BuildingBlock: UVAHIK_clean_linker_0, # of connection points: 2
#     Edge 16, Type (0, 0), BuildingBlock: UVAHIK_clean_linker_0, # of connection points: 2
#     Edge 17, Type (0, 0), BuildingBlock: UVAHIK_clean_linker_0, # of connection points: 2
#     Edge 18, Type (0, 0), BuildingBlock: UVAHIK_clean_linker_0, # of connection points: 2
#     Edge 19, Type (0, 0), BuildingBlock: UVAHIK_clean_linker_0, # of connection points: 2
#     Edge 20, Type (0, 0), BuildingBlock: UVAHIK_clean_linker_0, # of connection points: 2
#     Edge 21, Type (0, 0), BuildingBlock: UVAHIK_clean_linker_0, # of connection points: 2
#     Edge 22, Type (0, 0), BuildingBlock: UVAHIK_clean_linker_0, # of connection points: 2
#     Edge 23, Type (0, 0), BuildingBlock: UVAHIK_clean_linker_0, # of connection points: 2
#     Edge 24, Type (0, 0), BuildingBlock: UVAHIK_clean_linker_0, # of connection points: 2
#     Edge 25, Type (0, 0), BuildingBlock: UVAHIK_clean_linker_0, # of connection points: 2
#     Edge 26, Type (0, 0), BuildingBlock: UVAHIK_clean_linker_0, # of connection points: 2
#     Edge 27, Type (0, 0), BuildingBlock: UVAHIK_clean_linker_0, # of connection points: 2
#     Edge 28, Type (0, 0), BuildingBlock: UVAHIK_clean_linker_0, # of connection points: 2
#     Edge 29, Type (0, 0), BuildingBlock: UVAHIK_clean_linker_0, # of connection points: 2
#     Edge 30, Type (0, 0), BuildingBlock: UVAHIK_clean_linker_0, # of connection points: 2
#     Edge 31, Type (0, 0), BuildingBlock: UVAHIK_clean_linker_0, # of connection points: 2
#     Edge 32, Type (0, 0), BuildingBlock: UVAHIK_clean_linker_0, # of connection points: 2
#     Edge 33, Type (0, 0), BuildingBlock: UVAHIK_clean_linker_0, # of connection points: 2
#     Edge 34, Type (0, 0), BuildingBlock: UVAHIK_clean_linker_0, # of connection points: 2
#     Edge 35, Type (0, 0), BuildingBlock: UVAHIK_clean_linker_0, # of connection points: 2
# Relax obj value: 0.165
# Max RMSD: 0.297
# Mean RMSD: 0.297
data_MOF--net-smc--node1-BETDAH_clean_sbu_0--edge1-UVAHIK_clean_linker_0
_symmetry_space_group_name_H-M    P1
_symmetry_Int_Tables_number       1
_symmetry_cell_setting            triclinic
loop_
_symmetry_equiv_pos_as_xyz
'x, y, z'
_cell_length_a     48.968814
_cell_length_b     48.918346
_cell_length_c     49.664151
_cell_angle_alpha  90.166228
_cell_angle_beta   89.918506
_cell_angle_gamma 120.09715
loop_
_atom_site_label
_atom_site_type_symbol
_atom_site_fract_x
_atom_site_fract_y
_atom_site_fract_z
_atom_type_partial_charge
Ho0 Ho 0.02836 0.47404 1.03486 0.0
Ho1 Ho 0.98405 0.39957 0.03851 0.0
C2 C 0.05959 0.42964 0.039 0.0
C3 C 0.06864 0.53401 1.03396 0.0
C4 C 0.09819 0.56478 1.03775 0.0
C5 C 0.10494 0.58158 0.06217 0.0
C6 C 0.12943 0.61318 0.06371 0.0
C7 C 0.14756 0.62885 0.04081 0.0
C8 C 0.14139 0.6115 1.0167 0.0
C9 C 0.11711 0.57998 1.01522 0.0
C10 C 1.00038 0.441 0.98897 0.0
C11 C 0.95564 0.44748 0.0454 0.0
C12 C 0.94171 0.34317 1.02379 0.0
C13 C 0.90757 0.32135 1.02906 0.0
C14 C 0.88574 0.31481 1.0082 0.0
C15 C 0.85333 0.29544 1.01262 0.0
C16 C 0.84179 0.28173 0.03797 0.0
C17 C 0.86365 0.28768 0.05875 0.0
C18 C 0.89619 0.30738 0.0544 0.0
C19 C 1.00179 0.42332 0.08899 0.0
O20 O 0.06213 0.45732 0.04465 0.0
O21 O 0.03228 0.40426 1.03205 0.0
O22 O 0.06693 0.5144 1.01513 0.0
O23 O 0.049 0.52018 0.054 0.0
O24 O 1.0031 0.4681 0.99471 0.0
O25 O 0.01244 0.43338 1.00758 0.0
O26 O 0.9504 0.41904 0.03826 0.0
O27 O 0.9843 0.47163 0.04927 0.0
O28 O 0.96202 0.34867 0.04322 0.0
O29 O 0.94823 0.36874 1.0104 0.0
O30 O 0.98255 0.3938 0.08345 0.0
O31 O 0.0088 0.43876 0.06717 0.0
H32 H 0.09059 0.57072 0.07984 0.0
H33 H 0.13372 0.62549 0.08276 0.0
H34 H 0.1543 0.62264 0.99848 0.0
H35 H 0.11215 0.56799 0.99595 0.0
H36 H 0.89377 0.32495 0.98839 0.0
H37 H 0.83726 0.29097 0.99603 0.0
H38 H 0.85556 0.2776 0.07855 0.0
H39 H 0.91232 0.31188 0.07092 0.0
Ho40 Ho 0.54126 0.55828 0.0404 0.0
Ho41 Ho 0.61629 0.58568 0.04503 0.0
C42 C 0.5865 0.63259 0.03988 0.0
C43 C 0.48051 0.52865 0.04661 0.0
C44 C 0.44975 0.52717 0.04261 0.0
C45 C 0.4311 0.52356 0.06529 0.0
C46 C 0.39995 0.51693 0.06244 0.0
C47 C 0.38647 0.51365 1.03676 0.0
C48 C 0.4055 0.51822 1.01399 0.0
C49 C 0.43677 0.52484 1.01687 0.0
C50 C 0.5753 0.57182 0.99427 0.0
C51 C 0.56872 0.51042 0.05139 0.0
C52 C 0.67432 0.60198 1.03428 0.0
C53 C 0.69335 0.58595 1.03484 0.0
C54 C 0.69941 0.57415 1.01108 0.0
C55 C 0.71821 0.55996 1.01163 0.0
C56 C 0.7316 0.55748 1.03592 0.0
C57 C 0.72523 0.56901 0.05967 0.0
C58 C 0.70647 0.5831 0.05914 0.0
C59 C 0.59115 0.58473 0.0942 0.0
O60 O 0.55831 0.60903 0.04653 0.0
O61 O 0.61109 0.62863 1.03428 0.0
O62 O 0.49464 0.52488 1.02569 0.0
O63 O 0.50028 0.54863 0.06437 0.0
O64 O 0.55118 0.57599 0.9971 0.0
O65 O 0.57892 0.55993 1.01542 0.0
O66 O 0.59848 0.53334 0.04848 0.0
O67 O 0.54463 0.51561 0.05146 0.0
O68 O 0.66496 0.6069 0.05752 0.0
O69 O 0.65246 0.59312 1.01581 0.0
O70 O 0.62055 0.59369 0.09007 0.0
O71 O 0.57703 0.5756 0.07191 0.0
H72 H 0.44023 0.52461 0.08536 0.0
H73 H 0.38603 0.51311 0.08047 0.0
H74 H 0.39611 0.51631 0.99391 0.0
H75 H 0.45043 0.52725 0.99895 0.0
H76 H 0.6899 0.57619 0.992 0.0
H77 H 0.72289 0.55164 0.99292 0.0
H78 H 0.73475 0.56712 0.0788 0.0
H79 H 0.70247 0.59195 0.07786 0.0
Ho80 Ho 0.4607 0.98577 1.03416 0.0
Ho81 Ho 0.43306 0.03333 0.03833 0.0
C82 C 0.38637 0.95671 1.03045 0.0
C83 C 0.48979 0.95431 0.0409 0.0
C84 C 0.49229 0.92578 1.0355 0.0
C85 C 0.49288 0.90808 0.05746 0.0
C86 C 0.50015 0.88407 0.05384 0.0
C87 C 0.50713 0.87707 1.0281 0.0
C88 C 0.5057 0.89425 1.00595 0.0
C89 C 0.49841 0.91837 1.0096 0.0
C90 C 0.44875 0.00704 0.98778 0.0
C91 C 0.50728 0.06045 0.04951 0.0
C92 C 0.41814 0.07572 1.02658 0.0
C93 C 0.43529 0.11071 1.02676 0.0
C94 C 0.42896 0.12717 1.00697 0.0
C95 C 0.44339 0.16018 1.00806 0.0
C96 C 0.46443 0.17748 1.02905 0.0
C97 C 0.47141 0.1609 0.0484 0.0
C98 C 0.4571 0.12793 0.04722 0.0
C99 C 0.43026 0.0063 0.08683 0.0
O100 O 0.40955 0.95138 1.03671 0.0
O101 O 0.39024 0.98557 1.02684 0.0
O102 O 0.4963 0.97472 1.02142 0.0
O103 O 0.46731 0.95173 0.05695 0.0
O104 O 0.44485 0.97883 0.99044 0.0
O105 O 0.45992 0.02237 1.00926 0.0
O106 O 0.48489 0.06746 0.04454 0.0
O107 O 0.50213 0.03115 0.04914 0.0
O108 O 0.41317 0.06216 0.05012 0.0
O109 O 0.42652 0.06194 1.00839 0.0
O110 O 0.42162 0.02702 0.08283 0.0
O111 O 0.44114 1.00269 0.06493 0.0
H112 H 0.48889 0.91365 0.0777 0.0
H113 H 0.50148 0.87182 0.07147 0.0
H114 H 0.51052 0.88928 0.98579 0.0
H115 H 0.49841 0.93174 0.99225 0.0
H116 H 0.41245 0.11443 0.99088 0.0
H117 H 0.43788 0.17214 0.99251 0.0
H118 H 0.48719 0.17326 0.06499 0.0
H119 H 0.46259 0.11587 0.06269 0.0
Ho120 Ho 0.69305 0.80683 0.37627 0.0
Ho121 Ho 0.64401 0.73219 0.38234 0.0
C122 C 0.71987 0.7598 0.37191 0.0
C123 C 0.72668 0.86742 0.38278 0.0
C124 C 0.75651 0.89734 0.3774 0.0
C125 C 0.77756 0.91286 0.39872 0.0
C126 C 0.80254 0.94386 0.39576 0.0
C127 C 0.80705 0.9602 0.37141 0.0
C128 C 0.78694 0.94412 0.34962 0.0
C129 C 0.76186 0.91309 0.3526 0.0
C130 C 0.66934 0.77264 0.33059 0.0
C131 C 0.61879 0.78151 0.39065 0.0
C132 C 0.60182 0.67373 0.37352 0.0
C133 C 0.56708 0.65403 0.37063 0.0
C134 C 0.55005 0.65856 0.35005 0.0
C135 C 0.51699 0.6396 0.34881 0.0
C136 C 0.50037 0.61581 0.36812 0.0
C137 C 0.51771 0.61159 0.38862 0.0
C138 C 0.55052 0.63023 0.38971 0.0
C139 C 0.67505 0.75745 0.42958 0.0
O140 O 0.72651 0.78897 0.37733 0.0
O141 O 0.69052 0.73518 0.36974 0.0
O142 O 0.70658 0.85396 0.36298 0.0
O143 O 0.72738 0.84703 0.39946 0.0
O144 O 0.69778 0.79686 0.33246 0.0
O145 O 0.65477 0.76917 0.35243 0.0
O146 O 0.61088 0.75155 0.38679 0.0
O147 O 0.64846 0.80494 0.39034 0.0
O148 O 0.61151 0.68585 0.39747 0.0
O149 O 0.61836 0.69332 0.35417 0.0
O150 O 0.65337 0.72823 0.42644 0.0
O151 O 0.67737 0.77128 0.40762 0.0
H152 H 0.77389 0.90154 0.41816 0.0
H153 H 0.81788 0.95534 0.41282 0.0
H154 H 0.78957 0.95604 0.33064 0.0
H155 H 0.74589 0.90203 0.33583 0.0
H156 H 0.56215 0.67671 0.33502 0.0
H157 H 0.50451 0.6434 0.33259 0.0
H158 H 0.50594 0.59414 0.40424 0.0
H159 H 0.56301 0.62627 0.40584 0.0
Ho160 Ho 0.20407 0.89084 0.36528 0.0
Ho161 Ho 0.27861 0.9186 0.37222 0.0
C162 C 0.25121 0.96651 0.36993 0.0
C163 C 0.1457 0.87612 0.36674 0.0
C164 C 0.11207 0.86764 0.36772 0.0
C165 C 0.09616 0.86159 0.39245 0.0
C166 C 0.0642 0.85285 0.39341 0.0
C167 C 0.04718 0.84957 0.36961 0.0
C168 C 0.06335 0.85592 0.34485 0.0
C169 C 0.09541 0.86498 0.34394 0.0
C170 C 0.23921 0.89676 0.32067 0.0
C171 C 0.22801 0.84201 0.37607 0.0
C172 C 0.33541 0.93218 0.35979 0.0
C173 C 0.35706 0.9204 0.36659 0.0
C174 C 0.38518 0.93142 0.35205 0.0
C175 C 0.40503 0.91898 0.35669 0.0
C176 C 0.39717 0.8951 0.37598 0.0
C177 C 0.36894 0.88425 0.39069 0.0
C178 C 0.34907 0.89676 0.38602 0.0
C179 C 0.25131 0.91226 0.42115 0.0
O180 O 0.22257 0.94218 0.37398 0.0
O181 O 0.27636 0.96342 0.36516 0.0
O182 O 0.16408 0.89071 0.34619 0.0
O183 O 0.15931 0.86968 0.3865 0.0
O184 O 0.21046 0.87369 0.324 0.0
O185 O 0.24662 0.91522 0.34034 0.0
O186 O 0.25749 0.86515 0.37181 0.0
O187 O 0.20382 0.84691 0.37737 0.0
O188 O 0.32913 0.94689 0.37882 0.0
O189 O 0.31034 0.91248 0.34603 0.0
O190 O 0.28107 0.922 0.41753 0.0
O191 O 0.23796 0.90475 0.39839 0.0
H192 H 0.10846 0.86371 0.41114 0.0
H193 H 0.05291 0.84883 0.4129 0.0
H194 H 0.05111 0.85323 0.32603 0.0
H195 H 0.10701 0.86933 0.32455 0.0
H196 H 0.39156 0.94932 0.33671 0.0
H197 H 0.4262 0.92759 0.34463 0.0
H198 H 0.36223 0.86616 0.40589 0.0
H199 H 0.3273 0.88772 0.39732 0.0
Ho200 Ho 0.12367 0.32319 0.37014 0.0
Ho201 Ho 0.0908 0.36194 0.37481 0.0
C202 C 0.04722 0.28771 0.36347 0.0
C203 C 0.14581 0.28503 0.37577 0.0
C204 C 0.1472 0.25584 0.36983 0.0
C205 C 0.13401 0.23046 0.38806 0.0
C206 C 0.14088 0.2059 0.38618 0.0
C207 C 0.16132 0.20607 0.3661 0.0
C208 C 0.17327 0.2307 0.34706 0.0
C209 C 0.16643 0.2553 0.34897 0.0
C210 C 0.11788 0.35011 0.32373 0.0
C211 C 0.16683 0.39483 0.38259 0.0
C212 C 0.07541 0.40537 0.37109 0.0
C213 C 0.09149 0.44047 0.37154 0.0
C214 C 0.11299 0.45926 0.35143 0.0
C215 C 0.1271 0.49233 0.35223 0.0
C216 C 0.12005 0.50739 0.37313 0.0
C217 C 0.09884 0.48843 0.39334 0.0
C218 C 0.08469 0.4555 0.39247 0.0
C219 C 0.08664 0.32943 0.41933 0.0
O220 O 0.07264 0.28517 0.36721 0.0
O221 O 0.04829 0.31541 0.36262 0.0
O222 O 0.15652 0.30789 0.35809 0.0
O223 O 0.1225 0.28317 0.39016 0.0
O224 O 0.14237 0.34747 0.32914 0.0
O225 O 0.09818 0.33713 0.34211 0.0
O226 O 0.14338 0.39822 0.37329 0.0
O227 O 0.16222 0.36673 0.3887 0.0
O228 O 0.07549 0.39185 0.39373 0.0
O229 O 0.07975 0.39166 0.35013 0.0
O230 O 0.06481 0.3347 0.41067 0.0
O231 O 0.11161 0.34398 0.4051 0.0
H232 H 0.11948 0.23025 0.40461 0.0
H233 H 0.13074 0.18713 0.40094 0.0
H234 H 0.18928 0.23189 0.33144 0.0
H235 H 0.1775 0.27469 0.33484 0.0
H236 H 0.11876 0.44847 0.33498 0.0
H237 H 0.14305 0.50603 0.33616 0.0
H238 H 0.09323 0.49902 0.41004 0.0
H239 H 0.06827 0.44168 0.40826 0.0
Ho240 Ho 0.35643 0.13507 0.70111 0.0
Ho241 Ho 0.31447 0.06494 0.70975 0.0
C242 C 0.39002 0.09297 0.70455 0.0
C243 C 0.39503 0.19554 0.69799 0.0
C244 C 0.42506 0.22617 0.70107 0.0
C245 C 0.43286 0.24326 0.72541 0.0
C246 C 0.45765 0.27478 0.7265 0.0
C247 C 0.47516 0.29012 0.70324 0.0
C248 C 0.46798 0.27252 0.67919 0.0
C249 C 0.4433 0.24108 0.67813 0.0
C250 C 0.32515 0.09956 0.65685 0.0
C251 C 0.28444 0.10975 0.71079 0.0
C252 C 0.27573 0.0047 0.7057 0.0
C253 C 0.24076 0.98434 0.70843 0.0
C254 C 0.22058 0.98168 0.68713 0.0
C255 C 0.18776 0.96294 0.68965 0.0
C256 C 0.174 0.94613 0.71349 0.0
C257 C 0.19419 0.94848 0.7347 0.0
C258 C 0.22711 0.96729 0.73218 0.0
C259 C 0.33336 0.09784 0.75694 0.0
O260 O 0.39382 0.1217 0.70403 0.0
O261 O 0.36179 0.06695 0.70604 0.0
O262 O 0.39249 0.17551 0.67927 0.0
O263 O 0.37688 0.18188 0.71889 0.0
O264 O 0.32808 0.12685 0.66201 0.0
O265 O 0.33876 0.09334 0.67498 0.0
O266 O 0.27999 0.08222 0.70215 0.0
O267 O 0.31284 0.13238 0.71763 0.0
O268 O 0.29212 0.01796 0.72754 0.0
O269 O 0.28566 0.02398 0.68518 0.0
O270 O 0.30474 0.07602 0.75119 0.0
O271 O 0.35 0.10331 0.73592 0.0
H272 H 0.41909 0.23272 0.74342 0.0
H273 H 0.46272 0.28729 0.7455 0.0
H274 H 0.48045 0.28343 0.66074 0.0
H275 H 0.43753 0.22892 0.65891 0.0
H276 H 0.23008 0.99409 0.66835 0.0
H277 H 0.17318 0.96132 0.67266 0.0
H278 H 0.18456 0.93613 0.75347 0.0
H279 H 0.24189 0.96861 0.74892 0.0
Ho280 Ho 0.87235 0.22357 0.70373 0.0
Ho281 Ho 0.9471 0.24977 0.71141 0.0
C282 C 0.91922 0.29794 0.70165 0.0
C283 C 0.81159 0.19558 0.70932 0.0
C284 C 0.7813 0.1949 0.70437 0.0
C285 C 0.76982 0.20852 0.72293 0.0
C286 C 0.73868 0.20243 0.72127 0.0
C287 C 0.71812 0.18239 0.70112 0.0
C288 C 0.73009 0.16995 0.68186 0.0
C289 C 0.7612 0.17603 0.68353 0.0
C290 C 0.90798 0.23555 0.65883 0.0
C291 C 0.8981 0.1746 0.71683 0.0
C292 C 0.00604 0.26696 0.70463 0.0
C293 C 0.02614 0.25241 0.70152 0.0
C294 C 0.02257 0.23183 0.68025 0.0
C295 C 0.04179 0.21808 0.67883 0.0
C296 C 0.06492 0.22464 0.69865 0.0
C297 C 0.06822 0.24526 0.71982 0.0
C298 C 0.04928 0.25905 0.72111 0.0
C299 C 0.91973 0.25253 0.75843 0.0
O300 O 0.88996 0.27506 0.70625 0.0
O301 O 0.94394 0.29342 0.69958 0.0
O302 O 0.82556 0.1904 0.68902 0.0
O303 O 0.83157 0.21587 0.72683 0.0
O304 O 0.8834 0.23918 0.66022 0.0
O305 O 0.91098 0.22413 0.68061 0.0
O306 O 0.92805 0.19712 0.71394 0.0
O307 O 0.87442 0.18044 0.71634 0.0
O308 O 0.99251 0.2627 0.72814 0.0
O309 O 0.98758 0.2652 0.68476 0.0
O310 O 0.94917 0.26087 0.75594 0.0
O311 O 0.90695 0.24224 0.73587 0.0
H312 H 0.78446 0.22285 0.73946 0.0
H313 H 0.73049 0.21284 0.7362 0.0
H314 H 0.71496 0.15414 0.66624 0.0
H315 H 0.769 0.16464 0.6692 0.0
H316 H 0.00496 0.22625 0.66481 0.0
H317 H 0.03873 0.20255 0.6621 0.0
H318 H 0.08518 0.25044 0.73579 0.0
H319 H 0.05249 0.27474 0.73778 0.0
Ho320 Ho 0.79534 0.65531 0.70635 0.0
Ho321 Ho 0.76246 0.69367 0.70863 0.0
C322 C 0.71916 0.61903 0.69755 0.0
C323 C 0.81722 0.61711 0.71305 0.0
C324 C 0.81907 0.58836 0.70647 0.0
C325 C 0.80943 0.56437 0.72585 0.0
C326 C 0.81682 0.5403 0.72297 0.0
C327 C 0.83419 0.53956 0.70064 0.0
C328 C 0.84245 0.56268 0.68054 0.0
C329 C 0.83514 0.58688 0.68348 0.0
C330 C 0.79186 0.68216 0.65898 0.0
C331 C 0.83804 0.72627 0.72027 0.0
C332 C 0.7481 0.73774 0.70305 0.0
C333 C 0.76492 0.77284 0.70291 0.0
C334 C 0.7562 0.78858 0.68425 0.0
C335 C 0.77005 0.82157 0.68501 0.0
C336 C 0.79297 0.83972 0.70453 0.0
C337 C 0.80236 0.82391 0.72272 0.0
C338 C 0.78854 0.7909 0.7219 0.0
C339 C 0.75601 0.66133 0.75384 0.0
O340 O 0.74468 0.617 0.7023 0.0
O341 O 0.72003 0.64668 0.69624 0.0
O342 O 0.82953 0.64109 0.69648 0.0
O343 O 0.79252 0.61421 0.72586 0.0
O344 O 0.81628 0.68012 0.66595 0.0
O345 O 0.77114 0.66899 0.6766 0.0
O346 O 0.81543 0.72985 0.70921 0.0
O347 O 0.83256 0.69803 0.72687 0.0
O348 O 0.74702 0.72419 0.72599 0.0
O349 O 0.75308 0.7238 0.68267 0.0
O350 O 0.73457 0.66634 0.74374 0.0
O351 O 0.78172 0.67596 0.74052 0.0
H352 H 0.79739 0.565 0.74395 0.0
H353 H 0.80956 0.52264 0.73864 0.0
H354 H 0.85599 0.56305 0.66315 0.0
H355 H 0.84334 0.60518 0.66831 0.0
H356 H 0.73824 0.77527 0.6693 0.0
H357 H 0.76263 0.83284 0.67031 0.0
H358 H 0.81971 0.83692 0.73817 0.0
H359 H 0.7959 0.77947 0.73649 0.0
C360 C 0.3386 0.51607 0.0521 0.0
C361 C 0.35243 0.50433 1.03403 0.0
C362 C 0.30637 0.50596 0.05074 0.0
C363 C 0.22966 0.44106 1.02513 0.0
H364 H 0.20227 0.50115 0.04113 0.0
C365 C 0.09803 0.41455 1.0196 0.0
C366 C 0.0895 0.4289 0.03995 0.0
C367 C 0.12936 0.42072 1.01772 0.0
C368 C 0.20943 0.48394 1.03683 0.0
H369 H 0.34275 0.47269 1.00012 0.0
H370 H 0.28662 0.45566 0.99734 0.0
H371 H 0.25829 0.51908 0.03896 0.0
H372 H 0.10643 0.45886 0.07534 0.0
H373 H 0.15994 0.46863 0.07264 0.0
H374 H 0.18035 0.40592 1.02299 0.0
C375 C 0.30074 0.47241 1.01284 0.0
C376 C 0.24167 0.49425 1.03561 0.0
C377 C 0.33309 0.48254 1.01422 0.0
C378 C 0.11217 0.44756 0.05934 0.0
C379 C 0.14307 0.45348 0.0576 0.0
C380 C 0.1972 0.4307 1.02627 0.0
C381 C 0.28689 0.48388 1.03118 0.0
C382 C 0.25233 0.47292 1.03029 0.0
C383 C 0.15249 0.44127 1.0362 0.0
C384 C 0.18672 0.45194 1.03273 0.0
H385 H 0.35268 0.53311 0.06744 0.0
H386 H 0.29661 0.51509 0.06545 0.0
H387 H 0.23693 0.42389 1.02108 0.0
H388 H 0.08115 0.40034 1.00421 0.0
H389 H 0.13584 0.41084 1.00102 0.0
C390 C 0.50248 0.82491 0.04029 0.0
C391 C 0.51682 0.85268 1.02479 0.0
C392 C 0.51267 0.80288 0.03854 0.0
C393 C 0.58081 0.79375 1.01856 0.0
H394 H 0.5188 0.7049 1.02598 0.0
C395 C 0.60472 0.68569 1.01758 0.0
C396 C 0.58866 0.66397 0.03838 0.0
C397 C 0.59973 0.7114 1.01335 0.0
C398 C 0.53646 0.72964 1.02386 0.0
H399 H 0.55321 0.87869 0.99503 0.0
H400 H 0.57054 0.8398 0.99157 0.0
H401 H 0.50136 0.74333 1.02231 0.0
H402 H 0.55661 0.65359 0.07202 0.0
H403 H 0.54872 0.69798 0.0651 0.0
H404 H 0.61589 0.77952 1.02037 0.0
C405 C 0.55159 0.83533 1.00535 0.0
C406 C 0.52646 0.75174 1.0219 0.0
C407 C 0.54135 0.85746 1.0071 0.0
C408 C 0.56943 0.66973 0.05581 0.0
C409 C 0.56457 0.69508 0.05168 0.0
C410 C 0.59086 0.77144 1.0204 0.0
C411 C 0.53745 0.80777 1.02114 0.0
C412 C 0.54845 0.78421 1.02003 0.0
C413 C 0.57858 0.71553 1.02984 0.0
C414 C 0.56876 0.73923 1.02388 0.0
H415 H 0.48332 0.82015 0.05392 0.0
H416 H 0.50143 0.78222 0.05133 0.0
H417 H 0.59845 0.81855 1.01718 0.0
H418 H 0.61939 0.68169 1.00362 0.0
H419 H 0.61097 0.72694 0.99639 0.0
C420 C 0.33067 0.91928 0.04487 0.0
C421 C 0.35542 0.9279 1.02641 0.0
C422 C 0.30554 0.88785 0.04594 0.0
C423 C 0.29218 0.80822 1.03226 0.0
H424 H 0.20306 0.77899 0.04062 0.0
C425 C 0.19927 0.67558 1.0258 0.0
C426 C 0.17164 0.66343 0.04144 0.0
C427 C 0.22068 0.70811 1.02477 0.0
C428 C 0.22791 0.78672 0.03872 0.0
H429 H 0.37266 0.91121 0.99384 0.0
H430 H 0.32881 0.85695 0.99521 0.0
H431 H 0.24066 0.83562 1.03637 0.0
H432 H 0.14541 0.67664 0.06862 0.0
H433 H 0.18335 0.7331 0.06773 0.0
H434 H 0.28002 0.75986 1.03518 0.0
C435 C 0.32875 0.87406 1.00907 0.0
C436 C 0.24943 0.81923 1.03615 0.0
C437 C 0.35365 0.90523 1.00802 0.0
C438 C 0.16652 0.68488 0.05656 0.0
C439 C 0.18812 0.71747 0.0557 0.0
C440 C 0.27084 0.7759 1.0351 0.0
C441 C 0.30504 0.86463 1.02873 0.0
C442 C 0.28179 0.83032 1.03246 0.0
C443 C 0.21543 0.72964 0.0396 0.0
C444 C 0.23828 0.76451 0.03799 0.0
H445 H 0.33196 0.93613 0.05974 0.0
H446 H 0.28769 0.88133 0.06137 0.0
H447 H 0.31704 0.81597 1.03012 0.0
H448 H 0.20442 0.65997 1.01414 0.0
H449 H 0.24111 0.71635 1.01182 0.0
C450 C 0.45919 0.22604 1.02581 0.0
C451 C 0.47792 0.21242 1.03146 0.0
C452 C 0.4711 0.25847 1.02934 0.0
C453 C 0.54447 0.33575 1.03476 0.0
H454 H 0.48947 0.3611 0.06905 0.0
C455 C 0.58399 0.46816 0.05618 0.0
C456 C 0.56086 0.4768 0.05233 0.0
C457 C 0.57578 0.43615 0.05563 0.0
C458 C 0.50511 0.3546 0.05913 0.0
H459 H 0.5244 0.22277 0.04461 0.0
H460 H 0.54508 0.27941 0.05095 0.0
H461 H 0.47158 0.30532 0.06312 0.0
H462 H 0.511 0.45828 0.04427 0.0
H463 H 0.49716 0.40358 0.04255 0.0
H464 H 0.57772 0.38517 1.03014 0.0
C465 C 0.52114 0.26486 0.04371 0.0
C466 C 0.4948 0.32249 0.05579 0.0
C467 C 0.50915 0.23232 0.04031 0.0
C468 C 0.5295 0.45273 0.04784 0.0
C469 C 0.52143 0.42106 0.04698 0.0
C470 C 0.55472 0.36803 0.03786 0.0
C471 C 0.50212 0.27827 0.03856 0.0
C472 C 0.51411 0.31261 0.04321 0.0
C473 C 0.54431 0.41214 0.05097 0.0
C474 C 0.53494 0.37792 0.04969 0.0
H475 H 0.43496 0.21154 1.01926 0.0
H476 H 0.45593 0.26807 1.02484 0.0
H477 H 0.55992 0.32894 1.02493 0.0
H478 H 0.60839 0.48606 0.05959 0.0
H479 H 0.59406 0.43025 0.059 0.0
C480 C 0.55024 0.11757 0.04584 0.0
C481 C 0.54037 0.0864 0.05383 0.0
C482 C 0.58229 0.14093 0.04679 0.0
C483 C 0.65983 0.16045 0.07631 0.0
H484 H 0.69458 0.21122 1.01212 0.0
C485 C 0.79474 0.23269 0.05652 0.0
C486 C 0.80708 0.26141 0.0425 0.0
C487 C 0.76204 0.21303 0.05964 0.0
C488 C 0.68534 0.19771 1.03045 0.0
H489 H 0.55649 0.05588 0.07031 0.0
H490 H 0.61195 0.09648 0.07218 0.0
H491 H 0.63794 0.17505 1.01539 0.0
H492 H 0.79461 0.29251 1.02171 0.0
H493 H 0.73786 0.25875 1.02758 0.0
H494 H 0.70714 0.18307 0.09144 0.0
C495 C 0.59504 0.10294 0.06511 0.0
C496 C 0.65273 0.17689 1.03228 0.0
C497 C 0.56315 0.07957 0.0639 0.0
C498 C 0.78591 0.2703 1.03222 0.0
C499 C 0.75327 0.25082 1.03553 0.0
C500 C 0.69243 0.18147 0.07457 0.0
C501 C 0.60516 0.13378 0.05607 0.0
C502 C 0.63957 0.15771 0.0551 0.0
C503 C 0.74076 0.22169 0.04904 0.0
C504 C 0.70576 0.2002 0.05148 0.0
H505 H 0.5334 0.1237 0.03794 0.0
H506 H 0.58923 0.16454 0.03995 0.0
H507 H 0.65046 0.14633 0.09432 0.0
H508 H 0.81033 0.22496 0.06446 0.0
H509 H 0.75347 0.19065 0.06981 0.0
C510 C 0.90039 0.43488 1.03353 0.0
C511 C 0.92897 0.45374 0.04727 0.0
C512 C 0.87721 0.44378 1.03251 0.0
C513 C 0.87002 0.5156 0.03982 0.0
H514 H 0.77994 0.45668 0.04158 0.0
C515 C 0.78047 0.55814 0.0524 0.0
C516 C 0.75294 0.54388 1.03657 0.0
C517 C 0.80068 0.54571 0.05319 0.0
C518 C 0.80504 0.47339 0.04078 0.0
H519 H 0.95463 0.49555 0.07217 0.0
H520 H 0.91425 0.51043 0.07105 0.0
H521 H 0.81689 0.43688 0.04481 0.0
H522 H 0.72502 0.50499 1.00933 0.0
H523 H 0.76058 0.48336 1.01055 0.0
H524 H 0.85836 0.55209 1.03601 0.0
C525 C 0.90999 0.48939 0.06024 0.0
C526 C 0.82624 0.46205 0.04263 0.0
C527 C 0.93312 0.48069 0.06106 0.0
C528 C 0.74614 0.51672 1.02157 0.0
C529 C 0.76635 0.50414 1.02248 0.0
C530 C 0.84893 0.52689 0.0381 0.0
C531 C 0.88208 0.47162 0.04534 0.0
C532 C 0.85906 0.48307 0.04251 0.0
C533 C 0.79399 0.51861 0.0382 0.0
C534 C 0.81616 0.50603 0.03885 0.0
H535 H 0.8965 0.41403 1.0226 0.0
H536 H 0.85607 0.42952 1.02079 0.0
H537 H 0.89506 0.5325 0.03887 0.0
H538 H 0.78669 0.57926 0.06399 0.0
H539 H 0.82154 0.55729 0.06575 0.0
C540 C 0.75891 0.74474 0.38778 0.0
C541 C 0.74769 0.75628 0.3673 0.0
C542 C 0.79035 0.75129 0.38745 0.0
C543 C 0.86751 0.81347 0.36281 0.0
H544 H 0.89794 0.75667 0.38182 0.0
C545 C 0.99924 0.85064 0.35208 0.0
C546 C 0.01266 0.83894 0.37053 0.0
C547 C 0.96677 0.83976 0.35229 0.0
C548 C 0.88993 0.77304 0.37686 0.0
H549 H 0.75981 0.78253 0.33002 0.0
H550 H 0.81416 0.79325 0.32898 0.0
H551 H 0.84116 0.73695 0.38025 0.0
H552 H 1.00186 0.80658 0.40395 0.0
H553 H 0.94572 0.78867 0.405 0.0
H554 H 0.91591 0.84975 0.36 0.0
C555 C 0.799 0.77939 0.34542 0.0
C556 C 0.85731 0.76161 0.37583 0.0
C557 C 0.76774 0.77282 0.34575 0.0
C558 C 0.99263 0.81647 0.38955 0.0
C559 C 0.96018 0.80576 0.38989 0.0
C560 C 0.90003 0.82495 0.36409 0.0
C561 C 0.8111 0.76984 0.36679 0.0
C562 C 0.8457 0.78161 0.36844 0.0
C563 C 0.94667 0.81701 0.3711 0.0
C564 C 0.91181 0.80488 0.37084 0.0
H565 H 0.74419 0.73282 0.40505 0.0
H566 H 0.79895 0.74371 0.40428 0.0
H567 H 0.85942 0.82975 0.3577 0.0
H568 H 0.01382 0.86832 0.3374 0.0
H569 H 0.9574 0.84886 0.33728 0.0
C570 C 0.17807 0.17154 0.39044 0.0
C571 C 0.17163 0.18186 0.36606 0.0
C572 C 0.18877 0.14979 0.39061 0.0
C573 C 0.22657 0.1156 0.34727 0.0
H574 H 0.19698 0.05146 0.40275 0.0
C575 C 0.24991 0.0098 0.3447 0.0
C576 C 0.25336 0.99775 0.36928 0.0
C577 C 0.24277 0.03426 0.34419 0.0
C578 C 0.20598 0.0695 0.38733 0.0
H579 H 0.17114 0.17665 0.32267 0.0
H580 H 0.18961 0.13861 0.32297 0.0
H581 H 0.17797 0.08881 0.40184 0.0
H582 H 0.25259 1.00208 0.41255 0.0
H583 H 0.24136 0.04545 0.41186 0.0
H584 H 0.25448 0.09611 0.33269 0.0
C585 C 0.18685 0.14778 0.34201 0.0
C586 C 0.19494 0.09098 0.38677 0.0
C587 C 0.17615 0.16961 0.34184 0.0
C588 C 0.25068 0.01136 0.39332 0.0
C589 C 0.2437 0.03589 0.39286 0.0
C590 C 0.23765 0.0941 0.34784 0.0
C591 C 0.1934 0.13757 0.36642 0.0
C592 C 0.20506 0.11442 0.36676 0.0
C593 C 0.2387 0.04712 0.36831 0.0
C594 C 0.22758 0.07071 0.36791 0.0
H595 H 0.17559 0.18086 0.40951 0.0
H596 H 0.19406 0.14306 0.40981 0.0
H597 H 0.23532 0.13352 0.33175 0.0
H598 H 0.25076 0.99896 0.3259 0.0
H599 H 0.23872 0.04183 0.32489 0.0
C600 C 0.01464 0.23775 0.33846 0.0
C601 C 0.01726 0.25796 0.35961 0.0
C602 C 0.98966 0.20656 0.33773 0.0
C603 C 0.91259 0.14944 0.36991 0.0
H604 H 0.93584 0.08827 0.34603 0.0
C605 C 0.83525 0.01527 0.39058 0.0
C606 C 0.83121 0.99443 0.36936 0.0
C607 C 0.85695 0.04761 0.38845 0.0
C608 C 0.92883 0.10503 0.35249 0.0
H609 H 0.99599 0.26188 0.3965 0.0
H610 H 0.95255 0.20707 0.39576 0.0
H611 H 0.97427 0.14437 0.34359 0.0
H612 H 0.84726 0.99139 0.32936 0.0
H613 H 0.88521 0.04792 0.32564 0.0
H614 H 0.86732 0.10971 0.37951 0.0
C615 C 0.96912 0.21541 0.37917 0.0
C616 C 0.95085 0.13733 0.35099 0.0
C617 C 0.99392 0.24687 0.37961 0.0
C618 C 0.84965 0.00678 0.34602 0.0
C619 C 0.87155 0.03914 0.34397 0.0
C620 C 0.89063 0.11706 0.37163 0.0
C621 C 0.96714 0.19455 0.35857 0.0
C622 C 0.94309 0.16008 0.35963 0.0
C623 C 0.87534 0.05998 0.36511 0.0
C624 C 0.89849 0.09446 0.36295 0.0
H625 H 0.03262 0.24579 0.32297 0.0
H626 H 0.98858 0.19162 0.32116 0.0
H627 H 0.90552 0.16611 0.37645 0.0
H628 H 0.82118 0.00668 0.40872 0.0
H629 H 0.8595 0.06292 0.40523 0.0
C630 C 0.24368 0.80013 0.37137 0.0
C631 C 0.22122 0.80879 0.3786 0.0
C632 C 0.23605 0.76833 0.37219 0.0
C633 C 0.17806 0.69023 0.40137 0.0
H634 H 0.20049 0.65519 0.34085 0.0
C635 C 0.11615 0.556 0.38265 0.0
C636 C 0.13418 0.54257 0.37382 0.0
C637 C 0.12928 0.5888 0.38405 0.0
C638 C 0.19438 0.66463 0.3581 0.0
H639 H 0.17336 0.79059 0.39314 0.0
H640 H 0.16025 0.73575 0.39457 0.0
H641 H 0.21958 0.71192 0.34264 0.0
H642 H 0.18044 0.5537 0.35933 0.0
H643 H 0.20326 0.61104 0.36155 0.0
H644 H 0.15257 0.64305 0.41671 0.0
C645 C 0.1838 0.75338 0.38834 0.0
C646 C 0.20537 0.69722 0.35914 0.0
C647 C 0.1913 0.78496 0.38732 0.0
C648 C 0.16568 0.56307 0.36598 0.0
C649 C 0.17881 0.59601 0.36729 0.0
C650 C 0.1671 0.65775 0.40033 0.0
C651 C 0.2059 0.7445 0.38056 0.0
C652 C 0.19686 0.71038 0.38057 0.0
C653 C 0.16084 0.60932 0.37657 0.0
C654 C 0.1746 0.64436 0.37845 0.0
H655 H 0.26696 0.8178 0.36456 0.0
H656 H 0.25376 0.76242 0.36629 0.0
H657 H 0.17157 0.69955 0.41848 0.0
H658 H 0.09162 0.54115 0.38824 0.0
H659 H 0.11444 0.5981 0.3907 0.0
C660 C 0.22365 0.41788 0.39506 0.0
C661 C 0.19959 0.42215 0.38411 0.0
C662 C 0.25513 0.44202 0.39418 0.0
C663 C 0.30999 0.51481 0.3571 0.0
H664 H 0.36691 0.52221 0.41453 0.0
C665 C 0.44567 0.60783 0.36025 0.0
C666 C 0.46517 0.59548 0.36746 0.0
C667 C 0.41265 0.58907 0.36185 0.0
C668 C 0.35134 0.52038 0.39827 0.0
H669 H 0.18991 0.45579 0.36421 0.0
H670 H 0.24518 0.49842 0.36308 0.0
H671 H 0.31041 0.48671 0.41976 0.0
H672 H 0.46474 0.55287 0.38033 0.0
H673 H 0.40766 0.52077 0.38376 0.0
H674 H 0.35139 0.54885 0.33576 0.0
C675 C 0.23955 0.47603 0.37203 0.0
C676 C 0.31889 0.49994 0.40122 0.0
C677 C 0.20782 0.4517 0.3729 0.0
C678 C 0.4507 0.5636 0.37538 0.0
C679 C 0.41789 0.54508 0.37727 0.0
C680 C 0.34258 0.53561 0.35427 0.0
C681 C 0.26368 0.47137 0.38245 0.0
C682 C 0.29778 0.49619 0.38042 0.0
C683 C 0.39847 0.55768 0.37095 0.0
C684 C 0.36365 0.53801 0.37458 0.0
H685 H 0.21836 0.39549 0.40381 0.0
H686 H 0.27291 0.43718 0.40198 0.0
H687 H 0.29456 0.51243 0.34055 0.0
H688 H 0.45587 0.63228 0.35423 0.0
H689 H 0.39827 0.59942 0.35684 0.0
C690 C 0.45128 0.90097 0.3798 0.0
C691 C 0.41823 0.88147 0.38038 0.0
C692 C 0.4711 0.88827 0.38317 0.0
C693 C 0.47351 0.81396 0.37765 0.0
H694 H 0.54973 0.86017 0.42007 0.0
C695 C 0.56141 0.76748 0.39387 0.0
C696 C 0.59376 0.79031 0.3934 0.0
C697 C 0.53837 0.77665 0.39452 0.0
C698 C 0.52876 0.84703 0.40788 0.0
H699 H 0.38032 0.83301 0.38492 0.0
H700 H 0.41496 0.81092 0.3911 0.0
H701 H 0.51318 0.87995 0.4165 0.0
H702 H 0.62688 0.84086 0.39323 0.0
H703 H 0.58734 0.85652 0.39373 0.0
H704 H 0.4895 0.7814 0.3685 0.0
C705 C 0.4255 0.8361 0.38785 0.0
C706 C 0.5077 0.85842 0.40588 0.0
C707 C 0.40562 0.84885 0.38461 0.0
C708 C 0.60233 0.82242 0.39387 0.0
C709 C 0.57946 0.83152 0.39432 0.0
C710 C 0.49475 0.80264 0.37948 0.0
C711 C 0.45854 0.85565 0.38718 0.0
C712 C 0.47998 0.84231 0.39045 0.0
C713 C 0.54709 0.80888 0.3946 0.0
C714 C 0.52298 0.81928 0.3943 0.0
H715 H 0.46194 0.92621 0.37688 0.0
H716 H 0.49639 0.90405 0.38222 0.0
H717 H 0.45251 0.80102 0.36544 0.0
H718 H 0.55385 0.74254 0.39346 0.0
H719 H 0.51373 0.75846 0.395 0.0
C720 C 0.66698 0.16609 0.7255 0.0
C721 C 0.6839 0.17281 0.70115 0.0
C722 C 0.63453 0.15529 0.72558 0.0
C723 C 0.56972 0.15076 0.68338 0.0
H724 H 0.51584 0.08524 0.73377 0.0
C725 C 0.43455 0.09488 0.67908 0.0
C726 C 0.4191 0.09111 0.70375 0.0
C727 C 0.46586 0.10146 0.67837 0.0
C728 C 0.53055 0.10369 0.71969 0.0
H729 H 0.67968 0.17402 0.65777 0.0
H730 H 0.6231 0.15476 0.65787 0.0
H731 H 0.5725 0.10468 0.73339 0.0
H732 H 0.42386 0.09104 0.747 0.0
H733 H 0.47856 0.10227 0.74595 0.0
H734 H 0.52789 0.14997 0.66978 0.0
C735 C 0.63499 0.15806 0.67698 0.0
C736 C 0.56312 0.11493 0.71951 0.0
C737 C 0.66746 0.16885 0.6769 0.0
C738 C 0.43505 0.09292 0.72772 0.0
C739 C 0.46643 0.09953 0.72705 0.0
C740 C 0.53719 0.13951 0.68354 0.0
C741 C 0.61799 0.15088 0.70131 0.0
C742 C 0.5832 0.1387 0.70139 0.0
C743 C 0.48257 0.10481 0.70237 0.0
C744 C 0.51711 0.11584 0.70171 0.0
H745 H 0.67865 0.16844 0.74458 0.0
H746 H 0.6224 0.15046 0.74474 0.0
H747 H 0.58441 0.16942 0.66945 0.0
H748 H 0.42288 0.09429 0.66038 0.0
H749 H 0.47729 0.10487 0.65899 0.0
C750 C 0.92762 0.34865 0.72096 0.0
C751 C 0.92313 0.32969 0.69827 0.0
C752 C 0.92201 0.37409 0.71957 0.0
C753 C 0.87483 0.4001 0.67974 0.0
H754 H 0.91959 0.4765 0.7224 0.0
C755 C 0.84535 0.50147 0.67476 0.0
C756 C 0.84522 0.516 0.69923 0.0
C757 C 0.85641 0.47998 0.67358 0.0
C758 C 0.90663 0.45517 0.71052 0.0
H759 H 0.90986 0.32262 0.65626 0.0
H760 H 0.90127 0.36766 0.65336 0.0
H761 H 0.93801 0.43849 0.72168 0.0
H762 H 0.85728 0.51943 0.7416 0.0
H763 H 0.87607 0.48184 0.73961 0.0
H764 H 0.84335 0.4167 0.66872 0.0
C765 C 0.90874 0.36286 0.6724 0.0
C766 C 0.91725 0.43332 0.71009 0.0
C767 C 0.91424 0.33739 0.67387 0.0
C768 C 0.85656 0.50845 0.72245 0.0
C769 C 0.86778 0.48715 0.72124 0.0
C770 C 0.86429 0.42199 0.68011 0.0
C771 C 0.91152 0.38098 0.69545 0.0
C772 C 0.9014 0.40532 0.69482 0.0
C773 C 0.86794 0.47261 0.69679 0.0
C774 C 0.87987 0.44975 0.69566 0.0
H775 H 0.93355 0.34261 0.74021 0.0
H776 H 0.9241 0.38711 0.73784 0.0
H777 H 0.8615 0.37859 0.66816 0.0
H778 H 0.83666 0.50653 0.65649 0.0
H779 H 0.85635 0.46947 0.65434 0.0
C780 C 0.69064 0.56517 0.6777 0.0
C781 C 0.68952 0.58858 0.6933 0.0
C782 C 0.66568 0.53398 0.67795 0.0
C783 C 0.58211 0.48052 0.69881 0.0
H784 H 0.60953 0.41867 0.70054 0.0
C785 C 0.49532 0.3465 0.71872 0.0
C786 C 0.49974 0.32459 0.70359 0.0
C787 C 0.51758 0.37894 0.71794 0.0
C788 C 0.6013 0.43547 0.69975 0.0
H789 H 0.66083 0.59786 0.7208 0.0
H790 H 0.6169 0.54293 0.72152 0.0
H791 H 0.64843 0.47445 0.69731 0.0
H792 H 0.53184 0.32017 0.67618 0.0
H793 H 0.57007 0.37639 0.67439 0.0
H794 H 0.53482 0.44121 0.70139 0.0
C795 C 0.63701 0.54887 0.7087 0.0
C796 C 0.62371 0.46765 0.69785 0.0
C797 C 0.66207 0.5804 0.7082 0.0
C798 C 0.52731 0.33616 0.68791 0.0
C799 C 0.54952 0.36854 0.68712 0.0
C800 C 0.55958 0.44818 0.70072 0.0
C801 C 0.63898 0.52501 0.69422 0.0
C802 C 0.61453 0.49071 0.69702 0.0
C803 C 0.54499 0.39049 0.70205 0.0
C804 C 0.56884 0.42513 0.70096 0.0
H805 H 0.71152 0.57079 0.66602 0.0
H806 H 0.66779 0.51664 0.6659 0.0
H807 H 0.57406 0.49747 0.69812 0.0
H808 H 0.47428 0.33871 0.73079 0.0
H809 H 0.51336 0.39496 0.72996 0.0
C810 C 0.78638 0.88767 0.70251 0.0
C811 C 0.80606 0.87473 0.70653 0.0
C812 C 0.79812 0.92022 0.70508 0.0
C813 C 0.87152 0.99833 0.70439 0.0
H814 H 0.81918 0.02565 0.74069 0.0
C815 C 0.91295 0.13196 0.72139 0.0
C816 C 0.88979 0.1408 0.71874 0.0
C817 C 0.90445 0.09987 0.72172 0.0
C818 C 0.83405 0.0186 0.73017 0.0
H819 H 0.85399 0.88653 0.716 0.0
H820 H 0.87441 0.94335 0.72067 0.0
H821 H 0.8012 0.9696 0.73701 0.0
H822 H 0.83942 0.12232 0.71406 0.0
H823 H 0.82497 0.06731 0.71394 0.0
H824 H 0.9041 0.0474 0.69704 0.0
C825 C 0.84982 0.92816 0.71541 0.0
C826 C 0.82369 0.98629 0.72812 0.0
C827 C 0.838 0.89549 0.71298 0.0
C828 C 0.85803 0.11669 0.71651 0.0
C829 C 0.84962 0.08485 0.71659 0.0
C830 C 0.88182 0.03076 0.70625 0.0
C831 C 0.82996 0.94095 0.7117 0.0
C832 C 0.84204 0.97562 0.71491 0.0
C833 C 0.8726 0.07579 0.71923 0.0
C834 C 0.86301 0.0414 0.71884 0.0
H835 H 0.7616 0.87256 0.69785 0.0
H836 H 0.78219 0.92918 0.70173 0.0
H837 H 0.88624 0.99101 0.69396 0.0
H838 H 0.93764 0.14981 0.72312 0.0
H839 H 0.92287 0.09397 0.72406 0.0
C840 C 0.88097 0.78269 0.71099 0.0
C841 C 0.87093 0.75326 0.72327 0.0
C842 C 0.91301 0.80642 0.71153 0.0
C843 C 0.98963 0.82967 0.74628 0.0
H844 H 0.02754 0.876 0.68064 0.0
C845 C 0.1249 0.89683 0.72935 0.0
C846 C 0.13881 0.92613 0.71601 0.0
C847 C 0.09199 0.87787 0.7312 0.0
C848 C 0.01732 0.86358 0.69927 0.0
H849 H 0.88685 0.72634 0.74652 0.0
H850 H 0.94192 0.76704 0.74724 0.0
H851 H 0.97056 0.84023 0.68272 0.0
H852 H 0.12845 0.95854 0.69469 0.0
H853 H 0.07122 0.92544 0.69778 0.0
H854 H 0.03639 0.85253 0.76268 0.0
C855 C 0.9253 0.7722 0.7374 0.0
C856 C 0.98454 0.84307 0.70049 0.0
C857 C 0.89352 0.74863 0.73682 0.0
C858 C 0.11873 0.93593 0.70472 0.0
C859 C 0.08581 0.91692 0.70651 0.0
C860 C 0.02236 0.85004 0.74503 0.0
C861 C 0.93571 0.80133 0.7245 0.0
C862 C 0.97024 0.82544 0.72389 0.0
C863 C 0.07193 0.88757 0.71974 0.0
C864 C 0.03677 0.867 0.72141 0.0
H865 H 0.86427 0.78709 0.70033 0.0
H866 H 0.92002 0.82867 0.70163 0.0
H867 H 0.97954 0.81707 0.76487 0.0
H868 H 0.13944 0.88816 0.73792 0.0
H869 H 0.08224 0.85522 0.74117 0.0
C870 C 0.26346 0.14579 0.72158 0.0
C871 C 0.25813 0.1167 0.71129 0.0
C872 C 0.2399 0.15388 0.72066 0.0
C873 C 0.16653 0.13632 0.68496 0.0
H874 H 0.16064 0.18616 0.74314 0.0
C875 C 0.07365 0.17855 0.6896 0.0
C876 C 0.08552 0.21014 0.69775 0.0
C877 C 0.09265 0.16459 0.69078 0.0
C878 C 0.16208 0.1724 0.72664 0.0
H879 H 0.22336 0.07303 0.69226 0.0
H880 H 0.18182 0.08707 0.69094 0.0
H881 H 0.19626 0.16528 0.74728 0.0
H882 H 0.12752 0.25219 0.712 0.0
H883 H 0.16013 0.22778 0.71454 0.0
H884 H 0.13209 0.1436 0.66442 0.0
C885 C 0.20454 0.10377 0.69948 0.0
C886 C 0.18256 0.16043 0.72899 0.0
C887 C 0.22827 0.09561 0.70042 0.0
C888 C 0.11717 0.22759 0.70627 0.0
C889 C 0.13597 0.21361 0.70768 0.0
C890 C 0.14577 0.14816 0.68269 0.0
C891 C 0.21013 0.13312 0.70951 0.0
C892 C 0.18566 0.14283 0.70795 0.0
C893 C 0.12386 0.18183 0.70034 0.0
C894 C 0.14384 0.16693 0.70329 0.0
H895 H 0.28614 0.16275 0.73004 0.0
H896 H 0.2454 0.1769 0.72815 0.0
H897 H 0.16841 0.12308 0.66826 0.0
H898 H 0.04937 0.16426 0.68311 0.0
H899 H 0.08262 0.14003 0.68502 0.0
C900 C 0.08036 0.35744 0.29519 0.0
C901 C 0.11115 0.36291 0.29903 0.0
C902 C 0.07253 0.36875 0.27247 0.0
C903 C 0.10305 0.42713 0.21752 0.0
H904 H 0.02277 0.36796 0.18498 0.0
C905 C 0.05141 0.44748 0.11673 0.0
C906 C 0.01834 0.43252 0.11525 0.0
C907 C 0.06618 0.44416 0.13986 0.0
C908 C 0.04505 0.38506 0.19396 0.0
H909 H 0.15812 0.38516 0.28194 0.0
H910 H 0.14429 0.40517 0.24161 0.0
H911 H 0.04255 0.35115 0.22235 0.0
H912 H 0.97511 0.40559 0.13777 0.0
H913 H 1.00054 0.40146 0.17832 0.0
H914 H 0.10521 0.46111 0.1888 0.0
C915 C 0.12629 0.39205 0.25653 0.0
C916 C 0.05651 0.3753 0.2154 0.0
C917 C 0.13417 0.38044 0.27949 0.0
C918 C 1.00066 0.41744 0.13832 0.0
C919 C 0.01527 0.41456 0.16142 0.0
C920 C 0.09147 0.43701 0.19587 0.0
C921 C 0.09517 0.38595 0.25263 0.0
C922 C 0.08531 0.39628 0.22792 0.0
C923 C 0.048 0.42611 0.16195 0.0
C924 C 0.06189 0.41623 0.18422 0.0
H925 H 0.06197 0.34409 0.30977 0.0
H926 H 0.04852 0.36402 0.27048 0.0
H927 H 0.12532 0.44391 0.2267 0.0
H928 H 0.06557 0.45917 0.09923 0.0
H929 H 0.09147 0.45367 0.13958 0.0
C930 C 0.67689 0.75071 0.28727 0.0
C931 C 0.65648 0.75137 0.30682 0.0
C932 C 0.66491 0.73009 0.26517 0.0
C933 C 0.59296 0.68257 0.22393 0.0
H934 H 0.63654 0.63819 0.20262 0.0
C935 C 0.58647 0.5814 0.14378 0.0
C936 C 0.58059 0.59231 0.1196 0.0
C937 C 0.58939 0.5972 0.16811 0.0
C938 C 0.62371 0.64999 0.2084 0.0
H939 H 0.60745 0.73171 0.31808 0.0
H940 H 0.58643 0.69567 0.27945 0.0
H941 H 0.65504 0.67324 0.24143 0.0
H942 H 0.57205 0.62764 0.10213 0.0
H943 H 0.577 0.65542 0.1445 0.0
H944 H 0.56168 0.65927 0.19064 0.0
C945 C 0.61173 0.71101 0.28121 0.0
C946 C 0.63468 0.67053 0.23053 0.0
C947 C 0.62377 0.73147 0.30346 0.0
C948 C 0.57542 0.61805 0.12057 0.0
C949 C 0.57867 0.63418 0.14492 0.0
C950 C 0.58207 0.6621 0.20156 0.0
C951 C 0.63216 0.70983 0.26186 0.0
C952 C 0.61964 0.68729 0.23856 0.0
C953 C 0.58722 0.62484 0.16882 0.0
C954 C 0.59733 0.64551 0.19345 0.0
H955 H 0.7022 0.76584 0.28924 0.0
H956 H 0.68137 0.73018 0.25053 0.0
H957 H 0.58088 0.69521 0.22941 0.0
H958 H 0.59124 0.56203 0.14355 0.0
H959 H 0.59518 0.58876 0.18614 0.0
C960 C 0.39571 0.95551 0.11072 0.0
C961 C 0.4211 0.98676 0.11141 0.0
C962 C 0.3781 0.9413 0.13417 0.0
C963 C 0.35696 0.9681 0.19594 0.0
H964 H 0.31584 0.88075 0.21906 0.0
C965 C 0.28874 0.93155 0.29536 0.0
C966 C 0.26002 0.90285 0.29687 0.0
C967 C 0.30866 0.93865 0.27313 0.0
C968 C 0.32689 0.90516 0.21269 0.0
H969 H 0.44932 0.02674 0.1373 0.0
H970 H 0.41991 1.00171 0.17822 0.0
H971 H 0.35183 0.89788 0.18024 0.0
H972 H 0.22987 0.85883 0.27608 0.0
H973 H 0.26459 0.87155 0.23657 0.0
H974 H 0.33191 0.9756 0.22759 0.0
C975 C 0.41296 0.98825 0.15964 0.0
C976 C 0.34763 0.915 0.19049 0.0
C977 C 0.43024 1.00243 0.13629 0.0
C978 C 0.25183 0.88117 0.2755 0.0
C979 C 0.27186 0.8884 0.25297 0.0
C980 C 0.33628 0.95833 0.21784 0.0
C981 C 0.3856 0.95821 0.15865 0.0
C982 C 0.36331 0.94677 0.1821 0.0
C983 C 0.3004 0.91752 0.25133 0.0
C984 C 0.32123 0.92686 0.22689 0.0
H985 H 0.38754 0.94322 0.09167 0.0
H986 H 0.35718 0.91818 0.1326 0.0
H987 H 0.36768 0.9925 0.1896 0.0
H988 H 0.29588 0.94884 0.31142 0.0
H989 H 0.33067 0.96096 0.27306 0.0
C990 C 0.45475 0.05076 0.95753 0.0
C991 C 0.43848 0.01852 0.96436 0.0
C992 C 0.44471 0.06193 0.93587 0.0
C993 C 0.37652 0.05053 0.89978 0.0
H994 H 0.42891 0.08704 0.83667 0.0
C995 C 0.32605 0.0755 0.80358 0.0
C996 C 0.34619 0.09689 0.78401 0.0
C997 C 0.33818 0.06893 0.82662 0.0
C998 C 0.41406 0.07766 0.85427 0.0
H999 H 0.39889 0.97274 0.95394 0.0
H1000 H 0.3806 0.9925 0.91662 0.0
H1001 H 0.44842 0.06973 0.8743 0.0
H1002 H 0.39509 0.12977 0.77449 0.0
H1003 H 0.41631 0.12023 0.8156 0.0
H1004 H 0.34275 0.05962 0.88096 0.0
C1005 C 0.40142 0.00898 0.92782 0.0
C1006 C 0.42527 0.06739 0.87578 0.0
C1007 C 0.41195 0.99766 0.94906 0.0
C1008 C 0.37884 0.11317 0.78912 0.0
C1009 C 0.39103 0.10715 0.81261 0.0
C1010 C 0.36561 0.06156 0.87866 0.0
C1011 C 0.41774 0.04122 0.92097 0.0
C1012 C 0.40641 0.05325 0.89856 0.0
C1013 C 0.37097 0.08414 0.83144 0.0
C1014 C 0.38388 0.07482 0.85518 0.0
H1015 H 0.4753 0.06735 0.96897 0.0
H1016 H 0.45765 0.08688 0.93109 0.0
H1017 H 0.36165 0.04011 0.91728 0.0
H1018 H 0.30076 0.06227 0.80039 0.0
H1019 H 0.32157 0.05068 0.83993 0.0
C1020 C 0.98653 0.3935 0.96069 0.0
C1021 C 0.98469 0.42094 0.965 0.0
C1022 C 0.97112 0.3735 0.93891 0.0
C1023 C 0.9411 0.37067 0.87082 0.0
H1024 H 0.89805 0.28016 0.8826 0.0
C1025 C 0.89746 0.28302 0.78085 0.0
C1026 C 0.9077 0.2609 0.78248 0.0
C1027 C 0.898 0.30021 0.80384 0.0
C1028 C 0.90996 0.30535 0.87887 0.0
H1029 H 0.96611 0.44952 0.94915 0.0
H1030 H 0.9396 0.41473 0.91037 0.0
H1031 H 0.91787 0.31614 0.92097 0.0
H1032 H 0.92458 0.238 0.80941 0.0
H1033 H 0.92454 0.26672 0.8493 0.0
H1034 H 0.93448 0.35991 0.82861 0.0
C1035 C 0.95265 0.40854 0.92427 0.0
C1036 C 0.92135 0.326 0.90091 0.0
C1037 C 0.9678 0.42844 0.94644 0.0
C1038 C 0.91588 0.25439 0.80773 0.0
C1039 C 0.91601 0.2711 0.83063 0.0
C1040 C 0.92986 0.34996 0.84867 0.0
C1041 C 0.95384 0.38059 0.92044 0.0
C1042 C 0.93791 0.35893 0.89715 0.0
C1043 C 0.90843 0.29524 0.82886 0.0
C1044 C 0.91498 0.317 0.85235 0.0
H1045 H 0.99973 0.38725 0.97438 0.0
H1046 H 0.97313 0.35258 0.93632 0.0
H1047 H 0.95382 0.3959 0.86719 0.0
H1048 H 0.89173 0.28902 0.76152 0.0
H1049 H 0.8917 0.31838 0.80174 0.0
C1050 C 0.7638 0.66934 0.80344 0.0
C1051 C 0.75154 0.64865 0.78139 0.0
C1052 C 0.74935 0.66022 0.82888 0.0
C1053 C 0.69815 0.64514 0.87107 0.0
H1054 H 0.65421 0.55875 0.8967 0.0
C1055 C 0.59813 0.60196 0.95113 0.0
C1056 C 0.5961 0.57993 0.97026 0.0
C1057 C 0.61911 0.61036 0.92928 0.0
C1058 C 0.66652 0.58312 0.89011 0.0
H1059 H 0.71563 0.60194 0.76881 0.0
H1060 H 0.69099 0.58571 0.81282 0.0
H1061 H 0.69041 0.57302 0.85888 0.0
H1062 H 0.61345 0.54845 0.98086 0.0
H1063 H 0.65043 0.56354 0.94351 0.0
H1064 H 0.67451 0.65529 0.90252 0.0
C1065 C 0.71187 0.60881 0.81098 0.0
C1066 C 0.68716 0.59126 0.86814 0.0
C1067 C 0.7262 0.61799 0.78568 0.0
C1068 C 0.61482 0.56588 0.96667 0.0
C1069 C 0.63584 0.57433 0.94502 0.0
C1070 C 0.67755 0.63701 0.89311 0.0
C1071 C 0.7223 0.63025 0.8327 0.0
C1072 C 0.70302 0.62231 0.85803 0.0
C1073 C 0.63847 0.5968 0.92598 0.0
C1074 C 0.66112 0.60578 0.90281 0.0
H1075 H 0.78266 0.69346 0.80051 0.0
H1076 H 0.75841 0.67724 0.84519 0.0
H1077 H 0.70949 0.6692 0.86375 0.0
H1078 H 0.58385 0.61303 0.95327 0.0
H1079 H 0.61994 0.6273 0.91485 0.0
C1080 C 0.68239 0.75941 0.47882 0.0
C1081 C 0.69627 0.76812 0.45325 0.0
C1082 C 0.6997 0.75899 0.50102 0.0
C1083 C 0.76631 0.74677 0.51716 0.0
H1084 H 0.74691 0.76023 0.59 0.0
C1085 C 0.81142 0.71369 0.61552 0.0
C1086 C 0.78719 0.69655 0.63426 0.0
C1087 C 0.80589 0.72773 0.59293 0.0
C1088 C 0.75268 0.75639 0.56979 0.0
H1089 H 0.73963 0.78399 0.43096 0.0
H1090 H 0.7703 0.7836 0.46994 0.0
H1091 H 0.72855 0.77819 0.55207 0.0
H1092 H 0.73793 0.67972 0.64327 0.0
H1093 H 0.7287 0.70448 0.60484 0.0
H1094 H 0.78995 0.72432 0.53521 0.0
C1095 C 0.7459 0.77722 0.47285 0.0
C1096 C 0.74209 0.76666 0.54798 0.0
C1097 C 0.72851 0.77805 0.45058 0.0
C1098 C 0.75737 0.69329 0.62962 0.0
C1099 C 0.75203 0.70757 0.60753 0.0
C1100 C 0.77713 0.73664 0.5391 0.0
C1101 C 0.73142 0.76678 0.49825 0.0
C1102 C 0.74776 0.76106 0.52129 0.0
C1103 C 0.77618 0.72522 0.58896 0.0
C1104 C 0.76951 0.74038 0.56567 0.0
H1105 H 0.65738 0.75082 0.48131 0.0
H1106 H 0.68743 0.75037 0.51998 0.0
H1107 H 0.77102 0.7418 0.49696 0.0
H1108 H 0.83459 0.71648 0.61843 0.0
H1109 H 0.82496 0.74106 0.57891 0.0
C1110 C 0.22899 0.9409 0.44675 0.0
C1111 C 0.24018 0.91945 0.44647 0.0
C1112 C 0.23171 0.95839 0.47021 0.0
C1113 C 0.2858 0.98864 0.52803 0.0
H1114 H 0.23134 0.01763 0.55742 0.0
C1115 C 0.31521 0.05309 0.62898 0.0
C1116 C 0.31133 0.07945 0.63249 0.0
C1117 C 0.30326 0.03374 0.60632 0.0
C1118 C 0.24695 0.01002 0.54923 0.0
H1119 H 0.25964 0.89696 0.47105 0.0
H1120 H 0.26275 0.92582 0.512 0.0
H1121 H 0.2135 0.98119 0.51869 0.0
H1122 H 0.29145 0.10601 0.6148 0.0
H1123 H 0.27072 0.07215 0.57446 0.0
H1124 H 0.31938 0.01738 0.55787 0.0
C1125 C 0.25296 0.93019 0.49407 0.0
C1126 C 0.23666 0.98904 0.52711 0.0
C1127 C 0.25064 0.91318 0.47071 0.0
C1128 C 0.29484 0.08588 0.61265 0.0
C1129 C 0.28282 0.06636 0.58967 0.0
C1130 C 0.29604 0.00951 0.54983 0.0
C1131 C 0.24544 0.95444 0.49373 0.0
C1132 C 0.25576 0.97755 0.51662 0.0
C1133 C 0.28729 0.04023 0.58606 0.0
C1134 C 0.2766 0.02005 0.5612 0.0
H1135 H 0.22114 0.94646 0.42829 0.0
H1136 H 0.22549 0.97672 0.46923 0.0
H1137 H 0.30168 0.98128 0.51997 0.0
H1138 H 0.32786 0.04742 0.64376 0.0
H1139 H 0.30668 0.01357 0.60467 0.0
C1140 C 0.95188 0.23387 0.63396 0.0
C1141 C 0.92942 0.24372 0.63525 0.0
C1142 C 0.97262 0.24214 0.61202 0.0
C1143 C 0.97964 0.26301 0.54043 0.0
H1144 H 0.06978 0.29792 0.54995 0.0
C1145 C 0.05798 0.28349 0.44882 0.0
C1146 C 0.08289 0.31468 0.44595 0.0
C1147 C 0.04309 0.27246 0.47371 0.0
C1148 C 0.04465 0.28809 0.547 0.0
H1149 H 0.91045 0.26917 0.6141 0.0
H1150 H 0.94598 0.28284 0.57539 0.0
H1151 H 0.03517 0.2841 0.58955 0.0
H1152 H 0.11297 0.35826 0.46723 0.0
H1153 H 0.08757 0.3387 0.51115 0.0
H1154 H 0.98883 0.26688 0.49807 0.0
C1155 C 0.94792 0.26913 0.59158 0.0
C1156 C 0.02482 0.28006 0.56964 0.0
C1157 C 0.92756 0.26132 0.61375 0.0
C1158 C 0.09454 0.33377 0.46905 0.0
C1159 C 0.07966 0.32266 0.49412 0.0
C1160 C 0.9993 0.27049 0.51789 0.0
C1161 C 0.97082 0.25977 0.59048 0.0
C1162 C 0.99208 0.26769 0.5666 0.0
C1163 C 0.05266 0.29244 0.49636 0.0
C1164 C 0.03208 0.28324 0.52082 0.0
H1165 H 0.95329 0.21956 0.64988 0.0
H1166 H 0.98962 0.23413 0.61163 0.0
H1167 H 0.95455 0.25333 0.53734 0.0
H1168 H 0.048 0.26855 0.43123 0.0
H1169 H 0.02268 0.24892 0.47479 0.0
loop_
_geom_bond_atom_site_label_1
_geom_bond_atom_site_label_2
_geom_bond_distance
_geom_bond_site_symmetry_2
_ccdc_geom_bond_type
Ho0 C3 2.811 . S
Ho0 O20 2.322 . S
Ho0 O22 2.378 . S
Ho0 O23 2.524 1_556 S
Ho0 O24 2.381 . S
Ho0 O25 2.669 1_455 S
Ho0 O27 2.346 1_456 S
Ho0 O31 2.305 1_556 S
Ho1 C12 2.811 . S
Ho1 O21 2.346 1_655 S
Ho1 O25 2.305 1_554 S
Ho1 O26 2.322 . S
Ho1 O28 2.378 . S
Ho1 O29 2.524 1_554 S
Ho1 O30 2.381 . S
Ho1 O31 2.669 1_655 S
C2 O20 1.259 . S
C2 O21 1.268 1_556 S
C3 Ho0 2.811 . S
C3 C4 1.488 . S
C3 O22 1.215 . S
C3 O23 1.289 1_556 S
C4 C3 1.488 . S
C4 C5 1.348 1_556 S
C4 C9 1.413 . S
C5 C4 1.348 1_554 S
C5 C6 1.442 . S
C5 H32 0.930 . S
C6 C5 1.442 . S
C6 C7 1.381 1_554 S
C6 H33 0.931 . S
C7 C6 1.381 1_556 S
C7 C8 1.321 . S
C8 C7 1.321 . S
C8 C9 1.403 . S
C8 H34 0.934 . S
C9 C4 1.413 . S
C9 C8 1.403 . S
C9 H35 0.930 . S
C10 O24 1.275 1_655 S
C10 O25 1.256 . S
C11 O26 1.259 . S
C11 O27 1.268 . S
C12 Ho1 2.811 . S
C12 C13 1.488 . S
C12 O28 1.215 . S
C12 O29 1.289 1_554 S
C13 C12 1.488 . S
C13 C14 1.348 1_554 S
C13 C18 1.413 . S
C14 C13 1.348 1_556 S
C14 C15 1.442 . S
C14 H36 0.930 . S
C15 C14 1.442 . S
C15 C16 1.381 1_556 S
C15 H37 0.931 . S
C16 C15 1.381 1_554 S
C16 C17 1.321 . S
C17 C16 1.321 . S
C17 C18 1.403 . S
C17 H38 0.934 . S
C18 C13 1.413 . S
C18 C17 1.403 . S
C18 H39 0.930 . S
C19 O30 1.275 1_455 S
C19 O31 1.256 . S
O20 Ho0 2.322 . S
O20 C2 1.259 . S
O21 Ho1 2.346 1_455 S
O21 C2 1.268 1_554 S
O22 Ho0 2.378 . S
O22 C3 1.215 . S
O23 Ho0 2.524 1_554 S
O23 C3 1.289 1_554 S
O24 Ho0 2.381 . S
O24 C10 1.275 1_455 S
O25 Ho0 2.669 1_655 S
O25 Ho1 2.305 1_556 S
O25 C10 1.256 . S
O26 Ho1 2.322 . S
O26 C11 1.259 . S
O27 Ho0 2.346 1_654 S
O27 C11 1.268 . S
O28 Ho1 2.378 . S
O28 C12 1.215 . S
O29 Ho1 2.524 1_556 S
O29 C12 1.289 1_556 S
O30 Ho1 2.381 . S
O30 C19 1.275 1_655 S
O31 Ho0 2.305 1_554 S
O31 Ho1 2.669 1_455 S
O31 C19 1.256 . S
H32 C5 0.930 . S
H33 C6 0.931 . S
H34 C8 0.934 . S
H35 C9 0.930 . S
H36 C14 0.930 . S
H37 C15 0.931 . S
H38 C17 0.934 . S
H39 C18 0.930 . S
Ho40 C43 2.811 . S
Ho40 O60 2.322 . S
Ho40 O62 2.378 . S
Ho40 O63 2.524 1_556 S
Ho40 O64 2.381 . S
Ho40 O65 2.669 . S
Ho40 O67 2.346 1_556 S
Ho40 O71 2.305 1_556 S
Ho41 C52 2.811 . S
Ho41 O61 2.346 . S
Ho41 O65 2.305 1_554 S
Ho41 O66 2.322 . S
Ho41 O68 2.378 . S
Ho41 O69 2.524 1_554 S
Ho41 O70 2.381 . S
Ho41 O71 2.669 . S
C42 O60 1.259 . S
C42 O61 1.268 1_556 S
C43 Ho40 2.811 . S
C43 C44 1.488 . S
C43 O62 1.215 . S
C43 O63 1.289 1_556 S
C44 C43 1.488 . S
C44 C45 1.348 1_556 S
C44 C49 1.413 . S
C45 C44 1.348 1_554 S
C45 C46 1.442 . S
C45 H72 0.930 . S
C46 C45 1.442 . S
C46 C47 1.381 1_554 S
C46 H73 0.931 . S
C47 C46 1.381 1_556 S
C47 C48 1.321 . S
C48 C47 1.321 . S
C48 C49 1.403 . S
C48 H74 0.934 . S
C49 C44 1.413 . S
C49 C48 1.403 . S
C49 H75 0.930 . S
C50 O64 1.275 . S
C50 O65 1.256 . S
C51 O66 1.259 . S
C51 O67 1.268 . S
C52 Ho41 2.811 . S
C52 C53 1.488 . S
C52 O68 1.215 . S
C52 O69 1.289 1_554 S
C53 C52 1.488 . S
C53 C54 1.348 1_554 S
C53 C58 1.413 . S
C54 C53 1.348 1_556 S
C54 C55 1.442 . S
C54 H76 0.930 . S
C55 C54 1.442 . S
C55 C56 1.381 1_556 S
C55 H77 0.931 . S
C56 C55 1.381 1_554 S
C56 C57 1.321 . S
C57 C56 1.321 . S
C57 C58 1.403 . S
C57 H78 0.934 . S
C58 C53 1.413 . S
C58 C57 1.403 . S
C58 H79 0.930 . S
C59 O70 1.275 . S
C59 O71 1.256 . S
O60 Ho40 2.322 . S
O60 C42 1.259 . S
O61 Ho41 2.346 . S
O61 C42 1.268 1_554 S
O62 Ho40 2.378 . S
O62 C43 1.215 . S
O63 Ho40 2.524 1_554 S
O63 C43 1.289 1_554 S
O64 Ho40 2.381 . S
O64 C50 1.275 . S
O65 Ho40 2.669 . S
O65 Ho41 2.305 1_556 S
O65 C50 1.256 . S
O66 Ho41 2.322 . S
O66 C51 1.259 . S
O67 Ho40 2.346 1_554 S
O67 C51 1.268 . S
O68 Ho41 2.378 . S
O68 C52 1.215 . S
O69 Ho41 2.524 1_556 S
O69 C52 1.289 1_556 S
O70 Ho41 2.381 . S
O70 C59 1.275 . S
O71 Ho40 2.305 1_554 S
O71 Ho41 2.669 . S
O71 C59 1.256 . S
H72 C45 0.930 . S
H73 C46 0.931 . S
H74 C48 0.934 . S
H75 C49 0.930 . S
H76 C54 0.930 . S
H77 C55 0.931 . S
H78 C57 0.934 . S
H79 C58 0.930 . S
Ho80 C83 2.811 . S
Ho80 O100 2.322 . S
Ho80 O102 2.378 . S
Ho80 O103 2.524 1_556 S
Ho80 O104 2.381 . S
Ho80 O105 2.669 1_565 S
Ho80 O107 2.346 1_566 S
Ho80 O111 2.305 1_556 S
Ho81 C92 2.811 . S
Ho81 O101 2.346 1_545 S
Ho81 O105 2.305 1_554 S
Ho81 O106 2.322 . S
Ho81 O108 2.378 . S
Ho81 O109 2.524 1_554 S
Ho81 O110 2.381 . S
Ho81 O111 2.669 1_545 S
C82 O100 1.259 . S
C82 O101 1.268 1_556 S
C83 Ho80 2.811 . S
C83 C84 1.488 . S
C83 O102 1.215 . S
C83 O103 1.289 1_556 S
C84 C83 1.488 . S
C84 C85 1.348 1_556 S
C84 C89 1.413 . S
C85 C84 1.348 1_554 S
C85 C86 1.442 . S
C85 H112 0.930 . S
C86 C85 1.442 . S
C86 C87 1.381 1_554 S
C86 H113 0.931 . S
C87 C86 1.381 1_556 S
C87 C88 1.321 . S
C88 C87 1.321 . S
C88 C89 1.403 . S
C88 H114 0.934 . S
C89 C84 1.413 . S
C89 C88 1.403 . S
C89 H115 0.930 . S
C90 O104 1.275 1_545 S
C90 O105 1.256 . S
C91 O106 1.259 . S
C91 O107 1.268 . S
C92 Ho81 2.811 . S
C92 C93 1.488 . S
C92 O108 1.215 . S
C92 O109 1.289 1_554 S
C93 C92 1.488 . S
C93 C94 1.348 1_554 S
C93 C98 1.413 . S
C94 C93 1.348 1_556 S
C94 C95 1.442 . S
C94 H116 0.930 . S
C95 C94 1.442 . S
C95 C96 1.381 1_556 S
C95 H117 0.931 . S
C96 C95 1.381 1_554 S
C96 C97 1.321 . S
C97 C96 1.321 . S
C97 C98 1.403 . S
C97 H118 0.934 . S
C98 C93 1.413 . S
C98 C97 1.403 . S
C98 H119 0.930 . S
C99 O110 1.275 1_565 S
C99 O111 1.256 . S
O100 Ho80 2.322 . S
O100 C82 1.259 . S
O101 Ho81 2.346 1_565 S
O101 C82 1.268 1_554 S
O102 Ho80 2.378 . S
O102 C83 1.215 . S
O103 Ho80 2.524 1_554 S
O103 C83 1.289 1_554 S
O104 Ho80 2.381 . S
O104 C90 1.275 1_565 S
O105 Ho80 2.669 1_545 S
O105 Ho81 2.305 1_556 S
O105 C90 1.256 . S
O106 Ho81 2.322 . S
O106 C91 1.259 . S
O107 Ho80 2.346 1_544 S
O107 C91 1.268 . S
O108 Ho81 2.378 . S
O108 C92 1.215 . S
O109 Ho81 2.524 1_556 S
O109 C92 1.289 1_556 S
O110 Ho81 2.381 . S
O110 C99 1.275 1_545 S
O111 Ho80 2.305 1_554 S
O111 Ho81 2.669 1_565 S
O111 C99 1.256 . S
H112 C85 0.930 . S
H113 C86 0.931 . S
H114 C88 0.934 . S
H115 C89 0.930 . S
H116 C94 0.930 . S
H117 C95 0.931 . S
H118 C97 0.934 . S
H119 C98 0.930 . S
Ho120 C123 2.811 . S
Ho120 O140 2.322 . S
Ho120 O142 2.378 . S
Ho120 O143 2.524 . S
Ho120 O144 2.381 . S
Ho120 O145 2.669 . S
Ho120 O147 2.346 . S
Ho120 O151 2.305 . S
Ho121 C132 2.811 . S
Ho121 O141 2.346 . S
Ho121 O145 2.305 . S
Ho121 O146 2.322 . S
Ho121 O148 2.378 . S
Ho121 O149 2.524 . S
Ho121 O150 2.381 . S
Ho121 O151 2.669 . S
C122 O140 1.259 . S
C122 O141 1.268 . S
C123 Ho120 2.811 . S
C123 C124 1.488 . S
C123 O142 1.215 . S
C123 O143 1.289 . S
C124 C123 1.488 . S
C124 C125 1.348 . S
C124 C129 1.413 . S
C125 C124 1.348 . S
C125 C126 1.442 . S
C125 H152 0.930 . S
C126 C125 1.442 . S
C126 C127 1.381 . S
C126 H153 0.931 . S
C127 C126 1.381 . S
C127 C128 1.321 . S
C128 C127 1.321 . S
C128 C129 1.403 . S
C128 H154 0.934 . S
C129 C124 1.413 . S
C129 C128 1.403 . S
C129 H155 0.930 . S
C130 O144 1.275 . S
C130 O145 1.256 . S
C131 O146 1.259 . S
C131 O147 1.268 . S
C132 Ho121 2.811 . S
C132 C133 1.488 . S
C132 O148 1.215 . S
C132 O149 1.289 . S
C133 C132 1.488 . S
C133 C134 1.348 . S
C133 C138 1.413 . S
C134 C133 1.348 . S
C134 C135 1.442 . S
C134 H156 0.930 . S
C135 C134 1.442 . S
C135 C136 1.381 . S
C135 H157 0.931 . S
C136 C135 1.381 . S
C136 C137 1.321 . S
C137 C136 1.321 . S
C137 C138 1.403 . S
C137 H158 0.934 . S
C138 C133 1.413 . S
C138 C137 1.403 . S
C138 H159 0.930 . S
C139 O150 1.275 . S
C139 O151 1.256 . S
O140 Ho120 2.322 . S
O140 C122 1.259 . S
O141 Ho121 2.346 . S
O141 C122 1.268 . S
O142 Ho120 2.378 . S
O142 C123 1.215 . S
O143 Ho120 2.524 . S
O143 C123 1.289 . S
O144 Ho120 2.381 . S
O144 C130 1.275 . S
O145 Ho120 2.669 . S
O145 Ho121 2.305 . S
O145 C130 1.256 . S
O146 Ho121 2.322 . S
O146 C131 1.259 . S
O147 Ho120 2.346 . S
O147 C131 1.268 . S
O148 Ho121 2.378 . S
O148 C132 1.215 . S
O149 Ho121 2.524 . S
O149 C132 1.289 . S
O150 Ho121 2.381 . S
O150 C139 1.275 . S
O151 Ho120 2.305 . S
O151 Ho121 2.669 . S
O151 C139 1.256 . S
H152 C125 0.930 . S
H153 C126 0.931 . S
H154 C128 0.934 . S
H155 C129 0.930 . S
H156 C134 0.930 . S
H157 C135 0.931 . S
H158 C137 0.934 . S
H159 C138 0.930 . S
Ho160 C163 2.811 . S
Ho160 O180 2.322 . S
Ho160 O182 2.378 . S
Ho160 O183 2.524 . S
Ho160 O184 2.381 . S
Ho160 O185 2.669 . S
Ho160 O187 2.346 . S
Ho160 O191 2.305 . S
Ho161 C172 2.811 . S
Ho161 O181 2.346 . S
Ho161 O185 2.305 . S
Ho161 O186 2.322 . S
Ho161 O188 2.378 . S
Ho161 O189 2.524 . S
Ho161 O190 2.381 . S
Ho161 O191 2.669 . S
C162 O180 1.259 . S
C162 O181 1.268 . S
C163 Ho160 2.811 . S
C163 C164 1.488 . S
C163 O182 1.215 . S
C163 O183 1.289 . S
C164 C163 1.488 . S
C164 C165 1.348 . S
C164 C169 1.413 . S
C165 C164 1.348 . S
C165 C166 1.442 . S
C165 H192 0.930 . S
C166 C165 1.442 . S
C166 C167 1.381 . S
C166 H193 0.931 . S
C167 C166 1.381 . S
C167 C168 1.321 . S
C168 C167 1.321 . S
C168 C169 1.403 . S
C168 H194 0.934 . S
C169 C164 1.413 . S
C169 C168 1.403 . S
C169 H195 0.930 . S
C170 O184 1.275 . S
C170 O185 1.256 . S
C171 O186 1.259 . S
C171 O187 1.268 . S
C172 Ho161 2.811 . S
C172 C173 1.488 . S
C172 O188 1.215 . S
C172 O189 1.289 . S
C173 C172 1.488 . S
C173 C174 1.348 . S
C173 C178 1.413 . S
C174 C173 1.348 . S
C174 C175 1.442 . S
C174 H196 0.930 . S
C175 C174 1.442 . S
C175 C176 1.381 . S
C175 H197 0.931 . S
C176 C175 1.381 . S
C176 C177 1.321 . S
C177 C176 1.321 . S
C177 C178 1.403 . S
C177 H198 0.934 . S
C178 C173 1.413 . S
C178 C177 1.403 . S
C178 H199 0.930 . S
C179 O190 1.275 . S
C179 O191 1.256 . S
O180 Ho160 2.322 . S
O180 C162 1.259 . S
O181 Ho161 2.346 . S
O181 C162 1.268 . S
O182 Ho160 2.378 . S
O182 C163 1.215 . S
O183 Ho160 2.524 . S
O183 C163 1.289 . S
O184 Ho160 2.381 . S
O184 C170 1.275 . S
O185 Ho160 2.669 . S
O185 Ho161 2.305 . S
O185 C170 1.256 . S
O186 Ho161 2.322 . S
O186 C171 1.259 . S
O187 Ho160 2.346 . S
O187 C171 1.268 . S
O188 Ho161 2.378 . S
O188 C172 1.215 . S
O189 Ho161 2.524 . S
O189 C172 1.289 . S
O190 Ho161 2.381 . S
O190 C179 1.275 . S
O191 Ho160 2.305 . S
O191 Ho161 2.669 . S
O191 C179 1.256 . S
H192 C165 0.930 . S
H193 C166 0.931 . S
H194 C168 0.934 . S
H195 C169 0.930 . S
H196 C174 0.930 . S
H197 C175 0.931 . S
H198 C177 0.934 . S
H199 C178 0.930 . S
Ho200 C203 2.811 . S
Ho200 O220 2.322 . S
Ho200 O222 2.378 . S
Ho200 O223 2.524 . S
Ho200 O224 2.381 . S
Ho200 O225 2.669 . S
Ho200 O227 2.346 . S
Ho200 O231 2.305 . S
Ho201 C212 2.811 . S
Ho201 O221 2.346 . S
Ho201 O225 2.305 . S
Ho201 O226 2.322 . S
Ho201 O228 2.378 . S
Ho201 O229 2.524 . S
Ho201 O230 2.381 . S
Ho201 O231 2.669 . S
C202 O220 1.259 . S
C202 O221 1.268 . S
C203 Ho200 2.811 . S
C203 C204 1.488 . S
C203 O222 1.215 . S
C203 O223 1.289 . S
C204 C203 1.488 . S
C204 C205 1.348 . S
C204 C209 1.413 . S
C205 C204 1.348 . S
C205 C206 1.442 . S
C205 H232 0.930 . S
C206 C205 1.442 . S
C206 C207 1.381 . S
C206 H233 0.931 . S
C207 C206 1.381 . S
C207 C208 1.321 . S
C208 C207 1.321 . S
C208 C209 1.403 . S
C208 H234 0.934 . S
C209 C204 1.413 . S
C209 C208 1.403 . S
C209 H235 0.930 . S
C210 O224 1.275 . S
C210 O225 1.256 . S
C211 O226 1.259 . S
C211 O227 1.268 . S
C212 Ho201 2.811 . S
C212 C213 1.488 . S
C212 O228 1.215 . S
C212 O229 1.289 . S
C213 C212 1.488 . S
C213 C214 1.348 . S
C213 C218 1.413 . S
C214 C213 1.348 . S
C214 C215 1.442 . S
C214 H236 0.930 . S
C215 C214 1.442 . S
C215 C216 1.381 . S
C215 H237 0.931 . S
C216 C215 1.381 . S
C216 C217 1.321 . S
C217 C216 1.321 . S
C217 C218 1.403 . S
C217 H238 0.934 . S
C218 C213 1.413 . S
C218 C217 1.403 . S
C218 H239 0.930 . S
C219 O230 1.275 . S
C219 O231 1.256 . S
O220 Ho200 2.322 . S
O220 C202 1.259 . S
O221 Ho201 2.346 . S
O221 C202 1.268 . S
O222 Ho200 2.378 . S
O222 C203 1.215 . S
O223 Ho200 2.524 . S
O223 C203 1.289 . S
O224 Ho200 2.381 . S
O224 C210 1.275 . S
O225 Ho200 2.669 . S
O225 Ho201 2.305 . S
O225 C210 1.256 . S
O226 Ho201 2.322 . S
O226 C211 1.259 . S
O227 Ho200 2.346 . S
O227 C211 1.268 . S
O228 Ho201 2.378 . S
O228 C212 1.215 . S
O229 Ho201 2.524 . S
O229 C212 1.289 . S
O230 Ho201 2.381 . S
O230 C219 1.275 . S
O231 Ho200 2.305 . S
O231 Ho201 2.669 . S
O231 C219 1.256 . S
H232 C205 0.930 . S
H233 C206 0.931 . S
H234 C208 0.934 . S
H235 C209 0.930 . S
H236 C214 0.930 . S
H237 C215 0.931 . S
H238 C217 0.934 . S
H239 C218 0.930 . S
Ho240 C243 2.811 . S
Ho240 O260 2.322 . S
Ho240 O262 2.378 . S
Ho240 O263 2.524 . S
Ho240 O264 2.381 . S
Ho240 O265 2.669 . S
Ho240 O267 2.346 . S
Ho240 O271 2.305 . S
Ho241 C252 2.811 . S
Ho241 O261 2.346 . S
Ho241 O265 2.305 . S
Ho241 O266 2.322 . S
Ho241 O268 2.378 . S
Ho241 O269 2.524 . S
Ho241 O270 2.381 . S
Ho241 O271 2.669 . S
C242 O260 1.259 . S
C242 O261 1.268 . S
C243 Ho240 2.811 . S
C243 C244 1.488 . S
C243 O262 1.215 . S
C243 O263 1.289 . S
C244 C243 1.488 . S
C244 C245 1.348 . S
C244 C249 1.413 . S
C245 C244 1.348 . S
C245 C246 1.442 . S
C245 H272 0.930 . S
C246 C245 1.442 . S
C246 C247 1.381 . S
C246 H273 0.931 . S
C247 C246 1.381 . S
C247 C248 1.321 . S
C248 C247 1.321 . S
C248 C249 1.403 . S
C248 H274 0.934 . S
C249 C244 1.413 . S
C249 C248 1.403 . S
C249 H275 0.930 . S
C250 O264 1.275 . S
C250 O265 1.256 . S
C251 O266 1.259 . S
C251 O267 1.268 . S
C252 Ho241 2.811 . S
C252 C253 1.488 1_545 S
C252 O268 1.215 . S
C252 O269 1.289 . S
C253 C252 1.488 1_565 S
C253 C254 1.348 . S
C253 C258 1.413 . S
C254 C253 1.348 . S
C254 C255 1.442 . S
C254 H276 0.930 1_565 S
C255 C254 1.442 . S
C255 C256 1.381 . S
C255 H277 0.931 . S
C256 C255 1.381 . S
C256 C257 1.321 . S
C257 C256 1.321 . S
C257 C258 1.403 . S
C257 H278 0.934 . S
C258 C253 1.413 . S
C258 C257 1.403 . S
C258 H279 0.930 . S
C259 O270 1.275 . S
C259 O271 1.256 . S
O260 Ho240 2.322 . S
O260 C242 1.259 . S
O261 Ho241 2.346 . S
O261 C242 1.268 . S
O262 Ho240 2.378 . S
O262 C243 1.215 . S
O263 Ho240 2.524 . S
O263 C243 1.289 . S
O264 Ho240 2.381 . S
O264 C250 1.275 . S
O265 Ho240 2.669 . S
O265 Ho241 2.305 . S
O265 C250 1.256 . S
O266 Ho241 2.322 . S
O266 C251 1.259 . S
O267 Ho240 2.346 . S
O267 C251 1.268 . S
O268 Ho241 2.378 . S
O268 C252 1.215 . S
O269 Ho241 2.524 . S
O269 C252 1.289 . S
O270 Ho241 2.381 . S
O270 C259 1.275 . S
O271 Ho240 2.305 . S
O271 Ho241 2.669 . S
O271 C259 1.256 . S
H272 C245 0.930 . S
H273 C246 0.931 . S
H274 C248 0.934 . S
H275 C249 0.930 . S
H276 C254 0.930 1_545 S
H277 C255 0.931 . S
H278 C257 0.934 . S
H279 C258 0.930 . S
Ho280 C283 2.811 . S
Ho280 O300 2.322 . S
Ho280 O302 2.378 . S
Ho280 O303 2.524 . S
Ho280 O304 2.381 . S
Ho280 O305 2.669 . S
Ho280 O307 2.346 . S
Ho280 O311 2.305 . S
Ho281 C292 2.811 . S
Ho281 O301 2.346 . S
Ho281 O305 2.305 . S
Ho281 O306 2.322 . S
Ho281 O308 2.378 . S
Ho281 O309 2.524 . S
Ho281 O310 2.381 . S
Ho281 O311 2.669 . S
C282 O300 1.259 . S
C282 O301 1.268 . S
C283 Ho280 2.811 . S
C283 C284 1.488 . S
C283 O302 1.215 . S
C283 O303 1.289 . S
C284 C283 1.488 . S
C284 C285 1.348 . S
C284 C289 1.413 . S
C285 C284 1.348 . S
C285 C286 1.442 . S
C285 H312 0.930 . S
C286 C285 1.442 . S
C286 C287 1.381 . S
C286 H313 0.931 . S
C287 C286 1.381 . S
C287 C288 1.321 . S
C288 C287 1.321 . S
C288 C289 1.403 . S
C288 H314 0.934 . S
C289 C284 1.413 . S
C289 C288 1.403 . S
C289 H315 0.930 . S
C290 O304 1.275 . S
C290 O305 1.256 . S
C291 O306 1.259 . S
C291 O307 1.268 . S
C292 Ho281 2.811 . S
C292 C293 1.488 1_655 S
C292 O308 1.215 . S
C292 O309 1.289 . S
C293 C292 1.488 1_455 S
C293 C294 1.348 . S
C293 C298 1.413 . S
C294 C293 1.348 . S
C294 C295 1.442 . S
C294 H316 0.930 1_455 S
C295 C294 1.442 . S
C295 C296 1.381 . S
C295 H317 0.931 . S
C296 C295 1.381 . S
C296 C297 1.321 . S
C297 C296 1.321 . S
C297 C298 1.403 . S
C297 H318 0.934 . S
C298 C293 1.413 . S
C298 C297 1.403 . S
C298 H319 0.930 . S
C299 O310 1.275 . S
C299 O311 1.256 . S
O300 Ho280 2.322 . S
O300 C282 1.259 . S
O301 Ho281 2.346 . S
O301 C282 1.268 . S
O302 Ho280 2.378 . S
O302 C283 1.215 . S
O303 Ho280 2.524 . S
O303 C283 1.289 . S
O304 Ho280 2.381 . S
O304 C290 1.275 . S
O305 Ho280 2.669 . S
O305 Ho281 2.305 . S
O305 C290 1.256 . S
O306 Ho281 2.322 . S
O306 C291 1.259 . S
O307 Ho280 2.346 . S
O307 C291 1.268 . S
O308 Ho281 2.378 . S
O308 C292 1.215 . S
O309 Ho281 2.524 . S
O309 C292 1.289 . S
O310 Ho281 2.381 . S
O310 C299 1.275 . S
O311 Ho280 2.305 . S
O311 Ho281 2.669 . S
O311 C299 1.256 . S
H312 C285 0.930 . S
H313 C286 0.931 . S
H314 C288 0.934 . S
H315 C289 0.930 . S
H316 C294 0.930 1_655 S
H317 C295 0.931 . S
H318 C297 0.934 . S
H319 C298 0.930 . S
Ho320 C323 2.811 . S
Ho320 O340 2.322 . S
Ho320 O342 2.378 . S
Ho320 O343 2.524 . S
Ho320 O344 2.381 . S
Ho320 O345 2.669 . S
Ho320 O347 2.346 . S
Ho320 O351 2.305 . S
Ho321 C332 2.811 . S
Ho321 O341 2.346 . S
Ho321 O345 2.305 . S
Ho321 O346 2.322 . S
Ho321 O348 2.378 . S
Ho321 O349 2.524 . S
Ho321 O350 2.381 . S
Ho321 O351 2.669 . S
C322 O340 1.259 . S
C322 O341 1.268 . S
C323 Ho320 2.811 . S
C323 C324 1.488 . S
C323 O342 1.215 . S
C323 O343 1.289 . S
C324 C323 1.488 . S
C324 C325 1.348 . S
C324 C329 1.413 . S
C325 C324 1.348 . S
C325 C326 1.442 . S
C325 H352 0.930 . S
C326 C325 1.442 . S
C326 C327 1.381 . S
C326 H353 0.931 . S
C327 C326 1.381 . S
C327 C328 1.321 . S
C328 C327 1.321 . S
C328 C329 1.403 . S
C328 H354 0.934 . S
C329 C324 1.413 . S
C329 C328 1.403 . S
C329 H355 0.930 . S
C330 O344 1.275 . S
C330 O345 1.256 . S
C331 O346 1.259 . S
C331 O347 1.268 . S
C332 Ho321 2.811 . S
C332 C333 1.488 . S
C332 O348 1.215 . S
C332 O349 1.289 . S
C333 C332 1.488 . S
C333 C334 1.348 . S
C333 C338 1.413 . S
C334 C333 1.348 . S
C334 C335 1.442 . S
C334 H356 0.930 . S
C335 C334 1.442 . S
C335 C336 1.381 . S
C335 H357 0.931 . S
C336 C335 1.381 . S
C336 C337 1.321 . S
C337 C336 1.321 . S
C337 C338 1.403 . S
C337 H358 0.934 . S
C338 C333 1.413 . S
C338 C337 1.403 . S
C338 H359 0.930 . S
C339 O350 1.275 . S
C339 O351 1.256 . S
O340 Ho320 2.322 . S
O340 C322 1.259 . S
O341 Ho321 2.346 . S
O341 C322 1.268 . S
O342 Ho320 2.378 . S
O342 C323 1.215 . S
O343 Ho320 2.524 . S
O343 C323 1.289 . S
O344 Ho320 2.381 . S
O344 C330 1.275 . S
O345 Ho320 2.669 . S
O345 Ho321 2.305 . S
O345 C330 1.256 . S
O346 Ho321 2.322 . S
O346 C331 1.259 . S
O347 Ho320 2.346 . S
O347 C331 1.268 . S
O348 Ho321 2.378 . S
O348 C332 1.215 . S
O349 Ho321 2.524 . S
O349 C332 1.289 . S
O350 Ho321 2.381 . S
O350 C339 1.275 . S
O351 Ho320 2.305 . S
O351 Ho321 2.669 . S
O351 C339 1.256 . S
H352 C325 0.930 . S
H353 C326 0.931 . S
H354 C328 0.934 . S
H355 C329 0.930 . S
H356 C334 0.930 . S
H357 C335 0.931 . S
H358 C337 0.934 . S
H359 C338 0.930 . S
C360 C361 1.349 1_554 S
C360 C362 1.327 . S
C360 H385 0.950 . S
C361 C360 1.349 1_556 S
C361 C377 1.349 . S
C362 C360 1.327 . S
C362 C381 1.429 1_554 S
C362 H386 0.950 . S
C363 C380 1.574 . S
C363 C382 1.368 . S
C363 H387 0.949 . S
H364 C368 0.949 . S
C365 C366 1.349 . S
C365 C367 1.327 . S
C365 H388 0.950 . S
C366 C365 1.349 . S
C366 C378 1.349 1_556 S
C367 C365 1.327 . S
C367 C383 1.429 . S
C367 H389 0.950 . S
C368 H364 0.949 . S
C368 C376 1.574 . S
C368 C384 1.368 1_554 S
H369 C377 0.950 . S
H370 C375 0.950 . S
H371 C376 0.949 . S
H372 C378 0.950 . S
H373 C379 0.950 . S
H374 C380 0.949 . S
C375 H370 0.950 . S
C375 C377 1.327 . S
C375 C381 1.429 . S
C376 C368 1.574 . S
C376 H371 0.949 . S
C376 C382 1.368 1_554 S
C377 C361 1.349 . S
C377 H369 0.950 . S
C377 C375 1.327 . S
C378 C366 1.349 1_554 S
C378 H372 0.950 . S
C378 C379 1.327 . S
C379 H373 0.950 . S
C379 C378 1.327 . S
C379 C383 1.429 1_554 S
C380 C363 1.574 . S
C380 H374 0.949 . S
C380 C384 1.368 . S
C381 C362 1.429 1_556 S
C381 C375 1.429 . S
C381 C382 1.523 . S
C382 C363 1.368 . S
C382 C376 1.368 1_556 S
C382 C381 1.523 . S
C383 C367 1.429 . S
C383 C379 1.429 1_556 S
C383 C384 1.523 . S
C384 C368 1.368 1_556 S
C384 C380 1.368 . S
C384 C383 1.523 . S
H385 C360 0.950 . S
H386 C362 0.950 . S
H387 C363 0.949 . S
H388 C365 0.950 . S
H389 C367 0.950 . S
C390 C391 1.349 1_554 S
C390 C392 1.327 . S
C390 H415 0.950 . S
C391 C390 1.349 1_556 S
C391 C407 1.349 . S
C392 C390 1.327 . S
C392 C411 1.429 1_554 S
C392 H416 0.950 . S
C393 C410 1.574 . S
C393 C412 1.368 . S
C393 H417 0.949 . S
H394 C398 0.949 . S
C395 C396 1.349 . S
C395 C397 1.327 . S
C395 H418 0.950 . S
C396 C395 1.349 . S
C396 C408 1.349 1_556 S
C397 C395 1.327 . S
C397 C413 1.429 . S
C397 H419 0.950 . S
C398 H394 0.949 . S
C398 C406 1.574 . S
C398 C414 1.368 1_554 S
H399 C407 0.950 . S
H400 C405 0.950 . S
H401 C406 0.949 . S
H402 C408 0.950 . S
H403 C409 0.950 . S
H404 C410 0.949 . S
C405 H400 0.950 . S
C405 C407 1.327 . S
C405 C411 1.429 . S
C406 C398 1.574 . S
C406 H401 0.949 . S
C406 C412 1.368 1_554 S
C407 C391 1.349 . S
C407 H399 0.950 . S
C407 C405 1.327 . S
C408 C396 1.349 1_554 S
C408 H402 0.950 . S
C408 C409 1.327 . S
C409 H403 0.950 . S
C409 C408 1.327 . S
C409 C413 1.429 1_554 S
C410 C393 1.574 . S
C410 H404 0.949 . S
C410 C414 1.368 . S
C411 C392 1.429 1_556 S
C411 C405 1.429 . S
C411 C412 1.523 . S
C412 C393 1.368 . S
C412 C406 1.368 1_556 S
C412 C411 1.523 . S
C413 C397 1.429 . S
C413 C409 1.429 1_556 S
C413 C414 1.523 . S
C414 C398 1.368 1_556 S
C414 C410 1.368 . S
C414 C413 1.523 . S
H415 C390 0.950 . S
H416 C392 0.950 . S
H417 C393 0.949 . S
H418 C395 0.950 . S
H419 C397 0.950 . S
C420 C421 1.349 1_554 S
C420 C422 1.327 . S
C420 H445 0.950 . S
C421 C420 1.349 1_556 S
C421 C437 1.349 . S
C422 C420 1.327 . S
C422 C441 1.429 1_554 S
C422 H446 0.950 . S
C423 C440 1.574 . S
C423 C442 1.368 . S
C423 H447 0.949 . S
H424 C428 0.949 . S
C425 C426 1.349 . S
C425 C427 1.327 . S
C425 H448 0.950 . S
C426 C425 1.349 . S
C426 C438 1.349 . S
C427 C425 1.327 . S
C427 C443 1.429 . S
C427 H449 0.950 . S
C428 H424 0.949 . S
C428 C436 1.574 . S
C428 C444 1.368 1_554 S
H429 C437 0.950 . S
H430 C435 0.950 . S
H431 C436 0.949 . S
H432 C438 0.949 1_554 S
H433 C439 0.954 . S
H434 C440 0.949 . S
C435 H430 0.950 . S
C435 C437 1.327 . S
C435 C441 1.429 . S
C436 C428 1.574 . S
C436 H431 0.949 . S
C436 C442 1.368 1_554 S
C437 C421 1.349 . S
C437 H429 0.950 . S
C437 C435 1.327 . S
C438 C426 1.349 . S
C438 H432 0.949 1_556 S
C438 C439 1.327 1_556 S
C439 H433 0.954 . S
C439 C438 1.327 1_554 S
C439 C443 1.425 1_554 S
C440 C423 1.574 . S
C440 H434 0.949 . S
C440 C444 1.368 . S
C441 C422 1.429 1_556 S
C441 C435 1.429 . S
C441 C442 1.523 . S
C442 C423 1.368 . S
C442 C436 1.368 1_556 S
C442 C441 1.523 . S
C443 C427 1.429 . S
C443 C439 1.425 1_556 S
C443 C444 1.523 . S
C444 C428 1.368 1_556 S
C444 C440 1.368 . S
C444 C443 1.523 . S
H445 C420 0.950 . S
H446 C422 0.950 . S
H447 C423 0.949 . S
H448 C425 0.950 . S
H449 C427 0.950 . S
C450 C451 1.349 1_556 S
C450 C452 1.327 . S
C450 H475 0.950 . S
C451 C450 1.349 1_554 S
C451 C467 1.349 . S
C452 C450 1.327 . S
C452 C471 1.429 1_556 S
C452 H476 0.950 . S
C453 C470 1.574 . S
C453 C472 1.368 . S
C453 H477 0.949 . S
H454 C458 0.949 . S
C455 C456 1.349 . S
C455 C457 1.327 . S
C455 H478 0.950 . S
C456 C455 1.349 . S
C456 C468 1.349 1_554 S
C457 C455 1.327 . S
C457 C473 1.429 . S
C457 H479 0.950 . S
C458 H454 0.949 . S
C458 C466 1.574 . S
C458 C474 1.368 1_556 S
H459 C467 0.950 . S
H460 C465 0.950 . S
H461 C466 0.949 . S
H462 C468 0.950 . S
H463 C469 0.950 . S
H464 C470 0.949 . S
C465 H460 0.950 . S
C465 C467 1.327 . S
C465 C471 1.429 . S
C466 C458 1.574 . S
C466 H461 0.949 . S
C466 C472 1.368 1_556 S
C467 C451 1.349 . S
C467 H459 0.950 . S
C467 C465 1.327 . S
C468 C456 1.349 1_556 S
C468 H462 0.950 . S
C468 C469 1.327 . S
C469 H463 0.950 . S
C469 C468 1.327 . S
C469 C473 1.429 1_556 S
C470 C453 1.574 . S
C470 H464 0.949 . S
C470 C474 1.368 . S
C471 C452 1.429 1_554 S
C471 C465 1.429 . S
C471 C472 1.523 . S
C472 C453 1.368 . S
C472 C466 1.368 1_554 S
C472 C471 1.523 . S
C473 C457 1.429 . S
C473 C469 1.429 1_554 S
C473 C474 1.523 . S
C474 C458 1.368 1_554 S
C474 C470 1.368 . S
C474 C473 1.523 . S
H475 C450 0.950 . S
H476 C452 0.950 . S
H477 C453 0.949 . S
H478 C455 0.950 . S
H479 C457 0.950 . S
C480 C481 1.349 1_556 S
C480 C482 1.327 . S
C480 H505 0.950 . S
C481 C480 1.349 1_554 S
C481 C497 1.349 . S
C482 C480 1.327 . S
C482 C501 1.429 1_556 S
C482 H506 0.950 . S
C483 C500 1.574 . S
C483 C502 1.368 . S
C483 H507 0.949 . S
H484 C488 0.949 . S
C485 C486 1.349 . S
C485 C487 1.327 . S
C485 H508 0.950 . S
C486 C485 1.349 . S
C486 C498 1.349 1_554 S
C487 C485 1.327 . S
C487 C503 1.429 . S
C487 H509 0.950 . S
C488 H484 0.949 . S
C488 C496 1.574 . S
C488 C504 1.368 1_556 S
H489 C497 0.950 . S
H490 C495 0.950 . S
H491 C496 0.949 . S
H492 C498 0.950 . S
H493 C499 0.950 . S
H494 C500 0.949 . S
C495 H490 0.950 . S
C495 C497 1.327 . S
C495 C501 1.429 . S
C496 C488 1.574 . S
C496 H491 0.949 . S
C496 C502 1.368 1_556 S
C497 C481 1.349 . S
C497 H489 0.950 . S
C497 C495 1.327 . S
C498 C486 1.349 1_556 S
C498 H492 0.950 . S
C498 C499 1.327 . S
C499 H493 0.950 . S
C499 C498 1.327 . S
C499 C503 1.429 1_556 S
C500 C483 1.574 . S
C500 H494 0.949 . S
C500 C504 1.368 . S
C501 C482 1.429 1_554 S
C501 C495 1.429 . S
C501 C502 1.523 . S
C502 C483 1.368 . S
C502 C496 1.368 1_554 S
C502 C501 1.523 . S
C503 C487 1.429 . S
C503 C499 1.429 1_554 S
C503 C504 1.523 . S
C504 C488 1.368 1_554 S
C504 C500 1.368 . S
C504 C503 1.523 . S
H505 C480 0.950 . S
H506 C482 0.950 . S
H507 C483 0.949 . S
H508 C485 0.950 . S
H509 C487 0.950 . S
C510 C511 1.349 1_556 S
C510 C512 1.327 . S
C510 H535 0.950 . S
C511 C510 1.349 1_554 S
C511 C527 1.349 . S
C512 C510 1.327 . S
C512 C531 1.429 1_556 S
C512 H536 0.950 . S
C513 C530 1.574 . S
C513 C532 1.368 . S
C513 H537 0.949 . S
H514 C518 0.949 . S
C515 C516 1.349 . S
C515 C517 1.327 . S
C515 H538 0.950 . S
C516 C515 1.349 . S
C516 C528 1.349 1_554 S
C517 C515 1.327 . S
C517 C533 1.429 . S
C517 H539 0.950 . S
C518 H514 0.949 . S
C518 C526 1.574 . S
C518 C534 1.368 1_556 S
H519 C527 0.950 . S
H520 C525 0.950 . S
H521 C526 0.949 . S
H522 C528 0.950 . S
H523 C529 0.950 . S
H524 C530 0.949 . S
C525 H520 0.950 . S
C525 C527 1.327 . S
C525 C531 1.429 . S
C526 C518 1.574 . S
C526 H521 0.949 . S
C526 C532 1.368 1_556 S
C527 C511 1.349 . S
C527 H519 0.950 . S
C527 C525 1.327 . S
C528 C516 1.349 1_556 S
C528 H522 0.950 . S
C528 C529 1.327 . S
C529 H523 0.950 . S
C529 C528 1.327 . S
C529 C533 1.429 1_556 S
C530 C513 1.574 . S
C530 H524 0.949 . S
C530 C534 1.368 . S
C531 C512 1.429 1_554 S
C531 C525 1.429 . S
C531 C532 1.523 . S
C532 C513 1.368 . S
C532 C526 1.368 1_554 S
C532 C531 1.523 . S
C533 C517 1.429 . S
C533 C529 1.429 1_554 S
C533 C534 1.523 . S
C534 C518 1.368 1_554 S
C534 C530 1.368 . S
C534 C533 1.523 . S
H535 C510 0.950 . S
H536 C512 0.950 . S
H537 C513 0.949 . S
H538 C515 0.950 . S
H539 C517 0.950 . S
C540 C541 1.349 . S
C540 C542 1.327 . S
C540 H565 0.950 . S
C541 C540 1.349 . S
C541 C557 1.349 . S
C542 C540 1.327 . S
C542 C561 1.429 . S
C542 H566 0.950 . S
C543 C560 1.574 . S
C543 C562 1.368 . S
C543 H567 0.949 . S
H544 C548 0.949 . S
C545 C546 1.349 . S
C545 C547 1.327 1_455 S
C545 H568 0.950 . S
C546 C545 1.349 . S
C546 C558 1.358 . S
C547 C545 1.327 1_655 S
C547 C563 1.429 . S
C547 H569 0.950 . S
C548 H544 0.949 . S
C548 C556 1.574 . S
C548 C564 1.368 . S
H549 C557 0.950 . S
H550 C555 0.950 . S
H551 C556 0.949 . S
H552 C558 0.980 . S
H553 C559 0.950 . S
H554 C560 0.949 . S
C555 H550 0.950 . S
C555 C557 1.327 . S
C555 C561 1.429 . S
C556 C548 1.574 . S
C556 H551 0.949 . S
C556 C562 1.368 . S
C557 C541 1.349 . S
C557 H549 0.950 . S
C557 C555 1.327 . S
C558 C546 1.358 . S
C558 H552 0.980 . S
C558 C559 1.290 1_455 S
C559 H553 0.950 . S
C559 C558 1.290 1_655 S
C559 C563 1.429 . S
C560 C543 1.574 . S
C560 H554 0.949 . S
C560 C564 1.368 . S
C561 C542 1.429 . S
C561 C555 1.429 . S
C561 C562 1.523 . S
C562 C543 1.368 . S
C562 C556 1.368 . S
C562 C561 1.523 . S
C563 C547 1.429 . S
C563 C559 1.429 . S
C563 C564 1.523 . S
C564 C548 1.368 . S
C564 C560 1.368 . S
C564 C563 1.523 . S
H565 C540 0.950 . S
H566 C542 0.950 . S
H567 C543 0.949 . S
H568 C545 0.950 . S
H569 C547 0.950 . S
C570 C571 1.349 . S
C570 C572 1.327 . S
C570 H595 0.950 . S
C571 C570 1.349 . S
C571 C587 1.349 . S
C572 C570 1.327 . S
C572 C591 1.429 . S
C572 H596 0.950 . S
C573 C590 1.574 . S
C573 C592 1.368 . S
C573 H597 0.949 . S
H574 C578 0.949 . S
C575 C576 1.349 . S
C575 C577 1.327 . S
C575 H598 0.950 . S
C576 C575 1.349 . S
C576 C588 1.349 . S
C577 C575 1.327 . S
C577 C593 1.429 1_565 S
C577 H599 0.950 . S
C578 H574 0.949 . S
C578 C586 1.574 . S
C578 C594 1.368 . S
H579 C587 0.950 . S
H580 C585 0.950 . S
H581 C586 0.949 . S
H582 C588 0.950 . S
H583 C589 0.959 . S
H584 C590 0.949 . S
C585 H580 0.950 . S
C585 C587 1.327 . S
C585 C591 1.429 . S
C586 C578 1.574 . S
C586 H581 0.949 . S
C586 C592 1.368 . S
C587 C571 1.349 . S
C587 H579 0.950 . S
C587 C585 1.327 . S
C588 C576 1.349 . S
C588 H582 0.950 . S
C588 C589 1.327 . S
C589 H583 0.959 . S
C589 C588 1.327 . S
C589 C593 1.429 1_565 S
C590 C573 1.574 . S
C590 H584 0.949 . S
C590 C594 1.368 . S
C591 C572 1.429 . S
C591 C585 1.429 . S
C591 C592 1.523 . S
C592 C573 1.368 . S
C592 C586 1.368 . S
C592 C591 1.523 . S
C593 C577 1.429 1_545 S
C593 C589 1.429 1_545 S
C593 C594 1.523 . S
C594 C578 1.368 . S
C594 C590 1.368 . S
C594 C593 1.523 . S
H595 C570 0.950 . S
H596 C572 0.950 . S
H597 C573 0.949 . S
H598 C575 0.950 . S
H599 C577 0.950 . S
C600 C601 1.349 . S
C600 C602 1.327 . S
C600 H625 0.950 . S
C601 C600 1.349 . S
C601 C617 1.349 . S
C602 C600 1.327 . S
C602 C621 1.443 . S
C602 H626 0.950 . S
C603 C620 1.574 . S
C603 C622 1.368 . S
C603 H627 0.949 . S
H604 C608 0.949 . S
C605 C606 1.349 1_545 S
C605 C607 1.327 . S
C605 H628 0.950 1_545 S
C606 C605 1.349 1_565 S
C606 C618 1.349 . S
C607 C605 1.327 . S
C607 C623 1.429 . S
C607 H629 0.950 . S
C608 H604 0.949 . S
C608 C616 1.574 . S
C608 C624 1.368 . S
H609 C617 0.950 . S
H610 C615 0.972 . S
H611 C616 0.945 1_455 S
H612 C618 0.950 . S
H613 C619 0.950 . S
H614 C620 0.949 . S
C615 H610 0.972 . S
C615 C617 1.321 1_655 S
C615 C621 1.404 1_655 S
C616 C608 1.574 . S
C616 H611 0.945 1_655 S
C616 C622 1.368 . S
C617 C601 1.349 . S
C617 H609 0.950 . S
C617 C615 1.321 1_455 S
C618 C606 1.349 . S
C618 H612 0.950 . S
C618 C619 1.327 1_565 S
C619 H613 0.950 . S
C619 C618 1.327 1_545 S
C619 C623 1.429 . S
C620 C603 1.574 . S
C620 H614 0.949 . S
C620 C624 1.368 . S
C621 C602 1.443 . S
C621 C615 1.404 1_455 S
C621 C622 1.519 1_455 S
C622 C603 1.368 . S
C622 C616 1.368 . S
C622 C621 1.519 1_655 S
C623 C607 1.429 . S
C623 C619 1.429 . S
C623 C624 1.523 . S
C624 C608 1.368 . S
C624 C620 1.368 . S
C624 C623 1.523 . S
H625 C600 0.950 . S
H626 C602 0.950 . S
H627 C603 0.949 . S
H628 C605 0.950 1_565 S
H629 C607 0.950 . S
C630 C631 1.349 . S
C630 C632 1.327 . S
C630 H655 0.950 . S
C631 C630 1.349 . S
C631 C647 1.349 . S
C632 C630 1.327 . S
C632 C651 1.429 . S
C632 H656 0.950 . S
C633 C650 1.574 . S
C633 C652 1.368 . S
C633 H657 0.949 . S
H634 C638 0.949 . S
C635 C636 1.349 . S
C635 C637 1.327 . S
C635 H658 0.950 . S
C636 C635 1.349 . S
C636 C648 1.349 . S
C637 C635 1.327 . S
C637 C653 1.429 . S
C637 H659 0.950 . S
C638 H634 0.949 . S
C638 C646 1.574 . S
C638 C654 1.368 . S
H639 C647 0.950 . S
H640 C645 0.950 . S
H641 C646 0.949 . S
H642 C648 0.950 . S
H643 C649 0.950 . S
H644 C650 0.949 . S
C645 H640 0.950 . S
C645 C647 1.327 . S
C645 C651 1.429 . S
C646 C638 1.574 . S
C646 H641 0.949 . S
C646 C652 1.368 . S
C647 C631 1.349 . S
C647 H639 0.950 . S
C647 C645 1.327 . S
C648 C636 1.349 . S
C648 H642 0.950 . S
C648 C649 1.327 . S
C649 H643 0.950 . S
C649 C648 1.327 . S
C649 C653 1.429 . S
C650 C633 1.574 . S
C650 H644 0.949 . S
C650 C654 1.368 . S
C651 C632 1.429 . S
C651 C645 1.429 . S
C651 C652 1.523 . S
C652 C633 1.368 . S
C652 C646 1.368 . S
C652 C651 1.523 . S
C653 C637 1.429 . S
C653 C649 1.429 . S
C653 C654 1.523 . S
C654 C638 1.368 . S
C654 C650 1.368 . S
C654 C653 1.523 . S
H655 C630 0.950 . S
H656 C632 0.950 . S
H657 C633 0.949 . S
H658 C635 0.950 . S
H659 C637 0.950 . S
C660 C661 1.349 . S
C660 C662 1.327 . S
C660 H685 0.950 . S
C661 C660 1.349 . S
C661 C677 1.349 . S
C662 C660 1.327 . S
C662 C681 1.429 . S
C662 H686 0.950 . S
C663 C680 1.574 . S
C663 C682 1.368 . S
C663 H687 0.949 . S
H664 C668 0.949 . S
C665 C666 1.349 . S
C665 C667 1.327 . S
C665 H688 0.950 . S
C666 C665 1.349 . S
C666 C678 1.349 . S
C667 C665 1.327 . S
C667 C683 1.429 . S
C667 H689 0.950 . S
C668 H664 0.949 . S
C668 C676 1.574 . S
C668 C684 1.368 . S
H669 C677 0.950 . S
H670 C675 0.950 . S
H671 C676 0.949 . S
H672 C678 0.950 . S
H673 C679 0.950 . S
H674 C680 0.949 . S
C675 H670 0.950 . S
C675 C677 1.327 . S
C675 C681 1.429 . S
C676 C668 1.574 . S
C676 H671 0.949 . S
C676 C682 1.368 . S
C677 C661 1.349 . S
C677 H669 0.950 . S
C677 C675 1.327 . S
C678 C666 1.349 . S
C678 H672 0.950 . S
C678 C679 1.327 . S
C679 H673 0.950 . S
C679 C678 1.327 . S
C679 C683 1.429 . S
C680 C663 1.574 . S
C680 H674 0.949 . S
C680 C684 1.368 . S
C681 C662 1.429 . S
C681 C675 1.429 . S
C681 C682 1.523 . S
C682 C663 1.368 . S
C682 C676 1.368 . S
C682 C681 1.523 . S
C683 C667 1.429 . S
C683 C679 1.429 . S
C683 C684 1.523 . S
C684 C668 1.368 . S
C684 C680 1.368 . S
C684 C683 1.523 . S
H685 C660 0.950 . S
H686 C662 0.950 . S
H687 C663 0.949 . S
H688 C665 0.950 . S
H689 C667 0.950 . S
C690 C691 1.349 . S
C690 C692 1.327 . S
C690 H715 0.950 . S
C691 C690 1.349 . S
C691 C707 1.349 . S
C692 C690 1.327 . S
C692 C711 1.429 . S
C692 H716 0.950 . S
C693 C710 1.574 . S
C693 C712 1.368 . S
C693 H717 0.949 . S
H694 C698 0.949 . S
C695 C696 1.349 . S
C695 C697 1.327 . S
C695 H718 0.950 . S
C696 C695 1.349 . S
C696 C708 1.349 . S
C697 C695 1.327 . S
C697 C713 1.429 . S
C697 H719 0.950 . S
C698 H694 0.949 . S
C698 C706 1.574 . S
C698 C714 1.368 . S
H699 C707 0.950 . S
H700 C705 0.950 . S
H701 C706 0.949 . S
H702 C708 0.950 . S
H703 C709 0.950 . S
H704 C710 0.949 . S
C705 H700 0.950 . S
C705 C707 1.327 . S
C705 C711 1.429 . S
C706 C698 1.574 . S
C706 H701 0.949 . S
C706 C712 1.368 . S
C707 C691 1.349 . S
C707 H699 0.950 . S
C707 C705 1.327 . S
C708 C696 1.349 . S
C708 H702 0.950 . S
C708 C709 1.327 . S
C709 H703 0.950 . S
C709 C708 1.327 . S
C709 C713 1.429 . S
C710 C693 1.574 . S
C710 H704 0.949 . S
C710 C714 1.368 . S
C711 C692 1.429 . S
C711 C705 1.429 . S
C711 C712 1.523 . S
C712 C693 1.368 . S
C712 C706 1.368 . S
C712 C711 1.523 . S
C713 C697 1.429 . S
C713 C709 1.429 . S
C713 C714 1.523 . S
C714 C698 1.368 . S
C714 C710 1.368 . S
C714 C713 1.523 . S
H715 C690 0.950 . S
H716 C692 0.950 . S
H717 C693 0.949 . S
H718 C695 0.950 . S
H719 C697 0.950 . S
C720 C721 1.349 . S
C720 C722 1.327 . S
C720 H745 0.950 . S
C721 C720 1.349 . S
C721 C737 1.349 . S
C722 C720 1.327 . S
C722 C741 1.429 . S
C722 H746 0.950 . S
C723 C740 1.574 . S
C723 C742 1.368 . S
C723 H747 0.949 . S
H724 C728 0.949 . S
C725 C726 1.349 . S
C725 C727 1.327 . S
C725 H748 0.950 . S
C726 C725 1.349 . S
C726 C738 1.349 . S
C727 C725 1.327 . S
C727 C743 1.429 . S
C727 H749 0.950 . S
C728 H724 0.949 . S
C728 C736 1.574 . S
C728 C744 1.368 . S
H729 C737 0.950 . S
H730 C735 0.950 . S
H731 C736 0.949 . S
H732 C738 0.950 . S
H733 C739 0.950 . S
H734 C740 0.949 . S
C735 H730 0.950 . S
C735 C737 1.327 . S
C735 C741 1.429 . S
C736 C728 1.574 . S
C736 H731 0.949 . S
C736 C742 1.368 . S
C737 C721 1.349 . S
C737 H729 0.950 . S
C737 C735 1.327 . S
C738 C726 1.349 . S
C738 H732 0.950 . S
C738 C739 1.327 . S
C739 H733 0.950 . S
C739 C738 1.327 . S
C739 C743 1.429 . S
C740 C723 1.574 . S
C740 H734 0.949 . S
C740 C744 1.368 . S
C741 C722 1.429 . S
C741 C735 1.429 . S
C741 C742 1.523 . S
C742 C723 1.368 . S
C742 C736 1.368 . S
C742 C741 1.523 . S
C743 C727 1.429 . S
C743 C739 1.429 . S
C743 C744 1.523 . S
C744 C728 1.368 . S
C744 C740 1.368 . S
C744 C743 1.523 . S
H745 C720 0.950 . S
H746 C722 0.950 . S
H747 C723 0.949 . S
H748 C725 0.950 . S
H749 C727 0.950 . S
C750 C751 1.349 . S
C750 C752 1.327 . S
C750 H775 0.950 . S
C751 C750 1.349 . S
C751 C767 1.349 . S
C752 C750 1.327 . S
C752 C771 1.429 . S
C752 H776 0.950 . S
C753 C770 1.574 . S
C753 C772 1.368 . S
C753 H777 0.949 . S
H754 C758 0.949 . S
C755 C756 1.349 . S
C755 C757 1.327 . S
C755 H778 0.950 . S
C756 C755 1.349 . S
C756 C768 1.349 . S
C757 C755 1.327 . S
C757 C773 1.429 . S
C757 H779 0.950 . S
C758 H754 0.949 . S
C758 C766 1.574 . S
C758 C774 1.368 . S
H759 C767 0.950 . S
H760 C765 0.950 . S
H761 C766 0.949 . S
H762 C768 0.950 . S
H763 C769 0.950 . S
H764 C770 0.949 . S
C765 H760 0.950 . S
C765 C767 1.327 . S
C765 C771 1.429 . S
C766 C758 1.574 . S
C766 H761 0.949 . S
C766 C772 1.368 . S
C767 C751 1.349 . S
C767 H759 0.950 . S
C767 C765 1.327 . S
C768 C756 1.349 . S
C768 H762 0.950 . S
C768 C769 1.327 . S
C769 H763 0.950 . S
C769 C768 1.327 . S
C769 C773 1.429 . S
C770 C753 1.574 . S
C770 H764 0.949 . S
C770 C774 1.368 . S
C771 C752 1.429 . S
C771 C765 1.429 . S
C771 C772 1.523 . S
C772 C753 1.368 . S
C772 C766 1.368 . S
C772 C771 1.523 . S
C773 C757 1.429 . S
C773 C769 1.429 . S
C773 C774 1.523 . S
C774 C758 1.368 . S
C774 C770 1.368 . S
C774 C773 1.523 . S
H775 C750 0.950 . S
H776 C752 0.950 . S
H777 C753 0.949 . S
H778 C755 0.950 . S
H779 C757 0.950 . S
C780 C781 1.349 . S
C780 C782 1.327 . S
C780 H805 0.950 . S
C781 C780 1.349 . S
C781 C797 1.349 . S
C782 C780 1.327 . S
C782 C801 1.429 . S
C782 H806 0.950 . S
C783 C800 1.574 . S
C783 C802 1.368 . S
C783 H807 0.949 . S
H784 C788 0.949 . S
C785 C786 1.349 . S
C785 C787 1.327 . S
C785 H808 0.950 . S
C786 C785 1.349 . S
C786 C798 1.349 . S
C787 C785 1.327 . S
C787 C803 1.429 . S
C787 H809 0.950 . S
C788 H784 0.949 . S
C788 C796 1.574 . S
C788 C804 1.368 . S
H789 C797 0.950 . S
H790 C795 0.950 . S
H791 C796 0.949 . S
H792 C798 0.950 . S
H793 C799 0.950 . S
H794 C800 0.949 . S
C795 H790 0.950 . S
C795 C797 1.327 . S
C795 C801 1.429 . S
C796 C788 1.574 . S
C796 H791 0.949 . S
C796 C802 1.368 . S
C797 C781 1.349 . S
C797 H789 0.950 . S
C797 C795 1.327 . S
C798 C786 1.349 . S
C798 H792 0.950 . S
C798 C799 1.327 . S
C799 H793 0.950 . S
C799 C798 1.327 . S
C799 C803 1.429 . S
C800 C783 1.574 . S
C800 H794 0.949 . S
C800 C804 1.368 . S
C801 C782 1.429 . S
C801 C795 1.429 . S
C801 C802 1.523 . S
C802 C783 1.368 . S
C802 C796 1.368 . S
C802 C801 1.523 . S
C803 C787 1.429 . S
C803 C799 1.429 . S
C803 C804 1.523 . S
C804 C788 1.368 . S
C804 C800 1.368 . S
C804 C803 1.523 . S
H805 C780 0.950 . S
H806 C782 0.950 . S
H807 C783 0.949 . S
H808 C785 0.950 . S
H809 C787 0.950 . S
C810 C811 1.349 . S
C810 C812 1.327 . S
C810 H835 0.950 . S
C811 C810 1.349 . S
C811 C827 1.349 . S
C812 C810 1.327 . S
C812 C831 1.429 . S
C812 H836 0.950 . S
C813 C830 1.574 1_565 S
C813 C832 1.368 . S
C813 H837 0.949 . S
H814 C818 0.949 . S
C815 C816 1.349 . S
C815 C817 1.327 . S
C815 H838 0.950 . S
C816 C815 1.349 . S
C816 C828 1.349 . S
C817 C815 1.327 . S
C817 C833 1.429 . S
C817 H839 0.950 . S
C818 H814 0.949 . S
C818 C826 1.574 1_545 S
C818 C834 1.368 . S
H819 C827 0.950 . S
H820 C825 0.950 . S
H821 C826 0.949 . S
H822 C828 0.950 . S
H823 C829 0.950 . S
H824 C830 0.949 . S
C825 H820 0.950 . S
C825 C827 1.327 . S
C825 C831 1.429 . S
C826 C818 1.574 1_565 S
C826 H821 0.949 . S
C826 C832 1.368 . S
C827 C811 1.349 . S
C827 H819 0.950 . S
C827 C825 1.327 . S
C828 C816 1.349 . S
C828 H822 0.950 . S
C828 C829 1.327 . S
C829 H823 0.950 . S
C829 C828 1.327 . S
C829 C833 1.429 . S
C830 C813 1.574 1_545 S
C830 H824 0.949 . S
C830 C834 1.368 . S
C831 C812 1.429 . S
C831 C825 1.429 . S
C831 C832 1.523 . S
C832 C813 1.368 . S
C832 C826 1.368 . S
C832 C831 1.523 . S
C833 C817 1.429 . S
C833 C829 1.429 . S
C833 C834 1.523 . S
C834 C818 1.368 . S
C834 C830 1.368 . S
C834 C833 1.523 . S
H835 C810 0.950 . S
H836 C812 0.950 . S
H837 C813 0.949 . S
H838 C815 0.950 . S
H839 C817 0.950 . S
C840 C841 1.349 . S
C840 C842 1.327 . S
C840 H865 0.950 . S
C841 C840 1.349 . S
C841 C857 1.349 . S
C842 C840 1.327 . S
C842 C861 1.429 . S
C842 H866 0.950 . S
C843 C860 1.574 1_655 S
C843 C862 1.368 . S
C843 H867 0.949 . S
H844 C848 0.949 . S
C845 C846 1.349 . S
C845 C847 1.327 . S
C845 H868 0.950 . S
C846 C845 1.349 . S
C846 C858 1.349 . S
C847 C845 1.327 . S
C847 C863 1.429 . S
C847 H869 0.950 . S
C848 H844 0.949 . S
C848 C856 1.574 1_455 S
C848 C864 1.368 . S
H849 C857 0.950 . S
H850 C855 0.950 . S
H851 C856 0.949 . S
H852 C858 0.950 . S
H853 C859 0.950 . S
H854 C860 0.949 . S
C855 H850 0.950 . S
C855 C857 1.327 . S
C855 C861 1.429 . S
C856 C848 1.574 1_655 S
C856 H851 0.949 . S
C856 C862 1.368 . S
C857 C841 1.349 . S
C857 H849 0.950 . S
C857 C855 1.327 . S
C858 C846 1.349 . S
C858 H852 0.950 . S
C858 C859 1.327 . S
C859 H853 0.950 . S
C859 C858 1.327 . S
C859 C863 1.429 . S
C860 C843 1.574 1_455 S
C860 H854 0.949 . S
C860 C864 1.368 . S
C861 C842 1.429 . S
C861 C855 1.429 . S
C861 C862 1.523 . S
C862 C843 1.368 . S
C862 C856 1.368 . S
C862 C861 1.523 . S
C863 C847 1.429 . S
C863 C859 1.429 . S
C863 C864 1.523 . S
C864 C848 1.368 . S
C864 C860 1.368 . S
C864 C863 1.523 . S
H865 C840 0.950 . S
H866 C842 0.950 . S
H867 C843 0.949 . S
H868 C845 0.950 . S
H869 C847 0.950 . S
C870 C871 1.349 . S
C870 C872 1.327 . S
C870 H895 0.950 . S
C871 C870 1.349 . S
C871 C887 1.349 . S
C872 C870 1.327 . S
C872 C891 1.429 . S
C872 H896 0.950 . S
C873 C890 1.574 . S
C873 C892 1.368 . S
C873 H897 0.949 . S
H874 C878 0.949 . S
C875 C876 1.349 . S
C875 C877 1.327 . S
C875 H898 0.950 . S
C876 C875 1.349 . S
C876 C888 1.349 . S
C877 C875 1.327 . S
C877 C893 1.429 . S
C877 H899 0.950 . S
C878 H874 0.949 . S
C878 C886 1.574 . S
C878 C894 1.368 . S
H879 C887 0.950 . S
H880 C885 0.950 . S
H881 C886 0.949 . S
H882 C888 0.950 . S
H883 C889 0.950 . S
H884 C890 0.949 . S
C885 H880 0.950 . S
C885 C887 1.327 . S
C885 C891 1.429 . S
C886 C878 1.574 . S
C886 H881 0.949 . S
C886 C892 1.368 . S
C887 C871 1.349 . S
C887 H879 0.950 . S
C887 C885 1.327 . S
C888 C876 1.349 . S
C888 H882 0.950 . S
C888 C889 1.327 . S
C889 H883 0.950 . S
C889 C888 1.327 . S
C889 C893 1.429 . S
C890 C873 1.574 . S
C890 H884 0.949 . S
C890 C894 1.368 . S
C891 C872 1.429 . S
C891 C885 1.429 . S
C891 C892 1.523 . S
C892 C873 1.368 . S
C892 C886 1.368 . S
C892 C891 1.523 . S
C893 C877 1.429 . S
C893 C889 1.429 . S
C893 C894 1.523 . S
C894 C878 1.368 . S
C894 C890 1.368 . S
C894 C893 1.523 . S
H895 C870 0.950 . S
H896 C872 0.950 . S
H897 C873 0.949 . S
H898 C875 0.950 . S
H899 C877 0.950 . S
C900 C901 1.349 . S
C900 C902 1.327 . S
C900 H925 0.950 . S
C901 C900 1.349 . S
C901 C917 1.349 . S
C902 C900 1.327 . S
C902 C921 1.429 . S
C902 H926 0.950 . S
C903 C920 1.574 . S
C903 C922 1.368 . S
C903 H927 0.949 . S
H904 C908 0.949 . S
C905 C906 1.349 . S
C905 C907 1.327 . S
C905 H928 0.950 . S
C906 C905 1.349 . S
C906 C918 1.349 . S
C907 C905 1.327 . S
C907 C923 1.429 . S
C907 H929 0.950 . S
C908 H904 0.949 . S
C908 C916 1.574 . S
C908 C924 1.368 . S
H909 C917 0.950 . S
H910 C915 0.950 . S
H911 C916 0.949 . S
H912 C918 0.950 1_655 S
H913 C919 0.950 . S
H914 C920 0.949 . S
C915 H910 0.950 . S
C915 C917 1.327 . S
C915 C921 1.429 . S
C916 C908 1.574 . S
C916 H911 0.949 . S
C916 C922 1.368 . S
C917 C901 1.349 . S
C917 H909 0.950 . S
C917 C915 1.327 . S
C918 C906 1.349 . S
C918 H912 0.950 1_455 S
C918 C919 1.327 . S
C919 H913 0.950 . S
C919 C918 1.327 . S
C919 C923 1.429 . S
C920 C903 1.574 . S
C920 H914 0.949 . S
C920 C924 1.368 . S
C921 C902 1.429 . S
C921 C915 1.429 . S
C921 C922 1.523 . S
C922 C903 1.368 . S
C922 C916 1.368 . S
C922 C921 1.523 . S
C923 C907 1.429 . S
C923 C919 1.429 . S
C923 C924 1.523 . S
C924 C908 1.368 . S
C924 C920 1.368 . S
C924 C923 1.523 . S
H925 C900 0.950 . S
H926 C902 0.950 . S
H927 C903 0.949 . S
H928 C905 0.950 . S
H929 C907 0.950 . S
C930 C931 1.349 . S
C930 C932 1.327 . S
C930 H955 0.950 . S
C931 C930 1.349 . S
C931 C947 1.349 . S
C932 C930 1.327 . S
C932 C951 1.429 . S
C932 H956 0.950 . S
C933 C950 1.574 . S
C933 C952 1.368 . S
C933 H957 0.949 . S
H934 C938 0.949 . S
C935 C936 1.349 . S
C935 C937 1.327 . S
C935 H958 0.950 . S
C936 C935 1.349 . S
C936 C948 1.349 . S
C937 C935 1.327 . S
C937 C953 1.429 . S
C937 H959 0.950 . S
C938 H934 0.949 . S
C938 C946 1.574 . S
C938 C954 1.368 . S
H939 C947 0.950 . S
H940 C945 0.950 . S
H941 C946 0.949 . S
H942 C948 0.950 . S
H943 C949 0.950 . S
H944 C950 0.949 . S
C945 H940 0.950 . S
C945 C947 1.327 . S
C945 C951 1.429 . S
C946 C938 1.574 . S
C946 H941 0.949 . S
C946 C952 1.368 . S
C947 C931 1.349 . S
C947 H939 0.950 . S
C947 C945 1.327 . S
C948 C936 1.349 . S
C948 H942 0.950 . S
C948 C949 1.327 . S
C949 H943 0.950 . S
C949 C948 1.327 . S
C949 C953 1.429 . S
C950 C933 1.574 . S
C950 H944 0.949 . S
C950 C954 1.368 . S
C951 C932 1.429 . S
C951 C945 1.429 . S
C951 C952 1.523 . S
C952 C933 1.368 . S
C952 C946 1.368 . S
C952 C951 1.523 . S
C953 C937 1.429 . S
C953 C949 1.429 . S
C953 C954 1.523 . S
C954 C938 1.368 . S
C954 C950 1.368 . S
C954 C953 1.523 . S
H955 C930 0.950 . S
H956 C932 0.950 . S
H957 C933 0.949 . S
H958 C935 0.950 . S
H959 C937 0.950 . S
C960 C961 1.349 . S
C960 C962 1.327 . S
C960 H985 0.950 . S
C961 C960 1.349 . S
C961 C977 1.349 . S
C962 C960 1.327 . S
C962 C981 1.429 . S
C962 H986 0.950 . S
C963 C980 1.574 . S
C963 C982 1.368 . S
C963 H987 0.949 . S
H964 C968 0.949 . S
C965 C966 1.349 . S
C965 C967 1.327 . S
C965 H988 0.950 . S
C966 C965 1.349 . S
C966 C978 1.349 . S
C967 C965 1.327 . S
C967 C983 1.429 . S
C967 H989 0.950 . S
C968 H964 0.949 . S
C968 C976 1.574 . S
C968 C984 1.368 . S
H969 C977 0.950 1_545 S
H970 C975 0.950 . S
H971 C976 0.949 . S
H972 C978 0.950 . S
H973 C979 0.950 . S
H974 C980 0.949 . S
C975 H970 0.950 . S
C975 C977 1.327 . S
C975 C981 1.429 . S
C976 C968 1.574 . S
C976 H971 0.949 . S
C976 C982 1.368 . S
C977 C961 1.349 . S
C977 H969 0.950 1_565 S
C977 C975 1.327 . S
C978 C966 1.349 . S
C978 H972 0.950 . S
C978 C979 1.327 . S
C979 H973 0.950 . S
C979 C978 1.327 . S
C979 C983 1.429 . S
C980 C963 1.574 . S
C980 H974 0.949 . S
C980 C984 1.368 . S
C981 C962 1.429 . S
C981 C975 1.429 . S
C981 C982 1.523 . S
C982 C963 1.368 . S
C982 C976 1.368 . S
C982 C981 1.523 . S
C983 C967 1.429 . S
C983 C979 1.429 . S
C983 C984 1.523 . S
C984 C968 1.368 . S
C984 C980 1.368 . S
C984 C983 1.523 . S
H985 C960 0.950 . S
H986 C962 0.950 . S
H987 C963 0.949 . S
H988 C965 0.950 . S
H989 C967 0.950 . S
C990 C991 1.349 . S
C990 C992 1.327 . S
C990 H1015 0.950 . S
C991 C990 1.349 . S
C991 C1007 1.349 . S
C992 C990 1.327 . S
C992 C1011 1.429 . S
C992 H1016 0.950 . S
C993 C1010 1.574 . S
C993 C1012 1.368 . S
C993 H1017 0.949 . S
H994 C998 0.949 . S
C995 C996 1.349 . S
C995 C997 1.327 . S
C995 H1018 0.950 . S
C996 C995 1.349 . S
C996 C1008 1.349 . S
C997 C995 1.327 . S
C997 C1013 1.429 . S
C997 H1019 0.950 . S
C998 H994 0.949 . S
C998 C1006 1.574 . S
C998 C1014 1.368 . S
H999 C1007 0.950 1_565 S
H1000 C1005 0.948 . S
H1001 C1006 0.949 . S
H1002 C1008 0.950 . S
H1003 C1009 0.950 . S
H1004 C1010 0.949 . S
C1005 H1000 0.948 . S
C1005 C1007 1.327 . S
C1005 C1011 1.429 . S
C1006 C998 1.574 . S
C1006 H1001 0.949 . S
C1006 C1012 1.368 . S
C1007 C991 1.349 . S
C1007 H999 0.950 1_545 S
C1007 C1005 1.327 . S
C1008 C996 1.349 . S
C1008 H1002 0.950 . S
C1008 C1009 1.327 . S
C1009 H1003 0.950 . S
C1009 C1008 1.327 . S
C1009 C1013 1.429 . S
C1010 C993 1.574 . S
C1010 H1004 0.949 . S
C1010 C1014 1.368 . S
C1011 C992 1.429 . S
C1011 C1005 1.429 . S
C1011 C1012 1.523 . S
C1012 C993 1.368 . S
C1012 C1006 1.368 . S
C1012 C1011 1.523 . S
C1013 C997 1.429 . S
C1013 C1009 1.429 . S
C1013 C1014 1.523 . S
C1014 C998 1.368 . S
C1014 C1010 1.368 . S
C1014 C1013 1.523 . S
H1015 C990 0.950 . S
H1016 C992 0.950 . S
H1017 C993 0.949 . S
H1018 C995 0.950 . S
H1019 C997 0.950 . S
C1020 C1021 1.349 . S
C1020 C1022 1.327 . S
C1020 H1045 0.950 . S
C1021 C1020 1.349 . S
C1021 C1037 1.349 . S
C1022 C1020 1.327 . S
C1022 C1041 1.429 . S
C1022 H1046 0.950 . S
C1023 C1040 1.574 . S
C1023 C1042 1.368 . S
C1023 H1047 0.949 . S
H1024 C1028 0.949 . S
C1025 C1026 1.349 . S
C1025 C1027 1.327 . S
C1025 H1048 0.950 . S
C1026 C1025 1.349 . S
C1026 C1038 1.349 . S
C1027 C1025 1.327 . S
C1027 C1043 1.429 . S
C1027 H1049 0.950 . S
C1028 H1024 0.949 . S
C1028 C1036 1.574 . S
C1028 C1044 1.368 . S
H1029 C1037 0.950 . S
H1030 C1035 0.950 . S
H1031 C1036 0.949 . S
H1032 C1038 0.950 . S
H1033 C1039 0.950 . S
H1034 C1040 0.949 . S
C1035 H1030 0.950 . S
C1035 C1037 1.327 . S
C1035 C1041 1.429 . S
C1036 C1028 1.574 . S
C1036 H1031 0.949 . S
C1036 C1042 1.368 . S
C1037 C1021 1.349 . S
C1037 H1029 0.950 . S
C1037 C1035 1.327 . S
C1038 C1026 1.349 . S
C1038 H1032 0.950 . S
C1038 C1039 1.327 . S
C1039 H1033 0.950 . S
C1039 C1038 1.327 . S
C1039 C1043 1.429 . S
C1040 C1023 1.574 . S
C1040 H1034 0.949 . S
C1040 C1044 1.368 . S
C1041 C1022 1.429 . S
C1041 C1035 1.429 . S
C1041 C1042 1.523 . S
C1042 C1023 1.368 . S
C1042 C1036 1.368 . S
C1042 C1041 1.523 . S
C1043 C1027 1.429 . S
C1043 C1039 1.429 . S
C1043 C1044 1.523 . S
C1044 C1028 1.368 . S
C1044 C1040 1.368 . S
C1044 C1043 1.523 . S
H1045 C1020 0.950 . S
H1046 C1022 0.950 . S
H1047 C1023 0.949 . S
H1048 C1025 0.950 . S
H1049 C1027 0.950 . S
C1050 C1051 1.349 . S
C1050 C1052 1.327 . S
C1050 H1075 0.950 . S
C1051 C1050 1.349 . S
C1051 C1067 1.349 . S
C1052 C1050 1.327 . S
C1052 C1071 1.429 . S
C1052 H1076 0.950 . S
C1053 C1070 1.574 . S
C1053 C1072 1.368 . S
C1053 H1077 0.949 . S
H1054 C1058 0.949 . S
C1055 C1056 1.349 . S
C1055 C1057 1.327 . S
C1055 H1078 0.950 . S
C1056 C1055 1.349 . S
C1056 C1068 1.349 . S
C1057 C1055 1.327 . S
C1057 C1073 1.429 . S
C1057 H1079 0.950 . S
C1058 H1054 0.949 . S
C1058 C1066 1.574 . S
C1058 C1074 1.368 . S
H1059 C1067 0.950 . S
H1060 C1065 0.950 . S
H1061 C1066 0.949 . S
H1062 C1068 0.950 . S
H1063 C1069 0.950 . S
H1064 C1070 0.949 . S
C1065 H1060 0.950 . S
C1065 C1067 1.327 . S
C1065 C1071 1.429 . S
C1066 C1058 1.574 . S
C1066 H1061 0.949 . S
C1066 C1072 1.368 . S
C1067 C1051 1.349 . S
C1067 H1059 0.950 . S
C1067 C1065 1.327 . S
C1068 C1056 1.349 . S
C1068 H1062 0.950 . S
C1068 C1069 1.327 . S
C1069 H1063 0.950 . S
C1069 C1068 1.327 . S
C1069 C1073 1.429 . S
C1070 C1053 1.574 . S
C1070 H1064 0.949 . S
C1070 C1074 1.368 . S
C1071 C1052 1.429 . S
C1071 C1065 1.429 . S
C1071 C1072 1.523 . S
C1072 C1053 1.368 . S
C1072 C1066 1.368 . S
C1072 C1071 1.523 . S
C1073 C1057 1.429 . S
C1073 C1069 1.429 . S
C1073 C1074 1.523 . S
C1074 C1058 1.368 . S
C1074 C1070 1.368 . S
C1074 C1073 1.523 . S
H1075 C1050 0.950 . S
H1076 C1052 0.950 . S
H1077 C1053 0.949 . S
H1078 C1055 0.950 . S
H1079 C1057 0.950 . S
C1080 C1081 1.349 . S
C1080 C1082 1.327 . S
C1080 H1105 0.950 . S
C1081 C1080 1.349 . S
C1081 C1097 1.349 . S
C1082 C1080 1.327 . S
C1082 C1101 1.429 . S
C1082 H1106 0.950 . S
C1083 C1100 1.574 . S
C1083 C1102 1.368 . S
C1083 H1107 0.949 . S
H1084 C1088 0.949 . S
C1085 C1086 1.349 . S
C1085 C1087 1.327 . S
C1085 H1108 0.950 . S
C1086 C1085 1.349 . S
C1086 C1098 1.349 . S
C1087 C1085 1.327 . S
C1087 C1103 1.429 . S
C1087 H1109 0.950 . S
C1088 H1084 0.949 . S
C1088 C1096 1.574 . S
C1088 C1104 1.368 . S
H1089 C1097 0.950 . S
H1090 C1095 0.950 . S
H1091 C1096 0.949 . S
H1092 C1098 0.950 . S
H1093 C1099 0.950 . S
H1094 C1100 0.949 . S
C1095 H1090 0.950 . S
C1095 C1097 1.327 . S
C1095 C1101 1.429 . S
C1096 C1088 1.574 . S
C1096 H1091 0.949 . S
C1096 C1102 1.368 . S
C1097 C1081 1.349 . S
C1097 H1089 0.950 . S
C1097 C1095 1.327 . S
C1098 C1086 1.349 . S
C1098 H1092 0.950 . S
C1098 C1099 1.327 . S
C1099 H1093 0.950 . S
C1099 C1098 1.327 . S
C1099 C1103 1.429 . S
C1100 C1083 1.574 . S
C1100 H1094 0.949 . S
C1100 C1104 1.368 . S
C1101 C1082 1.429 . S
C1101 C1095 1.429 . S
C1101 C1102 1.523 . S
C1102 C1083 1.368 . S
C1102 C1096 1.368 . S
C1102 C1101 1.523 . S
C1103 C1087 1.429 . S
C1103 C1099 1.429 . S
C1103 C1104 1.523 . S
C1104 C1088 1.368 . S
C1104 C1100 1.368 . S
C1104 C1103 1.523 . S
H1105 C1080 0.950 . S
H1106 C1082 0.950 . S
H1107 C1083 0.949 . S
H1108 C1085 0.950 . S
H1109 C1087 0.950 . S
C1110 C1111 1.349 . S
C1110 C1112 1.327 . S
C1110 H1135 0.950 . S
C1111 C1110 1.349 . S
C1111 C1127 1.349 . S
C1112 C1110 1.327 . S
C1112 C1131 1.429 . S
C1112 H1136 0.950 . S
C1113 C1130 1.574 1_565 S
C1113 C1132 1.368 . S
C1113 H1137 0.949 . S
H1114 C1118 0.949 . S
C1115 C1116 1.349 . S
C1115 C1117 1.327 . S
C1115 H1138 0.950 . S
C1116 C1115 1.349 . S
C1116 C1128 1.349 . S
C1117 C1115 1.327 . S
C1117 C1133 1.429 . S
C1117 H1139 0.950 . S
C1118 H1114 0.949 . S
C1118 C1126 1.574 1_545 S
C1118 C1134 1.368 . S
H1119 C1127 0.950 . S
H1120 C1125 0.950 . S
H1121 C1126 0.949 . S
H1122 C1128 0.950 . S
H1123 C1129 0.950 . S
H1124 C1130 0.949 . S
C1125 H1120 0.950 . S
C1125 C1127 1.327 . S
C1125 C1131 1.429 . S
C1126 C1118 1.574 1_565 S
C1126 H1121 0.949 . S
C1126 C1132 1.368 . S
C1127 C1111 1.349 . S
C1127 H1119 0.950 . S
C1127 C1125 1.327 . S
C1128 C1116 1.349 . S
C1128 H1122 0.950 . S
C1128 C1129 1.327 . S
C1129 H1123 0.950 . S
C1129 C1128 1.327 . S
C1129 C1133 1.429 . S
C1130 C1113 1.574 1_545 S
C1130 H1124 0.949 . S
C1130 C1134 1.368 . S
C1131 C1112 1.429 . S
C1131 C1125 1.429 . S
C1131 C1132 1.523 . S
C1132 C1113 1.368 . S
C1132 C1126 1.368 . S
C1132 C1131 1.523 . S
C1133 C1117 1.429 . S
C1133 C1129 1.429 . S
C1133 C1134 1.523 . S
C1134 C1118 1.368 . S
C1134 C1130 1.368 . S
C1134 C1133 1.523 . S
H1135 C1110 0.950 . S
H1136 C1112 0.950 . S
H1137 C1113 0.949 . S
H1138 C1115 0.950 . S
H1139 C1117 0.950 . S
C1140 C1141 1.349 . S
C1140 C1142 1.327 . S
C1140 H1165 0.950 . S
C1141 C1140 1.349 . S
C1141 C1157 1.349 . S
C1142 C1140 1.327 . S
C1142 C1161 1.429 . S
C1142 H1166 0.950 . S
C1143 C1160 1.574 . S
C1143 C1162 1.368 . S
C1143 H1167 0.949 . S
H1144 C1148 0.949 . S
C1145 C1146 1.349 . S
C1145 C1147 1.327 . S
C1145 H1168 0.950 . S
C1146 C1145 1.349 . S
C1146 C1158 1.349 . S
C1147 C1145 1.327 . S
C1147 C1163 1.429 . S
C1147 H1169 0.950 . S
C1148 H1144 0.949 . S
C1148 C1156 1.574 . S
C1148 C1164 1.368 . S
H1149 C1157 0.950 . S
H1150 C1155 0.950 . S
H1151 C1156 0.949 . S
H1152 C1158 0.950 . S
H1153 C1159 0.950 . S
H1154 C1160 0.949 . S
C1155 H1150 0.950 . S
C1155 C1157 1.327 . S
C1155 C1161 1.429 . S
C1156 C1148 1.574 . S
C1156 H1151 0.949 . S
C1156 C1162 1.368 1_455 S
C1157 C1141 1.349 . S
C1157 H1149 0.950 . S
C1157 C1155 1.327 . S
C1158 C1146 1.349 . S
C1158 H1152 0.950 . S
C1158 C1159 1.327 . S
C1159 H1153 0.950 . S
C1159 C1158 1.327 . S
C1159 C1163 1.429 . S
C1160 C1143 1.574 . S
C1160 H1154 0.949 . S
C1160 C1164 1.368 1_655 S
C1161 C1142 1.429 . S
C1161 C1155 1.429 . S
C1161 C1162 1.523 . S
C1162 C1143 1.368 . S
C1162 C1156 1.368 1_655 S
C1162 C1161 1.523 . S
C1163 C1147 1.429 . S
C1163 C1159 1.429 . S
C1163 C1164 1.523 . S
C1164 C1148 1.368 . S
C1164 C1160 1.368 1_455 S
C1164 C1163 1.523 . S
H1165 C1140 0.950 . S
H1166 C1142 0.950 . S
H1167 C1143 0.949 . S
H1168 C1145 0.950 . S
H1169 C1147 0.950 . S
C361 C47 1.494 . S
C366 C2 1.526 . S
C391 C87 1.494 . S
C396 C42 1.526 . S
C421 C82 1.526 . S
C426 C7 1.494 . S
C451 C96 1.394 . S
C456 C51 1.359 . S
C481 C91 1.359 . S
C486 C16 1.394 . S
C511 C11 1.360 . S
C516 C56 1.395 . S
C541 C122 1.526 . S
C546 C167 1.494 . S
C571 C207 1.494 . S
C576 C162 1.526 . S
C601 C202 1.526 . S
C606 C127 1.494 . S
C631 C171 1.359 . S
C636 C216 1.395 . S
C661 C211 1.359 . S
C666 C136 1.394 . S
C691 C176 1.395 . S
C696 C131 1.360 . S
C721 C287 1.494 . S
C726 C242 1.526 . S
C751 C282 1.526 . S
C756 C327 1.494 . S
C781 C322 1.526 . S
C786 C247 1.494 . S
C811 C336 1.395 . S
C816 C291 1.359 . S
C841 C331 1.359 . S
C846 C256 1.394 . S
C871 C251 1.359 . S
C876 C296 1.394 . S
C901 C210 2.544 . S
C906 C19 2.304 . S
C931 C130 2.544 . S
C936 C59 2.304 . S
C961 C99 2.304 . S
C966 C170 2.544 . S
C991 C90 2.544 . S
C996 C259 2.305 . S
C1021 C10 2.544 . S
C1026 C299 2.305 . S
C1051 C339 2.305 . S
C1056 C50 2.544 . S
C1081 C139 2.304 . S
C1086 C330 2.544 . S
C1111 C179 2.305 . S
C1116 C250 2.544 . S
C1141 C290 2.544 . S
C1146 C219 2.305 . S
