# Generated by pormake.
# Topology mmt, (4)-cn, num edge types: 1
# Building blocks:
#     Node 0, Type 0, BuildingBlock: UXUYUI_clean_sbu_0, # of connection points: 4
#     Node 1, Type 0, BuildingBlock: UXUYUI_clean_sbu_0, # of connection points: 4
#     Node 2, Type 0, BuildingBlock: UXUYUI_clean_sbu_0, # of connection points: 4
#     Node 3, Type 0, BuildingBlock: UXUYUI_clean_sbu_0, # of connection points: 4
#     Node 4, Type 0, BuildingBlock: UXUYUI_clean_sbu_0, # of connection points: 4
#     Node 5, Type 0, BuildingBlock: UXUYUI_clean_sbu_0, # of connection points: 4
#     Node 6, Type 0, BuildingBlock: UXUYUI_clean_sbu_0, # of connection points: 4
#     Node 7, Type 0, BuildingBlock: UXUYUI_clean_sbu_0, # of connection points: 4
#     Edge 8, Type (0, 0), BuildingBlock: AJUNOK_clean_linker_0, # of connection points: 2
#     Edge 9, Type (0, 0), BuildingBlock: AJUNOK_clean_linker_0, # of connection points: 2
#     Edge 10, Type (0, 0), BuildingBlock: AJUNOK_clean_linker_0, # of connection points: 2
#     Edge 11, Type (0, 0), BuildingBlock: AJUNOK_clean_linker_0, # of connection points: 2
#     Edge 12, Type (0, 0), BuildingBlock: AJUNOK_clean_linker_0, # of connection points: 2
#     Edge 13, Type (0, 0), BuildingBlock: AJUNOK_clean_linker_0, # of connection points: 2
#     Edge 14, Type (0, 0), BuildingBlock: AJUNOK_clean_linker_0, # of connection points: 2
#     Edge 15, Type (0, 0), BuildingBlock: AJUNOK_clean_linker_0, # of connection points: 2
#     Edge 16, Type (0, 0), BuildingBlock: AJUNOK_clean_linker_0, # of connection points: 2
#     Edge 17, Type (0, 0), BuildingBlock: AJUNOK_clean_linker_0, # of connection points: 2
#     Edge 18, Type (0, 0), BuildingBlock: AJUNOK_clean_linker_0, # of connection points: 2
#     Edge 19, Type (0, 0), BuildingBlock: AJUNOK_clean_linker_0, # of connection points: 2
#     Edge 20, Type (0, 0), BuildingBlock: AJUNOK_clean_linker_0, # of connection points: 2
#     Edge 21, Type (0, 0), BuildingBlock: AJUNOK_clean_linker_0, # of connection points: 2
#     Edge 22, Type (0, 0), BuildingBlock: AJUNOK_clean_linker_0, # of connection points: 2
#     Edge 23, Type (0, 0), BuildingBlock: AJUNOK_clean_linker_0, # of connection points: 2
# Relax obj value: 0.161
# Max RMSD: 0.176
# Mean RMSD: 0.176
data_MOF--net-mmt--node1-UXUYUI_clean_sbu_0--edge1-AJUNOK_clean_linker_0
_symmetry_space_group_name_H-M    P1
_symmetry_Int_Tables_number       1
_symmetry_cell_setting            triclinic
loop_
_symmetry_equiv_pos_as_xyz
'x, y, z'
_cell_length_a     26.020697
_cell_length_b     47.07424
_cell_length_c     52.106987
_cell_angle_alpha  90.006478
_cell_angle_beta   90.015886
_cell_angle_gamma 90.003537
loop_
_atom_site_label
_atom_site_type_symbol
_atom_site_fract_x
_atom_site_fract_y
_atom_site_fract_z
_atom_type_partial_charge
Li0 Li 0.08617 0.57317 0.3321 0.0
Li1 Li 0.11604 0.55987 0.37635 0.0
Li2 Li 0.1502 0.60284 0.35228 0.0
Li3 Li 0.17303 0.55613 0.33891 0.0
C4 C 0.02786 0.60186 0.36427 0.0
N5 N 0.9241 0.61417 0.36207 0.0
C6 C 0.99261 0.5853 0.3779 0.0
C7 C 0.01035 0.62482 0.34967 0.0
C8 C 0.94031 0.59184 0.37651 0.0
C9 C 0.95774 0.63065 0.34876 0.0
C10 C 0.1173 0.51001 0.33508 0.0
C11 C 0.15275 0.46276 0.33762 0.0
N12 N 0.14177 0.45875 0.31235 0.0
C13 C 0.1063 0.50542 0.30915 0.0
C14 C 0.1407 0.48854 0.34946 0.0
C15 C 0.11898 0.47935 0.29801 0.0
C16 C 0.02859 0.58014 0.28575 0.0
N17 N 0.02822 0.56945 0.31 0.0
C18 C 0.94897 0.54539 0.30195 0.0
C19 C 0.98936 0.55252 0.31835 0.0
C20 C 0.94899 0.55545 0.27659 0.0
C21 C 0.98889 0.57354 0.26868 0.0
H22 H 0.06064 0.59283 0.2793 0.0
H23 H 0.9909 0.54356 0.33744 0.0
C24 C 0.09337 0.5618 0.42956 0.0
N25 N 0.09298 0.54491 0.40839 0.0
C26 C 0.07271 0.55199 0.4527 0.0
C27 C 0.05266 0.50743 0.43194 0.0
C28 C 0.07315 0.5182 0.40915 0.0
C29 C 0.05169 0.52454 0.45398 0.0
H30 H 0.10889 0.58308 0.4283 0.0
H31 H 0.07209 0.50547 0.3919 0.0
C32 C 0.16698 0.61076 0.30352 0.0
N33 N 0.20218 0.6585 0.27811 0.0
C34 C 0.21828 0.61247 0.29566 0.0
C35 C 0.13361 0.63331 0.29836 0.0
C36 C 0.23531 0.63677 0.28284 0.0
C37 C 0.15214 0.65727 0.28554 0.0
C38 C 0.23273 0.56139 0.3812 0.0
C39 C 0.27983 0.56915 0.37035 0.0
C40 C 0.23148 0.54105 0.40074 0.0
C41 C 0.32491 0.5563 0.37916 0.0
C42 C 0.27742 0.52873 0.40904 0.0
N43 N 0.32278 0.53653 0.39816 0.0
C44 C 0.14404 0.66247 0.36402 0.0
C45 C 0.22589 0.64577 0.35116 0.0
C46 C 0.163 0.69024 0.36603 0.0
N47 N 0.17553 0.64095 0.35652 0.0
C48 C 0.24625 0.67313 0.35262 0.0
C49 C 0.21484 0.69584 0.3603 0.0
H50 H 0.10418 0.65812 0.36835 0.0
H51 H 0.25013 0.62845 0.34514 0.0
C52 C 0.22609 0.53609 0.29615 0.0
N53 N 0.22422 0.53299 0.32208 0.0
C54 C 0.26156 0.52082 0.2816 0.0
C55 C 0.29129 0.4982 0.32046 0.0
C56 C 0.25497 0.51387 0.33428 0.0
C57 C 0.2953 0.50192 0.2938 0.0
H58 H 0.1999 0.55049 0.28668 0.0
H59 H 0.25118 0.51051 0.35467 0.0
O60 O 0.07915 0.59549 0.36503 0.0
O61 O 0.1066 0.53569 0.34611 0.0
O62 O 0.14972 0.58735 0.31652 0.0
O63 O 0.18818 0.57396 0.37312 0.0
H64 H 0.00531 0.56739 0.38921 0.0
H65 H 0.03703 0.63796 0.33912 0.0
H66 H 0.9126 0.5791 0.38685 0.0
H67 H 0.94366 0.64829 0.33746 0.0
H68 H 0.17118 0.44603 0.34847 0.0
H69 H 0.08875 0.52191 0.29766 0.0
H70 H 0.1504 0.49195 0.36942 0.0
H71 H 0.11091 0.47553 0.27794 0.0
H72 H 0.91926 0.5311 0.30869 0.0
H73 H 0.99003 0.58191 0.24933 0.0
H74 H 0.07304 0.5657 0.4694 0.0
H75 H 0.03643 0.48624 0.43216 0.0
H76 H 0.24497 0.59548 0.29984 0.0
H77 H 0.09392 0.63244 0.30438 0.0
H78 H 0.27496 0.63844 0.27679 0.0
H79 H 0.12675 0.67493 0.28156 0.0
H80 H 0.28157 0.58449 0.35497 0.0
H81 H 0.19548 0.53478 0.4094 0.0
H82 H 0.36156 0.56195 0.3708 0.0
H83 H 0.27699 0.51293 0.42412 0.0
H84 H 0.13745 0.70712 0.37206 0.0
H85 H 0.28597 0.67651 0.34724 0.0
H86 H 0.26318 0.52414 0.26105 0.0
H87 H 0.3157 0.48321 0.33046 0.0
Li88 Li 0.32613 0.95492 0.3469 0.0
Li89 Li 0.35691 0.90516 0.35527 0.0
Li90 Li 0.38797 0.94758 0.38068 0.0
Li91 Li 0.41384 0.94191 0.33743 0.0
C92 C 0.26587 0.93481 0.38281 0.0
N93 N 0.16147 0.94251 0.38961 0.0
C94 C 0.23181 0.91238 0.37833 0.0
C95 C 0.24684 0.9611 0.3909 0.0
C96 C 0.17917 0.91671 0.38186 0.0
C97 C 0.19393 0.96458 0.39416 0.0
C98 C 0.36147 0.92493 0.29713 0.0
C99 C 0.39723 0.90119 0.26022 0.0
N100 N 0.38882 0.92491 0.24592 0.0
C101 C 0.35308 0.94905 0.28207 0.0
C102 C 0.38368 0.90077 0.28616 0.0
C103 C 0.36722 0.94863 0.25622 0.0
C104 C 0.26979 1.00337 0.32944 0.0
N105 N 0.26865 0.97476 0.333 0.0
C106 C 0.189 0.97129 0.3104 0.0
C107 C 0.22939 0.95867 0.32381 0.0
C108 C 0.18924 1.00076 0.3062 0.0
C109 C 0.23013 0.0169 0.31606 0.0
H110 H 0.30238 0.01555 0.33606 0.0
H111 H 0.23048 0.93584 0.32607 0.0
C112 C 0.33864 0.85203 0.3789 0.0
N113 N 0.33504 0.86654 0.35641 0.0
C114 C 0.31989 0.82426 0.38072 0.0
C115 C 0.29445 0.82685 0.33617 0.0
C116 C 0.31321 0.85465 0.33529 0.0
C117 C 0.29766 0.81123 0.35911 0.0
H118 H 0.35525 0.86226 0.39554 0.0
H119 H 0.30967 0.86689 0.31783 0.0
C120 C 0.40808 0.99876 0.36798 0.0
N121 N 0.4481 0.0409 0.39907 0.0
C122 C 0.46127 1.00162 0.3708 0.0
C123 C 0.37527 0.01743 0.38089 0.0
C124 C 0.48074 0.02304 0.38661 0.0
C125 C 0.39625 0.03858 0.39653 0.0
C126 C 0.47318 0.90218 0.35888 0.0
C127 C 0.51984 0.91684 0.36041 0.0
C128 C 0.47263 0.87414 0.35002 0.0
C129 C 0.56515 0.90321 0.35297 0.0
C130 C 0.51878 0.86126 0.34278 0.0
N131 N 0.56369 0.87594 0.34439 0.0
C132 C 0.37908 0.97359 0.43046 0.0
C133 C 0.46091 0.95466 0.42037 0.0
C134 C 0.39794 0.98458 0.45358 0.0
N135 N 0.41089 0.95943 0.41417 0.0
C136 C 0.48138 0.96529 0.4432 0.0
C137 C 0.45002 0.98091 0.45995 0.0
H138 H 0.33939 0.97698 0.42525 0.0
H139 H 0.48534 0.94317 0.4073 0.0
C140 C 0.4707 0.97801 0.30613 0.0
N141 N 0.46647 0.95005 0.31232 0.0
C142 C 0.50766 0.98711 0.28865 0.0
C143 C 0.53402 0.93835 0.28291 0.0
C144 C 0.49626 0.93013 0.30055 0.0
C145 C 0.5407 0.96727 0.27723 0.0
H146 H 0.44521 0.99338 0.31475 0.0
H147 H 0.49096 0.90789 0.30483 0.0
O148 O 0.31749 0.93115 0.37902 0.0
O149 O 0.34916 0.92522 0.32263 0.0
O150 O 0.38831 0.97728 0.35327 0.0
O151 O 0.42839 0.91497 0.36639 0.0
H152 H 0.24575 0.8919 0.37205 0.0
H153 H 0.27252 0.97877 0.39417 0.0
H154 H 0.15236 0.89957 0.37837 0.0
H155 H 0.17866 0.98488 0.40021 0.0
H156 H 0.41473 0.88271 0.25151 0.0
H157 H 0.33637 0.96801 0.29034 0.0
H158 H 0.39121 0.88209 0.29767 0.0
H159 H 0.36118 0.96719 0.24435 0.0
H160 H 0.15909 0.95794 0.30243 0.0
H161 H 0.23195 0.03963 0.31297 0.0
H162 H 0.32183 0.81337 0.39899 0.0
H163 H 0.27756 0.81767 0.31908 0.0
H164 H 0.48725 0.98723 0.36114 0.0
H165 H 0.33403 0.01533 0.37925 0.0
H166 H 0.5218 0.02536 0.38909 0.0
H167 H 0.3713 0.05303 0.40679 0.0
H168 H 0.52108 0.93867 0.3668 0.0
H169 H 0.43703 0.86242 0.34868 0.0
H170 H 0.60145 0.91437 0.35389 0.0
H171 H 0.51887 0.83959 0.33586 0.0
H172 H 0.37212 0.99593 0.46624 0.0
H173 H 0.52171 0.96194 0.44738 0.0
H174 H 0.51035 0.00951 0.28409 0.0
H175 H 0.5583 0.92236 0.27417 0.0
Li176 Li 0.67232 0.45064 0.16527 0.0
Li177 Li 0.65058 0.40401 0.1514 0.0
Li178 Li 0.6161 0.44708 0.12747 0.0
Li179 Li 0.58616 0.433 0.17167 0.0
C180 C 0.73436 0.44603 0.12462 0.0
N181 N 0.82665 0.47123 0.11147 0.0
C182 C 0.77965 0.43834 0.1373 0.0
C183 C 0.73607 0.46658 0.10527 0.0
C184 C 0.82589 0.45134 0.13039 0.0
C185 C 0.7831 0.47903 0.09887 0.0
C186 C 0.67076 0.39607 0.19963 0.0
C187 C 0.66202 0.34972 0.21892 0.0
N188 N 0.71346 0.34924 0.22353 0.0
C189 C 0.72354 0.39514 0.20463 0.0
C190 C 0.6397 0.37323 0.20694 0.0
C191 C 0.74438 0.37129 0.21673 0.0
C192 C 0.72569 0.47032 0.20822 0.0
N193 N 0.72206 0.47442 0.18246 0.0
C194 C 0.78634 0.51078 0.18436 0.0
C195 C 0.75035 0.49487 0.17053 0.0
C196 C 0.79241 0.50594 0.21078 0.0
C197 C 0.76087 0.48579 0.22278 0.0
H198 H 0.7013 0.45489 0.21755 0.0
H199 H 0.74508 0.49893 0.15033 0.0
C200 C 0.64122 0.34439 0.14162 0.0
N201 N 0.67493 0.36567 0.14698 0.0
C202 C 0.65815 0.31621 0.14023 0.0
C203 C 0.74426 0.33238 0.14942 0.0
C204 C 0.72581 0.3602 0.15027 0.0
C205 C 0.71021 0.30984 0.1447 0.0
H206 H 0.60108 0.34924 0.13864 0.0
H207 H 0.752 0.37734 0.15433 0.0
C208 C 0.6157 0.49723 0.16662 0.0
N209 N 0.63838 0.55094 0.1846 0.0
C210 C 0.6083 0.5038 0.1925 0.0
C211 C 0.63432 0.51795 0.14983 0.0
C212 C 0.62011 0.53109 0.20124 0.0
C213 C 0.64561 0.545 0.15931 0.0
C214 C 0.52855 0.40401 0.13999 0.0
C215 C 0.49236 0.41774 0.12453 0.0
C216 C 0.51239 0.3831 0.15723 0.0
C217 C 0.44045 0.4106 0.12685 0.0
C218 C 0.46014 0.37658 0.15901 0.0
N219 N 0.42554 0.39036 0.14392 0.0
C220 C 0.61039 0.45298 0.07297 0.0
C221 C 0.55726 0.48399 0.09703 0.0
C222 C 0.59154 0.46424 0.04998 0.0
N223 N 0.59322 0.46308 0.09585 0.0
C224 C 0.53684 0.49555 0.07455 0.0
C225 C 0.55415 0.48583 0.05056 0.0
H226 H 0.63864 0.43612 0.0726 0.0
H227 H 0.54353 0.4912 0.11551 0.0
C228 C 0.53045 0.42725 0.21849 0.0
N229 N 0.52855 0.43682 0.19389 0.0
C230 C 0.49128 0.43419 0.23575 0.0
C231 C 0.44867 0.46021 0.20189 0.0
C232 C 0.4886 0.4528 0.18532 0.0
C233 C 0.45032 0.45143 0.22763 0.0
H234 H 0.56332 0.41525 0.22502 0.0
H235 H 0.48888 0.46081 0.16586 0.0
O236 O 0.68871 0.43333 0.13088 0.0
O237 O 0.64974 0.41901 0.18732 0.0
O238 O 0.60574 0.47044 0.15786 0.0
O239 O 0.57945 0.41114 0.13839 0.0
H240 H 0.77904 0.42302 0.1527 0.0
H241 H 0.70148 0.47305 0.09541 0.0
H242 H 0.86112 0.44574 0.14019 0.0
H243 H 0.78493 0.49499 0.08396 0.0
H244 H 0.63845 0.33184 0.22452 0.0
H245 H 0.74839 0.41238 0.19881 0.0
H246 H 0.59886 0.37352 0.20324 0.0
H247 H 0.78519 0.37022 0.22055 0.0
H248 H 0.80902 0.52672 0.17455 0.0
H249 H 0.7641 0.4816 0.24316 0.0
H250 H 0.63076 0.29964 0.13571 0.0
H251 H 0.78465 0.32851 0.15304 0.0
H252 H 0.59412 0.4879 0.20574 0.0
H253 H 0.64061 0.51306 0.12977 0.0
H254 H 0.61489 0.53647 0.22125 0.0
H255 H 0.66034 0.56122 0.14659 0.0
H256 H 0.50411 0.43381 0.11095 0.0
H257 H 0.53982 0.37218 0.16927 0.0
H258 H 0.41202 0.42116 0.11509 0.0
H259 H 0.44709 0.36057 0.17241 0.0
H260 H 0.60603 0.45611 0.03193 0.0
H261 H 0.50692 0.51144 0.076 0.0
H262 H 0.49366 0.42677 0.25539 0.0
H263 H 0.41805 0.47378 0.19495 0.0
Li264 Li 0.82867 0.05224 0.16098 0.0
Li265 Li 0.85876 0.10184 0.15169 0.0
Li266 Li 0.88991 0.05891 0.12689 0.0
Li267 Li 0.91666 0.06561 0.1699 0.0
C268 C 0.76789 0.07095 0.12484 0.0
N269 N 0.66376 0.06199 0.11826 0.0
C270 C 0.7331 0.09315 0.12881 0.0
C271 C 0.74973 0.04424 0.11741 0.0
C272 C 0.6806 0.08819 0.12539 0.0
C273 C 0.69694 0.04012 0.11424 0.0
C274 C 0.86395 0.08245 0.21025 0.0
C275 C 0.89958 0.10572 0.24746 0.0
N276 N 0.89063 0.08192 0.26158 0.0
C277 C 0.85505 0.05823 0.22513 0.0
C278 C 0.88641 0.1064 0.22147 0.0
C279 C 0.86883 0.05839 0.25105 0.0
C280 C 0.77067 0.0046 0.17972 0.0
N281 N 0.77121 0.03314 0.17565 0.0
C282 C 0.69472 0.03896 0.20039 0.0
C283 C 0.73399 0.05029 0.18537 0.0
C284 C 0.6942 0.00976 0.20575 0.0
C285 C 0.73187 0.99232 0.19465 0.0
H286 H 0.80167 0.99158 0.17254 0.0
H287 H 0.73617 0.07299 0.18239 0.0
C288 C 0.83582 0.15443 0.12756 0.0
N289 N 0.83571 0.14027 0.1503 0.0
C290 C 0.81495 0.18177 0.12591 0.0
C291 C 0.79551 0.17964 0.17121 0.0
C292 C 0.81608 0.15226 0.17191 0.0
C293 C 0.79383 0.19462 0.14788 0.0
H294 H 0.85109 0.14422 0.11061 0.0
H295 H 0.81557 0.14037 0.18963 0.0
C296 C 0.91201 0.00811 0.14101 0.0
N297 N 0.95465 0.96514 0.11181 0.0
C298 C 0.96531 0.00632 0.13806 0.0
C299 C 0.88041 0.98795 0.12921 0.0
C300 C 0.98611 0.98448 0.12319 0.0
C301 C 0.90271 0.96639 0.11453 0.0
C302 C 0.97485 0.10531 0.14737 0.0
C303 C 0.02184 0.09105 0.14541 0.0
C304 C 0.97387 0.13341 0.15604 0.0
C305 C 0.06706 0.10512 0.15231 0.0
C306 C 0.01994 0.14675 0.16273 0.0
N307 N 0.06518 0.13244 0.16075 0.0
C308 C 0.88261 0.02955 0.07857 0.0
C309 C 0.96064 0.05408 0.08603 0.0
C310 C 0.90162 0.01873 0.05543 0.0
N311 N 0.91252 0.04651 0.09354 0.0
C312 C 0.98112 0.04382 0.06307 0.0
C313 C 0.95167 0.02573 0.04751 0.0
H314 H 0.84455 0.02372 0.08491 0.0
H315 H 0.9835 0.06779 0.09805 0.0
C316 C 0.97241 0.03082 0.20298 0.0
N317 N 0.96922 0.05837 0.19527 0.0
C318 C 0.00669 0.02282 0.22221 0.0
C319 C 0.03391 0.07171 0.22571 0.0
C320 C 0.99867 0.07884 0.20647 0.0
C321 C 0.03785 0.04339 0.23388 0.0
H322 H 0.94769 0.015 0.19444 0.0
H323 H 0.99421 0.10079 0.20093 0.0
O324 O 0.81937 0.07525 0.12851 0.0
O325 O 0.85216 0.08239 0.18467 0.0
O326 O 0.89091 0.02985 0.1549 0.0
O327 O 0.93014 0.09206 0.14042 0.0
H328 H 0.74637 0.11394 0.13462 0.0
H329 H 0.776 0.02673 0.11461 0.0
H330 H 0.65324 0.10514 0.12848 0.0
H331 H 0.68234 0.0195 0.10869 0.0
H332 H 0.91727 0.12403 0.25636 0.0
H333 H 0.83835 0.03937 0.2167 0.0
H334 H 0.89455 0.12512 0.21012 0.0
H335 H 0.86241 0.03975 0.26276 0.0
H336 H 0.66603 0.05302 0.20849 0.0
H337 H 0.73283 0.96973 0.19859 0.0
H338 H 0.81437 0.19251 0.10753 0.0
H339 H 0.78103 0.18894 0.18878 0.0
H340 H 0.99031 0.02179 0.14698 0.0
H341 H 0.83907 0.98922 0.13095 0.0
H342 H 0.02727 0.98295 0.12063 0.0
H343 H 0.8787 0.95077 0.10514 0.0
H344 H 0.02342 0.06926 0.13893 0.0
H345 H 0.93798 0.14482 0.15767 0.0
H346 H 0.10363 0.09429 0.15102 0.0
H347 H 0.01972 0.16846 0.16952 0.0
H348 H 0.87792 0.00446 0.04422 0.0
H349 H 0.0197 0.04994 0.05756 0.0
H350 H 0.009 1.00069 0.22779 0.0
H351 H 0.05709 0.08819 0.23446 0.0
Li352 Li 0.83475 0.45375 0.66131 0.0
Li353 Li 0.92057 0.43808 0.67041 0.0
Li354 Li 0.89236 0.44679 0.62531 0.0
Li355 Li 0.85756 0.4056 0.65098 0.0
C356 C 0.89912 0.50274 0.65253 0.0
N357 N 0.89902 0.56138 0.64972 0.0
C358 C 0.917 0.51894 0.67318 0.0
C359 C 0.88183 0.5164 0.63033 0.0
C360 C 0.91642 0.54855 0.67143 0.0
C361 C 0.88192 0.54605 0.62931 0.0
C362 C 0.85293 0.43021 0.71069 0.0
C363 C 0.83894 0.41709 0.75488 0.0
N364 N 0.84743 0.44448 0.76206 0.0
C365 C 0.86159 0.45819 0.71851 0.0
C366 C 0.84155 0.40945 0.729 0.0
C367 C 0.8586 0.465 0.74455 0.0
C368 C 0.74435 0.45903 0.68923 0.0
N369 N 0.77832 0.47506 0.67568 0.0
C370 C 0.73355 0.5175 0.68752 0.0
C371 C 0.77317 0.50379 0.67428 0.0
C372 C 0.69879 0.50146 0.70216 0.0
C373 C 0.70435 0.47182 0.70275 0.0
H374 H 0.74919 0.43623 0.69008 0.0
H375 H 0.79996 0.51625 0.6633 0.0
C376 C 0.0111 0.46379 0.68604 0.0
N377 N 0.97778 0.44285 0.69271 0.0
C378 C 0.05096 0.47145 0.70252 0.0
C379 C 0.02278 0.43509 0.73211 0.0
C380 C 0.98329 0.42813 0.71501 0.0
C381 C 0.05695 0.45719 0.726 0.0
H382 H 0.00564 0.47518 0.66823 0.0
H383 H 0.95636 0.41149 0.71984 0.0
C384 C 0.76988 0.44039 0.62559 0.0
N385 N 0.66799 0.45643 0.62194 0.0
C386 C 0.73105 0.42182 0.63344 0.0
C387 C 0.75688 0.46701 0.61564 0.0
C388 C 0.67977 0.43034 0.63149 0.0
C389 C 0.70515 0.47476 0.61403 0.0
C390 C 0.96239 0.39101 0.64596 0.0
C391 C 0.00379 0.38432 0.63001 0.0
C392 C 0.954 0.37521 0.66829 0.0
C393 C 0.03618 0.36181 0.63665 0.0
C394 C 0.98725 0.35288 0.67426 0.0
N395 N 0.0273 0.34669 0.65845 0.0
C396 C 0.96957 0.46253 0.59104 0.0
C397 C 0.88608 0.46561 0.573 0.0
C398 C 0.99148 0.47279 0.56839 0.0
N399 N 0.9178 0.45931 0.59295 0.0
C400 C 0.90635 0.47625 0.55006 0.0
C401 C 0.95969 0.48012 0.54768 0.0
H402 H 0.99378 0.45738 0.60728 0.0
H403 H 0.84506 0.46272 0.57501 0.0
C404 C 0.79934 0.35926 0.66806 0.0
N405 N 0.83335 0.36739 0.64968 0.0
C406 C 0.77858 0.33191 0.66783 0.0
C407 C 0.82884 0.32155 0.62997 0.0
C408 C 0.84858 0.3492 0.63088 0.0
C409 C 0.79283 0.31276 0.64843 0.0
H410 H 0.78784 0.3742 0.68273 0.0
H411 H 0.87572 0.35626 0.61651 0.0
O412 O 0.90007 0.4737 0.65378 0.0
O413 O 0.85598 0.42295 0.6853 0.0
O414 O 0.82036 0.43275 0.6281 0.0
O415 O 0.93055 0.41308 0.63975 0.0
H416 H 0.93133 0.50881 0.69039 0.0
H417 H 0.86809 0.50432 0.61412 0.0
H418 H 0.92996 0.56133 0.68731 0.0
H419 H 0.86837 0.55688 0.61229 0.0
H420 H 0.83022 0.40124 0.76926 0.0
H421 H 0.87034 0.47447 0.70462 0.0
H422 H 0.83507 0.38764 0.72329 0.0
H423 H 0.86515 0.4866 0.75085 0.0
H424 H 0.73039 0.54042 0.68653 0.0
H425 H 0.67908 0.45869 0.71423 0.0
H426 H 0.07574 0.48902 0.69732 0.0
H427 H 0.02625 0.42358 0.75002 0.0
H428 H 0.74039 0.40114 0.64116 0.0
H429 H 0.78638 0.48169 0.60956 0.0
H430 H 0.64934 0.41624 0.63764 0.0
H431 H 0.69456 0.49539 0.60656 0.0
H432 H 0.01081 0.39641 0.61269 0.0
H433 H 0.92223 0.38012 0.68091 0.0
H434 H 0.06838 0.35638 0.62448 0.0
H435 H 0.98123 0.34047 0.69147 0.0
H436 H 0.03276 0.47551 0.56725 0.0
H437 H 0.88071 0.4813 0.53434 0.0
H438 H 0.75176 0.32579 0.68273 0.0
H439 H 0.84084 0.30737 0.61474 0.0
Li440 Li 0.58438 0.07267 0.67432 0.0
Li441 Li 0.67266 0.05598 0.66418 0.0
Li442 Li 0.64435 0.10464 0.652 0.0
Li443 Li 0.61036 0.064 0.62944 0.0
C444 C 0.65521 0.09793 0.71071 0.0
N445 N 0.66403 0.11861 0.76016 0.0
C446 C 0.67754 0.08124 0.7299 0.0
C447 C 0.63819 0.12533 0.71659 0.0
C448 C 0.68139 0.09201 0.75481 0.0
C449 C 0.64278 0.13535 0.74172 0.0
C450 C 0.60748 0.00972 0.64812 0.0
C451 C 0.65079 0.97329 0.62383 0.0
N452 N 0.60915 0.9561 0.62664 0.0
C453 C 0.56507 0.99177 0.65071 0.0
C454 C 0.65069 1.00049 0.63455 0.0
C455 C 0.56669 0.96469 0.63974 0.0
C456 C 0.48103 0.06906 0.69109 0.0
N457 N 0.5309 0.06708 0.69871 0.0
C458 C 0.50531 0.04964 0.73985 0.0
C459 C 0.54357 0.05769 0.72256 0.0
C460 C 0.45366 0.05062 0.73226 0.0
C461 C 0.44149 0.06093 0.70771 0.0
H462 H 0.47209 0.07594 0.6718 0.0
H463 H 0.58341 0.05518 0.72778 0.0
C464 C 0.77528 0.04387 0.67874 0.0
N465 N 0.72616 0.03407 0.67903 0.0
C466 C 0.8133 0.03008 0.69305 0.0
C467 C 0.74968 0.99594 0.70691 0.0
C468 C 0.71292 0.01044 0.69248 0.0
C469 C 0.80032 0.00618 0.70786 0.0
H470 H 0.78442 0.06304 0.66822 0.0
H471 H 0.67335 1.00344 0.69278 0.0
C472 C 0.54072 0.12006 0.64383 0.0
N473 N 0.4801 0.16823 0.64426 0.0
C474 C 0.52087 0.13085 0.62088 0.0
C475 C 0.52908 0.13348 0.66701 0.0
C476 C 0.4905 0.15531 0.62149 0.0
C477 C 0.49854 0.15788 0.66683 0.0
C478 C 0.69895 0.08877 0.60839 0.0
C479 C 0.66338 0.10392 0.59367 0.0
C480 C 0.74987 0.08665 0.60012 0.0
C481 C 0.67941 0.11676 0.57088 0.0
C482 C 0.76441 0.09979 0.5772 0.0
N483 N 0.72917 0.11444 0.56318 0.0
C484 C 0.70942 0.15004 0.66487 0.0
C485 C 0.64835 0.1621 0.63296 0.0
C486 C 0.72966 0.17753 0.66436 0.0
N487 N 0.66905 0.14295 0.64956 0.0
C488 C 0.66743 0.18983 0.6318 0.0
C489 C 0.7083 0.19793 0.64785 0.0
H490 H 0.72581 0.1343 0.67758 0.0
H491 H 0.61738 0.15586 0.6204 0.0
C492 C 0.53278 0.053 0.59361 0.0
N493 N 0.584 0.04971 0.59776 0.0
C494 C 0.51022 0.04264 0.57116 0.0
C495 C 0.59349 0.02538 0.55775 0.0
C496 C 0.61455 0.03626 0.58042 0.0
C497 C 0.5407 0.02866 0.55287 0.0
H498 H 0.50935 0.0635 0.60789 0.0
H499 H 0.65517 0.03386 0.58425 0.0
O500 O 0.65154 0.08776 0.68618 0.0
O501 O 0.60631 0.03639 0.65847 0.0
O502 O 0.57067 0.09619 0.6435 0.0
O503 O 0.68433 0.07611 0.63085 0.0
H504 H 0.69136 0.06008 0.72567 0.0
H505 H 0.62215 0.13888 0.70188 0.0
H506 H 0.69822 0.07923 0.76988 0.0
H507 H 0.62965 0.1565 0.74654 0.0
H508 H 0.68393 0.96588 0.61323 0.0
H509 H 0.53127 0.9987 0.66109 0.0
H510 H 0.68363 0.01427 0.63213 0.0
H511 H 0.53418 0.95052 0.64162 0.0
H512 H 0.5161 0.04138 0.75849 0.0
H513 H 0.40197 0.06196 0.70124 0.0
H514 H 0.85188 0.03871 0.69339 0.0
H515 H 0.73833 0.97731 0.71771 0.0
H516 H 0.52918 0.12055 0.60278 0.0
H517 H 0.54305 0.12501 0.68497 0.0
H518 H 0.47518 0.16402 0.60387 0.0
H519 H 0.48934 0.16854 0.68464 0.0
H520 H 0.62384 0.10578 0.59977 0.0
H521 H 0.77785 0.075 0.61134 0.0
H522 H 0.65228 0.12856 0.55931 0.0
H523 H 0.80371 0.09834 0.57057 0.0
H524 H 0.76129 0.18288 0.67698 0.0
H525 H 0.65077 0.2047 0.6183 0.0
H526 H 0.46923 0.04512 0.56832 0.0
H527 H 0.61821 0.01471 0.54408 0.0
Li528 Li 0.39509 0.56011 0.87702 0.0
Li529 Li 0.3579 0.60071 0.8554 0.0
Li530 Li 0.33259 0.55287 0.84307 0.0
Li531 Li 0.42407 0.57004 0.83356 0.0
C532 C 0.28156 0.55889 0.88872 0.0
N533 N 0.2002 0.53167 0.91242 0.0
C534 C 0.23295 0.57152 0.88925 0.0
C535 C 0.28885 0.53259 0.90062 0.0
C536 C 0.19228 0.55738 0.9012 0.0
C537 C 0.24727 0.51912 0.91241 0.0
C538 C 0.45636 0.60312 0.88598 0.0
C539 C 0.53183 0.60416 0.91284 0.0
N540 N 0.50404 0.61694 0.9317 0.0
C541 C 0.42858 0.61634 0.90559 0.0
C542 C 0.50843 0.59705 0.88957 0.0
C543 C 0.45338 0.62315 0.92857 0.0
C544 C 0.46732 0.53193 0.90905 0.0
N545 N 0.42214 0.54646 0.90924 0.0
C546 C 0.41872 0.54376 0.9551 0.0
C547 C 0.39803 0.55281 0.9317 0.0
C548 C 0.46453 0.52803 0.95528 0.0
C549 C 0.48889 0.52209 0.93191 0.0
H550 H 0.48734 0.52853 0.8912 0.0
H551 H 0.36301 0.56517 0.93148 0.0
C552 C 0.28005 0.64214 0.85347 0.0
N553 N 0.3314 0.63866 0.85709 0.0
C554 C 0.25833 0.66926 0.85375 0.0
C555 C 0.34288 0.68891 0.86101 0.0
C556 C 0.36301 0.66134 0.86061 0.0
C557 C 0.28978 0.69308 0.85776 0.0
H558 H 0.25611 0.62385 0.8498 0.0
H559 H 0.40388 0.65805 0.86292 0.0
C560 C 0.41429 0.50645 0.85401 0.0
N561 N 0.44396 0.4517 0.86632 0.0
C562 C 0.46474 0.4975 0.84955 0.0
C563 C 0.37863 0.48725 0.86409 0.0
C564 C 0.4791 0.46984 0.85609 0.0
C565 C 0.39443 0.45975 0.87035 0.0
C566 C 0.3443 0.60648 0.80524 0.0
C567 C 0.29431 0.6099 0.79594 0.0
C568 C 0.3816 0.62698 0.79982 0.0
C569 C 0.28235 0.63399 0.78146 0.0
C570 C 0.3681 0.65077 0.78529 0.0
N571 N 0.31917 0.65376 0.7765 0.0
C572 C 0.23062 0.54115 0.82637 0.0
C573 C 0.29324 0.50672 0.81527 0.0
C574 C 0.19367 0.52712 0.81157 0.0
N575 N 0.27941 0.53091 0.82773 0.0
C576 C 0.25748 0.4919 0.80048 0.0
C577 C 0.20735 0.50253 0.79789 0.0
H578 H 0.22105 0.56094 0.83574 0.0
H579 H 0.33261 0.4995 0.81593 0.0
C580 C 0.52603 0.56076 0.81578 0.0
N581 N 0.47689 0.56643 0.80858 0.0
C582 C 0.56266 0.55317 0.79741 0.0
C583 C 0.49807 0.55887 0.76447 0.0
C584 C 0.46261 0.56611 0.78348 0.0
C585 C 0.5484 0.55138 0.77145 0.0
H586 H 0.5361 0.56061 0.8359 0.0
H587 H 0.42312 0.57037 0.7783 0.0
O588 O 0.32175 0.57239 0.87688 0.0
O589 O 0.43214 0.59534 0.86376 0.0
O590 O 0.39953 0.53346 0.84751 0.0
O591 O 0.35644 0.58353 0.82012 0.0
H592 H 0.22652 0.59199 0.88047 0.0
H593 H 0.32629 0.52276 0.90097 0.0
H594 H 0.15442 0.56686 0.90159 0.0
H595 H 0.25247 0.49873 0.92161 0.0
H596 H 0.57204 0.59944 0.91594 0.0
H597 H 0.38805 0.6208 0.90328 0.0
H598 H 0.53045 0.58669 0.87468 0.0
H599 H 0.43227 0.63319 0.94397 0.0
H600 H 0.39902 0.54882 0.97283 0.0
H601 H 0.52481 0.51047 0.9314 0.0
H602 H 0.21747 0.6716 0.85039 0.0
H603 H 0.36845 0.70677 0.86397 0.0
H604 H 0.49271 0.51184 0.84139 0.0
H605 H 0.3389 0.49328 0.86661 0.0
H606 H 0.51818 0.46278 0.85301 0.0
H607 H 0.36721 0.44474 0.87825 0.0
H608 H 0.26499 0.59426 0.80006 0.0
H609 H 0.42039 0.62468 0.80706 0.0
H610 H 0.24377 0.63701 0.77423 0.0
H611 H 0.39647 0.6669 0.78107 0.0
H612 H 0.15553 0.53613 0.80987 0.0
H613 H 0.26938 0.47278 0.79057 0.0
H614 H 0.60102 0.54741 0.80359 0.0
H615 H 0.48582 0.55835 0.74462 0.0
Li616 Li 0.11321 0.94114 0.87841 0.0
Li617 Li 0.14297 0.90172 0.85416 0.0
Li618 Li 0.17545 0.95119 0.84419 0.0
Li619 Li 0.08569 0.93529 0.83435 0.0
C620 C 0.20779 0.93506 0.89846 0.0
N621 N 0.25225 0.94987 0.94472 0.0
C622 C 0.19485 0.92036 0.92085 0.0
C623 C 0.24359 0.95717 0.89956 0.0
C624 C 0.21765 0.92822 0.94407 0.0
C625 C 0.2656 0.96435 0.92314 0.0
C626 C 0.05677 0.88334 0.87057 0.0
C627 C 0.02863 0.83623 0.85896 0.0
N628 N 0.03283 0.82808 0.88392 0.0
C629 C 0.0607 0.87451 0.89611 0.0
C630 C 0.04046 0.86409 0.85184 0.0
C631 C 0.0484 0.84649 0.90247 0.0
C632 C 0.03956 0.947 0.91771 0.0
N633 N 0.08787 0.95512 0.91093 0.0
C634 C 0.09297 0.98566 0.94761 0.0
C635 C 0.1145 0.9743 0.92528 0.0
C636 C 0.04313 0.97767 0.95497 0.0
C637 C 0.01648 0.95792 0.93981 0.0
H638 H 0.01836 0.93249 0.90562 0.0
H639 H 0.15185 0.98149 0.91904 0.0
C640 C 0.17469 0.84882 0.83269 0.0
N641 N 0.16609 0.86287 0.85509 0.0
C642 C 0.19351 0.82099 0.8329 0.0
C643 C 0.19461 0.82256 0.87922 0.0
C644 C 0.17602 0.85039 0.87811 0.0
C645 C 0.20355 0.8075 0.8564 0.0
H646 H 0.16762 0.8593 0.81461 0.0
H647 H 0.1699 0.86209 0.89564 0.0
C648 C 0.08311 0.99188 0.86235 0.0
N649 N 0.02794 0.03336 0.8878 0.0
C650 C 0.02953 0.99021 0.86368 0.0
C651 C 0.10863 0.01466 0.8739 0.0
C652 C 0.00234 0.01139 0.87666 0.0
C653 C 0.08003 0.03543 0.88667 0.0
C654 C 0.14079 0.91995 0.79463 0.0
C655 C 0.16083 0.94081 0.77835 0.0
C656 C 0.10834 0.89904 0.78459 0.0
C657 C 0.14784 0.94047 0.75234 0.0
C658 C 0.09617 0.89947 0.75848 0.0
N659 N 0.11601 0.92 0.74303 0.0
C660 C 0.27194 0.95735 0.82184 0.0
C661 C 0.22626 1.00074 0.82595 0.0
C662 C 0.30973 0.97064 0.80713 0.0
N663 N 0.23085 0.97239 0.83045 0.0
C664 C 0.26363 0.01499 0.81161 0.0
C665 C 0.30511 0.99966 0.80145 0.0
H666 H 0.27391 0.93472 0.82532 0.0
H667 H 0.19243 0.01197 0.83238 0.0
C668 C 0.98761 0.92834 0.80949 0.0
N669 N 0.03242 0.94316 0.81029 0.0
C670 C 0.94883 0.93626 0.79231 0.0
C671 C 0.00336 0.97428 0.7771 0.0
C672 C 0.0408 0.96578 0.79462 0.0
C673 C 0.95645 0.95968 0.77601 0.0
H674 H 0.9816 0.91073 0.82245 0.0
H675 H 0.07646 0.97749 0.79606 0.0
O676 O 0.18625 0.92761 0.87548 0.0
O677 O 0.06976 0.91052 0.86386 0.0
O678 O 0.11048 0.97079 0.85055 0.0
O679 O 0.15216 0.92026 0.82029 0.0
H680 H 0.16684 0.90342 0.92042 0.0
H681 H 0.25417 0.96872 0.88241 0.0
H682 H 0.2077 0.91718 0.96158 0.0
H683 H 0.29325 0.98147 0.9243 0.0
H684 H 0.01623 0.82107 0.84464 0.0
H685 H 0.07388 0.88898 0.91083 0.0
H686 H 0.03741 0.87048 0.83198 0.0
H687 H 0.05156 0.83934 0.92214 0.0
H688 H 0.11448 1.00113 0.95863 0.0
H689 H 0.97811 0.95105 0.94493 0.0
H690 H 0.20011 0.81012 0.81488 0.0
H691 H 0.20294 0.81316 0.89773 0.0
H692 H 0.00921 0.97251 0.85516 0.0
H693 H 0.15013 0.016 0.87347 0.0
H694 H 0.96091 0.01027 0.87799 0.0
H695 H 0.09929 0.05308 0.89585 0.0
H696 H 0.18566 0.95731 0.7857 0.0
H697 H 0.09217 0.88286 0.79688 0.0
H698 H 0.16292 0.95656 0.73957 0.0
H699 H 0.07084 0.88352 0.75052 0.0
H700 H 0.34137 0.95825 0.79957 0.0
H701 H 0.25883 0.03736 0.80735 0.0
H702 H 0.9132 0.92438 0.79189 0.0
H703 H 0.01042 0.99262 0.76504 0.0
C704 C 0.32124 0.47289 0.25563 0.0
C705 C 0.33496 0.48676 0.27856 0.0
C706 C 0.3586 0.4607 0.23968 0.0
C707 C 0.4111 0.4619 0.24606 0.0
H708 H 0.28132 0.47181 0.2498 0.0
H709 H 0.34638 0.45059 0.22202 0.0
S710 S 0.46721 0.49653 0.30359 0.0
N711 N 0.40465 0.50127 0.30671 0.0
N712 N 0.47492 0.47845 0.27672 0.0
C713 C 0.42525 0.47527 0.26916 0.0
C714 C 0.38718 0.48766 0.28541 0.0
C715 C 0.12718 0.04205 0.25171 0.0
C716 C 0.07492 0.03496 0.25413 0.0
C717 C 0.16371 0.03174 0.2692 0.0
C718 C 0.14922 0.01405 0.28976 0.0
H719 H 0.1402 0.05473 0.23563 0.0
H720 H 0.20384 0.03674 0.26599 0.0
S721 S 0.01618 0.99273 0.30655 0.0
N722 N 0.00978 0.01158 0.28001 0.0
N723 N 0.07833 0.99234 0.31296 0.0
C724 C 0.09672 0.00801 0.29308 0.0
C725 C 0.05961 0.01843 0.27525 0.0
C726 C 0.81924 0.53373 0.24952 0.0
C727 C 0.83218 0.52114 0.2259 0.0
C728 C 0.85701 0.54568 0.2654 0.0
C729 C 0.90915 0.54546 0.25826 0.0
H730 H 0.77965 0.53395 0.25597 0.0
H731 H 0.84542 0.55475 0.28361 0.0
S732 S 0.96323 0.51438 0.19864 0.0
N733 N 0.90073 0.50895 0.19622 0.0
N734 N 0.97179 0.53127 0.22608 0.0
C735 C 0.92248 0.53342 0.23445 0.0
C736 C 0.88398 0.5213 0.21827 0.0
C737 C 0.62499 0.97505 0.21791 0.0
C738 C 0.65681 0.9981 0.22444 0.0
C739 C 0.58807 0.9647 0.23524 0.0
C740 C 0.58199 0.97704 0.25967 0.0
H741 H 0.62787 0.96541 0.19908 0.0
H742 H 0.56329 0.94744 0.22926 0.0
S743 S 0.66081 0.03525 0.28718 0.0
N744 N 0.68311 0.03118 0.25775 0.0
N745 N 0.61423 0.01169 0.29031 0.0
C746 C 0.61507 0.99933 0.26673 0.0
C747 C 0.65235 0.00987 0.24912 0.0
C748 C 0.63603 0.54987 0.75137 0.0
C749 C 0.58503 0.53996 0.75213 0.0
C750 C 0.67213 0.53797 0.7345 0.0
C751 C 0.65868 0.51556 0.71793 0.0
H752 H 0.64827 0.56675 0.76411 0.0
H753 H 0.71128 0.54578 0.73504 0.0
S754 S 0.52989 0.48248 0.71182 0.0
N755 N 0.52282 0.50662 0.73452 0.0
N756 N 0.59036 0.4848 0.70247 0.0
C757 C 0.60755 0.50593 0.71805 0.0
C758 C 0.57081 0.51801 0.7352 0.0
C759 C 0.88845 0.98658 0.7162 0.0
C760 C 0.8388 0.99295 0.72522 0.0
C761 C 0.92597 0.97524 0.73261 0.0
C762 C 0.91518 0.96979 0.75861 0.0
H763 H 0.8984 0.99046 0.69632 0.0
H764 H 0.96381 0.9708 0.72492 0.0
S765 S 0.79234 0.98444 0.79213 0.0
N766 N 0.78164 0.9941 0.76214 0.0
N767 N 0.85203 0.97259 0.79284 0.0
C768 C 0.86573 0.97599 0.76786 0.0
C769 C 0.8276 0.98762 0.75121 0.0
C770 C 0.11959 0.48364 0.78741 0.0
C771 C 0.17047 0.48917 0.77975 0.0
C772 C 0.08355 0.47238 0.77015 0.0
C773 C 0.09695 0.46648 0.74452 0.0
H774 H 0.10747 0.48825 0.80686 0.0
H775 H 0.04449 0.46908 0.7767 0.0
S776 S 0.22534 0.4765 0.71497 0.0
N777 N 0.23243 0.48767 0.7448 0.0
N778 N 0.16503 0.46593 0.71262 0.0
C779 C 0.14792 0.47137 0.73677 0.0
C780 C 0.18458 0.48281 0.75431 0.0
C781 C 0.37233 0.03611 0.79141 0.0
C782 C 0.34137 0.01329 0.78342 0.0
C783 C 0.40823 0.04842 0.77464 0.0
C784 C 0.41339 0.03871 0.74922 0.0
H785 H 0.36951 0.04403 0.81088 0.0
H786 H 0.43225 0.06558 0.7816 0.0
S787 S 0.33982 0.98017 0.7189 0.0
N788 N 0.31719 0.98189 0.74846 0.0
N789 N 0.38414 0.00519 0.71688 0.0
C790 C 0.38179 0.01632 0.74092 0.0
C791 C 0.3459 1.00356 0.75805 0.0
C792 C 0.04414 0.48775 0.48853 0.0
C793 C 0.02802 0.5138 0.47802 0.0
C794 C 0.02202 0.47708 0.51112 0.0
C795 C 0.98235 0.49181 0.52375 0.0
H796 H 0.0744 0.47567 0.47933 0.0
H797 H 0.03568 0.45699 0.51863 0.0
S798 S 0.92596 0.56074 0.50389 0.0
N799 N 0.96988 0.55397 0.48184 0.0
N800 N 0.92811 0.53382 0.52421 0.0
C801 C 0.9657 0.51778 0.51336 0.0
C802 C 0.98864 0.52882 0.49055 0.0
C803 C 0.50386 0.97704 0.4998 0.0
C804 C 0.47204 0.99349 0.48375 0.0
C805 C 0.52612 0.98861 0.522 0.0
C806 C 0.51729 0.01704 0.52905 0.0
H807 H 0.51131 0.95496 0.49527 0.0
H808 H 0.5499 0.97508 0.53391 0.0
S809 S 0.44054 0.06975 0.49258 0.0
N810 N 0.43536 0.04016 0.47574 0.0
N811 N 0.47673 0.06177 0.5176 0.0
C812 C 0.48603 0.0338 0.51308 0.0
C813 C 0.46352 0.02207 0.49042 0.0
C814 C 0.51837 0.47865 0.00623 0.0
C815 C 0.53199 0.49731 0.02627 0.0
C816 C 0.49669 0.48877 0.98334 0.0
C817 C 0.48723 0.51789 0.9797 0.0
H818 H 0.52384 0.45597 0.00836 0.0
H819 H 0.48662 0.47367 0.96847 0.0
S820 S 0.51923 0.5759 0.02501 0.0
N821 N 0.53728 0.54666 0.04004 0.0
N822 N 0.49513 0.56542 0.99726 0.0
C823 C 0.50095 0.53683 0.99935 0.0
C824 C 0.52362 0.52661 0.02256 0.0
C825 C 0.04562 0.99012 1.00172 0.0
C826 C 0.01896 0.9901 0.97823 0.0
C827 C 0.02351 1.00161 0.02396 0.0
C828 C 0.97395 0.01363 0.02358 0.0
H829 H 0.08365 0.98084 1.00297 0.0
H830 H 0.04521 1.00078 0.0417 0.0
S831 S 0.88995 0.02099 0.96642 0.0
N832 N 0.94153 0.00444 0.95559 0.0
N833 N 0.90006 0.02616 0.99736 0.0
C834 C 0.94717 0.01409 1.00013 0.0
C835 C 0.96966 1.00233 0.97748 0.0
C836 C 0.20823 0.74788 0.35027 0.0
C837 C 0.23574 0.72529 0.36142 0.0
C838 C 0.22837 0.77553 0.34977 0.0
C839 C 0.27681 0.78177 0.36045 0.0
H840 H 0.17126 0.74407 0.34135 0.0
H841 H 0.20571 0.79218 0.34094 0.0
S842 S 0.36369 0.73038 0.39267 0.0
N843 N 0.31313 0.71128 0.38436 0.0
N844 N 0.35172 0.76296 0.3826 0.0
C845 C 0.30446 0.75945 0.37195 0.0
C846 C 0.28383 0.73132 0.37258 0.0
C847 C 0.79597 0.24546 0.13326 0.0
C848 C 0.77052 0.22352 0.14649 0.0
C849 C 0.77582 0.27309 0.13245 0.0
C850 C 0.72932 0.27997 0.14482 0.0
H851 H 0.83234 0.2414 0.12383 0.0
H852 H 0.79697 0.28923 0.12207 0.0
S853 S 0.64666 0.23004 0.1814 0.0
N854 N 0.69497 0.21029 0.17127 0.0
N855 N 0.65829 0.2624 0.17068 0.0
C856 C 0.70311 0.25815 0.15785 0.0
C857 C 0.72345 0.22995 0.15852 0.0
C858 C 0.78214 0.23218 0.64554 0.0
C859 C 0.72884 0.22743 0.64739 0.0
C860 C 0.80247 0.25981 0.64547 0.0
C861 C 0.77032 0.28373 0.64757 0.0
H862 H 0.80836 0.21438 0.64401 0.0
H863 H 0.84376 0.26245 0.64423 0.0
S864 S 0.62808 0.2829 0.65263 0.0
N865 N 0.64434 0.24902 0.65133 0.0
N866 N 0.68245 0.30088 0.65088 0.0
C867 C 0.71695 0.27928 0.64924 0.0
C868 C 0.69625 0.25118 0.64919 0.0
C869 C 0.28904 0.74368 0.84265 0.0
C870 C 0.26743 0.72216 0.85798 0.0
C871 C 0.26788 0.77111 0.84208 0.0
C872 C 0.22467 0.77815 0.85704 0.0
H873 H 0.32217 0.73919 0.83074 0.0
H874 H 0.28584 0.78702 0.83004 0.0
S875 S 0.15399 0.7296 0.9006 0.0
N876 N 0.20074 0.70986 0.88871 0.0
N877 N 0.16076 0.76129 0.88745 0.0
C878 C 0.20284 0.75687 0.87252 0.0
C879 C 0.22419 0.72892 0.873 0.0
loop_
_geom_bond_atom_site_label_1
_geom_bond_atom_site_label_2
_geom_bond_distance
_geom_bond_site_symmetry_2
_ccdc_geom_bond_type
Li0 N17 1.990 . S
Li0 O60 1.956 . S
Li0 O61 1.970 . S
Li0 O62 1.961 . S
Li1 N25 1.990 . S
Li1 O60 1.970 . S
Li1 O61 1.956 . S
Li1 O63 1.961 . S
Li2 N47 1.990 . S
Li2 O60 1.961 . S
Li2 O62 1.956 . S
Li2 O63 1.970 . S
Li3 N53 1.990 . S
Li3 O61 1.961 . S
Li3 O62 1.970 . S
Li3 O63 1.956 . S
C4 C6 1.348 . S
C4 C7 1.356 . S
C4 O60 1.325 . S
N5 C8 1.314 . S
N5 C9 1.279 . S
C6 C4 1.348 . S
C6 C8 1.353 1_455 S
C6 H64 0.929 . S
C7 C4 1.356 . S
C7 C9 1.358 1_455 S
C7 H65 0.930 . S
C8 N5 1.314 . S
C8 C6 1.353 1_655 S
C8 H66 0.930 . S
C9 N5 1.279 . S
C9 C7 1.358 1_655 S
C9 H67 0.930 . S
C10 C13 1.348 . S
C10 C14 1.356 . S
C10 O61 1.325 . S
C11 N12 1.279 . S
C11 C14 1.358 . S
C11 H68 0.930 . S
N12 C11 1.279 . S
N12 C15 1.314 . S
C13 C10 1.348 . S
C13 C15 1.353 . S
C13 H69 0.929 . S
C14 C10 1.356 . S
C14 C11 1.358 . S
C14 H70 0.930 . S
C15 N12 1.314 . S
C15 C13 1.353 . S
C15 H71 0.930 . S
C16 N17 1.314 . S
C16 C21 1.353 1_455 S
C16 H22 0.930 . S
N17 Li0 1.990 . S
N17 C16 1.314 . S
N17 C19 1.279 1_455 S
C18 C19 1.358 . S
C18 C20 1.356 . S
C18 H72 0.930 . S
C19 N17 1.279 1_655 S
C19 C18 1.358 . S
C19 H23 0.930 . S
C20 C18 1.356 . S
C20 C21 1.348 . S
C21 C16 1.353 1_655 S
C21 C20 1.348 . S
C21 H73 0.929 . S
H22 C16 0.930 . S
H23 C19 0.930 . S
C24 N25 1.314 . S
C24 C26 1.353 . S
C24 H30 0.930 . S
N25 Li1 1.990 . S
N25 C24 1.314 . S
N25 C28 1.279 . S
C26 C24 1.353 . S
C26 C29 1.348 . S
C26 H74 0.929 . S
C27 C28 1.358 . S
C27 C29 1.356 . S
C27 H75 0.930 . S
C28 N25 1.279 . S
C28 C27 1.358 . S
C28 H31 0.930 . S
C29 C26 1.348 . S
C29 C27 1.356 . S
H30 C24 0.930 . S
H31 C28 0.930 . S
C32 C34 1.348 . S
C32 C35 1.356 . S
C32 O62 1.325 . S
N33 C36 1.314 . S
N33 C37 1.279 . S
C34 C32 1.348 . S
C34 C36 1.353 . S
C34 H76 0.929 . S
C35 C32 1.356 . S
C35 C37 1.358 . S
C35 H77 0.930 . S
C36 N33 1.314 . S
C36 C34 1.353 . S
C36 H78 0.930 . S
C37 N33 1.279 . S
C37 C35 1.358 . S
C37 H79 0.930 . S
C38 C39 1.348 . S
C38 C40 1.356 . S
C38 O63 1.325 . S
C39 C38 1.348 . S
C39 C41 1.353 . S
C39 H80 0.929 . S
C40 C38 1.356 . S
C40 C42 1.358 . S
C40 H81 0.930 . S
C41 C39 1.353 . S
C41 N43 1.314 . S
C41 H82 0.930 . S
C42 C40 1.358 . S
C42 N43 1.279 . S
C42 H83 0.930 . S
N43 C41 1.314 . S
N43 C42 1.279 . S
C44 C46 1.353 . S
C44 N47 1.314 . S
C44 H50 0.930 . S
C45 N47 1.279 . S
C45 C48 1.358 . S
C45 H51 0.930 . S
C46 C44 1.353 . S
C46 C49 1.348 . S
C46 H84 0.929 . S
N47 Li2 1.990 . S
N47 C44 1.314 . S
N47 C45 1.279 . S
C48 C45 1.358 . S
C48 C49 1.356 . S
C48 H85 0.930 . S
C49 C46 1.348 . S
C49 C48 1.356 . S
H50 C44 0.930 . S
H51 C45 0.930 . S
C52 N53 1.314 . S
C52 C54 1.353 . S
C52 H58 0.930 . S
N53 Li3 1.990 . S
N53 C52 1.314 . S
N53 C56 1.279 . S
C54 C52 1.353 . S
C54 C57 1.348 . S
C54 H86 0.929 . S
C55 C56 1.358 . S
C55 C57 1.356 . S
C55 H87 0.930 . S
C56 N53 1.279 . S
C56 C55 1.358 . S
C56 H59 0.930 . S
C57 C54 1.348 . S
C57 C55 1.356 . S
H58 C52 0.930 . S
H59 C56 0.930 . S
O60 Li0 1.956 . S
O60 Li1 1.970 . S
O60 Li2 1.961 . S
O60 C4 1.325 . S
O61 Li0 1.970 . S
O61 Li1 1.956 . S
O61 Li3 1.961 . S
O61 C10 1.325 . S
O62 Li0 1.961 . S
O62 Li2 1.956 . S
O62 Li3 1.970 . S
O62 C32 1.325 . S
O63 Li1 1.961 . S
O63 Li2 1.970 . S
O63 Li3 1.956 . S
O63 C38 1.325 . S
H64 C6 0.929 . S
H65 C7 0.930 . S
H66 C8 0.930 . S
H67 C9 0.930 . S
H68 C11 0.930 . S
H69 C13 0.929 . S
H70 C14 0.930 . S
H71 C15 0.930 . S
H72 C18 0.930 . S
H73 C21 0.929 . S
H74 C26 0.929 . S
H75 C27 0.930 . S
H76 C34 0.929 . S
H77 C35 0.930 . S
H78 C36 0.930 . S
H79 C37 0.930 . S
H80 C39 0.929 . S
H81 C40 0.930 . S
H82 C41 0.930 . S
H83 C42 0.930 . S
H84 C46 0.929 . S
H85 C48 0.930 . S
H86 C54 0.929 . S
H87 C55 0.930 . S
Li88 N105 1.990 . S
Li88 O148 1.956 . S
Li88 O149 1.970 . S
Li88 O150 1.961 . S
Li89 N113 1.990 . S
Li89 O148 1.970 . S
Li89 O149 1.956 . S
Li89 O151 1.961 . S
Li90 N135 1.990 . S
Li90 O148 1.961 . S
Li90 O150 1.956 . S
Li90 O151 1.970 . S
Li91 N141 1.990 . S
Li91 O149 1.961 . S
Li91 O150 1.970 . S
Li91 O151 1.956 . S
C92 C94 1.348 . S
C92 C95 1.356 . S
C92 O148 1.325 . S
N93 C96 1.314 . S
N93 C97 1.279 . S
C94 C92 1.348 . S
C94 C96 1.353 . S
C94 H152 0.929 . S
C95 C92 1.356 . S
C95 C97 1.358 . S
C95 H153 0.930 . S
C96 N93 1.314 . S
C96 C94 1.353 . S
C96 H154 0.930 . S
C97 N93 1.279 . S
C97 C95 1.358 . S
C97 H155 0.930 . S
C98 C101 1.348 . S
C98 C102 1.356 . S
C98 O149 1.325 . S
C99 N100 1.279 . S
C99 C102 1.358 . S
C99 H156 0.930 . S
N100 C99 1.279 . S
N100 C103 1.314 . S
C101 C98 1.348 . S
C101 C103 1.353 . S
C101 H157 0.929 . S
C102 C98 1.356 . S
C102 C99 1.358 . S
C102 H158 0.930 . S
C103 N100 1.314 . S
C103 C101 1.353 . S
C103 H159 0.930 . S
C104 N105 1.314 . S
C104 C109 1.353 1_565 S
C104 H110 0.930 . S
N105 Li88 1.990 . S
N105 C104 1.314 . S
N105 C107 1.279 . S
C106 C107 1.358 . S
C106 C108 1.356 . S
C106 H160 0.930 . S
C107 N105 1.279 . S
C107 C106 1.358 . S
C107 H111 0.930 . S
C108 C106 1.356 . S
C108 C109 1.348 1_565 S
C109 C104 1.353 1_545 S
C109 C108 1.348 1_545 S
C109 H161 0.929 . S
H110 C104 0.930 . S
H111 C107 0.930 . S
C112 N113 1.314 . S
C112 C114 1.353 . S
C112 H118 0.930 . S
N113 Li89 1.990 . S
N113 C112 1.314 . S
N113 C116 1.279 . S
C114 C112 1.353 . S
C114 C117 1.348 . S
C114 H162 0.929 . S
C115 C116 1.358 . S
C115 C117 1.356 . S
C115 H163 0.930 . S
C116 N113 1.279 . S
C116 C115 1.358 . S
C116 H119 0.930 . S
C117 C114 1.348 . S
C117 C115 1.356 . S
H118 C112 0.930 . S
H119 C116 0.930 . S
C120 C122 1.348 1_565 S
C120 C123 1.356 1_565 S
C120 O150 1.325 . S
N121 C124 1.314 . S
N121 C125 1.279 . S
C122 C120 1.348 1_545 S
C122 C124 1.353 . S
C122 H164 0.929 1_545 S
C123 C120 1.356 1_545 S
C123 C125 1.358 . S
C123 H165 0.930 . S
C124 N121 1.314 . S
C124 C122 1.353 . S
C124 H166 0.930 . S
C125 N121 1.279 . S
C125 C123 1.358 . S
C125 H167 0.930 . S
C126 C127 1.348 . S
C126 C128 1.356 . S
C126 O151 1.325 . S
C127 C126 1.348 . S
C127 C129 1.353 . S
C127 H168 0.929 . S
C128 C126 1.356 . S
C128 C130 1.358 . S
C128 H169 0.930 . S
C129 C127 1.353 . S
C129 N131 1.314 . S
C129 H170 0.930 . S
C130 C128 1.358 . S
C130 N131 1.279 . S
C130 H171 0.930 . S
N131 C129 1.314 . S
N131 C130 1.279 . S
C132 C134 1.353 . S
C132 N135 1.314 . S
C132 H138 0.930 . S
C133 N135 1.279 . S
C133 C136 1.358 . S
C133 H139 0.930 . S
C134 C132 1.353 . S
C134 C137 1.348 . S
C134 H172 0.929 . S
N135 Li90 1.990 . S
N135 C132 1.314 . S
N135 C133 1.279 . S
C136 C133 1.358 . S
C136 C137 1.356 . S
C136 H173 0.930 1_565 S
C137 C134 1.348 . S
C137 C136 1.356 . S
H138 C132 0.930 . S
H139 C133 0.930 . S
C140 N141 1.314 . S
C140 C142 1.353 . S
C140 H146 0.930 . S
N141 Li91 1.990 . S
N141 C140 1.314 . S
N141 C144 1.279 . S
C142 C140 1.353 . S
C142 C145 1.348 . S
C142 H174 0.929 . S
C143 C144 1.358 . S
C143 C145 1.356 . S
C143 H175 0.930 . S
C144 N141 1.279 . S
C144 C143 1.358 . S
C144 H147 0.930 . S
C145 C142 1.348 . S
C145 C143 1.356 . S
H146 C140 0.930 . S
H147 C144 0.930 . S
O148 Li88 1.956 . S
O148 Li89 1.970 . S
O148 Li90 1.961 . S
O148 C92 1.325 . S
O149 Li88 1.970 . S
O149 Li89 1.956 . S
O149 Li91 1.961 . S
O149 C98 1.325 . S
O150 Li88 1.961 . S
O150 Li90 1.956 . S
O150 Li91 1.970 . S
O150 C120 1.325 . S
O151 Li89 1.961 . S
O151 Li90 1.970 . S
O151 Li91 1.956 . S
O151 C126 1.325 . S
H152 C94 0.929 . S
H153 C95 0.930 . S
H154 C96 0.930 . S
H155 C97 0.930 . S
H156 C99 0.930 . S
H157 C101 0.929 . S
H158 C102 0.930 . S
H159 C103 0.930 . S
H160 C106 0.930 . S
H161 C109 0.929 . S
H162 C114 0.929 . S
H163 C115 0.930 . S
H164 C122 0.929 1_565 S
H165 C123 0.930 . S
H166 C124 0.930 . S
H167 C125 0.930 . S
H168 C127 0.929 . S
H169 C128 0.930 . S
H170 C129 0.930 . S
H171 C130 0.930 . S
H172 C134 0.929 . S
H173 C136 0.930 1_545 S
H174 C142 0.929 . S
H175 C143 0.930 . S
Li176 N193 1.990 . S
Li176 O236 1.956 . S
Li176 O237 1.970 . S
Li176 O238 1.961 . S
Li177 N201 1.990 . S
Li177 O236 1.970 . S
Li177 O237 1.956 . S
Li177 O239 1.961 . S
Li178 N223 1.990 . S
Li178 O236 1.961 . S
Li178 O238 1.956 . S
Li178 O239 1.970 . S
Li179 N229 1.990 . S
Li179 O237 1.961 . S
Li179 O238 1.970 . S
Li179 O239 1.956 . S
C180 C182 1.348 . S
C180 C183 1.356 . S
C180 O236 1.325 . S
N181 C184 1.314 . S
N181 C185 1.279 . S
C182 C180 1.348 . S
C182 C184 1.353 . S
C182 H240 0.929 . S
C183 C180 1.356 . S
C183 C185 1.358 . S
C183 H241 0.930 . S
C184 N181 1.314 . S
C184 C182 1.353 . S
C184 H242 0.930 . S
C185 N181 1.279 . S
C185 C183 1.358 . S
C185 H243 0.930 . S
C186 C189 1.348 . S
C186 C190 1.356 . S
C186 O237 1.325 . S
C187 N188 1.279 . S
C187 C190 1.358 . S
C187 H244 0.930 . S
N188 C187 1.279 . S
N188 C191 1.314 . S
C189 C186 1.348 . S
C189 C191 1.353 . S
C189 H245 0.929 . S
C190 C186 1.356 . S
C190 C187 1.358 . S
C190 H246 0.930 . S
C191 N188 1.314 . S
C191 C189 1.353 . S
C191 H247 0.930 . S
C192 N193 1.314 . S
C192 C197 1.353 . S
C192 H198 0.930 . S
N193 Li176 1.990 . S
N193 C192 1.314 . S
N193 C195 1.279 . S
C194 C195 1.358 . S
C194 C196 1.356 . S
C194 H248 0.930 . S
C195 N193 1.279 . S
C195 C194 1.358 . S
C195 H199 0.930 . S
C196 C194 1.356 . S
C196 C197 1.348 . S
C197 C192 1.353 . S
C197 C196 1.348 . S
C197 H249 0.929 . S
H198 C192 0.930 . S
H199 C195 0.930 . S
C200 N201 1.314 . S
C200 C202 1.353 . S
C200 H206 0.930 . S
N201 Li177 1.990 . S
N201 C200 1.314 . S
N201 C204 1.279 . S
C202 C200 1.353 . S
C202 C205 1.348 . S
C202 H250 0.929 . S
C203 C204 1.358 . S
C203 C205 1.356 . S
C203 H251 0.930 . S
C204 N201 1.279 . S
C204 C203 1.358 . S
C204 H207 0.930 . S
C205 C202 1.348 . S
C205 C203 1.356 . S
H206 C200 0.930 . S
H207 C204 0.930 . S
C208 C210 1.348 . S
C208 C211 1.356 . S
C208 O238 1.325 . S
N209 C212 1.314 . S
N209 C213 1.279 . S
C210 C208 1.348 . S
C210 C212 1.353 . S
C210 H252 0.929 . S
C211 C208 1.356 . S
C211 C213 1.358 . S
C211 H253 0.930 . S
C212 N209 1.314 . S
C212 C210 1.353 . S
C212 H254 0.930 . S
C213 N209 1.279 . S
C213 C211 1.358 . S
C213 H255 0.930 . S
C214 C215 1.348 . S
C214 C216 1.356 . S
C214 O239 1.325 . S
C215 C214 1.348 . S
C215 C217 1.353 . S
C215 H256 0.929 . S
C216 C214 1.356 . S
C216 C218 1.358 . S
C216 H257 0.930 . S
C217 C215 1.353 . S
C217 N219 1.314 . S
C217 H258 0.930 . S
C218 C216 1.358 . S
C218 N219 1.279 . S
C218 H259 0.930 . S
N219 C217 1.314 . S
N219 C218 1.279 . S
C220 C222 1.353 . S
C220 N223 1.314 . S
C220 H226 0.930 . S
C221 N223 1.279 . S
C221 C224 1.358 . S
C221 H227 0.930 . S
C222 C220 1.353 . S
C222 C225 1.348 . S
C222 H260 0.929 . S
N223 Li178 1.990 . S
N223 C220 1.314 . S
N223 C221 1.279 . S
C224 C221 1.358 . S
C224 C225 1.356 . S
C224 H261 0.930 . S
C225 C222 1.348 . S
C225 C224 1.356 . S
H226 C220 0.930 . S
H227 C221 0.930 . S
C228 N229 1.314 . S
C228 C230 1.353 . S
C228 H234 0.930 . S
N229 Li179 1.990 . S
N229 C228 1.314 . S
N229 C232 1.279 . S
C230 C228 1.353 . S
C230 C233 1.348 . S
C230 H262 0.929 . S
C231 C232 1.358 . S
C231 C233 1.356 . S
C231 H263 0.930 . S
C232 N229 1.279 . S
C232 C231 1.358 . S
C232 H235 0.930 . S
C233 C230 1.348 . S
C233 C231 1.356 . S
H234 C228 0.930 . S
H235 C232 0.930 . S
O236 Li176 1.956 . S
O236 Li177 1.970 . S
O236 Li178 1.961 . S
O236 C180 1.325 . S
O237 Li176 1.970 . S
O237 Li177 1.956 . S
O237 Li179 1.961 . S
O237 C186 1.325 . S
O238 Li176 1.961 . S
O238 Li178 1.956 . S
O238 Li179 1.970 . S
O238 C208 1.325 . S
O239 Li177 1.961 . S
O239 Li178 1.970 . S
O239 Li179 1.956 . S
O239 C214 1.325 . S
H240 C182 0.929 . S
H241 C183 0.930 . S
H242 C184 0.930 . S
H243 C185 0.930 . S
H244 C187 0.930 . S
H245 C189 0.929 . S
H246 C190 0.930 . S
H247 C191 0.930 . S
H248 C194 0.930 . S
H249 C197 0.929 . S
H250 C202 0.929 . S
H251 C203 0.930 . S
H252 C210 0.929 . S
H253 C211 0.930 . S
H254 C212 0.930 . S
H255 C213 0.930 . S
H256 C215 0.929 . S
H257 C216 0.930 . S
H258 C217 0.930 . S
H259 C218 0.930 . S
H260 C222 0.929 . S
H261 C224 0.930 . S
H262 C230 0.929 . S
H263 C231 0.930 . S
Li264 N281 1.990 . S
Li264 O324 1.956 . S
Li264 O325 1.970 . S
Li264 O326 1.961 . S
Li265 N289 1.990 . S
Li265 O324 1.970 . S
Li265 O325 1.956 . S
Li265 O327 1.961 . S
Li266 N311 1.990 . S
Li266 O324 1.961 . S
Li266 O326 1.956 . S
Li266 O327 1.970 . S
Li267 N317 1.990 . S
Li267 O325 1.961 . S
Li267 O326 1.970 . S
Li267 O327 1.956 . S
C268 C270 1.348 . S
C268 C271 1.356 . S
C268 O324 1.325 . S
N269 C272 1.314 . S
N269 C273 1.279 . S
C270 C268 1.348 . S
C270 C272 1.353 . S
C270 H328 0.929 . S
C271 C268 1.356 . S
C271 C273 1.358 . S
C271 H329 0.930 . S
C272 N269 1.314 . S
C272 C270 1.353 . S
C272 H330 0.930 . S
C273 N269 1.279 . S
C273 C271 1.358 . S
C273 H331 0.930 . S
C274 C277 1.348 . S
C274 C278 1.356 . S
C274 O325 1.325 . S
C275 N276 1.279 . S
C275 C278 1.358 . S
C275 H332 0.930 . S
N276 C275 1.279 . S
N276 C279 1.314 . S
C277 C274 1.348 . S
C277 C279 1.353 . S
C277 H333 0.929 . S
C278 C274 1.356 . S
C278 C275 1.358 . S
C278 H334 0.930 . S
C279 N276 1.314 . S
C279 C277 1.353 . S
C279 H335 0.930 . S
C280 N281 1.314 . S
C280 C285 1.353 1_545 S
C280 H286 0.930 . S
N281 Li264 1.990 . S
N281 C280 1.314 . S
N281 C283 1.279 . S
C282 C283 1.358 . S
C282 C284 1.356 . S
C282 H336 0.930 . S
C283 N281 1.279 . S
C283 C282 1.358 . S
C283 H287 0.930 . S
C284 C282 1.356 . S
C284 C285 1.348 1_545 S
C285 C280 1.353 1_565 S
C285 C284 1.348 1_565 S
C285 H337 0.929 . S
H286 C280 0.930 . S
H287 C283 0.930 . S
C288 N289 1.314 . S
C288 C290 1.353 . S
C288 H294 0.930 . S
N289 Li265 1.990 . S
N289 C288 1.314 . S
N289 C292 1.279 . S
C290 C288 1.353 . S
C290 C293 1.348 . S
C290 H338 0.929 . S
C291 C292 1.358 . S
C291 C293 1.356 . S
C291 H339 0.930 . S
C292 N289 1.279 . S
C292 C291 1.358 . S
C292 H295 0.930 . S
C293 C290 1.348 . S
C293 C291 1.356 . S
H294 C288 0.930 . S
H295 C292 0.930 . S
C296 C298 1.348 1_545 S
C296 C299 1.356 1_545 S
C296 O326 1.325 . S
N297 C300 1.314 . S
N297 C301 1.279 . S
C298 C296 1.348 1_565 S
C298 C300 1.353 . S
C298 H340 0.929 1_565 S
C299 C296 1.356 1_565 S
C299 C301 1.358 . S
C299 H341 0.930 . S
C300 N297 1.314 . S
C300 C298 1.353 . S
C300 H342 0.930 . S
C301 N297 1.279 . S
C301 C299 1.358 . S
C301 H343 0.930 . S
C302 C303 1.348 . S
C302 C304 1.356 . S
C302 O327 1.325 . S
C303 C302 1.348 . S
C303 C305 1.353 1_655 S
C303 H344 0.929 . S
C304 C302 1.356 . S
C304 C306 1.358 1_655 S
C304 H345 0.930 . S
C305 C303 1.353 1_455 S
C305 N307 1.314 . S
C305 H346 0.930 . S
C306 C304 1.358 1_455 S
C306 N307 1.279 . S
C306 H347 0.930 . S
N307 C305 1.314 . S
N307 C306 1.279 . S
C308 C310 1.353 . S
C308 N311 1.314 . S
C308 H314 0.930 . S
C309 N311 1.279 . S
C309 C312 1.358 . S
C309 H315 0.930 . S
C310 C308 1.353 . S
C310 C313 1.348 . S
C310 H348 0.929 . S
N311 Li266 1.990 . S
N311 C308 1.314 . S
N311 C309 1.279 . S
C312 C309 1.358 . S
C312 C313 1.356 . S
C312 H349 0.930 1_545 S
C313 C310 1.348 . S
C313 C312 1.356 . S
H314 C308 0.930 . S
H315 C309 0.930 . S
C316 N317 1.314 . S
C316 C318 1.353 1_655 S
C316 H322 0.930 . S
N317 Li267 1.990 . S
N317 C316 1.314 . S
N317 C320 1.279 1_655 S
C318 C316 1.353 1_455 S
C318 C321 1.348 . S
C318 H350 0.929 . S
C319 C320 1.358 . S
C319 C321 1.356 . S
C319 H351 0.930 . S
C320 N317 1.279 1_455 S
C320 C319 1.358 . S
C320 H323 0.930 . S
C321 C318 1.348 . S
C321 C319 1.356 . S
H322 C316 0.930 . S
H323 C320 0.930 . S
O324 Li264 1.956 . S
O324 Li265 1.970 . S
O324 Li266 1.961 . S
O324 C268 1.325 . S
O325 Li264 1.970 . S
O325 Li265 1.956 . S
O325 Li267 1.961 . S
O325 C274 1.325 . S
O326 Li264 1.961 . S
O326 Li266 1.956 . S
O326 Li267 1.970 . S
O326 C296 1.325 . S
O327 Li265 1.961 . S
O327 Li266 1.970 . S
O327 Li267 1.956 . S
O327 C302 1.325 . S
H328 C270 0.929 . S
H329 C271 0.930 . S
H330 C272 0.930 . S
H331 C273 0.930 . S
H332 C275 0.930 . S
H333 C277 0.929 . S
H334 C278 0.930 . S
H335 C279 0.930 . S
H336 C282 0.930 . S
H337 C285 0.929 . S
H338 C290 0.929 . S
H339 C291 0.930 . S
H340 C298 0.929 1_545 S
H341 C299 0.930 . S
H342 C300 0.930 . S
H343 C301 0.930 . S
H344 C303 0.929 . S
H345 C304 0.930 . S
H346 C305 0.930 . S
H347 C306 0.930 . S
H348 C310 0.929 . S
H349 C312 0.930 1_565 S
H350 C318 0.929 . S
H351 C319 0.930 . S
Li352 N369 1.990 . S
Li352 O412 1.956 . S
Li352 O413 1.970 . S
Li352 O414 1.961 . S
Li353 N377 1.990 . S
Li353 O412 1.970 . S
Li353 O413 1.956 . S
Li353 O415 1.961 . S
Li354 N399 1.990 . S
Li354 O412 1.961 . S
Li354 O414 1.956 . S
Li354 O415 1.970 . S
Li355 N405 1.990 . S
Li355 O413 1.961 . S
Li355 O414 1.970 . S
Li355 O415 1.956 . S
C356 C358 1.348 . S
C356 C359 1.356 . S
C356 O412 1.325 . S
N357 C360 1.314 . S
N357 C361 1.279 . S
C358 C356 1.348 . S
C358 C360 1.353 . S
C358 H416 0.929 . S
C359 C356 1.356 . S
C359 C361 1.358 . S
C359 H417 0.930 . S
C360 N357 1.314 . S
C360 C358 1.353 . S
C360 H418 0.930 . S
C361 N357 1.279 . S
C361 C359 1.358 . S
C361 H419 0.930 . S
C362 C365 1.348 . S
C362 C366 1.356 . S
C362 O413 1.325 . S
C363 N364 1.279 . S
C363 C366 1.358 . S
C363 H420 0.930 . S
N364 C363 1.279 . S
N364 C367 1.314 . S
C365 C362 1.348 . S
C365 C367 1.353 . S
C365 H421 0.929 . S
C366 C362 1.356 . S
C366 C363 1.358 . S
C366 H422 0.930 . S
C367 N364 1.314 . S
C367 C365 1.353 . S
C367 H423 0.930 . S
C368 N369 1.314 . S
C368 C373 1.353 . S
C368 H374 0.930 . S
N369 Li352 1.990 . S
N369 C368 1.314 . S
N369 C371 1.279 . S
C370 C371 1.358 . S
C370 C372 1.356 . S
C370 H424 0.930 . S
C371 N369 1.279 . S
C371 C370 1.358 . S
C371 H375 0.930 . S
C372 C370 1.356 . S
C372 C373 1.348 . S
C373 C368 1.353 . S
C373 C372 1.348 . S
C373 H425 0.929 . S
H374 C368 0.930 . S
H375 C371 0.930 . S
C376 N377 1.314 1_455 S
C376 C378 1.353 . S
C376 H382 0.930 . S
N377 Li353 1.990 . S
N377 C376 1.314 1_655 S
N377 C380 1.279 . S
C378 C376 1.353 . S
C378 C381 1.348 . S
C378 H426 0.929 . S
C379 C380 1.358 1_455 S
C379 C381 1.356 . S
C379 H427 0.930 . S
C380 N377 1.279 . S
C380 C379 1.358 1_655 S
C380 H383 0.930 . S
C381 C378 1.348 . S
C381 C379 1.356 . S
H382 C376 0.930 . S
H383 C380 0.930 . S
C384 C386 1.348 . S
C384 C387 1.356 . S
C384 O414 1.325 . S
N385 C388 1.314 . S
N385 C389 1.279 . S
C386 C384 1.348 . S
C386 C388 1.353 . S
C386 H428 0.929 . S
C387 C384 1.356 . S
C387 C389 1.358 . S
C387 H429 0.930 . S
C388 N385 1.314 . S
C388 C386 1.353 . S
C388 H430 0.930 . S
C389 N385 1.279 . S
C389 C387 1.358 . S
C389 H431 0.930 . S
C390 C391 1.348 . S
C390 C392 1.350 1_655 S
C390 O415 1.325 . S
C391 C390 1.348 . S
C391 C393 1.353 1_655 S
C391 H432 0.929 . S
C392 C390 1.350 1_455 S
C392 C394 1.366 . S
C392 H433 0.928 1_455 S
C393 C391 1.353 1_455 S
C393 N395 1.314 . S
C393 H434 0.930 . S
C394 C392 1.366 . S
C394 N395 1.279 . S
C394 H435 0.930 . S
N395 C393 1.314 . S
N395 C394 1.279 . S
C396 C398 1.353 . S
C396 N399 1.314 . S
C396 H402 0.930 . S
C397 N399 1.279 . S
C397 C400 1.358 . S
C397 H403 0.930 . S
C398 C396 1.353 . S
C398 C401 1.348 . S
C398 H436 0.929 . S
N399 Li354 1.990 . S
N399 C396 1.314 . S
N399 C397 1.279 . S
C400 C397 1.358 . S
C400 C401 1.356 . S
C400 H437 0.930 . S
C401 C398 1.348 . S
C401 C400 1.356 . S
H402 C396 0.930 . S
H403 C397 0.930 . S
C404 N405 1.314 . S
C404 C406 1.353 . S
C404 H410 0.930 . S
N405 Li355 1.990 . S
N405 C404 1.314 . S
N405 C408 1.279 . S
C406 C404 1.353 . S
C406 C409 1.348 . S
C406 H438 0.929 . S
C407 C408 1.358 . S
C407 C409 1.356 . S
C407 H439 0.930 . S
C408 N405 1.279 . S
C408 C407 1.358 . S
C408 H411 0.930 . S
C409 C406 1.348 . S
C409 C407 1.356 . S
H410 C404 0.930 . S
H411 C408 0.930 . S
O412 Li352 1.956 . S
O412 Li353 1.970 . S
O412 Li354 1.961 . S
O412 C356 1.325 . S
O413 Li352 1.970 . S
O413 Li353 1.956 . S
O413 Li355 1.961 . S
O413 C362 1.325 . S
O414 Li352 1.961 . S
O414 Li354 1.956 . S
O414 Li355 1.970 . S
O414 C384 1.325 . S
O415 Li353 1.961 . S
O415 Li354 1.970 . S
O415 Li355 1.956 . S
O415 C390 1.325 . S
H416 C358 0.929 . S
H417 C359 0.930 . S
H418 C360 0.930 . S
H419 C361 0.930 . S
H420 C363 0.930 . S
H421 C365 0.929 . S
H422 C366 0.930 . S
H423 C367 0.930 . S
H424 C370 0.930 . S
H425 C373 0.929 . S
H426 C378 0.929 . S
H427 C379 0.930 . S
H428 C386 0.929 . S
H429 C387 0.930 . S
H430 C388 0.930 . S
H431 C389 0.930 . S
H432 C391 0.929 . S
H433 C392 0.928 1_655 S
H434 C393 0.930 . S
H435 C394 0.930 . S
H436 C398 0.929 . S
H437 C400 0.930 . S
H438 C406 0.929 . S
H439 C407 0.930 . S
Li440 N457 1.990 . S
Li440 O500 1.956 . S
Li440 O501 1.970 . S
Li440 O502 1.961 . S
Li441 N465 1.990 . S
Li441 O500 1.970 . S
Li441 O501 1.956 . S
Li441 O503 1.961 . S
Li442 N487 1.990 . S
Li442 O500 1.961 . S
Li442 O502 1.956 . S
Li442 O503 1.970 . S
Li443 N493 1.990 . S
Li443 O501 1.961 . S
Li443 O502 1.970 . S
Li443 O503 1.956 . S
C444 C446 1.348 . S
C444 C447 1.356 . S
C444 O500 1.325 . S
N445 C448 1.314 . S
N445 C449 1.279 . S
C446 C444 1.348 . S
C446 C448 1.353 . S
C446 H504 0.929 . S
C447 C444 1.356 . S
C447 C449 1.358 . S
C447 H505 0.930 . S
C448 N445 1.314 . S
C448 C446 1.353 . S
C448 H506 0.930 . S
C449 N445 1.279 . S
C449 C447 1.358 . S
C449 H507 0.930 . S
C450 C453 1.348 1_545 S
C450 C454 1.356 1_545 S
C450 O501 1.325 . S
C451 N452 1.279 . S
C451 C454 1.358 . S
C451 H508 0.930 . S
N452 C451 1.279 . S
N452 C455 1.314 . S
C453 C450 1.348 1_565 S
C453 C455 1.353 . S
C453 H509 0.935 . S
C454 C450 1.356 1_565 S
C454 C451 1.358 . S
C454 H510 0.930 . S
C455 N452 1.314 . S
C455 C453 1.353 . S
C455 H511 0.930 . S
C456 N457 1.314 . S
C456 C461 1.353 . S
C456 H462 0.930 . S
N457 Li440 1.990 . S
N457 C456 1.314 . S
N457 C459 1.279 . S
C458 C459 1.358 . S
C458 C460 1.356 . S
C458 H512 0.930 . S
C459 N457 1.279 . S
C459 C458 1.358 . S
C459 H463 0.930 . S
C460 C458 1.356 . S
C460 C461 1.348 . S
C461 C456 1.353 . S
C461 C460 1.348 . S
C461 H513 0.929 . S
H462 C456 0.930 . S
H463 C459 0.930 . S
C464 N465 1.314 . S
C464 C466 1.353 . S
C464 H470 0.930 . S
N465 Li441 1.990 . S
N465 C464 1.314 . S
N465 C468 1.279 . S
C466 C464 1.353 . S
C466 C469 1.348 . S
C466 H514 0.929 . S
C467 C468 1.358 1_565 S
C467 C469 1.356 1_565 S
C467 H515 0.930 . S
C468 N465 1.279 . S
C468 C467 1.358 1_545 S
C468 H471 0.930 1_545 S
C469 C466 1.348 . S
C469 C467 1.356 1_545 S
H470 C464 0.930 . S
H471 C468 0.930 1_565 S
C472 C474 1.348 . S
C472 C475 1.356 . S
C472 O502 1.325 . S
N473 C476 1.314 . S
N473 C477 1.279 . S
C474 C472 1.348 . S
C474 C476 1.353 . S
C474 H516 0.929 . S
C475 C472 1.356 . S
C475 C477 1.358 . S
C475 H517 0.930 . S
C476 N473 1.314 . S
C476 C474 1.353 . S
C476 H518 0.930 . S
C477 N473 1.279 . S
C477 C475 1.358 . S
C477 H519 0.930 . S
C478 C479 1.348 . S
C478 C480 1.356 . S
C478 O503 1.325 . S
C479 C478 1.348 . S
C479 C481 1.353 . S
C479 H520 0.929 . S
C480 C478 1.356 . S
C480 C482 1.358 . S
C480 H521 0.930 . S
C481 C479 1.353 . S
C481 N483 1.314 . S
C481 H522 0.930 . S
C482 C480 1.358 . S
C482 N483 1.279 . S
C482 H523 0.930 . S
N483 C481 1.314 . S
N483 C482 1.279 . S
C484 C486 1.353 . S
C484 N487 1.314 . S
C484 H490 0.930 . S
C485 N487 1.279 . S
C485 C488 1.358 . S
C485 H491 0.930 . S
C486 C484 1.353 . S
C486 C489 1.348 . S
C486 H524 0.929 . S
N487 Li442 1.990 . S
N487 C484 1.314 . S
N487 C485 1.279 . S
C488 C485 1.358 . S
C488 C489 1.356 . S
C488 H525 0.930 . S
C489 C486 1.348 . S
C489 C488 1.356 . S
H490 C484 0.930 . S
H491 C485 0.930 . S
C492 N493 1.314 . S
C492 C494 1.353 . S
C492 H498 0.930 . S
N493 Li443 1.990 . S
N493 C492 1.314 . S
N493 C496 1.279 . S
C494 C492 1.353 . S
C494 C497 1.348 . S
C494 H526 0.929 1_545 S
C495 C496 1.358 . S
C495 C497 1.356 . S
C495 H527 0.930 . S
C496 N493 1.279 . S
C496 C495 1.358 . S
C496 H499 0.930 . S
C497 C494 1.348 . S
C497 C495 1.356 . S
H498 C492 0.930 . S
H499 C496 0.930 . S
O500 Li440 1.956 . S
O500 Li441 1.970 . S
O500 Li442 1.961 . S
O500 C444 1.325 . S
O501 Li440 1.970 . S
O501 Li441 1.956 . S
O501 Li443 1.961 . S
O501 C450 1.325 . S
O502 Li440 1.961 . S
O502 Li442 1.956 . S
O502 Li443 1.970 . S
O502 C472 1.325 . S
O503 Li441 1.961 . S
O503 Li442 1.970 . S
O503 Li443 1.956 . S
O503 C478 1.325 . S
H504 C446 0.929 . S
H505 C447 0.930 . S
H506 C448 0.930 . S
H507 C449 0.930 . S
H508 C451 0.930 . S
H509 C453 0.935 . S
H510 C454 0.930 . S
H511 C455 0.930 . S
H512 C458 0.930 . S
H513 C461 0.929 . S
H514 C466 0.929 . S
H515 C467 0.930 . S
H516 C474 0.929 . S
H517 C475 0.930 . S
H518 C476 0.930 . S
H519 C477 0.930 . S
H520 C479 0.929 . S
H521 C480 0.930 . S
H522 C481 0.930 . S
H523 C482 0.930 . S
H524 C486 0.929 . S
H525 C488 0.930 . S
H526 C494 0.929 1_565 S
H527 C495 0.930 . S
Li528 N545 1.990 . S
Li528 O588 1.956 . S
Li528 O589 1.970 . S
Li528 O590 1.961 . S
Li529 N553 1.990 . S
Li529 O588 1.970 . S
Li529 O589 1.956 . S
Li529 O591 1.961 . S
Li530 N575 1.990 . S
Li530 O588 1.961 . S
Li530 O590 1.956 . S
Li530 O591 1.970 . S
Li531 N581 1.990 . S
Li531 O589 1.961 . S
Li531 O590 1.970 . S
Li531 O591 1.956 . S
C532 C534 1.348 . S
C532 C535 1.356 . S
C532 O588 1.325 . S
N533 C536 1.314 . S
N533 C537 1.279 . S
C534 C532 1.348 . S
C534 C536 1.353 . S
C534 H592 0.929 . S
C535 C532 1.356 . S
C535 C537 1.358 . S
C535 H593 0.930 . S
C536 N533 1.314 . S
C536 C534 1.353 . S
C536 H594 0.930 . S
C537 N533 1.279 . S
C537 C535 1.358 . S
C537 H595 0.930 . S
C538 C541 1.348 . S
C538 C542 1.356 . S
C538 O589 1.325 . S
C539 N540 1.279 . S
C539 C542 1.358 . S
C539 H596 0.930 . S
N540 C539 1.279 . S
N540 C543 1.314 . S
C541 C538 1.348 . S
C541 C543 1.353 . S
C541 H597 0.929 . S
C542 C538 1.356 . S
C542 C539 1.358 . S
C542 H598 0.930 . S
C543 N540 1.314 . S
C543 C541 1.353 . S
C543 H599 0.930 . S
C544 N545 1.314 . S
C544 C549 1.353 . S
C544 H550 0.930 . S
N545 Li528 1.990 . S
N545 C544 1.314 . S
N545 C547 1.279 . S
C546 C547 1.358 . S
C546 C548 1.356 . S
C546 H600 0.930 . S
C547 N545 1.279 . S
C547 C546 1.358 . S
C547 H551 0.930 . S
C548 C546 1.356 . S
C548 C549 1.348 . S
C549 C544 1.353 . S
C549 C548 1.348 . S
C549 H601 0.929 . S
H550 C544 0.930 . S
H551 C547 0.930 . S
C552 N553 1.314 . S
C552 C554 1.353 . S
C552 H558 0.930 . S
N553 Li529 1.990 . S
N553 C552 1.314 . S
N553 C556 1.279 . S
C554 C552 1.353 . S
C554 C557 1.348 . S
C554 H602 0.929 . S
C555 C556 1.358 . S
C555 C557 1.356 . S
C555 H603 0.930 . S
C556 N553 1.279 . S
C556 C555 1.358 . S
C556 H559 0.930 . S
C557 C554 1.348 . S
C557 C555 1.356 . S
H558 C552 0.930 . S
H559 C556 0.930 . S
C560 C562 1.348 . S
C560 C563 1.356 . S
C560 O590 1.325 . S
N561 C564 1.314 . S
N561 C565 1.279 . S
C562 C560 1.348 . S
C562 C564 1.353 . S
C562 H604 0.929 . S
C563 C560 1.356 . S
C563 C565 1.358 . S
C563 H605 0.930 . S
C564 N561 1.314 . S
C564 C562 1.353 . S
C564 H606 0.930 . S
C565 N561 1.279 . S
C565 C563 1.358 . S
C565 H607 0.930 . S
C566 C567 1.348 . S
C566 C568 1.356 . S
C566 O591 1.325 . S
C567 C566 1.348 . S
C567 C569 1.353 . S
C567 H608 0.929 . S
C568 C566 1.356 . S
C568 C570 1.358 . S
C568 H609 0.930 . S
C569 C567 1.353 . S
C569 N571 1.314 . S
C569 H610 0.930 . S
C570 C568 1.358 . S
C570 N571 1.279 . S
C570 H611 0.930 . S
N571 C569 1.314 . S
N571 C570 1.279 . S
C572 C574 1.353 . S
C572 N575 1.314 . S
C572 H578 0.930 . S
C573 N575 1.279 . S
C573 C576 1.358 . S
C573 H579 0.930 . S
C574 C572 1.353 . S
C574 C577 1.348 . S
C574 H612 0.929 . S
N575 Li530 1.990 . S
N575 C572 1.314 . S
N575 C573 1.279 . S
C576 C573 1.358 . S
C576 C577 1.356 . S
C576 H613 0.930 . S
C577 C574 1.348 . S
C577 C576 1.356 . S
H578 C572 0.930 . S
H579 C573 0.930 . S
C580 N581 1.314 . S
C580 C582 1.353 . S
C580 H586 0.930 . S
N581 Li531 1.990 . S
N581 C580 1.314 . S
N581 C584 1.279 . S
C582 C580 1.353 . S
C582 C585 1.348 . S
C582 H614 0.929 . S
C583 C584 1.358 . S
C583 C585 1.356 . S
C583 H615 0.930 . S
C584 N581 1.279 . S
C584 C583 1.358 . S
C584 H587 0.930 . S
C585 C582 1.348 . S
C585 C583 1.356 . S
H586 C580 0.930 . S
H587 C584 0.930 . S
O588 Li528 1.956 . S
O588 Li529 1.970 . S
O588 Li530 1.961 . S
O588 C532 1.325 . S
O589 Li528 1.970 . S
O589 Li529 1.956 . S
O589 Li531 1.961 . S
O589 C538 1.325 . S
O590 Li528 1.961 . S
O590 Li530 1.956 . S
O590 Li531 1.970 . S
O590 C560 1.325 . S
O591 Li529 1.961 . S
O591 Li530 1.970 . S
O591 Li531 1.956 . S
O591 C566 1.325 . S
H592 C534 0.929 . S
H593 C535 0.930 . S
H594 C536 0.930 . S
H595 C537 0.930 . S
H596 C539 0.930 . S
H597 C541 0.929 . S
H598 C542 0.930 . S
H599 C543 0.930 . S
H600 C546 0.930 . S
H601 C549 0.929 . S
H602 C554 0.929 . S
H603 C555 0.930 . S
H604 C562 0.929 . S
H605 C563 0.930 . S
H606 C564 0.930 . S
H607 C565 0.930 . S
H608 C567 0.929 . S
H609 C568 0.930 . S
H610 C569 0.930 . S
H611 C570 0.930 . S
H612 C574 0.929 . S
H613 C576 0.930 . S
H614 C582 0.929 . S
H615 C583 0.930 . S
Li616 N633 1.990 . S
Li616 O676 1.956 . S
Li616 O677 1.970 . S
Li616 O678 1.961 . S
Li617 N641 1.990 . S
Li617 O676 1.970 . S
Li617 O677 1.956 . S
Li617 O679 1.961 . S
Li618 N663 1.990 . S
Li618 O676 1.961 . S
Li618 O678 1.956 . S
Li618 O679 1.970 . S
Li619 N669 1.990 . S
Li619 O677 1.961 . S
Li619 O678 1.970 . S
Li619 O679 1.956 . S
C620 C622 1.348 . S
C620 C623 1.356 . S
C620 O676 1.325 . S
N621 C624 1.314 . S
N621 C625 1.279 . S
C622 C620 1.348 . S
C622 C624 1.353 . S
C622 H680 0.929 . S
C623 C620 1.356 . S
C623 C625 1.358 . S
C623 H681 0.930 . S
C624 N621 1.314 . S
C624 C622 1.353 . S
C624 H682 0.930 . S
C625 N621 1.279 . S
C625 C623 1.358 . S
C625 H683 0.930 . S
C626 C629 1.348 . S
C626 C630 1.350 1_455 S
C626 O677 1.325 . S
C627 N628 1.279 . S
C627 C630 1.366 . S
C627 H684 0.930 . S
N628 C627 1.279 . S
N628 C631 1.314 . S
C629 C626 1.348 . S
C629 C631 1.353 1_455 S
C629 H685 0.929 . S
C630 C626 1.350 1_655 S
C630 C627 1.366 . S
C630 H686 0.928 1_655 S
C631 N628 1.314 . S
C631 C629 1.353 1_655 S
C631 H687 0.930 . S
C632 N633 1.314 . S
C632 C637 1.353 . S
C632 H638 0.930 . S
N633 Li616 1.990 . S
N633 C632 1.314 . S
N633 C635 1.279 . S
C634 C635 1.358 . S
C634 C636 1.356 . S
C634 H688 0.930 . S
C635 N633 1.279 . S
C635 C634 1.358 . S
C635 H639 0.930 . S
C636 C634 1.356 . S
C636 C637 1.348 . S
C637 C632 1.353 . S
C637 C636 1.348 . S
C637 H689 0.929 1_565 S
H638 C632 0.930 . S
H639 C635 0.930 . S
C640 N641 1.314 . S
C640 C642 1.353 . S
C640 H646 0.930 . S
N641 Li617 1.990 . S
N641 C640 1.314 . S
N641 C644 1.279 . S
C642 C640 1.353 . S
C642 C645 1.348 . S
C642 H690 0.929 . S
C643 C644 1.358 . S
C643 C645 1.356 . S
C643 H691 0.930 . S
C644 N641 1.279 . S
C644 C643 1.358 . S
C644 H647 0.930 . S
C645 C642 1.348 . S
C645 C643 1.356 . S
H646 C640 0.930 . S
H647 C644 0.930 . S
C648 C650 1.348 1_565 S
C648 C651 1.356 1_565 S
C648 O678 1.325 . S
N649 C652 1.314 . S
N649 C653 1.279 . S
C650 C648 1.348 1_545 S
C650 C652 1.353 . S
C650 H692 0.935 . S
C651 C648 1.356 1_545 S
C651 C653 1.358 . S
C651 H693 0.930 . S
C652 N649 1.314 . S
C652 C650 1.353 . S
C652 H694 0.930 . S
C653 N649 1.279 . S
C653 C651 1.358 . S
C653 H695 0.930 . S
C654 C655 1.348 . S
C654 C656 1.356 . S
C654 O679 1.325 . S
C655 C654 1.348 . S
C655 C657 1.353 . S
C655 H696 0.929 . S
C656 C654 1.356 . S
C656 C658 1.358 . S
C656 H697 0.930 . S
C657 C655 1.353 . S
C657 N659 1.314 . S
C657 H698 0.930 . S
C658 C656 1.358 . S
C658 N659 1.279 . S
C658 H699 0.930 . S
N659 C657 1.314 . S
N659 C658 1.279 . S
C660 C662 1.353 . S
C660 N663 1.314 . S
C660 H666 0.930 . S
C661 N663 1.279 . S
C661 C664 1.358 1_565 S
C661 H667 0.930 1_565 S
C662 C660 1.353 . S
C662 C665 1.348 . S
C662 H700 0.929 . S
N663 Li618 1.990 . S
N663 C660 1.314 . S
N663 C661 1.279 . S
C664 C661 1.358 1_545 S
C664 C665 1.356 1_545 S
C664 H701 0.930 . S
C665 C662 1.348 . S
C665 C664 1.356 1_565 S
H666 C660 0.930 . S
H667 C661 0.930 1_545 S
C668 N669 1.314 1_655 S
C668 C670 1.353 . S
C668 H674 0.930 . S
N669 Li619 1.990 . S
N669 C668 1.314 1_455 S
N669 C672 1.279 . S
C670 C668 1.353 . S
C670 C673 1.348 . S
C670 H702 0.929 . S
C671 C672 1.358 1_655 S
C671 C673 1.356 . S
C671 H703 0.930 . S
C672 N669 1.279 . S
C672 C671 1.358 1_455 S
C672 H675 0.930 . S
C673 C670 1.348 . S
C673 C671 1.356 . S
H674 C668 0.930 . S
H675 C672 0.930 . S
O676 Li616 1.956 . S
O676 Li617 1.970 . S
O676 Li618 1.961 . S
O676 C620 1.325 . S
O677 Li616 1.970 . S
O677 Li617 1.956 . S
O677 Li619 1.961 . S
O677 C626 1.325 . S
O678 Li616 1.961 . S
O678 Li618 1.956 . S
O678 Li619 1.970 . S
O678 C648 1.325 . S
O679 Li617 1.961 . S
O679 Li618 1.970 . S
O679 Li619 1.956 . S
O679 C654 1.325 . S
H680 C622 0.929 . S
H681 C623 0.930 . S
H682 C624 0.930 . S
H683 C625 0.930 . S
H684 C627 0.930 . S
H685 C629 0.929 . S
H686 C630 0.928 1_455 S
H687 C631 0.930 . S
H688 C634 0.930 . S
H689 C637 0.929 1_545 S
H690 C642 0.929 . S
H691 C643 0.930 . S
H692 C650 0.935 . S
H693 C651 0.930 . S
H694 C652 0.930 . S
H695 C653 0.930 . S
H696 C655 0.929 . S
H697 C656 0.930 . S
H698 C657 0.930 . S
H699 C658 0.930 . S
H700 C662 0.929 . S
H701 C664 0.930 . S
H702 C670 0.929 . S
H703 C671 0.930 . S
C704 C705 1.369 . S
C704 C706 1.419 . S
C704 H708 0.930 . S
C705 C704 1.369 . S
C705 C714 1.429 . S
C706 C704 1.419 . S
C706 C707 1.363 . S
C706 H709 0.929 . S
C707 C706 1.363 . S
C707 C713 1.428 . S
H708 C704 0.930 . S
H709 C706 0.929 . S
S710 N711 1.613 . S
S710 N712 1.610 . S
N711 S710 1.613 . S
N711 C714 1.350 . S
N712 S710 1.610 . S
N712 C713 1.351 . S
C713 C707 1.428 . S
C713 N712 1.351 . S
C713 C714 1.434 . S
C714 C705 1.429 . S
C714 N711 1.350 . S
C714 C713 1.434 . S
C715 C716 1.369 . S
C715 C717 1.419 . S
C715 H719 0.930 . S
C716 C715 1.369 . S
C716 C725 1.429 . S
C717 C715 1.419 . S
C717 C718 1.363 . S
C717 H720 0.929 1_545 S
C718 C717 1.363 . S
C718 C724 1.428 . S
H719 C715 0.930 . S
H720 C717 0.929 1_565 S
S721 N722 1.613 . S
S721 N723 1.610 . S
N722 S721 1.613 . S
N722 C725 1.350 . S
N723 S721 1.610 . S
N723 C724 1.351 . S
C724 C718 1.428 . S
C724 N723 1.351 . S
C724 C725 1.434 . S
C725 C716 1.429 . S
C725 N722 1.350 . S
C725 C724 1.434 . S
C726 C727 1.369 . S
C726 C728 1.419 . S
C726 H730 0.930 . S
C727 C726 1.369 . S
C727 C736 1.429 . S
C728 C726 1.419 . S
C728 C729 1.363 . S
C728 H731 0.929 . S
C729 C728 1.363 . S
C729 C735 1.428 . S
H730 C726 0.930 . S
H731 C728 0.929 . S
S732 N733 1.613 . S
S732 N734 1.610 . S
N733 S732 1.613 . S
N733 C736 1.350 . S
N734 S732 1.610 . S
N734 C735 1.351 . S
C735 C729 1.428 . S
C735 N734 1.351 . S
C735 C736 1.434 . S
C736 C727 1.429 . S
C736 N733 1.350 . S
C736 C735 1.434 . S
C737 C738 1.369 . S
C737 C739 1.419 . S
C737 H741 0.930 . S
C738 C737 1.369 . S
C738 C747 1.429 1_565 S
C739 C737 1.419 . S
C739 C740 1.363 . S
C739 H742 0.929 . S
C740 C739 1.363 . S
C740 C746 1.428 . S
H741 C737 0.930 . S
H742 C739 0.929 . S
S743 N744 1.613 . S
S743 N745 1.610 . S
N744 S743 1.613 . S
N744 C747 1.350 . S
N745 S743 1.610 . S
N745 C746 1.351 1_545 S
C746 C740 1.428 . S
C746 N745 1.351 1_565 S
C746 C747 1.434 1_565 S
C747 C738 1.429 1_545 S
C747 N744 1.350 . S
C747 C746 1.434 1_545 S
C748 C749 1.369 . S
C748 C750 1.419 . S
C748 H752 0.930 . S
C749 C748 1.369 . S
C749 C758 1.429 . S
C750 C748 1.419 . S
C750 C751 1.363 . S
C750 H753 0.929 . S
C751 C750 1.363 . S
C751 C757 1.428 . S
H752 C748 0.930 . S
H753 C750 0.929 . S
S754 N755 1.613 . S
S754 N756 1.610 . S
N755 S754 1.613 . S
N755 C758 1.350 . S
N756 S754 1.610 . S
N756 C757 1.351 . S
C757 C751 1.428 . S
C757 N756 1.351 . S
C757 C758 1.434 . S
C758 C749 1.429 . S
C758 N755 1.350 . S
C758 C757 1.434 . S
C759 C760 1.369 . S
C759 C761 1.419 . S
C759 H763 0.930 . S
C760 C759 1.369 . S
C760 C769 1.429 . S
C761 C759 1.419 . S
C761 C762 1.363 . S
C761 H764 0.929 . S
C762 C761 1.363 . S
C762 C768 1.428 . S
H763 C759 0.930 . S
H764 C761 0.929 . S
S765 N766 1.613 . S
S765 N767 1.610 1_545 S
N766 S765 1.613 . S
N766 C769 1.350 1_545 S
N767 S765 1.610 1_565 S
N767 C768 1.351 . S
C768 C762 1.428 . S
C768 N767 1.351 . S
C768 C769 1.434 . S
C769 C760 1.429 . S
C769 N766 1.350 1_565 S
C769 C768 1.434 . S
C770 C771 1.369 . S
C770 C772 1.419 . S
C770 H774 0.930 . S
C771 C770 1.369 . S
C771 C780 1.429 . S
C772 C770 1.419 . S
C772 C773 1.363 . S
C772 H775 0.929 . S
C773 C772 1.363 . S
C773 C779 1.428 . S
H774 C770 0.930 . S
H775 C772 0.929 . S
S776 N777 1.613 . S
S776 N778 1.610 . S
N777 S776 1.613 . S
N777 C780 1.350 . S
N778 S776 1.610 . S
N778 C779 1.351 . S
C779 C773 1.428 . S
C779 N778 1.351 . S
C779 C780 1.434 . S
C780 C771 1.429 . S
C780 N777 1.350 . S
C780 C779 1.434 . S
C781 C782 1.369 . S
C781 C783 1.419 . S
C781 H785 0.930 . S
C782 C781 1.369 . S
C782 C791 1.429 1_545 S
C783 C781 1.419 . S
C783 C784 1.363 . S
C783 H786 0.929 . S
C784 C783 1.363 . S
C784 C790 1.428 . S
H785 C781 0.930 . S
H786 C783 0.929 . S
S787 N788 1.613 . S
S787 N789 1.610 . S
N788 S787 1.613 . S
N788 C791 1.350 . S
N789 S787 1.610 . S
N789 C790 1.351 1_565 S
C790 C784 1.428 . S
C790 N789 1.351 1_545 S
C790 C791 1.434 1_545 S
C791 C782 1.429 1_565 S
C791 N788 1.350 . S
C791 C790 1.434 1_565 S
C792 C793 1.369 . S
C792 C794 1.419 . S
C792 H796 0.930 . S
C793 C792 1.369 . S
C793 C802 1.429 1_455 S
C794 C792 1.419 . S
C794 C795 1.363 1_455 S
C794 H797 0.929 . S
C795 C794 1.363 1_655 S
C795 C801 1.428 . S
H796 C792 0.930 . S
H797 C794 0.929 . S
S798 N799 1.613 . S
S798 N800 1.610 . S
N799 S798 1.613 . S
N799 C802 1.350 . S
N800 S798 1.610 . S
N800 C801 1.351 . S
C801 C795 1.428 . S
C801 N800 1.351 . S
C801 C802 1.434 . S
C802 C793 1.429 1_655 S
C802 N799 1.350 . S
C802 C801 1.434 . S
C803 C804 1.369 1_545 S
C803 C805 1.419 . S
C803 H807 0.930 . S
C804 C803 1.369 1_565 S
C804 C813 1.429 . S
C805 C803 1.419 . S
C805 C806 1.363 . S
C805 H808 0.929 . S
C806 C805 1.363 . S
C806 C812 1.428 1_545 S
H807 C803 0.930 . S
H808 C805 0.929 . S
S809 N810 1.613 . S
S809 N811 1.610 . S
N810 S809 1.613 . S
N810 C813 1.350 . S
N811 S809 1.610 . S
N811 C812 1.351 . S
C812 C806 1.428 1_565 S
C812 N811 1.351 . S
C812 C813 1.434 . S
C813 C804 1.429 . S
C813 N810 1.350 . S
C813 C812 1.434 . S
C814 C815 1.369 . S
C814 C816 1.419 1_554 S
C814 H818 0.930 . S
C815 C814 1.369 . S
C815 C824 1.429 . S
C816 C814 1.419 1_556 S
C816 C817 1.363 . S
C816 H819 0.929 . S
C817 C816 1.363 . S
C817 C823 1.428 . S
H818 C814 0.930 . S
H819 C816 0.929 . S
S820 N821 1.613 1_556 S
S820 N822 1.610 . S
N821 S820 1.613 1_554 S
N821 C824 1.350 . S
N822 S820 1.610 . S
N822 C823 1.351 . S
C823 C817 1.428 . S
C823 N822 1.351 . S
C823 C824 1.434 1_556 S
C824 C815 1.429 . S
C824 N821 1.350 . S
C824 C823 1.434 1_554 S
C825 C826 1.386 . S
C825 C827 1.402 1_456 S
C825 H829 0.930 1_455 S
C826 C825 1.386 . S
C826 C835 1.429 1_565 S
C827 C825 1.402 1_654 S
C827 C828 1.363 1_565 S
C827 H830 0.929 . S
C828 C827 1.363 1_545 S
C828 C834 1.433 . S
H829 C825 0.930 1_655 S
H830 C827 0.929 . S
S831 N832 1.613 1_554 S
S831 N833 1.610 . S
N832 S831 1.613 1_556 S
N832 C835 1.350 . S
N833 S831 1.610 . S
N833 C834 1.350 1_455 S
C834 C828 1.433 . S
C834 N833 1.350 1_655 S
C834 C835 1.430 1_654 S
C835 C826 1.429 1_545 S
C835 N832 1.350 . S
C835 C834 1.430 1_456 S
C836 C837 1.369 . S
C836 C838 1.419 . S
C836 H840 0.930 . S
C837 C836 1.369 . S
C837 C846 1.429 . S
C838 C836 1.419 . S
C838 C839 1.363 . S
C838 H841 0.929 . S
C839 C838 1.363 . S
C839 C845 1.428 . S
H840 C836 0.930 . S
H841 C838 0.929 . S
S842 N843 1.613 . S
S842 N844 1.610 . S
N843 S842 1.613 . S
N843 C846 1.350 . S
N844 S842 1.610 . S
N844 C845 1.351 . S
C845 C839 1.428 . S
C845 N844 1.351 . S
C845 C846 1.434 . S
C846 C837 1.429 . S
C846 N843 1.350 . S
C846 C845 1.434 . S
C847 C848 1.369 . S
C847 C849 1.419 . S
C847 H851 0.930 . S
C848 C847 1.369 . S
C848 C857 1.429 . S
C849 C847 1.419 . S
C849 C850 1.363 . S
C849 H852 0.929 . S
C850 C849 1.363 . S
C850 C856 1.428 . S
H851 C847 0.930 . S
H852 C849 0.929 . S
S853 N854 1.613 . S
S853 N855 1.610 . S
N854 S853 1.613 . S
N854 C857 1.350 . S
N855 S853 1.610 . S
N855 C856 1.351 . S
C856 C850 1.428 . S
C856 N855 1.351 . S
C856 C857 1.434 . S
C857 C848 1.429 . S
C857 N854 1.350 . S
C857 C856 1.434 . S
C858 C859 1.369 . S
C858 C860 1.419 . S
C858 H862 0.930 . S
C859 C858 1.369 . S
C859 C868 1.429 . S
C860 C858 1.419 . S
C860 C861 1.363 . S
C860 H863 0.929 . S
C861 C860 1.363 . S
C861 C867 1.428 . S
H862 C858 0.930 . S
H863 C860 0.929 . S
S864 N865 1.613 . S
S864 N866 1.610 . S
N865 S864 1.613 . S
N865 C868 1.350 . S
N866 S864 1.610 . S
N866 C867 1.351 . S
C867 C861 1.428 . S
C867 N866 1.351 . S
C867 C868 1.434 . S
C868 C859 1.429 . S
C868 N865 1.350 . S
C868 C867 1.434 . S
C869 C870 1.369 . S
C869 C871 1.419 . S
C869 H873 0.930 . S
C870 C869 1.369 . S
C870 C879 1.429 . S
C871 C869 1.419 . S
C871 C872 1.363 . S
C871 H874 0.929 . S
C872 C871 1.363 . S
C872 C878 1.428 . S
H873 C869 0.930 . S
H874 C871 0.929 . S
S875 N876 1.613 . S
S875 N877 1.610 . S
N876 S875 1.613 . S
N876 C879 1.350 . S
N877 S875 1.610 . S
N877 C878 1.351 . S
C878 C872 1.428 . S
C878 N877 1.351 . S
C878 C879 1.434 . S
C879 C870 1.429 . S
C879 N876 1.350 . S
C879 C878 1.434 . S
C705 C57 1.129 . S
C707 C233 1.141 . S
C716 C321 1.139 . S
C718 C108 1.136 1_545 S
C727 C196 1.132 . S
C729 C20 1.139 . S
C738 C284 1.130 1_565 S
C740 C145 1.140 . S
C749 C585 1.130 . S
C751 C372 1.127 . S
C760 C469 1.121 1_565 S
C762 C673 1.135 . S
C771 C577 1.120 . S
C773 C381 1.136 . S
C782 C665 1.124 1_545 S
C784 C460 1.133 . S
C793 C29 1.792 . S
C795 C401 1.801 . S
C804 C137 1.798 . S
C806 C497 1.796 . S
C815 C225 1.794 . S
C817 C548 1.798 . S
C826 C636 1.803 . S
C828 C313 1.791 . S
C837 C49 1.783 . S
C839 C117 1.790 . S
C848 C293 1.782 . S
C850 C205 1.790 . S
C859 C489 1.802 . S
C861 C409 1.794 . S
C870 C557 1.795 . S
C872 C645 1.799 . S
