# Generated by pormake.
# Topology uoj, (4)-cn, num edge types: 1
# Building blocks:
#     Node 0, Type 0, BuildingBlock: KUFVIS_clean_sbu_0, # of connection points: 4
#     Node 1, Type 0, BuildingBlock: KUFVIS_clean_sbu_0, # of connection points: 4
#     Node 2, Type 0, BuildingBlock: KUFVIS_clean_sbu_0, # of connection points: 4
#     Node 3, Type 0, BuildingBlock: KUFVIS_clean_sbu_0, # of connection points: 4
#     Node 4, Type 0, BuildingBlock: KUFVIS_clean_sbu_0, # of connection points: 4
#     Node 5, Type 0, BuildingBlock: KUFVIS_clean_sbu_0, # of connection points: 4
#     Node 6, Type 0, BuildingBlock: KUFVIS_clean_sbu_0, # of connection points: 4
#     Node 7, Type 0, BuildingBlock: KUFVIS_clean_sbu_0, # of connection points: 4
#     Edge 8, Type (0, 0), None
#     Edge 9, Type (0, 0), None
#     Edge 10, Type (0, 0), None
#     Edge 11, Type (0, 0), None
#     Edge 12, Type (0, 0), None
#     Edge 13, Type (0, 0), None
#     Edge 14, Type (0, 0), None
#     Edge 15, Type (0, 0), None
#     Edge 16, Type (0, 0), None
#     Edge 17, Type (0, 0), None
#     Edge 18, Type (0, 0), None
#     Edge 19, Type (0, 0), None
#     Edge 20, Type (0, 0), None
#     Edge 21, Type (0, 0), None
#     Edge 22, Type (0, 0), None
#     Edge 23, Type (0, 0), None
# Relax obj value: 0.130
# Max RMSD: 0.151
# Mean RMSD: 0.151
data_MOF--net-uoj--node1-KUFVIS_clean_sbu_0--edge1-none
_symmetry_space_group_name_H-M    P1
_symmetry_Int_Tables_number       1
_symmetry_cell_setting            triclinic
loop_
_symmetry_equiv_pos_as_xyz
'x, y, z'
_cell_length_a     13.999504
_cell_length_b     13.999283
_cell_length_c     18.347247
_cell_angle_alpha  90.88199
_cell_angle_beta   89.998402
_cell_angle_gamma 90.000448
loop_
_atom_site_label
_atom_site_type_symbol
_atom_site_fract_x
_atom_site_fract_y
_atom_site_fract_z
_atom_type_partial_charge
Mn0 Mn 0.07157 0.31843 0.35144 0.0
Mn1 Mn 0.08542 0.34877 0.53828 0.0
C2 C 1.00994 0.46452 0.3985 0.0
C3 C 0.16025 0.33898 0.24346 0.0
C4 C 0.94403 0.21488 0.44888 0.0
O5 O 0.14756 0.20422 0.38751 0.0
O6 O 0.18758 0.26399 0.49565 0.0
C7 C 0.34565 0.39473 0.64153 0.0
N8 N 0.22815 0.40993 0.61964 0.0
C9 C 0.2471 0.60424 0.77415 0.0
C10 C 0.37686 0.56661 0.77437 0.0
C11 C 0.423 0.46427 0.71206 0.0
C12 C 0.16519 0.48034 0.66642 0.0
H13 H 0.2773 0.39062 0.61815 0.0
C14 C 0.17875 0.19218 0.45172 0.0
O15 O 0.08896 0.27939 0.24612 0.0
O16 O 0.18405 0.38016 0.30404 0.0
N17 N 0.9453 0.44671 0.62423 0.0
C18 C 0.81802 0.43168 0.63541 0.0
C19 C 0.73925 0.48938 0.68942 0.0
C20 C 0.78637 0.62694 0.77564 0.0
C21 C 0.91796 0.57682 0.8092 0.0
C22 C 1.0108 0.4944 0.6589 0.0
H23 H 0.77448 0.37635 0.60911 0.0
O24 O 0.99107 0.43108 0.334 0.0
O25 O 0.06628 0.40727 0.43512 0.0
O26 O 0.95317 0.25014 0.38575 0.0
O27 O 1.00318 0.23202 0.50177 0.0
C28 C 1.0153 0.63201 0.89101 0.0
C29 C 0.17488 0.63363 0.88274 0.0
H30 H 0.30564 0.59942 0.78585 0.0
H31 H 0.41736 0.52244 0.75111 0.0
H32 H 0.66808 0.46227 0.67453 0.0
H33 H 0.74482 0.68154 0.80456 0.0
H34 H 0.97975 0.68705 0.92669 0.0
H35 H 0.10586 0.64345 0.90541 0.0
Mn36 Mn 0.32249 0.96625 0.56706 0.0
Mn37 Mn 0.35362 0.95264 0.38132 0.0
C38 C 0.46819 0.03082 0.52226 0.0
C39 C 0.34337 0.87654 0.67383 0.0
C40 C 0.2196 0.0966 0.47039 0.0
O41 O 0.21129 0.88504 0.52814 0.0
O42 O 0.27565 0.84589 0.42127 0.0
C43 C 0.39723 0.69185 0.27661 0.0
N44 N 0.413 0.80953 0.2993 0.0
C45 C 0.60586 0.78881 0.14617 0.0
C46 C 0.56788 0.6591 0.14481 0.0
C47 C 0.46596 0.61372 0.20608 0.0
C48 C 0.48298 0.87191 0.25356 0.0
H49 H 0.39351 0.76039 0.30045 0.0
C50 C 0.20502 0.84613 0.46512 0.0
O51 O 0.28279 0.94701 0.67142 0.0
O52 O 0.38638 0.85484 0.61374 0.0
N53 N 0.45048 0.09241 0.29723 0.0
C54 C 0.43583 0.21953 0.2869 0.0
C55 C 0.49346 0.29762 0.23378 0.0
C56 C 0.63019 0.24929 0.1483 0.0
C57 C 0.57924 0.11757 0.11357 0.0
C58 C 0.49781 0.02644 0.26252 0.0
H59 H 0.38081 0.2634 0.31316 0.0
O60 O 0.43416 0.04932 0.58657 0.0
O61 O 0.41176 0.97342 0.4848 0.0
O62 O 0.25217 0.08498 0.53437 0.0
O63 O 0.23551 0.03549 0.41755 0.0
C64 C 0.63347 0.01968 0.03131 0.0
C65 C 0.63487 0.86027 0.03833 0.0
H66 H 0.60081 0.73016 0.13403 0.0
H67 H 0.52384 0.61889 0.16747 0.0
H68 H 0.46658 0.369 0.24884 0.0
H69 H 0.68424 0.29054 0.11966 0.0
H70 H 0.68797 0.05496 -0.00394 0.0
H71 H 0.6445 0.92913 0.01627 0.0
Mn72 Mn 0.96509 0.71779 0.35326 0.0
Mn73 Mn 0.96175 0.70695 0.54489 0.0
C74 C 1.0149 0.57188 0.39811 0.0
C75 C 0.86999 0.70261 0.24735 0.0
C76 C 0.11503 0.79584 0.44441 0.0
O77 O 0.89374 0.83369 0.39511 0.0
O78 O 0.84801 0.76313 0.49696 0.0
C79 C 0.69766 0.64995 0.66101 0.0
N80 N 0.80768 0.62517 0.63697 0.0
C81 C 0.78869 0.48066 0.8071 0.0
C82 C 0.66626 0.51704 0.80405 0.0
C83 C 0.62756 0.60174 0.73487 0.0
C84 C 0.87305 0.56405 0.69443 0.0
H85 H 0.76412 0.64521 0.63556 0.0
C86 C 0.84991 0.83554 0.45622 0.0
O87 O 0.94551 0.75683 0.24908 0.0
O88 O 0.84583 0.66422 0.30816 0.0
N89 N 0.15366 0.64064 0.63453 0.0
C90 C 0.25042 0.63264 0.62639 0.0
C91 C 0.30377 0.55616 0.66147 0.0
C92 C 0.26779 0.4452 0.75144 0.0
C93 C 0.17547 0.46909 0.78358 0.0
C94 C 0.10278 0.61329 0.68498 0.0
H95 H 0.28267 0.67091 0.58156 0.0
O96 O 0.03306 0.60089 0.33278 0.0
O97 O 0.96409 0.63328 0.43933 0.0
O98 O 0.09787 0.77354 0.37866 0.0
O99 O 0.04402 0.80376 0.48665 0.0
C100 C 0.04763 0.44073 0.86882 0.0
C101 C 0.90547 0.45335 0.88859 0.0
H102 H 0.73739 0.48394 0.81708 0.0
H103 H 0.62992 0.55337 0.77878 0.0
H104 H 0.36881 0.56439 0.62806 0.0
H105 H 0.30471 0.38379 0.77497 0.0
H106 H 0.07474 0.37598 0.90372 0.0
H107 H 0.97668 0.45097 0.87556 0.0
Mn108 Mn 0.72288 0.07131 0.57048 0.0
Mn109 Mn 0.71198 0.07522 0.37827 0.0
C110 C 0.5757 0.02611 0.52384 0.0
C111 C 0.70902 0.16529 0.67774 0.0
C112 C 0.79844 0.92239 0.478 0.0
O113 O 0.84299 0.13516 0.53114 0.0
O114 O 0.77824 0.18414 0.42785 0.0
C115 C 0.6544 0.33896 0.26369 0.0
N116 N 0.62959 0.22921 0.28689 0.0
C117 C 0.48377 0.24724 0.11562 0.0
C118 C 0.52052 0.36958 0.11985 0.0
C119 C 0.60584 0.40859 0.18995 0.0
C120 C 0.56766 0.16354 0.22852 0.0
H121 H 0.64971 0.27271 0.28864 0.0
C122 C 0.85135 0.1727 0.46866 0.0
O123 O 0.76127 0.08841 0.67551 0.0
O124 O 0.67356 0.19243 0.61647 0.0
N125 N 0.64328 0.88331 0.28686 0.0
C126 C 0.63519 0.78667 0.29428 0.0
C127 C 0.55855 0.73317 0.25812 0.0
C128 C 0.44694 0.76864 0.16758 0.0
C129 C 0.47076 0.86062 0.13625 0.0
C130 C 0.61603 0.93363 0.23654 0.0
H131 H 0.67336 0.75485 0.33939 0.0
O132 O 0.60415 1.00803 0.58933 0.0
O133 O 0.63834 0.07504 0.4833 0.0
O134 O 0.77431 0.93795 0.54349 0.0
O135 O 0.80667 0.99265 0.4367 0.0
C136 C 0.44235 0.98754 0.05178 0.0
C137 C 0.45518 0.12976 0.03332 0.0
H138 H 0.48714 0.29841 0.10606 0.0
H139 H 0.55714 0.406 0.14566 0.0
H140 H 0.56697 0.66834 0.29108 0.0
H141 H 0.38532 0.73161 0.14332 0.0
H142 H 0.37731 0.96028 0.01631 0.0
H143 H 0.45269 0.0586 0.04573 0.0
Mn144 Mn 0.46791 0.81844 0.85143 0.0
Mn145 Mn 0.45405 0.84878 0.03827 0.0
C146 C 0.52953 0.96454 0.89849 0.0
C147 C 0.37926 0.83899 0.74346 0.0
C148 C 0.59545 0.71489 0.94888 0.0
O149 O 0.39192 0.70422 0.88751 0.0
O150 O 0.35188 0.76401 -0.00436 0.0
C151 C 0.19382 0.89474 0.14154 0.0
N152 N 0.31131 0.90994 0.11964 0.0
C153 C 0.29237 0.10424 0.27415 0.0
C154 C 0.16261 0.06661 0.27438 0.0
C155 C 0.11647 0.96427 0.21207 0.0
C156 C 0.37428 0.98035 0.16642 0.0
H157 H 0.26217 0.89063 0.11816 0.0
C158 C 0.36072 0.6922 0.95171 0.0
O159 O 0.45054 0.77938 0.74612 0.0
O160 O 0.35543 0.88016 0.80404 0.0
N161 N 0.59417 0.94672 0.12422 0.0
C162 C 0.72144 0.93169 0.13539 0.0
C163 C 0.80022 0.98939 0.1894 0.0
C164 C 0.7531 0.12694 0.27563 0.0
C165 C 0.62151 0.07682 0.30919 0.0
C166 C 0.52866 0.9944 0.15889 0.0
H167 H 0.76499 0.87636 0.10909 0.0
O168 O 0.54841 0.9311 0.83399 0.0
O169 O 0.47319 0.90728 0.93511 0.0
O170 O 0.58631 0.75016 0.88575 0.0
O171 O 0.53628 0.73202 0.00176 0.0
C172 C 0.52418 0.13202 0.39101 0.0
C173 C 0.36459 0.13363 0.38274 0.0
H174 H 0.23383 0.09942 0.28586 0.0
H175 H 0.12211 0.02245 0.25112 0.0
H176 H 0.87139 0.96228 0.1745 0.0
H177 H 0.79465 0.18154 0.30455 0.0
H178 H 0.55972 0.18706 0.42668 0.0
H179 H 0.43361 0.14346 0.40541 0.0
Mn180 Mn 0.81658 0.57133 0.07048 0.0
Mn181 Mn 0.8275 0.57522 0.87829 0.0
C182 C 0.9638 0.52605 0.02382 0.0
C183 C 0.83047 0.66528 0.17773 0.0
C184 C 0.74104 0.42238 -0.022 0.0
O185 O 0.69647 0.63519 0.03114 0.0
O186 O 0.76124 0.68416 0.92786 0.0
C187 C 0.88507 0.83896 0.7637 0.0
N188 N 0.90988 0.72921 0.7869 0.0
C189 C 0.0557 0.74724 0.61562 0.0
C190 C 1.01896 0.86957 0.61985 0.0
C191 C 0.93364 0.90858 0.68995 0.0
C192 C 0.97181 0.66354 0.72852 0.0
H193 H 0.88976 0.77271 0.78865 0.0
C194 C 0.68812 0.67272 -0.03134 0.0
O195 O 0.77819 0.58842 0.17552 0.0
O196 O 0.86591 0.69244 0.11647 0.0
N197 N 0.89619 0.3833 0.78687 0.0
C198 C 0.90427 0.28666 0.79429 0.0
C199 C 0.98091 0.23317 0.75813 0.0
C200 C 0.09252 0.26863 0.66758 0.0
C201 C 0.0687 0.36061 0.63626 0.0
C202 C 0.92344 0.43363 0.73655 0.0
H203 H 0.8661 0.25485 0.83941 0.0
O204 O 0.9353 0.50805 0.0893 0.0
O205 O 0.90114 0.57503 -0.01668 0.0
O206 O 0.76513 0.43798 0.0435 0.0
O207 O 0.7328 0.49267 0.93673 0.0
C208 C 0.09711 0.48753 0.55178 0.0
C209 C 0.08429 0.62975 0.53332 0.0
H210 H 0.05233 0.7984 0.60606 0.0
H211 H 0.98234 0.906 0.64566 0.0
H212 H 0.97249 0.16834 0.79109 0.0
H213 H 0.15414 0.2316 0.64332 0.0
H214 H 0.16216 0.46027 0.51631 0.0
H215 H 0.08678 0.55859 0.54573 0.0
Mn216 Mn 0.57438 0.2178 0.85326 0.0
Mn217 Mn 0.57772 0.20696 0.04488 0.0
C218 C 0.52456 0.07189 0.89811 0.0
C219 C 0.66945 0.20258 0.74736 0.0
C220 C 0.42442 0.29583 0.94442 0.0
O221 O 0.64576 0.3337 0.8951 0.0
O222 O 0.69146 0.26312 -0.00305 0.0
C223 C 0.84181 0.14995 0.16099 0.0
N224 N 0.73179 0.12518 0.13696 0.0
C225 C 0.75078 0.98066 0.30708 0.0
C226 C 0.8732 1.01704 0.30403 0.0
C227 C 0.91191 0.10174 0.23484 0.0
C228 C 0.66642 0.06406 0.19441 0.0
H229 H 0.77535 0.14521 0.13555 0.0
C230 C 0.68958 0.33554 0.95621 0.0
O231 O 0.59397 0.25684 0.74907 0.0
O232 O 0.69364 0.16421 0.80817 0.0
N233 N 0.38581 0.14065 0.13454 0.0
C234 C 0.28905 0.13265 0.1264 0.0
C235 C 0.2357 0.05616 0.16147 0.0
C236 C 0.27168 0.9452 0.25145 0.0
C237 C 0.364 0.9691 0.28359 0.0
C238 C 0.43669 0.1133 0.18498 0.0
H239 H 0.2568 0.17092 0.08157 0.0
O240 O 0.50639 0.10091 0.83279 0.0
O241 O 0.57538 0.13329 0.93933 0.0
O242 O 0.44162 0.27357 0.87867 0.0
O243 O 0.49545 0.30377 -0.01336 0.0
C244 C 0.49184 0.94073 0.36882 0.0
C245 C 0.634 0.95335 0.38858 0.0
H246 H 0.80208 0.98394 0.31705 0.0
H247 H 0.90955 0.05337 0.27875 0.0
H248 H 0.17065 0.0644 0.12808 0.0
H249 H 0.23475 0.88379 0.27498 0.0
H250 H 0.46473 0.87598 0.40372 0.0
H251 H 0.56279 0.95097 0.37555 0.0
Mn252 Mn 0.21696 0.46629 0.06708 0.0
Mn253 Mn 0.18585 0.45264 0.88132 0.0
C254 C 0.07131 0.53077 0.02232 0.0
C255 C 0.19608 0.3766 0.17383 0.0
C256 C 0.31987 0.59662 -0.02962 0.0
O257 O 0.32816 0.38507 0.02814 0.0
O258 O 0.26382 0.3459 0.92127 0.0
C259 C 0.14223 0.19185 0.77662 0.0
N260 N 0.12647 0.30953 0.79931 0.0
C261 C 0.9336 0.28881 0.64618 0.0
C262 C 0.97158 0.1591 0.64482 0.0
C263 C 0.0735 0.11371 0.70608 0.0
C264 C 0.05648 0.37191 0.75356 0.0
H265 H 0.14596 0.26039 0.80046 0.0
C266 C 0.33444 0.34615 -0.03487 0.0
O267 O 0.25668 0.44705 0.17143 0.0
O268 O 0.15307 0.35487 0.11375 0.0
N269 N 0.08899 0.59241 0.79723 0.0
C270 C 0.10364 0.71953 0.7869 0.0
C271 C 0.04601 0.79761 0.73378 0.0
C272 C 0.90928 0.74929 0.64831 0.0
C273 C 0.96023 0.61757 0.61357 0.0
C274 C 0.04166 0.52644 0.76252 0.0
H275 H 0.15866 0.76339 0.81315 0.0
O276 O 0.10528 0.54937 0.08663 0.0
O277 O 0.12771 0.47341 -0.0152 0.0
O278 O 0.28728 0.58501 0.03437 0.0
O279 O 0.30395 0.5355 0.91755 0.0
C280 C 0.90599 0.51967 0.53132 0.0
C281 C 0.90459 0.36026 0.53835 0.0
H282 H 0.93865 0.23015 0.63404 0.0
H283 H 1.01562 0.11888 0.66748 0.0
H284 H 0.0729 0.869 0.74884 0.0
H285 H 0.85523 0.79053 0.61967 0.0
H286 H 0.8515 0.55495 0.49607 0.0
H287 H 0.89496 0.42912 0.51629 0.0
loop_
_geom_bond_atom_site_label_1
_geom_bond_atom_site_label_2
_geom_bond_distance
_geom_bond_site_symmetry_2
_ccdc_geom_bond_type
Mn0 O5 2.095 . S
Mn0 O15 2.162 . S
Mn0 O16 2.297 . S
Mn0 O24 2.385 1_455 S
Mn0 O25 2.209 . S
Mn0 O26 2.094 1_455 S
Mn1 O6 2.121 . S
Mn1 N8 2.257 . S
Mn1 N17 2.282 1_455 S
Mn1 O25 2.215 . S
Mn1 O27 2.117 1_455 S
C2 O24 1.234 1_455 S
C2 O25 1.283 . S
C3 O15 1.281 . S
C3 O16 1.236 . S
C4 O26 1.240 . S
C4 O27 1.264 . S
O5 Mn0 2.095 . S
O5 C14 1.250 . S
O6 Mn1 2.121 . S
O6 C14 1.258 . S
C7 N8 1.326 . S
C7 C11 1.460 . S
C7 H13 0.929 . S
N8 Mn1 2.257 . S
N8 C7 1.326 . S
N8 C12 1.362 . S
C9 C10 1.258 . S
C9 C12 1.431 . S
C9 C29 1.449 . S
C10 C9 1.258 . S
C10 C11 1.477 . S
C10 H30 0.931 . S
C11 C7 1.460 . S
C11 C10 1.477 . S
C11 H31 0.930 . S
C12 N8 1.362 . S
C12 C9 1.431 . S
C12 C22 1.476 1_455 S
H13 C7 0.929 . S
C14 O5 1.250 . S
C14 O6 1.258 . S
O15 Mn0 2.162 . S
O15 C3 1.281 . S
O16 Mn0 2.297 . S
O16 C3 1.236 . S
N17 Mn1 2.282 1_655 S
N17 C18 1.328 . S
N17 C22 1.318 . S
C18 N17 1.328 . S
C18 C19 1.457 . S
C18 H23 0.929 . S
C19 C18 1.457 . S
C19 C20 1.291 . S
C19 H32 0.931 . S
C20 C19 1.291 . S
C20 C21 1.373 . S
C20 H33 0.929 . S
C21 C20 1.373 . S
C21 C22 1.396 . S
C21 C28 1.403 . S
C22 C12 1.476 1_655 S
C22 N17 1.318 . S
C22 C21 1.396 . S
H23 C18 0.929 . S
O24 Mn0 2.385 1_655 S
O24 C2 1.234 1_655 S
O25 Mn0 2.209 . S
O25 Mn1 2.215 . S
O25 C2 1.283 . S
O26 Mn0 2.094 1_655 S
O26 C4 1.240 . S
O27 Mn1 2.117 1_655 S
O27 C4 1.264 . S
C28 C21 1.403 . S
C28 C29 1.399 1_655 S
C28 H34 0.929 . S
C29 C9 1.449 . S
C29 C28 1.399 1_455 S
C29 H35 0.930 . S
H30 C10 0.931 . S
H31 C11 0.930 . S
H32 C19 0.931 . S
H33 C20 0.929 . S
H34 C28 0.929 . S
H35 C29 0.930 . S
Mn36 O41 2.095 . S
Mn36 O51 2.162 . S
Mn36 O52 2.297 . S
Mn36 O60 2.385 1_565 S
Mn36 O61 2.209 . S
Mn36 O62 2.094 1_565 S
Mn37 O42 2.121 . S
Mn37 N44 2.257 . S
Mn37 N53 2.282 1_565 S
Mn37 O61 2.215 . S
Mn37 O63 2.117 1_565 S
C38 O60 1.234 1_565 S
C38 O61 1.283 . S
C39 O51 1.281 . S
C39 O52 1.236 . S
C40 O62 1.240 . S
C40 O63 1.264 . S
O41 Mn36 2.095 . S
O41 C50 1.250 . S
O42 Mn37 2.121 . S
O42 C50 1.258 . S
C43 N44 1.326 . S
C43 C47 1.460 . S
C43 H49 0.929 . S
N44 Mn37 2.257 . S
N44 C43 1.326 . S
N44 C48 1.362 . S
C45 C46 1.258 . S
C45 C48 1.431 . S
C45 C65 1.449 . S
C46 C45 1.258 . S
C46 C47 1.477 . S
C46 H66 0.931 . S
C47 C43 1.460 . S
C47 C46 1.477 . S
C47 H67 0.930 . S
C48 N44 1.362 . S
C48 C45 1.431 . S
C48 C58 1.476 1_565 S
H49 C43 0.929 . S
C50 O41 1.250 . S
C50 O42 1.258 . S
O51 Mn36 2.162 . S
O51 C39 1.281 . S
O52 Mn36 2.297 . S
O52 C39 1.236 . S
N53 Mn37 2.282 1_545 S
N53 C54 1.328 . S
N53 C58 1.318 . S
C54 N53 1.328 . S
C54 C55 1.457 . S
C54 H59 0.929 . S
C55 C54 1.457 . S
C55 C56 1.291 . S
C55 H68 0.931 . S
C56 C55 1.291 . S
C56 C57 1.373 . S
C56 H69 0.929 . S
C57 C56 1.373 . S
C57 C58 1.396 . S
C57 C64 1.403 . S
C58 C48 1.476 1_545 S
C58 N53 1.318 . S
C58 C57 1.396 . S
H59 C54 0.929 . S
O60 Mn36 2.385 1_545 S
O60 C38 1.234 1_545 S
O61 Mn36 2.209 . S
O61 Mn37 2.215 . S
O61 C38 1.283 . S
O62 Mn36 2.094 1_545 S
O62 C40 1.240 . S
O63 Mn37 2.117 1_545 S
O63 C40 1.264 . S
C64 C57 1.403 . S
C64 C65 1.399 1_545 S
C64 H70 0.929 . S
C65 C45 1.449 . S
C65 C64 1.399 1_565 S
C65 H71 0.930 . S
H66 C46 0.931 . S
H67 C47 0.930 . S
H68 C55 0.931 . S
H69 C56 0.929 . S
H70 C64 0.929 . S
H71 C65 0.930 . S
Mn72 O77 2.095 . S
Mn72 O87 2.162 . S
Mn72 O88 2.297 . S
Mn72 O96 2.385 1_655 S
Mn72 O97 2.209 . S
Mn72 O98 2.094 1_655 S
Mn73 O78 2.121 . S
Mn73 N80 2.257 . S
Mn73 N89 2.282 1_655 S
Mn73 O97 2.215 . S
Mn73 O99 2.117 1_655 S
C74 O96 1.234 1_655 S
C74 O97 1.283 . S
C75 O87 1.281 . S
C75 O88 1.236 . S
C76 O98 1.240 . S
C76 O99 1.264 . S
O77 Mn72 2.095 . S
O77 C86 1.250 . S
O78 Mn73 2.121 . S
O78 C86 1.258 . S
C79 N80 1.326 . S
C79 C83 1.460 . S
C79 H85 0.929 . S
N80 Mn73 2.257 . S
N80 C79 1.326 . S
N80 C84 1.362 . S
C81 C82 1.258 . S
C81 C84 1.431 . S
C81 C101 1.449 . S
C82 C81 1.258 . S
C82 C83 1.477 . S
C82 H102 0.931 . S
C83 C79 1.460 . S
C83 C82 1.477 . S
C83 H103 0.930 . S
C84 N80 1.362 . S
C84 C81 1.431 . S
C84 C94 1.476 1_655 S
H85 C79 0.929 . S
C86 O77 1.250 . S
C86 O78 1.258 . S
O87 Mn72 2.162 . S
O87 C75 1.281 . S
O88 Mn72 2.297 . S
O88 C75 1.236 . S
N89 Mn73 2.282 1_455 S
N89 C90 1.328 . S
N89 C94 1.318 . S
C90 N89 1.328 . S
C90 C91 1.457 . S
C90 H95 0.929 . S
C91 C90 1.457 . S
C91 C92 1.291 . S
C91 H104 0.931 . S
C92 C91 1.291 . S
C92 C93 1.373 . S
C92 H105 0.929 . S
C93 C92 1.373 . S
C93 C94 1.396 . S
C93 C100 1.403 . S
C94 C84 1.476 1_455 S
C94 N89 1.318 . S
C94 C93 1.396 . S
H95 C90 0.929 . S
O96 Mn72 2.385 1_455 S
O96 C74 1.234 1_455 S
O97 Mn72 2.209 . S
O97 Mn73 2.215 . S
O97 C74 1.283 . S
O98 Mn72 2.094 1_455 S
O98 C76 1.240 . S
O99 Mn73 2.117 1_455 S
O99 C76 1.264 . S
C100 C93 1.403 . S
C100 C101 1.399 1_455 S
C100 H106 0.929 . S
C101 C81 1.449 . S
C101 C100 1.399 1_655 S
C101 H107 0.930 . S
H102 C82 0.931 . S
H103 C83 0.930 . S
H104 C91 0.931 . S
H105 C92 0.929 . S
H106 C100 0.929 . S
H107 C101 0.930 . S
Mn108 O113 2.095 . S
Mn108 O123 2.162 . S
Mn108 O124 2.297 . S
Mn108 O132 2.385 1_545 S
Mn108 O133 2.209 . S
Mn108 O134 2.094 1_545 S
Mn109 O114 2.121 . S
Mn109 N116 2.257 . S
Mn109 N125 2.282 1_545 S
Mn109 O133 2.215 . S
Mn109 O135 2.117 1_545 S
C110 O132 1.234 1_545 S
C110 O133 1.283 . S
C111 O123 1.281 . S
C111 O124 1.236 . S
C112 O134 1.240 . S
C112 O135 1.264 . S
O113 Mn108 2.095 . S
O113 C122 1.250 . S
O114 Mn109 2.121 . S
O114 C122 1.258 . S
C115 N116 1.326 . S
C115 C119 1.460 . S
C115 H121 0.929 . S
N116 Mn109 2.257 . S
N116 C115 1.326 . S
N116 C120 1.362 . S
C117 C118 1.258 . S
C117 C120 1.431 . S
C117 C137 1.449 . S
C118 C117 1.258 . S
C118 C119 1.477 . S
C118 H138 0.931 . S
C119 C115 1.460 . S
C119 C118 1.477 . S
C119 H139 0.930 . S
C120 N116 1.362 . S
C120 C117 1.431 . S
C120 C130 1.476 1_545 S
H121 C115 0.929 . S
C122 O113 1.250 . S
C122 O114 1.258 . S
O123 Mn108 2.162 . S
O123 C111 1.281 . S
O124 Mn108 2.297 . S
O124 C111 1.236 . S
N125 Mn109 2.282 1_565 S
N125 C126 1.328 . S
N125 C130 1.318 . S
C126 N125 1.328 . S
C126 C127 1.457 . S
C126 H131 0.929 . S
C127 C126 1.457 . S
C127 C128 1.291 . S
C127 H140 0.931 . S
C128 C127 1.291 . S
C128 C129 1.373 . S
C128 H141 0.929 . S
C129 C128 1.373 . S
C129 C130 1.396 . S
C129 C136 1.403 . S
C130 C120 1.476 1_565 S
C130 N125 1.318 . S
C130 C129 1.396 . S
H131 C126 0.929 . S
O132 Mn108 2.385 1_565 S
O132 C110 1.234 1_565 S
O133 Mn108 2.209 . S
O133 Mn109 2.215 . S
O133 C110 1.283 . S
O134 Mn108 2.094 1_565 S
O134 C112 1.240 . S
O135 Mn109 2.117 1_565 S
O135 C112 1.264 . S
C136 C129 1.403 . S
C136 C137 1.399 1_565 S
C136 H142 0.929 . S
C137 C117 1.449 . S
C137 C136 1.399 1_545 S
C137 H143 0.930 . S
H138 C118 0.931 . S
H139 C119 0.930 . S
H140 C127 0.931 . S
H141 C128 0.929 . S
H142 C136 0.929 . S
H143 C137 0.930 . S
Mn144 O149 2.095 . S
Mn144 O159 2.162 . S
Mn144 O160 2.297 . S
Mn144 O168 2.385 . S
Mn144 O169 2.209 1_556 S
Mn144 O170 2.094 . S
Mn145 O150 2.121 . S
Mn145 N152 2.257 . S
Mn145 N161 2.282 . S
Mn145 O169 2.215 . S
Mn145 O171 2.117 . S
C146 O168 1.234 . S
C146 O169 1.283 1_556 S
C147 O159 1.281 . S
C147 O160 1.236 . S
C148 O170 1.240 1_554 S
C148 O171 1.264 . S
O149 Mn144 2.095 . S
O149 C158 1.250 1_556 S
O150 Mn145 2.121 . S
O150 C158 1.258 . S
C151 N152 1.326 . S
C151 C155 1.460 . S
C151 H157 0.929 . S
N152 Mn145 2.257 . S
N152 C151 1.326 . S
N152 C156 1.362 . S
C153 C154 1.258 . S
C153 C156 1.431 1_545 S
C153 C173 1.449 . S
C154 C153 1.258 . S
C154 C155 1.477 1_545 S
C154 H174 0.931 . S
C155 C151 1.460 . S
C155 C154 1.477 1_565 S
C155 H175 0.930 . S
C156 N152 1.362 . S
C156 C153 1.431 1_565 S
C156 C166 1.476 . S
H157 C151 0.929 . S
C158 O149 1.250 1_554 S
C158 O150 1.258 . S
O159 Mn144 2.162 . S
O159 C147 1.281 . S
O160 Mn144 2.297 . S
O160 C147 1.236 . S
N161 Mn145 2.282 . S
N161 C162 1.328 . S
N161 C166 1.318 . S
C162 N161 1.328 . S
C162 C163 1.457 1_565 S
C162 H167 0.929 . S
C163 C162 1.457 1_545 S
C163 C164 1.291 . S
C163 H176 0.931 . S
C164 C163 1.291 . S
C164 C165 1.373 . S
C164 H177 0.929 . S
C165 C164 1.373 . S
C165 C166 1.396 1_545 S
C165 C172 1.403 . S
C166 C156 1.476 . S
C166 N161 1.318 . S
C166 C165 1.396 1_565 S
H167 C162 0.929 . S
O168 Mn144 2.385 . S
O168 C146 1.234 . S
O169 Mn144 2.209 1_554 S
O169 Mn145 2.215 . S
O169 C146 1.283 1_554 S
O170 Mn144 2.094 . S
O170 C148 1.240 1_556 S
O171 Mn145 2.117 . S
O171 C148 1.264 . S
C172 C165 1.403 . S
C172 C173 1.399 . S
C172 H178 0.929 . S
C173 C153 1.449 . S
C173 C172 1.399 . S
C173 H179 0.930 . S
H174 C154 0.931 . S
H175 C155 0.930 . S
H176 C163 0.931 . S
H177 C164 0.929 . S
H178 C172 0.929 . S
H179 C173 0.930 . S
Mn180 O185 2.095 . S
Mn180 O195 2.162 . S
Mn180 O196 2.297 . S
Mn180 O204 2.385 . S
Mn180 O205 2.209 1_554 S
Mn180 O206 2.094 . S
Mn181 O186 2.121 . S
Mn181 N188 2.257 . S
Mn181 N197 2.282 . S
Mn181 O205 2.215 . S
Mn181 O207 2.117 . S
C182 O204 1.234 . S
C182 O205 1.283 1_554 S
C183 O195 1.281 . S
C183 O196 1.236 . S
C184 O206 1.240 1_556 S
C184 O207 1.264 . S
O185 Mn180 2.095 . S
O185 C194 1.250 1_554 S
O186 Mn181 2.121 . S
O186 C194 1.258 . S
C187 N188 1.326 . S
C187 C191 1.460 . S
C187 H193 0.929 . S
N188 Mn181 2.257 . S
N188 C187 1.326 . S
N188 C192 1.362 . S
C189 C190 1.258 . S
C189 C192 1.431 1_455 S
C189 C209 1.449 . S
C190 C189 1.258 . S
C190 C191 1.477 1_455 S
C190 H210 0.931 . S
C191 C187 1.460 . S
C191 C190 1.477 1_655 S
C191 H211 0.930 . S
C192 N188 1.362 . S
C192 C189 1.431 1_655 S
C192 C202 1.476 . S
H193 C187 0.929 . S
C194 O185 1.250 1_556 S
C194 O186 1.258 . S
O195 Mn180 2.162 . S
O195 C183 1.281 . S
O196 Mn180 2.297 . S
O196 C183 1.236 . S
N197 Mn181 2.282 . S
N197 C198 1.328 . S
N197 C202 1.318 . S
C198 N197 1.328 . S
C198 C199 1.457 1_655 S
C198 H203 0.929 . S
C199 C198 1.457 1_455 S
C199 C200 1.291 . S
C199 H212 0.931 . S
C200 C199 1.291 . S
C200 C201 1.373 . S
C200 H213 0.929 . S
C201 C200 1.373 . S
C201 C202 1.396 1_455 S
C201 C208 1.403 . S
C202 C192 1.476 . S
C202 N197 1.318 . S
C202 C201 1.396 1_655 S
H203 C198 0.929 . S
O204 Mn180 2.385 . S
O204 C182 1.234 . S
O205 Mn180 2.209 1_556 S
O205 Mn181 2.215 . S
O205 C182 1.283 1_556 S
O206 Mn180 2.094 . S
O206 C184 1.240 1_554 S
O207 Mn181 2.117 . S
O207 C184 1.264 . S
C208 C201 1.403 . S
C208 C209 1.399 . S
C208 H214 0.929 . S
C209 C189 1.449 . S
C209 C208 1.399 . S
C209 H215 0.930 . S
H210 C190 0.931 . S
H211 C191 0.930 . S
H212 C199 0.931 . S
H213 C200 0.929 . S
H214 C208 0.929 . S
H215 C209 0.930 . S
Mn216 O221 2.095 . S
Mn216 O231 2.162 . S
Mn216 O232 2.297 . S
Mn216 O240 2.385 . S
Mn216 O241 2.209 1_556 S
Mn216 O242 2.094 . S
Mn217 O222 2.121 . S
Mn217 N224 2.257 . S
Mn217 N233 2.282 . S
Mn217 O241 2.215 . S
Mn217 O243 2.117 . S
C218 O240 1.234 . S
C218 O241 1.283 1_556 S
C219 O231 1.281 . S
C219 O232 1.236 . S
C220 O242 1.240 1_554 S
C220 O243 1.264 . S
O221 Mn216 2.095 . S
O221 C230 1.250 1_556 S
O222 Mn217 2.121 . S
O222 C230 1.258 . S
C223 N224 1.326 . S
C223 C227 1.460 . S
C223 H229 0.929 . S
N224 Mn217 2.257 . S
N224 C223 1.326 . S
N224 C228 1.362 . S
C225 C226 1.258 . S
C225 C228 1.431 1_565 S
C225 C245 1.449 . S
C226 C225 1.258 . S
C226 C227 1.477 1_565 S
C226 H246 0.931 . S
C227 C223 1.460 . S
C227 C226 1.477 1_545 S
C227 H247 0.930 . S
C228 N224 1.362 . S
C228 C225 1.431 1_545 S
C228 C238 1.476 . S
H229 C223 0.929 . S
C230 O221 1.250 1_554 S
C230 O222 1.258 . S
O231 Mn216 2.162 . S
O231 C219 1.281 . S
O232 Mn216 2.297 . S
O232 C219 1.236 . S
N233 Mn217 2.282 . S
N233 C234 1.328 . S
N233 C238 1.318 . S
C234 N233 1.328 . S
C234 C235 1.457 1_545 S
C234 H239 0.929 . S
C235 C234 1.457 1_565 S
C235 C236 1.291 . S
C235 H248 0.931 . S
C236 C235 1.291 . S
C236 C237 1.373 . S
C236 H249 0.929 . S
C237 C236 1.373 . S
C237 C238 1.396 1_565 S
C237 C244 1.403 . S
C238 C228 1.476 . S
C238 N233 1.318 . S
C238 C237 1.396 1_545 S
H239 C234 0.929 . S
O240 Mn216 2.385 . S
O240 C218 1.234 . S
O241 Mn216 2.209 1_554 S
O241 Mn217 2.215 . S
O241 C218 1.283 1_554 S
O242 Mn216 2.094 . S
O242 C220 1.240 1_556 S
O243 Mn217 2.117 . S
O243 C220 1.264 . S
C244 C237 1.403 . S
C244 C245 1.399 . S
C244 H250 0.929 . S
C245 C225 1.449 . S
C245 C244 1.399 . S
C245 H251 0.930 . S
H246 C226 0.931 . S
H247 C227 0.930 . S
H248 C235 0.931 . S
H249 C236 0.929 . S
H250 C244 0.929 . S
H251 C245 0.930 . S
Mn252 O257 2.095 . S
Mn252 O267 2.162 . S
Mn252 O268 2.297 . S
Mn252 O276 2.385 . S
Mn252 O277 2.209 1_554 S
Mn252 O278 2.094 . S
Mn253 O258 2.121 . S
Mn253 N260 2.257 . S
Mn253 N269 2.282 . S
Mn253 O277 2.215 . S
Mn253 O279 2.117 . S
C254 O276 1.234 . S
C254 O277 1.283 1_554 S
C255 O267 1.281 . S
C255 O268 1.236 . S
C256 O278 1.240 1_556 S
C256 O279 1.264 . S
O257 Mn252 2.095 . S
O257 C266 1.250 1_554 S
O258 Mn253 2.121 . S
O258 C266 1.258 . S
C259 N260 1.326 . S
C259 C263 1.460 . S
C259 H265 0.929 . S
N260 Mn253 2.257 . S
N260 C259 1.326 . S
N260 C264 1.362 . S
C261 C262 1.258 . S
C261 C264 1.431 1_655 S
C261 C281 1.449 . S
C262 C261 1.258 . S
C262 C263 1.477 1_655 S
C262 H282 0.931 . S
C263 C259 1.460 . S
C263 C262 1.477 1_455 S
C263 H283 0.930 . S
C264 N260 1.362 . S
C264 C261 1.431 1_455 S
C264 C274 1.476 . S
H265 C259 0.929 . S
C266 O257 1.250 1_556 S
C266 O258 1.258 . S
O267 Mn252 2.162 . S
O267 C255 1.281 . S
O268 Mn252 2.297 . S
O268 C255 1.236 . S
N269 Mn253 2.282 . S
N269 C270 1.328 . S
N269 C274 1.318 . S
C270 N269 1.328 . S
C270 C271 1.457 1_455 S
C270 H275 0.929 . S
C271 C270 1.457 1_655 S
C271 C272 1.291 . S
C271 H284 0.931 . S
C272 C271 1.291 . S
C272 C273 1.373 . S
C272 H285 0.929 . S
C273 C272 1.373 . S
C273 C274 1.396 1_655 S
C273 C280 1.403 . S
C274 C264 1.476 . S
C274 N269 1.318 . S
C274 C273 1.396 1_455 S
H275 C270 0.929 . S
O276 Mn252 2.385 . S
O276 C254 1.234 . S
O277 Mn252 2.209 1_556 S
O277 Mn253 2.215 . S
O277 C254 1.283 1_556 S
O278 Mn252 2.094 . S
O278 C256 1.240 1_554 S
O279 Mn253 2.117 . S
O279 C256 1.264 . S
C280 C273 1.403 . S
C280 C281 1.399 . S
C280 H286 0.929 . S
C281 C261 1.449 . S
C281 C280 1.399 . S
C281 H287 0.930 . S
H282 C262 0.931 . S
H283 C263 0.930 . S
H284 C271 0.931 . S
H285 C272 0.929 . S
H286 C280 0.929 . S
H287 C281 0.930 . S
C255 C3 1.561 . S
C39 C147 1.561 . S
C75 C183 1.561 . S
C219 C111 1.561 . S
C40 C14 1.849 . S
C50 C76 1.849 . S
C112 C86 1.849 . S
C122 C4 1.849 . S
C256 C158 1.849 1_556 S
C194 C148 1.849 1_556 S
C184 C230 1.849 1_556 S
C220 C266 1.849 1_554 S
C74 C2 1.067 1_655 S
C110 C38 1.067 1_545 S
C218 C146 1.067 1_545 S
C254 C182 1.067 1_455 S
