# Generated by pormake.
# Topology zfy, (5)-cn, num edge types: 1
# Building blocks:
#     Node 0, Type 0, BuildingBlock: XOMCOT_clean_sbu_1, # of connection points: 5
#     Node 1, Type 0, BuildingBlock: XOMCOT_clean_sbu_1, # of connection points: 5
#     Node 2, Type 0, BuildingBlock: XOMCOT_clean_sbu_1, # of connection points: 5
#     Node 3, Type 0, BuildingBlock: XOMCOT_clean_sbu_1, # of connection points: 5
#     Node 4, Type 0, BuildingBlock: XOMCOT_clean_sbu_1, # of connection points: 5
#     Node 5, Type 0, BuildingBlock: XOMCOT_clean_sbu_1, # of connection points: 5
#     Node 6, Type 0, BuildingBlock: XOMCOT_clean_sbu_1, # of connection points: 5
#     Node 7, Type 0, BuildingBlock: XOMCOT_clean_sbu_1, # of connection points: 5
#     Node 8, Type 0, BuildingBlock: XOMCOT_clean_sbu_1, # of connection points: 5
#     Node 9, Type 0, BuildingBlock: XOMCOT_clean_sbu_1, # of connection points: 5
#     Node 10, Type 0, BuildingBlock: XOMCOT_clean_sbu_1, # of connection points: 5
#     Node 11, Type 0, BuildingBlock: XOMCOT_clean_sbu_1, # of connection points: 5
#     Node 12, Type 0, BuildingBlock: XOMCOT_clean_sbu_1, # of connection points: 5
#     Node 13, Type 0, BuildingBlock: XOMCOT_clean_sbu_1, # of connection points: 5
#     Node 14, Type 0, BuildingBlock: XOMCOT_clean_sbu_1, # of connection points: 5
#     Node 15, Type 0, BuildingBlock: XOMCOT_clean_sbu_1, # of connection points: 5
#     Edge 16, Type (0, 0), None
#     Edge 17, Type (0, 0), None
#     Edge 18, Type (0, 0), None
#     Edge 19, Type (0, 0), None
#     Edge 20, Type (0, 0), None
#     Edge 21, Type (0, 0), None
#     Edge 22, Type (0, 0), None
#     Edge 23, Type (0, 0), None
#     Edge 24, Type (0, 0), None
#     Edge 25, Type (0, 0), None
#     Edge 26, Type (0, 0), None
#     Edge 27, Type (0, 0), None
#     Edge 28, Type (0, 0), None
#     Edge 29, Type (0, 0), None
#     Edge 30, Type (0, 0), None
#     Edge 31, Type (0, 0), None
#     Edge 32, Type (0, 0), None
#     Edge 33, Type (0, 0), None
#     Edge 34, Type (0, 0), None
#     Edge 35, Type (0, 0), None
#     Edge 36, Type (0, 0), None
#     Edge 37, Type (0, 0), None
#     Edge 38, Type (0, 0), None
#     Edge 39, Type (0, 0), None
#     Edge 40, Type (0, 0), None
#     Edge 41, Type (0, 0), None
#     Edge 42, Type (0, 0), None
#     Edge 43, Type (0, 0), None
#     Edge 44, Type (0, 0), None
#     Edge 45, Type (0, 0), None
#     Edge 46, Type (0, 0), None
#     Edge 47, Type (0, 0), None
#     Edge 48, Type (0, 0), None
#     Edge 49, Type (0, 0), None
#     Edge 50, Type (0, 0), None
#     Edge 51, Type (0, 0), None
#     Edge 52, Type (0, 0), None
#     Edge 53, Type (0, 0), None
#     Edge 54, Type (0, 0), None
#     Edge 55, Type (0, 0), None
# Relax obj value: 0.133
# Max RMSD: 0.197
# Mean RMSD: 0.197
data_MOF--net-zfy--node1-XOMCOT_clean_sbu_1--edge1-none
_symmetry_space_group_name_H-M    P1
_symmetry_Int_Tables_number       1
_symmetry_cell_setting            triclinic
loop_
_symmetry_equiv_pos_as_xyz
'x, y, z'
_cell_length_a     25.470158
_cell_length_b     25.471302
_cell_length_c     15.585823
_cell_angle_alpha  90.011463
_cell_angle_beta   89.990557
_cell_angle_gamma 90.00087
loop_
_atom_site_label
_atom_site_type_symbol
_atom_site_fract_x
_atom_site_fract_y
_atom_site_fract_z
_atom_type_partial_charge
C0 C 0.24286 0.27296 0.13176 0.0
C1 C 0.23036 0.28156 0.21669 0.0
N2 N 0.27453 0.27633 0.263 0.0
N3 N 0.29457 0.26132 0.12461 0.0
C4 C 0.31303 0.26603 0.20591 0.0
H5 H 0.21505 0.27419 0.07973 0.0
Co6 Co 0.33457 0.23771 1.02868 0.0
C7 C 0.35129 0.15458 0.16024 0.0
O8 O 0.30153 0.1572 0.18236 0.0
N9 N 0.37571 0.21476 0.93462 0.0
C10 C 0.43332 0.21497 0.82636 0.0
C11 C 0.3956 0.24375 0.86952 0.0
C12 C 0.40024 0.16789 0.92695 0.0
N13 N 0.43596 0.16726 0.863 0.0
O14 O 0.3879 0.28834 1.05609 0.0
H15 H 0.38584 0.28426 0.85689 0.0
H16 H 0.39578 0.1361 0.97225 0.0
O17 O 0.36907 0.18497 0.10165 0.0
C18 C 0.37882 0.3312 1.01646 0.0
O19 O 0.334 0.33587 0.97522 0.0
N20 N 0.28057 0.19099 0.99452 0.0
C21 C 0.19387 0.13295 0.93953 0.0
C22 C 0.23713 0.10809 0.97721 0.0
C23 C 0.28068 0.13751 1.00168 0.0
C24 C 0.24079 0.21517 0.95121 0.0
C25 C 0.19655 0.18709 0.92435 0.0
H26 H 0.31429 0.11642 1.0249 0.0
H27 H 0.24306 0.2569 0.93877 0.0
H28 H 0.35352 0.259 0.22333 0.0
H29 H 0.19171 0.28973 0.24217 0.0
H30 H 0.45811 0.22872 0.77458 0.0
H31 H 0.23819 0.06589 0.98564 0.0
H32 H 0.1649 0.20755 0.89218 0.0
C33 C 0.53031 0.49289 0.38172 0.0
C34 C 0.52172 0.48038 0.46664 0.0
N35 N 0.52699 0.52453 0.513 0.0
N36 N 0.54198 0.54459 0.37462 0.0
C37 C 0.5373 0.56304 0.45595 0.0
H38 H 0.52904 0.4651 0.32966 0.0
Co39 Co 0.5656 0.58458 0.2787 0.0
C40 C 0.64873 0.60132 0.41026 0.0
O41 O 0.64612 0.55156 0.43235 0.0
N42 N 0.58854 0.62572 0.18466 0.0
C43 C 0.58833 0.6833 0.07639 0.0
C44 C 0.55956 0.64558 0.11954 0.0
C45 C 0.63542 0.65025 0.17699 0.0
N46 N 0.63604 0.68596 0.11304 0.0
O47 O 0.51497 0.63792 0.30613 0.0
H48 H 0.51904 0.63581 0.1069 0.0
H49 H 0.6672 0.64582 0.2223 0.0
O50 O 0.61834 0.61909 0.35168 0.0
C51 C 0.47211 0.62883 0.26648 0.0
O52 O 0.46742 0.58401 0.22524 0.0
N53 N 0.61232 0.53059 0.24453 0.0
C54 C 0.67038 0.44388 0.18957 0.0
C55 C 0.69524 0.48717 0.22723 0.0
C56 C 0.6658 0.53071 0.25168 0.0
C57 C 0.58815 0.4908 0.20123 0.0
C58 C 0.61623 0.44655 0.17438 0.0
H59 H 0.68689 0.56434 0.27488 0.0
H60 H 0.54642 0.49305 0.18878 0.0
H61 H 0.54436 0.60352 0.47341 0.0
H62 H 0.51352 0.44173 0.49208 0.0
H63 H 0.57458 0.70807 1.0246 0.0
H64 H 0.73744 0.48824 0.23565 0.0
H65 H 0.59578 0.41488 0.14223 0.0
C66 C 0.31047 0.78036 0.63174 0.0
C67 C 0.32297 0.77176 0.71666 0.0
N68 N 0.27881 0.777 0.763 0.0
N69 N 0.25876 0.792 0.62463 0.0
C70 C 0.2403 0.7873 0.70594 0.0
H71 H 0.33828 0.77911 0.57969 0.0
Co72 Co 0.21877 0.8156 0.52871 0.0
C73 C 0.20201 0.89873 0.66029 0.0
O74 O 0.25177 0.89612 0.68241 0.0
N75 N 0.17763 0.83851 0.43466 0.0
C76 C 0.12006 0.83828 0.32638 0.0
C77 C 0.15776 0.80952 0.36955 0.0
C78 C 0.1531 0.88539 0.42698 0.0
N79 N 0.1174 0.886 0.36302 0.0
O80 O 0.16544 0.76496 0.55613 0.0
H81 H 0.16753 0.769 0.35692 0.0
H82 H 0.15754 0.91718 0.4723 0.0
O83 O 0.18425 0.86833 0.60169 0.0
C84 C 0.17453 0.72209 0.51649 0.0
O85 O 0.21936 0.71741 0.47524 0.0
N86 N 0.27275 0.86232 0.49455 0.0
C87 C 0.35944 0.92039 0.43956 0.0
C88 C 0.31616 0.94524 0.47725 0.0
C89 C 0.27263 0.9158 0.50173 0.0
C90 C 0.31254 0.83815 0.45123 0.0
C91 C 0.35679 0.86624 0.42436 0.0
H92 H 0.239 0.93689 0.52495 0.0
H93 H 0.3103 0.79642 0.43877 0.0
H94 H 0.19981 0.79433 0.72339 0.0
H95 H 0.36162 0.76357 0.74211 0.0
H96 H 0.09528 0.82452 0.27458 0.0
H97 H 0.31509 0.98744 0.48569 0.0
H98 H 0.38845 0.84579 0.39218 0.0
C99 C 1.02292 0.56049 0.88178 0.0
C100 C 0.03154 0.57297 0.9667 0.0
N101 N 1.02632 0.5288 1.01301 0.0
N102 N 1.0113 0.50878 0.87462 0.0
C103 C 1.01602 0.49031 0.95591 0.0
H104 H 1.02415 0.5883 0.82976 0.0
Co105 Co 0.9877 0.46878 0.77869 0.0
C106 C 0.90457 0.45203 0.91027 0.0
O107 O 0.90718 0.50179 0.93242 0.0
N108 N 0.96477 0.42764 0.68463 0.0
C109 C 0.965 0.37003 0.57636 0.0
C110 C 0.99377 0.40775 0.61953 0.0
C111 C 0.9179 0.40311 0.67695 0.0
N112 N 0.91728 0.36739 0.61301 0.0
O113 O 0.03833 0.41545 0.80609 0.0
H114 H 0.03429 0.41752 0.6069 0.0
H115 H 0.8861 0.40757 0.72226 0.0
O116 O 0.93496 0.43427 0.85166 0.0
C117 C 0.0812 0.42454 0.76648 0.0
O118 O 0.0859 0.46936 0.72524 0.0
N119 N 0.94098 0.52276 0.74455 0.0
C120 C 0.88292 0.60945 0.68955 0.0
C121 C 0.85806 0.56619 0.72726 0.0
C122 C 0.8875 0.52265 0.75173 0.0
C123 C 0.96515 0.56254 0.70123 0.0
C124 C 0.93707 0.60678 0.67436 0.0
H125 H 0.8664 0.48904 0.77496 0.0
H126 H 1.00688 0.56029 0.68878 0.0
H127 H 1.009 0.44981 0.97332 0.0
H128 H 0.03971 0.61162 0.99219 0.0
H129 H 0.97877 0.34524 0.52458 0.0
H130 H 0.81586 0.56512 0.73569 0.0
H131 H 0.95753 0.63843 0.64218 0.0
C132 C 0.81051 0.78038 0.98478 0.0
C133 C 0.823 0.77178 0.89985 0.0
N134 N 0.77884 0.777 0.85354 0.0
N135 N 0.75879 0.792 0.99193 0.0
C136 C 0.74033 0.78729 0.91063 0.0
H137 H 0.83831 0.77915 1.03681 0.0
Co138 Co 0.71879 0.81561 0.08786 0.0
C139 C 0.70205 0.89873 0.9563 0.0
O140 O 0.75181 0.89612 0.93418 0.0
N141 N 0.67763 0.83855 0.18191 0.0
C142 C 0.62001 0.83833 0.29015 0.0
C143 C 0.65774 0.80956 0.247 0.0
C144 C 0.65311 0.88542 0.18959 0.0
N145 N 0.61738 0.88605 0.25352 0.0
O146 O 0.66546 0.76497 0.06044 0.0
H147 H 0.6675 0.76904 0.25962 0.0
H148 H 0.65757 0.91721 0.14429 0.0
O149 O 0.68428 0.86834 1.01489 0.0
C150 C 0.67456 0.72211 0.10006 0.0
O151 O 0.71938 0.71743 0.14131 0.0
N152 N 0.77277 0.86234 0.12202 0.0
C153 C 0.85947 0.9204 0.17701 0.0
C154 C 0.8162 0.94525 0.13933 0.0
C155 C 0.77266 0.91582 0.11486 0.0
C156 C 0.81255 0.83817 0.16533 0.0
C157 C 0.8568 0.86625 0.19219 0.0
H158 H 0.73904 0.9369 0.09164 0.0
H159 H 0.81029 0.79644 0.17777 0.0
H160 H 0.69984 0.79432 0.89321 0.0
H161 H 0.86165 0.76361 0.87437 0.0
H162 H 0.59521 0.82457 0.34192 0.0
H163 H 0.81513 0.98745 0.1309 0.0
H164 H 0.88845 0.8458 0.22436 0.0
C165 C 0.52306 0.56045 0.7348 0.0
C166 C 0.53162 0.57297 0.64987 0.0
N167 N 0.52628 0.52883 0.6035 0.0
N168 N 0.51137 0.50875 0.74189 0.0
C169 C 0.516 0.49031 0.66055 0.0
H170 H 0.52438 0.58823 0.78687 0.0
Co171 Co 0.48775 0.46875 0.83781 0.0
C172 C 0.4046 0.45203 0.70629 0.0
O173 O 0.40719 0.5018 0.68422 0.0
N174 N 0.46482 0.42761 0.93185 0.0
C175 C 0.46504 0.37003 1.04012 0.0
C176 C 0.4938 0.40777 0.99699 0.0
C177 C 0.41796 0.40303 0.93947 0.0
N178 N 0.41736 0.36731 1.00339 0.0
O179 O 0.53839 0.41542 0.81037 0.0
H180 H 0.53429 0.41759 1.00968 0.0
H181 H 0.38618 0.40746 0.89416 0.0
O182 O 0.43501 0.43425 0.76483 0.0
C183 C 0.58124 0.4245 0.85004 0.0
O184 O 0.58592 0.46933 0.8913 0.0
N185 N 0.44103 0.52274 0.87199 0.0
C186 C 0.38296 0.60944 0.92697 0.0
C187 C 0.35811 0.56614 0.88935 0.0
C188 C 0.38755 0.5226 0.86489 0.0
C189 C 0.4652 0.56255 0.91526 0.0
C190 C 0.43711 0.60679 0.94212 0.0
H191 H 0.36646 0.48896 0.84173 0.0
H192 H 0.50694 0.56031 0.9277 0.0
H193 H 0.50893 0.44983 0.64309 0.0
H194 H 0.53983 0.61161 0.62444 0.0
H195 H 0.47878 0.34529 0.09196 0.0
H196 H 0.3159 0.56506 0.88097 0.0
H197 H 0.45757 0.63847 0.97425 0.0
C198 C 0.74284 0.27294 0.4848 0.0
C199 C 0.73034 0.28154 0.39989 0.0
N200 N 0.7745 0.27631 0.35354 0.0
N201 N 0.79456 0.26131 0.49192 0.0
C202 C 0.81301 0.26601 0.4106 0.0
H203 H 0.71504 0.27418 0.53685 0.0
Co204 Co 0.83456 0.23772 0.58783 0.0
C205 C 0.85133 0.15459 0.45625 0.0
O206 O 0.80157 0.15719 0.43413 0.0
N207 N 0.87571 0.21481 0.68187 0.0
C208 C 0.93329 0.21505 0.79014 0.0
C209 C 0.89558 0.24382 0.74697 0.0
C210 C 0.90024 0.16794 0.68955 0.0
N211 N 0.93594 0.16733 0.7535 0.0
O212 O 0.88787 0.28837 0.56041 0.0
H213 H 0.88581 0.28433 0.75959 0.0
H214 H 0.89579 0.13614 0.64425 0.0
O215 O 0.86909 0.18499 0.51484 0.0
C216 C 0.87877 0.33124 0.60003 0.0
O217 O 0.83394 0.33593 0.64128 0.0
N218 N 0.78058 0.19099 0.62199 0.0
C219 C 0.6939 0.1329 0.67699 0.0
C220 C 0.73718 0.10806 0.63929 0.0
C221 C 0.78071 0.1375 0.61481 0.0
C222 C 0.74079 0.21514 0.66532 0.0
C223 C 0.69655 0.18705 0.69219 0.0
H224 H 0.81434 0.11642 0.59159 0.0
H225 H 0.74303 0.25688 0.67777 0.0
H226 H 0.85351 0.25899 0.39315 0.0
H227 H 0.69169 0.28971 0.37444 0.0
H228 H 0.95807 0.22882 0.84192 0.0
H229 H 0.73827 0.06585 0.63085 0.0
H230 H 0.66489 0.2075 0.72436 0.0
C231 C 0.03038 0.49281 0.23474 0.0
C232 C 1.02181 0.48031 0.14981 0.0
N233 N 0.02708 0.52447 0.10349 0.0
N234 N 0.04203 0.54452 0.24189 0.0
C235 C 0.03736 0.56298 0.16059 0.0
H236 H 0.02912 0.46501 0.28677 0.0
Co237 Co 0.06563 0.58452 0.33782 0.0
C238 C 0.14878 0.60125 0.20627 0.0
O239 O 0.14619 0.55149 0.18415 0.0
N240 N 0.08855 0.62567 0.43187 0.0
C241 C 0.0883 0.68327 0.54015 0.0
C242 C 0.05955 0.64553 0.49701 0.0
C243 C 0.13541 0.65024 0.43951 0.0
N244 N 0.136 0.68597 0.50342 0.0
O245 O 1.015 0.63784 0.31041 0.0
H246 H 1.01905 0.63572 0.50968 0.0
H247 H 0.1672 0.64579 0.3942 0.0
O248 O 0.11837 0.61902 0.26485 0.0
C249 C 0.97213 0.62876 0.35004 0.0
O250 O 0.96744 0.58395 0.39129 0.0
N251 N 0.11235 0.53054 0.37198 0.0
C252 C 0.17042 0.44386 0.42699 0.0
C253 C 0.19527 0.48714 0.38932 0.0
C254 C 0.16583 0.53067 0.36484 0.0
C255 C 0.08817 0.49074 0.41527 0.0
C256 C 0.11626 0.44651 0.44214 0.0
H257 H 0.18692 0.56429 0.34164 0.0
H258 H 0.04644 0.49299 0.4277 0.0
H259 H 0.04439 0.60347 0.14317 0.0
H260 H 1.01361 0.44167 0.12432 0.0
H261 H 0.07455 0.70803 0.59198 0.0
H262 H 0.23748 0.48822 0.38092 0.0
H263 H 0.0958 0.41485 0.4743 0.0
C264 C 0.74286 0.773 0.63179 0.0
C265 C 0.73036 0.78157 0.71672 0.0
N266 N 0.77452 0.77627 0.76305 0.0
N267 N 0.79457 0.76134 0.62464 0.0
C268 C 0.81303 0.76601 0.70596 0.0
H269 H 0.71507 0.77427 0.57975 0.0
Co270 Co 0.83457 0.73772 0.52872 0.0
C271 C 0.85127 0.65458 0.66026 0.0
O272 O 0.80151 0.65719 0.68236 0.0
N273 N 0.87572 0.71478 0.43466 0.0
C274 C 0.93332 0.71499 0.32638 0.0
C275 C 0.89558 0.74375 0.36952 0.0
C276 C 0.90028 0.66792 0.42703 0.0
N277 N 0.93602 0.6673 0.36311 0.0
O278 O 0.88791 0.78835 0.55613 0.0
H279 H 0.88578 0.78425 0.35685 0.0
H280 H 0.89583 0.63613 0.47234 0.0
O281 O 0.86907 0.68498 0.60169 0.0
C282 C 0.87883 0.8312 0.51648 0.0
O283 O 0.83401 0.83588 0.47524 0.0
N284 N 0.78058 0.69101 0.49455 0.0
C285 C 0.69388 0.63296 0.43954 0.0
C286 C 0.73715 0.6081 0.4772 0.0
C287 C 0.78069 0.63753 0.50167 0.0
C288 C 0.74079 0.71519 0.45126 0.0
C289 C 0.69654 0.68711 0.42439 0.0
H290 H 0.81432 0.61644 0.52486 0.0
H291 H 0.74305 0.75692 0.43884 0.0
H292 H 0.85352 0.75896 0.72338 0.0
H293 H 0.69172 0.78976 0.7422 0.0
H294 H 0.95808 0.72873 0.27455 0.0
H295 H 0.73822 0.56589 0.48559 0.0
H296 H 0.66489 0.70757 0.39225 0.0
C297 C 0.03031 0.99288 0.88172 0.0
C298 C 1.02173 0.98037 0.96664 0.0
N299 N 0.02699 1.02453 1.013 0.0
N300 N 0.04197 0.04459 0.87461 0.0
C301 C 0.03729 0.06304 0.95594 0.0
H302 H 0.02905 0.96508 0.82967 0.0
Co303 Co 0.06559 0.08458 0.7787 0.0
C304 C 0.14872 0.10131 0.91025 0.0
O305 O 0.14611 0.05155 0.93235 0.0
N306 N 0.08853 0.12572 0.68465 0.0
C307 C 0.08831 0.1833 0.57638 0.0
C308 C 0.05954 0.14559 0.61955 0.0
C309 C 0.1354 0.15025 0.67697 0.0
N310 N 0.13603 0.18595 0.61303 0.0
O311 O 1.01495 0.13791 0.80612 0.0
H312 H 1.01902 0.13581 0.60692 0.0
H313 H 0.16719 0.14581 0.72228 0.0
O314 O 0.11833 0.11909 0.85168 0.0
C315 C 0.97209 0.12881 0.76649 0.0
O316 O 0.9674 0.08398 0.72525 0.0
N317 N 0.11231 0.03059 0.74452 0.0
C318 C 0.17037 0.94388 0.68955 0.0
C319 C 0.19523 0.98716 0.72722 0.0
C320 C 0.16579 0.03071 0.75168 0.0
C321 C 0.08814 0.9908 0.70122 0.0
C322 C 0.11622 0.94655 0.67436 0.0
H323 H 0.18688 0.06434 0.77488 0.0
H324 H 0.04641 0.99305 0.68877 0.0
H325 H 0.04434 0.10352 0.9734 0.0
H326 H 1.01354 0.94173 0.99209 0.0
H327 H 0.07456 0.20808 0.5246 0.0
H328 H 0.23743 0.98823 0.73564 0.0
H329 H 0.09576 0.91489 0.64221 0.0
C330 C 0.81047 0.28032 0.13177 0.0
C331 C 0.82297 0.27175 0.21669 0.0
N332 N 0.77882 0.27705 0.26305 0.0
N333 N 0.75876 0.29199 0.12466 0.0
C334 C 0.74031 0.28732 0.20598 0.0
H335 H 0.83826 0.27904 0.07971 0.0
Co336 Co 0.71876 0.31558 1.02874 0.0
C337 C 0.70203 0.39873 0.1603 0.0
O338 O 0.75179 0.39614 0.1824 0.0
N339 N 0.67762 0.3385 0.9347 0.0
C340 C 0.62005 0.33827 0.8264 0.0
C341 C 0.65778 0.30951 0.86956 0.0
C342 C 0.65305 0.38536 0.92706 0.0
N343 N 0.61734 0.38596 0.86313 0.0
O344 O 0.66543 0.26495 1.05616 0.0
H345 H 0.66759 0.26901 0.85688 0.0
H346 H 0.65749 0.41715 0.97238 0.0
O347 O 0.68425 0.36833 0.10173 0.0
C348 C 0.67452 0.22208 1.01651 0.0
O349 O 0.71935 0.2174 0.97526 0.0
N350 N 0.77275 0.3623 0.99458 0.0
C351 C 0.85943 0.42038 0.93956 0.0
C352 C 0.81614 0.44523 0.97724 0.0
C353 C 0.77261 0.41579 1.00171 0.0
C354 C 0.81255 0.33814 0.95128 0.0
C355 C 0.85679 0.36623 0.9244 0.0
H356 H 0.73898 0.43687 1.02491 0.0
H357 H 0.81031 0.2964 0.93884 0.0
H358 H 0.69982 0.29437 0.22344 0.0
H359 H 0.86162 0.26355 0.24213 0.0
H360 H 0.59531 0.32452 0.77455 0.0
H361 H 0.81506 0.48744 0.98564 0.0
H362 H 0.88845 0.34578 0.89224 0.0
C363 C 0.52292 0.0605 0.38178 0.0
C364 C 0.53152 0.07298 0.46671 0.0
N365 N 0.52632 0.02881 0.51301 0.0
N366 N 0.51131 1.00878 0.37461 0.0
C367 C 0.51603 0.99031 0.45591 0.0
H368 H 0.52413 0.08831 0.32977 0.0
Co369 Co 0.48771 0.96879 0.27869 0.0
C370 C 0.40458 0.95204 0.41027 0.0
O371 O 0.40719 1.00179 0.43242 0.0
N372 N 0.46479 0.92764 0.18463 0.0
C373 C 0.46502 0.87003 0.07636 0.0
C374 C 0.49379 0.90775 0.11953 0.0
C375 C 0.41791 0.90312 0.17694 0.0
N376 N 0.4173 0.8674 0.11299 0.0
O377 O 0.53834 0.91546 0.30609 0.0
H378 H 0.53432 0.91751 0.10691 0.0
H379 H 0.38611 0.90758 0.22224 0.0
O380 O 0.43497 0.93427 0.35165 0.0
C381 C 0.58122 0.92456 0.26649 0.0
O382 O 0.58592 0.96938 0.22525 0.0
N383 N 0.44099 1.02276 0.24454 0.0
C384 C 0.38293 0.10945 0.18953 0.0
C385 C 0.35807 0.06619 0.22725 0.0
C386 C 0.38751 1.02266 0.25173 0.0
C387 C 0.46516 0.06254 0.20122 0.0
C388 C 0.43708 0.10678 0.17434 0.0
H389 H 0.36641 0.98904 0.27496 0.0
H390 H 0.5069 0.06029 0.18877 0.0
H391 H 0.50902 0.94981 0.47331 0.0
H392 H 0.53969 0.11163 0.4922 0.0
H393 H 0.47879 0.84524 1.02458 0.0
H394 H 0.31587 0.06512 0.23569 0.0
H395 H 0.45754 0.13843 0.14216 0.0
C396 C 0.3105 0.28034 0.48476 0.0
C397 C 0.323 0.27177 0.39982 0.0
N398 N 0.27885 0.27706 0.35349 0.0
N399 N 0.25879 0.29199 0.4919 0.0
C400 C 0.24034 0.28732 0.41059 0.0
H401 H 0.3383 0.27907 0.53679 0.0
Co402 Co 0.21878 0.3156 0.58782 0.0
C403 C 0.20207 0.39873 0.45628 0.0
O404 O 0.25183 0.39614 0.43418 0.0
N405 N 0.17762 0.33853 0.68187 0.0
C406 C 0.12001 0.33831 0.79013 0.0
C407 C 0.15776 0.30955 0.74699 0.0
C408 C 0.15306 0.38539 0.68951 0.0
N409 N 0.11732 0.386 0.75341 0.0
O410 O 0.16546 0.26496 0.56041 0.0
H411 H 0.16756 0.26905 0.75966 0.0
H412 H 0.15751 0.41718 0.6442 0.0
O413 O 0.18428 0.36833 0.51485 0.0
C414 C 0.17455 0.2221 0.60004 0.0
O415 O 0.21937 0.21742 0.64129 0.0
N416 N 0.27276 0.36232 0.62199 0.0
C417 C 0.35945 0.42039 0.677 0.0
C418 C 0.31618 0.44524 0.63934 0.0
C419 C 0.27264 0.4158 0.61487 0.0
C420 C 0.31256 0.33815 0.66528 0.0
C421 C 0.3568 0.36624 0.69215 0.0
H422 H 0.23901 0.43689 0.59168 0.0
H423 H 0.31031 0.29642 0.6777 0.0
H424 H 0.19985 0.29435 0.39316 0.0
H425 H 0.36165 0.26359 0.37434 0.0
H426 H 0.09524 0.32457 0.84195 0.0
H427 H 0.3151 0.48744 0.63094 0.0
H428 H 0.38846 0.34578 0.7243 0.0
C429 C 1.02306 0.06046 0.23479 0.0
C430 C 0.0316 0.07297 0.14987 0.0
N431 N 1.02628 0.02883 0.1035 0.0
N432 N 1.01137 1.00876 0.2419 0.0
C433 C 1.01602 0.99032 0.16056 0.0
H434 H 1.02436 0.08825 0.28686 0.0
Co435 Co 0.98777 0.96876 0.33781 0.0
C436 C 0.90461 0.95204 0.20629 0.0
O437 O 0.90721 1.0018 0.18422 0.0
N438 N 0.96483 0.92761 0.43185 0.0
C439 C 0.96506 0.87003 0.54013 0.0
C440 C 0.99382 0.90777 0.49699 0.0
C441 C 0.91798 0.90304 0.43949 0.0
N442 N 0.91737 0.86732 0.5034 0.0
O443 O 0.0384 0.91543 0.31037 0.0
H444 H 0.03432 0.91759 0.50966 0.0
H445 H 0.88619 0.90747 0.39418 0.0
O446 O 0.93502 0.93425 0.26483 0.0
C447 C 0.08126 0.92452 0.35003 0.0
O448 O 0.08594 0.96935 0.39128 0.0
N449 N 0.94104 1.02274 0.37201 0.0
C450 C 0.88297 0.10944 0.42699 0.0
C451 C 0.85812 0.06615 0.38936 0.0
C452 C 0.88756 1.02261 0.3649 0.0
C453 C 0.96522 0.06255 0.41528 0.0
C454 C 0.93713 0.10679 0.44214 0.0
H455 H 0.86647 0.98897 0.34173 0.0
H456 H 1.00695 0.0603 0.42771 0.0
H457 H 1.00896 0.94983 0.1431 0.0
H458 H 0.03981 0.11162 0.12442 0.0
H459 H 0.9788 0.84529 0.59196 0.0
H460 H 0.81591 0.06506 0.38097 0.0
H461 H 0.95758 0.13846 0.47427 0.0
C462 C 0.24285 0.77298 0.98478 0.0
C463 C 0.23034 0.78154 0.89985 0.0
N464 N 0.27449 0.77626 0.8535 0.0
N465 N 0.29456 0.76132 0.99189 0.0
C466 C 0.31301 0.76599 0.91056 0.0
H467 H 0.21505 0.77425 1.03684 0.0
Co468 Co 0.33456 0.73773 0.08779 0.0
C469 C 0.35131 0.65459 0.95624 0.0
O470 O 0.30155 0.65717 0.93414 0.0
N471 N 0.37572 0.71482 0.18183 0.0
C472 C 0.43329 0.71507 0.29011 0.0
C473 C 0.39556 0.74382 0.24696 0.0
C474 C 0.40028 0.66797 0.18947 0.0
N475 N 0.436 0.66737 0.25339 0.0
O476 O 0.38788 0.78838 0.06037 0.0
H477 H 0.38575 0.78432 0.25963 0.0
H478 H 0.39584 0.63617 0.14416 0.0
O479 O 0.36909 0.685 1.01481 0.0
C480 C 0.37878 0.83124 0.10001 0.0
O481 O 0.33396 0.83593 0.14127 0.0
N482 N 0.28059 0.691 0.12196 0.0
C483 C 0.19391 0.63291 0.17698 0.0
C484 C 0.2372 0.60807 0.13931 0.0
C485 C 0.28073 0.63752 0.11483 0.0
C486 C 0.24078 0.71516 0.16527 0.0
C487 C 0.19655 0.68706 0.19214 0.0
H488 H 0.31437 0.61644 0.09162 0.0
H489 H 0.24302 0.75689 0.17771 0.0
H490 H 0.3535 0.75895 0.89311 0.0
H491 H 0.19169 0.78974 0.87441 0.0
H492 H 0.45804 0.72882 0.34195 0.0
H493 H 0.2383 0.56586 0.1309 0.0
H494 H 0.16488 0.70751 0.2243 0.0
C495 C 0.53039 0.9928 0.73474 0.0
C496 C 0.52182 0.98031 0.6498 0.0
N497 N 0.52708 1.02447 0.60349 0.0
N498 N 0.54203 0.04451 0.7419 0.0
C499 C 0.53734 0.06297 0.66059 0.0
H500 H 0.52914 0.96499 0.78676 0.0
Co501 Co 0.56562 0.08451 0.83783 0.0
C502 C 0.64877 0.10124 0.70627 0.0
O503 O 0.64618 0.05149 0.68415 0.0
N504 N 0.58853 0.12567 0.93188 0.0
C505 C 0.58828 0.18327 1.04015 0.0
C506 C 0.55953 0.14553 0.99701 0.0
C507 C 0.63539 0.15023 0.93952 0.0
N508 N 0.63598 0.18597 1.00344 0.0
O509 O 0.51498 0.13783 0.81041 0.0
H510 H 0.51903 0.13573 1.00967 0.0
H511 H 0.66719 0.14578 0.89422 0.0
O512 O 0.61836 0.11902 0.76486 0.0
C513 C 0.47211 0.12874 0.85003 0.0
O514 O 0.46741 0.08393 0.89128 0.0
N515 N 0.61234 0.03054 0.87199 0.0
C516 C 0.6704 0.94386 0.92701 0.0
C517 C 0.69526 0.98714 0.88933 0.0
C518 C 0.66582 0.03066 0.86485 0.0
C519 C 0.58816 0.99075 0.91528 0.0
C520 C 0.61625 0.94651 0.94216 0.0
H521 H 0.68691 0.06429 0.84164 0.0
H522 H 0.54643 0.99299 0.92771 0.0
H523 H 0.54437 0.10347 0.64319 0.0
H524 H 0.51364 0.94166 0.62431 0.0
H525 H 0.57453 0.20803 0.09198 0.0
H526 H 0.73747 0.98821 0.88092 0.0
H527 H 0.59579 0.91486 0.97432 0.0
loop_
_geom_bond_atom_site_label_1
_geom_bond_atom_site_label_2
_geom_bond_distance
_geom_bond_site_symmetry_2
_ccdc_geom_bond_type
C0 C1 1.351 . S
C0 N3 1.368 . S
C0 H5 0.931 . S
C1 C0 1.351 . S
C1 N2 1.373 . S
C1 H29 0.930 . S
N2 C1 1.373 . S
N2 C4 1.340 . S
N3 C0 1.368 . S
N3 C4 1.321 . S
N3 Co6 2.135 . S
C4 N2 1.340 . S
C4 N3 1.321 . S
C4 H28 0.930 . S
H5 C0 0.931 . S
Co6 N3 2.135 . S
Co6 N9 2.121 1_554 S
Co6 O14 2.055 . S
Co6 O17 2.039 . S
Co6 N20 2.140 1_554 S
C7 O8 1.227 . S
C7 O17 1.265 . S
O8 C7 1.227 . S
N9 Co6 2.121 1_556 S
N9 C11 1.375 . S
N9 C12 1.313 . S
C10 C11 1.338 . S
C10 N13 1.377 . S
C10 H30 0.930 . S
C11 N9 1.375 . S
C11 C10 1.338 . S
C11 H15 0.931 . S
C12 N9 1.313 . S
C12 N13 1.344 . S
C12 H16 0.930 . S
N13 C10 1.377 . S
N13 C12 1.344 . S
O14 Co6 2.055 . S
O14 C18 1.253 1_554 S
H15 C11 0.931 . S
H16 C12 0.930 . S
O17 Co6 2.039 . S
O17 C7 1.265 . S
C18 O14 1.253 1_556 S
C18 O19 1.227 . S
O19 C18 1.227 . S
N20 Co6 2.140 1_556 S
N20 C23 1.346 1_556 S
N20 C24 1.345 . S
C21 C22 1.387 . S
C21 C25 1.391 . S
C22 C21 1.387 . S
C22 C23 1.369 1_556 S
C22 H31 0.929 1_556 S
C23 N20 1.346 1_554 S
C23 C22 1.369 1_554 S
C23 H26 0.928 . S
C24 N20 1.345 . S
C24 C25 1.371 . S
C24 H27 0.931 . S
C25 C21 1.391 . S
C25 C24 1.371 . S
C25 H32 0.930 . S
H26 C23 0.928 . S
H27 C24 0.931 . S
H28 C4 0.930 . S
H29 C1 0.930 . S
H30 C10 0.930 . S
H31 C22 0.929 1_554 S
H32 C25 0.930 . S
C33 C34 1.351 . S
C33 N36 1.368 . S
C33 H38 0.931 . S
C34 C33 1.351 . S
C34 N35 1.373 . S
C34 H62 0.930 . S
N35 C34 1.373 . S
N35 C37 1.340 . S
N36 C33 1.368 . S
N36 C37 1.321 . S
N36 Co39 2.135 . S
C37 N35 1.340 . S
C37 N36 1.321 . S
C37 H61 0.930 . S
H38 C33 0.931 . S
Co39 N36 2.135 . S
Co39 N42 2.121 . S
Co39 O47 2.055 . S
Co39 O50 2.039 . S
Co39 N53 2.140 . S
C40 O41 1.227 . S
C40 O50 1.265 . S
O41 C40 1.227 . S
N42 Co39 2.121 . S
N42 C44 1.375 . S
N42 C45 1.313 . S
C43 C44 1.338 . S
C43 N46 1.377 . S
C43 H63 0.930 . S
C44 N42 1.375 . S
C44 C43 1.338 . S
C44 H48 0.931 . S
C45 N42 1.313 . S
C45 N46 1.344 . S
C45 H49 0.930 . S
N46 C43 1.377 . S
N46 C45 1.344 . S
O47 Co39 2.055 . S
O47 C51 1.253 . S
H48 C44 0.931 . S
H49 C45 0.930 . S
O50 Co39 2.039 . S
O50 C40 1.265 . S
C51 O47 1.253 . S
C51 O52 1.227 . S
O52 C51 1.227 . S
N53 Co39 2.140 . S
N53 C56 1.346 . S
N53 C57 1.345 . S
C54 C55 1.387 . S
C54 C58 1.391 . S
C55 C54 1.387 . S
C55 C56 1.369 . S
C55 H64 0.929 . S
C56 N53 1.346 . S
C56 C55 1.369 . S
C56 H59 0.928 . S
C57 N53 1.345 . S
C57 C58 1.371 . S
C57 H60 0.931 . S
C58 C54 1.391 . S
C58 C57 1.371 . S
C58 H65 0.930 . S
H59 C56 0.928 . S
H60 C57 0.931 . S
H61 C37 0.930 . S
H62 C34 0.930 . S
H63 C43 0.930 . S
H64 C55 0.929 . S
H65 C58 0.930 . S
C66 C67 1.351 . S
C66 N69 1.368 . S
C66 H71 0.931 . S
C67 C66 1.351 . S
C67 N68 1.373 . S
C67 H95 0.930 . S
N68 C67 1.373 . S
N68 C70 1.340 . S
N69 C66 1.368 . S
N69 C70 1.321 . S
N69 Co72 2.135 . S
C70 N68 1.340 . S
C70 N69 1.321 . S
C70 H94 0.930 . S
H71 C66 0.931 . S
Co72 N69 2.135 . S
Co72 N75 2.121 . S
Co72 O80 2.055 . S
Co72 O83 2.039 . S
Co72 N86 2.140 . S
C73 O74 1.227 . S
C73 O83 1.265 . S
O74 C73 1.227 . S
N75 Co72 2.121 . S
N75 C77 1.375 . S
N75 C78 1.313 . S
C76 C77 1.338 . S
C76 N79 1.377 . S
C76 H96 0.930 . S
C77 N75 1.375 . S
C77 C76 1.338 . S
C77 H81 0.931 . S
C78 N75 1.313 . S
C78 N79 1.344 . S
C78 H82 0.930 . S
N79 C76 1.377 . S
N79 C78 1.344 . S
O80 Co72 2.055 . S
O80 C84 1.253 . S
H81 C77 0.931 . S
H82 C78 0.930 . S
O83 Co72 2.039 . S
O83 C73 1.265 . S
C84 O80 1.253 . S
C84 O85 1.227 . S
O85 C84 1.227 . S
N86 Co72 2.140 . S
N86 C89 1.346 . S
N86 C90 1.345 . S
C87 C88 1.387 . S
C87 C91 1.391 . S
C88 C87 1.387 . S
C88 C89 1.369 . S
C88 H97 0.929 . S
C89 N86 1.346 . S
C89 C88 1.369 . S
C89 H92 0.928 . S
C90 N86 1.345 . S
C90 C91 1.371 . S
C90 H93 0.931 . S
C91 C87 1.391 . S
C91 C90 1.371 . S
C91 H98 0.930 . S
H92 C89 0.928 . S
H93 C90 0.931 . S
H94 C70 0.930 . S
H95 C67 0.930 . S
H96 C76 0.930 . S
H97 C88 0.929 . S
H98 C91 0.930 . S
C99 C100 1.351 . S
C99 N102 1.368 1_455 S
C99 H104 0.931 . S
C100 C99 1.351 . S
C100 N101 1.373 . S
C100 H128 0.930 . S
N101 C100 1.373 . S
N101 C103 1.340 1_455 S
N102 C99 1.368 1_655 S
N102 C103 1.321 . S
N102 Co105 2.135 . S
C103 N101 1.340 1_655 S
C103 N102 1.321 . S
C103 H127 0.930 . S
H104 C99 0.931 . S
Co105 N102 2.135 . S
Co105 N108 2.121 . S
Co105 O113 2.055 . S
Co105 O116 2.039 . S
Co105 N119 2.140 . S
C106 O107 1.227 . S
C106 O116 1.265 . S
O107 C106 1.227 . S
N108 Co105 2.121 . S
N108 C110 1.375 . S
N108 C111 1.313 . S
C109 C110 1.338 . S
C109 N112 1.377 . S
C109 H129 0.930 . S
C110 N108 1.375 . S
C110 C109 1.338 . S
C110 H114 0.931 . S
C111 N108 1.313 . S
C111 N112 1.344 . S
C111 H115 0.930 . S
N112 C109 1.377 . S
N112 C111 1.344 . S
O113 Co105 2.055 . S
O113 C117 1.253 1_655 S
H114 C110 0.931 . S
H115 C111 0.930 . S
O116 Co105 2.039 . S
O116 C106 1.265 . S
C117 O113 1.253 1_455 S
C117 O118 1.227 . S
O118 C117 1.227 . S
N119 Co105 2.140 . S
N119 C122 1.346 . S
N119 C123 1.345 . S
C120 C121 1.387 . S
C120 C124 1.391 . S
C121 C120 1.387 . S
C121 C122 1.369 . S
C121 H130 0.929 . S
C122 N119 1.346 . S
C122 C121 1.369 . S
C122 H125 0.928 . S
C123 N119 1.345 . S
C123 C124 1.371 . S
C123 H126 0.931 . S
C124 C120 1.391 . S
C124 C123 1.371 . S
C124 H131 0.930 . S
H125 C122 0.928 . S
H126 C123 0.931 . S
H127 C103 0.930 . S
H128 C100 0.930 . S
H129 C109 0.930 . S
H130 C121 0.929 . S
H131 C124 0.930 . S
C132 C133 1.351 . S
C132 N135 1.368 . S
C132 H137 0.931 . S
C133 C132 1.351 . S
C133 N134 1.373 . S
C133 H161 0.930 . S
N134 C133 1.373 . S
N134 C136 1.340 . S
N135 C132 1.368 . S
N135 C136 1.321 . S
N135 Co138 2.135 . S
C136 N134 1.340 . S
C136 N135 1.321 . S
C136 H160 0.930 . S
H137 C132 0.931 . S
Co138 N135 2.135 . S
Co138 N141 2.121 1_556 S
Co138 O146 2.055 . S
Co138 O149 2.039 . S
Co138 N152 2.140 1_556 S
C139 O140 1.227 . S
C139 O149 1.265 . S
O140 C139 1.227 . S
N141 Co138 2.121 1_554 S
N141 C143 1.375 . S
N141 C144 1.313 . S
C142 C143 1.338 . S
C142 N145 1.377 . S
C142 H162 0.930 . S
C143 N141 1.375 . S
C143 C142 1.338 . S
C143 H147 0.931 . S
C144 N141 1.313 . S
C144 N145 1.344 . S
C144 H148 0.930 . S
N145 C142 1.377 . S
N145 C144 1.344 . S
O146 Co138 2.055 . S
O146 C150 1.253 1_556 S
H147 C143 0.931 . S
H148 C144 0.930 . S
O149 Co138 2.039 . S
O149 C139 1.265 . S
C150 O146 1.253 1_554 S
C150 O151 1.227 . S
O151 C150 1.227 . S
N152 Co138 2.140 1_554 S
N152 C155 1.346 1_554 S
N152 C156 1.345 . S
C153 C154 1.387 . S
C153 C157 1.391 . S
C154 C153 1.387 . S
C154 C155 1.369 1_554 S
C154 H163 0.929 1_554 S
C155 N152 1.346 1_556 S
C155 C154 1.369 1_556 S
C155 H158 0.928 . S
C156 N152 1.345 . S
C156 C157 1.371 . S
C156 H159 0.931 . S
C157 C153 1.391 . S
C157 C156 1.371 . S
C157 H164 0.930 . S
H158 C155 0.928 . S
H159 C156 0.931 . S
H160 C136 0.930 . S
H161 C133 0.930 . S
H162 C142 0.930 . S
H163 C154 0.929 1_556 S
H164 C157 0.930 . S
C165 C166 1.351 . S
C165 N168 1.368 . S
C165 H170 0.931 . S
C166 C165 1.351 . S
C166 N167 1.373 . S
C166 H194 0.930 . S
N167 C166 1.373 . S
N167 C169 1.340 . S
N168 C165 1.368 . S
N168 C169 1.321 . S
N168 Co171 2.135 . S
C169 N167 1.340 . S
C169 N168 1.321 . S
C169 H193 0.930 . S
H170 C165 0.931 . S
Co171 N168 2.135 . S
Co171 N174 2.121 . S
Co171 O179 2.055 . S
Co171 O182 2.039 . S
Co171 N185 2.140 . S
C172 O173 1.227 . S
C172 O182 1.265 . S
O173 C172 1.227 . S
N174 Co171 2.121 . S
N174 C176 1.375 . S
N174 C177 1.313 . S
C175 C176 1.338 . S
C175 N178 1.377 . S
C175 H195 0.930 . S
C176 N174 1.375 . S
C176 C175 1.338 . S
C176 H180 0.931 . S
C177 N174 1.313 . S
C177 N178 1.344 . S
C177 H181 0.930 . S
N178 C175 1.377 . S
N178 C177 1.344 . S
O179 Co171 2.055 . S
O179 C183 1.253 . S
H180 C176 0.931 . S
H181 C177 0.930 . S
O182 Co171 2.039 . S
O182 C172 1.265 . S
C183 O179 1.253 . S
C183 O184 1.227 . S
O184 C183 1.227 . S
N185 Co171 2.140 . S
N185 C188 1.346 . S
N185 C189 1.345 . S
C186 C187 1.387 . S
C186 C190 1.391 . S
C187 C186 1.387 . S
C187 C188 1.369 . S
C187 H196 0.929 . S
C188 N185 1.346 . S
C188 C187 1.369 . S
C188 H191 0.928 . S
C189 N185 1.345 . S
C189 C190 1.371 . S
C189 H192 0.931 . S
C190 C186 1.391 . S
C190 C189 1.371 . S
C190 H197 0.930 . S
H191 C188 0.928 . S
H192 C189 0.931 . S
H193 C169 0.930 . S
H194 C166 0.930 . S
H195 C175 0.930 . S
H196 C187 0.929 . S
H197 C190 0.930 . S
C198 C199 1.351 . S
C198 N201 1.368 . S
C198 H203 0.931 . S
C199 C198 1.351 . S
C199 N200 1.373 . S
C199 H227 0.930 . S
N200 C199 1.373 . S
N200 C202 1.340 . S
N201 C198 1.368 . S
N201 C202 1.321 . S
N201 Co204 2.135 . S
C202 N200 1.340 . S
C202 N201 1.321 . S
C202 H226 0.930 . S
H203 C198 0.931 . S
Co204 N201 2.135 . S
Co204 N207 2.121 . S
Co204 O212 2.055 . S
Co204 O215 2.039 . S
Co204 N218 2.140 . S
C205 O206 1.227 . S
C205 O215 1.265 . S
O206 C205 1.227 . S
N207 Co204 2.121 . S
N207 C209 1.375 . S
N207 C210 1.313 . S
C208 C209 1.338 . S
C208 N211 1.377 . S
C208 H228 0.930 . S
C209 N207 1.375 . S
C209 C208 1.338 . S
C209 H213 0.931 . S
C210 N207 1.313 . S
C210 N211 1.344 . S
C210 H214 0.930 . S
N211 C208 1.377 . S
N211 C210 1.344 . S
O212 Co204 2.055 . S
O212 C216 1.253 . S
H213 C209 0.931 . S
H214 C210 0.930 . S
O215 Co204 2.039 . S
O215 C205 1.265 . S
C216 O212 1.253 . S
C216 O217 1.227 . S
O217 C216 1.227 . S
N218 Co204 2.140 . S
N218 C221 1.346 . S
N218 C222 1.345 . S
C219 C220 1.387 . S
C219 C223 1.391 . S
C220 C219 1.387 . S
C220 C221 1.369 . S
C220 H229 0.929 . S
C221 N218 1.346 . S
C221 C220 1.369 . S
C221 H224 0.928 . S
C222 N218 1.345 . S
C222 C223 1.371 . S
C222 H225 0.931 . S
C223 C219 1.391 . S
C223 C222 1.371 . S
C223 H230 0.930 . S
H224 C221 0.928 . S
H225 C222 0.931 . S
H226 C202 0.930 . S
H227 C199 0.930 . S
H228 C208 0.930 . S
H229 C220 0.929 . S
H230 C223 0.930 . S
C231 C232 1.351 . S
C231 N234 1.368 1_655 S
C231 H236 0.931 . S
C232 C231 1.351 . S
C232 N233 1.373 . S
C232 H260 0.930 . S
N233 C232 1.373 . S
N233 C235 1.340 1_655 S
N234 C231 1.368 1_455 S
N234 C235 1.321 . S
N234 Co237 2.135 . S
C235 N233 1.340 1_455 S
C235 N234 1.321 . S
C235 H259 0.930 . S
H236 C231 0.931 . S
Co237 N234 2.135 . S
Co237 N240 2.121 . S
Co237 O245 2.055 . S
Co237 O248 2.039 . S
Co237 N251 2.140 . S
C238 O239 1.227 . S
C238 O248 1.265 . S
O239 C238 1.227 . S
N240 Co237 2.121 . S
N240 C242 1.375 . S
N240 C243 1.313 . S
C241 C242 1.338 . S
C241 N244 1.377 . S
C241 H261 0.930 . S
C242 N240 1.375 . S
C242 C241 1.338 . S
C242 H246 0.931 . S
C243 N240 1.313 . S
C243 N244 1.344 . S
C243 H247 0.930 . S
N244 C241 1.377 . S
N244 C243 1.344 . S
O245 Co237 2.055 . S
O245 C249 1.253 1_455 S
H246 C242 0.931 . S
H247 C243 0.930 . S
O248 Co237 2.039 . S
O248 C238 1.265 . S
C249 O245 1.253 1_655 S
C249 O250 1.227 . S
O250 C249 1.227 . S
N251 Co237 2.140 . S
N251 C254 1.346 . S
N251 C255 1.345 . S
C252 C253 1.387 . S
C252 C256 1.391 . S
C253 C252 1.387 . S
C253 C254 1.369 . S
C253 H262 0.929 . S
C254 N251 1.346 . S
C254 C253 1.369 . S
C254 H257 0.928 . S
C255 N251 1.345 . S
C255 C256 1.371 . S
C255 H258 0.931 . S
C256 C252 1.391 . S
C256 C255 1.371 . S
C256 H263 0.930 . S
H257 C254 0.928 . S
H258 C255 0.931 . S
H259 C235 0.930 . S
H260 C232 0.930 . S
H261 C241 0.930 . S
H262 C253 0.929 . S
H263 C256 0.930 . S
C264 C265 1.351 . S
C264 N267 1.368 . S
C264 H269 0.931 . S
C265 C264 1.351 . S
C265 N266 1.373 . S
C265 H293 0.930 . S
N266 C265 1.373 . S
N266 C268 1.340 . S
N267 C264 1.368 . S
N267 C268 1.321 . S
N267 Co270 2.135 . S
C268 N266 1.340 . S
C268 N267 1.321 . S
C268 H292 0.930 . S
H269 C264 0.931 . S
Co270 N267 2.135 . S
Co270 N273 2.121 . S
Co270 O278 2.055 . S
Co270 O281 2.039 . S
Co270 N284 2.140 . S
C271 O272 1.227 . S
C271 O281 1.265 . S
O272 C271 1.227 . S
N273 Co270 2.121 . S
N273 C275 1.375 . S
N273 C276 1.313 . S
C274 C275 1.338 . S
C274 N277 1.377 . S
C274 H294 0.930 . S
C275 N273 1.375 . S
C275 C274 1.338 . S
C275 H279 0.931 . S
C276 N273 1.313 . S
C276 N277 1.344 . S
C276 H280 0.930 . S
N277 C274 1.377 . S
N277 C276 1.344 . S
O278 Co270 2.055 . S
O278 C282 1.253 . S
H279 C275 0.931 . S
H280 C276 0.930 . S
O281 Co270 2.039 . S
O281 C271 1.265 . S
C282 O278 1.253 . S
C282 O283 1.227 . S
O283 C282 1.227 . S
N284 Co270 2.140 . S
N284 C287 1.346 . S
N284 C288 1.345 . S
C285 C286 1.387 . S
C285 C289 1.391 . S
C286 C285 1.387 . S
C286 C287 1.369 . S
C286 H295 0.929 . S
C287 N284 1.346 . S
C287 C286 1.369 . S
C287 H290 0.928 . S
C288 N284 1.345 . S
C288 C289 1.371 . S
C288 H291 0.931 . S
C289 C285 1.391 . S
C289 C288 1.371 . S
C289 H296 0.930 . S
H290 C287 0.928 . S
H291 C288 0.931 . S
H292 C268 0.930 . S
H293 C265 0.930 . S
H294 C274 0.930 . S
H295 C286 0.929 . S
H296 C289 0.930 . S
C297 C298 1.351 1_545 S
C297 N300 1.368 1_655 S
C297 H302 0.931 . S
C298 C297 1.351 1_565 S
C298 N299 1.373 1_565 S
C298 H326 0.930 . S
N299 C298 1.373 1_545 S
N299 C301 1.340 1_655 S
N300 C297 1.368 1_455 S
N300 C301 1.321 . S
N300 Co303 2.135 . S
C301 N299 1.340 1_455 S
C301 N300 1.321 . S
C301 H325 0.930 . S
H302 C297 0.931 . S
Co303 N300 2.135 . S
Co303 N306 2.121 . S
Co303 O311 2.055 . S
Co303 O314 2.039 . S
Co303 N317 2.140 . S
C304 O305 1.227 . S
C304 O314 1.265 . S
O305 C304 1.227 . S
N306 Co303 2.121 . S
N306 C308 1.375 . S
N306 C309 1.313 . S
C307 C308 1.338 . S
C307 N310 1.377 . S
C307 H327 0.930 . S
C308 N306 1.375 . S
C308 C307 1.338 . S
C308 H312 0.931 . S
C309 N306 1.313 . S
C309 N310 1.344 . S
C309 H313 0.930 . S
N310 C307 1.377 . S
N310 C309 1.344 . S
O311 Co303 2.055 . S
O311 C315 1.253 1_455 S
H312 C308 0.931 . S
H313 C309 0.930 . S
O314 Co303 2.039 . S
O314 C304 1.265 . S
C315 O311 1.253 1_655 S
C315 O316 1.227 . S
O316 C315 1.227 . S
N317 Co303 2.140 . S
N317 C320 1.346 1_545 S
N317 C321 1.345 . S
C318 C319 1.387 . S
C318 C322 1.391 . S
C319 C318 1.387 . S
C319 C320 1.369 . S
C319 H328 0.929 . S
C320 N317 1.346 1_565 S
C320 C319 1.369 . S
C320 H323 0.928 . S
C321 N317 1.345 . S
C321 C322 1.371 1_545 S
C321 H324 0.931 . S
C322 C318 1.391 . S
C322 C321 1.371 1_565 S
C322 H329 0.930 . S
H323 C320 0.928 . S
H324 C321 0.931 . S
H325 C301 0.930 . S
H326 C298 0.930 . S
H327 C307 0.930 . S
H328 C319 0.929 . S
H329 C322 0.930 . S
C330 C331 1.351 . S
C330 N333 1.368 . S
C330 H335 0.931 . S
C331 C330 1.351 . S
C331 N332 1.373 . S
C331 H359 0.930 . S
N332 C331 1.373 . S
N332 C334 1.340 . S
N333 C330 1.368 . S
N333 C334 1.321 . S
N333 Co336 2.135 . S
C334 N332 1.340 . S
C334 N333 1.321 . S
C334 H358 0.930 . S
H335 C330 0.931 . S
Co336 N333 2.135 . S
Co336 N339 2.121 1_554 S
Co336 O344 2.055 . S
Co336 O347 2.039 . S
Co336 N350 2.140 1_554 S
C337 O338 1.227 . S
C337 O347 1.265 . S
O338 C337 1.227 . S
N339 Co336 2.121 1_556 S
N339 C341 1.375 . S
N339 C342 1.313 . S
C340 C341 1.338 . S
C340 N343 1.377 . S
C340 H360 0.930 . S
C341 N339 1.375 . S
C341 C340 1.338 . S
C341 H345 0.931 . S
C342 N339 1.313 . S
C342 N343 1.344 . S
C342 H346 0.930 . S
N343 C340 1.377 . S
N343 C342 1.344 . S
O344 Co336 2.055 . S
O344 C348 1.253 1_554 S
H345 C341 0.931 . S
H346 C342 0.930 . S
O347 Co336 2.039 . S
O347 C337 1.265 . S
C348 O344 1.253 1_556 S
C348 O349 1.227 . S
O349 C348 1.227 . S
N350 Co336 2.140 1_556 S
N350 C353 1.346 1_556 S
N350 C354 1.345 . S
C351 C352 1.387 . S
C351 C355 1.391 . S
C352 C351 1.387 . S
C352 C353 1.369 1_556 S
C352 H361 0.929 1_556 S
C353 N350 1.346 1_554 S
C353 C352 1.369 1_554 S
C353 H356 0.928 . S
C354 N350 1.345 . S
C354 C355 1.371 . S
C354 H357 0.931 . S
C355 C351 1.391 . S
C355 C354 1.371 . S
C355 H362 0.930 . S
H356 C353 0.928 . S
H357 C354 0.931 . S
H358 C334 0.930 . S
H359 C331 0.930 . S
H360 C340 0.930 . S
H361 C352 0.929 1_554 S
H362 C355 0.930 . S
C363 C364 1.351 1_565 S
C363 N366 1.368 . S
C363 H368 0.931 . S
C364 C363 1.351 1_545 S
C364 N365 1.373 1_545 S
C364 H392 0.930 . S
N365 C364 1.373 1_565 S
N365 C367 1.340 . S
N366 C363 1.368 . S
N366 C367 1.321 . S
N366 Co369 2.135 . S
C367 N365 1.340 . S
C367 N366 1.321 . S
C367 H391 0.930 . S
H368 C363 0.931 . S
Co369 N366 2.135 . S
Co369 N372 2.121 . S
Co369 O377 2.055 . S
Co369 O380 2.039 . S
Co369 N383 2.140 . S
C370 O371 1.227 . S
C370 O380 1.265 . S
O371 C370 1.227 . S
N372 Co369 2.121 . S
N372 C374 1.375 . S
N372 C375 1.313 . S
C373 C374 1.338 . S
C373 N376 1.377 . S
C373 H393 0.930 . S
C374 N372 1.375 . S
C374 C373 1.338 . S
C374 H378 0.931 . S
C375 N372 1.313 . S
C375 N376 1.344 . S
C375 H379 0.930 . S
N376 C373 1.377 . S
N376 C375 1.344 . S
O377 Co369 2.055 . S
O377 C381 1.253 . S
H378 C374 0.931 . S
H379 C375 0.930 . S
O380 Co369 2.039 . S
O380 C370 1.265 . S
C381 O377 1.253 . S
C381 O382 1.227 . S
O382 C381 1.227 . S
N383 Co369 2.140 . S
N383 C386 1.346 1_565 S
N383 C387 1.345 . S
C384 C385 1.387 . S
C384 C388 1.391 . S
C385 C384 1.387 . S
C385 C386 1.369 . S
C385 H394 0.929 . S
C386 N383 1.346 1_545 S
C386 C385 1.369 . S
C386 H389 0.928 . S
C387 N383 1.345 . S
C387 C388 1.371 1_565 S
C387 H390 0.931 . S
C388 C384 1.391 . S
C388 C387 1.371 1_545 S
C388 H395 0.930 . S
H389 C386 0.928 . S
H390 C387 0.931 . S
H391 C367 0.930 . S
H392 C364 0.930 . S
H393 C373 0.930 . S
H394 C385 0.929 . S
H395 C388 0.930 . S
C396 C397 1.351 . S
C396 N399 1.368 . S
C396 H401 0.931 . S
C397 C396 1.351 . S
C397 N398 1.373 . S
C397 H425 0.930 . S
N398 C397 1.373 . S
N398 C400 1.340 . S
N399 C396 1.368 . S
N399 C400 1.321 . S
N399 Co402 2.135 . S
C400 N398 1.340 . S
C400 N399 1.321 . S
C400 H424 0.930 . S
H401 C396 0.931 . S
Co402 N399 2.135 . S
Co402 N405 2.121 . S
Co402 O410 2.055 . S
Co402 O413 2.039 . S
Co402 N416 2.140 . S
C403 O404 1.227 . S
C403 O413 1.265 . S
O404 C403 1.227 . S
N405 Co402 2.121 . S
N405 C407 1.375 . S
N405 C408 1.313 . S
C406 C407 1.338 . S
C406 N409 1.377 . S
C406 H426 0.930 . S
C407 N405 1.375 . S
C407 C406 1.338 . S
C407 H411 0.931 . S
C408 N405 1.313 . S
C408 N409 1.344 . S
C408 H412 0.930 . S
N409 C406 1.377 . S
N409 C408 1.344 . S
O410 Co402 2.055 . S
O410 C414 1.253 . S
H411 C407 0.931 . S
H412 C408 0.930 . S
O413 Co402 2.039 . S
O413 C403 1.265 . S
C414 O410 1.253 . S
C414 O415 1.227 . S
O415 C414 1.227 . S
N416 Co402 2.140 . S
N416 C419 1.346 . S
N416 C420 1.345 . S
C417 C418 1.387 . S
C417 C421 1.391 . S
C418 C417 1.387 . S
C418 C419 1.369 . S
C418 H427 0.929 . S
C419 N416 1.346 . S
C419 C418 1.369 . S
C419 H422 0.928 . S
C420 N416 1.345 . S
C420 C421 1.371 . S
C420 H423 0.931 . S
C421 C417 1.391 . S
C421 C420 1.371 . S
C421 H428 0.930 . S
H422 C419 0.928 . S
H423 C420 0.931 . S
H424 C400 0.930 . S
H425 C397 0.930 . S
H426 C406 0.930 . S
H427 C418 0.929 . S
H428 C421 0.930 . S
C429 C430 1.351 1_565 S
C429 N432 1.368 1_455 S
C429 H434 0.931 . S
C430 C429 1.351 1_545 S
C430 N431 1.373 1_545 S
C430 H458 0.930 . S
N431 C430 1.373 1_565 S
N431 C433 1.340 1_455 S
N432 C429 1.368 1_655 S
N432 C433 1.321 . S
N432 Co435 2.135 . S
C433 N431 1.340 1_655 S
C433 N432 1.321 . S
C433 H457 0.930 . S
H434 C429 0.931 . S
Co435 N432 2.135 . S
Co435 N438 2.121 . S
Co435 O443 2.055 . S
Co435 O446 2.039 . S
Co435 N449 2.140 . S
C436 O437 1.227 . S
C436 O446 1.265 . S
O437 C436 1.227 . S
N438 Co435 2.121 . S
N438 C440 1.375 . S
N438 C441 1.313 . S
C439 C440 1.338 . S
C439 N442 1.377 . S
C439 H459 0.930 . S
C440 N438 1.375 . S
C440 C439 1.338 . S
C440 H444 0.931 . S
C441 N438 1.313 . S
C441 N442 1.344 . S
C441 H445 0.930 . S
N442 C439 1.377 . S
N442 C441 1.344 . S
O443 Co435 2.055 . S
O443 C447 1.253 1_655 S
H444 C440 0.931 . S
H445 C441 0.930 . S
O446 Co435 2.039 . S
O446 C436 1.265 . S
C447 O443 1.253 1_455 S
C447 O448 1.227 . S
O448 C447 1.227 . S
N449 Co435 2.140 . S
N449 C452 1.346 1_565 S
N449 C453 1.345 . S
C450 C451 1.387 . S
C450 C454 1.391 . S
C451 C450 1.387 . S
C451 C452 1.369 . S
C451 H460 0.929 . S
C452 N449 1.346 1_545 S
C452 C451 1.369 . S
C452 H455 0.928 . S
C453 N449 1.345 . S
C453 C454 1.371 1_565 S
C453 H456 0.931 . S
C454 C450 1.391 . S
C454 C453 1.371 1_545 S
C454 H461 0.930 . S
H455 C452 0.928 . S
H456 C453 0.931 . S
H457 C433 0.930 . S
H458 C430 0.930 . S
H459 C439 0.930 . S
H460 C451 0.929 . S
H461 C454 0.930 . S
C462 C463 1.351 . S
C462 N465 1.368 . S
C462 H467 0.931 . S
C463 C462 1.351 . S
C463 N464 1.373 . S
C463 H491 0.930 . S
N464 C463 1.373 . S
N464 C466 1.340 . S
N465 C462 1.368 . S
N465 C466 1.321 . S
N465 Co468 2.135 . S
C466 N464 1.340 . S
C466 N465 1.321 . S
C466 H490 0.930 . S
H467 C462 0.931 . S
Co468 N465 2.135 . S
Co468 N471 2.121 1_556 S
Co468 O476 2.055 . S
Co468 O479 2.039 . S
Co468 N482 2.140 1_556 S
C469 O470 1.227 . S
C469 O479 1.265 . S
O470 C469 1.227 . S
N471 Co468 2.121 1_554 S
N471 C473 1.375 . S
N471 C474 1.313 . S
C472 C473 1.338 . S
C472 N475 1.377 . S
C472 H492 0.930 . S
C473 N471 1.375 . S
C473 C472 1.338 . S
C473 H477 0.931 . S
C474 N471 1.313 . S
C474 N475 1.344 . S
C474 H478 0.930 . S
N475 C472 1.377 . S
N475 C474 1.344 . S
O476 Co468 2.055 . S
O476 C480 1.253 1_556 S
H477 C473 0.931 . S
H478 C474 0.930 . S
O479 Co468 2.039 . S
O479 C469 1.265 . S
C480 O476 1.253 1_554 S
C480 O481 1.227 . S
O481 C480 1.227 . S
N482 Co468 2.140 1_554 S
N482 C485 1.346 1_554 S
N482 C486 1.345 . S
C483 C484 1.387 . S
C483 C487 1.391 . S
C484 C483 1.387 . S
C484 C485 1.369 1_554 S
C484 H493 0.929 1_554 S
C485 N482 1.346 1_556 S
C485 C484 1.369 1_556 S
C485 H488 0.928 . S
C486 N482 1.345 . S
C486 C487 1.371 . S
C486 H489 0.931 . S
C487 C483 1.391 . S
C487 C486 1.371 . S
C487 H494 0.930 . S
H488 C485 0.928 . S
H489 C486 0.931 . S
H490 C466 0.930 . S
H491 C463 0.930 . S
H492 C472 0.930 . S
H493 C484 0.929 1_556 S
H494 C487 0.930 . S
C495 C496 1.351 1_545 S
C495 N498 1.368 . S
C495 H500 0.931 . S
C496 C495 1.351 1_565 S
C496 N497 1.373 1_565 S
C496 H524 0.930 . S
N497 C496 1.373 1_545 S
N497 C499 1.340 . S
N498 C495 1.368 . S
N498 C499 1.321 . S
N498 Co501 2.135 . S
C499 N497 1.340 . S
C499 N498 1.321 . S
C499 H523 0.930 . S
H500 C495 0.931 . S
Co501 N498 2.135 . S
Co501 N504 2.121 . S
Co501 O509 2.055 . S
Co501 O512 2.039 . S
Co501 N515 2.140 . S
C502 O503 1.227 . S
C502 O512 1.265 . S
O503 C502 1.227 . S
N504 Co501 2.121 . S
N504 C506 1.375 . S
N504 C507 1.313 . S
C505 C506 1.338 . S
C505 N508 1.377 . S
C505 H525 0.930 . S
C506 N504 1.375 . S
C506 C505 1.338 . S
C506 H510 0.931 . S
C507 N504 1.313 . S
C507 N508 1.344 . S
C507 H511 0.930 . S
N508 C505 1.377 . S
N508 C507 1.344 . S
O509 Co501 2.055 . S
O509 C513 1.253 . S
H510 C506 0.931 . S
H511 C507 0.930 . S
O512 Co501 2.039 . S
O512 C502 1.265 . S
C513 O509 1.253 . S
C513 O514 1.227 . S
O514 C513 1.227 . S
N515 Co501 2.140 . S
N515 C518 1.346 1_545 S
N515 C519 1.345 . S
C516 C517 1.387 . S
C516 C520 1.391 . S
C517 C516 1.387 . S
C517 C518 1.369 . S
C517 H526 0.929 . S
C518 N515 1.346 1_565 S
C518 C517 1.369 . S
C518 H521 0.928 . S
C519 N515 1.345 . S
C519 C520 1.371 1_545 S
C519 H522 0.931 . S
C520 C516 1.391 . S
C520 C519 1.371 1_565 S
C520 H527 0.930 . S
H521 C518 0.928 . S
H522 C519 0.931 . S
H523 C499 0.930 . S
H524 C496 0.930 . S
H525 C505 0.930 . S
H526 C517 0.929 . S
H527 C520 0.930 . S
C513 N13 1.537 . S
N46 C150 1.537 . S
N79 C447 1.537 . S
N112 C216 1.537 . S
N145 C381 1.537 . S
C18 N178 1.537 . S
C315 N211 1.537 . S
N244 C84 1.537 . S
N277 C249 1.537 . S
N310 C414 1.537 . S
C183 N343 1.537 . S
N376 C480 1.537 . S
N409 C117 1.537 . S
N442 C282 1.537 . S
C51 N475 1.537 . S
N508 C348 1.537 . S
N2 N398 1.741 . S
N167 N35 1.741 . S
N68 N464 1.741 . S
N101 N233 1.741 1_456 S
N266 N134 1.741 . S
N332 N200 1.741 . S
N431 N299 1.741 1_464 S
N365 N497 1.741 1_565 S
C304 C21 1.520 . S
C54 C337 1.520 . S
C87 C370 1.520 . S
C271 C120 1.520 . S
C153 C436 1.520 . S
C186 C469 1.520 . S
C219 C502 1.520 . S
C252 C403 1.520 . S
C40 C285 1.520 . S
C318 C73 1.520 . S
C351 C106 1.520 . S
C384 C7 1.520 . S
C417 C172 1.520 . S
C205 C450 1.520 . S
C238 C483 1.520 . S
C516 C139 1.520 . S
