# Generated by pormake.
# Topology fcn, (5)-cn, num edge types: 1
# Building blocks:
#     Node 0, Type 0, BuildingBlock: XOMCOT_clean_sbu_0, # of connection points: 5
#     Node 1, Type 0, BuildingBlock: XOMCOT_clean_sbu_0, # of connection points: 5
#     Node 2, Type 0, BuildingBlock: XOMCOT_clean_sbu_0, # of connection points: 5
#     Node 3, Type 0, BuildingBlock: XOMCOT_clean_sbu_0, # of connection points: 5
#     Node 4, Type 0, BuildingBlock: XOMCOT_clean_sbu_0, # of connection points: 5
#     Node 5, Type 0, BuildingBlock: XOMCOT_clean_sbu_0, # of connection points: 5
#     Node 6, Type 0, BuildingBlock: XOMCOT_clean_sbu_0, # of connection points: 5
#     Node 7, Type 0, BuildingBlock: XOMCOT_clean_sbu_0, # of connection points: 5
#     Node 8, Type 0, BuildingBlock: XOMCOT_clean_sbu_0, # of connection points: 5
#     Node 9, Type 0, BuildingBlock: XOMCOT_clean_sbu_0, # of connection points: 5
#     Node 10, Type 0, BuildingBlock: XOMCOT_clean_sbu_0, # of connection points: 5
#     Node 11, Type 0, BuildingBlock: XOMCOT_clean_sbu_0, # of connection points: 5
#     Node 12, Type 0, BuildingBlock: XOMCOT_clean_sbu_0, # of connection points: 5
#     Node 13, Type 0, BuildingBlock: XOMCOT_clean_sbu_0, # of connection points: 5
#     Node 14, Type 0, BuildingBlock: XOMCOT_clean_sbu_0, # of connection points: 5
#     Node 15, Type 0, BuildingBlock: XOMCOT_clean_sbu_0, # of connection points: 5
#     Node 16, Type 0, BuildingBlock: XOMCOT_clean_sbu_0, # of connection points: 5
#     Node 17, Type 0, BuildingBlock: XOMCOT_clean_sbu_0, # of connection points: 5
#     Node 18, Type 0, BuildingBlock: XOMCOT_clean_sbu_0, # of connection points: 5
#     Node 19, Type 0, BuildingBlock: XOMCOT_clean_sbu_0, # of connection points: 5
#     Node 20, Type 0, BuildingBlock: XOMCOT_clean_sbu_0, # of connection points: 5
#     Node 21, Type 0, BuildingBlock: XOMCOT_clean_sbu_0, # of connection points: 5
#     Node 22, Type 0, BuildingBlock: XOMCOT_clean_sbu_0, # of connection points: 5
#     Node 23, Type 0, BuildingBlock: XOMCOT_clean_sbu_0, # of connection points: 5
#     Node 24, Type 0, BuildingBlock: XOMCOT_clean_sbu_0, # of connection points: 5
#     Node 25, Type 0, BuildingBlock: XOMCOT_clean_sbu_0, # of connection points: 5
#     Node 26, Type 0, BuildingBlock: XOMCOT_clean_sbu_0, # of connection points: 5
#     Node 27, Type 0, BuildingBlock: XOMCOT_clean_sbu_0, # of connection points: 5
#     Node 28, Type 0, BuildingBlock: XOMCOT_clean_sbu_0, # of connection points: 5
#     Node 29, Type 0, BuildingBlock: XOMCOT_clean_sbu_0, # of connection points: 5
#     Node 30, Type 0, BuildingBlock: XOMCOT_clean_sbu_0, # of connection points: 5
#     Node 31, Type 0, BuildingBlock: XOMCOT_clean_sbu_0, # of connection points: 5
#     Node 32, Type 0, BuildingBlock: XOMCOT_clean_sbu_0, # of connection points: 5
#     Node 33, Type 0, BuildingBlock: XOMCOT_clean_sbu_0, # of connection points: 5
#     Node 34, Type 0, BuildingBlock: XOMCOT_clean_sbu_0, # of connection points: 5
#     Node 35, Type 0, BuildingBlock: XOMCOT_clean_sbu_0, # of connection points: 5
#     Node 36, Type 0, BuildingBlock: XOMCOT_clean_sbu_0, # of connection points: 5
#     Node 37, Type 0, BuildingBlock: XOMCOT_clean_sbu_0, # of connection points: 5
#     Node 38, Type 0, BuildingBlock: XOMCOT_clean_sbu_0, # of connection points: 5
#     Node 39, Type 0, BuildingBlock: XOMCOT_clean_sbu_0, # of connection points: 5
#     Node 40, Type 0, BuildingBlock: XOMCOT_clean_sbu_0, # of connection points: 5
#     Node 41, Type 0, BuildingBlock: XOMCOT_clean_sbu_0, # of connection points: 5
#     Node 42, Type 0, BuildingBlock: XOMCOT_clean_sbu_0, # of connection points: 5
#     Node 43, Type 0, BuildingBlock: XOMCOT_clean_sbu_0, # of connection points: 5
#     Node 44, Type 0, BuildingBlock: XOMCOT_clean_sbu_0, # of connection points: 5
#     Node 45, Type 0, BuildingBlock: XOMCOT_clean_sbu_0, # of connection points: 5
#     Node 46, Type 0, BuildingBlock: XOMCOT_clean_sbu_0, # of connection points: 5
#     Node 47, Type 0, BuildingBlock: XOMCOT_clean_sbu_0, # of connection points: 5
#     Edge 48, Type (0, 0), BuildingBlock: AJUNOK_clean_linker_0, # of connection points: 2
#     Edge 49, Type (0, 0), BuildingBlock: AJUNOK_clean_linker_0, # of connection points: 2
#     Edge 50, Type (0, 0), BuildingBlock: AJUNOK_clean_linker_0, # of connection points: 2
#     Edge 51, Type (0, 0), BuildingBlock: AJUNOK_clean_linker_0, # of connection points: 2
#     Edge 52, Type (0, 0), BuildingBlock: AJUNOK_clean_linker_0, # of connection points: 2
#     Edge 53, Type (0, 0), BuildingBlock: AJUNOK_clean_linker_0, # of connection points: 2
#     Edge 54, Type (0, 0), BuildingBlock: AJUNOK_clean_linker_0, # of connection points: 2
#     Edge 55, Type (0, 0), BuildingBlock: AJUNOK_clean_linker_0, # of connection points: 2
#     Edge 56, Type (0, 0), BuildingBlock: AJUNOK_clean_linker_0, # of connection points: 2
#     Edge 57, Type (0, 0), BuildingBlock: AJUNOK_clean_linker_0, # of connection points: 2
#     Edge 58, Type (0, 0), BuildingBlock: AJUNOK_clean_linker_0, # of connection points: 2
#     Edge 59, Type (0, 0), BuildingBlock: AJUNOK_clean_linker_0, # of connection points: 2
#     Edge 60, Type (0, 0), BuildingBlock: AJUNOK_clean_linker_0, # of connection points: 2
#     Edge 61, Type (0, 0), BuildingBlock: AJUNOK_clean_linker_0, # of connection points: 2
#     Edge 62, Type (0, 0), BuildingBlock: AJUNOK_clean_linker_0, # of connection points: 2
#     Edge 63, Type (0, 0), BuildingBlock: AJUNOK_clean_linker_0, # of connection points: 2
#     Edge 64, Type (0, 0), BuildingBlock: AJUNOK_clean_linker_0, # of connection points: 2
#     Edge 65, Type (0, 0), BuildingBlock: AJUNOK_clean_linker_0, # of connection points: 2
#     Edge 66, Type (0, 0), BuildingBlock: AJUNOK_clean_linker_0, # of connection points: 2
#     Edge 67, Type (0, 0), BuildingBlock: AJUNOK_clean_linker_0, # of connection points: 2
#     Edge 68, Type (0, 0), BuildingBlock: AJUNOK_clean_linker_0, # of connection points: 2
#     Edge 69, Type (0, 0), BuildingBlock: AJUNOK_clean_linker_0, # of connection points: 2
#     Edge 70, Type (0, 0), BuildingBlock: AJUNOK_clean_linker_0, # of connection points: 2
#     Edge 71, Type (0, 0), BuildingBlock: AJUNOK_clean_linker_0, # of connection points: 2
#     Edge 72, Type (0, 0), BuildingBlock: AJUNOK_clean_linker_0, # of connection points: 2
#     Edge 73, Type (0, 0), BuildingBlock: AJUNOK_clean_linker_0, # of connection points: 2
#     Edge 74, Type (0, 0), BuildingBlock: AJUNOK_clean_linker_0, # of connection points: 2
#     Edge 75, Type (0, 0), BuildingBlock: AJUNOK_clean_linker_0, # of connection points: 2
#     Edge 76, Type (0, 0), BuildingBlock: AJUNOK_clean_linker_0, # of connection points: 2
#     Edge 77, Type (0, 0), BuildingBlock: AJUNOK_clean_linker_0, # of connection points: 2
#     Edge 78, Type (0, 0), BuildingBlock: AJUNOK_clean_linker_0, # of connection points: 2
#     Edge 79, Type (0, 0), BuildingBlock: AJUNOK_clean_linker_0, # of connection points: 2
#     Edge 80, Type (0, 0), BuildingBlock: AJUNOK_clean_linker_0, # of connection points: 2
#     Edge 81, Type (0, 0), BuildingBlock: AJUNOK_clean_linker_0, # of connection points: 2
#     Edge 82, Type (0, 0), BuildingBlock: AJUNOK_clean_linker_0, # of connection points: 2
#     Edge 83, Type (0, 0), BuildingBlock: AJUNOK_clean_linker_0, # of connection points: 2
#     Edge 84, Type (0, 0), BuildingBlock: AJUNOK_clean_linker_0, # of connection points: 2
#     Edge 85, Type (0, 0), BuildingBlock: AJUNOK_clean_linker_0, # of connection points: 2
#     Edge 86, Type (0, 0), BuildingBlock: AJUNOK_clean_linker_0, # of connection points: 2
#     Edge 87, Type (0, 0), BuildingBlock: AJUNOK_clean_linker_0, # of connection points: 2
#     Edge 88, Type (0, 0), BuildingBlock: AJUNOK_clean_linker_0, # of connection points: 2
#     Edge 89, Type (0, 0), BuildingBlock: AJUNOK_clean_linker_0, # of connection points: 2
#     Edge 90, Type (0, 0), BuildingBlock: AJUNOK_clean_linker_0, # of connection points: 2
#     Edge 91, Type (0, 0), BuildingBlock: AJUNOK_clean_linker_0, # of connection points: 2
#     Edge 92, Type (0, 0), BuildingBlock: AJUNOK_clean_linker_0, # of connection points: 2
#     Edge 93, Type (0, 0), BuildingBlock: AJUNOK_clean_linker_0, # of connection points: 2
#     Edge 94, Type (0, 0), BuildingBlock: AJUNOK_clean_linker_0, # of connection points: 2
#     Edge 95, Type (0, 0), BuildingBlock: AJUNOK_clean_linker_0, # of connection points: 2
#     Edge 96, Type (0, 0), BuildingBlock: AJUNOK_clean_linker_0, # of connection points: 2
#     Edge 97, Type (0, 0), BuildingBlock: AJUNOK_clean_linker_0, # of connection points: 2
#     Edge 98, Type (0, 0), BuildingBlock: AJUNOK_clean_linker_0, # of connection points: 2
#     Edge 99, Type (0, 0), BuildingBlock: AJUNOK_clean_linker_0, # of connection points: 2
#     Edge 100, Type (0, 0), BuildingBlock: AJUNOK_clean_linker_0, # of connection points: 2
#     Edge 101, Type (0, 0), BuildingBlock: AJUNOK_clean_linker_0, # of connection points: 2
#     Edge 102, Type (0, 0), BuildingBlock: AJUNOK_clean_linker_0, # of connection points: 2
#     Edge 103, Type (0, 0), BuildingBlock: AJUNOK_clean_linker_0, # of connection points: 2
#     Edge 104, Type (0, 0), BuildingBlock: AJUNOK_clean_linker_0, # of connection points: 2
#     Edge 105, Type (0, 0), BuildingBlock: AJUNOK_clean_linker_0, # of connection points: 2
#     Edge 106, Type (0, 0), BuildingBlock: AJUNOK_clean_linker_0, # of connection points: 2
#     Edge 107, Type (0, 0), BuildingBlock: AJUNOK_clean_linker_0, # of connection points: 2
#     Edge 108, Type (0, 0), BuildingBlock: AJUNOK_clean_linker_0, # of connection points: 2
#     Edge 109, Type (0, 0), BuildingBlock: AJUNOK_clean_linker_0, # of connection points: 2
#     Edge 110, Type (0, 0), BuildingBlock: AJUNOK_clean_linker_0, # of connection points: 2
#     Edge 111, Type (0, 0), BuildingBlock: AJUNOK_clean_linker_0, # of connection points: 2
#     Edge 112, Type (0, 0), BuildingBlock: AJUNOK_clean_linker_0, # of connection points: 2
#     Edge 113, Type (0, 0), BuildingBlock: AJUNOK_clean_linker_0, # of connection points: 2
#     Edge 114, Type (0, 0), BuildingBlock: AJUNOK_clean_linker_0, # of connection points: 2
#     Edge 115, Type (0, 0), BuildingBlock: AJUNOK_clean_linker_0, # of connection points: 2
#     Edge 116, Type (0, 0), BuildingBlock: AJUNOK_clean_linker_0, # of connection points: 2
#     Edge 117, Type (0, 0), BuildingBlock: AJUNOK_clean_linker_0, # of connection points: 2
#     Edge 118, Type (0, 0), BuildingBlock: AJUNOK_clean_linker_0, # of connection points: 2
#     Edge 119, Type (0, 0), BuildingBlock: AJUNOK_clean_linker_0, # of connection points: 2
#     Edge 120, Type (0, 0), BuildingBlock: AJUNOK_clean_linker_0, # of connection points: 2
#     Edge 121, Type (0, 0), BuildingBlock: AJUNOK_clean_linker_0, # of connection points: 2
#     Edge 122, Type (0, 0), BuildingBlock: AJUNOK_clean_linker_0, # of connection points: 2
#     Edge 123, Type (0, 0), BuildingBlock: AJUNOK_clean_linker_0, # of connection points: 2
#     Edge 124, Type (0, 0), BuildingBlock: AJUNOK_clean_linker_0, # of connection points: 2
#     Edge 125, Type (0, 0), BuildingBlock: AJUNOK_clean_linker_0, # of connection points: 2
#     Edge 126, Type (0, 0), BuildingBlock: AJUNOK_clean_linker_0, # of connection points: 2
#     Edge 127, Type (0, 0), BuildingBlock: AJUNOK_clean_linker_0, # of connection points: 2
#     Edge 128, Type (0, 0), BuildingBlock: AJUNOK_clean_linker_0, # of connection points: 2
#     Edge 129, Type (0, 0), BuildingBlock: AJUNOK_clean_linker_0, # of connection points: 2
#     Edge 130, Type (0, 0), BuildingBlock: AJUNOK_clean_linker_0, # of connection points: 2
#     Edge 131, Type (0, 0), BuildingBlock: AJUNOK_clean_linker_0, # of connection points: 2
#     Edge 132, Type (0, 0), BuildingBlock: AJUNOK_clean_linker_0, # of connection points: 2
#     Edge 133, Type (0, 0), BuildingBlock: AJUNOK_clean_linker_0, # of connection points: 2
#     Edge 134, Type (0, 0), BuildingBlock: AJUNOK_clean_linker_0, # of connection points: 2
#     Edge 135, Type (0, 0), BuildingBlock: AJUNOK_clean_linker_0, # of connection points: 2
#     Edge 136, Type (0, 0), BuildingBlock: AJUNOK_clean_linker_0, # of connection points: 2
#     Edge 137, Type (0, 0), BuildingBlock: AJUNOK_clean_linker_0, # of connection points: 2
#     Edge 138, Type (0, 0), BuildingBlock: AJUNOK_clean_linker_0, # of connection points: 2
#     Edge 139, Type (0, 0), BuildingBlock: AJUNOK_clean_linker_0, # of connection points: 2
#     Edge 140, Type (0, 0), BuildingBlock: AJUNOK_clean_linker_0, # of connection points: 2
#     Edge 141, Type (0, 0), BuildingBlock: AJUNOK_clean_linker_0, # of connection points: 2
#     Edge 142, Type (0, 0), BuildingBlock: AJUNOK_clean_linker_0, # of connection points: 2
#     Edge 143, Type (0, 0), BuildingBlock: AJUNOK_clean_linker_0, # of connection points: 2
#     Edge 144, Type (0, 0), BuildingBlock: AJUNOK_clean_linker_0, # of connection points: 2
#     Edge 145, Type (0, 0), BuildingBlock: AJUNOK_clean_linker_0, # of connection points: 2
#     Edge 146, Type (0, 0), BuildingBlock: AJUNOK_clean_linker_0, # of connection points: 2
#     Edge 147, Type (0, 0), BuildingBlock: AJUNOK_clean_linker_0, # of connection points: 2
#     Edge 148, Type (0, 0), BuildingBlock: AJUNOK_clean_linker_0, # of connection points: 2
#     Edge 149, Type (0, 0), BuildingBlock: AJUNOK_clean_linker_0, # of connection points: 2
#     Edge 150, Type (0, 0), BuildingBlock: AJUNOK_clean_linker_0, # of connection points: 2
#     Edge 151, Type (0, 0), BuildingBlock: AJUNOK_clean_linker_0, # of connection points: 2
#     Edge 152, Type (0, 0), BuildingBlock: AJUNOK_clean_linker_0, # of connection points: 2
#     Edge 153, Type (0, 0), BuildingBlock: AJUNOK_clean_linker_0, # of connection points: 2
#     Edge 154, Type (0, 0), BuildingBlock: AJUNOK_clean_linker_0, # of connection points: 2
#     Edge 155, Type (0, 0), BuildingBlock: AJUNOK_clean_linker_0, # of connection points: 2
#     Edge 156, Type (0, 0), BuildingBlock: AJUNOK_clean_linker_0, # of connection points: 2
#     Edge 157, Type (0, 0), BuildingBlock: AJUNOK_clean_linker_0, # of connection points: 2
#     Edge 158, Type (0, 0), BuildingBlock: AJUNOK_clean_linker_0, # of connection points: 2
#     Edge 159, Type (0, 0), BuildingBlock: AJUNOK_clean_linker_0, # of connection points: 2
#     Edge 160, Type (0, 0), BuildingBlock: AJUNOK_clean_linker_0, # of connection points: 2
#     Edge 161, Type (0, 0), BuildingBlock: AJUNOK_clean_linker_0, # of connection points: 2
#     Edge 162, Type (0, 0), BuildingBlock: AJUNOK_clean_linker_0, # of connection points: 2
#     Edge 163, Type (0, 0), BuildingBlock: AJUNOK_clean_linker_0, # of connection points: 2
#     Edge 164, Type (0, 0), BuildingBlock: AJUNOK_clean_linker_0, # of connection points: 2
#     Edge 165, Type (0, 0), BuildingBlock: AJUNOK_clean_linker_0, # of connection points: 2
#     Edge 166, Type (0, 0), BuildingBlock: AJUNOK_clean_linker_0, # of connection points: 2
#     Edge 167, Type (0, 0), BuildingBlock: AJUNOK_clean_linker_0, # of connection points: 2
# Relax obj value: 0.236
# Max RMSD: 0.213
# Mean RMSD: 0.213
data_MOF--net-fcn--node1-XOMCOT_clean_sbu_0--edge1-AJUNOK_clean_linker_0
_symmetry_space_group_name_H-M    P1
_symmetry_Int_Tables_number       1
_symmetry_cell_setting            triclinic
loop_
_symmetry_equiv_pos_as_xyz
'x, y, z'
_cell_length_a     58.101378
_cell_length_b     58.097032
_cell_length_c     58.081384
_cell_angle_alpha  90.010567
_cell_angle_beta   89.973659
_cell_angle_gamma 90.013249
loop_
_atom_site_label
_atom_site_type_symbol
_atom_site_fract_x
_atom_site_fract_y
_atom_site_fract_z
_atom_type_partial_charge
Co0 Co 0.08954 0.1818 0.25973 0.0
C1 C 0.13098 0.15524 0.24657 0.0
C2 C 0.10098 0.14277 0.22919 0.0
C3 C 0.12008 0.13208 0.21996 0.0
N4 N 0.10774 0.15703 0.24627 0.0
N5 N 0.13881 0.13994 0.23109 0.0
H6 H 0.14234 0.16671 0.25567 0.0
H7 H 0.08363 0.14158 0.22256 0.0
C8 C 0.05812 0.14089 0.26331 0.0
O9 O 0.07511 0.1285 0.27165 0.0
N10 N 0.07193 0.20683 0.27245 0.0
C11 C 0.07875 0.22151 0.28903 0.0
C12 C 0.06123 0.23694 0.29311 0.0
C13 C 0.05054 0.21353 0.2665 0.0
N14 N 0.04358 0.232 0.27881 0.0
C15 C 0.11971 0.17064 0.29836 0.0
C16 C 0.08493 0.15312 0.32565 0.0
C17 C 0.10777 0.14782 0.33124 0.0
C18 C 0.12534 0.15805 0.31817 0.0
C19 C 0.08016 0.16557 0.30566 0.0
N20 N 0.09745 0.17198 0.29102 0.0
H21 H 0.13327 0.1788 0.28877 0.0
H22 H 0.0624 0.16893 0.30133 0.0
H23 H 0.09522 0.22086 0.29767 0.0
H24 H 0.0404 0.20523 0.25326 0.0
O25 O 0.11452 0.20305 0.25177 0.0
O26 O 0.08485 0.19388 0.22961 0.0
O27 O 0.06101 0.16226 0.25936 0.0
C28 C 0.10398 0.205 0.23192 0.0
H29 H 0.12036 0.12055 0.20532 0.0
H30 H 0.06132 0.25036 0.30602 0.0
H31 H 0.0708 0.14688 0.33611 0.0
H32 H 0.14328 0.15547 0.32254 0.0
Co33 Co 0.07916 0.84199 0.51539 0.0
C34 C 0.1023 0.88443 0.49929 0.0
C35 C 0.12606 0.85622 0.50033 0.0
C36 C 0.13758 0.87564 0.49301 0.0
N37 N 0.10389 0.86176 0.50439 0.0
N38 N 0.12257 0.89334 0.49232 0.0
H39 H 0.08673 0.89441 0.50113 0.0
H40 H 0.13356 0.83934 0.50246 0.0
C41 C 0.10087 0.79468 0.52378 0.0
O42 O 0.08453 0.78669 0.53717 0.0
N43 N 0.05393 0.82311 0.52615 0.0
C44 C 0.04046 0.82739 0.54456 0.0
C45 C 0.02473 0.80985 0.54672 0.0
C46 C 0.04543 0.80367 0.51664 0.0
N47 N 0.02797 0.79492 0.52925 0.0
C48 C 0.08379 0.87604 0.55158 0.0
C49 C 0.10256 0.84619 0.58353 0.0
C50 C 0.1035 0.86983 0.58799 0.0
C51 C 0.09322 0.88484 0.57203 0.0
C52 C 0.09305 0.83822 0.56302 0.0
N53 N 0.08502 0.85308 0.54668 0.0
H54 H 0.07646 0.8878 0.53923 0.0
H55 H 0.09308 0.82006 0.56016 0.0
H56 H 0.04213 0.84203 0.55593 0.0
H57 H 0.05294 0.79528 0.50178 0.0
O58 O 0.05649 0.86409 0.50345 0.0
O59 O 0.07162 0.83485 0.48427 0.0
O60 O 0.10216 0.81604 0.5185 0.0
C61 C 0.05847 0.85278 0.48405 0.0
H62 H 0.15559 0.8766 0.48832 0.0
H63 H 0.01224 0.80787 0.56041 0.0
H64 H 0.11039 0.83385 0.59509 0.0
H65 H 0.0932 0.90325 0.57494 0.0
Co66 Co 0.41726 0.82809 0.75264 0.0
C67 C 0.3747 0.85252 0.74196 0.0
C68 C 0.40355 0.86921 0.72585 0.0
C69 C 0.38372 0.88093 0.72009 0.0
N70 N 0.39777 0.85148 0.73959 0.0
N71 N 0.36566 0.87024 0.7301 0.0
H72 H 0.36474 0.84058 0.75222 0.0
H73 H 0.42083 0.87318 0.72016 0.0
C74 C 0.46378 0.85007 0.76057 0.0
O75 O 0.46753 0.83808 0.77934 0.0
N76 N 0.43634 0.80404 0.76552 0.0
C77 C 0.4317 0.78995 0.7834 0.0
C78 C 0.44919 0.77416 0.78541 0.0
C79 C 0.45629 0.79619 0.75653 0.0
N80 N 0.46456 0.77821 0.76856 0.0
C81 C 0.39323 0.82922 0.7965 0.0
C82 C 0.41037 0.87152 0.80997 0.0
C83 C 0.39482 0.86029 0.82451 0.0
C84 C 0.38615 0.8388 0.81756 0.0
C85 C 0.41693 0.86142 0.78928 0.0
N86 N 0.40916 0.8401 0.78303 0.0
H87 H 0.38545 0.81334 0.79074 0.0
H88 H 0.42729 0.87166 0.77787 0.0
H89 H 0.41658 0.79047 0.79408 0.0
H90 H 0.4645 0.80337 0.74142 0.0
O91 O 0.39281 0.80558 0.7468 0.0
O92 O 0.42118 0.81469 0.72299 0.0
O93 O 0.44473 0.84889 0.7497 0.0
C94 C 0.40276 0.80281 0.72678 0.0
H95 H 0.38256 0.89584 0.70896 0.0
H96 H 0.45058 0.76075 0.79828 0.0
H97 H 0.41661 0.88863 0.81398 0.0
H98 H 0.37373 0.82967 0.82804 0.0
Co99 Co 0.42647 0.1597 0.00891 0.0
C100 C 0.4023 0.11712 0.99563 0.0
C101 C 0.38152 0.14671 0.98818 0.0
C102 C 0.36953 0.12718 0.982 0.0
N103 N 0.40202 0.14035 0.99696 0.0
N104 N 0.38267 0.10861 0.98668 0.0
H105 H 0.4165 0.10658 1.00126 0.0
H106 H 0.37565 0.16421 0.9861 0.0
C107 C 0.4064 0.20809 0.01405 0.0
O108 O 0.42302 0.21546 0.02742 0.0
N109 N 0.45164 0.17808 0.0208 0.0
C110 C 0.46324 0.17457 0.04059 0.0
C111 C 0.47987 0.1913 0.04276 0.0
C112 C 0.46207 0.19627 0.01072 0.0
N113 N 0.47898 0.205 0.02406 0.0
C114 C 0.42059 0.12777 0.04682 0.0
C115 C 0.39669 0.15768 0.07507 0.0
C116 C 0.39749 0.13439 0.08109 0.0
C117 C 0.41015 0.1194 0.06697 0.0
C118 C 0.40698 0.16519 0.0547 0.0
N119 N 0.4178 0.15016 0.04017 0.0
H120 H 0.43024 0.11603 0.03616 0.0
H121 H 0.40551 0.18309 0.05063 0.0
H122 H 0.45967 0.16108 0.05289 0.0
H123 H 0.45655 0.20375 0.99456 0.0
O124 O 0.44892 0.1361 0.99965 0.0
O125 O 0.43693 0.16516 0.97821 0.0
O126 O 0.40431 0.18673 0.00898 0.0
C127 C 0.44953 0.14691 0.97989 0.0
H128 H 0.35259 0.1267 0.97424 0.0
H129 H 0.49095 0.1939 0.05752 0.0
H130 H 0.38713 0.16991 0.08541 0.0
H131 H 0.41153 0.1013 0.07121 0.0
Co132 Co 0.09585 0.82361 0.24194 0.0
C133 C 0.13515 0.85125 0.25933 0.0
C134 C 0.1081 0.87287 0.24671 0.0
C135 C 0.12666 0.88646 0.25253 0.0
N136 N 0.1133 0.85072 0.25122 0.0
N137 N 0.14374 0.8728 0.26036 0.0
H138 H 0.14468 0.83618 0.26443 0.0
H139 H 0.09234 0.8788 0.23881 0.0
C140 C 0.04607 0.83946 0.2357 0.0
O141 O 0.03987 0.82239 0.22229 0.0
N142 N 0.07968 0.79607 0.2323 0.0
C143 C 0.08593 0.78254 0.21453 0.0
C144 C 0.07011 0.76514 0.21225 0.0
C145 C 0.06088 0.78585 0.2415 0.0
N146 N 0.05407 0.76754 0.22886 0.0
C147 C 0.128 0.83196 0.20534 0.0
C148 C 0.09601 0.84856 0.17426 0.0
C149 C 0.11942 0.85246 0.16988 0.0
C150 C 0.13554 0.84313 0.18531 0.0
C151 C 0.08925 0.83725 0.19438 0.0
N152 N 0.10508 0.83029 0.21028 0.0
H153 H 0.14059 0.82613 0.21773 0.0
H154 H 0.07119 0.83536 0.19756 0.0
H155 H 0.10068 0.78544 0.20355 0.0
H156 H 0.0513 0.79279 0.25591 0.0
O157 O 0.12087 0.80379 0.25288 0.0
O158 O 0.09106 0.81567 0.2735 0.0
O159 O 0.06729 0.84361 0.23998 0.0
C160 C 0.11033 0.80457 0.27279 0.0
H161 H 0.12768 0.90496 0.25056 0.0
H162 H 0.06986 0.75225 0.19879 0.0
H163 H 0.08284 0.85554 0.16309 0.0
H164 H 0.15383 0.84541 0.18251 0.0
Co165 Co 0.43146 0.83877 0.49605 0.0
C166 C 0.40921 0.88138 0.51291 0.0
C167 C 0.3862 0.85264 0.51559 0.0
C168 C 0.37449 0.87236 0.52162 0.0
N169 N 0.40798 0.85829 0.50988 0.0
N170 N 0.38899 0.89039 0.51984 0.0
H171 H 0.4242 0.89167 0.50897 0.0
H172 H 0.37891 0.83559 0.51486 0.0
C173 C 0.4107 0.79037 0.49288 0.0
O174 O 0.42776 0.78209 0.48067 0.0
N175 N 0.45562 0.82032 0.48203 0.0
C176 C 0.4639 0.82254 0.46048 0.0
C177 C 0.48001 0.80571 0.45671 0.0
C178 C 0.46797 0.80301 0.49153 0.0
N179 N 0.48242 0.79311 0.4761 0.0
C180 C 0.42051 0.87103 0.45953 0.0
C181 C 0.39809 0.83942 0.43192 0.0
C182 C 0.39616 0.86282 0.4265 0.0
C183 C 0.40824 0.87871 0.44016 0.0
C184 C 0.41021 0.83258 0.45145 0.0
N185 N 0.42033 0.84834 0.46569 0.0
H186 H 0.42937 0.88347 0.47009 0.0
H187 H 0.4111 0.8145 0.4551 0.0
H188 H 0.45845 0.83521 0.44802 0.0
H189 H 0.46566 0.79739 0.5091 0.0
O190 O 0.45469 0.86216 0.50356 0.0
O191 O 0.44413 0.83317 0.52583 0.0
O192 O 0.40909 0.81191 0.49733 0.0
C193 C 0.45652 0.85149 0.52334 0.0
H194 H 0.35655 0.87341 0.52655 0.0
H195 H 0.4885 0.80245 0.44045 0.0
H196 H 0.3897 0.82646 0.42146 0.0
H197 H 0.40734 0.89698 0.43661 0.0
Co198 Co 0.40641 0.18085 0.74479 0.0
C199 C 0.36357 0.15809 0.7602 0.0
C200 C 0.39162 0.13412 0.75965 0.0
C201 C 0.37165 0.1224 0.76489 0.0
N202 N 0.38656 0.15656 0.75662 0.0
N203 N 0.35402 0.13751 0.76495 0.0
H204 H 0.35366 0.17373 0.75833 0.0
H205 H 0.40841 0.12648 0.75761 0.0
C206 C 0.45485 0.16087 0.74029 0.0
O207 O 0.46225 0.17749 0.72693 0.0
N208 N 0.42503 0.20586 0.73287 0.0
C209 C 0.42143 0.21765 0.71321 0.0
C210 C 0.43785 0.23464 0.71136 0.0
C211 C 0.44296 0.21651 0.7432 0.0
N212 N 0.45143 0.23376 0.73014 0.0
C213 C 0.37458 0.17248 0.70743 0.0
C214 C 0.40555 0.14859 0.68036 0.0
C215 C 0.38215 0.14742 0.67465 0.0
C216 C 0.36664 0.16035 0.68805 0.0
C217 C 0.41271 0.16115 0.69948 0.0
N218 N 0.39723 0.17171 0.71366 0.0
H219 H 0.36231 0.18145 0.71813 0.0
H220 H 0.43072 0.16124 0.70325 0.0
H221 H 0.40798 0.21404 0.70087 0.0
H222 H 0.4504 0.211 0.75938 0.0
O223 O 0.38298 0.20368 0.75335 0.0
O224 O 0.41164 0.19156 0.77533 0.0
O225 O 0.43347 0.1587 0.74531 0.0
C226 C 0.39367 0.20447 0.77318 0.0
H227 H 0.37024 0.10414 0.76832 0.0
H228 H 0.4403 0.24606 0.69683 0.0
H229 H 0.41832 0.1387 0.67108 0.0
H230 H 0.34841 0.16036 0.68416 0.0
Co231 Co 0.06895 0.16329 0.00285 0.0
C232 C 0.09367 0.12139 0.01495 0.0
C233 C 0.10971 0.15064 0.031 0.0
C234 C 0.12217 0.13112 0.0364 0.0
N235 N 0.09193 0.1444 0.01749 0.0
N236 N 0.11192 0.11289 0.02629 0.0
H237 H 0.08215 0.11109 0.00455 0.0
H238 H 0.11351 0.16804 0.03639 0.0
C239 C 0.09148 0.20996 0.99647 0.0
O240 O 0.08378 0.21216 0.97534 0.0
N241 N 0.04531 0.18158 0.98809 0.0
C242 C 0.03091 0.17512 0.97103 0.0
C243 C 0.01525 0.19244 0.96722 0.0
C244 C 0.03769 0.20246 0.99486 0.0
N245 N 0.01961 0.20955 0.98221 0.0
C246 C 0.07416 0.14048 0.95862 0.0
C247 C 0.11742 0.15804 0.94937 0.0
C248 C 0.1075 0.14299 0.93342 0.0
C249 C 0.08557 0.13403 0.93828 0.0
C250 C 0.10556 0.16388 0.96938 0.0
N251 N 0.08374 0.15602 0.97345 0.0
H252 H 0.05805 0.13227 0.96283 0.0
H253 H 0.11467 0.17386 0.98205 0.0
H254 H 0.03102 0.15878 0.96232 0.0
H255 H 0.04483 0.21207 0.0091 0.0
O256 O 0.04713 0.13782 0.00659 0.0
O257 O 0.05293 0.16631 0.03131 0.0
O258 O 0.0882 0.19159 0.00803 0.0
C259 C 0.04241 0.14733 0.02645 0.0
H260 H 0.13748 0.13032 0.04699 0.0
H261 H 0.00175 0.19251 0.95439 0.0
H262 H 0.13475 0.16448 0.94692 0.0
H263 H 0.07748 0.12186 0.92671 0.0
Co264 Co 0.25642 0.09483 0.18234 0.0
C265 C 0.24791 0.13391 0.15083 0.0
C266 C 0.22835 0.10426 0.14099 0.0
C267 C 0.22164 0.1226 0.12754 0.0
N268 N 0.24524 0.1112 0.15533 0.0
N269 N 0.23376 0.14131 0.13402 0.0
H270 H 0.25859 0.14528 0.16073 0.0
H271 H 0.22021 0.08753 0.14141 0.0
C272 C 0.25828 0.05895 0.14464 0.0
O273 O 0.26761 0.07396 0.13051 0.0
N274 N 0.26718 0.0791 0.20948 0.0
C275 C 0.28232 0.08696 0.22519 0.0
C276 C 0.28642 0.06971 0.24102 0.0
C277 C 0.26207 0.05748 0.21599 0.0
N278 N 0.27384 0.05117 0.23497 0.0
C279 C 0.2972 0.12206 0.17285 0.0
C280 C 0.323 0.08625 0.15521 0.0
C281 C 0.33047 0.10887 0.15123 0.0
C282 C 0.31781 0.12687 0.16127 0.0
C283 C 0.30222 0.08232 0.16674 0.0
N284 N 0.28847 0.10027 0.17326 0.0
H285 H 0.28794 0.13599 0.18086 0.0
H286 H 0.29683 0.06477 0.16956 0.0
H287 H 0.29023 0.10381 0.22481 0.0
H288 H 0.24999 0.04658 0.2071 0.0
O289 O 0.24928 0.12221 0.20076 0.0
O290 O 0.22547 0.09328 0.19355 0.0
O291 O 0.25479 0.06439 0.16564 0.0
C292 C 0.22877 0.11319 0.20291 0.0
H293 H 0.2076 0.12262 0.1153 0.0
H294 H 0.29831 0.07041 0.25535 0.0
H295 H 0.33277 0.07172 0.1488 0.0
H296 H 0.32307 0.14463 0.15927 0.0
Co297 Co 0.16232 0.00913 0.43301 0.0
C298 C 0.12298 0.99038 0.40679 0.0
C299 C 0.15498 0.9827 0.39001 0.0
C300 C 0.13735 0.97279 0.37768 0.0
N301 N 0.14595 0.99382 0.40827 0.0
N302 N 0.11725 0.97764 0.38826 0.0
H303 H 0.11079 0.99607 0.4196 0.0
H304 H 0.17311 0.98116 0.38617 0.0
C305 C 0.21181 0.01502 0.41547 0.0
O306 O 0.2182 0.02941 0.43164 0.0
N307 N 0.17799 0.02426 0.45821 0.0
C308 C 0.17295 0.04491 0.46751 0.0
C309 C 0.18884 0.04972 0.48441 0.0
C310 C 0.19606 0.01624 0.47042 0.0
N311 N 0.20359 0.03185 0.48588 0.0
C312 C 0.12896 0.04418 0.42206 0.0
C313 C 0.15867 0.07269 0.3982 0.0
C314 C 0.13507 0.07744 0.39751 0.0
C315 C 0.12019 0.06335 0.41033 0.0
C316 C 0.16667 0.05338 0.41004 0.0
N317 N 0.1518 0.03874 0.42092 0.0
H318 H 0.11724 0.03334 0.43155 0.0
H319 H 0.18485 0.05022 0.4099 0.0
H320 H 0.15902 0.056 0.46215 0.0
H321 H 0.20474 1.00017 0.46669 0.0
O322 O 0.13741 1.00093 0.45413 0.0
O323 O 0.16836 0.97985 0.44686 0.0
O324 O 0.19079 0.00901 0.41294 0.0
C325 C 0.14888 0.98188 0.45749 0.0
H326 H 0.13924 0.96238 0.36233 0.0
H327 H 0.18984 0.06541 0.4944 0.0
H328 H 0.17085 0.08325 0.38881 0.0
H329 H 0.10189 0.06682 0.41089 0.0
Co330 Co 0.24504 0.91263 0.6855 0.0
C331 C 0.25768 0.87133 0.65813 0.0
C332 C 0.26984 0.90207 0.64188 0.0
C333 C 0.27686 0.88342 0.62901 0.0
N334 N 0.25689 0.8946 0.65969 0.0
N335 N 0.26909 0.86414 0.63928 0.0
H336 H 0.25121 0.85966 0.67105 0.0
H337 H 0.27492 0.91972 0.63896 0.0
C338 C 0.23672 0.94461 0.64542 0.0
O339 O 0.22685 0.92777 0.63395 0.0
N340 N 0.23393 0.9298 0.71156 0.0
C341 C 0.22157 0.92138 0.72929 0.0
C342 C 0.21735 0.939 0.7446 0.0
C343 C 0.23716 0.95226 0.71622 0.0
N344 N 0.22701 0.95834 0.7362 0.0
C345 C 0.20625 0.88207 0.67577 0.0
C346 C 0.1768 0.91732 0.66333 0.0
C347 C 0.1709 0.89471 0.65752 0.0
C348 C 0.18529 0.87681 0.66503 0.0
C349 C 0.19777 0.92171 0.6742 0.0
N350 N 0.21321 0.90438 0.67812 0.0
H351 H 0.21701 0.86821 0.68158 0.0
H352 H 0.20224 0.93936 0.67799 0.0
H353 H 0.21602 0.90368 0.7309 0.0
H354 H 0.24707 0.96381 0.70551 0.0
O355 O 0.25489 0.88784 0.70615 0.0
O356 O 0.2758 0.91786 0.6953 0.0
O357 O 0.24346 0.94134 0.66605 0.0
C358 C 0.27452 0.8989 0.70687 0.0
H359 H 0.28779 0.88391 0.61392 0.0
H360 H 0.20766 0.93782 0.76048 0.0
H361 H 0.16575 0.93158 0.65861 0.0
H362 H 0.18103 0.85901 0.66153 0.0
Co363 Co 0.34058 0.99619 0.92762 0.0
C364 C 0.38351 0.00943 0.9045 0.0
C365 C 0.3545 0.02657 0.88918 0.0
C366 C 0.37415 0.03277 0.87736 0.0
N367 N 0.36043 0.0118 0.90603 0.0
N368 N 0.39225 0.02195 0.88706 0.0
H369 H 0.39364 0.99846 0.91563 0.0
H370 H 0.3372 0.03244 0.88569 0.0
C371 C 0.29551 0.98873 0.90172 0.0
O372 O 0.29105 0.96903 0.91186 0.0
N373 N 0.32107 0.98057 0.94982 0.0
C374 C 0.32624 0.96201 0.96279 0.0
C375 C 0.30779 0.9569 0.97667 0.0
C376 C 0.29983 0.98706 0.9568 0.0
N377 N 0.29113 0.97249 0.97268 0.0
C378 C 0.36558 0.95281 0.92396 0.0
C379 C 0.3498 0.9424 0.88031 0.0
C380 C 0.36389 0.92646 0.89149 0.0
C381 C 0.37241 0.93211 0.9134 0.0
C382 C 0.34354 0.96267 0.89133 0.0
N383 N 0.35019 0.96717 0.91346 0.0
H384 H 0.37298 0.95747 0.94037 0.0
H385 H 0.33413 0.9751 0.88136 0.0
H386 H 0.34236 0.95293 0.96289 0.0
H387 H 0.29071 0.00181 0.95 0.0
O388 O 0.36405 1.00112 0.95131 0.0
O389 O 0.33499 0.02446 0.9432 0.0
O390 O 0.31402 0.99983 0.90581 0.0
C391 C 0.35336 0.02058 0.95513 0.0
H392 H 0.37514 0.04447 0.86289 0.0
H393 H 0.30687 0.94303 0.98908 0.0
H394 H 0.34426 0.93965 0.86271 0.0
H395 H 0.38434 0.92079 0.92217 0.0
Co396 Co 0.25768 0.91479 0.32631 0.0
C397 C 0.24366 0.87243 0.35096 0.0
C398 C 0.23147 0.90235 0.3687 0.0
C399 C 0.22433 0.88307 0.38057 0.0
N400 N 0.24447 0.89572 0.35059 0.0
N401 N 0.23199 0.86435 0.36926 0.0
H402 H 0.25064 0.8614 0.33777 0.0
H403 H 0.22667 0.91987 0.37266 0.0
C404 C 0.26393 0.94607 0.3679 0.0
O405 O 0.27304 0.92945 0.38024 0.0
N406 N 0.27036 0.93314 0.30182 0.0
C407 C 0.28606 0.92624 0.28624 0.0
C408 C 0.29024 0.94414 0.2713 0.0
C409 C 0.26507 0.95502 0.29621 0.0
N410 N 0.2769 0.96214 0.27749 0.0
C411 C 0.29511 0.88266 0.33453 0.0
C412 C 0.32448 0.9148 0.35373 0.0
C413 C 0.3293 0.89137 0.35687 0.0
C414 C 0.31497 0.87525 0.34596 0.0
C415 C 0.30445 0.92138 0.34211 0.0
N416 N 0.28888 0.90529 0.33484 0.0
H417 H 0.28449 0.87014 0.32599 0.0
H418 H 0.30083 0.93951 0.34022 0.0
H419 H 0.29392 0.90937 0.28583 0.0
H420 H 0.25254 0.96535 0.30536 0.0
O421 O 0.24851 0.89129 0.30386 0.0
O422 O 0.2274 0.92083 0.31529 0.0
O423 O 0.25859 0.94261 0.34689 0.0
C424 C 0.22895 0.90245 0.30283 0.0
H425 H 0.21365 0.88276 0.39585 0.0
H426 H 0.30242 0.94402 0.2572 0.0
H427 H 0.33524 0.92796 0.36138 0.0
H428 H 0.31868 0.857 0.34694 0.0
Co429 Co 0.34069 1.0014 0.57355 0.0
C430 C 0.38204 0.98915 0.59951 0.0
C431 C 0.35447 0.96552 0.60666 0.0
C432 C 0.37432 0.95743 0.61686 0.0
N433 N 0.35943 0.98536 0.59579 0.0
N434 N 0.39158 0.97232 0.61231 0.0
H435 H 0.39164 0.00298 0.59153 0.0
H436 H 0.338 0.95686 0.606 0.0
C437 C 0.29676 0.00839 0.60123 0.0
O438 O 0.29678 0.03084 0.59858 0.0
N439 N 0.32229 0.01703 0.55029 0.0
C440 C 0.33044 0.02827 0.53163 0.0
C441 C 0.31235 0.03455 0.51777 0.0
C442 C 0.29933 0.01558 0.54671 0.0
N443 N 0.29281 0.02669 0.52739 0.0
C444 C 0.35554 0.04938 0.5779 0.0
C445 C 0.3506 0.05109 0.62519 0.0
C446 C 0.35749 0.07118 0.61367 0.0
C447 C 0.35977 0.07009 0.58958 0.0
C448 C 0.34579 0.03107 0.6128 0.0
N449 N 0.34785 0.03035 0.58936 0.0
H450 H 0.35868 0.04881 0.5597 0.0
H451 H 0.3404 0.01595 0.62222 0.0
H452 H 0.34841 0.03075 0.52755 0.0
H453 H 0.28758 0.00589 0.55732 0.0
O454 O 0.36632 0.99813 0.55189 0.0
O455 O 0.3374 0.97364 0.55647 0.0
O456 O 0.31281 0.99589 0.59307 0.0
C457 C 0.3567 0.97848 0.5465 0.0
H458 H 0.37615 0.94136 0.62611 0.0
H459 H 0.3136 0.04317 0.50129 0.0
H460 H 0.34912 0.05066 0.64377 0.0
H461 H 0.36463 0.08506 0.57965 0.0
Co462 Co 0.24367 0.09531 0.8253 0.0
C463 C 0.25746 0.13788 0.84821 0.0
C464 C 0.27375 0.10877 0.86425 0.0
C465 C 0.28014 0.12849 0.87587 0.0
N466 N 0.25944 0.11477 0.84702 0.0
N467 N 0.26989 0.14661 0.86562 0.0
H468 H 0.24678 0.14808 0.83685 0.0
H469 H 0.27906 0.09138 0.86822 0.0
C470 C 0.23787 0.04944 0.84963 0.0
O471 O 0.21633 0.04722 0.84313 0.0
N472 N 0.22793 0.07613 0.80304 0.0
C473 C 0.20923 0.08103 0.79018 0.0
C474 C 0.20517 0.06299 0.77537 0.0
C475 C 0.23531 0.05548 0.79541 0.0
N476 N 0.22164 0.04702 0.77868 0.0
C477 C 0.19954 0.11829 0.8316 0.0
C478 C 0.19213 0.10164 0.87557 0.0
C479 C 0.17523 0.11552 0.86557 0.0
C480 C 0.17934 0.12442 0.84347 0.0
C481 C 0.21195 0.09616 0.86329 0.0
N482 N 0.21498 0.10328 0.84106 0.0
H483 H 0.20303 0.12605 0.81507 0.0
H484 H 0.22523 0.08687 0.87228 0.0
H485 H 0.19935 0.09667 0.79086 0.0
H486 H 0.25062 0.04695 0.80172 0.0
O487 O 0.24677 0.11995 0.80241 0.0
O488 O 0.27145 0.09146 0.8083 0.0
O489 O 0.24928 0.0677 0.84526 0.0
C490 C 0.26635 0.11008 0.79728 0.0
H491 H 0.29154 0.1295 0.89058 0.0
H492 H 0.19107 0.06166 0.76328 0.0
H493 H 0.19046 0.09569 0.89317 0.0
H494 H 0.1672 0.13612 0.83554 0.0
Co495 Co 0.15997 0.99543 0.06884 0.0
C496 C 0.12035 0.00831 0.09839 0.0
C497 C 0.15108 0.02555 0.10915 0.0
C498 C 0.13297 0.03342 0.12232 0.0
N499 N 0.14335 0.00914 0.09462 0.0
N500 N 0.11366 0.02264 0.11536 0.0
H501 H 0.10839 0.99848 0.08824 0.0
H502 H 0.16842 0.03229 0.10941 0.0
C503 C 0.19436 0.99324 0.10759 0.0
O504 O 0.17856 0.98484 0.12145 0.0
N505 N 0.17584 0.98241 0.04285 0.0
C506 C 0.16703 0.96744 0.02752 0.0
C507 C 0.18372 0.96242 0.01144 0.0
C508 C 0.19758 0.98655 0.03589 0.0
N509 N 0.20291 0.97435 0.01684 0.0
C510 C 0.1303 0.95657 0.0804 0.0
C511 C 0.16535 0.92938 0.09756 0.0
C512 C 0.14255 0.92287 0.10187 0.0
C513 C 0.12487 0.93615 0.09212 0.0
C514 C 0.16992 0.94979 0.08572 0.0
N515 N 0.15249 0.96423 0.07931 0.0
H516 H 0.11665 0.9663 0.07253 0.0
H517 H 0.18764 0.95434 0.08251 0.0
H518 H 0.14968 0.96071 0.028 0.0
H519 H 0.20934 0.99799 0.04472 0.0
O520 O 0.13377 0.00335 0.04909 0.0
O521 O 0.16415 0.02529 0.05627 0.0
O522 O 0.18981 0.99611 0.08633 0.0
C523 C 0.14453 0.02294 0.04609 0.0
H524 H 0.1337 0.04688 0.1352 0.0
H525 H 0.18178 0.9511 0.99677 0.0
H526 H 0.17956 0.91907 0.10384 0.0
H527 H 0.10699 0.93137 0.09434 0.0
Co528 Co 0.17859 0.25892 0.09251 0.0
C529 C 0.15432 0.24269 0.13447 0.0
C530 C 0.13611 0.23242 0.10414 0.0
C531 C 0.12442 0.22432 0.12314 0.0
N532 N 0.15437 0.24493 0.11123 0.0
N533 N 0.13597 0.23079 0.14217 0.0
H534 H 0.16773 0.24897 0.14566 0.0
H535 H 0.13186 0.22862 0.08645 0.0
C536 C 0.13719 0.26672 0.06197 0.0
O537 O 0.1258 0.27581 0.0793 0.0
N538 N 0.20316 0.27203 0.07457 0.0
C539 C 0.21834 0.28808 0.08159 0.0
C540 C 0.23309 0.29285 0.06364 0.0
C541 C 0.20901 0.26689 0.05273 0.0
N542 N 0.22724 0.27942 0.04562 0.0
C543 C 0.16618 0.29564 0.12476 0.0
C544 C 0.15315 0.32637 0.09092 0.0
C545 C 0.14628 0.33072 0.11365 0.0
C546 C 0.15394 0.31551 0.13085 0.0
C547 C 0.16497 0.3061 0.08561 0.0
N548 N 0.16953 0.29002 0.1022 0.0
H549 H 0.17227 0.28459 0.13823 0.0
H550 H 0.16908 0.30264 0.0678 0.0
H551 H 0.21855 0.29584 0.09851 0.0
H552 H 0.19994 0.2545 0.04221 0.0
O553 O 0.20099 0.24953 0.11595 0.0
O554 O 0.18991 0.22894 0.08587 0.0
O555 O 0.158 0.26034 0.06466 0.0
C556 C 0.20228 0.23025 0.10432 0.0
H557 H 0.10895 0.21392 0.12299 0.0
H558 H 0.24712 0.30511 0.06383 0.0
H559 H 0.14849 0.33802 0.07712 0.0
H560 H 0.14953 0.31816 0.14876 0.0
Co561 Co 0.67723 0.25065 0.91459 0.0
C562 C 0.65035 0.2651 0.87466 0.0
C563 C 0.63768 0.28144 0.90536 0.0
C564 C 0.62518 0.2893 0.88674 0.0
N565 N 0.65336 0.26623 0.89767 0.0
N566 N 0.63335 0.27911 0.86748 0.0
H567 H 0.66049 0.25424 0.86343 0.0
H568 H 0.63578 0.28682 0.92309 0.0
C569 C 0.65708 0.24071 0.96194 0.0
O570 O 0.66745 0.22075 0.96406 0.0
N571 N 0.70179 0.23506 0.93086 0.0
C572 C 0.71494 0.21767 0.92295 0.0
C573 C 0.73086 0.212 0.93949 0.0
C574 C 0.71057 0.24035 0.95174 0.0
N575 N 0.7278 0.22597 0.95779 0.0
C576 C 0.6723 0.21031 0.88548 0.0
C577 C 0.63263 0.19396 0.90612 0.0
C578 C 0.64141 0.18217 0.88713 0.0
C579 C 0.66141 0.19061 0.87655 0.0
C580 C 0.64361 0.21375 0.91408 0.0
N581 N 0.6637 0.22141 0.9044 0.0
H582 H 0.68725 0.21708 0.87674 0.0
H583 H 0.63494 0.22331 0.9273 0.0
H584 H 0.71354 0.20982 0.9062 0.0
H585 H 0.70405 0.25403 0.96254 0.0
O586 O 0.69862 0.2583 0.88952 0.0
O587 O 0.6919 0.27935 0.92048 0.0
O588 O 0.65804 0.25233 0.94334 0.0
C589 C 0.70234 0.27737 0.90094 0.0
H590 H 0.61155 0.30198 0.88724 0.0
H591 H 0.74392 0.19882 0.93795 0.0
H592 H 0.61668 0.1885 0.91413 0.0
H593 H 0.6683 0.18229 0.86136 0.0
Co594 Co 0.00419 0.43269 0.16039 0.0
C595 C 0.98978 0.40824 0.1187 0.0
C596 C 0.9727 0.3945 0.14854 0.0
C597 C 0.96533 0.38261 0.12936 0.0
N598 N 0.98809 0.41045 0.14177 0.0
N599 N 0.97599 0.39142 0.11067 0.0
H600 H 1.00102 0.4186 0.10805 0.0
H601 H 0.96706 0.39179 0.16608 0.0
C602 C 0.01048 0.4101 0.20707 0.0
O603 O 0.03144 0.41809 0.20975 0.0
N604 N 0.02024 0.4555 0.1787 0.0
C605 C 0.03934 0.46765 0.17343 0.0
C606 C 0.04419 0.48244 0.19134 0.0
C607 C 0.01338 0.46364 0.19934 0.0
N608 N 0.028 0.47961 0.20767 0.0
C609 C 0.04669 0.42669 0.13488 0.0
C610 C 0.0581 0.38462 0.15401 0.0
C611 C 0.07285 0.39429 0.1377 0.0
C612 C 0.06685 0.41541 0.12772 0.0
C613 C 0.03803 0.39617 0.1603 0.0
N614 N 0.03298 0.41749 0.15167 0.0
H615 H 0.04188 0.44266 0.12666 0.0
H616 H 0.02627 0.38726 0.17148 0.0
H617 H 0.04909 0.46627 0.15772 0.0
H618 H 0.99796 0.45799 0.20809 0.0
O619 O 0.99996 0.45527 0.13562 0.0
O620 O 0.97635 0.44925 0.16497 0.0
O621 O 0.99939 0.41294 0.18837 0.0
C622 C 0.9807 0.46029 0.14617 0.0
H623 H 0.95281 0.36881 0.12908 0.0
H624 H 0.05871 0.49406 0.19248 0.0
H625 H 0.06169 0.36782 0.16128 0.0
H626 H 0.07751 0.42298 0.11443 0.0
Co627 Co 0.82302 0.75436 0.41215 0.0
C628 C 0.85101 0.74098 0.37179 0.0
C629 C 0.86382 0.7251 0.40247 0.0
C630 C 0.87672 0.71751 0.38404 0.0
N631 N 0.84819 0.74052 0.39491 0.0
N632 N 0.86844 0.72746 0.36481 0.0
H633 H 0.83996 0.75004 0.36001 0.0
H634 H 0.86518 0.71891 0.41997 0.0
C635 C 0.86243 0.75708 0.44655 0.0
O636 O 0.87674 0.76518 0.431 0.0
N637 N 0.79777 0.76769 0.42893 0.0
C638 C 0.78187 0.78253 0.42094 0.0
C639 C 0.76758 0.78862 0.43892 0.0
C640 C 0.79302 0.76485 0.45144 0.0
N641 N 0.77483 0.77766 0.45807 0.0
C642 C 0.83372 0.79248 0.38143 0.0
C643 C 0.85313 0.82 0.41498 0.0
C644 C 0.85683 0.82572 0.39182 0.0
C645 C 0.84592 0.81229 0.37494 0.0
C646 C 0.84091 0.80005 0.4206 0.0
N647 N 0.83339 0.78538 0.40383 0.0
H648 H 0.82505 0.78261 0.36836 0.0
H649 H 0.83835 0.79601 0.43856 0.0
H650 H 0.78097 0.7887 0.4034 0.0
H651 H 0.80253 0.75348 0.4627 0.0
O652 O 0.80238 0.74619 0.38664 0.0
O653 O 0.81043 0.72449 0.41691 0.0
O654 O 0.84134 0.75391 0.44151 0.0
C655 C 0.79973 0.72662 0.39752 0.0
H656 H 0.8904 0.70487 0.38454 0.0
H657 H 0.75328 0.80053 0.43812 0.0
H658 H 0.86028 0.83047 0.42865 0.0
H659 H 0.84766 0.81635 0.35683 0.0
Co660 Co 0.99555 0.07008 0.16517 0.0
C661 C 0.00926 0.09494 0.12288 0.0
C662 C 0.01002 0.11749 0.1521 0.0
C663 C 0.01471 0.13013 0.13257 0.0
N664 N 0.00641 0.09537 0.14602 0.0
N665 N 0.01393 0.11592 0.11423 0.0
H666 H 0.00705 0.0798 0.1123 0.0
H667 H 0.00897 0.12426 0.16936 0.0
C668 C 0.99011 0.08947 0.21391 0.0
O669 O 0.97812 0.07194 0.22155 0.0
N670 N 0.98471 0.04419 0.18324 0.0
C671 C 0.96562 0.03161 0.17925 0.0
C672 C 0.96434 0.01431 0.1954 0.0
C673 C 0.99528 0.03375 0.20115 0.0
N674 N 0.9829 0.0158 0.20923 0.0
C675 C 0.95816 0.07772 0.13346 0.0
C676 C 0.92979 0.09979 0.16467 0.0
C677 C 0.92492 0.1019 0.14115 0.0
C678 C 0.93885 0.08981 0.12551 0.0
C679 C 0.94924 0.08762 0.17182 0.0
N680 N 0.96407 0.07812 0.15621 0.0
H681 H 0.96917 0.06924 0.12113 0.0
H682 H 0.95273 0.08695 0.18991 0.0
H683 H 0.95328 0.03488 0.16572 0.0
H684 H 0.01114 0.03984 0.20883 0.0
O685 O 0.00483 0.04841 0.14104 0.0
O686 O 0.02663 0.0604 0.16986 0.0
O687 O 0.99504 0.0917 0.19255 0.0
C688 C 0.02491 0.04833 0.15122 0.0
H689 H 0.0184 0.14838 0.13194 0.0
H690 H 0.9503 0.00223 0.19749 0.0
H691 H 0.91958 0.10871 0.17745 0.0
H692 H 0.93543 0.09052 0.10719 0.0
Co693 Co 0.32014 0.74623 0.59432 0.0
C694 C 0.34853 0.76041 0.63431 0.0
C695 C 0.36277 0.77322 0.60282 0.0
C696 C 0.37632 0.78063 0.62081 0.0
N697 N 0.34587 0.75961 0.61117 0.0
N698 N 0.36732 0.77241 0.64053 0.0
H699 H 0.33652 0.7534 0.64661 0.0
H700 H 0.36467 0.77835 0.58505 0.0
C701 C 0.35942 0.73991 0.56072 0.0
O702 O 0.37218 0.73038 0.57679 0.0
N703 N 0.29421 0.73361 0.57797 0.0
C704 C 0.27848 0.71881 0.58637 0.0
C705 C 0.26275 0.71404 0.56928 0.0
C706 C 0.28779 0.73791 0.55609 0.0
N707 N 0.26872 0.72597 0.55025 0.0
C708 C 0.33241 0.70858 0.62546 0.0
C709 C 0.34665 0.67918 0.59091 0.0
C710 C 0.35325 0.67433 0.61361 0.0
C711 C 0.3447 0.68857 0.63117 0.0
C712 C 0.33443 0.69933 0.58604 0.0
N713 N 0.32956 0.71492 0.603 0.0
H714 H 0.32574 0.71914 0.63911 0.0
H715 H 0.33015 0.70308 0.56833 0.0
H716 H 0.27849 0.712 0.6037 0.0
H717 H 0.297 0.7493 0.54458 0.0
O718 O 0.29981 0.75545 0.6197 0.0
O719 O 0.30857 0.77644 0.5891 0.0
O720 O 0.3386 0.74529 0.565 0.0
C721 C 0.29766 0.77485 0.60843 0.0
H722 H 0.39106 0.79198 0.61962 0.0
H723 H 0.2479 0.70289 0.57084 0.0
H724 H 0.35171 0.66796 0.57689 0.0
H725 H 0.3484 0.68491 0.64908 0.0
Co726 Co 0.0079 0.57307 0.34126 0.0
C727 C 0.99535 0.60007 0.38153 0.0
C728 C 0.97389 0.60887 0.35267 0.0
C729 C 0.96532 0.61947 0.37212 0.0
N730 N 0.99262 0.59667 0.35873 0.0
N731 N 0.97877 0.61369 0.39018 0.0
H732 H 0.00799 0.59114 0.3919 0.0
H733 H 0.96613 0.60874 0.33575 0.0
C734 C 0.01707 0.59706 0.29549 0.0
O735 O 0.03903 0.59171 0.29517 0.0
N736 N 0.02293 0.54866 0.3241 0.0
C737 C 0.03543 0.53104 0.33267 0.0
C738 C 0.0396 0.51536 0.31539 0.0
C739 C 0.01901 0.54292 0.30192 0.0
N740 N 0.02921 0.52294 0.29613 0.0
C741 C 0.05353 0.57705 0.36199 0.0
C742 C 0.05989 0.62236 0.34877 0.0
C743 C 0.07733 0.61147 0.36125 0.0
C744 C 0.07394 0.58852 0.36808 0.0
C745 C 0.03988 0.61043 0.34327 0.0
N746 N 0.03713 0.58777 0.349 0.0
H747 H 0.05064 0.55995 0.36847 0.0
H748 H 0.02621 0.61982 0.33493 0.0
H749 H 0.03997 0.52871 0.35052 0.0
H750 H 0.00777 0.55229 0.29051 0.0
O751 O 0.00265 0.55231 0.36738 0.0
O752 O 0.97935 0.55731 0.33765 0.0
O753 O 0.00423 0.59183 0.31252 0.0
C754 C 0.98298 0.54771 0.35739 0.0
H755 H 0.94973 0.62962 0.37316 0.0
H756 H 0.04903 0.49937 0.317 0.0
H757 H 0.06131 0.64034 0.34403 0.0
H758 H 0.08675 0.57965 0.37829 0.0
Co759 Co 0.49372 0.43176 0.83895 0.0
C760 C 0.51332 0.4062 0.87876 0.0
C761 C 0.50848 0.384 0.84965 0.0
C762 C 0.51625 0.37104 0.8679 0.0
N763 N 0.50665 0.40615 0.85638 0.0
N764 N 0.51911 0.38497 0.88625 0.0
H765 H 0.51385 0.42141 0.88944 0.0
H766 H 0.504 0.37735 0.83289 0.0
C767 C 0.48444 0.41313 0.79035 0.0
O768 O 0.47022 0.42954 0.7842 0.0
N769 N 0.48085 0.45772 0.8224 0.0
C770 C 0.46172 0.46954 0.82806 0.0
C771 C 0.4574 0.48553 0.81115 0.0
C772 C 0.48867 0.46763 0.80284 0.0
N773 N 0.47404 0.48391 0.79502 0.0
C774 C 0.45973 0.42306 0.87387 0.0
C775 C 0.42771 0.403 0.84495 0.0
C776 C 0.42478 0.40072 0.86876 0.0
C777 C 0.44054 0.41189 0.88332 0.0
C778 C 0.44703 0.41433 0.83628 0.0
N779 N 0.46343 0.42308 0.85065 0.0
H780 H 0.47226 0.43068 0.8853 0.0
H781 H 0.44899 0.41516 0.81797 0.0
H782 H 0.45121 0.46637 0.84309 0.0
H783 H 0.50357 0.46155 0.79343 0.0
O784 O 0.50459 0.45313 0.8626 0.0
O785 O 0.524 0.44221 0.83164 0.0
O786 O 0.49118 0.41077 0.8112 0.0
C787 C 0.52357 0.45405 0.85051 0.0
H788 H 0.51909 0.35262 0.86781 0.0
H789 H 0.4427 0.49695 0.81039 0.0
H790 H 0.41587 0.39496 0.833 0.0
H791 H 0.43853 0.4113 0.90184 0.0
Co792 Co 0.59446 0.67599 0.75607 0.0
C793 C 0.63735 0.65132 0.74391 0.0
C794 C 0.60791 0.63004 0.73758 0.0
C795 C 0.62745 0.61812 0.73134 0.0
N796 N 0.61413 0.65087 0.74569 0.0
N797 N 0.64598 0.63157 0.73531 0.0
H798 H 0.64779 0.66582 0.74892 0.0
H799 H 0.59047 0.62391 0.7358 0.0
C800 C 0.54557 0.65619 0.75836 0.0
O801 O 0.53755 0.67278 0.77131 0.0
N802 N 0.57582 0.70177 0.76613 0.0
C803 C 0.58009 0.7152 0.78457 0.0
C804 C 0.5639 0.73249 0.78538 0.0
C805 C 0.55772 0.71168 0.75539 0.0
N806 N 0.54975 0.73005 0.7672 0.0
C807 C 0.62329 0.66544 0.79527 0.0
C808 C 0.58829 0.6486 0.82265 0.0
C809 C 0.61102 0.64303 0.82832 0.0
C810 C 0.62874 0.65283 0.8151 0.0
C811 C 0.58369 0.66069 0.80243 0.0
N812 N 0.60101 0.6674 0.78803 0.0
H813 H 0.63708 0.67253 0.78512 0.0
H814 H 0.56611 0.66391 0.79824 0.0
H815 H 0.59395 0.71257 0.79671 0.0
H816 H 0.54999 0.70508 0.73976 0.0
O817 O 0.61928 0.69773 0.74932 0.0
O818 O 0.59221 0.6863 0.72492 0.0
O819 O 0.5671 0.65431 0.75413 0.0
C820 C 0.61074 0.69813 0.7285 0.0
H821 H 0.62792 0.60103 0.7239 0.0
H822 H 0.56209 0.74534 0.79877 0.0
H823 H 0.57405 0.64277 0.83318 0.0
H824 H 0.64664 0.64972 0.81923 0.0
Co825 Co 0.57203 0.34013 0.00609 0.0
C826 C 0.60002 0.38112 0.99498 0.0
C827 C 0.61654 0.35041 0.98307 0.0
C828 C 0.62968 0.36907 0.97659 0.0
N829 N 0.59834 0.3579 0.99545 0.0
N830 N 0.61918 0.38828 0.98419 0.0
H831 H 0.58695 0.39279 1.00108 0.0
H832 H 0.61952 0.33277 0.97798 0.0
C833 C 0.61188 0.30774 0.01629 0.0
O834 O 0.6238 0.32455 0.02565 0.0
N835 N 0.54557 0.32292 0.01608 0.0
C836 C 0.52766 0.3307 0.0286 0.0
C837 C 0.51227 0.31286 0.03164 0.0
C838 C 0.54087 0.3007 0.01152 0.0
N839 N 0.52081 0.29406 0.02105 0.0
C840 C 0.57731 0.37233 0.04398 0.0
C841 C 0.59479 0.34042 0.07459 0.0
C842 C 0.59818 0.36389 0.07923 0.0
C843 C 0.58796 0.37991 0.06426 0.0
C844 C 0.58384 0.33369 0.05419 0.0
N845 N 0.57771 0.34963 0.03801 0.0
H846 H 0.56954 0.38482 0.03272 0.0
H847 H 0.58184 0.31554 0.05073 0.0
H848 H 0.52597 0.34808 0.03506 0.0
H849 H 0.55157 0.28976 1.00101 0.0
O850 O 0.5518 0.36462 0.99455 0.0
O851 O 0.56402 0.33451 0.97471 0.0
O852 O 0.59138 0.31139 0.00928 0.0
C853 C 0.55258 0.35362 0.97489 0.0
H854 H 0.64502 0.36867 0.96601 0.0
H855 H 0.49627 0.31348 0.04118 0.0
H856 H 0.60185 0.32726 0.08572 0.0
H857 H 0.58899 0.3982 0.06773 0.0
Co858 Co 0.91004 0.32724 0.25731 0.0
C859 C 0.86909 0.35471 0.24538 0.0
C860 C 0.89931 0.36811 0.22908 0.0
C861 C 0.88029 0.37872 0.21969 0.0
N862 N 0.89236 0.35316 0.24547 0.0
N863 N 0.86136 0.37015 0.22998 0.0
H864 H 0.85777 0.3428 0.25397 0.0
H865 H 0.91673 0.36953 0.22267 0.0
C866 C 0.94206 0.36773 0.26328 0.0
O867 O 0.92491 0.38025 0.27111 0.0
N868 N 0.9269 0.30103 0.2686 0.0
C869 C 0.91853 0.28391 0.28181 0.0
C870 C 0.93597 0.26836 0.28599 0.0
C871 C 0.94915 0.29572 0.2648 0.0
N872 N 0.95519 0.27598 0.27544 0.0
C873 C 0.8787 0.33382 0.29597 0.0
C874 C 0.9112 0.35427 0.32404 0.0
C875 C 0.88788 0.35666 0.32996 0.0
C876 C 0.87166 0.34493 0.31627 0.0
C877 C 0.91743 0.34239 0.30408 0.0
N878 N 0.9011 0.33474 0.289 0.0
H879 H 0.86605 0.32509 0.2856 0.0
H880 H 0.93549 0.34075 0.3001 0.0
H881 H 0.901 0.28286 0.28797 0.0
H882 H 0.96053 0.30576 0.25408 0.0
O883 O 0.88511 0.30688 0.24666 0.0
O884 O 0.91551 0.3177 0.22643 0.0
O885 O 0.93898 0.34641 0.259 0.0
C886 C 0.89598 0.30708 0.22691 0.0
H887 H 0.88024 0.39041 0.20517 0.0
H888 H 0.93476 0.25286 0.29627 0.0
H889 H 0.92467 0.36269 0.33372 0.0
H890 H 0.85355 0.34506 0.32068 0.0
Co891 Co 0.93692 0.65944 0.51005 0.0
C892 C 0.90726 0.61885 0.50359 0.0
C893 C 0.89248 0.64817 0.48688 0.0
C894 C 0.87907 0.62912 0.48218 0.0
N895 N 0.90985 0.64186 0.50095 0.0
N896 N 0.88863 0.61072 0.49257 0.0
H897 H 0.9196 0.60778 0.51182 0.0
H898 H 0.89043 0.66503 0.47929 0.0
C899 C 0.89889 0.69514 0.51401 0.0
O900 O 0.88533 0.68045 0.52462 0.0
N901 N 0.96417 0.67594 0.51899 0.0
C902 C 0.97998 0.6688 0.53434 0.0
C903 C 0.9956 0.68629 0.53774 0.0
C904 C 0.97052 0.69739 0.51289 0.0
N905 N 0.9896 0.70422 0.52425 0.0
C906 C 0.9289 0.63248 0.5513 0.0
C907 C 0.91101 0.66851 0.57658 0.0
C908 C 0.90561 0.64592 0.58321 0.0
C909 C 0.91626 0.62779 0.57128 0.0
C910 C 0.92351 0.6723 0.55634 0.0
N911 N 0.92973 0.65426 0.54259 0.0
H912 H 0.937 0.61848 0.54226 0.0
H913 H 0.92676 0.6898 0.55099 0.0
H914 H 0.97966 0.65235 0.54304 0.0
H915 H 0.9609 0.70805 0.50114 0.0
O916 O 0.95575 0.63256 0.50217 0.0
O917 O 0.94609 0.66091 0.47851 0.0
O918 O 0.9195 0.68946 0.50899 0.0
C919 C 0.95626 0.64137 0.48145 0.0
H920 H 0.86445 0.6285 0.47065 0.0
H921 H 0.0099 0.6861 0.54967 0.0
H922 H 0.90462 0.68312 0.58624 0.0
H923 H 0.9137 0.61006 0.57643 0.0
Co924 Co 0.58722 0.32686 0.74806 0.0
C925 C 0.62913 0.35328 0.76041 0.0
C926 C 0.59877 0.37095 0.77153 0.0
C927 C 0.61776 0.38341 0.77841 0.0
N928 N 0.60584 0.35243 0.7594 0.0
N929 N 0.6368 0.37227 0.77126 0.0
H930 H 0.64043 0.33983 0.75445 0.0
H931 H 0.58116 0.37466 0.77618 0.0
C932 C 0.55467 0.36703 0.73929 0.0
O933 O 0.57078 0.3793 0.72921 0.0
N934 N 0.56917 0.30118 0.73749 0.0
C935 C 0.57675 0.2829 0.72542 0.0
C936 C 0.55868 0.26781 0.72247 0.0
C937 C 0.54674 0.29708 0.74176 0.0
N938 N 0.53987 0.27686 0.73264 0.0
C939 C 0.61855 0.33449 0.7097 0.0
C940 C 0.58491 0.3492 0.67951 0.0
C941 C 0.60801 0.35367 0.67411 0.0
C942 C 0.62499 0.34506 0.68899 0.0
C943 C 0.57931 0.33866 0.70042 0.0
N944 N 0.596 0.33355 0.71619 0.0
H945 H 0.63176 0.32776 0.72075 0.0
H946 H 0.56138 0.33587 0.70447 0.0
H947 H 0.59423 0.28064 0.71942 0.0
H948 H 0.53583 0.30831 0.75185 0.0
O949 O 0.61143 0.30577 0.75821 0.0
O950 O 0.58183 0.31768 0.77908 0.0
O951 O 0.55897 0.34665 0.74616 0.0
C952 C 0.60053 0.30567 0.77795 0.0
H953 H 0.61759 0.39887 0.78882 0.0
H954 H 0.55924 0.25151 0.71345 0.0
H955 H 0.57122 0.35466 0.66809 0.0
H956 H 0.6431 0.34752 0.68536 0.0
Co957 Co 0.9259 0.34566 0.99333 0.0
C958 C 0.90079 0.38882 0.0047 0.0
C959 C 0.88535 0.35947 0.02071 0.0
C960 C 0.87356 0.37883 0.02759 0.0
N961 N 0.90173 0.36552 0.00538 0.0
N962 N 0.88334 0.39719 0.01742 0.0
H963 H 0.91338 0.39973 0.99654 0.0
H964 H 0.88312 0.34239 0.02761 0.0
C965 C 0.88337 0.31652 0.98768 0.0
O966 O 0.87217 0.33436 0.97949 0.0
N967 N 0.95046 0.32645 0.98221 0.0
C968 C 0.96745 0.3328 0.9678 0.0
C969 C 0.98253 0.31466 0.96551 0.0
C970 C 0.95535 0.30471 0.98863 0.0
N971 N 0.97484 0.29704 0.97855 0.0
C972 C 0.91684 0.37528 0.95351 0.0
C973 C 0.90114 0.33975 0.92605 0.0
C974 C 0.89622 0.36242 0.91953 0.0
C975 C 0.90552 0.38037 0.93278 0.0
C976 C 0.91233 0.33553 0.94688 0.0
N977 N 0.91793 0.35318 0.96141 0.0
H978 H 0.9242 0.38914 0.9633 0.0
H979 H 0.91527 0.31788 0.95191 0.0
H980 H 0.96891 0.34955 0.95982 0.0
H981 H 0.94527 0.29506 1.00098 0.0
O982 O 0.94826 0.36954 1.00157 0.0
O983 O 0.93641 0.34104 0.024 0.0
O984 O 0.90459 0.31819 0.99312 0.0
C985 C 0.94895 0.35929 0.02164 0.0
H986 H 0.85977 0.37957 0.04012 0.0
H987 H 0.99796 0.3144 0.95506 0.0
H988 H 0.89544 0.32535 0.91566 0.0
H989 H 0.90311 0.39816 0.92779 0.0
Co990 Co 0.91667 0.67687 0.24911 0.0
C991 C 0.87454 0.6513 0.26004 0.0
C992 C 0.90395 0.63557 0.2761 0.0
C993 C 0.88458 0.62298 0.28161 0.0
N994 N 0.89758 0.65317 0.26244 0.0
N995 N 0.8662 0.63295 0.27148 0.0
H996 H 0.86412 0.66306 0.25004 0.0
H997 H 0.92132 0.63225 0.28187 0.0
C998 C 0.96127 0.65181 0.23732 0.0
O999 O 0.96445 0.66314 0.21802 0.0
N1000 N 0.93538 0.70137 0.2361 0.0
C1001 C 0.92792 0.71899 0.22295 0.0
C1002 C 0.94582 0.73394 0.21913 0.0
C1003 C 0.95753 0.70662 0.2411 0.0
N1004 N 0.96448 0.72601 0.23033 0.0
C1005 C 0.89384 0.67761 0.20388 0.0
C1006 C 0.90688 0.63325 0.19265 0.0
C1007 C 0.89452 0.64593 0.17642 0.0
C1008 C 0.88738 0.66826 0.18244 0.0
C1009 C 0.91276 0.64309 0.21361 0.0
N1010 N 0.90748 0.66544 0.2187 0.0
H1011 H 0.88709 0.69416 0.20881 0.0
H1012 H 0.92075 0.63212 0.22615 0.0
H1013 H 0.91045 0.72175 0.21745 0.0
H1014 H 0.96836 0.69654 0.2524 0.0
O1015 O 0.89243 0.69903 0.25654 0.0
O1016 O 0.92182 0.6895 0.27889 0.0
O1017 O 0.94383 0.65552 0.25015 0.0
C1018 C 0.90297 0.70106 0.27635 0.0
H1019 H 0.88394 0.60797 0.29263 0.0
H1020 H 0.94499 0.74983 0.20943 0.0
H1021 H 0.91128 0.61538 0.18958 0.0
H1022 H 0.87668 0.67822 0.17087 0.0
Co1023 Co 0.57472 0.65719 0.49249 0.0
C1024 C 0.60049 0.6151 0.50551 0.0
C1025 C 0.61368 0.64475 0.52304 0.0
C1026 C 0.62578 0.62568 0.53028 0.0
N1027 N 0.59838 0.63828 0.50679 0.0
N1028 N 0.61738 0.60715 0.51919 0.0
H1029 H 0.5894 0.60396 0.49567 0.0
H1030 H 0.61538 0.66195 0.52992 0.0
C1031 C 0.61556 0.69007 0.49272 0.0
O1032 O 0.62981 0.67411 0.48534 0.0
N1033 N 0.55092 0.67583 0.47893 0.0
C1034 C 0.54018 0.67298 0.45856 0.0
C1035 C 0.52613 0.69175 0.4548 0.0
C1036 C 0.54297 0.69585 0.48752 0.0
N1037 N 0.52792 0.70587 0.4731 0.0
C1038 C 0.58444 0.62699 0.45394 0.0
C1039 C 0.60762 0.65925 0.42777 0.0
C1040 C 0.60865 0.63609 0.42107 0.0
C1041 C 0.59607 0.61998 0.43398 0.0
C1042 C 0.59582 0.66544 0.44784 0.0
N1043 N 0.58607 0.6491 0.46171 0.0
H1044 H 0.57439 0.61452 0.46329 0.0
H1045 H 0.59504 0.68341 0.4524 0.0
H1046 H 0.54282 0.65867 0.44695 0.0
H1047 H 0.54856 0.70326 0.50367 0.0
O1048 O 0.55242 0.63264 0.49874 0.0
O1049 O 0.56114 0.66166 0.52195 0.0
O1050 O 0.59417 0.68571 0.49461 0.0
C1051 C 0.54931 0.64316 0.51843 0.0
H1052 H 0.63907 0.62526 0.54333 0.0
H1053 H 0.51569 0.69501 0.43971 0.0
H1054 H 0.61667 0.67243 0.41817 0.0
H1055 H 0.59554 0.60205 0.42891 0.0
Co1056 Co 0.76152 0.59197 0.67792 0.0
C1057 C 0.74426 0.63481 0.65676 0.0
C1058 C 0.74096 0.60647 0.63332 0.0
C1059 C 0.73505 0.62646 0.62198 0.0
N1060 N 0.74689 0.61172 0.65518 0.0
N1061 N 0.73733 0.64418 0.63676 0.0
H1062 H 0.74859 0.6449 0.67176 0.0
H1063 H 0.74163 0.58954 0.62566 0.0
C1064 C 0.76363 0.54404 0.65627 0.0
O1065 O 0.77919 0.53593 0.67044 0.0
N1066 N 0.7766 0.5734 0.70121 0.0
C1067 C 0.79734 0.57772 0.7107 0.0
C1068 C 0.80224 0.56081 0.72649 0.0
C1069 C 0.76865 0.55461 0.71237 0.0
N1070 N 0.78438 0.54603 0.72716 0.0
C1071 C 0.79778 0.62467 0.66918 0.0
C1072 C 0.82536 0.59552 0.64357 0.0
C1073 C 0.83134 0.61881 0.64503 0.0
C1074 C 0.81757 0.63338 0.65849 0.0
C1075 C 0.80533 0.5876 0.65424 0.0
N1076 N 0.79136 0.60224 0.66625 0.0
H1077 H 0.7873 0.63611 0.6794 0.0
H1078 H 0.80109 0.56972 0.65244 0.0
H1079 H 0.80832 0.59213 0.70647 0.0
H1080 H 0.75226 0.54664 0.70888 0.0
O1081 O 0.75467 0.61491 0.70172 0.0
O1082 O 0.73232 0.58576 0.69158 0.0
O1083 O 0.75915 0.56555 0.65526 0.0
C1084 C 0.73518 0.6039 0.70415 0.0
H1085 H 0.72988 0.62791 0.60413 0.0
H1086 H 0.81784 0.55944 0.73657 0.0
H1087 H 0.83561 0.58366 0.63347 0.0
H1088 H 0.82188 0.65142 0.66044 0.0
Co1089 Co 0.66335 0.50101 0.92558 0.0
C1090 C 0.62218 0.4886 0.89947 0.0
C1091 C 0.65219 0.47313 0.88434 0.0
C1092 C 0.63317 0.46721 0.87138 0.0
N1093 N 0.64519 0.48661 0.90185 0.0
N1094 N 0.61441 0.47704 0.88095 0.0
H1095 H 0.61133 0.49851 0.91093 0.0
H1096 H 0.66977 0.46785 0.88124 0.0
C1097 C 0.71056 0.50936 0.90496 0.0
O1098 O 0.71325 0.52911 0.9156 0.0
N1099 N 0.68096 0.5155 0.94988 0.0
C1100 C 0.67541 0.53422 0.96246 0.0
C1101 C 0.69238 0.53793 0.97854 0.0
C1102 C 0.70085 0.50771 0.95897 0.0
N1103 N 0.70842 0.52139 0.97612 0.0
C1104 C 0.63637 0.54265 0.92206 0.0
C1105 C 0.65648 0.55829 0.88183 0.0
C1106 C 0.6385 0.5709 0.89149 0.0
C1107 C 0.62818 0.56289 0.91175 0.0
C1108 C 0.66377 0.53805 0.89233 0.0
N1109 N 0.65438 0.53075 0.91267 0.0
H1110 H 0.62785 0.53619 0.93728 0.0
H1111 H 0.67613 0.52784 0.88312 0.0
H1112 H 0.66011 0.54449 0.96049 0.0
H1113 H 0.70956 0.49233 0.95316 0.0
O1114 O 0.63847 0.49472 0.9475 0.0
O1115 O 0.66811 0.47197 0.93989 0.0
O1116 O 0.69166 0.49825 0.90589 0.0
C1117 C 0.64927 0.47532 0.9512 0.0
H1118 H 0.63308 0.45617 0.85637 0.0
H1119 H 0.69311 0.55195 0.99081 0.0
H1120 H 0.66406 0.56345 0.86557 0.0
H1121 H 0.61363 0.57187 0.91919 0.0
Co1122 Co 0.7427 0.40729 0.17608 0.0
C1123 C 0.754 0.3665 0.1478 0.0
C1124 C 0.76863 0.397 0.13318 0.0
C1125 C 0.77598 0.37827 0.12059 0.0
N1126 N 0.75424 0.38972 0.14991 0.0
N1127 N 0.76691 0.35912 0.13002 0.0
H1128 H 0.74595 0.35497 0.15988 0.0
H1129 H 0.77474 0.41444 0.13114 0.0
C1130 C 0.7382 0.44233 0.13734 0.0
O1131 O 0.72858 0.42732 0.12341 0.0
N1132 N 0.73167 0.42427 0.20234 0.0
C1133 C 0.71633 0.41697 0.21809 0.0
C1134 C 0.71276 0.43439 0.23379 0.0
C1135 C 0.73736 0.44587 0.20862 0.0
N1136 N 0.72609 0.45249 0.22787 0.0
C1137 C 0.70323 0.37787 0.167 0.0
C1138 C 0.67536 0.41248 0.15012 0.0
C1139 C 0.66885 0.38955 0.14631 0.0
C1140 C 0.68254 0.37213 0.15595 0.0
C1141 C 0.69612 0.41737 0.16131 0.0
N1142 N 0.71081 0.4001 0.1676 0.0
H1143 H 0.71337 0.36433 0.17454 0.0
H1144 H 0.70079 0.43516 0.16398 0.0
H1145 H 0.70805 0.40029 0.21792 0.0
H1146 H 0.74952 0.45651 0.19934 0.0
O1147 O 0.75106 0.38145 0.19615 0.0
O1148 O 0.77365 0.41072 0.18666 0.0
O1149 O 0.74297 0.43679 0.15801 0.0
C1150 C 0.77123 0.39139 0.1974 0.0
H1151 H 0.78832 0.37853 0.10661 0.0
H1152 H 0.70074 0.43397 0.24802 0.0
H1153 H 0.66483 0.42653 0.14387 0.0
H1154 H 0.67795 0.35417 0.15402 0.0
Co1155 Co 0.84376 0.49987 0.43473 0.0
C1156 C 0.88615 0.51403 0.41134 0.0
C1157 C 0.85722 0.53299 0.39813 0.0
C1158 C 0.87681 0.53977 0.38647 0.0
N1159 N 0.86315 0.5167 0.41353 0.0
N1160 N 0.89484 0.52789 0.39496 0.0
H1161 H 0.89621 0.50181 0.42115 0.0
H1162 H 0.83992 0.53929 0.39539 0.0
C1163 C 0.80042 0.49222 0.40638 0.0
O1164 O 0.80006 0.46991 0.40997 0.0
N1165 N 0.82495 0.48323 0.45698 0.0
C1166 C 0.83293 0.47049 0.47473 0.0
C1167 C 0.81484 0.4639 0.48843 0.0
C1168 C 0.80211 0.48533 0.4611 0.0
N1169 N 0.7955 0.47317 0.47978 0.0
C1170 C 0.86168 0.45273 0.42957 0.0
C1171 C 0.85582 0.45152 0.38238 0.0
C1172 C 0.86382 0.43155 0.39335 0.0
C1173 C 0.86672 0.43242 0.4174 0.0
C1174 C 0.85022 0.47102 0.39523 0.0
N1175 N 0.85257 0.47145 0.41865 0.0
H1176 H 0.86541 0.45324 0.44764 0.0
H1177 H 0.84406 0.486 0.38612 0.0
H1178 H 0.85083 0.46755 0.47869 0.0
H1179 H 0.79064 0.49621 0.45136 0.0
O1180 O 0.86804 0.50396 0.45786 0.0
O1181 O 0.83848 0.52722 0.45172 0.0
O1182 O 0.81655 0.50482 0.41416 0.0
C1183 C 0.85727 0.52315 0.46284 0.0
H1184 H 0.87777 0.55234 0.37274 0.0
H1185 H 0.81598 0.45425 0.50434 0.0
H1186 H 0.85399 0.45227 0.36385 0.0
H1187 H 0.87261 0.41758 0.42695 0.0
Co1188 Co 0.75807 0.41196 0.81952 0.0
C1189 C 0.74574 0.37181 0.84868 0.0
C1190 C 0.72931 0.40267 0.86036 0.0
C1191 C 0.72149 0.3845 0.87344 0.0
N1192 N 0.74506 0.39483 0.8452 0.0
N1193 N 0.73177 0.36509 0.86593 0.0
H1194 H 0.75537 0.35994 0.8383 0.0
H1195 H 0.72316 0.42021 0.86121 0.0
C1196 C 0.76614 0.44261 0.86039 0.0
O1197 O 0.77356 0.42473 0.87212 0.0
N1198 N 0.77038 0.42856 0.79369 0.0
C1199 C 0.78378 0.41987 0.77691 0.0
C1200 C 0.78924 0.43732 0.76184 0.0
C1201 C 0.76759 0.451 0.78858 0.0
N1202 N 0.77922 0.4569 0.76936 0.0
C1203 C 0.79521 0.37891 0.82563 0.0
C1204 C 0.82533 0.40995 0.84541 0.0
C1205 C 0.82951 0.38638 0.84828 0.0
C1206 C 0.81505 0.3708 0.83671 0.0
C1207 C 0.80538 0.41718 0.83411 0.0
N1208 N 0.78926 0.40157 0.827 0.0
H1209 H 0.78431 0.3669 0.81663 0.0
H1210 H 0.80231 0.43542 0.8324 0.0
H1211 H 0.78918 0.40209 0.77576 0.0
H1212 H 0.75749 0.46281 0.79881 0.0
O1213 O 0.74691 0.38767 0.79891 0.0
O1214 O 0.72762 0.41885 0.8094 0.0
O1215 O 0.76108 0.44043 0.83913 0.0
C1216 C 0.72792 0.39975 0.79796 0.0
H1217 H 0.70845 0.38534 0.88673 0.0
H1218 H 0.79955 0.43564 0.74641 0.0
H1219 H 0.83654 0.42273 0.85307 0.0
H1220 H 0.81855 0.3525 0.83697 0.0
Co1221 Co 0.84011 0.50998 0.07555 0.0
C1222 C 0.8835 0.49908 0.09871 0.0
C1223 C 0.85483 0.48663 0.11853 0.0
C1224 C 0.8749 0.48181 0.13025 0.0
N1225 N 0.86031 0.49752 0.09879 0.0
N1226 N 0.8928 0.48969 0.11771 0.0
H1227 H 0.89343 0.50724 0.08521 0.0
H1228 H 0.83757 0.48246 0.1241 0.0
C1229 C 0.79261 0.51432 0.09716 0.0
O1230 O 0.78693 0.53208 0.08441 0.0
N1231 N 0.82071 0.52254 0.05153 0.0
C1232 C 0.82516 0.54084 0.0379 0.0
C1233 C 0.8083 0.54237 0.02134 0.0
C1234 C 0.80157 0.51282 0.04262 0.0
N1235 N 0.79359 0.5248 0.02447 0.0
C1236 C 0.8647 0.55335 0.07723 0.0
C1237 C 0.8453 0.56844 0.11798 0.0
C1238 C 0.86255 0.58184 0.10788 0.0
C1239 C 0.87215 0.57419 0.08701 0.0
C1240 C 0.83836 0.54794 0.1077 0.0
N1241 N 0.84765 0.54065 0.08732 0.0
H1242 H 0.87303 0.54714 0.0618 0.0
H1243 H 0.82642 0.53754 0.11723 0.0
H1244 H 0.83976 0.55216 0.03936 0.0
H1245 H 0.79359 0.49736 0.04931 0.0
O1246 O 0.86427 0.50456 0.0525 0.0
O1247 O 0.83659 0.48024 0.06232 0.0
O1248 O 0.81295 0.506 0.0968 0.0
C1249 C 0.85453 0.48443 0.04988 0.0
H1250 H 0.8763 0.47287 0.14655 0.0
H1251 H 0.80675 0.5555 0.00821 0.0
H1252 H 0.83799 0.57309 0.13451 0.0
H1253 H 0.88563 0.58391 0.07857 0.0
Co1254 Co 0.74822 0.58854 0.3194 0.0
C1255 C 0.76211 0.63022 0.34576 0.0
C1256 C 0.77566 0.59964 0.36121 0.0
C1257 C 0.78288 0.61837 0.37386 0.0
N1258 N 0.76171 0.60694 0.34412 0.0
N1259 N 0.77423 0.63752 0.3641 0.0
H1260 H 0.75465 0.64184 0.33338 0.0
H1261 H 0.78102 0.58205 0.36393 0.0
C1262 C 0.74246 0.55709 0.3605 0.0
O1263 O 0.73339 0.57408 0.37239 0.0
N1264 N 0.73546 0.57078 0.29443 0.0
C1265 C 0.72098 0.57832 0.27799 0.0
C1266 C 0.71642 0.56038 0.26311 0.0
C1267 C 0.73966 0.54854 0.28937 0.0
N1268 N 0.72804 0.54168 0.27045 0.0
C1269 C 0.71048 0.62001 0.32975 0.0
C1270 C 0.6813 0.58642 0.34651 0.0
C1271 C 0.67615 0.60954 0.35119 0.0
C1272 C 0.69046 0.62649 0.34158 0.0
C1273 C 0.70153 0.58079 0.33472 0.0
N1274 N 0.71696 0.59746 0.32857 0.0
H1275 H 0.72095 0.63317 0.32205 0.0
H1276 H 0.70539 0.56285 0.33174 0.0
H1277 H 0.71426 0.59565 0.2769 0.0
H1278 H 0.7514 0.53778 0.29895 0.0
O1279 O 0.7569 0.61297 0.2978 0.0
O1280 O 0.77835 0.58305 0.30776 0.0
O1281 O 0.74772 0.56011 0.33939 0.0
C1282 C 0.77643 0.60187 0.29603 0.0
H1283 H 0.79425 0.61803 0.38862 0.0
H1284 H 0.70525 0.56093 0.2482 0.0
H1285 H 0.67023 0.57274 0.35267 0.0
H1286 H 0.68692 0.64461 0.34409 0.0
Co1287 Co 0.66093 0.4917 0.57217 0.0
C1288 C 0.61908 0.50515 0.59824 0.0
C1289 C 0.64777 0.52692 0.60611 0.0
C1290 C 0.62832 0.53617 0.61605 0.0
N1291 N 0.64207 0.50724 0.59511 0.0
N1292 N 0.61041 0.52232 0.61113 0.0
H1293 H 0.60827 0.49292 0.58954 0.0
H1294 H 0.66461 0.53485 0.60558 0.0
C1295 C 0.68924 0.49213 0.61502 0.0
O1296 O 0.67082 0.48601 0.62664 0.0
N1297 N 0.6792 0.47688 0.54884 0.0
C1298 C 0.67268 0.45918 0.53535 0.0
C1299 C 0.6904 0.45411 0.52044 0.0
C1300 C 0.70055 0.48264 0.54181 0.0
N1301 N 0.70784 0.46886 0.52457 0.0
C1302 C 0.62924 0.45377 0.58029 0.0
C1303 C 0.65973 0.42722 0.6053 0.0
C1304 C 0.63644 0.42095 0.60515 0.0
C1305 C 0.62125 0.43402 0.59165 0.0
C1306 C 0.66686 0.44711 0.59381 0.0
N1307 N 0.65128 0.46131 0.58334 0.0
H1308 H 0.61758 0.4632 0.56935 0.0
H1309 H 0.68493 0.4513 0.59395 0.0
H1310 H 0.65612 0.45072 0.53614 0.0
H1311 H 0.71055 0.49653 0.54918 0.0
O1312 O 0.63716 0.499 0.54937 0.0
O1313 O 0.66712 0.52079 0.55837 0.0
O1314 O 0.6886 0.49277 0.59308 0.0
C1315 C 0.64846 0.51829 0.54653 0.0
H1316 H 0.62718 0.55236 0.62521 0.0
H1317 H 0.69033 0.44092 0.50728 0.0
H1318 H 0.67225 0.41746 0.61506 0.0
H1319 H 0.6033 0.42921 0.59017 0.0
Co1320 Co 0.68568 0.75899 0.59324 0.0
C1321 C 0.6575 0.74403 0.63314 0.0
C1322 C 0.6494 0.72494 0.60266 0.0
C1323 C 0.63818 0.715 0.62101 0.0
N1324 N 0.66121 0.7435 0.61011 0.0
N1325 N 0.64332 0.72705 0.64015 0.0
H1326 H 0.66684 0.75477 0.64501 0.0
H1327 H 0.65032 0.71793 0.58544 0.0
C1328 C 0.64688 0.75689 0.55854 0.0
O1329 O 0.63169 0.7636 0.57391 0.0
N1330 N 0.71028 0.77362 0.5766 0.0
C1331 C 0.72515 0.78971 0.58414 0.0
C1332 C 0.74026 0.79482 0.56647 0.0
C1333 C 0.71642 0.76908 0.55472 0.0
N1334 N 0.73464 0.78179 0.54808 0.0
C1335 C 0.67275 0.79703 0.62292 0.0
C1336 C 0.65274 0.82339 0.58878 0.0
C1337 C 0.64991 0.83022 0.61177 0.0
C1338 C 0.66081 0.81713 0.62892 0.0
C1339 C 0.66466 0.80313 0.58362 0.0
N1340 N 0.67298 0.78929 0.60072 0.0
H1341 H 0.68161 0.78762 0.6362 0.0
H1342 H 0.66686 0.79849 0.56577 0.0
H1343 H 0.72499 0.79719 0.60119 0.0
H1344 H 0.70797 0.75646 0.54394 0.0
O1345 O 0.7061 0.75314 0.6194 0.0
O1346 O 0.70066 0.7301 0.58941 0.0
O1347 O 0.66819 0.75654 0.56356 0.0
C1348 C 0.71058 0.73366 0.609 0.0
H1349 H 0.62806 0.69936 0.62054 0.0
H1350 H 0.75401 0.80738 0.56699 0.0
H1351 H 0.64548 0.83345 0.57487 0.0
H1352 H 0.65951 0.82187 0.64689 0.0
Co1353 Co 0.17861 0.75 0.41392 0.0
C1354 C 0.15434 0.76533 0.37229 0.0
C1355 C 0.14131 0.78229 0.4025 0.0
C1356 C 0.13058 0.79136 0.38344 0.0
N1357 N 0.15613 0.76596 0.39547 0.0
N1358 N 0.13909 0.78097 0.36444 0.0
H1359 H 0.16491 0.75459 0.36133 0.0
H1360 H 0.13919 0.78797 0.42008 0.0
C1361 C 0.15415 0.7411 0.45958 0.0
O1362 O 0.16425 0.72117 0.46297 0.0
N1363 N 0.20166 0.73423 0.43228 0.0
C1364 C 0.21448 0.71574 0.42652 0.0
C1365 C 0.22873 0.71032 0.44463 0.0
C1366 C 0.20904 0.74033 0.45351 0.0
N1367 N 0.2251 0.72564 0.46164 0.0
C1368 C 0.17465 0.70738 0.38781 0.0
C1369 C 0.13192 0.69553 0.40507 0.0
C1370 C 0.14279 0.68036 0.38991 0.0
C1371 C 0.1642 0.68674 0.38067 0.0
C1372 C 0.14275 0.71588 0.41147 0.0
N1373 N 0.16448 0.72105 0.40406 0.0
H1374 H 0.19074 0.71253 0.38004 0.0
H1375 H 0.13294 0.7278 0.4217 0.0
H1376 H 0.21408 0.70683 0.41029 0.0
H1377 H 0.20232 0.75484 0.46308 0.0
O1378 O 0.20118 0.75583 0.38958 0.0
O1379 O 0.19409 0.77839 0.41952 0.0
O1380 O 0.1578 0.75277 0.44133 0.0
C1381 C 0.20501 0.77524 0.40037 0.0
H1382 H 0.11785 0.80496 0.38358 0.0
H1383 H 0.24105 0.69635 0.44512 0.0
H1384 H 0.11469 0.69208 0.41136 0.0
H1385 H 0.17267 0.67598 0.36802 0.0
Co1386 Co 0.51247 0.93348 0.65761 0.0
C1387 C 0.50199 0.9031 0.61761 0.0
C1388 C 0.4847 0.892 0.64821 0.0
C1389 C 0.47728 0.8787 0.63006 0.0
N1390 N 0.50072 0.90699 0.6406 0.0
N1391 N 0.48803 0.88583 0.61076 0.0
H1392 H 0.51185 0.9134 0.60581 0.0
H1393 H 0.47777 0.89166 0.66549 0.0
C1394 C 0.5173 0.89438 0.69182 0.0
O1395 O 0.5259 0.88084 0.67585 0.0
N1396 N 0.52344 0.95999 0.67439 0.0
C1397 C 0.53866 0.97607 0.66749 0.0
C1398 C 0.54225 0.99129 0.68545 0.0
C1399 C 0.51782 0.9657 0.69617 0.0
N1400 N 0.52929 0.98451 0.70351 0.0
C1401 C 0.55129 0.92582 0.62743 0.0
C1402 C 0.57918 0.90575 0.66029 0.0
C1403 C 0.58467 0.90265 0.63697 0.0
C1404 C 0.57114 0.91404 0.62051 0.0
C1405 C 0.55914 0.9177 0.66636 0.0
N1406 N 0.54423 0.92527 0.64982 0.0
H1407 H 0.5411 0.93455 0.61463 0.0
H1408 H 0.55506 0.91963 0.68438 0.0
H1409 H 0.54684 0.97646 0.65076 0.0
H1410 H 0.50542 0.95642 0.70637 0.0
O1411 O 0.50376 0.95283 0.63153 0.0
O1412 O 0.48148 0.94395 0.66124 0.0
O1413 O 0.51295 0.91539 0.68722 0.0
C1414 C 0.48363 0.95402 0.64149 0.0
H1415 H 0.46392 0.86572 0.63075 0.0
H1416 H 0.55394 0.00579 0.68548 0.0
H1417 H 0.58939 0.89783 0.67371 0.0
H1418 H 0.57538 0.91311 0.60237 0.0
Co1419 Co 0.32061 0.26105 0.91145 0.0
C1420 C 0.34677 0.24695 0.86993 0.0
C1421 C 0.36114 0.23177 0.90028 0.0
C1422 C 0.37334 0.22407 0.88144 0.0
N1423 N 0.34501 0.24693 0.8932 0.0
N1424 N 0.36424 0.23372 0.86244 0.0
H1425 H 0.33493 0.25543 0.85844 0.0
H1426 H 0.36327 0.22572 0.91773 0.0
C1427 C 0.36051 0.26237 0.94508 0.0
O1428 O 0.37416 0.27173 0.92964 0.0
N1429 N 0.29596 0.27449 0.929 0.0
C1430 C 0.28228 0.29207 0.92261 0.0
C1431 C 0.26697 0.29645 0.94019 0.0
C1432 C 0.2887 0.26814 0.95007 0.0
N1433 N 0.27097 0.28128 0.9573 0.0
C1434 C 0.33407 0.29955 0.88228 0.0
C1435 C 0.35085 0.32623 0.91794 0.0
C1436 C 0.35617 0.33248 0.89528 0.0
C1437 C 0.34651 0.3196 0.87727 0.0
C1438 C 0.33834 0.30613 0.92211 0.0
N1439 N 0.332 0.29196 0.90442 0.0
H1440 H 0.32651 0.29002 0.86834 0.0
H1441 H 0.33466 0.30146 0.93972 0.0
H1442 H 0.2835 0.30115 0.90639 0.0
H1443 H 0.29651 0.25451 0.96007 0.0
O1444 O 0.29926 0.25493 0.88608 0.0
O1445 O 0.30707 0.2316 0.9153 0.0
O1446 O 0.33937 0.25888 0.94045 0.0
C1447 C 0.29593 0.23516 0.89639 0.0
H1448 H 0.38713 0.21154 0.88157 0.0
H1449 H 0.25386 0.30969 0.9404 0.0
H1450 H 0.35695 0.33638 0.93234 0.0
H1451 H 0.34939 0.32438 0.85948 0.0
Co1452 Co 0.49312 0.56963 0.65571 0.0
C1453 C 0.50407 0.59691 0.61405 0.0
C1454 C 0.52211 0.60986 0.64348 0.0
C1455 C 0.52896 0.62218 0.62439 0.0
N1456 N 0.5058 0.59453 0.63717 0.0
N1457 N 0.51757 0.61389 0.60601 0.0
H1458 H 0.49446 0.58562 0.60291 0.0
H1459 H 0.52955 0.61118 0.66048 0.0
C1460 C 0.4923 0.61007 0.68845 0.0
O1461 O 0.48338 0.62347 0.67256 0.0
N1462 N 0.48104 0.54456 0.67374 0.0
C1463 C 0.46614 0.5283 0.66669 0.0
C1464 C 0.46163 0.5138 0.68493 0.0
C1465 C 0.48561 0.53971 0.69598 0.0
N1466 N 0.47376 0.52113 0.70336 0.0
C1467 C 0.45363 0.57883 0.62671 0.0
C1468 C 0.42809 0.60132 0.65994 0.0
C1469 C 0.42178 0.60395 0.63677 0.0
C1470 C 0.43398 0.5912 0.62024 0.0
C1471 C 0.44781 0.58864 0.66561 0.0
N1472 N 0.46164 0.5797 0.64878 0.0
H1473 H 0.46281 0.56916 0.61381 0.0
H1474 H 0.45253 0.5871 0.68351 0.0
H1475 H 0.45902 0.52714 0.64952 0.0
H1476 H 0.49702 0.54974 0.7067 0.0
O1477 O 0.49961 0.54876 0.63012 0.0
O1478 O 0.52344 0.55727 0.65872 0.0
O1479 O 0.49508 0.58869 0.68453 0.0
C1480 C 0.51993 0.54659 0.63951 0.0
H1481 H 0.54225 0.63523 0.62378 0.0
H1482 H 0.45046 0.49889 0.68456 0.0
H1483 H 0.41865 0.61 0.67348 0.0
H1484 H 0.42881 0.59136 0.60233 0.0
Co1485 Co 0.82606 0.24402 0.08879 0.0
C1486 C 0.84874 0.26407 0.13001 0.0
C1487 C 0.8708 0.26595 0.10043 0.0
C1488 C 0.88202 0.27561 0.11893 0.0
N1489 N 0.84983 0.25872 0.10732 0.0
N1490 N 0.86806 0.2745 0.13744 0.0
H1491 H 0.83405 0.26076 0.14093 0.0
H1492 H 0.87768 0.26451 0.08321 0.0
C1493 C 0.84518 0.24168 0.03992 0.0
O1494 O 0.83205 0.22513 0.03192 0.0
N1495 N 0.80178 0.22945 0.07124 0.0
C1496 C 0.79042 0.21018 0.07731 0.0
C1497 C 0.77381 0.2057 0.06107 0.0
C1498 C 0.79114 0.23709 0.05203 0.0
N1499 N 0.77463 0.22235 0.04488 0.0
C1500 C 0.83891 0.20867 0.12157 0.0
C1501 C 0.85779 0.17907 0.0894 0.0
C1502 C 0.86094 0.17418 0.11277 0.0
C1503 C 0.85074 0.18894 0.12901 0.0
C1504 C 0.84602 0.19891 0.08276 0.0
N1505 N 0.83757 0.21398 0.0987 0.0
H1506 H 0.83153 0.22009 0.13423 0.0
H1507 H 0.84417 0.2022 0.06471 0.0
H1508 H 0.79383 0.20013 0.09259 0.0
H1509 H 0.79611 0.25255 0.04289 0.0
O1510 O 0.80329 0.25162 0.11254 0.0
O1511 O 0.81277 0.27339 0.08272 0.0
O1512 O 0.84768 0.24511 0.06152 0.0
C1513 C 0.80077 0.271 0.10131 0.0
H1514 H 0.89919 0.28285 0.11878 0.0
H1515 H 0.76198 0.19132 0.0613 0.0
H1516 H 0.86486 0.16788 0.07625 0.0
H1517 H 0.8527 0.18586 0.14729 0.0
Co1518 Co 0.50696 0.07335 0.8411 0.0
C1519 C 0.49147 0.0987 0.88302 0.0
C1520 C 0.47774 0.11391 0.85241 0.0
C1521 C 0.46966 0.12598 0.87117 0.0
N1522 N 0.49232 0.09734 0.8597 0.0
N1523 N 0.47845 0.11643 0.89038 0.0
H1524 H 0.49932 0.08649 0.8946 0.0
H1525 H 0.47236 0.11653 0.83482 0.0
C1526 C 0.50933 0.11391 0.80831 0.0
O1527 O 0.51874 0.12716 0.82406 0.0
N1528 N 0.52076 0.04913 0.82295 0.0
C1529 C 0.53654 0.03372 0.83004 0.0
C1530 C 0.54136 0.01899 0.81204 0.0
C1531 C 0.51613 0.04362 0.80085 0.0
N1532 N 0.52844 0.02521 0.79376 0.0
C1533 C 0.54434 0.08787 0.87129 0.0
C1534 C 0.57246 0.10359 0.8363 0.0
C1535 C 0.57751 0.11024 0.85898 0.0
C1536 C 0.5638 0.10107 0.87669 0.0
C1537 C 0.55261 0.09073 0.8317 0.0
N1538 N 0.53775 0.08477 0.84896 0.0
H1539 H 0.5344 0.08065 0.8851 0.0
H1540 H 0.54859 0.08656 0.81402 0.0
H1541 H 0.54402 0.03328 0.84709 0.0
H1542 H 0.50373 0.0526 0.79027 0.0
O1543 O 0.50038 0.05141 0.8659 0.0
O1544 O 0.47758 0.05976 0.83647 0.0
O1545 O 0.50537 0.0928 0.8126 0.0
C1546 C 0.48075 0.04829 0.85527 0.0
H1547 H 0.45752 0.14011 0.87078 0.0
H1548 H 0.55367 0.00502 0.81229 0.0
H1549 H 0.58332 0.10887 0.8221 0.0
H1550 H 0.56745 0.10481 0.89458 0.0
Co1551 Co 1.00081 0.92007 0.34353 0.0
C1552 C 0.01336 0.89344 0.38516 0.0
C1553 C 0.02536 0.87671 0.35461 0.0
C1554 C 0.03365 0.865 0.37346 0.0
N1555 N 0.01204 0.89427 0.36187 0.0
N1556 N 0.02614 0.87559 0.39272 0.0
H1557 H 0.00728 0.90694 0.39637 0.0
H1558 H 0.03037 0.87358 0.33698 0.0
C1559 C 0.99417 0.88031 0.30956 0.0
O1560 O 0.98452 0.8669 0.32502 0.0
N1561 N 0.99026 0.94598 0.32575 0.0
C1562 C 0.97786 0.96397 0.33348 0.0
C1563 C 0.9751 0.97942 0.31568 0.0
C1564 C 0.99492 0.95064 0.30348 0.0
N1565 N 0.98572 0.97091 0.29686 0.0
C1566 C 0.96255 0.91316 0.37454 0.0
C1567 C 0.93288 0.89535 0.34188 0.0
C1568 C 0.92743 0.8925 0.36526 0.0
C1569 C 0.94204 0.90267 0.38161 0.0
C1570 C 0.95352 0.90613 0.33561 0.0
N1571 N 0.96901 0.91289 0.35197 0.0
H1572 H 0.97357 0.92076 0.38734 0.0
H1573 H 0.95755 0.90786 0.31754 0.0
H1574 H 0.97151 0.96579 0.3509 0.0
H1575 H 0.00533 0.93975 0.29252 0.0
O1576 O 0.01021 0.94094 0.36831 0.0
O1577 O 0.0319 0.92949 0.33903 0.0
O1578 O 0.99976 0.90089 0.31471 0.0
C1579 C 0.03025 0.94098 0.35805 0.0
H1580 H 0.0454 0.85055 0.37296 0.0
H1581 H 0.96587 0.99559 0.31643 0.0
H1582 H 0.92206 0.88815 0.32853 0.0
H1583 H 0.93805 0.90181 0.39981 0.0
C1584 C 0.03307 0.10602 0.25933 0.0
C1585 C 0.03708 0.12941 0.25443 0.0
C1586 C 0.01604 0.09358 0.24759 0.0
C1587 C 0.00267 0.10404 0.23035 0.0
H1588 H 0.04392 0.09692 0.27146 0.0
H1589 H 0.01458 0.07526 0.25077 0.0
S1590 S 0.00349 0.16545 0.21349 0.0
N1591 N 0.02387 0.16317 0.23315 0.0
N1592 N 0.99234 0.13944 0.2109 0.0
C1593 C 0.00518 0.12769 0.22654 0.0
C1594 C 0.02224 0.14049 0.23867 0.0
C1595 C 0.12206 0.76731 0.46932 0.0
C1596 C 0.13857 0.75132 0.47691 0.0
C1597 C 0.10978 0.78081 0.48486 0.0
C1598 C 0.11315 0.77862 0.50865 0.0
H1599 H 0.11901 0.76993 0.45113 0.0
H1600 H 0.09772 0.79336 0.47814 0.0
S1601 S 0.1525 0.73785 0.53775 0.0
N1602 N 0.1566 0.733 0.51 0.0
N1603 N 0.13264 0.75817 0.53943 0.0
C1604 C 0.12841 0.76175 0.51672 0.0
C1605 C 0.14131 0.74808 0.50077 0.0
C1606 C 0.51104 0.86078 0.71825 0.0
C1607 C 0.50834 0.88445 0.71369 0.0
C1608 C 0.49831 0.84993 0.7357 0.0
C1609 C 0.48254 0.8624 0.74912 0.0
H1610 H 0.52186 0.85023 0.70733 0.0
H1611 H 0.4994 0.83139 0.73737 0.0
S1612 S 0.47142 0.92496 0.74696 0.0
N1613 N 0.49061 0.92035 0.72652 0.0
N1614 N 0.46656 0.89959 0.75874 0.0
C1615 C 0.48108 0.88619 0.74619 0.0
C1616 C 0.49409 0.89735 0.72864 0.0
C1617 C 0.40407 0.24337 0.98989 0.0
C1618 C 0.39281 0.22486 1.00071 0.0
C1619 C 0.39309 0.25632 0.97272 0.0
C1620 C 0.37034 0.25144 0.96603 0.0
H1621 H 0.42199 0.24688 0.99352 0.0
H1622 H 0.40285 0.26958 0.96396 0.0
S1623 S 0.33237 0.20676 0.99195 0.0
N1624 N 0.35715 0.20377 0.0055 0.0
N1625 N 0.33613 0.2282 0.97369 0.0
C1626 C 0.35834 0.23407 0.97815 0.0
C1627 C 0.36969 0.22072 0.99535 0.0
C1628 C 0.03243 0.87389 0.25712 0.0
C1629 C 0.02874 0.85103 0.25031 0.0
C1630 C 0.01981 0.88366 0.27515 0.0
C1631 C 0.00336 0.87078 0.28761 0.0
H1632 H 0.04596 0.88397 0.24917 0.0
H1633 H 0.02415 0.90107 0.28022 0.0
S1634 S 0.98551 0.8108 0.27474 0.0
N1635 N 0.0059 0.81635 0.25572 0.0
N1636 N 0.98253 0.83454 0.29012 0.0
C1637 C 0.99844 0.84834 0.27994 0.0
C1638 C 0.01104 0.83851 0.26117 0.0
C1639 C 0.39333 0.74356 0.5343 0.0
C1640 C 0.37045 0.74942 0.53966 0.0
C1641 C 0.4057 0.7557 0.51749 0.0
C1642 C 0.39575 0.77435 0.5057 0.0
H1643 H 0.40217 0.73027 0.54394 0.0
H1644 H 0.42365 0.75151 0.51491 0.0
S1645 S 0.33541 0.79424 0.51018 0.0
N1646 N 0.33743 0.77329 0.52927 0.0
N1647 N 0.36105 0.79616 0.49809 0.0
C1648 C 0.37246 0.77924 0.5095 0.0
C1649 C 0.3597 0.76672 0.52634 0.0
C1650 C 0.48974 0.15864 0.76494 0.0
C1651 C 0.47166 0.1473 0.7535 0.0
C1652 C 0.50282 0.14735 0.7818 0.0
C1653 C 0.49847 0.12424 0.78757 0.0
H1654 H 0.49279 0.17679 0.762 0.0
H1655 H 0.51572 0.15713 0.79107 0.0
S1656 S 0.45511 0.08612 0.75963 0.0
N1657 N 0.45161 0.11134 0.74705 0.0
N1658 N 0.47622 0.08974 0.77829 0.0
C1659 C 0.48154 0.11226 0.77479 0.0
C1660 C 0.46808 0.12391 0.75791 0.0
C1661 C 0.08976 0.23917 0.02734 0.0
C1662 C 0.1018 0.22951 0.00871 0.0
C1663 C 0.10089 0.25331 0.04338 0.0
C1664 C 0.1246 0.25786 0.04159 0.0
H1665 H 0.07196 0.2346 0.03039 0.0
H1666 H 0.09121 0.25909 0.05824 0.0
S1667 S 0.16299 0.23905 0.99398 0.0
N1668 N 0.13783 0.22729 0.98782 0.0
N1669 N 0.15902 0.25389 0.01792 0.0
C1670 C 0.13634 0.24981 0.02189 0.0
C1671 C 0.12488 0.23554 0.00547 0.0
C1672 C 0.2437 0.03561 0.11148 0.0
C1673 C 0.24683 0.03797 0.13536 0.0
C1674 C 0.22814 0.01951 0.10249 0.0
C1675 C 0.21494 0.00518 0.11701 0.0
H1676 H 0.2521 0.04729 0.09962 0.0
H1677 H 0.22535 0.01953 0.08405 0.0
S1678 S 0.22083 1.00061 0.18041 0.0
N1679 N 0.2386 0.02151 0.17303 0.0
N1680 N 0.20917 0.99157 0.15614 0.0
C1681 C 0.21977 0.0056 0.14069 0.0
C1682 C 0.23573 0.02192 0.14985 0.0
C1683 C 0.22491 0.99693 0.37912 0.0
C1684 C 0.2292 0.00212 0.40229 0.0
C1685 C 0.23763 0.98002 0.36765 0.0
C1686 C 0.25474 0.96713 0.37912 0.0
H1687 H 0.21081 0.00518 0.37012 0.0
H1688 H 0.23284 0.97605 0.35007 0.0
S1689 S 0.27418 0.97609 0.43931 0.0
N1690 N 0.25315 0.9949 0.4358 0.0
N1691 N 0.27681 0.96256 0.41442 0.0
C1692 C 0.26023 0.97329 0.4019 0.0
C1693 C 0.24752 0.99093 0.41344 0.0
C1694 C 0.26761 0.97741 0.59897 0.0
C1695 C 0.27678 0.9963 0.61103 0.0
C1696 C 0.25246 0.96199 0.60959 0.0
C1697 C 0.24641 0.96459 0.63287 0.0
H1698 H 0.27321 0.97376 0.58155 0.0
H1699 H 0.24711 0.94691 0.60001 0.0
S1700 S 0.26345 0.01303 0.67097 0.0
N1701 N 0.27683 0.01834 0.64644 0.0
N1702 N 0.24857 0.98916 0.66678 0.0
C1703 C 0.25401 0.9845 0.64452 0.0
C1704 C 0.26919 1.00042 0.63351 0.0
C1705 C 0.27378 0.02737 0.85491 0.0
C1706 C 0.25045 0.03032 0.86059 0.0
C1707 C 0.28774 0.01225 0.86723 0.0
C1708 C 0.27897 0.99949 0.88579 0.0
H1709 H 0.28159 0.03753 0.84135 0.0
H1710 H 0.30586 0.01137 0.86287 0.0
S1711 S 0.21855 0.99931 0.9063 0.0
N1712 N 0.21861 0.01788 0.88472 0.0
N1713 N 0.24513 0.98937 0.90826 0.0
C1714 C 0.25531 1.00097 0.89069 0.0
C1715 C 0.24095 0.01644 0.87798 0.0
C1716 C 0.64785 0.28615 0.00651 0.0
C1717 C 0.6237 0.2864 0.00848 0.0
C1718 C 0.65904 0.26936 0.99325 0.0
C1719 C 0.64651 0.25211 0.98181 0.0
H1720 H 0.65807 0.30005 0.01357 0.0
H1721 H 0.6774 0.271 0.99045 0.0
S1722 S 0.58377 0.24233 0.98482 0.0
N1723 N 0.58817 0.26549 1.00071 0.0
N1724 N 0.60938 0.23443 0.97538 0.0
C1725 C 0.6228 0.25076 0.98541 0.0
C1726 C 0.61134 0.26775 0.99896 0.0
C1727 C 0.97974 0.41331 0.2363 0.0
C1728 C 0.99765 0.40034 0.22652 0.0
C1729 C 0.96296 0.40296 0.25017 0.0
C1730 C 0.96317 0.37909 0.25427 0.0
H1731 H 0.97782 0.43135 0.23204 0.0
H1732 H 0.94879 0.41349 0.25616 0.0
S1733 S 0.0082 0.33815 0.23441 0.0
N1734 N 0.01604 0.36313 0.22334 0.0
N1735 N 0.98461 0.34333 0.24942 0.0
C1736 C 0.98211 0.3663 0.24595 0.0
C1737 C 0.99929 0.37699 0.23197 0.0
C1738 C 0.86538 0.71607 0.49711 0.0
C1739 C 0.88901 0.71554 0.50217 0.0
C1740 C 0.85661 0.73111 0.48043 0.0
C1741 C 0.87115 0.74613 0.46799 0.0
H1742 H 0.85378 0.7036 0.50471 0.0
H1743 H 0.83853 0.72965 0.47617 0.0
S1744 S 0.93315 0.75592 0.47952 0.0
N1745 N 0.92584 0.73487 0.49715 0.0
N1746 N 0.9095 0.76264 0.46528 0.0
C1747 C 0.89429 0.74762 0.4748 0.0
C1748 C 0.90317 0.73247 0.49203 0.0
C1749 C 0.01454 0.62816 0.26561 0.0
C1750 C 0.00578 0.6079 0.27555 0.0
C1751 C 1.00077 0.64158 0.25083 0.0
C1752 C 0.97808 0.63486 0.24562 0.0
H1753 H 0.03127 0.63462 0.27073 0.0
H1754 H 0.00715 0.65815 0.24511 0.0
S1755 S 0.94899 0.58112 0.26387 0.0
N1756 N 0.97435 0.58027 0.27661 0.0
N1757 N 0.94885 0.6052 0.24882 0.0
C1758 C 0.97016 0.61355 0.25367 0.0
C1759 C 0.98395 0.6001 0.26868 0.0
C1760 C 0.50215 0.37699 0.77636 0.0
C1761 C 0.49727 0.40031 0.77268 0.0
C1762 C 0.51944 0.36589 0.76386 0.0
C1763 C 0.53307 0.37788 0.74767 0.0
H1764 H 0.49341 0.36761 0.78991 0.0
H1765 H 0.52314 0.34815 0.76823 0.0
S1766 S 0.52485 0.43863 0.72971 0.0
N1767 N 0.50532 0.4345 0.74995 0.0
N1768 N 0.53842 0.41381 0.72677 0.0
C1769 C 0.52708 0.40078 0.74256 0.0
C1770 C 0.50904 0.41197 0.75502 0.0
C1771 C 0.49929 0.64351 0.71465 0.0
C1772 C 0.50319 0.62026 0.70922 0.0
C1773 C 0.51215 0.6546 0.73176 0.0
C1774 C 0.5294 0.64291 0.74406 0.0
H1775 H 0.48692 0.65354 0.70496 0.0
H1776 H 0.5096 0.67285 0.73422 0.0
S1777 S 0.54517 0.5815 0.73827 0.0
N1778 N 0.5247 0.58546 0.71898 0.0
N1779 N 0.54869 0.60663 0.75105 0.0
C1780 C 0.53275 0.61947 0.73972 0.0
C1781 C 0.51961 0.60803 0.7224 0.0
C1782 C 0.84778 0.28292 0.02973 0.0
C1783 C 0.85315 0.25996 0.02428 0.0
C1784 C 0.85594 0.30112 0.01628 0.0
C1785 C 0.8705 0.29705 0.99745 0.0
H1786 H 0.83736 0.28688 0.04468 0.0
H1787 H 0.85172 0.31852 0.02141 0.0
S1788 S 0.88674 0.2401 0.97393 0.0
N1789 N 0.87114 0.23397 0.99694 0.0
N1790 N 0.88805 0.2685 0.97248 0.0
C1791 C 0.87512 0.27419 0.99111 0.0
C1792 C 0.86602 0.25553 0.00433 0.0
C1793 C 0.64758 0.71219 0.5111 0.0
C1794 C 0.62439 0.71105 0.50443 0.0
C1795 C 0.65504 0.72842 0.5273 0.0
C1796 C 0.63956 0.74404 0.53768 0.0
H1797 H 0.65981 0.69948 0.50504 0.0
H1798 H 0.67281 0.72753 0.53285 0.0
S1799 S 0.57826 0.75188 0.5219 0.0
N1800 N 0.58696 0.72996 0.50604 0.0
N1801 N 0.6009 0.75989 0.53711 0.0
C1802 C 0.61687 0.74461 0.52946 0.0
C1803 C 0.60933 0.72829 0.51266 0.0
C1804 C 0.73032 0.50578 0.61512 0.0
C1805 C 0.7094 0.50228 0.62704 0.0
C1806 C 0.74843 0.51853 0.62493 0.0
C1807 C 0.74613 0.52825 0.64691 0.0
H1808 H 0.73247 0.49921 0.59779 0.0
H1809 H 0.76394 0.52144 0.615 0.0
S1810 S 0.6954 0.52428 0.68544 0.0
N1811 N 0.68801 0.5094 0.6624 0.0
N1812 N 0.72176 0.53353 0.68039 0.0
C1813 C 0.72568 0.52446 0.6592 0.0
C1814 C 0.70739 0.51136 0.64941 0.0
C1815 C 0.75323 0.46196 0.89645 0.0
C1816 C 0.75793 0.46341 0.87273 0.0
C1817 C 0.73944 0.47841 0.90736 0.0
C1818 C 0.73033 0.49716 0.89512 0.0
H1819 H 0.75852 0.44704 0.9063 0.0
H1820 H 0.73453 0.47549 0.92509 0.0
S1821 S 0.74081 0.51131 0.83396 0.0
N1822 N 0.75501 0.48704 0.83818 0.0
N1823 N 0.72893 0.51786 0.85896 0.0
C1824 C 0.73661 0.50009 0.87207 0.0
C1825 C 0.75057 0.48327 0.86083 0.0
C1826 C 0.766 0.47491 0.14094 0.0
C1827 C 0.74831 0.46403 0.12831 0.0
C1828 C 0.77922 0.4926 0.13131 0.0
C1829 C 0.77484 0.50064 0.109 0.0
H1830 H 0.77081 0.46878 0.15787 0.0
H1831 H 0.79373 0.49924 0.14097 0.0
S1832 S 0.72886 0.48029 0.06971 0.0
N1833 N 0.72592 0.46414 0.09294 0.0
N1834 N 0.75049 0.49791 0.07515 0.0
C1835 C 0.75612 0.4913 0.09684 0.0
C1836 C 0.74291 0.47287 0.10643 0.0
C1837 C 0.7701 0.52208 0.40773 0.0
C1838 C 0.78093 0.50419 0.39555 0.0
C1839 C 0.75576 0.5379 0.39657 0.0
C1840 C 0.7522 0.53677 0.37265 0.0
H1841 H 0.7738 0.5247 0.42582 0.0
H1842 H 0.74893 0.55209 0.40654 0.0
S1843 S 0.77494 0.49149 0.33351 0.0
N1844 N 0.78565 0.4848 0.35897 0.0
N1845 N 0.75889 0.51459 0.33763 0.0
C1846 C 0.76164 0.51785 0.36061 0.0
C1847 C 0.77602 0.50156 0.37214 0.0
C1848 C 0.10599 0.22932 0.17199 0.0
C1849 C 0.1292 0.2269 0.16575 0.0
C1850 C 0.09846 0.22415 0.19428 0.0
C1851 C 0.1138 0.21624 0.21129 0.0
H1852 H 0.09346 0.23482 0.15934 0.0
H1853 H 0.08021 0.22536 0.19792 0.0
S1854 S 0.17651 0.20757 0.20404 0.0
N1855 N 0.16775 0.21683 0.1786 0.0
N1856 N 0.15343 0.20691 0.22062 0.0
C1857 C 0.13726 0.21471 0.20566 0.0
C1858 C 0.145 0.22005 0.18284 0.0
C1859 C 0.05594 0.86243 0.4199 0.0
C1860 C 0.03378 0.87127 0.41605 0.0
C1861 C 0.06366 0.8573 0.44208 0.0
C1862 C 0.0497 0.86094 0.46156 0.0
H1863 H 0.06755 0.85942 0.40564 0.0
H1864 H 0.08082 0.85024 0.44395 0.0
S1865 S 0.99038 0.88413 0.46129 0.0
N1866 N 0.99787 0.88367 0.43384 0.0
N1867 N 0.01284 0.87442 0.4758 0.0
C1868 C 0.02777 0.87045 0.45825 0.0
C1869 C 0.0197 0.87551 0.43544 0.0
C1870 C 0.36059 0.78379 0.6811 0.0
C1871 C 0.3756 0.77642 0.66351 0.0
C1872 C 0.36913 0.79034 0.70283 0.0
C1873 C 0.39287 0.78952 0.70752 0.0
H1874 H 0.34239 0.78573 0.67759 0.0
H1875 H 0.35737 0.79755 0.71536 0.0
S1876 S 0.43841 0.7672 0.66866 0.0
N1877 N 0.41458 0.76567 0.65326 0.0
N1878 N 0.43066 0.77771 0.69392 0.0
C1879 C 0.40763 0.78031 0.69066 0.0
C1880 C 0.399 0.77388 0.66866 0.0
C1881 C 0.46231 0.11495 0.95344 0.0
C1882 C 0.4617 0.13852 0.95905 0.0
C1883 C 0.46864 0.1076 0.93114 0.0
C1884 C 0.47438 0.12364 0.91382 0.0
H1885 H 0.45657 0.10226 0.96583 0.0
H1886 H 0.46793 0.08943 0.92707 0.0
S1887 S 0.47914 0.18681 0.92098 0.0
N1888 N 0.47014 0.17748 0.94628 0.0
N1889 N 0.48181 0.16367 0.9047 0.0
C1890 C 0.47527 0.14701 0.91976 0.0
C1891 C 0.46903 0.15443 0.94231 0.0
C1892 C 0.13283 0.76992 0.32356 0.0
C1893 C 0.13459 0.78701 0.34076 0.0
C1894 C 0.12632 0.77559 0.30085 0.0
C1895 C 0.12139 0.79848 0.29483 0.0
H1896 H 0.13558 0.75202 0.32794 0.0
H1897 H 0.12404 0.76195 0.28834 0.0
S1898 S 0.12695 0.84983 0.33245 0.0
N1899 N 0.13399 0.82797 0.34914 0.0
N1900 N 0.12051 0.8384 0.30726 0.0
C1901 C 0.12422 0.81571 0.31159 0.0
C1902 C 0.13118 0.81004 0.33436 0.0
C1903 C 0.47203 0.84573 0.56278 0.0
C1904 C 0.4692 0.86045 0.54369 0.0
C1905 C 0.47903 0.85409 0.58424 0.0
C1906 C 0.48372 0.87754 0.58768 0.0
H1907 H 0.46784 0.82761 0.56146 0.0
H1908 H 0.4802 0.84215 0.59851 0.0
S1909 S 0.48187 0.92297 0.54268 0.0
N1910 N 0.47378 0.89935 0.52906 0.0
N1911 N 0.48693 0.91522 0.56957 0.0
C1912 C 0.48248 0.89231 0.56841 0.0
C1913 C 0.47527 0.88372 0.54638 0.0
C1914 C 0.3549 0.22388 0.82193 0.0
C1915 C 0.37115 0.22982 0.83895 0.0
C1916 C 0.36196 0.21751 0.79959 0.0
C1917 C 0.38544 0.21716 0.79367 0.0
H1918 H 0.3368 0.22296 0.82631 0.0
H1919 H 0.34917 0.2114 0.78747 0.0
S1920 S 0.43411 0.23518 0.83095 0.0
N1921 N 0.41118 0.23764 0.84757 0.0
N1922 N 0.42451 0.2261 0.80578 0.0
C1923 C 0.40154 0.2248 0.8101 0.0
C1924 C 0.39439 0.23098 0.83271 0.0
C1925 C 0.03597 0.11455 0.05324 0.0
C1926 C 0.02908 0.13619 0.0449 0.0
C1927 C 0.02999 0.10744 0.07563 0.0
C1928 C 0.01711 0.12184 0.09032 0.0
H1929 H 0.04765 0.10397 0.04326 0.0
H1930 H 0.03677 0.09129 0.08201 0.0
S1931 S 0.99142 0.17812 0.07476 0.0
N1932 N 0.0063 0.17051 0.05175 0.0
N1933 N 0.99474 0.15702 0.09352 0.0
C1934 C 0.0085 0.14255 0.08133 0.0
C1935 C 0.01455 0.14973 0.05866 0.0
C1936 C 0.20056 0.12084 0.23433 0.0
C1937 C 0.20861 0.12561 0.212 0.0
C1938 C 0.1779 0.12648 0.24086 0.0
C1939 C 0.16249 0.1363 0.22499 0.0
H1940 H 0.21139 0.1116 0.24636 0.0
H1941 H 0.17198 0.12206 0.25798 0.0
S1942 S 0.17549 0.15348 0.16507 0.0
N1943 N 0.1997 0.14205 0.17464 0.0
N1944 N 0.15715 0.15205 0.18676 0.0
C1945 C 0.17059 0.14197 0.20302 0.0
C1946 C 0.19366 0.13672 0.19656 0.0
C1947 C 0.14922 0.92639 0.49087 0.0
C1948 C 0.12751 0.91687 0.48594 0.0
C1949 C 0.1553 0.94838 0.48306 0.0
C1950 C 0.13982 0.9619 0.47031 0.0
H1951 H 0.16184 0.91652 0.50037 0.0
H1952 H 0.17262 0.95451 0.48628 0.0
S1953 S 0.08085 0.94523 0.45267 0.0
N1954 N 0.09044 0.92284 0.46733 0.0
N1955 N 0.10173 0.96451 0.45339 0.0
C1956 C 0.1177 0.95313 0.46611 0.0
C1957 C 0.11157 0.93052 0.47374 0.0
C1958 C 0.33537 0.89963 0.72866 0.0
C1959 C 0.34176 0.87639 0.72797 0.0
C1960 C 0.3128 0.90641 0.72387 0.0
C1961 C 0.29572 0.89024 0.71794 0.0
H1962 H 0.34813 0.91273 0.73228 0.0
H1963 H 0.30899 0.92467 0.72366 0.0
S1964 S 0.30337 0.827 0.71507 0.0
N1965 N 0.32903 0.83693 0.72228 0.0
N1966 N 0.28645 0.84977 0.71295 0.0
C1967 C 0.3015 0.86678 0.71848 0.0
C1968 C 0.3246 0.85983 0.72352 0.0
C1969 C 0.35377 0.07765 0.98508 0.0
C1970 C 0.37675 0.08478 0.98275 0.0
C1971 C 0.34685 0.05556 0.97842 0.0
C1972 C 0.36262 0.03967 0.96915 0.0
H1973 H 0.34084 0.08954 0.99129 0.0
H1974 H 0.32868 0.0514 0.97918 0.0
S1975 S 0.42529 0.04882 0.96183 0.0
N1976 N 0.41572 0.07343 0.97233 0.0
N1977 N 0.4026 0.03177 0.95994 0.0
C1978 C 0.38596 0.04584 0.96841 0.0
C1979 C 0.39305 0.06848 0.97514 0.0
C1980 C 0.18854 0.90863 0.29011 0.0
C1981 C 0.20833 0.89458 0.28987 0.0
C1982 C 0.16786 0.90152 0.28013 0.0
C1983 C 0.16587 0.88002 0.26927 0.0
H1984 H 0.18874 0.92525 0.29856 0.0
H1985 H 0.15309 0.91277 0.28157 0.0
S1986 S 0.21307 0.83736 0.26206 0.0
N1987 N 0.22495 0.85848 0.27692 0.0
N1988 N 0.18618 0.84528 0.25734 0.0
C1989 C 0.18573 0.866 0.26815 0.0
C1990 C 0.20691 0.87325 0.27857 0.0
C1991 C 0.35425 0.94475 0.52082 0.0
C1992 C 0.36818 0.95988 0.53359 0.0
C1993 C 0.36163 0.92246 0.51547 0.0
C1994 C 0.38323 0.91437 0.52271 0.0
H1995 H 0.3368 0.94963 0.51636 0.0
H1996 H 0.34994 0.9111 0.50642 0.0
S1997 S 0.42699 0.9479 0.55491 0.0
N1998 N 0.40524 0.96592 0.55184 0.0
N1999 N 0.41921 0.92384 0.54186 0.0
C2000 C 0.39805 0.92988 0.53401 0.0
C2001 C 0.39051 0.95272 0.53939 0.0
C2002 C 0.29405 0.14173 0.78934 0.0
C2003 C 0.28442 0.12049 0.78286 0.0
C2004 C 0.31648 0.1478 0.78243 0.0
C2005 C 0.32996 0.13274 0.76898 0.0
H2006 H 0.28509 0.15273 0.80145 0.0
H2007 H 0.32387 0.16363 0.78893 0.0
S2008 S 0.31074 0.07719 0.74411 0.0
N2009 N 0.28875 0.08587 0.75992 0.0
N2010 N 0.33056 0.09743 0.74657 0.0
C2011 C 0.31965 0.11246 0.76077 0.0
C2012 C 0.29694 0.10634 0.76778 0.0
C2013 C 0.11134 0.04929 0.03835 0.0
C2014 C 0.13454 0.04339 0.03482 0.0
C2015 C 0.10365 0.07195 0.03448 0.0
C2016 C 0.11903 0.08924 0.02722 0.0
H2017 H 0.09955 0.03688 0.04572 0.0
H2018 H 0.08598 0.07633 0.03851 0.0
S2019 S 0.18016 0.08149 0.01133 0.0
N2020 N 0.17182 0.05584 0.02031 0.0
N2021 N 0.15734 0.09829 0.01356 0.0
C2022 C 0.14166 0.08307 0.02188 0.0
C2023 C 0.14939 0.06012 0.02547 0.0
C2024 C 0.2237 0.16895 0.10369 0.0
C2025 C 0.22959 0.16471 0.12669 0.0
C2026 C 0.21658 0.19075 0.09647 0.0
C2027 C 0.21473 0.20932 0.11201 0.0
H2028 H 0.22401 0.15506 0.09125 0.0
H2029 H 0.21153 0.19273 0.07863 0.0
S2030 S 0.2305 0.20808 0.17378 0.0
N2031 N 0.23499 0.1815 0.1648 0.0
N2032 N 0.22134 0.22256 0.1511 0.0
C2033 C 0.2219 0.20579 0.13481 0.0
C2034 C 0.22937 0.18346 0.1422 0.0
C2035 C 0.7175 0.31695 0.90634 0.0
C2036 C 0.71448 0.29786 0.89163 0.0
C2037 C 0.7238 0.33854 0.89784 0.0
C2038 C 0.7277 0.34204 0.87428 0.0
H2039 H 0.71395 0.31557 0.9246 0.0
H2040 H 0.72516 0.35279 0.90977 0.0
S2041 S 0.72559 0.29711 0.82882 0.0
N2042 N 0.71829 0.28333 0.8526 0.0
N2043 N 0.7303 0.32407 0.83648 0.0
C2044 C 0.7264 0.3228 0.85949 0.0
C2045 C 0.71979 0.30067 0.86821 0.0
C2046 C 0.95463 0.47113 0.11381 0.0
C2047 C 0.96224 0.47476 0.1365 0.0
C2048 C 0.93219 0.47747 0.10716 0.0
C2049 C 0.91684 0.48741 0.12309 0.0
H2050 H 0.96519 0.46153 0.10183 0.0
H2051 H 0.92625 0.47303 0.09006 0.0
S2052 S 0.93016 0.5046 0.18296 0.0
N2053 N 0.95396 0.49213 0.17366 0.0
N2054 N 0.91193 0.50375 0.16116 0.0
C2055 C 0.92506 0.49305 0.14503 0.0
C2056 C 0.94779 0.48687 0.1517 0.0
C2057 C 0.78434 0.67833 0.35636 0.0
C2058 C 0.77735 0.66091 0.37174 0.0
C2059 C 0.78971 0.70063 0.36435 0.0
C2060 C 0.78803 0.70611 0.3879 0.0
H2061 H 0.78681 0.67434 0.33831 0.0
H2062 H 0.79656 0.71312 0.35232 0.0
S2063 S 0.76636 0.66766 0.43415 0.0
N2064 N 0.76617 0.65146 0.41079 0.0
N2065 N 0.77589 0.69311 0.42582 0.0
C2066 C 0.77927 0.68926 0.40297 0.0
C2067 C 0.77408 0.6667 0.39491 0.0
C2068 C 0.06496 0.03415 0.15617 0.0
C2069 C 0.04603 0.0378 0.14144 0.0
C2070 C 0.08679 0.02874 0.1475 0.0
C2071 C 0.09062 0.02654 0.12376 0.0
H2072 H 0.06313 0.0363 0.17461 0.0
H2073 H 0.10094 0.02661 0.15945 0.0
S2074 S 0.04698 0.03402 0.07773 0.0
N2075 N 0.03254 0.03837 0.10185 0.0
N2076 N 0.07366 0.02806 0.08554 0.0
C2077 C 0.07173 0.02926 0.10881 0.0
C2078 C 0.0494 0.03487 0.11766 0.0
C2079 C 0.28685 0.80165 0.64071 0.0
C2080 C 0.28568 0.79553 0.6173 0.0
C2081 C 0.28056 0.82392 0.64804 0.0
C2082 C 0.27318 0.84072 0.63217 0.0
H2083 H 0.29396 0.78972 0.65315 0.0
H2084 H 0.28257 0.8284 0.666 0.0
S2085 S 0.2636 0.83209 0.56975 0.0
N2086 N 0.27385 0.8072 0.57886 0.0
N2087 N 0.26243 0.84883 0.59269 0.0
C2088 C 0.27059 0.83428 0.60908 0.0
C2089 C 0.27671 0.81172 0.60165 0.0
C2090 C 0.9358 0.53781 0.40098 0.0
C2091 C 0.91823 0.52876 0.38698 0.0
C2092 C 0.95803 0.54172 0.39207 0.0
C2093 C 0.96325 0.53649 0.36896 0.0
H2094 H 0.93189 0.54316 0.4184 0.0
H2095 H 0.97054 0.55054 0.40273 0.0
S2096 S 0.92385 0.50934 0.32663 0.0
N2097 N 0.90799 0.51252 0.35002 0.0
N2098 N 0.94961 0.5194 0.33325 0.0
C2099 C 0.94618 0.52576 0.35552 0.0
C2100 C 0.92366 0.52207 0.3645 0.0
C2101 C 0.55066 0.46527 0.88221 0.0
C2102 C 0.54509 0.46498 0.85865 0.0
C2103 C 0.57323 0.47019 0.88955 0.0
C2104 C 0.59086 0.47482 0.87353 0.0
H2105 H 0.53797 0.46026 0.89493 0.0
H2106 H 0.57721 0.46915 0.90773 0.0
S2107 S 0.58411 0.4803 0.81038 0.0
N2108 N 0.55831 0.47281 0.81967 0.0
N2109 N 0.60051 0.48188 0.83354 0.0
C2110 C 0.58506 0.4762 0.85016 0.0
C2111 C 0.5622 0.47137 0.84271 0.0
C2112 C 0.63072 0.69058 0.69194 0.0
C2113 C 0.62342 0.70678 0.70836 0.0
C2114 C 0.6379 0.6974 0.66998 0.0
C2115 C 0.63794 0.72072 0.66355 0.0
H2116 H 0.62993 0.67234 0.69577 0.0
H2117 H 0.64297 0.68428 0.65775 0.0
S2118 S 0.62107 0.76993 0.70059 0.0
N2119 N 0.61725 0.74711 0.71715 0.0
N2120 N 0.63089 0.76014 0.67573 0.0
C2121 C 0.63164 0.73722 0.68018 0.0
C2122 C 0.62427 0.73019 0.70263 0.0
C2123 C 0.55155 0.35309 0.9321 0.0
C2124 C 0.54334 0.36272 0.95282 0.0
C2125 C 0.54371 0.36066 0.91066 0.0
C2126 C 0.52723 0.37821 0.90879 0.0
H2127 H 0.56439 0.33958 0.93231 0.0
H2128 H 0.55081 0.35277 0.89533 0.0
S2129 S 0.49942 0.40873 0.95763 0.0
N2130 N 0.51752 0.3907 0.97012 0.0
N2131 N 0.50233 0.40471 0.92962 0.0
C2132 C 0.51878 0.38813 0.9293 0.0
C2133 C 0.52694 0.38044 0.95133 0.0
C2134 C 0.87393 0.2787 0.20217 0.0
C2135 C 0.88583 0.29962 0.20471 0.0
C2136 C 0.86741 0.27076 0.18012 0.0
C2137 C 0.87262 0.28355 0.16011 0.0
H2138 H 0.87056 0.26801 0.21707 0.0
H2139 H 0.85908 0.25415 0.17859 0.0
S2140 S 0.89961 0.34127 0.15808 0.0
N2141 N 0.89988 0.33418 0.18558 0.0
N2142 N 0.88742 0.31938 0.14471 0.0
C2143 C 0.88309 0.30509 0.16273 0.0
C2144 C 0.88973 0.31309 0.1849 0.0
C2145 C 0.98604 0.63167 0.45202 0.0
C2146 C 0.96369 0.62871 0.46081 0.0
C2147 C 0.99122 0.62582 0.42906 0.0
C2148 C 0.97403 0.61743 0.41418 0.0
H2149 H 0.99918 0.63976 0.4625 0.0
H2150 H 0.00839 0.629 0.42252 0.0
S2151 S 0.91346 0.60487 0.42942 0.0
N2152 N 0.92474 0.61575 0.45312 0.0
N2153 N 0.93458 0.60436 0.41041 0.0
C2154 C 0.95204 0.61331 0.42315 0.0
C2155 C 0.94684 0.61913 0.44636 0.0
C2156 C 0.60204 0.28618 0.83991 0.0
C2157 C 0.62557 0.2829 0.8442 0.0
C2158 C 0.5941 0.29195 0.81793 0.0
C2159 C 0.60936 0.29486 0.79928 0.0
H2160 H 0.5897 0.28468 0.8538 0.0
H2161 H 0.57582 0.29498 0.81577 0.0
S2162 S 0.67256 0.2872 0.80106 0.0
N2163 N 0.66409 0.28204 0.82773 0.0
N2164 N 0.649 0.29297 0.78629 0.0
C2165 C 0.63283 0.29061 0.80301 0.0
C2166 C 0.64098 0.28464 0.82551 0.0
C2167 C 0.96599 0.3528 0.06013 0.0
C2168 C 0.96094 0.36835 0.04221 0.0
C2169 C 0.97177 0.36052 0.08218 0.0
C2170 C 0.97301 0.38409 0.08718 0.0
H2171 H 0.96434 0.33442 0.05744 0.0
H2172 H 0.97463 0.34796 0.09565 0.0
S2173 S 0.96313 0.43197 0.04614 0.0
N2174 N 0.95886 0.40848 0.03064 0.0
N2175 N 0.97015 0.42304 0.07222 0.0
C2176 C 0.96948 0.39989 0.06915 0.0
C2177 C 0.96339 0.392 0.04659 0.0
C2178 C 0.90821 0.71854 0.31489 0.0
C2179 C 0.89316 0.71266 0.29679 0.0
C2180 C 0.89994 0.72388 0.33687 0.0
C2181 C 0.87629 0.72383 0.34159 0.0
H2182 H 0.92668 0.71794 0.31237 0.0
H2183 H 0.91214 0.72758 0.35046 0.0
S2184 S 0.82948 0.71079 0.30018 0.0
N2185 N 0.85333 0.708 0.2849 0.0
N2186 N 0.83773 0.71842 0.3263 0.0
C2187 C 0.86091 0.71922 0.32343 0.0
C2188 C 0.86936 0.7136 0.30097 0.0
C2189 C 0.53701 0.611 0.54435 0.0
C2190 C 0.53528 0.63419 0.5376 0.0
C2191 C 0.52996 0.60404 0.56649 0.0
C2192 C 0.52125 0.62013 0.5824 0.0
H2193 H 0.54546 0.59863 0.53324 0.0
H2194 H 0.53265 0.58636 0.57173 0.0
S2195 S 0.50978 0.68179 0.57174 0.0
N2196 N 0.52137 0.67242 0.54751 0.0
N2197 N 0.50869 0.65927 0.58907 0.0
C2198 C 0.51789 0.64283 0.57522 0.0
C2199 C 0.52472 0.64986 0.55277 0.0
C2200 C 0.67702 0.60277 0.73228 0.0
C2201 C 0.66983 0.62583 0.73097 0.0
C2202 C 0.69921 0.5962 0.72563 0.0
C2203 C 0.71531 0.61242 0.71758 0.0
H2204 H 0.66515 0.58952 0.73781 0.0
H2205 H 0.70342 0.57802 0.72564 0.0
S2206 S 0.70619 0.67535 0.71289 0.0
N2207 N 0.68132 0.66525 0.72224 0.0
N2208 N 0.72333 0.6528 0.71055 0.0
C2209 C 0.70906 0.63575 0.71779 0.0
C2210 C 0.68624 0.64249 0.72424 0.0
C2211 C 0.61701 0.44957 0.96337 0.0
C2212 C 0.6402 0.45622 0.9652 0.0
C2213 C 0.60989 0.42758 0.97063 0.0
C2214 C 0.62582 0.41167 0.97966 0.0
H2215 H 0.60473 0.46065 0.95476 0.0
H2216 H 0.59218 0.42246 0.96789 0.0
S2217 S 0.68743 0.42236 0.99166 0.0
N2218 N 0.67827 0.44638 0.97954 0.0
N2219 N 0.66484 0.40513 0.99281 0.0
C2220 C 0.64855 0.41882 0.98312 0.0
C2221 C 0.65573 0.44113 0.97602 0.0
C2222 C 0.82049 0.37911 0.23792 0.0
C2223 C 0.8379 0.3725 0.2224 0.0
C2224 C 0.79787 0.38332 0.23021 0.0
C2225 C 0.792 0.38042 0.20691 0.0
H2226 H 0.8247 0.38212 0.25582 0.0
H2227 H 0.78531 0.39007 0.24223 0.0
S2228 S 0.83074 0.36045 0.16023 0.0
N2229 N 0.84725 0.36108 0.18335 0.0
N2230 N 0.80504 0.36901 0.16887 0.0
C2231 C 0.80901 0.3725 0.19165 0.0
C2232 C 0.83191 0.36846 0.1994 0.0
C2233 C 0.85873 0.58096 0.49109 0.0
C2234 C 0.88202 0.58699 0.48974 0.0
C2235 C 0.85129 0.55888 0.48509 0.0
C2236 C 0.8668 0.54209 0.4769 0.0
H2237 H 0.84607 0.59375 0.49597 0.0
H2238 H 0.83294 0.5555 0.4852 0.0
S2239 S 0.93006 0.54849 0.47248 0.0
N2240 N 0.92104 0.57366 0.48215 0.0
N2241 N 0.9068 0.53237 0.46973 0.0
C2242 C 0.89038 0.54728 0.47711 0.0
C2243 C 0.89805 0.56975 0.48372 0.0
C2244 C 0.67691 0.36218 0.78204 0.0
C2245 C 0.66044 0.37869 0.77531 0.0
C2246 C 0.69957 0.36869 0.78778 0.0
C2247 C 0.70642 0.39189 0.78679 0.0
H2248 H 0.67195 0.34431 0.78391 0.0
H2249 H 0.7113 0.35574 0.79427 0.0
S2250 S 0.67086 0.44099 0.76661 0.0
N2251 N 0.65337 0.41862 0.76543 0.0
N2252 N 0.69567 0.43091 0.77609 0.0
C2253 C 0.69048 0.40823 0.77866 0.0
C2254 C 0.66755 0.40163 0.77298 0.0
C2255 C 0.89353 0.43658 0.03004 0.0
C2256 C 0.87738 0.42089 0.02108 0.0
C2257 C 0.8867 0.45872 0.03726 0.0
C2258 C 0.86358 0.46567 0.0354 0.0
H2259 H 0.9111 0.43113 0.03291 0.0
H2260 H 0.89907 0.4696 0.04599 0.0
S2261 S 0.81588 0.43221 0.00929 0.0
N2262 N 0.83826 0.41473 0.00813 0.0
N2263 N 0.82539 0.45623 0.02116 0.0
C2264 C 0.84789 0.45077 0.02454 0.0
C2265 C 0.85477 0.42834 0.01755 0.0
C2266 C 0.80287 0.63427 0.28519 0.0
C2267 C 0.79704 0.61079 0.28405 0.0
C2268 C 0.82533 0.64173 0.27982 0.0
C2269 C 0.84254 0.62588 0.27342 0.0
H2270 H 0.79061 0.64666 0.29182 0.0
H2271 H 0.82966 0.6597 0.28204 0.0
S2272 S 0.83488 0.56336 0.26402 0.0
N2273 N 0.80946 0.57235 0.27301 0.0
N2274 N 0.85148 0.58642 0.26335 0.0
C2275 C 0.8364 0.60276 0.27059 0.0
C2276 C 0.81366 0.59522 0.27577 0.0
C2277 C 0.61607 0.54423 0.53463 0.0
C2278 C 0.63958 0.53843 0.53376 0.0
C2279 C 0.6086 0.56655 0.52874 0.0
C2280 C 0.62447 0.58364 0.52213 0.0
H2281 H 0.60367 0.53208 0.54144 0.0
H2282 H 0.59057 0.57089 0.53067 0.0
S2283 S 0.68709 0.5761 0.51357 0.0
N2284 N 0.67809 0.55079 0.52286 0.0
N2285 N 0.66398 0.5926 0.5124 0.0
C2286 C 0.64763 0.57755 0.51969 0.0
C2287 C 0.65518 0.55494 0.5253 0.0
C2288 C 0.7211 0.68226 0.64657 0.0
C2289 C 0.73437 0.66828 0.63188 0.0
C2290 C 0.71551 0.70502 0.64044 0.0
C2291 C 0.72321 0.7144 0.61949 0.0
H2292 H 0.71375 0.67501 0.66206 0.0
H2293 H 0.70354 0.71453 0.65113 0.0
S2294 S 0.76173 0.6862 0.57714 0.0
N2295 N 0.75758 0.66646 0.59719 0.0
N2296 N 0.74693 0.709 0.58549 0.0
C2297 C 0.738 0.70117 0.60567 0.0
C2298 C 0.7436 0.67813 0.61186 0.0
C2299 C 0.22721 0.81121 0.40542 0.0
C2300 C 0.21724 0.79512 0.39026 0.0
C2301 C 0.23259 0.83357 0.39822 0.0
C2302 C 0.2284 0.84067 0.37553 0.0
H2303 H 0.22962 0.8069 0.42342 0.0
H2304 H 0.23946 0.84566 0.41063 0.0
S2305 S 0.20313 0.80528 0.32884 0.0
N2306 N 0.20396 0.78778 0.35126 0.0
N2307 N 0.21443 0.82986 0.33764 0.0
C2308 C 0.2196 0.8245 0.3598 0.0
C2309 C 0.21399 0.80166 0.36718 0.0
C2310 C 0.4485 0.943 0.62066 0.0
C2311 C 0.46252 0.96073 0.62929 0.0
C2312 C 0.4255 0.94703 0.61478 0.0
C2313 C 0.4157 0.96902 0.61706 0.0
H2314 H 0.455 0.92557 0.6196 0.0
H2315 H 0.41517 0.93274 0.60872 0.0
S2316 S 0.44534 0.02138 0.63835 0.0
N2317 N 0.46522 1.00107 0.63965 0.0
N2318 N 0.422 0.00895 0.62785 0.0
C2319 C 0.42982 0.98715 0.62474 0.0
C2320 C 0.45323 0.98292 0.63109 0.0
C2321 C 0.28607 0.20916 0.86358 0.0
C2322 C 0.2828 0.21579 0.88664 0.0
C2323 C 0.28053 0.1867 0.85632 0.0
C2324 C 0.2719 0.17037 0.87202 0.0
H2325 H 0.29466 0.22064 0.85165 0.0
H2326 H 0.28445 0.18159 0.83882 0.0
S2327 S 0.25661 0.18048 0.93299 0.0
N2328 N 0.26739 0.20526 0.92413 0.0
N2329 N 0.25757 0.16311 0.91049 0.0
C2330 C 0.26688 0.1774 0.89448 0.0
C2331 C 0.27214 0.20016 0.90177 0.0
C2332 C 0.57705 0.54842 0.61006 0.0
C2333 C 0.58645 0.52681 0.6154 0.0
C2334 C 0.55422 0.55372 0.61576 0.0
C2335 C 0.5401 0.53768 0.62714 0.0
H2336 H 0.58764 0.56146 0.60198 0.0
H2337 H 0.54808 0.57103 0.61258 0.0
S2338 S 0.55643 0.47855 0.64429 0.0
N2339 N 0.57973 0.48891 0.63164 0.0
N2340 N 0.53694 0.49926 0.64316 0.0
C2341 C 0.54903 0.51577 0.63185 0.0
C2342 C 0.57219 0.51021 0.6257 0.0
C2343 C 0.77314 0.32961 0.10037 0.0
C2344 C 0.77211 0.33568 0.12371 0.0
C2345 C 0.78055 0.30774 0.09352 0.0
C2346 C 0.78747 0.29106 0.10972 0.0
H2347 H 0.76874 0.34214 0.08729 0.0
H2348 H 0.7819 0.30426 0.07523 0.0
S2349 S 0.78742 0.29814 0.17312 0.0
N2350 N 0.77783 0.32301 0.16323 0.0
N2351 N 0.79196 0.28186 0.15025 0.0
C2352 C 0.78548 0.29647 0.1332 0.0
C2353 C 0.77781 0.31883 0.14023 0.0
C2354 C 0.4329 0.03114 0.89576 0.0
C2355 C 0.41593 0.02375 0.88013 0.0
C2356 C 0.45519 0.03696 0.88816 0.0
C2357 C 0.46108 0.03522 0.86472 0.0
H2358 H 0.42839 0.03391 0.91359 0.0
H2359 H 0.46715 0.04454 0.90029 0.0
S2360 S 0.42396 0.01241 0.81798 0.0
N2361 N 0.40734 0.01207 0.84105 0.0
N2362 N 0.44912 0.02237 0.82669 0.0
C2363 C 0.44481 0.02574 0.84946 0.0
C2364 C 0.42221 0.0202 0.85715 0.0
C2365 C 0.07185 0.93772 0.36578 0.0
C2366 C 0.05143 0.95047 0.36831 0.0
C2367 C 0.09307 0.94657 0.37274 0.0
C2368 C 0.09486 0.96866 0.38238 0.0
H2369 H 0.07148 0.92072 0.35809 0.0
H2370 H 0.10824 0.93601 0.37045 0.0
S2371 S 0.04641 0.00906 0.39279 0.0
N2372 N 0.03403 0.98606 0.38151 0.0
N2373 N 0.0742 0.00315 0.39428 0.0
C2374 C 0.07446 0.98147 0.38556 0.0
C2375 C 0.05267 0.97226 0.37861 0.0
C2376 C 0.13699 0.11781 0.38183 0.0
C2377 C 0.12623 0.09607 0.38224 0.0
C2378 C 0.13058 0.13472 0.36575 0.0
C2379 C 0.11313 0.13057 0.34947 0.0
H2380 H 0.15073 0.12167 0.39383 0.0
H2381 H 0.13952 0.15109 0.36591 0.0
S2382 S 0.08036 0.07609 0.34253 0.0
N2383 N 0.09766 0.07118 0.36452 0.0
N2384 N 0.08565 0.1028 0.33439 0.0
C2385 C 0.10206 0.10899 0.34989 0.0
C2386 C 0.10857 0.09181 0.36624 0.0
C2387 C 0.15041 0.90179 0.62038 0.0
C2388 C 0.15137 0.89016 0.64162 0.0
C2389 C 0.13394 0.89605 0.60368 0.0
C2390 C 0.11766 0.87854 0.60759 0.0
H2391 H 0.16321 0.91468 0.61616 0.0
H2392 H 0.13481 0.90458 0.58712 0.0
S2393 S 0.11058 0.84552 0.6619 0.0
N2394 N 0.13321 0.86206 0.66665 0.0
N2395 N 0.10184 0.85159 0.63553 0.0
C2396 C 0.11753 0.86781 0.62938 0.0
C2397 C 0.13449 0.87351 0.64629 0.0
C2398 C 0.4022 0.88452 0.85951 0.0
C2399 C 0.38642 0.8726 0.84541 0.0
C2400 C 0.39475 0.90064 0.87591 0.0
C2401 C 0.37122 0.90543 0.87881 0.0
H2402 H 0.42054 0.88232 0.85693 0.0
H2403 H 0.40755 0.91054 0.88516 0.0
S2404 S 0.32278 0.87651 0.84886 0.0
N2405 N 0.34607 0.86511 0.83723 0.0
N2406 N 0.33209 0.89482 0.86852 0.0
C2407 C 0.35523 0.89218 0.86631 0.0
C2408 C 0.36281 0.87587 0.84953 0.0
C2409 C 0.36727 0.10797 0.09691 0.0
C2410 C 0.38323 0.12579 0.10063 0.0
C2411 C 0.35096 0.10204 0.11375 0.0
C2412 C 0.34996 0.11361 0.13508 0.0
H2413 H 0.36658 0.09934 0.08039 0.0
H2414 H 0.33832 0.08899 0.10954 0.0
S2415 S 0.39033 0.15909 0.15467 0.0
N2416 N 0.39865 0.1533 0.1281 0.0
N2417 N 0.36824 0.14196 0.15987 0.0
C2418 C 0.36672 0.13055 0.13951 0.0
C2419 C 0.38328 0.13666 0.12229 0.0
C2420 C 0.14291 0.88589 0.15588 0.0
C2421 C 0.12668 0.86851 0.1511 0.0
C2422 C 0.14824 0.90293 0.13963 0.0
C2423 C 0.1375 0.90348 0.11791 0.0
H2424 H 0.15095 0.8869 0.17267 0.0
H2425 H 0.16034 0.91629 0.14444 0.0
S2426 S 0.09577 0.86061 0.09569 0.0
N2427 N 0.10141 0.85184 0.12214 0.0
N2428 N 0.1112 0.88418 0.09179 0.0
C2429 C 0.12181 0.88585 0.11255 0.0
C2430 C 0.11648 0.86832 0.12907 0.0
C2431 C 0.34197 0.86707 0.39003 0.0
C2432 C 0.34747 0.88373 0.37333 0.0
C2433 C 0.35785 0.86051 0.40693 0.0
C2434 C 0.38004 0.87025 0.40792 0.0
H2435 H 0.32496 0.85944 0.39047 0.0
H2436 H 0.35249 0.84799 0.41967 0.0
S2437 S 0.40373 0.9134 0.36723 0.0
N2438 N 0.37712 0.9091 0.35817 0.0
N2439 N 0.40708 0.89666 0.38998 0.0
C2440 C 0.38596 0.8867 0.39115 0.0
C2441 C 0.36969 0.89343 0.37386 0.0
C2442 C 0.34909 0.09826 0.64656 0.0
C2443 C 0.36254 0.09268 0.62711 0.0
C2444 C 0.3548 0.11671 0.66109 0.0
C2445 C 0.37405 0.13077 0.65668 0.0
H2446 H 0.33424 0.08791 0.65102 0.0
H2447 H 0.34459 0.11926 0.67649 0.0
S2448 S 0.41332 0.12572 0.60641 0.0
N2449 N 0.39541 0.10386 0.60358 0.0
N2450 N 0.4049 0.13958 0.62974 0.0
C2451 C 0.3867 0.12646 0.63639 0.0
C2452 C 0.38124 0.10727 0.62189 0.0
C2453 C 0.13311 0.15198 0.89976 0.0
C2454 C 0.12127 0.1355 0.9131 0.0
C2455 C 0.14943 0.14538 0.88316 0.0
C2456 C 0.15466 0.12205 0.87942 0.0
H2457 H 0.13041 0.17017 0.90284 0.0
H2458 H 0.15898 0.15866 0.87421 0.0
S2459 S 0.127 0.07211 0.90809 0.0
N2460 N 0.11486 0.09478 0.9202 0.0
N2461 N 0.14521 0.08239 0.88883 0.0
C2462 C 0.14195 0.10539 0.89161 0.0
C2463 C 0.12531 0.1121 0.90846 0.0
C2464 C 0.11026 0.35274 0.10424 0.0
C2465 C 0.12941 0.34949 0.11885 0.0
C2466 C 0.09262 0.36829 0.10981 0.0
C2467 C 0.09338 0.38115 0.13024 0.0
H2468 H 0.10829 0.34241 0.08883 0.0
H2469 H 0.07779 0.3695 0.09858 0.0
S2470 S 0.14038 0.38122 0.17327 0.0
N2471 N 0.1488 0.36235 0.15372 0.0
N2472 N 0.11515 0.39092 0.16446 0.0
C2473 C 0.11266 0.37884 0.14459 0.0
C2474 C 0.13079 0.36319 0.13884 0.0
C2475 C 0.61013 0.12487 0.88377 0.0
C2476 C 0.59605 0.12744 0.86416 0.0
C2477 C 0.62571 0.14214 0.89047 0.0
C2478 C 0.62815 0.1625 0.87762 0.0
H2479 H 0.60873 0.10961 0.89439 0.0
H2480 H 0.63547 0.13986 0.9062 0.0
S2481 S 0.59556 0.17825 0.82519 0.0
N2482 N 0.58563 0.15255 0.8322 0.0
N2483 N 0.61549 0.1844 0.84449 0.0
C2484 C 0.61486 0.16507 0.85764 0.0
C2485 C 0.59873 0.14769 0.85095 0.0
C2486 C 0.91219 0.86065 0.39003 0.0
C2487 C 0.90819 0.8771 0.37268 0.0
C2488 C 0.89531 0.8446 0.39632 0.0
C2489 C 0.8736 0.84418 0.38555 0.0
H2490 H 0.92884 0.85963 0.39837 0.0
H2491 H 0.89959 0.83191 0.4093 0.0
S2492 S 0.85343 0.88491 0.3407 0.0
N2493 N 0.88019 0.89298 0.34593 0.0
N2494 N 0.84847 0.86267 0.35771 0.0
C2495 C 0.86908 0.86088 0.36859 0.0
C2496 C 0.88633 0.87734 0.36218 0.0
C2497 C 0.8979 0.15222 0.10922 0.0
C2498 C 0.87621 0.15476 0.11979 0.0
C2499 C 0.91308 0.13462 0.1157 0.0
C2500 C 0.90726 0.11871 0.13302 0.0
H2501 H 0.90348 0.16435 0.0962 0.0
H2502 H 0.92986 0.13397 0.10757 0.0
S2503 S 0.8517 0.11638 0.16455 0.0
N2504 N 0.8491 0.13893 0.14743 0.0
N2505 N 0.87759 0.10573 0.15957 0.0
C2506 C 0.88538 0.12064 0.14332 0.0
C2507 C 0.8699 0.13867 0.13674 0.0
C2508 C 0.36633 0.63967 0.63654 0.0
C2509 C 0.37017 0.6556 0.61866 0.0
C2510 C 0.38275 0.62267 0.642 0.0
C2511 C 0.40371 0.62097 0.62985 0.0
H2512 H 0.35051 0.64035 0.64638 0.0
H2513 H 0.37904 0.61081 0.6559 0.0
S2514 S 0.42307 0.65999 0.58302 0.0
N2515 N 0.39711 0.66937 0.58975 0.0
N2516 N 0.42785 0.63775 0.60003 0.0
C2517 C 0.40779 0.63697 0.61208 0.0
C2518 C 0.3911 0.65417 0.60651 0.0
C2519 C 0.12544 0.65566 0.3591 0.0
C2520 C 0.13035 0.65924 0.38252 0.0
C2521 C 0.10936 0.63898 0.35221 0.0
C2522 C 0.09775 0.62516 0.36845 0.0
H2523 H 0.13289 0.66682 0.34615 0.0
H2524 H 0.10512 0.63764 0.33409 0.0
S2525 S 0.10669 0.62599 0.43166 0.0
N2526 N 0.12418 0.64611 0.42176 0.0
N2527 N 0.09381 0.61497 0.40884 0.0
C2528 C 0.10379 0.62746 0.39176 0.0
C2529 C 0.1201 0.64448 0.39878 0.0
C2530 C 0.36783 0.36855 0.87432 0.0
C2531 C 0.37291 0.35127 0.89048 0.0
C2532 C 0.38429 0.38521 0.86823 0.0
C2533 C 0.40654 0.38511 0.87792 0.0
H2534 H 0.3511 0.36902 0.8661 0.0
H2535 H 0.37971 0.39798 0.85545 0.0
S2536 S 0.42869 0.34283 0.92043 0.0
N2537 N 0.4018 0.33487 0.91589 0.0
N2538 N 0.43278 0.36581 0.90423 0.0
C2539 C 0.41167 0.36809 0.89439 0.0
C2540 C 0.39487 0.35126 0.90069 0.0
C2541 C 0.64107 0.61151 0.87747 0.0
C2542 C 0.62904 0.59054 0.87844 0.0
C2543 C 0.63461 0.62885 0.86189 0.0
C2544 C 0.61609 0.62566 0.84654 0.0
H2545 H 0.65599 0.6142 0.88832 0.0
H2546 H 0.64452 0.64464 0.8615 0.0
S2547 S 0.58 0.57299 0.84182 0.0
N2548 N 0.59815 0.56727 0.86291 0.0
N2549 N 0.58631 0.5993 0.83312 0.0
C2550 C 0.60381 0.60472 0.84768 0.0
C2551 C 0.61025 0.58729 0.86372 0.0
C2552 C 0.6478 0.39476 0.10901 0.0
C2553 C 0.64919 0.38398 0.13067 0.0
C2554 C 0.63079 0.38869 0.09297 0.0
C2555 C 0.61427 0.3716 0.09786 0.0
H2556 H 0.66053 0.40745 0.10402 0.0
H2557 H 0.63119 0.39688 0.07622 0.0
S2558 S 0.60859 0.34014 0.15323 0.0
N2559 N 0.63142 0.35667 0.1569 0.0
N2560 N 0.59924 0.34543 0.1269 0.0
C2561 C 0.61489 0.36131 0.11983 0.0
C2562 C 0.63236 0.36744 0.13616 0.0
C2563 C 0.86094 0.3871 0.34494 0.0
C2564 C 0.88045 0.37315 0.34849 0.0
C2565 C 0.85527 0.40505 0.36006 0.0
C2566 C 0.86907 0.41042 0.37931 0.0
H2567 H 0.85034 0.38485 0.32978 0.0
H2568 H 0.8401 0.41518 0.35623 0.0
S2569 S 0.92066 0.37756 0.39809 0.0
N2570 N 0.91196 0.36415 0.37461 0.0
N2571 N 0.90257 0.39913 0.4018 0.0
C2572 C 0.88811 0.396 0.3837 0.0
C2573 C 0.89352 0.3772 0.36859 0.0
C2574 C 0.8726 0.61693 0.63208 0.0
C2575 C 0.85098 0.62784 0.63127 0.0
C2576 C 0.89055 0.6235 0.61723 0.0
C2577 C 0.88754 0.64116 0.60088 0.0
H2578 H 0.87551 0.6029 0.644 0.0
H2579 H 0.90676 0.61437 0.61825 0.0
S2580 S 0.83375 0.67443 0.59121 0.0
N2581 N 0.82744 0.65692 0.61268 0.0
N2582 N 0.86085 0.66905 0.58456 0.0
C2583 C 0.86605 0.65244 0.6002 0.0
C2584 C 0.84787 0.64584 0.61542 0.0
C2585 C 0.609 0.40625 0.63502 0.0
C2586 C 0.62789 0.40214 0.62042 0.0
C2587 C 0.60227 0.3901 0.65169 0.0
C2588 C 0.6141 0.36911 0.65446 0.0
H2589 H 0.59994 0.42253 0.63427 0.0
H2590 H 0.58824 0.39457 0.66314 0.0
S2591 S 0.6627 0.34861 0.61843 0.0
N2592 N 0.65694 0.37454 0.60832 0.0
N2593 N 0.64424 0.34418 0.63961 0.0
C2594 C 0.63234 0.36431 0.63926 0.0
C2595 C 0.63923 0.38079 0.62226 0.0
C2596 C 0.88522 0.3834 0.88311 0.0
C2597 C 0.87996 0.36712 0.90026 0.0
C2598 C 0.86925 0.38889 0.86573 0.0
C2599 C 0.84739 0.37836 0.8649 0.0
H2600 H 0.90171 0.39209 0.88322 0.0
H2601 H 0.87394 0.40171 0.85304 0.0
S2602 S 0.82463 0.3358 0.90683 0.0
N2603 N 0.85102 0.34121 0.91583 0.0
N2604 N 0.82112 0.35157 0.88346 0.0
C2605 C 0.84202 0.36198 0.88194 0.0
C2606 C 0.85825 0.35638 0.89953 0.0
C2607 C 0.85624 0.61716 0.13215 0.0
C2608 C 0.87163 0.60216 0.12078 0.0
C2609 C 0.86396 0.63294 0.14879 0.0
C2610 C 0.88738 0.63433 0.15467 0.0
H2611 H 0.8379 0.61577 0.12911 0.0
H2612 H 0.85132 0.64285 0.15826 0.0
S2613 S 0.93514 0.60164 0.12762 0.0
N2614 N 0.91172 0.59157 0.11506 0.0
N2615 N 0.92623 0.62172 0.14566 0.0
C2616 C 0.90314 0.62099 0.14195 0.0
C2617 C 0.89529 0.60482 0.12515 0.0
C2618 C 0.63926 0.61 0.40542 0.0
C2619 C 0.62407 0.62855 0.40191 0.0
C2620 C 0.6555 0.60371 0.38867 0.0
C2621 C 0.65729 0.61563 0.36762 0.0
H2622 H 0.63918 0.60075 0.42161 0.0
H2623 H 0.6673 0.58983 0.39263 0.0
S2624 S 0.61977 0.66375 0.34876 0.0
N2625 N 0.61062 0.65761 0.37498 0.0
N2626 N 0.64112 0.64573 0.34348 0.0
C2627 C 0.64168 0.6337 0.36353 0.0
C2628 C 0.6251 0.64015 0.38064 0.0
C2629 C 0.61276 0.85165 0.60706 0.0
C2630 C 0.63449 0.84996 0.61765 0.0
C2631 C 0.59721 0.86915 0.61294 0.0
C2632 C 0.60264 0.88576 0.62973 0.0
H2633 H 0.60739 0.83892 0.59454 0.0
H2634 H 0.58045 0.86917 0.60478 0.0
S2635 S 0.65811 0.89056 0.66099 0.0
N2636 N 0.66128 0.86753 0.64461 0.0
N2637 N 0.63194 0.90035 0.65578 0.0
C2638 C 0.62453 0.88471 0.64005 0.0
C2639 C 0.64045 0.86686 0.634 0.0
C2640 C 0.97974 0.24141 0.27282 0.0
C2641 C 0.97755 0.26531 0.27585 0.0
C2642 C 1.00139 0.23069 0.27343 0.0
C2643 C 0.02159 0.24347 0.27746 0.0
H2644 H 0.96459 0.23097 0.26982 0.0
H2645 H 0.00228 0.21222 0.27117 0.0
S2646 S 0.02493 0.30657 0.28692 0.0
N2647 N 0.9972 0.30138 0.28345 0.0
N2648 N 0.03791 0.28143 0.28424 0.0
C2649 C 0.01957 0.26742 0.2805 0.0
C2650 C 0.99755 0.2783 0.27975 0.0
C2651 C 0.01527 0.75879 0.54726 0.0
C2652 C 0.01803 0.77232 0.52739 0.0
C2653 C 0.00623 0.73652 0.546 0.0
C2654 C 0.99934 0.72699 0.52485 0.0
H2655 H 0.02047 0.76538 0.5639 0.0
H2656 H 0.00429 0.72678 0.56178 0.0
S2657 S 0.00281 0.75542 0.4678 0.0
N2658 N 0.01311 0.77475 0.48595 0.0
N2659 N 0.99594 0.73274 0.48354 0.0
C2660 C 0.00187 0.74036 0.50483 0.0
C2661 C 0.01133 0.76303 0.5061 0.0
C2662 C 0.52779 0.76623 0.76418 0.0
C2663 C 0.52835 0.74203 0.76402 0.0
C2664 C 0.50675 0.77816 0.76433 0.0
C2665 C 0.48575 0.76616 0.76493 0.0
H2666 H 0.54372 0.77589 0.76479 0.0
H2667 H 0.50686 0.79678 0.76518 0.0
S2668 S 0.47781 0.70304 0.76438 0.0
N2669 N 0.50598 0.70676 0.76396 0.0
N2670 N 0.46662 0.72914 0.76448 0.0
C2671 C 0.48609 0.74211 0.76415 0.0
C2672 C 0.50737 0.73003 0.76364 0.0
C2673 C 0.48773 0.26834 0.01457 0.0
C2674 C 0.51091 0.27141 0.02065 0.0
C2675 C 0.47766 0.2464 0.01474 0.0
C2676 C 0.49033 0.22687 0.02144 0.0
H2677 H 0.47735 0.28305 0.00973 0.0
H2678 H 0.45963 0.24479 0.01044 0.0
S2679 S 0.5516 0.22592 0.03908 0.0
N2680 N 0.54628 0.25329 0.03349 0.0
N2681 N 0.52733 0.21202 0.03395 0.0
C2682 C 0.51359 0.22974 0.02735 0.0
C2683 C 0.52389 0.25202 0.0269 0.0
C2684 C 1.00029 0.73808 0.2502 0.0
C2685 C 0.98721 0.73594 0.22991 0.0
C2686 C 0.02214 0.7486 0.2499 0.0
C2687 C 0.03174 0.75675 0.22921 0.0
H2688 H 0.99337 0.73201 0.26641 0.0
H2689 H 0.03168 0.75021 0.26582 0.0
S2690 S 0.00439 0.75516 0.17151 0.0
N2691 N 0.98553 0.74265 0.18869 0.0
N2692 N 0.02623 0.76248 0.18813 0.0
C2693 C 0.0188 0.75461 0.20887 0.0
C2694 C 0.99663 0.74416 0.20922 0.0
C2695 C 0.52458 0.74622 0.4613 0.0
C2696 C 0.51771 0.72814 0.47564 0.0
C2697 C 0.51387 0.76777 0.46262 0.0
C2698 C 0.49542 0.77188 0.47793 0.0
H2699 H 0.53822 0.74355 0.44886 0.0
H2700 H 0.51984 0.78115 0.45114 0.0
S2701 S 0.47211 0.72943 0.51995 0.0
N2702 N 0.49285 0.71542 0.50648 0.0
N2703 N 0.47161 0.75545 0.50849 0.0
C2704 C 0.48899 0.75383 0.49295 0.0
C2705 C 0.50037 0.73204 0.49185 0.0
C2706 C 0.51478 0.24311 0.73824 0.0
C2707 C 0.51729 0.26674 0.73366 0.0
C2708 C 0.49303 0.23265 0.73813 0.0
C2709 C 0.4731 0.24536 0.73298 0.0
H2710 H 0.52979 0.23265 0.74179 0.0
H2711 H 0.49188 0.21432 0.74119 0.0
S2712 S 0.47031 0.30778 0.72032 0.0
N2713 N 0.49797 0.30267 0.72448 0.0
N2714 N 0.4571 0.28284 0.72388 0.0
C2715 C 0.47532 0.26904 0.72874 0.0
C2716 C 0.49741 0.27979 0.72923 0.0
C2717 C 0.02087 0.25187 0.98359 0.0
C2718 C 0.00809 0.23136 0.98345 0.0
C2719 C 0.00986 0.27331 0.98231 0.0
C2720 C 0.9857 0.27493 0.98128 0.0
H2721 H 0.0395 0.25125 0.98387 0.0
H2722 H 0.0203 0.28874 0.98198 0.0
S2723 S 0.94468 0.22604 0.98233 0.0
N2724 N 0.97027 0.2138 0.98352 0.0
N2725 N 0.94941 0.25406 0.98123 0.0
C2726 C 0.97276 0.25449 0.98204 0.0
C2727 C 0.98401 0.23271 0.98306 0.0
C2728 C 0.27338 0.02635 0.26948 0.0
C2729 C 0.27435 0.02872 0.24541 0.0
C2730 C 0.27383 0.00452 0.27986 0.0
C2731 C 0.27569 0.98436 0.26653 0.0
H2732 H 0.27207 0.04148 0.28028 0.0
H2733 H 0.27316 0.00339 0.29845 0.0
S2734 S 0.27924 0.98144 0.20281 0.0
N2735 N 0.27773 0.00922 0.20858 0.0
N2736 N 0.27819 0.96825 0.22797 0.0
C2737 C 0.2767 0.98657 0.24244 0.0
C2738 C 0.27611 0.00873 0.23191 0.0
C2739 C 0.23306 0.01084 0.50813 0.0
C2740 C 0.22534 0.03128 0.49771 0.0
C2741 C 0.25491 0.00956 0.51836 0.0
C2742 C 0.26993 0.02856 0.51808 0.0
H2743 H 0.22213 0.99574 0.50821 0.0
H2744 H 0.26036 0.99344 0.52595 0.0
S2745 S 0.258 0.08599 0.49301 0.0
N2746 N 0.23452 0.07088 0.48771 0.0
N2747 N 0.27539 0.0685 0.5071 0.0
C2748 C 0.26233 0.04912 0.50793 0.0
C2749 C 0.24007 0.05049 0.49772 0.0
C2750 C 0.23068 0.98362 0.77003 0.0
C2751 C 0.22628 0.98084 0.7464 0.0
C2752 C 0.22962 0.0054 0.78036 0.0
C2753 C 0.22369 0.02503 0.76749 0.0
H2754 H 0.23505 0.96884 0.7805 0.0
H2755 H 0.23293 0.00685 0.79865 0.0
S2756 S 0.21038 0.02672 0.70509 0.0
N2757 N 0.21566 0.99932 0.71047 0.0
N2758 N 0.21375 0.04031 0.72983 0.0
C2759 C 0.21933 0.02244 0.74383 0.0
C2760 C 0.22064 1.00032 0.73329 0.0
C2761 C 0.25901 0.99372 0.99079 0.0
C2762 C 0.26858 0.97292 0.98293 0.0
C2763 C 0.23754 0.99409 0.00192 0.0
C2764 C 0.22476 0.97375 0.00513 0.0
H2765 H 0.26845 0.00966 0.98877 0.0
H2766 H 0.2308 0.01039 0.00795 0.0
S2767 S 0.24193 0.91505 0.98685 0.0
N2768 N 0.26337 0.93169 0.97841 0.0
N2769 N 0.22321 0.93235 0.99942 0.0
C2770 C 0.234 0.95295 0.99696 0.0
C2771 C 0.25587 0.95255 0.98585 0.0
C2772 C 0.25474 0.30082 0.99121 0.0
C2773 C 0.25959 0.28036 0.97925 0.0
C2774 C 0.24423 0.30034 0.01291 0.0
C2775 C 0.23782 0.27941 0.02323 0.0
H2776 H 0.2595 0.31729 0.98389 0.0
H2777 H 0.24089 0.31647 0.02164 0.0
S2778 S 0.24622 0.22109 0.9987 0.0
N2779 N 0.25688 0.23864 0.97903 0.0
N2780 N 0.23697 0.23772 0.01984 0.0
C2781 C 0.24228 0.25883 0.01132 0.0
C2782 C 0.25326 0.25931 0.98934 0.0
C2783 C 0.75566 0.24412 0.01353 0.0
C2784 C 0.76238 0.22298 0.02327 0.0
C2785 C 0.74424 0.24502 0.99222 0.0
C2786 C 0.7394 0.22482 0.97973 0.0
H2787 H 0.75914 0.26007 0.02253 0.0
H2788 H 0.73947 0.26164 0.9853 0.0
S2789 S 0.75333 0.1651 0.99767 0.0
N2790 N 0.76367 0.1814 0.0185 0.0
N2791 N 0.74155 0.18303 0.97909 0.0
C2792 C 0.7459 0.20358 0.98937 0.0
C2793 C 0.75753 0.20267 0.01097 0.0
C2794 C 0.03168 0.51406 0.23216 0.0
C2795 C 0.02742 0.49035 0.22996 0.0
C2796 C 0.03184 0.52467 0.25385 0.0
C2797 C 0.02829 0.5118 0.27405 0.0
H2798 H 0.03479 0.52443 0.21699 0.0
H2799 H 0.03521 0.54297 0.25493 0.0
S2800 S 0.01627 0.44924 0.2775 0.0
N2801 N 0.01944 0.45437 0.24971 0.0
N2802 N 0.01982 0.4743 0.29047 0.0
C2803 C 0.02393 0.48812 0.27206 0.0
C2804 C 0.02344 0.47739 0.24999 0.0
C2805 C 0.73132 0.7806 0.50581 0.0
C2806 C 0.74517 0.78157 0.52565 0.0
C2807 C 0.74113 0.7797 0.48377 0.0
C2808 C 0.76513 0.7793 0.48082 0.0
H2809 H 0.71275 0.78065 0.50737 0.0
H2810 H 0.72988 0.77884 0.46894 0.0
S2811 S 0.80893 0.7816 0.52722 0.0
N2812 N 0.78404 0.78217 0.54097 0.0
N2813 N 0.80254 0.78046 0.49954 0.0
C2814 C 0.77918 0.78036 0.50052 0.0
C2815 C 0.76918 0.78155 0.52294 0.0
C2816 C 0.99076 0.01623 0.25094 0.0
C2817 C 0.98606 0.00382 0.23068 0.0
C2818 C 0.99094 0.0053 0.27248 0.0
C2819 C 0.9869 0.98151 0.27447 0.0
H2820 H 0.99339 0.03466 0.2502 0.0
H2821 H 0.99407 0.01554 0.28774 0.0
S2822 S 0.97509 0.94113 0.22648 0.0
N2823 N 0.97813 0.96643 0.21383 0.0
N2824 N 0.97884 0.94578 0.25429 0.0
C2825 C 0.98301 0.96878 0.25427 0.0
C2826 C 0.98246 0.97998 0.23238 0.0
C2827 C 0.25454 0.74622 0.51558 0.0
C2828 C 0.25742 0.72571 0.52817 0.0
C2829 C 0.24356 0.74621 0.49402 0.0
C2830 C 0.23555 0.72562 0.48413 0.0
H2831 H 0.26064 0.76238 0.52259 0.0
H2832 H 0.24171 0.7623 0.4848 0.0
S2833 S 0.23881 0.66739 0.51006 0.0
N2834 N 0.25134 0.68435 0.52912 0.0
N2835 N 0.23072 0.68435 0.48874 0.0
C2836 C 0.23827 0.70506 0.49657 0.0
C2837 C 0.24918 0.7051 0.51856 0.0
C2838 C 0.4941 0.50153 0.76181 0.0
C2839 C 0.47368 0.49367 0.77218 0.0
C2840 C 0.49401 0.51064 0.73938 0.0
C2841 C 0.47358 0.51175 0.72636 0.0
H2842 H 0.51018 0.50076 0.7712 0.0
H2843 H 0.51008 0.51656 0.73202 0.0
S2844 S 0.41568 0.49271 0.74538 0.0
N2845 N 0.43264 0.48695 0.76743 0.0
N2846 N 0.43245 0.50433 0.7256 0.0
C2847 C 0.45312 0.50377 0.7365 0.0
C2848 C 0.45318 0.49468 0.75932 0.0
C2849 C 0.76286 0.51591 0.74818 0.0
C2850 C 0.78355 0.524 0.73854 0.0
C2851 C 0.76162 0.49411 0.75856 0.0
C2852 C 0.78092 0.47949 0.75926 0.0
H2853 H 0.74758 0.52656 0.74773 0.0
H2854 H 0.74534 0.48844 0.76566 0.0
S2855 S 0.83911 0.4925 0.73646 0.0
N2856 N 0.8237 0.51552 0.73018 0.0
N2857 N 0.82144 0.47489 0.75004 0.0
C2858 C 0.80171 0.48744 0.74981 0.0
C2859 C 0.80302 0.50961 0.73938 0.0
C2860 C 0.75143 0.52535 0.02406 0.0
C2861 C 0.77231 0.52146 0.01258 0.0
C2862 C 0.73049 0.52461 0.01215 0.0
C2863 C 0.72983 0.51988 0.98841 0.0
H2864 H 0.75147 0.52996 0.0421 0.0
H2865 H 0.71472 0.52816 0.02144 0.0
S2866 S 0.78014 0.50879 0.95069 0.0
N2867 N 0.79137 0.5128 0.97652 0.0
N2868 N 0.75201 0.51145 0.95391 0.0
C2869 C 0.75067 0.51559 0.97687 0.0
C2870 C 0.77196 0.51648 0.98902 0.0
C2871 C 0.72935 0.51671 0.23607 0.0
C2872 C 0.72798 0.51913 0.26011 0.0
C2873 C 0.72912 0.49489 0.22568 0.0
C2874 C 0.72714 0.47471 0.23896 0.0
H2875 H 0.73076 0.53182 0.22524 0.0
H2876 H 0.73002 0.49382 0.20709 0.0
S2877 S 0.72262 0.47185 0.30262 0.0
N2878 N 0.72421 0.49965 0.29689 0.0
N2879 N 0.72407 0.45864 0.27749 0.0
C2880 C 0.72577 0.47694 0.26304 0.0
C2881 C 0.72616 0.49915 0.27359 0.0
C2882 C 0.75995 0.49189 0.49375 0.0
C2883 C 0.77298 0.47184 0.48994 0.0
C2884 C 0.73871 0.49087 0.5053 0.0
C2885 C 0.72965 0.46973 0.51288 0.0
H2886 H 0.76654 0.50845 0.48831 0.0
H2887 H 0.7292 0.50664 0.50817 0.0
S2888 S 0.75686 0.4124 0.5065 0.0
N2889 N 0.77522 0.43037 0.49431 0.0
N2890 N 0.73522 0.42841 0.51566 0.0
C2891 C 0.74235 0.44959 0.50879 0.0
C2892 C 0.76405 0.45067 0.49741 0.0
C2893 C 0.5283 0.01852 0.72919 0.0
C2894 C 0.52876 0.99448 0.72628 0.0
C2895 C 0.52776 0.02845 0.75127 0.0
C2896 C 0.52816 0.01471 0.77123 0.0
H2897 H 0.52812 0.02968 0.71426 0.0
H2898 H 0.52746 0.04703 0.75277 0.0
S2899 S 0.52946 0.9509 0.77297 0.0
N2900 N 0.52969 0.95721 0.74525 0.0
N2901 N 0.52863 0.97583 0.78661 0.0
C2902 C 0.52862 0.99066 0.76853 0.0
C2903 C 0.52891 0.98056 0.7461 0.0
loop_
_geom_bond_atom_site_label_1
_geom_bond_atom_site_label_2
_geom_bond_distance
_geom_bond_site_symmetry_2
_ccdc_geom_bond_type
Co0 N4 2.148 . S
Co0 N10 2.128 . S
Co0 N20 2.194 . S
Co0 O25 2.351 . S
Co0 O26 2.155 . S
Co0 O27 2.096 . S
C1 N4 1.301 . S
C1 N5 1.328 . S
C1 H6 0.930 . S
C2 C3 1.333 . S
C2 N4 1.317 . S
C2 H7 0.930 . S
C3 C2 1.333 . S
C3 N5 1.350 . S
C3 H29 0.931 . S
N4 Co0 2.148 . S
N4 C1 1.301 . S
N4 C2 1.317 . S
N5 C1 1.328 . S
N5 C3 1.350 . S
H6 C1 0.930 . S
H7 C2 0.930 . S
C8 O9 1.224 . S
C8 O27 1.247 . S
O9 C8 1.224 . S
N10 Co0 2.128 . S
N10 C11 1.355 . S
N10 C13 1.311 . S
C11 N10 1.355 . S
C11 C12 1.363 . S
C11 H23 0.929 . S
C12 C11 1.363 . S
C12 N14 1.375 . S
C12 H30 0.931 . S
C13 N10 1.311 . S
C13 N14 1.347 . S
C13 H24 0.929 . S
N14 C12 1.375 . S
N14 C13 1.347 . S
C15 C18 1.365 . S
C15 N20 1.328 . S
C15 H21 0.929 . S
C16 C17 1.362 . S
C16 C19 1.378 . S
C16 H31 0.929 . S
C17 C16 1.362 . S
C17 C18 1.366 . S
C18 C15 1.365 . S
C18 C17 1.366 . S
C18 H32 0.930 . S
C19 C16 1.378 . S
C19 N20 1.315 . S
C19 H22 0.930 . S
N20 Co0 2.194 . S
N20 C15 1.328 . S
N20 C19 1.315 . S
H21 C15 0.929 . S
H22 C19 0.930 . S
H23 C11 0.929 . S
H24 C13 0.929 . S
O25 Co0 2.351 . S
O25 C28 1.244 . S
O26 Co0 2.155 . S
O26 C28 1.240 . S
O27 Co0 2.096 . S
O27 C8 1.247 . S
C28 O25 1.244 . S
C28 O26 1.240 . S
H29 C3 0.931 . S
H30 C12 0.931 . S
H31 C16 0.929 . S
H32 C18 0.930 . S
Co33 N37 2.148 . S
Co33 N43 2.128 . S
Co33 N53 2.194 . S
Co33 O58 2.351 . S
Co33 O59 2.155 . S
Co33 O60 2.096 . S
C34 N37 1.301 . S
C34 N38 1.328 . S
C34 H39 0.930 . S
C35 C36 1.333 . S
C35 N37 1.317 . S
C35 H40 0.930 . S
C36 C35 1.333 . S
C36 N38 1.350 . S
C36 H62 0.931 . S
N37 Co33 2.148 . S
N37 C34 1.301 . S
N37 C35 1.317 . S
N38 C34 1.328 . S
N38 C36 1.350 . S
H39 C34 0.930 . S
H40 C35 0.930 . S
C41 O42 1.224 . S
C41 O60 1.247 . S
O42 C41 1.224 . S
N43 Co33 2.128 . S
N43 C44 1.355 . S
N43 C46 1.311 . S
C44 N43 1.355 . S
C44 C45 1.363 . S
C44 H56 0.929 . S
C45 C44 1.363 . S
C45 N47 1.375 . S
C45 H63 0.931 . S
C46 N43 1.311 . S
C46 N47 1.347 . S
C46 H57 0.929 . S
N47 C45 1.375 . S
N47 C46 1.347 . S
C48 C51 1.365 . S
C48 N53 1.328 . S
C48 H54 0.929 . S
C49 C50 1.362 . S
C49 C52 1.378 . S
C49 H64 0.929 . S
C50 C49 1.362 . S
C50 C51 1.366 . S
C51 C48 1.365 . S
C51 C50 1.366 . S
C51 H65 0.930 . S
C52 C49 1.378 . S
C52 N53 1.315 . S
C52 H55 0.930 . S
N53 Co33 2.194 . S
N53 C48 1.328 . S
N53 C52 1.315 . S
H54 C48 0.929 . S
H55 C52 0.930 . S
H56 C44 0.929 . S
H57 C46 0.929 . S
O58 Co33 2.351 . S
O58 C61 1.244 . S
O59 Co33 2.155 . S
O59 C61 1.240 . S
O60 Co33 2.096 . S
O60 C41 1.247 . S
C61 O58 1.244 . S
C61 O59 1.240 . S
H62 C36 0.931 . S
H63 C45 0.931 . S
H64 C49 0.929 . S
H65 C51 0.930 . S
Co66 N70 2.148 . S
Co66 N76 2.128 . S
Co66 N86 2.194 . S
Co66 O91 2.351 . S
Co66 O92 2.155 . S
Co66 O93 2.096 . S
C67 N70 1.301 . S
C67 N71 1.328 . S
C67 H72 0.930 . S
C68 C69 1.333 . S
C68 N70 1.317 . S
C68 H73 0.930 . S
C69 C68 1.333 . S
C69 N71 1.350 . S
C69 H95 0.931 . S
N70 Co66 2.148 . S
N70 C67 1.301 . S
N70 C68 1.317 . S
N71 C67 1.328 . S
N71 C69 1.350 . S
H72 C67 0.930 . S
H73 C68 0.930 . S
C74 O75 1.224 . S
C74 O93 1.247 . S
O75 C74 1.224 . S
N76 Co66 2.128 . S
N76 C77 1.355 . S
N76 C79 1.311 . S
C77 N76 1.355 . S
C77 C78 1.363 . S
C77 H89 0.929 . S
C78 C77 1.363 . S
C78 N80 1.375 . S
C78 H96 0.931 . S
C79 N76 1.311 . S
C79 N80 1.347 . S
C79 H90 0.929 . S
N80 C78 1.375 . S
N80 C79 1.347 . S
C81 C84 1.365 . S
C81 N86 1.328 . S
C81 H87 0.929 . S
C82 C83 1.362 . S
C82 C85 1.378 . S
C82 H97 0.929 . S
C83 C82 1.362 . S
C83 C84 1.366 . S
C84 C81 1.365 . S
C84 C83 1.366 . S
C84 H98 0.930 . S
C85 C82 1.378 . S
C85 N86 1.315 . S
C85 H88 0.930 . S
N86 Co66 2.194 . S
N86 C81 1.328 . S
N86 C85 1.315 . S
H87 C81 0.929 . S
H88 C85 0.930 . S
H89 C77 0.929 . S
H90 C79 0.929 . S
O91 Co66 2.351 . S
O91 C94 1.244 . S
O92 Co66 2.155 . S
O92 C94 1.240 . S
O93 Co66 2.096 . S
O93 C74 1.247 . S
C94 O91 1.244 . S
C94 O92 1.240 . S
H95 C69 0.931 . S
H96 C78 0.931 . S
H97 C82 0.929 . S
H98 C84 0.930 . S
Co99 N103 2.148 . S
Co99 N109 2.128 . S
Co99 N119 2.194 . S
Co99 O124 2.351 . S
Co99 O125 2.155 1_554 S
Co99 O126 2.096 1_554 S
C100 N103 1.301 . S
C100 N104 1.328 1_554 S
C100 H105 0.930 . S
C101 C102 1.333 . S
C101 N103 1.317 1_556 S
C101 H106 0.930 . S
C102 C101 1.333 . S
C102 N104 1.350 . S
C102 H128 0.931 . S
N103 Co99 2.148 . S
N103 C100 1.301 . S
N103 C101 1.317 1_554 S
N104 C100 1.328 1_556 S
N104 C102 1.350 . S
H105 C100 0.930 . S
H106 C101 0.930 . S
C107 O108 1.259 . S
C107 O126 1.232 1_554 S
O108 C107 1.259 . S
N109 Co99 2.128 . S
N109 C110 1.355 . S
N109 C112 1.311 . S
C110 N109 1.355 . S
C110 C111 1.363 . S
C110 H122 0.929 . S
C111 C110 1.363 . S
C111 N113 1.375 . S
C111 H129 0.931 . S
C112 N109 1.311 . S
C112 N113 1.347 . S
C112 H123 0.929 . S
N113 C111 1.375 . S
N113 C112 1.347 . S
C114 C117 1.365 . S
C114 N119 1.328 . S
C114 H120 0.929 . S
C115 C116 1.362 . S
C115 C118 1.378 . S
C115 H130 0.929 . S
C116 C115 1.362 . S
C116 C117 1.366 . S
C117 C114 1.365 . S
C117 C116 1.366 . S
C117 H131 0.930 . S
C118 C115 1.378 . S
C118 N119 1.315 . S
C118 H121 0.930 . S
N119 Co99 2.194 . S
N119 C114 1.328 . S
N119 C118 1.315 . S
H120 C114 0.929 . S
H121 C118 0.930 . S
H122 C110 0.929 . S
H123 C112 0.929 . S
O124 Co99 2.351 . S
O124 C127 1.244 . S
O125 Co99 2.155 1_556 S
O125 C127 1.240 1_556 S
O126 Co99 2.096 1_556 S
O126 C107 1.232 1_556 S
C127 O124 1.244 . S
C127 O125 1.240 1_554 S
H128 C102 0.931 . S
H129 C111 0.931 . S
H130 C115 0.929 . S
H131 C117 0.930 . S
Co132 N136 2.148 . S
Co132 N142 2.128 . S
Co132 N152 2.194 . S
Co132 O157 2.351 . S
Co132 O158 2.155 . S
Co132 O159 2.096 . S
C133 N136 1.301 . S
C133 N137 1.328 . S
C133 H138 0.930 . S
C134 C135 1.333 . S
C134 N136 1.317 . S
C134 H139 0.930 . S
C135 C134 1.333 . S
C135 N137 1.350 . S
C135 H161 0.931 . S
N136 Co132 2.148 . S
N136 C133 1.301 . S
N136 C134 1.317 . S
N137 C133 1.328 . S
N137 C135 1.350 . S
H138 C133 0.930 . S
H139 C134 0.930 . S
C140 O141 1.224 . S
C140 O159 1.247 . S
O141 C140 1.224 . S
N142 Co132 2.128 . S
N142 C143 1.355 . S
N142 C145 1.311 . S
C143 N142 1.355 . S
C143 C144 1.363 . S
C143 H155 0.929 . S
C144 C143 1.363 . S
C144 N146 1.375 . S
C144 H162 0.931 . S
C145 N142 1.311 . S
C145 N146 1.347 . S
C145 H156 0.929 . S
N146 C144 1.375 . S
N146 C145 1.347 . S
C147 C150 1.365 . S
C147 N152 1.328 . S
C147 H153 0.929 . S
C148 C149 1.362 . S
C148 C151 1.378 . S
C148 H163 0.929 . S
C149 C148 1.362 . S
C149 C150 1.366 . S
C150 C147 1.365 . S
C150 C149 1.366 . S
C150 H164 0.930 . S
C151 C148 1.378 . S
C151 N152 1.315 . S
C151 H154 0.930 . S
N152 Co132 2.194 . S
N152 C147 1.328 . S
N152 C151 1.315 . S
H153 C147 0.929 . S
H154 C151 0.930 . S
H155 C143 0.929 . S
H156 C145 0.929 . S
O157 Co132 2.351 . S
O157 C160 1.244 . S
O158 Co132 2.155 . S
O158 C160 1.240 . S
O159 Co132 2.096 . S
O159 C140 1.247 . S
C160 O157 1.244 . S
C160 O158 1.240 . S
H161 C135 0.931 . S
H162 C144 0.931 . S
H163 C148 0.929 . S
H164 C150 0.930 . S
Co165 N169 2.148 . S
Co165 N175 2.128 . S
Co165 N185 2.194 . S
Co165 O190 2.351 . S
Co165 O191 2.155 . S
Co165 O192 2.096 . S
C166 N169 1.301 . S
C166 N170 1.328 . S
C166 H171 0.930 . S
C167 C168 1.333 . S
C167 N169 1.317 . S
C167 H172 0.930 . S
C168 C167 1.333 . S
C168 N170 1.350 . S
C168 H194 0.931 . S
N169 Co165 2.148 . S
N169 C166 1.301 . S
N169 C167 1.317 . S
N170 C166 1.328 . S
N170 C168 1.350 . S
H171 C166 0.930 . S
H172 C167 0.930 . S
C173 O174 1.224 . S
C173 O192 1.247 . S
O174 C173 1.224 . S
N175 Co165 2.128 . S
N175 C176 1.355 . S
N175 C178 1.311 . S
C176 N175 1.355 . S
C176 C177 1.363 . S
C176 H188 0.929 . S
C177 C176 1.363 . S
C177 N179 1.375 . S
C177 H195 0.931 . S
C178 N175 1.311 . S
C178 N179 1.347 . S
C178 H189 0.929 . S
N179 C177 1.375 . S
N179 C178 1.347 . S
C180 C183 1.365 . S
C180 N185 1.328 . S
C180 H186 0.929 . S
C181 C182 1.362 . S
C181 C184 1.378 . S
C181 H196 0.929 . S
C182 C181 1.362 . S
C182 C183 1.366 . S
C183 C180 1.365 . S
C183 C182 1.366 . S
C183 H197 0.930 . S
C184 C181 1.378 . S
C184 N185 1.315 . S
C184 H187 0.930 . S
N185 Co165 2.194 . S
N185 C180 1.328 . S
N185 C184 1.315 . S
H186 C180 0.929 . S
H187 C184 0.930 . S
H188 C176 0.929 . S
H189 C178 0.929 . S
O190 Co165 2.351 . S
O190 C193 1.244 . S
O191 Co165 2.155 . S
O191 C193 1.240 . S
O192 Co165 2.096 . S
O192 C173 1.247 . S
C193 O190 1.244 . S
C193 O191 1.240 . S
H194 C168 0.931 . S
H195 C177 0.931 . S
H196 C181 0.929 . S
H197 C183 0.930 . S
Co198 N202 2.148 . S
Co198 N208 2.128 . S
Co198 N218 2.194 . S
Co198 O223 2.351 . S
Co198 O224 2.155 . S
Co198 O225 2.096 . S
C199 N202 1.301 . S
C199 N203 1.328 . S
C199 H204 0.930 . S
C200 C201 1.333 . S
C200 N202 1.317 . S
C200 H205 0.930 . S
C201 C200 1.333 . S
C201 N203 1.350 . S
C201 H227 0.931 . S
N202 Co198 2.148 . S
N202 C199 1.301 . S
N202 C200 1.317 . S
N203 C199 1.328 . S
N203 C201 1.350 . S
H204 C199 0.930 . S
H205 C200 0.930 . S
C206 O207 1.224 . S
C206 O225 1.247 . S
O207 C206 1.224 . S
N208 Co198 2.128 . S
N208 C209 1.355 . S
N208 C211 1.311 . S
C209 N208 1.355 . S
C209 C210 1.363 . S
C209 H221 0.929 . S
C210 C209 1.363 . S
C210 N212 1.375 . S
C210 H228 0.931 . S
C211 N208 1.311 . S
C211 N212 1.347 . S
C211 H222 0.929 . S
N212 C210 1.375 . S
N212 C211 1.347 . S
C213 C216 1.365 . S
C213 N218 1.328 . S
C213 H219 0.929 . S
C214 C215 1.362 . S
C214 C217 1.378 . S
C214 H229 0.929 . S
C215 C214 1.362 . S
C215 C216 1.366 . S
C216 C213 1.365 . S
C216 C215 1.366 . S
C216 H230 0.930 . S
C217 C214 1.378 . S
C217 N218 1.315 . S
C217 H220 0.930 . S
N218 Co198 2.194 . S
N218 C213 1.328 . S
N218 C217 1.315 . S
H219 C213 0.929 . S
H220 C217 0.930 . S
H221 C209 0.929 . S
H222 C211 0.929 . S
O223 Co198 2.351 . S
O223 C226 1.244 . S
O224 Co198 2.155 . S
O224 C226 1.240 . S
O225 Co198 2.096 . S
O225 C206 1.247 . S
C226 O223 1.244 . S
C226 O224 1.240 . S
H227 C201 0.931 . S
H228 C210 0.931 . S
H229 C214 0.929 . S
H230 C216 0.930 . S
Co231 N235 2.148 . S
Co231 N241 2.128 . S
Co231 N251 2.194 . S
Co231 O256 2.351 . S
Co231 O257 2.155 1_556 S
Co231 O258 2.096 1_556 S
C232 N235 1.301 . S
C232 N236 1.328 1_556 S
C232 H237 0.930 . S
C233 C234 1.333 . S
C233 N235 1.317 1_554 S
C233 H238 0.930 . S
C234 C233 1.333 . S
C234 N236 1.350 . S
C234 H260 0.931 . S
N235 Co231 2.148 . S
N235 C232 1.301 . S
N235 C233 1.317 1_556 S
N236 C232 1.328 1_554 S
N236 C234 1.350 . S
H237 C232 0.930 . S
H238 C233 0.930 . S
C239 O240 1.259 . S
C239 O258 1.232 1_556 S
O240 C239 1.259 . S
N241 Co231 2.128 . S
N241 C242 1.355 . S
N241 C244 1.311 . S
C242 N241 1.355 . S
C242 C243 1.363 . S
C242 H254 0.929 . S
C243 C242 1.363 . S
C243 N245 1.375 . S
C243 H261 0.931 . S
C244 N241 1.311 . S
C244 N245 1.347 . S
C244 H255 0.929 . S
N245 C243 1.375 . S
N245 C244 1.347 . S
C246 C249 1.365 . S
C246 N251 1.328 . S
C246 H252 0.929 . S
C247 C248 1.362 . S
C247 C250 1.378 . S
C247 H262 0.929 . S
C248 C247 1.362 . S
C248 C249 1.366 . S
C249 C246 1.365 . S
C249 C248 1.366 . S
C249 H263 0.930 . S
C250 C247 1.378 . S
C250 N251 1.315 . S
C250 H253 0.930 . S
N251 Co231 2.194 . S
N251 C246 1.328 . S
N251 C250 1.315 . S
H252 C246 0.929 . S
H253 C250 0.930 . S
H254 C242 0.929 . S
H255 C244 0.929 . S
O256 Co231 2.351 . S
O256 C259 1.244 . S
O257 Co231 2.155 1_554 S
O257 C259 1.240 1_554 S
O258 Co231 2.096 1_554 S
O258 C239 1.232 1_554 S
C259 O256 1.244 . S
C259 O257 1.240 1_556 S
H260 C234 0.931 . S
H261 C243 0.931 . S
H262 C247 0.929 . S
H263 C249 0.930 . S
Co264 N268 2.148 . S
Co264 N274 2.128 . S
Co264 N284 2.194 . S
Co264 O289 2.351 . S
Co264 O290 2.155 . S
Co264 O291 2.096 . S
C265 N268 1.301 . S
C265 N269 1.328 . S
C265 H270 0.930 . S
C266 C267 1.333 . S
C266 N268 1.317 . S
C266 H271 0.930 . S
C267 C266 1.333 . S
C267 N269 1.350 . S
C267 H293 0.931 . S
N268 Co264 2.148 . S
N268 C265 1.301 . S
N268 C266 1.317 . S
N269 C265 1.328 . S
N269 C267 1.350 . S
H270 C265 0.930 . S
H271 C266 0.930 . S
C272 O273 1.224 . S
C272 O291 1.247 . S
O273 C272 1.224 . S
N274 Co264 2.128 . S
N274 C275 1.355 . S
N274 C277 1.311 . S
C275 N274 1.355 . S
C275 C276 1.363 . S
C275 H287 0.929 . S
C276 C275 1.363 . S
C276 N278 1.375 . S
C276 H294 0.931 . S
C277 N274 1.311 . S
C277 N278 1.347 . S
C277 H288 0.929 . S
N278 C276 1.375 . S
N278 C277 1.347 . S
C279 C282 1.365 . S
C279 N284 1.328 . S
C279 H285 0.929 . S
C280 C281 1.362 . S
C280 C283 1.378 . S
C280 H295 0.929 . S
C281 C280 1.362 . S
C281 C282 1.366 . S
C282 C279 1.365 . S
C282 C281 1.366 . S
C282 H296 0.930 . S
C283 C280 1.378 . S
C283 N284 1.315 . S
C283 H286 0.930 . S
N284 Co264 2.194 . S
N284 C279 1.328 . S
N284 C283 1.315 . S
H285 C279 0.929 . S
H286 C283 0.930 . S
H287 C275 0.929 . S
H288 C277 0.929 . S
O289 Co264 2.351 . S
O289 C292 1.244 . S
O290 Co264 2.155 . S
O290 C292 1.240 . S
O291 Co264 2.096 . S
O291 C272 1.247 . S
C292 O289 1.244 . S
C292 O290 1.240 . S
H293 C267 0.931 . S
H294 C276 0.931 . S
H295 C280 0.929 . S
H296 C282 0.930 . S
Co297 N301 2.148 . S
Co297 N307 2.128 . S
Co297 N317 2.194 . S
Co297 O322 2.351 . S
Co297 O323 2.155 1_545 S
Co297 O324 2.096 1_545 S
C298 N301 1.301 . S
C298 N302 1.328 1_545 S
C298 H303 0.930 . S
C299 C300 1.333 . S
C299 N301 1.317 1_565 S
C299 H304 0.930 . S
C300 C299 1.333 . S
C300 N302 1.350 . S
C300 H326 0.931 . S
N301 Co297 2.148 . S
N301 C298 1.301 . S
N301 C299 1.317 1_545 S
N302 C298 1.328 1_565 S
N302 C300 1.350 . S
H303 C298 0.930 . S
H304 C299 0.930 . S
C305 O306 1.259 . S
C305 O324 1.232 1_545 S
O306 C305 1.259 . S
N307 Co297 2.128 . S
N307 C308 1.355 . S
N307 C310 1.311 . S
C308 N307 1.355 . S
C308 C309 1.363 . S
C308 H320 0.929 . S
C309 C308 1.363 . S
C309 N311 1.375 . S
C309 H327 0.931 . S
C310 N307 1.311 . S
C310 N311 1.347 . S
C310 H321 0.929 . S
N311 C309 1.375 . S
N311 C310 1.347 . S
C312 C315 1.365 . S
C312 N317 1.328 . S
C312 H318 0.929 . S
C313 C314 1.362 . S
C313 C316 1.378 . S
C313 H328 0.929 . S
C314 C313 1.362 . S
C314 C315 1.366 . S
C315 C312 1.365 . S
C315 C314 1.366 . S
C315 H329 0.930 . S
C316 C313 1.378 . S
C316 N317 1.315 . S
C316 H319 0.930 . S
N317 Co297 2.194 . S
N317 C312 1.328 . S
N317 C316 1.315 . S
H318 C312 0.929 . S
H319 C316 0.930 . S
H320 C308 0.929 . S
H321 C310 0.929 . S
O322 Co297 2.351 . S
O322 C325 1.244 . S
O323 Co297 2.155 1_565 S
O323 C325 1.240 1_565 S
O324 Co297 2.096 1_565 S
O324 C305 1.232 1_565 S
C325 O322 1.244 . S
C325 O323 1.240 1_545 S
H326 C300 0.931 . S
H327 C309 0.931 . S
H328 C313 0.929 . S
H329 C315 0.930 . S
Co330 N334 2.148 . S
Co330 N340 2.128 . S
Co330 N350 2.194 . S
Co330 O355 2.351 . S
Co330 O356 2.155 . S
Co330 O357 2.096 . S
C331 N334 1.301 . S
C331 N335 1.328 . S
C331 H336 0.930 . S
C332 C333 1.333 . S
C332 N334 1.317 . S
C332 H337 0.930 . S
C333 C332 1.333 . S
C333 N335 1.350 . S
C333 H359 0.931 . S
N334 Co330 2.148 . S
N334 C331 1.301 . S
N334 C332 1.317 . S
N335 C331 1.328 . S
N335 C333 1.350 . S
H336 C331 0.930 . S
H337 C332 0.930 . S
C338 O339 1.224 . S
C338 O357 1.247 . S
O339 C338 1.224 . S
N340 Co330 2.128 . S
N340 C341 1.355 . S
N340 C343 1.311 . S
C341 N340 1.355 . S
C341 C342 1.363 . S
C341 H353 0.929 . S
C342 C341 1.363 . S
C342 N344 1.375 . S
C342 H360 0.931 . S
C343 N340 1.311 . S
C343 N344 1.347 . S
C343 H354 0.929 . S
N344 C342 1.375 . S
N344 C343 1.347 . S
C345 C348 1.365 . S
C345 N350 1.328 . S
C345 H351 0.929 . S
C346 C347 1.362 . S
C346 C349 1.378 . S
C346 H361 0.929 . S
C347 C346 1.362 . S
C347 C348 1.366 . S
C348 C345 1.365 . S
C348 C347 1.366 . S
C348 H362 0.930 . S
C349 C346 1.378 . S
C349 N350 1.315 . S
C349 H352 0.930 . S
N350 Co330 2.194 . S
N350 C345 1.328 . S
N350 C349 1.315 . S
H351 C345 0.929 . S
H352 C349 0.930 . S
H353 C341 0.929 . S
H354 C343 0.929 . S
O355 Co330 2.351 . S
O355 C358 1.244 . S
O356 Co330 2.155 . S
O356 C358 1.240 . S
O357 Co330 2.096 . S
O357 C338 1.247 . S
C358 O355 1.244 . S
C358 O356 1.240 . S
H359 C333 0.931 . S
H360 C342 0.931 . S
H361 C346 0.929 . S
H362 C348 0.930 . S
Co363 N367 2.148 . S
Co363 N373 2.128 . S
Co363 N383 2.194 . S
Co363 O388 2.351 . S
Co363 O389 2.155 1_565 S
Co363 O390 2.096 1_565 S
C364 N367 1.301 . S
C364 N368 1.328 1_565 S
C364 H369 0.930 . S
C365 C366 1.333 . S
C365 N367 1.317 1_545 S
C365 H370 0.930 . S
C366 C365 1.333 . S
C366 N368 1.350 . S
C366 H392 0.931 . S
N367 Co363 2.148 . S
N367 C364 1.301 . S
N367 C365 1.317 1_565 S
N368 C364 1.328 1_545 S
N368 C366 1.350 . S
H369 C364 0.930 . S
H370 C365 0.930 . S
C371 O372 1.259 . S
C371 O390 1.232 1_565 S
O372 C371 1.259 . S
N373 Co363 2.128 . S
N373 C374 1.355 . S
N373 C376 1.311 . S
C374 N373 1.355 . S
C374 C375 1.363 . S
C374 H386 0.929 . S
C375 C374 1.363 . S
C375 N377 1.375 . S
C375 H393 0.931 . S
C376 N373 1.311 . S
C376 N377 1.347 . S
C376 H387 0.929 . S
N377 C375 1.375 . S
N377 C376 1.347 . S
C378 C381 1.365 . S
C378 N383 1.328 . S
C378 H384 0.929 . S
C379 C380 1.362 . S
C379 C382 1.378 . S
C379 H394 0.929 . S
C380 C379 1.362 . S
C380 C381 1.366 . S
C381 C378 1.365 . S
C381 C380 1.366 . S
C381 H395 0.930 . S
C382 C379 1.378 . S
C382 N383 1.315 . S
C382 H385 0.930 . S
N383 Co363 2.194 . S
N383 C378 1.328 . S
N383 C382 1.315 . S
H384 C378 0.929 . S
H385 C382 0.930 . S
H386 C374 0.929 . S
H387 C376 0.929 . S
O388 Co363 2.351 . S
O388 C391 1.244 . S
O389 Co363 2.155 1_545 S
O389 C391 1.240 1_545 S
O390 Co363 2.096 1_545 S
O390 C371 1.232 1_545 S
C391 O388 1.244 . S
C391 O389 1.240 1_565 S
H392 C366 0.931 . S
H393 C375 0.931 . S
H394 C379 0.929 . S
H395 C381 0.930 . S
Co396 N400 2.148 . S
Co396 N406 2.128 . S
Co396 N416 2.194 . S
Co396 O421 2.351 . S
Co396 O422 2.155 . S
Co396 O423 2.096 . S
C397 N400 1.301 . S
C397 N401 1.328 . S
C397 H402 0.930 . S
C398 C399 1.333 . S
C398 N400 1.317 . S
C398 H403 0.930 . S
C399 C398 1.333 . S
C399 N401 1.350 . S
C399 H425 0.931 . S
N400 Co396 2.148 . S
N400 C397 1.301 . S
N400 C398 1.317 . S
N401 C397 1.328 . S
N401 C399 1.350 . S
H402 C397 0.930 . S
H403 C398 0.930 . S
C404 O405 1.224 . S
C404 O423 1.247 . S
O405 C404 1.224 . S
N406 Co396 2.128 . S
N406 C407 1.355 . S
N406 C409 1.311 . S
C407 N406 1.355 . S
C407 C408 1.363 . S
C407 H419 0.929 . S
C408 C407 1.363 . S
C408 N410 1.375 . S
C408 H426 0.931 . S
C409 N406 1.311 . S
C409 N410 1.347 . S
C409 H420 0.929 . S
N410 C408 1.375 . S
N410 C409 1.347 . S
C411 C414 1.365 . S
C411 N416 1.328 . S
C411 H417 0.929 . S
C412 C413 1.362 . S
C412 C415 1.378 . S
C412 H427 0.929 . S
C413 C412 1.362 . S
C413 C414 1.366 . S
C414 C411 1.365 . S
C414 C413 1.366 . S
C414 H428 0.930 . S
C415 C412 1.378 . S
C415 N416 1.315 . S
C415 H418 0.930 . S
N416 Co396 2.194 . S
N416 C411 1.328 . S
N416 C415 1.315 . S
H417 C411 0.929 . S
H418 C415 0.930 . S
H419 C407 0.929 . S
H420 C409 0.929 . S
O421 Co396 2.351 . S
O421 C424 1.244 . S
O422 Co396 2.155 . S
O422 C424 1.240 . S
O423 Co396 2.096 . S
O423 C404 1.247 . S
C424 O421 1.244 . S
C424 O422 1.240 . S
H425 C399 0.931 . S
H426 C408 0.931 . S
H427 C412 0.929 . S
H428 C414 0.930 . S
Co429 N433 2.148 . S
Co429 N439 2.128 . S
Co429 N449 2.194 . S
Co429 O454 2.351 . S
Co429 O455 2.155 1_545 S
Co429 O456 2.096 1_545 S
C430 N433 1.301 . S
C430 N434 1.328 1_545 S
C430 H435 0.930 . S
C431 C432 1.333 . S
C431 N433 1.317 1_565 S
C431 H436 0.930 . S
C432 C431 1.333 . S
C432 N434 1.350 . S
C432 H458 0.931 . S
N433 Co429 2.148 . S
N433 C430 1.301 . S
N433 C431 1.317 1_545 S
N434 C430 1.328 1_565 S
N434 C432 1.350 . S
H435 C430 0.930 . S
H436 C431 0.930 . S
C437 O438 1.259 . S
C437 O456 1.232 1_545 S
O438 C437 1.259 . S
N439 Co429 2.128 . S
N439 C440 1.355 . S
N439 C442 1.311 . S
C440 N439 1.355 . S
C440 C441 1.363 . S
C440 H452 0.929 . S
C441 C440 1.363 . S
C441 N443 1.375 . S
C441 H459 0.931 . S
C442 N439 1.311 . S
C442 N443 1.347 . S
C442 H453 0.929 . S
N443 C441 1.375 . S
N443 C442 1.347 . S
C444 C447 1.365 . S
C444 N449 1.328 . S
C444 H450 0.929 . S
C445 C446 1.362 . S
C445 C448 1.378 . S
C445 H460 0.929 . S
C446 C445 1.362 . S
C446 C447 1.366 . S
C447 C444 1.365 . S
C447 C446 1.366 . S
C447 H461 0.930 . S
C448 C445 1.378 . S
C448 N449 1.315 . S
C448 H451 0.930 . S
N449 Co429 2.194 . S
N449 C444 1.328 . S
N449 C448 1.315 . S
H450 C444 0.929 . S
H451 C448 0.930 . S
H452 C440 0.929 . S
H453 C442 0.929 . S
O454 Co429 2.351 . S
O454 C457 1.244 . S
O455 Co429 2.155 1_565 S
O455 C457 1.240 1_565 S
O456 Co429 2.096 1_565 S
O456 C437 1.232 1_565 S
C457 O454 1.244 . S
C457 O455 1.240 1_545 S
H458 C432 0.931 . S
H459 C441 0.931 . S
H460 C445 0.929 . S
H461 C447 0.930 . S
Co462 N466 2.148 . S
Co462 N472 2.128 . S
Co462 N482 2.194 . S
Co462 O487 2.351 . S
Co462 O488 2.155 . S
Co462 O489 2.096 . S
C463 N466 1.301 . S
C463 N467 1.328 . S
C463 H468 0.930 . S
C464 C465 1.333 . S
C464 N466 1.317 . S
C464 H469 0.930 . S
C465 C464 1.333 . S
C465 N467 1.350 . S
C465 H491 0.931 . S
N466 Co462 2.148 . S
N466 C463 1.301 . S
N466 C464 1.317 . S
N467 C463 1.328 . S
N467 C465 1.350 . S
H468 C463 0.930 . S
H469 C464 0.930 . S
C470 O471 1.224 . S
C470 O489 1.247 . S
O471 C470 1.224 . S
N472 Co462 2.128 . S
N472 C473 1.355 . S
N472 C475 1.311 . S
C473 N472 1.355 . S
C473 C474 1.363 . S
C473 H485 0.929 . S
C474 C473 1.363 . S
C474 N476 1.375 . S
C474 H492 0.931 . S
C475 N472 1.311 . S
C475 N476 1.347 . S
C475 H486 0.929 . S
N476 C474 1.375 . S
N476 C475 1.347 . S
C477 C480 1.365 . S
C477 N482 1.328 . S
C477 H483 0.929 . S
C478 C479 1.362 . S
C478 C481 1.378 . S
C478 H493 0.929 . S
C479 C478 1.362 . S
C479 C480 1.366 . S
C480 C477 1.365 . S
C480 C479 1.366 . S
C480 H494 0.930 . S
C481 C478 1.378 . S
C481 N482 1.315 . S
C481 H484 0.930 . S
N482 Co462 2.194 . S
N482 C477 1.328 . S
N482 C481 1.315 . S
H483 C477 0.929 . S
H484 C481 0.930 . S
H485 C473 0.929 . S
H486 C475 0.929 . S
O487 Co462 2.351 . S
O487 C490 1.244 . S
O488 Co462 2.155 . S
O488 C490 1.240 . S
O489 Co462 2.096 . S
O489 C470 1.247 . S
C490 O487 1.244 . S
C490 O488 1.240 . S
H491 C465 0.931 . S
H492 C474 0.931 . S
H493 C478 0.929 . S
H494 C480 0.930 . S
Co495 N499 2.148 . S
Co495 N505 2.128 . S
Co495 N515 2.194 . S
Co495 O520 2.351 . S
Co495 O521 2.155 1_565 S
Co495 O522 2.096 1_565 S
C496 N499 1.301 . S
C496 N500 1.328 1_565 S
C496 H501 0.930 . S
C497 C498 1.333 . S
C497 N499 1.317 1_545 S
C497 H502 0.930 . S
C498 C497 1.333 . S
C498 N500 1.350 . S
C498 H524 0.931 . S
N499 Co495 2.148 . S
N499 C496 1.301 . S
N499 C497 1.317 1_565 S
N500 C496 1.328 1_545 S
N500 C498 1.350 . S
H501 C496 0.930 . S
H502 C497 0.930 . S
C503 O504 1.259 . S
C503 O522 1.232 1_565 S
O504 C503 1.259 . S
N505 Co495 2.128 . S
N505 C506 1.355 . S
N505 C508 1.311 . S
C506 N505 1.355 . S
C506 C507 1.363 . S
C506 H518 0.929 . S
C507 C506 1.363 . S
C507 N509 1.375 . S
C507 H525 0.931 . S
C508 N505 1.311 . S
C508 N509 1.347 . S
C508 H519 0.929 . S
N509 C507 1.375 . S
N509 C508 1.347 . S
C510 C513 1.365 . S
C510 N515 1.328 . S
C510 H516 0.929 . S
C511 C512 1.362 . S
C511 C514 1.378 . S
C511 H526 0.929 . S
C512 C511 1.362 . S
C512 C513 1.366 . S
C513 C510 1.365 . S
C513 C512 1.366 . S
C513 H527 0.930 . S
C514 C511 1.378 . S
C514 N515 1.315 . S
C514 H517 0.930 . S
N515 Co495 2.194 . S
N515 C510 1.328 . S
N515 C514 1.315 . S
H516 C510 0.929 . S
H517 C514 0.930 . S
H518 C506 0.929 . S
H519 C508 0.929 . S
O520 Co495 2.351 . S
O520 C523 1.244 . S
O521 Co495 2.155 1_545 S
O521 C523 1.240 1_545 S
O522 Co495 2.096 1_545 S
O522 C503 1.232 1_545 S
C523 O520 1.244 . S
C523 O521 1.240 1_565 S
H524 C498 0.931 . S
H525 C507 0.931 . S
H526 C511 0.929 . S
H527 C513 0.930 . S
Co528 N532 2.148 . S
Co528 N538 2.128 . S
Co528 N548 2.194 . S
Co528 O553 2.351 . S
Co528 O554 2.155 . S
Co528 O555 2.096 . S
C529 N532 1.301 . S
C529 N533 1.328 . S
C529 H534 0.930 . S
C530 C531 1.333 . S
C530 N532 1.317 . S
C530 H535 0.930 . S
C531 C530 1.333 . S
C531 N533 1.350 . S
C531 H557 0.931 . S
N532 Co528 2.148 . S
N532 C529 1.301 . S
N532 C530 1.317 . S
N533 C529 1.328 . S
N533 C531 1.350 . S
H534 C529 0.930 . S
H535 C530 0.930 . S
C536 O537 1.224 . S
C536 O555 1.247 . S
O537 C536 1.224 . S
N538 Co528 2.128 . S
N538 C539 1.355 . S
N538 C541 1.311 . S
C539 N538 1.355 . S
C539 C540 1.363 . S
C539 H551 0.929 . S
C540 C539 1.363 . S
C540 N542 1.375 . S
C540 H558 0.931 . S
C541 N538 1.311 . S
C541 N542 1.347 . S
C541 H552 0.929 . S
N542 C540 1.375 . S
N542 C541 1.347 . S
C543 C546 1.365 . S
C543 N548 1.328 . S
C543 H549 0.929 . S
C544 C545 1.362 . S
C544 C547 1.378 . S
C544 H559 0.929 . S
C545 C544 1.362 . S
C545 C546 1.366 . S
C546 C543 1.365 . S
C546 C545 1.366 . S
C546 H560 0.930 . S
C547 C544 1.378 . S
C547 N548 1.315 . S
C547 H550 0.930 . S
N548 Co528 2.194 . S
N548 C543 1.328 . S
N548 C547 1.315 . S
H549 C543 0.929 . S
H550 C547 0.930 . S
H551 C539 0.929 . S
H552 C541 0.929 . S
O553 Co528 2.351 . S
O553 C556 1.244 . S
O554 Co528 2.155 . S
O554 C556 1.240 . S
O555 Co528 2.096 . S
O555 C536 1.247 . S
C556 O553 1.244 . S
C556 O554 1.240 . S
H557 C531 0.931 . S
H558 C540 0.931 . S
H559 C544 0.929 . S
H560 C546 0.930 . S
Co561 N565 2.148 . S
Co561 N571 2.128 . S
Co561 N581 2.194 . S
Co561 O586 2.351 . S
Co561 O587 2.155 . S
Co561 O588 2.096 . S
C562 N565 1.301 . S
C562 N566 1.328 . S
C562 H567 0.930 . S
C563 C564 1.333 . S
C563 N565 1.317 . S
C563 H568 0.930 . S
C564 C563 1.333 . S
C564 N566 1.350 . S
C564 H590 0.931 . S
N565 Co561 2.148 . S
N565 C562 1.301 . S
N565 C563 1.317 . S
N566 C562 1.328 . S
N566 C564 1.350 . S
H567 C562 0.930 . S
H568 C563 0.930 . S
C569 O570 1.224 . S
C569 O588 1.247 . S
O570 C569 1.224 . S
N571 Co561 2.128 . S
N571 C572 1.355 . S
N571 C574 1.311 . S
C572 N571 1.355 . S
C572 C573 1.363 . S
C572 H584 0.929 . S
C573 C572 1.363 . S
C573 N575 1.375 . S
C573 H591 0.931 . S
C574 N571 1.311 . S
C574 N575 1.347 . S
C574 H585 0.929 . S
N575 C573 1.375 . S
N575 C574 1.347 . S
C576 C579 1.365 . S
C576 N581 1.328 . S
C576 H582 0.929 . S
C577 C578 1.362 . S
C577 C580 1.378 . S
C577 H592 0.929 . S
C578 C577 1.362 . S
C578 C579 1.366 . S
C579 C576 1.365 . S
C579 C578 1.366 . S
C579 H593 0.930 . S
C580 C577 1.378 . S
C580 N581 1.315 . S
C580 H583 0.930 . S
N581 Co561 2.194 . S
N581 C576 1.328 . S
N581 C580 1.315 . S
H582 C576 0.929 . S
H583 C580 0.930 . S
H584 C572 0.929 . S
H585 C574 0.929 . S
O586 Co561 2.351 . S
O586 C589 1.244 . S
O587 Co561 2.155 . S
O587 C589 1.240 . S
O588 Co561 2.096 . S
O588 C569 1.247 . S
C589 O586 1.244 . S
C589 O587 1.240 . S
H590 C564 0.931 . S
H591 C573 0.931 . S
H592 C577 0.929 . S
H593 C579 0.930 . S
Co594 N598 2.148 . S
Co594 N604 2.128 . S
Co594 N614 2.194 . S
Co594 O619 2.351 . S
Co594 O620 2.155 1_455 S
Co594 O621 2.096 1_455 S
C595 N598 1.301 . S
C595 N599 1.328 1_455 S
C595 H600 0.930 . S
C596 C597 1.333 . S
C596 N598 1.317 1_655 S
C596 H601 0.930 . S
C597 C596 1.333 . S
C597 N599 1.350 . S
C597 H623 0.931 . S
N598 Co594 2.148 . S
N598 C595 1.301 . S
N598 C596 1.317 1_455 S
N599 C595 1.328 1_655 S
N599 C597 1.350 . S
H600 C595 0.930 . S
H601 C596 0.930 . S
C602 O603 1.259 . S
C602 O621 1.232 1_455 S
O603 C602 1.259 . S
N604 Co594 2.128 . S
N604 C605 1.355 . S
N604 C607 1.311 . S
C605 N604 1.355 . S
C605 C606 1.363 . S
C605 H617 0.929 . S
C606 C605 1.363 . S
C606 N608 1.375 . S
C606 H624 0.931 . S
C607 N604 1.311 . S
C607 N608 1.347 . S
C607 H618 0.929 . S
N608 C606 1.375 . S
N608 C607 1.347 . S
C609 C612 1.365 . S
C609 N614 1.328 . S
C609 H615 0.929 . S
C610 C611 1.362 . S
C610 C613 1.378 . S
C610 H625 0.929 . S
C611 C610 1.362 . S
C611 C612 1.366 . S
C612 C609 1.365 . S
C612 C611 1.366 . S
C612 H626 0.930 . S
C613 C610 1.378 . S
C613 N614 1.315 . S
C613 H616 0.930 . S
N614 Co594 2.194 . S
N614 C609 1.328 . S
N614 C613 1.315 . S
H615 C609 0.929 . S
H616 C613 0.930 . S
H617 C605 0.929 . S
H618 C607 0.929 . S
O619 Co594 2.351 . S
O619 C622 1.244 . S
O620 Co594 2.155 1_655 S
O620 C622 1.240 1_655 S
O621 Co594 2.096 1_655 S
O621 C602 1.232 1_655 S
C622 O619 1.244 . S
C622 O620 1.240 1_455 S
H623 C597 0.931 . S
H624 C606 0.931 . S
H625 C610 0.929 . S
H626 C612 0.930 . S
Co627 N631 2.148 . S
Co627 N637 2.128 . S
Co627 N647 2.194 . S
Co627 O652 2.351 . S
Co627 O653 2.155 . S
Co627 O654 2.096 . S
C628 N631 1.301 . S
C628 N632 1.328 . S
C628 H633 0.930 . S
C629 C630 1.333 . S
C629 N631 1.317 . S
C629 H634 0.930 . S
C630 C629 1.333 . S
C630 N632 1.350 . S
C630 H656 0.931 . S
N631 Co627 2.148 . S
N631 C628 1.301 . S
N631 C629 1.317 . S
N632 C628 1.328 . S
N632 C630 1.350 . S
H633 C628 0.930 . S
H634 C629 0.930 . S
C635 O636 1.224 . S
C635 O654 1.247 . S
O636 C635 1.224 . S
N637 Co627 2.128 . S
N637 C638 1.355 . S
N637 C640 1.311 . S
C638 N637 1.355 . S
C638 C639 1.363 . S
C638 H650 0.929 . S
C639 C638 1.363 . S
C639 N641 1.375 . S
C639 H657 0.931 . S
C640 N637 1.311 . S
C640 N641 1.347 . S
C640 H651 0.929 . S
N641 C639 1.375 . S
N641 C640 1.347 . S
C642 C645 1.365 . S
C642 N647 1.328 . S
C642 H648 0.929 . S
C643 C644 1.362 . S
C643 C646 1.378 . S
C643 H658 0.929 . S
C644 C643 1.362 . S
C644 C645 1.366 . S
C645 C642 1.365 . S
C645 C644 1.366 . S
C645 H659 0.930 . S
C646 C643 1.378 . S
C646 N647 1.315 . S
C646 H649 0.930 . S
N647 Co627 2.194 . S
N647 C642 1.328 . S
N647 C646 1.315 . S
H648 C642 0.929 . S
H649 C646 0.930 . S
H650 C638 0.929 . S
H651 C640 0.929 . S
O652 Co627 2.351 . S
O652 C655 1.244 . S
O653 Co627 2.155 . S
O653 C655 1.240 . S
O654 Co627 2.096 . S
O654 C635 1.247 . S
C655 O652 1.244 . S
C655 O653 1.240 . S
H656 C630 0.931 . S
H657 C639 0.931 . S
H658 C643 0.929 . S
H659 C645 0.930 . S
Co660 N664 2.148 . S
Co660 N670 2.128 . S
Co660 N680 2.194 . S
Co660 O685 2.351 . S
Co660 O686 2.155 1_655 S
Co660 O687 2.096 1_655 S
C661 N664 1.301 . S
C661 N665 1.328 1_655 S
C661 H666 0.930 . S
C662 C663 1.333 . S
C662 N664 1.317 1_455 S
C662 H667 0.930 . S
C663 C662 1.333 . S
C663 N665 1.350 . S
C663 H689 0.931 . S
N664 Co660 2.148 . S
N664 C661 1.301 . S
N664 C662 1.317 1_655 S
N665 C661 1.328 1_455 S
N665 C663 1.350 . S
H666 C661 0.930 . S
H667 C662 0.930 . S
C668 O669 1.259 . S
C668 O687 1.232 1_655 S
O669 C668 1.259 . S
N670 Co660 2.128 . S
N670 C671 1.355 . S
N670 C673 1.311 . S
C671 N670 1.355 . S
C671 C672 1.363 . S
C671 H683 0.929 . S
C672 C671 1.363 . S
C672 N674 1.375 . S
C672 H690 0.931 . S
C673 N670 1.311 . S
C673 N674 1.347 . S
C673 H684 0.929 . S
N674 C672 1.375 . S
N674 C673 1.347 . S
C675 C678 1.365 . S
C675 N680 1.328 . S
C675 H681 0.929 . S
C676 C677 1.362 . S
C676 C679 1.378 . S
C676 H691 0.929 . S
C677 C676 1.362 . S
C677 C678 1.366 . S
C678 C675 1.365 . S
C678 C677 1.366 . S
C678 H692 0.930 . S
C679 C676 1.378 . S
C679 N680 1.315 . S
C679 H682 0.930 . S
N680 Co660 2.194 . S
N680 C675 1.328 . S
N680 C679 1.315 . S
H681 C675 0.929 . S
H682 C679 0.930 . S
H683 C671 0.929 . S
H684 C673 0.929 . S
O685 Co660 2.351 . S
O685 C688 1.244 . S
O686 Co660 2.155 1_455 S
O686 C688 1.240 1_455 S
O687 Co660 2.096 1_455 S
O687 C668 1.232 1_455 S
C688 O685 1.244 . S
C688 O686 1.240 1_655 S
H689 C663 0.931 . S
H690 C672 0.931 . S
H691 C676 0.929 . S
H692 C678 0.930 . S
Co693 N697 2.148 . S
Co693 N703 2.128 . S
Co693 N713 2.194 . S
Co693 O718 2.351 . S
Co693 O719 2.155 . S
Co693 O720 2.096 . S
C694 N697 1.301 . S
C694 N698 1.328 . S
C694 H699 0.930 . S
C695 C696 1.333 . S
C695 N697 1.317 . S
C695 H700 0.930 . S
C696 C695 1.333 . S
C696 N698 1.350 . S
C696 H722 0.931 . S
N697 Co693 2.148 . S
N697 C694 1.301 . S
N697 C695 1.317 . S
N698 C694 1.328 . S
N698 C696 1.350 . S
H699 C694 0.930 . S
H700 C695 0.930 . S
C701 O702 1.224 . S
C701 O720 1.247 . S
O702 C701 1.224 . S
N703 Co693 2.128 . S
N703 C704 1.355 . S
N703 C706 1.311 . S
C704 N703 1.355 . S
C704 C705 1.363 . S
C704 H716 0.929 . S
C705 C704 1.363 . S
C705 N707 1.375 . S
C705 H723 0.931 . S
C706 N703 1.311 . S
C706 N707 1.347 . S
C706 H717 0.929 . S
N707 C705 1.375 . S
N707 C706 1.347 . S
C708 C711 1.365 . S
C708 N713 1.328 . S
C708 H714 0.929 . S
C709 C710 1.362 . S
C709 C712 1.378 . S
C709 H724 0.929 . S
C710 C709 1.362 . S
C710 C711 1.366 . S
C711 C708 1.365 . S
C711 C710 1.366 . S
C711 H725 0.930 . S
C712 C709 1.378 . S
C712 N713 1.315 . S
C712 H715 0.930 . S
N713 Co693 2.194 . S
N713 C708 1.328 . S
N713 C712 1.315 . S
H714 C708 0.929 . S
H715 C712 0.930 . S
H716 C704 0.929 . S
H717 C706 0.929 . S
O718 Co693 2.351 . S
O718 C721 1.244 . S
O719 Co693 2.155 . S
O719 C721 1.240 . S
O720 Co693 2.096 . S
O720 C701 1.247 . S
C721 O718 1.244 . S
C721 O719 1.240 . S
H722 C696 0.931 . S
H723 C705 0.931 . S
H724 C709 0.929 . S
H725 C711 0.930 . S
Co726 N730 2.148 . S
Co726 N736 2.128 . S
Co726 N746 2.194 . S
Co726 O751 2.351 . S
Co726 O752 2.155 1_455 S
Co726 O753 2.096 1_455 S
C727 N730 1.301 . S
C727 N731 1.328 1_455 S
C727 H732 0.930 . S
C728 C729 1.333 . S
C728 N730 1.317 1_655 S
C728 H733 0.930 . S
C729 C728 1.333 . S
C729 N731 1.350 . S
C729 H755 0.931 . S
N730 Co726 2.148 . S
N730 C727 1.301 . S
N730 C728 1.317 1_455 S
N731 C727 1.328 1_655 S
N731 C729 1.350 . S
H732 C727 0.930 . S
H733 C728 0.930 . S
C734 O735 1.259 . S
C734 O753 1.232 1_455 S
O735 C734 1.259 . S
N736 Co726 2.128 . S
N736 C737 1.355 . S
N736 C739 1.311 . S
C737 N736 1.355 . S
C737 C738 1.363 . S
C737 H749 0.929 . S
C738 C737 1.363 . S
C738 N740 1.375 . S
C738 H756 0.931 . S
C739 N736 1.311 . S
C739 N740 1.347 . S
C739 H750 0.929 . S
N740 C738 1.375 . S
N740 C739 1.347 . S
C741 C744 1.365 . S
C741 N746 1.328 . S
C741 H747 0.929 . S
C742 C743 1.362 . S
C742 C745 1.378 . S
C742 H757 0.929 . S
C743 C742 1.362 . S
C743 C744 1.366 . S
C744 C741 1.365 . S
C744 C743 1.366 . S
C744 H758 0.930 . S
C745 C742 1.378 . S
C745 N746 1.315 . S
C745 H748 0.930 . S
N746 Co726 2.194 . S
N746 C741 1.328 . S
N746 C745 1.315 . S
H747 C741 0.929 . S
H748 C745 0.930 . S
H749 C737 0.929 . S
H750 C739 0.929 . S
O751 Co726 2.351 . S
O751 C754 1.244 . S
O752 Co726 2.155 1_655 S
O752 C754 1.240 1_655 S
O753 Co726 2.096 1_655 S
O753 C734 1.232 1_655 S
C754 O751 1.244 . S
C754 O752 1.240 1_455 S
H755 C729 0.931 . S
H756 C738 0.931 . S
H757 C742 0.929 . S
H758 C744 0.930 . S
Co759 N763 2.148 . S
Co759 N769 2.128 . S
Co759 N779 2.194 . S
Co759 O784 2.351 . S
Co759 O785 2.155 . S
Co759 O786 2.096 . S
C760 N763 1.301 . S
C760 N764 1.328 . S
C760 H765 0.930 . S
C761 C762 1.333 . S
C761 N763 1.317 . S
C761 H766 0.930 . S
C762 C761 1.333 . S
C762 N764 1.350 . S
C762 H788 0.931 . S
N763 Co759 2.148 . S
N763 C760 1.301 . S
N763 C761 1.317 . S
N764 C760 1.328 . S
N764 C762 1.350 . S
H765 C760 0.930 . S
H766 C761 0.930 . S
C767 O768 1.224 . S
C767 O786 1.247 . S
O768 C767 1.224 . S
N769 Co759 2.128 . S
N769 C770 1.355 . S
N769 C772 1.311 . S
C770 N769 1.355 . S
C770 C771 1.363 . S
C770 H782 0.929 . S
C771 C770 1.363 . S
C771 N773 1.375 . S
C771 H789 0.931 . S
C772 N769 1.311 . S
C772 N773 1.347 . S
C772 H783 0.929 . S
N773 C771 1.375 . S
N773 C772 1.347 . S
C774 C777 1.365 . S
C774 N779 1.328 . S
C774 H780 0.929 . S
C775 C776 1.362 . S
C775 C778 1.378 . S
C775 H790 0.929 . S
C776 C775 1.362 . S
C776 C777 1.366 . S
C777 C774 1.365 . S
C777 C776 1.366 . S
C777 H791 0.930 . S
C778 C775 1.378 . S
C778 N779 1.315 . S
C778 H781 0.930 . S
N779 Co759 2.194 . S
N779 C774 1.328 . S
N779 C778 1.315 . S
H780 C774 0.929 . S
H781 C778 0.930 . S
H782 C770 0.929 . S
H783 C772 0.929 . S
O784 Co759 2.351 . S
O784 C787 1.244 . S
O785 Co759 2.155 . S
O785 C787 1.240 . S
O786 Co759 2.096 . S
O786 C767 1.247 . S
C787 O784 1.244 . S
C787 O785 1.240 . S
H788 C762 0.931 . S
H789 C771 0.931 . S
H790 C775 0.929 . S
H791 C777 0.930 . S
Co792 N796 2.148 . S
Co792 N802 2.128 . S
Co792 N812 2.194 . S
Co792 O817 2.351 . S
Co792 O818 2.155 . S
Co792 O819 2.096 . S
C793 N796 1.301 . S
C793 N797 1.328 . S
C793 H798 0.930 . S
C794 C795 1.333 . S
C794 N796 1.317 . S
C794 H799 0.930 . S
C795 C794 1.333 . S
C795 N797 1.350 . S
C795 H821 0.931 . S
N796 Co792 2.148 . S
N796 C793 1.301 . S
N796 C794 1.317 . S
N797 C793 1.328 . S
N797 C795 1.350 . S
H798 C793 0.930 . S
H799 C794 0.930 . S
C800 O801 1.224 . S
C800 O819 1.247 . S
O801 C800 1.224 . S
N802 Co792 2.128 . S
N802 C803 1.355 . S
N802 C805 1.311 . S
C803 N802 1.355 . S
C803 C804 1.363 . S
C803 H815 0.929 . S
C804 C803 1.363 . S
C804 N806 1.375 . S
C804 H822 0.931 . S
C805 N802 1.311 . S
C805 N806 1.347 . S
C805 H816 0.929 . S
N806 C804 1.375 . S
N806 C805 1.347 . S
C807 C810 1.365 . S
C807 N812 1.328 . S
C807 H813 0.929 . S
C808 C809 1.362 . S
C808 C811 1.378 . S
C808 H823 0.929 . S
C809 C808 1.362 . S
C809 C810 1.366 . S
C810 C807 1.365 . S
C810 C809 1.366 . S
C810 H824 0.930 . S
C811 C808 1.378 . S
C811 N812 1.315 . S
C811 H814 0.930 . S
N812 Co792 2.194 . S
N812 C807 1.328 . S
N812 C811 1.315 . S
H813 C807 0.929 . S
H814 C811 0.930 . S
H815 C803 0.929 . S
H816 C805 0.929 . S
O817 Co792 2.351 . S
O817 C820 1.244 . S
O818 Co792 2.155 . S
O818 C820 1.240 . S
O819 Co792 2.096 . S
O819 C800 1.247 . S
C820 O817 1.244 . S
C820 O818 1.240 . S
H821 C795 0.931 . S
H822 C804 0.931 . S
H823 C808 0.929 . S
H824 C810 0.930 . S
Co825 N829 2.148 . S
Co825 N835 2.128 . S
Co825 N845 2.194 . S
Co825 O850 2.351 . S
Co825 O851 2.155 1_554 S
Co825 O852 2.096 1_554 S
C826 N829 1.301 . S
C826 N830 1.328 1_554 S
C826 H831 0.930 . S
C827 C828 1.333 . S
C827 N829 1.317 1_556 S
C827 H832 0.930 . S
C828 C827 1.333 . S
C828 N830 1.350 . S
C828 H854 0.931 . S
N829 Co825 2.148 . S
N829 C826 1.301 . S
N829 C827 1.317 1_554 S
N830 C826 1.328 1_556 S
N830 C828 1.350 . S
H831 C826 0.930 . S
H832 C827 0.930 . S
C833 O834 1.259 . S
C833 O852 1.232 1_554 S
O834 C833 1.259 . S
N835 Co825 2.128 . S
N835 C836 1.355 . S
N835 C838 1.311 . S
C836 N835 1.355 . S
C836 C837 1.363 . S
C836 H848 0.929 . S
C837 C836 1.363 . S
C837 N839 1.375 . S
C837 H855 0.931 . S
C838 N835 1.311 . S
C838 N839 1.347 . S
C838 H849 0.929 . S
N839 C837 1.375 . S
N839 C838 1.347 . S
C840 C843 1.365 . S
C840 N845 1.328 . S
C840 H846 0.929 . S
C841 C842 1.362 . S
C841 C844 1.378 . S
C841 H856 0.929 . S
C842 C841 1.362 . S
C842 C843 1.366 . S
C843 C840 1.365 . S
C843 C842 1.366 . S
C843 H857 0.930 . S
C844 C841 1.378 . S
C844 N845 1.315 . S
C844 H847 0.930 . S
N845 Co825 2.194 . S
N845 C840 1.328 . S
N845 C844 1.315 . S
H846 C840 0.929 . S
H847 C844 0.930 . S
H848 C836 0.929 . S
H849 C838 0.929 . S
O850 Co825 2.351 . S
O850 C853 1.244 . S
O851 Co825 2.155 1_556 S
O851 C853 1.240 1_556 S
O852 Co825 2.096 1_556 S
O852 C833 1.232 1_556 S
C853 O850 1.244 . S
C853 O851 1.240 1_554 S
H854 C828 0.931 . S
H855 C837 0.931 . S
H856 C841 0.929 . S
H857 C843 0.930 . S
Co858 N862 2.148 . S
Co858 N868 2.128 . S
Co858 N878 2.194 . S
Co858 O883 2.351 . S
Co858 O884 2.155 . S
Co858 O885 2.096 . S
C859 N862 1.301 . S
C859 N863 1.328 . S
C859 H864 0.930 . S
C860 C861 1.333 . S
C860 N862 1.317 . S
C860 H865 0.930 . S
C861 C860 1.333 . S
C861 N863 1.350 . S
C861 H887 0.931 . S
N862 Co858 2.148 . S
N862 C859 1.301 . S
N862 C860 1.317 . S
N863 C859 1.328 . S
N863 C861 1.350 . S
H864 C859 0.930 . S
H865 C860 0.930 . S
C866 O867 1.224 . S
C866 O885 1.247 . S
O867 C866 1.224 . S
N868 Co858 2.128 . S
N868 C869 1.355 . S
N868 C871 1.311 . S
C869 N868 1.355 . S
C869 C870 1.363 . S
C869 H881 0.929 . S
C870 C869 1.363 . S
C870 N872 1.375 . S
C870 H888 0.931 . S
C871 N868 1.311 . S
C871 N872 1.347 . S
C871 H882 0.929 . S
N872 C870 1.375 . S
N872 C871 1.347 . S
C873 C876 1.365 . S
C873 N878 1.328 . S
C873 H879 0.929 . S
C874 C875 1.362 . S
C874 C877 1.378 . S
C874 H889 0.929 . S
C875 C874 1.362 . S
C875 C876 1.366 . S
C876 C873 1.365 . S
C876 C875 1.366 . S
C876 H890 0.930 . S
C877 C874 1.378 . S
C877 N878 1.315 . S
C877 H880 0.930 . S
N878 Co858 2.194 . S
N878 C873 1.328 . S
N878 C877 1.315 . S
H879 C873 0.929 . S
H880 C877 0.930 . S
H881 C869 0.929 . S
H882 C871 0.929 . S
O883 Co858 2.351 . S
O883 C886 1.244 . S
O884 Co858 2.155 . S
O884 C886 1.240 . S
O885 Co858 2.096 . S
O885 C866 1.247 . S
C886 O883 1.244 . S
C886 O884 1.240 . S
H887 C861 0.931 . S
H888 C870 0.931 . S
H889 C874 0.929 . S
H890 C876 0.930 . S
Co891 N895 2.148 . S
Co891 N901 2.128 . S
Co891 N911 2.194 . S
Co891 O916 2.351 . S
Co891 O917 2.155 . S
Co891 O918 2.096 . S
C892 N895 1.301 . S
C892 N896 1.328 . S
C892 H897 0.930 . S
C893 C894 1.333 . S
C893 N895 1.317 . S
C893 H898 0.930 . S
C894 C893 1.333 . S
C894 N896 1.350 . S
C894 H920 0.931 . S
N895 Co891 2.148 . S
N895 C892 1.301 . S
N895 C893 1.317 . S
N896 C892 1.328 . S
N896 C894 1.350 . S
H897 C892 0.930 . S
H898 C893 0.930 . S
C899 O900 1.224 . S
C899 O918 1.247 . S
O900 C899 1.224 . S
N901 Co891 2.128 . S
N901 C902 1.355 . S
N901 C904 1.311 . S
C902 N901 1.355 . S
C902 C903 1.363 . S
C902 H914 0.929 . S
C903 C902 1.363 . S
C903 N905 1.375 . S
C903 H921 0.931 . S
C904 N901 1.311 . S
C904 N905 1.347 . S
C904 H915 0.929 . S
N905 C903 1.375 . S
N905 C904 1.347 . S
C906 C909 1.365 . S
C906 N911 1.328 . S
C906 H912 0.929 . S
C907 C908 1.362 . S
C907 C910 1.378 . S
C907 H922 0.929 . S
C908 C907 1.362 . S
C908 C909 1.366 . S
C909 C906 1.365 . S
C909 C908 1.366 . S
C909 H923 0.930 . S
C910 C907 1.378 . S
C910 N911 1.315 . S
C910 H913 0.930 . S
N911 Co891 2.194 . S
N911 C906 1.328 . S
N911 C910 1.315 . S
H912 C906 0.929 . S
H913 C910 0.930 . S
H914 C902 0.929 . S
H915 C904 0.929 . S
O916 Co891 2.351 . S
O916 C919 1.244 . S
O917 Co891 2.155 . S
O917 C919 1.240 . S
O918 Co891 2.096 . S
O918 C899 1.247 . S
C919 O916 1.244 . S
C919 O917 1.240 . S
H920 C894 0.931 . S
H921 C903 0.931 . S
H922 C907 0.929 . S
H923 C909 0.930 . S
Co924 N928 2.148 . S
Co924 N934 2.128 . S
Co924 N944 2.194 . S
Co924 O949 2.351 . S
Co924 O950 2.155 . S
Co924 O951 2.096 . S
C925 N928 1.301 . S
C925 N929 1.328 . S
C925 H930 0.930 . S
C926 C927 1.333 . S
C926 N928 1.317 . S
C926 H931 0.930 . S
C927 C926 1.333 . S
C927 N929 1.350 . S
C927 H953 0.931 . S
N928 Co924 2.148 . S
N928 C925 1.301 . S
N928 C926 1.317 . S
N929 C925 1.328 . S
N929 C927 1.350 . S
H930 C925 0.930 . S
H931 C926 0.930 . S
C932 O933 1.224 . S
C932 O951 1.247 . S
O933 C932 1.224 . S
N934 Co924 2.128 . S
N934 C935 1.355 . S
N934 C937 1.311 . S
C935 N934 1.355 . S
C935 C936 1.363 . S
C935 H947 0.929 . S
C936 C935 1.363 . S
C936 N938 1.375 . S
C936 H954 0.931 . S
C937 N934 1.311 . S
C937 N938 1.347 . S
C937 H948 0.929 . S
N938 C936 1.375 . S
N938 C937 1.347 . S
C939 C942 1.365 . S
C939 N944 1.328 . S
C939 H945 0.929 . S
C940 C941 1.362 . S
C940 C943 1.378 . S
C940 H955 0.929 . S
C941 C940 1.362 . S
C941 C942 1.366 . S
C942 C939 1.365 . S
C942 C941 1.366 . S
C942 H956 0.930 . S
C943 C940 1.378 . S
C943 N944 1.315 . S
C943 H946 0.930 . S
N944 Co924 2.194 . S
N944 C939 1.328 . S
N944 C943 1.315 . S
H945 C939 0.929 . S
H946 C943 0.930 . S
H947 C935 0.929 . S
H948 C937 0.929 . S
O949 Co924 2.351 . S
O949 C952 1.244 . S
O950 Co924 2.155 . S
O950 C952 1.240 . S
O951 Co924 2.096 . S
O951 C932 1.247 . S
C952 O949 1.244 . S
C952 O950 1.240 . S
H953 C927 0.931 . S
H954 C936 0.931 . S
H955 C940 0.929 . S
H956 C942 0.930 . S
Co957 N961 2.148 . S
Co957 N967 2.128 . S
Co957 N977 2.194 . S
Co957 O982 2.351 . S
Co957 O983 2.155 1_556 S
Co957 O984 2.096 1_556 S
C958 N961 1.301 . S
C958 N962 1.328 1_556 S
C958 H963 0.930 . S
C959 C960 1.333 . S
C959 N961 1.317 1_554 S
C959 H964 0.930 . S
C960 C959 1.333 . S
C960 N962 1.350 . S
C960 H986 0.931 . S
N961 Co957 2.148 . S
N961 C958 1.301 . S
N961 C959 1.317 1_556 S
N962 C958 1.328 1_554 S
N962 C960 1.350 . S
H963 C958 0.930 . S
H964 C959 0.930 . S
C965 O966 1.259 . S
C965 O984 1.232 1_556 S
O966 C965 1.259 . S
N967 Co957 2.128 . S
N967 C968 1.355 . S
N967 C970 1.311 . S
C968 N967 1.355 . S
C968 C969 1.363 . S
C968 H980 0.929 . S
C969 C968 1.363 . S
C969 N971 1.375 . S
C969 H987 0.931 . S
C970 N967 1.311 . S
C970 N971 1.347 . S
C970 H981 0.929 . S
N971 C969 1.375 . S
N971 C970 1.347 . S
C972 C975 1.365 . S
C972 N977 1.328 . S
C972 H978 0.929 . S
C973 C974 1.362 . S
C973 C976 1.378 . S
C973 H988 0.929 . S
C974 C973 1.362 . S
C974 C975 1.366 . S
C975 C972 1.365 . S
C975 C974 1.366 . S
C975 H989 0.930 . S
C976 C973 1.378 . S
C976 N977 1.315 . S
C976 H979 0.930 . S
N977 Co957 2.194 . S
N977 C972 1.328 . S
N977 C976 1.315 . S
H978 C972 0.929 . S
H979 C976 0.930 . S
H980 C968 0.929 . S
H981 C970 0.929 . S
O982 Co957 2.351 . S
O982 C985 1.244 . S
O983 Co957 2.155 1_554 S
O983 C985 1.240 1_554 S
O984 Co957 2.096 1_554 S
O984 C965 1.232 1_554 S
C985 O982 1.244 . S
C985 O983 1.240 1_556 S
H986 C960 0.931 . S
H987 C969 0.931 . S
H988 C973 0.929 . S
H989 C975 0.930 . S
Co990 N994 2.148 . S
Co990 N1000 2.128 . S
Co990 N1010 2.194 . S
Co990 O1015 2.351 . S
Co990 O1016 2.155 . S
Co990 O1017 2.096 . S
C991 N994 1.301 . S
C991 N995 1.328 . S
C991 H996 0.930 . S
C992 C993 1.333 . S
C992 N994 1.317 . S
C992 H997 0.930 . S
C993 C992 1.333 . S
C993 N995 1.350 . S
C993 H1019 0.931 . S
N994 Co990 2.148 . S
N994 C991 1.301 . S
N994 C992 1.317 . S
N995 C991 1.328 . S
N995 C993 1.350 . S
H996 C991 0.930 . S
H997 C992 0.930 . S
C998 O999 1.224 . S
C998 O1017 1.247 . S
O999 C998 1.224 . S
N1000 Co990 2.128 . S
N1000 C1001 1.355 . S
N1000 C1003 1.311 . S
C1001 N1000 1.355 . S
C1001 C1002 1.363 . S
C1001 H1013 0.929 . S
C1002 C1001 1.363 . S
C1002 N1004 1.375 . S
C1002 H1020 0.931 . S
C1003 N1000 1.311 . S
C1003 N1004 1.347 . S
C1003 H1014 0.929 . S
N1004 C1002 1.375 . S
N1004 C1003 1.347 . S
C1005 C1008 1.365 . S
C1005 N1010 1.328 . S
C1005 H1011 0.929 . S
C1006 C1007 1.362 . S
C1006 C1009 1.378 . S
C1006 H1021 0.929 . S
C1007 C1006 1.362 . S
C1007 C1008 1.366 . S
C1008 C1005 1.365 . S
C1008 C1007 1.366 . S
C1008 H1022 0.930 . S
C1009 C1006 1.378 . S
C1009 N1010 1.315 . S
C1009 H1012 0.930 . S
N1010 Co990 2.194 . S
N1010 C1005 1.328 . S
N1010 C1009 1.315 . S
H1011 C1005 0.929 . S
H1012 C1009 0.930 . S
H1013 C1001 0.929 . S
H1014 C1003 0.929 . S
O1015 Co990 2.351 . S
O1015 C1018 1.244 . S
O1016 Co990 2.155 . S
O1016 C1018 1.240 . S
O1017 Co990 2.096 . S
O1017 C998 1.247 . S
C1018 O1015 1.244 . S
C1018 O1016 1.240 . S
H1019 C993 0.931 . S
H1020 C1002 0.931 . S
H1021 C1006 0.929 . S
H1022 C1008 0.930 . S
Co1023 N1027 2.148 . S
Co1023 N1033 2.128 . S
Co1023 N1043 2.194 . S
Co1023 O1048 2.351 . S
Co1023 O1049 2.155 . S
Co1023 O1050 2.096 . S
C1024 N1027 1.301 . S
C1024 N1028 1.328 . S
C1024 H1029 0.930 . S
C1025 C1026 1.333 . S
C1025 N1027 1.317 . S
C1025 H1030 0.930 . S
C1026 C1025 1.333 . S
C1026 N1028 1.350 . S
C1026 H1052 0.931 . S
N1027 Co1023 2.148 . S
N1027 C1024 1.301 . S
N1027 C1025 1.317 . S
N1028 C1024 1.328 . S
N1028 C1026 1.350 . S
H1029 C1024 0.930 . S
H1030 C1025 0.930 . S
C1031 O1032 1.224 . S
C1031 O1050 1.247 . S
O1032 C1031 1.224 . S
N1033 Co1023 2.128 . S
N1033 C1034 1.355 . S
N1033 C1036 1.311 . S
C1034 N1033 1.355 . S
C1034 C1035 1.363 . S
C1034 H1046 0.929 . S
C1035 C1034 1.363 . S
C1035 N1037 1.375 . S
C1035 H1053 0.931 . S
C1036 N1033 1.311 . S
C1036 N1037 1.347 . S
C1036 H1047 0.929 . S
N1037 C1035 1.375 . S
N1037 C1036 1.347 . S
C1038 C1041 1.365 . S
C1038 N1043 1.328 . S
C1038 H1044 0.929 . S
C1039 C1040 1.362 . S
C1039 C1042 1.378 . S
C1039 H1054 0.929 . S
C1040 C1039 1.362 . S
C1040 C1041 1.366 . S
C1041 C1038 1.365 . S
C1041 C1040 1.366 . S
C1041 H1055 0.930 . S
C1042 C1039 1.378 . S
C1042 N1043 1.315 . S
C1042 H1045 0.930 . S
N1043 Co1023 2.194 . S
N1043 C1038 1.328 . S
N1043 C1042 1.315 . S
H1044 C1038 0.929 . S
H1045 C1042 0.930 . S
H1046 C1034 0.929 . S
H1047 C1036 0.929 . S
O1048 Co1023 2.351 . S
O1048 C1051 1.244 . S
O1049 Co1023 2.155 . S
O1049 C1051 1.240 . S
O1050 Co1023 2.096 . S
O1050 C1031 1.247 . S
C1051 O1048 1.244 . S
C1051 O1049 1.240 . S
H1052 C1026 0.931 . S
H1053 C1035 0.931 . S
H1054 C1039 0.929 . S
H1055 C1041 0.930 . S
Co1056 N1060 2.148 . S
Co1056 N1066 2.128 . S
Co1056 N1076 2.194 . S
Co1056 O1081 2.351 . S
Co1056 O1082 2.155 . S
Co1056 O1083 2.096 . S
C1057 N1060 1.301 . S
C1057 N1061 1.328 . S
C1057 H1062 0.930 . S
C1058 C1059 1.333 . S
C1058 N1060 1.317 . S
C1058 H1063 0.930 . S
C1059 C1058 1.333 . S
C1059 N1061 1.350 . S
C1059 H1085 0.931 . S
N1060 Co1056 2.148 . S
N1060 C1057 1.301 . S
N1060 C1058 1.317 . S
N1061 C1057 1.328 . S
N1061 C1059 1.350 . S
H1062 C1057 0.930 . S
H1063 C1058 0.930 . S
C1064 O1065 1.224 . S
C1064 O1083 1.247 . S
O1065 C1064 1.224 . S
N1066 Co1056 2.128 . S
N1066 C1067 1.355 . S
N1066 C1069 1.311 . S
C1067 N1066 1.355 . S
C1067 C1068 1.363 . S
C1067 H1079 0.929 . S
C1068 C1067 1.363 . S
C1068 N1070 1.375 . S
C1068 H1086 0.931 . S
C1069 N1066 1.311 . S
C1069 N1070 1.347 . S
C1069 H1080 0.929 . S
N1070 C1068 1.375 . S
N1070 C1069 1.347 . S
C1071 C1074 1.365 . S
C1071 N1076 1.328 . S
C1071 H1077 0.929 . S
C1072 C1073 1.362 . S
C1072 C1075 1.378 . S
C1072 H1087 0.929 . S
C1073 C1072 1.362 . S
C1073 C1074 1.366 . S
C1074 C1071 1.365 . S
C1074 C1073 1.366 . S
C1074 H1088 0.930 . S
C1075 C1072 1.378 . S
C1075 N1076 1.315 . S
C1075 H1078 0.930 . S
N1076 Co1056 2.194 . S
N1076 C1071 1.328 . S
N1076 C1075 1.315 . S
H1077 C1071 0.929 . S
H1078 C1075 0.930 . S
H1079 C1067 0.929 . S
H1080 C1069 0.929 . S
O1081 Co1056 2.351 . S
O1081 C1084 1.244 . S
O1082 Co1056 2.155 . S
O1082 C1084 1.240 . S
O1083 Co1056 2.096 . S
O1083 C1064 1.247 . S
C1084 O1081 1.244 . S
C1084 O1082 1.240 . S
H1085 C1059 0.931 . S
H1086 C1068 0.931 . S
H1087 C1072 0.929 . S
H1088 C1074 0.930 . S
Co1089 N1093 2.148 . S
Co1089 N1099 2.128 . S
Co1089 N1109 2.194 . S
Co1089 O1114 2.351 . S
Co1089 O1115 2.155 . S
Co1089 O1116 2.096 . S
C1090 N1093 1.301 . S
C1090 N1094 1.328 . S
C1090 H1095 0.930 . S
C1091 C1092 1.333 . S
C1091 N1093 1.317 . S
C1091 H1096 0.930 . S
C1092 C1091 1.333 . S
C1092 N1094 1.350 . S
C1092 H1118 0.931 . S
N1093 Co1089 2.148 . S
N1093 C1090 1.301 . S
N1093 C1091 1.317 . S
N1094 C1090 1.328 . S
N1094 C1092 1.350 . S
H1095 C1090 0.930 . S
H1096 C1091 0.930 . S
C1097 O1098 1.224 . S
C1097 O1116 1.247 . S
O1098 C1097 1.224 . S
N1099 Co1089 2.128 . S
N1099 C1100 1.355 . S
N1099 C1102 1.311 . S
C1100 N1099 1.355 . S
C1100 C1101 1.363 . S
C1100 H1112 0.929 . S
C1101 C1100 1.363 . S
C1101 N1103 1.375 . S
C1101 H1119 0.931 . S
C1102 N1099 1.311 . S
C1102 N1103 1.347 . S
C1102 H1113 0.929 . S
N1103 C1101 1.375 . S
N1103 C1102 1.347 . S
C1104 C1107 1.365 . S
C1104 N1109 1.328 . S
C1104 H1110 0.929 . S
C1105 C1106 1.362 . S
C1105 C1108 1.378 . S
C1105 H1120 0.929 . S
C1106 C1105 1.362 . S
C1106 C1107 1.366 . S
C1107 C1104 1.365 . S
C1107 C1106 1.366 . S
C1107 H1121 0.930 . S
C1108 C1105 1.378 . S
C1108 N1109 1.315 . S
C1108 H1111 0.930 . S
N1109 Co1089 2.194 . S
N1109 C1104 1.328 . S
N1109 C1108 1.315 . S
H1110 C1104 0.929 . S
H1111 C1108 0.930 . S
H1112 C1100 0.929 . S
H1113 C1102 0.929 . S
O1114 Co1089 2.351 . S
O1114 C1117 1.244 . S
O1115 Co1089 2.155 . S
O1115 C1117 1.240 . S
O1116 Co1089 2.096 . S
O1116 C1097 1.247 . S
C1117 O1114 1.244 . S
C1117 O1115 1.240 . S
H1118 C1092 0.931 . S
H1119 C1101 0.931 . S
H1120 C1105 0.929 . S
H1121 C1107 0.930 . S
Co1122 N1126 2.148 . S
Co1122 N1132 2.128 . S
Co1122 N1142 2.194 . S
Co1122 O1147 2.351 . S
Co1122 O1148 2.155 . S
Co1122 O1149 2.096 . S
C1123 N1126 1.301 . S
C1123 N1127 1.328 . S
C1123 H1128 0.930 . S
C1124 C1125 1.333 . S
C1124 N1126 1.317 . S
C1124 H1129 0.930 . S
C1125 C1124 1.333 . S
C1125 N1127 1.350 . S
C1125 H1151 0.931 . S
N1126 Co1122 2.148 . S
N1126 C1123 1.301 . S
N1126 C1124 1.317 . S
N1127 C1123 1.328 . S
N1127 C1125 1.350 . S
H1128 C1123 0.930 . S
H1129 C1124 0.930 . S
C1130 O1131 1.224 . S
C1130 O1149 1.247 . S
O1131 C1130 1.224 . S
N1132 Co1122 2.128 . S
N1132 C1133 1.355 . S
N1132 C1135 1.311 . S
C1133 N1132 1.355 . S
C1133 C1134 1.363 . S
C1133 H1145 0.929 . S
C1134 C1133 1.363 . S
C1134 N1136 1.375 . S
C1134 H1152 0.931 . S
C1135 N1132 1.311 . S
C1135 N1136 1.347 . S
C1135 H1146 0.929 . S
N1136 C1134 1.375 . S
N1136 C1135 1.347 . S
C1137 C1140 1.365 . S
C1137 N1142 1.328 . S
C1137 H1143 0.929 . S
C1138 C1139 1.362 . S
C1138 C1141 1.378 . S
C1138 H1153 0.929 . S
C1139 C1138 1.362 . S
C1139 C1140 1.366 . S
C1140 C1137 1.365 . S
C1140 C1139 1.366 . S
C1140 H1154 0.930 . S
C1141 C1138 1.378 . S
C1141 N1142 1.315 . S
C1141 H1144 0.930 . S
N1142 Co1122 2.194 . S
N1142 C1137 1.328 . S
N1142 C1141 1.315 . S
H1143 C1137 0.929 . S
H1144 C1141 0.930 . S
H1145 C1133 0.929 . S
H1146 C1135 0.929 . S
O1147 Co1122 2.351 . S
O1147 C1150 1.244 . S
O1148 Co1122 2.155 . S
O1148 C1150 1.240 . S
O1149 Co1122 2.096 . S
O1149 C1130 1.247 . S
C1150 O1147 1.244 . S
C1150 O1148 1.240 . S
H1151 C1125 0.931 . S
H1152 C1134 0.931 . S
H1153 C1138 0.929 . S
H1154 C1140 0.930 . S
Co1155 N1159 2.148 . S
Co1155 N1165 2.128 . S
Co1155 N1175 2.194 . S
Co1155 O1180 2.351 . S
Co1155 O1181 2.155 . S
Co1155 O1182 2.096 . S
C1156 N1159 1.301 . S
C1156 N1160 1.328 . S
C1156 H1161 0.930 . S
C1157 C1158 1.333 . S
C1157 N1159 1.317 . S
C1157 H1162 0.930 . S
C1158 C1157 1.333 . S
C1158 N1160 1.350 . S
C1158 H1184 0.931 . S
N1159 Co1155 2.148 . S
N1159 C1156 1.301 . S
N1159 C1157 1.317 . S
N1160 C1156 1.328 . S
N1160 C1158 1.350 . S
H1161 C1156 0.930 . S
H1162 C1157 0.930 . S
C1163 O1164 1.224 . S
C1163 O1182 1.247 . S
O1164 C1163 1.224 . S
N1165 Co1155 2.128 . S
N1165 C1166 1.355 . S
N1165 C1168 1.311 . S
C1166 N1165 1.355 . S
C1166 C1167 1.363 . S
C1166 H1178 0.929 . S
C1167 C1166 1.363 . S
C1167 N1169 1.375 . S
C1167 H1185 0.931 . S
C1168 N1165 1.311 . S
C1168 N1169 1.347 . S
C1168 H1179 0.929 . S
N1169 C1167 1.375 . S
N1169 C1168 1.347 . S
C1170 C1173 1.365 . S
C1170 N1175 1.328 . S
C1170 H1176 0.929 . S
C1171 C1172 1.362 . S
C1171 C1174 1.378 . S
C1171 H1186 0.929 . S
C1172 C1171 1.362 . S
C1172 C1173 1.366 . S
C1173 C1170 1.365 . S
C1173 C1172 1.366 . S
C1173 H1187 0.930 . S
C1174 C1171 1.378 . S
C1174 N1175 1.315 . S
C1174 H1177 0.930 . S
N1175 Co1155 2.194 . S
N1175 C1170 1.328 . S
N1175 C1174 1.315 . S
H1176 C1170 0.929 . S
H1177 C1174 0.930 . S
H1178 C1166 0.929 . S
H1179 C1168 0.929 . S
O1180 Co1155 2.351 . S
O1180 C1183 1.244 . S
O1181 Co1155 2.155 . S
O1181 C1183 1.240 . S
O1182 Co1155 2.096 . S
O1182 C1163 1.247 . S
C1183 O1180 1.244 . S
C1183 O1181 1.240 . S
H1184 C1158 0.931 . S
H1185 C1167 0.931 . S
H1186 C1171 0.929 . S
H1187 C1173 0.930 . S
Co1188 N1192 2.148 . S
Co1188 N1198 2.128 . S
Co1188 N1208 2.194 . S
Co1188 O1213 2.351 . S
Co1188 O1214 2.155 . S
Co1188 O1215 2.096 . S
C1189 N1192 1.301 . S
C1189 N1193 1.328 . S
C1189 H1194 0.930 . S
C1190 C1191 1.333 . S
C1190 N1192 1.317 . S
C1190 H1195 0.930 . S
C1191 C1190 1.333 . S
C1191 N1193 1.350 . S
C1191 H1217 0.931 . S
N1192 Co1188 2.148 . S
N1192 C1189 1.301 . S
N1192 C1190 1.317 . S
N1193 C1189 1.328 . S
N1193 C1191 1.350 . S
H1194 C1189 0.930 . S
H1195 C1190 0.930 . S
C1196 O1197 1.224 . S
C1196 O1215 1.247 . S
O1197 C1196 1.224 . S
N1198 Co1188 2.128 . S
N1198 C1199 1.355 . S
N1198 C1201 1.311 . S
C1199 N1198 1.355 . S
C1199 C1200 1.363 . S
C1199 H1211 0.929 . S
C1200 C1199 1.363 . S
C1200 N1202 1.375 . S
C1200 H1218 0.931 . S
C1201 N1198 1.311 . S
C1201 N1202 1.347 . S
C1201 H1212 0.929 . S
N1202 C1200 1.375 . S
N1202 C1201 1.347 . S
C1203 C1206 1.365 . S
C1203 N1208 1.328 . S
C1203 H1209 0.929 . S
C1204 C1205 1.362 . S
C1204 C1207 1.378 . S
C1204 H1219 0.929 . S
C1205 C1204 1.362 . S
C1205 C1206 1.366 . S
C1206 C1203 1.365 . S
C1206 C1205 1.366 . S
C1206 H1220 0.930 . S
C1207 C1204 1.378 . S
C1207 N1208 1.315 . S
C1207 H1210 0.930 . S
N1208 Co1188 2.194 . S
N1208 C1203 1.328 . S
N1208 C1207 1.315 . S
H1209 C1203 0.929 . S
H1210 C1207 0.930 . S
H1211 C1199 0.929 . S
H1212 C1201 0.929 . S
O1213 Co1188 2.351 . S
O1213 C1216 1.244 . S
O1214 Co1188 2.155 . S
O1214 C1216 1.240 . S
O1215 Co1188 2.096 . S
O1215 C1196 1.247 . S
C1216 O1213 1.244 . S
C1216 O1214 1.240 . S
H1217 C1191 0.931 . S
H1218 C1200 0.931 . S
H1219 C1204 0.929 . S
H1220 C1206 0.930 . S
Co1221 N1225 2.148 . S
Co1221 N1231 2.128 . S
Co1221 N1241 2.194 . S
Co1221 O1246 2.351 . S
Co1221 O1247 2.155 . S
Co1221 O1248 2.096 . S
C1222 N1225 1.301 . S
C1222 N1226 1.328 . S
C1222 H1227 0.930 . S
C1223 C1224 1.333 . S
C1223 N1225 1.317 . S
C1223 H1228 0.930 . S
C1224 C1223 1.333 . S
C1224 N1226 1.350 . S
C1224 H1250 0.931 . S
N1225 Co1221 2.148 . S
N1225 C1222 1.301 . S
N1225 C1223 1.317 . S
N1226 C1222 1.328 . S
N1226 C1224 1.350 . S
H1227 C1222 0.930 . S
H1228 C1223 0.930 . S
C1229 O1230 1.224 . S
C1229 O1248 1.247 . S
O1230 C1229 1.224 . S
N1231 Co1221 2.128 . S
N1231 C1232 1.355 . S
N1231 C1234 1.311 . S
C1232 N1231 1.355 . S
C1232 C1233 1.363 . S
C1232 H1244 0.929 . S
C1233 C1232 1.363 . S
C1233 N1235 1.375 . S
C1233 H1251 0.931 . S
C1234 N1231 1.311 . S
C1234 N1235 1.347 . S
C1234 H1245 0.929 . S
N1235 C1233 1.375 . S
N1235 C1234 1.347 . S
C1236 C1239 1.365 . S
C1236 N1241 1.328 . S
C1236 H1242 0.929 . S
C1237 C1238 1.362 . S
C1237 C1240 1.378 . S
C1237 H1252 0.929 . S
C1238 C1237 1.362 . S
C1238 C1239 1.366 . S
C1239 C1236 1.365 . S
C1239 C1238 1.366 . S
C1239 H1253 0.930 . S
C1240 C1237 1.378 . S
C1240 N1241 1.315 . S
C1240 H1243 0.930 . S
N1241 Co1221 2.194 . S
N1241 C1236 1.328 . S
N1241 C1240 1.315 . S
H1242 C1236 0.929 . S
H1243 C1240 0.930 . S
H1244 C1232 0.929 . S
H1245 C1234 0.929 . S
O1246 Co1221 2.351 . S
O1246 C1249 1.244 . S
O1247 Co1221 2.155 . S
O1247 C1249 1.240 . S
O1248 Co1221 2.096 . S
O1248 C1229 1.247 . S
C1249 O1246 1.244 . S
C1249 O1247 1.240 . S
H1250 C1224 0.931 . S
H1251 C1233 0.931 . S
H1252 C1237 0.929 . S
H1253 C1239 0.930 . S
Co1254 N1258 2.148 . S
Co1254 N1264 2.128 . S
Co1254 N1274 2.194 . S
Co1254 O1279 2.351 . S
Co1254 O1280 2.155 . S
Co1254 O1281 2.096 . S
C1255 N1258 1.301 . S
C1255 N1259 1.328 . S
C1255 H1260 0.930 . S
C1256 C1257 1.333 . S
C1256 N1258 1.317 . S
C1256 H1261 0.930 . S
C1257 C1256 1.333 . S
C1257 N1259 1.350 . S
C1257 H1283 0.931 . S
N1258 Co1254 2.148 . S
N1258 C1255 1.301 . S
N1258 C1256 1.317 . S
N1259 C1255 1.328 . S
N1259 C1257 1.350 . S
H1260 C1255 0.930 . S
H1261 C1256 0.930 . S
C1262 O1263 1.224 . S
C1262 O1281 1.247 . S
O1263 C1262 1.224 . S
N1264 Co1254 2.128 . S
N1264 C1265 1.355 . S
N1264 C1267 1.311 . S
C1265 N1264 1.355 . S
C1265 C1266 1.363 . S
C1265 H1277 0.929 . S
C1266 C1265 1.363 . S
C1266 N1268 1.375 . S
C1266 H1284 0.931 . S
C1267 N1264 1.311 . S
C1267 N1268 1.347 . S
C1267 H1278 0.929 . S
N1268 C1266 1.375 . S
N1268 C1267 1.347 . S
C1269 C1272 1.365 . S
C1269 N1274 1.328 . S
C1269 H1275 0.929 . S
C1270 C1271 1.362 . S
C1270 C1273 1.378 . S
C1270 H1285 0.929 . S
C1271 C1270 1.362 . S
C1271 C1272 1.366 . S
C1272 C1269 1.365 . S
C1272 C1271 1.366 . S
C1272 H1286 0.930 . S
C1273 C1270 1.378 . S
C1273 N1274 1.315 . S
C1273 H1276 0.930 . S
N1274 Co1254 2.194 . S
N1274 C1269 1.328 . S
N1274 C1273 1.315 . S
H1275 C1269 0.929 . S
H1276 C1273 0.930 . S
H1277 C1265 0.929 . S
H1278 C1267 0.929 . S
O1279 Co1254 2.351 . S
O1279 C1282 1.244 . S
O1280 Co1254 2.155 . S
O1280 C1282 1.240 . S
O1281 Co1254 2.096 . S
O1281 C1262 1.247 . S
C1282 O1279 1.244 . S
C1282 O1280 1.240 . S
H1283 C1257 0.931 . S
H1284 C1266 0.931 . S
H1285 C1270 0.929 . S
H1286 C1272 0.930 . S
Co1287 N1291 2.148 . S
Co1287 N1297 2.128 . S
Co1287 N1307 2.194 . S
Co1287 O1312 2.351 . S
Co1287 O1313 2.155 . S
Co1287 O1314 2.096 . S
C1288 N1291 1.301 . S
C1288 N1292 1.328 . S
C1288 H1293 0.930 . S
C1289 C1290 1.333 . S
C1289 N1291 1.317 . S
C1289 H1294 0.930 . S
C1290 C1289 1.333 . S
C1290 N1292 1.350 . S
C1290 H1316 0.931 . S
N1291 Co1287 2.148 . S
N1291 C1288 1.301 . S
N1291 C1289 1.317 . S
N1292 C1288 1.328 . S
N1292 C1290 1.350 . S
H1293 C1288 0.930 . S
H1294 C1289 0.930 . S
C1295 O1296 1.224 . S
C1295 O1314 1.247 . S
O1296 C1295 1.224 . S
N1297 Co1287 2.128 . S
N1297 C1298 1.355 . S
N1297 C1300 1.311 . S
C1298 N1297 1.355 . S
C1298 C1299 1.363 . S
C1298 H1310 0.929 . S
C1299 C1298 1.363 . S
C1299 N1301 1.375 . S
C1299 H1317 0.931 . S
C1300 N1297 1.311 . S
C1300 N1301 1.347 . S
C1300 H1311 0.929 . S
N1301 C1299 1.375 . S
N1301 C1300 1.347 . S
C1302 C1305 1.365 . S
C1302 N1307 1.328 . S
C1302 H1308 0.929 . S
C1303 C1304 1.362 . S
C1303 C1306 1.378 . S
C1303 H1318 0.929 . S
C1304 C1303 1.362 . S
C1304 C1305 1.366 . S
C1305 C1302 1.365 . S
C1305 C1304 1.366 . S
C1305 H1319 0.930 . S
C1306 C1303 1.378 . S
C1306 N1307 1.315 . S
C1306 H1309 0.930 . S
N1307 Co1287 2.194 . S
N1307 C1302 1.328 . S
N1307 C1306 1.315 . S
H1308 C1302 0.929 . S
H1309 C1306 0.930 . S
H1310 C1298 0.929 . S
H1311 C1300 0.929 . S
O1312 Co1287 2.351 . S
O1312 C1315 1.244 . S
O1313 Co1287 2.155 . S
O1313 C1315 1.240 . S
O1314 Co1287 2.096 . S
O1314 C1295 1.247 . S
C1315 O1312 1.244 . S
C1315 O1313 1.240 . S
H1316 C1290 0.931 . S
H1317 C1299 0.931 . S
H1318 C1303 0.929 . S
H1319 C1305 0.930 . S
Co1320 N1324 2.148 . S
Co1320 N1330 2.128 . S
Co1320 N1340 2.194 . S
Co1320 O1345 2.351 . S
Co1320 O1346 2.155 . S
Co1320 O1347 2.096 . S
C1321 N1324 1.301 . S
C1321 N1325 1.328 . S
C1321 H1326 0.930 . S
C1322 C1323 1.333 . S
C1322 N1324 1.317 . S
C1322 H1327 0.930 . S
C1323 C1322 1.333 . S
C1323 N1325 1.350 . S
C1323 H1349 0.931 . S
N1324 Co1320 2.148 . S
N1324 C1321 1.301 . S
N1324 C1322 1.317 . S
N1325 C1321 1.328 . S
N1325 C1323 1.350 . S
H1326 C1321 0.930 . S
H1327 C1322 0.930 . S
C1328 O1329 1.224 . S
C1328 O1347 1.247 . S
O1329 C1328 1.224 . S
N1330 Co1320 2.128 . S
N1330 C1331 1.355 . S
N1330 C1333 1.311 . S
C1331 N1330 1.355 . S
C1331 C1332 1.363 . S
C1331 H1343 0.929 . S
C1332 C1331 1.363 . S
C1332 N1334 1.375 . S
C1332 H1350 0.931 . S
C1333 N1330 1.311 . S
C1333 N1334 1.347 . S
C1333 H1344 0.929 . S
N1334 C1332 1.375 . S
N1334 C1333 1.347 . S
C1335 C1338 1.365 . S
C1335 N1340 1.328 . S
C1335 H1341 0.929 . S
C1336 C1337 1.362 . S
C1336 C1339 1.378 . S
C1336 H1351 0.929 . S
C1337 C1336 1.362 . S
C1337 C1338 1.366 . S
C1338 C1335 1.365 . S
C1338 C1337 1.366 . S
C1338 H1352 0.930 . S
C1339 C1336 1.378 . S
C1339 N1340 1.315 . S
C1339 H1342 0.930 . S
N1340 Co1320 2.194 . S
N1340 C1335 1.328 . S
N1340 C1339 1.315 . S
H1341 C1335 0.929 . S
H1342 C1339 0.930 . S
H1343 C1331 0.929 . S
H1344 C1333 0.929 . S
O1345 Co1320 2.351 . S
O1345 C1348 1.244 . S
O1346 Co1320 2.155 . S
O1346 C1348 1.240 . S
O1347 Co1320 2.096 . S
O1347 C1328 1.247 . S
C1348 O1345 1.244 . S
C1348 O1346 1.240 . S
H1349 C1323 0.931 . S
H1350 C1332 0.931 . S
H1351 C1336 0.929 . S
H1352 C1338 0.930 . S
Co1353 N1357 2.148 . S
Co1353 N1363 2.128 . S
Co1353 N1373 2.194 . S
Co1353 O1378 2.351 . S
Co1353 O1379 2.155 . S
Co1353 O1380 2.096 . S
C1354 N1357 1.301 . S
C1354 N1358 1.328 . S
C1354 H1359 0.930 . S
C1355 C1356 1.333 . S
C1355 N1357 1.317 . S
C1355 H1360 0.930 . S
C1356 C1355 1.333 . S
C1356 N1358 1.350 . S
C1356 H1382 0.931 . S
N1357 Co1353 2.148 . S
N1357 C1354 1.301 . S
N1357 C1355 1.317 . S
N1358 C1354 1.328 . S
N1358 C1356 1.350 . S
H1359 C1354 0.930 . S
H1360 C1355 0.930 . S
C1361 O1362 1.224 . S
C1361 O1380 1.247 . S
O1362 C1361 1.224 . S
N1363 Co1353 2.128 . S
N1363 C1364 1.355 . S
N1363 C1366 1.311 . S
C1364 N1363 1.355 . S
C1364 C1365 1.363 . S
C1364 H1376 0.929 . S
C1365 C1364 1.363 . S
C1365 N1367 1.375 . S
C1365 H1383 0.931 . S
C1366 N1363 1.311 . S
C1366 N1367 1.347 . S
C1366 H1377 0.929 . S
N1367 C1365 1.375 . S
N1367 C1366 1.347 . S
C1368 C1371 1.365 . S
C1368 N1373 1.328 . S
C1368 H1374 0.929 . S
C1369 C1370 1.362 . S
C1369 C1372 1.378 . S
C1369 H1384 0.929 . S
C1370 C1369 1.362 . S
C1370 C1371 1.366 . S
C1371 C1368 1.365 . S
C1371 C1370 1.366 . S
C1371 H1385 0.930 . S
C1372 C1369 1.378 . S
C1372 N1373 1.315 . S
C1372 H1375 0.930 . S
N1373 Co1353 2.194 . S
N1373 C1368 1.328 . S
N1373 C1372 1.315 . S
H1374 C1368 0.929 . S
H1375 C1372 0.930 . S
H1376 C1364 0.929 . S
H1377 C1366 0.929 . S
O1378 Co1353 2.351 . S
O1378 C1381 1.244 . S
O1379 Co1353 2.155 . S
O1379 C1381 1.240 . S
O1380 Co1353 2.096 . S
O1380 C1361 1.247 . S
C1381 O1378 1.244 . S
C1381 O1379 1.240 . S
H1382 C1356 0.931 . S
H1383 C1365 0.931 . S
H1384 C1369 0.929 . S
H1385 C1371 0.930 . S
Co1386 N1390 2.148 . S
Co1386 N1396 2.128 . S
Co1386 N1406 2.194 . S
Co1386 O1411 2.351 . S
Co1386 O1412 2.155 . S
Co1386 O1413 2.096 . S
C1387 N1390 1.301 . S
C1387 N1391 1.328 . S
C1387 H1392 0.930 . S
C1388 C1389 1.333 . S
C1388 N1390 1.317 . S
C1388 H1393 0.930 . S
C1389 C1388 1.333 . S
C1389 N1391 1.350 . S
C1389 H1415 0.931 . S
N1390 Co1386 2.148 . S
N1390 C1387 1.301 . S
N1390 C1388 1.317 . S
N1391 C1387 1.328 . S
N1391 C1389 1.350 . S
H1392 C1387 0.930 . S
H1393 C1388 0.930 . S
C1394 O1395 1.224 . S
C1394 O1413 1.247 . S
O1395 C1394 1.224 . S
N1396 Co1386 2.128 . S
N1396 C1397 1.355 . S
N1396 C1399 1.311 . S
C1397 N1396 1.355 . S
C1397 C1398 1.363 . S
C1397 H1409 0.929 . S
C1398 C1397 1.363 . S
C1398 N1400 1.375 . S
C1398 H1416 0.931 . S
C1399 N1396 1.311 . S
C1399 N1400 1.347 . S
C1399 H1410 0.929 . S
N1400 C1398 1.375 . S
N1400 C1399 1.347 . S
C1401 C1404 1.365 . S
C1401 N1406 1.328 . S
C1401 H1407 0.929 . S
C1402 C1403 1.362 . S
C1402 C1405 1.378 . S
C1402 H1417 0.929 . S
C1403 C1402 1.362 . S
C1403 C1404 1.366 . S
C1404 C1401 1.365 . S
C1404 C1403 1.366 . S
C1404 H1418 0.930 . S
C1405 C1402 1.378 . S
C1405 N1406 1.315 . S
C1405 H1408 0.930 . S
N1406 Co1386 2.194 . S
N1406 C1401 1.328 . S
N1406 C1405 1.315 . S
H1407 C1401 0.929 . S
H1408 C1405 0.930 . S
H1409 C1397 0.929 . S
H1410 C1399 0.929 . S
O1411 Co1386 2.351 . S
O1411 C1414 1.244 . S
O1412 Co1386 2.155 . S
O1412 C1414 1.240 . S
O1413 Co1386 2.096 . S
O1413 C1394 1.247 . S
C1414 O1411 1.244 . S
C1414 O1412 1.240 . S
H1415 C1389 0.931 . S
H1416 C1398 0.931 . S
H1417 C1402 0.929 . S
H1418 C1404 0.930 . S
Co1419 N1423 2.148 . S
Co1419 N1429 2.128 . S
Co1419 N1439 2.194 . S
Co1419 O1444 2.351 . S
Co1419 O1445 2.155 . S
Co1419 O1446 2.096 . S
C1420 N1423 1.301 . S
C1420 N1424 1.328 . S
C1420 H1425 0.930 . S
C1421 C1422 1.333 . S
C1421 N1423 1.317 . S
C1421 H1426 0.930 . S
C1422 C1421 1.333 . S
C1422 N1424 1.350 . S
C1422 H1448 0.931 . S
N1423 Co1419 2.148 . S
N1423 C1420 1.301 . S
N1423 C1421 1.317 . S
N1424 C1420 1.328 . S
N1424 C1422 1.350 . S
H1425 C1420 0.930 . S
H1426 C1421 0.930 . S
C1427 O1428 1.224 . S
C1427 O1446 1.247 . S
O1428 C1427 1.224 . S
N1429 Co1419 2.128 . S
N1429 C1430 1.355 . S
N1429 C1432 1.311 . S
C1430 N1429 1.355 . S
C1430 C1431 1.363 . S
C1430 H1442 0.929 . S
C1431 C1430 1.363 . S
C1431 N1433 1.375 . S
C1431 H1449 0.931 . S
C1432 N1429 1.311 . S
C1432 N1433 1.347 . S
C1432 H1443 0.929 . S
N1433 C1431 1.375 . S
N1433 C1432 1.347 . S
C1434 C1437 1.365 . S
C1434 N1439 1.328 . S
C1434 H1440 0.929 . S
C1435 C1436 1.362 . S
C1435 C1438 1.378 . S
C1435 H1450 0.929 . S
C1436 C1435 1.362 . S
C1436 C1437 1.366 . S
C1437 C1434 1.365 . S
C1437 C1436 1.366 . S
C1437 H1451 0.930 . S
C1438 C1435 1.378 . S
C1438 N1439 1.315 . S
C1438 H1441 0.930 . S
N1439 Co1419 2.194 . S
N1439 C1434 1.328 . S
N1439 C1438 1.315 . S
H1440 C1434 0.929 . S
H1441 C1438 0.930 . S
H1442 C1430 0.929 . S
H1443 C1432 0.929 . S
O1444 Co1419 2.351 . S
O1444 C1447 1.244 . S
O1445 Co1419 2.155 . S
O1445 C1447 1.240 . S
O1446 Co1419 2.096 . S
O1446 C1427 1.247 . S
C1447 O1444 1.244 . S
C1447 O1445 1.240 . S
H1448 C1422 0.931 . S
H1449 C1431 0.931 . S
H1450 C1435 0.929 . S
H1451 C1437 0.930 . S
Co1452 N1456 2.148 . S
Co1452 N1462 2.128 . S
Co1452 N1472 2.194 . S
Co1452 O1477 2.351 . S
Co1452 O1478 2.155 . S
Co1452 O1479 2.096 . S
C1453 N1456 1.301 . S
C1453 N1457 1.328 . S
C1453 H1458 0.930 . S
C1454 C1455 1.333 . S
C1454 N1456 1.317 . S
C1454 H1459 0.930 . S
C1455 C1454 1.333 . S
C1455 N1457 1.350 . S
C1455 H1481 0.931 . S
N1456 Co1452 2.148 . S
N1456 C1453 1.301 . S
N1456 C1454 1.317 . S
N1457 C1453 1.328 . S
N1457 C1455 1.350 . S
H1458 C1453 0.930 . S
H1459 C1454 0.930 . S
C1460 O1461 1.224 . S
C1460 O1479 1.247 . S
O1461 C1460 1.224 . S
N1462 Co1452 2.128 . S
N1462 C1463 1.355 . S
N1462 C1465 1.311 . S
C1463 N1462 1.355 . S
C1463 C1464 1.363 . S
C1463 H1475 0.929 . S
C1464 C1463 1.363 . S
C1464 N1466 1.375 . S
C1464 H1482 0.931 . S
C1465 N1462 1.311 . S
C1465 N1466 1.347 . S
C1465 H1476 0.929 . S
N1466 C1464 1.375 . S
N1466 C1465 1.347 . S
C1467 C1470 1.365 . S
C1467 N1472 1.328 . S
C1467 H1473 0.929 . S
C1468 C1469 1.362 . S
C1468 C1471 1.378 . S
C1468 H1483 0.929 . S
C1469 C1468 1.362 . S
C1469 C1470 1.366 . S
C1470 C1467 1.365 . S
C1470 C1469 1.366 . S
C1470 H1484 0.930 . S
C1471 C1468 1.378 . S
C1471 N1472 1.315 . S
C1471 H1474 0.930 . S
N1472 Co1452 2.194 . S
N1472 C1467 1.328 . S
N1472 C1471 1.315 . S
H1473 C1467 0.929 . S
H1474 C1471 0.930 . S
H1475 C1463 0.929 . S
H1476 C1465 0.929 . S
O1477 Co1452 2.351 . S
O1477 C1480 1.244 . S
O1478 Co1452 2.155 . S
O1478 C1480 1.240 . S
O1479 Co1452 2.096 . S
O1479 C1460 1.247 . S
C1480 O1477 1.244 . S
C1480 O1478 1.240 . S
H1481 C1455 0.931 . S
H1482 C1464 0.931 . S
H1483 C1468 0.929 . S
H1484 C1470 0.930 . S
Co1485 N1489 2.148 . S
Co1485 N1495 2.128 . S
Co1485 N1505 2.194 . S
Co1485 O1510 2.351 . S
Co1485 O1511 2.155 . S
Co1485 O1512 2.096 . S
C1486 N1489 1.301 . S
C1486 N1490 1.328 . S
C1486 H1491 0.930 . S
C1487 C1488 1.333 . S
C1487 N1489 1.317 . S
C1487 H1492 0.930 . S
C1488 C1487 1.333 . S
C1488 N1490 1.350 . S
C1488 H1514 0.931 . S
N1489 Co1485 2.148 . S
N1489 C1486 1.301 . S
N1489 C1487 1.317 . S
N1490 C1486 1.328 . S
N1490 C1488 1.350 . S
H1491 C1486 0.930 . S
H1492 C1487 0.930 . S
C1493 O1494 1.224 . S
C1493 O1512 1.247 . S
O1494 C1493 1.224 . S
N1495 Co1485 2.128 . S
N1495 C1496 1.355 . S
N1495 C1498 1.311 . S
C1496 N1495 1.355 . S
C1496 C1497 1.363 . S
C1496 H1508 0.929 . S
C1497 C1496 1.363 . S
C1497 N1499 1.375 . S
C1497 H1515 0.931 . S
C1498 N1495 1.311 . S
C1498 N1499 1.347 . S
C1498 H1509 0.929 . S
N1499 C1497 1.375 . S
N1499 C1498 1.347 . S
C1500 C1503 1.365 . S
C1500 N1505 1.328 . S
C1500 H1506 0.929 . S
C1501 C1502 1.362 . S
C1501 C1504 1.378 . S
C1501 H1516 0.929 . S
C1502 C1501 1.362 . S
C1502 C1503 1.366 . S
C1503 C1500 1.365 . S
C1503 C1502 1.366 . S
C1503 H1517 0.930 . S
C1504 C1501 1.378 . S
C1504 N1505 1.315 . S
C1504 H1507 0.930 . S
N1505 Co1485 2.194 . S
N1505 C1500 1.328 . S
N1505 C1504 1.315 . S
H1506 C1500 0.929 . S
H1507 C1504 0.930 . S
H1508 C1496 0.929 . S
H1509 C1498 0.929 . S
O1510 Co1485 2.351 . S
O1510 C1513 1.244 . S
O1511 Co1485 2.155 . S
O1511 C1513 1.240 . S
O1512 Co1485 2.096 . S
O1512 C1493 1.247 . S
C1513 O1510 1.244 . S
C1513 O1511 1.240 . S
H1514 C1488 0.931 . S
H1515 C1497 0.931 . S
H1516 C1501 0.929 . S
H1517 C1503 0.930 . S
Co1518 N1522 2.148 . S
Co1518 N1528 2.128 . S
Co1518 N1538 2.194 . S
Co1518 O1543 2.351 . S
Co1518 O1544 2.155 . S
Co1518 O1545 2.096 . S
C1519 N1522 1.301 . S
C1519 N1523 1.328 . S
C1519 H1524 0.930 . S
C1520 C1521 1.333 . S
C1520 N1522 1.317 . S
C1520 H1525 0.930 . S
C1521 C1520 1.333 . S
C1521 N1523 1.350 . S
C1521 H1547 0.931 . S
N1522 Co1518 2.148 . S
N1522 C1519 1.301 . S
N1522 C1520 1.317 . S
N1523 C1519 1.328 . S
N1523 C1521 1.350 . S
H1524 C1519 0.930 . S
H1525 C1520 0.930 . S
C1526 O1527 1.224 . S
C1526 O1545 1.247 . S
O1527 C1526 1.224 . S
N1528 Co1518 2.128 . S
N1528 C1529 1.355 . S
N1528 C1531 1.311 . S
C1529 N1528 1.355 . S
C1529 C1530 1.363 . S
C1529 H1541 0.929 . S
C1530 C1529 1.363 . S
C1530 N1532 1.375 . S
C1530 H1548 0.931 . S
C1531 N1528 1.311 . S
C1531 N1532 1.347 . S
C1531 H1542 0.929 . S
N1532 C1530 1.375 . S
N1532 C1531 1.347 . S
C1533 C1536 1.365 . S
C1533 N1538 1.328 . S
C1533 H1539 0.929 . S
C1534 C1535 1.362 . S
C1534 C1537 1.378 . S
C1534 H1549 0.929 . S
C1535 C1534 1.362 . S
C1535 C1536 1.366 . S
C1536 C1533 1.365 . S
C1536 C1535 1.366 . S
C1536 H1550 0.930 . S
C1537 C1534 1.378 . S
C1537 N1538 1.315 . S
C1537 H1540 0.930 . S
N1538 Co1518 2.194 . S
N1538 C1533 1.328 . S
N1538 C1537 1.315 . S
H1539 C1533 0.929 . S
H1540 C1537 0.930 . S
H1541 C1529 0.929 . S
H1542 C1531 0.929 . S
O1543 Co1518 2.351 . S
O1543 C1546 1.244 . S
O1544 Co1518 2.155 . S
O1544 C1546 1.240 . S
O1545 Co1518 2.096 . S
O1545 C1526 1.247 . S
C1546 O1543 1.244 . S
C1546 O1544 1.240 . S
H1547 C1521 0.931 . S
H1548 C1530 0.931 . S
H1549 C1534 0.929 . S
H1550 C1536 0.930 . S
Co1551 N1555 2.148 . S
Co1551 N1561 2.128 . S
Co1551 N1571 2.194 . S
Co1551 O1576 2.351 . S
Co1551 O1577 2.155 1_655 S
Co1551 O1578 2.096 1_655 S
C1552 N1555 1.301 . S
C1552 N1556 1.328 1_655 S
C1552 H1557 0.930 . S
C1553 C1554 1.333 . S
C1553 N1555 1.317 1_455 S
C1553 H1558 0.930 . S
C1554 C1553 1.333 . S
C1554 N1556 1.350 . S
C1554 H1580 0.931 . S
N1555 Co1551 2.148 . S
N1555 C1552 1.301 . S
N1555 C1553 1.317 1_655 S
N1556 C1552 1.328 1_455 S
N1556 C1554 1.350 . S
H1557 C1552 0.930 . S
H1558 C1553 0.930 . S
C1559 O1560 1.259 . S
C1559 O1578 1.232 1_655 S
O1560 C1559 1.259 . S
N1561 Co1551 2.128 . S
N1561 C1562 1.355 . S
N1561 C1564 1.311 . S
C1562 N1561 1.355 . S
C1562 C1563 1.363 . S
C1562 H1574 0.929 . S
C1563 C1562 1.363 . S
C1563 N1565 1.375 . S
C1563 H1581 0.931 . S
C1564 N1561 1.311 . S
C1564 N1565 1.347 . S
C1564 H1575 0.929 . S
N1565 C1563 1.375 . S
N1565 C1564 1.347 . S
C1566 C1569 1.365 . S
C1566 N1571 1.328 . S
C1566 H1572 0.929 . S
C1567 C1568 1.362 . S
C1567 C1570 1.378 . S
C1567 H1582 0.929 . S
C1568 C1567 1.362 . S
C1568 C1569 1.366 . S
C1569 C1566 1.365 . S
C1569 C1568 1.366 . S
C1569 H1583 0.930 . S
C1570 C1567 1.378 . S
C1570 N1571 1.315 . S
C1570 H1573 0.930 . S
N1571 Co1551 2.194 . S
N1571 C1566 1.328 . S
N1571 C1570 1.315 . S
H1572 C1566 0.929 . S
H1573 C1570 0.930 . S
H1574 C1562 0.929 . S
H1575 C1564 0.929 . S
O1576 Co1551 2.351 . S
O1576 C1579 1.244 . S
O1577 Co1551 2.155 1_455 S
O1577 C1579 1.240 1_455 S
O1578 Co1551 2.096 1_455 S
O1578 C1559 1.232 1_455 S
C1579 O1576 1.244 . S
C1579 O1577 1.240 1_655 S
H1580 C1554 0.931 . S
H1581 C1563 0.931 . S
H1582 C1567 0.929 . S
H1583 C1569 0.930 . S
C1584 C1585 1.369 . S
C1584 C1586 1.419 . S
C1584 H1588 0.930 . S
C1585 C1584 1.369 . S
C1585 C1594 1.429 . S
C1586 C1584 1.419 . S
C1586 C1587 1.363 . S
C1586 H1589 0.929 . S
C1587 C1586 1.363 . S
C1587 C1593 1.428 . S
H1588 C1584 0.930 . S
H1589 C1586 0.929 . S
S1590 N1591 1.613 . S
S1590 N1592 1.610 1_455 S
N1591 S1590 1.613 . S
N1591 C1594 1.350 . S
N1592 S1590 1.610 1_655 S
N1592 C1593 1.349 1_655 S
C1593 C1587 1.428 . S
C1593 N1592 1.349 1_455 S
C1593 C1594 1.434 . S
C1594 C1585 1.429 . S
C1594 N1591 1.350 . S
C1594 C1593 1.434 . S
C1595 C1596 1.369 . S
C1595 C1597 1.419 . S
C1595 H1599 0.930 . S
C1596 C1595 1.369 . S
C1596 C1605 1.429 . S
C1597 C1595 1.419 . S
C1597 C1598 1.363 . S
C1597 H1600 0.929 . S
C1598 C1597 1.363 . S
C1598 C1604 1.428 . S
H1599 C1595 0.930 . S
H1600 C1597 0.929 . S
S1601 N1602 1.613 . S
S1601 N1603 1.610 . S
N1602 S1601 1.613 . S
N1602 C1605 1.350 . S
N1603 S1601 1.610 . S
N1603 C1604 1.351 . S
C1604 C1598 1.428 . S
C1604 N1603 1.351 . S
C1604 C1605 1.434 . S
C1605 C1596 1.429 . S
C1605 N1602 1.350 . S
C1605 C1604 1.434 . S
C1606 C1607 1.369 . S
C1606 C1608 1.419 . S
C1606 H1610 0.930 . S
C1607 C1606 1.369 . S
C1607 C1616 1.429 . S
C1608 C1606 1.419 . S
C1608 C1609 1.363 . S
C1608 H1611 0.929 . S
C1609 C1608 1.363 . S
C1609 C1615 1.428 . S
H1610 C1606 0.930 . S
H1611 C1608 0.929 . S
S1612 N1613 1.613 . S
S1612 N1614 1.610 . S
N1613 S1612 1.613 . S
N1613 C1616 1.350 . S
N1614 S1612 1.610 . S
N1614 C1615 1.351 . S
C1615 C1609 1.428 . S
C1615 N1614 1.351 . S
C1615 C1616 1.434 . S
C1616 C1607 1.429 . S
C1616 N1613 1.350 . S
C1616 C1615 1.434 . S
C1617 C1618 1.369 . S
C1617 C1619 1.419 . S
C1617 H1621 0.930 . S
C1618 C1617 1.369 . S
C1618 C1627 1.429 . S
C1619 C1617 1.419 . S
C1619 C1620 1.363 . S
C1619 H1622 0.929 . S
C1620 C1619 1.363 . S
C1620 C1626 1.428 . S
H1621 C1617 0.930 . S
H1622 C1619 0.929 . S
S1623 N1624 1.613 . S
S1623 N1625 1.610 1_554 S
N1624 S1623 1.613 . S
N1624 C1627 1.350 1_554 S
N1625 S1623 1.610 1_556 S
N1625 C1626 1.351 . S
C1626 C1620 1.428 . S
C1626 N1625 1.351 . S
C1626 C1627 1.434 . S
C1627 C1618 1.429 . S
C1627 N1624 1.350 1_556 S
C1627 C1626 1.434 . S
C1628 C1629 1.369 . S
C1628 C1630 1.419 . S
C1628 H1632 0.930 . S
C1629 C1628 1.369 . S
C1629 C1638 1.429 . S
C1630 C1628 1.419 . S
C1630 C1631 1.363 . S
C1630 H1633 0.929 . S
C1631 C1630 1.363 . S
C1631 C1637 1.428 . S
H1632 C1628 0.930 . S
H1633 C1630 0.929 . S
S1634 N1635 1.613 . S
S1634 N1636 1.610 . S
N1635 S1634 1.613 . S
N1635 C1638 1.350 . S
N1636 S1634 1.610 . S
N1636 C1637 1.351 . S
C1637 C1631 1.428 . S
C1637 N1636 1.351 . S
C1637 C1638 1.434 . S
C1638 C1629 1.429 . S
C1638 N1635 1.350 . S
C1638 C1637 1.434 . S
C1639 C1640 1.369 . S
C1639 C1641 1.419 . S
C1639 H1643 0.930 . S
C1640 C1639 1.369 . S
C1640 C1649 1.429 . S
C1641 C1639 1.419 . S
C1641 C1642 1.363 . S
C1641 H1644 0.929 . S
C1642 C1641 1.363 . S
C1642 C1648 1.428 . S
H1643 C1639 0.930 . S
H1644 C1641 0.929 . S
S1645 N1646 1.613 . S
S1645 N1647 1.610 . S
N1646 S1645 1.613 . S
N1646 C1649 1.350 . S
N1647 S1645 1.610 . S
N1647 C1648 1.351 . S
C1648 C1642 1.428 . S
C1648 N1647 1.351 . S
C1648 C1649 1.434 . S
C1649 C1640 1.429 . S
C1649 N1646 1.350 . S
C1649 C1648 1.434 . S
C1650 C1651 1.369 . S
C1650 C1652 1.419 . S
C1650 H1654 0.930 . S
C1651 C1650 1.369 . S
C1651 C1660 1.429 . S
C1652 C1650 1.419 . S
C1652 C1653 1.363 . S
C1652 H1655 0.929 . S
C1653 C1652 1.363 . S
C1653 C1659 1.428 . S
H1654 C1650 0.930 . S
H1655 C1652 0.929 . S
S1656 N1657 1.613 . S
S1656 N1658 1.610 . S
N1657 S1656 1.613 . S
N1657 C1660 1.350 . S
N1658 S1656 1.610 . S
N1658 C1659 1.351 . S
C1659 C1653 1.428 . S
C1659 N1658 1.351 . S
C1659 C1660 1.434 . S
C1660 C1651 1.429 . S
C1660 N1657 1.350 . S
C1660 C1659 1.434 . S
C1661 C1662 1.369 . S
C1661 C1663 1.419 . S
C1661 H1665 0.930 . S
C1662 C1661 1.369 . S
C1662 C1671 1.429 . S
C1663 C1661 1.419 . S
C1663 C1664 1.363 . S
C1663 H1666 0.929 . S
C1664 C1663 1.363 . S
C1664 C1670 1.428 . S
H1665 C1661 0.930 . S
H1666 C1663 0.929 . S
S1667 N1668 1.613 . S
S1667 N1669 1.610 1_556 S
N1668 S1667 1.613 . S
N1668 C1671 1.350 1_556 S
N1669 S1667 1.610 1_554 S
N1669 C1670 1.351 . S
C1670 C1664 1.428 . S
C1670 N1669 1.351 . S
C1670 C1671 1.434 . S
C1671 C1662 1.429 . S
C1671 N1668 1.350 1_554 S
C1671 C1670 1.434 . S
C1672 C1673 1.369 . S
C1672 C1674 1.419 . S
C1672 H1676 0.930 . S
C1673 C1672 1.369 . S
C1673 C1682 1.429 . S
C1674 C1672 1.419 . S
C1674 C1675 1.363 . S
C1674 H1677 0.929 . S
C1675 C1674 1.363 . S
C1675 C1681 1.428 . S
H1676 C1672 0.930 . S
H1677 C1674 0.929 . S
S1678 N1679 1.613 1_565 S
S1678 N1680 1.610 . S
N1679 S1678 1.613 1_545 S
N1679 C1682 1.350 . S
N1680 S1678 1.610 . S
N1680 C1681 1.351 1_565 S
C1681 C1675 1.428 . S
C1681 N1680 1.351 1_545 S
C1681 C1682 1.434 . S
C1682 C1673 1.429 . S
C1682 N1679 1.350 . S
C1682 C1681 1.434 . S
C1683 C1684 1.369 . S
C1683 C1685 1.419 . S
C1683 H1687 0.930 1_565 S
C1684 C1683 1.369 . S
C1684 C1693 1.429 . S
C1685 C1683 1.419 . S
C1685 C1686 1.363 . S
C1685 H1688 0.929 . S
C1686 C1685 1.363 . S
C1686 C1692 1.428 . S
H1687 C1683 0.930 1_545 S
H1688 C1685 0.929 . S
S1689 N1690 1.613 . S
S1689 N1691 1.610 . S
N1690 S1689 1.613 . S
N1690 C1693 1.350 . S
N1691 S1689 1.610 . S
N1691 C1692 1.351 . S
C1692 C1686 1.428 . S
C1692 N1691 1.351 . S
C1692 C1693 1.434 . S
C1693 C1684 1.429 . S
C1693 N1690 1.350 . S
C1693 C1692 1.434 . S
C1694 C1695 1.369 . S
C1694 C1696 1.419 . S
C1694 H1698 0.930 . S
C1695 C1694 1.369 . S
C1695 C1704 1.429 . S
C1696 C1694 1.419 . S
C1696 C1697 1.363 . S
C1696 H1699 0.929 . S
C1697 C1696 1.363 . S
C1697 C1703 1.428 . S
H1698 C1694 0.930 . S
H1699 C1696 0.929 . S
S1700 N1701 1.613 . S
S1700 N1702 1.610 1_545 S
N1701 S1700 1.613 . S
N1701 C1704 1.350 1_545 S
N1702 S1700 1.610 1_565 S
N1702 C1703 1.351 . S
C1703 C1697 1.428 . S
C1703 N1702 1.351 . S
C1703 C1704 1.434 . S
C1704 C1695 1.429 . S
C1704 N1701 1.350 1_565 S
C1704 C1703 1.434 . S
C1705 C1706 1.369 . S
C1705 C1707 1.419 . S
C1705 H1709 0.930 . S
C1706 C1705 1.369 . S
C1706 C1715 1.429 . S
C1707 C1705 1.419 . S
C1707 C1708 1.363 . S
C1707 H1710 0.929 . S
C1708 C1707 1.363 . S
C1708 C1714 1.428 . S
H1709 C1705 0.930 . S
H1710 C1707 0.929 . S
S1711 N1712 1.613 . S
S1711 N1713 1.610 . S
N1712 S1711 1.613 . S
N1712 C1715 1.350 . S
N1713 S1711 1.610 . S
N1713 C1714 1.351 . S
C1714 C1708 1.428 . S
C1714 N1713 1.351 . S
C1714 C1715 1.434 . S
C1715 C1706 1.429 . S
C1715 N1712 1.350 . S
C1715 C1714 1.434 . S
C1716 C1717 1.369 . S
C1716 C1718 1.419 . S
C1716 H1720 0.930 . S
C1717 C1716 1.369 . S
C1717 C1726 1.429 . S
C1718 C1716 1.419 . S
C1718 C1719 1.363 . S
C1718 H1721 0.929 . S
C1719 C1718 1.363 . S
C1719 C1725 1.428 . S
H1720 C1716 0.930 . S
H1721 C1718 0.929 . S
S1722 N1723 1.613 . S
S1722 N1724 1.610 . S
N1723 S1722 1.613 . S
N1723 C1726 1.350 . S
N1724 S1722 1.610 . S
N1724 C1725 1.351 . S
C1725 C1719 1.428 . S
C1725 N1724 1.351 . S
C1725 C1726 1.434 . S
C1726 C1717 1.429 . S
C1726 N1723 1.350 . S
C1726 C1725 1.434 . S
C1727 C1728 1.369 . S
C1727 C1729 1.419 . S
C1727 H1731 0.930 . S
C1728 C1727 1.369 . S
C1728 C1737 1.429 . S
C1729 C1727 1.419 . S
C1729 C1730 1.363 . S
C1729 H1732 0.929 . S
C1730 C1729 1.363 . S
C1730 C1736 1.428 . S
H1731 C1727 0.930 . S
H1732 C1729 0.929 . S
S1733 N1734 1.613 . S
S1733 N1735 1.610 1_455 S
N1734 S1733 1.613 . S
N1734 C1737 1.350 1_455 S
N1735 S1733 1.610 1_655 S
N1735 C1736 1.351 . S
C1736 C1730 1.428 . S
C1736 N1735 1.351 . S
C1736 C1737 1.434 . S
C1737 C1728 1.429 . S
C1737 N1734 1.350 1_655 S
C1737 C1736 1.434 . S
C1738 C1739 1.369 . S
C1738 C1740 1.419 . S
C1738 H1742 0.930 . S
C1739 C1738 1.369 . S
C1739 C1748 1.429 . S
C1740 C1738 1.419 . S
C1740 C1741 1.363 . S
C1740 H1743 0.929 . S
C1741 C1740 1.363 . S
C1741 C1747 1.428 . S
H1742 C1738 0.930 . S
H1743 C1740 0.929 . S
S1744 N1745 1.613 . S
S1744 N1746 1.610 . S
N1745 S1744 1.613 . S
N1745 C1748 1.350 . S
N1746 S1744 1.610 . S
N1746 C1747 1.351 . S
C1747 C1741 1.428 . S
C1747 N1746 1.351 . S
C1747 C1748 1.434 . S
C1748 C1739 1.429 . S
C1748 N1745 1.350 . S
C1748 C1747 1.434 . S
C1749 C1750 1.369 . S
C1749 C1751 1.419 . S
C1749 H1753 0.930 . S
C1750 C1749 1.369 . S
C1750 C1759 1.429 . S
C1751 C1749 1.419 . S
C1751 C1752 1.363 . S
C1751 H1754 0.929 . S
C1752 C1751 1.363 . S
C1752 C1758 1.428 . S
H1753 C1749 0.930 . S
H1754 C1751 0.929 . S
S1755 N1756 1.613 . S
S1755 N1757 1.610 . S
N1756 S1755 1.613 . S
N1756 C1759 1.350 . S
N1757 S1755 1.610 . S
N1757 C1758 1.351 . S
C1758 C1752 1.428 . S
C1758 N1757 1.351 . S
C1758 C1759 1.434 . S
C1759 C1750 1.429 . S
C1759 N1756 1.350 . S
C1759 C1758 1.434 . S
C1760 C1761 1.369 . S
C1760 C1762 1.419 . S
C1760 H1764 0.930 . S
C1761 C1760 1.369 . S
C1761 C1770 1.429 . S
C1762 C1760 1.419 . S
C1762 C1763 1.363 . S
C1762 H1765 0.929 . S
C1763 C1762 1.363 . S
C1763 C1769 1.428 . S
H1764 C1760 0.930 . S
H1765 C1762 0.929 . S
S1766 N1767 1.613 . S
S1766 N1768 1.610 . S
N1767 S1766 1.613 . S
N1767 C1770 1.350 . S
N1768 S1766 1.610 . S
N1768 C1769 1.351 . S
C1769 C1763 1.428 . S
C1769 N1768 1.351 . S
C1769 C1770 1.434 . S
C1770 C1761 1.429 . S
C1770 N1767 1.350 . S
C1770 C1769 1.434 . S
C1771 C1772 1.369 . S
C1771 C1773 1.419 . S
C1771 H1775 0.930 . S
C1772 C1771 1.369 . S
C1772 C1781 1.429 . S
C1773 C1771 1.419 . S
C1773 C1774 1.363 . S
C1773 H1776 0.929 . S
C1774 C1773 1.363 . S
C1774 C1780 1.428 . S
H1775 C1771 0.930 . S
H1776 C1773 0.929 . S
S1777 N1778 1.613 . S
S1777 N1779 1.610 . S
N1778 S1777 1.613 . S
N1778 C1781 1.350 . S
N1779 S1777 1.610 . S
N1779 C1780 1.351 . S
C1780 C1774 1.428 . S
C1780 N1779 1.351 . S
C1780 C1781 1.434 . S
C1781 C1772 1.429 . S
C1781 N1778 1.350 . S
C1781 C1780 1.434 . S
C1782 C1783 1.369 . S
C1782 C1784 1.419 . S
C1782 H1786 0.930 . S
C1783 C1782 1.369 . S
C1783 C1792 1.429 . S
C1784 C1782 1.419 . S
C1784 C1785 1.363 . S
C1784 H1787 0.929 . S
C1785 C1784 1.363 . S
C1785 C1791 1.428 . S
H1786 C1782 0.930 . S
H1787 C1784 0.929 . S
S1788 N1789 1.613 . S
S1788 N1790 1.610 . S
N1789 S1788 1.613 . S
N1789 C1792 1.350 . S
N1790 S1788 1.610 . S
N1790 C1791 1.351 . S
C1791 C1785 1.428 . S
C1791 N1790 1.351 . S
C1791 C1792 1.434 . S
C1792 C1783 1.429 . S
C1792 N1789 1.350 . S
C1792 C1791 1.434 . S
C1793 C1794 1.369 . S
C1793 C1795 1.419 . S
C1793 H1797 0.930 . S
C1794 C1793 1.369 . S
C1794 C1803 1.429 . S
C1795 C1793 1.419 . S
C1795 C1796 1.363 . S
C1795 H1798 0.929 . S
C1796 C1795 1.363 . S
C1796 C1802 1.428 . S
H1797 C1793 0.930 . S
H1798 C1795 0.929 . S
S1799 N1800 1.613 . S
S1799 N1801 1.610 . S
N1800 S1799 1.613 . S
N1800 C1803 1.350 . S
N1801 S1799 1.610 . S
N1801 C1802 1.351 . S
C1802 C1796 1.428 . S
C1802 N1801 1.351 . S
C1802 C1803 1.434 . S
C1803 C1794 1.429 . S
C1803 N1800 1.350 . S
C1803 C1802 1.434 . S
C1804 C1805 1.369 . S
C1804 C1806 1.419 . S
C1804 H1808 0.930 . S
C1805 C1804 1.369 . S
C1805 C1814 1.429 . S
C1806 C1804 1.419 . S
C1806 C1807 1.363 . S
C1806 H1809 0.929 . S
C1807 C1806 1.363 . S
C1807 C1813 1.428 . S
H1808 C1804 0.930 . S
H1809 C1806 0.929 . S
S1810 N1811 1.613 . S
S1810 N1812 1.610 . S
N1811 S1810 1.613 . S
N1811 C1814 1.350 . S
N1812 S1810 1.610 . S
N1812 C1813 1.351 . S
C1813 C1807 1.428 . S
C1813 N1812 1.351 . S
C1813 C1814 1.434 . S
C1814 C1805 1.429 . S
C1814 N1811 1.350 . S
C1814 C1813 1.434 . S
C1815 C1816 1.369 . S
C1815 C1817 1.419 . S
C1815 H1819 0.930 . S
C1816 C1815 1.369 . S
C1816 C1825 1.429 . S
C1817 C1815 1.419 . S
C1817 C1818 1.363 . S
C1817 H1820 0.929 . S
C1818 C1817 1.363 . S
C1818 C1824 1.428 . S
H1819 C1815 0.930 . S
H1820 C1817 0.929 . S
S1821 N1822 1.613 . S
S1821 N1823 1.610 . S
N1822 S1821 1.613 . S
N1822 C1825 1.350 . S
N1823 S1821 1.610 . S
N1823 C1824 1.351 . S
C1824 C1818 1.428 . S
C1824 N1823 1.351 . S
C1824 C1825 1.434 . S
C1825 C1816 1.429 . S
C1825 N1822 1.350 . S
C1825 C1824 1.434 . S
C1826 C1827 1.369 . S
C1826 C1828 1.419 . S
C1826 H1830 0.930 . S
C1827 C1826 1.369 . S
C1827 C1836 1.429 . S
C1828 C1826 1.419 . S
C1828 C1829 1.363 . S
C1828 H1831 0.929 . S
C1829 C1828 1.363 . S
C1829 C1835 1.428 . S
H1830 C1826 0.930 . S
H1831 C1828 0.929 . S
S1832 N1833 1.613 . S
S1832 N1834 1.610 . S
N1833 S1832 1.613 . S
N1833 C1836 1.350 . S
N1834 S1832 1.610 . S
N1834 C1835 1.351 . S
C1835 C1829 1.428 . S
C1835 N1834 1.351 . S
C1835 C1836 1.434 . S
C1836 C1827 1.429 . S
C1836 N1833 1.350 . S
C1836 C1835 1.434 . S
C1837 C1838 1.369 . S
C1837 C1839 1.419 . S
C1837 H1841 0.930 . S
C1838 C1837 1.369 . S
C1838 C1847 1.429 . S
C1839 C1837 1.419 . S
C1839 C1840 1.363 . S
C1839 H1842 0.929 . S
C1840 C1839 1.363 . S
C1840 C1846 1.428 . S
H1841 C1837 0.930 . S
H1842 C1839 0.929 . S
S1843 N1844 1.613 . S
S1843 N1845 1.610 . S
N1844 S1843 1.613 . S
N1844 C1847 1.350 . S
N1845 S1843 1.610 . S
N1845 C1846 1.351 . S
C1846 C1840 1.428 . S
C1846 N1845 1.351 . S
C1846 C1847 1.434 . S
C1847 C1838 1.429 . S
C1847 N1844 1.350 . S
C1847 C1846 1.434 . S
C1848 C1849 1.369 . S
C1848 C1850 1.419 . S
C1848 H1852 0.930 . S
C1849 C1848 1.369 . S
C1849 C1858 1.429 . S
C1850 C1848 1.419 . S
C1850 C1851 1.363 . S
C1850 H1853 0.929 . S
C1851 C1850 1.363 . S
C1851 C1857 1.428 . S
H1852 C1848 0.930 . S
H1853 C1850 0.929 . S
S1854 N1855 1.613 . S
S1854 N1856 1.610 . S
N1855 S1854 1.613 . S
N1855 C1858 1.350 . S
N1856 S1854 1.610 . S
N1856 C1857 1.351 . S
C1857 C1851 1.428 . S
C1857 N1856 1.351 . S
C1857 C1858 1.434 . S
C1858 C1849 1.429 . S
C1858 N1855 1.350 . S
C1858 C1857 1.434 . S
C1859 C1860 1.369 . S
C1859 C1861 1.419 . S
C1859 H1863 0.930 . S
C1860 C1859 1.369 . S
C1860 C1869 1.429 1_455 S
C1861 C1859 1.419 . S
C1861 C1862 1.363 . S
C1861 H1864 0.929 . S
C1862 C1861 1.363 . S
C1862 C1868 1.428 1_455 S
H1863 C1859 0.930 . S
H1864 C1861 0.929 . S
S1865 N1866 1.613 . S
S1865 N1867 1.610 . S
N1866 S1865 1.613 . S
N1866 C1869 1.350 . S
N1867 S1865 1.610 . S
N1867 C1868 1.351 . S
C1868 C1862 1.428 1_655 S
C1868 N1867 1.351 . S
C1868 C1869 1.434 . S
C1869 C1860 1.429 1_655 S
C1869 N1866 1.350 . S
C1869 C1868 1.434 . S
C1870 C1871 1.369 . S
C1870 C1872 1.419 . S
C1870 H1874 0.930 . S
C1871 C1870 1.369 . S
C1871 C1880 1.429 . S
C1872 C1870 1.419 . S
C1872 C1873 1.363 . S
C1872 H1875 0.929 . S
C1873 C1872 1.363 . S
C1873 C1879 1.428 . S
H1874 C1870 0.930 . S
H1875 C1872 0.929 . S
S1876 N1877 1.613 . S
S1876 N1878 1.610 . S
N1877 S1876 1.613 . S
N1877 C1880 1.350 . S
N1878 S1876 1.610 . S
N1878 C1879 1.351 . S
C1879 C1873 1.428 . S
C1879 N1878 1.351 . S
C1879 C1880 1.434 . S
C1880 C1871 1.429 . S
C1880 N1877 1.350 . S
C1880 C1879 1.434 . S
C1881 C1882 1.369 . S
C1881 C1883 1.419 . S
C1881 H1885 0.930 . S
C1882 C1881 1.369 . S
C1882 C1891 1.429 . S
C1883 C1881 1.419 . S
C1883 C1884 1.363 . S
C1883 H1886 0.929 . S
C1884 C1883 1.363 . S
C1884 C1890 1.428 . S
H1885 C1881 0.930 . S
H1886 C1883 0.929 . S
S1887 N1888 1.613 . S
S1887 N1889 1.610 . S
N1888 S1887 1.613 . S
N1888 C1891 1.350 . S
N1889 S1887 1.610 . S
N1889 C1890 1.351 . S
C1890 C1884 1.428 . S
C1890 N1889 1.351 . S
C1890 C1891 1.434 . S
C1891 C1882 1.429 . S
C1891 N1888 1.350 . S
C1891 C1890 1.434 . S
C1892 C1893 1.369 . S
C1892 C1894 1.419 . S
C1892 H1896 0.930 . S
C1893 C1892 1.369 . S
C1893 C1902 1.429 . S
C1894 C1892 1.419 . S
C1894 C1895 1.363 . S
C1894 H1897 0.929 . S
C1895 C1894 1.363 . S
C1895 C1901 1.428 . S
H1896 C1892 0.930 . S
H1897 C1894 0.929 . S
S1898 N1899 1.613 . S
S1898 N1900 1.610 . S
N1899 S1898 1.613 . S
N1899 C1902 1.350 . S
N1900 S1898 1.610 . S
N1900 C1901 1.351 . S
C1901 C1895 1.428 . S
C1901 N1900 1.351 . S
C1901 C1902 1.434 . S
C1902 C1893 1.429 . S
C1902 N1899 1.350 . S
C1902 C1901 1.434 . S
C1903 C1904 1.369 . S
C1903 C1905 1.419 . S
C1903 H1907 0.930 . S
C1904 C1903 1.369 . S
C1904 C1913 1.429 . S
C1905 C1903 1.419 . S
C1905 C1906 1.363 . S
C1905 H1908 0.929 . S
C1906 C1905 1.363 . S
C1906 C1912 1.428 . S
H1907 C1903 0.930 . S
H1908 C1905 0.929 . S
S1909 N1910 1.613 . S
S1909 N1911 1.610 . S
N1910 S1909 1.613 . S
N1910 C1913 1.350 . S
N1911 S1909 1.610 . S
N1911 C1912 1.351 . S
C1912 C1906 1.428 . S
C1912 N1911 1.351 . S
C1912 C1913 1.434 . S
C1913 C1904 1.429 . S
C1913 N1910 1.350 . S
C1913 C1912 1.434 . S
C1914 C1915 1.369 . S
C1914 C1916 1.419 . S
C1914 H1918 0.930 . S
C1915 C1914 1.369 . S
C1915 C1924 1.429 . S
C1916 C1914 1.419 . S
C1916 C1917 1.363 . S
C1916 H1919 0.929 . S
C1917 C1916 1.363 . S
C1917 C1923 1.428 . S
H1918 C1914 0.930 . S
H1919 C1916 0.929 . S
S1920 N1921 1.613 . S
S1920 N1922 1.610 . S
N1921 S1920 1.613 . S
N1921 C1924 1.350 . S
N1922 S1920 1.610 . S
N1922 C1923 1.351 . S
C1923 C1917 1.428 . S
C1923 N1922 1.351 . S
C1923 C1924 1.434 . S
C1924 C1915 1.429 . S
C1924 N1921 1.350 . S
C1924 C1923 1.434 . S
C1925 C1926 1.369 . S
C1925 C1927 1.419 1_455 S
C1925 H1929 0.930 1_455 S
C1926 C1925 1.369 . S
C1926 C1935 1.429 . S
C1927 C1925 1.419 1_655 S
C1927 C1928 1.363 1_655 S
C1927 H1930 0.929 . S
C1928 C1927 1.363 1_455 S
C1928 C1934 1.428 . S
H1929 C1925 0.930 1_655 S
H1930 C1927 0.929 . S
S1931 N1932 1.613 . S
S1931 N1933 1.610 . S
N1932 S1931 1.613 . S
N1932 C1935 1.350 . S
N1933 S1931 1.610 . S
N1933 C1934 1.351 . S
C1934 C1928 1.428 . S
C1934 N1933 1.351 . S
C1934 C1935 1.434 . S
C1935 C1926 1.429 . S
C1935 N1932 1.350 . S
C1935 C1934 1.434 . S
C1936 C1937 1.369 . S
C1936 C1938 1.419 . S
C1936 H1940 0.930 . S
C1937 C1936 1.369 . S
C1937 C1946 1.429 . S
C1938 C1936 1.419 . S
C1938 C1939 1.363 . S
C1938 H1941 0.929 . S
C1939 C1938 1.363 . S
C1939 C1945 1.428 . S
H1940 C1936 0.930 . S
H1941 C1938 0.929 . S
S1942 N1943 1.613 . S
S1942 N1944 1.610 . S
N1943 S1942 1.613 . S
N1943 C1946 1.350 . S
N1944 S1942 1.610 . S
N1944 C1945 1.351 . S
C1945 C1939 1.428 . S
C1945 N1944 1.351 . S
C1945 C1946 1.434 . S
C1946 C1937 1.429 . S
C1946 N1943 1.350 . S
C1946 C1945 1.434 . S
C1947 C1948 1.369 . S
C1947 C1949 1.419 . S
C1947 H1951 0.930 . S
C1948 C1947 1.369 . S
C1948 C1957 1.429 . S
C1949 C1947 1.419 . S
C1949 C1950 1.363 . S
C1949 H1952 0.929 . S
C1950 C1949 1.363 . S
C1950 C1956 1.428 . S
H1951 C1947 0.930 . S
H1952 C1949 0.929 . S
S1953 N1954 1.613 . S
S1953 N1955 1.610 . S
N1954 S1953 1.613 . S
N1954 C1957 1.350 . S
N1955 S1953 1.610 . S
N1955 C1956 1.351 . S
C1956 C1950 1.428 . S
C1956 N1955 1.351 . S
C1956 C1957 1.434 . S
C1957 C1948 1.429 . S
C1957 N1954 1.350 . S
C1957 C1956 1.434 . S
C1958 C1959 1.369 . S
C1958 C1960 1.419 . S
C1958 H1962 0.930 . S
C1959 C1958 1.369 . S
C1959 C1968 1.429 . S
C1960 C1958 1.419 . S
C1960 C1961 1.363 . S
C1960 H1963 0.929 . S
C1961 C1960 1.363 . S
C1961 C1967 1.428 . S
H1962 C1958 0.930 . S
H1963 C1960 0.929 . S
S1964 N1965 1.613 . S
S1964 N1966 1.610 . S
N1965 S1964 1.613 . S
N1965 C1968 1.350 . S
N1966 S1964 1.610 . S
N1966 C1967 1.351 . S
C1967 C1961 1.428 . S
C1967 N1966 1.351 . S
C1967 C1968 1.434 . S
C1968 C1959 1.429 . S
C1968 N1965 1.350 . S
C1968 C1967 1.434 . S
C1969 C1970 1.369 1_554 S
C1969 C1971 1.419 . S
C1969 H1973 0.930 . S
C1970 C1969 1.369 1_556 S
C1970 C1979 1.429 . S
C1971 C1969 1.419 . S
C1971 C1972 1.363 1_554 S
C1971 H1974 0.929 . S
C1972 C1971 1.363 1_556 S
C1972 C1978 1.428 . S
H1973 C1969 0.930 . S
H1974 C1971 0.929 . S
S1975 N1976 1.613 . S
S1975 N1977 1.610 . S
N1976 S1975 1.613 . S
N1976 C1979 1.350 . S
N1977 S1975 1.610 . S
N1977 C1978 1.351 . S
C1978 C1972 1.428 . S
C1978 N1977 1.351 . S
C1978 C1979 1.434 . S
C1979 C1970 1.429 . S
C1979 N1976 1.350 . S
C1979 C1978 1.434 . S
C1980 C1981 1.369 . S
C1980 C1982 1.419 . S
C1980 H1984 0.930 . S
C1981 C1980 1.369 . S
C1981 C1990 1.429 . S
C1982 C1980 1.419 . S
C1982 C1983 1.363 . S
C1982 H1985 0.929 . S
C1983 C1982 1.363 . S
C1983 C1989 1.428 . S
H1984 C1980 0.930 . S
H1985 C1982 0.929 . S
S1986 N1987 1.613 . S
S1986 N1988 1.610 . S
N1987 S1986 1.613 . S
N1987 C1990 1.350 . S
N1988 S1986 1.610 . S
N1988 C1989 1.351 . S
C1989 C1983 1.428 . S
C1989 N1988 1.351 . S
C1989 C1990 1.434 . S
C1990 C1981 1.429 . S
C1990 N1987 1.350 . S
C1990 C1989 1.434 . S
C1991 C1992 1.369 . S
C1991 C1993 1.419 . S
C1991 H1995 0.930 . S
C1992 C1991 1.369 . S
C1992 C2001 1.429 . S
C1993 C1991 1.419 . S
C1993 C1994 1.363 . S
C1993 H1996 0.929 . S
C1994 C1993 1.363 . S
C1994 C2000 1.428 . S
H1995 C1991 0.930 . S
H1996 C1993 0.929 . S
S1997 N1998 1.613 . S
S1997 N1999 1.610 . S
N1998 S1997 1.613 . S
N1998 C2001 1.350 . S
N1999 S1997 1.610 . S
N1999 C2000 1.351 . S
C2000 C1994 1.428 . S
C2000 N1999 1.351 . S
C2000 C2001 1.434 . S
C2001 C1992 1.429 . S
C2001 N1998 1.350 . S
C2001 C2000 1.434 . S
C2002 C2003 1.369 . S
C2002 C2004 1.419 . S
C2002 H2006 0.930 . S
C2003 C2002 1.369 . S
C2003 C2012 1.429 . S
C2004 C2002 1.419 . S
C2004 C2005 1.363 . S
C2004 H2007 0.929 . S
C2005 C2004 1.363 . S
C2005 C2011 1.428 . S
H2006 C2002 0.930 . S
H2007 C2004 0.929 . S
S2008 N2009 1.613 . S
S2008 N2010 1.610 . S
N2009 S2008 1.613 . S
N2009 C2012 1.350 . S
N2010 S2008 1.610 . S
N2010 C2011 1.351 . S
C2011 C2005 1.428 . S
C2011 N2010 1.351 . S
C2011 C2012 1.434 . S
C2012 C2003 1.429 . S
C2012 N2009 1.350 . S
C2012 C2011 1.434 . S
C2013 C2014 1.369 . S
C2013 C2015 1.417 1_554 S
C2013 H2017 0.930 1_554 S
C2014 C2013 1.369 . S
C2014 C2023 1.429 . S
C2015 C2013 1.417 1_556 S
C2015 C2016 1.360 1_556 S
C2015 H2018 0.933 . S
C2016 C2015 1.360 1_554 S
C2016 C2022 1.428 . S
H2017 C2013 0.930 1_556 S
H2018 C2015 0.933 . S
S2019 N2020 1.613 . S
S2019 N2021 1.610 . S
N2020 S2019 1.613 . S
N2020 C2023 1.350 . S
N2021 S2019 1.610 . S
N2021 C2022 1.351 . S
C2022 C2016 1.428 . S
C2022 N2021 1.351 . S
C2022 C2023 1.434 . S
C2023 C2014 1.429 . S
C2023 N2020 1.350 . S
C2023 C2022 1.434 . S
C2024 C2025 1.369 . S
C2024 C2026 1.419 . S
C2024 H2028 0.930 . S
C2025 C2024 1.369 . S
C2025 C2034 1.429 . S
C2026 C2024 1.419 . S
C2026 C2027 1.363 . S
C2026 H2029 0.929 . S
C2027 C2026 1.363 . S
C2027 C2033 1.428 . S
H2028 C2024 0.930 . S
H2029 C2026 0.929 . S
S2030 N2031 1.613 . S
S2030 N2032 1.610 . S
N2031 S2030 1.613 . S
N2031 C2034 1.350 . S
N2032 S2030 1.610 . S
N2032 C2033 1.351 . S
C2033 C2027 1.428 . S
C2033 N2032 1.351 . S
C2033 C2034 1.434 . S
C2034 C2025 1.429 . S
C2034 N2031 1.350 . S
C2034 C2033 1.434 . S
C2035 C2036 1.369 . S
C2035 C2037 1.419 . S
C2035 H2039 0.930 . S
C2036 C2035 1.369 . S
C2036 C2045 1.429 . S
C2037 C2035 1.419 . S
C2037 C2038 1.363 . S
C2037 H2040 0.929 . S
C2038 C2037 1.363 . S
C2038 C2044 1.428 . S
H2039 C2035 0.930 . S
H2040 C2037 0.929 . S
S2041 N2042 1.613 . S
S2041 N2043 1.610 . S
N2042 S2041 1.613 . S
N2042 C2045 1.350 . S
N2043 S2041 1.610 . S
N2043 C2044 1.351 . S
C2044 C2038 1.428 . S
C2044 N2043 1.351 . S
C2044 C2045 1.434 . S
C2045 C2036 1.429 . S
C2045 N2042 1.350 . S
C2045 C2044 1.434 . S
C2046 C2047 1.369 . S
C2046 C2048 1.419 . S
C2046 H2050 0.930 . S
C2047 C2046 1.369 . S
C2047 C2056 1.429 . S
C2048 C2046 1.419 . S
C2048 C2049 1.363 . S
C2048 H2051 0.929 . S
C2049 C2048 1.363 . S
C2049 C2055 1.428 . S
H2050 C2046 0.930 . S
H2051 C2048 0.929 . S
S2052 N2053 1.613 . S
S2052 N2054 1.610 . S
N2053 S2052 1.613 . S
N2053 C2056 1.350 . S
N2054 S2052 1.610 . S
N2054 C2055 1.351 . S
C2055 C2049 1.428 . S
C2055 N2054 1.351 . S
C2055 C2056 1.434 . S
C2056 C2047 1.429 . S
C2056 N2053 1.350 . S
C2056 C2055 1.434 . S
C2057 C2058 1.369 . S
C2057 C2059 1.419 . S
C2057 H2061 0.930 . S
C2058 C2057 1.369 . S
C2058 C2067 1.429 . S
C2059 C2057 1.419 . S
C2059 C2060 1.363 . S
C2059 H2062 0.929 . S
C2060 C2059 1.363 . S
C2060 C2066 1.428 . S
H2061 C2057 0.930 . S
H2062 C2059 0.929 . S
S2063 N2064 1.613 . S
S2063 N2065 1.610 . S
N2064 S2063 1.613 . S
N2064 C2067 1.350 . S
N2065 S2063 1.610 . S
N2065 C2066 1.351 . S
C2066 C2060 1.428 . S
C2066 N2065 1.351 . S
C2066 C2067 1.434 . S
C2067 C2058 1.429 . S
C2067 N2064 1.350 . S
C2067 C2066 1.434 . S
C2068 C2069 1.369 1_565 S
C2068 C2070 1.419 . S
C2068 H2072 0.930 . S
C2069 C2068 1.369 1_545 S
C2069 C2078 1.429 . S
C2070 C2068 1.419 . S
C2070 C2071 1.363 1_565 S
C2070 H2073 0.929 . S
C2071 C2070 1.363 1_545 S
C2071 C2077 1.428 . S
H2072 C2068 0.930 . S
H2073 C2070 0.929 . S
S2074 N2075 1.613 . S
S2074 N2076 1.610 . S
N2075 S2074 1.613 . S
N2075 C2078 1.350 . S
N2076 S2074 1.610 . S
N2076 C2077 1.351 . S
C2077 C2071 1.428 . S
C2077 N2076 1.351 . S
C2077 C2078 1.434 . S
C2078 C2069 1.429 . S
C2078 N2075 1.350 . S
C2078 C2077 1.434 . S
C2079 C2080 1.369 . S
C2079 C2081 1.419 . S
C2079 H2083 0.930 . S
C2080 C2079 1.369 . S
C2080 C2089 1.429 . S
C2081 C2079 1.419 . S
C2081 C2082 1.363 . S
C2081 H2084 0.929 . S
C2082 C2081 1.363 . S
C2082 C2088 1.428 . S
H2083 C2079 0.930 . S
H2084 C2081 0.929 . S
S2085 N2086 1.613 . S
S2085 N2087 1.610 . S
N2086 S2085 1.613 . S
N2086 C2089 1.350 . S
N2087 S2085 1.610 . S
N2087 C2088 1.351 . S
C2088 C2082 1.428 . S
C2088 N2087 1.351 . S
C2088 C2089 1.434 . S
C2089 C2080 1.429 . S
C2089 N2086 1.350 . S
C2089 C2088 1.434 . S
C2090 C2091 1.369 . S
C2090 C2092 1.419 . S
C2090 H2094 0.930 . S
C2091 C2090 1.369 . S
C2091 C2100 1.429 . S
C2092 C2090 1.419 . S
C2092 C2093 1.363 . S
C2092 H2095 0.929 . S
C2093 C2092 1.363 . S
C2093 C2099 1.428 . S
H2094 C2090 0.930 . S
H2095 C2092 0.929 . S
S2096 N2097 1.613 . S
S2096 N2098 1.610 . S
N2097 S2096 1.613 . S
N2097 C2100 1.350 . S
N2098 S2096 1.610 . S
N2098 C2099 1.351 . S
C2099 C2093 1.428 . S
C2099 N2098 1.351 . S
C2099 C2100 1.434 . S
C2100 C2091 1.429 . S
C2100 N2097 1.350 . S
C2100 C2099 1.434 . S
C2101 C2102 1.369 . S
C2101 C2103 1.419 . S
C2101 H2105 0.930 . S
C2102 C2101 1.369 . S
C2102 C2111 1.429 . S
C2103 C2101 1.419 . S
C2103 C2104 1.363 . S
C2103 H2106 0.929 . S
C2104 C2103 1.363 . S
C2104 C2110 1.428 . S
H2105 C2101 0.930 . S
H2106 C2103 0.929 . S
S2107 N2108 1.613 . S
S2107 N2109 1.610 . S
N2108 S2107 1.613 . S
N2108 C2111 1.350 . S
N2109 S2107 1.610 . S
N2109 C2110 1.351 . S
C2110 C2104 1.428 . S
C2110 N2109 1.351 . S
C2110 C2111 1.434 . S
C2111 C2102 1.429 . S
C2111 N2108 1.350 . S
C2111 C2110 1.434 . S
C2112 C2113 1.369 . S
C2112 C2114 1.419 . S
C2112 H2116 0.930 . S
C2113 C2112 1.369 . S
C2113 C2122 1.429 . S
C2114 C2112 1.419 . S
C2114 C2115 1.363 . S
C2114 H2117 0.929 . S
C2115 C2114 1.363 . S
C2115 C2121 1.428 . S
H2116 C2112 0.930 . S
H2117 C2114 0.929 . S
S2118 N2119 1.613 . S
S2118 N2120 1.610 . S
N2119 S2118 1.613 . S
N2119 C2122 1.350 . S
N2120 S2118 1.610 . S
N2120 C2121 1.351 . S
C2121 C2115 1.428 . S
C2121 N2120 1.351 . S
C2121 C2122 1.434 . S
C2122 C2113 1.429 . S
C2122 N2119 1.350 . S
C2122 C2121 1.434 . S
C2123 C2124 1.369 . S
C2123 C2125 1.419 . S
C2123 H2127 0.930 . S
C2124 C2123 1.369 . S
C2124 C2133 1.429 . S
C2125 C2123 1.419 . S
C2125 C2126 1.363 . S
C2125 H2128 0.929 . S
C2126 C2125 1.363 . S
C2126 C2132 1.428 . S
H2127 C2123 0.930 . S
H2128 C2125 0.929 . S
S2129 N2130 1.613 . S
S2129 N2131 1.610 . S
N2130 S2129 1.613 . S
N2130 C2133 1.350 . S
N2131 S2129 1.610 . S
N2131 C2132 1.351 . S
C2132 C2126 1.428 . S
C2132 N2131 1.351 . S
C2132 C2133 1.434 . S
C2133 C2124 1.429 . S
C2133 N2130 1.350 . S
C2133 C2132 1.434 . S
C2134 C2135 1.369 . S
C2134 C2136 1.419 . S
C2134 H2138 0.930 . S
C2135 C2134 1.369 . S
C2135 C2144 1.429 . S
C2136 C2134 1.419 . S
C2136 C2137 1.363 . S
C2136 H2139 0.929 . S
C2137 C2136 1.363 . S
C2137 C2143 1.428 . S
H2138 C2134 0.930 . S
H2139 C2136 0.929 . S
S2140 N2141 1.613 . S
S2140 N2142 1.610 . S
N2141 S2140 1.613 . S
N2141 C2144 1.350 . S
N2142 S2140 1.610 . S
N2142 C2143 1.351 . S
C2143 C2137 1.428 . S
C2143 N2142 1.351 . S
C2143 C2144 1.434 . S
C2144 C2135 1.429 . S
C2144 N2141 1.350 . S
C2144 C2143 1.434 . S
C2145 C2146 1.369 1_455 S
C2145 C2147 1.419 . S
C2145 H2149 0.930 . S
C2146 C2145 1.369 1_655 S
C2146 C2155 1.429 . S
C2147 C2145 1.419 . S
C2147 C2148 1.363 1_455 S
C2147 H2150 0.929 . S
C2148 C2147 1.363 1_655 S
C2148 C2154 1.428 . S
H2149 C2145 0.930 . S
H2150 C2147 0.929 . S
S2151 N2152 1.613 . S
S2151 N2153 1.610 . S
N2152 S2151 1.613 . S
N2152 C2155 1.350 . S
N2153 S2151 1.610 . S
N2153 C2154 1.351 . S
C2154 C2148 1.428 . S
C2154 N2153 1.351 . S
C2154 C2155 1.434 . S
C2155 C2146 1.429 . S
C2155 N2152 1.350 . S
C2155 C2154 1.434 . S
C2156 C2157 1.369 . S
C2156 C2158 1.419 . S
C2156 H2160 0.930 . S
C2157 C2156 1.369 . S
C2157 C2166 1.429 . S
C2158 C2156 1.419 . S
C2158 C2159 1.363 . S
C2158 H2161 0.929 . S
C2159 C2158 1.363 . S
C2159 C2165 1.428 . S
H2160 C2156 0.930 . S
H2161 C2158 0.929 . S
S2162 N2163 1.613 . S
S2162 N2164 1.610 . S
N2163 S2162 1.613 . S
N2163 C2166 1.350 . S
N2164 S2162 1.610 . S
N2164 C2165 1.351 . S
C2165 C2159 1.428 . S
C2165 N2164 1.351 . S
C2165 C2166 1.434 . S
C2166 C2157 1.429 . S
C2166 N2163 1.350 . S
C2166 C2165 1.434 . S
C2167 C2168 1.369 . S
C2167 C2169 1.419 . S
C2167 H2171 0.930 . S
C2168 C2167 1.369 . S
C2168 C2177 1.429 . S
C2169 C2167 1.419 . S
C2169 C2170 1.363 . S
C2169 H2172 0.929 . S
C2170 C2169 1.363 . S
C2170 C2176 1.428 . S
H2171 C2167 0.930 . S
H2172 C2169 0.929 . S
S2173 N2174 1.616 . S
S2173 N2175 1.610 . S
N2174 S2173 1.616 . S
N2174 C2177 1.350 . S
N2175 S2173 1.610 . S
N2175 C2176 1.361 . S
C2176 C2170 1.428 . S
C2176 N2175 1.361 . S
C2176 C2177 1.434 . S
C2177 C2168 1.429 . S
C2177 N2174 1.350 . S
C2177 C2176 1.434 . S
C2178 C2179 1.369 . S
C2178 C2180 1.419 . S
C2178 H2182 0.930 . S
C2179 C2178 1.369 . S
C2179 C2188 1.429 . S
C2180 C2178 1.419 . S
C2180 C2181 1.363 . S
C2180 H2183 0.929 . S
C2181 C2180 1.363 . S
C2181 C2187 1.428 . S
H2182 C2178 0.930 . S
H2183 C2180 0.929 . S
S2184 N2185 1.613 . S
S2184 N2186 1.610 . S
N2185 S2184 1.613 . S
N2185 C2188 1.350 . S
N2186 S2184 1.610 . S
N2186 C2187 1.351 . S
C2187 C2181 1.428 . S
C2187 N2186 1.351 . S
C2187 C2188 1.434 . S
C2188 C2179 1.429 . S
C2188 N2185 1.350 . S
C2188 C2187 1.434 . S
C2189 C2190 1.369 . S
C2189 C2191 1.419 . S
C2189 H2193 0.930 . S
C2190 C2189 1.369 . S
C2190 C2199 1.429 . S
C2191 C2189 1.419 . S
C2191 C2192 1.363 . S
C2191 H2194 0.929 . S
C2192 C2191 1.363 . S
C2192 C2198 1.428 . S
H2193 C2189 0.930 . S
H2194 C2191 0.929 . S
S2195 N2196 1.613 . S
S2195 N2197 1.610 . S
N2196 S2195 1.613 . S
N2196 C2199 1.350 . S
N2197 S2195 1.610 . S
N2197 C2198 1.351 . S
C2198 C2192 1.428 . S
C2198 N2197 1.351 . S
C2198 C2199 1.434 . S
C2199 C2190 1.429 . S
C2199 N2196 1.350 . S
C2199 C2198 1.434 . S
C2200 C2201 1.369 . S
C2200 C2202 1.419 . S
C2200 H2204 0.930 . S
C2201 C2200 1.369 . S
C2201 C2210 1.429 . S
C2202 C2200 1.419 . S
C2202 C2203 1.363 . S
C2202 H2205 0.929 . S
C2203 C2202 1.363 . S
C2203 C2209 1.428 . S
H2204 C2200 0.930 . S
H2205 C2202 0.929 . S
S2206 N2207 1.613 . S
S2206 N2208 1.610 . S
N2207 S2206 1.613 . S
N2207 C2210 1.350 . S
N2208 S2206 1.610 . S
N2208 C2209 1.351 . S
C2209 C2203 1.428 . S
C2209 N2208 1.351 . S
C2209 C2210 1.434 . S
C2210 C2201 1.429 . S
C2210 N2207 1.350 . S
C2210 C2209 1.434 . S
C2211 C2212 1.369 . S
C2211 C2213 1.419 . S
C2211 H2215 0.930 . S
C2212 C2211 1.369 . S
C2212 C2221 1.429 . S
C2213 C2211 1.419 . S
C2213 C2214 1.363 . S
C2213 H2216 0.929 . S
C2214 C2213 1.363 . S
C2214 C2220 1.428 . S
H2215 C2211 0.930 . S
H2216 C2213 0.929 . S
S2217 N2218 1.613 . S
S2217 N2219 1.610 . S
N2218 S2217 1.613 . S
N2218 C2221 1.350 . S
N2219 S2217 1.610 . S
N2219 C2220 1.351 . S
C2220 C2214 1.428 . S
C2220 N2219 1.351 . S
C2220 C2221 1.434 . S
C2221 C2212 1.429 . S
C2221 N2218 1.350 . S
C2221 C2220 1.434 . S
C2222 C2223 1.369 . S
C2222 C2224 1.419 . S
C2222 H2226 0.930 . S
C2223 C2222 1.369 . S
C2223 C2232 1.429 . S
C2224 C2222 1.419 . S
C2224 C2225 1.363 . S
C2224 H2227 0.929 . S
C2225 C2224 1.363 . S
C2225 C2231 1.428 . S
H2226 C2222 0.930 . S
H2227 C2224 0.929 . S
S2228 N2229 1.613 . S
S2228 N2230 1.610 . S
N2229 S2228 1.613 . S
N2229 C2232 1.350 . S
N2230 S2228 1.610 . S
N2230 C2231 1.351 . S
C2231 C2225 1.428 . S
C2231 N2230 1.351 . S
C2231 C2232 1.434 . S
C2232 C2223 1.429 . S
C2232 N2229 1.350 . S
C2232 C2231 1.434 . S
C2233 C2234 1.369 . S
C2233 C2235 1.419 . S
C2233 H2237 0.930 . S
C2234 C2233 1.369 . S
C2234 C2243 1.429 . S
C2235 C2233 1.419 . S
C2235 C2236 1.363 . S
C2235 H2238 0.929 . S
C2236 C2235 1.363 . S
C2236 C2242 1.428 . S
H2237 C2233 0.930 . S
H2238 C2235 0.929 . S
S2239 N2240 1.613 . S
S2239 N2241 1.610 . S
N2240 S2239 1.613 . S
N2240 C2243 1.350 . S
N2241 S2239 1.610 . S
N2241 C2242 1.351 . S
C2242 C2236 1.428 . S
C2242 N2241 1.351 . S
C2242 C2243 1.434 . S
C2243 C2234 1.429 . S
C2243 N2240 1.350 . S
C2243 C2242 1.434 . S
C2244 C2245 1.369 . S
C2244 C2246 1.419 . S
C2244 H2248 0.930 . S
C2245 C2244 1.369 . S
C2245 C2254 1.429 . S
C2246 C2244 1.419 . S
C2246 C2247 1.363 . S
C2246 H2249 0.929 . S
C2247 C2246 1.363 . S
C2247 C2253 1.428 . S
H2248 C2244 0.930 . S
H2249 C2246 0.929 . S
S2250 N2251 1.613 . S
S2250 N2252 1.610 . S
N2251 S2250 1.613 . S
N2251 C2254 1.350 . S
N2252 S2250 1.610 . S
N2252 C2253 1.351 . S
C2253 C2247 1.428 . S
C2253 N2252 1.351 . S
C2253 C2254 1.434 . S
C2254 C2245 1.429 . S
C2254 N2251 1.350 . S
C2254 C2253 1.434 . S
C2255 C2256 1.377 . S
C2255 C2257 1.422 . S
C2255 H2259 0.918 1_554 S
C2256 C2255 1.377 . S
C2256 C2265 1.429 . S
C2257 C2255 1.422 . S
C2257 C2258 1.363 . S
C2257 H2260 0.929 1_554 S
C2258 C2257 1.363 . S
C2258 C2264 1.428 . S
H2259 C2255 0.918 1_556 S
H2260 C2257 0.929 1_556 S
S2261 N2262 1.613 . S
S2261 N2263 1.610 . S
N2262 S2261 1.613 . S
N2262 C2265 1.350 . S
N2263 S2261 1.610 . S
N2263 C2264 1.351 . S
C2264 C2258 1.428 . S
C2264 N2263 1.351 . S
C2264 C2265 1.434 . S
C2265 C2256 1.429 . S
C2265 N2262 1.350 . S
C2265 C2264 1.434 . S
C2266 C2267 1.369 . S
C2266 C2268 1.419 . S
C2266 H2270 0.930 . S
C2267 C2266 1.369 . S
C2267 C2276 1.429 . S
C2268 C2266 1.419 . S
C2268 C2269 1.363 . S
C2268 H2271 0.929 . S
C2269 C2268 1.363 . S
C2269 C2275 1.428 . S
H2270 C2266 0.930 . S
H2271 C2268 0.929 . S
S2272 N2273 1.613 . S
S2272 N2274 1.610 . S
N2273 S2272 1.613 . S
N2273 C2276 1.350 . S
N2274 S2272 1.610 . S
N2274 C2275 1.351 . S
C2275 C2269 1.428 . S
C2275 N2274 1.351 . S
C2275 C2276 1.434 . S
C2276 C2267 1.429 . S
C2276 N2273 1.350 . S
C2276 C2275 1.434 . S
C2277 C2278 1.369 . S
C2277 C2279 1.419 . S
C2277 H2281 0.930 . S
C2278 C2277 1.369 . S
C2278 C2287 1.429 . S
C2279 C2277 1.419 . S
C2279 C2280 1.363 . S
C2279 H2282 0.929 . S
C2280 C2279 1.363 . S
C2280 C2286 1.428 . S
H2281 C2277 0.930 . S
H2282 C2279 0.929 . S
S2283 N2284 1.613 . S
S2283 N2285 1.610 . S
N2284 S2283 1.613 . S
N2284 C2287 1.350 . S
N2285 S2283 1.610 . S
N2285 C2286 1.351 . S
C2286 C2280 1.428 . S
C2286 N2285 1.351 . S
C2286 C2287 1.434 . S
C2287 C2278 1.429 . S
C2287 N2284 1.350 . S
C2287 C2286 1.434 . S
C2288 C2289 1.369 . S
C2288 C2290 1.419 . S
C2288 H2292 0.930 . S
C2289 C2288 1.369 . S
C2289 C2298 1.429 . S
C2290 C2288 1.419 . S
C2290 C2291 1.363 . S
C2290 H2293 0.929 . S
C2291 C2290 1.363 . S
C2291 C2297 1.428 . S
H2292 C2288 0.930 . S
H2293 C2290 0.929 . S
S2294 N2295 1.613 . S
S2294 N2296 1.610 . S
N2295 S2294 1.613 . S
N2295 C2298 1.350 . S
N2296 S2294 1.610 . S
N2296 C2297 1.351 . S
C2297 C2291 1.428 . S
C2297 N2296 1.351 . S
C2297 C2298 1.434 . S
C2298 C2289 1.429 . S
C2298 N2295 1.350 . S
C2298 C2297 1.434 . S
C2299 C2300 1.369 . S
C2299 C2301 1.419 . S
C2299 H2303 0.930 . S
C2300 C2299 1.369 . S
C2300 C2309 1.429 . S
C2301 C2299 1.419 . S
C2301 C2302 1.363 . S
C2301 H2304 0.929 . S
C2302 C2301 1.363 . S
C2302 C2308 1.428 . S
H2303 C2299 0.930 . S
H2304 C2301 0.929 . S
S2305 N2306 1.613 . S
S2305 N2307 1.610 . S
N2306 S2305 1.613 . S
N2306 C2309 1.350 . S
N2307 S2305 1.610 . S
N2307 C2308 1.351 . S
C2308 C2302 1.428 . S
C2308 N2307 1.351 . S
C2308 C2309 1.434 . S
C2309 C2300 1.429 . S
C2309 N2306 1.350 . S
C2309 C2308 1.434 . S
C2310 C2311 1.369 . S
C2310 C2312 1.419 . S
C2310 H2314 0.930 . S
C2311 C2310 1.369 . S
C2311 C2320 1.429 1_565 S
C2312 C2310 1.419 . S
C2312 C2313 1.363 . S
C2312 H2315 0.929 . S
C2313 C2312 1.363 . S
C2313 C2319 1.428 1_565 S
H2314 C2310 0.930 . S
H2315 C2312 0.929 . S
S2316 N2317 1.613 . S
S2316 N2318 1.610 . S
N2317 S2316 1.613 . S
N2317 C2320 1.350 . S
N2318 S2316 1.610 . S
N2318 C2319 1.351 . S
C2319 C2313 1.428 1_545 S
C2319 N2318 1.351 . S
C2319 C2320 1.434 . S
C2320 C2311 1.429 1_545 S
C2320 N2317 1.350 . S
C2320 C2319 1.434 . S
C2321 C2322 1.369 . S
C2321 C2323 1.419 . S
C2321 H2325 0.930 . S
C2322 C2321 1.369 . S
C2322 C2331 1.429 . S
C2323 C2321 1.419 . S
C2323 C2324 1.363 . S
C2323 H2326 0.929 . S
C2324 C2323 1.363 . S
C2324 C2330 1.428 . S
H2325 C2321 0.930 . S
H2326 C2323 0.929 . S
S2327 N2328 1.613 . S
S2327 N2329 1.610 . S
N2328 S2327 1.613 . S
N2328 C2331 1.350 . S
N2329 S2327 1.610 . S
N2329 C2330 1.351 . S
C2330 C2324 1.428 . S
C2330 N2329 1.351 . S
C2330 C2331 1.434 . S
C2331 C2322 1.429 . S
C2331 N2328 1.350 . S
C2331 C2330 1.434 . S
C2332 C2333 1.369 . S
C2332 C2334 1.419 . S
C2332 H2336 0.930 . S
C2333 C2332 1.369 . S
C2333 C2342 1.429 . S
C2334 C2332 1.419 . S
C2334 C2335 1.363 . S
C2334 H2337 0.929 . S
C2335 C2334 1.363 . S
C2335 C2341 1.428 . S
H2336 C2332 0.930 . S
H2337 C2334 0.929 . S
S2338 N2339 1.613 . S
S2338 N2340 1.610 . S
N2339 S2338 1.613 . S
N2339 C2342 1.350 . S
N2340 S2338 1.610 . S
N2340 C2341 1.351 . S
C2341 C2335 1.428 . S
C2341 N2340 1.351 . S
C2341 C2342 1.434 . S
C2342 C2333 1.429 . S
C2342 N2339 1.350 . S
C2342 C2341 1.434 . S
C2343 C2344 1.369 . S
C2343 C2345 1.419 . S
C2343 H2347 0.930 . S
C2344 C2343 1.369 . S
C2344 C2353 1.429 . S
C2345 C2343 1.419 . S
C2345 C2346 1.363 . S
C2345 H2348 0.929 . S
C2346 C2345 1.363 . S
C2346 C2352 1.428 . S
H2347 C2343 0.930 . S
H2348 C2345 0.929 . S
S2349 N2350 1.613 . S
S2349 N2351 1.610 . S
N2350 S2349 1.613 . S
N2350 C2353 1.350 . S
N2351 S2349 1.610 . S
N2351 C2352 1.351 . S
C2352 C2346 1.428 . S
C2352 N2351 1.351 . S
C2352 C2353 1.434 . S
C2353 C2344 1.429 . S
C2353 N2350 1.350 . S
C2353 C2352 1.434 . S
C2354 C2355 1.361 1_565 S
C2354 C2356 1.416 1_565 S
C2354 H2358 0.942 . S
C2355 C2354 1.361 1_545 S
C2355 C2364 1.429 . S
C2356 C2354 1.416 1_545 S
C2356 C2357 1.363 . S
C2356 H2359 0.929 1_545 S
C2357 C2356 1.363 . S
C2357 C2363 1.428 . S
H2358 C2354 0.942 . S
H2359 C2356 0.929 1_565 S
S2360 N2361 1.613 . S
S2360 N2362 1.610 . S
N2361 S2360 1.613 . S
N2361 C2364 1.350 . S
N2362 S2360 1.610 . S
N2362 C2363 1.351 . S
C2363 C2357 1.428 . S
C2363 N2362 1.351 . S
C2363 C2364 1.434 . S
C2364 C2355 1.429 . S
C2364 N2361 1.350 . S
C2364 C2363 1.434 . S
C2365 C2366 1.369 . S
C2365 C2367 1.419 . S
C2365 H2369 0.930 . S
C2366 C2365 1.369 . S
C2366 C2375 1.429 1_565 S
C2367 C2365 1.419 . S
C2367 C2368 1.363 . S
C2367 H2370 0.929 . S
C2368 C2367 1.363 . S
C2368 C2374 1.428 1_565 S
H2369 C2365 0.930 . S
H2370 C2367 0.929 . S
S2371 N2372 1.613 . S
S2371 N2373 1.610 . S
N2372 S2371 1.613 . S
N2372 C2375 1.350 . S
N2373 S2371 1.610 . S
N2373 C2374 1.351 . S
C2374 C2368 1.428 1_545 S
C2374 N2373 1.351 . S
C2374 C2375 1.434 . S
C2375 C2366 1.429 1_545 S
C2375 N2372 1.350 . S
C2375 C2374 1.434 . S
C2376 C2377 1.369 . S
C2376 C2378 1.419 . S
C2376 H2380 0.930 . S
C2377 C2376 1.369 . S
C2377 C2386 1.429 . S
C2378 C2376 1.419 . S
C2378 C2379 1.363 . S
C2378 H2381 0.929 . S
C2379 C2378 1.363 . S
C2379 C2385 1.428 . S
H2380 C2376 0.930 . S
H2381 C2378 0.929 . S
S2382 N2383 1.613 . S
S2382 N2384 1.610 . S
N2383 S2382 1.613 . S
N2383 C2386 1.350 . S
N2384 S2382 1.610 . S
N2384 C2385 1.351 . S
C2385 C2379 1.428 . S
C2385 N2384 1.351 . S
C2385 C2386 1.434 . S
C2386 C2377 1.429 . S
C2386 N2383 1.350 . S
C2386 C2385 1.434 . S
C2387 C2388 1.369 . S
C2387 C2389 1.419 . S
C2387 H2391 0.930 . S
C2388 C2387 1.369 . S
C2388 C2397 1.429 . S
C2389 C2387 1.419 . S
C2389 C2390 1.363 . S
C2389 H2392 0.929 . S
C2390 C2389 1.363 . S
C2390 C2396 1.428 . S
H2391 C2387 0.930 . S
H2392 C2389 0.929 . S
S2393 N2394 1.613 . S
S2393 N2395 1.610 . S
N2394 S2393 1.613 . S
N2394 C2397 1.350 . S
N2395 S2393 1.610 . S
N2395 C2396 1.351 . S
C2396 C2390 1.428 . S
C2396 N2395 1.351 . S
C2396 C2397 1.434 . S
C2397 C2388 1.429 . S
C2397 N2394 1.350 . S
C2397 C2396 1.434 . S
C2398 C2399 1.369 . S
C2398 C2400 1.419 . S
C2398 H2402 0.930 . S
C2399 C2398 1.369 . S
C2399 C2408 1.429 . S
C2400 C2398 1.419 . S
C2400 C2401 1.363 . S
C2400 H2403 0.929 . S
C2401 C2400 1.363 . S
C2401 C2407 1.428 . S
H2402 C2398 0.930 . S
H2403 C2400 0.929 . S
S2404 N2405 1.613 . S
S2404 N2406 1.610 . S
N2405 S2404 1.613 . S
N2405 C2408 1.350 . S
N2406 S2404 1.610 . S
N2406 C2407 1.351 . S
C2407 C2401 1.428 . S
C2407 N2406 1.351 . S
C2407 C2408 1.434 . S
C2408 C2399 1.429 . S
C2408 N2405 1.350 . S
C2408 C2407 1.434 . S
C2409 C2410 1.369 . S
C2409 C2411 1.419 . S
C2409 H2413 0.930 . S
C2410 C2409 1.369 . S
C2410 C2419 1.429 . S
C2411 C2409 1.419 . S
C2411 C2412 1.363 . S
C2411 H2414 0.929 . S
C2412 C2411 1.363 . S
C2412 C2418 1.428 . S
H2413 C2409 0.930 . S
H2414 C2411 0.929 . S
S2415 N2416 1.613 . S
S2415 N2417 1.610 . S
N2416 S2415 1.613 . S
N2416 C2419 1.350 . S
N2417 S2415 1.610 . S
N2417 C2418 1.351 . S
C2418 C2412 1.428 . S
C2418 N2417 1.351 . S
C2418 C2419 1.434 . S
C2419 C2410 1.429 . S
C2419 N2416 1.350 . S
C2419 C2418 1.434 . S
C2420 C2421 1.369 . S
C2420 C2422 1.419 . S
C2420 H2424 0.930 . S
C2421 C2420 1.369 . S
C2421 C2430 1.429 . S
C2422 C2420 1.419 . S
C2422 C2423 1.363 . S
C2422 H2425 0.929 . S
C2423 C2422 1.363 . S
C2423 C2429 1.428 . S
H2424 C2420 0.930 . S
H2425 C2422 0.929 . S
S2426 N2427 1.613 . S
S2426 N2428 1.610 . S
N2427 S2426 1.613 . S
N2427 C2430 1.350 . S
N2428 S2426 1.610 . S
N2428 C2429 1.351 . S
C2429 C2423 1.428 . S
C2429 N2428 1.351 . S
C2429 C2430 1.434 . S
C2430 C2421 1.429 . S
C2430 N2427 1.350 . S
C2430 C2429 1.434 . S
C2431 C2432 1.369 . S
C2431 C2433 1.419 . S
C2431 H2435 0.930 . S
C2432 C2431 1.369 . S
C2432 C2441 1.429 . S
C2433 C2431 1.419 . S
C2433 C2434 1.363 . S
C2433 H2436 0.929 . S
C2434 C2433 1.363 . S
C2434 C2440 1.428 . S
H2435 C2431 0.930 . S
H2436 C2433 0.929 . S
S2437 N2438 1.613 . S
S2437 N2439 1.610 . S
N2438 S2437 1.613 . S
N2438 C2441 1.350 . S
N2439 S2437 1.610 . S
N2439 C2440 1.351 . S
C2440 C2434 1.428 . S
C2440 N2439 1.351 . S
C2440 C2441 1.434 . S
C2441 C2432 1.429 . S
C2441 N2438 1.350 . S
C2441 C2440 1.434 . S
C2442 C2443 1.369 . S
C2442 C2444 1.419 . S
C2442 H2446 0.930 . S
C2443 C2442 1.369 . S
C2443 C2452 1.429 . S
C2444 C2442 1.419 . S
C2444 C2445 1.363 . S
C2444 H2447 0.929 . S
C2445 C2444 1.363 . S
C2445 C2451 1.428 . S
H2446 C2442 0.930 . S
H2447 C2444 0.929 . S
S2448 N2449 1.613 . S
S2448 N2450 1.610 . S
N2449 S2448 1.613 . S
N2449 C2452 1.350 . S
N2450 S2448 1.610 . S
N2450 C2451 1.351 . S
C2451 C2445 1.428 . S
C2451 N2450 1.351 . S
C2451 C2452 1.434 . S
C2452 C2443 1.429 . S
C2452 N2449 1.350 . S
C2452 C2451 1.434 . S
C2453 C2454 1.369 . S
C2453 C2455 1.419 . S
C2453 H2457 0.930 . S
C2454 C2453 1.369 . S
C2454 C2463 1.429 . S
C2455 C2453 1.419 . S
C2455 C2456 1.363 . S
C2455 H2458 0.929 . S
C2456 C2455 1.363 . S
C2456 C2462 1.428 . S
H2457 C2453 0.930 . S
H2458 C2455 0.929 . S
S2459 N2460 1.613 . S
S2459 N2461 1.610 . S
N2460 S2459 1.613 . S
N2460 C2463 1.350 . S
N2461 S2459 1.610 . S
N2461 C2462 1.351 . S
C2462 C2456 1.428 . S
C2462 N2461 1.351 . S
C2462 C2463 1.434 . S
C2463 C2454 1.429 . S
C2463 N2460 1.350 . S
C2463 C2462 1.434 . S
C2464 C2465 1.369 . S
C2464 C2466 1.419 . S
C2464 H2468 0.930 . S
C2465 C2464 1.369 . S
C2465 C2474 1.429 . S
C2466 C2464 1.419 . S
C2466 C2467 1.363 . S
C2466 H2469 0.929 . S
C2467 C2466 1.363 . S
C2467 C2473 1.428 . S
H2468 C2464 0.930 . S
H2469 C2466 0.929 . S
S2470 N2471 1.613 . S
S2470 N2472 1.610 . S
N2471 S2470 1.613 . S
N2471 C2474 1.350 . S
N2472 S2470 1.610 . S
N2472 C2473 1.351 . S
C2473 C2467 1.428 . S
C2473 N2472 1.351 . S
C2473 C2474 1.434 . S
C2474 C2465 1.429 . S
C2474 N2471 1.350 . S
C2474 C2473 1.434 . S
C2475 C2476 1.369 . S
C2475 C2477 1.419 . S
C2475 H2479 0.930 . S
C2476 C2475 1.369 . S
C2476 C2485 1.429 . S
C2477 C2475 1.419 . S
C2477 C2478 1.363 . S
C2477 H2480 0.929 . S
C2478 C2477 1.363 . S
C2478 C2484 1.428 . S
H2479 C2475 0.930 . S
H2480 C2477 0.929 . S
S2481 N2482 1.613 . S
S2481 N2483 1.610 . S
N2482 S2481 1.613 . S
N2482 C2485 1.350 . S
N2483 S2481 1.610 . S
N2483 C2484 1.351 . S
C2484 C2478 1.428 . S
C2484 N2483 1.351 . S
C2484 C2485 1.434 . S
C2485 C2476 1.429 . S
C2485 N2482 1.350 . S
C2485 C2484 1.434 . S
C2486 C2487 1.369 . S
C2486 C2488 1.419 . S
C2486 H2490 0.930 . S
C2487 C2486 1.369 . S
C2487 C2496 1.429 . S
C2488 C2486 1.419 . S
C2488 C2489 1.363 . S
C2488 H2491 0.929 . S
C2489 C2488 1.363 . S
C2489 C2495 1.428 . S
H2490 C2486 0.930 . S
H2491 C2488 0.929 . S
S2492 N2493 1.613 . S
S2492 N2494 1.610 . S
N2493 S2492 1.613 . S
N2493 C2496 1.350 . S
N2494 S2492 1.610 . S
N2494 C2495 1.351 . S
C2495 C2489 1.428 . S
C2495 N2494 1.351 . S
C2495 C2496 1.434 . S
C2496 C2487 1.429 . S
C2496 N2493 1.350 . S
C2496 C2495 1.434 . S
C2497 C2498 1.369 . S
C2497 C2499 1.419 . S
C2497 H2501 0.930 . S
C2498 C2497 1.369 . S
C2498 C2507 1.429 . S
C2499 C2497 1.419 . S
C2499 C2500 1.363 . S
C2499 H2502 0.929 . S
C2500 C2499 1.363 . S
C2500 C2506 1.428 . S
H2501 C2497 0.930 . S
H2502 C2499 0.929 . S
S2503 N2504 1.613 . S
S2503 N2505 1.610 . S
N2504 S2503 1.613 . S
N2504 C2507 1.350 . S
N2505 S2503 1.610 . S
N2505 C2506 1.351 . S
C2506 C2500 1.428 . S
C2506 N2505 1.351 . S
C2506 C2507 1.434 . S
C2507 C2498 1.429 . S
C2507 N2504 1.350 . S
C2507 C2506 1.434 . S
C2508 C2509 1.369 . S
C2508 C2510 1.419 . S
C2508 H2512 0.930 . S
C2509 C2508 1.369 . S
C2509 C2518 1.429 . S
C2510 C2508 1.419 . S
C2510 C2511 1.363 . S
C2510 H2513 0.929 . S
C2511 C2510 1.363 . S
C2511 C2517 1.428 . S
H2512 C2508 0.930 . S
H2513 C2510 0.929 . S
S2514 N2515 1.613 . S
S2514 N2516 1.610 . S
N2515 S2514 1.613 . S
N2515 C2518 1.350 . S
N2516 S2514 1.610 . S
N2516 C2517 1.351 . S
C2517 C2511 1.428 . S
C2517 N2516 1.351 . S
C2517 C2518 1.434 . S
C2518 C2509 1.429 . S
C2518 N2515 1.350 . S
C2518 C2517 1.434 . S
C2519 C2520 1.369 . S
C2519 C2521 1.419 . S
C2519 H2523 0.930 . S
C2520 C2519 1.369 . S
C2520 C2529 1.429 . S
C2521 C2519 1.419 . S
C2521 C2522 1.363 . S
C2521 H2524 0.929 . S
C2522 C2521 1.363 . S
C2522 C2528 1.428 . S
H2523 C2519 0.930 . S
H2524 C2521 0.929 . S
S2525 N2526 1.613 . S
S2525 N2527 1.610 . S
N2526 S2525 1.613 . S
N2526 C2529 1.350 . S
N2527 S2525 1.610 . S
N2527 C2528 1.351 . S
C2528 C2522 1.428 . S
C2528 N2527 1.351 . S
C2528 C2529 1.434 . S
C2529 C2520 1.429 . S
C2529 N2526 1.350 . S
C2529 C2528 1.434 . S
C2530 C2531 1.369 . S
C2530 C2532 1.419 . S
C2530 H2534 0.930 . S
C2531 C2530 1.369 . S
C2531 C2540 1.429 . S
C2532 C2530 1.419 . S
C2532 C2533 1.363 . S
C2532 H2535 0.929 . S
C2533 C2532 1.363 . S
C2533 C2539 1.428 . S
H2534 C2530 0.930 . S
H2535 C2532 0.929 . S
S2536 N2537 1.613 . S
S2536 N2538 1.610 . S
N2537 S2536 1.613 . S
N2537 C2540 1.350 . S
N2538 S2536 1.610 . S
N2538 C2539 1.351 . S
C2539 C2533 1.428 . S
C2539 N2538 1.351 . S
C2539 C2540 1.434 . S
C2540 C2531 1.429 . S
C2540 N2537 1.350 . S
C2540 C2539 1.434 . S
C2541 C2542 1.369 . S
C2541 C2543 1.419 . S
C2541 H2545 0.930 . S
C2542 C2541 1.369 . S
C2542 C2551 1.429 . S
C2543 C2541 1.419 . S
C2543 C2544 1.363 . S
C2543 H2546 0.929 . S
C2544 C2543 1.363 . S
C2544 C2550 1.428 . S
H2545 C2541 0.930 . S
H2546 C2543 0.929 . S
S2547 N2548 1.613 . S
S2547 N2549 1.610 . S
N2548 S2547 1.613 . S
N2548 C2551 1.350 . S
N2549 S2547 1.610 . S
N2549 C2550 1.351 . S
C2550 C2544 1.428 . S
C2550 N2549 1.351 . S
C2550 C2551 1.434 . S
C2551 C2542 1.429 . S
C2551 N2548 1.350 . S
C2551 C2550 1.434 . S
C2552 C2553 1.369 . S
C2552 C2554 1.419 . S
C2552 H2556 0.930 . S
C2553 C2552 1.369 . S
C2553 C2562 1.429 . S
C2554 C2552 1.419 . S
C2554 C2555 1.363 . S
C2554 H2557 0.929 . S
C2555 C2554 1.363 . S
C2555 C2561 1.428 . S
H2556 C2552 0.930 . S
H2557 C2554 0.929 . S
S2558 N2559 1.613 . S
S2558 N2560 1.610 . S
N2559 S2558 1.613 . S
N2559 C2562 1.350 . S
N2560 S2558 1.610 . S
N2560 C2561 1.351 . S
C2561 C2555 1.428 . S
C2561 N2560 1.351 . S
C2561 C2562 1.434 . S
C2562 C2553 1.429 . S
C2562 N2559 1.350 . S
C2562 C2561 1.434 . S
C2563 C2564 1.369 . S
C2563 C2565 1.419 . S
C2563 H2567 0.930 . S
C2564 C2563 1.369 . S
C2564 C2573 1.429 . S
C2565 C2563 1.419 . S
C2565 C2566 1.363 . S
C2565 H2568 0.929 . S
C2566 C2565 1.363 . S
C2566 C2572 1.428 . S
H2567 C2563 0.930 . S
H2568 C2565 0.929 . S
S2569 N2570 1.613 . S
S2569 N2571 1.610 . S
N2570 S2569 1.613 . S
N2570 C2573 1.350 . S
N2571 S2569 1.610 . S
N2571 C2572 1.351 . S
C2572 C2566 1.428 . S
C2572 N2571 1.351 . S
C2572 C2573 1.434 . S
C2573 C2564 1.429 . S
C2573 N2570 1.350 . S
C2573 C2572 1.434 . S
C2574 C2575 1.369 . S
C2574 C2576 1.419 . S
C2574 H2578 0.930 . S
C2575 C2574 1.369 . S
C2575 C2584 1.429 . S
C2576 C2574 1.419 . S
C2576 C2577 1.363 . S
C2576 H2579 0.929 . S
C2577 C2576 1.363 . S
C2577 C2583 1.428 . S
H2578 C2574 0.930 . S
H2579 C2576 0.929 . S
S2580 N2581 1.613 . S
S2580 N2582 1.610 . S
N2581 S2580 1.613 . S
N2581 C2584 1.350 . S
N2582 S2580 1.610 . S
N2582 C2583 1.351 . S
C2583 C2577 1.428 . S
C2583 N2582 1.351 . S
C2583 C2584 1.434 . S
C2584 C2575 1.429 . S
C2584 N2581 1.350 . S
C2584 C2583 1.434 . S
C2585 C2586 1.369 . S
C2585 C2587 1.419 . S
C2585 H2589 0.930 . S
C2586 C2585 1.369 . S
C2586 C2595 1.429 . S
C2587 C2585 1.419 . S
C2587 C2588 1.363 . S
C2587 H2590 0.929 . S
C2588 C2587 1.363 . S
C2588 C2594 1.428 . S
H2589 C2585 0.930 . S
H2590 C2587 0.929 . S
S2591 N2592 1.613 . S
S2591 N2593 1.610 . S
N2592 S2591 1.613 . S
N2592 C2595 1.350 . S
N2593 S2591 1.610 . S
N2593 C2594 1.351 . S
C2594 C2588 1.428 . S
C2594 N2593 1.351 . S
C2594 C2595 1.434 . S
C2595 C2586 1.429 . S
C2595 N2592 1.350 . S
C2595 C2594 1.434 . S
C2596 C2597 1.369 . S
C2596 C2598 1.419 . S
C2596 H2600 0.930 . S
C2597 C2596 1.369 . S
C2597 C2606 1.429 . S
C2598 C2596 1.419 . S
C2598 C2599 1.363 . S
C2598 H2601 0.929 . S
C2599 C2598 1.363 . S
C2599 C2605 1.428 . S
H2600 C2596 0.930 . S
H2601 C2598 0.929 . S
S2602 N2603 1.613 . S
S2602 N2604 1.610 . S
N2603 S2602 1.613 . S
N2603 C2606 1.350 . S
N2604 S2602 1.610 . S
N2604 C2605 1.351 . S
C2605 C2599 1.428 . S
C2605 N2604 1.351 . S
C2605 C2606 1.434 . S
C2606 C2597 1.429 . S
C2606 N2603 1.350 . S
C2606 C2605 1.434 . S
C2607 C2608 1.369 . S
C2607 C2609 1.419 . S
C2607 H2611 0.930 . S
C2608 C2607 1.369 . S
C2608 C2617 1.429 . S
C2609 C2607 1.419 . S
C2609 C2610 1.363 . S
C2609 H2612 0.929 . S
C2610 C2609 1.363 . S
C2610 C2616 1.428 . S
H2611 C2607 0.930 . S
H2612 C2609 0.929 . S
S2613 N2614 1.613 . S
S2613 N2615 1.610 . S
N2614 S2613 1.613 . S
N2614 C2617 1.350 . S
N2615 S2613 1.610 . S
N2615 C2616 1.351 . S
C2616 C2610 1.428 . S
C2616 N2615 1.351 . S
C2616 C2617 1.434 . S
C2617 C2608 1.429 . S
C2617 N2614 1.350 . S
C2617 C2616 1.434 . S
C2618 C2619 1.369 . S
C2618 C2620 1.419 . S
C2618 H2622 0.930 . S
C2619 C2618 1.369 . S
C2619 C2628 1.429 . S
C2620 C2618 1.419 . S
C2620 C2621 1.363 . S
C2620 H2623 0.929 . S
C2621 C2620 1.363 . S
C2621 C2627 1.428 . S
H2622 C2618 0.930 . S
H2623 C2620 0.929 . S
S2624 N2625 1.613 . S
S2624 N2626 1.610 . S
N2625 S2624 1.613 . S
N2625 C2628 1.350 . S
N2626 S2624 1.610 . S
N2626 C2627 1.351 . S
C2627 C2621 1.428 . S
C2627 N2626 1.351 . S
C2627 C2628 1.434 . S
C2628 C2619 1.429 . S
C2628 N2625 1.350 . S
C2628 C2627 1.434 . S
C2629 C2630 1.369 . S
C2629 C2631 1.419 . S
C2629 H2633 0.930 . S
C2630 C2629 1.369 . S
C2630 C2639 1.429 . S
C2631 C2629 1.419 . S
C2631 C2632 1.363 . S
C2631 H2634 0.929 . S
C2632 C2631 1.363 . S
C2632 C2638 1.428 . S
H2633 C2629 0.930 . S
H2634 C2631 0.929 . S
S2635 N2636 1.613 . S
S2635 N2637 1.610 . S
N2636 S2635 1.613 . S
N2636 C2639 1.350 . S
N2637 S2635 1.610 . S
N2637 C2638 1.351 . S
C2638 C2632 1.428 . S
C2638 N2637 1.351 . S
C2638 C2639 1.434 . S
C2639 C2630 1.429 . S
C2639 N2636 1.350 . S
C2639 C2638 1.434 . S
C2640 C2641 1.369 . S
C2640 C2642 1.419 1_655 S
C2640 H2644 0.930 . S
C2641 C2640 1.369 . S
C2641 C2650 1.450 . S
C2642 C2640 1.419 1_455 S
C2642 C2643 1.363 . S
C2642 H2645 0.931 . S
C2643 C2642 1.363 . S
C2643 C2649 1.428 . S
H2644 C2640 0.930 . S
H2645 C2642 0.931 . S
S2646 N2647 1.613 . S
S2646 N2648 1.610 . S
N2647 S2646 1.613 . S
N2647 C2650 1.348 1_455 S
N2648 S2646 1.610 . S
N2648 C2649 1.351 . S
C2649 C2643 1.428 . S
C2649 N2648 1.351 . S
C2649 C2650 1.412 1_455 S
C2650 C2641 1.450 . S
C2650 N2647 1.348 1_655 S
C2650 C2649 1.412 1_655 S
C2651 C2652 1.369 1_655 S
C2651 C2653 1.419 . S
C2651 H2655 0.930 . S
C2652 C2651 1.369 1_455 S
C2652 C2661 1.429 . S
C2653 C2651 1.419 . S
C2653 C2654 1.363 . S
C2653 H2656 0.929 . S
C2654 C2653 1.363 . S
C2654 C2660 1.428 1_655 S
H2655 C2651 0.930 . S
H2656 C2653 0.929 . S
S2657 N2658 1.613 . S
S2657 N2659 1.610 . S
N2658 S2657 1.613 . S
N2658 C2661 1.350 . S
N2659 S2657 1.610 . S
N2659 C2660 1.351 . S
C2660 C2654 1.428 1_455 S
C2660 N2659 1.351 . S
C2660 C2661 1.434 . S
C2661 C2652 1.429 . S
C2661 N2658 1.350 . S
C2661 C2660 1.434 . S
C2662 C2663 1.369 . S
C2662 C2664 1.419 . S
C2662 H2666 0.930 . S
C2663 C2662 1.369 . S
C2663 C2672 1.429 . S
C2664 C2662 1.419 . S
C2664 C2665 1.363 . S
C2664 H2667 0.929 . S
C2665 C2664 1.363 . S
C2665 C2671 1.428 . S
H2666 C2662 0.930 . S
H2667 C2664 0.929 . S
S2668 N2669 1.613 . S
S2668 N2670 1.610 . S
N2669 S2668 1.613 . S
N2669 C2672 1.350 . S
N2670 S2668 1.610 . S
N2670 C2671 1.351 . S
C2671 C2665 1.428 . S
C2671 N2670 1.351 . S
C2671 C2672 1.434 . S
C2672 C2663 1.429 . S
C2672 N2669 1.350 . S
C2672 C2671 1.434 . S
C2673 C2674 1.369 . S
C2673 C2675 1.419 . S
C2673 H2677 0.930 . S
C2674 C2673 1.369 . S
C2674 C2683 1.429 . S
C2675 C2673 1.419 . S
C2675 C2676 1.363 . S
C2675 H2678 0.929 . S
C2676 C2675 1.363 . S
C2676 C2682 1.428 . S
H2677 C2673 0.930 . S
H2678 C2675 0.929 . S
S2679 N2680 1.613 . S
S2679 N2681 1.610 . S
N2680 S2679 1.613 . S
N2680 C2683 1.350 . S
N2681 S2679 1.610 . S
N2681 C2682 1.351 . S
C2682 C2676 1.428 . S
C2682 N2681 1.351 . S
C2682 C2683 1.434 . S
C2683 C2674 1.429 . S
C2683 N2680 1.350 . S
C2683 C2682 1.434 . S
C2684 C2685 1.369 . S
C2684 C2686 1.419 1_655 S
C2684 H2688 0.930 . S
C2685 C2684 1.369 . S
C2685 C2694 1.429 . S
C2686 C2684 1.419 1_455 S
C2686 C2687 1.363 . S
C2686 H2689 0.929 . S
C2687 C2686 1.363 . S
C2687 C2693 1.428 . S
H2688 C2684 0.930 . S
H2689 C2686 0.929 . S
S2690 N2691 1.613 1_455 S
S2690 N2692 1.610 . S
N2691 S2690 1.613 1_655 S
N2691 C2694 1.350 . S
N2692 S2690 1.610 . S
N2692 C2693 1.351 . S
C2693 C2687 1.428 . S
C2693 N2692 1.351 . S
C2693 C2694 1.434 1_455 S
C2694 C2685 1.429 . S
C2694 N2691 1.350 . S
C2694 C2693 1.434 1_655 S
C2695 C2696 1.369 . S
C2695 C2697 1.419 . S
C2695 H2699 0.930 . S
C2696 C2695 1.369 . S
C2696 C2705 1.429 . S
C2697 C2695 1.419 . S
C2697 C2698 1.363 . S
C2697 H2700 0.929 . S
C2698 C2697 1.363 . S
C2698 C2704 1.428 . S
H2699 C2695 0.930 . S
H2700 C2697 0.929 . S
S2701 N2702 1.613 . S
S2701 N2703 1.610 . S
N2702 S2701 1.613 . S
N2702 C2705 1.350 . S
N2703 S2701 1.610 . S
N2703 C2704 1.351 . S
C2704 C2698 1.428 . S
C2704 N2703 1.351 . S
C2704 C2705 1.434 . S
C2705 C2696 1.429 . S
C2705 N2702 1.350 . S
C2705 C2704 1.434 . S
C2706 C2707 1.369 . S
C2706 C2708 1.419 . S
C2706 H2710 0.930 . S
C2707 C2706 1.369 . S
C2707 C2716 1.429 . S
C2708 C2706 1.419 . S
C2708 C2709 1.363 . S
C2708 H2711 0.929 . S
C2709 C2708 1.363 . S
C2709 C2715 1.428 . S
H2710 C2706 0.930 . S
H2711 C2708 0.929 . S
S2712 N2713 1.613 . S
S2712 N2714 1.610 . S
N2713 S2712 1.613 . S
N2713 C2716 1.350 . S
N2714 S2712 1.610 . S
N2714 C2715 1.351 . S
C2715 C2709 1.428 . S
C2715 N2714 1.351 . S
C2715 C2716 1.434 . S
C2716 C2707 1.429 . S
C2716 N2713 1.350 . S
C2716 C2715 1.434 . S
C2717 C2718 1.369 . S
C2717 C2719 1.419 . S
C2717 H2721 0.930 . S
C2718 C2717 1.369 . S
C2718 C2727 1.429 1_455 S
C2719 C2717 1.419 . S
C2719 C2720 1.363 1_455 S
C2719 H2722 0.929 . S
C2720 C2719 1.363 1_655 S
C2720 C2726 1.428 . S
H2721 C2717 0.930 . S
H2722 C2719 0.929 . S
S2723 N2724 1.613 . S
S2723 N2725 1.610 . S
N2724 S2723 1.613 . S
N2724 C2727 1.350 . S
N2725 S2723 1.610 . S
N2725 C2726 1.351 . S
C2726 C2720 1.428 . S
C2726 N2725 1.351 . S
C2726 C2727 1.434 . S
C2727 C2718 1.429 1_655 S
C2727 N2724 1.350 . S
C2727 C2726 1.434 . S
C2728 C2729 1.369 . S
C2728 C2730 1.423 . S
C2728 H2732 0.930 . S
C2729 C2728 1.369 . S
C2729 C2738 1.429 1_545 S
C2730 C2728 1.423 . S
C2730 C2731 1.358 1_545 S
C2730 H2733 0.930 . S
C2731 C2730 1.358 1_565 S
C2731 C2737 1.428 . S
H2732 C2728 0.930 . S
H2733 C2730 0.930 . S
S2734 N2735 1.613 . S
S2734 N2736 1.610 . S
N2735 S2734 1.613 . S
N2735 C2738 1.350 . S
N2736 S2734 1.610 . S
N2736 C2737 1.351 . S
C2737 C2731 1.428 . S
C2737 N2736 1.351 . S
C2737 C2738 1.434 . S
C2738 C2729 1.429 1_565 S
C2738 N2735 1.350 . S
C2738 C2737 1.434 . S
C2739 C2740 1.369 . S
C2739 C2741 1.419 . S
C2739 H2743 0.930 . S
C2740 C2739 1.369 . S
C2740 C2749 1.429 . S
C2741 C2739 1.419 . S
C2741 C2742 1.363 . S
C2741 H2744 0.929 . S
C2742 C2741 1.363 . S
C2742 C2748 1.428 . S
H2743 C2739 0.930 . S
H2744 C2741 0.929 . S
S2745 N2746 1.613 . S
S2745 N2747 1.610 . S
N2746 S2745 1.613 . S
N2746 C2749 1.350 . S
N2747 S2745 1.610 . S
N2747 C2748 1.351 . S
C2748 C2742 1.428 . S
C2748 N2747 1.351 . S
C2748 C2749 1.434 . S
C2749 C2740 1.429 . S
C2749 N2746 1.350 . S
C2749 C2748 1.434 . S
C2750 C2751 1.369 . S
C2750 C2752 1.397 1_565 S
C2750 H2754 0.930 . S
C2751 C2750 1.369 . S
C2751 C2760 1.430 1_565 S
C2752 C2750 1.397 1_545 S
C2752 C2753 1.386 . S
C2752 H2755 0.929 1_545 S
C2753 C2752 1.386 . S
C2753 C2759 1.428 . S
H2754 C2750 0.930 . S
H2755 C2752 0.929 1_565 S
S2756 N2757 1.613 . S
S2756 N2758 1.610 . S
N2757 S2756 1.613 . S
N2757 C2760 1.350 . S
N2758 S2756 1.610 . S
N2758 C2759 1.351 . S
C2759 C2753 1.428 . S
C2759 N2758 1.351 . S
C2759 C2760 1.433 . S
C2760 C2751 1.430 1_545 S
C2760 N2757 1.350 . S
C2760 C2759 1.433 . S
C2761 C2762 1.369 . S
C2761 C2763 1.419 1_556 S
C2761 H2765 0.930 . S
C2762 C2761 1.369 . S
C2762 C2771 1.429 . S
C2763 C2761 1.419 1_554 S
C2763 C2764 1.363 . S
C2763 H2766 0.929 . S
C2764 C2763 1.363 . S
C2764 C2770 1.428 . S
H2765 C2761 0.930 . S
H2766 C2763 0.929 . S
S2767 N2768 1.613 1_554 S
S2767 N2769 1.610 . S
N2768 S2767 1.613 1_556 S
N2768 C2771 1.350 . S
N2769 S2767 1.610 . S
N2769 C2770 1.351 . S
C2770 C2764 1.428 . S
C2770 N2769 1.351 . S
C2770 C2771 1.434 1_554 S
C2771 C2762 1.429 . S
C2771 N2768 1.350 . S
C2771 C2770 1.434 1_556 S
C2772 C2773 1.369 . S
C2772 C2774 1.419 1_556 S
C2772 H2776 0.930 . S
C2773 C2772 1.369 . S
C2773 C2782 1.429 . S
C2774 C2772 1.419 1_554 S
C2774 C2775 1.363 . S
C2774 H2777 0.929 . S
C2775 C2774 1.363 . S
C2775 C2781 1.428 . S
H2776 C2772 0.930 . S
H2777 C2774 0.929 . S
S2778 N2779 1.613 1_554 S
S2778 N2780 1.610 . S
N2779 S2778 1.613 1_556 S
N2779 C2782 1.350 . S
N2780 S2778 1.610 . S
N2780 C2781 1.351 . S
C2781 C2775 1.428 . S
C2781 N2780 1.351 . S
C2781 C2782 1.434 1_554 S
C2782 C2773 1.429 . S
C2782 N2779 1.350 . S
C2782 C2781 1.434 1_556 S
C2783 C2784 1.369 . S
C2783 C2785 1.419 1_554 S
C2783 H2787 0.930 . S
C2784 C2783 1.369 . S
C2784 C2793 1.429 . S
C2785 C2783 1.419 1_556 S
C2785 C2786 1.363 . S
C2785 H2788 0.929 . S
C2786 C2785 1.363 . S
C2786 C2792 1.428 . S
H2787 C2783 0.930 . S
H2788 C2785 0.929 . S
S2789 N2790 1.613 1_556 S
S2789 N2791 1.610 . S
N2790 S2789 1.613 1_554 S
N2790 C2793 1.350 . S
N2791 S2789 1.610 . S
N2791 C2792 1.351 . S
C2792 C2786 1.428 . S
C2792 N2791 1.351 . S
C2792 C2793 1.434 1_556 S
C2793 C2784 1.429 . S
C2793 N2790 1.350 . S
C2793 C2792 1.434 1_554 S
C2794 C2795 1.369 . S
C2794 C2796 1.419 . S
C2794 H2798 0.930 . S
C2795 C2794 1.369 . S
C2795 C2804 1.429 . S
C2796 C2794 1.419 . S
C2796 C2797 1.363 . S
C2796 H2799 0.929 . S
C2797 C2796 1.363 . S
C2797 C2803 1.428 . S
H2798 C2794 0.930 . S
H2799 C2796 0.929 . S
S2800 N2801 1.613 1_655 S
S2800 N2802 1.610 1_655 S
N2801 S2800 1.613 1_455 S
N2801 C2804 1.350 . S
N2802 S2800 1.610 1_455 S
N2802 C2803 1.351 . S
C2803 C2797 1.428 . S
C2803 N2802 1.351 . S
C2803 C2804 1.434 . S
C2804 C2795 1.429 . S
C2804 N2801 1.350 . S
C2804 C2803 1.434 . S
C2805 C2806 1.369 . S
C2805 C2807 1.419 . S
C2805 H2809 0.930 . S
C2806 C2805 1.369 . S
C2806 C2815 1.429 . S
C2807 C2805 1.419 . S
C2807 C2808 1.363 . S
C2807 H2810 0.929 . S
C2808 C2807 1.363 . S
C2808 C2814 1.428 . S
H2809 C2805 0.930 . S
H2810 C2807 0.929 . S
S2811 N2812 1.613 . S
S2811 N2813 1.610 . S
N2812 S2811 1.613 . S
N2812 C2815 1.350 . S
N2813 S2811 1.610 . S
N2813 C2814 1.351 . S
C2814 C2808 1.428 . S
C2814 N2813 1.351 . S
C2814 C2815 1.434 . S
C2815 C2806 1.429 . S
C2815 N2812 1.350 . S
C2815 C2814 1.434 . S
C2816 C2817 1.369 . S
C2816 C2818 1.419 . S
C2816 H2820 0.930 . S
C2817 C2816 1.369 . S
C2817 C2826 1.429 1_545 S
C2818 C2816 1.419 . S
C2818 C2819 1.363 1_545 S
C2818 H2821 0.929 . S
C2819 C2818 1.363 1_565 S
C2819 C2825 1.428 . S
H2820 C2816 0.930 . S
H2821 C2818 0.929 . S
S2822 N2823 1.613 . S
S2822 N2824 1.610 . S
N2823 S2822 1.613 . S
N2823 C2826 1.350 . S
N2824 S2822 1.610 . S
N2824 C2825 1.351 . S
C2825 C2819 1.428 . S
C2825 N2824 1.351 . S
C2825 C2826 1.434 . S
C2826 C2817 1.429 1_565 S
C2826 N2823 1.350 . S
C2826 C2825 1.434 . S
C2827 C2828 1.369 . S
C2827 C2829 1.419 . S
C2827 H2831 0.930 . S
C2828 C2827 1.369 . S
C2828 C2837 1.429 . S
C2829 C2827 1.419 . S
C2829 C2830 1.363 . S
C2829 H2832 0.929 . S
C2830 C2829 1.363 . S
C2830 C2836 1.428 . S
H2831 C2827 0.930 . S
H2832 C2829 0.929 . S
S2833 N2834 1.613 . S
S2833 N2835 1.610 . S
N2834 S2833 1.613 . S
N2834 C2837 1.350 . S
N2835 S2833 1.610 . S
N2835 C2836 1.351 . S
C2836 C2830 1.428 . S
C2836 N2835 1.351 . S
C2836 C2837 1.434 . S
C2837 C2828 1.429 . S
C2837 N2834 1.350 . S
C2837 C2836 1.434 . S
C2838 C2839 1.369 . S
C2838 C2840 1.419 . S
C2838 H2842 0.930 . S
C2839 C2838 1.369 . S
C2839 C2848 1.429 . S
C2840 C2838 1.419 . S
C2840 C2841 1.363 . S
C2840 H2843 0.929 . S
C2841 C2840 1.363 . S
C2841 C2847 1.428 . S
H2842 C2838 0.930 . S
H2843 C2840 0.929 . S
S2844 N2845 1.613 . S
S2844 N2846 1.610 . S
N2845 S2844 1.613 . S
N2845 C2848 1.350 . S
N2846 S2844 1.610 . S
N2846 C2847 1.351 . S
C2847 C2841 1.428 . S
C2847 N2846 1.351 . S
C2847 C2848 1.434 . S
C2848 C2839 1.429 . S
C2848 N2845 1.350 . S
C2848 C2847 1.434 . S
C2849 C2850 1.369 . S
C2849 C2851 1.419 . S
C2849 H2853 0.930 . S
C2850 C2849 1.369 . S
C2850 C2859 1.429 . S
C2851 C2849 1.419 . S
C2851 C2852 1.363 . S
C2851 H2854 0.929 . S
C2852 C2851 1.363 . S
C2852 C2858 1.428 . S
H2853 C2849 0.930 . S
H2854 C2851 0.929 . S
S2855 N2856 1.613 . S
S2855 N2857 1.610 . S
N2856 S2855 1.613 . S
N2856 C2859 1.350 . S
N2857 S2855 1.610 . S
N2857 C2858 1.351 . S
C2858 C2852 1.428 . S
C2858 N2857 1.351 . S
C2858 C2859 1.434 . S
C2859 C2850 1.429 . S
C2859 N2856 1.350 . S
C2859 C2858 1.434 . S
C2860 C2861 1.369 . S
C2860 C2862 1.419 . S
C2860 H2864 0.930 . S
C2861 C2860 1.369 . S
C2861 C2870 1.429 1_554 S
C2862 C2860 1.419 . S
C2862 C2863 1.363 1_554 S
C2862 H2865 0.929 . S
C2863 C2862 1.363 1_556 S
C2863 C2869 1.428 . S
H2864 C2860 0.930 . S
H2865 C2862 0.929 . S
S2866 N2867 1.613 . S
S2866 N2868 1.610 . S
N2867 S2866 1.613 . S
N2867 C2870 1.350 . S
N2868 S2866 1.610 . S
N2868 C2869 1.351 . S
C2869 C2863 1.428 . S
C2869 N2868 1.351 . S
C2869 C2870 1.434 . S
C2870 C2861 1.429 1_556 S
C2870 N2867 1.350 . S
C2870 C2869 1.434 . S
C2871 C2872 1.369 . S
C2871 C2873 1.419 . S
C2871 H2875 0.930 . S
C2872 C2871 1.369 . S
C2872 C2881 1.429 . S
C2873 C2871 1.419 . S
C2873 C2874 1.363 . S
C2873 H2876 0.929 . S
C2874 C2873 1.363 . S
C2874 C2880 1.428 . S
H2875 C2871 0.930 . S
H2876 C2873 0.929 . S
S2877 N2878 1.613 . S
S2877 N2879 1.610 . S
N2878 S2877 1.613 . S
N2878 C2881 1.350 . S
N2879 S2877 1.610 . S
N2879 C2880 1.351 . S
C2880 C2874 1.428 . S
C2880 N2879 1.351 . S
C2880 C2881 1.434 . S
C2881 C2872 1.429 . S
C2881 N2878 1.350 . S
C2881 C2880 1.434 . S
C2882 C2883 1.369 . S
C2882 C2884 1.419 . S
C2882 H2886 0.930 . S
C2883 C2882 1.369 . S
C2883 C2892 1.429 . S
C2884 C2882 1.419 . S
C2884 C2885 1.363 . S
C2884 H2887 0.929 . S
C2885 C2884 1.363 . S
C2885 C2891 1.428 . S
H2886 C2882 0.930 . S
H2887 C2884 0.929 . S
S2888 N2889 1.613 . S
S2888 N2890 1.610 . S
N2889 S2888 1.613 . S
N2889 C2892 1.350 . S
N2890 S2888 1.610 . S
N2890 C2891 1.351 . S
C2891 C2885 1.428 . S
C2891 N2890 1.351 . S
C2891 C2892 1.434 . S
C2892 C2883 1.429 . S
C2892 N2889 1.350 . S
C2892 C2891 1.434 . S
C2893 C2894 1.369 1_545 S
C2893 C2895 1.419 . S
C2893 H2897 0.930 . S
C2894 C2893 1.369 1_565 S
C2894 C2903 1.429 . S
C2895 C2893 1.419 . S
C2895 C2896 1.363 . S
C2895 H2898 0.929 . S
C2896 C2895 1.363 . S
C2896 C2902 1.428 1_545 S
H2897 C2893 0.930 . S
H2898 C2895 0.929 . S
S2899 N2900 1.613 . S
S2899 N2901 1.610 . S
N2900 S2899 1.613 . S
N2900 C2903 1.350 . S
N2901 S2899 1.610 . S
N2901 C2902 1.351 . S
C2902 C2896 1.428 1_565 S
C2902 N2901 1.351 . S
C2902 C2903 1.434 . S
C2903 C2894 1.429 . S
C2903 N2900 1.350 . S
C2903 C2902 1.434 . S
C1585 C8 2.133 . S
C1587 C668 2.111 1_455 S
C1596 C1361 2.133 . S
C1598 C41 2.132 . S
C1607 C1394 2.132 . S
C1609 C74 2.133 . S
C1618 C107 2.111 1_556 S
C1620 C1427 2.133 . S
C1629 C140 2.133 . S
C1631 C1559 2.111 1_455 S
C1640 C701 2.133 . S
C1642 C173 2.132 . S
C1651 C206 2.132 . S
C1653 C1526 2.131 . S
C1662 C239 2.111 1_554 S
C1664 C536 2.133 . S
C1673 C272 2.133 . S
C1675 C503 2.112 1_545 S
C1684 C305 2.112 1_565 S
C1686 C404 2.131 . S
C1695 C437 2.112 1_565 S
C1697 C338 2.133 . S
C1706 C470 2.131 . S
C1708 C371 2.113 1_545 S
C1717 C833 2.113 1_556 S
C1719 C569 2.132 . S
C1728 C602 2.112 1_655 S
C1730 C866 2.133 . S
C1739 C899 2.133 . S
C1741 C635 2.132 . S
C1750 C734 2.113 1_655 S
C1752 C998 2.131 . S
C1761 C767 2.133 . S
C1763 C932 2.131 . S
C1772 C1460 2.133 . S
C1774 C800 2.132 . S
C1783 C1493 2.131 . S
C1785 C965 2.113 1_554 S
C1794 C1031 2.132 . S
C1796 C1328 2.133 . S
C1805 C1295 2.131 . S
C1807 C1064 2.132 . S
C1816 C1196 2.133 . S
C1818 C1097 2.132 . S
C1827 C1130 2.131 . S
C1829 C1229 2.133 . S
C1838 C1163 2.131 . S
C1840 C1262 2.132 . S
C1849 N533 1.478 . S
C1851 C28 1.308 . S
C1860 N1556 1.478 . S
C1862 C61 1.315 . S
C1871 N698 1.479 . S
C1873 C94 1.311 . S
C1882 C127 1.307 1_556 S
C1884 N1523 1.479 . S
C1893 N1358 1.478 . S
C1895 C160 1.303 . S
C1904 C193 1.314 . S
C1906 N1391 1.478 . S
C1915 N1424 1.479 . S
C1917 C226 1.313 . S
C1926 C259 1.301 1_554 S
C1928 N665 1.478 . S
C1937 C292 1.303 . S
C1939 N5 1.478 . S
C1948 N38 1.478 . S
C1950 C325 1.308 1_565 S
C1959 N71 1.478 . S
C1961 C358 1.304 . S
C1970 N104 1.478 . S
C1972 C391 1.305 1_545 S
C1981 C424 1.317 . S
C1983 N137 1.479 . S
C1992 C457 1.310 1_565 S
C1994 N170 1.478 . S
C2003 C490 1.311 . S
C2005 N203 1.479 . S
C2014 C523 1.301 1_545 S
C2016 N236 1.478 . S
C2025 N269 1.478 . S
C2027 C556 1.303 . S
C2036 C589 1.317 . S
C2038 N1193 1.479 . S
C2047 C622 1.310 1_655 S
C2049 N1226 1.479 . S
C2058 N1259 1.479 . S
C2060 C655 1.304 . S
C2069 C688 1.306 1_455 S
C2071 N500 1.478 . S
C2080 C721 1.302 . S
C2082 N335 1.478 . S
C2091 N1160 1.479 . S
C2093 C754 1.311 1_655 S
C2102 C787 1.305 . S
C2104 N1094 1.479 . S
C2113 C820 1.314 . S
C2115 N1325 1.479 . S
C2124 C853 1.317 1_556 S
C2126 N764 1.479 . S
C2135 C886 1.301 . S
C2137 N1490 1.478 . S
C2146 C919 1.309 . S
C2148 N731 1.478 . S
C2157 N566 1.478 . S
C2159 C952 1.306 . S
C2168 C985 1.317 1_554 S
C2170 N599 1.478 . S
C2179 C1018 1.317 . S
C2181 N632 1.479 . S
C2190 C1051 1.311 . S
C2192 N1457 1.479 . S
C2201 N797 1.478 . S
C2203 C1084 1.311 . S
C2212 C1117 1.302 . S
C2214 N830 1.479 . S
C2223 N863 1.478 . S
C2225 C1150 1.303 . S
C2234 N896 1.478 . S
C2236 C1183 1.312 . S
C2245 N929 1.479 . S
C2247 C1216 1.313 . S
C2256 N962 1.479 . S
C2258 C1249 1.305 . S
C2267 C1282 1.301 . S
C2269 N995 1.478 . S
C2278 C1315 1.301 . S
C2280 N1028 1.478 . S
C2289 N1061 1.479 . S
C2291 C1348 1.311 . S
C2300 C1381 1.312 . S
C2302 N401 1.478 . S
C2311 C1414 1.317 . S
C2313 N434 1.479 . S
C2322 C1447 1.317 . S
C2324 N467 1.479 . S
C2333 N1292 1.479 . S
C2335 C1480 1.315 . S
C2344 N1127 1.478 . S
C2346 C1513 1.310 . S
C2355 N368 1.479 . S
C2357 C1546 1.305 . S
C2366 C1579 1.313 1_455 S
C2368 N302 1.479 . S
C2377 C314 1.439 . S
C2379 C17 1.440 . S
C2388 C347 1.447 . S
C2390 C50 1.446 . S
C2399 C83 1.443 . S
C2401 C380 1.443 . S
C2410 C116 1.449 . S
C2412 C281 1.448 . S
C2421 C149 1.449 . S
C2423 C512 1.448 . S
C2432 C413 1.449 . S
C2434 C182 1.448 . S
C2443 C446 1.441 . S
C2445 C215 1.442 . S
C2454 C248 1.443 . S
C2456 C479 1.443 . S
C2465 C545 1.447 . S
C2467 C611 1.446 . S
C2476 C1535 1.440 . S
C2478 C578 1.441 . S
C2487 C1568 1.449 . S
C2489 C644 1.448 . S
C2498 C1502 1.446 . S
C2500 C677 1.445 . S
C2509 C710 1.440 . S
C2511 C1469 1.441 . S
C2520 C1370 1.447 . S
C2522 C743 1.446 . S
C2531 C1436 1.441 . S
C2533 C776 1.442 . S
C2542 C1106 1.439 . S
C2544 C809 1.440 . S
C2553 C1139 1.449 . S
C2555 C842 1.447 . S
C2564 C875 1.448 . S
C2566 C1172 1.447 . S
C2575 C1073 1.439 . S
C2577 C908 1.441 . S
C2586 C1304 1.449 . S
C2588 C941 1.448 . S
C2597 C974 1.441 . S
C2599 C1205 1.442 . S
C2608 C1238 1.440 . S
C2610 C1007 1.441 . S
C2619 C1040 1.449 . S
C2621 C1271 1.448 . S
C2630 C1337 1.447 . S
C2632 C1403 1.446 . S
C2641 N872 1.541 . S
C2643 N14 1.538 . S
C2652 N47 1.540 . S
C2654 N905 1.539 . S
C2663 N806 1.543 . S
C2665 N80 1.537 . S
C2674 N839 1.542 . S
C2676 N113 1.538 . S
C2685 N1004 1.543 . S
C2687 N146 1.538 . S
C2696 N1037 1.537 . S
C2698 N179 1.542 . S
C2707 N938 1.543 . S
C2709 N212 1.538 . S
C2718 N245 1.537 . S
C2720 N971 1.542 . S
C2729 N278 1.543 . S
C2731 N410 1.537 . S
C2740 N311 1.541 . S
C2742 N443 1.539 . S
C2751 N344 1.542 . S
C2753 N476 1.538 . S
C2762 N377 1.541 . S
C2764 N509 1.540 . S
C2773 N1433 1.540 . S
C2775 N542 1.540 . S
C2784 N1499 1.541 . S
C2786 N575 1.539 . S
C2795 N608 1.541 . S
C2797 N740 1.539 . S
C2806 N1334 1.538 . S
C2808 N641 1.541 . S
C2817 N674 1.537 . S
C2819 N1565 1.542 . S
C2828 N707 1.540 . S
C2830 N1367 1.540 . S
C2839 N773 1.542 . S
C2841 N1466 1.538 . S
C2850 N1070 1.543 . S
C2852 N1202 1.538 . S
C2861 N1235 1.536 . S
C2863 N1103 1.542 . S
C2872 N1268 1.543 . S
C2874 N1136 1.537 . S
C2883 N1169 1.540 . S
C2885 N1301 1.540 . S
C2894 N1400 1.543 . S
C2896 N1532 1.538 . S
