# Generated by pormake.
# Topology wlj, (5)-cn, num edge types: 1
# Building blocks:
#     Node 0, Type 0, BuildingBlock: XOMCOT_clean_sbu_1, # of connection points: 5
#     Node 1, Type 0, BuildingBlock: XOMCOT_clean_sbu_1, # of connection points: 5
#     Node 2, Type 0, BuildingBlock: XOMCOT_clean_sbu_1, # of connection points: 5
#     Node 3, Type 0, BuildingBlock: XOMCOT_clean_sbu_1, # of connection points: 5
#     Node 4, Type 0, BuildingBlock: XOMCOT_clean_sbu_1, # of connection points: 5
#     Node 5, Type 0, BuildingBlock: XOMCOT_clean_sbu_1, # of connection points: 5
#     Edge 6, Type (0, 0), BuildingBlock: EZIPEK_clean_linker_0, # of connection points: 2
#     Edge 7, Type (0, 0), BuildingBlock: EZIPEK_clean_linker_0, # of connection points: 2
#     Edge 8, Type (0, 0), BuildingBlock: EZIPEK_clean_linker_0, # of connection points: 2
#     Edge 9, Type (0, 0), BuildingBlock: EZIPEK_clean_linker_0, # of connection points: 2
#     Edge 10, Type (0, 0), BuildingBlock: EZIPEK_clean_linker_0, # of connection points: 2
#     Edge 11, Type (0, 0), BuildingBlock: EZIPEK_clean_linker_0, # of connection points: 2
#     Edge 12, Type (0, 0), BuildingBlock: EZIPEK_clean_linker_0, # of connection points: 2
#     Edge 13, Type (0, 0), BuildingBlock: EZIPEK_clean_linker_0, # of connection points: 2
#     Edge 14, Type (0, 0), BuildingBlock: EZIPEK_clean_linker_0, # of connection points: 2
#     Edge 15, Type (0, 0), BuildingBlock: EZIPEK_clean_linker_0, # of connection points: 2
#     Edge 16, Type (0, 0), BuildingBlock: EZIPEK_clean_linker_0, # of connection points: 2
#     Edge 17, Type (0, 0), BuildingBlock: EZIPEK_clean_linker_0, # of connection points: 2
#     Edge 18, Type (0, 0), BuildingBlock: EZIPEK_clean_linker_0, # of connection points: 2
#     Edge 19, Type (0, 0), BuildingBlock: EZIPEK_clean_linker_0, # of connection points: 2
#     Edge 20, Type (0, 0), BuildingBlock: EZIPEK_clean_linker_0, # of connection points: 2
# Relax obj value: 0.140
# Max RMSD: 0.179
# Mean RMSD: 0.179
data_MOF--net-wlj--node1-XOMCOT_clean_sbu_1--edge1-EZIPEK_clean_linker_0
_symmetry_space_group_name_H-M    P1
_symmetry_Int_Tables_number       1
_symmetry_cell_setting            triclinic
loop_
_symmetry_equiv_pos_as_xyz
'x, y, z'
_cell_length_a     18.779132
_cell_length_b     19.008061
_cell_length_c     41.029741
_cell_angle_alpha  89.69539
_cell_angle_beta   90.156317
_cell_angle_gamma 119.09257
loop_
_atom_site_label
_atom_site_type_symbol
_atom_site_fract_x
_atom_site_fract_y
_atom_site_fract_z
_atom_type_partial_charge
C0 C 0.73693 0.25209 0.34556 0.0
C1 C 0.72364 0.18831 0.36552 0.0
N2 N 0.65058 0.12571 0.35803 0.0
N3 N 0.67261 0.2303 0.32541 0.0
C4 C 0.62023 0.15294 0.33405 0.0
H5 H 0.79053 0.31085 0.34578 0.0
Co6 Co 0.66595 0.29796 0.29269 0.0
C7 C 0.56896 0.18526 0.23752 0.0
O8 O 0.59933 0.24496 0.21651 0.0
N9 N 0.66032 0.36859 0.26 0.0
C10 C 0.68929 0.45399 0.21798 0.0
C11 C 0.7118 0.40526 0.23464 0.0
C12 C 0.60666 0.39727 0.25781 0.0
N13 N 0.62361 0.44937 0.2327 0.0
O14 O 0.57989 0.30365 0.31673 0.0
H15 H 0.76272 0.39746 0.22779 0.0
H16 H 0.5567 0.38188 0.27447 0.0
O17 O 0.58758 0.19972 0.26784 0.0
C18 C 0.61059 0.35793 0.33883 0.0
O19 O 0.68808 0.38738 0.34606 0.0
N20 N 0.75791 0.30281 0.27198 0.0
C21 C 0.90224 0.35883 0.237 0.0
C22 C 0.8364 0.2823 0.23065 0.0
C23 C 0.76398 0.25536 0.24841 0.0
C24 C 0.82525 0.3721 0.2812 0.0
C25 C 0.89785 0.40173 0.2638 0.0
H26 H 0.71263 0.19947 0.24146 0.0
H27 H 0.81994 0.40869 0.30013 0.0
H28 H 0.56101 0.11694 0.323 0.0
H29 H 0.76445 0.18773 0.38407 0.0
H30 H 0.71964 0.49127 0.19699 0.0
H31 H 0.83876 0.24684 0.21053 0.0
H32 H 0.94815 0.46044 0.26976 0.0
C33 C 0.84851 0.38053 1.01768 0.0
C34 C 0.91229 0.43721 0.03563 0.0
N35 N 0.94896 0.50533 1.01811 0.0
N36 N 0.84419 0.4115 0.98835 0.0
C37 C 0.90608 0.48901 0.9899 0.0
H38 H 0.80962 0.31996 1.02601 0.0
Co39 Co 0.77024 0.35514 0.95284 0.0
C40 C 0.88037 0.39767 0.89323 0.0
O41 O 0.82107 0.39167 0.87448 0.0
N42 N 0.69468 0.29781 0.9173 0.0
C43 C 0.60836 0.26751 0.87505 0.0
C44 C 0.65996 0.3268 0.89575 0.0
C45 C 0.66188 0.21906 0.90843 0.0
N46 N 0.60947 0.19981 0.88305 0.0
O47 O 0.76123 0.2527 0.9674 0.0
H48 H 0.67274 0.38814 0.89358 0.0
H49 H 0.67592 0.17613 0.92008 0.0
O50 O 0.86743 0.38273 0.92397 0.0
C51 C 0.70128 0.22112 0.98758 0.0
O52 O 0.66864 0.26533 0.99675 0.0
N53 N 0.76609 0.4491 0.94212 0.0
C54 C 0.69621 0.53829 0.91757 0.0
C55 C 0.77753 0.55999 0.90992 0.0
C56 C 0.81108 0.5129 0.92191 0.0
C57 C 0.69432 0.43801 0.9546 0.0
C58 C 0.6567 0.47925 0.9417 0.0
H59 H 0.87029 0.525 0.91346 0.0
H60 H 0.66053 0.38859 0.97125 0.0
H61 H 0.92072 0.53284 0.97068 0.0
H62 H 0.93212 0.42829 0.05936 0.0
H63 H 0.57341 0.2737 0.8553 0.0
H64 H 0.81191 0.60803 0.89269 0.0
H65 H 0.59459 0.46059 0.94894 0.0
C66 C 0.68876 0.42853 0.68616 0.0
C67 C 0.63732 0.44311 0.7054 0.0
N68 N 0.57534 0.43696 0.68688 0.0
N69 N 0.66058 0.41414 0.65521 0.0
C70 C 0.59027 0.41821 0.65672 0.0
H71 H 0.74435 0.43082 0.6945 0.0
Co72 Co 0.71124 0.40097 0.61709 0.0
C73 C 0.70024 0.52247 0.5734 0.0
O74 O 0.779 0.55849 0.56781 0.0
N75 N 0.76019 0.38832 0.57769 0.0
C76 C 0.77259 0.34105 0.52936 0.0
C77 C 0.71928 0.34077 0.55206 0.0
C78 C 0.83956 0.42032 0.56854 0.0
N79 N 0.84822 0.39085 0.53977 0.0
O80 O 0.81489 0.49572 0.62869 0.0
H81 H 0.65427 0.30689 0.54943 0.0
H82 H 0.89037 0.46536 0.58213 0.0
O83 O 0.66778 0.46083 0.59215 0.0
C84 C 0.85458 0.46904 0.64578 0.0
O85 O 0.81762 0.39192 0.65304 0.0
N86 N 0.61874 0.30184 0.60927 0.0
C87 C 0.52734 0.1455 0.58607 0.0
C88 C 0.49918 0.2017 0.5821 0.0
C89 C 0.54683 0.28093 0.59367 0.0
C90 C 0.6403 0.24506 0.61708 0.0
C91 C 0.59697 0.16742 0.60501 0.0
H92 H 0.52979 0.32618 0.58765 0.0
H93 H 0.69688 0.26261 0.62979 0.0
H94 H 0.55211 0.41092 0.63582 0.0
H95 H 0.64577 0.45893 0.73097 0.0
H96 H 0.7572 0.30738 0.50682 0.0
H97 H 0.44456 0.18625 0.56812 0.0
H98 H 0.62025 0.12594 0.60906 0.0
C99 C 0.29938 0.70804 0.72224 0.0
C100 C 0.24063 0.69737 0.69957 0.0
N101 N 0.17458 0.62554 0.70524 0.0
N102 N 0.27078 0.6433 0.74226 0.0
C103 C 0.19537 0.59282 0.73044 0.0
H104 H 0.35874 0.76075 0.72447 0.0
Co105 Co 0.32757 0.63516 0.77918 0.0
C106 C 0.1532 0.56656 0.80802 0.0
O107 O 0.12892 0.60634 0.78893 0.0
N108 N 0.38407 0.62793 0.81682 0.0
C109 C 0.43877 0.66061 0.86635 0.0
C110 C 0.38283 0.66208 0.84549 0.0
C111 C 0.43781 0.60054 0.82211 0.0
N112 N 0.47235 0.62003 0.85221 0.0
O113 O 0.31913 0.53613 0.76192 0.0
H114 H 0.34577 0.68974 0.85077 0.0
H115 H 0.45281 0.56853 0.80414 0.0
O116 O 0.2253 0.57563 0.80538 0.0
C117 C 0.38231 0.55966 0.74375 0.0
O118 O 0.43148 0.6376 0.74113 0.0
N119 N 0.35037 0.73899 0.79277 0.0
C120 C 0.42571 0.89492 0.81797 0.0
C121 C 0.34011 0.84889 0.81665 0.0
C122 C 0.30331 0.77018 0.80413 0.0
C123 C 0.43286 0.78665 0.79064 0.0
C124 C 0.4718 0.86319 0.80409 0.0
H125 H 0.23813 0.73481 0.80452 0.0
H126 H 0.46949 0.76249 0.78048 0.0
H127 H 0.15543 0.53379 0.7405 0.0
H128 H 0.24518 0.73974 0.68086 0.0
H129 H 0.45332 0.68718 0.89039 0.0
H130 H 0.30237 0.87236 0.82641 0.0
H131 H 0.53779 0.89686 0.80416 0.0
C132 C 0.38087 0.59143 0.39421 0.0
C133 C 0.40032 0.54291 0.37576 0.0
N134 N 0.46185 0.53836 0.39053 0.0
N135 N 0.43014 0.61828 0.42058 0.0
C136 C 0.4796 0.58508 0.41741 0.0
H137 H 0.33229 0.60478 0.38892 0.0
Co138 Co 0.41733 0.67824 0.45494 0.0
C139 C 0.4921 0.63864 0.51376 0.0
O140 O 0.44273 0.64618 0.53427 0.0
N141 N 0.40204 0.73852 0.48973 0.0
C142 C 0.34463 0.77223 0.53026 0.0
C143 C 0.33741 0.71159 0.51038 0.0
C144 C 0.44808 0.81734 0.49826 0.0
N145 N 0.41425 0.8387 0.52284 0.0
O146 O 0.51059 0.77719 0.43912 0.0
H147 H 0.28667 0.65147 0.51163 0.0
H148 H 0.50482 0.85891 0.48657 0.0
O149 O 0.48754 0.65089 0.48321 0.0
C150 C 0.49088 0.80589 0.41442 0.0
O151 O 0.41921 0.76156 0.40099 0.0
N152 N 0.31976 0.58631 0.4664 0.0
C153 C 0.15346 0.48055 0.47996 0.0
C154 C 0.21684 0.47293 0.49578 0.0
C155 C 0.29917 0.5248 0.48805 0.0
C156 C 0.26069 0.59513 0.45083 0.0
C157 C 0.17885 0.54541 0.45779 0.0
H158 H 0.34519 0.51815 0.50116 0.0
H159 H 0.27797 0.64621 0.43477 0.0
H160 H 0.52741 0.59428 0.43441 0.0
H161 H 0.37095 0.51237 0.35343 0.0
H162 H 0.30188 0.76803 0.54885 0.0
H163 H 0.2056 0.43153 0.51559 0.0
H164 H 0.13752 0.56312 0.44704 0.0
C165 C 0.46208 0.77999 0.05963 0.0
C166 C 0.51584 0.83835 0.03869 0.0
N167 N 0.53794 0.91057 0.05184 0.0
N168 N 0.45071 0.81429 0.0865 0.0
C169 C 0.49671 0.89464 0.08042 0.0
H170 H 0.42854 0.71642 0.05421 0.0
Co171 Co 0.36535 0.7556 0.11744 0.0
C172 C 0.46819 0.90221 0.15788 0.0
O173 O 0.53158 0.89258 0.15176 0.0
N174 N 0.27884 0.69806 0.14618 0.0
C175 C 0.17607 0.66803 0.18014 0.0
C176 C 0.24018 0.72908 0.16386 0.0
C177 C 0.23674 0.61783 0.15186 0.0
N178 N 0.1743 0.5985 0.17265 0.0
O179 O 0.29126 0.77455 0.09052 0.0
H180 H 0.2555 0.79174 0.16401 0.0
H181 H 0.25007 0.57447 0.14032 0.0
O182 O 0.39932 0.85474 0.1445 0.0
C183 C 0.25215 0.70963 0.07405 0.0
O184 O 0.27564 0.65499 0.07654 0.0
N185 N 0.43118 0.72457 0.14268 0.0
C186 C 0.49373 0.64165 0.17892 0.0
C187 C 0.49769 0.64367 0.14492 0.0
C188 C 0.46507 0.6844 0.12729 0.0
C189 C 0.42689 0.72269 0.17602 0.0
C190 C 0.45862 0.68238 0.19463 0.0
H191 H 0.46237 0.67846 0.10127 0.0
H192 H 0.39461 0.74863 0.18847 0.0
H193 H 0.49451 0.94093 0.0948 0.0
H194 H 0.53261 0.82877 1.01456 0.0
H195 H 0.13226 0.67362 0.19548 0.0
H196 H 0.52269 0.611 0.13203 0.0
H197 H 0.45298 0.68042 0.22093 0.0
C198 C 0.46976 0.08676 0.19736 0.0
C199 C 0.52413 0.1011 0.22386 0.0
C200 C 0.51699 0.9706 0.21244 0.0
C201 C 0.47774 0.96557 0.18208 0.0
N202 N 0.42027 0.02353 0.14488 0.0
N203 N 0.59994 0.05295 0.25653 0.0
C204 C 0.45372 0.02413 0.17456 0.0
C205 C 0.54657 0.04135 0.23179 0.0
N206 N 0.43262 0.13293 0.19426 0.0
N207 N 0.52481 0.90675 0.22343 0.0
H208 H 0.61927 0.09896 0.27333 0.0
H209 H 0.6292 0.01873 0.25942 0.0
H210 H 0.5067 0.85473 0.21005 0.0
H211 H 0.54206 0.90208 0.24716 0.0
H212 H 0.38681 0.12128 0.17732 0.0
H213 H 0.44133 0.17737 0.21113 0.0
H214 H 0.41075 0.07021 0.13663 0.0
H215 H 0.40796 0.9798 0.12729 0.0
C216 C 1.03896 0.43358 0.82772 0.0
C217 C 0.09663 0.51495 0.8343 0.0
C218 C 1.02904 0.50545 0.88671 0.0
C219 C 0.96312 0.42931 0.87758 0.0
N220 N 0.90856 0.31657 0.84098 0.0
N221 N 0.14986 0.62867 0.87026 0.0
C222 C 0.96982 0.39176 0.84867 0.0
C223 C 0.09317 0.55048 0.8641 0.0
N224 N 0.05076 0.39666 0.8014 0.0
N225 N 1.03073 0.53465 0.91708 0.0
H226 H 0.20065 0.66112 0.85547 0.0
H227 H 0.14526 0.66275 0.88906 0.0
H228 H 0.98716 0.50145 0.93435 0.0
H229 H 0.07916 0.58678 0.92642 0.0
H230 H 1.01507 0.33581 0.79615 0.0
H231 H 0.10091 0.42614 0.78595 0.0
H232 H 0.90339 0.28869 0.81869 0.0
H233 H 0.86106 0.2822 0.85707 0.0
C234 C 0.60741 0.65812 0.55144 0.0
C235 C 0.55043 0.6119 0.52674 0.0
C236 C 0.59122 0.50671 0.53297 0.0
C237 C 0.64861 0.55329 0.55736 0.0
N238 N 0.71578 0.675 0.58881 0.0
N239 N 0.4937 0.49563 0.49156 0.0
C240 C 0.65799 0.62962 0.56622 0.0
C241 C 0.54425 0.53734 0.51675 0.0
N242 N 0.61267 0.72946 0.56089 0.0
N243 N 0.5805 0.43201 0.5257 0.0
H244 H 0.45384 0.51181 0.4806 0.0
H245 H 0.49391 0.44719 0.47999 0.0
H246 H 0.61748 0.41006 0.53508 0.0
H247 H 0.5328 0.38966 0.5117 0.0
H248 H 0.64455 0.76207 0.58122 0.0
H249 H 0.58313 0.75616 0.54863 0.0
H250 H 0.73288 0.73446 0.59427 0.0
H251 H 0.74971 0.65405 0.6017 0.0
C252 C 0.6005 0.62996 0.2121 0.0
C253 C 0.52205 0.59249 0.19758 0.0
C254 C 0.50693 0.45913 0.20944 0.0
C255 C 0.58495 0.4965 0.22416 0.0
N256 N 0.69903 0.61498 0.24569 0.0
N257 N 0.39293 0.47306 0.18897 0.0
C258 C 0.62938 0.58136 0.22749 0.0
C259 C 0.47269 0.50741 0.19843 0.0
N260 N 0.64864 0.71164 0.20993 0.0
N261 N 0.46782 0.37795 0.20431 0.0
H262 H 0.36615 0.50683 0.18076 0.0
H263 H 0.35156 0.41212 0.19193 0.0
H264 H 0.49172 0.34125 0.21193 0.0
H265 H 0.41488 0.34781 0.19051 0.0
H266 H 0.70979 0.74189 0.21665 0.0
H267 H 0.62878 0.74925 0.19951 0.0
H268 H 0.73057 0.6756 0.25195 0.0
H269 H 0.72158 0.58049 0.25693 0.0
C270 C 0.45407 0.98343 0.86773 0.0
C271 C 0.4688 0.97521 0.83435 0.0
C272 C 0.58361 0.11342 0.83477 0.0
C273 C 0.56336 0.12337 0.86694 0.0
N274 N 0.46208 0.07711 0.90903 0.0
N275 N 0.53482 0.04111 0.78402 0.0
C276 C 0.49352 0.06101 0.88203 0.0
C277 C 0.52999 0.04292 0.81719 0.0
N278 N 0.40583 0.91749 0.88636 0.0
N279 N 0.65462 0.17095 0.82123 0.0
H280 H 0.49369 0.99222 0.77017 0.0
H281 H 0.57376 0.09116 0.77011 0.0
H282 H 0.6951 0.22279 0.83379 0.0
H283 H 0.6765 0.16366 0.7989 0.0
H284 H 0.3996 0.92094 0.91146 0.0
H285 H 0.37931 0.85875 0.87761 0.0
H286 H 0.40702 0.03518 0.91953 0.0
H287 H 0.48607 0.13538 0.91811 0.0
C288 C 0.93972 0.44334 0.49237 0.0
C289 C 0.92174 0.40519 0.52322 0.0
C290 C 1.03569 0.37728 0.51624 0.0
C291 C 0.06355 0.43181 0.4895 0.0
N292 N 1.00292 0.44978 0.44064 0.0
N293 N 0.94271 0.32175 0.56208 0.0
C294 C 1.00417 0.44574 0.4738 0.0
C295 C 0.96701 0.36797 0.53455 0.0
N296 N 0.89625 0.47853 0.48094 0.0
N297 N 0.06422 0.32408 0.52001 0.0
H298 H 0.88824 0.30732 0.57396 0.0
H299 H 0.978 0.30053 0.57368 0.0
H300 H 0.10067 0.31837 0.50219 0.0
H301 H 0.04264 0.27846 0.53748 0.0
H302 H 0.91179 0.51251 0.4595 0.0
H303 H 0.84958 0.47948 0.49435 0.0
H304 H 0.95635 0.45255 0.42778 0.0
H305 H 0.04346 0.44032 0.42636 0.0
C306 C 0.59449 0.5883 0.91759 0.0
C307 C 0.64843 0.57092 0.89965 0.0
C308 C 0.59713 0.60334 0.84981 0.0
C309 C 0.53132 0.60154 0.86752 0.0
N310 N 0.45588 0.56165 0.9183 0.0
N311 N 0.68245 0.54158 0.84597 0.0
C312 C 0.52661 0.58548 0.90153 0.0
C313 C 0.64514 0.57293 0.86488 0.0
N314 N 0.6072 0.6068 0.94991 0.0
N315 N 0.61663 0.63671 0.81944 0.0
H316 H 0.71141 0.51116 0.85539 0.0
H317 H 0.67546 0.53724 0.8207 0.0
H318 H 0.58921 0.66769 0.80903 0.0
H319 H 0.66751 0.64298 0.80677 0.0
H320 H 0.57065 0.62369 0.96319 0.0
H321 H 0.65915 0.61386 0.96208 0.0
H322 H 0.44992 0.54533 0.94288 0.0
H323 H 0.40099 0.5472 0.90671 0.0
C324 C 0.48394 0.05962 0.53482 0.0
C325 C 0.48922 0.06534 0.56944 0.0
C326 C 0.45607 0.9235 0.5723 0.0
C327 C 0.44281 0.91615 0.53821 0.0
N328 N 0.41795 0.97092 0.48942 0.0
N329 N 0.45821 0.99534 0.62114 0.0
C330 C 0.44926 0.98248 0.5201 0.0
C331 C 0.4683 0.99479 0.58821 0.0
N332 N 0.5152 0.12715 0.51574 0.0
N333 N 0.45938 0.86327 0.58931 0.0
H334 H 0.4632 0.04554 0.63337 0.0
H335 H 0.43639 0.94372 0.63559 0.0
H336 H 0.4538 0.81177 0.57803 0.0
H337 H 0.47596 0.86834 0.6138 0.0
H338 H 0.51911 0.12507 0.49044 0.0
H339 H 0.54454 0.18528 0.52507 0.0
H340 H 0.41486 1.01609 0.476 0.0
H341 H 0.3856 0.91354 0.47948 0.0
C342 C 0.12124 0.48412 0.21099 0.0
C343 C 0.1111 0.52024 0.18246 0.0
C344 C 0.96358 0.43233 0.18436 0.0
C345 C 0.97283 0.39954 0.21436 0.0
N346 N 0.05928 0.37671 0.25126 0.0
N347 N 1.02962 0.51519 0.13671 0.0
C348 C 0.0517 0.41939 0.22588 0.0
C349 C 1.03426 0.48885 0.16727 0.0
N350 N 0.19687 0.51517 0.22465 0.0
N351 N 0.88779 0.41441 0.17344 0.0
H352 H 0.08137 0.55717 0.1242 0.0
H353 H 0.97668 0.49055 0.12273 0.0
H354 H 0.8341 0.37211 0.18456 0.0
H355 H 0.87778 0.44437 0.15417 0.0
H356 H 0.20808 0.4979 0.24736 0.0
H357 H 0.24855 0.56118 0.21347 0.0
H358 H 0.11488 0.38402 0.25956 0.0
H359 H 1.00875 0.32874 0.26221 0.0
C360 C 0.61393 0.92055 0.38705 0.0
C361 C 0.53861 0.89212 0.40369 0.0
C362 C 0.54288 0.02207 0.39289 0.0
C363 C 0.61288 0.04681 0.37333 0.0
N364 N 0.70997 1.01662 0.34803 0.0
N365 N 0.42538 0.91258 0.41851 0.0
C366 C 0.64754 0.99544 0.36963 0.0
C367 C 0.50152 0.94209 0.40549 0.0
N368 N 0.65255 0.87543 0.38741 0.0
N369 N 0.51774 0.07639 0.40056 0.0
H370 H 0.39502 0.85739 0.43058 0.0
H371 H 0.3906 0.94144 0.41598 0.0
H372 H 0.5476 0.13575 0.39215 0.0
H373 H 0.47232 0.06502 0.41759 0.0
H374 H 0.71118 0.89584 0.37845 0.0
H375 H 0.62817 0.81942 0.39891 0.0
H376 H 0.73345 0.97907 0.34157 0.0
H377 H 0.73378 0.06962 0.33432 0.0
C378 C 0.09897 0.58846 1.01206 0.0
C379 C 1.02538 0.57528 1.02682 0.0
C380 C 0.10436 0.67685 0.06844 0.0
C381 C 0.17781 0.68801 0.05389 0.0
N382 N 0.24432 0.67723 1.00582 0.0
N383 N 0.95676 0.61835 0.06423 0.0
C384 C 0.17435 0.65211 1.02334 0.0
C385 C 1.02795 0.62398 0.05335 0.0
N386 N 0.09767 0.53537 0.98951 0.0
N387 N 0.10716 0.71263 0.09751 0.0
H388 H 0.90079 0.57961 0.05347 0.0
H389 H 0.95378 0.65608 0.08182 0.0
H390 H 0.16157 0.75564 0.10789 0.0
H391 H 0.05597 0.69833 0.11168 0.0
H392 H 0.15023 0.53749 0.98018 0.0
H393 H 0.0441 0.48448 0.98252 0.0
H394 H 0.24517 0.65771 0.98221 0.0
H395 H 0.30006 0.72404 1.01387 0.0
C396 C 0.43838 0.53138 0.69368 0.0
C397 C 0.40574 0.50567 0.72542 0.0
C398 C 0.46335 0.41364 0.72528 0.0
C399 C 0.51119 0.4538 0.69744 0.0
N400 N 0.55063 0.56015 0.65747 0.0
N401 N 0.38562 0.41859 0.77157 0.0
C402 C 0.49944 0.51422 0.68183 0.0
C403 C 0.41648 0.44458 0.7411 0.0
N404 N 0.41153 0.57352 0.67505 0.0
N405 N 0.46186 0.345 0.73619 0.0
H406 H 0.34718 0.43568 0.78311 0.0
H407 H 0.40095 0.38256 0.78592 0.0
H408 H 0.49342 0.32004 0.72436 0.0
H409 H 0.4232 0.30875 0.75462 0.0
H410 H 0.42812 0.58844 0.65072 0.0
H411 H 0.36554 0.58526 0.68299 0.0
H412 H 0.54923 0.60997 0.64746 0.0
H413 H 0.6002 0.5544 0.64963 0.0
C414 C 0.07497 0.52562 0.66723 0.0
C415 C 0.09709 0.59156 0.68825 0.0
C416 C 0.96426 0.58568 0.67825 0.0
C417 C 0.94149 0.51893 0.65709 0.0
N418 N 0.97899 0.42985 0.62902 0.0
N419 N 0.0685 0.69015 0.71217 0.0
C420 C 0.99813 0.49035 0.65095 0.0
C421 C 0.04355 0.62371 0.693 0.0
N422 N 0.12759 0.49569 0.66348 0.0
N423 N 0.90815 0.60909 0.68608 0.0
H424 H 0.12254 0.71469 0.72552 0.0
H425 H 1.03798 0.72326 0.71394 0.0
H426 H 0.85028 0.58369 0.67573 0.0
H427 H 0.91661 0.65076 0.70407 0.0
H428 H 0.11269 0.44126 0.65233 0.0
H429 H 0.18665 0.52427 0.67288 0.0
H430 H 1.02046 0.41351 0.61992 0.0
H431 H 0.92205 0.39753 0.61833 0.0
C432 C 0.49747 0.363 0.37087 0.0
C433 C 0.56806 0.40212 0.35095 0.0
C434 C 0.57287 0.53259 0.36069 0.0
C435 C 0.50016 0.49295 0.37898 0.0
N436 N 0.38888 0.37131 0.40006 0.0
N437 N 0.66674 0.52272 0.32305 0.0
C438 C 0.46114 0.40821 0.38358 0.0
C439 C 0.60425 0.48668 0.34495 0.0
N440 N 0.46748 0.28363 0.37879 0.0
N441 N 0.61198 0.61474 0.35854 0.0
H442 H 0.69107 0.4919 0.31045 0.0
H443 H 0.6908 0.58205 0.31522 0.0
H444 H 0.58817 0.64935 0.36842 0.0
H445 H 0.67027 0.64929 0.34903 0.0
H446 H 0.42147 0.25303 0.3958 0.0
H447 H 0.49213 0.24897 0.36967 0.0
H448 H 0.35195 0.30919 0.40158 0.0
H449 H 0.36387 0.40362 0.41114 0.0
C450 C 0.70824 0.10474 1.01654 0.0
C451 C 0.66251 0.13577 1.00006 0.0
C452 C 0.53465 1.01819 1.01881 0.0
C453 C 0.58019 0.98696 0.03475 0.0
N454 N 0.70817 0.99192 0.04518 0.0
N455 N 0.53211 0.11374 0.98026 0.0
C456 C 0.66645 0.02766 1.03234 0.0
C457 C 0.57561 0.08989 0.99979 0.0
N458 N 0.79102 0.15048 1.01872 0.0
N459 N 0.45169 0.97882 1.02195 0.0
H460 H 0.55958 0.16369 0.96492 0.0
H461 H 0.4694 0.08085 0.97693 0.0
H462 H 0.41933 0.92286 1.03332 0.0
H463 H 0.41475 1.00299 1.01498 0.0
H464 H 0.82705 0.13598 1.03358 0.0
H465 H 0.82396 0.20577 1.00698 0.0
H466 H 0.77007 1.01296 0.04144 0.0
H467 H 0.67923 0.93771 0.0581 0.0
loop_
_geom_bond_atom_site_label_1
_geom_bond_atom_site_label_2
_geom_bond_distance
_geom_bond_site_symmetry_2
_ccdc_geom_bond_type
C0 C1 1.351 . S
C0 N3 1.368 . S
C0 H5 0.931 . S
C1 C0 1.351 . S
C1 N2 1.373 . S
C1 H29 0.930 . S
N2 C1 1.373 . S
N2 C4 1.340 . S
N3 C0 1.368 . S
N3 C4 1.321 . S
N3 Co6 2.135 . S
C4 N2 1.340 . S
C4 N3 1.321 . S
C4 H28 0.930 . S
H5 C0 0.931 . S
Co6 N3 2.135 . S
Co6 N9 2.121 . S
Co6 O14 2.055 . S
Co6 O17 2.039 . S
Co6 N20 2.140 . S
C7 O8 1.227 . S
C7 O17 1.265 . S
O8 C7 1.227 . S
N9 Co6 2.121 . S
N9 C11 1.375 . S
N9 C12 1.313 . S
C10 C11 1.338 . S
C10 N13 1.377 . S
C10 H30 0.930 . S
C11 N9 1.375 . S
C11 C10 1.338 . S
C11 H15 0.931 . S
C12 N9 1.313 . S
C12 N13 1.344 . S
C12 H16 0.930 . S
N13 C10 1.377 . S
N13 C12 1.344 . S
O14 Co6 2.055 . S
O14 C18 1.253 . S
H15 C11 0.931 . S
H16 C12 0.930 . S
O17 Co6 2.039 . S
O17 C7 1.265 . S
C18 O14 1.253 . S
C18 O19 1.227 . S
O19 C18 1.227 . S
N20 Co6 2.140 . S
N20 C23 1.346 . S
N20 C24 1.345 . S
C21 C22 1.387 . S
C21 C25 1.391 . S
C22 C21 1.387 . S
C22 C23 1.369 . S
C22 H31 0.929 . S
C23 N20 1.346 . S
C23 C22 1.369 . S
C23 H26 0.928 . S
C24 N20 1.345 . S
C24 C25 1.371 . S
C24 H27 0.931 . S
C25 C21 1.391 . S
C25 C24 1.371 . S
C25 H32 0.930 . S
H26 C23 0.928 . S
H27 C24 0.931 . S
H28 C4 0.930 . S
H29 C1 0.930 . S
H30 C10 0.930 . S
H31 C22 0.929 . S
H32 C25 0.930 . S
C33 C34 1.351 . S
C33 N36 1.368 . S
C33 H38 0.931 . S
C34 C33 1.351 . S
C34 N35 1.373 . S
C34 H62 0.908 1_556 S
N35 C34 1.373 . S
N35 C37 1.340 . S
N36 C33 1.368 . S
N36 C37 1.321 . S
N36 Co39 2.135 . S
C37 N35 1.340 . S
C37 N36 1.321 . S
C37 H61 0.930 . S
H38 C33 0.931 . S
Co39 N36 2.135 . S
Co39 N42 2.121 . S
Co39 O47 2.055 . S
Co39 O50 2.039 . S
Co39 N53 2.140 . S
C40 O41 1.227 . S
C40 O50 1.265 . S
O41 C40 1.227 . S
N42 Co39 2.121 . S
N42 C44 1.375 . S
N42 C45 1.313 . S
C43 C44 1.338 . S
C43 N46 1.377 . S
C43 H63 0.930 . S
C44 N42 1.375 . S
C44 C43 1.338 . S
C44 H48 0.931 . S
C45 N42 1.313 . S
C45 N46 1.344 . S
C45 H49 0.930 . S
N46 C43 1.377 . S
N46 C45 1.344 . S
O47 Co39 2.055 . S
O47 C51 1.253 . S
H48 C44 0.931 . S
H49 C45 0.930 . S
O50 Co39 2.039 . S
O50 C40 1.265 . S
C51 O47 1.253 . S
C51 O52 1.227 . S
O52 C51 1.227 . S
N53 Co39 2.140 . S
N53 C56 1.346 . S
N53 C57 1.345 . S
C54 C55 1.387 . S
C54 C58 1.391 . S
C55 C54 1.387 . S
C55 C56 1.369 . S
C55 H64 0.929 . S
C56 N53 1.346 . S
C56 C55 1.369 . S
C56 H59 0.928 . S
C57 N53 1.345 . S
C57 C58 1.371 . S
C57 H60 0.931 . S
C58 C54 1.391 . S
C58 C57 1.371 . S
C58 H65 0.930 . S
H59 C56 0.928 . S
H60 C57 0.931 . S
H61 C37 0.930 . S
H62 C34 0.908 1_554 S
H63 C43 0.930 . S
H64 C55 0.929 . S
H65 C58 0.930 . S
C66 C67 1.351 . S
C66 N69 1.368 . S
C66 H71 0.931 . S
C67 C66 1.351 . S
C67 N68 1.373 . S
C67 H95 0.930 . S
N68 C67 1.373 . S
N68 C70 1.340 . S
N69 C66 1.368 . S
N69 C70 1.321 . S
N69 Co72 2.135 . S
C70 N68 1.340 . S
C70 N69 1.321 . S
C70 H94 0.930 . S
H71 C66 0.931 . S
Co72 N69 2.135 . S
Co72 N75 2.121 . S
Co72 O80 2.055 . S
Co72 O83 2.039 . S
Co72 N86 2.140 . S
C73 O74 1.227 . S
C73 O83 1.265 . S
O74 C73 1.227 . S
N75 Co72 2.121 . S
N75 C77 1.375 . S
N75 C78 1.313 . S
C76 C77 1.338 . S
C76 N79 1.377 . S
C76 H96 0.930 . S
C77 N75 1.375 . S
C77 C76 1.338 . S
C77 H81 0.931 . S
C78 N75 1.313 . S
C78 N79 1.344 . S
C78 H82 0.930 . S
N79 C76 1.377 . S
N79 C78 1.344 . S
O80 Co72 2.055 . S
O80 C84 1.253 . S
H81 C77 0.931 . S
H82 C78 0.930 . S
O83 Co72 2.039 . S
O83 C73 1.265 . S
C84 O80 1.253 . S
C84 O85 1.227 . S
O85 C84 1.227 . S
N86 Co72 2.140 . S
N86 C89 1.346 . S
N86 C90 1.345 . S
C87 C88 1.387 . S
C87 C91 1.391 . S
C88 C87 1.387 . S
C88 C89 1.369 . S
C88 H97 0.929 . S
C89 N86 1.346 . S
C89 C88 1.369 . S
C89 H92 0.928 . S
C90 N86 1.345 . S
C90 C91 1.371 . S
C90 H93 0.931 . S
C91 C87 1.391 . S
C91 C90 1.371 . S
C91 H98 0.930 . S
H92 C89 0.928 . S
H93 C90 0.931 . S
H94 C70 0.930 . S
H95 C67 0.930 . S
H96 C76 0.930 . S
H97 C88 0.929 . S
H98 C91 0.930 . S
C99 C100 1.351 . S
C99 N102 1.368 . S
C99 H104 0.931 . S
C100 C99 1.351 . S
C100 N101 1.373 . S
C100 H128 0.930 . S
N101 C100 1.373 . S
N101 C103 1.340 . S
N102 C99 1.368 . S
N102 C103 1.321 . S
N102 Co105 2.135 . S
C103 N101 1.340 . S
C103 N102 1.321 . S
C103 H127 0.930 . S
H104 C99 0.931 . S
Co105 N102 2.135 . S
Co105 N108 2.121 . S
Co105 O113 2.055 . S
Co105 O116 2.039 . S
Co105 N119 2.140 . S
C106 O107 1.227 . S
C106 O116 1.265 . S
O107 C106 1.227 . S
N108 Co105 2.121 . S
N108 C110 1.375 . S
N108 C111 1.313 . S
C109 C110 1.338 . S
C109 N112 1.377 . S
C109 H129 0.930 . S
C110 N108 1.375 . S
C110 C109 1.338 . S
C110 H114 0.931 . S
C111 N108 1.313 . S
C111 N112 1.344 . S
C111 H115 0.930 . S
N112 C109 1.377 . S
N112 C111 1.344 . S
O113 Co105 2.055 . S
O113 C117 1.253 . S
H114 C110 0.931 . S
H115 C111 0.930 . S
O116 Co105 2.039 . S
O116 C106 1.265 . S
C117 O113 1.253 . S
C117 O118 1.227 . S
O118 C117 1.227 . S
N119 Co105 2.140 . S
N119 C122 1.346 . S
N119 C123 1.345 . S
C120 C121 1.387 . S
C120 C124 1.391 . S
C121 C120 1.387 . S
C121 C122 1.369 . S
C121 H130 0.929 . S
C122 N119 1.346 . S
C122 C121 1.369 . S
C122 H125 0.928 . S
C123 N119 1.345 . S
C123 C124 1.371 . S
C123 H126 0.931 . S
C124 C120 1.391 . S
C124 C123 1.371 . S
C124 H131 0.930 . S
H125 C122 0.928 . S
H126 C123 0.931 . S
H127 C103 0.930 . S
H128 C100 0.930 . S
H129 C109 0.930 . S
H130 C121 0.929 . S
H131 C124 0.930 . S
C132 C133 1.351 . S
C132 N135 1.368 . S
C132 H137 0.931 . S
C133 C132 1.351 . S
C133 N134 1.373 . S
C133 H161 0.930 . S
N134 C133 1.373 . S
N134 C136 1.340 . S
N135 C132 1.368 . S
N135 C136 1.321 . S
N135 Co138 2.135 . S
C136 N134 1.340 . S
C136 N135 1.321 . S
C136 H160 0.930 . S
H137 C132 0.931 . S
Co138 N135 2.135 . S
Co138 N141 2.121 . S
Co138 O146 2.055 . S
Co138 O149 2.039 . S
Co138 N152 2.140 . S
C139 O140 1.227 . S
C139 O149 1.265 . S
O140 C139 1.227 . S
N141 Co138 2.121 . S
N141 C143 1.375 . S
N141 C144 1.313 . S
C142 C143 1.338 . S
C142 N145 1.377 . S
C142 H162 0.930 . S
C143 N141 1.375 . S
C143 C142 1.338 . S
C143 H147 0.931 . S
C144 N141 1.313 . S
C144 N145 1.344 . S
C144 H148 0.930 . S
N145 C142 1.377 . S
N145 C144 1.344 . S
O146 Co138 2.055 . S
O146 C150 1.253 . S
H147 C143 0.931 . S
H148 C144 0.930 . S
O149 Co138 2.039 . S
O149 C139 1.265 . S
C150 O146 1.253 . S
C150 O151 1.227 . S
O151 C150 1.227 . S
N152 Co138 2.140 . S
N152 C155 1.346 . S
N152 C156 1.345 . S
C153 C154 1.387 . S
C153 C157 1.391 . S
C154 C153 1.387 . S
C154 C155 1.369 . S
C154 H163 0.929 . S
C155 N152 1.346 . S
C155 C154 1.369 . S
C155 H158 0.928 . S
C156 N152 1.345 . S
C156 C157 1.371 . S
C156 H159 0.931 . S
C157 C153 1.391 . S
C157 C156 1.371 . S
C157 H164 0.930 . S
H158 C155 0.928 . S
H159 C156 0.931 . S
H160 C136 0.930 . S
H161 C133 0.930 . S
H162 C142 0.930 . S
H163 C154 0.929 . S
H164 C157 0.930 . S
C165 C166 1.351 . S
C165 N168 1.368 . S
C165 H170 0.931 . S
C166 C165 1.351 . S
C166 N167 1.373 . S
C166 H194 0.907 1_554 S
N167 C166 1.373 . S
N167 C169 1.340 . S
N168 C165 1.368 . S
N168 C169 1.321 . S
N168 Co171 2.135 . S
C169 N167 1.340 . S
C169 N168 1.321 . S
C169 H193 0.930 . S
H170 C165 0.931 . S
Co171 N168 2.135 . S
Co171 N174 2.121 . S
Co171 O179 2.055 . S
Co171 O182 2.039 . S
Co171 N185 2.140 . S
C172 O173 1.227 . S
C172 O182 1.265 . S
O173 C172 1.227 . S
N174 Co171 2.121 . S
N174 C176 1.375 . S
N174 C177 1.313 . S
C175 C176 1.338 . S
C175 N178 1.377 . S
C175 H195 0.930 . S
C176 N174 1.375 . S
C176 C175 1.338 . S
C176 H180 0.931 . S
C177 N174 1.313 . S
C177 N178 1.344 . S
C177 H181 0.930 . S
N178 C175 1.377 . S
N178 C177 1.344 . S
O179 Co171 2.055 . S
O179 C183 1.253 . S
H180 C176 0.931 . S
H181 C177 0.930 . S
O182 Co171 2.039 . S
O182 C172 1.265 . S
C183 O179 1.253 . S
C183 O184 1.227 . S
O184 C183 1.227 . S
N185 Co171 2.140 . S
N185 C188 1.346 . S
N185 C189 1.345 . S
C186 C187 1.387 . S
C186 C190 1.391 . S
C187 C186 1.387 . S
C187 C188 1.369 . S
C187 H196 0.929 . S
C188 N185 1.346 . S
C188 C187 1.369 . S
C188 H191 0.928 . S
C189 N185 1.345 . S
C189 C190 1.371 . S
C189 H192 0.931 . S
C190 C186 1.391 . S
C190 C189 1.371 . S
C190 H197 0.930 . S
H191 C188 0.928 . S
H192 C189 0.931 . S
H193 C169 0.930 . S
H194 C166 0.907 1_556 S
H195 C175 0.930 . S
H196 C187 0.929 . S
H197 C190 0.930 . S
C198 C199 1.363 . S
C198 C204 1.379 . S
C198 N206 1.356 . S
C199 C198 1.363 . S
C199 C205 1.363 1_545 S
C200 C201 1.363 . S
C200 C205 1.379 . S
C200 N207 1.356 . S
C201 C200 1.363 . S
C201 C204 1.363 1_565 S
N202 C204 1.356 1_565 S
N202 H214 0.984 1_565 S
N202 H215 0.985 . S
N203 C205 1.356 1_545 S
N203 H208 0.984 . S
N203 H209 0.985 1_545 S
C204 C198 1.379 . S
C204 C201 1.363 1_545 S
C204 N202 1.356 1_545 S
C205 C199 1.363 1_565 S
C205 C200 1.379 . S
C205 N203 1.356 1_565 S
N206 C198 1.356 . S
N206 H212 0.984 . S
N206 H213 0.984 . S
N207 C200 1.356 . S
N207 H210 0.984 . S
N207 H211 0.985 . S
H208 N203 0.984 . S
H209 N203 0.985 1_565 S
H210 N207 0.984 . S
H211 N207 0.985 . S
H212 N206 0.984 . S
H213 N206 0.984 . S
H214 N202 0.984 1_545 S
H215 N202 0.985 . S
C216 C217 1.363 1_655 S
C216 C222 1.379 . S
C216 N224 1.356 1_655 S
C217 C216 1.363 1_455 S
C217 C223 1.363 . S
C218 C219 1.363 1_455 S
C218 C223 1.379 . S
C218 N225 1.356 1_455 S
C219 C218 1.363 1_655 S
C219 C222 1.363 . S
N220 C222 1.356 . S
N220 H232 0.984 . S
N220 H233 0.985 . S
N221 C223 1.356 . S
N221 H226 0.984 . S
N221 H227 0.985 . S
C222 C216 1.379 . S
C222 C219 1.363 . S
C222 N220 1.356 . S
C223 C217 1.363 . S
C223 C218 1.379 . S
C223 N221 1.356 . S
N224 C216 1.356 1_455 S
N224 H230 0.984 1_455 S
N224 H231 0.984 . S
N225 C218 1.356 1_655 S
N225 H228 0.984 . S
N225 H229 0.985 1_655 S
H226 N221 0.984 . S
H227 N221 0.985 . S
H228 N225 0.984 . S
H229 N225 0.985 1_455 S
H230 N224 0.984 1_655 S
H231 N224 0.984 . S
H232 N220 0.984 . S
H233 N220 0.985 . S
C234 C235 1.363 . S
C234 C240 1.379 . S
C234 N242 1.356 . S
C235 C234 1.363 . S
C235 C241 1.363 . S
C236 C237 1.363 . S
C236 C241 1.379 . S
C236 N243 1.356 . S
C237 C236 1.363 . S
C237 C240 1.363 . S
N238 C240 1.356 . S
N238 H250 0.984 . S
N238 H251 0.985 . S
N239 C241 1.356 . S
N239 H244 0.984 . S
N239 H245 0.985 . S
C240 C234 1.379 . S
C240 C237 1.363 . S
C240 N238 1.356 . S
C241 C235 1.363 . S
C241 C236 1.379 . S
C241 N239 1.356 . S
N242 C234 1.356 . S
N242 H248 0.984 . S
N242 H249 0.984 . S
N243 C236 1.356 . S
N243 H246 0.984 . S
N243 H247 0.985 . S
H244 N239 0.984 . S
H245 N239 0.985 . S
H246 N243 0.984 . S
H247 N243 0.985 . S
H248 N242 0.984 . S
H249 N242 0.984 . S
H250 N238 0.984 . S
H251 N238 0.985 . S
C252 C253 1.363 . S
C252 C258 1.379 . S
C252 N260 1.356 . S
C253 C252 1.363 . S
C253 C259 1.363 . S
C254 C255 1.363 . S
C254 C259 1.379 . S
C254 N261 1.356 . S
C255 C254 1.363 . S
C255 C258 1.363 . S
N256 C258 1.356 . S
N256 H268 0.984 . S
N256 H269 0.985 . S
N257 C259 1.356 . S
N257 H262 0.984 . S
N257 H263 0.985 . S
C258 C252 1.379 . S
C258 C255 1.363 . S
C258 N256 1.356 . S
C259 C253 1.363 . S
C259 C254 1.379 . S
C259 N257 1.356 . S
N260 C252 1.356 . S
N260 H266 0.984 . S
N260 H267 0.984 . S
N261 C254 1.356 . S
N261 H264 0.984 . S
N261 H265 0.985 . S
H262 N257 0.984 . S
H263 N257 0.985 . S
H264 N261 0.984 . S
H265 N261 0.985 . S
H266 N260 0.984 . S
H267 N260 0.984 . S
H268 N256 0.984 . S
H269 N256 0.985 . S
C270 C271 1.363 . S
C270 C276 1.379 . S
C270 N278 1.356 . S
C271 C270 1.363 . S
C271 C277 1.363 . S
C272 C273 1.363 . S
C272 C277 1.379 . S
C272 N279 1.356 . S
C273 C272 1.363 . S
C273 C276 1.363 . S
N274 C276 1.356 . S
N274 H286 0.984 . S
N274 H287 0.985 . S
N275 C277 1.356 . S
N275 H280 0.984 . S
N275 H281 0.985 . S
C276 C270 1.379 . S
C276 C273 1.363 . S
C276 N274 1.356 . S
C277 C271 1.363 . S
C277 C272 1.379 . S
C277 N275 1.356 . S
N278 C270 1.356 . S
N278 H284 0.984 . S
N278 H285 0.984 . S
N279 C272 1.356 . S
N279 H282 0.984 1_565 S
N279 H283 0.985 . S
H280 N275 0.984 . S
H281 N275 0.985 . S
H282 N279 0.984 1_545 S
H283 N279 0.985 . S
H284 N278 0.984 . S
H285 N278 0.984 . S
H286 N274 0.984 . S
H287 N274 0.985 . S
C288 C289 1.363 . S
C288 C294 1.379 . S
C288 N296 1.356 . S
C289 C288 1.363 . S
C289 C295 1.363 . S
C290 C291 1.363 . S
C290 C295 1.379 . S
C290 N297 1.356 . S
C291 C290 1.363 . S
C291 C294 1.363 . S
N292 C294 1.356 . S
N292 H304 0.984 . S
N292 H305 0.985 . S
N293 C295 1.356 . S
N293 H298 0.984 1_455 S
N293 H299 0.985 1_455 S
C294 C288 1.379 . S
C294 C291 1.363 . S
C294 N292 1.356 . S
C295 C289 1.363 . S
C295 C290 1.379 . S
C295 N293 1.356 . S
N296 C288 1.356 . S
N296 H302 0.984 . S
N296 H303 0.984 . S
N297 C290 1.356 . S
N297 H300 0.984 . S
N297 H301 0.985 . S
H298 N293 0.984 1_655 S
H299 N293 0.985 1_655 S
H300 N297 0.984 . S
H301 N297 0.985 . S
H302 N296 0.984 . S
H303 N296 0.984 . S
H304 N292 0.984 . S
H305 N292 0.985 . S
C306 C307 1.363 . S
C306 C312 1.379 . S
C306 N314 1.356 . S
C307 C306 1.363 . S
C307 C313 1.363 . S
C308 C309 1.363 . S
C308 C313 1.379 . S
C308 N315 1.356 . S
C309 C308 1.363 . S
C309 C312 1.363 . S
N310 C312 1.356 . S
N310 H322 0.984 . S
N310 H323 0.985 . S
N311 C313 1.356 . S
N311 H316 0.984 . S
N311 H317 0.985 . S
C312 C306 1.379 . S
C312 C309 1.363 . S
C312 N310 1.356 . S
C313 C307 1.363 . S
C313 C308 1.379 . S
C313 N311 1.356 . S
N314 C306 1.356 . S
N314 H320 0.984 . S
N314 H321 0.984 . S
N315 C308 1.356 . S
N315 H318 0.984 . S
N315 H319 0.985 . S
H316 N311 0.984 . S
H317 N311 0.985 . S
H318 N315 0.984 . S
H319 N315 0.985 . S
H320 N314 0.984 . S
H321 N314 0.984 . S
H322 N310 0.984 . S
H323 N310 0.985 . S
C324 C325 1.363 . S
C324 C330 1.379 . S
C324 N332 1.356 . S
C325 C324 1.363 . S
C325 C331 1.363 . S
C326 C327 1.363 . S
C326 C331 1.379 . S
C326 N333 1.356 . S
C327 C326 1.363 . S
C327 C330 1.363 . S
N328 C330 1.356 . S
N328 H340 0.984 . S
N328 H341 0.985 . S
N329 C331 1.356 . S
N329 H334 0.984 . S
N329 H335 0.985 . S
C330 C324 1.379 . S
C330 C327 1.363 . S
C330 N328 1.356 . S
C331 C325 1.363 . S
C331 C326 1.379 . S
C331 N329 1.356 . S
N332 C324 1.356 . S
N332 H338 0.984 . S
N332 H339 0.984 . S
N333 C326 1.356 . S
N333 H336 0.984 1_545 S
N333 H337 0.985 . S
H334 N329 0.984 . S
H335 N329 0.985 . S
H336 N333 0.984 1_565 S
H337 N333 0.985 . S
H338 N332 0.984 . S
H339 N332 0.984 . S
H340 N328 0.984 . S
H341 N328 0.985 . S
C342 C343 1.363 . S
C342 C348 1.379 . S
C342 N350 1.356 1_655 S
C343 C342 1.363 . S
C343 C349 1.363 . S
C344 C345 1.363 . S
C344 C349 1.379 . S
C344 N351 1.356 . S
C345 C344 1.363 . S
C345 C348 1.363 . S
N346 C348 1.356 . S
N346 H358 0.984 . S
N346 H359 0.985 . S
N347 C349 1.356 . S
N347 H352 0.984 . S
N347 H353 0.985 . S
C348 C342 1.379 . S
C348 C345 1.363 . S
C348 N346 1.356 . S
C349 C343 1.363 . S
C349 C344 1.379 . S
C349 N347 1.356 . S
N350 C342 1.356 1_455 S
N350 H356 0.984 . S
N350 H357 0.984 . S
N351 C344 1.356 . S
N351 H354 0.984 . S
N351 H355 0.985 . S
H352 N347 0.984 . S
H353 N347 0.985 . S
H354 N351 0.984 . S
H355 N351 0.985 . S
H356 N350 0.984 . S
H357 N350 0.984 . S
H358 N346 0.984 . S
H359 N346 0.985 . S
C360 C361 1.363 . S
C360 C366 1.379 1_565 S
C360 N368 1.356 . S
C361 C360 1.363 . S
C361 C367 1.363 1_565 S
C362 C363 1.363 . S
C362 C367 1.379 . S
C362 N369 1.356 . S
C363 C362 1.363 . S
C363 C366 1.363 . S
N364 C366 1.356 . S
N364 H376 0.984 . S
N364 H377 0.985 . S
N365 C367 1.356 1_565 S
N365 H370 0.984 . S
N365 H371 0.985 1_565 S
C366 C360 1.379 1_545 S
C366 C363 1.363 . S
C366 N364 1.356 . S
C367 C361 1.363 1_545 S
C367 C362 1.379 . S
C367 N365 1.356 1_545 S
N368 C360 1.356 . S
N368 H374 0.984 . S
N368 H375 0.984 . S
N369 C362 1.356 . S
N369 H372 0.984 . S
N369 H373 0.985 . S
H370 N365 0.984 . S
H371 N365 0.985 1_545 S
H372 N369 0.984 . S
H373 N369 0.985 . S
H374 N368 0.984 . S
H375 N368 0.984 . S
H376 N364 0.984 . S
H377 N364 0.985 . S
C378 C379 1.363 1_554 S
C378 C384 1.379 1_655 S
C378 N386 1.356 1_554 S
C379 C378 1.363 1_556 S
C379 C385 1.363 . S
C380 C381 1.363 1_655 S
C380 C385 1.379 1_554 S
C380 N387 1.356 1_655 S
C381 C380 1.363 1_455 S
C381 C384 1.363 . S
N382 C384 1.356 . S
N382 H394 0.984 . S
N382 H395 0.985 . S
N383 C385 1.356 . S
N383 H388 0.984 . S
N383 H389 0.985 . S
C384 C378 1.379 1_455 S
C384 C381 1.363 . S
C384 N382 1.356 . S
C385 C379 1.363 . S
C385 C380 1.379 1_556 S
C385 N383 1.356 . S
N386 C378 1.356 1_556 S
N386 H392 0.984 1_556 S
N386 H393 0.984 . S
N387 C380 1.356 1_455 S
N387 H390 0.984 . S
N387 H391 0.985 1_455 S
H388 N383 0.984 . S
H389 N383 0.985 . S
H390 N387 0.984 . S
H391 N387 0.985 1_655 S
H392 N386 0.984 1_554 S
H393 N386 0.984 . S
H394 N382 0.984 . S
H395 N382 0.985 . S
C396 C397 1.363 . S
C396 C402 1.379 . S
C396 N404 1.356 . S
C397 C396 1.363 . S
C397 C403 1.363 . S
C398 C399 1.363 . S
C398 C403 1.379 . S
C398 N405 1.356 . S
C399 C398 1.363 . S
C399 C402 1.363 . S
N400 C402 1.356 . S
N400 H412 0.984 . S
N400 H413 0.985 . S
N401 C403 1.356 . S
N401 H406 0.984 . S
N401 H407 0.985 . S
C402 C396 1.379 . S
C402 C399 1.363 . S
C402 N400 1.356 . S
C403 C397 1.363 . S
C403 C398 1.379 . S
C403 N401 1.356 . S
N404 C396 1.356 . S
N404 H410 0.984 . S
N404 H411 0.984 . S
N405 C398 1.356 . S
N405 H408 0.984 . S
N405 H409 0.985 . S
H406 N401 0.984 . S
H407 N401 0.985 . S
H408 N405 0.984 . S
H409 N405 0.985 . S
H410 N404 0.984 . S
H411 N404 0.984 . S
H412 N400 0.984 . S
H413 N400 0.985 . S
C414 C415 1.363 . S
C414 C420 1.379 1_455 S
C414 N422 1.356 . S
C415 C414 1.363 . S
C415 C421 1.363 . S
C416 C417 1.363 1_455 S
C416 C421 1.379 . S
C416 N423 1.356 1_455 S
C417 C416 1.363 1_655 S
C417 C420 1.363 . S
N418 C420 1.356 . S
N418 H430 0.984 . S
N418 H431 0.985 . S
N419 C421 1.356 . S
N419 H424 0.984 . S
N419 H425 0.985 . S
C420 C414 1.379 1_655 S
C420 C417 1.363 . S
C420 N418 1.356 . S
C421 C415 1.363 . S
C421 C416 1.379 . S
C421 N419 1.356 . S
N422 C414 1.356 . S
N422 H428 0.984 . S
N422 H429 0.984 . S
N423 C416 1.356 1_655 S
N423 H426 0.984 . S
N423 H427 0.985 . S
H424 N419 0.984 . S
H425 N419 0.985 . S
H426 N423 0.984 . S
H427 N423 0.985 . S
H428 N422 0.984 . S
H429 N422 0.984 . S
H430 N418 0.984 . S
H431 N418 0.985 . S
C432 C433 1.363 . S
C432 C438 1.379 . S
C432 N440 1.356 . S
C433 C432 1.363 . S
C433 C439 1.363 . S
C434 C435 1.363 . S
C434 C439 1.379 . S
C434 N441 1.356 . S
C435 C434 1.363 . S
C435 C438 1.363 . S
N436 C438 1.356 . S
N436 H448 0.984 . S
N436 H449 0.985 . S
N437 C439 1.356 . S
N437 H442 0.984 . S
N437 H443 0.985 . S
C438 C432 1.379 . S
C438 C435 1.363 . S
C438 N436 1.356 . S
C439 C433 1.363 . S
C439 C434 1.379 . S
C439 N437 1.356 . S
N440 C432 1.356 . S
N440 H446 0.984 . S
N440 H447 0.984 . S
N441 C434 1.356 . S
N441 H444 0.984 . S
N441 H445 0.985 . S
H442 N437 0.984 . S
H443 N437 0.985 . S
H444 N441 0.984 . S
H445 N441 0.985 . S
H446 N440 0.984 . S
H447 N440 0.984 . S
H448 N436 0.984 . S
H449 N436 0.985 . S
C450 C451 1.363 1_554 S
C450 C456 1.379 1_545 S
C450 N458 1.356 . S
C451 C450 1.363 1_556 S
C451 C457 1.363 1_545 S
C452 C453 1.363 1_556 S
C452 C457 1.379 . S
C452 N459 1.356 . S
C453 C452 1.363 1_554 S
C453 C456 1.363 . S
N454 C456 1.356 . S
N454 H466 0.984 1_565 S
N454 H467 0.985 . S
N455 C457 1.356 . S
N455 H460 0.984 1_565 S
N455 H461 0.985 . S
C456 C450 1.379 1_565 S
C456 C453 1.363 . S
C456 N454 1.356 . S
C457 C451 1.363 1_565 S
C457 C452 1.379 . S
C457 N455 1.356 . S
N458 C450 1.356 . S
N458 H464 0.984 . S
N458 H465 0.984 1_554 S
N459 C452 1.356 . S
N459 H462 0.968 1_556 S
N459 H463 0.985 . S
H460 N455 0.984 1_545 S
H461 N455 0.985 . S
H462 N459 0.968 1_554 S
H463 N459 0.985 . S
H464 N458 0.984 . S
H465 N458 0.984 1_556 S
H466 N454 0.984 1_545 S
H467 N454 0.985 . S
C199 C7 1.619 . S
C201 C172 1.619 . S
C217 C106 1.619 . S
C219 C40 1.619 . S
C235 C139 1.619 . S
C237 C73 1.619 . S
C253 C186 1.200 . S
C255 N13 1.201 . S
C271 C120 1.200 . S
C273 N46 1.201 1_565 S
C289 N79 1.201 1_455 S
C291 C153 1.200 . S
C307 C54 1.200 . S
C309 N112 1.201 . S
C325 C87 1.200 . S
C327 N145 1.201 1_545 S
C343 N178 1.201 1_655 S
C345 C21 1.200 . S
C361 C150 1.639 . S
C363 N2 1.601 . S
C379 N35 1.601 . S
C381 C183 1.639 . S
C397 C117 1.639 . S
C399 N68 1.601 . S
C415 N101 1.601 . S
C417 C84 1.639 . S
C433 C18 1.639 . S
C435 N134 1.601 . S
C451 C51 1.639 . S
C453 N167 1.601 . S
