# Generated by pormake.
# Topology smu, (6)-cn, num edge types: 1
# Building blocks:
#     Node 0, Type 0, BuildingBlock: NUHQIS_clean_sbu_0, # of connection points: 6
#     Node 1, Type 0, BuildingBlock: NUHQIS_clean_sbu_0, # of connection points: 6
#     Node 2, Type 0, BuildingBlock: NUHQIS_clean_sbu_0, # of connection points: 6
#     Node 3, Type 0, BuildingBlock: NUHQIS_clean_sbu_0, # of connection points: 6
#     Node 4, Type 0, BuildingBlock: NUHQIS_clean_sbu_0, # of connection points: 6
#     Node 5, Type 0, BuildingBlock: NUHQIS_clean_sbu_0, # of connection points: 6
#     Edge 6, Type (0, 0), BuildingBlock: XUDNAN_clean_linker_2, # of connection points: 2
#     Edge 7, Type (0, 0), BuildingBlock: XUDNAN_clean_linker_2, # of connection points: 2
#     Edge 8, Type (0, 0), BuildingBlock: XUDNAN_clean_linker_2, # of connection points: 2
#     Edge 9, Type (0, 0), BuildingBlock: XUDNAN_clean_linker_2, # of connection points: 2
#     Edge 10, Type (0, 0), BuildingBlock: XUDNAN_clean_linker_2, # of connection points: 2
#     Edge 11, Type (0, 0), BuildingBlock: XUDNAN_clean_linker_2, # of connection points: 2
#     Edge 12, Type (0, 0), BuildingBlock: XUDNAN_clean_linker_2, # of connection points: 2
#     Edge 13, Type (0, 0), BuildingBlock: XUDNAN_clean_linker_2, # of connection points: 2
#     Edge 14, Type (0, 0), BuildingBlock: XUDNAN_clean_linker_2, # of connection points: 2
#     Edge 15, Type (0, 0), BuildingBlock: XUDNAN_clean_linker_2, # of connection points: 2
#     Edge 16, Type (0, 0), BuildingBlock: XUDNAN_clean_linker_2, # of connection points: 2
#     Edge 17, Type (0, 0), BuildingBlock: XUDNAN_clean_linker_2, # of connection points: 2
#     Edge 18, Type (0, 0), BuildingBlock: XUDNAN_clean_linker_2, # of connection points: 2
#     Edge 19, Type (0, 0), BuildingBlock: XUDNAN_clean_linker_2, # of connection points: 2
#     Edge 20, Type (0, 0), BuildingBlock: XUDNAN_clean_linker_2, # of connection points: 2
#     Edge 21, Type (0, 0), BuildingBlock: XUDNAN_clean_linker_2, # of connection points: 2
#     Edge 22, Type (0, 0), BuildingBlock: XUDNAN_clean_linker_2, # of connection points: 2
#     Edge 23, Type (0, 0), BuildingBlock: XUDNAN_clean_linker_2, # of connection points: 2
# Relax obj value: 0.221
# Max RMSD: 0.313
# Mean RMSD: 0.313
data_MOF--net-smu--node1-NUHQIS_clean_sbu_0--edge1-XUDNAN_clean_linker_2
_symmetry_space_group_name_H-M    P1
_symmetry_Int_Tables_number       1
_symmetry_cell_setting            triclinic
loop_
_symmetry_equiv_pos_as_xyz
'x, y, z'
_cell_length_a     39.410532
_cell_length_b     39.57107
_cell_length_c     27.419293
_cell_angle_alpha  90.442788
_cell_angle_beta   89.730284
_cell_angle_gamma 119.88405
loop_
_atom_site_label
_atom_site_type_symbol
_atom_site_fract_x
_atom_site_fract_y
_atom_site_fract_z
_atom_type_partial_charge
Tb0 Tb 0.32929 0.12906 0.27931 0.0
Eu1 Eu 0.38855 0.09293 0.28044 0.0
C2 C 0.33506 0.08703 0.37333 0.0
C3 C 0.41857 0.18325 0.27757 0.0
C4 C 0.2512 0.15986 0.27397 0.0
C5 C 0.2009 0.1715 0.30808 0.0
C6 C 0.23283 0.16589 0.31439 0.0
C7 C 0.23541 0.15687 0.2273 0.0
C8 C 0.20358 0.16278 0.22091 0.0
C9 C 0.18699 0.17175 0.26108 0.0
C10 C 0.29001 0.16362 0.28085 0.0
O11 O 0.33201 0.11438 0.20239 0.0
O12 O 0.36321 0.07787 0.20522 0.0
O13 O 0.32769 0.03904 0.28283 0.0
O14 O 0.29003 0.06805 0.26648 0.0
C15 C 0.34267 0.0906 0.18215 0.0
O16 O 0.42275 0.06808 0.24951 0.0
O17 O 0.43227 0.08844 0.32424 0.0
O18 O 0.3697 0.09376 0.35867 0.0
O19 O 0.31307 0.09529 0.34588 0.0
O20 O 0.38673 0.1748 0.30143 0.0
O21 O 0.42236 0.15555 0.25685 0.0
C22 C 0.29379 0.03718 0.27368 0.0
O23 O 0.29455 0.14634 0.31836 0.0
O24 O 0.30925 0.16227 0.24274 0.0
C25 C 0.48817 0.09645 0.28103 0.0
C26 C 0.57039 0.12955 0.26909 0.0
C27 C 0.54592 0.12376 0.22875 0.0
C28 C 0.50537 0.10731 0.23459 0.0
C29 C 0.51269 0.10378 0.32157 0.0
C30 C 0.55325 0.12018 0.31574 0.0
C31 C 0.44497 0.07632 0.28797 0.0
H32 H 0.18816 0.1772 0.33996 0.0
H33 H 0.2445 0.16841 0.35078 0.0
H34 H 0.24894 0.15221 0.19543 0.0
H35 H 0.19372 0.16276 0.18412 0.0
H36 H 0.55803 0.13145 0.19234 0.0
H37 H 0.48752 0.10255 0.20256 0.0
H38 H 0.50033 0.09589 0.35786 0.0
H39 H 0.5709 0.12398 0.34767 0.0
Tb40 Tb 0.82789 0.71034 0.27864 0.0
Eu41 Eu 0.73318 0.64794 0.27156 0.0
C42 C 0.77349 0.68977 0.37149 0.0
C43 C 0.7962 0.62101 0.27632 0.0
C44 C 0.9379 0.78634 0.27251 0.0
C45 C 0.99882 0.84156 0.30045 0.0
C46 C 0.95952 0.81439 0.30828 0.0
C47 C 0.95539 0.78787 0.22717 0.0
C48 C 0.99487 0.81498 0.21942 0.0
C49 C 1.01726 0.84095 0.25677 0.0
C50 C 0.90105 0.75177 0.28722 0.0
O51 O 0.81494 0.70801 0.19997 0.0
O52 O 0.74727 0.6775 0.19926 0.0
O53 O 0.73983 0.70788 0.28289 0.0
O54 O 0.80427 0.74696 0.25828 0.0
C55 C 0.78131 0.69747 0.17761 0.0
O56 O 0.6807 0.60848 0.23015 0.0
O57 O 0.67761 0.61129 0.30862 0.0
O58 O 0.74999 0.65591 0.35108 0.0
O59 O 0.80363 0.71682 0.34764 0.0
O60 O 0.81799 0.65334 0.30032 0.0
O61 O 0.7651 0.61586 0.25317 0.0
C62 C 0.76964 0.74185 0.26976 0.0
O63 O 0.8762 0.75694 0.31319 0.0
O64 O 0.88386 0.72259 0.25667 0.0
C65 C 0.63883 0.54976 0.27059 0.0
C66 C 0.59865 0.46728 0.27155 0.0
C67 C 0.58343 0.48752 0.24602 0.0
C68 C 0.60333 0.52832 0.24561 0.0
C69 C 0.65444 0.52982 0.29573 0.0
C70 C 0.63446 0.48903 0.29642 0.0
C71 C 0.65966 0.59275 0.26895 0.0
H72 H 1.01543 0.86117 0.32996 0.0
H73 H 0.94684 0.81356 0.34372 0.0
H74 H 0.93939 0.76664 0.19885 0.0
H75 H 1.00836 0.8145 0.1851 0.0
H76 H 0.55641 0.47187 0.22565 0.0
H77 H 0.59109 0.54317 0.22545 0.0
H78 H 0.68206 0.54577 0.31489 0.0
H79 H 0.64697 0.4746 0.3169 0.0
Tb80 Tb 0.92357 0.2103 0.28247 0.0
Eu81 Eu 0.94345 0.30121 0.27231 0.0
C82 C 0.95703 0.26812 0.37373 0.0
C83 C 0.85654 0.23043 0.27252 0.0
C84 C 0.89251 0.09873 0.29043 0.0
C85 C 0.85686 0.03693 0.33169 0.0
C86 C 0.86866 0.0763 0.32883 0.0
C87 C 0.90466 0.08127 0.25484 0.0
C88 C 0.893 0.04169 0.25782 0.0
C89 C 0.86901 0.0191 0.29648 0.0
C90 C 0.90399 0.14004 0.28752 0.0
O91 O 0.94302 0.22566 0.2068 0.0
O92 O 0.93809 0.28067 0.19517 0.0
O93 O 0.9984 0.29719 0.25264 0.0
O94 O 0.98485 0.24392 0.29858 0.0
C95 C 0.94472 0.25337 0.17886 0.0
O96 O 0.94402 0.34772 0.22954 0.0
O97 O 0.96689 0.35988 0.30292 0.0
O98 O 0.96458 0.29773 0.34577 0.0
O99 O 0.9348 0.23167 0.35882 0.0
O100 O 0.87202 0.21029 0.25527 0.0
O101 O 0.8789 0.26499 0.2919 0.0
C102 C 1.00918 0.27354 0.27242 0.0
O103 O 0.88597 0.15504 0.31188 0.0
O104 O 0.93323 0.16471 0.26076 0.0
C105 C 0.93902 0.39659 0.27271 0.0
C106 C 0.89992 0.43989 0.28052 0.0
C107 C 0.93524 0.45461 0.2544 0.0
C108 C 0.95456 0.43314 0.2506 0.0
C109 C 0.90428 0.38199 0.29973 0.0
C110 C 0.885 0.40354 0.3038 0.0
C111 C 0.95832 0.3734 0.26458 0.0
H112 H 0.83748 0.02037 0.36121 0.0
H113 H 0.85887 0.0891 0.35665 0.0
H114 H 0.9229 0.09809 0.22459 0.0
H115 H 0.90297 0.02896 0.23014 0.0
H116 H 0.94734 0.48212 0.23543 0.0
H117 H 0.98124 0.44471 0.22932 0.0
H118 H 0.89178 0.35372 0.31697 0.0
H119 H 0.8582 0.39153 0.32485 0.0
Tb120 Tb 0.13197 0.31629 0.78244 0.0
Eu121 Eu 0.10113 0.37904 0.77063 0.0
C122 C 0.10696 0.33245 0.67904 0.0
C123 C 0.19086 0.40463 0.78259 0.0
C124 C 0.16099 0.23709 0.78128 0.0
C125 C 0.18591 0.2053 0.72755 0.0
C126 C 0.17783 0.23533 0.73679 0.0
C127 C 0.14972 0.20663 0.81474 0.0
C128 C 0.15729 0.17621 0.80522 0.0
C129 C 0.17699 0.17598 0.76234 0.0
C130 C 0.16133 0.27312 0.79681 0.0
O131 O 0.11746 0.32889 0.85686 0.0
O132 O 0.07223 0.3462 0.83603 0.0
O133 O 0.04565 0.31804 0.77021 0.0
O134 O 0.07218 0.27721 0.76387 0.0
C135 C 0.08676 0.33275 0.86778 0.0
O136 O 0.09142 0.42196 0.80844 0.0
O137 O 0.083 0.41511 0.73022 0.0
O138 O 0.11473 0.3669 0.69522 0.0
O139 O 0.1084 0.30651 0.70767 0.0
O140 O 0.18239 0.37156 0.76208 0.0
O141 O 0.16279 0.40973 0.80008 0.0
C142 C 0.04225 0.28295 0.76582 0.0
O143 O 0.17561 0.30237 0.76668 0.0
O144 O 0.13116 0.26985 0.82063 0.0
C145 C 0.10611 0.47914 0.76497 0.0
C146 C 0.14433 0.56177 0.75894 0.0
C147 C 0.13226 0.54301 0.80427 0.0
C148 C 0.11328 0.50226 0.8072 0.0
C149 C 0.11799 0.4978 0.7197 0.0
C150 C 0.13673 0.53849 0.71672 0.0
C151 C 0.08515 0.43588 0.76874 0.0
H152 H 0.20142 0.20671 0.69429 0.0
H153 H 0.18697 0.25836 0.71019 0.0
H154 H 0.13679 0.20731 0.84943 0.0
H155 H 0.1489 0.15371 0.83238 0.0
H156 H 0.1379 0.55977 0.83765 0.0
H157 H 0.1042 0.48882 0.84271 0.0
H158 H 0.11261 0.48099 0.6864 0.0
H159 H 0.1448 0.55163 0.681 0.0
Tb160 Tb 0.21726 0.90292 0.77654 0.0
Eu161 Eu 0.3114 0.93719 0.77909 0.0
C162 C 0.27013 0.94117 0.68221 0.0
C163 C 0.24986 0.84701 0.77159 0.0
C164 C 0.10836 0.87199 0.77709 0.0
C165 C 0.04481 0.85459 0.74404 0.0
C166 C 0.08299 0.86225 0.73729 0.0
C167 C 0.09611 0.87736 0.8233 0.0
C168 C 0.05777 0.86982 0.83009 0.0
C169 C 0.03126 0.85662 0.79088 0.0
C170 C 0.14371 0.86886 0.7706 0.0
O171 O 0.23318 0.93373 0.8461 0.0
O172 O 0.29278 0.93754 0.85717 0.0
O173 O 0.30633 0.99199 0.7795 0.0
O174 O 0.2385 0.96474 0.77574 0.0
C175 C 0.26391 0.9423 0.8732 0.0
O176 O 0.36082 0.9435 0.8221 0.0
O177 O 0.36912 0.95946 0.74598 0.0
O178 O 0.30221 0.9582 0.70812 0.0
O179 O 0.2375 0.91186 0.69993 0.0
O180 O 0.22724 0.85568 0.79695 0.0
O181 O 0.28123 0.87505 0.7513 0.0
C182 C 0.27427 0.99477 0.77697 0.0
O183 O 0.16709 0.88782 0.7347 0.0
O184 O 0.16254 0.86845 0.80931 0.0
C185 C 0.40613 0.93187 0.77815 0.0
C186 C 0.4498 0.8929 0.767 0.0
C187 C 0.44435 0.90507 0.81334 0.0
C188 C 0.42304 0.92451 0.81874 0.0
C189 C 0.41107 0.91938 0.73187 0.0
C190 C 0.43278 0.90038 0.72636 0.0
C191 C 0.38428 0.95319 0.78465 0.0
H192 H 0.02518 0.84418 0.71306 0.0
H193 H 0.09176 0.85772 0.70142 0.0
H194 H 0.11526 0.88511 0.85463 0.0
H195 H 0.04833 0.87243 0.8664 0.0
H196 H 0.45622 0.89933 0.84572 0.0
H197 H 0.41975 0.93381 0.85486 0.0
H198 H 0.39852 0.92457 0.69971 0.0
H199 H 0.43673 0.89222 0.6899 0.0
Tb200 Tb 0.71836 0.82016 0.77446 0.0
Eu201 Eu 0.65906 0.72554 0.77734 0.0
C202 C 0.70422 0.76717 0.68035 0.0
C203 C 0.63007 0.78728 0.77384 0.0
C204 C 0.79746 0.92839 0.76462 0.0
C205 C 0.83233 0.99416 0.73262 0.0
C206 C 0.80015 0.95653 0.73169 0.0
C207 C 0.82924 0.93744 0.79563 0.0
C208 C 0.86159 0.97518 0.79651 0.0
C209 C 0.86252 1.00442 0.76666 0.0
C210 C 0.75872 0.89371 0.77234 0.0
O211 O 0.73133 0.80269 0.84368 0.0
O212 O 0.67379 0.74552 0.85602 0.0
O213 O 0.71948 0.73273 0.78609 0.0
O214 O 0.75757 0.79759 0.76265 0.0
C215 C 0.70803 0.77337 0.87168 0.0
O216 O 0.62124 0.67265 0.81822 0.0
O217 O 0.61987 0.67084 0.73952 0.0
O218 O 0.69138 0.7357 0.70677 0.0
O219 O 0.70691 0.7996 0.69799 0.0
O220 O 0.66157 0.80994 0.79855 0.0
O221 O 0.62671 0.75604 0.75283 0.0
C222 C 0.75337 0.76344 0.77438 0.0
O223 O 0.7398 0.87239 0.73478 0.0
O224 O 0.75354 0.8729 0.81106 0.0
C225 C 0.55951 0.63015 0.78092 0.0
C226 C 0.47647 0.5861 0.7847 0.0
C227 C 0.49886 0.59859 0.82771 0.0
C228 C 0.53971 0.62018 0.82587 0.0
C229 C 0.5372 0.61742 0.73773 0.0
C230 C 0.49613 0.59558 0.7396 0.0
C231 C 0.60312 0.65235 0.77953 0.0
H232 H 0.83186 0.01591 0.70936 0.0
H233 H 0.77591 0.95033 0.70773 0.0
H234 H 0.82806 0.91623 0.82134 0.0
H235 H 0.88482 0.98202 0.82246 0.0
H236 H 0.48476 0.5913 0.8631 0.0
H237 H 0.5558 0.62891 0.85988 0.0
H238 H 0.55145 0.62428 0.70243 0.0
H239 H 0.47977 0.58666 0.7058 0.0
H240 H 0.32983 0.98081 0.93068 0.0
H241 H 0.20733 0.94881 0.92404 0.0
H242 H 0.21496 0.98533 1.00043 0.0
H243 H 0.33604 0.97407 0.06032 0.0
H244 H 0.38441 0.01597 0.06526 0.0
H245 H 0.36971 0.9876 1.00981 0.0
H246 H 0.38652 0.04938 0.96012 0.0
H247 H 0.40153 0.07812 1.01534 0.0
H248 H 0.36472 0.07847 0.97698 0.0
H249 H 0.23638 0.02711 0.07668 0.0
H250 H 0.26887 0.06686 0.14996 0.0
H251 H 0.37678 0.07012 0.10863 0.0
C252 C 0.30442 0.98096 0.94559 0.0
C253 C 0.2678 0.96146 0.92142 0.0
C254 C 0.2356 0.96322 0.94186 0.0
C255 C 0.23968 0.98407 0.98521 0.0
C256 C 0.27624 1.00331 1.00772 0.0
C257 C 0.30802 1.00182 0.98874 0.0
C258 C 0.34414 0.02524 1.02001 0.0
C259 C 0.35946 0.99915 0.04006 0.0
C260 C 0.37611 0.05984 0.99138 0.0
C261 C 0.32749 0.0393 0.06017 0.0
C262 C 0.28844 0.02694 0.05189 0.0
C263 C 0.26699 0.03708 0.08336 0.0
C264 C 0.28581 0.06004 0.12461 0.0
C265 C 0.32553 0.07217 0.13449 0.0
C266 C 0.34652 0.06161 0.1017 0.0
H267 H 0.76638 0.76167 0.64479 0.0
H268 H 0.66208 0.76394 0.60099 0.0
H269 H 0.67023 0.7463 0.51661 0.0
H270 H 0.82098 0.80338 0.52725 0.0
H271 H 0.84414 0.77397 0.5293 0.0
H272 H 0.83174 0.78963 0.58515 0.0
H273 H 0.79217 0.71786 0.61304 0.0
H274 H 0.80384 0.70195 0.55693 0.0
H275 H 0.75345 0.68255 0.57471 0.0
H276 H 0.68245 0.71671 0.44277 0.0
H277 H 0.70578 0.69055 0.37689 0.0
H278 H 0.80837 0.71661 0.46229 0.0
C279 C 0.74606 0.75961 0.61689 0.0
C280 C 0.71374 0.7645 0.62888 0.0
C281 C 0.68722 0.76087 0.59208 0.0
C282 C 0.69155 0.75064 0.54426 0.0
C283 C 0.72307 0.74498 0.53371 0.0
C284 C 0.75067 0.75055 0.56848 0.0
C285 C 0.78167 0.74238 0.54716 0.0
C286 C 0.82203 0.77956 0.54719 0.0
C287 C 0.78282 0.70922 0.57462 0.0
C288 C 0.76625 0.72987 0.49556 0.0
C289 C 0.73205 0.73103 0.48911 0.0
C290 C 0.70973 0.71667 0.44689 0.0
C291 C 0.72296 0.70139 0.40994 0.0
C292 C 0.75893 0.70182 0.41438 0.0
C293 C 0.781 0.71643 0.45775 0.0
H294 H 1.02161 0.28852 0.14951 0.0
H295 H 0.9024 0.23197 0.09585 0.0
H296 H 0.92758 0.24453 1.01128 0.0
H297 H 0.06712 0.35992 0.06197 0.0
H298 H 0.11078 0.35649 0.05462 0.0
H299 H 0.08448 0.34289 0.11155 0.0
H300 H 0.07841 0.27499 0.10578 0.0
H301 H 0.10483 0.28822 0.04884 0.0
H302 H 0.05713 0.24524 0.05218 0.0
H303 H 0.96424 0.27458 0.93845 0.0
H304 H 1.00951 0.30501 0.87186 0.0
H305 H 0.10743 0.32704 0.96538 0.0
C306 C 1.0008 0.27659 0.11997 0.0
C307 C 0.95985 0.2575 0.12888 0.0
C308 C 0.93362 0.24569 0.08945 0.0
C309 C 0.94772 0.25272 0.04157 0.0
C310 C 0.98805 0.27071 0.03403 0.0
C311 C 1.0144 0.2815 0.07177 0.0
C312 C 0.05634 0.30027 0.05248 0.0
C313 C 0.08112 0.34239 0.07129 0.0
C314 C 0.07528 0.27569 0.06559 0.0
C315 C 0.0492 0.29937 0.99785 0.0
C316 C 1.0095 0.28319 0.98908 0.0
C317 C 0.9951 0.28522 0.94411 0.0
C318 C 1.02154 0.30305 0.90648 0.0
C319 C 0.06212 0.31619 0.91207 0.0
C320 C 0.07641 0.3149 0.95897 0.0
H321 H 0.37316 0.0819 0.45489 0.0
H322 H 0.25756 0.04018 0.39377 0.0
H323 H 0.22784 0.99805 0.46534 0.0
H324 H 0.35727 0.99393 0.50742 0.0
H325 H 0.38481 0.0164 0.56211 0.0
H326 H 0.39667 0.0438 0.50642 0.0
H327 H 0.38784 0.09711 0.5506 0.0
H328 H 0.37568 0.06968 0.60638 0.0
H329 H 0.34237 0.08374 0.58131 0.0
H330 H 0.21073 0.95748 0.54294 0.0
H331 H 0.20812 0.92561 0.62148 0.0
H332 H 0.33458 0.99558 0.6325 0.0
C333 C 0.3416 0.06418 0.45683 0.0
C334 C 0.31776 0.06461 0.41879 0.0
C335 C 0.2765 0.04088 0.42274 0.0
C336 C 0.25928 0.0166 0.46319 0.0
C337 C 0.28358 0.01666 0.49997 0.0
C338 C 0.32382 0.04028 0.49747 0.0
C339 C 0.34329 0.03554 0.54236 0.0
C340 C 0.37221 0.02158 0.52872 0.0
C341 C 0.36349 0.07378 0.57192 0.0
C342 C 0.30799 1.0043 0.56932 0.0
C343 C 0.27372 0.99394 0.54461 0.0
C344 C 0.23746 0.9654 0.56257 0.0
C345 C 0.23625 0.94716 0.60703 0.0
C346 C 0.27111 0.95747 0.63303 0.0
C347 C 0.30731 0.98652 0.61353 0.0
H348 H 0.68236 0.7077 0.92869 0.0
H349 H 0.77053 0.83024 0.92187 0.0
H350 H 0.80127 0.82334 0.99644 0.0
H351 H 0.67137 0.70125 0.05857 0.0
H352 H 0.66627 0.65346 0.06232 0.0
H353 H 0.65131 0.66769 1.00794 0.0
H354 H 0.69691 0.65219 0.95576 0.0
H355 H 0.71189 0.63765 1.00997 0.0
H356 H 0.74808 0.67477 0.97114 0.0
H357 H 0.8233 0.80282 0.07197 0.0
H358 H 0.83141 0.77111 0.14509 0.0
H359 H 0.72856 0.66258 0.10365 0.0
C360 C 0.70773 0.73325 0.9433 0.0
C361 C 0.72361 0.76967 0.91957 0.0
C362 C 0.7575 0.80208 0.93944 0.0
C363 C 0.77538 0.79843 0.98173 0.0
C364 C 0.75932 0.76206 1.00382 0.0
C365 C 0.72616 0.73006 0.9854 0.0
C366 C 0.7148 0.69425 1.01614 0.0
C367 C 0.67349 0.67824 0.03753 0.0
C368 C 0.71811 0.66286 0.98646 0.0
C369 C 0.74599 0.71133 0.05543 0.0
C370 C 0.77189 0.75033 0.0472 0.0
C371 C 0.80335 0.77219 0.07849 0.0
C372 C 0.80805 0.75385 0.11962 0.0
C373 C 0.78112 0.7142 0.12947 0.0
C374 C 0.74992 0.69278 0.09662 0.0
H375 H 0.94717 0.23041 0.46475 0.0
H376 H 0.03042 0.32798 0.3767 0.0
H377 H 0.07776 0.3501 0.44247 0.0
H378 H 0.97033 0.28265 0.57756 0.0
H379 H 0.96773 0.24434 0.61534 0.0
H380 H 0.93926 0.23235 0.56021 0.0
H381 H 0.97027 0.19235 0.52847 0.0
H382 H 0.99825 0.20341 0.58393 0.0
H383 H 1.02283 0.21461 0.5258 0.0
H384 H 0.11422 0.36746 0.51708 0.0
H385 H 0.14094 0.37673 0.60016 0.0
H386 H 0.04014 0.26789 0.64408 0.0
C387 C 0.97544 0.25621 0.4595 0.0
C388 C 0.98431 0.27794 0.41569 0.0
C389 C 1.02196 0.31134 0.41016 0.0
C390 C 0.04956 0.32415 0.44726 0.0
C391 C 0.03981 0.30324 0.49022 0.0
C392 C 1.00403 0.26982 0.49693 0.0
C393 C 1.00183 0.25427 0.54832 0.0
C394 C 0.96778 0.25337 0.57706 0.0
C395 C 0.99808 0.21374 0.54648 0.0
C396 C 0.04157 0.28483 0.56892 0.0
C397 C 0.06265 0.31261 0.53424 0.0
C398 C 0.09865 0.34545 0.54442 0.0
C399 C 0.11372 0.35046 0.59161 0.0
C400 C 0.09329 0.32251 0.62801 0.0
C401 C 0.0569 0.28895 0.61639 0.0
H402 H 0.63423 0.17849 0.32776 0.0
H403 H 0.6031 0.10886 0.19487 0.0
H404 H 0.67216 0.12853 0.18191 0.0
H405 H 0.72606 0.2578 0.28727 0.0
H406 H 0.75125 0.26373 0.34416 0.0
H407 H 0.6991 0.2446 0.34385 0.0
H408 H 0.68883 0.18339 0.38999 0.0
H409 H 0.74096 0.20233 0.39059 0.0
H410 H 0.70886 0.15474 0.36514 0.0
H411 H 0.74335 0.15389 0.18294 0.0
H412 H 0.8141 0.18461 0.19728 0.0
H413 H 0.80229 0.23908 0.32943 0.0
C414 C 0.6419 0.16731 0.29598 0.0
C415 C 0.61287 0.14251 0.26189 0.0
C416 C 0.6245 0.12867 0.22086 0.0
C417 C 0.66376 0.13939 0.21336 0.0
C418 C 0.69145 0.16391 0.24727 0.0
C419 C 0.68124 0.17769 0.28789 0.0
C420 C 0.71723 0.20328 0.31884 0.0
C421 C 0.72379 0.24483 0.3238 0.0
C422 C 0.71376 0.18484 0.36912 0.0
C423 C 0.74927 0.20257 0.28837 0.0
C424 C 0.73334 0.1791 0.24767 0.0
C425 C 0.75623 0.1725 0.21451 0.0
C426 C 0.79649 0.19015 0.22306 0.0
C427 C 0.81395 0.21464 0.2642 0.0
C428 C 0.78994 0.22112 0.29721 0.0
H429 H 0.51883 0.41603 0.27579 0.0
H430 H 0.6307 0.41962 0.26718 0.0
H431 H 0.59655 0.34791 0.26843 0.0
H432 H 0.47071 0.33439 0.35553 0.0
H433 H 0.42408 0.31382 0.32507 0.0
H434 H 0.45723 0.36561 0.32358 0.0
H435 H 0.45491 0.36383 0.22921 0.0
H436 H 0.42174 0.312 0.23053 0.0
H437 H 0.46677 0.33138 0.19649 0.0
H438 H 0.55105 0.27622 0.26855 0.0
H439 H 0.49641 0.20827 0.27057 0.0
H440 H 0.41361 0.25015 0.28003 0.0
C441 C 0.5362 0.4018 0.27372 0.0
C442 C 0.57764 0.42376 0.27169 0.0
C443 C 0.59908 0.40373 0.26966 0.0
C444 C 0.57992 0.36291 0.26994 0.0
C445 C 0.53922 0.34231 0.27202 0.0
C446 C 0.51751 0.36096 0.27386 0.0
C447 C 0.47399 0.33168 0.27583 0.0
C448 C 0.45543 0.33668 0.32282 0.0
C449 C 0.45313 0.33492 0.23031 0.0
C450 C 0.47482 0.29371 0.27574 0.0
C451 C 0.51277 0.30063 0.27288 0.0
C452 C 0.52119 0.27036 0.27093 0.0
C453 C 0.49001 0.2319 0.27198 0.0
C454 C 0.45096 0.22403 0.27578 0.0
C455 C 0.4433 0.25539 0.27774 0.0
H456 H 0.92889 0.51959 0.28676 0.0
H457 H 0.82055 0.40888 0.27456 0.0
H458 H 0.78329 0.44356 0.27373 0.0
H459 H 0.89281 0.56827 0.3642 0.0
H460 H 0.92001 0.61471 0.33427 0.0
H461 H 0.93859 0.58134 0.33447 0.0
H462 H 0.94249 0.58351 0.24025 0.0
H463 H 0.92407 0.61702 0.23978 0.0
H464 H 0.89944 0.57219 0.20531 0.0
H465 H 0.75751 0.48909 0.27133 0.0
H466 H 0.74411 0.54361 0.27023 0.0
H467 H 0.86837 0.62586 0.28486 0.0
C468 C 0.89734 0.50261 0.28375 0.0
C469 C 0.87771 0.46132 0.28123 0.0
C470 C 0.83633 0.44036 0.27765 0.0
C471 C 0.81486 0.45982 0.27669 0.0
C472 C 0.83507 0.50035 0.27916 0.0
C473 C 0.87534 0.52163 0.28263 0.0
C474 C 0.88964 0.56509 0.28434 0.0
C475 C 0.91154 0.58342 0.33218 0.0
C476 C 0.91542 0.58566 0.23977 0.0
C477 C 0.85091 0.56471 0.28205 0.0
C478 C 0.81997 0.52697 0.2785 0.0
C479 C 0.78141 0.51878 0.2743 0.0
C480 C 0.77409 0.54994 0.27359 0.0
C481 C 0.80509 0.58885 0.27775 0.0
C482 C 0.84404 0.59632 0.28227 0.0
H483 H 0.13249 0.61484 0.81324 0.0
H484 H 0.20426 0.60795 0.69704 0.0
H485 H 0.23716 0.67901 0.68756 0.0
H486 H 0.12044 0.69145 0.76369 0.0
H487 H 0.12514 0.71584 0.82116 0.0
H488 H 0.10657 0.66404 0.81958 0.0
H489 H 0.1602 0.67191 0.88013 0.0
H490 H 0.17866 0.72371 0.88232 0.0
H491 H 0.21086 0.7053 0.86621 0.0
H492 H 0.26274 0.7502 0.68973 0.0
H493 H 0.28069 0.81855 0.70473 0.0
H494 H 0.19393 0.78153 0.82036 0.0
C495 C 0.15536 0.62824 0.78607 0.0
C496 C 0.16518 0.6053 0.75533 0.0
C497 C 0.19525 0.62436 0.72019 0.0
C498 C 0.21444 0.6649 0.71473 0.0
C499 C 0.20373 0.68641 0.745 0.0
C500 C 0.17515 0.66896 0.78029 0.0
C501 C 0.16991 0.69937 0.80842 0.0
C502 C 0.12803 0.69225 0.80284 0.0
C503 C 0.18054 0.7001 0.86247 0.0
C504 C 0.19963 0.73645 0.78271 0.0
C505 C 0.21887 0.7281 0.7465 0.0
C506 C 0.24802 0.7572 0.71809 0.0
C507 C 0.25812 0.79601 0.72702 0.0
C508 C 0.23901 0.80559 0.76386 0.0
C509 C 0.20916 0.77522 0.79191 0.0
H510 H 0.51428 0.90344 0.82013 0.0
H511 H 0.438 0.83546 0.70057 0.0
H512 H 0.47726 0.80358 0.68834 0.0
H513 H 0.60434 0.91711 0.77242 0.0
H514 H 0.62202 0.90999 0.82977 0.0
H515 H 0.58874 0.92874 0.8289 0.0
H516 H 0.54083 0.87296 0.88532 0.0
H517 H 0.57424 0.85434 0.88688 0.0
H518 H 0.52428 0.82311 0.86797 0.0
H519 H 0.52353 0.77812 0.68905 0.0
H520 H 0.57339 0.75925 0.7042 0.0
H521 H 0.61895 0.84148 0.82506 0.0
C522 C 0.50541 0.88159 0.79165 0.0
C523 C 0.47306 0.87261 0.76091 0.0
C524 C 0.4631 0.84394 0.72385 0.0
C525 C 0.48507 0.8253 0.71681 0.0
C526 C 0.5167 0.83505 0.74749 0.0
C527 C 0.5267 0.8622 0.7845 0.0
C528 C 0.56132 0.86618 0.8134 0.0
C529 C 0.59617 0.90799 0.81093 0.0
C530 C 0.54945 0.85339 0.86654 0.0
C531 C 0.56965 0.83756 0.78605 0.0
C532 C 0.54332 0.81982 0.74838 0.0
C533 C 0.54424 0.79167 0.71854 0.0
C534 C 0.57258 0.78101 0.7276 0.0
C535 C 0.59989 0.7986 0.76601 0.0
C536 C 0.59849 0.82749 0.7954 0.0
H537 H 0.25605 0.41279 0.73293 0.0
H538 H 0.21965 0.46712 0.84391 0.0
H539 H 0.28807 0.51907 0.85443 0.0
H540 H 0.34761 0.43396 0.7878 0.0
H541 H 0.37427 0.44495 0.73111 0.0
H542 H 0.32236 0.41138 0.73182 0.0
H543 H 0.31244 0.45295 0.6673 0.0
H544 H 0.36432 0.48687 0.66664 0.0
H545 H 0.33047 0.50398 0.67913 0.0
H546 H 0.35915 0.56453 0.85448 0.0
H547 H 0.43062 0.60206 0.84413 0.0
H548 H 0.42345 0.52056 0.73213 0.0
C549 C 0.26255 0.43565 0.75944 0.0
C550 C 0.23234 0.43588 0.78765 0.0
C551 C 0.24208 0.4664 0.8217 0.0
C552 C 0.28093 0.49603 0.82802 0.0
C553 C 0.30988 0.49515 0.79966 0.0
C554 C 0.30138 0.46596 0.76584 0.0
C555 C 0.33846 0.47274 0.73972 0.0
C556 C 0.34611 0.43873 0.74815 0.0
C557 C 0.33628 0.47954 0.68495 0.0
C558 C 0.36901 0.50982 0.76507 0.0
C559 C 0.35159 0.52211 0.7993 0.0
C560 C 0.37322 0.55523 0.82787 0.0
C561 C 0.41388 0.57626 0.82188 0.0
C562 C 0.43284 0.56418 0.78769 0.0
C563 C 0.40987 0.5307 0.7584 0.0
H564 H 0.18065 0.22883 0.3116 0.0
H565 H 0.12741 0.14434 0.19386 0.0
H566 H 0.08352 0.17039 0.17668 0.0
H567 H 0.08989 0.21896 0.35489 0.0
H568 H 0.11138 0.26954 0.37224 0.0
H569 H 0.14058 0.24619 0.37282 0.0
H570 H 0.19084 0.29979 0.31542 0.0
H571 H 0.16123 0.32278 0.31388 0.0
H572 H 0.17461 0.30832 0.25781 0.0
H573 H 0.04527 0.20359 0.17308 0.0
H574 H 1.00567 0.2329 0.19199 0.0
H575 H 0.0803 0.29542 0.31417 0.0
C576 C 0.15952 0.21539 0.2825 0.0
C577 C 0.15799 0.18481 0.25355 0.0
C578 C 0.12994 0.16841 0.2157 0.0
C579 C 0.10489 0.18302 0.20565 0.0
C580 C 0.10807 0.21383 0.234 0.0
C581 C 0.13389 0.22921 0.27241 0.0
C582 C 0.12889 0.25999 0.29971 0.0
C583 C 0.11696 0.24794 0.35306 0.0
C584 C 0.16613 0.3001 0.29651 0.0
C585 C 0.09585 0.25921 0.2708 0.0
C586 C 0.08515 0.23297 0.23244 0.0
C587 C 0.05406 0.22501 0.20211 0.0
C588 C 0.03213 0.24293 0.21247 0.0
C589 C 0.04138 0.26913 0.25225 0.0
C590 C 0.07406 0.27765 0.28158 0.0
H591 H 0.06366 0.91788 0.2797 0.0
H592 H 0.06775 0.81658 0.22625 0.0
H593 H 0.1402 0.85415 0.22799 0.0
H594 H 0.14807 0.98872 0.21146 0.0
H595 H 0.1637 0.02464 0.25957 0.0
H596 H 0.11254 0.98967 0.25225 0.0
H597 H 0.10957 0.96838 0.34223 0.0
H598 H 0.16084 1.0029 0.34953 0.0
H599 H 0.1425 0.95212 0.36252 0.0
H600 H 0.21365 0.90419 0.23733 0.0
H601 H 0.27953 0.96309 0.24775 0.0
H602 H 0.22383 0.02777 0.29857 0.0
C603 C 0.07982 0.90369 0.26812 0.0
C604 C 0.0603 0.86451 0.25268 0.0
C605 C 0.08235 0.84689 0.23749 0.0
C606 C 0.12342 0.86783 0.23882 0.0
C607 C 0.14183 0.90632 0.25525 0.0
C608 C 0.12059 0.92409 0.2691 0.0
C609 C 0.14692 0.9658 0.28453 0.0
C610 C 0.14254 0.99385 0.24989 0.0
C611 C 0.1395 0.97266 0.33787 0.0
C612 C 0.1862 0.96847 0.27845 0.0
C613 C 0.18315 0.93423 0.26118 0.0
C614 C 0.21636 0.93115 0.25102 0.0
C615 C 0.25357 0.96447 0.25736 0.0
C616 C 0.25667 0.9999 0.2736 0.0
C617 C 0.22249 1.0012 0.28558 0.0
H618 H 0.84946 0.96506 0.2216 0.0
H619 H 0.85877 0.97727 0.37952 0.0
H620 H 0.82472 0.90613 0.38747 0.0
H621 H 0.75814 0.87948 0.21165 0.0
H622 H 0.77202 0.85683 0.16433 0.0
H623 H 0.79648 0.90919 0.16924 0.0
H624 H 0.86382 0.91284 0.17561 0.0
H625 H 0.83962 0.86064 0.16888 0.0
H626 H 0.87083 0.88396 0.2207 0.0
H627 H 0.78478 0.83508 0.37969 0.0
H628 H 0.75976 0.7666 0.35668 0.0
H629 H 0.78361 0.79897 0.20469 0.0
C630 C 0.84496 0.95291 0.25786 0.0
C631 C 0.85523 0.97684 0.30007 0.0
C632 C 0.84936 0.95957 0.34671 0.0
C633 C 0.83015 0.91918 0.35168 0.0
C634 C 0.81813 0.89647 0.30962 0.0
C635 C 0.82687 0.91251 0.26357 0.0
C636 C 0.81378 0.88106 0.22461 0.0
C637 C 0.78329 0.8817 0.19045 0.0
C638 C 0.84911 0.88485 0.19577 0.0
C639 C 0.79557 0.84502 0.25627 0.0
C640 C 0.79757 0.85478 0.30506 0.0
C641 C 0.78296 0.8269 0.34163 0.0
C642 C 0.768 0.78796 0.32821 0.0
C643 C 0.76877 0.77764 0.27904 0.0
C644 C 0.78164 0.80626 0.24239 0.0
H645 H 0.20061 0.14248 0.83327 0.0
H646 H 0.18602 0.14455 0.67633 0.0
H647 H 0.21969 0.10691 0.66452 0.0
H648 H 0.29242 0.14721 0.83604 0.0
H649 H 0.27978 0.11167 0.88358 0.0
H650 H 0.25605 0.1405 0.88097 0.0
H651 H 0.1879 0.07793 0.87823 0.0
H652 H 0.21145 0.04907 0.88257 0.0
H653 H 0.1784 0.04101 0.8329 0.0
H654 H 0.25829 0.07263 0.66893 0.0
H655 H 0.28273 0.02801 0.68981 0.0
H656 H 0.26488 0.0409 0.8432 0.0
C657 C 0.20371 0.13461 0.79632 0.0
C658 C 0.19155 0.14786 0.75565 0.0
C659 C 0.19643 0.13643 0.70812 0.0
C660 C 0.21547 0.11489 0.70095 0.0
C661 C 0.22869 0.10409 0.74167 0.0
C662 C 0.22169 0.11217 0.78848 0.0
C663 C 0.23577 0.09398 0.82603 0.0
C664 C 0.26792 0.12523 0.85857 0.0
C665 C 0.20133 0.06369 0.85671 0.0
C666 C 0.25219 0.07482 0.79285 0.0
C667 C 0.24868 0.0819 0.74435 0.0
C668 C 0.26128 0.06693 0.70675 0.0
C669 C 0.27575 0.04219 0.71893 0.0
C670 C 0.2767 0.03219 0.76806 0.0
C671 C 0.26583 0.04948 0.80555 0.0
H672 H 0.97912 0.86401 0.7325 0.0
H673 H 0.98709 0.81105 0.8669 0.0
H674 H 0.91508 0.77576 0.87387 0.0
H675 H 0.89689 0.87484 0.76716 0.0
H676 H 0.87614 0.86366 0.70676 0.0
H677 H 0.92823 0.88584 0.71457 0.0
H678 H 0.92702 0.82907 0.66488 0.0
H679 H 0.87474 0.80637 0.65818 0.0
H680 H 0.89588 0.77954 0.6846 0.0
H681 H 0.84161 0.74524 0.86501 0.0
H682 H 0.7737 0.72912 0.84578 0.0
H683 H 0.81536 0.79861 0.71466 0.0
C684 C 0.96581 0.84508 0.76349 0.0
C685 C 0.98876 0.84028 0.79907 0.0
C686 C 0.97015 0.81568 0.83951 0.0
C687 C 0.92925 0.79505 0.84344 0.0
C688 C 0.90751 0.79916 0.80649 0.0
C689 C 0.92521 0.82397 0.76764 0.0
C690 C 0.89547 0.82376 0.73303 0.0
C691 C 0.89941 0.86442 0.73026 0.0
C692 C 0.89849 0.80878 0.68217 0.0
C693 C 0.85827 0.795 0.7585 0.0
C694 C 0.86558 0.78087 0.80071 0.0
C695 C 0.83546 0.75568 0.8317 0.0
C696 C 0.79702 0.74621 0.82024 0.0
C697 C 0.78965 0.76223 0.77844 0.0
C698 C 0.82038 0.78552 0.74639 0.0
H699 H 0.99325 0.22972 0.69851 0.0
H700 H 1.01749 0.25032 0.85191 0.0
H701 H 0.97038 0.18275 0.87009 0.0
H702 H 0.89157 0.14832 0.69979 0.0
H703 H 0.9012 0.12116 0.65406 0.0
H704 H 0.9288 0.17364 0.65423 0.0
H705 H 0.994 0.17188 0.65877 0.0
H706 H 0.96606 0.11942 0.65747 0.0
H707 H 1.00013 0.14437 0.70635 0.0
H708 H 0.92781 0.11127 0.87095 0.0
H709 H 0.88856 0.04079 0.85484 0.0
H710 H 0.9001 0.06295 0.69898 0.0
C711 C 0.98646 0.22045 0.73595 0.0
C712 C 1.00519 0.24692 0.77469 0.0
C713 C 0.99886 0.23257 0.82289 0.0
C714 C 0.97345 0.19337 0.83315 0.0
C715 C 0.95607 0.16799 0.79423 0.0
C716 C 0.96245 0.18075 0.7465 0.0
C717 C 0.94563 0.14652 0.71132 0.0
C718 C 0.91495 0.14746 0.67788 0.0
C719 C 0.97837 0.14549 0.6817 0.0
C720 C 0.92734 0.11284 0.74679 0.0
C721 C 0.93438 0.12597 0.79443 0.0
C722 C 0.92181 0.10053 0.83377 0.0
C723 C 0.9 0.06047 0.82419 0.0
C724 C 0.89114 0.04622 0.77562 0.0
C725 C 0.90589 0.07291 0.7365 0.0
loop_
_geom_bond_atom_site_label_1
_geom_bond_atom_site_label_2
_geom_bond_distance
_geom_bond_site_symmetry_2
_ccdc_geom_bond_type
Tb0 C10 2.825 . S
Tb0 O11 2.347 . S
Tb0 O14 2.366 . S
Tb0 O19 2.418 . S
Tb0 O20 2.384 . S
Tb0 O23 2.479 . S
Tb0 O24 2.471 . S
Eu1 O12 2.418 . S
Eu1 O13 2.384 . S
Eu1 O16 2.479 . S
Eu1 O17 2.471 . S
Eu1 O18 2.347 . S
Eu1 O21 2.366 . S
Eu1 C31 2.825 . S
C2 O18 1.259 . S
C2 O19 1.265 . S
C3 O20 1.255 . S
C3 O21 1.265 . S
C4 C6 1.380 . S
C4 C7 1.374 . S
C4 C10 1.507 . S
C5 C6 1.384 . S
C5 C9 1.387 . S
C5 H32 0.930 . S
C6 C4 1.380 . S
C6 C5 1.384 . S
C6 H33 0.931 . S
C7 C4 1.374 . S
C7 C8 1.390 . S
C7 H34 0.930 . S
C8 C7 1.390 . S
C8 C9 1.391 . S
C8 H35 0.930 . S
C9 C5 1.387 . S
C9 C8 1.391 . S
C10 Tb0 2.825 . S
C10 C4 1.507 . S
C10 O23 1.238 . S
C10 O24 1.247 . S
O11 Tb0 2.347 . S
O11 C15 1.259 . S
O12 Eu1 2.418 . S
O12 C15 1.265 . S
O13 Eu1 2.384 . S
O13 C22 1.255 . S
O14 Tb0 2.366 . S
O14 C22 1.265 . S
C15 O11 1.259 . S
C15 O12 1.265 . S
O16 Eu1 2.479 . S
O16 C31 1.238 . S
O17 Eu1 2.471 . S
O17 C31 1.247 . S
O18 Eu1 2.347 . S
O18 C2 1.259 . S
O19 Tb0 2.418 . S
O19 C2 1.265 . S
O20 Tb0 2.384 . S
O20 C3 1.255 . S
O21 Eu1 2.366 . S
O21 C3 1.265 . S
C22 O13 1.255 . S
C22 O14 1.265 . S
O23 Tb0 2.479 . S
O23 C10 1.238 . S
O24 Tb0 2.471 . S
O24 C10 1.247 . S
C25 C28 1.380 . S
C25 C29 1.374 . S
C25 C31 1.507 . S
C26 C27 1.387 . S
C26 C30 1.391 . S
C27 C26 1.387 . S
C27 C28 1.384 . S
C27 H36 0.930 . S
C28 C25 1.380 . S
C28 C27 1.384 . S
C28 H37 0.931 . S
C29 C25 1.374 . S
C29 C30 1.390 . S
C29 H38 0.930 . S
C30 C26 1.391 . S
C30 C29 1.390 . S
C30 H39 0.930 . S
C31 Eu1 2.825 . S
C31 O16 1.238 . S
C31 O17 1.247 . S
C31 C25 1.507 . S
H32 C5 0.930 . S
H33 C6 0.931 . S
H34 C7 0.930 . S
H35 C8 0.930 . S
H36 C27 0.930 . S
H37 C28 0.931 . S
H38 C29 0.930 . S
H39 C30 0.930 . S
Tb40 C50 2.825 . S
Tb40 O51 2.347 . S
Tb40 O54 2.366 . S
Tb40 O59 2.418 . S
Tb40 O60 2.384 . S
Tb40 O63 2.479 . S
Tb40 O64 2.471 . S
Eu41 O52 2.418 . S
Eu41 O53 2.384 . S
Eu41 O56 2.479 . S
Eu41 O57 2.471 . S
Eu41 O58 2.347 . S
Eu41 O61 2.366 . S
Eu41 C71 2.825 . S
C42 O58 1.259 . S
C42 O59 1.265 . S
C43 O60 1.255 . S
C43 O61 1.265 . S
C44 C46 1.380 . S
C44 C47 1.374 . S
C44 C50 1.507 . S
C45 C46 1.384 . S
C45 C49 1.387 . S
C45 H72 0.930 1_655 S
C46 C44 1.380 . S
C46 C45 1.384 . S
C46 H73 0.931 . S
C47 C44 1.374 . S
C47 C48 1.390 . S
C47 H74 0.930 . S
C48 C47 1.390 . S
C48 C49 1.391 . S
C48 H75 0.930 . S
C49 C45 1.387 . S
C49 C48 1.391 . S
C50 Tb40 2.825 . S
C50 C44 1.507 . S
C50 O63 1.238 . S
C50 O64 1.247 . S
O51 Tb40 2.347 . S
O51 C55 1.259 . S
O52 Eu41 2.418 . S
O52 C55 1.265 . S
O53 Eu41 2.384 . S
O53 C62 1.255 . S
O54 Tb40 2.366 . S
O54 C62 1.265 . S
C55 O51 1.259 . S
C55 O52 1.265 . S
O56 Eu41 2.479 . S
O56 C71 1.238 . S
O57 Eu41 2.471 . S
O57 C71 1.247 . S
O58 Eu41 2.347 . S
O58 C42 1.259 . S
O59 Tb40 2.418 . S
O59 C42 1.265 . S
O60 Tb40 2.384 . S
O60 C43 1.255 . S
O61 Eu41 2.366 . S
O61 C43 1.265 . S
C62 O53 1.255 . S
C62 O54 1.265 . S
O63 Tb40 2.479 . S
O63 C50 1.238 . S
O64 Tb40 2.471 . S
O64 C50 1.247 . S
C65 C68 1.380 . S
C65 C69 1.374 . S
C65 C71 1.507 . S
C66 C67 1.387 . S
C66 C70 1.391 . S
C67 C66 1.387 . S
C67 C68 1.384 . S
C67 H76 0.930 . S
C68 C65 1.380 . S
C68 C67 1.384 . S
C68 H77 0.931 . S
C69 C65 1.374 . S
C69 C70 1.390 . S
C69 H78 0.930 . S
C70 C66 1.391 . S
C70 C69 1.390 . S
C70 H79 0.930 . S
C71 Eu41 2.825 . S
C71 O56 1.238 . S
C71 O57 1.247 . S
C71 C65 1.507 . S
H72 C45 0.930 1_455 S
H73 C46 0.931 . S
H74 C47 0.930 . S
H75 C48 0.930 . S
H76 C67 0.930 . S
H77 C68 0.931 . S
H78 C69 0.930 . S
H79 C70 0.930 . S
Tb80 C90 2.825 . S
Tb80 O91 2.347 . S
Tb80 O94 2.366 . S
Tb80 O99 2.418 . S
Tb80 O100 2.384 . S
Tb80 O103 2.479 . S
Tb80 O104 2.471 . S
Eu81 O92 2.418 . S
Eu81 O93 2.384 . S
Eu81 O96 2.479 . S
Eu81 O97 2.471 . S
Eu81 O98 2.347 . S
Eu81 O101 2.366 . S
Eu81 C111 2.825 . S
C82 O98 1.259 . S
C82 O99 1.265 . S
C83 O100 1.255 . S
C83 O101 1.265 . S
C84 C86 1.380 . S
C84 C87 1.374 . S
C84 C90 1.507 . S
C85 C86 1.384 . S
C85 C89 1.387 . S
C85 H112 0.930 1_545 S
C86 C84 1.380 . S
C86 C85 1.384 . S
C86 H113 0.931 . S
C87 C84 1.374 . S
C87 C88 1.390 . S
C87 H114 0.930 . S
C88 C87 1.390 . S
C88 C89 1.391 . S
C88 H115 0.930 . S
C89 C85 1.387 . S
C89 C88 1.391 . S
C90 Tb80 2.825 . S
C90 C84 1.507 . S
C90 O103 1.238 . S
C90 O104 1.247 . S
O91 Tb80 2.347 . S
O91 C95 1.259 . S
O92 Eu81 2.418 . S
O92 C95 1.265 . S
O93 Eu81 2.384 . S
O93 C102 1.255 . S
O94 Tb80 2.366 . S
O94 C102 1.265 . S
C95 O91 1.259 . S
C95 O92 1.265 . S
O96 Eu81 2.479 . S
O96 C111 1.238 . S
O97 Eu81 2.471 . S
O97 C111 1.247 . S
O98 Eu81 2.347 . S
O98 C82 1.259 . S
O99 Tb80 2.418 . S
O99 C82 1.265 . S
O100 Tb80 2.384 . S
O100 C83 1.255 . S
O101 Eu81 2.366 . S
O101 C83 1.265 . S
C102 O93 1.255 . S
C102 O94 1.265 . S
O103 Tb80 2.479 . S
O103 C90 1.238 . S
O104 Tb80 2.471 . S
O104 C90 1.247 . S
C105 C108 1.380 . S
C105 C109 1.374 . S
C105 C111 1.507 . S
C106 C107 1.387 . S
C106 C110 1.391 . S
C107 C106 1.387 . S
C107 C108 1.384 . S
C107 H116 0.930 . S
C108 C105 1.380 . S
C108 C107 1.384 . S
C108 H117 0.931 . S
C109 C105 1.374 . S
C109 C110 1.390 . S
C109 H118 0.930 . S
C110 C106 1.391 . S
C110 C109 1.390 . S
C110 H119 0.930 . S
C111 Eu81 2.825 . S
C111 O96 1.238 . S
C111 O97 1.247 . S
C111 C105 1.507 . S
H112 C85 0.930 1_565 S
H113 C86 0.931 . S
H114 C87 0.930 . S
H115 C88 0.930 . S
H116 C107 0.930 . S
H117 C108 0.931 . S
H118 C109 0.930 . S
H119 C110 0.930 . S
Tb120 C130 2.825 . S
Tb120 O131 2.347 . S
Tb120 O134 2.366 . S
Tb120 O139 2.418 . S
Tb120 O140 2.384 . S
Tb120 O143 2.479 . S
Tb120 O144 2.471 . S
Eu121 O132 2.418 . S
Eu121 O133 2.384 . S
Eu121 O136 2.479 . S
Eu121 O137 2.471 . S
Eu121 O138 2.347 . S
Eu121 O141 2.366 . S
Eu121 C151 2.825 . S
C122 O138 1.259 . S
C122 O139 1.265 . S
C123 O140 1.255 . S
C123 O141 1.265 . S
C124 C126 1.380 . S
C124 C127 1.374 . S
C124 C130 1.507 . S
C125 C126 1.384 . S
C125 C129 1.387 . S
C125 H152 0.930 . S
C126 C124 1.380 . S
C126 C125 1.384 . S
C126 H153 0.931 . S
C127 C124 1.374 . S
C127 C128 1.390 . S
C127 H154 0.930 . S
C128 C127 1.390 . S
C128 C129 1.391 . S
C128 H155 0.930 . S
C129 C125 1.387 . S
C129 C128 1.391 . S
C130 Tb120 2.825 . S
C130 C124 1.507 . S
C130 O143 1.238 . S
C130 O144 1.247 . S
O131 Tb120 2.347 . S
O131 C135 1.259 . S
O132 Eu121 2.418 . S
O132 C135 1.265 . S
O133 Eu121 2.384 . S
O133 C142 1.255 . S
O134 Tb120 2.366 . S
O134 C142 1.265 . S
C135 O131 1.259 . S
C135 O132 1.265 . S
O136 Eu121 2.479 . S
O136 C151 1.238 . S
O137 Eu121 2.471 . S
O137 C151 1.247 . S
O138 Eu121 2.347 . S
O138 C122 1.259 . S
O139 Tb120 2.418 . S
O139 C122 1.265 . S
O140 Tb120 2.384 . S
O140 C123 1.255 . S
O141 Eu121 2.366 . S
O141 C123 1.265 . S
C142 O133 1.255 . S
C142 O134 1.265 . S
O143 Tb120 2.479 . S
O143 C130 1.238 . S
O144 Tb120 2.471 . S
O144 C130 1.247 . S
C145 C148 1.380 . S
C145 C149 1.374 . S
C145 C151 1.507 . S
C146 C147 1.387 . S
C146 C150 1.391 . S
C147 C146 1.387 . S
C147 C148 1.384 . S
C147 H156 0.930 . S
C148 C145 1.380 . S
C148 C147 1.384 . S
C148 H157 0.931 . S
C149 C145 1.374 . S
C149 C150 1.390 . S
C149 H158 0.930 . S
C150 C146 1.391 . S
C150 C149 1.390 . S
C150 H159 0.930 . S
C151 Eu121 2.825 . S
C151 O136 1.238 . S
C151 O137 1.247 . S
C151 C145 1.507 . S
H152 C125 0.930 . S
H153 C126 0.931 . S
H154 C127 0.930 . S
H155 C128 0.930 . S
H156 C147 0.930 . S
H157 C148 0.931 . S
H158 C149 0.930 . S
H159 C150 0.930 . S
Tb160 C170 2.825 . S
Tb160 O171 2.347 . S
Tb160 O174 2.366 . S
Tb160 O179 2.418 . S
Tb160 O180 2.384 . S
Tb160 O183 2.479 . S
Tb160 O184 2.471 . S
Eu161 O172 2.418 . S
Eu161 O173 2.384 . S
Eu161 O176 2.479 . S
Eu161 O177 2.471 . S
Eu161 O178 2.347 . S
Eu161 O181 2.366 . S
Eu161 C191 2.825 . S
C162 O178 1.259 . S
C162 O179 1.265 . S
C163 O180 1.255 . S
C163 O181 1.265 . S
C164 C166 1.380 . S
C164 C167 1.374 . S
C164 C170 1.507 . S
C165 C166 1.384 . S
C165 C169 1.387 . S
C165 H192 0.930 1_455 S
C166 C164 1.380 . S
C166 C165 1.384 . S
C166 H193 0.931 . S
C167 C164 1.374 . S
C167 C168 1.390 . S
C167 H194 0.930 . S
C168 C167 1.390 . S
C168 C169 1.391 . S
C168 H195 0.930 . S
C169 C165 1.387 . S
C169 C168 1.391 . S
C170 Tb160 2.825 . S
C170 C164 1.507 . S
C170 O183 1.238 . S
C170 O184 1.247 . S
O171 Tb160 2.347 . S
O171 C175 1.259 . S
O172 Eu161 2.418 . S
O172 C175 1.265 . S
O173 Eu161 2.384 . S
O173 C182 1.255 . S
O174 Tb160 2.366 . S
O174 C182 1.265 . S
C175 O171 1.259 . S
C175 O172 1.265 . S
O176 Eu161 2.479 . S
O176 C191 1.238 . S
O177 Eu161 2.471 . S
O177 C191 1.247 . S
O178 Eu161 2.347 . S
O178 C162 1.259 . S
O179 Tb160 2.418 . S
O179 C162 1.265 . S
O180 Tb160 2.384 . S
O180 C163 1.255 . S
O181 Eu161 2.366 . S
O181 C163 1.265 . S
C182 O173 1.255 . S
C182 O174 1.265 . S
O183 Tb160 2.479 . S
O183 C170 1.238 . S
O184 Tb160 2.471 . S
O184 C170 1.247 . S
C185 C188 1.380 . S
C185 C189 1.374 . S
C185 C191 1.507 . S
C186 C187 1.387 . S
C186 C190 1.391 . S
C187 C186 1.387 . S
C187 C188 1.384 . S
C187 H196 0.930 . S
C188 C185 1.380 . S
C188 C187 1.384 . S
C188 H197 0.931 . S
C189 C185 1.374 . S
C189 C190 1.390 . S
C189 H198 0.930 . S
C190 C186 1.391 . S
C190 C189 1.390 . S
C190 H199 0.930 . S
C191 Eu161 2.825 . S
C191 O176 1.238 . S
C191 O177 1.247 . S
C191 C185 1.507 . S
H192 C165 0.930 1_655 S
H193 C166 0.931 . S
H194 C167 0.930 . S
H195 C168 0.930 . S
H196 C187 0.930 . S
H197 C188 0.931 . S
H198 C189 0.930 . S
H199 C190 0.930 . S
Tb200 C210 2.825 . S
Tb200 O211 2.347 . S
Tb200 O214 2.366 . S
Tb200 O219 2.418 . S
Tb200 O220 2.384 . S
Tb200 O223 2.479 . S
Tb200 O224 2.471 . S
Eu201 O212 2.418 . S
Eu201 O213 2.384 . S
Eu201 O216 2.479 . S
Eu201 O217 2.471 . S
Eu201 O218 2.347 . S
Eu201 O221 2.366 . S
Eu201 C231 2.825 . S
C202 O218 1.259 . S
C202 O219 1.265 . S
C203 O220 1.255 . S
C203 O221 1.265 . S
C204 C206 1.380 . S
C204 C207 1.374 . S
C204 C210 1.507 . S
C205 C206 1.384 . S
C205 C209 1.387 . S
C205 H232 0.930 1_565 S
C206 C204 1.380 . S
C206 C205 1.384 . S
C206 H233 0.931 . S
C207 C204 1.374 . S
C207 C208 1.390 . S
C207 H234 0.930 . S
C208 C207 1.390 . S
C208 C209 1.391 . S
C208 H235 0.930 . S
C209 C205 1.387 . S
C209 C208 1.391 . S
C210 Tb200 2.825 . S
C210 C204 1.507 . S
C210 O223 1.238 . S
C210 O224 1.247 . S
O211 Tb200 2.347 . S
O211 C215 1.259 . S
O212 Eu201 2.418 . S
O212 C215 1.265 . S
O213 Eu201 2.384 . S
O213 C222 1.255 . S
O214 Tb200 2.366 . S
O214 C222 1.265 . S
C215 O211 1.259 . S
C215 O212 1.265 . S
O216 Eu201 2.479 . S
O216 C231 1.238 . S
O217 Eu201 2.471 . S
O217 C231 1.247 . S
O218 Eu201 2.347 . S
O218 C202 1.259 . S
O219 Tb200 2.418 . S
O219 C202 1.265 . S
O220 Tb200 2.384 . S
O220 C203 1.255 . S
O221 Eu201 2.366 . S
O221 C203 1.265 . S
C222 O213 1.255 . S
C222 O214 1.265 . S
O223 Tb200 2.479 . S
O223 C210 1.238 . S
O224 Tb200 2.471 . S
O224 C210 1.247 . S
C225 C228 1.380 . S
C225 C229 1.374 . S
C225 C231 1.507 . S
C226 C227 1.387 . S
C226 C230 1.391 . S
C227 C226 1.387 . S
C227 C228 1.384 . S
C227 H236 0.930 . S
C228 C225 1.380 . S
C228 C227 1.384 . S
C228 H237 0.931 . S
C229 C225 1.374 . S
C229 C230 1.390 . S
C229 H238 0.930 . S
C230 C226 1.391 . S
C230 C229 1.390 . S
C230 H239 0.930 . S
C231 Eu201 2.825 . S
C231 O216 1.238 . S
C231 O217 1.247 . S
C231 C225 1.507 . S
H232 C205 0.930 1_545 S
H233 C206 0.931 . S
H234 C207 0.930 . S
H235 C208 0.930 . S
H236 C227 0.930 . S
H237 C228 0.931 . S
H238 C229 0.930 . S
H239 C230 0.930 . S
H240 C252 0.930 . S
H241 C254 0.930 . S
H242 C255 0.930 . S
H243 C259 0.962 . S
H244 C259 0.957 1_545 S
H245 C259 0.964 1_556 S
H246 C260 0.960 . S
H247 C260 0.961 . S
H248 C260 0.959 . S
H249 C263 0.929 . S
H250 C264 0.931 . S
H251 C266 0.930 . S
C252 H240 0.930 . S
C252 C253 1.399 . S
C252 C257 1.399 . S
C253 C252 1.399 . S
C253 C254 1.376 . S
C254 H241 0.930 . S
C254 C253 1.376 . S
C254 C255 1.388 . S
C255 H242 0.930 . S
C255 C254 1.388 . S
C255 C256 1.390 . S
C256 C255 1.390 . S
C256 C257 1.394 . S
C256 C262 1.465 1_566 S
C257 C252 1.399 . S
C257 C256 1.394 . S
C257 C258 1.516 1_565 S
C258 C257 1.516 1_545 S
C258 C259 1.498 1_546 S
C258 C260 1.561 . S
C258 C261 1.526 1_556 S
C259 H243 0.962 . S
C259 H244 0.957 1_565 S
C259 H245 0.964 1_554 S
C259 C258 1.498 1_564 S
C260 H246 0.960 . S
C260 H247 0.961 . S
C260 H248 0.959 . S
C260 C258 1.561 . S
C261 C258 1.526 1_554 S
C261 C262 1.396 . S
C261 C266 1.390 . S
C262 C256 1.465 1_544 S
C262 C261 1.396 . S
C262 C263 1.399 . S
C263 H249 0.929 . S
C263 C262 1.399 . S
C263 C264 1.385 . S
C264 H250 0.931 . S
C264 C263 1.385 . S
C264 C265 1.389 . S
C265 C264 1.389 . S
C265 C266 1.387 . S
C266 H251 0.930 . S
C266 C261 1.390 . S
C266 C265 1.387 . S
H267 C279 0.930 . S
H268 C281 0.930 . S
H269 C282 0.930 . S
H270 C286 0.959 . S
H271 C286 0.959 . S
H272 C286 0.961 . S
H273 C287 0.960 . S
H274 C287 0.961 . S
H275 C287 0.959 . S
H276 C290 0.929 . S
H277 C291 0.931 . S
H278 C293 0.930 . S
C279 H267 0.930 . S
C279 C280 1.399 . S
C279 C284 1.399 . S
C280 C279 1.399 . S
C280 C281 1.376 . S
C281 H268 0.930 . S
C281 C280 1.376 . S
C281 C282 1.388 . S
C282 H269 0.930 . S
C282 C281 1.388 . S
C282 C283 1.390 . S
C283 C282 1.390 . S
C283 C284 1.394 . S
C283 C289 1.465 . S
C284 C279 1.399 . S
C284 C283 1.394 . S
C284 C285 1.516 . S
C285 C284 1.516 . S
C285 C286 1.502 . S
C285 C287 1.561 . S
C285 C288 1.526 . S
C286 H270 0.959 . S
C286 H271 0.959 . S
C286 H272 0.961 . S
C286 C285 1.502 . S
C287 H273 0.960 . S
C287 H274 0.961 . S
C287 H275 0.959 . S
C287 C285 1.561 . S
C288 C285 1.526 . S
C288 C289 1.396 . S
C288 C293 1.390 . S
C289 C283 1.465 . S
C289 C288 1.396 . S
C289 C290 1.399 . S
C290 H276 0.929 . S
C290 C289 1.399 . S
C290 C291 1.385 . S
C291 H277 0.931 . S
C291 C290 1.385 . S
C291 C292 1.389 . S
C292 C291 1.389 . S
C292 C293 1.387 . S
C293 H278 0.930 . S
C293 C288 1.390 . S
C293 C292 1.387 . S
H294 C306 0.930 . S
H295 C308 0.930 . S
H296 C309 0.913 1_556 S
H297 C313 0.959 . S
H298 C313 0.959 . S
H299 C313 0.961 . S
H300 C314 0.960 . S
H301 C314 0.961 . S
H302 C314 0.959 . S
H303 C317 0.929 . S
H304 C318 0.931 . S
H305 C320 0.930 . S
C306 H294 0.930 . S
C306 C307 1.399 . S
C306 C311 1.399 . S
C307 C306 1.399 . S
C307 C308 1.376 . S
C308 H295 0.930 . S
C308 C307 1.376 . S
C308 C309 1.405 . S
C309 H296 0.913 1_554 S
C309 C308 1.405 . S
C309 C310 1.391 . S
C310 C309 1.391 . S
C310 C311 1.394 . S
C310 C316 1.458 1_654 S
C311 C306 1.399 . S
C311 C310 1.394 . S
C311 C312 1.516 1_655 S
C312 C311 1.516 1_455 S
C312 C313 1.502 . S
C312 C314 1.561 . S
C312 C315 1.526 1_554 S
C313 H297 0.959 . S
C313 H298 0.959 . S
C313 H299 0.961 . S
C313 C312 1.502 . S
C314 H300 0.960 . S
C314 H301 0.961 . S
C314 H302 0.959 . S
C314 C312 1.561 . S
C315 C312 1.526 1_556 S
C315 C316 1.405 . S
C315 C320 1.390 . S
C316 C310 1.458 1_456 S
C316 C315 1.405 . S
C316 C317 1.398 1_455 S
C317 H303 0.929 . S
C317 C316 1.398 1_655 S
C317 C318 1.385 1_655 S
C318 H304 0.931 . S
C318 C317 1.385 1_455 S
C318 C319 1.389 . S
C319 C318 1.389 . S
C319 C320 1.387 . S
C320 H305 0.930 . S
C320 C315 1.390 . S
C320 C319 1.387 . S
H321 C333 0.930 . S
H322 C335 0.930 . S
H323 C336 0.930 1_565 S
H324 C340 0.959 . S
H325 C340 0.959 . S
H326 C340 0.961 . S
H327 C341 0.960 . S
H328 C341 0.961 . S
H329 C341 0.959 . S
H330 C344 0.929 . S
H331 C345 0.931 . S
H332 C347 0.930 . S
C333 H321 0.930 . S
C333 C334 1.399 . S
C333 C338 1.399 . S
C334 C333 1.399 . S
C334 C335 1.376 . S
C335 H322 0.930 . S
C335 C334 1.376 . S
C335 C336 1.388 . S
C336 H323 0.930 1_545 S
C336 C335 1.388 . S
C336 C337 1.390 . S
C337 C336 1.390 . S
C337 C338 1.394 . S
C337 C343 1.465 1_545 S
C338 C333 1.399 . S
C338 C337 1.394 . S
C338 C339 1.516 . S
C339 C338 1.516 . S
C339 C340 1.502 . S
C339 C341 1.561 . S
C339 C342 1.526 1_545 S
C340 H324 0.959 . S
C340 H325 0.959 . S
C340 H326 0.961 . S
C340 C339 1.502 . S
C341 H327 0.960 . S
C341 H328 0.961 . S
C341 H329 0.959 . S
C341 C339 1.561 . S
C342 C339 1.526 1_565 S
C342 C343 1.396 . S
C342 C347 1.390 . S
C343 C337 1.465 1_565 S
C343 C342 1.396 . S
C343 C344 1.399 . S
C344 H330 0.929 . S
C344 C343 1.399 . S
C344 C345 1.385 . S
C345 H331 0.931 . S
C345 C344 1.385 . S
C345 C346 1.389 . S
C346 C345 1.389 . S
C346 C347 1.387 . S
C347 H332 0.930 . S
C347 C342 1.390 . S
C347 C346 1.387 . S
H348 C360 0.930 . S
H349 C362 0.930 . S
H350 C363 0.930 . S
H351 C367 0.959 1_554 S
H352 C367 0.959 1_554 S
H353 C367 0.961 . S
H354 C368 0.960 . S
H355 C368 0.961 . S
H356 C368 0.959 . S
H357 C371 0.929 . S
H358 C372 0.931 . S
H359 C374 0.930 . S
C360 H348 0.930 . S
C360 C361 1.399 . S
C360 C365 1.399 . S
C361 C360 1.399 . S
C361 C362 1.376 . S
C362 H349 0.930 . S
C362 C361 1.376 . S
C362 C363 1.388 . S
C363 H350 0.930 . S
C363 C362 1.388 . S
C363 C364 1.390 . S
C364 C363 1.390 . S
C364 C365 1.394 . S
C364 C370 1.465 1_556 S
C365 C360 1.399 . S
C365 C364 1.394 . S
C365 C366 1.516 . S
C366 C365 1.516 . S
C366 C367 1.502 . S
C366 C368 1.561 . S
C366 C369 1.526 1_556 S
C367 H351 0.959 1_556 S
C367 H352 0.959 1_556 S
C367 H353 0.961 . S
C367 C366 1.502 . S
C368 H354 0.960 . S
C368 H355 0.961 . S
C368 H356 0.959 . S
C368 C366 1.561 . S
C369 C366 1.526 1_554 S
C369 C370 1.396 . S
C369 C374 1.390 . S
C370 C364 1.465 1_554 S
C370 C369 1.396 . S
C370 C371 1.399 . S
C371 H357 0.929 . S
C371 C370 1.399 . S
C371 C372 1.385 . S
C372 H358 0.931 . S
C372 C371 1.385 . S
C372 C373 1.389 . S
C373 C372 1.389 . S
C373 C374 1.387 . S
C374 H359 0.930 . S
C374 C369 1.390 . S
C374 C373 1.387 . S
H375 C387 0.930 . S
H376 C389 0.930 . S
H377 C390 0.930 . S
H378 C394 0.959 . S
H379 C394 0.959 . S
H380 C394 0.961 . S
H381 C395 0.960 . S
H382 C395 0.961 . S
H383 C395 0.959 . S
H384 C398 0.929 . S
H385 C399 0.931 . S
H386 C401 0.930 . S
C387 H375 0.930 . S
C387 C388 1.399 . S
C387 C392 1.399 . S
C388 C387 1.399 . S
C388 C389 1.376 . S
C389 H376 0.930 . S
C389 C388 1.376 . S
C389 C390 1.388 1_655 S
C390 H377 0.930 . S
C390 C389 1.388 1_455 S
C390 C391 1.389 . S
C391 C390 1.389 . S
C391 C392 1.390 1_455 S
C391 C397 1.469 . S
C392 C387 1.399 . S
C392 C391 1.390 1_655 S
C392 C393 1.516 . S
C393 C392 1.516 . S
C393 C394 1.502 . S
C393 C395 1.561 . S
C393 C396 1.526 1_655 S
C394 H378 0.959 . S
C394 H379 0.959 . S
C394 H380 0.961 . S
C394 C393 1.502 . S
C395 H381 0.960 . S
C395 H382 0.961 . S
C395 H383 0.959 . S
C395 C393 1.561 . S
C396 C393 1.526 1_455 S
C396 C397 1.396 . S
C396 C401 1.390 . S
C397 C391 1.469 . S
C397 C396 1.396 . S
C397 C398 1.399 . S
C398 H384 0.929 . S
C398 C397 1.399 . S
C398 C399 1.385 . S
C399 H385 0.931 . S
C399 C398 1.385 . S
C399 C400 1.389 . S
C400 C399 1.389 . S
C400 C401 1.387 . S
C401 H386 0.930 . S
C401 C396 1.390 . S
C401 C400 1.387 . S
H402 C414 0.930 . S
H403 C416 0.930 . S
H404 C417 0.930 . S
H405 C421 0.959 . S
H406 C421 0.959 . S
H407 C421 0.961 . S
H408 C422 0.960 . S
H409 C422 0.961 . S
H410 C422 0.959 . S
H411 C425 0.929 . S
H412 C426 0.931 . S
H413 C428 0.930 . S
C414 H402 0.930 . S
C414 C415 1.399 . S
C414 C419 1.399 . S
C415 C414 1.399 . S
C415 C416 1.376 . S
C416 H403 0.930 . S
C416 C415 1.376 . S
C416 C417 1.388 . S
C417 H404 0.930 . S
C417 C416 1.388 . S
C417 C418 1.390 . S
C418 C417 1.390 . S
C418 C419 1.394 . S
C418 C424 1.465 . S
C419 C414 1.399 . S
C419 C418 1.394 . S
C419 C420 1.516 . S
C420 C419 1.516 . S
C420 C421 1.502 . S
C420 C422 1.561 . S
C420 C423 1.526 . S
C421 H405 0.959 . S
C421 H406 0.959 . S
C421 H407 0.961 . S
C421 C420 1.502 . S
C422 H408 0.960 . S
C422 H409 0.961 . S
C422 H410 0.959 . S
C422 C420 1.561 . S
C423 C420 1.526 . S
C423 C424 1.396 . S
C423 C428 1.390 . S
C424 C418 1.465 . S
C424 C423 1.396 . S
C424 C425 1.399 . S
C425 H411 0.929 . S
C425 C424 1.399 . S
C425 C426 1.385 . S
C426 H412 0.931 . S
C426 C425 1.385 . S
C426 C427 1.389 . S
C427 C426 1.389 . S
C427 C428 1.387 . S
C428 H413 0.930 . S
C428 C423 1.390 . S
C428 C427 1.387 . S
H429 C441 0.930 . S
H430 C443 0.930 . S
H431 C444 0.930 . S
H432 C448 0.959 . S
H433 C448 0.959 . S
H434 C448 0.961 . S
H435 C449 0.960 . S
H436 C449 0.961 . S
H437 C449 0.959 . S
H438 C452 0.929 . S
H439 C453 0.931 . S
H440 C455 0.930 . S
C441 H429 0.930 . S
C441 C442 1.399 . S
C441 C446 1.399 . S
C442 C441 1.399 . S
C442 C443 1.376 . S
C443 H430 0.930 . S
C443 C442 1.376 . S
C443 C444 1.388 . S
C444 H431 0.930 . S
C444 C443 1.388 . S
C444 C445 1.390 . S
C445 C444 1.390 . S
C445 C446 1.394 . S
C445 C451 1.465 . S
C446 C441 1.399 . S
C446 C445 1.394 . S
C446 C447 1.516 . S
C447 C446 1.516 . S
C447 C448 1.502 . S
C447 C449 1.561 . S
C447 C450 1.526 . S
C448 H432 0.959 . S
C448 H433 0.959 . S
C448 H434 0.961 . S
C448 C447 1.502 . S
C449 H435 0.960 . S
C449 H436 0.961 . S
C449 H437 0.959 . S
C449 C447 1.561 . S
C450 C447 1.526 . S
C450 C451 1.396 . S
C450 C455 1.390 . S
C451 C445 1.465 . S
C451 C450 1.396 . S
C451 C452 1.399 . S
C452 H438 0.929 . S
C452 C451 1.399 . S
C452 C453 1.385 . S
C453 H439 0.931 . S
C453 C452 1.385 . S
C453 C454 1.389 . S
C454 C453 1.389 . S
C454 C455 1.387 . S
C455 H440 0.930 . S
C455 C450 1.390 . S
C455 C454 1.387 . S
H456 C468 0.930 . S
H457 C470 0.930 . S
H458 C471 0.930 . S
H459 C475 0.959 . S
H460 C475 0.959 . S
H461 C475 0.961 . S
H462 C476 0.960 . S
H463 C476 0.961 . S
H464 C476 0.959 . S
H465 C479 0.929 . S
H466 C480 0.931 . S
H467 C482 0.930 . S
C468 H456 0.930 . S
C468 C469 1.399 . S
C468 C473 1.399 . S
C469 C468 1.399 . S
C469 C470 1.376 . S
C470 H457 0.930 . S
C470 C469 1.376 . S
C470 C471 1.388 . S
C471 H458 0.930 . S
C471 C470 1.388 . S
C471 C472 1.390 . S
C472 C471 1.390 . S
C472 C473 1.394 . S
C472 C478 1.465 . S
C473 C468 1.399 . S
C473 C472 1.394 . S
C473 C474 1.516 . S
C474 C473 1.516 . S
C474 C475 1.502 . S
C474 C476 1.561 . S
C474 C477 1.526 . S
C475 H459 0.959 . S
C475 H460 0.959 . S
C475 H461 0.961 . S
C475 C474 1.502 . S
C476 H462 0.960 . S
C476 H463 0.961 . S
C476 H464 0.959 . S
C476 C474 1.561 . S
C477 C474 1.526 . S
C477 C478 1.396 . S
C477 C482 1.390 . S
C478 C472 1.465 . S
C478 C477 1.396 . S
C478 C479 1.399 . S
C479 H465 0.929 . S
C479 C478 1.399 . S
C479 C480 1.385 . S
C480 H466 0.931 . S
C480 C479 1.385 . S
C480 C481 1.389 . S
C481 C480 1.389 . S
C481 C482 1.387 . S
C482 H467 0.930 . S
C482 C477 1.390 . S
C482 C481 1.387 . S
H483 C495 0.930 . S
H484 C497 0.930 . S
H485 C498 0.930 . S
H486 C502 0.959 . S
H487 C502 0.959 . S
H488 C502 0.961 . S
H489 C503 0.960 . S
H490 C503 0.961 . S
H491 C503 0.959 . S
H492 C506 0.929 . S
H493 C507 0.931 . S
H494 C509 0.930 . S
C495 H483 0.930 . S
C495 C496 1.399 . S
C495 C500 1.399 . S
C496 C495 1.399 . S
C496 C497 1.376 . S
C497 H484 0.930 . S
C497 C496 1.376 . S
C497 C498 1.388 . S
C498 H485 0.930 . S
C498 C497 1.388 . S
C498 C499 1.390 . S
C499 C498 1.390 . S
C499 C500 1.394 . S
C499 C505 1.465 . S
C500 C495 1.399 . S
C500 C499 1.394 . S
C500 C501 1.516 . S
C501 C500 1.516 . S
C501 C502 1.502 . S
C501 C503 1.561 . S
C501 C504 1.526 . S
C502 H486 0.959 . S
C502 H487 0.959 . S
C502 H488 0.961 . S
C502 C501 1.502 . S
C503 H489 0.960 . S
C503 H490 0.961 . S
C503 H491 0.959 . S
C503 C501 1.561 . S
C504 C501 1.526 . S
C504 C505 1.396 . S
C504 C509 1.390 . S
C505 C499 1.465 . S
C505 C504 1.396 . S
C505 C506 1.399 . S
C506 H492 0.929 . S
C506 C505 1.399 . S
C506 C507 1.385 . S
C507 H493 0.931 . S
C507 C506 1.385 . S
C507 C508 1.389 . S
C508 C507 1.389 . S
C508 C509 1.387 . S
C509 H494 0.930 . S
C509 C504 1.390 . S
C509 C508 1.387 . S
H510 C522 0.930 . S
H511 C524 0.930 . S
H512 C525 0.930 . S
H513 C529 0.959 . S
H514 C529 0.959 . S
H515 C529 0.961 . S
H516 C530 0.960 . S
H517 C530 0.961 . S
H518 C530 0.959 . S
H519 C533 0.929 . S
H520 C534 0.931 . S
H521 C536 0.930 . S
C522 H510 0.930 . S
C522 C523 1.399 . S
C522 C527 1.399 . S
C523 C522 1.399 . S
C523 C524 1.376 . S
C524 H511 0.930 . S
C524 C523 1.376 . S
C524 C525 1.388 . S
C525 H512 0.930 . S
C525 C524 1.388 . S
C525 C526 1.390 . S
C526 C525 1.390 . S
C526 C527 1.394 . S
C526 C532 1.465 . S
C527 C522 1.399 . S
C527 C526 1.394 . S
C527 C528 1.516 . S
C528 C527 1.516 . S
C528 C529 1.502 . S
C528 C530 1.561 . S
C528 C531 1.526 . S
C529 H513 0.959 . S
C529 H514 0.959 . S
C529 H515 0.961 . S
C529 C528 1.502 . S
C530 H516 0.960 . S
C530 H517 0.961 . S
C530 H518 0.959 . S
C530 C528 1.561 . S
C531 C528 1.526 . S
C531 C532 1.396 . S
C531 C536 1.390 . S
C532 C526 1.465 . S
C532 C531 1.396 . S
C532 C533 1.399 . S
C533 H519 0.929 . S
C533 C532 1.399 . S
C533 C534 1.385 . S
C534 H520 0.931 . S
C534 C533 1.385 . S
C534 C535 1.389 . S
C535 C534 1.389 . S
C535 C536 1.387 . S
C536 H521 0.930 . S
C536 C531 1.390 . S
C536 C535 1.387 . S
H537 C549 0.930 . S
H538 C551 0.930 . S
H539 C552 0.930 . S
H540 C556 0.959 . S
H541 C556 0.959 . S
H542 C556 0.961 . S
H543 C557 0.960 . S
H544 C557 0.961 . S
H545 C557 0.959 . S
H546 C560 0.929 . S
H547 C561 0.931 . S
H548 C563 0.930 . S
C549 H537 0.930 . S
C549 C550 1.399 . S
C549 C554 1.399 . S
C550 C549 1.399 . S
C550 C551 1.376 . S
C551 H538 0.930 . S
C551 C550 1.376 . S
C551 C552 1.388 . S
C552 H539 0.930 . S
C552 C551 1.388 . S
C552 C553 1.390 . S
C553 C552 1.390 . S
C553 C554 1.394 . S
C553 C559 1.465 . S
C554 C549 1.399 . S
C554 C553 1.394 . S
C554 C555 1.516 . S
C555 C554 1.516 . S
C555 C556 1.502 . S
C555 C557 1.561 . S
C555 C558 1.526 . S
C556 H540 0.959 . S
C556 H541 0.959 . S
C556 H542 0.961 . S
C556 C555 1.502 . S
C557 H543 0.960 . S
C557 H544 0.961 . S
C557 H545 0.959 . S
C557 C555 1.561 . S
C558 C555 1.526 . S
C558 C559 1.396 . S
C558 C563 1.390 . S
C559 C553 1.465 . S
C559 C558 1.396 . S
C559 C560 1.399 . S
C560 H546 0.929 . S
C560 C559 1.399 . S
C560 C561 1.385 . S
C561 H547 0.931 . S
C561 C560 1.385 . S
C561 C562 1.389 . S
C562 C561 1.389 . S
C562 C563 1.387 . S
C563 H548 0.930 . S
C563 C558 1.390 . S
C563 C562 1.387 . S
H564 C576 0.930 . S
H565 C578 0.930 . S
H566 C579 0.930 1_655 S
H567 C583 0.959 . S
H568 C583 0.959 . S
H569 C583 0.961 . S
H570 C584 0.960 . S
H571 C584 0.961 . S
H572 C584 0.959 . S
H573 C587 0.929 . S
H574 C588 0.931 . S
H575 C590 0.930 . S
C576 H564 0.930 . S
C576 C577 1.399 . S
C576 C581 1.399 . S
C577 C576 1.399 . S
C577 C578 1.376 . S
C578 H565 0.930 . S
C578 C577 1.376 . S
C578 C579 1.388 . S
C579 H566 0.930 1_455 S
C579 C578 1.388 . S
C579 C580 1.390 . S
C580 C579 1.390 . S
C580 C581 1.394 . S
C580 C586 1.465 . S
C581 C576 1.399 . S
C581 C580 1.394 . S
C581 C582 1.516 . S
C582 C581 1.516 . S
C582 C583 1.502 . S
C582 C584 1.561 . S
C582 C585 1.526 . S
C583 H567 0.959 . S
C583 H568 0.959 . S
C583 H569 0.961 . S
C583 C582 1.502 . S
C584 H570 0.960 . S
C584 H571 0.961 . S
C584 H572 0.959 . S
C584 C582 1.561 . S
C585 C582 1.526 . S
C585 C586 1.396 . S
C585 C590 1.390 . S
C586 C580 1.465 . S
C586 C585 1.396 . S
C586 C587 1.399 1_455 S
C587 H573 0.929 . S
C587 C586 1.399 1_655 S
C587 C588 1.385 . S
C588 H574 0.931 . S
C588 C587 1.385 . S
C588 C589 1.389 . S
C589 C588 1.389 . S
C589 C590 1.387 1_655 S
C590 H575 0.930 . S
C590 C585 1.390 . S
C590 C589 1.387 1_455 S
H591 C603 0.930 . S
H592 C605 0.930 . S
H593 C606 0.930 . S
H594 C610 0.959 . S
H595 C610 0.959 . S
H596 C610 0.961 . S
H597 C611 0.960 . S
H598 C611 0.961 . S
H599 C611 0.959 . S
H600 C614 0.929 . S
H601 C615 0.931 . S
H602 C617 0.930 . S
C603 H591 0.930 . S
C603 C604 1.399 . S
C603 C608 1.399 . S
C604 C603 1.399 . S
C604 C605 1.376 . S
C605 H592 0.930 . S
C605 C604 1.376 . S
C605 C606 1.388 . S
C606 H593 0.930 . S
C606 C605 1.388 . S
C606 C607 1.390 . S
C607 C606 1.390 . S
C607 C608 1.394 . S
C607 C613 1.465 . S
C608 C603 1.399 . S
C608 C607 1.394 . S
C608 C609 1.516 1_565 S
C609 C608 1.516 1_545 S
C609 C610 1.502 . S
C609 C611 1.561 . S
C609 C612 1.526 1_545 S
C610 H594 0.959 . S
C610 H595 0.959 . S
C610 H596 0.961 . S
C610 C609 1.502 . S
C611 H597 0.960 . S
C611 H598 0.961 . S
C611 H599 0.959 . S
C611 C609 1.561 . S
C612 C609 1.526 1_565 S
C612 C613 1.396 . S
C612 C617 1.390 1_565 S
C613 C607 1.465 . S
C613 C612 1.396 . S
C613 C614 1.399 . S
C614 H600 0.929 . S
C614 C613 1.399 . S
C614 C615 1.385 . S
C615 H601 0.931 . S
C615 C614 1.385 . S
C615 C616 1.389 1_565 S
C616 C615 1.389 1_545 S
C616 C617 1.387 . S
C617 H602 0.930 . S
C617 C612 1.390 1_545 S
C617 C616 1.387 . S
H618 C630 0.930 . S
H619 C632 0.930 . S
H620 C633 0.930 . S
H621 C637 0.959 . S
H622 C637 0.959 . S
H623 C637 0.961 . S
H624 C638 0.960 . S
H625 C638 0.961 . S
H626 C638 0.959 . S
H627 C641 0.929 . S
H628 C642 0.931 . S
H629 C644 0.930 . S
C630 H618 0.930 . S
C630 C631 1.399 . S
C630 C635 1.399 . S
C631 C630 1.399 . S
C631 C632 1.376 . S
C632 H619 0.930 . S
C632 C631 1.376 . S
C632 C633 1.388 . S
C633 H620 0.930 . S
C633 C632 1.388 . S
C633 C634 1.390 . S
C634 C633 1.390 . S
C634 C635 1.394 . S
C634 C640 1.465 . S
C635 C630 1.399 . S
C635 C634 1.394 . S
C635 C636 1.516 . S
C636 C635 1.516 . S
C636 C637 1.502 . S
C636 C638 1.561 . S
C636 C639 1.526 . S
C637 H621 0.959 . S
C637 H622 0.959 . S
C637 H623 0.961 . S
C637 C636 1.502 . S
C638 H624 0.960 . S
C638 H625 0.961 . S
C638 H626 0.959 . S
C638 C636 1.561 . S
C639 C636 1.526 . S
C639 C640 1.396 . S
C639 C644 1.390 . S
C640 C634 1.465 . S
C640 C639 1.396 . S
C640 C641 1.399 . S
C641 H627 0.929 . S
C641 C640 1.399 . S
C641 C642 1.385 . S
C642 H628 0.931 . S
C642 C641 1.385 . S
C642 C643 1.389 . S
C643 C642 1.389 . S
C643 C644 1.387 . S
C644 H629 0.930 . S
C644 C639 1.390 . S
C644 C643 1.387 . S
H645 C657 0.930 . S
H646 C659 0.930 . S
H647 C660 0.930 . S
H648 C664 0.959 . S
H649 C664 0.959 . S
H650 C664 0.961 . S
H651 C665 0.960 . S
H652 C665 0.961 . S
H653 C665 0.957 . S
H654 C668 0.929 . S
H655 C669 0.931 . S
H656 C671 0.930 . S
C657 H645 0.930 . S
C657 C658 1.399 . S
C657 C662 1.399 . S
C658 C657 1.399 . S
C658 C659 1.376 . S
C659 H646 0.930 . S
C659 C658 1.376 . S
C659 C660 1.388 . S
C660 H647 0.930 . S
C660 C659 1.388 . S
C660 C661 1.390 . S
C661 C660 1.390 . S
C661 C662 1.394 . S
C661 C667 1.465 . S
C662 C657 1.399 . S
C662 C661 1.394 . S
C662 C663 1.516 . S
C663 C662 1.516 . S
C663 C664 1.502 . S
C663 C665 1.561 . S
C663 C666 1.526 . S
C664 H648 0.959 . S
C664 H649 0.959 . S
C664 H650 0.961 . S
C664 C663 1.502 . S
C665 H651 0.960 . S
C665 H652 0.961 . S
C665 H653 0.957 . S
C665 C663 1.561 . S
C666 C663 1.526 . S
C666 C667 1.396 . S
C666 C671 1.390 . S
C667 C661 1.465 . S
C667 C666 1.396 . S
C667 C668 1.399 1_545 S
C668 H654 0.929 . S
C668 C667 1.399 1_565 S
C668 C669 1.385 . S
C669 H655 0.931 . S
C669 C668 1.385 . S
C669 C670 1.389 . S
C670 C669 1.389 . S
C670 C671 1.387 1_565 S
C671 H656 0.930 . S
C671 C666 1.390 . S
C671 C670 1.387 1_545 S
H672 C684 0.930 . S
H673 C686 0.930 . S
H674 C687 0.930 . S
H675 C691 0.959 . S
H676 C691 0.959 . S
H677 C691 0.961 . S
H678 C692 0.960 . S
H679 C692 0.961 . S
H680 C692 0.959 . S
H681 C695 0.929 . S
H682 C696 0.931 . S
H683 C698 0.930 . S
C684 H672 0.930 . S
C684 C685 1.399 . S
C684 C689 1.399 . S
C685 C684 1.399 . S
C685 C686 1.376 . S
C686 H673 0.930 . S
C686 C685 1.376 . S
C686 C687 1.388 . S
C687 H674 0.930 . S
C687 C686 1.388 . S
C687 C688 1.390 . S
C688 C687 1.390 . S
C688 C689 1.394 . S
C688 C694 1.465 . S
C689 C684 1.399 . S
C689 C688 1.394 . S
C689 C690 1.516 . S
C690 C689 1.516 . S
C690 C691 1.502 . S
C690 C692 1.561 . S
C690 C693 1.526 . S
C691 H675 0.959 . S
C691 H676 0.959 . S
C691 H677 0.961 . S
C691 C690 1.502 . S
C692 H678 0.960 . S
C692 H679 0.961 . S
C692 H680 0.959 . S
C692 C690 1.561 . S
C693 C690 1.526 . S
C693 C694 1.396 . S
C693 C698 1.390 . S
C694 C688 1.465 . S
C694 C693 1.396 . S
C694 C695 1.399 . S
C695 H681 0.929 . S
C695 C694 1.399 . S
C695 C696 1.385 . S
C696 H682 0.931 . S
C696 C695 1.385 . S
C696 C697 1.389 . S
C697 C696 1.389 . S
C697 C698 1.387 . S
C698 H683 0.930 . S
C698 C693 1.390 . S
C698 C697 1.387 . S
H699 C711 0.930 . S
H700 C713 0.930 . S
H701 C714 0.930 . S
H702 C718 0.959 . S
H703 C718 0.959 . S
H704 C718 0.961 . S
H705 C719 0.960 . S
H706 C719 0.961 . S
H707 C719 0.959 1_455 S
H708 C722 0.929 . S
H709 C723 0.931 . S
H710 C725 0.930 . S
C711 H699 0.930 . S
C711 C712 1.399 1_655 S
C711 C716 1.399 . S
C712 C711 1.399 1_455 S
C712 C713 1.376 . S
C713 H700 0.930 . S
C713 C712 1.376 . S
C713 C714 1.388 . S
C714 H701 0.930 . S
C714 C713 1.388 . S
C714 C715 1.390 1_455 S
C715 C714 1.390 1_655 S
C715 C716 1.394 . S
C715 C721 1.465 . S
C716 C711 1.399 . S
C716 C715 1.394 . S
C716 C717 1.516 . S
C717 C716 1.516 . S
C717 C718 1.502 . S
C717 C719 1.561 . S
C717 C720 1.526 . S
C718 H702 0.959 . S
C718 H703 0.959 . S
C718 H704 0.961 . S
C718 C717 1.502 . S
C719 H705 0.960 . S
C719 H706 0.961 . S
C719 H707 0.959 1_655 S
C719 C717 1.561 . S
C720 C717 1.526 . S
C720 C721 1.396 . S
C720 C725 1.390 . S
C721 C715 1.465 . S
C721 C720 1.396 . S
C721 C722 1.399 . S
C722 H708 0.929 . S
C722 C721 1.399 . S
C722 C723 1.385 . S
C723 H709 0.931 . S
C723 C722 1.385 . S
C723 C724 1.389 . S
C724 C723 1.389 . S
C724 C725 1.387 . S
C725 H710 0.930 . S
C725 C720 1.390 . S
C725 C724 1.387 . S
C253 C175 2.406 . S
C265 C15 2.404 . S
C280 C202 2.466 . S
C292 C42 2.438 . S
C307 C95 2.432 . S
C319 C135 2.363 . S
C334 C2 2.416 . S
C346 C162 2.439 . S
C361 C215 2.408 . S
C373 C55 2.402 . S
C388 C82 2.422 . S
C400 C122 2.465 . S
C415 C26 1.915 . S
C427 C83 1.856 . S
C442 C66 1.895 . S
C454 C3 1.897 . S
C469 C106 1.894 . S
C481 C43 1.896 . S
C496 C146 1.909 . S
C508 C163 1.880 . S
C523 C186 1.910 . S
C535 C203 1.878 . S
C550 C123 1.896 . S
C562 C226 1.895 . S
C577 C9 1.236 . S
C589 C102 1.203 . S
C604 C49 1.110 1_455 S
C616 C22 1.280 . S
C631 C89 1.211 1_565 S
C643 C62 1.233 . S
C658 C129 1.220 . S
C670 C182 1.227 . S
C685 C169 1.143 1_655 S
C697 C222 1.253 . S
C712 C142 1.206 . S
C724 C209 1.224 1_545 S
