# Generated by pormake.
# Topology whw, (6)-cn, num edge types: 1
# Building blocks:
#     Node 0, Type 0, BuildingBlock: CIFDUS_clean_sbu_1, # of connection points: 6
#     Node 1, Type 0, BuildingBlock: CIFDUS_clean_sbu_1, # of connection points: 6
#     Node 2, Type 0, BuildingBlock: CIFDUS_clean_sbu_1, # of connection points: 6
#     Node 3, Type 0, BuildingBlock: CIFDUS_clean_sbu_1, # of connection points: 6
#     Node 4, Type 0, BuildingBlock: CIFDUS_clean_sbu_1, # of connection points: 6
#     Node 5, Type 0, BuildingBlock: CIFDUS_clean_sbu_1, # of connection points: 6
#     Node 6, Type 0, BuildingBlock: CIFDUS_clean_sbu_1, # of connection points: 6
#     Node 7, Type 0, BuildingBlock: CIFDUS_clean_sbu_1, # of connection points: 6
#     Node 8, Type 0, BuildingBlock: CIFDUS_clean_sbu_1, # of connection points: 6
#     Node 9, Type 0, BuildingBlock: CIFDUS_clean_sbu_1, # of connection points: 6
#     Node 10, Type 0, BuildingBlock: CIFDUS_clean_sbu_1, # of connection points: 6
#     Node 11, Type 0, BuildingBlock: CIFDUS_clean_sbu_1, # of connection points: 6
#     Node 12, Type 0, BuildingBlock: CIFDUS_clean_sbu_1, # of connection points: 6
#     Node 13, Type 0, BuildingBlock: CIFDUS_clean_sbu_1, # of connection points: 6
#     Node 14, Type 0, BuildingBlock: CIFDUS_clean_sbu_1, # of connection points: 6
#     Node 15, Type 0, BuildingBlock: CIFDUS_clean_sbu_1, # of connection points: 6
#     Edge 16, Type (0, 0), BuildingBlock: XIVTED_clean_linker_0, # of connection points: 2
#     Edge 17, Type (0, 0), BuildingBlock: XIVTED_clean_linker_0, # of connection points: 2
#     Edge 18, Type (0, 0), BuildingBlock: XIVTED_clean_linker_0, # of connection points: 2
#     Edge 19, Type (0, 0), BuildingBlock: XIVTED_clean_linker_0, # of connection points: 2
#     Edge 20, Type (0, 0), BuildingBlock: XIVTED_clean_linker_0, # of connection points: 2
#     Edge 21, Type (0, 0), BuildingBlock: XIVTED_clean_linker_0, # of connection points: 2
#     Edge 22, Type (0, 0), BuildingBlock: XIVTED_clean_linker_0, # of connection points: 2
#     Edge 23, Type (0, 0), BuildingBlock: XIVTED_clean_linker_0, # of connection points: 2
#     Edge 24, Type (0, 0), BuildingBlock: XIVTED_clean_linker_0, # of connection points: 2
#     Edge 25, Type (0, 0), BuildingBlock: XIVTED_clean_linker_0, # of connection points: 2
#     Edge 26, Type (0, 0), BuildingBlock: XIVTED_clean_linker_0, # of connection points: 2
#     Edge 27, Type (0, 0), BuildingBlock: XIVTED_clean_linker_0, # of connection points: 2
#     Edge 28, Type (0, 0), BuildingBlock: XIVTED_clean_linker_0, # of connection points: 2
#     Edge 29, Type (0, 0), BuildingBlock: XIVTED_clean_linker_0, # of connection points: 2
#     Edge 30, Type (0, 0), BuildingBlock: XIVTED_clean_linker_0, # of connection points: 2
#     Edge 31, Type (0, 0), BuildingBlock: XIVTED_clean_linker_0, # of connection points: 2
#     Edge 32, Type (0, 0), BuildingBlock: XIVTED_clean_linker_0, # of connection points: 2
#     Edge 33, Type (0, 0), BuildingBlock: XIVTED_clean_linker_0, # of connection points: 2
#     Edge 34, Type (0, 0), BuildingBlock: XIVTED_clean_linker_0, # of connection points: 2
#     Edge 35, Type (0, 0), BuildingBlock: XIVTED_clean_linker_0, # of connection points: 2
#     Edge 36, Type (0, 0), BuildingBlock: XIVTED_clean_linker_0, # of connection points: 2
#     Edge 37, Type (0, 0), BuildingBlock: XIVTED_clean_linker_0, # of connection points: 2
#     Edge 38, Type (0, 0), BuildingBlock: XIVTED_clean_linker_0, # of connection points: 2
#     Edge 39, Type (0, 0), BuildingBlock: XIVTED_clean_linker_0, # of connection points: 2
#     Edge 40, Type (0, 0), BuildingBlock: XIVTED_clean_linker_0, # of connection points: 2
#     Edge 41, Type (0, 0), BuildingBlock: XIVTED_clean_linker_0, # of connection points: 2
#     Edge 42, Type (0, 0), BuildingBlock: XIVTED_clean_linker_0, # of connection points: 2
#     Edge 43, Type (0, 0), BuildingBlock: XIVTED_clean_linker_0, # of connection points: 2
#     Edge 44, Type (0, 0), BuildingBlock: XIVTED_clean_linker_0, # of connection points: 2
#     Edge 45, Type (0, 0), BuildingBlock: XIVTED_clean_linker_0, # of connection points: 2
#     Edge 46, Type (0, 0), BuildingBlock: XIVTED_clean_linker_0, # of connection points: 2
#     Edge 47, Type (0, 0), BuildingBlock: XIVTED_clean_linker_0, # of connection points: 2
#     Edge 48, Type (0, 0), BuildingBlock: XIVTED_clean_linker_0, # of connection points: 2
#     Edge 49, Type (0, 0), BuildingBlock: XIVTED_clean_linker_0, # of connection points: 2
#     Edge 50, Type (0, 0), BuildingBlock: XIVTED_clean_linker_0, # of connection points: 2
#     Edge 51, Type (0, 0), BuildingBlock: XIVTED_clean_linker_0, # of connection points: 2
#     Edge 52, Type (0, 0), BuildingBlock: XIVTED_clean_linker_0, # of connection points: 2
#     Edge 53, Type (0, 0), BuildingBlock: XIVTED_clean_linker_0, # of connection points: 2
#     Edge 54, Type (0, 0), BuildingBlock: XIVTED_clean_linker_0, # of connection points: 2
#     Edge 55, Type (0, 0), BuildingBlock: XIVTED_clean_linker_0, # of connection points: 2
#     Edge 56, Type (0, 0), BuildingBlock: XIVTED_clean_linker_0, # of connection points: 2
#     Edge 57, Type (0, 0), BuildingBlock: XIVTED_clean_linker_0, # of connection points: 2
#     Edge 58, Type (0, 0), BuildingBlock: XIVTED_clean_linker_0, # of connection points: 2
#     Edge 59, Type (0, 0), BuildingBlock: XIVTED_clean_linker_0, # of connection points: 2
#     Edge 60, Type (0, 0), BuildingBlock: XIVTED_clean_linker_0, # of connection points: 2
#     Edge 61, Type (0, 0), BuildingBlock: XIVTED_clean_linker_0, # of connection points: 2
#     Edge 62, Type (0, 0), BuildingBlock: XIVTED_clean_linker_0, # of connection points: 2
#     Edge 63, Type (0, 0), BuildingBlock: XIVTED_clean_linker_0, # of connection points: 2
# Relax obj value: 0.549
# Max RMSD: 0.240
# Mean RMSD: 0.240
data_MOF--net-whw--node1-CIFDUS_clean_sbu_1--edge1-XIVTED_clean_linker_0
_symmetry_space_group_name_H-M    P1
_symmetry_Int_Tables_number       1
_symmetry_cell_setting            triclinic
loop_
_symmetry_equiv_pos_as_xyz
'x, y, z'
_cell_length_a     50.820744
_cell_length_b     50.830893
_cell_length_c     24.531841
_cell_angle_alpha  90.049234
_cell_angle_beta   90.059046
_cell_angle_gamma 89.980245
loop_
_atom_site_label
_atom_site_type_symbol
_atom_site_fract_x
_atom_site_fract_y
_atom_site_fract_z
_atom_type_partial_charge
O0 O 0.0302 0.12017 0.06729 0.0
Mn1 Mn 0.00034 0.12488 0.12722 0.0
O2 O 0.02898 0.15783 0.01763 0.0
Mn3 Mn 0.0017 0.17509 0.05253 0.0
O4 O 0.97048 0.13135 0.18606 0.0
O5 O -0.00174 0.08496 0.13762 0.0
Mn6 Mn -0.00118 0.08089 0.20953 0.0
O7 O 0.02908 0.12846 0.1877 0.0
O8 O 0.96942 0.09579 0.23971 0.0
O9 O 0.97094 0.12334 0.06519 0.0
O10 O 0.9683 0.1649 0.03231 0.0
O11 O -0.00378 0.04777 0.1859 0.0
O12 O 0.03058 0.09178 0.23751 0.0
C13 C 0.00933 0.18645 0.13562 0.0
C14 C 0.0386 0.13521 0.02835 0.0
C15 C 0.96058 0.11815 0.22597 0.0
C16 C -0.00299 0.0593 0.13874 0.0
C17 C 0.03935 0.11432 0.22543 0.0
C18 C 0.95961 0.14143 0.03618 0.0
O19 O 0.00323 0.16342 0.11903 0.0
O20 O 0.00937 0.2038 0.09717 0.0
O21 O 0.11733 0.77778 0.43517 0.0
Mn22 Mn 0.11883 0.74917 0.37436 0.0
O23 O 0.14848 0.76588 0.49483 0.0
Mn24 Mn 0.16147 0.7387 0.45278 0.0
O25 O 0.1191 0.72013 0.3127 0.0
O26 O 0.08034 0.75196 0.36928 0.0
Mn27 Mn 0.06702 0.75338 0.30423 0.0
O28 O 0.12285 0.77909 0.31368 0.0
O29 O 0.07895 0.72244 0.27257 0.0
O30 O 0.11121 0.72 0.43317 0.0
O31 O 0.14861 0.70599 0.46845 0.0
O32 O 0.03897 0.75268 0.35353 0.0
O33 O 0.08182 0.78405 0.27811 0.0
C34 C 0.18488 0.74499 0.38664 0.0
C35 C 0.12953 0.78071 0.48061 0.0
C36 C 0.1015 0.71172 0.27886 0.0
C37 C 0.05734 0.75116 0.3898 0.0
C38 C 0.10585 0.79109 0.28275 0.0
C39 C 0.12414 0.70374 0.46278 0.0
O40 O 0.1592 0.7466 0.38196 0.0
O41 O 0.19503 0.73973 0.434 0.0
O42 O 0.46781 0.87236 0.56796 0.0
Mn43 Mn 0.49598 0.86652 0.63096 0.0
O44 O 0.46652 0.83339 0.52255 0.0
Mn45 Mn 0.49228 0.81509 0.56006 0.0
O46 O 0.52435 0.85952 0.69298 0.0
O47 O 0.50142 0.90515 0.64087 0.0
Mn48 Mn 0.50542 0.91234 0.71103 0.0
O49 O 0.46644 0.86659 0.68864 0.0
O50 O 0.53824 0.89876 0.72387 0.0
O51 O 0.52615 0.86529 0.57154 0.0
O52 O 0.52644 0.82334 0.54045 0.0
O53 O 0.49261 0.94248 0.68016 0.0
O54 O 0.47997 0.89536 0.75187 0.0
C55 C 0.48314 0.80636 0.64435 0.0
C56 C 0.45876 0.85702 0.53004 0.0
C57 C 0.54012 0.87376 0.72211 0.0
C58 C 0.48917 0.92727 0.63834 0.0
C59 C 0.4644 0.87747 0.73547 0.0
C60 C 0.53644 0.84635 0.54352 0.0
O61 O 0.49058 0.82841 0.62517 0.0
O62 O 0.4825 0.78806 0.6078 0.0
O63 O 0.37659 0.21441 0.81958 0.0
Mn64 Mn 0.38049 0.2445 0.8789 0.0
O65 O 0.41485 0.21592 0.77185 0.0
Mn66 Mn 0.43194 0.24327 0.80731 0.0
O67 O 0.38608 0.275 0.93653 0.0
O68 O 0.34154 0.24531 0.89066 0.0
Mn69 Mn 0.33425 0.25333 0.95871 0.0
O70 O 0.38296 0.2168 0.94085 0.0
O71 O 0.34667 0.28689 0.96849 0.0
O72 O 0.37913 0.2732 0.81606 0.0
O73 O 0.42127 0.27667 0.78647 0.0
O74 O 0.30247 0.24586 0.92693 0.0
O75 O 0.35109 0.22811 1.0006 0.0
C76 C 0.44059 0.23486 0.89228 0.0
C77 C 0.39216 0.20614 0.78144 0.0
C78 C 0.37126 0.29072 0.96416 0.0
C79 C 0.3168 0.24087 0.88451 0.0
C80 C 0.37089 0.21426 0.98647 0.0
C81 C 0.39745 0.28482 0.78831 0.0
O82 O 0.41873 0.24232 0.87241 0.0
O83 O 0.45908 0.23454 0.85626 0.0
O84 O 0.03164 0.87196 0.93417 0.0
Mn85 Mn 0.00188 0.86684 0.87345 0.0
O86 O 0.03922 0.83108 0.96814 0.0
Mn87 Mn 0.00903 0.81503 0.94256 0.0
O88 O 0.9724 0.8605 0.81402 0.0
O89 O -0.00333 0.90564 0.86426 0.0
Mn90 Mn 0.99057 0.91237 0.79431 0.0
O91 O 0.0302 0.86659 0.81274 0.0
O92 O 0.95704 0.89946 0.78531 0.0
O93 O 0.97312 0.86563 0.93556 0.0
O94 O 0.97803 0.82576 0.97596 0.0
O95 O 0.00461 0.94255 0.82284 0.0
O96 O 0.01468 0.89486 0.75056 0.0
C97 C 0.00611 0.80592 0.8565 0.0
C98 C 0.04464 0.85555 0.96464 0.0
C99 C 0.9555 0.87449 0.78733 0.0
C100 C 0.00906 0.92775 0.86482 0.0
C101 C 0.03086 0.87715 0.76539 0.0
C102 C 0.96612 0.84775 0.9701 0.0
O103 O 0.00623 0.82866 0.87804 0.0
O104 O 0.00895 0.78736 0.89194 0.0
O105 O 0.37776 0.77882 0.18676 0.0
Mn106 Mn 0.38158 0.74694 0.13079 0.0
O107 O 0.41725 0.78066 0.23043 0.0
Mn108 Mn 0.43197 0.74966 0.20539 0.0
O109 O 0.38782 0.71578 0.07631 0.0
O110 O 0.34267 0.74597 0.11669 0.0
Mn111 Mn 0.33661 0.73498 0.04959 0.0
O112 O 0.38481 0.77274 0.0657 0.0
O113 O 0.34965 0.70127 0.04339 0.0
O114 O 0.37845 0.71996 0.19614 0.0
O115 O 0.41868 0.7192 0.23599 0.0
O116 O 0.30423 0.74312 0.07765 0.0
O117 O 0.35365 0.75932 0.00591 0.0
C118 C 0.44348 0.74841 0.12076 0.0
C119 C 0.3942 0.78957 0.22073 0.0
C120 C 0.37438 0.69913 0.04832 0.0
C121 C 0.31775 0.75038 0.11986 0.0
C122 C 0.3732 0.7738 0.0191 0.0
C123 C 0.39527 0.71048 0.23045 0.0
O124 O 0.42004 0.74835 0.13918 0.0
O125 O 0.46107 0.74925 0.15875 0.0
O126 O 0.4681 0.12388 0.43659 0.0
Mn127 Mn 0.49731 0.12564 0.37458 0.0
O128 O 0.46448 0.16559 0.46867 0.0
Mn129 Mn 0.49514 0.17912 0.43935 0.0
O130 O 0.52612 0.1289 0.31319 0.0
O131 O 0.49824 0.08585 0.36907 0.0
Mn132 Mn 0.49593 0.07857 0.29833 0.0
O133 O 0.46759 0.12792 0.31633 0.0
O134 O 0.52461 0.09204 0.26289 0.0
O135 O 0.52699 0.12571 0.43547 0.0
O136 O 0.52618 0.16709 0.47067 0.0
O137 O 0.49833 0.04661 0.32923 0.0
O138 O 0.46402 0.08985 0.27168 0.0
C139 C 0.49542 0.18639 0.35229 0.0
C140 C 0.45682 0.14168 0.46639 0.0
C141 C 0.53415 0.11457 0.2732 0.0
C142 C 0.49896 0.06042 0.37373 0.0
C143 C 0.45616 0.11306 0.28138 0.0
C144 C 0.5361 0.144 0.46718 0.0
O145 O 0.49616 0.16413 0.3759 0.0
O146 O 0.49449 0.20572 0.38641 0.0
O147 O 0.11358 0.21486 0.57359 0.0
Mn148 Mn 0.11887 0.24409 0.63221 0.0
O149 O 0.14694 0.21694 0.51417 0.0
Mn150 Mn 0.15946 0.24795 0.54297 0.0
O151 O 0.12272 0.27399 0.69243 0.0
O152 O 0.08078 0.24126 0.6467 0.0
Mn153 Mn 0.07124 0.24399 0.71433 0.0
O154 O 0.12551 0.21475 0.69259 0.0
O155 O 0.08252 0.27747 0.73145 0.0
O156 O 0.10953 0.27295 0.57325 0.0
O157 O 0.14413 0.2783 0.51828 0.0
O158 O 0.04095 0.23662 0.67389 0.0
O159 O 0.08946 0.21684 0.74736 0.0
C160 C 0.18398 0.24773 0.6095 0.0
C161 C 0.12607 0.20629 0.53177 0.0
C162 C 0.1059 0.28577 0.7237 0.0
C163 C 0.05712 0.23589 0.63335 0.0
C164 C 0.11156 0.20682 0.73375 0.0
C165 C 0.12137 0.28482 0.53401 0.0
O166 O 0.15842 0.24644 0.61532 0.0
O167 O 0.19342 0.24962 0.56051 0.0
O168 O 0.87516 0.28036 0.68507 0.0
Mn169 Mn 0.87924 0.25059 0.62422 0.0
O170 O 0.91688 0.28861 0.7137 0.0
Mn171 Mn 0.93201 0.25747 0.69057 0.0
O172 O 0.88478 0.22152 0.56388 0.0
O173 O 0.84039 0.24568 0.61624 0.0
Mn174 Mn 0.83266 0.24144 0.546 0.0
O175 O 0.87955 0.27917 0.56435 0.0
O176 O 0.84542 0.20811 0.533 0.0
O177 O 0.88066 0.2219 0.68617 0.0
O178 O 0.92047 0.22738 0.72681 0.0
O179 O 0.80292 0.25454 0.57832 0.0
O180 O 0.84936 0.2665 0.50335 0.0
C181 C 0.93938 0.25271 0.60376 0.0
C182 C 0.89232 0.29402 0.71239 0.0
C183 C 0.87035 0.2057 0.5356 0.0
C184 C 0.81818 0.25763 0.62014 0.0
C185 C 0.8681 0.28144 0.51814 0.0
C186 C 0.89844 0.21543 0.72145 0.0
O187 O 0.91726 0.25428 0.62728 0.0
O188 O 0.95869 0.25532 0.63754 0.0
O189 O 0.62285 0.7123 0.06573 0.0
Mn190 Mn 0.61894 0.74002 0.12649 0.0
O191 O 0.65319 0.72817 0.00885 0.0
Mn192 Mn 0.66634 0.75392 0.05507 0.0
O193 O 0.61303 0.76713 0.18987 0.0
O194 O 0.58135 0.73302 0.12353 0.0
Mn195 Mn 0.56529 0.7264 0.18415 0.0
O196 O 0.62391 0.71006 0.18656 0.0
O197 O 0.57345 0.75591 0.22625 0.0
O198 O 0.61239 0.76966 0.06747 0.0
O199 O 0.65133 0.786 0.04084 0.0
O200 O 0.5401 0.72676 0.12778 0.0
O201 O 0.58256 0.69617 0.2058 0.0
C202 C 0.68075 0.7382 0.12892 0.0
C203 C 0.63549 0.71155 0.02084 0.0
C204 C 0.59425 0.77018 0.22477 0.0
C205 C 0.55997 0.73196 0.09689 0.0
C206 C 0.60752 0.69397 0.20972 0.0
C207 C 0.62628 0.78662 0.04099 0.0
O208 O 0.65759 0.74839 0.12453 0.0
O209 O 0.69652 0.74335 0.0889 0.0
O210 O 0.61169 0.27709 0.94173 0.0
Mn211 Mn 0.61593 0.24822 0.88187 0.0
O212 O 0.65069 0.28607 0.97923 0.0
Mn213 Mn 0.66353 0.2538 0.9575 0.0
O214 O 0.61749 0.21886 0.82022 0.0
O215 O 0.57742 0.2476 0.87937 0.0
Mn216 Mn 0.56294 0.24865 0.81531 0.0
O217 O 0.61694 0.27772 0.82106 0.0
O218 O 0.57625 0.21815 0.78407 0.0
O219 O 0.61438 0.21931 0.94273 0.0
O220 O 0.65018 0.2255 0.99544 0.0
O221 O 0.53588 0.24833 0.86728 0.0
O222 O 0.57562 0.27989 0.78671 0.0
C223 C 0.68061 0.24913 0.88045 0.0
C224 C 0.6264 0.29088 0.97307 0.0
C225 C 0.59969 0.2091 0.78807 0.0
C226 C 0.55494 0.24778 0.90211 0.0
C227 C 0.59919 0.28841 0.79046 0.0
C228 C 0.62874 0.21365 0.98442 0.0
O229 O 0.65544 0.24918 0.88795 0.0
O230 O 0.69516 0.25159 0.92356 0.0
O231 O 0.87329 0.7135 0.31853 0.0
Mn232 Mn 0.87793 0.74307 0.37928 0.0
O233 O 0.91393 0.70873 0.28104 0.0
Mn234 Mn 0.93035 0.73757 0.31195 0.0
O235 O 0.88401 0.77241 0.43889 0.0
O236 O 0.83893 0.74853 0.38645 0.0
Mn237 Mn 0.83237 0.75482 0.45668 0.0
O238 O 0.87771 0.71465 0.43989 0.0
O239 O 0.8451 0.78841 0.46592 0.0
O240 O 0.87958 0.77207 0.31743 0.0
O241 O 0.92087 0.76988 0.2829 0.0
O242 O 0.80233 0.7402 0.42913 0.0
O243 O 0.85002 0.7313 0.50172 0.0
C244 C 0.93871 0.73601 0.39839 0.0
C245 C 0.8898 0.70204 0.28586 0.0
C246 C 0.87012 0.78952 0.46516 0.0
C247 C 0.81699 0.73575 0.38694 0.0
C248 C 0.86755 0.71481 0.48761 0.0
C249 C 0.89824 0.7807 0.2864 0.0
O250 O 0.91618 0.73848 0.37628 0.0
O251 O 0.9575 0.73423 0.36318 0.0
O252 O 0.53341 0.62492 0.56894 0.0
Mn253 Mn 0.50549 0.629 0.63327 0.0
O254 O 0.54168 0.66642 0.53996 0.0
Mn255 Mn 0.51216 0.68217 0.56928 0.0
O256 O 0.47788 0.63377 0.69695 0.0
O257 O 0.50005 0.58996 0.63835 0.0
Mn258 Mn 0.49776 0.58163 0.70883 0.0
O259 O 0.5358 0.62778 0.68904 0.0
O260 O 0.46469 0.59391 0.72542 0.0
O261 O 0.47497 0.63222 0.57549 0.0
O262 O 0.48008 0.67276 0.53812 0.0
O263 O 0.51036 0.55235 0.67443 0.0
O264 O 0.5237 0.59779 0.75043 0.0
C265 C 0.51106 0.68976 0.65619 0.0
C266 C 0.54657 0.64178 0.54015 0.0
C267 C 0.46226 0.61884 0.72475 0.0
C268 C 0.51223 0.56788 0.63281 0.0
C269 C 0.53886 0.61611 0.73463 0.0
C270 C 0.46754 0.65108 0.54368 0.0
O271 O 0.51024 0.66736 0.63288 0.0
O272 O 0.51381 0.70882 0.6219 0.0
O273 O 0.9665 0.37125 0.0635 0.0
Mn274 Mn 0.99536 0.36607 0.12572 0.0
O275 O 0.95884 0.33031 0.02986 0.0
Mn276 Mn 0.98796 0.31361 0.0589 0.0
O277 O 0.02372 0.35967 0.18705 0.0
O278 O 0.00154 0.40486 0.13258 0.0
Mn279 Mn 0.00776 0.41182 0.20256 0.0
O280 O 0.96642 0.36743 0.18488 0.0
O281 O 0.04097 0.39827 0.21233 0.0
O282 O 0.02494 0.36325 0.06574 0.0
O283 O 0.02019 0.32272 0.02824 0.0
O284 O 0.99351 0.44184 0.17421 0.0
O285 O 0.98377 0.39463 0.24703 0.0
C286 C 0.98885 0.30549 0.14573 0.0
C287 C 0.95368 0.35487 0.03274 0.0
C288 C 0.04104 0.37324 0.21341 0.0
C289 C 0.98883 0.42683 0.13259 0.0
C290 C 0.96681 0.3776 0.23262 0.0
C291 C 0.03247 0.34455 0.03362 0.0
O292 O 0.9899 0.32795 0.12303 0.0
O293 O 0.98593 0.28665 0.11089 0.0
O294 O 0.5293 0.36983 0.44094 0.0
Mn295 Mn 0.50091 0.36451 0.37877 0.0
O296 O 0.53087 0.33061 0.48515 0.0
Mn297 Mn 0.50352 0.31338 0.45037 0.0
O298 O 0.47317 0.35745 0.31694 0.0
O299 O 0.49721 0.40351 0.36981 0.0
Mn300 Mn 0.4936 0.41147 0.30024 0.0
O301 O 0.53039 0.36436 0.31999 0.0
O302 O 0.46299 0.39574 0.27681 0.0
O303 O 0.47067 0.36418 0.43837 0.0
O304 O 0.46997 0.32286 0.47255 0.0
O305 O 0.49305 0.44305 0.33598 0.0
O306 O 0.52402 0.39971 0.26624 0.0
C307 C 0.51054 0.30328 0.36608 0.0
C308 C 0.53896 0.35411 0.4773 0.0
C309 C 0.45939 0.37126 0.28359 0.0
C310 C 0.49644 0.42846 0.37866 0.0
C311 C 0.53667 0.37893 0.27916 0.0
C312 C 0.46024 0.34593 0.46803 0.0
O313 O 0.5051 0.32609 0.38466 0.0
O314 O 0.5108 0.28535 0.40337 0.0
O315 O 0.967 0.62176 0.93848 0.0
Mn316 Mn -0.00427 0.62645 0.87624 0.0
O317 O 0.96506 0.6616 0.98052 0.0
Mn318 Mn 0.99285 0.67828 0.94624 0.0
O319 O 0.02381 0.63356 0.81515 0.0
O320 O -0.00067 0.58703 0.86787 0.0
Mn321 Mn 0.00467 0.58087 0.79761 0.0
O322 O 0.96653 0.62678 0.81674 0.0
O323 O 0.03621 0.59556 0.7777 0.0
O324 O 0.02573 0.62704 0.93624 0.0
O325 O 0.02613 0.66858 0.96966 0.0
O326 O 0.00468 0.54845 0.82793 0.0
O327 O 0.97564 0.59333 0.75972 0.0
C328 C 0.98732 0.68747 0.86102 0.0
C329 C 0.95712 0.63796 0.9739 0.0
C330 C 0.03883 0.62014 0.78348 0.0
C331 C 0.0007 0.56168 0.87237 0.0
C332 C 0.96204 0.61339 0.77326 0.0
C333 C 0.036 0.64554 0.96557 0.0
O334 O 0.99165 0.66481 0.88124 0.0
O335 O 0.98685 0.70588 0.89732 0.0
H336 H 0.08988 0.14828 0.0413 0.0
H337 H 0.09774 0.15591 0.71938 0.0
H338 H 0.03669 0.1092 0.93142 0.0
H339 H 0.13869 0.20759 0.8294 0.0
H340 H 0.08813 0.12635 0.79555 0.0
H341 H 0.11971 0.15687 0.96501 0.0
C342 C 0.0852 0.14014 1.00162 0.0
C343 C 0.06088 0.12771 0.99288 0.0
C344 C 0.10016 0.14358 0.80281 0.0
C345 C 0.09436 0.13863 0.90456 0.0
C346 C 0.10615 0.16023 0.75901 0.0
C347 C 0.1193 0.18416 0.76786 0.0
C348 C 0.10725 0.15099 0.85606 0.0
C349 C 0.12884 0.18918 0.82057 0.0
C350 C 0.10203 0.14549 0.95778 0.0
C351 C 0.05542 0.11846 0.94014 0.0
N352 N 0.12214 0.1731 0.86283 0.0
N353 N 0.07169 0.12458 0.89783 0.0
H354 H 0.13916 0.78888 0.19562 0.0
H355 H 0.09739 0.8466 0.96104 0.0
H356 H 0.0864 0.84073 0.28076 0.0
H357 H 0.03682 0.88061 0.06106 0.0
H358 H 0.12438 0.83972 0.04204 0.0
H359 H 0.13347 0.81515 0.11347 0.0
C360 C 0.12757 0.80675 0.19784 0.0
C361 C 0.11338 0.81266 0.24526 0.0
C362 C 0.10543 0.84907 0.04678 0.0
C363 C 0.10567 0.84275 0.15016 0.0
C364 C 0.09028 0.85374 0.99997 0.0
C365 C 0.06483 0.86432 0.00415 0.0
C366 C 0.09471 0.85431 0.09859 0.0
C367 C 0.05643 0.87266 0.05581 0.0
C368 C 0.12391 0.82174 0.15032 0.0
C369 C 0.09788 0.83558 0.24515 0.0
N370 N 0.07098 0.86688 0.10101 0.0
N371 N 0.09396 0.84933 0.19822 0.0
H372 H 0.41328 0.83905 0.21143 0.0
H373 H 0.40676 0.84583 0.53295 0.0
H374 H 0.36285 0.79098 0.31077 0.0
H375 H 0.46578 0.88368 0.43499 0.0
H376 H 0.38005 0.8388 0.45116 0.0
H377 H 0.42122 0.86789 0.2896 0.0
C378 C 0.40265 0.83543 0.24895 0.0
C379 C 0.38719 0.81267 0.25439 0.0
C380 C 0.39835 0.84957 0.44765 0.0
C381 C 0.39727 0.8449 0.3452 0.0
C382 C 0.4134 0.85405 0.49462 0.0
C383 C 0.43841 0.86565 0.49094 0.0
C384 C 0.40852 0.85644 0.39635 0.0
C385 C 0.44644 0.87505 0.43982 0.0
C386 C 0.4076 0.85164 0.29397 0.0
C387 C 0.37459 0.8085 0.30452 0.0
N388 N 0.43186 0.86973 0.39441 0.0
N389 N 0.3804 0.82404 0.3483 0.0
H390 H 0.36002 0.20886 0.69278 0.0
H391 H 0.45821 0.1092 0.5551 0.0
H392 H 0.41063 0.15619 0.78145 0.0
H393 H 0.40768 0.1623 0.46724 0.0
H394 H 0.43097 0.11555 0.6366 0.0
H395 H 0.36638 0.18206 0.61075 0.0
C396 C 0.37128 0.1908 0.69573 0.0
C397 C 0.38466 0.18462 0.74407 0.0
C398 C 0.42521 0.1251 0.599 0.0
C399 C 0.39326 0.15453 0.64966 0.0
C400 C 0.44057 0.1211 0.55217 0.0
C401 C 0.43518 0.13524 0.50439 0.0
C402 C 0.40451 0.14359 0.59801 0.0
C403 C 0.41246 0.15099 0.50331 0.0
C404 C 0.37533 0.1757 0.64858 0.0
C405 C 0.39974 0.16146 0.74509 0.0
N406 N 0.39834 0.15519 0.5496 0.0
N407 N 0.40414 0.14764 0.6984 0.0
H408 H 0.92129 0.82882 0.2874 0.0
H409 H 0.91804 0.82467 0.96894 0.0
H410 H 0.86771 0.78061 0.19524 0.0
H411 H 0.96619 0.87824 0.06124 0.0
H412 H 0.8906 0.81753 0.04944 0.0
H413 H 0.92865 0.85602 0.20667 0.0
C414 C 0.91013 0.82473 0.25069 0.0
C415 C 0.89374 0.80257 0.248 0.0
C416 C 0.90658 0.83156 0.05186 0.0
C417 C 0.90318 0.83268 0.15433 0.0
C418 C 0.92206 0.83588 0.0056 0.0
C419 C 0.94423 0.85225 0.00841 0.0
C420 C 0.91383 0.84309 0.10181 0.0
C421 C 0.94904 0.86574 0.05727 0.0
C422 C 0.91458 0.84007 0.2043 0.0
C423 C 0.88025 0.79773 0.19913 0.0
N424 N 0.93436 0.8604 0.10239 0.0
N425 N 0.88577 0.81223 0.15384 0.0
H426 H 0.86819 0.21701 0.81276 0.0
H427 H 0.96148 0.11072 0.94552 0.0
H428 H 0.92049 0.16675 0.72227 0.0
H429 H 0.9103 0.16185 0.03663 0.0
H430 H 0.93647 0.12081 0.86276 0.0
H431 H 0.8734 0.18829 0.89237 0.0
C432 C 0.87979 0.19921 0.80897 0.0
C433 C 0.89369 0.19401 0.76083 0.0
C434 C 0.93 0.12908 0.90117 0.0
C435 C 0.90058 0.1615 0.85218 0.0
C436 C 0.94401 0.12285 0.94872 0.0
C437 C 0.93795 0.13547 0.99799 0.0
C438 C 0.90998 0.14823 0.903 0.0
C439 C 0.91555 0.15165 0.99942 0.0
C440 C 0.88304 0.18294 0.8546 0.0
C441 C 0.90922 0.17122 0.75856 0.0
N442 N 0.9028 0.15809 0.95248 0.0
N443 N 0.91256 0.15604 0.80374 0.0
H444 H 0.63298 0.21037 0.70087 0.0
H445 H 0.53587 0.11077 0.55449 0.0
H446 H 0.57744 0.16066 0.78383 0.0
H447 H 0.58369 0.16805 0.47182 0.0
H448 H 0.56214 0.11749 0.63736 0.0
H449 H 0.62685 0.18405 0.6179 0.0
C450 C 0.62056 0.19307 0.70244 0.0
C451 C 0.60576 0.18763 0.7493 0.0
C452 C 0.56755 0.12791 0.60056 0.0
C453 C 0.59774 0.15802 0.654 0.0
C454 C 0.55277 0.12374 0.55296 0.0
C455 C 0.55769 0.1388 0.50621 0.0
C456 C 0.58724 0.14743 0.60137 0.0
C457 C 0.57936 0.15594 0.50699 0.0
C458 C 0.6167 0.17826 0.65477 0.0
C459 C 0.58933 0.16541 0.74857 0.0
N460 N 0.59299 0.16015 0.55399 0.0
N461 N 0.58536 0.15177 0.70149 0.0
H462 H 0.53633 0.87588 0.45112 0.0
H463 H 0.59972 0.75552 0.32863 0.0
H464 H 0.58505 0.82457 0.54752 0.0
H465 H 0.59518 0.82465 0.22767 0.0
H466 H 0.59674 0.78309 0.40952 0.0
H467 H 0.56117 0.863 0.36958 0.0
C468 C 0.55331 0.86316 0.45567 0.0
C469 C 0.55853 0.85102 0.50593 0.0
C470 C 0.59723 0.79248 0.36992 0.0
C471 C 0.58617 0.83544 0.41297 0.0
C472 C 0.59888 0.7767 0.32374 0.0
C473 C 0.59793 0.78791 0.2717 0.0
C474 C 0.59382 0.81976 0.3643 0.0
C475 C 0.5962 0.81539 0.26733 0.0
C476 C 0.56727 0.85554 0.40895 0.0
C477 C 0.58034 0.83424 0.50941 0.0
N478 N 0.59359 0.83045 0.31321 0.0
N479 N 0.59285 0.82631 0.46333 0.0
H480 H 0.59818 0.64127 0.21292 0.0
H481 H 0.54044 0.60861 0.45333 0.0
H482 H 0.63283 0.70446 0.30507 0.0
H483 H 0.59683 0.6591 0.53204 0.0
H484 H 0.56546 0.61196 0.3689 0.0
H485 H 0.59168 0.61659 0.29713 0.0
C486 C 0.60547 0.64946 0.25083 0.0
C487 C 0.61604 0.67501 0.25192 0.0
C488 C 0.57328 0.62141 0.40489 0.0
C489 C 0.60663 0.64778 0.34961 0.0
C490 C 0.55895 0.61919 0.4536 0.0
C491 C 0.56659 0.63351 0.4998 0.0
C492 C 0.59537 0.63825 0.40244 0.0
C493 C 0.59031 0.64765 0.4973 0.0
C494 C 0.60106 0.63565 0.29934 0.0
C495 C 0.62481 0.68477 0.30224 0.0
N496 N 0.60347 0.65015 0.4493 0.0
N497 N 0.61928 0.67147 0.34912 0.0
H498 H 0.63314 0.28837 0.70427 0.0
H499 H 0.53503 0.3867 0.56499 0.0
H500 H 0.57752 0.33707 0.78987 0.0
H501 H 0.58939 0.33724 0.47794 0.0
H502 H 0.56127 0.38076 0.64784 0.0
H503 H 0.62855 0.31685 0.62412 0.0
C504 C 0.62099 0.30584 0.70707 0.0
C505 C 0.60564 0.3104 0.75357 0.0
C506 C 0.56812 0.37199 0.6102 0.0
C507 C 0.59946 0.34253 0.66164 0.0
C508 C 0.55334 0.37582 0.5626 0.0
C509 C 0.56008 0.36243 0.51467 0.0
C510 C 0.58947 0.35428 0.60982 0.0
C511 C 0.58362 0.34797 0.51418 0.0
C512 C 0.61807 0.32195 0.66106 0.0
C513 C 0.58969 0.33293 0.75467 0.0
N514 N 0.59707 0.34367 0.5613 0.0
N515 N 0.5866 0.34782 0.7091 0.0
H516 H 0.90102 0.34586 0.03622 0.0
H517 H 0.85956 0.29 0.80003 0.0
H518 H 0.96149 0.38036 0.93678 0.0
H519 H 0.91028 0.34423 0.71614 0.0
H520 H 0.86514 0.31543 0.88336 0.0
H521 H 0.8736 0.34011 0.95538 0.0
C522 C 0.90803 0.35331 0.9975 0.0
C523 C 0.93354 0.36372 0.99331 0.0
C524 C 0.87422 0.32272 0.84657 0.0
C525 C 0.90317 0.35508 0.89913 0.0
C526 C 0.87063 0.30819 0.79842 0.0
C527 C 0.88446 0.31497 0.75107 0.0
C528 C 0.89193 0.34415 0.84732 0.0
C529 C 0.89922 0.33835 0.75182 0.0
C530 C 0.89263 0.34933 0.9508 0.0
C531 C 0.94183 0.37252 0.94198 0.0
N532 N 0.9031 0.35165 0.79933 0.0
N533 N 0.92701 0.36742 0.89682 0.0
H534 H 0.89907 0.64954 0.29363 0.0
H535 H 0.96152 0.60778 0.065 0.0
H536 H 0.86581 0.70825 0.18787 0.0
H537 H 0.90638 0.65407 0.97287 0.0
H538 H 0.93468 0.61405 0.14614 0.0
H539 H 0.90714 0.62137 0.21471 0.0
C540 C 0.89233 0.65597 0.25389 0.0
C541 C 0.88162 0.68124 0.24739 0.0
C542 C 0.92749 0.62187 0.10799 0.0
C543 C 0.89294 0.65006 0.15568 0.0
C544 C 0.94284 0.61791 0.06117 0.0
C545 C 0.93601 0.6301 0.01193 0.0
C546 C 0.90522 0.63846 0.10561 0.0
C547 C 0.91215 0.644 0.00989 0.0
C548 C 0.89768 0.64017 0.20837 0.0
C549 C 0.87383 0.68879 0.19482 0.0
N550 N 0.898 0.64832 0.05617 0.0
N551 N 0.88021 0.6736 0.15096 0.0
H552 H 0.41192 0.32305 0.46973 0.0
H553 H 0.41891 0.33369 0.78561 0.0
H554 H 0.45999 0.37949 0.5546 0.0
H555 H 0.36447 0.2834 0.70059 0.0
H556 H 0.42406 0.36009 0.70313 0.0
H557 H 0.38472 0.31814 0.55124 0.0
C558 C 0.416 0.33531 0.50488 0.0
C559 C 0.43821 0.3517 0.50546 0.0
C560 C 0.41027 0.34385 0.70272 0.0
C561 C 0.40809 0.34509 0.6002 0.0
C562 C 0.40709 0.32895 0.75015 0.0
C563 C 0.39128 0.30632 0.74985 0.0
C564 C 0.39818 0.33558 0.65409 0.0
C565 C 0.37675 0.30079 0.7026 0.0
C566 C 0.40065 0.33229 0.55176 0.0
C567 C 0.44291 0.36679 0.55235 0.0
N568 N 0.38111 0.31485 0.65615 0.0
N569 N 0.42847 0.36258 0.59833 0.0
H570 H 0.42397 0.68165 0.54479 0.0
H571 H 0.41043 0.65934 0.23326 0.0
H572 H 0.45888 0.61583 0.46133 0.0
H573 H 0.36629 0.71751 0.32198 0.0
H574 H 0.4177 0.63515 0.31801 0.0
H575 H 0.39316 0.6873 0.46927 0.0
C576 C 0.42442 0.66773 0.51131 0.0
C577 C 0.44392 0.64824 0.50915 0.0
C578 C 0.40555 0.65264 0.31892 0.0
C579 C 0.40954 0.65532 0.42107 0.0
C580 C 0.40104 0.66624 0.27025 0.0
C581 C 0.38771 0.69041 0.2707 0.0
C582 C 0.39729 0.66375 0.36854 0.0
C583 C 0.37651 0.69883 0.31989 0.0
C584 C 0.40693 0.67106 0.4679 0.0
C585 C 0.44398 0.63098 0.46459 0.0
N586 N 0.3822 0.68596 0.36711 0.0
N587 N 0.42751 0.63533 0.42161 0.0
H588 H 0.13576 0.71062 0.19362 0.0
H589 H 0.03773 0.61113 0.05052 0.0
H590 H 0.07729 0.66426 0.27632 0.0
H591 H 0.08334 0.67022 0.96787 0.0
H592 H 0.06508 0.61732 0.132 0.0
H593 H 0.12997 0.68312 0.11219 0.0
C594 C 0.12272 0.69379 0.19552 0.0
C595 C 0.107 0.68963 0.24159 0.0
C596 C 0.06979 0.62822 0.09537 0.0
C597 C 0.09953 0.65871 0.14831 0.0
C598 C 0.05439 0.62439 0.0486 0.0
C599 C 0.05828 0.64025 1.00259 0.0
C600 C 0.0891 0.64808 0.09592 0.0
C601 C 0.07974 0.65762 1.00266 0.0
C602 C 0.11912 0.6783 0.14881 0.0
C603 C 0.08985 0.66799 0.24153 0.0
N604 N 0.09402 0.66146 0.04891 0.0
N605 N 0.08619 0.65366 0.1953 0.0
H606 H 0.08915 0.33652 0.72329 0.0
H607 H 0.07673 0.31489 0.03405 0.0
H608 H 0.13719 0.28182 0.81275 0.0
H609 H 0.04006 0.37985 0.95099 0.0
H610 H 0.1078 0.31028 0.95876 0.0
H611 H 0.08108 0.36101 0.80736 0.0
C612 C 0.09926 0.33054 0.76018 0.0
C613 C 0.1138 0.30706 0.7611 0.0
C614 C 0.09355 0.32612 0.95743 0.0
C615 C 0.10331 0.334 0.85832 0.0
C616 C 0.0759 0.32883 1.00068 0.0
C617 C 0.05588 0.34779 0.99863 0.0
C618 C 0.09062 0.3419 0.91078 0.0
C619 C 0.05536 0.3651 0.95419 0.0
C620 C 0.09426 0.34428 0.80853 0.0
C621 C 0.12596 0.29989 0.81022 0.0
N622 N 0.07203 0.36133 0.91134 0.0
N623 N 0.11974 0.31276 0.8572 0.0
H624 H 0.03808 0.30643 0.18678 0.0
H625 H 0.9771 0.18662 0.2233 0.0
H626 H 0.95778 0.29057 0.23101 0.0
H627 H 0.0563 0.20371 0.17468 0.0
H628 H 0.98051 0.21934 0.2955 0.0
H629 H 0.05276 0.27464 0.25426 0.0
C630 C 0.02355 0.29711 0.21266 0.0
C631 C -0.00333 0.30009 0.20192 0.0
C632 C -0.00227 0.21521 0.27091 0.0
C633 C 0.01316 0.26139 0.27334 0.0
C634 C -0.00437 0.19638 0.2297 0.0
C635 C 0.01585 0.19365 0.19166 0.0
C636 C 0.01916 0.23277 0.26975 0.0
C637 C 0.03972 0.2064 0.20182 0.0
C638 C 0.03189 0.27877 0.25122 0.0
C639 C 0.97873 0.28784 0.23673 0.0
N640 N 0.04061 0.22596 0.23942 0.0
N641 N 0.98724 0.26831 0.27012 0.0
H642 H 0.94466 0.69555 0.46974 0.0
H643 H 0.05234 0.78592 0.47364 0.0
H644 H 0.94697 0.7799 0.45837 0.0
H645 H 0.04703 0.70368 0.43384 0.0
H646 H 0.0204 0.77936 0.54674 0.0
H647 H 0.9788 0.69722 0.53956 0.0
C648 C 0.95122 0.71455 0.48441 0.0
C649 C 0.94409 0.73755 0.4568 0.0
C650 C 0.02733 0.76236 0.52428 0.0
C651 C 0.98456 0.73935 0.5319 0.0
C652 C 0.04556 0.76618 0.4824 0.0
C653 C 0.05131 0.74548 0.44675 0.0
C654 C 0.01364 0.73829 0.52685 0.0
C655 C 0.04209 0.72034 0.45942 0.0
C656 C 0.97079 0.71557 0.52441 0.0
C657 C 0.95298 0.7616 0.47727 0.0
N658 N 0.02332 0.71745 0.49813 0.0
N659 N 0.97324 0.76195 0.51327 0.0
H660 H 0.54127 0.70604 0.74171 0.0
H661 H 0.43693 0.789 0.68643 0.0
H662 H 0.46173 0.68724 0.6963 0.0
H663 H 0.51576 0.81008 0.73221 0.0
H664 H 0.43594 0.75697 0.75998 0.0
H665 H 0.52462 0.73855 0.80627 0.0
C666 C 0.52021 0.70779 0.74753 0.0
C667 C 0.5028 0.69494 0.71224 0.0
C668 C 0.45324 0.76926 0.75574 0.0
C669 C 0.48382 0.73358 0.78155 0.0
C670 C 0.45368 0.78767 0.71366 0.0
C671 C 0.47707 0.80095 0.7016 0.0
C672 C 0.47727 0.76216 0.78031 0.0
C673 C 0.4978 0.79919 0.73882 0.0
C674 C 0.5106 0.72647 0.78429 0.0
C675 C 0.47581 0.69758 0.72162 0.0
N676 N 0.4979 0.77921 0.7756 0.0
N677 N 0.46704 0.71715 0.75455 0.0
H678 H 0.53844 0.28537 0.97328 0.0
H679 H 0.45714 0.18778 0.93242 0.0
H680 H 0.55859 0.2035 0.96261 0.0
H681 H 0.43535 0.26563 0.98269 0.0
H682 H 0.48763 0.18524 0.00863 0.0
H683 H 0.50611 0.27498 0.04304 0.0
C684 C 0.53695 0.26528 0.98774 0.0
C685 C 0.55012 0.24498 0.9606 0.0
C686 C 0.47565 0.20276 0.00457 0.0
C687 C 0.51113 0.23263 0.03474 0.0
C688 C 0.45809 0.20406 0.9609 0.0
C689 C 0.4453 0.22777 0.94939 0.0
C690 C 0.48247 0.22633 0.03143 0.0
C691 C 0.44627 0.24769 0.98853 0.0
C692 C 0.51832 0.25919 0.02753 0.0
C693 C 0.54808 0.21954 0.98164 0.0
N694 N 0.46548 0.24706 0.02709 0.0
N695 N 0.52818 0.2138 0.01655 0.0
H696 H 0.95686 0.80174 0.81638 0.0
H697 H 0.02656 0.69246 0.78796 0.0
H698 H 0.03821 0.79586 0.76992 0.0
H699 H 0.94255 0.69796 0.80417 0.0
H700 H 0.02496 0.72409 0.71389 0.0
H701 H 0.94546 0.77021 0.7456 0.0
C702 C 0.97222 0.79452 0.78962 0.0
C703 C -0.00138 0.80026 0.80028 0.0
C704 C 0.00655 0.71776 0.73182 0.0
C705 C 0.98624 0.76176 0.72487 0.0
C706 C 0.00756 0.69938 0.77393 0.0
C707 C 0.98476 0.69333 0.803 0.0
C708 C 0.98333 0.73256 0.72502 0.0
C709 C 0.96072 0.70289 0.7836 0.0
C710 C 0.96579 0.77638 0.7491 0.0
C711 C 0.01767 0.79095 0.76409 0.0
N712 N 0.96061 0.7227 0.74652 0.0
N713 N 0.01124 0.77146 0.7286 0.0
H714 H 0.55521 0.78093 0.05461 0.0
H715 H 0.44629 0.78781 0.04564 0.0
H716 H 0.55638 0.6995 0.00762 0.0
H717 H 0.45881 0.7048 0.06736 0.0
H718 H 0.47779 0.78754 0.97004 0.0
H719 H 0.52207 0.78936 0.98589 0.0
C720 C 0.54938 0.765 0.02783 0.0
C721 C 0.5568 0.73912 0.03947 0.0
C722 C 0.47294 0.76913 0.98979 0.0
C723 C 0.51646 0.74782 0.96692 0.0
C724 C 0.45477 0.76929 0.03263 0.0
C725 C 0.45078 0.74643 0.06334 0.0
C726 C 0.48798 0.74625 0.98046 0.0
C727 C 0.46209 0.72298 0.04541 0.0
C728 C 0.53004 0.76967 0.98856 0.0
C729 C 0.54946 0.71949 1.00247 0.0
N730 N 0.48044 0.72354 0.0055 0.0
N731 N 0.52915 0.72414 0.96767 0.0
H732 H 0.4582 0.2013 0.27861 0.0
H733 H 0.55608 0.28603 0.32149 0.0
H734 H 0.54051 0.18396 0.29458 0.0
H735 H 0.47566 0.30419 0.28222 0.0
H736 H 0.55752 0.25537 0.24553 0.0
H737 H 0.46847 0.23384 0.20946 0.0
C738 C 0.47839 0.20322 0.26517 0.0
C739 C 0.49873 0.19081 0.29376 0.0
C740 C 0.53971 0.26671 0.25169 0.0
C741 C 0.51077 0.23044 0.22106 0.0
C742 C 0.53902 0.28435 0.29517 0.0
C743 C 0.51543 0.29688 0.30886 0.0
C744 C 0.51577 0.25922 0.22719 0.0
C745 C 0.49406 0.29433 0.27345 0.0
C746 C 0.48443 0.22211 0.22587 0.0
C747 C 0.52438 0.19379 0.27436 0.0
N748 N 0.49438 0.27507 0.23501 0.0
N749 N 0.52992 0.21398 0.24006 0.0
H750 H 0.04288 0.1886 0.59105 0.0
H751 H 0.95059 0.28172 0.51306 0.0
H752 H 0.04932 0.27089 0.55335 0.0
H753 H 0.93831 0.20224 0.56721 0.0
H754 H 0.98353 0.26585 0.44889 0.0
H755 H 0.01211 0.18322 0.51508 0.0
C756 C 0.03863 0.20528 0.56503 0.0
C757 C 0.04818 0.2303 0.57816 0.0
C758 C 0.97281 0.25154 0.47289 0.0
C759 C 0.0117 0.22484 0.49457 0.0
C760 C 0.95393 0.26073 0.5096 0.0
C761 C 0.94338 0.24341 0.54803 0.0
C762 C 0.98315 0.22613 0.48135 0.0
C763 C 0.9476 0.21646 0.54059 0.0
C764 C 0.02122 0.20225 0.52141 0.0
C765 C 0.04231 0.2513 0.54386 0.0
N766 N 0.96777 0.20846 0.50841 0.0
N767 N 0.02408 0.24824 0.50399 0.0
H768 H 0.96622 0.01808 0.11843 0.0
H769 H 0.04596 0.96586 0.86964 0.0
H770 H 0.0327 0.06119 0.05598 0.0
H771 H -0.00339 0.91701 0.97039 0.0
H772 H 0.04687 -0.00099 0.94145 0.0
H773 H 0.97819 0.98079 0.06183 0.0
C774 C 0.9829 0.01988 0.09113 0.0
C775 C -0.00161 0.0426 0.09096 0.0
C776 C 0.03657 0.9807 0.94863 0.0
C777 C 0.01297 -0.00024 0.02819 0.0
C778 C 0.03626 0.96168 0.90801 0.0
C779 C 0.02024 0.93941 0.91377 0.0
C780 C 0.0205 0.97718 0.99435 0.0
C781 C 0.00857 0.93437 0.96412 0.0
C782 C 0.99015 -0.0016 0.06003 0.0
C783 C 0.02005 0.04405 0.05603 0.0
N784 N 0.00817 0.95367 1.00217 0.0
N785 N 0.02687 0.02268 0.02587 0.0
H786 H 0.18192 0.78259 0.30598 0.0
H787 H 0.32985 0.74812 0.22796 0.0
H788 H 0.2302 0.72004 0.3705 0.0
H789 H 0.27628 0.78327 0.11264 0.0
H790 H 0.29764 0.75602 0.30026 0.0
H791 H 0.21933 0.79636 0.2482 0.0
C792 C 0.20014 0.77154 0.30705 0.0
C793 C 0.2032 0.75015 0.3424 0.0
C794 C 0.29332 0.76275 0.25932 0.0
C795 C 0.24573 0.76652 0.28046 0.0
C796 C 0.31176 0.75843 0.21842 0.0
C797 C 0.3049 0.76401 0.16463 0.0
C798 C 0.2682 0.77234 0.24533 0.0
C799 C 0.28154 0.77776 0.15388 0.0
C800 C 0.22151 0.77972 0.27539 0.0
C801 C 0.22721 0.7367 0.34368 0.0
N802 N 0.26348 0.78082 0.19382 0.0
N803 N 0.2476 0.74521 0.31345 0.0
H804 H 0.4607 0.06229 0.45021 0.0
H805 H 0.5058 0.91833 0.53475 0.0
H806 H 0.53394 0.02494 0.40727 0.0
H807 H 0.44937 0.96205 0.62972 0.0
H808 H 0.5049 0.95307 0.46614 0.0
H809 H 0.44929 0.0237 0.50576 0.0
C810 C 0.47486 0.04649 0.45476 0.0
C811 C 0.49829 0.04651 0.42495 0.0
C812 C 0.49217 0.9547 0.50137 0.0
C813 C 0.48479 0.00229 0.48392 0.0
C814 C 0.49228 0.93465 0.53979 0.0
C815 C 0.47853 0.93825 0.58842 0.0
C816 C 0.4782 0.97798 0.51256 0.0
C817 C 0.46094 0.95936 0.59307 0.0
C818 C 0.46803 0.02426 0.48481 0.0
C819 C 0.51578 0.02548 0.43036 0.0
N820 N 0.46188 0.97912 0.55627 0.0
N821 N 0.50846 0.00391 0.45852 0.0
H822 H 0.32858 0.25187 0.77884 0.0
H823 H 0.18069 0.2167 0.70039 0.0
H824 H 0.27733 0.20579 0.88108 0.0
H825 H 0.2305 0.27193 0.6158 0.0
H826 H 0.21804 0.20527 0.75956 0.0
H827 H 0.29646 0.24821 0.7049 0.0
C828 C 0.31104 0.24011 0.78479 0.0
C829 C 0.30485 0.2299 0.8359 0.0
C830 C 0.22067 0.21992 0.72801 0.0
C831 C 0.26801 0.22648 0.75377 0.0
C832 C 0.19927 0.22683 0.69537 0.0
C833 C 0.20271 0.24535 0.65395 0.0
C834 C 0.24532 0.2317 0.71851 0.0
C835 C 0.22721 0.25755 0.64764 0.0
C836 C 0.29253 0.23833 0.74312 0.0
C837 C 0.28214 0.2146 0.84215 0.0
N838 N 0.24764 0.25043 0.67945 0.0
N839 N 0.26404 0.21391 0.80185 0.0
H840 H 0.70823 0.20877 0.84032 0.0
H841 H 0.7878 0.3 0.63905 0.0
H842 H 0.68431 0.28849 0.80766 0.0
H843 H 0.81977 0.23055 0.71486 0.0
H844 H 0.75024 0.29814 0.70084 0.0
H845 H 0.74711 0.21529 0.78373 0.0
C846 C 0.71062 0.22724 0.81884 0.0
C847 C 0.69326 0.24809 0.82784 0.0
C848 C 0.76582 0.28374 0.70504 0.0
C849 C 0.73816 0.25634 0.76673 0.0
C850 C 0.78748 0.28514 0.67071 0.0
C851 C 0.80635 0.26508 0.67164 0.0
C852 C 0.76324 0.26194 0.73952 0.0
C853 C 0.80533 0.24621 0.71288 0.0
C854 C 0.73316 0.23126 0.78811 0.0
C855 C 0.69727 0.2719 0.80065 0.0
N856 N 0.78351 0.24455 0.74433 0.0
N857 N 0.71971 0.27561 0.77179 0.0
H858 H 0.78854 0.69106 0.38123 0.0
H859 H 0.69251 0.76949 0.21308 0.0
H860 H 0.81564 0.7568 0.28573 0.0
H861 H 0.69836 0.68969 0.15504 0.0
H862 H 0.73134 0.76211 0.27024 0.0
H863 H 0.75146 0.68545 0.31807 0.0
C864 C 0.78738 0.70341 0.34532 0.0
C865 C 0.80476 0.7246 0.33852 0.0
C866 C 0.72351 0.74601 0.2462 0.0
C867 C 0.76233 0.71913 0.26916 0.0
C868 C 0.70106 0.74997 0.21498 0.0
C869 C 0.69235 0.73004 0.18014 0.0
C870 C 0.73671 0.72186 0.24305 0.0
C871 C 0.70455 0.70531 0.18224 0.0
C872 C 0.76615 0.70038 0.30997 0.0
C873 C 0.8025 0.74032 0.29211 0.0
N874 N 0.72652 0.70185 0.21297 0.0
N875 N 0.78089 0.73792 0.26005 0.0
H876 H 0.4805 0.56698 0.54473 0.0
H877 H 0.54407 0.43795 0.42266 0.0
H878 H 0.55528 0.53981 0.60565 0.0
H879 H 0.46093 0.45004 0.44542 0.0
H880 H 0.55288 0.47746 0.47753 0.0
H881 H 0.47863 0.52875 0.4844 0.0
C882 C 0.4972 0.55373 0.54309 0.0
C883 C 0.51789 0.55605 0.58028 0.0
C884 C 0.53278 0.47096 0.47171 0.0
C885 C 0.51547 0.51227 0.51383 0.0
C886 C 0.52779 0.44817 0.44182 0.0
C887 C 0.50177 0.44089 0.43051 0.0
C888 C 0.51149 0.48639 0.48893 0.0
C889 C 0.48122 0.45506 0.45411 0.0
C890 C 0.49581 0.5316 0.50991 0.0
C891 C 0.53894 0.5383 0.57743 0.0
N892 N 0.48648 0.47758 0.48143 0.0
N893 N 0.537 0.51663 0.54546 0.0
H894 H 0.03591 0.53083 0.92057 0.0
H895 H 0.94848 0.46136 0.12873 0.0
H896 H 0.95566 0.55769 0.93141 0.0
H897 H 0.00386 0.41975 0.02737 0.0
H898 H 0.9467 0.49671 0.06131 0.0
H899 H 0.02442 0.49227 0.97433 0.0
C900 C 0.01608 0.52902 0.9364 0.0
C901 C -0.00331 0.54727 0.92246 0.0
C902 C 0.95838 0.47936 0.05287 0.0
C903 C 0.98308 0.50283 0.98068 0.0
C904 C 0.95923 0.45911 0.09088 0.0
C905 C 0.97715 0.43838 0.08402 0.0
C906 C 0.9759 0.47859 0.00901 0.0
C907 C 0.99034 0.43587 0.03445 0.0
C908 C 0.00934 0.50672 0.96543 0.0
C909 C 0.97111 0.54403 0.94254 0.0
N910 N 0.99028 0.45643 0.99941 0.0
N911 N 0.96485 0.52189 0.97073 0.0
H912 H 0.08366 0.09499 0.27663 0.0
H913 H 0.0783 0.21312 0.49034 0.0
H914 H 0.03085 0.16099 0.27071 0.0
H915 H 0.14511 0.16125 0.48396 0.0
H916 H 0.05787 0.18897 0.4165 0.0
H917 H 0.10549 0.11505 0.35654 0.0
C918 C 0.07728 0.11409 0.29107 0.0
C919 C 0.05627 0.12718 0.26571 0.0
C920 C 0.07677 0.18236 0.43167 0.0
C921 C 0.07996 0.14935 0.3572 0.0
C922 C 0.08798 0.19571 0.47501 0.0
C923 C 0.11262 0.18828 0.49474 0.0
C924 C 0.09063 0.16168 0.40688 0.0
C925 C 0.12569 0.16703 0.4703 0.0
C926 C 0.0895 0.12537 0.33665 0.0
C927 C 0.048 0.1513 0.28675 0.0
N928 N 0.1145 0.15435 0.42723 0.0
N929 N 0.05973 0.16154 0.3313 0.0
H930 H 0.14489 0.78603 0.58665 0.0
H931 H 0.03507 0.89219 0.6589 0.0
H932 H 0.09176 0.819 0.46718 0.0
H933 H 0.06954 0.83972 0.77773 0.0
H934 H 0.0627 0.87265 0.58877 0.0
H935 H 0.12441 0.81307 0.6566 0.0
C936 C 0.12917 0.79924 0.57481 0.0
C937 C 0.11981 0.79999 0.52089 0.0
C938 C 0.06435 0.86559 0.63027 0.0
C939 C 0.0963 0.83095 0.60121 0.0
C940 C 0.04864 0.87675 0.67052 0.0
C941 C 0.04977 0.8674 0.72438 0.0
C942 C 0.08148 0.84504 0.6439 0.0
C943 C 0.06788 0.84744 0.73676 0.0
C944 C 0.11742 0.81456 0.61499 0.0
C945 C 0.09943 0.81758 0.50826 0.0
N946 N 0.08295 0.8368 0.69667 0.0
N947 N 0.0882 0.83227 0.54829 0.0
H948 H 0.36684 0.76917 0.90966 0.0
H949 H 0.45811 0.89197 0.84177 0.0
H950 H 0.40335 0.81812 0.03226 0.0
H951 H 0.42747 0.83882 0.71968 0.0
H952 H 0.43295 0.86891 0.91087 0.0
H953 H 0.38488 0.79738 0.8391 0.0
C954 C 0.37841 0.78609 0.92178 0.0
C955 C 0.38352 0.79145 0.97692 0.0
C956 C 0.43157 0.86239 0.86893 0.0
C957 C 0.40422 0.8238 0.89621 0.0
C958 C 0.44582 0.87564 0.82926 0.0
C959 C 0.44539 0.86688 0.77496 0.0
C960 C 0.41676 0.84026 0.85423 0.0
C961 C 0.42884 0.84585 0.76124 0.0
C962 C 0.38875 0.80214 0.8814 0.0
C963 C 0.39901 0.81331 0.99021 0.0
N964 N 0.41541 0.83299 0.80084 0.0
N965 N 0.40886 0.82874 0.94999 0.0
H966 H 0.43224 0.1609 0.29096 0.0
H967 H 0.38177 0.16133 0.98179 0.0
H968 H 0.43605 0.09246 0.1868 0.0
H969 H 0.38564 0.22954 0.08599 0.0
H970 H 0.398 0.13412 0.05792 0.0
H971 H 0.40947 0.18456 0.21883 0.0
C972 C 0.42792 0.15072 0.2532 0.0
C973 C 0.43666 0.12493 0.24437 0.0
C974 C 0.3953 0.15505 0.06395 0.0
C975 C 0.41074 0.15189 0.16141 0.0
C976 C 0.38627 0.17047 0.0206 0.0
C977 C 0.38228 0.19744 0.02844 0.0
C978 C 0.40052 0.16699 0.11463 0.0
C979 C 0.38817 0.20864 0.07905 0.0
C980 C 0.41502 0.16426 0.21187 0.0
C981 C 0.42999 0.11248 0.19508 0.0
N982 N 0.39705 0.19337 0.12024 0.0
N983 N 0.41774 0.12624 0.155 0.0
H984 H 0.90838 0.77118 0.52996 0.0
H985 H 0.9056 0.88621 0.74983 0.0
H986 H 0.85855 0.83878 0.50705 0.0
H987 H 0.97245 0.83599 0.72124 0.0
H988 H 0.88385 0.86674 0.66916 0.0
H989 H 0.92831 0.79211 0.60863 0.0
C990 C 0.90254 0.79104 0.54008 0.0
C991 C 0.8831 0.80399 0.50982 0.0
C992 C 0.90308 0.85973 0.68144 0.0
C993 C 0.90431 0.82743 0.603 0.0
C994 C 0.91532 0.87059 0.72754 0.0
C995 C 0.94019 0.86149 0.74398 0.0
C996 C 0.91601 0.83986 0.65189 0.0
C997 C 0.9525 0.8421 0.71251 0.0
C998 C 0.91343 0.80274 0.58592 0.0
C999 C 0.87417 0.82857 0.52834 0.0
N1000 N 0.94026 0.83184 0.66835 0.0
N1001 N 0.88491 0.83961 0.57395 0.0
H1002 H 0.86315 0.15388 0.50778 0.0
H1003 H 0.93787 0.16783 0.22314 0.0
H1004 H 0.90403 0.22455 0.46063 0.0
H1005 H 0.93638 0.09484 0.31283 0.0
H1006 H 0.91473 0.1892 0.29925 0.0
H1007 H 0.88071 0.13177 0.426 0.0
C1008 C 0.87615 0.16452 0.48064 0.0
C1009 C 0.88296 0.19068 0.49158 0.0
C1010 C 0.91948 0.16846 0.3018 0.0
C1011 C 0.90174 0.16628 0.39737 0.0
C1012 C 0.93288 0.15636 0.2587 0.0
C1013 C 0.94065 0.12997 0.26297 0.0
C1014 C 0.91289 0.1537 0.34825 0.0
C1015 C 0.93171 0.1155 0.30831 0.0
C1016 C 0.88592 0.15207 0.43397 0.0
C1017 C 0.89916 0.20402 0.45446 0.0
N1018 N 0.91855 0.1276 0.34935 0.0
N1019 N 0.90791 0.19173 0.40881 0.0
H1020 H 0.64058 0.21333 0.09227 0.0
H1021 H 0.53506 0.10306 0.16555 0.0
H1022 H 0.59424 0.1722 0.97176 0.0
H1023 H 0.57395 0.15103 0.28646 0.0
H1024 H 0.56098 0.12401 0.09468 0.0
H1025 H 0.6208 0.18662 0.16336 0.0
C1026 C 0.62646 0.19839 0.08058 0.0
C1027 C 0.6188 0.19516 0.02592 0.0
C1028 C 0.564 0.12991 0.13665 0.0
C1029 C 0.5959 0.16461 0.10763 0.0
C1030 C 0.54934 0.11784 0.17734 0.0
C1031 C 0.55213 0.12561 0.23202 0.0
C1032 C 0.58177 0.14986 0.15057 0.0
C1033 C 0.57081 0.14491 0.24469 0.0
C1034 C 0.61505 0.18326 0.12141 0.0
C1035 C 0.60032 0.17563 0.01346 0.0
N1036 N 0.58486 0.15653 0.20411 0.0
N1037 N 0.58936 0.16116 0.05413 0.0
H1038 H 0.56298 0.82447 0.72347 0.0
H1039 H 0.58611 0.82314 0.04393 0.0
H1040 H 0.55127 0.89394 0.82192 0.0
H1041 H 0.63718 0.78055 0.93487 0.0
H1042 H 0.56544 0.84446 0.96417 0.0
H1043 H 0.58357 0.80286 0.80266 0.0
C1044 C 0.56498 0.83522 0.76139 0.0
C1045 C 0.55565 0.8611 0.76589 0.0
C1046 C 0.58128 0.83051 0.95801 0.0
C1047 C 0.57826 0.83641 0.85639 0.0
C1048 C 0.593 0.81848 1.00329 0.0
C1049 C 0.61368 0.80068 0.99561 0.0
C1050 C 0.58988 0.82396 0.90517 0.0
C1051 C 0.62166 0.79473 0.94224 0.0
C1052 C 0.5766 0.82292 0.80643 0.0
C1053 C 0.55854 0.87411 0.81622 0.0
N1054 N 0.60965 0.80621 0.89897 0.0
N1055 N 0.56931 0.86155 0.85962 0.0
H1056 H 0.57323 0.65709 0.72005 0.0
H1057 H 0.60534 0.66742 0.03409 0.0
H1058 H 0.55038 0.59757 0.83647 0.0
H1059 H 0.64633 0.71283 0.91202 0.0
H1060 H 0.58659 0.64019 0.96186 0.0
H1061 H 0.60186 0.67661 0.7889 0.0
C1062 C 0.57455 0.64784 0.75973 0.0
C1063 C 0.55917 0.62579 0.77265 0.0
C1064 C 0.60004 0.65584 0.95098 0.0
C1065 C 0.59166 0.6482 0.85166 0.0
C1066 C 0.61073 0.67139 0.99218 0.0
C1067 C 0.6273 0.69248 0.97899 0.0
C1068 C 0.60567 0.66172 0.89629 0.0
C1069 C 0.63365 0.69674 0.92403 0.0
C1070 C 0.59091 0.65901 0.79903 0.0
C1071 C 0.56168 0.6147 0.82479 0.0
N1072 N 0.6225 0.68173 0.88459 0.0
N1073 N 0.57734 0.62624 0.86263 0.0
H1074 H 0.56232 0.33173 0.28053 0.0
H1075 H 0.63859 0.34159 1.00218 0.0
H1076 H 0.55695 0.40407 0.18934 0.0
H1077 H 0.58725 0.27661 0.03973 0.0
H1078 H 0.62052 0.3657 0.08134 0.0
H1079 H 0.58554 0.31151 0.20386 0.0
C1080 C 0.56629 0.34343 0.24477 0.0
C1081 C 0.55673 0.36921 0.24047 0.0
C1082 C 0.61316 0.34626 0.07156 0.0
C1083 C 0.58412 0.3467 0.154 0.0
C1084 C 0.62324 0.33269 0.02658 0.0
C1085 C 0.61377 0.30751 0.01409 0.0
C1086 C 0.59451 0.33389 0.10495 0.0
C1087 C 0.59437 0.29635 0.0473 0.0
C1088 C 0.57955 0.33194 0.20124 0.0
C1089 C 0.56344 0.38391 0.19394 0.0
N1090 N 0.58558 0.30949 0.09175 0.0
N1091 N 0.57662 0.37236 0.1521 0.0
H1092 H 0.97009 0.38559 0.34203 0.0
H1093 H 0.85072 0.2902 0.41411 0.0
H1094 H 0.92278 0.3466 0.21982 0.0
H1095 H 0.9094 0.31566 0.53038 0.0
H1096 H 0.87188 0.31703 0.3445 0.0
H1097 H 0.94309 0.36605 0.41271 0.0
C1098 C 0.95374 0.37323 0.3299 0.0
C1099 C 0.94868 0.36774 0.27476 0.0
C1100 C 0.87996 0.31689 0.38537 0.0
C1101 C 0.91771 0.34516 0.356 0.0
C1102 C 0.86786 0.30167 0.42528 0.0
C1103 C 0.87847 0.30045 0.47814 0.0
C1104 C 0.90275 0.33107 0.39843 0.0
C1105 C 0.90061 0.31587 0.49016 0.0
C1106 C 0.93841 0.36198 0.37046 0.0
C1107 C 0.9274 0.35132 0.26179 0.0
N1108 N 0.91213 0.33039 0.45044 0.0
N1109 N 0.91269 0.34051 0.30225 0.0
H1110 H 0.95546 0.59811 0.66721 0.0
H1111 H 0.85997 0.71802 0.59729 0.0
H1112 H 0.9252 0.65235 0.78742 0.0
H1113 H 0.89851 0.67072 0.47469 0.0
H1114 H 0.87911 0.69045 0.66778 0.0
H1115 H 0.92956 0.62029 0.59748 0.0
C1116 C 0.94302 0.61441 0.67925 0.0
C1117 C 0.94277 0.62359 0.73332 0.0
C1118 C 0.88322 0.68591 0.62549 0.0
C1119 C 0.91326 0.64924 0.65321 0.0
C1120 C 0.87221 0.7016 0.58504 0.0
C1121 C 0.87763 0.69668 0.52982 0.0
C1122 C 0.89975 0.665 0.61086 0.0
C1123 C 0.89386 0.67528 0.51671 0.0
C1124 C 0.92838 0.62719 0.63919 0.0
C1125 C 0.92629 0.64482 0.7462 0.0
N1126 N 0.90444 0.66024 0.55701 0.0
N1127 N 0.91236 0.65708 0.70632 0.0
H1128 H 0.40693 0.37607 0.26116 0.0
H1129 H 0.42252 0.30845 0.96873 0.0
H1130 H 0.47847 0.33912 0.20644 0.0
H1131 H 0.34744 0.31587 0.04955 0.0
H1132 H 0.44374 0.32806 0.0489 0.0
H1133 H 0.38465 0.36032 0.17817 0.0
C1134 C 0.41766 0.36404 0.23225 0.0
C1135 C 0.44416 0.35793 0.24115 0.0
C1136 C 0.42258 0.32549 0.0487 0.0
C1137 C 0.41958 0.34131 0.14554 0.0
C1138 C 0.4105 0.31431 1.00305 0.0
C1139 C 0.38336 0.30935 1.00334 0.0
C1140 C 0.40726 0.33237 0.09419 0.0
C1141 C 0.36852 0.31871 0.04777 0.0
C1142 C 0.40513 0.35535 0.18482 0.0
C1143 C 0.45768 0.3432 0.20182 0.0
N1144 N 0.38071 0.32946 0.09168 0.0
N1145 N 0.44529 0.33551 0.15546 0.0
H1146 H 0.41731 0.71469 0.99457 0.0
H1147 H 0.41293 0.60535 0.76208 0.0
H1148 H 0.36079 0.65175 0.99973 0.0
H1149 H 0.47858 0.65688 0.79273 0.0
H1150 H 0.39112 0.6229 0.84435 0.0
H1151 H 0.43837 0.69438 0.91711 0.0
C1152 C 0.41024 0.69574 0.98114 0.0
C1153 C 0.38841 0.68405 0.00596 0.0
C1154 C 0.41012 0.63058 0.83236 0.0
C1155 C 0.41103 0.66149 0.91328 0.0
C1156 C 0.42239 0.6208 0.78536 0.0
C1157 C 0.44694 0.63076 0.76921 0.0
C1158 C 0.42277 0.65014 0.86329 0.0
C1159 C 0.45892 0.64997 0.80165 0.0
C1160 C 0.42179 0.68447 0.93567 0.0
C1161 C 0.37817 0.66093 0.98278 0.0
N1162 N 0.44671 0.65906 0.84687 0.0
N1163 N 0.38958 0.65033 0.93745 0.0
H1164 H 0.1354 0.65428 0.50142 0.0
H1165 H 0.01921 0.65677 0.71728 0.0
H1166 H 0.08442 0.72095 0.52497 0.0
H1167 H 0.08904 0.611 0.74606 0.0
H1168 H 0.03992 0.67669 0.63809 0.0
H1169 H 0.11571 0.63342 0.5825 0.0
C1170 C 0.11943 0.66405 0.52252 0.0
C1171 C 0.1102 0.6886 0.50465 0.0
C1172 C 0.05106 0.66278 0.66235 0.0
C1173 C 0.08841 0.66552 0.59725 0.0
C1174 C 0.03951 0.65207 0.70843 0.0
C1175 C 0.05322 0.63388 0.74034 0.0
C1176 C 0.07624 0.65447 0.64671 0.0
C1177 C 0.07834 0.62585 0.72348 0.0
C1178 C 0.10849 0.65236 0.5689 0.0
C1179 C 0.09045 0.70111 0.53467 0.0
N1180 N 0.08917 0.63625 0.67752 0.0
N1181 N 0.0801 0.6894 0.57925 0.0
H1182 H 0.01805 0.33931 0.28235 0.0
H1183 H 0.13495 0.3341 0.49911 0.0
H1184 H 0.09054 0.38149 0.25691 0.0
H1185 H 0.07769 0.27272 0.47837 0.0
H1186 H 0.11532 0.35766 0.4212 0.0
H1187 H 0.03616 0.32012 0.36483 0.0
C1188 C 0.03822 0.34378 0.29319 0.0
C1189 C 0.05346 0.36067 0.26098 0.0
C1190 C 0.1066 0.3394 0.43495 0.0
C1191 C 0.07371 0.34027 0.35793 0.0
C1192 C 0.11752 0.3262 0.47965 0.0
C1193 C 0.1067 0.30226 0.49724 0.0
C1194 C 0.08496 0.32833 0.40771 0.0
C1195 C 0.08503 0.29211 0.46919 0.0
C1196 C 0.04834 0.33326 0.34097 0.0
C1197 C 0.07858 0.36774 0.27969 0.0
N1198 N 0.07484 0.30516 0.4259 0.0
N1199 N 0.08806 0.35737 0.32706 0.0
loop_
_geom_bond_atom_site_label_1
_geom_bond_atom_site_label_2
_geom_bond_distance
_geom_bond_site_symmetry_2
_ccdc_geom_bond_type
O0 Mn1 2.163 . S
O0 C14 1.244 . S
Mn1 O0 2.163 . S
Mn1 O4 2.160 1_455 S
Mn1 O5 2.221 1_455 S
Mn1 O7 2.163 . S
Mn1 O9 2.160 1_455 S
Mn1 O19 2.221 1_455 S
O2 Mn3 2.087 . S
O2 C14 1.256 . S
Mn3 O2 2.087 . S
Mn3 O10 2.084 1_454 S
Mn3 O19 2.289 1_455 S
Mn3 O20 2.251 . S
O4 Mn1 2.160 1_655 S
O4 C15 1.239 . S
O5 Mn1 2.221 1_655 S
O5 Mn6 2.288 1_655 S
O5 C16 1.268 1_655 S
Mn6 O5 2.288 1_455 S
Mn6 O8 2.089 1_455 S
Mn6 O11 2.251 . S
Mn6 O12 2.087 . S
O7 Mn1 2.163 . S
O7 C17 1.244 . S
O8 Mn6 2.089 1_655 S
O8 C15 1.256 . S
O9 Mn1 2.160 1_655 S
O9 C18 1.239 . S
O10 Mn3 2.084 1_656 S
O10 C18 1.250 1_556 S
O11 Mn6 2.251 . S
O11 C16 1.241 . S
O12 Mn6 2.087 . S
O12 C17 1.256 . S
C13 O19 1.274 1_455 S
C13 O20 1.241 . S
C14 O0 1.244 . S
C14 O2 1.256 . S
C15 O4 1.239 . S
C15 O8 1.256 . S
C16 O5 1.268 1_455 S
C16 O11 1.241 . S
C17 O7 1.244 . S
C17 O12 1.256 . S
C18 O9 1.239 . S
C18 O10 1.250 1_554 S
O19 Mn1 2.221 1_655 S
O19 Mn3 2.289 1_655 S
O19 C13 1.274 1_655 S
O20 Mn3 2.251 . S
O20 C13 1.241 . S
O21 Mn22 2.163 . S
O21 C35 1.244 . S
Mn22 O21 2.163 . S
Mn22 O25 2.160 . S
Mn22 O26 2.221 . S
Mn22 O28 2.163 . S
Mn22 O30 2.160 . S
Mn22 O40 2.221 . S
O23 Mn24 2.087 . S
O23 C35 1.256 . S
Mn24 O23 2.087 . S
Mn24 O31 2.089 . S
Mn24 O40 2.290 . S
Mn24 O41 2.251 . S
O25 Mn22 2.160 . S
O25 C36 1.239 . S
O26 Mn22 2.221 . S
O26 Mn27 2.290 . S
O26 C37 1.278 . S
Mn27 O26 2.290 . S
Mn27 O29 2.089 . S
Mn27 O32 2.251 . S
Mn27 O33 2.087 . S
O28 Mn22 2.163 . S
O28 C38 1.244 . S
O29 Mn27 2.089 . S
O29 C36 1.256 . S
O30 Mn22 2.160 . S
O30 C39 1.239 . S
O31 Mn24 2.089 . S
O31 C39 1.256 . S
O32 Mn27 2.251 . S
O32 C37 1.241 . S
O33 Mn27 2.087 . S
O33 C38 1.256 . S
C34 O40 1.278 . S
C34 O41 1.241 . S
C35 O21 1.244 . S
C35 O23 1.256 . S
C36 O25 1.239 . S
C36 O29 1.256 . S
C37 O26 1.278 . S
C37 O32 1.241 . S
C38 O28 1.244 . S
C38 O33 1.256 . S
C39 O30 1.239 . S
C39 O31 1.256 . S
O40 Mn22 2.221 . S
O40 Mn24 2.290 . S
O40 C34 1.278 . S
O41 Mn24 2.251 . S
O41 C34 1.241 . S
O42 Mn43 2.163 . S
O42 C56 1.244 . S
Mn43 O42 2.163 . S
Mn43 O46 2.160 . S
Mn43 O47 2.221 . S
Mn43 O49 2.163 . S
Mn43 O51 2.160 . S
Mn43 O61 2.221 . S
O44 Mn45 2.087 . S
O44 C56 1.256 . S
Mn45 O44 2.087 . S
Mn45 O52 2.089 . S
Mn45 O61 2.290 . S
Mn45 O62 2.251 . S
O46 Mn43 2.160 . S
O46 C57 1.239 . S
O47 Mn43 2.221 . S
O47 Mn48 2.290 . S
O47 C58 1.278 . S
Mn48 O47 2.290 . S
Mn48 O50 2.089 . S
Mn48 O53 2.251 . S
Mn48 O54 2.087 . S
O49 Mn43 2.163 . S
O49 C59 1.244 . S
O50 Mn48 2.089 . S
O50 C57 1.256 . S
O51 Mn43 2.160 . S
O51 C60 1.239 . S
O52 Mn45 2.089 . S
O52 C60 1.256 . S
O53 Mn48 2.251 . S
O53 C58 1.241 . S
O54 Mn48 2.087 . S
O54 C59 1.256 . S
C55 O61 1.278 . S
C55 O62 1.241 . S
C56 O42 1.244 . S
C56 O44 1.256 . S
C57 O46 1.239 . S
C57 O50 1.256 . S
C58 O47 1.278 . S
C58 O53 1.241 . S
C59 O49 1.244 . S
C59 O54 1.256 . S
C60 O51 1.239 . S
C60 O52 1.256 . S
O61 Mn43 2.221 . S
O61 Mn45 2.290 . S
O61 C55 1.278 . S
O62 Mn45 2.251 . S
O62 C55 1.241 . S
O63 Mn64 2.163 . S
O63 C77 1.244 . S
Mn64 O63 2.163 . S
Mn64 O67 2.160 . S
Mn64 O68 2.221 . S
Mn64 O70 2.163 . S
Mn64 O72 2.160 . S
Mn64 O82 2.221 . S
O65 Mn66 2.087 . S
O65 C77 1.256 . S
Mn66 O65 2.087 . S
Mn66 O73 2.089 . S
Mn66 O82 2.290 . S
Mn66 O83 2.251 . S
O67 Mn64 2.160 . S
O67 C78 1.239 . S
O68 Mn64 2.221 . S
O68 Mn69 2.290 . S
O68 C79 1.278 . S
Mn69 O68 2.290 . S
Mn69 O71 2.089 1_556 S
Mn69 O74 2.251 . S
Mn69 O75 2.087 . S
O70 Mn64 2.163 . S
O70 C80 1.244 . S
O71 Mn69 2.089 1_554 S
O71 C78 1.256 1_554 S
O72 Mn64 2.160 . S
O72 C81 1.239 . S
O73 Mn66 2.089 . S
O73 C81 1.256 . S
O74 Mn69 2.251 . S
O74 C79 1.241 . S
O75 Mn69 2.087 . S
O75 C80 1.256 . S
C76 O82 1.278 . S
C76 O83 1.241 . S
C77 O63 1.244 . S
C77 O65 1.256 . S
C78 O67 1.239 . S
C78 O71 1.256 1_556 S
C79 O68 1.278 . S
C79 O74 1.241 . S
C80 O70 1.244 . S
C80 O75 1.256 . S
C81 O72 1.239 . S
C81 O73 1.256 . S
O82 Mn64 2.221 . S
O82 Mn66 2.290 . S
O82 C76 1.278 . S
O83 Mn66 2.251 . S
O83 C76 1.241 . S
O84 Mn85 2.163 . S
O84 C98 1.244 . S
Mn85 O84 2.163 . S
Mn85 O88 2.160 1_455 S
Mn85 O89 2.221 1_455 S
Mn85 O91 2.163 . S
Mn85 O93 2.160 1_455 S
Mn85 O103 2.221 1_455 S
O86 Mn87 2.087 . S
O86 C98 1.256 . S
Mn87 O86 2.087 . S
Mn87 O94 2.084 1_456 S
Mn87 O103 2.289 1_455 S
Mn87 O104 2.251 . S
O88 Mn85 2.160 1_655 S
O88 C99 1.239 . S
O89 Mn85 2.221 1_655 S
O89 Mn90 2.288 1_655 S
O89 C100 1.268 1_655 S
Mn90 O89 2.288 1_455 S
Mn90 O92 2.089 1_455 S
Mn90 O95 2.251 . S
Mn90 O96 2.087 . S
O91 Mn85 2.163 . S
O91 C101 1.244 . S
O92 Mn90 2.089 1_655 S
O92 C99 1.256 . S
O93 Mn85 2.160 1_655 S
O93 C102 1.239 . S
O94 Mn87 2.084 1_654 S
O94 C102 1.250 1_554 S
O95 Mn90 2.251 . S
O95 C100 1.241 . S
O96 Mn90 2.087 . S
O96 C101 1.256 . S
C97 O103 1.274 1_455 S
C97 O104 1.241 . S
C98 O84 1.244 . S
C98 O86 1.256 . S
C99 O88 1.239 . S
C99 O92 1.256 . S
C100 O89 1.268 1_455 S
C100 O95 1.241 . S
C101 O91 1.244 . S
C101 O96 1.256 . S
C102 O93 1.239 . S
C102 O94 1.250 1_556 S
O103 Mn85 2.221 1_655 S
O103 Mn87 2.289 1_655 S
O103 C97 1.274 1_655 S
O104 Mn87 2.251 . S
O104 C97 1.241 . S
O105 Mn106 2.163 . S
O105 C119 1.244 . S
Mn106 O105 2.163 . S
Mn106 O109 2.160 . S
Mn106 O110 2.221 . S
Mn106 O112 2.163 . S
Mn106 O114 2.160 . S
Mn106 O124 2.221 . S
O107 Mn108 2.087 . S
O107 C119 1.256 . S
Mn108 O107 2.087 . S
Mn108 O115 2.089 . S
Mn108 O124 2.290 . S
Mn108 O125 2.251 . S
O109 Mn106 2.160 . S
O109 C120 1.239 . S
O110 Mn106 2.221 . S
O110 Mn111 2.290 . S
O110 C121 1.278 . S
Mn111 O110 2.290 . S
Mn111 O113 2.089 1_554 S
Mn111 O116 2.251 . S
Mn111 O117 2.087 . S
O112 Mn106 2.163 . S
O112 C122 1.244 . S
O113 Mn111 2.089 1_556 S
O113 C120 1.256 1_556 S
O114 Mn106 2.160 . S
O114 C123 1.239 . S
O115 Mn108 2.089 . S
O115 C123 1.256 . S
O116 Mn111 2.251 . S
O116 C121 1.241 . S
O117 Mn111 2.087 . S
O117 C122 1.256 . S
C118 O124 1.278 . S
C118 O125 1.241 . S
C119 O105 1.244 . S
C119 O107 1.256 . S
C120 O109 1.239 . S
C120 O113 1.256 1_554 S
C121 O110 1.278 . S
C121 O116 1.241 . S
C122 O112 1.244 . S
C122 O117 1.256 . S
C123 O114 1.239 . S
C123 O115 1.256 . S
O124 Mn106 2.221 . S
O124 Mn108 2.290 . S
O124 C118 1.278 . S
O125 Mn108 2.251 . S
O125 C118 1.241 . S
O126 Mn127 2.163 . S
O126 C140 1.244 . S
Mn127 O126 2.163 . S
Mn127 O130 2.160 . S
Mn127 O131 2.221 . S
Mn127 O133 2.163 . S
Mn127 O135 2.160 . S
Mn127 O145 2.221 . S
O128 Mn129 2.087 . S
O128 C140 1.256 . S
Mn129 O128 2.087 . S
Mn129 O136 2.089 . S
Mn129 O145 2.290 . S
Mn129 O146 2.251 . S
O130 Mn127 2.160 . S
O130 C141 1.239 . S
O131 Mn127 2.221 . S
O131 Mn132 2.290 . S
O131 C142 1.278 . S
Mn132 O131 2.290 . S
Mn132 O134 2.089 . S
Mn132 O137 2.251 . S
Mn132 O138 2.087 . S
O133 Mn127 2.163 . S
O133 C143 1.244 . S
O134 Mn132 2.089 . S
O134 C141 1.256 . S
O135 Mn127 2.160 . S
O135 C144 1.239 . S
O136 Mn129 2.089 . S
O136 C144 1.256 . S
O137 Mn132 2.251 . S
O137 C142 1.241 . S
O138 Mn132 2.087 . S
O138 C143 1.256 . S
C139 O145 1.278 . S
C139 O146 1.241 . S
C140 O126 1.244 . S
C140 O128 1.256 . S
C141 O130 1.239 . S
C141 O134 1.256 . S
C142 O131 1.278 . S
C142 O137 1.241 . S
C143 O133 1.244 . S
C143 O138 1.256 . S
C144 O135 1.239 . S
C144 O136 1.256 . S
O145 Mn127 2.221 . S
O145 Mn129 2.290 . S
O145 C139 1.278 . S
O146 Mn129 2.251 . S
O146 C139 1.241 . S
O147 Mn148 2.163 . S
O147 C161 1.244 . S
Mn148 O147 2.163 . S
Mn148 O151 2.160 . S
Mn148 O152 2.221 . S
Mn148 O154 2.163 . S
Mn148 O156 2.160 . S
Mn148 O166 2.221 . S
O149 Mn150 2.087 . S
O149 C161 1.256 . S
Mn150 O149 2.087 . S
Mn150 O157 2.089 . S
Mn150 O166 2.290 . S
Mn150 O167 2.251 . S
O151 Mn148 2.160 . S
O151 C162 1.239 . S
O152 Mn148 2.221 . S
O152 Mn153 2.290 . S
O152 C163 1.278 . S
Mn153 O152 2.290 . S
Mn153 O155 2.089 . S
Mn153 O158 2.251 . S
Mn153 O159 2.087 . S
O154 Mn148 2.163 . S
O154 C164 1.244 . S
O155 Mn153 2.089 . S
O155 C162 1.256 . S
O156 Mn148 2.160 . S
O156 C165 1.239 . S
O157 Mn150 2.089 . S
O157 C165 1.256 . S
O158 Mn153 2.251 . S
O158 C163 1.241 . S
O159 Mn153 2.087 . S
O159 C164 1.256 . S
C160 O166 1.278 . S
C160 O167 1.241 . S
C161 O147 1.244 . S
C161 O149 1.256 . S
C162 O151 1.239 . S
C162 O155 1.256 . S
C163 O152 1.278 . S
C163 O158 1.241 . S
C164 O154 1.244 . S
C164 O159 1.256 . S
C165 O156 1.239 . S
C165 O157 1.256 . S
O166 Mn148 2.221 . S
O166 Mn150 2.290 . S
O166 C160 1.278 . S
O167 Mn150 2.251 . S
O167 C160 1.241 . S
O168 Mn169 2.163 . S
O168 C182 1.244 . S
Mn169 O168 2.163 . S
Mn169 O172 2.160 . S
Mn169 O173 2.221 . S
Mn169 O175 2.163 . S
Mn169 O177 2.160 . S
Mn169 O187 2.221 . S
O170 Mn171 2.087 . S
O170 C182 1.256 . S
Mn171 O170 2.087 . S
Mn171 O178 2.089 . S
Mn171 O187 2.290 . S
Mn171 O188 2.251 . S
O172 Mn169 2.160 . S
O172 C183 1.239 . S
O173 Mn169 2.221 . S
O173 Mn174 2.290 . S
O173 C184 1.278 . S
Mn174 O173 2.290 . S
Mn174 O176 2.089 . S
Mn174 O179 2.251 . S
Mn174 O180 2.087 . S
O175 Mn169 2.163 . S
O175 C185 1.244 . S
O176 Mn174 2.089 . S
O176 C183 1.256 . S
O177 Mn169 2.160 . S
O177 C186 1.239 . S
O178 Mn171 2.089 . S
O178 C186 1.256 . S
O179 Mn174 2.251 . S
O179 C184 1.241 . S
O180 Mn174 2.087 . S
O180 C185 1.256 . S
C181 O187 1.278 . S
C181 O188 1.241 . S
C182 O168 1.244 . S
C182 O170 1.256 . S
C183 O172 1.239 . S
C183 O176 1.256 . S
C184 O173 1.278 . S
C184 O179 1.241 . S
C185 O175 1.244 . S
C185 O180 1.256 . S
C186 O177 1.239 . S
C186 O178 1.256 . S
O187 Mn169 2.221 . S
O187 Mn171 2.290 . S
O187 C181 1.278 . S
O188 Mn171 2.251 . S
O188 C181 1.241 . S
O189 Mn190 2.163 . S
O189 C203 1.244 . S
Mn190 O189 2.163 . S
Mn190 O193 2.160 . S
Mn190 O194 2.221 . S
Mn190 O196 2.163 . S
Mn190 O198 2.160 . S
Mn190 O208 2.221 . S
O191 Mn192 2.087 . S
O191 C203 1.256 . S
Mn192 O191 2.087 . S
Mn192 O199 2.089 1_554 S
Mn192 O208 2.290 . S
Mn192 O209 2.251 . S
O193 Mn190 2.160 . S
O193 C204 1.239 . S
O194 Mn190 2.221 . S
O194 Mn195 2.290 . S
O194 C205 1.278 . S
Mn195 O194 2.290 . S
Mn195 O197 2.089 . S
Mn195 O200 2.251 . S
Mn195 O201 2.087 . S
O196 Mn190 2.163 . S
O196 C206 1.244 . S
O197 Mn195 2.089 . S
O197 C204 1.256 . S
O198 Mn190 2.160 . S
O198 C207 1.239 . S
O199 Mn192 2.089 1_556 S
O199 C207 1.256 1_556 S
O200 Mn195 2.251 . S
O200 C205 1.241 . S
O201 Mn195 2.087 . S
O201 C206 1.256 . S
C202 O208 1.278 . S
C202 O209 1.241 . S
C203 O189 1.244 . S
C203 O191 1.256 . S
C204 O193 1.239 . S
C204 O197 1.256 . S
C205 O194 1.278 . S
C205 O200 1.241 . S
C206 O196 1.244 . S
C206 O201 1.256 . S
C207 O198 1.239 . S
C207 O199 1.256 1_554 S
O208 Mn190 2.221 . S
O208 Mn192 2.290 . S
O208 C202 1.278 . S
O209 Mn192 2.251 . S
O209 C202 1.241 . S
O210 Mn211 2.163 . S
O210 C224 1.244 . S
Mn211 O210 2.163 . S
Mn211 O214 2.160 . S
Mn211 O215 2.221 . S
Mn211 O217 2.163 . S
Mn211 O219 2.160 . S
Mn211 O229 2.221 . S
O212 Mn213 2.087 . S
O212 C224 1.256 . S
Mn213 O212 2.087 . S
Mn213 O220 2.089 1_556 S
Mn213 O229 2.290 . S
Mn213 O230 2.251 . S
O214 Mn211 2.160 . S
O214 C225 1.239 . S
O215 Mn211 2.221 . S
O215 Mn216 2.290 . S
O215 C226 1.278 . S
Mn216 O215 2.290 . S
Mn216 O218 2.089 . S
Mn216 O221 2.251 . S
Mn216 O222 2.087 . S
O217 Mn211 2.163 . S
O217 C227 1.244 . S
O218 Mn216 2.089 . S
O218 C225 1.256 . S
O219 Mn211 2.160 . S
O219 C228 1.239 . S
O220 Mn213 2.089 1_554 S
O220 C228 1.256 1_554 S
O221 Mn216 2.251 . S
O221 C226 1.241 . S
O222 Mn216 2.087 . S
O222 C227 1.256 . S
C223 O229 1.278 . S
C223 O230 1.241 . S
C224 O210 1.244 . S
C224 O212 1.256 . S
C225 O214 1.239 . S
C225 O218 1.256 . S
C226 O215 1.278 . S
C226 O221 1.241 . S
C227 O217 1.244 . S
C227 O222 1.256 . S
C228 O219 1.239 . S
C228 O220 1.256 1_556 S
O229 Mn211 2.221 . S
O229 Mn213 2.290 . S
O229 C223 1.278 . S
O230 Mn213 2.251 . S
O230 C223 1.241 . S
O231 Mn232 2.163 . S
O231 C245 1.244 . S
Mn232 O231 2.163 . S
Mn232 O235 2.160 . S
Mn232 O236 2.221 . S
Mn232 O238 2.163 . S
Mn232 O240 2.160 . S
Mn232 O250 2.221 . S
O233 Mn234 2.087 . S
O233 C245 1.256 . S
Mn234 O233 2.087 . S
Mn234 O241 2.089 . S
Mn234 O250 2.290 . S
Mn234 O251 2.251 . S
O235 Mn232 2.160 . S
O235 C246 1.239 . S
O236 Mn232 2.221 . S
O236 Mn237 2.290 . S
O236 C247 1.278 . S
Mn237 O236 2.290 . S
Mn237 O239 2.089 . S
Mn237 O242 2.251 . S
Mn237 O243 2.087 . S
O238 Mn232 2.163 . S
O238 C248 1.244 . S
O239 Mn237 2.089 . S
O239 C246 1.256 . S
O240 Mn232 2.160 . S
O240 C249 1.239 . S
O241 Mn234 2.089 . S
O241 C249 1.256 . S
O242 Mn237 2.251 . S
O242 C247 1.241 . S
O243 Mn237 2.087 . S
O243 C248 1.256 . S
C244 O250 1.278 . S
C244 O251 1.241 . S
C245 O231 1.244 . S
C245 O233 1.256 . S
C246 O235 1.239 . S
C246 O239 1.256 . S
C247 O236 1.278 . S
C247 O242 1.241 . S
C248 O238 1.244 . S
C248 O243 1.256 . S
C249 O240 1.239 . S
C249 O241 1.256 . S
O250 Mn232 2.221 . S
O250 Mn234 2.290 . S
O250 C244 1.278 . S
O251 Mn234 2.251 . S
O251 C244 1.241 . S
O252 Mn253 2.163 . S
O252 C266 1.244 . S
Mn253 O252 2.163 . S
Mn253 O256 2.160 . S
Mn253 O257 2.221 . S
Mn253 O259 2.163 . S
Mn253 O261 2.160 . S
Mn253 O271 2.221 . S
O254 Mn255 2.087 . S
O254 C266 1.256 . S
Mn255 O254 2.087 . S
Mn255 O262 2.089 . S
Mn255 O271 2.290 . S
Mn255 O272 2.251 . S
O256 Mn253 2.160 . S
O256 C267 1.239 . S
O257 Mn253 2.221 . S
O257 Mn258 2.290 . S
O257 C268 1.278 . S
Mn258 O257 2.290 . S
Mn258 O260 2.089 . S
Mn258 O263 2.251 . S
Mn258 O264 2.087 . S
O259 Mn253 2.163 . S
O259 C269 1.244 . S
O260 Mn258 2.089 . S
O260 C267 1.256 . S
O261 Mn253 2.160 . S
O261 C270 1.239 . S
O262 Mn255 2.089 . S
O262 C270 1.256 . S
O263 Mn258 2.251 . S
O263 C268 1.241 . S
O264 Mn258 2.087 . S
O264 C269 1.256 . S
C265 O271 1.278 . S
C265 O272 1.241 . S
C266 O252 1.244 . S
C266 O254 1.256 . S
C267 O256 1.239 . S
C267 O260 1.256 . S
C268 O257 1.278 . S
C268 O263 1.241 . S
C269 O259 1.244 . S
C269 O264 1.256 . S
C270 O261 1.239 . S
C270 O262 1.256 . S
O271 Mn253 2.221 . S
O271 Mn255 2.290 . S
O271 C265 1.278 . S
O272 Mn255 2.251 . S
O272 C265 1.241 . S
O273 Mn274 2.163 1_655 S
O273 C287 1.244 . S
Mn274 O273 2.163 1_455 S
Mn274 O277 2.160 . S
Mn274 O278 2.221 . S
Mn274 O280 2.163 1_455 S
Mn274 O282 2.160 . S
Mn274 O292 2.221 . S
O275 Mn276 2.087 1_655 S
O275 C287 1.256 . S
Mn276 O275 2.087 1_455 S
Mn276 O283 2.084 1_554 S
Mn276 O292 2.290 . S
Mn276 O293 2.251 1_455 S
O277 Mn274 2.160 . S
O277 C288 1.239 . S
O278 Mn274 2.221 . S
O278 Mn279 2.290 . S
O278 C289 1.278 1_455 S
Mn279 O278 2.290 . S
Mn279 O281 2.089 . S
Mn279 O284 2.251 1_455 S
Mn279 O285 2.087 1_455 S
O280 Mn274 2.163 1_655 S
O280 C290 1.244 . S
O281 Mn279 2.089 . S
O281 C288 1.256 . S
O282 Mn274 2.160 . S
O282 C291 1.239 . S
O283 Mn276 2.084 1_556 S
O283 C291 1.250 1_556 S
O284 Mn279 2.251 1_655 S
O284 C289 1.241 . S
O285 Mn279 2.087 1_655 S
O285 C290 1.256 . S
C286 O292 1.278 1_655 S
C286 O293 1.241 . S
C287 O273 1.244 . S
C287 O275 1.256 . S
C288 O277 1.239 . S
C288 O281 1.256 . S
C289 O278 1.278 1_655 S
C289 O284 1.241 . S
C290 O280 1.244 . S
C290 O285 1.256 . S
C291 O282 1.239 . S
C291 O283 1.250 1_554 S
O292 Mn274 2.221 . S
O292 Mn276 2.290 . S
O292 C286 1.278 1_455 S
O293 Mn276 2.251 1_655 S
O293 C286 1.241 . S
O294 Mn295 2.163 . S
O294 C308 1.244 . S
Mn295 O294 2.163 . S
Mn295 O298 2.160 . S
Mn295 O299 2.221 . S
Mn295 O301 2.163 . S
Mn295 O303 2.160 . S
Mn295 O313 2.221 . S
O296 Mn297 2.087 . S
O296 C308 1.256 . S
Mn297 O296 2.087 . S
Mn297 O304 2.089 . S
Mn297 O313 2.290 . S
Mn297 O314 2.251 . S
O298 Mn295 2.160 . S
O298 C309 1.239 . S
O299 Mn295 2.221 . S
O299 Mn300 2.290 . S
O299 C310 1.278 . S
Mn300 O299 2.290 . S
Mn300 O302 2.089 . S
Mn300 O305 2.251 . S
Mn300 O306 2.087 . S
O301 Mn295 2.163 . S
O301 C311 1.244 . S
O302 Mn300 2.089 . S
O302 C309 1.256 . S
O303 Mn295 2.160 . S
O303 C312 1.239 . S
O304 Mn297 2.089 . S
O304 C312 1.256 . S
O305 Mn300 2.251 . S
O305 C310 1.241 . S
O306 Mn300 2.087 . S
O306 C311 1.256 . S
C307 O313 1.278 . S
C307 O314 1.241 . S
C308 O294 1.244 . S
C308 O296 1.256 . S
C309 O298 1.239 . S
C309 O302 1.256 . S
C310 O299 1.278 . S
C310 O305 1.241 . S
C311 O301 1.244 . S
C311 O306 1.256 . S
C312 O303 1.239 . S
C312 O304 1.256 . S
O313 Mn295 2.221 . S
O313 Mn297 2.290 . S
O313 C307 1.278 . S
O314 Mn297 2.251 . S
O314 C307 1.241 . S
O315 Mn316 2.163 1_655 S
O315 C329 1.244 . S
Mn316 O315 2.163 1_455 S
Mn316 O319 2.160 . S
Mn316 O320 2.221 . S
Mn316 O322 2.163 1_455 S
Mn316 O324 2.160 . S
Mn316 O334 2.221 . S
O317 Mn318 2.087 1_655 S
O317 C329 1.256 . S
Mn318 O317 2.087 1_455 S
Mn318 O325 2.084 1_556 S
Mn318 O334 2.290 . S
Mn318 O335 2.251 1_455 S
O319 Mn316 2.160 . S
O319 C330 1.239 . S
O320 Mn316 2.221 . S
O320 Mn321 2.290 . S
O320 C331 1.278 1_455 S
Mn321 O320 2.290 . S
Mn321 O323 2.089 . S
Mn321 O326 2.251 1_455 S
Mn321 O327 2.087 1_455 S
O322 Mn316 2.163 1_655 S
O322 C332 1.244 . S
O323 Mn321 2.089 . S
O323 C330 1.256 . S
O324 Mn316 2.160 . S
O324 C333 1.239 . S
O325 Mn318 2.084 1_554 S
O325 C333 1.250 1_554 S
O326 Mn321 2.251 1_655 S
O326 C331 1.241 . S
O327 Mn321 2.087 1_655 S
O327 C332 1.256 . S
C328 O334 1.278 1_655 S
C328 O335 1.241 . S
C329 O315 1.244 . S
C329 O317 1.256 . S
C330 O319 1.239 . S
C330 O323 1.256 . S
C331 O320 1.278 1_655 S
C331 O326 1.241 . S
C332 O322 1.244 . S
C332 O327 1.256 . S
C333 O324 1.239 . S
C333 O325 1.250 1_556 S
O334 Mn316 2.221 . S
O334 Mn318 2.290 . S
O334 C328 1.278 1_455 S
O335 Mn318 2.251 1_655 S
O335 C328 1.241 . S
H336 C342 0.930 1_554 S
H337 C346 0.930 . S
H338 C351 0.929 . S
H339 C349 0.929 . S
H340 C344 0.929 . S
H341 C350 0.929 . S
C342 H336 0.930 1_556 S
C342 C343 1.367 . S
C342 C350 1.378 . S
C343 C342 1.367 . S
C343 C351 1.433 . S
C344 H340 0.929 . S
C344 C346 1.378 . S
C344 C348 1.350 . S
C345 C348 1.463 . S
C345 C350 1.350 . S
C345 N353 1.427 . S
C346 H337 0.930 . S
C346 C344 1.378 . S
C346 C347 1.367 . S
C347 C346 1.367 . S
C347 C349 1.433 . S
C348 C344 1.350 . S
C348 C345 1.463 . S
C348 N352 1.427 . S
C349 H339 0.929 . S
C349 C347 1.433 . S
C349 N352 1.384 . S
C350 H341 0.929 . S
C350 C342 1.378 . S
C350 C345 1.350 . S
C351 H338 0.929 . S
C351 C343 1.433 . S
C351 N353 1.384 . S
N352 C348 1.427 . S
N352 C349 1.384 . S
N353 C345 1.427 . S
N353 C351 1.384 . S
H354 C360 0.930 . S
H355 C364 0.930 . S
H356 C369 0.929 . S
H357 C367 0.929 . S
H358 C362 0.929 . S
H359 C368 0.929 . S
C360 H354 0.930 . S
C360 C361 1.367 . S
C360 C368 1.378 . S
C361 C360 1.367 . S
C361 C369 1.433 . S
C362 H358 0.929 . S
C362 C364 1.378 . S
C362 C366 1.350 . S
C363 C366 1.463 . S
C363 C368 1.350 . S
C363 N371 1.427 . S
C364 H355 0.930 . S
C364 C362 1.378 . S
C364 C365 1.367 . S
C365 C364 1.367 . S
C365 C367 1.433 . S
C366 C362 1.350 . S
C366 C363 1.463 . S
C366 N370 1.427 . S
C367 H357 0.929 . S
C367 C365 1.433 . S
C367 N370 1.384 . S
C368 H359 0.929 . S
C368 C360 1.378 . S
C368 C363 1.350 . S
C369 H356 0.929 . S
C369 C361 1.433 . S
C369 N371 1.384 . S
N370 C366 1.427 . S
N370 C367 1.384 . S
N371 C363 1.427 . S
N371 C369 1.384 . S
H372 C378 0.930 . S
H373 C382 0.930 . S
H374 C387 0.929 . S
H375 C385 0.929 . S
H376 C380 0.929 . S
H377 C386 0.929 . S
C378 H372 0.930 . S
C378 C379 1.367 . S
C378 C386 1.378 . S
C379 C378 1.367 . S
C379 C387 1.433 . S
C380 H376 0.929 . S
C380 C382 1.378 . S
C380 C384 1.350 . S
C381 C384 1.463 . S
C381 C386 1.350 . S
C381 N389 1.427 . S
C382 H373 0.930 . S
C382 C380 1.378 . S
C382 C383 1.367 . S
C383 C382 1.367 . S
C383 C385 1.433 . S
C384 C380 1.350 . S
C384 C381 1.463 . S
C384 N388 1.427 . S
C385 H375 0.929 . S
C385 C383 1.433 . S
C385 N388 1.384 . S
C386 H377 0.929 . S
C386 C378 1.378 . S
C386 C381 1.350 . S
C387 H374 0.929 . S
C387 C379 1.433 . S
C387 N389 1.384 . S
N388 C384 1.427 . S
N388 C385 1.384 . S
N389 C381 1.427 . S
N389 C387 1.384 . S
H390 C396 0.930 . S
H391 C400 0.930 . S
H392 C405 0.929 . S
H393 C403 0.929 . S
H394 C398 0.929 . S
H395 C404 0.929 . S
C396 H390 0.930 . S
C396 C397 1.367 . S
C396 C404 1.378 . S
C397 C396 1.367 . S
C397 C405 1.433 . S
C398 H394 0.929 . S
C398 C400 1.378 . S
C398 C402 1.350 . S
C399 C402 1.463 . S
C399 C404 1.350 . S
C399 N407 1.427 . S
C400 H391 0.930 . S
C400 C398 1.378 . S
C400 C401 1.367 . S
C401 C400 1.367 . S
C401 C403 1.433 . S
C402 C398 1.350 . S
C402 C399 1.463 . S
C402 N406 1.427 . S
C403 H393 0.929 . S
C403 C401 1.433 . S
C403 N406 1.384 . S
C404 H395 0.929 . S
C404 C396 1.378 . S
C404 C399 1.350 . S
C405 H392 0.929 . S
C405 C397 1.433 . S
C405 N407 1.384 . S
N406 C402 1.427 . S
N406 C403 1.384 . S
N407 C399 1.427 . S
N407 C405 1.384 . S
H408 C414 0.930 . S
H409 C418 0.930 1_556 S
H410 C423 0.929 . S
H411 C421 0.929 . S
H412 C416 0.929 . S
H413 C422 0.929 . S
C414 H408 0.930 . S
C414 C415 1.367 . S
C414 C422 1.378 . S
C415 C414 1.367 . S
C415 C423 1.433 . S
C416 H412 0.929 . S
C416 C418 1.378 . S
C416 C420 1.350 . S
C417 C420 1.463 . S
C417 C422 1.350 . S
C417 N425 1.427 . S
C418 H409 0.930 1_554 S
C418 C416 1.378 . S
C418 C419 1.367 . S
C419 C418 1.367 . S
C419 C421 1.433 . S
C420 C416 1.350 . S
C420 C417 1.463 . S
C420 N424 1.427 . S
C421 H411 0.929 . S
C421 C419 1.433 . S
C421 N424 1.384 . S
C422 H413 0.929 . S
C422 C414 1.378 . S
C422 C417 1.350 . S
C423 H410 0.929 . S
C423 C415 1.433 . S
C423 N425 1.384 . S
N424 C420 1.427 . S
N424 C421 1.384 . S
N425 C417 1.427 . S
N425 C423 1.384 . S
H426 C432 0.930 . S
H427 C436 0.930 . S
H428 C441 0.929 . S
H429 C439 0.929 . S
H430 C434 0.929 . S
H431 C440 0.929 . S
C432 H426 0.930 . S
C432 C433 1.367 . S
C432 C440 1.378 . S
C433 C432 1.367 . S
C433 C441 1.433 . S
C434 H430 0.929 . S
C434 C436 1.378 . S
C434 C438 1.350 . S
C435 C438 1.463 . S
C435 C440 1.350 . S
C435 N443 1.427 . S
C436 H427 0.930 . S
C436 C434 1.378 . S
C436 C437 1.367 . S
C437 C436 1.367 . S
C437 C439 1.433 . S
C438 C434 1.350 . S
C438 C435 1.463 . S
C438 N442 1.427 . S
C439 H429 0.929 . S
C439 C437 1.433 . S
C439 N442 1.384 . S
C440 H431 0.929 . S
C440 C432 1.378 . S
C440 C435 1.350 . S
C441 H428 0.929 . S
C441 C433 1.433 . S
C441 N443 1.384 . S
N442 C438 1.427 . S
N442 C439 1.384 . S
N443 C435 1.427 . S
N443 C441 1.384 . S
H444 C450 0.930 . S
H445 C454 0.930 . S
H446 C459 0.929 . S
H447 C457 0.929 . S
H448 C452 0.929 . S
H449 C458 0.929 . S
C450 H444 0.930 . S
C450 C451 1.367 . S
C450 C458 1.378 . S
C451 C450 1.367 . S
C451 C459 1.433 . S
C452 H448 0.929 . S
C452 C454 1.378 . S
C452 C456 1.350 . S
C453 C456 1.463 . S
C453 C458 1.350 . S
C453 N461 1.427 . S
C454 H445 0.930 . S
C454 C452 1.378 . S
C454 C455 1.367 . S
C455 C454 1.367 . S
C455 C457 1.433 . S
C456 C452 1.350 . S
C456 C453 1.463 . S
C456 N460 1.427 . S
C457 H447 0.929 . S
C457 C455 1.433 . S
C457 N460 1.384 . S
C458 H449 0.929 . S
C458 C450 1.378 . S
C458 C453 1.350 . S
C459 H446 0.929 . S
C459 C451 1.433 . S
C459 N461 1.384 . S
N460 C456 1.427 . S
N460 C457 1.384 . S
N461 C453 1.427 . S
N461 C459 1.384 . S
H462 C468 0.930 . S
H463 C472 0.930 . S
H464 C477 0.929 . S
H465 C475 0.929 . S
H466 C470 0.929 . S
H467 C476 0.929 . S
C468 H462 0.930 . S
C468 C469 1.367 . S
C468 C476 1.378 . S
C469 C468 1.367 . S
C469 C477 1.433 . S
C470 H466 0.929 . S
C470 C472 1.378 . S
C470 C474 1.350 . S
C471 C474 1.463 . S
C471 C476 1.350 . S
C471 N479 1.427 . S
C472 H463 0.930 . S
C472 C470 1.378 . S
C472 C473 1.367 . S
C473 C472 1.367 . S
C473 C475 1.433 . S
C474 C470 1.350 . S
C474 C471 1.463 . S
C474 N478 1.427 . S
C475 H465 0.929 . S
C475 C473 1.433 . S
C475 N478 1.384 . S
C476 H467 0.929 . S
C476 C468 1.378 . S
C476 C471 1.350 . S
C477 H464 0.929 . S
C477 C469 1.433 . S
C477 N479 1.384 . S
N478 C474 1.427 . S
N478 C475 1.384 . S
N479 C471 1.427 . S
N479 C477 1.384 . S
H480 C486 0.930 . S
H481 C490 0.930 . S
H482 C495 0.929 . S
H483 C493 0.929 . S
H484 C488 0.929 . S
H485 C494 0.929 . S
C486 H480 0.930 . S
C486 C487 1.367 . S
C486 C494 1.378 . S
C487 C486 1.367 . S
C487 C495 1.433 . S
C488 H484 0.929 . S
C488 C490 1.378 . S
C488 C492 1.350 . S
C489 C492 1.463 . S
C489 C494 1.350 . S
C489 N497 1.427 . S
C490 H481 0.930 . S
C490 C488 1.378 . S
C490 C491 1.367 . S
C491 C490 1.367 . S
C491 C493 1.433 . S
C492 C488 1.350 . S
C492 C489 1.463 . S
C492 N496 1.427 . S
C493 H483 0.929 . S
C493 C491 1.433 . S
C493 N496 1.384 . S
C494 H485 0.929 . S
C494 C486 1.378 . S
C494 C489 1.350 . S
C495 H482 0.929 . S
C495 C487 1.433 . S
C495 N497 1.384 . S
N496 C492 1.427 . S
N496 C493 1.384 . S
N497 C489 1.427 . S
N497 C495 1.384 . S
H498 C504 0.930 . S
H499 C508 0.930 . S
H500 C513 0.929 . S
H501 C511 0.929 . S
H502 C506 0.929 . S
H503 C512 0.929 . S
C504 H498 0.930 . S
C504 C505 1.367 . S
C504 C512 1.378 . S
C505 C504 1.367 . S
C505 C513 1.433 . S
C506 H502 0.929 . S
C506 C508 1.378 . S
C506 C510 1.350 . S
C507 C510 1.463 . S
C507 C512 1.350 . S
C507 N515 1.427 . S
C508 H499 0.930 . S
C508 C506 1.378 . S
C508 C509 1.367 . S
C509 C508 1.367 . S
C509 C511 1.433 . S
C510 C506 1.350 . S
C510 C507 1.463 . S
C510 N514 1.427 . S
C511 H501 0.929 . S
C511 C509 1.433 . S
C511 N514 1.384 . S
C512 H503 0.929 . S
C512 C504 1.378 . S
C512 C507 1.350 . S
C513 H500 0.929 . S
C513 C505 1.433 . S
C513 N515 1.384 . S
N514 C510 1.427 . S
N514 C511 1.384 . S
N515 C507 1.427 . S
N515 C513 1.384 . S
H516 C522 0.930 . S
H517 C526 0.930 . S
H518 C531 0.929 . S
H519 C529 0.929 . S
H520 C524 0.929 . S
H521 C530 0.929 . S
C522 H516 0.930 . S
C522 C523 1.367 . S
C522 C530 1.378 . S
C523 C522 1.367 . S
C523 C531 1.433 . S
C524 H520 0.929 . S
C524 C526 1.378 . S
C524 C528 1.350 . S
C525 C528 1.463 . S
C525 C530 1.350 . S
C525 N533 1.427 . S
C526 H517 0.930 . S
C526 C524 1.378 . S
C526 C527 1.367 . S
C527 C526 1.367 . S
C527 C529 1.433 . S
C528 C524 1.350 . S
C528 C525 1.463 . S
C528 N532 1.427 . S
C529 H519 0.929 . S
C529 C527 1.433 . S
C529 N532 1.384 . S
C530 H521 0.929 . S
C530 C522 1.378 . S
C530 C525 1.350 . S
C531 H518 0.929 . S
C531 C523 1.433 . S
C531 N533 1.384 . S
N532 C528 1.427 . S
N532 C529 1.384 . S
N533 C525 1.427 . S
N533 C531 1.384 . S
H534 C540 0.930 . S
H535 C544 0.930 . S
H536 C549 0.929 . S
H537 C547 0.929 . S
H538 C542 0.929 . S
H539 C548 0.929 . S
C540 H534 0.930 . S
C540 C541 1.367 . S
C540 C548 1.378 . S
C541 C540 1.367 . S
C541 C549 1.433 . S
C542 H538 0.929 . S
C542 C544 1.378 . S
C542 C546 1.350 . S
C543 C546 1.463 . S
C543 C548 1.350 . S
C543 N551 1.427 . S
C544 H535 0.930 . S
C544 C542 1.378 . S
C544 C545 1.367 . S
C545 C544 1.367 . S
C545 C547 1.433 . S
C546 C542 1.350 . S
C546 C543 1.463 . S
C546 N550 1.427 . S
C547 H537 0.929 . S
C547 C545 1.433 . S
C547 N550 1.384 . S
C548 H539 0.929 . S
C548 C540 1.378 . S
C548 C543 1.350 . S
C549 H536 0.929 . S
C549 C541 1.433 . S
C549 N551 1.384 . S
N550 C546 1.427 . S
N550 C547 1.384 . S
N551 C543 1.427 . S
N551 C549 1.384 . S
H552 C558 0.930 . S
H553 C562 0.930 . S
H554 C567 0.929 . S
H555 C565 0.929 . S
H556 C560 0.929 . S
H557 C566 0.929 . S
C558 H552 0.930 . S
C558 C559 1.367 . S
C558 C566 1.378 . S
C559 C558 1.367 . S
C559 C567 1.433 . S
C560 H556 0.929 . S
C560 C562 1.378 . S
C560 C564 1.350 . S
C561 C564 1.463 . S
C561 C566 1.350 . S
C561 N569 1.427 . S
C562 H553 0.930 . S
C562 C560 1.378 . S
C562 C563 1.367 . S
C563 C562 1.367 . S
C563 C565 1.433 . S
C564 C560 1.350 . S
C564 C561 1.463 . S
C564 N568 1.427 . S
C565 H555 0.929 . S
C565 C563 1.433 . S
C565 N568 1.384 . S
C566 H557 0.929 . S
C566 C558 1.378 . S
C566 C561 1.350 . S
C567 H554 0.929 . S
C567 C559 1.433 . S
C567 N569 1.384 . S
N568 C564 1.427 . S
N568 C565 1.384 . S
N569 C561 1.427 . S
N569 C567 1.384 . S
H570 C576 0.930 . S
H571 C580 0.930 . S
H572 C585 0.929 . S
H573 C583 0.929 . S
H574 C578 0.929 . S
H575 C584 0.929 . S
C576 H570 0.930 . S
C576 C577 1.367 . S
C576 C584 1.378 . S
C577 C576 1.367 . S
C577 C585 1.433 . S
C578 H574 0.929 . S
C578 C580 1.378 . S
C578 C582 1.350 . S
C579 C582 1.463 . S
C579 C584 1.350 . S
C579 N587 1.427 . S
C580 H571 0.930 . S
C580 C578 1.378 . S
C580 C581 1.367 . S
C581 C580 1.367 . S
C581 C583 1.433 . S
C582 C578 1.350 . S
C582 C579 1.463 . S
C582 N586 1.427 . S
C583 H573 0.929 . S
C583 C581 1.433 . S
C583 N586 1.384 . S
C584 H575 0.929 . S
C584 C576 1.378 . S
C584 C579 1.350 . S
C585 H572 0.929 . S
C585 C577 1.433 . S
C585 N587 1.384 . S
N586 C582 1.427 . S
N586 C583 1.384 . S
N587 C579 1.427 . S
N587 C585 1.384 . S
H588 C594 0.930 . S
H589 C598 0.930 . S
H590 C603 0.929 . S
H591 C601 0.929 1_556 S
H592 C596 0.929 . S
H593 C602 0.929 . S
C594 H588 0.930 . S
C594 C595 1.367 . S
C594 C602 1.378 . S
C595 C594 1.367 . S
C595 C603 1.433 . S
C596 H592 0.929 . S
C596 C598 1.378 . S
C596 C600 1.350 . S
C597 C600 1.463 . S
C597 C602 1.350 . S
C597 N605 1.427 . S
C598 H589 0.930 . S
C598 C596 1.378 . S
C598 C599 1.367 . S
C599 C598 1.367 . S
C599 C601 1.433 . S
C600 C596 1.350 . S
C600 C597 1.463 . S
C600 N604 1.427 . S
C601 H591 0.929 1_554 S
C601 C599 1.433 . S
C601 N604 1.384 . S
C602 H593 0.929 . S
C602 C594 1.378 . S
C602 C597 1.350 . S
C603 H590 0.929 . S
C603 C595 1.433 . S
C603 N605 1.384 . S
N604 C600 1.427 . S
N604 C601 1.384 . S
N605 C597 1.427 . S
N605 C603 1.384 . S
H606 C612 0.930 . S
H607 C616 0.930 1_554 S
H608 C621 0.929 . S
H609 C619 0.929 . S
H610 C614 0.929 . S
H611 C620 0.929 . S
C612 H606 0.930 . S
C612 C613 1.367 . S
C612 C620 1.378 . S
C613 C612 1.367 . S
C613 C621 1.433 . S
C614 H610 0.929 . S
C614 C616 1.378 . S
C614 C618 1.350 . S
C615 C618 1.463 . S
C615 C620 1.350 . S
C615 N623 1.427 . S
C616 H607 0.930 1_556 S
C616 C614 1.378 . S
C616 C617 1.367 . S
C617 C616 1.367 . S
C617 C619 1.433 . S
C618 C614 1.350 . S
C618 C615 1.463 . S
C618 N622 1.427 . S
C619 H609 0.929 . S
C619 C617 1.433 . S
C619 N622 1.384 . S
C620 H611 0.929 . S
C620 C612 1.378 . S
C620 C615 1.350 . S
C621 H608 0.929 . S
C621 C613 1.433 . S
C621 N623 1.384 . S
N622 C618 1.427 . S
N622 C619 1.384 . S
N623 C615 1.427 . S
N623 C621 1.384 . S
H624 C630 0.930 . S
H625 C634 0.930 . S
H626 C639 0.929 . S
H627 C637 0.929 . S
H628 C632 0.929 . S
H629 C638 0.929 . S
C630 H624 0.930 . S
C630 C631 1.367 1_455 S
C630 C638 1.378 . S
C631 C630 1.367 1_655 S
C631 C639 1.433 . S
C632 H628 0.929 . S
C632 C634 1.378 . S
C632 C636 1.350 1_655 S
C633 C636 1.463 . S
C633 C638 1.350 . S
C633 N641 1.427 1_455 S
C634 H625 0.930 . S
C634 C632 1.378 . S
C634 C635 1.367 1_655 S
C635 C634 1.367 1_455 S
C635 C637 1.433 . S
C636 C632 1.350 1_455 S
C636 C633 1.463 . S
C636 N640 1.427 . S
C637 H627 0.929 . S
C637 C635 1.433 . S
C637 N640 1.384 . S
C638 H629 0.929 . S
C638 C630 1.378 . S
C638 C633 1.350 . S
C639 H626 0.929 . S
C639 C631 1.433 . S
C639 N641 1.384 . S
N640 C636 1.427 . S
N640 C637 1.384 . S
N641 C633 1.427 1_655 S
N641 C639 1.384 . S
H642 C648 0.930 . S
H643 C652 0.930 . S
H644 C657 0.929 . S
H645 C655 0.929 . S
H646 C650 0.929 . S
H647 C656 0.929 . S
C648 H642 0.930 . S
C648 C649 1.367 . S
C648 C656 1.378 . S
C649 C648 1.367 . S
C649 C657 1.433 . S
C650 H646 0.929 . S
C650 C652 1.378 . S
C650 C654 1.350 . S
C651 C654 1.463 1_655 S
C651 C656 1.350 . S
C651 N659 1.427 . S
C652 H643 0.930 . S
C652 C650 1.378 . S
C652 C653 1.367 . S
C653 C652 1.367 . S
C653 C655 1.433 . S
C654 C650 1.350 . S
C654 C651 1.463 1_455 S
C654 N658 1.427 . S
C655 H645 0.929 . S
C655 C653 1.433 . S
C655 N658 1.384 . S
C656 H647 0.929 . S
C656 C648 1.378 . S
C656 C651 1.350 . S
C657 H644 0.929 . S
C657 C649 1.433 . S
C657 N659 1.384 . S
N658 C654 1.427 . S
N658 C655 1.384 . S
N659 C651 1.427 . S
N659 C657 1.384 . S
H660 C666 0.930 . S
H661 C670 0.930 . S
H662 C675 0.929 . S
H663 C673 0.929 . S
H664 C668 0.929 . S
H665 C674 0.929 . S
C666 H660 0.930 . S
C666 C667 1.367 . S
C666 C674 1.378 . S
C667 C666 1.367 . S
C667 C675 1.433 . S
C668 H664 0.929 . S
C668 C670 1.378 . S
C668 C672 1.350 . S
C669 C672 1.463 . S
C669 C674 1.350 . S
C669 N677 1.427 . S
C670 H661 0.930 . S
C670 C668 1.378 . S
C670 C671 1.367 . S
C671 C670 1.367 . S
C671 C673 1.433 . S
C672 C668 1.350 . S
C672 C669 1.463 . S
C672 N676 1.427 . S
C673 H663 0.929 . S
C673 C671 1.433 . S
C673 N676 1.384 . S
C674 H665 0.929 . S
C674 C666 1.378 . S
C674 C669 1.350 . S
C675 H662 0.929 . S
C675 C667 1.433 . S
C675 N677 1.384 . S
N676 C672 1.427 . S
N676 C673 1.384 . S
N677 C669 1.427 . S
N677 C675 1.384 . S
H678 C684 0.930 . S
H679 C688 0.930 . S
H680 C693 0.929 . S
H681 C691 0.929 . S
H682 C686 0.929 . S
H683 C692 0.929 . S
C684 H678 0.930 . S
C684 C685 1.367 . S
C684 C692 1.378 . S
C685 C684 1.367 . S
C685 C693 1.433 . S
C686 H682 0.929 . S
C686 C688 1.378 . S
C686 C690 1.350 . S
C687 C690 1.463 . S
C687 C692 1.350 . S
C687 N695 1.427 . S
C688 H679 0.930 . S
C688 C686 1.378 . S
C688 C689 1.367 . S
C689 C688 1.367 . S
C689 C691 1.433 . S
C690 C686 1.350 . S
C690 C687 1.463 . S
C690 N694 1.427 . S
C691 H681 0.929 . S
C691 C689 1.433 . S
C691 N694 1.384 . S
C692 H683 0.929 . S
C692 C684 1.378 . S
C692 C687 1.350 . S
C693 H680 0.929 . S
C693 C685 1.433 . S
C693 N695 1.384 . S
N694 C690 1.427 . S
N694 C691 1.384 . S
N695 C687 1.427 . S
N695 C693 1.384 . S
H696 C702 0.924 1_655 S
H697 C706 0.930 . S
H698 C711 0.929 . S
H699 C709 0.929 . S
H700 C704 0.929 . S
H701 C710 0.929 . S
C702 H696 0.924 1_455 S
C702 C703 1.377 . S
C702 C710 1.375 1_455 S
C703 C702 1.377 . S
C703 C711 1.433 . S
C704 H700 0.929 . S
C704 C706 1.378 . S
C704 C708 1.350 . S
C705 C708 1.463 . S
C705 C710 1.350 1_455 S
C705 N713 1.427 . S
C706 H697 0.930 . S
C706 C704 1.378 . S
C706 C707 1.367 1_455 S
C707 C706 1.367 1_655 S
C707 C709 1.433 . S
C708 C704 1.350 . S
C708 C705 1.463 . S
C708 N712 1.427 1_455 S
C709 H699 0.929 . S
C709 C707 1.433 . S
C709 N712 1.384 . S
C710 H701 0.929 . S
C710 C702 1.375 1_655 S
C710 C705 1.350 1_655 S
C711 H698 0.929 . S
C711 C703 1.433 . S
C711 N713 1.384 . S
N712 C708 1.427 1_655 S
N712 C709 1.384 . S
N713 C705 1.427 . S
N713 C711 1.384 . S
H714 C720 0.930 . S
H715 C724 0.930 . S
H716 C729 0.929 . S
H717 C727 0.929 . S
H718 C722 0.929 . S
H719 C728 0.929 . S
C720 H714 0.930 . S
C720 C721 1.367 . S
C720 C728 1.378 . S
C721 C720 1.367 . S
C721 C729 1.433 . S
C722 H718 0.929 . S
C722 C724 1.378 . S
C722 C726 1.350 . S
C723 C726 1.463 . S
C723 C728 1.350 . S
C723 N731 1.427 . S
C724 H715 0.930 . S
C724 C722 1.378 . S
C724 C725 1.367 . S
C725 C724 1.367 . S
C725 C727 1.433 . S
C726 C722 1.350 . S
C726 C723 1.463 . S
C726 N730 1.427 . S
C727 H717 0.929 . S
C727 C725 1.433 . S
C727 N730 1.384 . S
C728 H719 0.929 . S
C728 C720 1.378 . S
C728 C723 1.350 . S
C729 H716 0.929 . S
C729 C721 1.433 . S
C729 N731 1.384 . S
N730 C726 1.427 . S
N730 C727 1.384 . S
N731 C723 1.427 . S
N731 C729 1.384 . S
H732 C738 0.930 . S
H733 C742 0.930 . S
H734 C747 0.929 . S
H735 C745 0.929 . S
H736 C740 0.929 . S
H737 C746 0.929 . S
C738 H732 0.930 . S
C738 C739 1.367 . S
C738 C746 1.378 . S
C739 C738 1.367 . S
C739 C747 1.433 . S
C740 H736 0.929 . S
C740 C742 1.378 . S
C740 C744 1.350 . S
C741 C744 1.463 . S
C741 C746 1.350 . S
C741 N749 1.427 . S
C742 H733 0.930 . S
C742 C740 1.378 . S
C742 C743 1.367 . S
C743 C742 1.367 . S
C743 C745 1.433 . S
C744 C740 1.350 . S
C744 C741 1.463 . S
C744 N748 1.427 . S
C745 H735 0.929 . S
C745 C743 1.433 . S
C745 N748 1.384 . S
C746 H737 0.929 . S
C746 C738 1.378 . S
C746 C741 1.350 . S
C747 H734 0.929 . S
C747 C739 1.433 . S
C747 N749 1.384 . S
N748 C744 1.427 . S
N748 C745 1.384 . S
N749 C741 1.427 . S
N749 C747 1.384 . S
H750 C756 0.930 . S
H751 C760 0.930 . S
H752 C765 0.929 . S
H753 C763 0.929 . S
H754 C758 0.929 . S
H755 C764 0.929 . S
C756 H750 0.930 . S
C756 C757 1.367 . S
C756 C764 1.378 . S
C757 C756 1.367 . S
C757 C765 1.433 . S
C758 H754 0.929 . S
C758 C760 1.378 . S
C758 C762 1.350 . S
C759 C762 1.463 1_455 S
C759 C764 1.350 . S
C759 N767 1.427 . S
C760 H751 0.930 . S
C760 C758 1.378 . S
C760 C761 1.367 . S
C761 C760 1.367 . S
C761 C763 1.433 . S
C762 C758 1.350 . S
C762 C759 1.463 1_655 S
C762 N766 1.427 . S
C763 H753 0.929 . S
C763 C761 1.433 . S
C763 N766 1.384 . S
C764 H755 0.929 . S
C764 C756 1.378 . S
C764 C759 1.350 . S
C765 H752 0.929 . S
C765 C757 1.433 . S
C765 N767 1.384 . S
N766 C762 1.427 . S
N766 C763 1.384 . S
N767 C759 1.427 . S
N767 C765 1.384 . S
H768 C774 0.928 1_655 S
H769 C778 0.930 . S
H770 C783 0.929 . S
H771 C781 0.928 . S
H772 C776 0.929 1_545 S
H773 C782 0.927 1_665 S
C774 H768 0.928 1_455 S
C774 C775 1.369 . S
C774 C782 1.378 . S
C775 C774 1.369 . S
C775 C783 1.433 . S
C776 H772 0.929 1_565 S
C776 C778 1.378 . S
C776 C780 1.350 . S
C777 C780 1.463 1_544 S
C777 C782 1.352 . S
C777 N785 1.427 . S
C778 H769 0.930 . S
C778 C776 1.378 . S
C778 C779 1.367 . S
C779 C778 1.367 . S
C779 C781 1.435 1_455 S
C780 C776 1.350 . S
C780 C777 1.463 1_566 S
C780 N784 1.428 . S
C781 H771 0.928 . S
C781 C779 1.435 1_655 S
C781 N784 1.384 1_655 S
C782 H773 0.927 1_445 S
C782 C774 1.378 . S
C782 C777 1.352 . S
C783 H770 0.929 . S
C783 C775 1.433 . S
C783 N785 1.384 . S
N784 C780 1.428 . S
N784 C781 1.384 1_455 S
N785 C777 1.427 . S
N785 C783 1.384 . S
H786 C792 0.930 . S
H787 C796 0.930 . S
H788 C801 0.929 . S
H789 C799 0.929 . S
H790 C794 0.929 . S
H791 C800 0.929 . S
C792 H786 0.930 . S
C792 C793 1.367 . S
C792 C800 1.378 . S
C793 C792 1.367 . S
C793 C801 1.433 . S
C794 H790 0.929 . S
C794 C796 1.378 . S
C794 C798 1.350 . S
C795 C798 1.463 . S
C795 C800 1.350 . S
C795 N803 1.427 . S
C796 H787 0.930 . S
C796 C794 1.378 . S
C796 C797 1.367 . S
C797 C796 1.367 . S
C797 C799 1.433 . S
C798 C794 1.350 . S
C798 C795 1.463 . S
C798 N802 1.427 . S
C799 H789 0.929 . S
C799 C797 1.433 . S
C799 N802 1.384 . S
C800 H791 0.929 . S
C800 C792 1.378 . S
C800 C795 1.350 . S
C801 H788 0.929 . S
C801 C793 1.433 . S
C801 N803 1.384 . S
N802 C798 1.427 . S
N802 C799 1.384 . S
N803 C795 1.427 . S
N803 C801 1.384 . S
H804 C810 0.930 . S
H805 C814 0.930 . S
H806 C819 0.929 . S
H807 C817 0.929 . S
H808 C812 0.929 . S
H809 C818 0.929 . S
C810 H804 0.930 . S
C810 C811 1.367 . S
C810 C818 1.378 . S
C811 C810 1.367 . S
C811 C819 1.433 . S
C812 H808 0.929 . S
C812 C814 1.378 . S
C812 C816 1.350 . S
C813 C816 1.463 1_545 S
C813 C818 1.350 . S
C813 N821 1.427 . S
C814 H805 0.930 . S
C814 C812 1.378 . S
C814 C815 1.367 . S
C815 C814 1.367 . S
C815 C817 1.433 . S
C816 C812 1.350 . S
C816 C813 1.463 1_565 S
C816 N820 1.427 . S
C817 H807 0.929 . S
C817 C815 1.433 . S
C817 N820 1.384 . S
C818 H809 0.929 . S
C818 C810 1.378 . S
C818 C813 1.350 . S
C819 H806 0.929 . S
C819 C811 1.433 . S
C819 N821 1.384 . S
N820 C816 1.427 . S
N820 C817 1.384 . S
N821 C813 1.427 . S
N821 C819 1.384 . S
H822 C828 0.930 . S
H823 C832 0.930 . S
H824 C837 0.929 . S
H825 C835 0.929 . S
H826 C830 0.929 . S
H827 C836 0.929 . S
C828 H822 0.930 . S
C828 C829 1.367 . S
C828 C836 1.378 . S
C829 C828 1.367 . S
C829 C837 1.433 . S
C830 H826 0.929 . S
C830 C832 1.378 . S
C830 C834 1.350 . S
C831 C834 1.463 . S
C831 C836 1.350 . S
C831 N839 1.427 . S
C832 H823 0.930 . S
C832 C830 1.378 . S
C832 C833 1.367 . S
C833 C832 1.367 . S
C833 C835 1.433 . S
C834 C830 1.350 . S
C834 C831 1.463 . S
C834 N838 1.427 . S
C835 H825 0.929 . S
C835 C833 1.433 . S
C835 N838 1.384 . S
C836 H827 0.929 . S
C836 C828 1.378 . S
C836 C831 1.350 . S
C837 H824 0.929 . S
C837 C829 1.433 . S
C837 N839 1.384 . S
N838 C834 1.427 . S
N838 C835 1.384 . S
N839 C831 1.427 . S
N839 C837 1.384 . S
H840 C846 0.930 . S
H841 C850 0.930 . S
H842 C855 0.929 . S
H843 C853 0.929 . S
H844 C848 0.929 . S
H845 C854 0.929 . S
C846 H840 0.930 . S
C846 C847 1.367 . S
C846 C854 1.378 . S
C847 C846 1.367 . S
C847 C855 1.433 . S
C848 H844 0.929 . S
C848 C850 1.378 . S
C848 C852 1.350 . S
C849 C852 1.463 . S
C849 C854 1.350 . S
C849 N857 1.427 . S
C850 H841 0.930 . S
C850 C848 1.378 . S
C850 C851 1.367 . S
C851 C850 1.367 . S
C851 C853 1.433 . S
C852 C848 1.350 . S
C852 C849 1.463 . S
C852 N856 1.427 . S
C853 H843 0.929 . S
C853 C851 1.433 . S
C853 N856 1.384 . S
C854 H845 0.929 . S
C854 C846 1.378 . S
C854 C849 1.350 . S
C855 H842 0.929 . S
C855 C847 1.433 . S
C855 N857 1.384 . S
N856 C852 1.427 . S
N856 C853 1.384 . S
N857 C849 1.427 . S
N857 C855 1.384 . S
H858 C864 0.930 . S
H859 C868 0.930 . S
H860 C873 0.929 . S
H861 C871 0.929 . S
H862 C866 0.929 . S
H863 C872 0.929 . S
C864 H858 0.930 . S
C864 C865 1.367 . S
C864 C872 1.378 . S
C865 C864 1.367 . S
C865 C873 1.433 . S
C866 H862 0.929 . S
C866 C868 1.378 . S
C866 C870 1.350 . S
C867 C870 1.463 . S
C867 C872 1.350 . S
C867 N875 1.427 . S
C868 H859 0.930 . S
C868 C866 1.378 . S
C868 C869 1.367 . S
C869 C868 1.367 . S
C869 C871 1.433 . S
C870 C866 1.350 . S
C870 C867 1.463 . S
C870 N874 1.427 . S
C871 H861 0.929 . S
C871 C869 1.433 . S
C871 N874 1.384 . S
C872 H863 0.929 . S
C872 C864 1.378 . S
C872 C867 1.350 . S
C873 H860 0.929 . S
C873 C865 1.433 . S
C873 N875 1.384 . S
N874 C870 1.427 . S
N874 C871 1.384 . S
N875 C867 1.427 . S
N875 C873 1.384 . S
H876 C882 0.930 . S
H877 C886 0.930 . S
H878 C891 0.929 . S
H879 C889 0.929 . S
H880 C884 0.929 . S
H881 C890 0.929 . S
C882 H876 0.930 . S
C882 C883 1.367 . S
C882 C890 1.378 . S
C883 C882 1.367 . S
C883 C891 1.433 . S
C884 H880 0.929 . S
C884 C886 1.378 . S
C884 C888 1.350 . S
C885 C888 1.463 . S
C885 C890 1.350 . S
C885 N893 1.427 . S
C886 H877 0.930 . S
C886 C884 1.378 . S
C886 C887 1.367 . S
C887 C886 1.367 . S
C887 C889 1.433 . S
C888 C884 1.350 . S
C888 C885 1.463 . S
C888 N892 1.427 . S
C889 H879 0.929 . S
C889 C887 1.433 . S
C889 N892 1.384 . S
C890 H881 0.929 . S
C890 C882 1.378 . S
C890 C885 1.350 . S
C891 H878 0.929 . S
C891 C883 1.433 . S
C891 N893 1.384 . S
N892 C888 1.427 . S
N892 C889 1.384 . S
N893 C885 1.427 . S
N893 C891 1.384 . S
H894 C900 0.930 . S
H895 C904 0.930 . S
H896 C909 0.929 . S
H897 C907 0.929 . S
H898 C902 0.929 . S
H899 C908 0.929 . S
C900 H894 0.930 . S
C900 C901 1.367 1_455 S
C900 C908 1.378 . S
C901 C900 1.367 1_655 S
C901 C909 1.433 . S
C902 H898 0.929 . S
C902 C904 1.378 . S
C902 C906 1.350 . S
C903 C906 1.463 1_556 S
C903 C908 1.350 1_655 S
C903 N911 1.427 . S
C904 H895 0.930 . S
C904 C902 1.378 . S
C904 C905 1.367 . S
C905 C904 1.367 . S
C905 C907 1.433 1_655 S
C906 C902 1.350 . S
C906 C903 1.463 1_554 S
C906 N910 1.427 1_655 S
C907 H897 0.929 . S
C907 C905 1.433 1_455 S
C907 N910 1.384 . S
C908 H899 0.929 . S
C908 C900 1.378 . S
C908 C903 1.350 1_455 S
C909 H896 0.929 . S
C909 C901 1.433 . S
C909 N911 1.384 . S
N910 C906 1.427 1_455 S
N910 C907 1.384 . S
N911 C903 1.427 . S
N911 C909 1.384 . S
H912 C918 0.930 . S
H913 C922 0.930 . S
H914 C927 0.929 . S
H915 C925 0.929 . S
H916 C920 0.929 . S
H917 C926 0.929 . S
C918 H912 0.930 . S
C918 C919 1.367 . S
C918 C926 1.378 . S
C919 C918 1.367 . S
C919 C927 1.433 . S
C920 H916 0.929 . S
C920 C922 1.378 . S
C920 C924 1.350 . S
C921 C924 1.463 . S
C921 C926 1.350 . S
C921 N929 1.427 . S
C922 H913 0.930 . S
C922 C920 1.378 . S
C922 C923 1.367 . S
C923 C922 1.367 . S
C923 C925 1.433 . S
C924 C920 1.350 . S
C924 C921 1.463 . S
C924 N928 1.427 . S
C925 H915 0.929 . S
C925 C923 1.433 . S
C925 N928 1.384 . S
C926 H917 0.929 . S
C926 C918 1.378 . S
C926 C921 1.350 . S
C927 H914 0.929 . S
C927 C919 1.433 . S
C927 N929 1.384 . S
N928 C924 1.427 . S
N928 C925 1.384 . S
N929 C921 1.427 . S
N929 C927 1.384 . S
H930 C936 0.930 . S
H931 C940 0.930 . S
H932 C945 0.929 . S
H933 C943 0.929 . S
H934 C938 0.929 . S
H935 C944 0.929 . S
C936 H930 0.930 . S
C936 C937 1.367 . S
C936 C944 1.378 . S
C937 C936 1.367 . S
C937 C945 1.433 . S
C938 H934 0.929 . S
C938 C940 1.378 . S
C938 C942 1.350 . S
C939 C942 1.463 . S
C939 C944 1.350 . S
C939 N947 1.427 . S
C940 H931 0.930 . S
C940 C938 1.378 . S
C940 C941 1.367 . S
C941 C940 1.367 . S
C941 C943 1.433 . S
C942 C938 1.350 . S
C942 C939 1.463 . S
C942 N946 1.427 . S
C943 H933 0.929 . S
C943 C941 1.433 . S
C943 N946 1.384 . S
C944 H935 0.929 . S
C944 C936 1.378 . S
C944 C939 1.350 . S
C945 H932 0.929 . S
C945 C937 1.433 . S
C945 N947 1.384 . S
N946 C942 1.427 . S
N946 C943 1.384 . S
N947 C939 1.427 . S
N947 C945 1.384 . S
H948 C954 0.930 . S
H949 C958 0.930 . S
H950 C963 0.929 1_554 S
H951 C961 0.929 . S
H952 C956 0.929 . S
H953 C962 0.929 . S
C954 H948 0.930 . S
C954 C955 1.367 . S
C954 C962 1.378 . S
C955 C954 1.367 . S
C955 C963 1.433 . S
C956 H952 0.929 . S
C956 C958 1.378 . S
C956 C960 1.350 . S
C957 C960 1.463 . S
C957 C962 1.350 . S
C957 N965 1.427 . S
C958 H949 0.930 . S
C958 C956 1.378 . S
C958 C959 1.367 . S
C959 C958 1.367 . S
C959 C961 1.433 . S
C960 C956 1.350 . S
C960 C957 1.463 . S
C960 N964 1.427 . S
C961 H951 0.929 . S
C961 C959 1.433 . S
C961 N964 1.384 . S
C962 H953 0.929 . S
C962 C954 1.378 . S
C962 C957 1.350 . S
C963 H950 0.929 1_556 S
C963 C955 1.433 . S
C963 N965 1.384 . S
N964 C960 1.427 . S
N964 C961 1.384 . S
N965 C957 1.427 . S
N965 C963 1.384 . S
H966 C972 0.930 . S
H967 C976 0.930 1_556 S
H968 C981 0.929 . S
H969 C979 0.929 . S
H970 C974 0.929 . S
H971 C980 0.929 . S
C972 H966 0.930 . S
C972 C973 1.367 . S
C972 C980 1.378 . S
C973 C972 1.367 . S
C973 C981 1.433 . S
C974 H970 0.929 . S
C974 C976 1.378 . S
C974 C978 1.350 . S
C975 C978 1.463 . S
C975 C980 1.350 . S
C975 N983 1.427 . S
C976 H967 0.930 1_554 S
C976 C974 1.378 . S
C976 C977 1.367 . S
C977 C976 1.367 . S
C977 C979 1.433 . S
C978 C974 1.350 . S
C978 C975 1.463 . S
C978 N982 1.427 . S
C979 H969 0.929 . S
C979 C977 1.433 . S
C979 N982 1.384 . S
C980 H971 0.929 . S
C980 C972 1.378 . S
C980 C975 1.350 . S
C981 H968 0.929 . S
C981 C973 1.433 . S
C981 N983 1.384 . S
N982 C978 1.427 . S
N982 C979 1.384 . S
N983 C975 1.427 . S
N983 C981 1.384 . S
H984 C990 0.930 . S
H985 C994 0.930 . S
H986 C999 0.929 . S
H987 C997 0.929 . S
H988 C992 0.929 . S
H989 C998 0.929 . S
C990 H984 0.930 . S
C990 C991 1.367 . S
C990 C998 1.378 . S
C991 C990 1.367 . S
C991 C999 1.433 . S
C992 H988 0.929 . S
C992 C994 1.378 . S
C992 C996 1.350 . S
C993 C996 1.463 . S
C993 C998 1.350 . S
C993 N1001 1.427 . S
C994 H985 0.930 . S
C994 C992 1.378 . S
C994 C995 1.367 . S
C995 C994 1.367 . S
C995 C997 1.433 . S
C996 C992 1.350 . S
C996 C993 1.463 . S
C996 N1000 1.427 . S
C997 H987 0.929 . S
C997 C995 1.433 . S
C997 N1000 1.384 . S
C998 H989 0.929 . S
C998 C990 1.378 . S
C998 C993 1.350 . S
C999 H986 0.929 . S
C999 C991 1.433 . S
C999 N1001 1.384 . S
N1000 C996 1.427 . S
N1000 C997 1.384 . S
N1001 C993 1.427 . S
N1001 C999 1.384 . S
H1002 C1008 0.930 . S
H1003 C1012 0.930 . S
H1004 C1017 0.929 . S
H1005 C1015 0.929 . S
H1006 C1010 0.929 . S
H1007 C1016 0.929 . S
C1008 H1002 0.930 . S
C1008 C1009 1.367 . S
C1008 C1016 1.378 . S
C1009 C1008 1.367 . S
C1009 C1017 1.433 . S
C1010 H1006 0.929 . S
C1010 C1012 1.378 . S
C1010 C1014 1.350 . S
C1011 C1014 1.463 . S
C1011 C1016 1.350 . S
C1011 N1019 1.427 . S
C1012 H1003 0.930 . S
C1012 C1010 1.378 . S
C1012 C1013 1.367 . S
C1013 C1012 1.367 . S
C1013 C1015 1.433 . S
C1014 C1010 1.350 . S
C1014 C1011 1.463 . S
C1014 N1018 1.427 . S
C1015 H1005 0.929 . S
C1015 C1013 1.433 . S
C1015 N1018 1.384 . S
C1016 H1007 0.929 . S
C1016 C1008 1.378 . S
C1016 C1011 1.350 . S
C1017 H1004 0.929 . S
C1017 C1009 1.433 . S
C1017 N1019 1.384 . S
N1018 C1014 1.427 . S
N1018 C1015 1.384 . S
N1019 C1011 1.427 . S
N1019 C1017 1.384 . S
H1020 C1026 0.930 . S
H1021 C1030 0.930 . S
H1022 C1035 0.929 1_556 S
H1023 C1033 0.929 . S
H1024 C1028 0.929 . S
H1025 C1034 0.929 . S
C1026 H1020 0.930 . S
C1026 C1027 1.367 . S
C1026 C1034 1.378 . S
C1027 C1026 1.367 . S
C1027 C1035 1.433 . S
C1028 H1024 0.929 . S
C1028 C1030 1.378 . S
C1028 C1032 1.350 . S
C1029 C1032 1.463 . S
C1029 C1034 1.350 . S
C1029 N1037 1.427 . S
C1030 H1021 0.930 . S
C1030 C1028 1.378 . S
C1030 C1031 1.367 . S
C1031 C1030 1.367 . S
C1031 C1033 1.433 . S
C1032 C1028 1.350 . S
C1032 C1029 1.463 . S
C1032 N1036 1.427 . S
C1033 H1023 0.929 . S
C1033 C1031 1.433 . S
C1033 N1036 1.384 . S
C1034 H1025 0.929 . S
C1034 C1026 1.378 . S
C1034 C1029 1.350 . S
C1035 H1022 0.929 1_554 S
C1035 C1027 1.433 . S
C1035 N1037 1.384 . S
N1036 C1032 1.427 . S
N1036 C1033 1.384 . S
N1037 C1029 1.427 . S
N1037 C1035 1.384 . S
H1038 C1044 0.930 . S
H1039 C1048 0.930 1_554 S
H1040 C1053 0.929 . S
H1041 C1051 0.929 . S
H1042 C1046 0.929 . S
H1043 C1052 0.929 . S
C1044 H1038 0.930 . S
C1044 C1045 1.367 . S
C1044 C1052 1.378 . S
C1045 C1044 1.367 . S
C1045 C1053 1.433 . S
C1046 H1042 0.929 . S
C1046 C1048 1.378 . S
C1046 C1050 1.350 . S
C1047 C1050 1.463 . S
C1047 C1052 1.350 . S
C1047 N1055 1.427 . S
C1048 H1039 0.930 1_556 S
C1048 C1046 1.378 . S
C1048 C1049 1.367 . S
C1049 C1048 1.367 . S
C1049 C1051 1.433 . S
C1050 C1046 1.350 . S
C1050 C1047 1.463 . S
C1050 N1054 1.427 . S
C1051 H1041 0.929 . S
C1051 C1049 1.433 . S
C1051 N1054 1.384 . S
C1052 H1043 0.929 . S
C1052 C1044 1.378 . S
C1052 C1047 1.350 . S
C1053 H1040 0.929 . S
C1053 C1045 1.433 . S
C1053 N1055 1.384 . S
N1054 C1050 1.427 . S
N1054 C1051 1.384 . S
N1055 C1047 1.427 . S
N1055 C1053 1.384 . S
H1056 C1062 0.930 . S
H1057 C1066 0.930 1_554 S
H1058 C1071 0.929 . S
H1059 C1069 0.929 . S
H1060 C1064 0.929 . S
H1061 C1070 0.929 . S
C1062 H1056 0.930 . S
C1062 C1063 1.367 . S
C1062 C1070 1.378 . S
C1063 C1062 1.367 . S
C1063 C1071 1.433 . S
C1064 H1060 0.929 . S
C1064 C1066 1.378 . S
C1064 C1068 1.350 . S
C1065 C1068 1.463 . S
C1065 C1070 1.350 . S
C1065 N1073 1.427 . S
C1066 H1057 0.930 1_556 S
C1066 C1064 1.378 . S
C1066 C1067 1.367 . S
C1067 C1066 1.367 . S
C1067 C1069 1.433 . S
C1068 C1064 1.350 . S
C1068 C1065 1.463 . S
C1068 N1072 1.427 . S
C1069 H1059 0.929 . S
C1069 C1067 1.433 . S
C1069 N1072 1.384 . S
C1070 H1061 0.929 . S
C1070 C1062 1.378 . S
C1070 C1065 1.350 . S
C1071 H1058 0.929 . S
C1071 C1063 1.433 . S
C1071 N1073 1.384 . S
N1072 C1068 1.427 . S
N1072 C1069 1.384 . S
N1073 C1065 1.427 . S
N1073 C1071 1.384 . S
H1074 C1080 0.930 . S
H1075 C1084 0.930 1_556 S
H1076 C1089 0.929 . S
H1077 C1087 0.929 . S
H1078 C1082 0.929 . S
H1079 C1088 0.929 . S
C1080 H1074 0.930 . S
C1080 C1081 1.367 . S
C1080 C1088 1.378 . S
C1081 C1080 1.367 . S
C1081 C1089 1.433 . S
C1082 H1078 0.929 . S
C1082 C1084 1.378 . S
C1082 C1086 1.350 . S
C1083 C1086 1.463 . S
C1083 C1088 1.350 . S
C1083 N1091 1.427 . S
C1084 H1075 0.930 1_554 S
C1084 C1082 1.378 . S
C1084 C1085 1.367 . S
C1085 C1084 1.367 . S
C1085 C1087 1.433 . S
C1086 C1082 1.350 . S
C1086 C1083 1.463 . S
C1086 N1090 1.427 . S
C1087 H1077 0.929 . S
C1087 C1085 1.433 . S
C1087 N1090 1.384 . S
C1088 H1079 0.929 . S
C1088 C1080 1.378 . S
C1088 C1083 1.350 . S
C1089 H1076 0.929 . S
C1089 C1081 1.433 . S
C1089 N1091 1.384 . S
N1090 C1086 1.427 . S
N1090 C1087 1.384 . S
N1091 C1083 1.427 . S
N1091 C1089 1.384 . S
H1092 C1098 0.930 . S
H1093 C1102 0.930 . S
H1094 C1107 0.929 . S
H1095 C1105 0.929 . S
H1096 C1100 0.929 . S
H1097 C1106 0.929 . S
C1098 H1092 0.930 . S
C1098 C1099 1.367 . S
C1098 C1106 1.378 . S
C1099 C1098 1.367 . S
C1099 C1107 1.433 . S
C1100 H1096 0.929 . S
C1100 C1102 1.378 . S
C1100 C1104 1.350 . S
C1101 C1104 1.463 . S
C1101 C1106 1.350 . S
C1101 N1109 1.427 . S
C1102 H1093 0.930 . S
C1102 C1100 1.378 . S
C1102 C1103 1.367 . S
C1103 C1102 1.367 . S
C1103 C1105 1.433 . S
C1104 C1100 1.350 . S
C1104 C1101 1.463 . S
C1104 N1108 1.427 . S
C1105 H1095 0.929 . S
C1105 C1103 1.433 . S
C1105 N1108 1.384 . S
C1106 H1097 0.929 . S
C1106 C1098 1.378 . S
C1106 C1101 1.350 . S
C1107 H1094 0.929 . S
C1107 C1099 1.433 . S
C1107 N1109 1.384 . S
N1108 C1104 1.427 . S
N1108 C1105 1.384 . S
N1109 C1101 1.427 . S
N1109 C1107 1.384 . S
H1110 C1116 0.930 . S
H1111 C1120 0.930 . S
H1112 C1125 0.929 . S
H1113 C1123 0.929 . S
H1114 C1118 0.929 . S
H1115 C1124 0.929 . S
C1116 H1110 0.930 . S
C1116 C1117 1.367 . S
C1116 C1124 1.378 . S
C1117 C1116 1.367 . S
C1117 C1125 1.433 . S
C1118 H1114 0.929 . S
C1118 C1120 1.378 . S
C1118 C1122 1.350 . S
C1119 C1122 1.463 . S
C1119 C1124 1.350 . S
C1119 N1127 1.427 . S
C1120 H1111 0.930 . S
C1120 C1118 1.378 . S
C1120 C1121 1.367 . S
C1121 C1120 1.367 . S
C1121 C1123 1.433 . S
C1122 C1118 1.350 . S
C1122 C1119 1.463 . S
C1122 N1126 1.427 . S
C1123 H1113 0.929 . S
C1123 C1121 1.433 . S
C1123 N1126 1.384 . S
C1124 H1115 0.929 . S
C1124 C1116 1.378 . S
C1124 C1119 1.350 . S
C1125 H1112 0.929 . S
C1125 C1117 1.433 . S
C1125 N1127 1.384 . S
N1126 C1122 1.427 . S
N1126 C1123 1.384 . S
N1127 C1119 1.427 . S
N1127 C1125 1.384 . S
H1128 C1134 0.930 . S
H1129 C1138 0.930 1_556 S
H1130 C1143 0.929 . S
H1131 C1141 0.929 . S
H1132 C1136 0.929 . S
H1133 C1142 0.929 . S
C1134 H1128 0.930 . S
C1134 C1135 1.367 . S
C1134 C1142 1.378 . S
C1135 C1134 1.367 . S
C1135 C1143 1.433 . S
C1136 H1132 0.929 . S
C1136 C1138 1.378 . S
C1136 C1140 1.350 . S
C1137 C1140 1.463 . S
C1137 C1142 1.350 . S
C1137 N1145 1.427 . S
C1138 H1129 0.930 1_554 S
C1138 C1136 1.378 . S
C1138 C1139 1.367 . S
C1139 C1138 1.367 . S
C1139 C1141 1.433 . S
C1140 C1136 1.350 . S
C1140 C1137 1.463 . S
C1140 N1144 1.427 . S
C1141 H1131 0.929 . S
C1141 C1139 1.433 . S
C1141 N1144 1.384 . S
C1142 H1133 0.929 . S
C1142 C1134 1.378 . S
C1142 C1137 1.350 . S
C1143 H1130 0.929 . S
C1143 C1135 1.433 . S
C1143 N1145 1.384 . S
N1144 C1140 1.427 . S
N1144 C1141 1.384 . S
N1145 C1137 1.427 . S
N1145 C1143 1.384 . S
H1146 C1152 0.930 . S
H1147 C1156 0.930 . S
H1148 C1161 0.929 . S
H1149 C1159 0.929 . S
H1150 C1154 0.929 . S
H1151 C1160 0.929 . S
C1152 H1146 0.930 . S
C1152 C1153 1.367 . S
C1152 C1160 1.378 . S
C1153 C1152 1.367 . S
C1153 C1161 1.433 . S
C1154 H1150 0.929 . S
C1154 C1156 1.378 . S
C1154 C1158 1.350 . S
C1155 C1158 1.463 . S
C1155 C1160 1.350 . S
C1155 N1163 1.427 . S
C1156 H1147 0.930 . S
C1156 C1154 1.378 . S
C1156 C1157 1.367 . S
C1157 C1156 1.367 . S
C1157 C1159 1.433 . S
C1158 C1154 1.350 . S
C1158 C1155 1.463 . S
C1158 N1162 1.427 . S
C1159 H1149 0.929 . S
C1159 C1157 1.433 . S
C1159 N1162 1.384 . S
C1160 H1151 0.929 . S
C1160 C1152 1.378 . S
C1160 C1155 1.350 . S
C1161 H1148 0.929 . S
C1161 C1153 1.433 . S
C1161 N1163 1.384 . S
N1162 C1158 1.427 . S
N1162 C1159 1.384 . S
N1163 C1155 1.427 . S
N1163 C1161 1.384 . S
H1164 C1170 0.930 . S
H1165 C1174 0.930 . S
H1166 C1179 0.929 . S
H1167 C1177 0.929 . S
H1168 C1172 0.929 . S
H1169 C1178 0.929 . S
C1170 H1164 0.930 . S
C1170 C1171 1.367 . S
C1170 C1178 1.378 . S
C1171 C1170 1.367 . S
C1171 C1179 1.433 . S
C1172 H1168 0.929 . S
C1172 C1174 1.378 . S
C1172 C1176 1.350 . S
C1173 C1176 1.463 . S
C1173 C1178 1.350 . S
C1173 N1181 1.427 . S
C1174 H1165 0.930 . S
C1174 C1172 1.378 . S
C1174 C1175 1.367 . S
C1175 C1174 1.367 . S
C1175 C1177 1.433 . S
C1176 C1172 1.350 . S
C1176 C1173 1.463 . S
C1176 N1180 1.427 . S
C1177 H1167 0.929 . S
C1177 C1175 1.433 . S
C1177 N1180 1.384 . S
C1178 H1169 0.929 . S
C1178 C1170 1.378 . S
C1178 C1173 1.350 . S
C1179 H1166 0.929 . S
C1179 C1171 1.433 . S
C1179 N1181 1.384 . S
N1180 C1176 1.427 . S
N1180 C1177 1.384 . S
N1181 C1173 1.427 . S
N1181 C1179 1.384 . S
H1182 C1188 0.930 . S
H1183 C1192 0.930 . S
H1184 C1197 0.929 . S
H1185 C1195 0.929 . S
H1186 C1190 0.929 . S
H1187 C1196 0.929 . S
C1188 H1182 0.930 . S
C1188 C1189 1.367 . S
C1188 C1196 1.378 . S
C1189 C1188 1.367 . S
C1189 C1197 1.433 . S
C1190 H1186 0.929 . S
C1190 C1192 1.378 . S
C1190 C1194 1.350 . S
C1191 C1194 1.463 . S
C1191 C1196 1.350 . S
C1191 N1199 1.427 . S
C1192 H1183 0.930 . S
C1192 C1190 1.378 . S
C1192 C1193 1.367 . S
C1193 C1192 1.367 . S
C1193 C1195 1.433 . S
C1194 C1190 1.350 . S
C1194 C1191 1.463 . S
C1194 N1198 1.427 . S
C1195 H1185 0.929 . S
C1195 C1193 1.433 . S
C1195 N1198 1.384 . S
C1196 H1187 0.929 . S
C1196 C1188 1.378 . S
C1196 C1191 1.350 . S
C1197 H1184 0.929 . S
C1197 C1189 1.433 . S
C1197 N1199 1.384 . S
N1198 C1194 1.427 . S
N1198 C1195 1.384 . S
N1199 C1191 1.427 . S
N1199 C1197 1.384 . S
C343 C14 1.369 1_556 S
C347 C164 1.361 . S
C361 C38 1.359 . S
C365 C98 1.382 1_554 S
C379 C119 1.357 . S
C383 C56 1.377 . S
C397 C77 1.362 . S
C401 C140 1.382 . S
C415 C249 1.241 . S
C419 C102 1.239 1_554 S
C433 C186 1.229 . S
C437 C18 1.256 1_556 S
C451 C225 1.245 . S
C455 C144 1.242 . S
C469 C60 1.256 . S
C473 C204 1.228 . S
C487 C206 1.380 . S
C491 C266 1.357 . S
C505 C227 1.372 . S
C509 C308 1.376 . S
C523 C287 1.382 1_556 S
C527 C182 1.360 . S
C541 C245 1.379 . S
C545 C329 1.357 1_554 S
C559 C312 1.249 . S
C563 C81 1.232 . S
C577 C270 1.228 . S
C581 C123 1.255 . S
C595 C36 1.249 . S
C599 C333 1.239 1_554 S
C613 C162 1.253 . S
C617 C291 1.229 1_556 S
C631 C286 0.933 . S
C635 C13 0.950 . S
C649 C244 0.939 . S
C653 C37 0.950 . S
C667 C265 0.964 . S
C671 C55 0.923 . S
C685 C226 0.955 . S
C689 C76 0.933 . S
C703 C97 0.924 . S
C707 C328 0.960 . S
C721 C205 0.922 . S
C725 C118 0.964 . S
C739 C139 0.962 . S
C743 C307 0.924 . S
C757 C163 0.922 . S
C761 C181 0.964 . S
C775 C16 1.082 . S
C779 C100 1.083 . S
C793 C34 1.100 . S
C797 C121 1.100 . S
C811 C142 1.100 . S
C815 C58 1.100 . S
C829 C79 1.101 . S
C833 C160 1.101 . S
C847 C223 1.090 . S
C851 C184 1.091 . S
C865 C247 1.087 . S
C869 C202 1.087 . S
C883 C268 1.089 . S
C887 C310 1.090 . S
C901 C331 1.087 . S
C905 C289 1.087 . S
C919 C17 1.417 . S
C923 C161 1.414 . S
C937 C35 1.414 . S
C941 C101 1.414 . S
C955 C122 1.413 1_556 S
C959 C59 1.415 . S
C973 C143 1.418 . S
C977 C80 1.420 1_554 S
C991 C246 1.315 . S
C995 C99 1.323 . S
C1009 C183 1.326 . S
C1013 C15 1.320 . S
C1027 C228 1.314 1_554 S
C1031 C141 1.318 . S
C1045 C57 1.324 . S
C1049 C207 1.325 1_556 S
C1063 C269 1.418 . S
C1067 C203 1.421 1_556 S
C1081 C311 1.418 . S
C1085 C224 1.421 1_554 S
C1099 C290 1.414 . S
C1103 C185 1.416 . S
C1117 C332 1.415 . S
C1121 C248 1.413 . S
C1135 C309 1.326 . S
C1139 C78 1.321 1_554 S
C1153 C120 1.315 1_556 S
C1157 C267 1.323 . S
C1171 C39 1.321 . S
C1175 C330 1.314 . S
C1189 C288 1.319 . S
C1193 C165 1.326 . S
