# Generated by pormake.
# Topology unv, (4)-cn, num edge types: 1
# Building blocks:
#     Node 0, Type 0, BuildingBlock: NAHDIM_clean_sbu_0, # of connection points: 4
#     Node 1, Type 0, BuildingBlock: NAHDIM_clean_sbu_0, # of connection points: 4
#     Node 2, Type 0, BuildingBlock: NAHDIM_clean_sbu_0, # of connection points: 4
#     Node 3, Type 0, BuildingBlock: NAHDIM_clean_sbu_0, # of connection points: 4
#     Node 4, Type 0, BuildingBlock: NAHDIM_clean_sbu_0, # of connection points: 4
#     Node 5, Type 0, BuildingBlock: NAHDIM_clean_sbu_0, # of connection points: 4
#     Node 6, Type 0, BuildingBlock: NAHDIM_clean_sbu_0, # of connection points: 4
#     Node 7, Type 0, BuildingBlock: NAHDIM_clean_sbu_0, # of connection points: 4
#     Node 8, Type 0, BuildingBlock: NAHDIM_clean_sbu_0, # of connection points: 4
#     Node 9, Type 0, BuildingBlock: NAHDIM_clean_sbu_0, # of connection points: 4
#     Node 10, Type 0, BuildingBlock: NAHDIM_clean_sbu_0, # of connection points: 4
#     Node 11, Type 0, BuildingBlock: NAHDIM_clean_sbu_0, # of connection points: 4
#     Node 12, Type 0, BuildingBlock: NAHDIM_clean_sbu_0, # of connection points: 4
#     Node 13, Type 0, BuildingBlock: NAHDIM_clean_sbu_0, # of connection points: 4
#     Node 14, Type 0, BuildingBlock: NAHDIM_clean_sbu_0, # of connection points: 4
#     Node 15, Type 0, BuildingBlock: NAHDIM_clean_sbu_0, # of connection points: 4
#     Node 16, Type 0, BuildingBlock: NAHDIM_clean_sbu_0, # of connection points: 4
#     Node 17, Type 0, BuildingBlock: NAHDIM_clean_sbu_0, # of connection points: 4
#     Node 18, Type 0, BuildingBlock: NAHDIM_clean_sbu_0, # of connection points: 4
#     Node 19, Type 0, BuildingBlock: NAHDIM_clean_sbu_0, # of connection points: 4
#     Node 20, Type 0, BuildingBlock: NAHDIM_clean_sbu_0, # of connection points: 4
#     Node 21, Type 0, BuildingBlock: NAHDIM_clean_sbu_0, # of connection points: 4
#     Node 22, Type 0, BuildingBlock: NAHDIM_clean_sbu_0, # of connection points: 4
#     Node 23, Type 0, BuildingBlock: NAHDIM_clean_sbu_0, # of connection points: 4
#     Edge 24, Type (0, 0), BuildingBlock: KIFKEQ_clean_linker_1, # of connection points: 2
#     Edge 25, Type (0, 0), BuildingBlock: KIFKEQ_clean_linker_1, # of connection points: 2
#     Edge 26, Type (0, 0), BuildingBlock: KIFKEQ_clean_linker_1, # of connection points: 2
#     Edge 27, Type (0, 0), BuildingBlock: KIFKEQ_clean_linker_1, # of connection points: 2
#     Edge 28, Type (0, 0), BuildingBlock: KIFKEQ_clean_linker_1, # of connection points: 2
#     Edge 29, Type (0, 0), BuildingBlock: KIFKEQ_clean_linker_1, # of connection points: 2
#     Edge 30, Type (0, 0), BuildingBlock: KIFKEQ_clean_linker_1, # of connection points: 2
#     Edge 31, Type (0, 0), BuildingBlock: KIFKEQ_clean_linker_1, # of connection points: 2
#     Edge 32, Type (0, 0), BuildingBlock: KIFKEQ_clean_linker_1, # of connection points: 2
#     Edge 33, Type (0, 0), BuildingBlock: KIFKEQ_clean_linker_1, # of connection points: 2
#     Edge 34, Type (0, 0), BuildingBlock: KIFKEQ_clean_linker_1, # of connection points: 2
#     Edge 35, Type (0, 0), BuildingBlock: KIFKEQ_clean_linker_1, # of connection points: 2
#     Edge 36, Type (0, 0), BuildingBlock: KIFKEQ_clean_linker_1, # of connection points: 2
#     Edge 37, Type (0, 0), BuildingBlock: KIFKEQ_clean_linker_1, # of connection points: 2
#     Edge 38, Type (0, 0), BuildingBlock: KIFKEQ_clean_linker_1, # of connection points: 2
#     Edge 39, Type (0, 0), BuildingBlock: KIFKEQ_clean_linker_1, # of connection points: 2
#     Edge 40, Type (0, 0), BuildingBlock: KIFKEQ_clean_linker_1, # of connection points: 2
#     Edge 41, Type (0, 0), BuildingBlock: KIFKEQ_clean_linker_1, # of connection points: 2
#     Edge 42, Type (0, 0), BuildingBlock: KIFKEQ_clean_linker_1, # of connection points: 2
#     Edge 43, Type (0, 0), BuildingBlock: KIFKEQ_clean_linker_1, # of connection points: 2
#     Edge 44, Type (0, 0), BuildingBlock: KIFKEQ_clean_linker_1, # of connection points: 2
#     Edge 45, Type (0, 0), BuildingBlock: KIFKEQ_clean_linker_1, # of connection points: 2
#     Edge 46, Type (0, 0), BuildingBlock: KIFKEQ_clean_linker_1, # of connection points: 2
#     Edge 47, Type (0, 0), BuildingBlock: KIFKEQ_clean_linker_1, # of connection points: 2
#     Edge 48, Type (0, 0), BuildingBlock: KIFKEQ_clean_linker_1, # of connection points: 2
#     Edge 49, Type (0, 0), BuildingBlock: KIFKEQ_clean_linker_1, # of connection points: 2
#     Edge 50, Type (0, 0), BuildingBlock: KIFKEQ_clean_linker_1, # of connection points: 2
#     Edge 51, Type (0, 0), BuildingBlock: KIFKEQ_clean_linker_1, # of connection points: 2
#     Edge 52, Type (0, 0), BuildingBlock: KIFKEQ_clean_linker_1, # of connection points: 2
#     Edge 53, Type (0, 0), BuildingBlock: KIFKEQ_clean_linker_1, # of connection points: 2
#     Edge 54, Type (0, 0), BuildingBlock: KIFKEQ_clean_linker_1, # of connection points: 2
#     Edge 55, Type (0, 0), BuildingBlock: KIFKEQ_clean_linker_1, # of connection points: 2
#     Edge 56, Type (0, 0), BuildingBlock: KIFKEQ_clean_linker_1, # of connection points: 2
#     Edge 57, Type (0, 0), BuildingBlock: KIFKEQ_clean_linker_1, # of connection points: 2
#     Edge 58, Type (0, 0), BuildingBlock: KIFKEQ_clean_linker_1, # of connection points: 2
#     Edge 59, Type (0, 0), BuildingBlock: KIFKEQ_clean_linker_1, # of connection points: 2
#     Edge 60, Type (0, 0), BuildingBlock: KIFKEQ_clean_linker_1, # of connection points: 2
#     Edge 61, Type (0, 0), BuildingBlock: KIFKEQ_clean_linker_1, # of connection points: 2
#     Edge 62, Type (0, 0), BuildingBlock: KIFKEQ_clean_linker_1, # of connection points: 2
#     Edge 63, Type (0, 0), BuildingBlock: KIFKEQ_clean_linker_1, # of connection points: 2
#     Edge 64, Type (0, 0), BuildingBlock: KIFKEQ_clean_linker_1, # of connection points: 2
#     Edge 65, Type (0, 0), BuildingBlock: KIFKEQ_clean_linker_1, # of connection points: 2
#     Edge 66, Type (0, 0), BuildingBlock: KIFKEQ_clean_linker_1, # of connection points: 2
#     Edge 67, Type (0, 0), BuildingBlock: KIFKEQ_clean_linker_1, # of connection points: 2
#     Edge 68, Type (0, 0), BuildingBlock: KIFKEQ_clean_linker_1, # of connection points: 2
#     Edge 69, Type (0, 0), BuildingBlock: KIFKEQ_clean_linker_1, # of connection points: 2
#     Edge 70, Type (0, 0), BuildingBlock: KIFKEQ_clean_linker_1, # of connection points: 2
#     Edge 71, Type (0, 0), BuildingBlock: KIFKEQ_clean_linker_1, # of connection points: 2
# Relax obj value: 0.372
# Max RMSD: 0.323
# Mean RMSD: 0.307
data_MOF--net-unv--node1-NAHDIM_clean_sbu_0--edge1-KIFKEQ_clean_linker_1
_symmetry_space_group_name_H-M    P1
_symmetry_Int_Tables_number       1
_symmetry_cell_setting            triclinic
loop_
_symmetry_equiv_pos_as_xyz
'x, y, z'
_cell_length_a     49.075614
_cell_length_b     49.063254
_cell_length_c     49.111414
_cell_angle_alpha  90.09155
_cell_angle_beta   89.992387
_cell_angle_gamma 90.03786
loop_
_atom_site_label
_atom_site_type_symbol
_atom_site_fract_x
_atom_site_fract_y
_atom_site_fract_z
_atom_type_partial_charge
C0 C 0.01933 0.144 0.32938 0.0
O1 O 0.03764 0.13395 0.31265 0.0
O2 O 0.03848 0.0705 0.33169 0.0
Zn3 Zn 0.02861 0.09515 0.36298 0.0
O4 O 0.05961 0.09988 0.3895 0.0
C5 C 0.98407 0.05798 0.37227 0.0
O6 O 0.9864 0.05387 0.34594 0.0
O7 O 0.0133 0.1311 0.35098 0.0
C8 C 0.07758 0.08139 0.39178 0.0
O9 O 0.077 0.06051 0.37502 0.0
C10 C 0.05865 0.06961 0.31549 0.0
O11 O 0.07787 0.08819 0.31699 0.0
O12 O -0.00067 0.07546 0.38382 0.0
C13 C 0.94019 0.33103 0.32247 0.0
O14 O 0.91503 0.33484 0.33081 0.0
O15 O 0.92326 0.41015 0.31699 0.0
Zn16 Zn 0.94582 0.38605 0.34108 0.0
O17 O 0.92641 0.37875 0.37641 0.0
C18 C 0.98906 0.42391 0.3316 0.0
O19 O 0.97919 0.42267 0.30676 0.0
O20 O 0.95695 0.35073 0.32375 0.0
C21 C 0.9009 0.38184 0.37956 0.0
O22 O 0.88592 0.3893 0.3587 0.0
C23 C 0.90772 0.40528 0.29691 0.0
O24 O 0.90345 0.38 0.28916 0.0
O25 O 0.97901 0.40853 0.34986 0.0
C26 C 0.00975 0.84847 0.15722 0.0
O27 O 0.02702 0.8595 0.17445 0.0
O28 O 0.02742 0.91899 0.16234 0.0
Zn29 Zn 0.01627 0.89937 0.12806 0.0
O30 O 0.04645 0.89955 0.10029 0.0
C31 C 0.9702 0.93553 0.12692 0.0
O32 O 0.97244 0.93361 0.1535 0.0
O33 O 0.00282 0.86161 0.13605 0.0
C34 C 0.05801 0.92238 0.09627 0.0
O35 O 0.05063 0.94349 0.111 0.0
C36 C 0.0511 0.92336 0.17188 0.0
O37 O 0.07248 0.91293 0.15961 0.0
O38 O 0.98591 0.92149 0.11185 0.0
C39 C 0.93794 0.65778 0.17117 0.0
O40 O 0.91302 0.65246 0.16295 0.0
O41 O 0.9171 0.58218 0.18131 0.0
Zn42 Zn 0.94445 0.60178 0.15793 0.0
O43 O 0.9288 0.60576 0.1203 0.0
C44 C 0.98312 0.56158 0.17581 0.0
O45 O 0.96971 0.56429 0.19881 0.0
O46 O 0.95518 0.63852 0.17208 0.0
C47 C 0.94419 0.60416 0.09956 0.0
O48 O 0.97058 0.60133 0.10306 0.0
C49 C 0.90932 0.55964 0.17108 0.0
O50 O 0.91709 0.55354 0.14619 0.0
O51 O 0.97701 0.57682 0.15581 0.0
C52 C 0.35813 0.0287 0.15306 0.0
O53 O 0.3554 0.05479 0.14771 0.0
O54 O 0.34841 0.04529 0.07879 0.0
Zn55 Zn 0.37889 0.02554 0.09789 0.0
O56 O 0.41221 0.04939 0.0993 0.0
C57 C 0.37152 0.97993 0.06098 0.0
O58 O 0.3458 0.98725 0.06184 0.0
O59 O 0.36786 0.01294 0.13499 0.0
C60 C 0.41117 0.07503 0.09587 0.0
O61 O 0.38731 0.0869 0.09342 0.0
C62 C 0.32342 0.04183 0.08459 0.0
O63 O 0.31681 0.02545 0.10467 0.0
O64 O 0.38889 0.99286 0.07521 0.0
C65 C 0.65599 0.48822 0.1378 0.0
O66 O 0.66862 0.46754 0.12641 0.0
O67 O 0.66151 0.47435 0.06684 0.0
Zn68 Zn 0.62971 0.49251 0.08537 0.0
O69 O 0.59586 0.46883 0.08308 0.0
C70 C 0.63882 0.53883 0.04947 0.0
O71 O 0.66422 0.53039 0.04926 0.0
O72 O 0.63856 0.50154 0.12412 0.0
C73 C 0.58011 0.47289 0.0629 0.0
O74 O 0.58694 0.49118 0.04464 0.0
C75 C 0.65855 0.45704 0.04778 0.0
O76 O 0.63392 0.44904 0.04104 0.0
O77 O 0.62174 0.52713 0.065 0.0
C78 C 0.3332 0.94723 0.33782 0.0
O79 O 0.32447 0.92215 0.34126 0.0
O80 O 0.32571 0.9174 0.40674 0.0
Zn81 Zn 0.35576 0.94077 0.39196 0.0
O82 O 0.39031 0.91931 0.38777 0.0
C83 C 0.34347 0.97793 0.43593 0.0
O84 O 0.31862 0.96858 0.43245 0.0
O85 O 0.34627 0.95887 0.35686 0.0
C86 C 0.41242 0.93277 0.38683 0.0
O87 O 0.41134 0.95953 0.38699 0.0
C88 C 0.3313 0.90381 0.42804 0.0
O89 O 0.35688 0.90209 0.43575 0.0
O90 O 0.36246 0.96967 0.42036 0.0
C91 C 0.66096 0.52959 0.33713 0.0
O92 O 0.66052 0.55474 0.34636 0.0
O93 O 0.66939 0.53604 0.41356 0.0
Zn94 Zn 0.64066 0.51828 0.39044 0.0
O95 O 0.60788 0.54283 0.38883 0.0
C96 C 0.64481 0.47096 0.42572 0.0
O97 O 0.66976 0.47976 0.42979 0.0
O98 O 0.6539 0.5103 0.35282 0.0
C99 C 0.58423 0.53234 0.38753 0.0
O100 O 0.5818 0.50573 0.38586 0.0
C101 C 0.66233 0.54234 0.43767 0.0
O102 O 0.63682 0.53876 0.44499 0.0
O103 O 0.62947 0.48343 0.40903 0.0
C104 C 0.14122 0.33305 0.05702 0.0
O105 O 0.13285 0.31105 0.06976 0.0
O106 O 0.07238 0.31754 0.07747 0.0
Zn107 Zn 0.08702 0.35488 0.06871 0.0
O108 O 0.08222 0.38247 0.09876 0.0
C109 C 0.05585 0.35216 0.01902 0.0
O110 O 0.06293 0.32635 0.01978 0.0
O111 O 0.12552 0.35354 0.05531 0.0
C112 C 0.05785 0.38939 0.10413 0.0
O113 O 0.03775 0.37706 0.09142 0.0
C114 C 0.05757 0.31054 0.09751 0.0
O115 O 0.05343 0.32781 0.11753 0.0
O116 O 0.06432 0.36823 0.03751 0.0
C117 C 0.14271 0.64489 0.46193 0.0
O118 O 0.1323 0.66073 0.44308 0.0
O119 O 0.06911 0.65271 0.45321 0.0
Zn120 Zn 0.08996 0.61814 0.45993 0.0
O121 O 0.08834 0.59191 0.42842 0.0
C122 C 0.06055 0.61409 0.51013 0.0
O123 O 0.06618 0.64025 0.51131 0.0
O124 O 0.12842 0.6256 0.4716 0.0
C125 C 0.06688 0.59062 0.414 0.0
O126 O 0.04721 0.60822 0.41842 0.0
C127 C 0.06702 0.66844 0.43281 0.0
O128 O 0.08099 0.6634 0.41055 0.0
O129 O 0.06995 0.60002 0.49051 0.0
C130 C 0.85732 0.83119 0.5047 0.0
O131 O 0.86728 0.82138 0.48187 0.0
O132 O 0.92598 0.82508 0.48454 0.0
Zn133 Zn 0.90995 0.85552 0.50674 0.0
O134 O 0.90858 0.88935 0.48367 0.0
C135 C 0.95209 0.84503 0.54686 0.0
O136 O 0.95045 0.81989 0.53774 0.0
O137 O 0.8723 0.84623 0.51954 0.0
C138 C 0.91347 0.91239 0.49448 0.0
O139 O 0.91796 0.91382 0.52081 0.0
C140 C 0.94816 0.8292 0.47182 0.0
O141 O 0.9592 0.8536 0.47254 0.0
O142 O 0.93558 0.86281 0.53789 0.0
C143 C 0.33864 0.6514 0.51982 0.0
O144 O 0.34561 0.64765 0.54537 0.0
O145 O 0.41547 0.66722 0.53008 0.0
Zn146 Zn 0.39439 0.63738 0.51147 0.0
O147 O 0.39284 0.6046 0.53607 0.0
C148 C 0.43407 0.64111 0.46765 0.0
O149 O 0.43867 0.66547 0.47777 0.0
O150 O 0.35661 0.64885 0.50139 0.0
C151 C 0.39203 0.58099 0.52542 0.0
O152 O 0.3904 0.57874 0.49881 0.0
C153 C 0.43737 0.6603 0.54205 0.0
O154 O 0.44355 0.6343 0.54359 0.0
O155 O 0.4154 0.62638 0.4779 0.0
C156 C 0.51684 0.65167 0.82954 0.0
O157 O 0.54046 0.64414 0.8396 0.0
O158 O 0.52152 0.57214 0.8143 0.0
Zn159 Zn 0.50476 0.59667 0.84242 0.0
O160 O 0.5286 0.59905 0.87579 0.0
C161 C 0.45504 0.56643 0.83601 0.0
O162 O 0.46115 0.56893 0.81009 0.0
O163 O 0.49774 0.63426 0.82785 0.0
C164 C 0.55357 0.59223 0.87597 0.0
O165 O 0.56492 0.58337 0.85341 0.0
C166 C 0.53791 0.57808 0.79519 0.0
O167 O 0.54639 0.60332 0.79236 0.0
O168 O 0.46995 0.57823 0.85362 0.0
C169 C 0.47379 0.85019 0.8267 0.0
O170 O 0.4486 0.85918 0.8262 0.0
O171 O 0.45721 0.92258 0.82657 0.0
Zn172 Zn 0.48438 0.90292 0.84995 0.0
O173 O 0.4699 0.9011 0.88814 0.0
C174 C 0.52366 0.94466 0.83513 0.0
O175 O 0.50778 0.9479 0.81386 0.0
O176 O 0.49262 0.86559 0.83558 0.0
C177 C 0.44611 0.89327 0.8947 0.0
O178 O 0.4296 0.88406 0.87576 0.0
C179 C 0.44796 0.94507 0.83552 0.0
O180 O 0.45518 0.95323 0.85998 0.0
O181 O 0.51848 0.92576 0.85204 0.0
C182 C 0.52717 0.33631 0.644 0.0
O183 O 0.55302 0.34173 0.63956 0.0
O184 O 0.54024 0.41319 0.65755 0.0
Zn185 Zn 0.52111 0.39201 0.62826 0.0
O186 O 0.54589 0.38878 0.59582 0.0
C187 C 0.47709 0.4316 0.63178 0.0
O188 O 0.48624 0.43544 0.65662 0.0
O189 O 0.50966 0.35509 0.64099 0.0
C190 C 0.53544 0.38736 0.5722 0.0
O191 O 0.50879 0.38638 0.56978 0.0
C192 C 0.54924 0.43655 0.65088 0.0
O193 O 0.54732 0.44424 0.62533 0.0
O194 O 0.48809 0.41359 0.61674 0.0
C195 C 0.45947 0.14348 0.65675 0.0
O196 O 0.44076 0.13568 0.67422 0.0
O197 O 0.44296 0.07559 0.67507 0.0
Zn198 Zn 0.45542 0.08788 0.63804 0.0
O199 O 0.42662 0.08264 0.60944 0.0
C200 C 0.50244 0.05206 0.64325 0.0
O201 O 0.49982 0.05673 0.66947 0.0
O202 O 0.46835 0.12656 0.63928 0.0
C203 C 0.41831 0.05836 0.60582 0.0
O204 O 0.42739 0.03902 0.62192 0.0
C205 C 0.41898 0.06888 0.6822 0.0
O206 O 0.39885 0.07071 0.66469 0.0
O207 O 0.48645 0.06378 0.62664 0.0
C208 C 0.84588 0.50087 0.64845 0.0
O209 O 0.85461 0.52472 0.64002 0.0
O210 O 0.82601 0.50759 0.57058 0.0
Zn211 Zn 0.85456 0.48846 0.5927 0.0
O212 O 0.88963 0.50963 0.59191 0.0
C213 C 0.84317 0.44015 0.56139 0.0
O214 O 0.81776 0.44751 0.56547 0.0
O215 O 0.84319 0.48165 0.63131 0.0
C216 C 0.89105 0.53502 0.58705 0.0
O217 O 0.8685 0.5489 0.5832 0.0
C218 C 0.80669 0.52311 0.57801 0.0
O219 O 0.8036 0.52905 0.60391 0.0
O220 O 0.86213 0.45354 0.57291 0.0
C221 C 0.18971 0.97858 0.6524 0.0
O222 O 0.19692 0.95375 0.64542 0.0
O223 O 0.19427 0.96036 0.57889 0.0
Zn224 Zn 0.16385 0.97811 0.59973 0.0
O225 O 0.1329 0.95167 0.60473 0.0
C226 C 0.16715 0.02166 0.56114 0.0
O227 O 0.19333 0.01666 0.56359 0.0
O228 O 0.17598 0.99286 0.63579 0.0
C229 C 0.12628 0.93686 0.58454 0.0
O230 O 0.1401 0.93909 0.56173 0.0
C231 C 0.20162 0.93553 0.5785 0.0
O232 O 0.19013 0.91801 0.59512 0.0
O233 O 0.15037 0.0085 0.57584 0.0
C234 C 0.857 0.46137 0.84813 0.0
O235 O 0.86397 0.43693 0.85648 0.0
O236 O 0.83624 0.45747 0.92504 0.0
Zn237 Zn 0.86682 0.47485 0.90403 0.0
O238 O 0.90039 0.45171 0.90716 0.0
C239 C 0.85896 0.52285 0.93736 0.0
O240 O 0.83395 0.51349 0.93926 0.0
O241 O 0.85673 0.48097 0.86504 0.0
C242 C 0.8997 0.42664 0.91356 0.0
O243 O 0.87601 0.4145 0.91644 0.0
C244 C 0.81202 0.45524 0.91622 0.0
O245 O 0.80632 0.46344 0.89143 0.0
O246 O 0.87598 0.51045 0.92227 0.0
C247 C 0.18203 0.03961 0.84623 0.0
O248 O 0.1862 0.06495 0.85388 0.0
O249 O 0.18737 0.05334 0.92037 0.0
Zn250 Zn 0.15717 0.03617 0.89885 0.0
O251 O 0.12634 0.06267 0.89471 0.0
C252 C 0.15931 0.99141 0.93649 0.0
O253 O 0.18547 -0.00294 0.93606 0.0
O254 O 0.17015 0.02333 0.86243 0.0
C255 C 0.10533 0.05602 0.88112 0.0
O256 O 0.10491 0.03236 0.86855 0.0
C257 C 0.18105 0.06346 0.94335 0.0
O258 O 0.15523 0.06441 0.95037 0.0
O259 O 0.14328 0.00463 0.92105 0.0
C260 C 0.65574 0.83569 0.53611 0.0
O261 O 0.64486 0.83591 0.56056 0.0
O262 O 0.58012 0.82256 0.53913 0.0
Zn263 Zn 0.60189 0.85202 0.52066 0.0
O264 O 0.59931 0.88654 0.54261 0.0
C265 C 0.56908 0.84275 0.47242 0.0
O266 O 0.56637 0.81821 0.48269 0.0
O267 O 0.64098 0.84156 0.51571 0.0
C268 C 0.5933 0.88678 0.56777 0.0
O269 O 0.58988 0.86354 0.58059 0.0
C270 C 0.58615 0.79742 0.53802 0.0
O271 O 0.60856 0.7899 0.52545 0.0
O272 O 0.58431 0.85996 0.48442 0.0
C273 C 0.64994 0.17609 0.93703 0.0
O274 O 0.64207 0.17365 0.91157 0.0
O275 O 0.5711 0.18674 0.93236 0.0
Zn276 Zn 0.59559 0.15747 0.94697 0.0
O277 O 0.59785 0.1264 0.9203 0.0
C278 C 0.56619 0.15924 -0.00214 0.0
O279 O 0.56839 0.18571 0.99444 0.0
O280 O 0.63302 0.17102 0.95593 0.0
C281 C 0.60413 0.10304 0.9295 0.0
O282 O 0.61032 0.1006 0.95542 0.0
C283 C 0.54773 0.17869 0.92457 0.0
O284 O 0.54251 0.15241 0.92448 0.0
O285 O 0.57725 0.14331 0.98069 0.0
C286 C 0.32123 0.34974 0.96101 0.0
O287 O 0.3224 0.35619 0.93508 0.0
O288 O 0.3988 0.33559 0.94033 0.0
Zn289 Zn 0.37773 0.36503 0.95956 0.0
O290 O 0.37127 0.397 0.93469 0.0
C291 C 0.41939 0.36563 0.00194 0.0
O292 O 0.42202 0.33959 -0.00373 0.0
O293 O 0.34264 0.35149 0.9754 0.0
C294 C 0.37754 0.39706 0.90959 0.0
O295 O 0.38671 0.37455 0.89834 0.0
C296 C 0.39483 0.31035 0.94443 0.0
O297 O 0.37498 0.30274 0.96069 0.0
O298 O 0.40141 0.37955 0.98959 0.0
C299 C 0.84694 0.17042 0.98884 0.0
O300 O 0.85688 0.18316 0.01019 0.0
O301 O 0.91774 0.1718 0.00962 0.0
Zn302 Zn 0.89812 0.14105 0.99063 0.0
O303 O 0.8955 0.10879 0.01574 0.0
C304 C 0.93705 0.14551 0.94663 0.0
O305 O 0.93602 0.17162 0.95254 0.0
O306 O 0.86107 0.15205 0.97729 0.0
C307 C 0.9172 0.10247 0.02834 0.0
O308 O 0.93921 0.11728 0.0247 0.0
C309 C 0.91771 0.1761 0.03516 0.0
O310 O 0.90228 0.16105 0.05101 0.0
O311 O 0.92168 0.12906 0.95941 0.0
H312 H 0.11522 0.03986 0.55273 0.0
H313 H 0.19621 0.04179 0.51816 0.0
H314 H 0.09726 0.06129 0.51175 0.0
H315 H 0.17811 0.06322 0.47714 0.0
H316 H 0.12273 0.04999 0.39901 0.0
H317 H 0.14754 0.04247 0.44129 0.0
H318 H 0.09792 0.10306 0.48145 0.0
H319 H 0.07304 0.11071 0.43902 0.0
C320 C 0.12927 0.04536 0.53663 0.0
C321 C 0.15707 0.03882 0.53856 0.0
C322 C 0.119 0.05781 0.51322 0.0
C323 C 0.13629 0.06374 0.4912 0.0
C324 C 0.16432 0.05864 0.49374 0.0
C325 C 0.17466 0.04646 0.51728 0.0
C326 C 0.11749 0.06215 0.41668 0.0
C327 C 0.09574 0.08071 0.41577 0.0
C328 C 0.13182 0.05796 0.44087 0.0
C329 C 0.1245 0.07205 0.4647 0.0
C330 C 0.10381 0.09178 0.46341 0.0
C331 C 0.08968 0.09623 0.43909 0.0
H332 H 0.92371 0.36027 0.42545 0.0
H333 H 0.85141 0.401 0.39622 0.0
H334 H 0.90743 0.36493 0.47211 0.0
H335 H 0.83565 0.40665 0.44277 0.0
H336 H 0.80817 0.41248 0.52774 0.0
H337 H 0.81976 0.38944 0.48524 0.0
H338 H 0.90528 0.40305 0.5015 0.0
H339 H 0.89379 0.42504 0.54413 0.0
C340 C 0.90419 0.36995 0.42898 0.0
C341 C 0.88906 0.3807 0.40721 0.0
C342 C 0.8949 0.37271 0.45573 0.0
C343 C 0.87045 0.38657 0.46131 0.0
C344 C 0.85445 0.39563 0.43933 0.0
C345 C 0.86359 0.39259 0.41256 0.0
C346 C 0.82947 0.40988 0.52256 0.0
C347 C 0.85004 0.42105 0.53907 0.0
C348 C 0.8361 0.39684 0.49809 0.0
C349 C 0.86342 0.39481 0.48963 0.0
C350 C 0.88402 0.40401 0.50732 0.0
C351 C 0.87741 0.41686 0.5318 0.0
H352 H 0.09716 0.9612 0.09198 0.0
H353 H 0.06226 0.89243 0.04943 0.0
H354 H 0.1252 0.97159 0.05232 0.0
H355 H 0.09013 0.9032 0.00939 0.0
H356 H 0.10838 0.96901 0.93888 0.0
H357 H 0.08745 0.94617 0.97781 0.0
H358 H 0.16342 0.95145 0.02177 0.0
H359 H 0.18454 0.97401 0.9828 0.0
C360 C 0.09581 0.94808 0.07427 0.0
C361 C 0.07746 0.92612 0.07369 0.0
C362 C 0.11197 0.95392 0.05165 0.0
C363 C 0.10976 0.93819 0.02784 0.0
C364 C 0.09213 0.91562 0.02754 0.0
C365 C 0.07632 0.90943 0.05043 0.0
C366 C 0.12078 0.96475 0.95662 0.0
C367 C 0.14801 0.97354 0.95789 0.0
C368 C 0.10885 0.95154 0.97881 0.0
C369 C 0.12383 0.94723 0.00278 0.0
C370 C 0.15144 0.95468 0.00353 0.0
C371 C 0.16351 0.9675 0.98119 0.0
H372 H 0.96826 0.58342 0.0541 0.0
H373 H 0.89275 0.61789 0.08329 0.0
H374 H 0.94633 0.57091 0.01167 0.0
H375 H 0.87093 0.6067 0.0401 0.0
H376 H 0.83448 0.53994 0.98412 0.0
H377 H 0.85485 0.5666 0.02035 0.0
H378 H 0.92582 0.58091 0.97008 0.0
H379 H 0.90584 0.55281 0.93429 0.0
C380 C 0.94713 0.58904 0.05112 0.0
C381 C 0.9321 0.60121 0.07218 0.0
C382 C 0.93451 0.58204 0.02662 0.0
C383 C 0.90666 0.58747 0.02242 0.0
C384 C 0.89221 0.60156 0.04282 0.0
C385 C 0.90473 0.60813 0.06753 0.0
C386 C 0.8542 0.54923 0.98057 0.0
C387 C 0.86878 0.54387 0.95656 0.0
C388 C 0.86589 0.56474 0.00136 0.0
C389 C 0.89228 0.57564 -0.00156 0.0
C390 C 0.90581 0.57221 0.97339 0.0
C391 C 0.89429 0.55628 0.95277 0.0
H392 H 0.46373 0.05734 0.10104 0.0
H393 H 0.4159 0.1271 0.07675 0.0
H394 H 0.50471 0.07939 0.08375 0.0
H395 H 0.45667 0.14878 0.05877 0.0
H396 H 0.55515 0.10576 0.00828 0.0
H397 H 0.52027 0.08749 0.03815 0.0
H398 H 0.501 0.16892 0.06575 0.0
H399 H 0.53561 0.18736 0.03517 0.0
C400 C 0.46201 0.07754 0.09235 0.0
C401 C 0.43649 0.09029 0.08989 0.0
C402 C 0.48549 0.09012 0.08231 0.0
C403 C 0.48394 0.11566 0.06946 0.0
C404 C 0.45869 0.12919 0.0687 0.0
C405 C 0.43523 0.11668 0.07889 0.0
C406 C 0.54379 0.11979 0.021 0.0
C407 C 0.54794 0.14805 0.01907 0.0
C408 C 0.52388 0.10927 0.03834 0.0
C409 C 0.50768 0.12675 0.05427 0.0
C410 C 0.51284 0.15494 0.05344 0.0
C411 C 0.53278 0.16549 0.03602 0.0
H412 H 0.53924 0.4836 0.02745 0.0
H413 H 0.56364 0.42658 0.08984 0.0
H414 H 0.49848 0.45704 0.0189 0.0
H415 H 0.52224 0.39979 0.08127 0.0
H416 H 0.46723 0.34521 0.02215 0.0
H417 H 0.5046 0.37119 0.04234 0.0
H418 H 0.45513 0.44392 0.04046 0.0
H419 H 0.418 0.4182 0.01994 0.0
C420 C 0.53579 0.46546 0.03953 0.0
C421 C 0.55473 0.45712 0.05924 0.0
C422 C 0.51225 0.45037 0.03479 0.0
C423 C 0.50705 0.42644 0.04957 0.0
C424 C 0.52578 0.41815 0.06957 0.0
C425 C 0.54938 0.43349 0.07451 0.0
C426 C 0.46412 0.36661 0.02659 0.0
C427 C 0.43986 0.37977 0.01895 0.0
C428 C 0.4855 0.38146 0.03827 0.0
C429 C 0.48291 0.40966 0.04253 0.0
C430 C 0.45787 0.4223 0.03689 0.0
C431 C 0.43658 0.40753 0.02519 0.0
H432 H 0.57519 0.88662 0.43875 0.0
H433 H 0.5207 0.82014 0.45755 0.0
H434 H 0.54067 0.9065 0.40914 0.0
H435 H 0.48567 0.84064 0.4296 0.0
H436 H 0.42398 0.879 0.3776 0.0
H437 H 0.46575 0.85488 0.38945 0.0
H438 H 0.50122 0.9308 0.41715 0.0
H439 H 0.46034 0.95481 0.40376 0.0
C440 C 0.55592 0.87612 0.43628 0.0
C441 C 0.55048 0.85206 0.45073 0.0
C442 C 0.53601 0.8876 0.4195 0.0
C443 C 0.51001 0.87561 0.41737 0.0
C444 C 0.5054 0.85047 0.43039 0.0
C445 C 0.52551 0.83872 0.44665 0.0
C446 C 0.441 0.89052 0.38568 0.0
C447 C 0.4388 0.91871 0.39008 0.0
C448 C 0.4649 0.87669 0.39266 0.0
C449 C 0.48687 0.8907 0.40475 0.0
C450 C 0.48507 0.91921 0.4076 0.0
C451 C 0.46142 0.93305 0.40011 0.0
H452 H 0.4863 0.65687 0.45772 0.0
H453 H 0.42575 0.59752 0.43403 0.0
H454 H 0.52075 0.63193 0.43259 0.0
H455 H 0.45988 0.57325 0.40733 0.0
H456 H 0.5797 0.58748 0.3809 0.0
H457 H 0.54093 0.61617 0.39287 0.0
H458 H 0.49585 0.54441 0.41724 0.0
H459 H 0.53386 0.51594 0.40379 0.0
C460 C 0.48018 0.63892 0.4464 0.0
C461 C 0.45343 0.62893 0.44813 0.0
C462 C 0.49996 0.62461 0.43178 0.0
C463 C 0.49332 0.60024 0.41812 0.0
C464 C 0.46598 0.59147 0.4182 0.0
C465 C 0.44633 0.60549 0.4333 0.0
C466 C 0.56126 0.5779 0.38837 0.0
C467 C 0.55987 0.54951 0.39164 0.0
C468 C 0.53908 0.59434 0.39541 0.0
C469 C 0.51523 0.58276 0.4064 0.0
C470 C 0.51356 0.55419 0.40848 0.0
C471 C 0.53552 0.53777 0.40095 0.0
H472 H 0.09124 0.43248 0.11592 0.0
H473 H 0.01091 0.39998 0.13138 0.0
H474 H 0.07835 0.47505 0.13871 0.0
H475 H -0.00174 0.44218 0.15441 0.0
H476 H 0.98689 0.51579 0.20707 0.0
H477 H 0.00988 0.47324 0.19529 0.0
H478 H 0.04252 0.51079 0.12285 0.0
H479 H 0.01934 0.55331 0.13438 0.0
C480 C 0.0711 0.43418 0.12479 0.0
C481 C 0.05197 0.41306 0.12173 0.0
C482 C 0.06372 0.45853 0.13769 0.0
C483 C 0.03732 0.46186 0.14825 0.0
C484 C 0.01882 0.44006 0.14668 0.0
C485 C 0.02601 0.41598 0.13335 0.0
C486 C -0.0005 0.5152 0.18897 0.0
C487 C 0.0011 0.53781 0.17148 0.0
C488 C 0.01256 0.49081 0.18222 0.0
C489 C 0.02782 0.48874 0.15812 0.0
C490 C 0.03104 0.51192 0.14166 0.0
C491 C 0.01765 0.53619 0.14819 0.0
H492 H 0.01631 0.43043 0.37972 0.0
H493 H 0.00405 0.46797 0.30111 0.0
H494 H 0.0409 0.47082 0.39511 0.0
H495 H 0.02863 0.50838 0.31662 0.0
H496 H 0.02718 0.58486 0.37563 0.0
H497 H 0.01428 0.5433 0.35162 0.0
H498 H 0.08221 0.50097 0.38803 0.0
H499 H 0.09525 0.54265 0.41207 0.0
C500 C 0.01934 0.44706 0.36555 0.0
C501 C 0.00796 0.44612 0.33931 0.0
C502 C 0.03357 0.47013 0.37432 0.0
C503 C 0.03649 0.49281 0.35711 0.0
C504 C 0.02645 0.49127 0.33037 0.0
C505 C 0.01248 0.46807 0.32149 0.0
C506 C 0.0397 0.56686 0.37809 0.0
C507 C 0.06206 0.56697 0.39594 0.0
C508 C 0.03241 0.54309 0.36421 0.0
C509 C 0.04716 0.51886 0.36812 0.0
C510 C 0.07037 0.51932 0.38484 0.0
C511 C 0.07789 0.54322 0.39847 0.0
H512 H 0.94085 0.95881 0.50747 0.0
H513 H 0.89543 0.9206 0.44248 0.0
H514 H 0.95289 -0.00391 0.47747 0.0
H515 H 0.9061 0.95882 0.41265 0.0
H516 H 0.96532 0.00758 0.35868 0.0
H517 H 0.94349 0.97466 0.38835 0.0
H518 H 0.94114 0.0347 0.45296 0.0
H519 H 0.96456 0.0671 0.42354 0.0
C520 C 0.93286 0.95875 0.48691 0.0
C521 C 0.91746 0.93666 0.47722 0.0
C522 C 0.93959 0.9803 0.46967 0.0
C523 C 0.93065 0.98054 0.44243 0.0
C524 C 0.91392 0.95908 0.43326 0.0
C525 C 0.90762 0.93724 0.45039 0.0
C526 C 0.95978 0.01386 0.3791 0.0
C527 C 0.96693 0.03977 0.38892 0.0
C528 C 0.94705 0.995 0.39615 0.0
C529 C 0.94072 0.00181 0.42328 0.0
C530 C 0.94633 0.02843 0.43246 0.0
C531 C 0.95957 0.04711 0.41556 0.0
H532 H 0.40916 0.53113 0.50832 0.0
H533 H 0.38672 0.57598 0.58064 0.0
H534 H 0.42429 0.49337 0.53614 0.0
H535 H 0.40039 0.53739 0.60874 0.0
H536 H 0.46683 0.48368 0.64786 0.0
H537 H 0.4408 0.51792 0.62355 0.0
H538 H 0.41589 0.45701 0.56476 0.0
H539 H 0.44349 0.42319 0.58834 0.0
C540 C 0.40677 0.53261 0.5302 0.0
C541 C 0.39706 0.55664 0.54232 0.0
C542 C 0.41528 0.51079 0.54626 0.0
C543 C 0.41383 0.51224 0.57486 0.0
C544 C 0.40248 0.53573 0.58686 0.0
C545 C 0.39444 0.55779 0.57077 0.0
C546 C 0.45542 0.47754 0.62999 0.0
C547 C 0.45743 0.45088 0.61978 0.0
C548 C 0.44029 0.49717 0.61606 0.0
C549 C 0.42639 0.49045 0.59187 0.0
C550 C 0.4269 0.46319 0.58284 0.0
C551 C 0.44253 0.44371 0.59646 0.0
H552 H 0.66803 0.563 0.00851 0.0
H553 H 0.58635 0.55473 0.04038 0.0
H554 H 0.64971 0.5837 0.96727 0.0
H555 H 0.56808 0.57433 -0.00096 0.0
H556 H 0.53875 0.61511 0.92455 0.0
H557 H 0.56196 0.61092 0.96821 0.0
H558 H 0.626 0.56443 0.92945 0.0
H559 H 0.60334 0.56951 0.88579 0.0
C560 C 0.64623 0.56606 0.00697 0.0
C561 C 0.62863 0.55677 0.02753 0.0
C562 C 0.63571 0.57772 0.98323 0.0
C563 C 0.60738 0.5802 0.97955 0.0
C564 C 0.59 0.57293 0.00112 0.0
C565 C 0.60051 0.56148 0.02487 0.0
C566 C 0.558 0.60434 0.92532 0.0
C567 C 0.56903 0.59229 0.9018 0.0
C568 C 0.57127 0.60188 0.95036 0.0
C569 C 0.59573 0.58709 0.95247 0.0
C570 C 0.6074 0.57627 0.92862 0.0
C571 C 0.59426 0.57896 0.90355 0.0
H572 H 0.4203 0.95326 0.05966 0.0
H573 H 0.34393 0.96092 0.01665 0.0
H574 H 0.43818 0.92501 0.02293 0.0
H575 H 0.36211 0.93384 0.97939 0.0
H576 H 0.397 0.87845 0.9168 0.0
H577 H 0.37841 0.89242 0.96076 0.0
H578 H 0.45354 0.9349 0.97875 0.0
H579 H 0.47232 0.92008 0.93566 0.0
C580 C 0.40726 0.9487 0.04245 0.0
C581 C 0.38087 0.95961 0.04084 0.0
C582 C 0.41754 0.93263 0.02132 0.0
C583 C 0.4018 0.9275 -0.00209 0.0
C584 C 0.37478 0.93709 -0.00286 0.0
C585 C 0.36438 0.95281 0.01847 0.0
C586 C 0.40967 0.89035 0.93042 0.0
C587 C 0.43601 0.89841 0.92261 0.0
C588 C 0.39897 0.89849 0.95555 0.0
C589 C 0.41433 0.91504 0.97327 0.0
C590 C 0.44118 0.92186 0.96593 0.0
C591 C 0.45192 0.91352 0.941 0.0
H592 H 0.59041 0.37954 0.56766 0.0
H593 H 0.51944 0.40426 0.52201 0.0
H594 H 0.61946 0.39182 0.52929 0.0
H595 H 0.54824 0.41808 0.48448 0.0
H596 H 0.60143 0.43769 0.41571 0.0
H597 H 0.57715 0.40942 0.44849 0.0
H598 H 0.63583 0.43178 0.51042 0.0
H599 H 0.66083 0.45839 0.47717 0.0
C600 C 0.58103 0.38743 0.54932 0.0
C601 C 0.55271 0.39118 0.5479 0.0
C602 C 0.59767 0.39467 0.52738 0.0
C603 C 0.58637 0.40637 0.50377 0.0
C604 C 0.55783 0.40879 0.502 0.0
C605 C 0.54121 0.40103 0.52369 0.0
C606 C 0.60941 0.43593 0.4362 0.0
C607 C 0.63284 0.45037 0.44399 0.0
C608 C 0.59539 0.41994 0.45509 0.0
C609 C 0.60409 0.41866 0.48238 0.0
C610 C 0.62853 0.43189 0.48963 0.0
C611 C 0.64288 0.44734 0.47055 0.0
H612 H 0.41087 0.08784 0.55922 0.0
H613 H 0.38806 0.01246 0.5985 0.0
H614 H 0.38855 0.07256 0.51732 0.0
H615 H 0.36558 -0.00259 0.55679 0.0
H616 H 0.31306 0.9853 0.48189 0.0
H617 H 0.32665 0.00903 0.52356 0.0
H618 H 0.40223 0.03291 0.48542 0.0
H619 H 0.38886 0.00903 0.44387 0.0
C620 C 0.4006 0.0683 0.55909 0.0
C621 C 0.40138 0.05121 0.58202 0.0
C622 C 0.38795 0.05954 0.53511 0.0
C623 C 0.37547 0.0338 0.53385 0.0
C624 C 0.37488 0.01744 0.55728 0.0
C625 C 0.38788 0.02599 0.58109 0.0
C626 C 0.33235 0.99603 0.48223 0.0
C627 C 0.35 0.99518 0.4597 0.0
C628 C 0.34013 0.00951 0.5061 0.0
C629 C 0.36547 0.02274 0.50766 0.0
C630 C 0.38247 0.02308 0.48465 0.0
C631 C 0.3749 0.00927 0.46095 0.0
H632 H 0.04435 0.56096 0.5129 0.0
H633 H 0.02973 0.64022 0.54857 0.0
H634 H 0.00535 0.54273 0.53733 0.0
H635 H 0.99083 0.62175 0.57346 0.0
H636 H 0.90165 0.58737 0.57126 0.0
H637 H 0.94557 0.60667 0.55857 0.0
H638 H 0.98529 0.53149 0.58126 0.0
H639 H 0.9413 0.51197 0.59348 0.0
C640 C 0.03316 0.57437 0.52641 0.0
C641 C 0.03993 0.60212 0.52852 0.0
C642 C 0.01087 0.56386 0.54057 0.0
C643 C 0.99485 0.58086 0.55717 0.0
C644 C 0.00256 0.60826 0.56051 0.0
C645 C 0.02494 0.61877 0.54638 0.0
C646 C 0.91978 0.57509 0.57392 0.0
C647 C 0.91793 0.54801 0.58297 0.0
C648 C 0.94501 0.58622 0.56683 0.0
C649 C 0.96889 0.57051 0.5687 0.0
C650 C 0.96719 0.54395 0.57919 0.0
C651 C 0.94199 0.53281 0.58626 0.0
H652 H -0.00109 0.81646 0.55653 0.0
H653 H 0.96047 0.89433 0.57133 0.0
H654 H 0.04226 0.83499 0.5724 0.0
H655 H 0.0038 0.91277 0.58707 0.0
H656 H 0.08506 0.93725 0.62215 0.0
H657 H 0.04268 0.91093 0.62064 0.0
H658 H 0.0709 0.86977 0.54815 0.0
H659 H 0.11301 0.89593 0.54959 0.0
C660 C -0.00049 0.83729 0.56385 0.0
C661 C 0.97636 0.85407 0.56225 0.0
C662 C 0.02437 0.84791 0.5728 0.0
C663 C 0.02646 0.8754 0.5806 0.0
C664 C 0.00279 0.89147 0.58129 0.0
C665 C 0.97799 0.88094 0.57212 0.0
C666 C 0.08236 0.92224 0.60618 0.0
C667 C 0.1022 0.91885 0.5858 0.0
C668 C 0.05811 0.90725 0.60531 0.0
C669 C 0.0535 0.88833 0.58429 0.0
C670 C 0.074 0.88395 0.56479 0.0
C671 C 0.09802 0.89914 0.56546 0.0
H672 H 0.02766 0.32212 0.98134 0.0
H673 H 0.03974 0.40455 0.01014 0.0
H674 H 0.99236 0.33823 0.95018 0.0
H675 H 0.0044 0.42047 0.97939 0.0
H676 H 0.9517 0.44635 0.91089 0.0
H677 H 0.99237 0.42676 0.93144 0.0
H678 H 0.94581 0.35633 0.95632 0.0
H679 H 0.90518 0.37567 0.93539 0.0
C680 C 0.02301 0.34369 0.98082 0.0
C681 C 0.03637 0.36204 -0.00167 0.0
C682 C 0.00273 0.35287 0.96306 0.0
C683 C 0.99559 0.38059 0.96235 0.0
C684 C 0.00968 0.39903 0.97916 0.0
C685 C 0.02981 0.38987 -0.00304 0.0
C686 C 0.95021 0.42646 0.92031 0.0
C687 C 0.9251 0.41275 0.92188 0.0
C688 C 0.97351 0.41531 0.93218 0.0
C689 C 0.97219 0.39021 0.94584 0.0
C690 C 0.94751 0.37565 0.94582 0.0
C691 C 0.92418 0.38681 0.93394 0.0
H692 H 0.09889 0.10476 0.90727 0.0
H693 H 0.05524 0.04527 0.85907 0.0
H694 H 0.05646 0.12863 0.91633 0.0
H695 H 0.01273 0.06955 0.86776 0.0
H696 H 0.94534 0.09267 0.93124 0.0
H697 H 0.98525 0.07385 0.90882 0.0
H698 H 0.01813 0.15495 0.89895 0.0
H699 H 0.97827 0.17386 0.92193 0.0
C700 C 0.08032 0.09708 0.89812 0.0
C701 C 0.08039 0.07287 0.8828 0.0
C702 C 0.05598 0.11091 0.90316 0.0
C703 C 0.03116 0.10086 0.89296 0.0
C704 C 0.03147 0.07757 0.87624 0.0
C705 C 0.05585 0.06373 0.87117 0.0
C706 C 0.96082 0.10658 0.92387 0.0
C707 C 0.95881 0.13474 0.92875 0.0
C708 C 0.98366 0.09577 0.91081 0.0
C709 C 0.00501 0.11288 0.90232 0.0
C710 C 0.00219 0.14121 0.90564 0.0
C711 C 0.97929 0.15204 0.91868 0.0
H712 H 0.5116 0.03701 0.59057 0.0
H713 H 0.53644 0.0194 0.67313 0.0
H714 H 0.53863 -0.00103 0.57421 0.0
H715 H 0.56414 0.98149 0.65656 0.0
H716 H 0.5714 0.89434 0.61841 0.0
H717 H 0.55435 0.9367 0.63783 0.0
H718 H 0.58372 0.98078 0.56759 0.0
H719 H 0.60016 0.93829 0.54782 0.0
C720 C 0.52322 0.02531 0.60521 0.0
C721 C 0.52164 0.03109 0.6332 0.0
C722 C 0.53892 0.00357 0.59578 0.0
C723 C 0.5535 0.9871 0.61408 0.0
C724 C 0.55286 0.99358 0.64198 0.0
C725 C 0.53711 0.01538 0.65145 0.0
C726 C 0.5746 0.91311 0.60729 0.0
C727 C 0.58676 0.91288 0.58139 0.0
C728 C 0.56496 0.93746 0.61851 0.0
C729 C 0.5674 0.9621 0.60412 0.0
C730 C 0.58105 0.96206 0.57895 0.0
C731 C 0.59057 0.93772 0.56768 0.0
H732 H 0.60043 0.10016 0.87396 0.0
H733 H 0.59942 0.05052 0.94649 0.0
H734 H 0.5887 0.06033 0.84657 0.0
H735 H 0.58623 0.01125 0.91967 0.0
H736 H 0.56747 0.94026 0.86909 0.0
H737 H 0.59463 0.97741 0.88789 0.0
H738 H 0.5497 0.03482 0.83843 0.0
H739 H 0.52397 -0.00244 0.81862 0.0
C740 C 0.59788 0.08068 0.88401 0.0
C741 C 0.60057 0.07851 0.91239 0.0
C742 C 0.59098 0.05786 0.86835 0.0
C743 C 0.5861 0.03249 0.88082 0.0
C744 C 0.59017 0.03019 0.90911 0.0
C745 C 0.59755 0.05286 0.92464 0.0
C746 C 0.56397 0.96079 0.8618 0.0
C747 C 0.54344 0.96607 0.84263 0.0
C748 C 0.57934 0.98215 0.87273 0.0
C749 C 0.57404 0.00933 0.86522 0.0
C750 C 0.55469 0.01427 0.84464 0.0
C751 C 0.53974 0.99284 0.8333 0.0
H752 H 0.43969 0.55418 0.88803 0.0
H753 H 0.42449 0.53223 0.80413 0.0
H754 H 0.41344 0.51503 0.90297 0.0
H755 H 0.39757 0.49323 0.81916 0.0
H756 H 0.39952 0.40645 0.85932 0.0
H757 H 0.41084 0.45039 0.8395 0.0
H758 H 0.37069 0.4912 0.90642 0.0
H759 H 0.35996 0.44716 0.92666 0.0
C760 C 0.43017 0.54138 0.87274 0.0
C761 C 0.43459 0.54609 0.84488 0.0
C762 C 0.41491 0.51898 0.88133 0.0
C763 C 0.40362 0.50077 0.86226 0.0
C764 C 0.40639 0.5066 0.83437 0.0
C765 C 0.4217 0.52905 0.82576 0.0
C766 C 0.39259 0.42476 0.86954 0.0
C767 C 0.37932 0.4233 0.89484 0.0
C768 C 0.39894 0.45002 0.85806 0.0
C769 C 0.39202 0.47437 0.87157 0.0
C770 C 0.37681 0.47284 0.89578 0.0
C771 C 0.37056 0.44758 0.90732 0.0
H772 H 0.95121 0.09391 0.07093 0.0
H773 H 0.88611 0.05628 0.02512 0.0
H774 H 0.95677 0.05218 0.09728 0.0
H775 H 0.89215 0.0141 0.05127 0.0
H776 H 0.95474 0.94081 0.07376 0.0
H777 H 0.93517 0.9812 0.05228 0.0
H778 H 0.92956 0.02051 0.13074 0.0
H779 H 0.94875 0.98007 0.15239 0.0
C780 C 0.9379 0.07678 0.06672 0.0
C781 C 0.91835 0.07821 0.04593 0.0
C782 C 0.94094 0.05301 0.08192 0.0
C783 C 0.92483 0.03003 0.07629 0.0
C784 C 0.90475 0.03162 0.05597 0.0
C785 C 0.90129 0.05569 0.04112 0.0
C786 C 0.94869 0.9578 0.08651 0.0
C787 C 0.95358 0.95741 0.1147 0.0
C788 C 0.93736 0.98082 0.07423 0.0
C789 C 0.9311 0.00394 0.08989 0.0
C790 C 0.93437 0.00293 0.11826 0.0
C791 C 0.94529 0.97976 0.13061 0.0
H792 H 0.0311 0.18055 0.28879 0.0
H793 H 0.97722 0.16712 0.35711 0.0
H794 H 0.01005 0.2251 0.2812 0.0
H795 H 0.95661 0.21144 0.34975 0.0
H796 H 0.9107 0.28379 0.32157 0.0
H797 H 0.92824 0.23745 0.3181 0.0
H798 H 0.00947 0.2691 0.30582 0.0
H799 H 0.99192 0.31543 0.30879 0.0
C800 C 0.01469 0.187 0.30205 0.0
C801 C 0.00596 0.17038 0.32366 0.0
C802 C 0.0027 0.21251 0.29774 0.0
C803 C 0.98162 0.22174 0.31482 0.0
C804 C 0.97249 0.20477 0.33595 0.0
C805 C 0.98452 0.17944 0.34034 0.0
C806 C 0.93222 0.28089 0.31763 0.0
C807 C 0.94998 0.30329 0.31589 0.0
C808 C 0.94228 0.25434 0.31577 0.0
C809 C 0.9703 0.24963 0.31211 0.0
C810 C 0.98777 0.27204 0.30853 0.0
C811 C 0.97771 0.29861 0.3104 0.0
H812 H 0.90738 0.70407 0.16664 0.0
H813 H 0.9889 0.676 0.18457 0.0
H814 H 0.92359 0.75104 0.16689 0.0
H815 H 0.00513 0.72294 0.18436 0.0
H816 H 0.02201 0.81335 0.19877 0.0
H817 H 0.00303 0.76798 0.2067 0.0
H818 H 0.95256 0.77654 0.13516 0.0
H819 H 0.97113 0.8218 0.12743 0.0
C820 C 0.92868 0.70791 0.17096 0.0
C821 C 0.94691 0.68628 0.17525 0.0
C822 C 0.93799 0.73481 0.17095 0.0
C823 C 0.9657 0.74064 0.17527 0.0
C824 C 0.98363 0.71912 0.1811 0.0
C825 C 0.97434 0.6922 0.18108 0.0
C826 C 0.00677 0.80557 0.18482 0.0
C827 C -0.00185 0.82114 0.16241 0.0
C828 C -0.00404 0.77958 0.18934 0.0
C829 C 0.97622 0.76875 0.17163 0.0
C830 C 0.9674 0.78449 0.14944 0.0
C831 C 0.97825 0.81035 0.14487 0.0
H832 H 0.36056 0.97576 0.16954 0.0
H833 H 0.33707 0.05619 0.19687 0.0
H834 H 0.34944 0.95733 0.21403 0.0
H835 H 0.32537 0.0375 0.24145 0.0
H836 H 0.3495 -0.00134 0.32458 0.0
H837 H 0.35111 0.01909 0.27959 0.0
H838 H 0.31248 0.94756 0.2456 0.0
H839 H 0.31139 0.92674 0.29071 0.0
C840 C 0.35276 0.98949 0.18497 0.0
C841 C 0.34996 0.0175 0.17975 0.0
C842 C 0.34612 0.97884 0.21042 0.0
C843 C 0.33648 0.99594 0.23126 0.0
C844 C 0.333 0.02386 0.22586 0.0
C845 C 0.33966 0.03455 0.20033 0.0
C846 C 0.34103 0.98738 0.30759 0.0
C847 C 0.33067 0.96089 0.31115 0.0
C848 C 0.34177 -0.00079 0.28181 0.0
C849 C 0.33214 0.98486 0.259 0.0
C850 C 0.32046 0.95894 0.26276 0.0
C851 C 0.31972 0.94707 0.2886 0.0
H852 H 0.6887 0.46181 0.17441 0.0
H853 H 0.63517 0.53126 0.16614 0.0
H854 H 0.69521 0.47279 0.22252 0.0
H855 H 0.64137 0.5419 0.21409 0.0
H856 H 0.67125 0.56641 0.29666 0.0
H857 H 0.67482 0.5573 0.24793 0.0
H858 H 0.66607 0.47105 0.26323 0.0
H859 H 0.66296 0.48003 0.31187 0.0
C860 C 0.67846 0.47948 0.18279 0.0
C861 C 0.66126 0.49555 0.16652 0.0
C862 C 0.68213 0.48571 0.21034 0.0
C863 C 0.66879 0.50819 0.22207 0.0
C864 C 0.65224 0.52467 0.20558 0.0
C865 C 0.64849 0.51841 0.17813 0.0
C866 C 0.6705 0.54547 0.28966 0.0
C867 C 0.6665 0.52397 0.30809 0.0
C868 C 0.67242 0.54028 0.26175 0.0
C869 C 0.67045 0.51349 0.25175 0.0
C870 C 0.66786 0.49189 0.27031 0.0
C871 C 0.6659 0.49708 0.29819 0.0
H872 H 0.27045 0.35244 0.93842 0.0
H873 H 0.31246 0.33201 0.01301 0.0
H874 H 0.22679 0.34587 0.96126 0.0
H875 H 0.26874 0.3256 0.03581 0.0
H876 H 0.18256 0.29557 0.06014 0.0
H877 H 0.22613 0.29644 0.03582 0.0
H878 H 0.20339 0.3725 -0.00197 0.0
H879 H 0.16012 0.37172 0.02208 0.0
C880 C 0.27039 0.34627 0.95958 0.0
C881 C 0.2949 0.34302 0.97397 0.0
C882 C 0.2454 0.34264 0.97268 0.0
C883 C 0.24442 0.33548 0.00036 0.0
C884 C 0.2689 0.331 0.01443 0.0
C885 C 0.29391 0.33483 0.00139 0.0
C886 C 0.18691 0.31246 0.04665 0.0
C887 C 0.16791 0.33358 0.04307 0.0
C888 C 0.21183 0.31297 0.03279 0.0
C889 C 0.218 0.33442 0.01489 0.0
C890 C 0.199 0.35549 0.01136 0.0
C891 C 0.1743 0.35514 0.02536 0.0
H892 H 0.18029 0.68169 0.44334 0.0
H893 H 0.16892 0.61756 0.50254 0.0
H894 H 0.22733 0.68738 0.45858 0.0
H895 H 0.21587 0.62302 0.51742 0.0
H896 H 0.29445 0.6531 0.55365 0.0
H897 H 0.24651 0.65507 0.54071 0.0
H898 H 0.26962 0.66042 0.456 0.0
H899 H 0.31751 0.65887 0.4689 0.0
C900 C 0.18778 0.66888 0.45963 0.0
C901 C 0.17092 0.64909 0.47163 0.0
C902 C 0.21473 0.67209 0.4683 0.0
C903 C 0.22528 0.65567 0.48921 0.0
C904 C 0.20823 0.63625 0.50153 0.0
C905 C 0.18137 0.63298 0.49282 0.0
C906 C 0.28932 0.65505 0.5323 0.0
C907 C 0.30978 0.65556 0.51229 0.0
C908 C 0.26186 0.65604 0.52488 0.0
C909 C 0.25431 0.65765 0.49733 0.0
C910 C 0.27479 0.65938 0.47742 0.0
C911 C 0.30224 0.65833 0.48482 0.0
H912 H 0.69373 0.82488 0.57541 0.0
H913 H 0.68426 0.83452 0.48845 0.0
H914 H 0.74279 0.81931 0.56937 0.0
H915 H 0.73317 0.82953 0.48252 0.0
H916 H 0.81969 0.80097 0.47692 0.0
H917 H 0.77096 0.79768 0.48589 0.0
H918 H 0.78055 0.84915 0.55672 0.0
H919 H 0.82932 0.852 0.54812 0.0
C920 C 0.70207 0.82565 0.55501 0.0
C921 C 0.68513 0.83033 0.53243 0.0
C922 C 0.73017 0.82258 0.55157 0.0
C923 C 0.74187 0.82407 0.52549 0.0
C924 C 0.72478 0.82792 0.50286 0.0
C925 C 0.69674 0.83099 0.50628 0.0
C926 C 0.81146 0.81132 0.4946 0.0
C927 C 0.82833 0.82697 0.51166 0.0
C928 C 0.78352 0.80953 0.49965 0.0
C929 C 0.77186 0.82334 0.52187 0.0
C930 C 0.78893 0.83805 0.53958 0.0
C931 C 0.81687 0.83983 0.53454 0.0
H932 H 0.52293 0.8283 0.81297 0.0
H933 H 0.43838 0.80739 0.82558 0.0
H934 H 0.53399 0.78026 0.80721 0.0
H935 H 0.44952 0.7593 0.82128 0.0
H936 H 0.47353 0.67355 0.80207 0.0
H937 H 0.46368 0.72176 0.79492 0.0
H938 H 0.53846 0.74302 0.83649 0.0
H939 H 0.54877 0.69512 0.84239 0.0
C940 C 0.5067 0.81339 0.81439 0.0
C941 C 0.47986 0.82152 0.82001 0.0
C942 C 0.51304 0.78584 0.81126 0.0
C943 C 0.49276 0.76577 0.81422 0.0
C944 C 0.46566 0.7741 0.81855 0.0
C945 C 0.45926 0.80171 0.8212 0.0
C946 C 0.488 0.6886 0.8093 0.0
C947 C 0.51183 0.68058 0.82294 0.0
C948 C 0.4823 0.71623 0.80535 0.0
C949 C 0.50015 0.73639 0.81527 0.0
C950 C 0.52441 0.72818 0.82812 0.0
C951 C 0.53027 0.70063 0.83172 0.0
H952 H 0.55858 0.29044 0.64739 0.0
H953 H 0.47539 0.31861 0.65413 0.0
H954 H 0.54309 0.24357 0.65339 0.0
H955 H 0.45995 0.27179 0.65968 0.0
H956 H 0.44377 0.18553 0.6899 0.0
H957 H 0.46137 0.2321 0.69025 0.0
H958 H 0.51693 0.21148 0.62517 0.0
H959 H 0.49973 0.16498 0.62504 0.0
C960 C 0.53704 0.28667 0.65035 0.0
C961 C 0.5182 0.30821 0.65006 0.0
C962 C 0.52816 0.25982 0.65364 0.0
C963 C 0.50029 0.254 0.6568 0.0
C964 C 0.48158 0.27564 0.65753 0.0
C965 C 0.49043 0.30246 0.65417 0.0
C966 C 0.45982 0.19092 0.67575 0.0
C967 C 0.47027 0.1716 0.65737 0.0
C968 C 0.46982 0.2176 0.6759 0.0
C969 C 0.49056 0.22542 0.65777 0.0
C970 C 0.50123 0.20598 0.63966 0.0
C971 C 0.49119 0.17938 0.63945 0.0
H972 H 0.83524 0.50732 0.8257 0.0
H973 H 0.86442 0.42677 0.80517 0.0
H974 H 0.82753 0.51674 0.77765 0.0
H975 H 0.85757 0.43649 0.75707 0.0
H976 H 0.82684 0.45449 0.67285 0.0
H977 H 0.82496 0.4447 0.7215 0.0
H978 H 0.85559 0.52551 0.73887 0.0
H979 H 0.85665 0.53554 0.69049 0.0
C980 C 0.83998 0.49161 0.81092 0.0
C981 C 0.85068 0.46639 0.81918 0.0
C982 C 0.83565 0.49705 0.78337 0.0
C983 C 0.84213 0.47746 0.76348 0.0
C984 C 0.85203 0.45192 0.77186 0.0
C985 C 0.85616 0.4464 0.79943 0.0
C986 C 0.83282 0.47027 0.68711 0.0
C987 C 0.84209 0.49572 0.67783 0.0
C988 C 0.8319 0.4646 0.71496 0.0
C989 C 0.84033 0.48423 0.73408 0.0
C990 C 0.84863 0.51002 0.72476 0.0
C991 C 0.8494 0.51572 0.69696 0.0
H992 H 0.17713 0.02868 0.67309 0.0
H993 H 0.21391 0.95166 0.69473 0.0
H994 H 0.18043 0.04363 0.7202 0.0
H995 H 0.21765 0.9669 0.74191 0.0
H996 H 0.17662 0.98861 0.82466 0.0
H997 H 0.1838 0.97467 0.77769 0.0
H998 H 0.21093 0.05601 0.7577 0.0
H999 H 0.20329 0.07018 0.80476 0.0
C1000 C 0.18633 0.01509 0.68782 0.0
C1001 C 0.19493 0.98883 0.68023 0.0
C1002 C 0.18841 0.02376 0.71481 0.0
C1003 C 0.19914 0.00637 0.73482 0.0
C1004 C 0.20894 0.9806 0.727 0.0
C1005 C 0.20689 0.97193 0.69996 0.0
C1006 C 0.18439 0.00349 0.81035 0.0
C1007 C 0.1891 0.03059 0.81838 0.0
C1008 C 0.18872 0.99542 0.78345 0.0
C1009 C 0.19784 0.01427 0.76395 0.0
C1010 C 0.20358 0.04112 0.77221 0.0
C1011 C 0.19929 0.04919 0.79917 0.0
H1012 H 0.82091 0.14827 0.94496 0.0
H1013 H 0.80956 0.2053 0.01118 0.0
H1014 H 0.77366 0.1545 0.93145 0.0
H1015 H 0.76225 0.21187 -0.0027 0.0
H1016 H 0.67291 0.18069 0.98749 0.0
H1017 H 0.72115 0.18362 -0.00147 0.0
H1018 H 0.74072 0.18681 0.91283 0.0
H1019 H 0.69239 0.18338 0.90169 0.0
C1020 C 0.80843 0.1624 0.95644 0.0
C1021 C 0.81893 0.17609 0.97931 0.0
C1022 C 0.78138 0.16614 0.94855 0.0
C1023 C 0.76419 0.18364 0.96334 0.0
C1024 C 0.77492 0.19802 0.98568 0.0
C1025 C 0.80204 0.19432 0.99356 0.0
C1026 C 0.68745 0.18236 0.97098 0.0
C1027 C 0.67883 0.18146 0.94369 0.0
C1028 C 0.71511 0.18423 0.97733 0.0
C1029 C 0.73477 0.18524 0.95655 0.0
C1030 C 0.72607 0.18565 0.92928 0.0
C1031 C 0.69837 0.18381 0.92291 0.0
H1032 H 0.09841 0.94379 0.19395 0.0
H1033 H 0.01069 0.94697 0.2015 0.0
H1034 H 0.10258 0.97812 0.23001 0.0
H1035 H 0.01485 0.98134 0.23666 0.0
H1036 H 0.02889 0.02295 0.31581 0.0
H1037 H 0.02963 0.98597 0.28307 0.0
H1038 H 0.09279 0.02719 0.23769 0.0
H1039 H 0.09257 0.06428 0.27119 0.0
C1040 C 0.08008 0.95164 0.20339 0.0
C1041 C 0.05424 0.94258 0.1949 0.0
C1042 C 0.08246 0.97145 0.22385 0.0
C1043 C 0.05906 0.9824 0.23624 0.0
C1044 C 0.03332 0.97303 0.2279 0.0
C1045 C 0.03094 0.95336 0.20758 0.0
C1046 C 0.04302 0.02422 0.29891 0.0
C1047 C 0.06042 0.04678 0.29587 0.0
C1048 C 0.0434 0.00298 0.28009 0.0
C1049 C 0.06099 0.00381 0.25756 0.0
C1050 C 0.0791 0.02591 0.25493 0.0
C1051 C 0.07886 0.04721 0.27399 0.0
H1052 H 0.87712 0.40414 0.24996 0.0
H1053 H 0.91616 0.4592 0.30663 0.0
H1054 H 0.86716 0.44254 0.21993 0.0
H1055 H 0.90741 0.49694 0.27648 0.0
H1056 H 0.88913 0.56474 0.2229 0.0
H1057 H 0.87859 0.52778 0.25437 0.0
H1058 H 0.89416 0.46908 0.19046 0.0
H1059 H 0.90322 0.50584 0.15894 0.0
C1060 C 0.88327 0.42443 0.25618 0.0
C1061 C 0.89782 0.42851 0.28047 0.0
C1062 C 0.87769 0.44643 0.23891 0.0
C1063 C 0.88674 0.47289 0.24554 0.0
C1064 C 0.89974 0.47705 0.27071 0.0
C1065 C 0.90507 0.45521 0.28797 0.0
C1066 C 0.88956 0.54394 0.21545 0.0
C1067 C 0.8975 0.5382 0.18859 0.0
C1068 C 0.8837 0.52273 0.23352 0.0
C1069 C 0.88612 0.49535 0.22518 0.0
C1070 C 0.89188 0.48981 0.19768 0.0
C1071 C 0.89732 0.511 0.17957 0.0
H1072 H 0.23617 0.05853 0.93722 0.0
H1073 H 0.17432 0.08071 -0.00414 0.0
H1074 H 0.27047 0.05974 0.97293 0.0
H1075 H 0.20882 0.08242 0.03154 0.0
H1076 H 0.2684 0.03429 0.08806 0.0
H1077 H 0.23421 0.0464 0.05434 0.0
H1078 H 0.29595 0.08651 0.0061 0.0
H1079 H 0.33034 0.07394 0.03963 0.0
C1080 C 0.22999 0.06429 0.9576 0.0
C1081 C 0.20246 0.06914 0.96377 0.0
C1082 C 0.2497 0.06514 0.97808 0.0
C1083 C 0.24231 0.0709 0.00514 0.0
C1084 C 0.21506 0.07748 0.01096 0.0
C1085 C 0.19533 0.07663 0.99048 0.0
C1086 C 0.27464 0.04607 0.0705 0.0
C1087 C 0.30214 0.0528 0.06634 0.0
C1088 C 0.25499 0.05319 0.05122 0.0
C1089 C 0.26241 0.06724 0.02741 0.0
C1090 C 0.28968 0.07533 0.02403 0.0
C1091 C 0.30934 0.0682 0.04331 0.0
H1092 H 0.71173 0.47176 0.05485 0.0
H1093 H 0.65879 0.42507 0.00208 0.0
H1094 H 0.74925 0.46494 0.02329 0.0
H1095 H 0.69663 0.41784 0.97063 0.0
H1096 H 0.75721 0.45415 0.90629 0.0
H1097 H 0.7208 0.44834 0.93946 0.0
H1098 H 0.78043 0.43257 0.0022 0.0
H1099 H 0.81691 0.43888 0.96915 0.0
C1100 C 0.70823 0.45957 0.03678 0.0
C1101 C 0.68219 0.44924 0.03082 0.0
C1102 C 0.72981 0.4555 0.01874 0.0
C1103 C 0.72586 0.44099 0.99435 0.0
C1104 C 0.70019 0.42942 0.98909 0.0
C1105 C 0.67857 0.43346 0.00718 0.0
C1106 C 0.76256 0.44899 0.92705 0.0
C1107 C 0.78996 0.44739 0.93516 0.0
C1108 C 0.74167 0.44549 0.94605 0.0
C1109 C 0.74776 0.44027 0.97353 0.0
C1110 C 0.77512 0.43703 0.98127 0.0
C1111 C 0.796 0.44054 0.96229 0.0
H1112 H 0.27662 0.91244 0.42205 0.0
H1113 H 0.33642 0.88195 0.47902 0.0
H1114 H 0.24313 0.91479 0.45857 0.0
H1115 H 0.30276 0.88446 0.51552 0.0
H1116 H 0.22595 0.88535 0.5724 0.0
H1117 H 0.25486 0.8702 0.53441 0.0
H1118 H 0.24715 0.94953 0.49731 0.0
H1119 H 0.21883 0.96469 0.5348 0.0
C1120 C 0.28243 0.90548 0.44215 0.0
C1121 C 0.30938 0.89763 0.44776 0.0
C1122 C 0.26326 0.90694 0.46306 0.0
C1123 C 0.27061 0.90037 0.48991 0.0
C1124 C 0.29662 0.8897 0.495 0.0
C1125 C 0.31589 0.88835 0.47407 0.0
C1126 C 0.23053 0.8995 0.55613 0.0
C1127 C 0.22014 0.92621 0.55665 0.0
C1128 C 0.24696 0.89081 0.53443 0.0
C1129 C 0.25275 0.90856 0.51276 0.0
C1130 C 0.24248 0.93523 0.51345 0.0
C1131 C 0.2265 0.94399 0.53515 0.0
H1132 H 0.76141 0.55522 0.58558 0.0
H1133 H 0.80715 0.51236 0.52366 0.0
H1134 H 0.72712 0.5674 0.55158 0.0
H1135 H 0.77283 0.52368 0.49024 0.0
H1136 H 0.71579 0.55562 0.42944 0.0
H1137 H 0.7517 0.55807 0.46366 0.0
H1138 H 0.69216 0.5437 0.52691 0.0
H1139 H 0.65626 0.54234 0.49288 0.0
C1140 C 0.76426 0.54857 0.56473 0.0
C1141 C 0.78689 0.53264 0.5574 0.0
C1142 C 0.74458 0.55546 0.54528 0.0
C1143 C 0.74716 0.5465 0.51815 0.0
C1144 C 0.77033 0.53138 0.51076 0.0
C1145 C 0.78995 0.52463 0.53008 0.0
C1146 C 0.71034 0.55356 0.45071 0.0
C1147 C 0.68327 0.54841 0.45843 0.0
C1148 C 0.73091 0.5548 0.47032 0.0
C1149 C 0.72491 0.55057 0.49802 0.0
C1150 C 0.69755 0.54724 0.50584 0.0
C1151 C 0.67694 0.5463 0.48625 0.0
H1152 H 0.01075 0.29815 0.12527 0.0
H1153 H 0.06451 0.26823 0.06227 0.0
H1154 H 0.97684 0.26403 0.11241 0.0
H1155 H 0.03093 0.23389 0.04986 0.0
H1156 H 0.95219 0.20984 0.00778 0.0
H1157 H 0.98736 0.23915 0.02655 0.0
H1158 H 0.96422 0.21529 0.10797 0.0
H1159 H 0.92847 0.18603 0.08912 0.0
C1160 C 0.01567 0.2838 0.10923 0.0
C1161 C 0.04013 0.28615 0.09449 0.0
C1162 C -0.00378 0.26427 0.10185 0.0
C1163 C 0.00097 0.24673 0.07969 0.0
C1164 C 0.02638 0.24764 0.06653 0.0
C1165 C 0.04572 0.26716 0.0738 0.0
C1166 C 0.95444 0.21088 0.0297 0.0
C1167 C 0.93756 0.19552 0.04694 0.0
C1168 C 0.97482 0.22749 0.04046 0.0
C1169 C 0.9789 0.22916 0.06874 0.0
C1170 C 0.96157 0.21439 0.0861 0.0
C1171 C 0.9411 0.19767 0.07529 0.0
H1172 H 0.02921 0.67797 0.47201 0.0
H1173 H 0.06197 0.71176 0.39762 0.0
H1174 H -0.00115 0.71662 0.47644 0.0
H1175 H 0.03105 0.75082 0.4021 0.0
H1176 H -0.00136 0.82977 0.44814 0.0
H1177 H 0.02589 0.79047 0.43444 0.0
H1178 H 0.95877 0.73705 0.45412 0.0
H1179 H 0.93164 0.77618 0.46818 0.0
C1180 C 0.02985 0.69361 0.45647 0.0
C1181 C 0.04812 0.69184 0.43449 0.0
C1182 C 0.01221 0.71567 0.4589 0.0
C1183 C 0.0124 0.73664 0.43951 0.0
C1184 C 0.03052 0.73492 0.41737 0.0
C1185 C 0.04813 0.71258 0.41478 0.0
C1186 C 0.98954 0.80968 0.44913 0.0
C1187 C 0.96313 0.80604 0.45966 0.0
C1188 C 0.00511 0.7872 0.44113 0.0
C1189 C 0.99457 0.76069 0.44354 0.0
C1190 C 0.96758 0.75723 0.45248 0.0
C1191 C 0.95203 0.77966 0.46046 0.0
H1192 H 0.58884 0.7421 0.53192 0.0
H1193 H 0.5372 0.80632 0.56307 0.0
H1194 H 0.55238 0.70928 0.53917 0.0
H1195 H 0.50089 0.77332 0.57084 0.0
H1196 H 0.43432 0.71548 0.53492 0.0
H1197 H 0.47098 0.74848 0.54015 0.0
H1198 H 0.52357 0.68529 0.57151 0.0
H1199 H 0.48702 0.6521 0.56578 0.0
C1200 C 0.56993 0.74913 0.54086 0.0
C1201 C 0.56581 0.77688 0.54657 0.0
C1202 C 0.54904 0.73027 0.54517 0.0
C1203 C 0.52362 0.73874 0.55536 0.0
C1204 C 0.52008 0.76624 0.56254 0.0
C1205 C 0.54095 0.78511 0.55821 0.0
C1206 C 0.45353 0.7087 0.5434 0.0
C1207 C 0.45785 0.6811 0.54961 0.0
C1208 C 0.47454 0.72766 0.54654 0.0
C1209 C 0.5003 0.71945 0.55601 0.0
C1210 C 0.5041 0.69215 0.56373 0.0
C1211 C 0.48309 0.67318 0.56058 0.0
H1212 H 0.57247 0.58242 0.7514 0.0
H1213 H 0.52136 0.52517 0.79457 0.0
H1214 H 0.58266 0.54736 0.71744 0.0
H1215 H 0.53077 0.49075 0.76055 0.0
H1216 H 0.55925 0.42697 0.70476 0.0
H1217 H 0.56339 0.4608 0.74094 0.0
H1218 H 0.55829 0.52527 0.68126 0.0
H1219 H 0.55523 0.49151 0.64514 0.0
C1220 C 0.56356 0.56235 0.75374 0.0
C1221 C 0.54595 0.55666 0.77557 0.0
C1222 C 0.56932 0.54231 0.73426 0.0
C1223 C 0.55754 0.51622 0.73622 0.0
C1224 C 0.54064 0.5104 0.75858 0.0
C1225 C 0.535 0.5303 0.77802 0.0
C1226 C 0.5596 0.44837 0.69936 0.0
C1227 C 0.55652 0.45658 0.67216 0.0
C1228 C 0.56181 0.46776 0.72008 0.0
C1229 C 0.56065 0.49577 0.71407 0.0
C1230 C 0.55944 0.50391 0.68666 0.0
C1231 C 0.55753 0.48451 0.66592 0.0
H1232 H 0.43711 -0.00099 0.84381 0.0
H1233 H 0.42759 0.93415 0.78488 0.0
H1234 H 0.42243 0.03207 0.8098 0.0
H1235 H 0.41289 0.96728 0.75096 0.0
H1236 H 0.37923 0.0325 0.69642 0.0
H1237 H 0.37834 0.00383 0.73722 0.0
H1238 H 0.4494 0.04573 0.76797 0.0
H1239 H 0.45043 0.07409 0.72736 0.0
C1240 C 0.43125 0.9917 0.82383 0.0
C1241 C 0.43394 0.96402 0.81687 0.0
C1242 C 0.4229 0.01066 0.80437 0.0
C1243 C 0.41676 0.00225 0.77773 0.0
C1244 C 0.41731 0.97431 0.77141 0.0
C1245 C 0.42593 0.95537 0.79078 0.0
C1246 C 0.3942 0.03601 0.71225 0.0
C1247 C 0.41507 0.0553 0.70867 0.0
C1248 C 0.39375 0.01954 0.73548 0.0
C1249 C 0.41384 0.02252 0.75565 0.0
C1250 C 0.43349 0.04316 0.75288 0.0
C1251 C 0.4342 0.05927 0.72955 0.0
H1252 H 0.43974 0.31986 0.91285 0.0
H1253 H 0.39574 0.25545 0.9537 0.0
H1254 H 0.47617 0.28796 0.90179 0.0
H1255 H 0.43236 0.22375 0.94307 0.0
H1256 H 0.49545 0.16778 0.90899 0.0
H1257 H 0.45717 0.19936 0.90768 0.0
H1258 H 0.51115 0.26562 0.92904 0.0
H1259 H 0.54951 0.23418 0.92987 0.0
C1260 C 0.43766 0.29883 0.91919 0.0
C1261 C 0.41496 0.29025 0.93442 0.0
C1262 C 0.45862 0.2806 0.91296 0.0
C1263 C 0.4573 0.2534 0.92177 0.0
C1264 C 0.43392 0.2445 0.93575 0.0
C1265 C 0.41296 0.26273 0.94199 0.0
C1266 C 0.49925 0.18917 0.91296 0.0
C1267 C 0.52548 0.19843 0.91982 0.0
C1268 C 0.47727 0.20722 0.91234 0.0
C1269 C 0.48105 0.23493 0.91854 0.0
C1270 C 0.50756 0.24444 0.92393 0.0
C1271 C 0.52955 0.22639 0.92454 0.0
loop_
_geom_bond_atom_site_label_1
_geom_bond_atom_site_label_2
_geom_bond_distance
_geom_bond_site_symmetry_2
_ccdc_geom_bond_type
C0 O1 1.160 1_655 S
C0 O7 1.185 . S
O1 C0 1.160 1_455 S
O2 Zn3 1.899 . S
O2 C10 1.284 1_655 S
Zn3 O2 1.899 . S
Zn3 O4 2.032 1_655 S
Zn3 O7 2.086 . S
Zn3 O12 1.977 . S
O4 Zn3 2.032 1_455 S
O4 C8 1.278 . S
C5 O6 1.203 . S
C5 O12 1.267 . S
O6 C5 1.203 . S
O7 C0 1.185 . S
O7 Zn3 2.086 . S
C8 O4 1.278 . S
C8 O9 1.211 . S
O9 C8 1.211 . S
C10 O2 1.284 1_455 S
C10 O11 1.273 . S
O11 C10 1.273 . S
O12 Zn3 1.977 . S
O12 C5 1.267 . S
C13 O14 1.160 1_455 S
C13 O20 1.185 . S
O14 C13 1.160 1_655 S
O15 Zn16 1.899 . S
O15 C23 1.284 1_455 S
Zn16 O15 1.899 . S
Zn16 O17 2.032 1_455 S
Zn16 O20 2.086 . S
Zn16 O25 1.977 . S
O17 Zn16 2.032 1_655 S
O17 C21 1.278 . S
C18 O19 1.203 . S
C18 O25 1.267 . S
O19 C18 1.203 . S
O20 C13 1.185 . S
O20 Zn16 2.086 . S
C21 O17 1.278 . S
C21 O22 1.211 . S
O22 C21 1.211 . S
C23 O15 1.284 1_655 S
C23 O24 1.273 . S
O24 C23 1.273 . S
O25 Zn16 1.977 . S
O25 C18 1.267 . S
C26 O27 1.160 1_655 S
C26 O33 1.185 . S
O27 C26 1.160 1_455 S
O28 Zn29 1.899 . S
O28 C36 1.284 1_655 S
Zn29 O28 1.899 . S
Zn29 O30 2.032 1_655 S
Zn29 O33 2.086 . S
Zn29 O38 1.977 . S
O30 Zn29 2.032 1_455 S
O30 C34 1.278 . S
C31 O32 1.203 . S
C31 O38 1.267 . S
O32 C31 1.203 . S
O33 C26 1.185 . S
O33 Zn29 2.086 . S
C34 O30 1.278 . S
C34 O35 1.211 . S
O35 C34 1.211 . S
C36 O28 1.284 1_455 S
C36 O37 1.273 . S
O37 C36 1.273 . S
O38 Zn29 1.977 . S
O38 C31 1.267 . S
C39 O40 1.160 1_455 S
C39 O46 1.185 . S
O40 C39 1.160 1_655 S
O41 Zn42 1.899 . S
O41 C49 1.284 1_455 S
Zn42 O41 1.899 . S
Zn42 O43 2.032 1_455 S
Zn42 O46 2.086 . S
Zn42 O51 1.977 . S
O43 Zn42 2.032 1_655 S
O43 C47 1.278 . S
C44 O45 1.203 . S
C44 O51 1.267 . S
O45 C44 1.203 . S
O46 C39 1.185 . S
O46 Zn42 2.086 . S
C47 O43 1.278 . S
C47 O48 1.211 . S
O48 C47 1.211 . S
C49 O41 1.284 1_655 S
C49 O50 1.273 . S
O50 C49 1.273 . S
O51 Zn42 1.977 . S
O51 C44 1.267 . S
C52 O53 1.160 1_565 S
C52 O59 1.185 . S
O53 C52 1.160 1_545 S
O54 Zn55 1.899 . S
O54 C62 1.284 1_565 S
Zn55 O54 1.899 . S
Zn55 O56 2.032 1_565 S
Zn55 O59 2.086 . S
Zn55 O64 1.977 . S
O56 Zn55 2.032 1_545 S
O56 C60 1.278 . S
C57 O58 1.203 . S
C57 O64 1.267 . S
O58 C57 1.203 . S
O59 C52 1.185 . S
O59 Zn55 2.086 . S
C60 O56 1.278 . S
C60 O61 1.211 . S
O61 C60 1.211 . S
C62 O54 1.284 1_545 S
C62 O63 1.273 . S
O63 C62 1.273 . S
O64 Zn55 1.977 . S
O64 C57 1.267 . S
C65 O66 1.160 . S
C65 O72 1.185 . S
O66 C65 1.160 . S
O67 Zn68 1.899 . S
O67 C75 1.284 . S
Zn68 O67 1.899 . S
Zn68 O69 2.032 . S
Zn68 O72 2.086 . S
Zn68 O77 1.977 . S
O69 Zn68 2.032 . S
O69 C73 1.278 . S
C70 O71 1.203 . S
C70 O77 1.267 . S
O71 C70 1.203 . S
O72 C65 1.185 . S
O72 Zn68 2.086 . S
C73 O69 1.278 . S
C73 O74 1.211 . S
O74 C73 1.211 . S
C75 O67 1.284 . S
C75 O76 1.273 . S
O76 C75 1.273 . S
O77 Zn68 1.977 . S
O77 C70 1.267 . S
C78 O79 1.160 1_545 S
C78 O85 1.185 . S
O79 C78 1.160 1_565 S
O80 Zn81 1.899 . S
O80 C88 1.284 1_545 S
Zn81 O80 1.899 . S
Zn81 O82 2.032 1_545 S
Zn81 O85 2.086 . S
Zn81 O90 1.977 . S
O82 Zn81 2.032 1_565 S
O82 C86 1.278 . S
C83 O84 1.203 . S
C83 O90 1.267 . S
O84 C83 1.203 . S
O85 C78 1.185 . S
O85 Zn81 2.086 . S
C86 O82 1.278 . S
C86 O87 1.211 . S
O87 C86 1.211 . S
C88 O80 1.284 1_565 S
C88 O89 1.273 . S
O89 C88 1.273 . S
O90 Zn81 1.977 . S
O90 C83 1.267 . S
C91 O92 1.160 . S
C91 O98 1.185 . S
O92 C91 1.160 . S
O93 Zn94 1.899 . S
O93 C101 1.284 . S
Zn94 O93 1.899 . S
Zn94 O95 2.032 . S
Zn94 O98 2.086 . S
Zn94 O103 1.977 . S
O95 Zn94 2.032 . S
O95 C99 1.278 . S
C96 O97 1.203 . S
C96 O103 1.267 . S
O97 C96 1.203 . S
O98 C91 1.185 . S
O98 Zn94 2.086 . S
C99 O95 1.278 . S
C99 O100 1.211 . S
O100 C99 1.211 . S
C101 O93 1.284 . S
C101 O102 1.273 . S
O102 C101 1.273 . S
O103 Zn94 1.977 . S
O103 C96 1.267 . S
C104 O105 1.160 1_556 S
C104 O111 1.185 . S
O105 C104 1.160 1_554 S
O106 Zn107 1.899 . S
O106 C114 1.284 1_556 S
Zn107 O106 1.899 . S
Zn107 O108 2.032 1_556 S
Zn107 O111 2.086 . S
Zn107 O116 1.977 . S
O108 Zn107 2.032 1_554 S
O108 C112 1.278 . S
C109 O110 1.203 . S
C109 O116 1.267 . S
O110 C109 1.203 . S
O111 C104 1.185 . S
O111 Zn107 2.086 . S
C112 O108 1.278 . S
C112 O113 1.211 . S
O113 C112 1.211 . S
C114 O106 1.284 1_554 S
C114 O115 1.273 . S
O115 C114 1.273 . S
O116 Zn107 1.977 . S
O116 C109 1.267 . S
C117 O118 1.160 . S
C117 O124 1.185 . S
O118 C117 1.160 . S
O119 Zn120 1.899 . S
O119 C127 1.284 . S
Zn120 O119 1.899 . S
Zn120 O121 2.032 . S
Zn120 O124 2.086 . S
Zn120 O129 1.977 . S
O121 Zn120 2.032 . S
O121 C125 1.278 . S
C122 O123 1.203 . S
C122 O129 1.267 . S
O123 C122 1.203 . S
O124 C117 1.185 . S
O124 Zn120 2.086 . S
C125 O121 1.278 . S
C125 O126 1.211 . S
O126 C125 1.211 . S
C127 O119 1.284 . S
C127 O128 1.273 . S
O128 C127 1.273 . S
O129 Zn120 1.977 . S
O129 C122 1.267 . S
C130 O131 1.160 . S
C130 O137 1.185 . S
O131 C130 1.160 . S
O132 Zn133 1.899 . S
O132 C140 1.284 . S
Zn133 O132 1.899 . S
Zn133 O134 2.032 . S
Zn133 O137 2.086 . S
Zn133 O142 1.977 . S
O134 Zn133 2.032 . S
O134 C138 1.278 . S
C135 O136 1.203 . S
C135 O142 1.267 . S
O136 C135 1.203 . S
O137 C130 1.185 . S
O137 Zn133 2.086 . S
C138 O134 1.278 . S
C138 O139 1.211 . S
O139 C138 1.211 . S
C140 O132 1.284 . S
C140 O141 1.273 . S
O141 C140 1.273 . S
O142 Zn133 1.977 . S
O142 C135 1.267 . S
C143 O144 1.160 . S
C143 O150 1.185 . S
O144 C143 1.160 . S
O145 Zn146 1.899 . S
O145 C153 1.284 . S
Zn146 O145 1.899 . S
Zn146 O147 2.032 . S
Zn146 O150 2.086 . S
Zn146 O155 1.977 . S
O147 Zn146 2.032 . S
O147 C151 1.278 . S
C148 O149 1.203 . S
C148 O155 1.267 . S
O149 C148 1.203 . S
O150 C143 1.185 . S
O150 Zn146 2.086 . S
C151 O147 1.278 . S
C151 O152 1.211 . S
O152 C151 1.211 . S
C153 O145 1.284 . S
C153 O154 1.273 . S
O154 C153 1.273 . S
O155 Zn146 1.977 . S
O155 C148 1.267 . S
C156 O157 1.160 . S
C156 O163 1.185 . S
O157 C156 1.160 . S
O158 Zn159 1.899 . S
O158 C166 1.284 . S
Zn159 O158 1.899 . S
Zn159 O160 2.032 . S
Zn159 O163 2.086 . S
Zn159 O168 1.977 . S
O160 Zn159 2.032 . S
O160 C164 1.278 . S
C161 O162 1.203 . S
C161 O168 1.267 . S
O162 C161 1.203 . S
O163 C156 1.185 . S
O163 Zn159 2.086 . S
C164 O160 1.278 . S
C164 O165 1.211 . S
O165 C164 1.211 . S
C166 O158 1.284 . S
C166 O167 1.273 . S
O167 C166 1.273 . S
O168 Zn159 1.977 . S
O168 C161 1.267 . S
C169 O170 1.160 . S
C169 O176 1.185 . S
O170 C169 1.160 . S
O171 Zn172 1.899 . S
O171 C179 1.284 . S
Zn172 O171 1.899 . S
Zn172 O173 2.032 . S
Zn172 O176 2.086 . S
Zn172 O181 1.977 . S
O173 Zn172 2.032 . S
O173 C177 1.278 . S
C174 O175 1.203 . S
C174 O181 1.267 . S
O175 C174 1.203 . S
O176 C169 1.185 . S
O176 Zn172 2.086 . S
C177 O173 1.278 . S
C177 O178 1.211 . S
O178 C177 1.211 . S
C179 O171 1.284 . S
C179 O180 1.273 . S
O180 C179 1.273 . S
O181 Zn172 1.977 . S
O181 C174 1.267 . S
C182 O183 1.160 . S
C182 O189 1.185 . S
O183 C182 1.160 . S
O184 Zn185 1.899 . S
O184 C192 1.284 . S
Zn185 O184 1.899 . S
Zn185 O186 2.032 . S
Zn185 O189 2.086 . S
Zn185 O194 1.977 . S
O186 Zn185 2.032 . S
O186 C190 1.278 . S
C187 O188 1.203 . S
C187 O194 1.267 . S
O188 C187 1.203 . S
O189 C182 1.185 . S
O189 Zn185 2.086 . S
C190 O186 1.278 . S
C190 O191 1.211 . S
O191 C190 1.211 . S
C192 O184 1.284 . S
C192 O193 1.273 . S
O193 C192 1.273 . S
O194 Zn185 1.977 . S
O194 C187 1.267 . S
C195 O196 1.160 . S
C195 O202 1.185 . S
O196 C195 1.160 . S
O197 Zn198 1.899 . S
O197 C205 1.284 . S
Zn198 O197 1.899 . S
Zn198 O199 2.032 . S
Zn198 O202 2.086 . S
Zn198 O207 1.977 . S
O199 Zn198 2.032 . S
O199 C203 1.278 . S
C200 O201 1.203 . S
C200 O207 1.267 . S
O201 C200 1.203 . S
O202 C195 1.185 . S
O202 Zn198 2.086 . S
C203 O199 1.278 . S
C203 O204 1.211 . S
O204 C203 1.211 . S
C205 O197 1.284 . S
C205 O206 1.273 . S
O206 C205 1.273 . S
O207 Zn198 1.977 . S
O207 C200 1.267 . S
C208 O209 1.160 . S
C208 O215 1.185 . S
O209 C208 1.160 . S
O210 Zn211 1.899 . S
O210 C218 1.284 . S
Zn211 O210 1.899 . S
Zn211 O212 2.032 . S
Zn211 O215 2.086 . S
Zn211 O220 1.977 . S
O212 Zn211 2.032 . S
O212 C216 1.278 . S
C213 O214 1.203 . S
C213 O220 1.267 . S
O214 C213 1.203 . S
O215 C208 1.185 . S
O215 Zn211 2.086 . S
C216 O212 1.278 . S
C216 O217 1.211 . S
O217 C216 1.211 . S
C218 O210 1.284 . S
C218 O219 1.273 . S
O219 C218 1.273 . S
O220 Zn211 1.977 . S
O220 C213 1.267 . S
C221 O222 1.160 1_545 S
C221 O228 1.185 . S
O222 C221 1.160 1_565 S
O223 Zn224 1.899 . S
O223 C231 1.284 1_545 S
Zn224 O223 1.899 . S
Zn224 O225 2.032 1_545 S
Zn224 O228 2.086 . S
Zn224 O233 1.977 . S
O225 Zn224 2.032 1_565 S
O225 C229 1.278 . S
C226 O227 1.203 . S
C226 O233 1.267 . S
O227 C226 1.203 . S
O228 C221 1.185 . S
O228 Zn224 2.086 . S
C229 O225 1.278 . S
C229 O230 1.211 . S
O230 C229 1.211 . S
C231 O223 1.284 1_565 S
C231 O232 1.273 . S
O232 C231 1.273 . S
O233 Zn224 1.977 . S
O233 C226 1.267 . S
C234 O235 1.160 . S
C234 O241 1.185 . S
O235 C234 1.160 . S
O236 Zn237 1.899 . S
O236 C244 1.284 . S
Zn237 O236 1.899 . S
Zn237 O238 2.032 . S
Zn237 O241 2.086 . S
Zn237 O246 1.977 . S
O238 Zn237 2.032 . S
O238 C242 1.278 . S
C239 O240 1.203 . S
C239 O246 1.267 . S
O240 C239 1.203 . S
O241 C234 1.185 . S
O241 Zn237 2.086 . S
C242 O238 1.278 . S
C242 O243 1.211 . S
O243 C242 1.211 . S
C244 O236 1.284 . S
C244 O245 1.273 . S
O245 C244 1.273 . S
O246 Zn237 1.977 . S
O246 C239 1.267 . S
C247 O248 1.160 1_565 S
C247 O254 1.185 . S
O248 C247 1.160 1_545 S
O249 Zn250 1.899 . S
O249 C257 1.284 1_565 S
Zn250 O249 1.899 . S
Zn250 O251 2.032 1_565 S
Zn250 O254 2.086 . S
Zn250 O259 1.977 . S
O251 Zn250 2.032 1_545 S
O251 C255 1.278 . S
C252 O253 1.203 . S
C252 O259 1.267 . S
O253 C252 1.203 . S
O254 C247 1.185 . S
O254 Zn250 2.086 . S
C255 O251 1.278 . S
C255 O256 1.211 . S
O256 C255 1.211 . S
C257 O249 1.284 1_545 S
C257 O258 1.273 . S
O258 C257 1.273 . S
O259 Zn250 1.977 . S
O259 C252 1.267 . S
C260 O261 1.160 . S
C260 O267 1.185 . S
O261 C260 1.160 . S
O262 Zn263 1.899 . S
O262 C270 1.284 . S
Zn263 O262 1.899 . S
Zn263 O264 2.032 . S
Zn263 O267 2.086 . S
Zn263 O272 1.977 . S
O264 Zn263 2.032 . S
O264 C268 1.278 . S
C265 O266 1.203 . S
C265 O272 1.267 . S
O266 C265 1.203 . S
O267 C260 1.185 . S
O267 Zn263 2.086 . S
C268 O264 1.278 . S
C268 O269 1.211 . S
O269 C268 1.211 . S
C270 O262 1.284 . S
C270 O271 1.273 . S
O271 C270 1.273 . S
O272 Zn263 1.977 . S
O272 C265 1.267 . S
C273 O274 1.160 1_554 S
C273 O280 1.185 . S
O274 C273 1.160 1_556 S
O275 Zn276 1.899 . S
O275 C283 1.284 1_554 S
Zn276 O275 1.899 . S
Zn276 O277 2.032 1_554 S
Zn276 O280 2.086 . S
Zn276 O285 1.977 . S
O277 Zn276 2.032 1_556 S
O277 C281 1.278 . S
C278 O279 1.203 . S
C278 O285 1.267 . S
O279 C278 1.203 . S
O280 C273 1.185 . S
O280 Zn276 2.086 . S
C281 O277 1.278 . S
C281 O282 1.211 . S
O282 C281 1.211 . S
C283 O275 1.284 1_556 S
C283 O284 1.273 . S
O284 C283 1.273 . S
O285 Zn276 1.977 . S
O285 C278 1.267 . S
C286 O287 1.160 1_554 S
C286 O293 1.185 . S
O287 C286 1.160 1_556 S
O288 Zn289 1.899 . S
O288 C296 1.284 1_554 S
Zn289 O288 1.899 . S
Zn289 O290 2.032 1_554 S
Zn289 O293 2.086 . S
Zn289 O298 1.977 . S
O290 Zn289 2.032 1_556 S
O290 C294 1.278 . S
C291 O292 1.203 . S
C291 O298 1.267 . S
O292 C291 1.203 . S
O293 C286 1.185 . S
O293 Zn289 2.086 . S
C294 O290 1.278 . S
C294 O295 1.211 . S
O295 C294 1.211 . S
C296 O288 1.284 1_556 S
C296 O297 1.273 . S
O297 C296 1.273 . S
O298 Zn289 1.977 . S
O298 C291 1.267 . S
C299 O300 1.160 1_556 S
C299 O306 1.185 . S
O300 C299 1.160 1_554 S
O301 Zn302 1.899 . S
O301 C309 1.284 1_556 S
Zn302 O301 1.899 . S
Zn302 O303 2.032 1_556 S
Zn302 O306 2.086 . S
Zn302 O311 1.977 . S
O303 Zn302 2.032 1_554 S
O303 C307 1.278 . S
C304 O305 1.203 . S
C304 O311 1.267 . S
O305 C304 1.203 . S
O306 C299 1.185 . S
O306 Zn302 2.086 . S
C307 O303 1.278 . S
C307 O308 1.211 . S
O308 C307 1.211 . S
C309 O301 1.284 1_554 S
C309 O310 1.273 . S
O310 C309 1.273 . S
O311 Zn302 1.977 . S
O311 C304 1.267 . S
H312 C320 0.950 . S
H313 C325 0.950 . S
H314 C322 0.950 . S
H315 C324 0.950 . S
H316 C326 0.950 . S
H317 C328 0.950 . S
H318 C330 0.950 . S
H319 C331 0.950 . S
C320 H312 0.950 . S
C320 C321 1.386 . S
C320 C322 1.391 . S
C321 C320 1.386 . S
C321 C325 1.393 . S
C322 H314 0.950 . S
C322 C320 1.391 . S
C322 C323 1.400 . S
C323 C322 1.400 . S
C323 C324 1.398 . S
C323 C329 1.491 . S
C324 H315 0.950 . S
C324 C323 1.398 . S
C324 C325 1.391 . S
C325 H313 0.950 . S
C325 C321 1.393 . S
C325 C324 1.391 . S
C326 H316 0.950 . S
C326 C327 1.386 . S
C326 C328 1.391 . S
C327 C326 1.386 . S
C327 C331 1.393 . S
C328 H317 0.950 . S
C328 C326 1.391 . S
C328 C329 1.400 . S
C329 C323 1.491 . S
C329 C328 1.400 . S
C329 C330 1.398 . S
C330 H318 0.950 . S
C330 C329 1.398 . S
C330 C331 1.391 . S
C331 H319 0.950 . S
C331 C327 1.393 . S
C331 C330 1.391 . S
H332 C340 0.950 . S
H333 C345 0.950 . S
H334 C342 0.950 . S
H335 C344 0.950 . S
H336 C346 0.950 . S
H337 C348 0.950 . S
H338 C350 0.950 . S
H339 C351 0.950 . S
C340 H332 0.950 . S
C340 C341 1.386 . S
C340 C342 1.391 . S
C341 C340 1.386 . S
C341 C345 1.393 . S
C342 H334 0.950 . S
C342 C340 1.391 . S
C342 C343 1.400 . S
C343 C342 1.400 . S
C343 C344 1.398 . S
C343 C349 1.491 . S
C344 H335 0.950 . S
C344 C343 1.398 . S
C344 C345 1.391 . S
C345 H333 0.950 . S
C345 C341 1.393 . S
C345 C344 1.391 . S
C346 H336 0.950 . S
C346 C347 1.386 . S
C346 C348 1.391 . S
C347 C346 1.386 . S
C347 C351 1.393 . S
C348 H337 0.950 . S
C348 C346 1.391 . S
C348 C349 1.400 . S
C349 C343 1.491 . S
C349 C348 1.400 . S
C349 C350 1.398 . S
C350 H338 0.950 . S
C350 C349 1.398 . S
C350 C351 1.391 . S
C351 H339 0.950 . S
C351 C347 1.393 . S
C351 C350 1.391 . S
H352 C360 0.950 . S
H353 C365 0.950 . S
H354 C362 0.950 . S
H355 C364 0.950 . S
H356 C366 0.950 . S
H357 C368 0.950 . S
H358 C370 0.950 . S
H359 C371 0.950 . S
C360 H352 0.950 . S
C360 C361 1.386 . S
C360 C362 1.391 . S
C361 C360 1.386 . S
C361 C365 1.393 . S
C362 H354 0.950 . S
C362 C360 1.391 . S
C362 C363 1.400 . S
C363 C362 1.400 . S
C363 C364 1.398 . S
C363 C369 1.491 . S
C364 H355 0.950 . S
C364 C363 1.398 . S
C364 C365 1.391 . S
C365 H353 0.950 . S
C365 C361 1.393 . S
C365 C364 1.391 . S
C366 H356 0.950 . S
C366 C367 1.386 . S
C366 C368 1.391 . S
C367 C366 1.386 . S
C367 C371 1.393 . S
C368 H357 0.950 . S
C368 C366 1.391 . S
C368 C369 1.400 1_556 S
C369 C363 1.491 . S
C369 C368 1.400 1_554 S
C369 C370 1.398 . S
C370 H358 0.950 . S
C370 C369 1.398 . S
C370 C371 1.391 1_554 S
C371 H359 0.950 . S
C371 C367 1.393 . S
C371 C370 1.391 1_556 S
H372 C380 0.950 . S
H373 C385 0.950 . S
H374 C382 0.950 . S
H375 C384 0.950 . S
H376 C386 0.950 . S
H377 C388 0.950 1_554 S
H378 C390 0.950 1_554 S
H379 C391 0.950 . S
C380 H372 0.950 . S
C380 C381 1.386 . S
C380 C382 1.391 . S
C381 C380 1.386 . S
C381 C385 1.393 . S
C382 H374 0.950 . S
C382 C380 1.391 . S
C382 C383 1.400 . S
C383 C382 1.400 . S
C383 C384 1.398 . S
C383 C389 1.491 . S
C384 H375 0.950 . S
C384 C383 1.398 . S
C384 C385 1.391 . S
C385 H373 0.950 . S
C385 C381 1.393 . S
C385 C384 1.391 . S
C386 H376 0.950 . S
C386 C387 1.386 . S
C386 C388 1.391 . S
C387 C386 1.386 . S
C387 C391 1.393 . S
C388 H377 0.950 1_556 S
C388 C386 1.391 . S
C388 C389 1.400 1_556 S
C389 C383 1.491 . S
C389 C388 1.400 1_554 S
C389 C390 1.398 1_554 S
C390 H378 0.950 1_556 S
C390 C389 1.398 1_556 S
C390 C391 1.391 . S
C391 H379 0.950 . S
C391 C387 1.393 . S
C391 C390 1.391 . S
H392 C400 0.950 . S
H393 C405 0.950 . S
H394 C402 0.950 . S
H395 C404 0.950 . S
H396 C406 0.950 . S
H397 C408 0.950 . S
H398 C410 0.950 . S
H399 C411 0.950 . S
C400 H392 0.950 . S
C400 C401 1.386 . S
C400 C402 1.391 . S
C401 C400 1.386 . S
C401 C405 1.393 . S
C402 H394 0.950 . S
C402 C400 1.391 . S
C402 C403 1.400 . S
C403 C402 1.400 . S
C403 C404 1.398 . S
C403 C409 1.491 . S
C404 H395 0.950 . S
C404 C403 1.398 . S
C404 C405 1.391 . S
C405 H393 0.950 . S
C405 C401 1.393 . S
C405 C404 1.391 . S
C406 H396 0.950 . S
C406 C407 1.386 . S
C406 C408 1.391 . S
C407 C406 1.386 . S
C407 C411 1.393 . S
C408 H397 0.950 . S
C408 C406 1.391 . S
C408 C409 1.400 . S
C409 C403 1.491 . S
C409 C408 1.400 . S
C409 C410 1.398 . S
C410 H398 0.950 . S
C410 C409 1.398 . S
C410 C411 1.391 . S
C411 H399 0.950 . S
C411 C407 1.393 . S
C411 C410 1.391 . S
H412 C420 0.950 . S
H413 C425 0.950 . S
H414 C422 0.950 . S
H415 C424 0.950 . S
H416 C426 0.950 . S
H417 C428 0.950 . S
H418 C430 0.950 . S
H419 C431 0.950 . S
C420 H412 0.950 . S
C420 C421 1.386 . S
C420 C422 1.391 . S
C421 C420 1.386 . S
C421 C425 1.393 . S
C422 H414 0.950 . S
C422 C420 1.391 . S
C422 C423 1.400 . S
C423 C422 1.400 . S
C423 C424 1.398 . S
C423 C429 1.491 . S
C424 H415 0.950 . S
C424 C423 1.398 . S
C424 C425 1.391 . S
C425 H413 0.950 . S
C425 C421 1.393 . S
C425 C424 1.391 . S
C426 H416 0.950 . S
C426 C427 1.386 . S
C426 C428 1.391 . S
C427 C426 1.386 . S
C427 C431 1.393 . S
C428 H417 0.950 . S
C428 C426 1.391 . S
C428 C429 1.400 . S
C429 C423 1.491 . S
C429 C428 1.400 . S
C429 C430 1.398 . S
C430 H418 0.950 . S
C430 C429 1.398 . S
C430 C431 1.391 . S
C431 H419 0.950 . S
C431 C427 1.393 . S
C431 C430 1.391 . S
H432 C440 0.950 . S
H433 C445 0.950 . S
H434 C442 0.950 . S
H435 C444 0.950 . S
H436 C446 0.950 . S
H437 C448 0.950 . S
H438 C450 0.950 . S
H439 C451 0.950 . S
C440 H432 0.950 . S
C440 C441 1.386 . S
C440 C442 1.391 . S
C441 C440 1.386 . S
C441 C445 1.393 . S
C442 H434 0.950 . S
C442 C440 1.391 . S
C442 C443 1.400 . S
C443 C442 1.400 . S
C443 C444 1.398 . S
C443 C449 1.491 . S
C444 H435 0.950 . S
C444 C443 1.398 . S
C444 C445 1.391 . S
C445 H433 0.950 . S
C445 C441 1.393 . S
C445 C444 1.391 . S
C446 H436 0.950 . S
C446 C447 1.386 . S
C446 C448 1.391 . S
C447 C446 1.386 . S
C447 C451 1.393 . S
C448 H437 0.950 . S
C448 C446 1.391 . S
C448 C449 1.400 . S
C449 C443 1.491 . S
C449 C448 1.400 . S
C449 C450 1.398 . S
C450 H438 0.950 . S
C450 C449 1.398 . S
C450 C451 1.391 . S
C451 H439 0.950 . S
C451 C447 1.393 . S
C451 C450 1.391 . S
H452 C460 0.950 . S
H453 C465 0.950 . S
H454 C462 0.950 . S
H455 C464 0.950 . S
H456 C466 0.950 . S
H457 C468 0.950 . S
H458 C470 0.950 . S
H459 C471 0.950 . S
C460 H452 0.950 . S
C460 C461 1.386 . S
C460 C462 1.391 . S
C461 C460 1.386 . S
C461 C465 1.393 . S
C462 H454 0.950 . S
C462 C460 1.391 . S
C462 C463 1.400 . S
C463 C462 1.400 . S
C463 C464 1.398 . S
C463 C469 1.491 . S
C464 H455 0.950 . S
C464 C463 1.398 . S
C464 C465 1.391 . S
C465 H453 0.950 . S
C465 C461 1.393 . S
C465 C464 1.391 . S
C466 H456 0.950 . S
C466 C467 1.386 . S
C466 C468 1.391 . S
C467 C466 1.386 . S
C467 C471 1.393 . S
C468 H457 0.950 . S
C468 C466 1.391 . S
C468 C469 1.400 . S
C469 C463 1.491 . S
C469 C468 1.400 . S
C469 C470 1.398 . S
C470 H458 0.950 . S
C470 C469 1.398 . S
C470 C471 1.391 . S
C471 H459 0.950 . S
C471 C467 1.393 . S
C471 C470 1.391 . S
H472 C480 0.950 . S
H473 C485 0.950 . S
H474 C482 0.950 . S
H475 C484 0.950 . S
H476 C486 0.950 . S
H477 C488 0.950 . S
H478 C490 0.950 . S
H479 C491 0.950 . S
C480 H472 0.950 . S
C480 C481 1.386 . S
C480 C482 1.391 . S
C481 C480 1.386 . S
C481 C485 1.393 . S
C482 H474 0.950 . S
C482 C480 1.391 . S
C482 C483 1.400 . S
C483 C482 1.400 . S
C483 C484 1.398 . S
C483 C489 1.491 . S
C484 H475 0.950 . S
C484 C483 1.398 . S
C484 C485 1.391 . S
C485 H473 0.950 . S
C485 C481 1.393 . S
C485 C484 1.391 . S
C486 H476 0.950 . S
C486 C487 1.386 . S
C486 C488 1.391 . S
C487 C486 1.386 . S
C487 C491 1.393 . S
C488 H477 0.950 . S
C488 C486 1.391 . S
C488 C489 1.400 . S
C489 C483 1.491 . S
C489 C488 1.400 . S
C489 C490 1.398 . S
C490 H478 0.950 . S
C490 C489 1.398 . S
C490 C491 1.391 . S
C491 H479 0.950 . S
C491 C487 1.393 . S
C491 C490 1.391 . S
H492 C500 0.950 . S
H493 C505 0.950 . S
H494 C502 0.950 . S
H495 C504 0.950 . S
H496 C506 0.950 . S
H497 C508 0.950 . S
H498 C510 0.950 . S
H499 C511 0.950 . S
C500 H492 0.950 . S
C500 C501 1.386 . S
C500 C502 1.391 . S
C501 C500 1.386 . S
C501 C505 1.393 . S
C502 H494 0.950 . S
C502 C500 1.391 . S
C502 C503 1.400 . S
C503 C502 1.400 . S
C503 C504 1.398 . S
C503 C509 1.491 . S
C504 H495 0.950 . S
C504 C503 1.398 . S
C504 C505 1.391 . S
C505 H493 0.950 . S
C505 C501 1.393 . S
C505 C504 1.391 . S
C506 H496 0.950 . S
C506 C507 1.386 . S
C506 C508 1.391 . S
C507 C506 1.386 . S
C507 C511 1.393 . S
C508 H497 0.950 . S
C508 C506 1.391 . S
C508 C509 1.400 . S
C509 C503 1.491 . S
C509 C508 1.400 . S
C509 C510 1.398 . S
C510 H498 0.950 . S
C510 C509 1.398 . S
C510 C511 1.391 . S
C511 H499 0.950 . S
C511 C507 1.393 . S
C511 C510 1.391 . S
H512 C520 0.950 . S
H513 C525 0.950 . S
H514 C522 0.950 . S
H515 C524 0.950 . S
H516 C526 0.950 . S
H517 C528 0.950 . S
H518 C530 0.950 . S
H519 C531 0.950 . S
C520 H512 0.950 . S
C520 C521 1.386 . S
C520 C522 1.391 . S
C521 C520 1.386 . S
C521 C525 1.393 . S
C522 H514 0.950 . S
C522 C520 1.391 . S
C522 C523 1.400 . S
C523 C522 1.400 . S
C523 C524 1.398 . S
C523 C529 1.491 . S
C524 H515 0.950 . S
C524 C523 1.398 . S
C524 C525 1.391 . S
C525 H513 0.950 . S
C525 C521 1.393 . S
C525 C524 1.391 . S
C526 H516 0.950 . S
C526 C527 1.386 . S
C526 C528 1.391 . S
C527 C526 1.386 . S
C527 C531 1.393 . S
C528 H517 0.950 . S
C528 C526 1.391 . S
C528 C529 1.400 1_545 S
C529 C523 1.491 . S
C529 C528 1.400 1_565 S
C529 C530 1.398 . S
C530 H518 0.950 . S
C530 C529 1.398 . S
C530 C531 1.391 1_565 S
C531 H519 0.950 . S
C531 C527 1.393 . S
C531 C530 1.391 1_545 S
H532 C540 0.950 . S
H533 C545 0.950 . S
H534 C542 0.950 . S
H535 C544 0.950 . S
H536 C546 0.950 . S
H537 C548 0.950 . S
H538 C550 0.950 . S
H539 C551 0.950 . S
C540 H532 0.950 . S
C540 C541 1.386 . S
C540 C542 1.391 . S
C541 C540 1.386 . S
C541 C545 1.393 . S
C542 H534 0.950 . S
C542 C540 1.391 . S
C542 C543 1.400 . S
C543 C542 1.400 . S
C543 C544 1.398 . S
C543 C549 1.491 . S
C544 H535 0.950 . S
C544 C543 1.398 . S
C544 C545 1.391 . S
C545 H533 0.950 . S
C545 C541 1.393 . S
C545 C544 1.391 . S
C546 H536 0.950 . S
C546 C547 1.386 . S
C546 C548 1.391 . S
C547 C546 1.386 . S
C547 C551 1.393 . S
C548 H537 0.950 . S
C548 C546 1.391 . S
C548 C549 1.400 . S
C549 C543 1.491 . S
C549 C548 1.400 . S
C549 C550 1.398 . S
C550 H538 0.950 . S
C550 C549 1.398 . S
C550 C551 1.391 . S
C551 H539 0.950 . S
C551 C547 1.393 . S
C551 C550 1.391 . S
H552 C560 0.950 . S
H553 C565 0.950 . S
H554 C562 0.950 . S
H555 C564 0.950 . S
H556 C566 0.950 . S
H557 C568 0.950 . S
H558 C570 0.950 . S
H559 C571 0.950 . S
C560 H552 0.950 . S
C560 C561 1.386 . S
C560 C562 1.391 1_554 S
C561 C560 1.386 . S
C561 C565 1.393 . S
C562 H554 0.950 . S
C562 C560 1.391 1_556 S
C562 C563 1.400 . S
C563 C562 1.400 . S
C563 C564 1.398 1_556 S
C563 C569 1.491 . S
C564 H555 0.950 . S
C564 C563 1.398 1_554 S
C564 C565 1.391 . S
C565 H553 0.950 . S
C565 C561 1.393 . S
C565 C564 1.391 . S
C566 H556 0.950 . S
C566 C567 1.386 . S
C566 C568 1.391 . S
C567 C566 1.386 . S
C567 C571 1.393 . S
C568 H557 0.950 . S
C568 C566 1.391 . S
C568 C569 1.400 . S
C569 C563 1.491 . S
C569 C568 1.400 . S
C569 C570 1.398 . S
C570 H558 0.950 . S
C570 C569 1.398 . S
C570 C571 1.391 . S
C571 H559 0.950 . S
C571 C567 1.393 . S
C571 C570 1.391 . S
H572 C580 0.950 . S
H573 C585 0.950 . S
H574 C582 0.950 . S
H575 C584 0.950 1_556 S
H576 C586 0.950 . S
H577 C588 0.950 . S
H578 C590 0.950 . S
H579 C591 0.950 . S
C580 H572 0.950 . S
C580 C581 1.386 . S
C580 C582 1.391 1_554 S
C581 C580 1.386 . S
C581 C585 1.393 . S
C582 H574 0.950 . S
C582 C580 1.391 1_556 S
C582 C583 1.400 . S
C583 C582 1.400 . S
C583 C584 1.398 1_556 S
C583 C589 1.491 . S
C584 H575 0.950 1_554 S
C584 C583 1.398 1_554 S
C584 C585 1.391 . S
C585 H573 0.950 . S
C585 C581 1.393 . S
C585 C584 1.391 . S
C586 H576 0.950 . S
C586 C587 1.386 . S
C586 C588 1.391 . S
C587 C586 1.386 . S
C587 C591 1.393 . S
C588 H577 0.950 . S
C588 C586 1.391 . S
C588 C589 1.400 . S
C589 C583 1.491 . S
C589 C588 1.400 . S
C589 C590 1.398 . S
C590 H578 0.950 . S
C590 C589 1.398 . S
C590 C591 1.391 . S
C591 H579 0.950 . S
C591 C587 1.393 . S
C591 C590 1.391 . S
H592 C600 0.950 . S
H593 C605 0.950 . S
H594 C602 0.950 . S
H595 C604 0.950 . S
H596 C606 0.950 . S
H597 C608 0.950 . S
H598 C610 0.950 . S
H599 C611 0.950 . S
C600 H592 0.950 . S
C600 C601 1.386 . S
C600 C602 1.391 . S
C601 C600 1.386 . S
C601 C605 1.393 . S
C602 H594 0.950 . S
C602 C600 1.391 . S
C602 C603 1.400 . S
C603 C602 1.400 . S
C603 C604 1.398 . S
C603 C609 1.491 . S
C604 H595 0.950 . S
C604 C603 1.398 . S
C604 C605 1.391 . S
C605 H593 0.950 . S
C605 C601 1.393 . S
C605 C604 1.391 . S
C606 H596 0.950 . S
C606 C607 1.386 . S
C606 C608 1.391 . S
C607 C606 1.386 . S
C607 C611 1.393 . S
C608 H597 0.950 . S
C608 C606 1.391 . S
C608 C609 1.400 . S
C609 C603 1.491 . S
C609 C608 1.400 . S
C609 C610 1.398 . S
C610 H598 0.950 . S
C610 C609 1.398 . S
C610 C611 1.391 . S
C611 H599 0.950 . S
C611 C607 1.393 . S
C611 C610 1.391 . S
H612 C620 0.950 . S
H613 C625 0.950 . S
H614 C622 0.950 . S
H615 C624 0.950 . S
H616 C626 0.950 . S
H617 C628 0.950 . S
H618 C630 0.950 . S
H619 C631 0.950 . S
C620 H612 0.950 . S
C620 C621 1.386 . S
C620 C622 1.391 . S
C621 C620 1.386 . S
C621 C625 1.393 . S
C622 H614 0.950 . S
C622 C620 1.391 . S
C622 C623 1.400 . S
C623 C622 1.400 . S
C623 C624 1.398 . S
C623 C629 1.491 . S
C624 H615 0.950 . S
C624 C623 1.398 . S
C624 C625 1.391 . S
C625 H613 0.950 . S
C625 C621 1.393 . S
C625 C624 1.391 . S
C626 H616 0.950 . S
C626 C627 1.386 . S
C626 C628 1.391 . S
C627 C626 1.386 . S
C627 C631 1.393 . S
C628 H617 0.950 . S
C628 C626 1.391 . S
C628 C629 1.400 . S
C629 C623 1.491 . S
C629 C628 1.400 . S
C629 C630 1.398 . S
C630 H618 0.950 . S
C630 C629 1.398 . S
C630 C631 1.391 . S
C631 H619 0.950 . S
C631 C627 1.393 . S
C631 C630 1.391 . S
H632 C640 0.950 . S
H633 C645 0.950 . S
H634 C642 0.950 . S
H635 C644 0.950 . S
H636 C646 0.950 . S
H637 C648 0.950 . S
H638 C650 0.950 . S
H639 C651 0.950 . S
C640 H632 0.950 . S
C640 C641 1.386 . S
C640 C642 1.391 . S
C641 C640 1.386 . S
C641 C645 1.393 . S
C642 H634 0.950 . S
C642 C640 1.391 . S
C642 C643 1.400 1_455 S
C643 C642 1.400 1_655 S
C643 C644 1.398 . S
C643 C649 1.491 . S
C644 H635 0.950 . S
C644 C643 1.398 . S
C644 C645 1.391 1_655 S
C645 H633 0.950 . S
C645 C641 1.393 . S
C645 C644 1.391 1_455 S
C646 H636 0.950 . S
C646 C647 1.386 . S
C646 C648 1.391 . S
C647 C646 1.386 . S
C647 C651 1.393 . S
C648 H637 0.950 . S
C648 C646 1.391 . S
C648 C649 1.400 . S
C649 C643 1.491 . S
C649 C648 1.400 . S
C649 C650 1.398 . S
C650 H638 0.950 . S
C650 C649 1.398 . S
C650 C651 1.391 . S
C651 H639 0.950 . S
C651 C647 1.393 . S
C651 C650 1.391 . S
H652 C660 0.950 . S
H653 C665 0.950 . S
H654 C662 0.950 . S
H655 C664 0.950 . S
H656 C666 0.950 . S
H657 C668 0.950 . S
H658 C670 0.950 . S
H659 C671 0.950 . S
C660 H652 0.950 . S
C660 C661 1.386 . S
C660 C662 1.391 1_655 S
C661 C660 1.386 . S
C661 C665 1.393 . S
C662 H654 0.950 . S
C662 C660 1.391 1_455 S
C662 C663 1.400 . S
C663 C662 1.400 . S
C663 C664 1.398 1_455 S
C663 C669 1.491 . S
C664 H655 0.950 . S
C664 C663 1.398 1_655 S
C664 C665 1.391 . S
C665 H653 0.950 . S
C665 C661 1.393 . S
C665 C664 1.391 . S
C666 H656 0.950 . S
C666 C667 1.386 . S
C666 C668 1.391 . S
C667 C666 1.386 . S
C667 C671 1.393 . S
C668 H657 0.950 . S
C668 C666 1.391 . S
C668 C669 1.400 . S
C669 C663 1.491 . S
C669 C668 1.400 . S
C669 C670 1.398 . S
C670 H658 0.950 . S
C670 C669 1.398 . S
C670 C671 1.391 . S
C671 H659 0.950 . S
C671 C667 1.393 . S
C671 C670 1.391 . S
H672 C680 0.950 . S
H673 C685 0.950 . S
H674 C682 0.950 . S
H675 C684 0.950 . S
H676 C686 0.950 . S
H677 C688 0.950 . S
H678 C690 0.950 . S
H679 C691 0.950 . S
C680 H672 0.950 . S
C680 C681 1.386 . S
C680 C682 1.391 1_455 S
C681 C680 1.386 . S
C681 C685 1.393 . S
C682 H674 0.950 . S
C682 C680 1.391 1_655 S
C682 C683 1.400 . S
C683 C682 1.400 . S
C683 C684 1.398 1_655 S
C683 C689 1.491 . S
C684 H675 0.950 . S
C684 C683 1.398 1_455 S
C684 C685 1.391 . S
C685 H673 0.950 . S
C685 C681 1.393 . S
C685 C684 1.391 . S
C686 H676 0.950 . S
C686 C687 1.386 . S
C686 C688 1.391 . S
C687 C686 1.386 . S
C687 C691 1.393 . S
C688 H677 0.950 . S
C688 C686 1.391 . S
C688 C689 1.400 . S
C689 C683 1.491 . S
C689 C688 1.400 . S
C689 C690 1.398 . S
C690 H678 0.950 . S
C690 C689 1.398 . S
C690 C691 1.391 . S
C691 H679 0.950 . S
C691 C687 1.393 . S
C691 C690 1.391 . S
H692 C700 0.950 . S
H693 C705 0.950 . S
H694 C702 0.950 . S
H695 C704 0.950 . S
H696 C706 0.950 . S
H697 C708 0.950 . S
H698 C710 0.950 . S
H699 C711 0.950 . S
C700 H692 0.950 . S
C700 C701 1.386 . S
C700 C702 1.391 . S
C701 C700 1.386 . S
C701 C705 1.393 . S
C702 H694 0.950 . S
C702 C700 1.391 . S
C702 C703 1.400 . S
C703 C702 1.400 . S
C703 C704 1.398 . S
C703 C709 1.491 . S
C704 H695 0.950 . S
C704 C703 1.398 . S
C704 C705 1.391 . S
C705 H693 0.950 . S
C705 C701 1.393 . S
C705 C704 1.391 . S
C706 H696 0.950 . S
C706 C707 1.386 . S
C706 C708 1.391 . S
C707 C706 1.386 . S
C707 C711 1.393 . S
C708 H697 0.950 . S
C708 C706 1.391 . S
C708 C709 1.400 1_655 S
C709 C703 1.491 . S
C709 C708 1.400 1_455 S
C709 C710 1.398 . S
C710 H698 0.950 . S
C710 C709 1.398 . S
C710 C711 1.391 1_455 S
C711 H699 0.950 . S
C711 C707 1.393 . S
C711 C710 1.391 1_655 S
H712 C720 0.950 . S
H713 C725 0.950 . S
H714 C722 0.950 . S
H715 C724 0.950 . S
H716 C726 0.950 . S
H717 C728 0.950 . S
H718 C730 0.950 . S
H719 C731 0.950 . S
C720 H712 0.950 . S
C720 C721 1.386 . S
C720 C722 1.391 . S
C721 C720 1.386 . S
C721 C725 1.393 . S
C722 H714 0.950 . S
C722 C720 1.391 . S
C722 C723 1.400 1_545 S
C723 C722 1.400 1_565 S
C723 C724 1.398 . S
C723 C729 1.491 . S
C724 H715 0.950 . S
C724 C723 1.398 . S
C724 C725 1.391 1_565 S
C725 H713 0.950 . S
C725 C721 1.393 . S
C725 C724 1.391 1_545 S
C726 H716 0.950 . S
C726 C727 1.386 . S
C726 C728 1.391 . S
C727 C726 1.386 . S
C727 C731 1.393 . S
C728 H717 0.950 . S
C728 C726 1.391 . S
C728 C729 1.400 . S
C729 C723 1.491 . S
C729 C728 1.400 . S
C729 C730 1.398 . S
C730 H718 0.950 . S
C730 C729 1.398 . S
C730 C731 1.391 . S
C731 H719 0.950 . S
C731 C727 1.393 . S
C731 C730 1.391 . S
H732 C740 0.950 . S
H733 C745 0.950 . S
H734 C742 0.950 . S
H735 C744 0.950 . S
H736 C746 0.950 . S
H737 C748 0.950 1_545 S
H738 C750 0.950 1_545 S
H739 C751 0.950 . S
C740 H732 0.950 . S
C740 C741 1.386 . S
C740 C742 1.391 . S
C741 C740 1.386 . S
C741 C745 1.393 . S
C742 H734 0.950 . S
C742 C740 1.391 . S
C742 C743 1.400 . S
C743 C742 1.400 . S
C743 C744 1.398 . S
C743 C749 1.491 . S
C744 H735 0.950 . S
C744 C743 1.398 . S
C744 C745 1.391 . S
C745 H733 0.950 . S
C745 C741 1.393 . S
C745 C744 1.391 . S
C746 H736 0.950 . S
C746 C747 1.386 . S
C746 C748 1.391 . S
C747 C746 1.386 . S
C747 C751 1.393 . S
C748 H737 0.950 1_565 S
C748 C746 1.391 . S
C748 C749 1.400 1_565 S
C749 C743 1.491 . S
C749 C748 1.400 1_545 S
C749 C750 1.398 1_545 S
C750 H738 0.950 1_565 S
C750 C749 1.398 1_565 S
C750 C751 1.391 . S
C751 H739 0.950 . S
C751 C747 1.393 . S
C751 C750 1.391 . S
H752 C760 0.950 . S
H753 C765 0.950 . S
H754 C762 0.950 . S
H755 C764 0.950 . S
H756 C766 0.950 . S
H757 C768 0.950 . S
H758 C770 0.950 . S
H759 C771 0.950 . S
C760 H752 0.950 . S
C760 C761 1.386 . S
C760 C762 1.391 . S
C761 C760 1.386 . S
C761 C765 1.393 . S
C762 H754 0.950 . S
C762 C760 1.391 . S
C762 C763 1.400 . S
C763 C762 1.400 . S
C763 C764 1.398 . S
C763 C769 1.491 . S
C764 H755 0.950 . S
C764 C763 1.398 . S
C764 C765 1.391 . S
C765 H753 0.950 . S
C765 C761 1.393 . S
C765 C764 1.391 . S
C766 H756 0.950 . S
C766 C767 1.386 . S
C766 C768 1.391 . S
C767 C766 1.386 . S
C767 C771 1.393 . S
C768 H757 0.950 . S
C768 C766 1.391 . S
C768 C769 1.400 . S
C769 C763 1.491 . S
C769 C768 1.400 . S
C769 C770 1.398 . S
C770 H758 0.950 . S
C770 C769 1.398 . S
C770 C771 1.391 . S
C771 H759 0.950 . S
C771 C767 1.393 . S
C771 C770 1.391 . S
H772 C780 0.950 . S
H773 C785 0.950 . S
H774 C782 0.950 . S
H775 C784 0.950 . S
H776 C786 0.950 . S
H777 C788 0.950 . S
H778 C790 0.950 . S
H779 C791 0.950 . S
C780 H772 0.950 . S
C780 C781 1.386 . S
C780 C782 1.391 . S
C781 C780 1.386 . S
C781 C785 1.393 . S
C782 H774 0.950 . S
C782 C780 1.391 . S
C782 C783 1.400 . S
C783 C782 1.400 . S
C783 C784 1.398 . S
C783 C789 1.491 . S
C784 H775 0.950 . S
C784 C783 1.398 . S
C784 C785 1.391 . S
C785 H773 0.950 . S
C785 C781 1.393 . S
C785 C784 1.391 . S
C786 H776 0.950 . S
C786 C787 1.386 . S
C786 C788 1.391 . S
C787 C786 1.386 . S
C787 C791 1.393 . S
C788 H777 0.950 . S
C788 C786 1.391 . S
C788 C789 1.400 1_565 S
C789 C783 1.491 . S
C789 C788 1.400 1_545 S
C789 C790 1.398 . S
C790 H778 0.950 . S
C790 C789 1.398 . S
C790 C791 1.391 1_545 S
C791 H779 0.950 . S
C791 C787 1.393 . S
C791 C790 1.391 1_565 S
H792 C800 0.950 . S
H793 C805 0.950 . S
H794 C802 0.950 . S
H795 C804 0.950 . S
H796 C806 0.950 . S
H797 C808 0.950 . S
H798 C810 0.950 . S
H799 C811 0.950 . S
C800 H792 0.950 . S
C800 C801 1.386 1_455 S
C800 C802 1.391 . S
C801 C800 1.386 1_655 S
C801 C805 1.393 . S
C802 H794 0.950 . S
C802 C800 1.391 . S
C802 C803 1.400 1_455 S
C803 C802 1.400 1_655 S
C803 C804 1.398 . S
C803 C809 1.491 1_655 S
C804 H795 0.950 . S
C804 C803 1.398 . S
C804 C805 1.391 . S
C805 H793 0.950 . S
C805 C801 1.393 . S
C805 C804 1.391 . S
C806 H796 0.950 . S
C806 C807 1.386 1_655 S
C806 C808 1.391 . S
C807 C806 1.386 1_455 S
C807 C811 1.393 . S
C808 H797 0.950 . S
C808 C806 1.391 . S
C808 C809 1.400 1_655 S
C809 C803 1.491 1_455 S
C809 C808 1.400 1_455 S
C809 C810 1.398 . S
C810 H798 0.950 . S
C810 C809 1.398 . S
C810 C811 1.391 . S
C811 H799 0.950 . S
C811 C807 1.393 . S
C811 C810 1.391 . S
H812 C820 0.945 1_655 S
H813 C825 0.950 . S
H814 C822 0.950 . S
H815 C824 0.950 . S
H816 C826 0.950 1_455 S
H817 C828 0.950 . S
H818 C830 0.950 . S
H819 C831 0.950 . S
C820 H812 0.945 1_455 S
C820 C821 1.386 . S
C820 C822 1.391 1_455 S
C821 C820 1.386 . S
C821 C825 1.393 . S
C822 H814 0.950 . S
C822 C820 1.391 1_655 S
C822 C823 1.400 1_655 S
C823 C822 1.400 1_455 S
C823 C824 1.398 . S
C823 C829 1.491 1_455 S
C824 H815 0.950 . S
C824 C823 1.398 . S
C824 C825 1.391 . S
C825 H813 0.950 . S
C825 C821 1.393 . S
C825 C824 1.391 . S
C826 H816 0.950 1_655 S
C826 C827 1.386 . S
C826 C828 1.391 1_655 S
C827 C826 1.386 . S
C827 C831 1.393 . S
C828 H817 0.950 . S
C828 C826 1.391 1_455 S
C828 C829 1.400 1_455 S
C829 C823 1.491 1_655 S
C829 C828 1.400 1_655 S
C829 C830 1.398 . S
C830 H818 0.950 . S
C830 C829 1.398 . S
C830 C831 1.391 . S
C831 H819 0.950 . S
C831 C827 1.393 . S
C831 C830 1.391 . S
H832 C840 0.950 . S
H833 C845 0.950 . S
H834 C842 0.950 . S
H835 C844 0.950 . S
H836 C846 0.950 . S
H837 C848 0.950 . S
H838 C850 0.950 . S
H839 C851 0.949 1_565 S
C840 H832 0.950 . S
C840 C841 1.386 . S
C840 C842 1.391 . S
C841 C840 1.386 . S
C841 C845 1.393 1_565 S
C842 H834 0.950 . S
C842 C840 1.391 . S
C842 C843 1.400 . S
C843 C842 1.400 . S
C843 C844 1.398 1_565 S
C843 C849 1.491 1_565 S
C844 H835 0.950 . S
C844 C843 1.398 1_545 S
C844 C845 1.391 . S
C845 H833 0.950 . S
C845 C841 1.393 1_545 S
C845 C844 1.391 . S
C846 H836 0.950 . S
C846 C847 1.386 . S
C846 C848 1.391 . S
C847 C846 1.386 . S
C847 C851 1.393 . S
C848 H837 0.950 . S
C848 C846 1.391 . S
C848 C849 1.400 . S
C849 C843 1.491 1_545 S
C849 C848 1.400 . S
C849 C850 1.398 1_545 S
C850 H838 0.950 . S
C850 C849 1.398 1_565 S
C850 C851 1.390 1_565 S
C851 H839 0.949 1_545 S
C851 C847 1.393 . S
C851 C850 1.390 1_545 S
H852 C860 0.950 . S
H853 C865 0.950 . S
H854 C862 0.950 . S
H855 C864 0.950 . S
H856 C866 0.950 . S
H857 C868 0.950 . S
H858 C870 0.950 . S
H859 C871 0.950 . S
C860 H852 0.950 . S
C860 C861 1.386 . S
C860 C862 1.391 . S
C861 C860 1.386 . S
C861 C865 1.393 . S
C862 H854 0.950 . S
C862 C860 1.391 . S
C862 C863 1.400 . S
C863 C862 1.400 . S
C863 C864 1.398 . S
C863 C869 1.491 . S
C864 H855 0.950 . S
C864 C863 1.398 . S
C864 C865 1.391 . S
C865 H853 0.950 . S
C865 C861 1.393 . S
C865 C864 1.391 . S
C866 H856 0.950 . S
C866 C867 1.386 . S
C866 C868 1.391 . S
C867 C866 1.386 . S
C867 C871 1.393 . S
C868 H857 0.950 . S
C868 C866 1.391 . S
C868 C869 1.400 . S
C869 C863 1.491 . S
C869 C868 1.400 . S
C869 C870 1.398 . S
C870 H858 0.950 . S
C870 C869 1.398 . S
C870 C871 1.391 . S
C871 H859 0.950 . S
C871 C867 1.393 . S
C871 C870 1.391 . S
H872 C880 0.950 . S
H873 C885 0.950 . S
H874 C882 0.950 . S
H875 C884 0.950 . S
H876 C886 0.950 . S
H877 C888 0.950 . S
H878 C890 0.950 . S
H879 C891 0.950 . S
C880 H872 0.950 . S
C880 C881 1.386 1_556 S
C880 C882 1.391 . S
C881 C880 1.386 1_554 S
C881 C885 1.393 . S
C882 H874 0.950 . S
C882 C880 1.391 . S
C882 C883 1.400 1_556 S
C883 C882 1.400 1_554 S
C883 C884 1.398 . S
C883 C889 1.491 1_554 S
C884 H875 0.950 . S
C884 C883 1.398 . S
C884 C885 1.391 . S
C885 H873 0.950 . S
C885 C881 1.393 . S
C885 C884 1.391 . S
C886 H876 0.950 . S
C886 C887 1.386 1_554 S
C886 C888 1.391 . S
C887 C886 1.386 1_556 S
C887 C891 1.393 . S
C888 H877 0.950 . S
C888 C886 1.391 . S
C888 C889 1.400 1_554 S
C889 C883 1.491 1_556 S
C889 C888 1.400 1_556 S
C889 C890 1.398 . S
C890 H878 0.950 . S
C890 C889 1.398 . S
C890 C891 1.391 . S
C891 H879 0.950 . S
C891 C887 1.393 . S
C891 C890 1.391 . S
H892 C900 0.950 . S
H893 C905 0.950 . S
H894 C902 0.950 . S
H895 C904 0.950 . S
H896 C906 0.950 . S
H897 C908 0.950 . S
H898 C910 0.950 . S
H899 C911 0.950 . S
C900 H892 0.950 . S
C900 C901 1.386 . S
C900 C902 1.391 . S
C901 C900 1.386 . S
C901 C905 1.393 . S
C902 H894 0.950 . S
C902 C900 1.391 . S
C902 C903 1.400 . S
C903 C902 1.400 . S
C903 C904 1.398 . S
C903 C909 1.491 . S
C904 H895 0.950 . S
C904 C903 1.398 . S
C904 C905 1.391 . S
C905 H893 0.950 . S
C905 C901 1.393 . S
C905 C904 1.391 . S
C906 H896 0.950 . S
C906 C907 1.386 . S
C906 C908 1.391 . S
C907 C906 1.386 . S
C907 C911 1.393 . S
C908 H897 0.950 . S
C908 C906 1.391 . S
C908 C909 1.400 . S
C909 C903 1.491 . S
C909 C908 1.400 . S
C909 C910 1.398 . S
C910 H898 0.950 . S
C910 C909 1.398 . S
C910 C911 1.391 . S
C911 H899 0.950 . S
C911 C907 1.393 . S
C911 C910 1.391 . S
H912 C920 0.950 . S
H913 C925 0.950 . S
H914 C922 0.950 . S
H915 C924 0.950 . S
H916 C926 0.950 . S
H917 C928 0.950 . S
H918 C930 0.950 . S
H919 C931 0.950 . S
C920 H912 0.950 . S
C920 C921 1.386 . S
C920 C922 1.391 . S
C921 C920 1.386 . S
C921 C925 1.393 . S
C922 H914 0.950 . S
C922 C920 1.391 . S
C922 C923 1.400 . S
C923 C922 1.400 . S
C923 C924 1.398 . S
C923 C929 1.491 . S
C924 H915 0.950 . S
C924 C923 1.398 . S
C924 C925 1.391 . S
C925 H913 0.950 . S
C925 C921 1.393 . S
C925 C924 1.391 . S
C926 H916 0.950 . S
C926 C927 1.386 . S
C926 C928 1.391 . S
C927 C926 1.386 . S
C927 C931 1.393 . S
C928 H917 0.950 . S
C928 C926 1.391 . S
C928 C929 1.400 . S
C929 C923 1.491 . S
C929 C928 1.400 . S
C929 C930 1.398 . S
C930 H918 0.950 . S
C930 C929 1.398 . S
C930 C931 1.391 . S
C931 H919 0.950 . S
C931 C927 1.393 . S
C931 C930 1.391 . S
H932 C940 0.950 . S
H933 C945 0.950 . S
H934 C942 0.950 . S
H935 C944 0.950 . S
H936 C946 0.950 . S
H937 C948 0.950 . S
H938 C950 0.950 . S
H939 C951 0.950 . S
C940 H932 0.950 . S
C940 C941 1.386 . S
C940 C942 1.391 . S
C941 C940 1.386 . S
C941 C945 1.393 . S
C942 H934 0.950 . S
C942 C940 1.391 . S
C942 C943 1.400 . S
C943 C942 1.400 . S
C943 C944 1.398 . S
C943 C949 1.491 . S
C944 H935 0.950 . S
C944 C943 1.398 . S
C944 C945 1.391 . S
C945 H933 0.950 . S
C945 C941 1.393 . S
C945 C944 1.391 . S
C946 H936 0.950 . S
C946 C947 1.386 . S
C946 C948 1.391 . S
C947 C946 1.386 . S
C947 C951 1.393 . S
C948 H937 0.950 . S
C948 C946 1.391 . S
C948 C949 1.400 . S
C949 C943 1.491 . S
C949 C948 1.400 . S
C949 C950 1.398 . S
C950 H938 0.950 . S
C950 C949 1.398 . S
C950 C951 1.391 . S
C951 H939 0.950 . S
C951 C947 1.393 . S
C951 C950 1.391 . S
H952 C960 0.950 . S
H953 C965 0.950 . S
H954 C962 0.950 . S
H955 C964 0.950 . S
H956 C966 0.950 . S
H957 C968 0.950 . S
H958 C970 0.950 . S
H959 C971 0.950 . S
C960 H952 0.950 . S
C960 C961 1.386 . S
C960 C962 1.391 . S
C961 C960 1.386 . S
C961 C965 1.393 . S
C962 H954 0.950 . S
C962 C960 1.391 . S
C962 C963 1.400 . S
C963 C962 1.400 . S
C963 C964 1.398 . S
C963 C969 1.491 . S
C964 H955 0.950 . S
C964 C963 1.398 . S
C964 C965 1.391 . S
C965 H953 0.950 . S
C965 C961 1.393 . S
C965 C964 1.391 . S
C966 H956 0.950 . S
C966 C967 1.386 . S
C966 C968 1.391 . S
C967 C966 1.386 . S
C967 C971 1.393 . S
C968 H957 0.950 . S
C968 C966 1.391 . S
C968 C969 1.400 . S
C969 C963 1.491 . S
C969 C968 1.400 . S
C969 C970 1.398 . S
C970 H958 0.950 . S
C970 C969 1.398 . S
C970 C971 1.391 . S
C971 H959 0.950 . S
C971 C967 1.393 . S
C971 C970 1.391 . S
H972 C980 0.950 . S
H973 C985 0.950 . S
H974 C982 0.950 . S
H975 C984 0.950 . S
H976 C986 0.950 . S
H977 C988 0.950 . S
H978 C990 0.950 . S
H979 C991 0.950 . S
C980 H972 0.950 . S
C980 C981 1.386 . S
C980 C982 1.391 . S
C981 C980 1.386 . S
C981 C985 1.393 . S
C982 H974 0.950 . S
C982 C980 1.391 . S
C982 C983 1.400 . S
C983 C982 1.400 . S
C983 C984 1.398 . S
C983 C989 1.491 . S
C984 H975 0.950 . S
C984 C983 1.398 . S
C984 C985 1.391 . S
C985 H973 0.950 . S
C985 C981 1.393 . S
C985 C984 1.391 . S
C986 H976 0.950 . S
C986 C987 1.386 . S
C986 C988 1.391 . S
C987 C986 1.386 . S
C987 C991 1.393 . S
C988 H977 0.950 . S
C988 C986 1.391 . S
C988 C989 1.400 . S
C989 C983 1.491 . S
C989 C988 1.400 . S
C989 C990 1.398 . S
C990 H978 0.950 . S
C990 C989 1.398 . S
C990 C991 1.391 . S
C991 H979 0.950 . S
C991 C987 1.393 . S
C991 C990 1.391 . S
H992 C1000 0.950 . S
H993 C1005 0.950 . S
H994 C1002 0.950 . S
H995 C1004 0.950 . S
H996 C1006 0.950 . S
H997 C1008 0.950 . S
H998 C1010 0.950 . S
H999 C1011 0.950 . S
C1000 H992 0.950 . S
C1000 C1001 1.386 . S
C1000 C1002 1.391 . S
C1001 C1000 1.386 . S
C1001 C1005 1.393 1_545 S
C1002 H994 0.950 . S
C1002 C1000 1.391 . S
C1002 C1003 1.400 . S
C1003 C1002 1.400 . S
C1003 C1004 1.398 1_545 S
C1003 C1009 1.491 1_545 S
C1004 H995 0.950 . S
C1004 C1003 1.398 1_565 S
C1004 C1005 1.391 . S
C1005 H993 0.950 . S
C1005 C1001 1.393 1_565 S
C1005 C1004 1.391 . S
C1006 H996 0.950 . S
C1006 C1007 1.386 . S
C1006 C1008 1.391 . S
C1007 C1006 1.386 . S
C1007 C1011 1.393 1_565 S
C1008 H997 0.950 . S
C1008 C1006 1.391 . S
C1008 C1009 1.400 . S
C1009 C1003 1.491 1_565 S
C1009 C1008 1.400 . S
C1009 C1010 1.398 1_565 S
C1010 H998 0.950 . S
C1010 C1009 1.398 1_545 S
C1010 C1011 1.391 . S
C1011 H999 0.950 . S
C1011 C1007 1.393 1_545 S
C1011 C1010 1.391 . S
H1012 C1020 0.950 . S
H1013 C1025 0.950 . S
H1014 C1022 0.950 . S
H1015 C1024 0.950 . S
H1016 C1026 0.950 . S
H1017 C1028 0.950 . S
H1018 C1030 0.950 . S
H1019 C1031 0.950 . S
C1020 H1012 0.950 . S
C1020 C1021 1.386 . S
C1020 C1022 1.391 . S
C1021 C1020 1.386 . S
C1021 C1025 1.393 1_556 S
C1022 H1014 0.950 . S
C1022 C1020 1.391 . S
C1022 C1023 1.425 . S
C1023 C1022 1.425 . S
C1023 C1024 1.379 1_556 S
C1023 C1029 1.487 1_556 S
C1024 H1015 0.950 . S
C1024 C1023 1.379 1_554 S
C1024 C1025 1.391 . S
C1025 H1013 0.950 . S
C1025 C1021 1.393 1_554 S
C1025 C1024 1.391 . S
C1026 H1016 0.950 . S
C1026 C1027 1.386 . S
C1026 C1028 1.391 . S
C1027 C1026 1.386 . S
C1027 C1031 1.393 1_554 S
C1028 H1017 0.950 . S
C1028 C1026 1.391 . S
C1028 C1029 1.400 . S
C1029 C1023 1.487 1_554 S
C1029 C1028 1.400 . S
C1029 C1030 1.398 1_554 S
C1030 H1018 0.950 . S
C1030 C1029 1.398 1_556 S
C1030 C1031 1.391 . S
C1031 H1019 0.950 . S
C1031 C1027 1.393 1_556 S
C1031 C1030 1.391 . S
H1032 C1040 0.950 . S
H1033 C1045 0.950 . S
H1034 C1042 0.950 1_545 S
H1035 C1044 0.950 . S
H1036 C1046 0.968 . S
H1037 C1048 0.950 1_565 S
H1038 C1050 0.950 . S
H1039 C1051 0.950 . S
C1040 H1032 0.950 . S
C1040 C1041 1.386 . S
C1040 C1042 1.391 . S
C1041 C1040 1.386 . S
C1041 C1045 1.393 1_455 S
C1042 H1034 0.950 1_565 S
C1042 C1040 1.391 . S
C1042 C1043 1.400 . S
C1043 C1042 1.400 . S
C1043 C1044 1.398 1_455 S
C1043 C1049 1.491 1_565 S
C1044 H1035 0.950 . S
C1044 C1043 1.398 1_655 S
C1044 C1045 1.391 . S
C1045 H1033 0.950 . S
C1045 C1041 1.393 1_655 S
C1045 C1044 1.391 . S
C1046 H1036 0.968 . S
C1046 C1047 1.368 1_655 S
C1046 C1048 1.392 . S
C1047 C1046 1.368 1_455 S
C1047 C1051 1.393 . S
C1048 H1037 0.950 1_545 S
C1048 C1046 1.392 . S
C1048 C1049 1.400 1_655 S
C1049 C1043 1.491 1_545 S
C1049 C1048 1.400 1_455 S
C1049 C1050 1.398 . S
C1050 H1038 0.950 . S
C1050 C1049 1.398 . S
C1050 C1051 1.391 . S
C1051 H1039 0.950 . S
C1051 C1047 1.393 . S
C1051 C1050 1.391 . S
H1052 C1060 0.950 . S
H1053 C1065 0.950 . S
H1054 C1062 0.950 . S
H1055 C1064 0.950 . S
H1056 C1066 0.950 . S
H1057 C1068 0.950 . S
H1058 C1070 0.950 . S
H1059 C1071 0.950 . S
C1060 H1052 0.950 . S
C1060 C1061 1.386 . S
C1060 C1062 1.391 . S
C1061 C1060 1.386 . S
C1061 C1065 1.393 1_655 S
C1062 H1054 0.950 . S
C1062 C1060 1.391 . S
C1062 C1063 1.400 . S
C1063 C1062 1.400 . S
C1063 C1064 1.398 1_655 S
C1063 C1069 1.491 . S
C1064 H1055 0.950 . S
C1064 C1063 1.398 1_455 S
C1064 C1065 1.391 . S
C1065 H1053 0.950 . S
C1065 C1061 1.393 1_455 S
C1065 C1064 1.391 . S
C1066 H1056 0.950 . S
C1066 C1067 1.386 1_455 S
C1066 C1068 1.391 . S
C1067 C1066 1.386 1_655 S
C1067 C1071 1.393 . S
C1068 H1057 0.950 . S
C1068 C1066 1.391 . S
C1068 C1069 1.400 1_455 S
C1069 C1063 1.491 . S
C1069 C1068 1.400 1_655 S
C1069 C1070 1.398 . S
C1070 H1058 0.950 . S
C1070 C1069 1.398 . S
C1070 C1071 1.391 . S
C1071 H1059 0.950 . S
C1071 C1067 1.393 . S
C1071 C1070 1.391 . S
H1072 C1080 0.937 1_565 S
H1073 C1085 0.950 . S
H1074 C1082 0.948 1_565 S
H1075 C1084 0.950 1_554 S
H1076 C1086 0.950 . S
H1077 C1088 0.950 . S
H1078 C1090 0.950 1_556 S
H1079 C1091 0.950 . S
C1080 H1072 0.937 1_545 S
C1080 C1081 1.399 . S
C1080 C1082 1.391 . S
C1081 C1080 1.399 . S
C1081 C1085 1.393 . S
C1082 H1074 0.948 1_545 S
C1082 C1080 1.391 . S
C1082 C1083 1.402 . S
C1083 C1082 1.402 . S
C1083 C1084 1.398 . S
C1083 C1089 1.491 1_556 S
C1084 H1075 0.950 1_556 S
C1084 C1083 1.398 . S
C1084 C1085 1.391 . S
C1085 H1073 0.950 . S
C1085 C1081 1.393 . S
C1085 C1084 1.391 . S
C1086 H1076 0.950 . S
C1086 C1087 1.386 . S
C1086 C1088 1.391 . S
C1087 C1086 1.386 . S
C1087 C1091 1.393 1_545 S
C1088 H1077 0.950 . S
C1088 C1086 1.391 . S
C1088 C1089 1.400 . S
C1089 C1083 1.491 1_554 S
C1089 C1088 1.400 . S
C1089 C1090 1.398 1_545 S
C1090 H1078 0.950 1_554 S
C1090 C1089 1.398 1_565 S
C1090 C1091 1.391 . S
C1091 H1079 0.950 . S
C1091 C1087 1.393 1_565 S
C1091 C1090 1.391 . S
H1092 C1100 0.950 . S
H1093 C1105 0.950 . S
H1094 C1102 0.950 1_556 S
H1095 C1104 0.950 . S
H1096 C1106 0.950 . S
H1097 C1108 0.950 . S
H1098 C1110 0.950 . S
H1099 C1111 0.950 . S
C1100 H1092 0.950 . S
C1100 C1101 1.386 . S
C1100 C1102 1.391 . S
C1101 C1100 1.386 . S
C1101 C1105 1.393 . S
C1102 H1094 0.950 1_554 S
C1102 C1100 1.391 . S
C1102 C1103 1.400 . S
C1103 C1102 1.400 . S
C1103 C1104 1.398 . S
C1103 C1109 1.491 1_554 S
C1104 H1095 0.950 . S
C1104 C1103 1.398 . S
C1104 C1105 1.391 . S
C1105 H1093 0.950 . S
C1105 C1101 1.393 . S
C1105 C1104 1.391 . S
C1106 H1096 0.950 . S
C1106 C1107 1.386 . S
C1106 C1108 1.391 . S
C1107 C1106 1.386 . S
C1107 C1111 1.393 . S
C1108 H1097 0.950 . S
C1108 C1106 1.391 . S
C1108 C1109 1.400 . S
C1109 C1103 1.491 1_556 S
C1109 C1108 1.400 . S
C1109 C1110 1.398 . S
C1110 H1098 0.950 . S
C1110 C1109 1.398 . S
C1110 C1111 1.391 . S
C1111 H1099 0.950 . S
C1111 C1107 1.393 . S
C1111 C1110 1.391 . S
H1112 C1120 0.950 . S
H1113 C1125 0.950 . S
H1114 C1122 0.950 . S
H1115 C1124 0.950 . S
H1116 C1126 0.950 . S
H1117 C1128 0.950 . S
H1118 C1130 0.950 . S
H1119 C1131 0.950 . S
C1120 H1112 0.950 . S
C1120 C1121 1.386 1_545 S
C1120 C1122 1.391 . S
C1121 C1120 1.386 1_565 S
C1121 C1125 1.393 . S
C1122 H1114 0.950 . S
C1122 C1120 1.391 . S
C1122 C1123 1.400 1_545 S
C1123 C1122 1.400 1_565 S
C1123 C1124 1.398 . S
C1123 C1129 1.491 . S
C1124 H1115 0.950 . S
C1124 C1123 1.398 . S
C1124 C1125 1.391 . S
C1125 H1113 0.950 . S
C1125 C1121 1.393 . S
C1125 C1124 1.391 . S
C1126 H1116 0.950 . S
C1126 C1127 1.386 . S
C1126 C1128 1.391 . S
C1127 C1126 1.386 . S
C1127 C1131 1.393 1_565 S
C1128 H1117 0.950 . S
C1128 C1126 1.391 . S
C1128 C1129 1.400 . S
C1129 C1123 1.491 . S
C1129 C1128 1.400 . S
C1129 C1130 1.398 1_565 S
C1130 H1118 0.950 . S
C1130 C1129 1.398 1_545 S
C1130 C1131 1.391 . S
C1131 H1119 0.950 . S
C1131 C1127 1.393 1_545 S
C1131 C1130 1.391 . S
H1132 C1140 0.950 . S
H1133 C1145 0.950 . S
H1134 C1142 0.950 . S
H1135 C1144 0.950 . S
H1136 C1146 0.950 . S
H1137 C1148 0.950 . S
H1138 C1150 0.950 . S
H1139 C1151 0.950 . S
C1140 H1132 0.950 . S
C1140 C1141 1.386 . S
C1140 C1142 1.391 . S
C1141 C1140 1.386 . S
C1141 C1145 1.393 . S
C1142 H1134 0.950 . S
C1142 C1140 1.391 . S
C1142 C1143 1.400 . S
C1143 C1142 1.400 . S
C1143 C1144 1.398 . S
C1143 C1149 1.491 . S
C1144 H1135 0.950 . S
C1144 C1143 1.398 . S
C1144 C1145 1.391 . S
C1145 H1133 0.950 . S
C1145 C1141 1.393 . S
C1145 C1144 1.391 . S
C1146 H1136 0.950 . S
C1146 C1147 1.386 . S
C1146 C1148 1.391 . S
C1147 C1146 1.386 . S
C1147 C1151 1.393 . S
C1148 H1137 0.950 . S
C1148 C1146 1.391 . S
C1148 C1149 1.400 . S
C1149 C1143 1.491 . S
C1149 C1148 1.400 . S
C1149 C1150 1.398 . S
C1150 H1138 0.950 . S
C1150 C1149 1.398 . S
C1150 C1151 1.391 . S
C1151 H1139 0.950 . S
C1151 C1147 1.393 . S
C1151 C1150 1.391 . S
H1152 C1160 0.950 . S
H1153 C1165 0.950 . S
H1154 C1162 0.950 . S
H1155 C1164 0.950 1_655 S
H1156 C1166 0.950 . S
H1157 C1168 0.950 . S
H1158 C1170 0.950 1_455 S
H1159 C1171 0.950 . S
C1160 H1152 0.950 . S
C1160 C1161 1.386 . S
C1160 C1162 1.391 . S
C1161 C1160 1.386 . S
C1161 C1165 1.393 1_554 S
C1162 H1154 0.950 . S
C1162 C1160 1.391 . S
C1162 C1163 1.400 . S
C1163 C1162 1.400 . S
C1163 C1164 1.398 1_554 S
C1163 C1169 1.491 1_455 S
C1164 H1155 0.950 1_455 S
C1164 C1163 1.398 1_556 S
C1164 C1165 1.391 . S
C1165 H1153 0.950 . S
C1165 C1161 1.393 1_556 S
C1165 C1164 1.391 . S
C1166 H1156 0.950 . S
C1166 C1167 1.386 1_556 S
C1166 C1168 1.391 . S
C1167 C1166 1.386 1_554 S
C1167 C1171 1.393 . S
C1168 H1157 0.950 . S
C1168 C1166 1.391 . S
C1168 C1169 1.400 1_556 S
C1169 C1163 1.491 1_655 S
C1169 C1168 1.400 1_554 S
C1169 C1170 1.398 . S
C1170 H1158 0.950 1_655 S
C1170 C1169 1.398 . S
C1170 C1171 1.391 . S
C1171 H1159 0.950 . S
C1171 C1167 1.393 . S
C1171 C1170 1.391 . S
H1172 C1180 0.950 . S
H1173 C1185 0.950 . S
H1174 C1182 0.950 . S
H1175 C1184 0.950 . S
H1176 C1186 0.950 . S
H1177 C1188 0.950 . S
H1178 C1190 0.950 . S
H1179 C1191 0.950 . S
C1180 H1172 0.950 . S
C1180 C1181 1.386 . S
C1180 C1182 1.391 . S
C1181 C1180 1.386 . S
C1181 C1185 1.393 . S
C1182 H1174 0.950 . S
C1182 C1180 1.391 . S
C1182 C1183 1.400 . S
C1183 C1182 1.400 . S
C1183 C1184 1.398 . S
C1183 C1189 1.491 1_455 S
C1184 H1175 0.950 . S
C1184 C1183 1.398 . S
C1184 C1185 1.391 . S
C1185 H1173 0.950 . S
C1185 C1181 1.393 . S
C1185 C1184 1.391 . S
C1186 H1176 0.950 . S
C1186 C1187 1.386 . S
C1186 C1188 1.391 . S
C1187 C1186 1.386 . S
C1187 C1191 1.393 . S
C1188 H1177 0.950 . S
C1188 C1186 1.391 . S
C1188 C1189 1.400 . S
C1189 C1183 1.491 1_655 S
C1189 C1188 1.400 . S
C1189 C1190 1.398 . S
C1190 H1178 0.950 . S
C1190 C1189 1.398 . S
C1190 C1191 1.391 . S
C1191 H1179 0.950 . S
C1191 C1187 1.393 . S
C1191 C1190 1.391 . S
H1192 C1200 0.950 . S
H1193 C1205 0.950 . S
H1194 C1202 0.950 . S
H1195 C1204 0.950 . S
H1196 C1206 0.950 . S
H1197 C1208 0.950 . S
H1198 C1210 0.950 . S
H1199 C1211 0.950 . S
C1200 H1192 0.950 . S
C1200 C1201 1.386 . S
C1200 C1202 1.391 . S
C1201 C1200 1.386 . S
C1201 C1205 1.393 . S
C1202 H1194 0.950 . S
C1202 C1200 1.391 . S
C1202 C1203 1.400 . S
C1203 C1202 1.400 . S
C1203 C1204 1.398 . S
C1203 C1209 1.491 . S
C1204 H1195 0.950 . S
C1204 C1203 1.398 . S
C1204 C1205 1.391 . S
C1205 H1193 0.950 . S
C1205 C1201 1.393 . S
C1205 C1204 1.391 . S
C1206 H1196 0.950 . S
C1206 C1207 1.386 . S
C1206 C1208 1.391 . S
C1207 C1206 1.386 . S
C1207 C1211 1.393 . S
C1208 H1197 0.950 . S
C1208 C1206 1.391 . S
C1208 C1209 1.400 . S
C1209 C1203 1.491 . S
C1209 C1208 1.400 . S
C1209 C1210 1.398 . S
C1210 H1198 0.950 . S
C1210 C1209 1.398 . S
C1210 C1211 1.391 . S
C1211 H1199 0.950 . S
C1211 C1207 1.393 . S
C1211 C1210 1.391 . S
H1212 C1220 0.950 . S
H1213 C1225 0.950 . S
H1214 C1222 0.950 . S
H1215 C1224 0.950 . S
H1216 C1226 0.950 . S
H1217 C1228 0.950 . S
H1218 C1230 0.950 . S
H1219 C1231 0.950 . S
C1220 H1212 0.950 . S
C1220 C1221 1.386 . S
C1220 C1222 1.391 . S
C1221 C1220 1.386 . S
C1221 C1225 1.393 . S
C1222 H1214 0.950 . S
C1222 C1220 1.391 . S
C1222 C1223 1.400 . S
C1223 C1222 1.400 . S
C1223 C1224 1.398 . S
C1223 C1229 1.491 . S
C1224 H1215 0.950 . S
C1224 C1223 1.398 . S
C1224 C1225 1.391 . S
C1225 H1213 0.950 . S
C1225 C1221 1.393 . S
C1225 C1224 1.391 . S
C1226 H1216 0.950 . S
C1226 C1227 1.386 . S
C1226 C1228 1.391 . S
C1227 C1226 1.386 . S
C1227 C1231 1.393 . S
C1228 H1217 0.950 . S
C1228 C1226 1.391 . S
C1228 C1229 1.400 . S
C1229 C1223 1.491 . S
C1229 C1228 1.400 . S
C1229 C1230 1.398 . S
C1230 H1218 0.950 . S
C1230 C1229 1.398 . S
C1230 C1231 1.391 . S
C1231 H1219 0.950 . S
C1231 C1227 1.393 . S
C1231 C1230 1.391 . S
H1232 C1240 0.950 . S
H1233 C1245 0.950 . S
H1234 C1242 0.950 1_545 S
H1235 C1244 0.950 . S
H1236 C1246 0.950 . S
H1237 C1248 0.934 1_565 S
H1238 C1250 0.950 . S
H1239 C1251 0.950 . S
C1240 H1232 0.950 . S
C1240 C1241 1.386 . S
C1240 C1242 1.391 . S
C1241 C1240 1.386 . S
C1241 C1245 1.393 . S
C1242 H1234 0.950 1_565 S
C1242 C1240 1.391 . S
C1242 C1243 1.400 . S
C1243 C1242 1.400 . S
C1243 C1244 1.398 . S
C1243 C1249 1.491 1_565 S
C1244 H1235 0.950 . S
C1244 C1243 1.398 . S
C1244 C1245 1.391 . S
C1245 H1233 0.950 . S
C1245 C1241 1.393 . S
C1245 C1244 1.391 . S
C1246 H1236 0.950 . S
C1246 C1247 1.386 . S
C1246 C1248 1.402 . S
C1247 C1246 1.386 . S
C1247 C1251 1.393 . S
C1248 H1237 0.934 1_545 S
C1248 C1246 1.402 . S
C1248 C1249 1.405 . S
C1249 C1243 1.491 1_545 S
C1249 C1248 1.405 . S
C1249 C1250 1.398 . S
C1250 H1238 0.950 . S
C1250 C1249 1.398 . S
C1250 C1251 1.391 . S
C1251 H1239 0.950 . S
C1251 C1247 1.393 . S
C1251 C1250 1.391 . S
H1252 C1260 0.950 1_554 S
H1253 C1265 0.950 . S
H1254 C1262 0.950 1_554 S
H1255 C1264 0.950 . S
H1256 C1266 0.950 . S
H1257 C1268 0.950 . S
H1258 C1270 0.950 1_554 S
H1259 C1271 0.950 1_554 S
C1260 H1252 0.950 1_556 S
C1260 C1261 1.386 . S
C1260 C1262 1.391 . S
C1261 C1260 1.386 . S
C1261 C1265 1.393 . S
C1262 H1254 0.950 1_556 S
C1262 C1260 1.391 . S
C1262 C1263 1.400 . S
C1263 C1262 1.400 . S
C1263 C1264 1.398 . S
C1263 C1269 1.491 . S
C1264 H1255 0.950 . S
C1264 C1263 1.398 . S
C1264 C1265 1.391 . S
C1265 H1253 0.950 . S
C1265 C1261 1.393 . S
C1265 C1264 1.391 . S
C1266 H1256 0.950 . S
C1266 C1267 1.386 . S
C1266 C1268 1.391 . S
C1267 C1266 1.386 . S
C1267 C1271 1.393 . S
C1268 H1257 0.950 . S
C1268 C1266 1.391 . S
C1268 C1269 1.400 . S
C1269 C1263 1.491 . S
C1269 C1268 1.400 . S
C1269 C1270 1.398 . S
C1270 H1258 0.950 1_556 S
C1270 C1269 1.398 . S
C1270 C1271 1.391 . S
C1271 H1259 0.950 1_556 S
C1271 C1267 1.393 . S
C1271 C1270 1.391 . S
C321 C226 0.723 . S
C327 C8 0.655 . S
C341 C21 0.713 . S
C347 C213 0.768 . S
C361 C34 0.738 . S
C367 C252 0.701 . S
C381 C47 0.810 . S
C387 C239 0.794 . S
C401 C60 0.641 . S
C407 C278 0.673 . S
C421 C73 0.748 . S
C427 C291 0.761 . S
C441 C265 0.754 . S
C447 C86 0.746 . S
C461 C148 0.762 . S
C467 C99 0.796 . S
C481 C112 0.663 . S
C487 C44 0.727 . S
C501 C18 0.729 . S
C507 C125 0.683 . S
C521 C138 0.827 . S
C527 C5 0.797 . S
C541 C151 0.781 . S
C547 C187 0.799 . S
C561 C70 0.804 . S
C567 C164 0.865 . S
C581 C57 0.814 . S
C587 C177 0.821 . S
C601 C190 0.728 . S
C607 C96 0.739 . S
C621 C203 0.713 . S
C627 C83 0.767 . S
C641 C122 0.830 . S
C647 C216 0.812 . S
C661 C135 0.740 . S
C667 C229 0.795 . S
C681 C109 0.769 . S
C687 C242 0.819 . S
C701 C255 0.725 . S
C707 C304 0.703 . S
C721 C200 0.817 . S
C727 C268 0.806 . S
C741 C281 0.742 . S
C747 C174 0.755 . S
C761 C161 0.770 . S
C767 C294 0.706 . S
C781 C307 0.774 . S
C787 C31 0.728 . S
C801 C0 1.512 . S
C807 C13 1.531 . S
C821 C39 1.473 . S
C827 C26 1.471 . S
C841 C52 1.527 . S
C847 C78 1.525 . S
C861 C65 1.634 . S
C867 C91 1.645 . S
C881 C286 1.518 . S
C887 C104 1.528 . S
C901 C117 1.618 . S
C907 C143 1.632 . S
C921 C260 1.567 . S
C927 C130 1.572 . S
C941 C169 1.576 . S
C947 C156 1.568 . S
C961 C182 1.630 . S
C967 C195 1.640 . S
C981 C234 1.574 . S
C987 C208 1.568 . S
C1001 C221 1.477 . S
C1007 C247 1.462 . S
C1021 C299 1.459 . S
C1027 C273 1.455 . S
C1041 C36 1.225 . S
C1047 C10 1.221 . S
C1061 C23 1.319 . S
C1067 C49 1.317 . S
C1081 C257 1.231 . S
C1087 C62 1.236 . S
C1101 C75 1.304 . S
C1107 C244 1.302 . S
C1121 C88 1.341 . S
C1127 C231 1.341 . S
C1141 C218 1.385 . S
C1147 C101 1.388 . S
C1161 C114 1.217 . S
C1167 C309 1.219 . S
C1181 C127 1.304 . S
C1187 C140 1.304 . S
C1201 C270 1.387 . S
C1207 C153 1.392 . S
C1221 C166 1.388 . S
C1227 C192 1.385 . S
C1241 C179 1.297 . S
C1247 C205 1.290 . S
C1261 C296 1.337 . S
C1267 C283 1.333 . S
