# Generated by pormake.
# Topology gme, (4)-cn, num edge types: 1
# Building blocks:
#     Node 0, Type 0, BuildingBlock: UXUYUI_clean_sbu_0, # of connection points: 4
#     Node 1, Type 0, BuildingBlock: UXUYUI_clean_sbu_0, # of connection points: 4
#     Node 2, Type 0, BuildingBlock: UXUYUI_clean_sbu_0, # of connection points: 4
#     Node 3, Type 0, BuildingBlock: UXUYUI_clean_sbu_0, # of connection points: 4
#     Node 4, Type 0, BuildingBlock: UXUYUI_clean_sbu_0, # of connection points: 4
#     Node 5, Type 0, BuildingBlock: UXUYUI_clean_sbu_0, # of connection points: 4
#     Node 6, Type 0, BuildingBlock: UXUYUI_clean_sbu_0, # of connection points: 4
#     Node 7, Type 0, BuildingBlock: UXUYUI_clean_sbu_0, # of connection points: 4
#     Node 8, Type 0, BuildingBlock: UXUYUI_clean_sbu_0, # of connection points: 4
#     Node 9, Type 0, BuildingBlock: UXUYUI_clean_sbu_0, # of connection points: 4
#     Node 10, Type 0, BuildingBlock: UXUYUI_clean_sbu_0, # of connection points: 4
#     Node 11, Type 0, BuildingBlock: UXUYUI_clean_sbu_0, # of connection points: 4
#     Node 12, Type 0, BuildingBlock: UXUYUI_clean_sbu_0, # of connection points: 4
#     Node 13, Type 0, BuildingBlock: UXUYUI_clean_sbu_0, # of connection points: 4
#     Node 14, Type 0, BuildingBlock: UXUYUI_clean_sbu_0, # of connection points: 4
#     Node 15, Type 0, BuildingBlock: UXUYUI_clean_sbu_0, # of connection points: 4
#     Node 16, Type 0, BuildingBlock: UXUYUI_clean_sbu_0, # of connection points: 4
#     Node 17, Type 0, BuildingBlock: UXUYUI_clean_sbu_0, # of connection points: 4
#     Node 18, Type 0, BuildingBlock: UXUYUI_clean_sbu_0, # of connection points: 4
#     Node 19, Type 0, BuildingBlock: UXUYUI_clean_sbu_0, # of connection points: 4
#     Node 20, Type 0, BuildingBlock: UXUYUI_clean_sbu_0, # of connection points: 4
#     Node 21, Type 0, BuildingBlock: UXUYUI_clean_sbu_0, # of connection points: 4
#     Node 22, Type 0, BuildingBlock: UXUYUI_clean_sbu_0, # of connection points: 4
#     Node 23, Type 0, BuildingBlock: UXUYUI_clean_sbu_0, # of connection points: 4
#     Edge 24, Type (0, 0), BuildingBlock: OJICUG_clean_linker_0, # of connection points: 2
#     Edge 25, Type (0, 0), BuildingBlock: OJICUG_clean_linker_0, # of connection points: 2
#     Edge 26, Type (0, 0), BuildingBlock: OJICUG_clean_linker_0, # of connection points: 2
#     Edge 27, Type (0, 0), BuildingBlock: OJICUG_clean_linker_0, # of connection points: 2
#     Edge 28, Type (0, 0), BuildingBlock: OJICUG_clean_linker_0, # of connection points: 2
#     Edge 29, Type (0, 0), BuildingBlock: OJICUG_clean_linker_0, # of connection points: 2
#     Edge 30, Type (0, 0), BuildingBlock: OJICUG_clean_linker_0, # of connection points: 2
#     Edge 31, Type (0, 0), BuildingBlock: OJICUG_clean_linker_0, # of connection points: 2
#     Edge 32, Type (0, 0), BuildingBlock: OJICUG_clean_linker_0, # of connection points: 2
#     Edge 33, Type (0, 0), BuildingBlock: OJICUG_clean_linker_0, # of connection points: 2
#     Edge 34, Type (0, 0), BuildingBlock: OJICUG_clean_linker_0, # of connection points: 2
#     Edge 35, Type (0, 0), BuildingBlock: OJICUG_clean_linker_0, # of connection points: 2
#     Edge 36, Type (0, 0), BuildingBlock: OJICUG_clean_linker_0, # of connection points: 2
#     Edge 37, Type (0, 0), BuildingBlock: OJICUG_clean_linker_0, # of connection points: 2
#     Edge 38, Type (0, 0), BuildingBlock: OJICUG_clean_linker_0, # of connection points: 2
#     Edge 39, Type (0, 0), BuildingBlock: OJICUG_clean_linker_0, # of connection points: 2
#     Edge 40, Type (0, 0), BuildingBlock: OJICUG_clean_linker_0, # of connection points: 2
#     Edge 41, Type (0, 0), BuildingBlock: OJICUG_clean_linker_0, # of connection points: 2
#     Edge 42, Type (0, 0), BuildingBlock: OJICUG_clean_linker_0, # of connection points: 2
#     Edge 43, Type (0, 0), BuildingBlock: OJICUG_clean_linker_0, # of connection points: 2
#     Edge 44, Type (0, 0), BuildingBlock: OJICUG_clean_linker_0, # of connection points: 2
#     Edge 45, Type (0, 0), BuildingBlock: OJICUG_clean_linker_0, # of connection points: 2
#     Edge 46, Type (0, 0), BuildingBlock: OJICUG_clean_linker_0, # of connection points: 2
#     Edge 47, Type (0, 0), BuildingBlock: OJICUG_clean_linker_0, # of connection points: 2
#     Edge 48, Type (0, 0), BuildingBlock: OJICUG_clean_linker_0, # of connection points: 2
#     Edge 49, Type (0, 0), BuildingBlock: OJICUG_clean_linker_0, # of connection points: 2
#     Edge 50, Type (0, 0), BuildingBlock: OJICUG_clean_linker_0, # of connection points: 2
#     Edge 51, Type (0, 0), BuildingBlock: OJICUG_clean_linker_0, # of connection points: 2
#     Edge 52, Type (0, 0), BuildingBlock: OJICUG_clean_linker_0, # of connection points: 2
#     Edge 53, Type (0, 0), BuildingBlock: OJICUG_clean_linker_0, # of connection points: 2
#     Edge 54, Type (0, 0), BuildingBlock: OJICUG_clean_linker_0, # of connection points: 2
#     Edge 55, Type (0, 0), BuildingBlock: OJICUG_clean_linker_0, # of connection points: 2
#     Edge 56, Type (0, 0), BuildingBlock: OJICUG_clean_linker_0, # of connection points: 2
#     Edge 57, Type (0, 0), BuildingBlock: OJICUG_clean_linker_0, # of connection points: 2
#     Edge 58, Type (0, 0), BuildingBlock: OJICUG_clean_linker_0, # of connection points: 2
#     Edge 59, Type (0, 0), BuildingBlock: OJICUG_clean_linker_0, # of connection points: 2
#     Edge 60, Type (0, 0), BuildingBlock: OJICUG_clean_linker_0, # of connection points: 2
#     Edge 61, Type (0, 0), BuildingBlock: OJICUG_clean_linker_0, # of connection points: 2
#     Edge 62, Type (0, 0), BuildingBlock: OJICUG_clean_linker_0, # of connection points: 2
#     Edge 63, Type (0, 0), BuildingBlock: OJICUG_clean_linker_0, # of connection points: 2
#     Edge 64, Type (0, 0), BuildingBlock: OJICUG_clean_linker_0, # of connection points: 2
#     Edge 65, Type (0, 0), BuildingBlock: OJICUG_clean_linker_0, # of connection points: 2
#     Edge 66, Type (0, 0), BuildingBlock: OJICUG_clean_linker_0, # of connection points: 2
#     Edge 67, Type (0, 0), BuildingBlock: OJICUG_clean_linker_0, # of connection points: 2
#     Edge 68, Type (0, 0), BuildingBlock: OJICUG_clean_linker_0, # of connection points: 2
#     Edge 69, Type (0, 0), BuildingBlock: OJICUG_clean_linker_0, # of connection points: 2
#     Edge 70, Type (0, 0), BuildingBlock: OJICUG_clean_linker_0, # of connection points: 2
#     Edge 71, Type (0, 0), BuildingBlock: OJICUG_clean_linker_0, # of connection points: 2
# Relax obj value: 0.245
# Max RMSD: 0.175
# Mean RMSD: 0.174
data_MOF--net-gme--node1-UXUYUI_clean_sbu_0--edge1-OJICUG_clean_linker_0
_symmetry_space_group_name_H-M    P1
_symmetry_Int_Tables_number       1
_symmetry_cell_setting            triclinic
loop_
_symmetry_equiv_pos_as_xyz
'x, y, z'
_cell_length_a     78.377423
_cell_length_b     78.358136
_cell_length_c     55.838381
_cell_angle_alpha  90.016658
_cell_angle_beta   89.993285
_cell_angle_gamma 120.00715
loop_
_atom_site_label
_atom_site_type_symbol
_atom_site_fract_x
_atom_site_fract_y
_atom_site_fract_z
_atom_type_partial_charge
Li0 Li 0.43303 0.11931 0.07851 0.0
Li1 Li 0.42733 0.09602 0.11235 0.0
Li2 Li 0.4524 0.1036 0.07949 0.0
Li3 Li 0.41808 0.08482 0.07142 0.0
C4 C 0.45838 0.14046 0.11145 0.0
N5 N 0.47055 0.1788 0.12502 0.0
C6 C 0.44995 0.1442 0.13138 0.0
C7 C 0.47314 0.15624 0.09856 0.0
C8 C 0.45628 0.16368 0.13793 0.0
C9 C 0.47904 0.17551 0.10565 0.0
C10 C 0.38856 0.08869 0.08706 0.0
C11 C 0.35536 0.06253 0.09441 0.0
N12 N 0.34917 0.06821 0.07479 0.0
C13 C 0.38189 0.09436 0.06705 0.0
C14 C 0.37523 0.07272 0.10094 0.0
C15 C 0.36191 0.08378 0.06111 0.0
C16 C 0.44128 0.15402 0.05247 0.0
N17 N 0.43189 0.14233 0.07159 0.0
C18 C 0.42004 0.16369 0.08387 0.0
C19 C 0.42121 0.14668 0.08703 0.0
C20 C 0.42997 0.17631 0.06462 0.0
C21 C 0.44065 0.17131 0.04872 0.0
H22 H 0.44931 0.15001 0.04019 0.0
H23 H 0.41383 0.13703 0.10202 0.0
C24 C 0.43495 0.08682 0.15757 0.0
N25 N 0.42279 0.09144 0.14546 0.0
C26 C 0.43402 0.0854 0.18246 0.0
C27 C 0.40784 0.09324 0.18191 0.0
C28 C 0.40917 0.09435 0.15694 0.0
C29 C 0.42065 0.08908 0.19502 0.0
H30 H 0.44569 0.0847 0.14785 0.0
H31 H 0.39992 0.09831 0.14678 0.0
C32 C 0.45193 0.10943 0.03433 0.0
N33 N 0.48007 0.1154 0.00031 0.0
C34 C 0.44903 0.09417 0.01882 0.0
C35 C 0.46922 0.1277 0.03253 0.0
C36 C 0.46339 0.0975 0.00173 0.0
C37 C 0.48326 0.13043 0.01525 0.0
C38 C 0.42538 0.05801 0.09248 0.0
C39 C 0.42781 0.04962 0.07159 0.0
C40 C 0.41483 0.04587 0.1117 0.0
C41 C 0.41954 0.02918 0.07023 0.0
C42 C 0.40682 0.0255 0.10966 0.0
N43 N 0.40931 0.01765 0.08913 0.0
C44 C 0.49341 0.12137 0.0869 0.0
C45 C 0.4803 0.09391 0.06073 0.0
C46 C 0.51218 0.1236 0.08495 0.0
N47 N 0.47795 0.10669 0.07487 0.0
C48 C 0.49881 0.09567 0.0581 0.0
C49 C 0.51503 0.11054 0.07053 0.0
H50 H 0.4911 0.13108 0.09846 0.0
H51 H 0.46783 0.08223 0.05155 0.0
C52 C 0.39734 0.06812 0.02919 0.0
N53 N 0.39796 0.06403 0.05271 0.0
C54 C 0.38534 0.05315 0.01336 0.0
C55 C 0.37296 0.03049 0.04672 0.0
C56 C 0.38529 0.04594 0.06191 0.0
C57 C 0.37358 0.03389 0.02197 0.0
H58 H 0.40681 0.08287 0.02253 0.0
H59 H 0.38532 0.04326 0.08086 0.0
O60 O 0.45192 0.12148 0.1043 0.0
O61 O 0.40811 0.09859 0.09284 0.0
O62 O 0.43809 0.10646 0.05134 0.0
O63 O 0.43339 0.07798 0.09425 0.0
H64 H 0.43848 0.13222 0.14152 0.0
H65 H 0.47985 0.15367 0.08311 0.0
H66 H 0.44979 0.16677 0.15322 0.0
H67 H 0.49034 0.18785 0.09573 0.0
H68 H 0.34487 0.05005 0.10489 0.0
H69 H 0.39209 0.10668 0.0561 0.0
H70 H 0.38023 0.0681 0.1164 0.0
H71 H 0.35653 0.08792 0.0456 0.0
H72 H 0.41183 0.16717 0.09666 0.0
H73 H 0.44832 0.18059 0.03353 0.0
H74 H 0.44393 0.08179 0.19177 0.0
H75 H 0.39748 0.09643 0.19084 0.0
H76 H 0.43605 0.07977 0.0202 0.0
H77 H 0.47198 0.13956 0.04461 0.0
H78 H 0.46134 0.08579 0.9897 0.0
H79 H 0.49673 0.14447 0.01378 0.0
H80 H 0.43554 0.0587 0.05636 0.0
H81 H 0.41271 0.05208 0.12797 0.0
H82 H 0.42115 0.02248 0.05408 0.0
H83 H 0.39858 0.01593 0.12437 0.0
H84 H 0.52416 0.13504 0.09522 0.0
H85 H 0.50034 0.08541 0.04656 0.0
H86 H 0.38582 0.05643 0.99444 0.0
H87 H 0.36398 0.01585 0.05408 0.0
Li88 Li 0.30739 0.43285 0.57935 0.0
Li89 Li 0.32615 0.42955 0.61328 0.0
Li90 Li 0.34218 0.45221 0.57961 0.0
Li91 Li 0.32755 0.418 0.57223 0.0
C92 C 0.3124 0.45994 0.61029 0.0
N93 N 0.28689 0.47323 0.6225 0.0
C94 C 0.29889 0.45094 0.62891 0.0
C95 C 0.31306 0.47579 0.59799 0.0
C96 C 0.28609 0.45786 0.63479 0.0
C97 C 0.3 0.48226 0.6044 0.0
C98 C 0.29514 0.38887 0.59009 0.0
C99 C 0.29282 0.35727 0.59576 0.0
N100 N 0.27785 0.3492 0.57959 0.0
C101 C 0.27974 0.38028 0.57353 0.0
C102 C 0.30175 0.37731 0.60133 0.0
C103 C 0.27117 0.36018 0.56848 0.0
C104 C 0.28234 0.44394 0.5558 0.0
N105 N 0.28328 0.43187 0.57257 0.0
C106 C 0.24949 0.41913 0.58283 0.0
C107 C 0.26733 0.4195 0.58592 0.0
C108 C 0.24824 0.43179 0.56606 0.0
C109 C 0.26488 0.44424 0.55234 0.0
H110 H 0.29523 0.45361 0.54547 0.0
H111 H 0.2686 0.41024 0.59932 0.0
C112 C 0.33959 0.44311 0.65886 0.0
N113 N 0.32668 0.42665 0.64673 0.0
C114 C 0.34032 0.44295 0.68377 0.0
C115 C 0.31426 0.40886 0.68331 0.0
C116 C 0.3141 0.40968 0.6583 0.0
C117 C 0.3274 0.42573 0.69637 0.0
H118 H 0.34907 0.45651 0.64914 0.0
H119 H 0.30363 0.39695 0.64818 0.0
C120 C 0.3346 0.44861 0.53275 0.0
N121 N 0.35396 0.47167 0.49346 0.0
C122 C 0.34354 0.44222 0.51611 0.0
C123 C 0.33549 0.46672 0.52937 0.0
C124 C 0.35325 0.45409 0.49636 0.0
C125 C 0.34537 0.47817 0.50942 0.0
C126 C 0.36928 0.44309 0.59203 0.0
C127 C 0.3778 0.44198 0.57051 0.0
C128 C 0.38136 0.45467 0.61075 0.0
C129 C 0.39828 0.45254 0.56806 0.0
C130 C 0.40178 0.46508 0.60757 0.0
N131 N 0.40974 0.4638 0.58647 0.0
C132 C 0.36789 0.49131 0.5918 0.0
C133 C 0.37762 0.48214 0.55612 0.0
C134 C 0.3849 0.50979 0.59142 0.0
N135 N 0.36461 0.47787 0.57441 0.0
C136 C 0.39475 0.50052 0.55492 0.0
C137 C 0.39868 0.51448 0.57295 0.0
H138 H 0.35757 0.48748 0.60642 0.0
H139 H 0.37513 0.47111 0.54288 0.0
C140 C 0.31772 0.38981 0.53556 0.0
N141 N 0.32911 0.39796 0.55527 0.0
C142 C 0.32023 0.3765 0.52151 0.0
C143 C 0.34564 0.37981 0.54884 0.0
C144 C 0.34235 0.39271 0.56258 0.0
C145 C 0.33485 0.37186 0.52761 0.0
H146 H 0.30714 0.39416 0.53037 0.0
H147 H 0.35097 0.39923 0.57857 0.0
O148 O 0.32456 0.45295 0.60371 0.0
O149 O 0.30404 0.40861 0.59482 0.0
O150 O 0.32475 0.43703 0.55197 0.0
O151 O 0.34923 0.43308 0.59465 0.0
H152 H 0.29811 0.43856 0.63849 0.0
H153 H 0.3234 0.48286 0.58348 0.0
H154 H 0.27547 0.45096 0.64905 0.0
H155 H 0.30025 0.49443 0.59494 0.0
H156 H 0.29786 0.34816 0.60421 0.0
H157 H 0.2746 0.38908 0.56446 0.0
H158 H 0.31387 0.38381 0.61391 0.0
H159 H 0.25928 0.35334 0.55563 0.0
H160 H 0.23701 0.4095 0.59393 0.0
H161 H 0.2644 0.45414 0.53917 0.0
H162 H 0.35083 0.45623 0.69306 0.0
H163 H 0.30384 0.39538 0.69231 0.0
H164 H 0.3431 0.42832 0.51844 0.0
H165 H 0.32904 0.47211 0.5423 0.0
H166 H 0.36026 0.44935 0.48338 0.0
H167 H 0.34629 0.49228 0.50669 0.0
H168 H 0.36869 0.4334 0.55565 0.0
H169 H 0.37506 0.45571 0.62752 0.0
H170 H 0.40505 0.45191 0.55145 0.0
H171 H 0.41129 0.47418 0.62187 0.0
H172 H 0.38737 0.5202 0.60562 0.0
H173 H 0.4052 0.50348 0.5406 0.0
H174 H 0.31121 0.37042 0.50567 0.0
H175 H 0.35726 0.37699 0.55425 0.0
Li176 Li 0.89319 0.32687 0.11295 0.0
Li177 Li 0.87349 0.31042 0.07825 0.0
Li178 Li 0.90893 0.33292 0.07311 0.0
Li179 Li 0.88604 0.3452 0.08083 0.0
C180 C 0.90852 0.30249 0.10121 0.0
N181 N 0.93472 0.2922 0.12019 0.0
C182 C 0.90263 0.28268 0.1052 0.0
C183 C 0.9278 0.31701 0.10667 0.0
C184 C 0.91607 0.27778 0.11488 0.0
C185 C 0.94081 0.31154 0.11629 0.0
C186 C 0.84841 0.3119 0.10751 0.0
C187 C 0.81421 0.29886 0.09732 0.0
N188 N 0.80906 0.28465 0.11428 0.0
C189 C 0.84279 0.29727 0.12496 0.0
C190 C 0.83403 0.31282 0.09367 0.0
C191 C 0.82281 0.2836 0.12807 0.0
C192 C 0.89961 0.34203 0.15906 0.0
N193 N 0.89596 0.32573 0.14645 0.0
C194 C 0.89416 0.3085 0.1825 0.0
C195 C 0.89321 0.30911 0.15755 0.0
C196 C 0.89791 0.32515 0.19605 0.0
C197 C 0.90088 0.34215 0.18394 0.0
H198 H 0.90139 0.35491 0.14972 0.0
H199 H 0.88977 0.29616 0.14712 0.0
C200 C 0.83918 0.28496 0.05124 0.0
N201 N 0.85157 0.2861 0.06899 0.0
C202 C 0.82177 0.26727 0.04697 0.0
C203 C 0.83082 0.25212 0.0785 0.0
C204 C 0.84787 0.27013 0.08235 0.0
C205 C 0.81737 0.25067 0.06091 0.0
H206 H 0.84245 0.2979 0.04097 0.0
H207 H 0.85778 0.27164 0.09671 0.0
C208 C 0.92803 0.36889 0.10459 0.0
N209 N 0.96185 0.40239 0.11959 0.0
C210 C 0.93393 0.38705 0.09364 0.0
C211 C 0.9393 0.36787 0.12338 0.0
C212 C 0.95108 0.40378 0.1014 0.0
C213 C 0.95635 0.38494 0.13065 0.0
C214 C 0.88525 0.33944 0.03302 0.0
C215 C 0.90114 0.34925 0.0173 0.0
C216 C 0.86768 0.33941 0.02854 0.0
C217 C 0.89922 0.359 -0.00257 0.0
C218 C 0.86636 0.34935 0.00849 0.0
N219 N 0.88203 0.35886 0.99349 0.0
C220 C 0.93224 0.32269 0.04481 0.0
C221 C 0.94713 0.35665 0.05438 0.0
C222 C 0.94868 0.32612 0.03133 0.0
N223 N 0.93181 0.33791 0.05595 0.0
C224 C 0.96386 0.36071 0.04133 0.0
C225 C 0.96475 0.34536 0.02954 0.0
H226 H 0.91973 0.30794 0.04624 0.0
H227 H 0.94625 0.36854 0.0628 0.0
C228 C 0.86874 0.36796 0.09185 0.0
N229 N 0.88127 0.36654 0.07623 0.0
C230 C 0.86558 0.38395 0.09073 0.0
C231 C 0.888 0.39658 0.05715 0.0
C232 C 0.8908 0.3804 0.059 0.0
C233 C 0.87545 0.39863 0.07337 0.0
H234 H 0.86153 0.35687 0.10555 0.0
H235 H 0.90104 0.37922 0.04712 0.0
O236 O 0.89545 0.30749 0.09187 0.0
O237 O 0.86793 0.32499 0.10363 0.0
O238 O 0.91108 0.35237 0.09735 0.0
O239 O 0.88684 0.32976 0.05251 0.0
H240 H 0.88783 0.27118 0.10091 0.0
H241 H 0.93274 0.33231 0.10323 0.0
H242 H 0.91167 0.26252 0.11814 0.0
H243 H 0.95577 0.32268 0.12057 0.0
H244 H 0.80292 0.29928 0.08662 0.0
H245 H 0.85375 0.29633 0.13574 0.0
H246 H 0.83815 0.32404 0.08007 0.0
H247 H 0.81824 0.27209 0.14137 0.0
H248 H 0.89141 0.29496 0.19107 0.0
H249 H 0.90407 0.35542 0.19357 0.0
H250 H 0.81172 0.26664 0.03323 0.0
H251 H 0.82774 0.2397 0.08987 0.0
H252 H 0.92555 0.3882 0.07905 0.0
H253 H 0.93494 0.35411 0.13246 0.0
H254 H 0.95585 0.41788 0.09293 0.0
H255 H 0.96518 0.38431 0.14515 0.0
H256 H 0.9148 0.34933 0.02037 0.0
H257 H 0.85533 0.33215 0.04067 0.0
H258 H 0.91141 0.36667 0.98515 0.0
H259 H 0.85292 0.34959 0.00493 0.0
H260 H 0.94884 0.31392 0.02242 0.0
H261 H 0.97574 0.37583 0.0399 0.0
H262 H 0.85568 0.38492 0.10348 0.0
H263 H 0.89615 0.40774 0.04377 0.0
Li264 Li 0.55933 0.89115 0.60942 0.0
Li265 Li 0.55351 0.86893 0.57762 0.0
Li266 Li 0.56948 0.903 0.56794 0.0
Li267 Li 0.5346 0.88471 0.57937 0.0
C268 C 0.59835 0.90308 0.59627 0.0
N269 N 0.63615 0.93048 0.61039 0.0
C270 C 0.61377 0.89917 0.59324 0.0
C271 C 0.60218 0.92094 0.60651 0.0
C272 C 0.63277 0.9132 0.60049 0.0
C273 C 0.62137 0.93459 0.61352 0.0
C274 C 0.53286 0.85266 0.6197 0.0
C275 C 0.51283 0.82642 0.64718 0.0
N276 N 0.52896 0.82529 0.65368 0.0
C277 C 0.54924 0.85123 0.62666 0.0
C278 C 0.5145 0.84016 0.63004 0.0
C279 C 0.54696 0.8373 0.64386 0.0
C280 C 0.5485 0.89548 0.65485 0.0
N281 N 0.5636 0.89545 0.64296 0.0
C282 C 0.57995 0.89741 0.67986 0.0
C283 C 0.57911 0.89619 0.65489 0.0
C284 C 0.56442 0.89726 0.69255 0.0
C285 C 0.54861 0.8964 0.67976 0.0
H286 H 0.53603 0.8941 0.64493 0.0
H287 H 0.59048 0.89516 0.6452 0.0
C288 C 0.56899 0.84469 0.564 0.0
N289 N 0.55228 0.84473 0.57039 0.0
C290 C 0.56866 0.82687 0.56082 0.0
C291 C 0.53389 0.80961 0.57045 0.0
C292 C 0.53482 0.82772 0.57304 0.0
C293 C 0.55104 0.80911 0.56466 0.0
H294 H 0.58262 0.85849 0.56192 0.0
H295 H 0.52173 0.82825 0.57785 0.0
C296 C 0.54788 0.92274 0.58773 0.0
N297 N 0.53114 0.94598 0.57946 0.0
C298 C 0.54795 0.92976 0.56469 0.0
C299 C 0.53932 0.92758 0.60657 0.0
C300 C 0.53943 0.94149 0.56088 0.0
C301 C 0.53092 0.93932 0.60202 0.0
C302 C 0.53918 0.86558 0.53517 0.0
C303 C 0.55147 0.86212 0.52024 0.0
C304 C 0.51889 0.85235 0.53509 0.0
C305 C 0.54323 0.84552 0.50545 0.0
C306 C 0.51122 0.83594 0.52 0.0
N307 N 0.52345 0.83288 0.50562 0.0
C308 C 0.5921 0.92045 0.52634 0.0
C309 C 0.59687 0.94269 0.55786 0.0
C310 C 0.6045 0.93603 0.51138 0.0
N311 N 0.58834 0.92406 0.54896 0.0
C312 C 0.60949 0.95868 0.54362 0.0
C313 C 0.61311 0.95545 0.5199 0.0
H314 H 0.58502 0.90555 0.51967 0.0
H315 H 0.59331 0.94521 0.57573 0.0
C316 C 0.49701 0.87599 0.59393 0.0
N317 N 0.50982 0.88293 0.57526 0.0
C318 C 0.47875 0.8749 0.59221 0.0
C319 C 0.48736 0.88841 0.55219 0.0
C320 C 0.50536 0.88897 0.55457 0.0
C321 C 0.47382 0.88128 0.57119 0.0
H322 H 0.50112 0.87153 0.61025 0.0
H323 H 0.51589 0.8944 0.54002 0.0
O324 O 0.57976 0.88949 0.58892 0.0
O325 O 0.53463 0.86621 0.60293 0.0
O326 O 0.55576 0.91086 0.59171 0.0
O327 O 0.547 0.8815 0.55027 0.0
H328 H 0.61109 0.88543 0.58534 0.0
H329 H 0.59046 0.9242 0.60928 0.0
H330 H 0.64483 0.91036 0.59823 0.0
H331 H 0.62451 0.94845 0.6215 0.0
H332 H 0.49871 0.81666 0.65532 0.0
H333 H 0.56357 0.86071 0.6189 0.0
H334 H 0.50167 0.84104 0.62484 0.0
H335 H 0.55951 0.83604 0.64939 0.0
H336 H 0.59219 0.89765 0.68919 0.0
H337 H 0.53634 0.89619 0.68896 0.0
H338 H 0.58218 0.82696 0.55647 0.0
H339 H 0.52004 0.79614 0.57339 0.0
H340 H 0.55418 0.92589 0.5498 0.0
H341 H 0.53914 0.92231 0.62451 0.0
H342 H 0.53928 0.94692 0.54311 0.0
H343 H 0.52421 0.94314 0.61642 0.0
H344 H 0.56724 0.87185 0.52045 0.0
H345 H 0.50916 0.85452 0.54679 0.0
H346 H 0.55259 0.8426 0.49394 0.0
H347 H 0.49556 0.82556 0.51983 0.0
H348 H 0.60697 0.93297 0.49319 0.0
H349 H 0.61554 0.97347 0.5507 0.0
H350 H 0.46878 0.86957 0.60735 0.0
H351 H 0.48401 0.89338 0.53568 0.0
Li352 Li 0.66005 0.57385 0.07375 0.0
Li353 Li 0.6471 0.53897 0.08015 0.0
Li354 Li 0.66481 0.56256 0.11288 0.0
Li355 Li 0.68174 0.56018 0.07828 0.0
C356 C 0.6205 0.5515 0.09185 0.0
N357 N 0.58202 0.54091 0.08106 0.0
C358 C 0.61481 0.55128 0.06809 0.0
C359 C 0.60662 0.54641 0.11014 0.0
C360 C 0.59531 0.54588 0.06298 0.0
C361 C 0.58723 0.54107 0.10433 0.0
C362 C 0.65433 0.54364 0.03267 0.0
C363 C 0.64505 0.51398 0.01011 0.0
N364 N 0.63706 0.52016 0.99294 0.0
C365 C 0.64607 0.54971 0.01475 0.0
C366 C 0.65387 0.52565 0.03029 0.0
C367 C 0.63739 0.53763 0.99483 0.0
C368 C 0.66793 0.60158 0.03793 0.0
N369 N 0.65696 0.59345 0.05791 0.0
C370 C 0.6398 0.61108 0.05198 0.0
C371 C 0.64367 0.59853 0.06566 0.0
C372 C 0.65005 0.61883 0.03039 0.0
C373 C 0.66478 0.61446 0.02387 0.0
H374 H 0.67866 0.59749 0.03249 0.0
H375 H 0.63549 0.59222 0.08197 0.0
C376 C 0.62348 0.49912 0.09104 0.0
N377 N 0.6254 0.51297 0.07495 0.0
C378 C 0.60751 0.47997 0.08975 0.0
C379 C 0.59567 0.48962 0.0553 0.0
C380 C 0.61194 0.50855 0.05718 0.0
C381 C 0.59318 0.47506 0.07188 0.0
H382 H 0.63423 0.50303 0.10518 0.0
H383 H 0.61361 0.51974 0.0446 0.0
C384 C 0.68851 0.60227 0.1029 0.0
N385 N 0.69607 0.63793 0.12202 0.0
C386 C 0.7073 0.61883 0.10102 0.0
C387 C 0.67354 0.60387 0.11446 0.0
C388 C 0.71084 0.63672 0.11083 0.0
C389 C 0.67766 0.62202 0.12402 0.0
C390 C 0.67975 0.53311 0.10667 0.0
C391 C 0.69541 0.54328 0.12258 0.0
C392 C 0.67786 0.5167 0.09439 0.0
C393 C 0.70911 0.53701 0.12571 0.0
C394 C 0.69186 0.51088 0.09803 0.0
N395 N 0.70708 0.52109 0.11346 0.0
C396 C 0.64886 0.55412 0.15866 0.0
C397 C 0.68269 0.57855 0.158 0.0
C398 C 0.64852 0.55492 0.18357 0.0
N399 N 0.66574 0.56583 0.14648 0.0
C400 C 0.68308 0.57972 0.18298 0.0
C401 C 0.66585 0.56766 0.19612 0.0
H402 H 0.63573 0.5439 0.14899 0.0
H403 H 0.69599 0.58747 0.14782 0.0
C404 C 0.70678 0.54985 0.05311 0.0
N405 N 0.70613 0.56271 0.0689 0.0
C406 C 0.7245 0.55031 0.04866 0.0
C407 C 0.74075 0.57796 0.07581 0.0
C408 C 0.72266 0.57681 0.07994 0.0
C409 C 0.74168 0.56431 0.06037 0.0
H410 H 0.69347 0.53877 0.04463 0.0
H411 H 0.72163 0.58666 0.09266 0.0
O412 O 0.63956 0.55674 0.09726 0.0
O413 O 0.66296 0.55535 0.05226 0.0
O414 O 0.68489 0.58471 0.09323 0.0
O415 O 0.66661 0.53947 0.10272 0.0
H416 H 0.62534 0.55523 0.05372 0.0
H417 H 0.61073 0.54663 0.12867 0.0
H418 H 0.59073 0.54562 0.04465 0.0
H419 H 0.57634 0.53708 0.11832 0.0
H420 H 0.64444 0.49995 0.00818 0.0
H421 H 0.64629 0.56358 0.0162 0.0
H422 H 0.65977 0.52048 0.04418 0.0
H423 H 0.6309 0.54214 0.98087 0.0
H424 H 0.62821 0.61384 0.05774 0.0
H425 H 0.67341 0.62046 0.00774 0.0
H426 H 0.60635 0.46918 0.10275 0.0
H427 H 0.58486 0.48661 0.04144 0.0
H428 H 0.71904 0.61788 0.09204 0.0
H429 H 0.65889 0.59129 0.1161 0.0
H430 H 0.72533 0.64964 0.10951 0.0
H431 H 0.66622 0.62345 0.13302 0.0
H432 H 0.69717 0.55608 0.13209 0.0
H433 H 0.66583 0.50866 0.082 0.0
H434 H 0.72141 0.54486 0.1378 0.0
H435 H 0.69066 0.4983 0.08853 0.0
H436 H 0.63483 0.54555 0.19288 0.0
H437 H 0.69685 0.58953 0.19187 0.0
H438 H 0.72472 0.53961 0.03656 0.0
H439 H 0.75367 0.5888 0.0854 0.0
Li440 Li 0.1174 0.68677 0.58075 0.0
Li441 Li 0.09663 0.66843 0.61448 0.0
Li442 Li 0.10464 0.65192 0.58296 0.0
Li443 Li 0.08238 0.66469 0.57565 0.0
C444 C 0.14144 0.68534 0.61174 0.0
N445 N 0.17951 0.71425 0.62251 0.0
C446 C 0.14498 0.69848 0.63055 0.0
C447 C 0.15727 0.68687 0.59845 0.0
C448 C 0.16434 0.71298 0.63572 0.0
C449 C 0.1764 0.70161 0.60415 0.0
C450 C 0.08468 0.69759 0.59009 0.0
C451 C 0.05443 0.69852 0.59284 0.0
N452 N 0.062 0.71416 0.57761 0.0
C453 C 0.09215 0.71367 0.57446 0.0
C454 C 0.06568 0.68997 0.59939 0.0
C455 C 0.08046 0.72185 0.56839 0.0
C456 C 0.1518 0.71236 0.55438 0.0
N457 N 0.13949 0.7112 0.57225 0.0
C458 C 0.16062 0.74501 0.5823 0.0
C459 C 0.14342 0.72708 0.58597 0.0
C460 C 0.17396 0.74644 0.56459 0.0
C461 C 0.16936 0.72994 0.55034 0.0
H462 H 0.14832 0.69948 0.54383 0.0
H463 H 0.13345 0.72559 0.60026 0.0
C464 C 0.10154 0.65983 0.66119 0.0
N465 N 0.09328 0.66842 0.6481 0.0
C466 C 0.09982 0.65891 0.68603 0.0
C467 C 0.0811 0.67575 0.68354 0.0
C468 C 0.08329 0.67643 0.65866 0.0
C469 C 0.08942 0.66686 0.69757 0.0
H470 H 0.10954 0.65373 0.65225 0.0
H471 H 0.07699 0.6833 0.64783 0.0
C472 C 0.10524 0.65674 0.5364 0.0
N473 N 0.10692 0.63386 0.49982 0.0
C474 C 0.08861 0.64521 0.52233 0.0
C475 C 0.12275 0.65668 0.53179 0.0
C476 C 0.08976 0.63375 0.50392 0.0
C477 C 0.12329 0.64498 0.51326 0.0
C478 C 0.06888 0.63176 0.61658 0.0
C479 C 0.07501 0.61923 0.6262 0.0
C480 C 0.05331 0.63282 0.62727 0.0
C481 C 0.06552 0.60806 0.64648 0.0
C482 C 0.04422 0.62144 0.64756 0.0
N483 N 0.05047 0.6094 0.65667 0.0
C484 C 0.1248 0.63061 0.58726 0.0
C485 C 0.09523 0.61467 0.5647 0.0
C486 C 0.1273 0.61426 0.58494 0.0
N487 N 0.10895 0.63048 0.57723 0.0
C488 C 0.09723 0.59808 0.56175 0.0
C489 C 0.1133 0.59765 0.57223 0.0
H490 H 0.13521 0.64317 0.59763 0.0
H491 H 0.08249 0.6148 0.55748 0.0
C492 C 0.06134 0.6726 0.54046 0.0
N493 N 0.05975 0.66008 0.55829 0.0
C494 C 0.04493 0.66865 0.52665 0.0
C495 C 0.0257 0.63887 0.54964 0.0
C496 C 0.04241 0.64352 0.56316 0.0
C497 C 0.02684 0.65141 0.53094 0.0
H498 H 0.07546 0.68544 0.53666 0.0
H499 H 0.0417 0.63359 0.57704 0.0
O500 O 0.12255 0.67146 0.60588 0.0
O501 O 0.09583 0.68927 0.59609 0.0
O502 O 0.10437 0.66793 0.55466 0.0
O503 O 0.07836 0.64326 0.59714 0.0
H504 H 0.13291 0.69769 0.64082 0.0
H505 H 0.15478 0.67703 0.58358 0.0
H506 H 0.16729 0.72331 0.65015 0.0
H507 H 0.18877 0.70307 0.59388 0.0
H508 H 0.03966 0.69268 0.59978 0.0
H509 H 0.10671 0.71964 0.56684 0.0
H510 H 0.05953 0.67736 0.61121 0.0
H511 H 0.08603 0.73425 0.55625 0.0
H512 H 0.16385 0.7574 0.59382 0.0
H513 H 0.17935 0.73059 0.5365 0.0
H514 H 0.10684 0.65229 0.6961 0.0
H515 H 0.07286 0.68194 0.69166 0.0
H516 H 0.07492 0.645 0.52563 0.0
H517 H 0.13567 0.66523 0.54275 0.0
H518 H 0.07699 0.62472 0.49294 0.0
H519 H 0.13669 0.64467 0.50964 0.0
H520 H 0.08712 0.61831 0.61831 0.0
H521 H 0.04847 0.64254 0.62018 0.0
H522 H 0.07018 0.59839 0.65419 0.0
H523 H 0.03225 0.62223 0.65611 0.0
H524 H 0.1399 0.6145 0.59327 0.0
H525 H 0.08594 0.58543 0.55218 0.0
H526 H 0.0465 0.67881 0.51254 0.0
H527 H 0.01226 0.62516 0.55323 0.0
Li528 Li 0.88729 0.53701 0.41142 0.0
Li529 Li 0.9065 0.57212 0.42197 0.0
Li530 Li 0.8721 0.55626 0.41486 0.0
Li531 Li 0.89287 0.56152 0.38156 0.0
C532 C 0.87098 0.54278 0.45747 0.0
N533 N 0.84037 0.52831 0.4901 0.0
C534 C 0.87033 0.55515 0.47503 0.0
C535 C 0.85607 0.52302 0.45654 0.0
C536 C 0.85472 0.54757 0.49134 0.0
C537 C 0.84073 0.51599 0.4732 0.0
C538 C 0.9245 0.54922 0.40147 0.0
C539 C 0.9418 0.53315 0.38663 0.0
N540 N 0.94664 0.53125 0.40947 0.0
C541 C 0.92971 0.54716 0.4248 0.0
C542 C 0.93064 0.54221 0.38221 0.0
C543 C 0.9409 0.53803 0.42847 0.0
C544 C 0.88017 0.50065 0.39486 0.0
N545 N 0.88496 0.51195 0.41488 0.0
C546 C 0.88775 0.48764 0.43756 0.0
C547 C 0.88861 0.50584 0.43606 0.0
C548 C 0.88304 0.47568 0.41707 0.0
C549 C 0.87904 0.48234 0.39557 0.0
H550 H 0.87744 0.50601 0.37827 0.0
H551 H 0.89253 0.51528 0.45164 0.0
C552 C 0.92535 0.60079 0.45818 0.0
N553 N 0.92831 0.59161 0.43934 0.0
C554 C 0.94123 0.61388 0.47235 0.0
C555 C 0.96293 0.60855 0.4466 0.0
C556 C 0.94669 0.59574 0.43287 0.0
C557 C 0.96028 0.6175 0.46699 0.0
H558 H 0.91063 0.59771 0.46241 0.0
H559 H 0.94872 0.58868 0.41739 0.0
C560 C 0.85399 0.53525 0.37321 0.0
N561 N 0.82556 0.5311 0.34072 0.0
C562 C 0.85183 0.55142 0.36734 0.0
C563 C 0.84171 0.51699 0.36252 0.0
C564 C 0.83737 0.54902 0.35089 0.0
C565 C 0.82742 0.51519 0.34615 0.0
C566 C 0.90554 0.60056 0.39405 0.0
C567 C 0.90116 0.61577 0.39535 0.0
C568 C 0.92354 0.6043 0.38436 0.0
C569 C 0.91488 0.6345 0.38693 0.0
C570 C 0.93687 0.62322 0.37614 0.0
N571 N 0.9323 0.6378 0.37758 0.0
C572 C 0.84898 0.57219 0.43157 0.0
C573 C 0.83121 0.53818 0.42167 0.0
C574 C 0.83144 0.57224 0.43569 0.0
N575 N 0.84847 0.55541 0.4242 0.0
C576 C 0.81337 0.53763 0.42524 0.0
C577 C 0.8134 0.55491 0.43182 0.0
H578 H 0.86299 0.58564 0.43344 0.0
H579 H 0.83129 0.52503 0.41602 0.0
C580 C 0.89833 0.55237 0.33552 0.0
N581 N 0.89611 0.56598 0.34805 0.0
C582 C 0.89904 0.55302 0.31059 0.0
C583 C 0.89487 0.58157 0.31184 0.0
C584 C 0.89436 0.58043 0.33682 0.0
C585 C 0.89704 0.5676 0.29839 0.0
H586 H 0.89893 0.54064 0.34492 0.0
H587 H 0.89187 0.59065 0.34713 0.0
O588 O 0.88587 0.55002 0.44095 0.0
O589 O 0.91311 0.55768 0.39763 0.0
O590 O 0.86807 0.53713 0.38921 0.0
O591 O 0.89217 0.58222 0.40239 0.0
H592 H 0.88163 0.57049 0.47595 0.0
H593 H 0.85612 0.5133 0.44284 0.0
H594 H 0.854 0.55701 0.50496 0.0
H595 H 0.82905 0.50077 0.47259 0.0
H596 H 0.94661 0.52762 0.37189 0.0
H597 H 0.9249 0.5523 0.43995 0.0
H598 H 0.9269 0.54378 0.36404 0.0
H599 H 0.94492 0.53624 0.44644 0.0
H600 H 0.89119 0.48321 0.45441 0.0
H601 H 0.87504 0.4735 0.37943 0.0
H602 H 0.93855 0.6208 0.48756 0.0
H603 H 0.97725 0.61069 0.44181 0.0
H604 H 0.86116 0.56568 0.37538 0.0
H605 H 0.8432 0.50433 0.36686 0.0
H606 H 0.83553 0.5614 0.34621 0.0
H607 H 0.81781 0.50113 0.33775 0.0
H608 H 0.88729 0.61312 0.40279 0.0
H609 H 0.92722 0.59277 0.38303 0.0
H610 H 0.91167 0.6464 0.38782 0.0
H611 H 0.95084 0.62631 0.36859 0.0
H612 H 0.83194 0.58585 0.44063 0.0
H613 H 0.79968 0.52399 0.42225 0.0
H614 H 0.90089 0.54204 0.301 0.0
H615 H 0.89289 0.59282 0.30318 0.0
Li616 Li 0.32858 0.90871 0.91912 0.0
Li617 Li 0.34294 0.88785 0.91248 0.0
Li618 Li 0.32454 0.89328 0.88096 0.0
Li619 Li 0.30793 0.87325 0.91595 0.0
C620 C 0.36087 0.92243 0.877 0.0
N621 N 0.38265 0.94027 0.8363 0.0
C622 C 0.37597 0.91895 0.86988 0.0
C623 C 0.35692 0.93506 0.86343 0.0
C624 C 0.38681 0.92811 0.84927 0.0
C625 C 0.36805 0.94389 0.8429 0.0
C626 C 0.33842 0.88655 0.95886 0.0
C627 C 0.34989 0.86764 0.98071 0.0
N628 N 0.3616 0.88377 0.99424 0.0
C629 C 0.35061 0.90295 0.97296 0.0
C630 C 0.33807 0.86874 0.96276 0.0
C631 C 0.36218 0.90123 0.99078 0.0
C632 C 0.32535 0.92987 0.95812 0.0
N633 N 0.33205 0.93151 0.93532 0.0
C634 C 0.34631 0.96644 0.93646 0.0
C635 C 0.342 0.94926 0.92422 0.0
C636 C 0.34076 0.96541 0.96059 0.0
C637 C 0.32969 0.94673 0.97125 0.0
H638 H 0.31735 0.9155 0.96643 0.0
H639 H 0.34701 0.95013 0.90605 0.0
C640 C 0.36607 0.86942 0.90931 0.0
N641 N 0.36533 0.88514 0.91831 0.0
C642 C 0.38302 0.86802 0.91216 0.0
C643 C 0.39798 0.89889 0.93379 0.0
C644 C 0.38083 0.89978 0.93031 0.0
C645 C 0.39936 0.88298 0.92438 0.0
H646 H 0.3537 0.85824 0.89934 0.0
H647 H 0.37997 0.91232 0.93681 0.0
C648 C 0.29453 0.90349 0.9077 0.0
N649 N 0.27707 0.92431 0.92435 0.0
C650 C 0.28212 0.89676 0.92766 0.0
C651 C 0.29809 0.92082 0.89623 0.0
C652 C 0.27341 0.90749 0.93578 0.0
C653 C 0.28912 0.93114 0.90492 0.0
C654 C 0.31006 0.84918 0.88544 0.0
C655 C 0.29662 0.84466 0.86672 0.0
C656 C 0.30945 0.83398 0.89919 0.0
C657 C 0.28269 0.82497 0.86217 0.0
C658 C 0.29527 0.81448 0.89409 0.0
N659 N 0.28229 0.81042 0.87585 0.0
C660 C 0.33453 0.89012 0.83411 0.0
C661 C 0.31171 0.90156 0.8367 0.0
C662 C 0.3351 0.89183 0.80926 0.0
N663 N 0.32319 0.89523 0.84725 0.0
C664 C 0.31175 0.9034 0.81181 0.0
C665 C 0.32371 0.89867 0.79781 0.0
H666 H 0.34328 0.88488 0.84304 0.0
H667 H 0.30264 0.90526 0.8476 0.0
C668 C 0.28268 0.83912 0.944 0.0
N669 N 0.28398 0.8508 0.9253 0.0
C670 C 0.26509 0.82163 0.94842 0.0
C671 C 0.25036 0.82913 0.91495 0.0
C672 C 0.26823 0.84632 0.91106 0.0
C673 C 0.24872 0.81641 0.93361 0.0
H674 H 0.29538 0.84309 0.95514 0.0
H675 H 0.26977 0.85586 0.89622 0.0
O676 O 0.34984 0.91331 0.89692 0.0
O677 O 0.32712 0.88797 0.94114 0.0
O678 O 0.30364 0.8935 0.8999 0.0
O679 O 0.32337 0.8684 0.89071 0.0
H680 H 0.37922 0.90917 0.87998 0.0
H681 H 0.34499 0.93757 0.86825 0.0
H682 H 0.39848 0.92549 0.84353 0.0
H683 H 0.365 0.95352 0.83211 0.0
H684 H 0.34986 0.85399 0.98378 0.0
H685 H 0.35138 0.91694 0.97 0.0
H686 H 0.32912 0.85604 0.95169 0.0
H687 H 0.37172 0.91382 0.00176 0.0
H688 H 0.35441 0.98043 0.92726 0.0
H689 H 0.32523 0.94515 0.98984 0.0
H690 H 0.38353 0.85569 0.90416 0.0
H691 H 0.41009 0.91066 0.94354 0.0
H692 H 0.27943 0.88354 0.93698 0.0
H693 H 0.30796 0.92646 0.88105 0.0
H694 H 0.26382 0.90249 0.95125 0.0
H695 H 0.29183 0.94463 0.89631 0.0
H696 H 0.29672 0.85622 0.85606 0.0
H697 H 0.31962 0.8372 0.91387 0.0
H698 H 0.27212 0.82126 0.84784 0.0
H699 H 0.29453 0.80258 0.90471 0.0
H700 H 0.34422 0.88765 0.79911 0.0
H701 H 0.30278 0.90875 0.80365 0.0
H702 H 0.26432 0.81222 0.96308 0.0
H703 H 0.23816 0.82549 0.90292 0.0
Li704 Li 0.45172 0.34621 0.41377 0.0
Li705 Li 0.41717 0.33312 0.42124 0.0
Li706 Li 0.4313 0.31169 0.4158 0.0
Li707 Li 0.4285 0.32844 0.38105 0.0
C708 C 0.44696 0.34072 0.46145 0.0
N709 N 0.46867 0.36128 0.50105 0.0
C710 C 0.44024 0.35051 0.47629 0.0
C711 C 0.46468 0.34132 0.46681 0.0
C712 C 0.45144 0.36083 0.49621 0.0
C713 C 0.47546 0.35183 0.48689 0.0
C714 C 0.44347 0.37335 0.39742 0.0
C715 C 0.46392 0.40446 0.3777 0.0
N716 N 0.46446 0.41407 0.39823 0.0
C717 C 0.44417 0.38354 0.41829 0.0
C718 C 0.45336 0.38389 0.37692 0.0
C719 C 0.45487 0.40412 0.41835 0.0
C720 C 0.49138 0.37028 0.402 0.0
N721 N 0.47775 0.36822 0.41854 0.0
C722 C 0.50122 0.39814 0.4378 0.0
C723 C 0.48231 0.38179 0.43623 0.0
C724 C 0.51552 0.4007 0.42082 0.0
C725 C 0.51044 0.38644 0.40283 0.0
H726 H 0.48735 0.35952 0.38785 0.0
H727 H 0.4712 0.38027 0.44882 0.0
C728 C 0.38677 0.32264 0.45443 0.0
N729 N 0.39748 0.33589 0.43713 0.0
C730 C 0.37296 0.32493 0.46771 0.0
C731 C 0.38113 0.3541 0.44453 0.0
C732 C 0.39448 0.35103 0.43145 0.0
C733 C 0.37036 0.34116 0.46328 0.0
H734 H 0.38929 0.31054 0.4582 0.0
H735 H 0.40281 0.36101 0.41713 0.0
C736 C 0.45843 0.31435 0.38687 0.0
N737 N 0.47125 0.28778 0.37911 0.0
C738 C 0.44901 0.29935 0.36992 0.0
C739 C 0.47447 0.31596 0.39972 0.0
C740 C 0.45569 0.28603 0.3663 0.0
C741 C 0.48071 0.30235 0.39556 0.0
C742 C 0.38854 0.30396 0.39254 0.0
C743 C 0.37278 0.28461 0.39344 0.0
C744 C 0.3856 0.31884 0.38313 0.0
C745 C 0.35439 0.28043 0.38468 0.0
C746 C 0.36698 0.31406 0.37457 0.0
N747 N 0.35189 0.29511 0.3755 0.0
C748 C 0.44236 0.28712 0.44066 0.0
C749 C 0.41585 0.27103 0.41326 0.0
C750 C 0.44248 0.26962 0.44472 0.0
N751 N 0.42943 0.28755 0.42479 0.0
C752 C 0.41524 0.25316 0.41704 0.0
C753 C 0.42895 0.25245 0.43257 0.0
H754 H 0.45306 0.30049 0.44944 0.0
H755 H 0.406 0.27192 0.40043 0.0
C756 C 0.4426 0.33983 0.33523 0.0
N757 N 0.42584 0.32728 0.34716 0.0
C758 C 0.44297 0.34006 0.31028 0.0
C759 C 0.40885 0.31415 0.31022 0.0
C760 C 0.40919 0.31431 0.33523 0.0
C761 C 0.42592 0.32713 0.29747 0.0
H762 H 0.4558 0.3495 0.34519 0.0
H763 H 0.39628 0.30381 0.34493 0.0
O764 O 0.43604 0.33032 0.44206 0.0
O765 O 0.43317 0.35318 0.39707 0.0
O766 O 0.45166 0.32708 0.39129 0.0
O767 O 0.40651 0.30829 0.40153 0.0
H768 H 0.42657 0.3502 0.47246 0.0
H769 H 0.47029 0.33416 0.45531 0.0
H770 H 0.44645 0.36851 0.50781 0.0
H771 H 0.48927 0.35256 0.49113 0.0
H772 H 0.47167 0.4128 0.36197 0.0
H773 H 0.43683 0.37563 0.43442 0.0
H774 H 0.45286 0.3763 0.36055 0.0
H775 H 0.45564 0.41217 0.43443 0.0
H776 H 0.50442 0.40899 0.45169 0.0
H777 H 0.52105 0.38782 0.38944 0.0
H778 H 0.36471 0.3143 0.48156 0.0
H779 H 0.37992 0.36697 0.44051 0.0
H780 H 0.43649 0.29785 0.35995 0.0
H781 H 0.48183 0.32743 0.413 0.0
H782 H 0.44845 0.27425 0.35339 0.0
H783 H 0.49301 0.30331 0.4055 0.0
H784 H 0.37472 0.27295 0.40091 0.0
H785 H 0.39754 0.33391 0.38227 0.0
H786 H 0.34208 0.26551 0.38524 0.0
H787 H 0.36453 0.32541 0.36718 0.0
H788 H 0.45323 0.26957 0.45686 0.0
H789 H 0.40479 0.24024 0.4071 0.0
H790 H 0.45644 0.3503 0.30111 0.0
H791 H 0.39554 0.30366 0.30096 0.0
Li792 Li 0.08437 0.41857 0.92055 0.0
Li793 Li 0.10485 0.45265 0.91341 0.0
Li794 Li 0.09751 0.43012 0.87957 0.0
Li795 Li 0.11927 0.43241 0.91336 0.0
C796 C 0.06923 0.44507 0.90054 0.0
N797 N 0.05131 0.46758 0.90541 0.0
C798 C 0.05843 0.44349 0.92118 0.0
C799 C 0.07082 0.45802 0.88233 0.0
C800 C 0.04946 0.45498 0.92329 0.0
C801 C 0.06171 0.46932 0.88517 0.0
C802 C 0.10901 0.44902 0.95995 0.0
C803 C 0.12923 0.47838 0.98306 0.0
N804 N 0.11417 0.47297 -0.00115 0.0
C805 C 0.09372 0.44375 0.97642 0.0
C806 C 0.12692 0.46646 0.96331 0.0
C807 C 0.09663 0.45605 0.99597 0.0
C808 C 0.06609 0.392 0.95833 0.0
N809 N 0.06266 0.39892 0.93766 0.0
C810 C 0.02796 0.38029 0.94393 0.0
C811 C 0.04409 0.39286 0.92984 0.0
C812 C 0.03107 0.37391 0.96618 0.0
C813 C 0.0504 0.37938 0.97297 0.0
H814 H 0.08108 0.39699 0.9639 0.0
H815 H 0.04188 0.3985 0.91316 0.0
C816 C 0.1203 0.4924 0.90244 0.0
N817 N 0.10907 0.47865 0.91904 0.0
C818 C 0.12253 0.5112 0.9032 0.0
C819 C 0.10202 0.50161 0.93855 0.0
C820 C 0.10002 0.48292 0.93696 0.0
C821 C 0.11313 0.5159 0.92127 0.0
H822 H 0.12703 0.48859 0.88808 0.0
H823 H 0.09064 0.47167 0.94953 0.0
C824 C 0.08759 0.38907 0.90378 0.0
N825 N 0.06636 0.34988 0.91692 0.0
C826 C 0.09509 0.38163 0.921 0.0
C827 C 0.06931 0.37661 0.89324 0.0
C828 C 0.08413 0.36175 0.92739 0.0
C829 C 0.0588 0.35683 0.90014 0.0
C830 C 0.14199 0.45949 0.88257 0.0
C831 C 0.14609 0.45117 0.86282 0.0
C832 C 0.15747 0.47426 0.8958 0.0
C833 C 0.1657 0.45766 0.85677 0.0
C834 C 0.17688 0.48032 0.8892 0.0
N835 N 0.18055 0.47196 0.87 0.0
C836 C 0.09989 0.44468 0.83408 0.0
C837 C 0.08758 0.4102 0.83445 0.0
C838 C 0.09938 0.44478 0.80916 0.0
N839 N 0.09408 0.42759 0.84612 0.0
C840 C 0.08681 0.4096 0.80943 0.0
C841 C 0.09299 0.42712 0.79649 0.0
H842 H 0.10533 0.45833 0.84391 0.0
H843 H 0.08347 0.39691 0.8445 0.0
C844 C 0.15349 0.43965 0.9391 0.0
N845 N 0.14182 0.43037 0.91994 0.0
C846 C 0.17092 0.43925 0.94253 0.0
C847 C 0.16349 0.41912 0.90695 0.0
C848 C 0.14629 0.42 0.90416 0.0
C849 C 0.17617 0.42905 0.92617 0.0
H850 H 0.14946 0.4476 0.95149 0.0
H851 H 0.13667 0.4128 0.88907 0.0
O852 O 0.07839 0.43419 0.89832 0.0
O853 O 0.10652 0.43703 0.94087 0.0
O854 O 0.09785 0.40859 0.89777 0.0
O855 O 0.12292 0.45291 0.88925 0.0
H856 H 0.05729 0.43378 0.93563 0.0
H857 H 0.07914 0.45945 0.86627 0.0
H858 H 0.04117 0.454 0.93923 0.0
H859 H 0.06293 0.4795 0.87129 0.0
H860 H 0.14297 0.49197 0.98578 0.0
H861 H 0.0797 0.43043 0.97405 0.0
H862 H 0.13881 0.47092 0.95061 0.0
H863 H 0.08491 0.45218 0.0088 0.0
H864 H 0.01332 0.3766 0.93811 0.0
H865 H 0.05341 0.37456 0.98982 0.0
H866 H 0.13128 0.52185 0.88958 0.0
H867 H 0.09426 0.50458 0.95252 0.0
H868 H 0.10911 0.39113 0.92954 0.0
H869 H 0.06316 0.38223 0.88018 0.0
H870 H 0.08971 0.35579 0.94074 0.0
H871 H 0.04458 0.34704 0.89224 0.0
H872 H 0.13428 0.43962 0.8525 0.0
H873 H 0.15453 0.48085 0.91111 0.0
H874 H 0.1691 0.45127 0.84164 0.0
H875 H 0.18901 0.49164 0.89936 0.0
H876 H 0.10407 0.45857 0.79992 0.0
H877 H 0.08203 0.39573 0.80032 0.0
H878 H 0.18022 0.44691 0.95772 0.0
H879 H 0.16714 0.41129 0.8938 0.0
Li880 Li 0.64417 0.10145 0.41478 0.0
Li881 Li 0.65895 0.08188 0.42151 0.0
Li882 Li 0.67932 0.11678 0.41724 0.0
Li883 Li 0.66265 0.09542 0.3817 0.0
C884 C 0.65026 0.10679 0.4602 0.0
N885 N 0.62969 0.11533 0.49387 0.0
C886 C 0.63903 0.09294 0.47774 0.0
C887 C 0.65084 0.12491 0.45972 0.0
C888 C 0.62881 0.09756 0.49464 0.0
C889 C 0.64038 0.12896 0.47688 0.0
C890 C 0.6246 0.05718 0.39901 0.0
C891 C 0.60807 0.02509 0.38046 0.0
N892 N 0.59797 0.01724 0.40113 0.0
C893 C 0.61398 0.04882 0.42003 0.0
C894 C 0.6216 0.04526 0.37902 0.0
C895 C 0.60062 0.02859 0.42076 0.0
C896 C 0.62007 0.11785 0.4054 0.0
N897 N 0.62153 0.10429 0.41906 0.0
C898 C 0.59032 0.09441 0.43716 0.0
C899 C 0.60701 0.09254 0.4346 0.0
C900 C 0.58829 0.10819 0.42315 0.0
C901 C 0.60351 0.12005 0.40713 0.0
H902 H 0.63162 0.12672 0.39281 0.0
H903 H 0.60832 0.08169 0.44506 0.0
C904 C 0.65922 0.06005 0.46144 0.0
N905 N 0.65671 0.05927 0.43733 0.0
C906 C 0.65532 0.04317 0.47412 0.0
C907 C 0.6485 0.02554 0.4366 0.0
C908 C 0.65237 0.04275 0.42469 0.0
C909 C 0.64922 0.02541 0.46174 0.0
H910 H 0.66378 0.07369 0.47088 0.0
H911 H 0.65138 0.04277 0.4054 0.0
C912 C 0.67663 0.13932 0.38471 0.0
N913 N 0.70413 0.17748 0.3721 0.0
C914 C 0.69101 0.14281 0.36756 0.0
C915 C 0.67614 0.15523 0.39532 0.0
C916 C 0.7048 0.16221 0.36145 0.0
C917 C 0.6902 0.17441 0.38874 0.0
C918 C 0.69393 0.08776 0.41003 0.0
C919 C 0.70371 0.09356 0.43202 0.0
C920 C 0.69436 0.07282 0.39685 0.0
C921 C 0.71378 0.08428 0.44049 0.0
C922 C 0.70459 0.06389 0.40594 0.0
N923 N 0.71401 0.06975 0.42739 0.0
C924 C 0.70447 0.15316 0.44157 0.0
C925 C 0.7196 0.14264 0.4129 0.0
C926 C 0.72214 0.17076 0.44506 0.0
N927 N 0.70345 0.13973 0.42536 0.0
C928 C 0.73762 0.15984 0.41614 0.0
C929 C 0.7389 0.17425 0.43209 0.0
H930 H 0.69156 0.15052 0.45141 0.0
H931 H 0.71833 0.13181 0.39994 0.0
C932 C 0.64906 0.09314 0.33553 0.0
N933 N 0.66332 0.09228 0.34835 0.0
C934 C 0.64894 0.09203 0.31062 0.0
C935 C 0.67807 0.08886 0.31261 0.0
C936 C 0.67769 0.09018 0.33754 0.0
C937 C 0.66362 0.08992 0.29878 0.0
H938 H 0.63798 0.09506 0.34473 0.0
H939 H 0.68902 0.08985 0.34823 0.0
O940 O 0.66043 0.10259 0.44344 0.0
O941 O 0.63793 0.0769 0.39795 0.0
O942 O 0.6635 0.12044 0.39159 0.0
O943 O 0.6836 0.09638 0.40176 0.0
H944 H 0.63784 0.07861 0.47815 0.0
H945 H 0.65876 0.13551 0.44579 0.0
H946 H 0.62004 0.08695 0.50825 0.0
H947 H 0.64062 0.14289 0.47656 0.0
H948 H 0.60563 0.01567 0.36515 0.0
H949 H 0.61642 0.05776 0.43579 0.0
H950 H 0.62972 0.05152 0.36262 0.0
H951 H 0.59246 0.02189 0.43699 0.0
H952 H 0.57914 0.08512 0.44997 0.0
H953 H 0.60245 0.13057 0.39558 0.0
H954 H 0.65617 0.04386 0.49348 0.0
H955 H 0.64446 0.01236 0.42626 0.0
H956 H 0.69175 0.1307 0.35935 0.0
H957 H 0.66513 0.15283 0.40862 0.0
H958 H 0.7161 0.16513 0.34834 0.0
H959 H 0.69007 0.18687 0.39691 0.0
H960 H 0.70331 0.10494 0.44259 0.0
H961 H 0.68661 0.06793 0.37998 0.0
H962 H 0.72135 0.08856 0.45752 0.0
H963 H 0.70497 0.05223 0.396 0.0
H964 H 0.72269 0.18157 0.45759 0.0
H965 H 0.75024 0.16218 0.40565 0.0
H966 H 0.63776 0.09335 0.30077 0.0
H967 H 0.68956 0.08708 0.30429 0.0
Li968 Li 0.57452 0.66541 0.9209 0.0
Li969 Li 0.53965 0.65297 0.91281 0.0
Li970 Li 0.56462 0.66924 0.88168 0.0
Li971 Li 0.56197 0.68773 0.91508 0.0
C972 C 0.55544 0.63245 0.88 0.0
N973 N 0.55196 0.60989 0.84028 0.0
C974 C 0.53692 0.62005 0.86996 0.0
C975 C 0.57217 0.63328 0.86993 0.0
C976 C 0.53548 0.60877 0.84986 0.0
C977 C 0.57011 0.62179 0.84981 0.0
C978 C 0.54333 0.65791 0.95945 0.0
C979 C 0.5133 0.64655 0.98199 0.0
N980 N 0.51826 0.63543 0.99587 0.0
C981 C 0.54816 0.64641 0.97398 0.0
C982 C 0.5258 0.65806 0.96354 0.0
C983 C 0.53528 0.63514 0.99229 0.0
C984 C 0.60331 0.67318 0.95636 0.0
N985 N 0.59208 0.66051 0.9388 0.0
C986 C 0.60394 0.63863 0.94829 0.0
C987 C 0.59219 0.64352 0.93453 0.0
C988 C 0.61577 0.6514 0.96661 0.0
C989 C 0.61551 0.66901 0.97038 0.0
H990 H 0.60253 0.68636 0.95973 0.0
H991 H 0.58271 0.63348 0.92089 0.0
C992 C 0.49829 0.63171 0.90724 0.0
N993 N 0.51379 0.63168 0.9181 0.0
C994 C 0.47943 0.61532 0.90906 0.0
C995 C 0.49281 0.59936 0.93358 0.0
C996 C 0.51144 0.61596 0.93105 0.0
C997 C 0.47657 0.59881 0.92219 0.0
H998 H 0.50067 0.64421 0.89656 0.0
H999 H 0.52414 0.61615 0.93889 0.0
C1000 C 0.60553 0.69823 0.90666 0.0
N1001 N 0.64465 0.71473 0.9197 0.0
C1002 C 0.61411 0.71451 0.922 0.0
C1003 C 0.61688 0.69039 0.8979 0.0
C1004 C 0.63391 0.72265 0.92837 0.0
C1005 C 0.63662 0.69891 0.90474 0.0
C1006 C 0.53685 0.68644 0.88362 0.0
C1007 C 0.54644 0.69944 0.8647 0.0
C1008 C 0.5226 0.6881 0.89685 0.0
C1009 C 0.54166 0.71397 0.85939 0.0
C1010 C 0.51828 0.70287 0.89101 0.0
N1011 N 0.52782 0.71539 0.87256 0.0
C1012 C 0.55173 0.66052 0.83474 0.0
C1013 C 0.58653 0.67691 0.83801 0.0
C1014 C 0.55286 0.65938 0.80996 0.0
N1015 N 0.5684 0.66908 0.84817 0.0
C1016 C 0.58836 0.67603 0.81321 0.0
C1017 C 0.57135 0.66712 0.79885 0.0
H1018 H 0.53752 0.65456 0.84336 0.0
H1019 H 0.59955 0.68376 0.84911 0.0
C1020 C 0.55375 0.71362 0.94165 0.0
N1021 N 0.56449 0.71226 0.92341 0.0
C1022 C 0.55397 0.73129 0.94578 0.0
C1023 C 0.57708 0.74599 0.91308 0.0
C1024 C 0.57621 0.72799 0.90939 0.0
C1025 C 0.56559 0.74765 0.9312 0.0
H1026 H 0.54457 0.70086 0.95248 0.0
H1027 H 0.58442 0.72635 0.89487 0.0
O1028 O 0.55725 0.64405 0.89924 0.0
O1029 O 0.55566 0.66892 0.94129 0.0
O1030 O 0.58612 0.68996 0.90036 0.0
O1031 O 0.54178 0.67253 0.88961 0.0
H1032 H 0.52383 0.61931 0.87737 0.0
H1033 H 0.58663 0.64288 0.87737 0.0
H1034 H 0.52126 0.59919 0.84182 0.0
H1035 H 0.58295 0.6224 0.84174 0.0
H1036 H 0.49961 0.64639 0.98521 0.0
H1037 H 0.56162 0.64607 0.9711 0.0
H1038 H 0.52167 0.66663 0.95226 0.0
H1039 H 0.5388 0.62612 0.00361 0.0
H1040 H 0.60317 0.62463 0.94512 0.0
H1041 H 0.62443 0.67934 0.98418 0.0
H1042 H 0.46725 0.61542 0.90001 0.0
H1043 H 0.49125 0.58677 0.94349 0.0
H1044 H 0.60553 0.72068 0.92915 0.0
H1045 H 0.61043 0.67764 0.88629 0.0
H1046 H 0.64071 0.7352 0.94029 0.0
H1047 H 0.64552 0.6929 0.89823 0.0
H1048 H 0.55767 0.69852 0.85445 0.0
H1049 H 0.51522 0.67833 0.91175 0.0
H1050 H 0.54904 0.7242 0.84488 0.0
H1051 H 0.50742 0.70444 0.90123 0.0
H1052 H 0.53937 0.65275 0.7996 0.0
H1053 H 0.6029 0.68207 0.80541 0.0
H1054 H 0.54498 0.7321 0.95998 0.0
H1055 H 0.58601 0.75823 0.90128 0.0
Li1056 Li 0.56999 0.90937 0.91742 0.0
Li1057 Li 0.55681 0.8751 0.91443 0.0
Li1058 Li 0.55798 0.89366 0.87961 0.0
Li1059 Li 0.53335 0.88668 0.91237 0.0
C1060 C 0.60001 0.90771 0.902 0.0
N1061 N 0.6395 0.93284 0.91143 0.0
C1062 C 0.60965 0.90279 0.91939 0.0
C1063 C 0.61049 0.92537 0.88933 0.0
C1064 C 0.62962 0.91569 0.92389 0.0
C1065 C 0.63043 0.9379 0.89439 0.0
C1066 C 0.54765 0.87864 0.9602 0.0
C1067 C 0.52607 0.85767 0.99139 0.0
N1068 N 0.54162 0.85755 0.00204 0.0
C1069 C 0.56344 0.8784 0.97151 0.0
C1070 C 0.52882 0.86825 0.97023 0.0
C1071 C 0.56007 0.8676 0.99262 0.0
C1072 C 0.58759 0.94969 0.92731 0.0
N1073 N 0.58791 0.93307 0.93339 0.0
C1074 C 0.61008 0.94979 0.96567 0.0
C1075 C 0.59902 0.93286 0.95197 0.0
C1076 C 0.60933 0.9669 0.96041 0.0
C1077 C 0.59828 0.96689 0.94063 0.0
H1078 H 0.57839 0.9494 0.91276 0.0
H1079 H 0.59875 0.9194 0.95674 0.0
C1080 C 0.57347 0.85105 0.91193 0.0
N1081 N 0.55914 0.85283 0.92337 0.0
C1082 C 0.57532 0.83447 0.9155 0.0
C1083 C 0.54759 0.82172 0.9426 0.0
C1084 C 0.54617 0.8385 0.93834 0.0
C1085 C 0.56223 0.81946 0.93093 0.0
H1086 H 0.58306 0.86223 0.89935 0.0
H1087 H 0.53433 0.83975 0.9464 0.0
C1088 C 0.54883 0.92195 0.87726 0.0
N1089 N 0.54358 0.94084 0.83856 0.0
C1090 C 0.52988 0.91752 0.87047 0.0
C1091 C 0.56512 0.93614 0.8645 0.0
C1092 C 0.52753 0.9272 0.85083 0.0
C1093 C 0.56216 0.94548 0.84494 0.0
C1094 C 0.52966 0.84922 0.88521 0.0
C1095 C 0.53992 0.84486 0.86807 0.0
C1096 C 0.51401 0.83393 0.89765 0.0
C1097 C 0.53441 0.8252 0.86378 0.0
C1098 C 0.50895 0.81446 0.89283 0.0
N1099 N 0.51919 0.81054 0.87616 0.0
C1100 C 0.57768 0.89986 0.83494 0.0
C1101 C 0.54409 0.89121 0.83302 0.0
C1102 C 0.57897 0.90046 0.80998 0.0
N1103 N 0.56044 0.8954 0.84585 0.0
C1104 C 0.54478 0.8919 0.80809 0.0
C1105 C 0.56236 0.89645 0.79618 0.0
H1106 H 0.59031 0.9026 0.8456 0.0
H1107 H 0.53047 0.88728 0.84221 0.0
C1108 C 0.50719 0.89624 0.93396 0.0
N1109 N 0.50821 0.88297 0.91926 0.0
C1110 C 0.48929 0.89568 0.93737 0.0
C1111 C 0.47376 0.86739 0.91104 0.0
C1112 C 0.492 0.86859 0.90801 0.0
C1113 C 0.47235 0.88131 0.92551 0.0
H1114 H 0.52043 0.90762 0.94243 0.0
H1115 H 0.49339 0.85854 0.89599 0.0
O1116 O 0.58041 0.89537 0.89749 0.0
O1117 O 0.55061 0.88923 0.93963 0.0
O1118 O 0.55142 0.9124 0.89622 0.0
O1119 O 0.53525 0.8684 0.89019 0.0
H1120 H 0.60176 0.8893 0.92957 0.0
H1121 H 0.60329 0.92943 0.87583 0.0
H1122 H 0.63723 0.91211 0.93739 0.0
H1123 H 0.63869 0.95165 0.88479 0.0
H1124 H 0.51156 0.84952 -0.00068 0.0
H1125 H 0.57804 0.88611 0.96384 0.0
H1126 H 0.51644 0.86831 0.96174 0.0
H1127 H 0.57212 0.86716 0.00147 0.0
H1128 H 0.61825 0.94918 0.98098 0.0
H1129 H 0.59742 0.97986 0.93598 0.0
H1130 H 0.58645 0.83313 0.90555 0.0
H1131 H 0.53715 0.81051 0.95462 0.0
H1132 H 0.51708 0.9066 0.88009 0.0
H1133 H 0.57988 0.93981 0.86953 0.0
H1134 H 0.51295 0.92384 0.84531 0.0
H1135 H 0.57463 0.95639 0.83482 0.0
H1136 H 0.55217 0.85654 0.85842 0.0
H1137 H 0.50609 0.83708 0.91119 0.0
H1138 H 0.54229 0.8216 0.85069 0.0
H1139 H 0.49697 0.80248 0.90245 0.0
H1140 H 0.59272 0.90363 0.80162 0.0
H1141 H 0.53165 0.88895 0.79831 0.0
H1142 H 0.48876 0.90659 0.94878 0.0
H1143 H 0.4611 0.85629 0.90131 0.0
Li1144 Li 0.66138 0.56918 0.42298 0.0
Li1145 Li 0.68255 0.5566 0.41715 0.0
Li1146 Li 0.66545 0.5605 0.38252 0.0
Li1147 Li 0.64715 0.53442 0.41519 0.0
C1148 C 0.69585 0.60076 0.39979 0.0
N1149 N 0.71723 0.64102 0.39243 0.0
C1150 C 0.71269 0.61249 0.41345 0.0
C1151 C 0.69016 0.60947 0.38202 0.0
C1152 C 0.72321 0.63283 0.40957 0.0
C1153 C 0.70108 0.62985 0.37868 0.0
C1154 C 0.6721 0.55578 0.46475 0.0
C1155 C 0.67619 0.55037 0.50635 0.0
N1156 N 0.69076 0.5695 0.50828 0.0
C1157 C 0.68708 0.57537 0.46716 0.0
C1158 C 0.66656 0.54316 0.48448 0.0
C1159 C 0.69634 0.58204 0.48931 0.0
C1160 C 0.64631 0.5793 0.46236 0.0
N1161 N 0.65602 0.58661 0.44134 0.0
C1162 C 0.65477 0.61623 0.44667 0.0
C1163 C 0.66023 0.60468 0.4333 0.0
C1164 C 0.64484 0.60905 0.46848 0.0
C1165 C 0.64071 0.59037 0.47637 0.0
H1166 H 0.64235 0.56457 0.46794 0.0
H1167 H 0.66725 0.60996 0.41622 0.0
C1168 C 0.72183 0.56909 0.40941 0.0
N1169 N 0.70682 0.55832 0.42483 0.0
C1170 C 0.73965 0.56938 0.4117 0.0
C1171 C 0.72663 0.54839 0.44657 0.0
C1172 C 0.70887 0.54819 0.44333 0.0
C1173 C 0.74205 0.55874 0.43028 0.0
H1174 H 0.71963 0.57679 0.39474 0.0
H1175 H 0.69654 0.5394 0.45499 0.0
C1176 C 0.62822 0.56076 0.40173 0.0
N1177 N 0.60476 0.5775 0.40793 0.0
C1178 C 0.6137 0.55366 0.41947 0.0
C1179 C 0.63064 0.57619 0.38692 0.0
C1180 C 0.60205 0.56237 0.42239 0.0
C1181 C 0.61867 0.5845 0.39038 0.0
C1182 C 0.6786 0.52834 0.38844 0.0
C1183 C 0.69263 0.53491 0.37014 0.0
C1184 C 0.67679 0.51359 0.40405 0.0
C1185 C 0.70484 0.52675 0.36794 0.0
C1186 C 0.68927 0.50579 0.40125 0.0
N1187 N 0.70293 0.5125 0.38343 0.0
C1188 C 0.68352 0.57565 0.33762 0.0
C1189 C 0.64873 0.55529 0.3373 0.0
C1190 C 0.68385 0.57737 0.31271 0.0
N1191 N 0.66613 0.56468 0.34925 0.0
C1192 C 0.64838 0.55647 0.31242 0.0
C1193 C 0.66612 0.56745 0.29981 0.0
H1194 H 0.69715 0.5827 0.34767 0.0
H1195 H 0.63517 0.54656 0.34711 0.0
C1196 C 0.61329 0.50464 0.43852 0.0
N1197 N 0.62565 0.5088 0.41959 0.0
C1198 C 0.59604 0.48635 0.44002 0.0
C1199 C 0.60514 0.47679 0.4031 0.0
C1200 C 0.6221 0.49529 0.40223 0.0
C1201 C 0.59159 0.47226 0.42188 0.0
H1202 H 0.61652 0.51578 0.45199 0.0
H1203 H 0.6322 0.49909 0.38735 0.0
O1204 O 0.68567 0.58075 0.40292 0.0
O1205 O 0.66285 0.54884 0.44322 0.0
O1206 O 0.64023 0.55289 0.39913 0.0
O1207 O 0.66705 0.53669 0.39149 0.0
H1208 H 0.71771 0.60597 0.42677 0.0
H1209 H 0.67731 0.60064 0.37111 0.0
H1210 H 0.73621 0.64208 0.4201 0.0
H1211 H 0.69672 0.63679 0.36514 0.0
H1212 H 0.67208 0.54076 0.52177 0.0
H1213 H 0.69137 0.58533 0.45214 0.0
H1214 H 0.65497 0.52793 0.48288 0.0
H1215 H 0.70795 0.59718 0.49142 0.0
H1216 H 0.6581 0.63053 0.43991 0.0
H1217 H 0.63259 0.58407 0.49277 0.0
H1218 H 0.7513 0.57747 0.39883 0.0
H1219 H 0.72801 0.53985 0.46091 0.0
H1220 H 0.61168 0.54176 0.43111 0.0
H1221 H 0.64174 0.58179 0.37302 0.0
H1222 H 0.59089 0.55716 0.43621 0.0
H1223 H 0.62047 0.59654 0.37916 0.0
H1224 H 0.69425 0.54639 0.35798 0.0
H1225 H 0.66606 0.50845 0.4184 0.0
H1226 H 0.71589 0.5318 0.35399 0.0
H1227 H 0.68816 0.49448 0.41332 0.0
H1228 H 0.69783 0.58578 0.30359 0.0
H1229 H 0.6344 0.54875 0.3031 0.0
H1230 H 0.58595 0.48359 0.45468 0.0
H1231 H 0.6025 0.46629 0.38897 0.0
Li1232 Li 0.12078 0.68103 0.91685 0.0
Li1233 Li 0.08716 0.66045 0.9242 0.0
Li1234 Li 0.1068 0.64556 0.91429 0.0
Li1235 Li 0.09843 0.66438 0.88323 0.0
C1236 C 0.11211 0.67021 0.96462 0.0
N1237 N 0.11809 0.68838 0.00868 0.0
C1238 C 0.10827 0.68566 0.96774 0.0
C1239 C 0.11895 0.66396 0.98391 0.0
C1240 C 0.11139 0.69466 0.99014 0.0
C1241 C 0.1219 0.67334 0.00605 0.0
C1242 C 0.09004 0.69521 0.90155 0.0
C1243 C 0.06592 0.70065 0.88145 0.0
N1244 N 0.07134 0.71687 0.89525 0.0
C1245 C 0.09555 0.7121 0.91531 0.0
C1246 C 0.07526 0.68957 0.88428 0.0
C1247 C 0.08584 0.72278 0.91195 0.0
C1248 C 0.14669 0.72085 0.91114 0.0
N1249 N 0.1436 0.7051 0.92452 0.0
C1250 C 0.17345 0.72472 0.94616 0.0
C1251 C 0.1565 0.70662 0.94181 0.0
C1252 C 0.17704 0.74128 0.93256 0.0
C1253 C 0.16337 0.73916 0.91488 0.0
H1254 H 0.1363 0.71907 0.89725 0.0
H1255 H 0.15375 0.69375 0.95197 0.0
C1256 C 0.06203 0.64276 0.96256 0.0
N1257 N 0.06548 0.6556 0.94437 0.0
C1258 C 0.04587 0.63691 0.97761 0.0
C1259 C 0.03732 0.65803 0.95538 0.0
C1260 C 0.0536 0.66336 0.94065 0.0
C1261 C 0.03316 0.64445 0.974 0.0
H1262 H 0.07155 0.63658 0.96493 0.0
H1263 H 0.05636 0.67335 0.92603 0.0
C1264 C 0.14414 0.67594 0.88834 0.0
N1265 N 0.18473 0.69789 0.8856 0.0
C1266 C 0.15316 0.69089 0.87127 0.0
C1267 C 0.15574 0.67208 0.90395 0.0
C1268 C 0.17371 0.70185 0.8702 0.0
C1269 C 0.17625 0.68335 0.90228 0.0
C1270 C 0.06137 0.62684 0.90473 0.0
C1271 C 0.05547 0.61065 0.91989 0.0
C1272 C 0.04721 0.6306 0.8948 0.0
C1273 C 0.03548 0.59865 0.92518 0.0
C1274 C 0.02737 0.61827 0.90055 0.0
N1275 N 0.02197 0.6027 0.91551 0.0
C1276 C 0.10433 0.61246 0.93788 0.0
C1277 C 0.11919 0.61953 0.89946 0.0
C1278 C 0.10572 0.5954 0.93946 0.0
N1279 N 0.11074 0.62387 0.91792 0.0
C1280 C 0.1211 0.60279 0.90039 0.0
C1281 C 0.11396 0.59021 0.92037 0.0
H1282 H 0.09761 0.61632 0.95225 0.0
H1283 H 0.12416 0.62893 0.88382 0.0
C1284 C 0.10418 0.68255 0.83824 0.0
N1285 N 0.09351 0.6654 0.8504 0.0
C1286 C 0.10194 0.68313 0.81351 0.0
C1287 C 0.07713 0.64857 0.81459 0.0
C1288 C 0.08 0.64863 0.83924 0.0
C1289 C 0.08848 0.66588 0.80128 0.0
H1290 H 0.11476 0.69566 0.8477 0.0
H1291 H 0.07174 0.6352 0.84944 0.0
O1292 O 0.10926 0.66119 0.94284 0.0
O1293 O 0.09964 0.68478 0.90433 0.0
O1294 O 0.12407 0.66552 0.89028 0.0
O1295 O 0.08094 0.63913 0.89996 0.0
H1296 H 0.10285 0.69056 0.95305 0.0
H1297 H 0.12199 0.652 0.98176 0.0
H1298 H 0.10846 0.70664 0.9928 0.0
H1299 H 0.12722 0.66867 0.02114 0.0
H1300 H 0.05437 0.69636 0.86826 0.0
H1301 H 0.10727 0.717 0.92836 0.0
H1302 H 0.07093 0.67672 0.87325 0.0
H1303 H 0.0899 0.73582 0.92255 0.0
H1304 H 0.18361 0.72574 0.95999 0.0
H1305 H 0.16577 0.75142 0.90361 0.0
H1306 H 0.04304 0.6261 0.9914 0.0
H1307 H 0.02802 0.66435 0.95208 0.0
H1308 H 0.1444 0.69413 0.85915 0.0
H1309 H 0.14898 0.66071 0.91745 0.0
H1310 H 0.1809 0.71354 0.85717 0.0
H1311 H 0.18542 0.68061 0.91434 0.0
H1312 H 0.06622 0.60752 0.92771 0.0
H1313 H 0.05149 0.643 0.88297 0.0
H1314 H 0.03073 0.58617 0.93704 0.0
H1315 H 0.01627 0.6211 0.89315 0.0
H1316 H 0.09981 0.58608 0.95509 0.0
H1317 H 0.12793 0.59964 0.88547 0.0
H1318 H 0.11119 0.69675 0.80401 0.0
H1319 H 0.06634 0.63503 0.80603 0.0
Li1320 Li 0.42073 0.08979 0.42153 0.0
Li1321 Li 0.43484 0.12318 0.41568 0.0
Li1322 Li 0.43017 0.10181 0.38115 0.0
Li1323 Li 0.45629 0.10934 0.4142 0.0
C1324 C 0.39033 0.09205 0.40486 0.0
N1325 N 0.35028 0.06983 0.4131 0.0
C1326 C 0.38233 0.09436 0.42615 0.0
C1327 C 0.37795 0.07863 0.38762 0.0
C1328 C 0.36205 0.08292 0.43003 0.0
C1329 C 0.35774 0.06749 0.39216 0.0
C1330 C 0.44644 0.12267 0.46087 0.0
C1331 C 0.47112 0.14709 0.48692 0.0
N1332 N 0.45669 0.14783 0.49963 0.0
C1333 C 0.43185 0.12351 0.47434 0.0
C1334 C 0.46623 0.13442 0.4673 0.0
C1335 C 0.43734 0.1364 0.49381 0.0
C1336 C 0.40585 0.06807 0.46363 0.0
N1337 N 0.40217 0.06765 0.4398 0.0
C1338 C 0.37465 0.03502 0.44308 0.0
C1339 C 0.38681 0.05163 0.42941 0.0
C1340 C 0.37843 0.03488 0.46765 0.0
C1341 C 0.3941 0.05181 0.47796 0.0
H1342 H 0.41835 0.0808 0.47141 0.0
H1343 H 0.38435 0.05144 0.41038 0.0
C1344 C 0.41808 0.14733 0.41571 0.0
N1345 N 0.43403 0.14647 0.42361 0.0
C1346 C 0.41681 0.16425 0.41932 0.0
C1347 C 0.44832 0.17912 0.43942 0.0
C1348 C 0.44907 0.16196 0.43519 0.0
C1349 C 0.4321 0.18049 0.43124 0.0
H1350 H 0.40656 0.13507 0.40598 0.0
H1351 H 0.46189 0.16124 0.44066 0.0
C1352 C 0.4286 0.06397 0.40051 0.0
N1353 N 0.41132 0.02357 0.40509 0.0
C1354 C 0.43345 0.05589 0.41985 0.0
C1355 C 0.4151 0.05152 0.38337 0.0
C1356 C 0.42449 0.03542 0.4219 0.0
C1357 C 0.40651 0.03113 0.38602 0.0
C1358 C 0.46205 0.14645 0.38479 0.0
C1359 C 0.45182 0.1522 0.36934 0.0
C1360 C 0.47971 0.16071 0.39516 0.0
C1361 C 0.45935 0.17223 0.36469 0.0
C1362 C 0.48678 0.18059 0.39002 0.0
N1363 N 0.47653 0.18589 0.37505 0.0
C1364 C 0.4135 0.10189 0.33605 0.0
C1365 C 0.43684 0.09102 0.33632 0.0
C1366 C 0.41152 0.09959 0.31121 0.0
N1367 N 0.42604 0.09763 0.34794 0.0
C1368 C 0.43539 0.0886 0.31154 0.0
C1369 C 0.42274 0.09308 0.29864 0.0
H1370 H 0.40532 0.10739 0.34581 0.0
H1371 H 0.44676 0.08787 0.34633 0.0
C1372 C 0.48395 0.10253 0.43799 0.0
N1373 N 0.48128 0.112 0.41924 0.0
C1374 C 0.50176 0.10273 0.44063 0.0
C1375 C 0.51392 0.12307 0.40516 0.0
C1376 C 0.4958 0.12227 0.40304 0.0
C1377 C 0.51692 0.11292 0.42391 0.0
H1378 H 0.4721 0.09452 0.45061 0.0
H1379 H 0.49311 0.12941 0.38812 0.0
O1380 O 0.41014 0.10314 0.40074 0.0
O1381 O 0.44136 0.11003 0.44187 0.0
O1382 O 0.43688 0.08394 0.39844 0.0
O1383 O 0.45461 0.12697 0.39007 0.0
H1384 H 0.39169 0.10484 0.43954 0.0
H1385 H 0.38391 0.0766 0.37108 0.0
H1386 H 0.35567 0.08447 0.44649 0.0
H1387 H 0.348 0.05693 0.37906 0.0
H1388 H 0.48638 0.15638 0.49201 0.0
H1389 H 0.41646 0.11433 0.46979 0.0
H1390 H 0.47772 0.13395 0.45711 0.0
H1391 H 0.42621 0.13729 0.50431 0.0
H1392 H 0.36266 0.0223 0.43443 0.0
H1393 H 0.39781 0.05221 0.49672 0.0
H1394 H 0.40425 0.16478 0.41213 0.0
H1395 H 0.46043 0.19122 0.44877 0.0
H1396 H 0.44377 0.06532 0.43334 0.0
H1397 H 0.41109 0.05754 0.36837 0.0
H1398 H 0.42797 0.02896 0.4369 0.0
H1399 H 0.39595 0.02132 0.37298 0.0
H1400 H 0.43806 0.14132 0.36129 0.0
H1401 H 0.4877 0.1565 0.40734 0.0
H1402 H 0.45152 0.17692 0.35291 0.0
H1403 H 0.50036 0.19181 0.39804 0.0
H1404 H 0.40179 0.10343 0.30187 0.0
H1405 H 0.44415 0.08336 0.30254 0.0
H1406 H 0.5036 0.09485 0.45542 0.0
H1407 H 0.52518 0.13087 0.39175 0.0
Li1408 Li 0.31353 0.43885 0.91625 0.0
Li1409 Li 0.33501 0.42684 0.92297 0.0
Li1410 Li 0.3486 0.46172 0.91421 0.0
Li1411 Li 0.33058 0.43509 0.88259 0.0
C1412 C 0.33079 0.45564 0.962 0.0
N1413 N 0.32609 0.47335 0.00233 0.0
C1414 C 0.32385 0.44499 0.98331 0.0
C1415 C 0.33558 0.47539 0.96132 0.0
C1416 C 0.32149 0.45417 0.00347 0.0
C1417 C 0.33304 0.48405 0.98187 0.0
C1418 C 0.29663 0.39778 0.91496 0.0
C1419 C 0.27114 0.36358 0.9153 0.0
N1420 N 0.26802 0.36511 0.93897 0.0
C1421 C 0.29317 0.399 0.93928 0.0
C1422 C 0.28554 0.37993 0.90285 0.0
C1423 C 0.27865 0.38233 0.9511 0.0
C1424 C 0.27377 0.42418 0.90792 0.0
N1425 N 0.28835 0.43606 0.92333 0.0
C1426 C 0.26647 0.44393 0.94398 0.0
C1427 C 0.285 0.44576 0.94127 0.0
C1428 C 0.25126 0.43206 0.928 0.0
C1429 C 0.25506 0.42196 0.90992 0.0
H1430 H 0.27687 0.41687 0.89356 0.0
H1431 H 0.29667 0.45526 0.95321 0.0
C1432 C 0.35011 0.41763 0.96248 0.0
N1433 N 0.34013 0.40989 0.94179 0.0
C1434 C 0.35491 0.4064 0.97734 0.0
C1435 C 0.33901 0.37936 0.94928 0.0
C1436 C 0.33449 0.39116 0.93493 0.0
C1437 C 0.34936 0.38699 0.97081 0.0
H1438 H 0.35462 0.43268 0.96724 0.0
H1439 H 0.32668 0.38547 0.91823 0.0
C1440 C 0.31488 0.464 0.88403 0.0
N1441 N 0.28689 0.47404 0.8717 0.0
C1442 C 0.30195 0.45443 0.86504 0.0
C1443 C 0.31373 0.47883 0.89658 0.0
C1444 C 0.28788 0.4597 0.85911 0.0
C1445 C 0.29943 0.48364 0.89012 0.0
C1446 C 0.36656 0.43364 0.8997 0.0
C1447 C 0.38244 0.43992 0.91545 0.0
C1448 C 0.36108 0.41713 0.88525 0.0
C1449 C 0.39252 0.42944 0.91662 0.0
C1450 C 0.37156 0.40707 0.88693 0.0
N1451 N 0.38691 0.41337 0.90247 0.0
C1452 C 0.38427 0.49072 0.93459 0.0
C1453 C 0.37109 0.50222 0.90457 0.0
C1454 C 0.40094 0.50939 0.93663 0.0
N1455 N 0.36998 0.48749 0.91848 0.0
C1456 C 0.38737 0.52116 0.9062 0.0
C1457 C 0.4028 0.52489 0.92207 0.0
H1458 H 0.38287 0.47868 0.94549 0.0
H1459 H 0.35944 0.49917 0.89194 0.0
C1460 C 0.31663 0.41346 0.83903 0.0
N1461 N 0.33023 0.43059 0.84947 0.0
C1462 C 0.31603 0.41156 0.8141 0.0
C1463 C 0.34361 0.44484 0.81146 0.0
C1464 C 0.34371 0.44605 0.83634 0.0
C1465 C 0.32945 0.42753 0.80001 0.0
H1466 H 0.30599 0.4015 0.85001 0.0
H1467 H 0.35428 0.45949 0.84527 0.0
O1468 O 0.33355 0.44693 0.94227 0.0
O1469 O 0.31086 0.41386 0.90296 0.0
O1470 O 0.32835 0.45862 0.89056 0.0
O1471 O 0.35602 0.44323 0.89891 0.0
H1472 H 0.32038 0.42979 0.98433 0.0
H1473 H 0.34095 0.48389 0.94508 0.0
H1474 H 0.31607 0.44608 0.02004 0.0
H1475 H 0.33656 0.49927 0.98152 0.0
H1476 H 0.26246 0.34967 0.90615 0.0
H1477 H 0.30154 0.41265 0.94892 0.0
H1478 H 0.28805 0.3787 0.88404 0.0
H1479 H 0.27582 0.3831 0.96992 0.0
H1480 H 0.26412 0.45185 0.9583 0.0
H1481 H 0.24389 0.41295 0.89692 0.0
H1482 H 0.36329 0.41302 0.99349 0.0
H1483 H 0.33443 0.36445 0.94364 0.0
H1484 H 0.30257 0.44286 0.8552 0.0
H1485 H 0.32363 0.4864 0.91129 0.0
H1486 H 0.27767 0.45231 0.84458 0.0
H1487 H 0.29826 0.49498 0.8998 0.0
H1488 H 0.38678 0.4526 0.92685 0.0
H1489 H 0.34871 0.41197 0.87313 0.0
H1490 H 0.40476 0.43405 0.92885 0.0
H1491 H 0.36742 0.39419 0.87596 0.0
H1492 H 0.41251 0.51144 0.94891 0.0
H1493 H 0.38794 0.53269 0.89496 0.0
H1494 H 0.3048 0.39804 0.80593 0.0
H1495 H 0.35438 0.45738 0.80126 0.0
Li1496 Li 0.87007 0.3079 0.41687 0.0
Li1497 Li 0.90332 0.32719 0.42297 0.0
Li1498 Li 0.8839 0.34317 0.41439 0.0
Li1499 Li 0.89161 0.32391 0.38233 0.0
C1500 C 0.87037 0.32004 0.46168 0.0
N1501 N 0.84514 0.30412 0.50023 0.0
C1502 C 0.8699 0.30463 0.47481 0.0
C1503 C 0.85818 0.32752 0.46833 0.0
C1504 C 0.85698 0.29672 0.49418 0.0
C1505 C 0.84549 0.31924 0.48785 0.0
C1506 C 0.90181 0.29477 0.40666 0.0
C1507 C 0.92712 0.28793 0.39363 0.0
N1508 N 0.92522 0.27819 0.41451 0.0
C1509 C 0.89995 0.28452 0.42787 0.0
C1510 C 0.91538 0.29637 0.38929 0.0
C1511 C 0.91199 0.27632 0.43156 0.0
C1512 C 0.84563 0.26703 0.41759 0.0
N1513 N 0.84656 0.28403 0.42477 0.0
C1514 C 0.81347 0.26625 0.43927 0.0
C1515 C 0.83091 0.28396 0.43538 0.0
C1516 C 0.81196 0.24844 0.43166 0.0
C1517 C 0.82841 0.24901 0.42079 0.0
H1518 H 0.85808 0.26749 0.40864 0.0
H1519 H 0.83171 0.29766 0.44024 0.0
C1520 C 0.92515 0.33513 0.46518 0.0
N1521 N 0.92558 0.33147 0.44147 0.0
C1522 C 0.94177 0.34089 0.47937 0.0
C1523 C 0.95886 0.33847 0.44465 0.0
C1524 C 0.9419 0.33277 0.43112 0.0
C1525 C 0.95904 0.343 0.46902 0.0
H1526 H 0.91219 0.33443 0.4729 0.0
H1527 H 0.94207 0.33024 0.41215 0.0
C1528 C 0.84696 0.31209 0.38545 0.0
N1529 N 0.80727 0.2886 0.37592 0.0
C1530 C 0.84039 0.29549 0.37084 0.0
C1531 C 0.83342 0.31689 0.39504 0.0
C1532 C 0.82023 0.28375 0.36631 0.0
C1533 C 0.81339 0.30479 0.39003 0.0
C1534 C 0.92883 0.36166 0.40269 0.0
C1535 C 0.93501 0.37417 0.42257 0.0
C1536 C 0.94276 0.36225 0.38658 0.0
C1537 C 0.95513 0.38692 0.42621 0.0
C1538 C 0.96275 0.37526 0.39081 0.0
N1539 N 0.96847 0.38718 0.4104 0.0
C1540 C 0.88697 0.37668 0.438 0.0
C1541 C 0.87506 0.3712 0.39806 0.0
C1542 C 0.88656 0.39429 0.43903 0.0
N1543 N 0.88134 0.36567 0.41766 0.0
C1544 C 0.87452 0.3887 0.39825 0.0
C1545 C 0.88056 0.40061 0.41882 0.0
H1546 H 0.89219 0.372 0.45318 0.0
H1547 H 0.87087 0.36218 0.38208 0.0
C1548 C 0.89069 0.30646 0.33742 0.0
N1549 N 0.8956 0.32349 0.34919 0.0
C1550 C 0.8921 0.30642 0.31247 0.0
C1551 C 0.90366 0.34142 0.3125 0.0
C1552 C 0.90216 0.34081 0.33738 0.0
C1553 C 0.89833 0.32402 0.29973 0.0
H1554 H 0.88519 0.29286 0.34735 0.0
H1555 H 0.90577 0.35405 0.34732 0.0
O1556 O 0.88302 0.32807 0.44277 0.0
O1557 O 0.89013 0.30286 0.40271 0.0
O1558 O 0.86655 0.32346 0.39061 0.0
O1559 O 0.90924 0.34872 0.39915 0.0
H1560 H 0.8794 0.29883 0.47007 0.0
H1561 H 0.85831 0.3394 0.45834 0.0
H1562 H 0.85639 0.28472 0.50442 0.0
H1563 H 0.83588 0.32479 0.49309 0.0
H1564 H 0.93779 0.28919 0.38044 0.0
H1565 H 0.88934 0.28294 0.44134 0.0
H1566 H 0.91703 0.30429 0.3728 0.0
H1567 H 0.91079 0.26844 0.44795 0.0
H1568 H 0.80127 0.26657 0.44788 0.0
H1569 H 0.82784 0.23578 0.41406 0.0
H1570 H 0.94136 0.34461 0.49796 0.0
H1571 H 0.97184 0.33982 0.43599 0.0
H1572 H 0.85072 0.29158 0.36338 0.0
H1573 H 0.83831 0.32966 0.40646 0.0
H1574 H 0.81489 0.27076 0.3552 0.0
H1575 H 0.80271 0.30823 0.39744 0.0
H1576 H 0.92438 0.3738 0.43525 0.0
H1577 H 0.93818 0.35261 0.37114 0.0
H1578 H 0.96016 0.39655 0.44165 0.0
H1579 H 0.97372 0.3758 0.37859 0.0
H1580 H 0.89152 0.40317 0.45513 0.0
H1581 H 0.86961 0.39298 0.38239 0.0
H1582 H 0.88766 0.29268 0.30321 0.0
H1583 H 0.90869 0.3553 0.30331 0.0
Li1584 Li 0.10717 0.46196 0.57862 0.0
Li1585 Li 0.09892 0.43594 0.60973 0.0
Li1586 Li 0.1192 0.43875 0.5759 0.0
Li1587 Li 0.08521 0.42576 0.5709 0.0
C1588 C 0.14327 0.46421 0.60814 0.0
N1589 N 0.18108 0.47382 0.62101 0.0
C1590 C 0.14629 0.45277 0.62496 0.0
C1591 C 0.15947 0.48057 0.59792 0.0
C1592 C 0.16552 0.45786 0.63121 0.0
C1593 C 0.17847 0.48518 0.60466 0.0
C1594 C 0.07103 0.44499 0.61211 0.0
C1595 C 0.04782 0.43056 0.64461 0.0
N1596 N 0.05206 0.44888 0.65171 0.0
C1597 C 0.07509 0.46366 0.61969 0.0
C1598 C 0.05721 0.42829 0.62461 0.0
C1599 C 0.06536 0.46532 0.63974 0.0
C1600 C 0.09897 0.49009 0.55903 0.0
N1601 N 0.11142 0.48762 0.57365 0.0
C1602 C 0.1278 0.52157 0.58476 0.0
C1603 C 0.12573 0.50286 0.58631 0.0
C1604 C 0.11479 0.52453 0.57037 0.0
C1605 C 0.10039 0.50853 0.5571 0.0
H1606 H 0.08753 0.47756 0.54949 0.0
H1607 H 0.13514 0.50036 0.59818 0.0
C1608 C 0.08953 0.41452 0.65381 0.0
N1609 N 0.09614 0.4324 0.64335 0.0
C1610 C 0.0884 0.41279 0.67875 0.0
C1611 C 0.10104 0.44791 0.68148 0.0
C1612 C 0.10193 0.44894 0.65658 0.0
C1613 C 0.09434 0.42968 0.69289 0.0
H1614 H 0.08546 0.40168 0.64286 0.0
H1615 H 0.10735 0.46299 0.64771 0.0
C1616 C 0.11886 0.45139 0.53117 0.0
N1617 N 0.14385 0.46199 0.49217 0.0
C1618 C 0.12089 0.43709 0.51855 0.0
C1619 C 0.12948 0.47108 0.52385 0.0
C1620 C 0.13363 0.44275 0.49892 0.0
C1621 C 0.14205 0.47614 0.50411 0.0
C1622 C 0.08639 0.39531 0.58379 0.0
C1623 C 0.09211 0.38762 0.56483 0.0
C1624 C 0.06826 0.38351 0.59502 0.0
C1625 C 0.07955 0.36824 0.5574 0.0
C1626 C 0.0561 0.36422 0.58703 0.0
N1627 N 0.06195 0.35704 0.56854 0.0
C1628 C 0.14307 0.42189 0.57891 0.0
C1629 C 0.15743 0.45101 0.55552 0.0
C1630 C 0.15996 0.42039 0.57666 0.0
N1631 N 0.14205 0.43697 0.56835 0.0
C1632 C 0.17457 0.44998 0.55259 0.0
C1633 C 0.17607 0.43461 0.56346 0.0
H1634 H 0.131 0.41138 0.58985 0.0
H1635 H 0.15671 0.46338 0.54821 0.0
C1636 C 0.0443 0.40265 0.56196 0.0
N1637 N 0.06246 0.40789 0.55325 0.0
C1638 C 0.02748 0.39015 0.54882 0.0
C1639 C 0.04836 0.38861 0.51803 0.0
C1640 C 0.06476 0.4011 0.5318 0.0
C1641 C 0.02943 0.38315 0.52641 0.0
H1642 H 0.04288 0.40845 0.5789 0.0
H1643 H 0.07932 0.40549 0.52528 0.0
O1644 O 0.12456 0.45907 0.60123 0.0
O1645 O 0.08069 0.44308 0.59276 0.0
O1646 O 0.10628 0.44617 0.55026 0.0
O1647 O 0.09828 0.41442 0.59095 0.0
H1648 H 0.13393 0.43991 0.63282 0.0
H1649 H 0.15741 0.48938 0.58456 0.0
H1650 H 0.16808 0.44907 0.64408 0.0
H1651 H 0.19115 0.49771 0.59676 0.0
H1652 H 0.03723 0.41777 0.65456 0.0
H1653 H 0.08574 0.47677 0.61033 0.0
H1654 H 0.05403 0.41373 0.61924 0.0
H1655 H 0.06843 0.47968 0.64584 0.0
H1656 H 0.13927 0.53349 0.59508 0.0
H1657 H 0.08983 0.51 0.54609 0.0
H1658 H 0.08342 0.39851 0.68686 0.0
H1659 H 0.10556 0.46125 0.69168 0.0
H1660 H 0.11309 0.42185 0.52413 0.0
H1661 H 0.12809 0.48236 0.53332 0.0
H1662 H 0.13546 0.43186 0.48913 0.0
H1663 H 0.15038 0.49132 0.4983 0.0
H1664 H 0.10598 0.39657 0.55573 0.0
H1665 H 0.06345 0.38927 0.6095 0.0
H1666 H 0.08376 0.36213 0.54268 0.0
H1667 H 0.04197 0.35498 0.59545 0.0
H1668 H 0.16063 0.40861 0.58594 0.0
H1669 H 0.1866 0.46128 0.54225 0.0
H1670 H 0.01316 0.38655 0.55574 0.0
H1671 H 0.05048 0.38341 0.50092 0.0
Li1672 Li 0.64708 0.11005 0.08135 0.0
Li1673 Li 0.66502 0.10196 0.11264 0.0
Li1674 Li 0.68212 0.12198 0.07861 0.0
Li1675 Li 0.66126 0.08777 0.07373 0.0
C1676 C 0.68063 0.14659 0.10974 0.0
N1677 N 0.70845 0.18515 0.12006 0.0
C1678 C 0.69554 0.15068 0.12634 0.0
C1679 C 0.67976 0.16207 0.09851 0.0
C1680 C 0.7095 0.17029 0.13128 0.0
C1681 C 0.69399 0.18148 0.10395 0.0
C1682 C 0.62763 0.07337 0.11433 0.0
C1683 C 0.61743 0.04829 0.14477 0.0
N1684 N 0.60367 0.05278 0.15248 0.0
C1685 C 0.61329 0.07763 0.12245 0.0
C1686 C 0.62962 0.05848 0.12546 0.0
C1687 C 0.60135 0.06708 0.14179 0.0
C1688 C 0.61186 0.10145 0.05945 0.0
N1689 N 0.6255 0.11371 0.07551 0.0
C1690 C 0.60561 0.12772 0.08602 0.0
C1691 C 0.62289 0.12687 0.08854 0.0
C1692 C 0.59092 0.11477 0.07012 0.0
C1693 C 0.59435 0.10175 0.05642 0.0
H1694 H 0.61436 0.09104 0.04954 0.0
H1695 H 0.63387 0.13614 0.10153 0.0
C1696 C 0.67793 0.09304 0.15615 0.0
N1697 N 0.66565 0.09861 0.14616 0.0
C1698 C 0.678 0.09064 0.18094 0.0
C1699 C 0.6529 0.09986 0.18451 0.0
C1700 C 0.65353 0.10235 0.15977 0.0
C1701 C 0.66523 0.0939 0.19536 0.0
H1702 H 0.68772 0.09058 0.14493 0.0
H1703 H 0.64431 0.10726 0.15134 0.0
C1704 C 0.66935 0.11937 0.03284 0.0
N1705 N 0.68447 0.1408 0.99123 0.0
C1706 C 0.68543 0.11975 0.02148 0.0
C1707 C 0.66089 0.1298 0.02298 0.0
C1708 C 0.69289 0.13071 0.00049 0.0
C1709 C 0.66875 0.14056 0.00193 0.0
C1710 C 0.6932 0.08917 0.08788 0.0
C1711 C 0.70814 0.09511 0.07078 0.0
C1712 C 0.68584 0.07086 0.09905 0.0
C1713 C 0.71538 0.08255 0.06504 0.0
C1714 C 0.69344 0.0587 0.09278 0.0
N1715 N 0.70793 0.06475 0.07604 0.0
C1716 C 0.72284 0.14657 0.08068 0.0
C1717 C 0.70728 0.15926 0.05585 0.0
C1718 C 0.7411 0.16336 0.07697 0.0
N1719 N 0.70643 0.14475 0.07004 0.0
C1720 C 0.72528 0.17626 0.05146 0.0
C1721 C 0.7425 0.17854 0.06222 0.0
H1722 H 0.72165 0.1352 0.09267 0.0
H1723 H 0.69396 0.15794 0.04845 0.0
C1724 C 0.63782 0.04831 0.06089 0.0
N1725 N 0.65533 0.06472 0.05607 0.0
C1726 C 0.63106 0.03164 0.04651 0.0
C1727 C 0.66083 0.04875 0.02293 0.0
C1728 C 0.66694 0.06519 0.03767 0.0
C1729 C 0.64243 0.03192 0.02696 0.0
H1730 H 0.62869 0.0484 0.0753 0.0
H1731 H 0.68059 0.0785 0.03385 0.0
O1732 O 0.66722 0.1275 0.10412 0.0
O1733 O 0.63972 0.08379 0.09569 0.0
O1734 O 0.66173 0.10868 0.05333 0.0
O1735 O 0.68579 0.10119 0.09364 0.0
H1736 H 0.69646 0.13884 0.13507 0.0
H1737 H 0.66841 0.15912 0.08544 0.0
H1738 H 0.7212 0.17369 0.14396 0.0
H1739 H 0.6936 0.19362 0.09527 0.0
H1740 H 0.61891 0.03683 0.15365 0.0
H1741 H 0.6115 0.08907 0.11409 0.0
H1742 H 0.64056 0.05492 0.11935 0.0
H1743 H 0.59028 0.0703 0.14834 0.0
H1744 H 0.6034 0.13778 0.09715 0.0
H1745 H 0.58347 0.09165 0.04382 0.0
H1746 H 0.68776 0.08609 0.18872 0.0
H1747 H 0.64314 0.10288 0.1951 0.0
H1748 H 0.69233 0.112 0.02904 0.0
H1749 H 0.64843 0.12965 0.03153 0.0
H1750 H 0.70542 0.13126 0.99161 0.0
H1751 H 0.66239 0.14874 0.99413 0.0
H1752 H 0.71391 0.10913 0.06175 0.0
H1753 H 0.67429 0.06601 0.1123 0.0
H1754 H 0.72687 0.08692 0.05174 0.0
H1755 H 0.6878 0.04445 0.10121 0.0
H1756 H 0.75385 0.1647 0.08623 0.0
H1757 H 0.72564 0.18758 0.04 0.0
H1758 H 0.61682 0.01885 0.05023 0.0
H1759 H 0.66989 0.04955 0.00785 0.0
Li1760 Li 0.56179 0.66295 0.61309 0.0
Li1761 Li 0.53507 0.64373 0.58162 0.0
Li1762 Li 0.56962 0.65976 0.57208 0.0
Li1763 Li 0.55543 0.67936 0.57962 0.0
C1764 C 0.56303 0.62647 0.59103 0.0
N1765 N 0.57994 0.60389 0.5797 0.0
C1766 C 0.55416 0.61136 0.57413 0.0
C1767 C 0.58036 0.62994 0.6024 0.0
C1768 C 0.56297 0.60014 0.56859 0.0
C1769 C 0.58872 0.61841 0.59637 0.0
C1770 C 0.52615 0.67238 0.60835 0.0
C1771 C 0.50108 0.6791 0.59405 0.0
N1772 N 0.50542 0.69221 0.61221 0.0
C1773 C 0.5303 0.68583 0.62696 0.0
C1774 C 0.51138 0.6689 0.5918 0.0
C1775 C 0.51967 0.69574 0.62857 0.0
C1776 C 0.57366 0.68137 0.65789 0.0
N1777 N 0.56754 0.66416 0.64599 0.0
C1778 C 0.56697 0.64774 0.68221 0.0
C1779 C 0.56439 0.64756 0.65747 0.0
C1780 C 0.57259 0.66513 0.69523 0.0
C1781 C 0.57626 0.68219 0.68267 0.0
H1782 H 0.57601 0.69432 0.64818 0.0
H1783 H 0.55945 0.63407 0.64748 0.0
C1784 C 0.50482 0.61051 0.5576 0.0
N1785 N 0.50976 0.62165 0.57781 0.0
C1786 C 0.48643 0.5934 0.55582 0.0
C1787 C 0.47844 0.60009 0.5953 0.0
C1788 C 0.49702 0.61691 0.5964 0.0
C1789 C 0.47303 0.58787 0.57499 0.0
H1790 H 0.51535 0.6147 0.54313 0.0
H1791 H 0.50141 0.6261 0.61222 0.0
C1792 C 0.60055 0.69495 0.59531 0.0
N1793 N 0.6407 0.71796 0.60248 0.0
C1794 C 0.61149 0.71232 0.58222 0.0
C1795 C 0.60998 0.68952 0.61241 0.0
C1796 C 0.63179 0.72368 0.586 0.0
C1797 C 0.6303 0.70128 0.61567 0.0
C1798 C 0.55421 0.6693 0.5317 0.0
C1799 C 0.57323 0.68538 0.52917 0.0
C1800 C 0.54147 0.66278 0.51205 0.0
C1801 C 0.5792 0.69475 0.50697 0.0
C1802 C 0.54798 0.67255 0.49014 0.0
N1803 N 0.56656 0.6882 0.48808 0.0
C1804 C 0.57889 0.64471 0.53225 0.0
C1805 C 0.60627 0.66211 0.55806 0.0
C1806 C 0.58977 0.6394 0.51747 0.0
N1807 N 0.5872 0.65581 0.55215 0.0
C1808 C 0.61769 0.65702 0.54384 0.0
C1809 C 0.60935 0.64536 0.52338 0.0
H1810 H 0.56352 0.63933 0.52833 0.0
H1811 H 0.6125 0.67047 0.57417 0.0
C1812 C 0.56505 0.71771 0.58899 0.0
N1813 N 0.55532 0.70292 0.57293 0.0
C1814 C 0.56448 0.73512 0.58696 0.0
C1815 C 0.54459 0.7221 0.55123 0.0
C1816 C 0.54521 0.70473 0.55424 0.0
C1817 C 0.55408 0.73735 0.56797 0.0
H1818 H 0.57279 0.71569 0.60378 0.0
H1819 H 0.53721 0.69256 0.54206 0.0
O1820 O 0.55499 0.63805 0.59606 0.0
O1821 O 0.53687 0.66308 0.60589 0.0
O1822 O 0.58058 0.68392 0.59223 0.0
O1823 O 0.54795 0.65989 0.55326 0.0
H1824 H 0.54077 0.60851 0.56512 0.0
H1825 H 0.5874 0.64156 0.61554 0.0
H1826 H 0.55637 0.58852 0.55538 0.0
H1827 H 0.60222 0.62104 0.60488 0.0
H1828 H 0.4897 0.67666 0.58127 0.0
H1829 H 0.54173 0.68873 0.63986 0.0
H1830 H 0.50813 0.65866 0.57716 0.0
H1831 H 0.52281 0.70629 0.64278 0.0
H1832 H 0.56429 0.63433 0.69105 0.0
H1833 H 0.58035 0.69585 0.69195 0.0
H1834 H 0.48299 0.58435 0.53993 0.0
H1835 H 0.46849 0.59665 0.6103 0.0
H1836 H 0.60438 0.71709 0.56941 0.0
H1837 H 0.60177 0.67628 0.6229 0.0
H1838 H 0.64044 0.7371 0.57591 0.0
H1839 H 0.63781 0.69715 0.62869 0.0
H1840 H 0.58328 0.69048 0.54412 0.0
H1841 H 0.52669 0.65033 0.51374 0.0
H1842 H 0.59389 0.70721 0.50477 0.0
H1843 H 0.53828 0.66768 0.47477 0.0
H1844 H 0.58265 0.63001 0.50215 0.0
H1845 H 0.63275 0.66186 0.54901 0.0
H1846 H 0.57196 0.74666 0.60015 0.0
H1847 H 0.53627 0.72337 0.53654 0.0
Li1848 Li 0.88962 0.56086 0.11195 0.0
Li1849 Li 0.88167 0.53431 0.07929 0.0
Li1850 Li 0.90348 0.56967 0.07232 0.0
Li1851 Li 0.87019 0.55766 0.07593 0.0
C1852 C 0.92662 0.55925 0.09529 0.0
N1853 N 0.96672 0.57361 0.09267 0.0
C1854 C 0.93442 0.55331 0.07669 0.0
C1855 C 0.93916 0.57234 0.11269 0.0
C1856 C 0.95475 0.5608 0.07563 0.0
C1857 C 0.95941 0.57945 0.11103 0.0
C1858 C 0.84465 0.53129 0.10633 0.0
C1859 C 0.81017 0.50814 0.10008 0.0
N1860 N 0.80547 0.51932 0.11424 0.0
C1861 C 0.8395 0.54248 0.12096 0.0
C1862 C 0.82991 0.51393 0.09588 0.0
C1863 C 0.81959 0.53621 0.12468 0.0
C1864 C 0.88932 0.57803 0.15671 0.0
N1865 N 0.89254 0.56458 0.14528 0.0
C1866 C 0.89842 0.55333 0.18235 0.0
C1867 C 0.8971 0.55241 0.15746 0.0
C1868 C 0.89499 0.56691 0.19476 0.0
C1869 C 0.89061 0.57955 0.18166 0.0
H1870 H 0.88541 0.5873 0.14649 0.0
H1871 H 0.89946 0.5418 0.14778 0.0
C1872 C 0.88599 0.50434 0.05704 0.0
N1873 N 0.87717 0.50852 0.07526 0.0
C1874 C 0.88421 0.48574 0.05547 0.0
C1875 C 0.86384 0.47602 0.09101 0.0
C1876 C 0.86612 0.49483 0.09197 0.0
C1877 C 0.87326 0.47137 0.07284 0.0
H1878 H 0.89478 0.51562 0.04409 0.0
H1879 H 0.85944 0.49868 0.10637 0.0
C1880 C 0.90281 0.60142 0.0877 0.0
N1881 N 0.9272 0.64128 0.07988 0.0
C1882 C 0.90187 0.60987 0.06607 0.0
C1883 C 0.91596 0.61326 0.10549 0.0
C1884 C 0.91439 0.63004 0.06241 0.0
C1885 C 0.92822 0.63339 0.10116 0.0
C1886 C 0.87179 0.54579 0.03114 0.0
C1887 C 0.8728 0.56114 0.01734 0.0
C1888 C 0.85932 0.52626 0.02411 0.0
C1889 C 0.86101 0.55669 0.99693 0.0
C1890 C 0.84779 0.52242 0.00356 0.0
N1891 N 0.84884 0.53759 0.99053 0.0
C1892 C 0.92739 0.58317 0.03174 0.0
C1893 C 0.94291 0.60203 0.06642 0.0
C1894 C 0.94446 0.59418 0.01837 0.0
N1895 N 0.92693 0.58717 0.05533 0.0
C1896 C 0.9603 0.6135 0.05369 0.0
C1897 C 0.96129 0.60948 0.02937 0.0
H1898 H 0.91466 0.57102 0.02344 0.0
H1899 H 0.9424 0.60466 0.0853 0.0
C1900 C 0.84749 0.57607 0.07433 0.0
N1901 N 0.84803 0.55994 0.06645 0.0
C1902 C 0.83073 0.57763 0.07076 0.0
C1903 C 0.81558 0.54624 0.05032 0.0
C1904 C 0.83256 0.54519 0.05452 0.0
C1905 C 0.81434 0.56244 0.05893 0.0
H1906 H 0.85977 0.58735 0.08431 0.0
H1907 H 0.83299 0.5322 0.04914 0.0
O1908 O 0.90683 0.55244 0.09636 0.0
O1909 O 0.86405 0.53752 0.10189 0.0
O1910 O 0.89065 0.58171 0.09162 0.0
O1911 O 0.88334 0.54984 0.05106 0.0
H1912 H 0.92491 0.54327 0.06303 0.0
H1913 H 0.93335 0.57714 0.12714 0.0
H1914 H 0.96102 0.55648 0.06121 0.0
H1915 H 0.96932 0.58968 0.12428 0.0
H1916 H 0.7986 0.49482 0.09198 0.0
H1917 H 0.85076 0.55601 0.12905 0.0
H1918 H 0.83368 0.50521 0.08434 0.0
H1919 H 0.81537 0.5448 0.13579 0.0
H1920 H 0.90203 0.54347 0.19179 0.0
H1921 H 0.88765 0.59005 0.19063 0.0
H1922 H 0.89194 0.48291 0.04134 0.0
H1923 H 0.85504 0.46534 0.10457 0.0
H1924 H 0.89158 0.60095 0.05228 0.0
H1925 H 0.91693 0.60695 0.1223 0.0
H1926 H 0.9139 0.63677 0.04571 0.0
H1927 H 0.93858 0.64271 0.11468 0.0
H1928 H 0.88259 0.57633 0.02233 0.0
H1929 H 0.85837 0.51419 0.03455 0.0
H1930 H 0.86157 0.56843 0.98616 0.0
H1931 H 0.83796 0.50738 -0.002 0.0
H1932 H 0.94467 0.59024 -0.00018 0.0
H1933 H 0.97288 0.62521 0.06287 0.0
H1934 H 0.83032 0.59019 0.07818 0.0
H1935 H 0.80339 0.53424 0.04095 0.0
Li1936 Li 0.32685 0.89648 0.61115 0.0
Li1937 Li 0.34501 0.88872 0.57986 0.0
Li1938 Li 0.3298 0.90987 0.57221 0.0
Li1939 Li 0.30958 0.87583 0.57758 0.0
C1940 C 0.36357 0.92527 0.61302 0.0
N1941 N 0.38652 0.94527 0.65216 0.0
C1942 C 0.3791 0.92245 0.62006 0.0
C1943 C 0.35988 0.93845 0.62576 0.0
C1944 C 0.3905 0.93266 0.63991 0.0
C1945 C 0.37159 0.94836 0.64554 0.0
C1946 C 0.31291 0.85198 0.60861 0.0
C1947 C 0.30222 0.81751 0.60366 0.0
N1948 N 0.28736 0.81291 0.61952 0.0
C1949 C 0.29763 0.84695 0.62497 0.0
C1950 C 0.31532 0.8372 0.59792 0.0
C1951 C 0.28483 0.82709 0.63021 0.0
C1952 C 0.3142 0.9049 0.65539 0.0
N1953 N 0.32611 0.89914 0.64477 0.0
C1954 C 0.33775 0.89534 0.68275 0.0
C1955 C 0.33764 0.89425 0.65785 0.0
C1956 C 0.32571 0.90135 0.69432 0.0
C1957 C 0.3138 0.90616 0.68032 0.0
H1958 H 0.3049 0.90832 0.64454 0.0
H1959 H 0.34667 0.88936 0.64887 0.0
C1960 C 0.37907 0.89393 0.55615 0.0
N1961 N 0.36667 0.88493 0.57483 0.0
C1962 C 0.39599 0.89245 0.55346 0.0
C1963 C 0.38705 0.87261 0.58942 0.0
C1964 C 0.37021 0.87429 0.59124 0.0
C1965 C 0.40032 0.88188 0.57043 0.0
H1966 H 0.3759 0.90244 0.54351 0.0
H1967 H 0.36027 0.86766 0.6062 0.0
C1968 C 0.29796 0.90801 0.58547 0.0
N1969 N 0.28338 0.93187 0.57049 0.0
C1970 C 0.28449 0.90209 0.56656 0.0
C1971 C 0.30393 0.92603 0.59683 0.0
C1972 C 0.27729 0.91435 0.55926 0.0
C1973 C 0.29642 0.9379 0.58897 0.0
C1974 C 0.32191 0.87627 0.53264 0.0
C1975 C 0.30539 0.87422 0.52047 0.0
C1976 C 0.33072 0.86548 0.52504 0.0
C1977 C 0.29795 0.86139 0.50095 0.0
C1978 C 0.32286 0.85283 0.50541 0.0
N1979 N 0.30677 0.85106 0.49388 0.0
C1980 C 0.34748 0.95063 0.563 0.0
C1981 C 0.32519 0.93016 0.53307 0.0
C1982 C 0.35228 0.9674 0.5495 0.0
N1983 N 0.3343 0.93247 0.55451 0.0
C1984 C 0.32957 0.94651 0.51894 0.0
C1985 C 0.34353 0.96541 0.52696 0.0
H1986 H 0.35471 0.95206 0.57993 0.0
H1987 H 0.31481 0.91561 0.52671 0.0
C1988 C 0.2689 0.85127 0.58039 0.0
N1989 N 0.28524 0.85253 0.57025 0.0
C1990 C 0.25061 0.83432 0.5776 0.0
C1991 C 0.26623 0.8201 0.55401 0.0
C1992 C 0.28428 0.83726 0.55753 0.0
C1993 C 0.24907 0.81841 0.56424 0.0
H1994 H 0.27015 0.86324 0.59128 0.0
H1995 H 0.29754 0.83817 0.55054 0.0
O1996 O 0.35198 0.91509 0.5939 0.0
O1997 O 0.32522 0.87128 0.60272 0.0
O1998 O 0.30554 0.8964 0.59252 0.0
O1999 O 0.32961 0.88894 0.55163 0.0
H2000 H 0.38233 0.91246 0.61038 0.0
H2001 H 0.34788 0.94076 0.62071 0.0
H2002 H 0.40251 0.93054 0.6456 0.0
H2003 H 0.36875 0.95844 0.65568 0.0
H2004 H 0.3038 0.80589 0.5954 0.0
H2005 H 0.29554 0.85825 0.63329 0.0
H2006 H 0.327 0.84088 0.58507 0.0
H2007 H 0.27284 0.82296 0.64271 0.0
H2008 H 0.34685 0.89111 0.69284 0.0
H2009 H 0.30434 0.9109 0.68853 0.0
H2010 H 0.40563 0.89963 0.53837 0.0
H2011 H 0.38993 0.86467 0.60321 0.0
H2012 H 0.27979 0.88827 0.55743 0.0
H2013 H 0.31445 0.93095 0.61135 0.0
H2014 H 0.26694 0.90999 0.54457 0.0
H2015 H 0.30102 0.95194 0.5975 0.0
H2016 H 0.29809 0.88208 0.52631 0.0
H2017 H 0.3434 0.86671 0.53427 0.0
H2018 H 0.28509 0.85957 0.4915 0.0
H2019 H 0.32952 0.84437 0.4994 0.0
H2020 H 0.36336 0.98168 0.55618 0.0
H2021 H 0.32237 0.94437 0.50175 0.0
H2022 H 0.23794 0.8335 0.58648 0.0
H2023 H 0.26579 0.80824 0.54358 0.0
Li2024 Li 0.43255 0.32906 0.11054 0.0
Li2025 Li 0.45752 0.34623 0.07828 0.0
Li2026 Li 0.42213 0.33248 0.07234 0.0
Li2027 Li 0.43349 0.31003 0.07639 0.0
C2028 C 0.44181 0.36618 0.11239 0.0
N2029 N 0.44582 0.38958 0.15143 0.0
C2030 C 0.46054 0.38036 0.1203 0.0
C2031 C 0.42512 0.36405 0.12416 0.0
C2032 C 0.46226 0.39202 0.14011 0.0
C2033 C 0.42745 0.37597 0.14392 0.0
C2034 C 0.46117 0.31285 0.10638 0.0
C2035 C 0.48184 0.29885 0.09821 0.0
N2036 N 0.47303 0.28584 0.11647 0.0
C2037 C 0.45237 0.29941 0.12512 0.0
C2038 C 0.47607 0.31265 0.09286 0.0
C2039 C 0.45856 0.28585 0.12992 0.0
C2040 C 0.41222 0.31741 0.15507 0.0
N2041 N 0.4299 0.32876 0.14421 0.0
C2042 C 0.44595 0.3398 0.18197 0.0
C2043 C 0.44661 0.33975 0.15704 0.0
C2044 C 0.42795 0.32812 0.19383 0.0
C2045 C 0.4109 0.31688 0.18003 0.0
H2046 H 0.39924 0.30853 0.14437 0.0
H2047 H 0.4605 0.34841 0.14785 0.0
C2048 C 0.48706 0.38101 0.05639 0.0
N2049 N 0.48354 0.36688 0.07288 0.0
C2050 C 0.50576 0.39766 0.05454 0.0
C2051 C 0.51686 0.3847 0.08645 0.0
C2052 C 0.49799 0.36827 0.08759 0.0
C2053 C 0.52083 0.39983 0.07004 0.0
H2054 H 0.47518 0.37976 0.04536 0.0
H2055 H 0.49465 0.35697 0.10086 0.0
C2056 C 0.39086 0.29995 0.08725 0.0
N2057 N 0.35131 0.28312 0.07634 0.0
C2058 C 0.38205 0.28408 0.07132 0.0
C2059 C 0.37953 0.30714 0.09779 0.0
C2060 C 0.36203 0.27579 0.06602 0.0
C2061 C 0.35957 0.29848 0.09198 0.0
C2062 C 0.43381 0.32883 0.02855 0.0
C2063 C 0.42244 0.31063 0.01725 0.0
C2064 C 0.43714 0.34607 0.01704 0.0
C2065 C 0.41455 0.30999 0.99461 0.0
C2066 C 0.42893 0.3448 0.99444 0.0
N2067 N 0.4179 0.32694 0.98379 0.0
C2068 C 0.40602 0.35606 0.06023 0.0
C2069 C 0.39095 0.32562 0.03944 0.0
C2070 C 0.39469 0.36218 0.04765 0.0
N2071 N 0.40412 0.33814 0.05583 0.0
C2072 C 0.37944 0.33122 0.02624 0.0
C2073 C 0.38141 0.3498 0.03016 0.0
H2074 H 0.41677 0.36591 0.07303 0.0
H2075 H 0.38978 0.31152 0.03603 0.0
C2076 C 0.41935 0.2702 0.08331 0.0
N2077 N 0.43124 0.28553 0.06887 0.0
C2078 C 0.41821 0.25202 0.08049 0.0
C2079 C 0.44147 0.26569 0.04777 0.0
C2080 C 0.44218 0.28368 0.05128 0.0
C2081 C 0.42946 0.24961 0.06265 0.0
H2082 H 0.41119 0.27231 0.0975 0.0
H2083 H 0.45175 0.29629 0.04035 0.0
O2084 O 0.4398 0.35436 0.09329 0.0
O2085 O 0.45483 0.32576 0.10086 0.0
O2086 O 0.41043 0.30822 0.09272 0.0
O2087 O 0.44161 0.32973 0.05076 0.0
H2088 H 0.47363 0.38227 0.11139 0.0
H2089 H 0.41052 0.35321 0.1182 0.0
H2090 H 0.47667 0.40297 0.14651 0.0
H2091 H 0.41466 0.37438 0.1533 0.0
H2092 H 0.49325 0.29842 0.08779 0.0
H2093 H 0.4407 0.29927 0.13562 0.0
H2094 H 0.4829 0.32285 0.07816 0.0
H2095 H 0.45181 0.27528 0.14427 0.0
H2096 H 0.45942 0.34891 0.19181 0.0
H2097 H 0.39677 0.30743 0.1884 0.0
H2098 H 0.50812 0.40914 0.04192 0.0
H2099 H 0.52812 0.38578 0.09863 0.0
H2100 H 0.3906 0.2784 0.06287 0.0
H2101 H 0.38611 0.31937 0.11019 0.0
H2102 H 0.35503 0.26359 0.05361 0.0
H2103 H 0.35065 0.30397 0.09989 0.0
H2104 H 0.41951 0.29711 0.02596 0.0
H2105 H 0.44563 0.36024 0.02563 0.0
H2106 H 0.40565 0.296 0.98571 0.0
H2107 H 0.43124 0.35801 0.98543 0.0
H2108 H 0.39689 0.37677 0.05091 0.0
H2109 H 0.36931 0.32125 0.01291 0.0
H2110 H 0.40912 0.24019 0.09272 0.0
H2111 H 0.45032 0.26442 0.03376 0.0
C2112 C 0.40389 0.08346 0.25989 0.0
C2113 C 0.42195 0.09174 0.27215 0.0
H2114 H 0.38922 0.07569 0.22593 0.0
C2115 C 0.43946 0.09901 0.25892 0.0
H2116 H 0.39015 0.0776 0.26967 0.0
C2117 C 0.43896 0.09805 0.23398 0.0
C2118 C 0.42092 0.08968 0.22163 0.0
H2119 H 0.45363 0.10582 0.26783 0.0
H2120 H 0.45279 0.10426 0.22437 0.0
C2121 C 0.40337 0.08239 0.23487 0.0
C2122 C 0.32951 0.44226 0.73551 0.0
C2123 C 0.3273 0.42572 0.72296 0.0
H2124 H 0.33168 0.45565 0.76956 0.0
C2125 C 0.3252 0.40942 0.73601 0.0
H2126 H 0.33066 0.45486 0.72606 0.0
C2127 C 0.32567 0.40985 0.76107 0.0
C2128 C 0.32833 0.4266 0.77351 0.0
H2129 H 0.32361 0.39652 0.72686 0.0
H2130 H 0.3244 0.39726 0.77068 0.0
C2131 C 0.33006 0.44271 0.76046 0.0
C2132 C 0.90616 0.31476 0.23504 0.0
C2133 C 0.89805 0.32468 0.22266 0.0
H2134 H 0.91271 0.30685 0.26919 0.0
C2135 C 0.88991 0.33414 0.23591 0.0
H2136 H 0.91273 0.30749 0.2254 0.0
C2137 C 0.89012 0.33396 0.26087 0.0
C2138 C 0.89831 0.32415 0.27321 0.0
H2139 H 0.8831 0.3415 0.22703 0.0
H2140 H 0.88357 0.34124 0.27053 0.0
C2141 C 0.90621 0.31443 0.26009 0.0
C2142 C 0.54722 0.88317 0.73127 0.0
C2143 C 0.56416 0.89702 0.71903 0.0
H2144 H 0.53356 0.87169 0.76506 0.0
C2145 C 0.58072 0.91053 0.7322 0.0
H2146 H 0.53438 0.87237 0.72151 0.0
C2147 C 0.58018 0.91039 0.75724 0.0
C2148 C 0.56315 0.89658 0.76956 0.0
H2149 H 0.59392 0.92143 0.72312 0.0
H2150 H 0.59299 0.92134 0.76688 0.0
C2151 C 0.54675 0.88286 0.75623 0.0
C2152 C 0.67725 0.58541 0.26063 0.0
C2153 C 0.66613 0.56773 0.27331 0.0
H2154 H 0.68553 0.59938 0.2263 0.0
C2155 C 0.65509 0.55011 0.26051 0.0
H2156 H 0.68579 0.59922 0.27009 0.0
C2157 C 0.65511 0.55013 0.23555 0.0
C2158 C 0.66603 0.56781 0.22274 0.0
H2159 H 0.64669 0.5362 0.26983 0.0
H2160 H 0.64677 0.53619 0.2263 0.0
C2161 C 0.67713 0.58547 0.23558 0.0
C2162 C 0.08941 0.68232 0.73703 0.0
C2163 C 0.08768 0.66614 0.72408 0.0
H2164 H 0.09061 0.69482 0.77151 0.0
C2165 C 0.08507 0.64949 0.73672 0.0
H2166 H 0.09156 0.69544 0.72788 0.0
C2167 C 0.08493 0.64929 0.76169 0.0
C2168 C 0.08718 0.66566 0.7747 0.0
H2169 H 0.08335 0.63664 0.72731 0.0
H2170 H 0.08364 0.63648 0.77075 0.0
C2171 C 0.08912 0.68207 0.76207 0.0
C2172 C 0.88601 0.5496 0.23423 0.0
C2173 C 0.89534 0.56732 0.22128 0.0
H2174 H 0.87881 0.53582 0.26857 0.0
C2175 C 0.90499 0.58526 0.23381 0.0
H2176 H 0.87812 0.53557 0.22505 0.0
C2177 C 0.90557 0.58543 0.25885 0.0
C2178 C 0.8964 0.56765 0.27181 0.0
H2179 H 0.91242 0.59914 0.22424 0.0
H2180 H 0.91349 0.59945 0.26803 0.0
C2181 C 0.88647 0.54976 0.25918 0.0
C2182 C 0.30682 0.8941 0.75819 0.0
C2183 C 0.32427 0.90061 0.77137 0.0
H2184 H 0.29355 0.88901 0.72347 0.0
C2185 C 0.34227 0.90839 0.75907 0.0
H2186 H 0.29271 0.88788 0.76718 0.0
C2187 C 0.34277 0.90909 0.7341 0.0
C2188 C 0.32527 0.902 0.72086 0.0
H2189 H 0.35601 0.91389 0.76877 0.0
H2190 H 0.35687 0.91511 0.72515 0.0
C2191 C 0.30731 0.89477 0.73317 0.0
C2192 C 0.41059 0.32638 0.25777 0.0
C2193 C 0.42613 0.32695 0.27096 0.0
H2194 H 0.39915 0.32675 0.2231 0.0
C2195 C 0.44203 0.32752 0.25866 0.0
H2196 H 0.39823 0.32611 0.26682 0.0
C2197 C 0.44249 0.32769 0.23368 0.0
C2198 C 0.42713 0.32746 0.22041 0.0
H2199 H 0.45405 0.32761 0.26836 0.0
H2200 H 0.45483 0.32782 0.22479 0.0
C2201 C 0.41111 0.32671 0.23275 0.0
C2202 C 0.07814 0.41305 0.73158 0.0
C2203 C 0.09408 0.42851 0.71941 0.0
H2204 H 0.06516 0.40059 0.76556 0.0
C2205 C 0.10983 0.44308 0.73275 0.0
H2206 H 0.06573 0.40169 0.72177 0.0
C2207 C 0.10951 0.44246 0.7577 0.0
C2208 C 0.09342 0.42725 0.76993 0.0
H2209 H 0.12253 0.45494 0.7239 0.0
H2210 H 0.12196 0.45385 0.76743 0.0
C2211 C 0.07782 0.41242 0.75663 0.0
C2212 C 0.68221 0.09937 0.2598 0.0
C2213 C 0.66416 0.08959 0.27217 0.0
H2214 H 0.69667 0.10838 0.22577 0.0
C2215 C 0.64656 0.08027 0.25889 0.0
H2216 H 0.69604 0.10694 0.26943 0.0
C2217 C 0.64695 0.08135 0.23393 0.0
C2218 C 0.66495 0.09157 0.22168 0.0
H2219 H 0.63242 0.07223 0.26777 0.0
H2220 H 0.63315 0.07426 0.22418 0.0
C2221 C 0.68259 0.10026 0.2348 0.0
C2222 C 0.55914 0.64888 0.73486 0.0
C2223 C 0.57338 0.66515 0.72183 0.0
H2224 H 0.54763 0.63657 0.76926 0.0
C2225 C 0.58765 0.6817 0.73444 0.0
H2226 H 0.54777 0.63597 0.7258 0.0
C2227 C 0.58731 0.6822 0.75946 0.0
C2228 C 0.57272 0.66613 0.77241 0.0
H2229 H 0.59899 0.69438 0.72498 0.0
H2230 H 0.59813 0.69542 0.76859 0.0
C2231 C 0.55887 0.64934 0.75982 0.0
C2232 C 0.44708 0.2127 0.0575 0.0
C2233 C 0.42957 0.19486 0.06168 0.0
H2234 H 0.46082 0.24407 0.05485 0.0
C2235 C 0.41183 0.19499 0.06435 0.0
H2236 H 0.46098 0.21301 0.05561 0.0
C2237 C 0.41169 0.21271 0.06371 0.0
C2238 C 0.42931 0.23068 0.06056 0.0
H2239 H 0.39808 0.18139 0.06721 0.0
H2240 H 0.3978 0.21236 0.06603 0.0
C2241 C 0.44696 0.23046 0.05701 0.0
C2242 C 0.213 0.45143 0.56376 0.0
C2243 C 0.19465 0.43396 0.56228 0.0
H2244 H 0.24433 0.46437 0.5661 0.0
C2245 C 0.19421 0.41581 0.56088 0.0
H2246 H 0.2139 0.46563 0.56532 0.0
C2247 C 0.21164 0.41511 0.56173 0.0
C2248 C 0.22988 0.43255 0.56367 0.0
H2249 H 0.18036 0.40211 0.55929 0.0
H2250 H 0.21088 0.40093 0.56093 0.0
C2251 C 0.23043 0.45073 0.56432 0.0
C2252 C 0.79745 0.21398 0.05771 0.0
C2253 C 0.79827 0.23227 0.05846 0.0
H2254 H 0.77915 0.18262 0.05749 0.0
C2255 C 0.78066 0.23285 0.05874 0.0
H2256 H 0.81086 0.21319 0.05726 0.0
C2257 C 0.76252 0.21539 0.05927 0.0
C2258 C 0.76165 0.19702 0.05931 0.0
H2259 H 0.78093 0.24679 0.05966 0.0
H2260 H 0.74924 0.21635 0.06066 0.0
C2261 C 0.77931 0.19652 0.05797 0.0
C2262 C 0.55905 0.76724 0.5459 0.0
C2263 C 0.5525 0.75525 0.56637 0.0
H2264 H 0.56393 0.79408 0.52944 0.0
C2265 C 0.54485 0.76067 0.58576 0.0
H2266 H 0.56504 0.76327 0.5308 0.0
C2267 C 0.5439 0.77794 0.58482 0.0
C2268 C 0.55091 0.79024 0.56465 0.0
H2269 H 0.53965 0.75153 0.60165 0.0
H2270 H 0.53817 0.78198 0.60014 0.0
C2271 C 0.55847 0.78478 0.54516 0.0
C2272 C 0.77818 0.58112 0.05415 0.0
C2273 C 0.76016 0.56376 0.05797 0.0
H2274 H 0.80943 0.59426 0.05062 0.0
C2275 C 0.75994 0.54586 0.06084 0.0
H2276 H 0.77867 0.59508 0.05171 0.0
C2277 C 0.77749 0.5454 0.0606 0.0
C2278 C 0.79563 0.56281 0.05723 0.0
H2279 H 0.74625 0.53231 0.0642 0.0
H2280 H 0.77684 0.53147 0.06396 0.0
C2281 C 0.79575 0.58063 0.05363 0.0
C2282 C 0.2122 0.80044 0.5604 0.0
C2283 C 0.22983 0.79988 0.56213 0.0
H2284 H 0.18064 0.78386 0.5598 0.0
C2285 C 0.22884 0.78146 0.56305 0.0
H2286 H 0.21241 0.81433 0.55915 0.0
C2287 C 0.21065 0.76406 0.56291 0.0
C2288 C 0.19311 0.76473 0.56214 0.0
H2289 H 0.24207 0.78045 0.5648 0.0
H2290 H 0.21028 0.75009 0.5644 0.0
C2291 C 0.19402 0.78303 0.56061 0.0
C2292 C 0.78243 0.54875 0.41209 0.0
C2293 C 0.79479 0.55527 0.43224 0.0
H2294 H 0.75605 0.54497 0.39575 0.0
C2295 C 0.78955 0.56268 0.4521 0.0
H2296 H 0.7863 0.54316 0.39649 0.0
C2297 C 0.77211 0.56346 0.45179 0.0
C2298 C 0.76003 0.5573 0.43139 0.0
H2299 H 0.79891 0.56778 0.46781 0.0
H2300 H 0.76825 0.56923 0.46721 0.0
C2301 C 0.76528 0.54989 0.4116 0.0
C2302 C 0.21357 0.76157 0.93875 0.0
C2303 C 0.19525 0.76054 0.93591 0.0
H2304 H 0.24492 0.78017 0.9402 0.0
C2305 C 0.19461 0.77813 0.9346 0.0
H2306 H 0.21455 0.74829 0.93957 0.0
C2307 C 0.21197 0.79633 0.93484 0.0
C2308 C 0.23031 0.79733 0.93654 0.0
H2309 H 0.18069 0.77781 0.93289 0.0
H2310 H 0.21107 0.80963 0.93321 0.0
C2311 C 0.23095 0.77982 0.9391 0.0
C2312 C 0.41361 0.19859 0.43804 0.0
C2313 C 0.43155 0.19906 0.43387 0.0
H2314 H 0.39876 0.21521 0.44099 0.0
C2315 C 0.4488 0.21741 0.4309 0.0
H2316 H 0.40011 0.18475 0.44086 0.0
C2317 C 0.44803 0.23482 0.43141 0.0
C2318 C 0.42998 0.23421 0.43464 0.0
H2319 H 0.46281 0.21834 0.42724 0.0
H2320 H 0.46143 0.2487 0.42826 0.0
C2321 C 0.41282 0.21599 0.43825 0.0
C2322 C 0.23069 0.44798 0.93378 0.0
C2323 C 0.23184 0.43093 0.92938 0.0
H2324 H 0.21217 0.46075 0.93604 0.0
C2325 C 0.2144 0.41302 0.92514 0.0
H2326 H 0.24389 0.46207 0.93671 0.0
C2327 C 0.19624 0.4123 0.92464 0.0
C2328 C 0.19517 0.42945 0.92846 0.0
H2329 H 0.21478 0.39957 0.92207 0.0
H2330 H 0.18305 0.39833 0.92113 0.0
C2331 C 0.21253 0.44724 0.93337 0.0
C2332 C 0.75732 0.21095 0.43065 0.0
C2333 C 0.7574 0.19326 0.43409 0.0
H2334 H 0.77445 0.24216 0.42648 0.0
C2335 C 0.77533 0.19381 0.43805 0.0
H2336 H 0.74364 0.21082 0.42726 0.0
C2337 C 0.79299 0.21178 0.43813 0.0
C2338 C 0.79307 0.22951 0.4338 0.0
H2339 H 0.77568 0.18032 0.44094 0.0
H2340 H 0.80658 0.21172 0.44136 0.0
C2341 C 0.77498 0.22889 0.43032 0.0
C2342 C 0.58224 0.78437 0.93367 0.0
C2343 C 0.56483 0.76601 0.93372 0.0
H2344 H 0.5951 0.81571 0.93357 0.0
C2345 C 0.54659 0.7653 0.93454 0.0
H2346 H 0.59649 0.78527 0.93329 0.0
C2347 C 0.54574 0.78267 0.93434 0.0
C2348 C 0.56315 0.8011 0.93353 0.0
H2349 H 0.53295 0.75129 0.93427 0.0
H2350 H 0.53143 0.78159 0.9338 0.0
C2351 C 0.58142 0.80175 0.93373 0.0
C2352 C 0.33686 0.98499 0.99392 0.0
C2353 C 0.34811 0.98368 0.97508 0.0
H2354 H 0.33606 0.00203 0.02357 0.0
C2355 C 0.36721 -0.0004 0.9711 0.0
H2356 H 0.32201 0.97313 -0.00268 0.0
C2357 C 0.37502 0.01615 0.9858 0.0
C2358 C 0.36406 0.01718 0.00504 0.0
H2359 H 0.37655 -0.001 0.95724 0.0
H2360 H 0.39004 0.0278 0.98273 0.0
C2361 C 0.34483 0.00154 0.00888 0.0
C2362 C 0.34839 0.35552 0.47035 0.0
C2363 C 0.35791 0.34566 0.47924 0.0
H2364 H 0.33411 0.37188 0.47844 0.0
C2365 C 0.3571 0.34196 0.50399 0.0
H2366 H 0.34816 0.35813 0.45134 0.0
C2367 C 0.34824 0.34916 0.51956 0.0
C2368 C 0.34039 0.36064 0.51086 0.0
H2369 H 0.36425 0.33446 0.51164 0.0
H2370 H 0.34834 0.34642 0.53855 0.0
C2371 C 0.33994 0.36311 0.48596 0.0
C2372 C -0.00435 0.34961 0.97547 0.0
C2373 C 0.01455 0.3638 0.98334 0.0
H2374 H 0.96495 0.33251 0.9841 0.0
C2375 C 0.01718 0.36999 0.00736 0.0
H2376 H 0.99323 0.34443 0.95713 0.0
C2377 C 0.00108 0.3631 0.02275 0.0
C2378 C 0.98202 0.34989 0.01447 0.0
H2379 H 0.0315 0.38104 0.01395 0.0
H2380 H 0.00344 0.36872 0.0409 0.0
C2381 C 0.97951 0.34267 0.99094 0.0
C2382 C 0.62501 0.9895 0.46702 0.0
C2383 C 0.64189 0.00664 0.47508 0.0
H2384 H 0.60276 0.95991 0.47491 0.0
C2385 C 0.6504 0.00607 0.49704 0.0
H2386 H 0.61784 0.98947 0.45043 0.0
C2387 C 0.64155 0.98912 0.51122 0.0
C2388 C 0.62417 0.97236 0.50361 0.0
H2389 H 0.6636 0.01889 0.50356 0.0
H2390 H 0.64803 0.98927 0.52842 0.0
C2391 C 0.6163 0.97253 0.48109 0.0
C2392 C 0.64379 0.62679 0.98895 0.0
C2393 C 0.64407 0.62975 0.01383 0.0
H2394 H 0.63533 0.63185 0.95452 0.0
C2395 C 0.63688 0.64176 0.02271 0.0
H2396 H 0.64901 0.61752 0.98137 0.0
C2397 C 0.62839 0.64946 0.00729 0.0
C2398 C 0.62717 0.64558 0.98257 0.0
H2399 H 0.63723 0.64472 0.0417 0.0
H2400 H 0.622 0.65768 0.01497 0.0
C2401 C 0.6356 0.63474 0.97352 0.0
C2402 C 0.01242 0.64866 0.49003 0.0
C2403 C 0.00968 0.64557 0.51487 0.0
H2404 H -0.00104 0.64285 0.45547 0.0
C2405 C 0.99037 0.63529 0.52393 0.0
H2406 H 0.02706 0.65642 0.48235 0.0
C2407 C 0.97425 0.62703 0.50843 0.0
C2408 C 0.97706 0.62907 0.48349 0.0
H2409 H 0.9877 0.63301 0.54301 0.0
H2410 H 0.95967 0.61818 0.516 0.0
C2411 C -0.00371 0.64062 0.47454 0.0
C2412 C 0.63763 0.99145 0.98546 0.0
C2413 C 0.61835 0.98399 0.97681 0.0
H2414 H 0.66051 0.01271 0.00817 0.0
C2415 C 0.60721 0.99243 0.98469 0.0
H2416 H 0.6465 0.98517 0.97961 0.0
C2417 C 0.61509 0.0079 0.00105 0.0
C2418 C 0.63432 0.01537 0.00977 0.0
H2419 H 0.59222 0.98679 0.97855 0.0
H2420 H 0.60615 0.01415 0.00677 0.0
C2421 C 0.64563 0.00717 0.00168 0.0
C2422 C 0.63937 0.62139 0.50742 0.0
C2423 C 0.6377 0.62032 0.48235 0.0
H2424 H 0.63171 0.63022 0.54007 0.0
C2425 C 0.628 0.62896 0.47074 0.0
H2426 H 0.64693 0.615 0.5168 0.0
C2427 C 0.61938 0.63776 0.48403 0.0
C2428 C 0.62041 0.63817 0.50916 0.0
H2429 H 0.62636 0.62821 0.45144 0.0
H2430 H 0.61155 0.64388 0.47469 0.0
C2431 C 0.63084 0.63028 0.52071 0.0
C2432 C -0.002 0.62489 0.02664 0.0
C2433 C 0.98001 0.62029 0.01582 0.0
H2434 H 0.02896 0.63653 0.02209 0.0
C2435 C 0.9799 0.625 0.99156 0.0
H2436 H -0.00141 0.62129 0.04524 0.0
C2437 C -0.00275 0.63335 0.97816 0.0
C2438 C 0.01512 0.63732 0.98877 0.0
H2439 H 0.96633 0.62191 0.98277 0.0
H2440 H -0.00353 0.63603 0.95927 0.0
C2441 C 0.01537 0.63337 0.01328 0.0
C2442 C 0.35435 0.98156 0.48693 0.0
C2443 C 0.3502 0.98276 0.51115 0.0
H2444 H 0.36671 -0.0029 0.45431 0.0
C2445 C 0.35389 0.00095 0.52045 0.0
H2446 H 0.35194 0.9678 0.47934 0.0
C2447 C 0.36229 0.01777 0.50605 0.0
C2448 C 0.36723 0.01673 0.4821 0.0
H2449 H 0.35058 0.00224 0.53898 0.0
H2450 H 0.36525 0.03167 0.51379 0.0
C2451 C 0.36279 -0.00164 0.47257 0.0
C2452 C 0.37054 0.35505 0.99007 0.0
C2453 C 0.37077 0.35697 0.01511 0.0
H2454 H 0.36376 0.36326 0.95637 0.0
C2455 C 0.36225 0.36726 0.0255 0.0
H2456 H 0.3772 0.34737 0.98159 0.0
C2457 C 0.3545 0.37627 0.0111 0.0
C2458 C 0.3552 0.37527 0.98601 0.0
H2459 H 0.36198 0.3687 0.04477 0.0
H2460 H 0.34833 0.3844 0.01961 0.0
C2461 C 0.36284 0.36415 0.97564 0.0
C2462 C 0.9943 0.35639 0.52128 0.0
C2463 C 0.01189 0.37134 0.51124 0.0
H2464 H 0.96385 0.33528 0.51563 0.0
C2465 C 0.01233 0.37578 0.4868 0.0
H2466 H 0.99363 0.35247 0.54 0.0
C2467 C -0.00468 0.36603 0.4729 0.0
C2468 C 0.97753 0.35156 0.48312 0.0
H2469 H 0.0256 0.38743 0.47864 0.0
H2470 H -0.00406 0.37048 0.45441 0.0
C2471 C 0.97728 0.34656 0.50734 0.0
C2472 C 0.55207 0.13016 0.06896 0.0
C2473 C 0.53457 0.1118 0.06935 0.0
H2474 H 0.58366 0.14552 0.06863 0.0
C2475 C 0.53582 0.09452 0.06931 0.0
H2476 H 0.55162 0.14375 0.06866 0.0
C2477 C 0.55411 0.09555 0.0691 0.0
C2478 C 0.5716 0.11388 0.06904 0.0
H2479 H 0.52267 0.08013 0.0701 0.0
H2480 H 0.55454 0.08196 0.06969 0.0
C2481 C 0.57041 0.13119 0.06888 0.0
C2482 C 0.44291 0.56251 0.55291 0.0
C2483 C 0.45383 0.56915 0.57427 0.0
H2484 H 0.4168 0.54002 0.53577 0.0
C2485 C 0.44638 0.55762 0.59507 0.0
H2486 H 0.4481 0.57112 0.53664 0.0
C2487 C 0.42842 0.54001 0.59461 0.0
C2488 C 0.41754 0.5334 0.5733 0.0
H2489 H 0.45459 0.56201 0.6117 0.0
H2490 H 0.42322 0.53136 0.61086 0.0
C2491 C 0.42498 0.54475 0.55241 0.0
C2492 C 0.87203 0.42474 0.05142 0.0
C2493 C 0.87366 0.41659 0.07312 0.0
H2494 H 0.87014 0.44819 0.0343 0.0
C2495 C 0.87445 0.42619 0.09468 0.0
H2496 H 0.87118 0.41754 0.03455 0.0
C2497 C 0.874 0.44376 0.09455 0.0
C2498 C 0.87264 0.45211 0.07286 0.0
H2499 H 0.87608 0.42047 0.11166 0.0
H2500 H 0.87533 0.4511 0.11146 0.0
C2501 C 0.87147 0.4423 0.05129 0.0
C2502 C 0.41947 0.86428 0.57613 0.0
C2503 C 0.41895 0.88125 0.56903 0.0
H2504 H 0.43724 0.85101 0.5823 0.0
C2505 C 0.43657 0.89791 0.56158 0.0
H2506 H 0.40615 0.85105 0.58152 0.0
C2507 C 0.4543 0.89772 0.56167 0.0
C2508 C 0.45483 0.88097 0.56947 0.0
H2509 H 0.43683 0.91135 0.55639 0.0
H2510 H 0.46771 0.91093 0.55642 0.0
C2511 C 0.43724 0.8642 0.5765 0.0
C2512 C 0.56596 0.44569 0.09268 0.0
C2513 C 0.57529 0.45519 0.07125 0.0
H2514 H 0.54147 0.42088 0.10904 0.0
C2515 C 0.56697 0.44588 0.04933 0.0
H2516 H 0.57172 0.45259 0.10987 0.0
C2517 C 0.54949 0.4277 0.04888 0.0
C2518 C 0.54006 0.41841 0.07033 0.0
H2519 H 0.57394 0.45265 0.0325 0.0
H2520 H 0.54333 0.42093 0.03174 0.0
C2521 C 0.54859 0.4275 0.09222 0.0
C2522 C 0.11151 0.5512 0.54935 0.0
C2523 C 0.11546 0.54384 0.57033 0.0
H2524 H 0.10789 0.57409 0.53345 0.0
C2525 C 0.11933 0.55473 0.59166 0.0
H2526 H 0.10874 0.54334 0.53255 0.0
C2527 C 0.11906 0.57239 0.59208 0.0
C2528 C 0.11475 0.57953 0.57124 0.0
H2529 H 0.12201 0.54934 0.60829 0.0
H2530 H 0.12161 0.58014 0.60894 0.0
C2531 C 0.11107 0.56882 0.54983 0.0
C2532 C 0.87487 0.44398 0.43783 0.0
C2533 C 0.88261 0.45653 0.41788 0.0
H2534 H 0.86801 0.41635 0.45371 0.0
C2535 C 0.88993 0.45062 0.39852 0.0
H2536 H 0.86892 0.448 0.45292 0.0
C2537 C 0.88924 0.4325 0.39891 0.0
C2538 C 0.88133 0.41989 0.41872 0.0
H2539 H 0.89641 0.46011 0.38312 0.0
H2540 H 0.89514 0.42846 0.38379 0.0
C2541 C 0.87429 0.42586 0.43827 0.0
C2542 C 0.43554 0.86424 0.9296 0.0
C2543 C 0.45368 0.88172 0.92679 0.0
H2544 H 0.40418 0.85097 0.93172 0.0
C2545 C 0.45387 0.89962 0.92405 0.0
H2546 H 0.435 0.85026 0.93195 0.0
C2547 C 0.43628 0.90003 0.92363 0.0
C2548 C 0.41807 0.88254 0.92613 0.0
H2549 H 0.4676 0.91328 0.92142 0.0
H2550 H 0.43698 0.91401 0.92059 0.0
C2551 C 0.41792 0.86466 0.92938 0.0
C2552 C 0.54554 0.426 0.44284 0.0
C2553 C 0.53532 0.4186 0.42119 0.0
H2554 H 0.57154 0.44849 0.46004 0.0
C2555 C 0.5439 0.42871 0.39982 0.0
H2556 H 0.53936 0.4184 0.45957 0.0
C2557 C 0.5622 0.44595 0.40009 0.0
C2558 C 0.57245 0.45347 0.42172 0.0
H2559 H 0.53622 0.42358 0.38291 0.0
H2560 H 0.56808 0.45366 0.38334 0.0
C2561 C 0.56394 0.44324 0.44311 0.0
C2562 C 0.11059 0.54248 0.89981 0.0
C2563 C 0.11392 0.53517 0.92118 0.0
H2564 H 0.10747 0.56518 0.88292 0.0
C2565 C 0.11747 0.54612 0.94235 0.0
H2566 H 0.10744 0.53415 0.88331 0.0
C2567 C 0.11776 0.56411 0.94212 0.0
C2568 C 0.1143 0.5714 0.92073 0.0
H2569 H 0.1202 0.54084 0.95904 0.0
H2570 H 0.12083 0.57236 0.95865 0.0
C2571 C 0.11068 0.56032 0.8996 0.0
C2572 C 0.57097 0.12794 0.422 0.0
C2573 C 0.5701 0.10966 0.42456 0.0
H2574 H 0.5548 0.14332 0.41991 0.0
C2575 C 0.55161 0.09263 0.42782 0.0
H2576 H 0.58496 0.14141 0.41989 0.0
C2577 C 0.53443 0.09382 0.42824 0.0
C2578 C 0.53531 0.11201 0.42513 0.0
H2579 H 0.55028 0.07824 0.42937 0.0
H2580 H 0.52038 0.08038 0.43022 0.0
C2581 C 0.55373 0.12908 0.42213 0.0
C2582 C 0.44935 0.57017 0.94405 0.0
C2583 C 0.45708 0.58059 0.92262 0.0
H2584 H 0.42585 0.54473 0.96088 0.0
C2585 C 0.44652 0.57303 0.90125 0.0
H2586 H 0.45714 0.57579 0.96081 0.0
C2587 C 0.4288 0.55514 0.90118 0.0
C2588 C 0.4211 0.54448 0.92254 0.0
H2589 H 0.4523 0.5806 0.88441 0.0
H2590 H 0.42148 0.54939 0.8842 0.0
C2591 C 0.43148 0.55235 0.94404 0.0
loop_
_geom_bond_atom_site_label_1
_geom_bond_atom_site_label_2
_geom_bond_distance
_geom_bond_site_symmetry_2
_ccdc_geom_bond_type
Li0 N17 1.990 . S
Li0 O60 1.956 . S
Li0 O61 1.970 . S
Li0 O62 1.961 . S
Li1 N25 1.990 . S
Li1 O60 1.970 . S
Li1 O61 1.956 . S
Li1 O63 1.961 . S
Li2 N47 1.990 . S
Li2 O60 1.961 . S
Li2 O62 1.956 . S
Li2 O63 1.970 . S
Li3 N53 1.990 . S
Li3 O61 1.961 . S
Li3 O62 1.970 . S
Li3 O63 1.956 . S
C4 C6 1.348 . S
C4 C7 1.356 . S
C4 O60 1.325 . S
N5 C8 1.314 . S
N5 C9 1.279 . S
C6 C4 1.348 . S
C6 C8 1.353 . S
C6 H64 0.929 . S
C7 C4 1.356 . S
C7 C9 1.358 . S
C7 H65 0.930 . S
C8 N5 1.314 . S
C8 C6 1.353 . S
C8 H66 0.930 . S
C9 N5 1.279 . S
C9 C7 1.358 . S
C9 H67 0.930 . S
C10 C13 1.348 . S
C10 C14 1.356 . S
C10 O61 1.325 . S
C11 N12 1.279 . S
C11 C14 1.358 . S
C11 H68 0.930 . S
N12 C11 1.279 . S
N12 C15 1.314 . S
C13 C10 1.348 . S
C13 C15 1.353 . S
C13 H69 0.929 . S
C14 C10 1.356 . S
C14 C11 1.358 . S
C14 H70 0.930 . S
C15 N12 1.314 . S
C15 C13 1.353 . S
C15 H71 0.930 . S
C16 N17 1.314 . S
C16 C21 1.353 . S
C16 H22 0.930 . S
N17 Li0 1.990 . S
N17 C16 1.314 . S
N17 C19 1.279 . S
C18 C19 1.358 . S
C18 C20 1.356 . S
C18 H72 0.930 . S
C19 N17 1.279 . S
C19 C18 1.358 . S
C19 H23 0.930 . S
C20 C18 1.356 . S
C20 C21 1.348 . S
C21 C16 1.353 . S
C21 C20 1.348 . S
C21 H73 0.929 . S
H22 C16 0.930 . S
H23 C19 0.930 . S
C24 N25 1.314 . S
C24 C26 1.353 . S
C24 H30 0.930 . S
N25 Li1 1.990 . S
N25 C24 1.314 . S
N25 C28 1.279 . S
C26 C24 1.353 . S
C26 C29 1.348 . S
C26 H74 0.929 . S
C27 C28 1.358 . S
C27 C29 1.356 . S
C27 H75 0.930 . S
C28 N25 1.279 . S
C28 C27 1.358 . S
C28 H31 0.930 . S
C29 C26 1.348 . S
C29 C27 1.356 . S
H30 C24 0.930 . S
H31 C28 0.930 . S
C32 C34 1.348 . S
C32 C35 1.356 . S
C32 O62 1.325 . S
N33 C36 1.314 . S
N33 C37 1.276 1_556 S
C34 C32 1.348 . S
C34 C36 1.353 1_554 S
C34 H76 0.929 . S
C35 C32 1.356 . S
C35 C37 1.363 . S
C35 H77 0.930 . S
C36 N33 1.314 . S
C36 C34 1.353 1_556 S
C36 H78 0.930 . S
C37 N33 1.276 1_554 S
C37 C35 1.363 . S
C37 H79 0.929 1_554 S
C38 C39 1.348 . S
C38 C40 1.356 . S
C38 O63 1.325 . S
C39 C38 1.348 . S
C39 C41 1.353 . S
C39 H80 0.929 . S
C40 C38 1.356 . S
C40 C42 1.358 . S
C40 H81 0.930 . S
C41 C39 1.353 . S
C41 N43 1.314 . S
C41 H82 0.930 . S
C42 C40 1.358 . S
C42 N43 1.279 . S
C42 H83 0.930 . S
N43 C41 1.314 . S
N43 C42 1.279 . S
C44 C46 1.353 . S
C44 N47 1.314 . S
C44 H50 0.930 . S
C45 N47 1.279 . S
C45 C48 1.358 . S
C45 H51 0.930 . S
C46 C44 1.353 . S
C46 C49 1.348 . S
C46 H84 0.929 . S
N47 Li2 1.990 . S
N47 C44 1.314 . S
N47 C45 1.279 . S
C48 C45 1.358 . S
C48 C49 1.356 . S
C48 H85 0.930 . S
C49 C46 1.348 . S
C49 C48 1.356 . S
H50 C44 0.930 . S
H51 C45 0.930 . S
C52 N53 1.314 . S
C52 C54 1.353 . S
C52 H58 0.930 . S
N53 Li3 1.990 . S
N53 C52 1.314 . S
N53 C56 1.279 . S
C54 C52 1.353 . S
C54 C57 1.348 . S
C54 H86 0.929 . S
C55 C56 1.358 . S
C55 C57 1.356 . S
C55 H87 0.930 . S
C56 N53 1.279 . S
C56 C55 1.358 . S
C56 H59 0.930 . S
C57 C54 1.348 . S
C57 C55 1.356 . S
H58 C52 0.930 . S
H59 C56 0.930 . S
O60 Li0 1.956 . S
O60 Li1 1.970 . S
O60 Li2 1.961 . S
O60 C4 1.325 . S
O61 Li0 1.970 . S
O61 Li1 1.956 . S
O61 Li3 1.961 . S
O61 C10 1.325 . S
O62 Li0 1.961 . S
O62 Li2 1.956 . S
O62 Li3 1.970 . S
O62 C32 1.325 . S
O63 Li1 1.961 . S
O63 Li2 1.970 . S
O63 Li3 1.956 . S
O63 C38 1.325 . S
H64 C6 0.929 . S
H65 C7 0.930 . S
H66 C8 0.930 . S
H67 C9 0.930 . S
H68 C11 0.930 . S
H69 C13 0.929 . S
H70 C14 0.930 . S
H71 C15 0.930 . S
H72 C18 0.930 . S
H73 C21 0.929 . S
H74 C26 0.929 . S
H75 C27 0.930 . S
H76 C34 0.929 . S
H77 C35 0.930 . S
H78 C36 0.930 . S
H79 C37 0.929 1_556 S
H80 C39 0.929 . S
H81 C40 0.930 . S
H82 C41 0.930 . S
H83 C42 0.930 . S
H84 C46 0.929 . S
H85 C48 0.930 . S
H86 C54 0.929 . S
H87 C55 0.930 . S
Li88 N105 1.990 . S
Li88 O148 1.956 . S
Li88 O149 1.970 . S
Li88 O150 1.961 . S
Li89 N113 1.990 . S
Li89 O148 1.970 . S
Li89 O149 1.956 . S
Li89 O151 1.961 . S
Li90 N135 1.990 . S
Li90 O148 1.961 . S
Li90 O150 1.956 . S
Li90 O151 1.970 . S
Li91 N141 1.990 . S
Li91 O149 1.961 . S
Li91 O150 1.970 . S
Li91 O151 1.956 . S
C92 C94 1.348 . S
C92 C95 1.356 . S
C92 O148 1.325 . S
N93 C96 1.314 . S
N93 C97 1.279 . S
C94 C92 1.348 . S
C94 C96 1.353 . S
C94 H152 0.929 . S
C95 C92 1.356 . S
C95 C97 1.358 . S
C95 H153 0.930 . S
C96 N93 1.314 . S
C96 C94 1.353 . S
C96 H154 0.930 . S
C97 N93 1.279 . S
C97 C95 1.358 . S
C97 H155 0.930 . S
C98 C101 1.348 . S
C98 C102 1.356 . S
C98 O149 1.325 . S
C99 N100 1.279 . S
C99 C102 1.358 . S
C99 H156 0.930 . S
N100 C99 1.279 . S
N100 C103 1.314 . S
C101 C98 1.348 . S
C101 C103 1.353 . S
C101 H157 0.929 . S
C102 C98 1.356 . S
C102 C99 1.358 . S
C102 H158 0.930 . S
C103 N100 1.314 . S
C103 C101 1.353 . S
C103 H159 0.930 . S
C104 N105 1.314 . S
C104 C109 1.353 . S
C104 H110 0.930 . S
N105 Li88 1.990 . S
N105 C104 1.314 . S
N105 C107 1.279 . S
C106 C107 1.358 . S
C106 C108 1.356 . S
C106 H160 0.930 . S
C107 N105 1.279 . S
C107 C106 1.358 . S
C107 H111 0.930 . S
C108 C106 1.356 . S
C108 C109 1.348 . S
C109 C104 1.353 . S
C109 C108 1.348 . S
C109 H161 0.929 . S
H110 C104 0.930 . S
H111 C107 0.930 . S
C112 N113 1.314 . S
C112 C114 1.353 . S
C112 H118 0.930 . S
N113 Li89 1.990 . S
N113 C112 1.314 . S
N113 C116 1.279 . S
C114 C112 1.353 . S
C114 C117 1.348 . S
C114 H162 0.929 . S
C115 C116 1.358 . S
C115 C117 1.356 . S
C115 H163 0.930 . S
C116 N113 1.279 . S
C116 C115 1.358 . S
C116 H119 0.930 . S
C117 C114 1.348 . S
C117 C115 1.356 . S
H118 C112 0.930 . S
H119 C116 0.930 . S
C120 C122 1.348 . S
C120 C123 1.356 . S
C120 O150 1.325 . S
N121 C124 1.314 . S
N121 C125 1.279 . S
C122 C120 1.348 . S
C122 C124 1.353 . S
C122 H164 0.929 . S
C123 C120 1.356 . S
C123 C125 1.358 . S
C123 H165 0.930 . S
C124 N121 1.314 . S
C124 C122 1.353 . S
C124 H166 0.930 . S
C125 N121 1.279 . S
C125 C123 1.358 . S
C125 H167 0.930 . S
C126 C127 1.348 . S
C126 C128 1.356 . S
C126 O151 1.325 . S
C127 C126 1.348 . S
C127 C129 1.353 . S
C127 H168 0.929 . S
C128 C126 1.356 . S
C128 C130 1.358 . S
C128 H169 0.930 . S
C129 C127 1.353 . S
C129 N131 1.314 . S
C129 H170 0.930 . S
C130 C128 1.358 . S
C130 N131 1.279 . S
C130 H171 0.930 . S
N131 C129 1.314 . S
N131 C130 1.279 . S
C132 C134 1.353 . S
C132 N135 1.314 . S
C132 H138 0.930 . S
C133 N135 1.279 . S
C133 C136 1.358 . S
C133 H139 0.930 . S
C134 C132 1.353 . S
C134 C137 1.348 . S
C134 H172 0.929 . S
N135 Li90 1.990 . S
N135 C132 1.314 . S
N135 C133 1.279 . S
C136 C133 1.358 . S
C136 C137 1.356 . S
C136 H173 0.930 . S
C137 C134 1.348 . S
C137 C136 1.356 . S
H138 C132 0.930 . S
H139 C133 0.930 . S
C140 N141 1.314 . S
C140 C142 1.353 . S
C140 H146 0.930 . S
N141 Li91 1.990 . S
N141 C140 1.314 . S
N141 C144 1.279 . S
C142 C140 1.353 . S
C142 C145 1.348 . S
C142 H174 0.929 . S
C143 C144 1.358 . S
C143 C145 1.356 . S
C143 H175 0.930 . S
C144 N141 1.279 . S
C144 C143 1.358 . S
C144 H147 0.930 . S
C145 C142 1.348 . S
C145 C143 1.356 . S
H146 C140 0.930 . S
H147 C144 0.930 . S
O148 Li88 1.956 . S
O148 Li89 1.970 . S
O148 Li90 1.961 . S
O148 C92 1.325 . S
O149 Li88 1.970 . S
O149 Li89 1.956 . S
O149 Li91 1.961 . S
O149 C98 1.325 . S
O150 Li88 1.961 . S
O150 Li90 1.956 . S
O150 Li91 1.970 . S
O150 C120 1.325 . S
O151 Li89 1.961 . S
O151 Li90 1.970 . S
O151 Li91 1.956 . S
O151 C126 1.325 . S
H152 C94 0.929 . S
H153 C95 0.930 . S
H154 C96 0.930 . S
H155 C97 0.930 . S
H156 C99 0.930 . S
H157 C101 0.929 . S
H158 C102 0.930 . S
H159 C103 0.930 . S
H160 C106 0.930 . S
H161 C109 0.929 . S
H162 C114 0.929 . S
H163 C115 0.930 . S
H164 C122 0.929 . S
H165 C123 0.930 . S
H166 C124 0.930 . S
H167 C125 0.930 . S
H168 C127 0.929 . S
H169 C128 0.930 . S
H170 C129 0.930 . S
H171 C130 0.930 . S
H172 C134 0.929 . S
H173 C136 0.930 . S
H174 C142 0.929 . S
H175 C143 0.930 . S
Li176 N193 1.990 . S
Li176 O236 1.956 . S
Li176 O237 1.970 . S
Li176 O238 1.961 . S
Li177 N201 1.990 . S
Li177 O236 1.970 . S
Li177 O237 1.956 . S
Li177 O239 1.961 . S
Li178 N223 1.990 . S
Li178 O236 1.961 . S
Li178 O238 1.956 . S
Li178 O239 1.970 . S
Li179 N229 1.990 . S
Li179 O237 1.961 . S
Li179 O238 1.970 . S
Li179 O239 1.956 . S
C180 C182 1.348 . S
C180 C183 1.356 . S
C180 O236 1.325 . S
N181 C184 1.314 . S
N181 C185 1.279 . S
C182 C180 1.348 . S
C182 C184 1.353 . S
C182 H240 0.929 . S
C183 C180 1.356 . S
C183 C185 1.358 . S
C183 H241 0.930 . S
C184 N181 1.314 . S
C184 C182 1.353 . S
C184 H242 0.930 . S
C185 N181 1.279 . S
C185 C183 1.358 . S
C185 H243 0.930 . S
C186 C189 1.348 . S
C186 C190 1.356 . S
C186 O237 1.325 . S
C187 N188 1.279 . S
C187 C190 1.358 . S
C187 H244 0.930 . S
N188 C187 1.279 . S
N188 C191 1.314 . S
C189 C186 1.348 . S
C189 C191 1.353 . S
C189 H245 0.929 . S
C190 C186 1.356 . S
C190 C187 1.358 . S
C190 H246 0.930 . S
C191 N188 1.314 . S
C191 C189 1.353 . S
C191 H247 0.930 . S
C192 N193 1.314 . S
C192 C197 1.353 . S
C192 H198 0.930 . S
N193 Li176 1.990 . S
N193 C192 1.314 . S
N193 C195 1.279 . S
C194 C195 1.358 . S
C194 C196 1.356 . S
C194 H248 0.930 . S
C195 N193 1.279 . S
C195 C194 1.358 . S
C195 H199 0.930 . S
C196 C194 1.356 . S
C196 C197 1.348 . S
C197 C192 1.353 . S
C197 C196 1.348 . S
C197 H249 0.929 . S
H198 C192 0.930 . S
H199 C195 0.930 . S
C200 N201 1.314 . S
C200 C202 1.353 . S
C200 H206 0.930 . S
N201 Li177 1.990 . S
N201 C200 1.314 . S
N201 C204 1.279 . S
C202 C200 1.353 . S
C202 C205 1.348 . S
C202 H250 0.929 . S
C203 C204 1.358 . S
C203 C205 1.356 . S
C203 H251 0.930 . S
C204 N201 1.279 . S
C204 C203 1.358 . S
C204 H207 0.930 . S
C205 C202 1.348 . S
C205 C203 1.356 . S
H206 C200 0.930 . S
H207 C204 0.930 . S
C208 C210 1.348 . S
C208 C211 1.356 . S
C208 O238 1.325 . S
N209 C212 1.314 . S
N209 C213 1.279 . S
C210 C208 1.348 . S
C210 C212 1.353 . S
C210 H252 0.929 . S
C211 C208 1.356 . S
C211 C213 1.358 . S
C211 H253 0.930 . S
C212 N209 1.314 . S
C212 C210 1.353 . S
C212 H254 0.930 . S
C213 N209 1.279 . S
C213 C211 1.358 . S
C213 H255 0.930 . S
C214 C215 1.348 . S
C214 C216 1.356 . S
C214 O239 1.325 . S
C215 C214 1.348 . S
C215 C217 1.353 1_554 S
C215 H256 0.929 . S
C216 C214 1.356 . S
C216 C218 1.365 . S
C216 H257 0.930 . S
C217 C215 1.353 1_556 S
C217 N219 1.314 . S
C217 H258 0.930 . S
C218 C216 1.365 . S
C218 N219 1.274 1_554 S
C218 H259 0.928 1_554 S
N219 C217 1.314 . S
N219 C218 1.274 1_556 S
C220 C222 1.353 . S
C220 N223 1.314 . S
C220 H226 0.930 . S
C221 N223 1.279 . S
C221 C224 1.358 . S
C221 H227 0.930 . S
C222 C220 1.353 . S
C222 C225 1.348 . S
C222 H260 0.929 . S
N223 Li178 1.990 . S
N223 C220 1.314 . S
N223 C221 1.279 . S
C224 C221 1.358 . S
C224 C225 1.356 . S
C224 H261 0.930 . S
C225 C222 1.348 . S
C225 C224 1.356 . S
H226 C220 0.930 . S
H227 C221 0.930 . S
C228 N229 1.314 . S
C228 C230 1.353 . S
C228 H234 0.930 . S
N229 Li179 1.990 . S
N229 C228 1.314 . S
N229 C232 1.279 . S
C230 C228 1.353 . S
C230 C233 1.348 . S
C230 H262 0.929 . S
C231 C232 1.358 . S
C231 C233 1.356 . S
C231 H263 0.930 . S
C232 N229 1.279 . S
C232 C231 1.358 . S
C232 H235 0.930 . S
C233 C230 1.348 . S
C233 C231 1.356 . S
H234 C228 0.930 . S
H235 C232 0.930 . S
O236 Li176 1.956 . S
O236 Li177 1.970 . S
O236 Li178 1.961 . S
O236 C180 1.325 . S
O237 Li176 1.970 . S
O237 Li177 1.956 . S
O237 Li179 1.961 . S
O237 C186 1.325 . S
O238 Li176 1.961 . S
O238 Li178 1.956 . S
O238 Li179 1.970 . S
O238 C208 1.325 . S
O239 Li177 1.961 . S
O239 Li178 1.970 . S
O239 Li179 1.956 . S
O239 C214 1.325 . S
H240 C182 0.929 . S
H241 C183 0.930 . S
H242 C184 0.930 . S
H243 C185 0.930 . S
H244 C187 0.930 . S
H245 C189 0.929 . S
H246 C190 0.930 . S
H247 C191 0.930 . S
H248 C194 0.930 . S
H249 C197 0.929 . S
H250 C202 0.929 . S
H251 C203 0.930 . S
H252 C210 0.929 . S
H253 C211 0.930 . S
H254 C212 0.930 . S
H255 C213 0.930 . S
H256 C215 0.929 . S
H257 C216 0.930 . S
H258 C217 0.930 . S
H259 C218 0.928 1_556 S
H260 C222 0.929 . S
H261 C224 0.930 . S
H262 C230 0.929 . S
H263 C231 0.930 . S
Li264 N281 1.990 . S
Li264 O324 1.956 . S
Li264 O325 1.970 . S
Li264 O326 1.961 . S
Li265 N289 1.990 . S
Li265 O324 1.970 . S
Li265 O325 1.956 . S
Li265 O327 1.961 . S
Li266 N311 1.990 . S
Li266 O324 1.961 . S
Li266 O326 1.956 . S
Li266 O327 1.970 . S
Li267 N317 1.990 . S
Li267 O325 1.961 . S
Li267 O326 1.970 . S
Li267 O327 1.956 . S
C268 C270 1.348 . S
C268 C271 1.356 . S
C268 O324 1.325 . S
N269 C272 1.314 . S
N269 C273 1.279 . S
C270 C268 1.348 . S
C270 C272 1.353 . S
C270 H328 0.929 . S
C271 C268 1.356 . S
C271 C273 1.358 . S
C271 H329 0.930 . S
C272 N269 1.314 . S
C272 C270 1.353 . S
C272 H330 0.930 . S
C273 N269 1.279 . S
C273 C271 1.358 . S
C273 H331 0.930 . S
C274 C277 1.348 . S
C274 C278 1.356 . S
C274 O325 1.325 . S
C275 N276 1.279 . S
C275 C278 1.358 . S
C275 H332 0.930 . S
N276 C275 1.279 . S
N276 C279 1.314 . S
C277 C274 1.348 . S
C277 C279 1.353 . S
C277 H333 0.929 . S
C278 C274 1.356 . S
C278 C275 1.358 . S
C278 H334 0.930 . S
C279 N276 1.314 . S
C279 C277 1.353 . S
C279 H335 0.930 . S
C280 N281 1.314 . S
C280 C285 1.353 . S
C280 H286 0.930 . S
N281 Li264 1.990 . S
N281 C280 1.314 . S
N281 C283 1.279 . S
C282 C283 1.358 . S
C282 C284 1.356 . S
C282 H336 0.930 . S
C283 N281 1.279 . S
C283 C282 1.358 . S
C283 H287 0.930 . S
C284 C282 1.356 . S
C284 C285 1.348 . S
C285 C280 1.353 . S
C285 C284 1.348 . S
C285 H337 0.929 . S
H286 C280 0.930 . S
H287 C283 0.930 . S
C288 N289 1.314 . S
C288 C290 1.353 . S
C288 H294 0.930 . S
N289 Li265 1.990 . S
N289 C288 1.314 . S
N289 C292 1.279 . S
C290 C288 1.353 . S
C290 C293 1.348 . S
C290 H338 0.929 . S
C291 C292 1.358 . S
C291 C293 1.356 . S
C291 H339 0.930 . S
C292 N289 1.279 . S
C292 C291 1.358 . S
C292 H295 0.930 . S
C293 C290 1.348 . S
C293 C291 1.356 . S
H294 C288 0.930 . S
H295 C292 0.930 . S
C296 C298 1.348 . S
C296 C299 1.356 . S
C296 O326 1.325 . S
N297 C300 1.314 . S
N297 C301 1.279 . S
C298 C296 1.348 . S
C298 C300 1.353 . S
C298 H340 0.929 . S
C299 C296 1.356 . S
C299 C301 1.358 . S
C299 H341 0.930 . S
C300 N297 1.314 . S
C300 C298 1.353 . S
C300 H342 0.930 . S
C301 N297 1.279 . S
C301 C299 1.358 . S
C301 H343 0.930 . S
C302 C303 1.348 . S
C302 C304 1.356 . S
C302 O327 1.325 . S
C303 C302 1.348 . S
C303 C305 1.353 . S
C303 H344 0.929 . S
C304 C302 1.356 . S
C304 C306 1.358 . S
C304 H345 0.930 . S
C305 C303 1.353 . S
C305 N307 1.314 . S
C305 H346 0.930 . S
C306 C304 1.358 . S
C306 N307 1.279 . S
C306 H347 0.930 . S
N307 C305 1.314 . S
N307 C306 1.279 . S
C308 C310 1.353 . S
C308 N311 1.314 . S
C308 H314 0.930 . S
C309 N311 1.279 . S
C309 C312 1.358 . S
C309 H315 0.930 . S
C310 C308 1.353 . S
C310 C313 1.348 . S
C310 H348 0.929 . S
N311 Li266 1.990 . S
N311 C308 1.314 . S
N311 C309 1.279 . S
C312 C309 1.358 . S
C312 C313 1.356 . S
C312 H349 0.930 . S
C313 C310 1.348 . S
C313 C312 1.356 . S
H314 C308 0.930 . S
H315 C309 0.930 . S
C316 N317 1.314 . S
C316 C318 1.353 . S
C316 H322 0.930 . S
N317 Li267 1.990 . S
N317 C316 1.314 . S
N317 C320 1.279 . S
C318 C316 1.353 . S
C318 C321 1.348 . S
C318 H350 0.929 . S
C319 C320 1.358 . S
C319 C321 1.356 . S
C319 H351 0.930 . S
C320 N317 1.279 . S
C320 C319 1.358 . S
C320 H323 0.930 . S
C321 C318 1.348 . S
C321 C319 1.356 . S
H322 C316 0.930 . S
H323 C320 0.930 . S
O324 Li264 1.956 . S
O324 Li265 1.970 . S
O324 Li266 1.961 . S
O324 C268 1.325 . S
O325 Li264 1.970 . S
O325 Li265 1.956 . S
O325 Li267 1.961 . S
O325 C274 1.325 . S
O326 Li264 1.961 . S
O326 Li266 1.956 . S
O326 Li267 1.970 . S
O326 C296 1.325 . S
O327 Li265 1.961 . S
O327 Li266 1.970 . S
O327 Li267 1.956 . S
O327 C302 1.325 . S
H328 C270 0.929 . S
H329 C271 0.930 . S
H330 C272 0.930 . S
H331 C273 0.930 . S
H332 C275 0.930 . S
H333 C277 0.929 . S
H334 C278 0.930 . S
H335 C279 0.930 . S
H336 C282 0.930 . S
H337 C285 0.929 . S
H338 C290 0.929 . S
H339 C291 0.930 . S
H340 C298 0.929 . S
H341 C299 0.930 . S
H342 C300 0.930 . S
H343 C301 0.930 . S
H344 C303 0.929 . S
H345 C304 0.930 . S
H346 C305 0.930 . S
H347 C306 0.930 . S
H348 C310 0.929 . S
H349 C312 0.930 . S
H350 C318 0.929 . S
H351 C319 0.930 . S
Li352 N369 1.990 . S
Li352 O412 1.956 . S
Li352 O413 1.970 . S
Li352 O414 1.961 . S
Li353 N377 1.990 . S
Li353 O412 1.970 . S
Li353 O413 1.956 . S
Li353 O415 1.961 . S
Li354 N399 1.990 . S
Li354 O412 1.961 . S
Li354 O414 1.956 . S
Li354 O415 1.970 . S
Li355 N405 1.990 . S
Li355 O413 1.961 . S
Li355 O414 1.970 . S
Li355 O415 1.956 . S
C356 C358 1.348 . S
C356 C359 1.356 . S
C356 O412 1.325 . S
N357 C360 1.314 . S
N357 C361 1.279 . S
C358 C356 1.348 . S
C358 C360 1.353 . S
C358 H416 0.929 . S
C359 C356 1.356 . S
C359 C361 1.358 . S
C359 H417 0.930 . S
C360 N357 1.314 . S
C360 C358 1.353 . S
C360 H418 0.930 . S
C361 N357 1.279 . S
C361 C359 1.358 . S
C361 H419 0.930 . S
C362 C365 1.348 . S
C362 C366 1.356 . S
C362 O413 1.325 . S
C363 N364 1.275 1_554 S
C363 C366 1.365 . S
C363 H420 0.929 1_554 S
N364 C363 1.275 1_556 S
N364 C367 1.314 . S
C365 C362 1.348 . S
C365 C367 1.353 1_554 S
C365 H421 0.929 . S
C366 C362 1.356 . S
C366 C363 1.365 . S
C366 H422 0.930 . S
C367 N364 1.314 . S
C367 C365 1.353 1_556 S
C367 H423 0.930 . S
C368 N369 1.314 . S
C368 C373 1.353 . S
C368 H374 0.930 . S
N369 Li352 1.990 . S
N369 C368 1.314 . S
N369 C371 1.279 . S
C370 C371 1.358 . S
C370 C372 1.356 . S
C370 H424 0.930 . S
C371 N369 1.279 . S
C371 C370 1.358 . S
C371 H375 0.930 . S
C372 C370 1.356 . S
C372 C373 1.348 . S
C373 C368 1.353 . S
C373 C372 1.348 . S
C373 H425 0.929 . S
H374 C368 0.930 . S
H375 C371 0.930 . S
C376 N377 1.314 . S
C376 C378 1.353 . S
C376 H382 0.930 . S
N377 Li353 1.990 . S
N377 C376 1.314 . S
N377 C380 1.279 . S
C378 C376 1.353 . S
C378 C381 1.348 . S
C378 H426 0.929 . S
C379 C380 1.358 . S
C379 C381 1.356 . S
C379 H427 0.930 . S
C380 N377 1.279 . S
C380 C379 1.358 . S
C380 H383 0.930 . S
C381 C378 1.348 . S
C381 C379 1.356 . S
H382 C376 0.930 . S
H383 C380 0.930 . S
C384 C386 1.348 . S
C384 C387 1.356 . S
C384 O414 1.325 . S
N385 C388 1.314 . S
N385 C389 1.279 . S
C386 C384 1.348 . S
C386 C388 1.353 . S
C386 H428 0.929 . S
C387 C384 1.356 . S
C387 C389 1.358 . S
C387 H429 0.930 . S
C388 N385 1.314 . S
C388 C386 1.353 . S
C388 H430 0.930 . S
C389 N385 1.279 . S
C389 C387 1.358 . S
C389 H431 0.930 . S
C390 C391 1.348 . S
C390 C392 1.356 . S
C390 O415 1.325 . S
C391 C390 1.348 . S
C391 C393 1.353 . S
C391 H432 0.929 . S
C392 C390 1.356 . S
C392 C394 1.358 . S
C392 H433 0.930 . S
C393 C391 1.353 . S
C393 N395 1.314 . S
C393 H434 0.930 . S
C394 C392 1.358 . S
C394 N395 1.279 . S
C394 H435 0.930 . S
N395 C393 1.314 . S
N395 C394 1.279 . S
C396 C398 1.353 . S
C396 N399 1.314 . S
C396 H402 0.930 . S
C397 N399 1.279 . S
C397 C400 1.358 . S
C397 H403 0.930 . S
C398 C396 1.353 . S
C398 C401 1.348 . S
C398 H436 0.929 . S
N399 Li354 1.990 . S
N399 C396 1.314 . S
N399 C397 1.279 . S
C400 C397 1.358 . S
C400 C401 1.356 . S
C400 H437 0.930 . S
C401 C398 1.348 . S
C401 C400 1.356 . S
H402 C396 0.930 . S
H403 C397 0.930 . S
C404 N405 1.314 . S
C404 C406 1.353 . S
C404 H410 0.930 . S
N405 Li355 1.990 . S
N405 C404 1.314 . S
N405 C408 1.279 . S
C406 C404 1.353 . S
C406 C409 1.348 . S
C406 H438 0.929 . S
C407 C408 1.358 . S
C407 C409 1.356 . S
C407 H439 0.930 . S
C408 N405 1.279 . S
C408 C407 1.358 . S
C408 H411 0.930 . S
C409 C406 1.348 . S
C409 C407 1.356 . S
H410 C404 0.930 . S
H411 C408 0.930 . S
O412 Li352 1.956 . S
O412 Li353 1.970 . S
O412 Li354 1.961 . S
O412 C356 1.325 . S
O413 Li352 1.970 . S
O413 Li353 1.956 . S
O413 Li355 1.961 . S
O413 C362 1.325 . S
O414 Li352 1.961 . S
O414 Li354 1.956 . S
O414 Li355 1.970 . S
O414 C384 1.325 . S
O415 Li353 1.961 . S
O415 Li354 1.970 . S
O415 Li355 1.956 . S
O415 C390 1.325 . S
H416 C358 0.929 . S
H417 C359 0.930 . S
H418 C360 0.930 . S
H419 C361 0.930 . S
H420 C363 0.929 1_556 S
H421 C365 0.929 . S
H422 C366 0.930 . S
H423 C367 0.930 . S
H424 C370 0.930 . S
H425 C373 0.929 . S
H426 C378 0.929 . S
H427 C379 0.930 . S
H428 C386 0.929 . S
H429 C387 0.930 . S
H430 C388 0.930 . S
H431 C389 0.930 . S
H432 C391 0.929 . S
H433 C392 0.930 . S
H434 C393 0.930 . S
H435 C394 0.930 . S
H436 C398 0.929 . S
H437 C400 0.930 . S
H438 C406 0.929 . S
H439 C407 0.930 . S
Li440 N457 1.990 . S
Li440 O500 1.956 . S
Li440 O501 1.970 . S
Li440 O502 1.961 . S
Li441 N465 1.990 . S
Li441 O500 1.970 . S
Li441 O501 1.956 . S
Li441 O503 1.961 . S
Li442 N487 1.990 . S
Li442 O500 1.961 . S
Li442 O502 1.956 . S
Li442 O503 1.970 . S
Li443 N493 1.990 . S
Li443 O501 1.961 . S
Li443 O502 1.970 . S
Li443 O503 1.956 . S
C444 C446 1.348 . S
C444 C447 1.356 . S
C444 O500 1.325 . S
N445 C448 1.314 . S
N445 C449 1.279 . S
C446 C444 1.348 . S
C446 C448 1.353 . S
C446 H504 0.929 . S
C447 C444 1.356 . S
C447 C449 1.358 . S
C447 H505 0.930 . S
C448 N445 1.314 . S
C448 C446 1.353 . S
C448 H506 0.930 . S
C449 N445 1.279 . S
C449 C447 1.358 . S
C449 H507 0.930 . S
C450 C453 1.348 . S
C450 C454 1.356 . S
C450 O501 1.325 . S
C451 N452 1.279 . S
C451 C454 1.358 . S
C451 H508 0.930 . S
N452 C451 1.279 . S
N452 C455 1.314 . S
C453 C450 1.348 . S
C453 C455 1.353 . S
C453 H509 0.929 . S
C454 C450 1.356 . S
C454 C451 1.358 . S
C454 H510 0.930 . S
C455 N452 1.314 . S
C455 C453 1.353 . S
C455 H511 0.930 . S
C456 N457 1.314 . S
C456 C461 1.353 . S
C456 H462 0.930 . S
N457 Li440 1.990 . S
N457 C456 1.314 . S
N457 C459 1.279 . S
C458 C459 1.358 . S
C458 C460 1.356 . S
C458 H512 0.930 . S
C459 N457 1.279 . S
C459 C458 1.358 . S
C459 H463 0.930 . S
C460 C458 1.356 . S
C460 C461 1.348 . S
C461 C456 1.353 . S
C461 C460 1.348 . S
C461 H513 0.929 . S
H462 C456 0.930 . S
H463 C459 0.930 . S
C464 N465 1.314 . S
C464 C466 1.353 . S
C464 H470 0.930 . S
N465 Li441 1.990 . S
N465 C464 1.314 . S
N465 C468 1.279 . S
C466 C464 1.353 . S
C466 C469 1.348 . S
C466 H514 0.929 . S
C467 C468 1.358 . S
C467 C469 1.356 . S
C467 H515 0.930 . S
C468 N465 1.279 . S
C468 C467 1.358 . S
C468 H471 0.930 . S
C469 C466 1.348 . S
C469 C467 1.356 . S
H470 C464 0.930 . S
H471 C468 0.930 . S
C472 C474 1.348 . S
C472 C475 1.356 . S
C472 O502 1.325 . S
N473 C476 1.314 . S
N473 C477 1.279 . S
C474 C472 1.348 . S
C474 C476 1.353 . S
C474 H516 0.929 . S
C475 C472 1.356 . S
C475 C477 1.358 . S
C475 H517 0.930 . S
C476 N473 1.314 . S
C476 C474 1.353 . S
C476 H518 0.930 . S
C477 N473 1.279 . S
C477 C475 1.358 . S
C477 H519 0.930 . S
C478 C479 1.348 . S
C478 C480 1.356 . S
C478 O503 1.325 . S
C479 C478 1.348 . S
C479 C481 1.353 . S
C479 H520 0.929 . S
C480 C478 1.356 . S
C480 C482 1.358 . S
C480 H521 0.930 . S
C481 C479 1.353 . S
C481 N483 1.314 . S
C481 H522 0.930 . S
C482 C480 1.358 . S
C482 N483 1.279 . S
C482 H523 0.930 . S
N483 C481 1.314 . S
N483 C482 1.279 . S
C484 C486 1.353 . S
C484 N487 1.314 . S
C484 H490 0.930 . S
C485 N487 1.279 . S
C485 C488 1.358 . S
C485 H491 0.930 . S
C486 C484 1.353 . S
C486 C489 1.348 . S
C486 H524 0.929 . S
N487 Li442 1.990 . S
N487 C484 1.314 . S
N487 C485 1.279 . S
C488 C485 1.358 . S
C488 C489 1.356 . S
C488 H525 0.930 . S
C489 C486 1.348 . S
C489 C488 1.356 . S
H490 C484 0.930 . S
H491 C485 0.930 . S
C492 N493 1.314 . S
C492 C494 1.353 . S
C492 H498 0.930 . S
N493 Li443 1.990 . S
N493 C492 1.314 . S
N493 C496 1.279 . S
C494 C492 1.353 . S
C494 C497 1.348 . S
C494 H526 0.929 . S
C495 C496 1.358 . S
C495 C497 1.356 . S
C495 H527 0.930 . S
C496 N493 1.279 . S
C496 C495 1.358 . S
C496 H499 0.930 . S
C497 C494 1.348 . S
C497 C495 1.356 . S
H498 C492 0.930 . S
H499 C496 0.930 . S
O500 Li440 1.956 . S
O500 Li441 1.970 . S
O500 Li442 1.961 . S
O500 C444 1.325 . S
O501 Li440 1.970 . S
O501 Li441 1.956 . S
O501 Li443 1.961 . S
O501 C450 1.325 . S
O502 Li440 1.961 . S
O502 Li442 1.956 . S
O502 Li443 1.970 . S
O502 C472 1.325 . S
O503 Li441 1.961 . S
O503 Li442 1.970 . S
O503 Li443 1.956 . S
O503 C478 1.325 . S
H504 C446 0.929 . S
H505 C447 0.930 . S
H506 C448 0.930 . S
H507 C449 0.930 . S
H508 C451 0.930 . S
H509 C453 0.929 . S
H510 C454 0.930 . S
H511 C455 0.930 . S
H512 C458 0.930 . S
H513 C461 0.929 . S
H514 C466 0.929 . S
H515 C467 0.930 . S
H516 C474 0.929 . S
H517 C475 0.930 . S
H518 C476 0.930 . S
H519 C477 0.930 . S
H520 C479 0.929 . S
H521 C480 0.930 . S
H522 C481 0.930 . S
H523 C482 0.930 . S
H524 C486 0.929 . S
H525 C488 0.930 . S
H526 C494 0.929 . S
H527 C495 0.930 . S
Li528 N545 1.990 . S
Li528 O588 1.956 . S
Li528 O589 1.970 . S
Li528 O590 1.961 . S
Li529 N553 1.990 . S
Li529 O588 1.970 . S
Li529 O589 1.956 . S
Li529 O591 1.961 . S
Li530 N575 1.990 . S
Li530 O588 1.961 . S
Li530 O590 1.956 . S
Li530 O591 1.970 . S
Li531 N581 1.990 . S
Li531 O589 1.961 . S
Li531 O590 1.970 . S
Li531 O591 1.956 . S
C532 C534 1.348 . S
C532 C535 1.356 . S
C532 O588 1.325 . S
N533 C536 1.314 . S
N533 C537 1.279 . S
C534 C532 1.348 . S
C534 C536 1.353 . S
C534 H592 0.929 . S
C535 C532 1.356 . S
C535 C537 1.358 . S
C535 H593 0.930 . S
C536 N533 1.314 . S
C536 C534 1.353 . S
C536 H594 0.930 . S
C537 N533 1.279 . S
C537 C535 1.358 . S
C537 H595 0.930 . S
C538 C541 1.348 . S
C538 C542 1.356 . S
C538 O589 1.325 . S
C539 N540 1.279 . S
C539 C542 1.358 . S
C539 H596 0.930 . S
N540 C539 1.279 . S
N540 C543 1.314 . S
C541 C538 1.348 . S
C541 C543 1.353 . S
C541 H597 0.929 . S
C542 C538 1.356 . S
C542 C539 1.358 . S
C542 H598 0.930 . S
C543 N540 1.314 . S
C543 C541 1.353 . S
C543 H599 0.930 . S
C544 N545 1.314 . S
C544 C549 1.353 . S
C544 H550 0.930 . S
N545 Li528 1.990 . S
N545 C544 1.314 . S
N545 C547 1.279 . S
C546 C547 1.358 . S
C546 C548 1.356 . S
C546 H600 0.930 . S
C547 N545 1.279 . S
C547 C546 1.358 . S
C547 H551 0.930 . S
C548 C546 1.356 . S
C548 C549 1.348 . S
C549 C544 1.353 . S
C549 C548 1.348 . S
C549 H601 0.929 . S
H550 C544 0.930 . S
H551 C547 0.930 . S
C552 N553 1.314 . S
C552 C554 1.353 . S
C552 H558 0.930 . S
N553 Li529 1.990 . S
N553 C552 1.314 . S
N553 C556 1.279 . S
C554 C552 1.353 . S
C554 C557 1.348 . S
C554 H602 0.929 . S
C555 C556 1.358 . S
C555 C557 1.356 . S
C555 H603 0.930 . S
C556 N553 1.279 . S
C556 C555 1.358 . S
C556 H559 0.930 . S
C557 C554 1.348 . S
C557 C555 1.356 . S
H558 C552 0.930 . S
H559 C556 0.930 . S
C560 C562 1.348 . S
C560 C563 1.356 . S
C560 O590 1.325 . S
N561 C564 1.314 . S
N561 C565 1.279 . S
C562 C560 1.348 . S
C562 C564 1.353 . S
C562 H604 0.929 . S
C563 C560 1.356 . S
C563 C565 1.358 . S
C563 H605 0.930 . S
C564 N561 1.314 . S
C564 C562 1.353 . S
C564 H606 0.930 . S
C565 N561 1.279 . S
C565 C563 1.358 . S
C565 H607 0.930 . S
C566 C567 1.348 . S
C566 C568 1.356 . S
C566 O591 1.325 . S
C567 C566 1.348 . S
C567 C569 1.353 . S
C567 H608 0.929 . S
C568 C566 1.356 . S
C568 C570 1.358 . S
C568 H609 0.930 . S
C569 C567 1.353 . S
C569 N571 1.314 . S
C569 H610 0.930 . S
C570 C568 1.358 . S
C570 N571 1.279 . S
C570 H611 0.930 . S
N571 C569 1.314 . S
N571 C570 1.279 . S
C572 C574 1.353 . S
C572 N575 1.314 . S
C572 H578 0.930 . S
C573 N575 1.279 . S
C573 C576 1.358 . S
C573 H579 0.930 . S
C574 C572 1.353 . S
C574 C577 1.348 . S
C574 H612 0.929 . S
N575 Li530 1.990 . S
N575 C572 1.314 . S
N575 C573 1.279 . S
C576 C573 1.358 . S
C576 C577 1.356 . S
C576 H613 0.930 . S
C577 C574 1.348 . S
C577 C576 1.356 . S
H578 C572 0.930 . S
H579 C573 0.930 . S
C580 N581 1.314 . S
C580 C582 1.353 . S
C580 H586 0.930 . S
N581 Li531 1.990 . S
N581 C580 1.314 . S
N581 C584 1.279 . S
C582 C580 1.353 . S
C582 C585 1.348 . S
C582 H614 0.929 . S
C583 C584 1.358 . S
C583 C585 1.356 . S
C583 H615 0.930 . S
C584 N581 1.279 . S
C584 C583 1.358 . S
C584 H587 0.930 . S
C585 C582 1.348 . S
C585 C583 1.356 . S
H586 C580 0.930 . S
H587 C584 0.930 . S
O588 Li528 1.956 . S
O588 Li529 1.970 . S
O588 Li530 1.961 . S
O588 C532 1.325 . S
O589 Li528 1.970 . S
O589 Li529 1.956 . S
O589 Li531 1.961 . S
O589 C538 1.325 . S
O590 Li528 1.961 . S
O590 Li530 1.956 . S
O590 Li531 1.970 . S
O590 C560 1.325 . S
O591 Li529 1.961 . S
O591 Li530 1.970 . S
O591 Li531 1.956 . S
O591 C566 1.325 . S
H592 C534 0.929 . S
H593 C535 0.930 . S
H594 C536 0.930 . S
H595 C537 0.930 . S
H596 C539 0.930 . S
H597 C541 0.929 . S
H598 C542 0.930 . S
H599 C543 0.930 . S
H600 C546 0.930 . S
H601 C549 0.929 . S
H602 C554 0.929 . S
H603 C555 0.930 . S
H604 C562 0.929 . S
H605 C563 0.930 . S
H606 C564 0.930 . S
H607 C565 0.930 . S
H608 C567 0.929 . S
H609 C568 0.930 . S
H610 C569 0.930 . S
H611 C570 0.930 . S
H612 C574 0.929 . S
H613 C576 0.930 . S
H614 C582 0.929 . S
H615 C583 0.930 . S
Li616 N633 1.990 . S
Li616 O676 1.956 . S
Li616 O677 1.970 . S
Li616 O678 1.961 . S
Li617 N641 1.990 . S
Li617 O676 1.970 . S
Li617 O677 1.956 . S
Li617 O679 1.961 . S
Li618 N663 1.990 . S
Li618 O676 1.961 . S
Li618 O678 1.956 . S
Li618 O679 1.970 . S
Li619 N669 1.990 . S
Li619 O677 1.961 . S
Li619 O678 1.970 . S
Li619 O679 1.956 . S
C620 C622 1.348 . S
C620 C623 1.356 . S
C620 O676 1.325 . S
N621 C624 1.314 . S
N621 C625 1.279 . S
C622 C620 1.348 . S
C622 C624 1.353 . S
C622 H680 0.929 . S
C623 C620 1.356 . S
C623 C625 1.358 . S
C623 H681 0.930 . S
C624 N621 1.314 . S
C624 C622 1.353 . S
C624 H682 0.930 . S
C625 N621 1.279 . S
C625 C623 1.358 . S
C625 H683 0.930 . S
C626 C629 1.348 . S
C626 C630 1.356 . S
C626 O677 1.325 . S
C627 N628 1.274 1_556 S
C627 C630 1.365 . S
C627 H684 0.928 1_556 S
N628 C627 1.274 1_554 S
N628 C631 1.314 . S
C629 C626 1.348 . S
C629 C631 1.353 1_556 S
C629 H685 0.929 . S
C630 C626 1.356 . S
C630 C627 1.365 . S
C630 H686 0.930 . S
C631 N628 1.314 . S
C631 C629 1.353 1_554 S
C631 H687 0.930 . S
C632 N633 1.314 . S
C632 C637 1.353 . S
C632 H638 0.930 . S
N633 Li616 1.990 . S
N633 C632 1.314 . S
N633 C635 1.279 . S
C634 C635 1.358 . S
C634 C636 1.356 . S
C634 H688 0.930 . S
C635 N633 1.279 . S
C635 C634 1.358 . S
C635 H639 0.930 . S
C636 C634 1.356 . S
C636 C637 1.348 . S
C637 C632 1.353 . S
C637 C636 1.348 . S
C637 H689 0.929 . S
H638 C632 0.930 . S
H639 C635 0.930 . S
C640 N641 1.314 . S
C640 C642 1.353 . S
C640 H646 0.930 . S
N641 Li617 1.990 . S
N641 C640 1.314 . S
N641 C644 1.279 . S
C642 C640 1.353 . S
C642 C645 1.348 . S
C642 H690 0.929 . S
C643 C644 1.358 . S
C643 C645 1.356 . S
C643 H691 0.930 . S
C644 N641 1.279 . S
C644 C643 1.358 . S
C644 H647 0.930 . S
C645 C642 1.348 . S
C645 C643 1.356 . S
H646 C640 0.930 . S
H647 C644 0.930 . S
C648 C650 1.348 . S
C648 C651 1.356 . S
C648 O678 1.325 . S
N649 C652 1.314 . S
N649 C653 1.279 . S
C650 C648 1.348 . S
C650 C652 1.353 . S
C650 H692 0.929 . S
C651 C648 1.356 . S
C651 C653 1.358 . S
C651 H693 0.930 . S
C652 N649 1.314 . S
C652 C650 1.353 . S
C652 H694 0.930 . S
C653 N649 1.279 . S
C653 C651 1.358 . S
C653 H695 0.930 . S
C654 C655 1.348 . S
C654 C656 1.356 . S
C654 O679 1.325 . S
C655 C654 1.348 . S
C655 C657 1.353 . S
C655 H696 0.929 . S
C656 C654 1.356 . S
C656 C658 1.358 . S
C656 H697 0.930 . S
C657 C655 1.353 . S
C657 N659 1.314 . S
C657 H698 0.930 . S
C658 C656 1.358 . S
C658 N659 1.279 . S
C658 H699 0.930 . S
N659 C657 1.314 . S
N659 C658 1.279 . S
C660 C662 1.353 . S
C660 N663 1.314 . S
C660 H666 0.930 . S
C661 N663 1.279 . S
C661 C664 1.358 . S
C661 H667 0.930 . S
C662 C660 1.353 . S
C662 C665 1.348 . S
C662 H700 0.929 . S
N663 Li618 1.990 . S
N663 C660 1.314 . S
N663 C661 1.279 . S
C664 C661 1.358 . S
C664 C665 1.356 . S
C664 H701 0.930 . S
C665 C662 1.348 . S
C665 C664 1.356 . S
H666 C660 0.930 . S
H667 C661 0.930 . S
C668 N669 1.314 . S
C668 C670 1.353 . S
C668 H674 0.930 . S
N669 Li619 1.990 . S
N669 C668 1.314 . S
N669 C672 1.279 . S
C670 C668 1.353 . S
C670 C673 1.348 . S
C670 H702 0.929 . S
C671 C672 1.358 . S
C671 C673 1.356 . S
C671 H703 0.930 . S
C672 N669 1.279 . S
C672 C671 1.358 . S
C672 H675 0.930 . S
C673 C670 1.348 . S
C673 C671 1.356 . S
H674 C668 0.930 . S
H675 C672 0.930 . S
O676 Li616 1.956 . S
O676 Li617 1.970 . S
O676 Li618 1.961 . S
O676 C620 1.325 . S
O677 Li616 1.970 . S
O677 Li617 1.956 . S
O677 Li619 1.961 . S
O677 C626 1.325 . S
O678 Li616 1.961 . S
O678 Li618 1.956 . S
O678 Li619 1.970 . S
O678 C648 1.325 . S
O679 Li617 1.961 . S
O679 Li618 1.970 . S
O679 Li619 1.956 . S
O679 C654 1.325 . S
H680 C622 0.929 . S
H681 C623 0.930 . S
H682 C624 0.930 . S
H683 C625 0.930 . S
H684 C627 0.928 1_554 S
H685 C629 0.929 . S
H686 C630 0.930 . S
H687 C631 0.930 . S
H688 C634 0.930 . S
H689 C637 0.929 . S
H690 C642 0.929 . S
H691 C643 0.930 . S
H692 C650 0.929 . S
H693 C651 0.930 . S
H694 C652 0.930 . S
H695 C653 0.930 . S
H696 C655 0.929 . S
H697 C656 0.930 . S
H698 C657 0.930 . S
H699 C658 0.930 . S
H700 C662 0.929 . S
H701 C664 0.930 . S
H702 C670 0.929 . S
H703 C671 0.930 . S
Li704 N721 1.990 . S
Li704 O764 1.956 . S
Li704 O765 1.970 . S
Li704 O766 1.961 . S
Li705 N729 1.990 . S
Li705 O764 1.970 . S
Li705 O765 1.956 . S
Li705 O767 1.961 . S
Li706 N751 1.990 . S
Li706 O764 1.961 . S
Li706 O766 1.956 . S
Li706 O767 1.970 . S
Li707 N757 1.990 . S
Li707 O765 1.961 . S
Li707 O766 1.970 . S
Li707 O767 1.956 . S
C708 C710 1.348 . S
C708 C711 1.356 . S
C708 O764 1.325 . S
N709 C712 1.314 . S
N709 C713 1.279 . S
C710 C708 1.348 . S
C710 C712 1.353 . S
C710 H768 0.929 . S
C711 C708 1.356 . S
C711 C713 1.358 . S
C711 H769 0.930 . S
C712 N709 1.314 . S
C712 C710 1.353 . S
C712 H770 0.930 . S
C713 N709 1.279 . S
C713 C711 1.358 . S
C713 H771 0.930 . S
C714 C717 1.348 . S
C714 C718 1.356 . S
C714 O765 1.325 . S
C715 N716 1.279 . S
C715 C718 1.358 . S
C715 H772 0.930 . S
N716 C715 1.279 . S
N716 C719 1.314 . S
C717 C714 1.348 . S
C717 C719 1.353 . S
C717 H773 0.929 . S
C718 C714 1.356 . S
C718 C715 1.358 . S
C718 H774 0.930 . S
C719 N716 1.314 . S
C719 C717 1.353 . S
C719 H775 0.930 . S
C720 N721 1.314 . S
C720 C725 1.353 . S
C720 H726 0.930 . S
N721 Li704 1.990 . S
N721 C720 1.314 . S
N721 C723 1.279 . S
C722 C723 1.358 . S
C722 C724 1.356 . S
C722 H776 0.930 . S
C723 N721 1.279 . S
C723 C722 1.358 . S
C723 H727 0.930 . S
C724 C722 1.356 . S
C724 C725 1.348 . S
C725 C720 1.353 . S
C725 C724 1.348 . S
C725 H777 0.929 . S
H726 C720 0.930 . S
H727 C723 0.930 . S
C728 N729 1.314 . S
C728 C730 1.353 . S
C728 H734 0.930 . S
N729 Li705 1.990 . S
N729 C728 1.314 . S
N729 C732 1.279 . S
C730 C728 1.353 . S
C730 C733 1.348 . S
C730 H778 0.929 . S
C731 C732 1.358 . S
C731 C733 1.356 . S
C731 H779 0.930 . S
C732 N729 1.279 . S
C732 C731 1.358 . S
C732 H735 0.930 . S
C733 C730 1.348 . S
C733 C731 1.356 . S
H734 C728 0.930 . S
H735 C732 0.930 . S
C736 C738 1.348 . S
C736 C739 1.356 . S
C736 O766 1.325 . S
N737 C740 1.314 . S
N737 C741 1.279 . S
C738 C736 1.348 . S
C738 C740 1.353 . S
C738 H780 0.929 . S
C739 C736 1.356 . S
C739 C741 1.358 . S
C739 H781 0.930 . S
C740 N737 1.314 . S
C740 C738 1.353 . S
C740 H782 0.930 . S
C741 N737 1.279 . S
C741 C739 1.358 . S
C741 H783 0.930 . S
C742 C743 1.348 . S
C742 C744 1.356 . S
C742 O767 1.325 . S
C743 C742 1.348 . S
C743 C745 1.353 . S
C743 H784 0.929 . S
C744 C742 1.356 . S
C744 C746 1.358 . S
C744 H785 0.930 . S
C745 C743 1.353 . S
C745 N747 1.314 . S
C745 H786 0.930 . S
C746 C744 1.358 . S
C746 N747 1.279 . S
C746 H787 0.930 . S
N747 C745 1.314 . S
N747 C746 1.279 . S
C748 C750 1.353 . S
C748 N751 1.314 . S
C748 H754 0.930 . S
C749 N751 1.279 . S
C749 C752 1.358 . S
C749 H755 0.930 . S
C750 C748 1.353 . S
C750 C753 1.348 . S
C750 H788 0.929 . S
N751 Li706 1.990 . S
N751 C748 1.314 . S
N751 C749 1.279 . S
C752 C749 1.358 . S
C752 C753 1.356 . S
C752 H789 0.930 . S
C753 C750 1.348 . S
C753 C752 1.356 . S
H754 C748 0.930 . S
H755 C749 0.930 . S
C756 N757 1.314 . S
C756 C758 1.353 . S
C756 H762 0.930 . S
N757 Li707 1.990 . S
N757 C756 1.314 . S
N757 C760 1.279 . S
C758 C756 1.353 . S
C758 C761 1.348 . S
C758 H790 0.929 . S
C759 C760 1.358 . S
C759 C761 1.356 . S
C759 H791 0.930 . S
C760 N757 1.279 . S
C760 C759 1.358 . S
C760 H763 0.930 . S
C761 C758 1.348 . S
C761 C759 1.356 . S
H762 C756 0.930 . S
H763 C760 0.930 . S
O764 Li704 1.956 . S
O764 Li705 1.970 . S
O764 Li706 1.961 . S
O764 C708 1.325 . S
O765 Li704 1.970 . S
O765 Li705 1.956 . S
O765 Li707 1.961 . S
O765 C714 1.325 . S
O766 Li704 1.961 . S
O766 Li706 1.956 . S
O766 Li707 1.970 . S
O766 C736 1.325 . S
O767 Li705 1.961 . S
O767 Li706 1.970 . S
O767 Li707 1.956 . S
O767 C742 1.325 . S
H768 C710 0.929 . S
H769 C711 0.930 . S
H770 C712 0.930 . S
H771 C713 0.930 . S
H772 C715 0.930 . S
H773 C717 0.929 . S
H774 C718 0.930 . S
H775 C719 0.930 . S
H776 C722 0.930 . S
H777 C725 0.929 . S
H778 C730 0.929 . S
H779 C731 0.930 . S
H780 C738 0.929 . S
H781 C739 0.930 . S
H782 C740 0.930 . S
H783 C741 0.930 . S
H784 C743 0.929 . S
H785 C744 0.930 . S
H786 C745 0.930 . S
H787 C746 0.930 . S
H788 C750 0.929 . S
H789 C752 0.930 . S
H790 C758 0.929 . S
H791 C759 0.930 . S
Li792 N809 1.990 . S
Li792 O852 1.956 . S
Li792 O853 1.970 . S
Li792 O854 1.961 . S
Li793 N817 1.990 . S
Li793 O852 1.970 . S
Li793 O853 1.956 . S
Li793 O855 1.961 . S
Li794 N839 1.990 . S
Li794 O852 1.961 . S
Li794 O854 1.956 . S
Li794 O855 1.970 . S
Li795 N845 1.990 . S
Li795 O853 1.961 . S
Li795 O854 1.970 . S
Li795 O855 1.956 . S
C796 C798 1.348 . S
C796 C799 1.356 . S
C796 O852 1.325 . S
N797 C800 1.314 . S
N797 C801 1.279 . S
C798 C796 1.348 . S
C798 C800 1.353 . S
C798 H856 0.929 . S
C799 C796 1.356 . S
C799 C801 1.358 . S
C799 H857 0.930 . S
C800 N797 1.314 . S
C800 C798 1.353 . S
C800 H858 0.930 . S
C801 N797 1.279 . S
C801 C799 1.358 . S
C801 H859 0.930 . S
C802 C805 1.348 . S
C802 C806 1.356 . S
C802 O853 1.325 . S
C803 N804 1.276 1_556 S
C803 C806 1.363 . S
C803 H860 0.929 1_556 S
N804 C803 1.276 1_554 S
N804 C807 1.314 . S
C805 C802 1.348 . S
C805 C807 1.353 1_556 S
C805 H861 0.929 . S
C806 C802 1.356 . S
C806 C803 1.363 . S
C806 H862 0.930 . S
C807 N804 1.314 . S
C807 C805 1.353 1_554 S
C807 H863 0.930 . S
C808 N809 1.314 . S
C808 C813 1.353 . S
C808 H814 0.930 . S
N809 Li792 1.990 . S
N809 C808 1.314 . S
N809 C811 1.279 . S
C810 C811 1.358 . S
C810 C812 1.356 . S
C810 H864 0.930 . S
C811 N809 1.279 . S
C811 C810 1.358 . S
C811 H815 0.930 . S
C812 C810 1.356 . S
C812 C813 1.348 . S
C813 C808 1.353 . S
C813 C812 1.348 . S
C813 H865 0.929 . S
H814 C808 0.930 . S
H815 C811 0.930 . S
C816 N817 1.314 . S
C816 C818 1.353 . S
C816 H822 0.930 . S
N817 Li793 1.990 . S
N817 C816 1.314 . S
N817 C820 1.279 . S
C818 C816 1.353 . S
C818 C821 1.348 . S
C818 H866 0.929 . S
C819 C820 1.358 . S
C819 C821 1.356 . S
C819 H867 0.930 . S
C820 N817 1.279 . S
C820 C819 1.358 . S
C820 H823 0.930 . S
C821 C818 1.348 . S
C821 C819 1.356 . S
H822 C816 0.930 . S
H823 C820 0.930 . S
C824 C826 1.348 . S
C824 C827 1.356 . S
C824 O854 1.325 . S
N825 C828 1.314 . S
N825 C829 1.279 . S
C826 C824 1.348 . S
C826 C828 1.353 . S
C826 H868 0.929 . S
C827 C824 1.356 . S
C827 C829 1.358 . S
C827 H869 0.930 . S
C828 N825 1.314 . S
C828 C826 1.353 . S
C828 H870 0.930 . S
C829 N825 1.279 . S
C829 C827 1.358 . S
C829 H871 0.930 . S
C830 C831 1.348 . S
C830 C832 1.356 . S
C830 O855 1.325 . S
C831 C830 1.348 . S
C831 C833 1.353 . S
C831 H872 0.929 . S
C832 C830 1.356 . S
C832 C834 1.358 . S
C832 H873 0.930 . S
C833 C831 1.353 . S
C833 N835 1.314 . S
C833 H874 0.930 . S
C834 C832 1.358 . S
C834 N835 1.279 . S
C834 H875 0.930 . S
N835 C833 1.314 . S
N835 C834 1.279 . S
C836 C838 1.353 . S
C836 N839 1.314 . S
C836 H842 0.930 . S
C837 N839 1.279 . S
C837 C840 1.358 . S
C837 H843 0.930 . S
C838 C836 1.353 . S
C838 C841 1.348 . S
C838 H876 0.929 . S
N839 Li794 1.990 . S
N839 C836 1.314 . S
N839 C837 1.279 . S
C840 C837 1.358 . S
C840 C841 1.356 . S
C840 H877 0.930 . S
C841 C838 1.348 . S
C841 C840 1.356 . S
H842 C836 0.930 . S
H843 C837 0.930 . S
C844 N845 1.314 . S
C844 C846 1.353 . S
C844 H850 0.930 . S
N845 Li795 1.990 . S
N845 C844 1.314 . S
N845 C848 1.279 . S
C846 C844 1.353 . S
C846 C849 1.348 . S
C846 H878 0.929 . S
C847 C848 1.358 . S
C847 C849 1.356 . S
C847 H879 0.930 . S
C848 N845 1.279 . S
C848 C847 1.358 . S
C848 H851 0.930 . S
C849 C846 1.348 . S
C849 C847 1.356 . S
H850 C844 0.930 . S
H851 C848 0.930 . S
O852 Li792 1.956 . S
O852 Li793 1.970 . S
O852 Li794 1.961 . S
O852 C796 1.325 . S
O853 Li792 1.970 . S
O853 Li793 1.956 . S
O853 Li795 1.961 . S
O853 C802 1.325 . S
O854 Li792 1.961 . S
O854 Li794 1.956 . S
O854 Li795 1.970 . S
O854 C824 1.325 . S
O855 Li793 1.961 . S
O855 Li794 1.970 . S
O855 Li795 1.956 . S
O855 C830 1.325 . S
H856 C798 0.929 . S
H857 C799 0.930 . S
H858 C800 0.930 . S
H859 C801 0.930 . S
H860 C803 0.929 1_554 S
H861 C805 0.929 . S
H862 C806 0.930 . S
H863 C807 0.930 . S
H864 C810 0.930 . S
H865 C813 0.929 . S
H866 C818 0.929 . S
H867 C819 0.930 . S
H868 C826 0.929 . S
H869 C827 0.930 . S
H870 C828 0.930 . S
H871 C829 0.930 . S
H872 C831 0.929 . S
H873 C832 0.930 . S
H874 C833 0.930 . S
H875 C834 0.930 . S
H876 C838 0.929 . S
H877 C840 0.930 . S
H878 C846 0.929 . S
H879 C847 0.930 . S
Li880 N897 1.990 . S
Li880 O940 1.956 . S
Li880 O941 1.970 . S
Li880 O942 1.961 . S
Li881 N905 1.990 . S
Li881 O940 1.970 . S
Li881 O941 1.956 . S
Li881 O943 1.961 . S
Li882 N927 1.990 . S
Li882 O940 1.961 . S
Li882 O942 1.956 . S
Li882 O943 1.970 . S
Li883 N933 1.990 . S
Li883 O941 1.961 . S
Li883 O942 1.970 . S
Li883 O943 1.956 . S
C884 C886 1.348 . S
C884 C887 1.356 . S
C884 O940 1.325 . S
N885 C888 1.314 . S
N885 C889 1.279 . S
C886 C884 1.348 . S
C886 C888 1.353 . S
C886 H944 0.929 . S
C887 C884 1.356 . S
C887 C889 1.358 . S
C887 H945 0.930 . S
C888 N885 1.314 . S
C888 C886 1.353 . S
C888 H946 0.930 . S
C889 N885 1.279 . S
C889 C887 1.358 . S
C889 H947 0.930 . S
C890 C893 1.348 . S
C890 C894 1.356 . S
C890 O941 1.325 . S
C891 N892 1.279 . S
C891 C894 1.358 . S
C891 H948 0.930 . S
N892 C891 1.279 . S
N892 C895 1.314 . S
C893 C890 1.348 . S
C893 C895 1.353 . S
C893 H949 0.929 . S
C894 C890 1.356 . S
C894 C891 1.358 . S
C894 H950 0.930 . S
C895 N892 1.314 . S
C895 C893 1.353 . S
C895 H951 0.930 . S
C896 N897 1.314 . S
C896 C901 1.353 . S
C896 H902 0.930 . S
N897 Li880 1.990 . S
N897 C896 1.314 . S
N897 C899 1.279 . S
C898 C899 1.358 . S
C898 C900 1.356 . S
C898 H952 0.930 . S
C899 N897 1.279 . S
C899 C898 1.358 . S
C899 H903 0.930 . S
C900 C898 1.356 . S
C900 C901 1.348 . S
C901 C896 1.353 . S
C901 C900 1.348 . S
C901 H953 0.929 . S
H902 C896 0.930 . S
H903 C899 0.930 . S
C904 N905 1.314 . S
C904 C906 1.353 . S
C904 H910 0.930 . S
N905 Li881 1.990 . S
N905 C904 1.314 . S
N905 C908 1.279 . S
C906 C904 1.353 . S
C906 C909 1.348 . S
C906 H954 0.929 . S
C907 C908 1.358 . S
C907 C909 1.356 . S
C907 H955 0.930 . S
C908 N905 1.279 . S
C908 C907 1.358 . S
C908 H911 0.930 . S
C909 C906 1.348 . S
C909 C907 1.356 . S
H910 C904 0.930 . S
H911 C908 0.930 . S
C912 C914 1.348 . S
C912 C915 1.356 . S
C912 O942 1.325 . S
N913 C916 1.314 . S
N913 C917 1.279 . S
C914 C912 1.348 . S
C914 C916 1.353 . S
C914 H956 0.929 . S
C915 C912 1.356 . S
C915 C917 1.358 . S
C915 H957 0.930 . S
C916 N913 1.314 . S
C916 C914 1.353 . S
C916 H958 0.930 . S
C917 N913 1.279 . S
C917 C915 1.358 . S
C917 H959 0.930 . S
C918 C919 1.348 . S
C918 C920 1.356 . S
C918 O943 1.325 . S
C919 C918 1.348 . S
C919 C921 1.353 . S
C919 H960 0.929 . S
C920 C918 1.356 . S
C920 C922 1.358 . S
C920 H961 0.930 . S
C921 C919 1.353 . S
C921 N923 1.314 . S
C921 H962 0.930 . S
C922 C920 1.358 . S
C922 N923 1.279 . S
C922 H963 0.930 . S
N923 C921 1.314 . S
N923 C922 1.279 . S
C924 C926 1.353 . S
C924 N927 1.314 . S
C924 H930 0.930 . S
C925 N927 1.279 . S
C925 C928 1.358 . S
C925 H931 0.930 . S
C926 C924 1.353 . S
C926 C929 1.348 . S
C926 H964 0.929 . S
N927 Li882 1.990 . S
N927 C924 1.314 . S
N927 C925 1.279 . S
C928 C925 1.358 . S
C928 C929 1.356 . S
C928 H965 0.930 . S
C929 C926 1.348 . S
C929 C928 1.356 . S
H930 C924 0.930 . S
H931 C925 0.930 . S
C932 N933 1.314 . S
C932 C934 1.353 . S
C932 H938 0.930 . S
N933 Li883 1.990 . S
N933 C932 1.314 . S
N933 C936 1.279 . S
C934 C932 1.353 . S
C934 C937 1.348 . S
C934 H966 0.929 . S
C935 C936 1.358 . S
C935 C937 1.356 . S
C935 H967 0.930 . S
C936 N933 1.279 . S
C936 C935 1.358 . S
C936 H939 0.930 . S
C937 C934 1.348 . S
C937 C935 1.356 . S
H938 C932 0.930 . S
H939 C936 0.930 . S
O940 Li880 1.956 . S
O940 Li881 1.970 . S
O940 Li882 1.961 . S
O940 C884 1.325 . S
O941 Li880 1.970 . S
O941 Li881 1.956 . S
O941 Li883 1.961 . S
O941 C890 1.325 . S
O942 Li880 1.961 . S
O942 Li882 1.956 . S
O942 Li883 1.970 . S
O942 C912 1.325 . S
O943 Li881 1.961 . S
O943 Li882 1.970 . S
O943 Li883 1.956 . S
O943 C918 1.325 . S
H944 C886 0.929 . S
H945 C887 0.930 . S
H946 C888 0.930 . S
H947 C889 0.930 . S
H948 C891 0.930 . S
H949 C893 0.929 . S
H950 C894 0.930 . S
H951 C895 0.930 . S
H952 C898 0.930 . S
H953 C901 0.929 . S
H954 C906 0.929 . S
H955 C907 0.930 . S
H956 C914 0.929 . S
H957 C915 0.930 . S
H958 C916 0.930 . S
H959 C917 0.930 . S
H960 C919 0.929 . S
H961 C920 0.930 . S
H962 C921 0.930 . S
H963 C922 0.930 . S
H964 C926 0.929 . S
H965 C928 0.930 . S
H966 C934 0.929 . S
H967 C935 0.930 . S
Li968 N985 1.990 . S
Li968 O1028 1.956 . S
Li968 O1029 1.970 . S
Li968 O1030 1.961 . S
Li969 N993 1.990 . S
Li969 O1028 1.970 . S
Li969 O1029 1.956 . S
Li969 O1031 1.961 . S
Li970 N1015 1.990 . S
Li970 O1028 1.961 . S
Li970 O1030 1.956 . S
Li970 O1031 1.970 . S
Li971 N1021 1.990 . S
Li971 O1029 1.961 . S
Li971 O1030 1.970 . S
Li971 O1031 1.956 . S
C972 C974 1.348 . S
C972 C975 1.356 . S
C972 O1028 1.325 . S
N973 C976 1.314 . S
N973 C977 1.279 . S
C974 C972 1.348 . S
C974 C976 1.353 . S
C974 H1032 0.929 . S
C975 C972 1.356 . S
C975 C977 1.358 . S
C975 H1033 0.930 . S
C976 N973 1.314 . S
C976 C974 1.353 . S
C976 H1034 0.930 . S
C977 N973 1.279 . S
C977 C975 1.358 . S
C977 H1035 0.930 . S
C978 C981 1.348 . S
C978 C982 1.356 . S
C978 O1029 1.325 . S
C979 N980 1.275 1_556 S
C979 C982 1.364 . S
C979 H1036 0.929 1_556 S
N980 C979 1.275 1_554 S
N980 C983 1.314 . S
C981 C978 1.348 . S
C981 C983 1.353 1_556 S
C981 H1037 0.929 . S
C982 C978 1.356 . S
C982 C979 1.364 . S
C982 H1038 0.930 . S
C983 N980 1.314 . S
C983 C981 1.353 1_554 S
C983 H1039 0.930 . S
C984 N985 1.314 . S
C984 C989 1.353 . S
C984 H990 0.930 . S
N985 Li968 1.990 . S
N985 C984 1.314 . S
N985 C987 1.279 . S
C986 C987 1.358 . S
C986 C988 1.356 . S
C986 H1040 0.930 . S
C987 N985 1.279 . S
C987 C986 1.358 . S
C987 H991 0.930 . S
C988 C986 1.356 . S
C988 C989 1.348 . S
C989 C984 1.353 . S
C989 C988 1.348 . S
C989 H1041 0.929 . S
H990 C984 0.930 . S
H991 C987 0.930 . S
C992 N993 1.314 . S
C992 C994 1.353 . S
C992 H998 0.930 . S
N993 Li969 1.990 . S
N993 C992 1.314 . S
N993 C996 1.279 . S
C994 C992 1.353 . S
C994 C997 1.348 . S
C994 H1042 0.929 . S
C995 C996 1.358 . S
C995 C997 1.356 . S
C995 H1043 0.930 . S
C996 N993 1.279 . S
C996 C995 1.358 . S
C996 H999 0.930 . S
C997 C994 1.348 . S
C997 C995 1.356 . S
H998 C992 0.930 . S
H999 C996 0.930 . S
C1000 C1002 1.348 . S
C1000 C1003 1.356 . S
C1000 O1030 1.325 . S
N1001 C1004 1.314 . S
N1001 C1005 1.279 . S
C1002 C1000 1.348 . S
C1002 C1004 1.353 . S
C1002 H1044 0.929 . S
C1003 C1000 1.356 . S
C1003 C1005 1.358 . S
C1003 H1045 0.930 . S
C1004 N1001 1.314 . S
C1004 C1002 1.353 . S
C1004 H1046 0.930 . S
C1005 N1001 1.279 . S
C1005 C1003 1.358 . S
C1005 H1047 0.930 . S
C1006 C1007 1.348 . S
C1006 C1008 1.356 . S
C1006 O1031 1.325 . S
C1007 C1006 1.348 . S
C1007 C1009 1.353 . S
C1007 H1048 0.929 . S
C1008 C1006 1.356 . S
C1008 C1010 1.358 . S
C1008 H1049 0.930 . S
C1009 C1007 1.353 . S
C1009 N1011 1.314 . S
C1009 H1050 0.930 . S
C1010 C1008 1.358 . S
C1010 N1011 1.279 . S
C1010 H1051 0.930 . S
N1011 C1009 1.314 . S
N1011 C1010 1.279 . S
C1012 C1014 1.353 . S
C1012 N1015 1.314 . S
C1012 H1018 0.930 . S
C1013 N1015 1.279 . S
C1013 C1016 1.358 . S
C1013 H1019 0.930 . S
C1014 C1012 1.353 . S
C1014 C1017 1.348 . S
C1014 H1052 0.929 . S
N1015 Li970 1.990 . S
N1015 C1012 1.314 . S
N1015 C1013 1.279 . S
C1016 C1013 1.358 . S
C1016 C1017 1.356 . S
C1016 H1053 0.930 . S
C1017 C1014 1.348 . S
C1017 C1016 1.356 . S
H1018 C1012 0.930 . S
H1019 C1013 0.930 . S
C1020 N1021 1.314 . S
C1020 C1022 1.353 . S
C1020 H1026 0.930 . S
N1021 Li971 1.990 . S
N1021 C1020 1.314 . S
N1021 C1024 1.279 . S
C1022 C1020 1.353 . S
C1022 C1025 1.348 . S
C1022 H1054 0.929 . S
C1023 C1024 1.358 . S
C1023 C1025 1.356 . S
C1023 H1055 0.930 . S
C1024 N1021 1.279 . S
C1024 C1023 1.358 . S
C1024 H1027 0.930 . S
C1025 C1022 1.348 . S
C1025 C1023 1.356 . S
H1026 C1020 0.930 . S
H1027 C1024 0.930 . S
O1028 Li968 1.956 . S
O1028 Li969 1.970 . S
O1028 Li970 1.961 . S
O1028 C972 1.325 . S
O1029 Li968 1.970 . S
O1029 Li969 1.956 . S
O1029 Li971 1.961 . S
O1029 C978 1.325 . S
O1030 Li968 1.961 . S
O1030 Li970 1.956 . S
O1030 Li971 1.970 . S
O1030 C1000 1.325 . S
O1031 Li969 1.961 . S
O1031 Li970 1.970 . S
O1031 Li971 1.956 . S
O1031 C1006 1.325 . S
H1032 C974 0.929 . S
H1033 C975 0.930 . S
H1034 C976 0.930 . S
H1035 C977 0.930 . S
H1036 C979 0.929 1_554 S
H1037 C981 0.929 . S
H1038 C982 0.930 . S
H1039 C983 0.930 . S
H1040 C986 0.930 . S
H1041 C989 0.929 . S
H1042 C994 0.929 . S
H1043 C995 0.930 . S
H1044 C1002 0.929 . S
H1045 C1003 0.930 . S
H1046 C1004 0.930 . S
H1047 C1005 0.930 . S
H1048 C1007 0.929 . S
H1049 C1008 0.930 . S
H1050 C1009 0.930 . S
H1051 C1010 0.930 . S
H1052 C1014 0.929 . S
H1053 C1016 0.930 . S
H1054 C1022 0.929 . S
H1055 C1023 0.930 . S
Li1056 N1073 1.990 . S
Li1056 O1116 1.956 . S
Li1056 O1117 1.970 . S
Li1056 O1118 1.961 . S
Li1057 N1081 1.990 . S
Li1057 O1116 1.970 . S
Li1057 O1117 1.956 . S
Li1057 O1119 1.961 . S
Li1058 N1103 1.990 . S
Li1058 O1116 1.961 . S
Li1058 O1118 1.956 . S
Li1058 O1119 1.970 . S
Li1059 N1109 1.990 . S
Li1059 O1117 1.961 . S
Li1059 O1118 1.970 . S
Li1059 O1119 1.956 . S
C1060 C1062 1.348 . S
C1060 C1063 1.356 . S
C1060 O1116 1.325 . S
N1061 C1064 1.314 . S
N1061 C1065 1.279 . S
C1062 C1060 1.348 . S
C1062 C1064 1.353 . S
C1062 H1120 0.929 . S
C1063 C1060 1.356 . S
C1063 C1065 1.358 . S
C1063 H1121 0.930 . S
C1064 N1061 1.314 . S
C1064 C1062 1.353 . S
C1064 H1122 0.930 . S
C1065 N1061 1.279 . S
C1065 C1063 1.358 . S
C1065 H1123 0.930 . S
C1066 C1069 1.348 . S
C1066 C1070 1.356 . S
C1066 O1117 1.325 . S
C1067 N1068 1.252 1_556 S
C1067 C1070 1.394 . S
C1067 H1124 0.923 1_556 S
N1068 C1067 1.252 1_554 S
N1068 C1071 1.314 . S
C1069 C1066 1.348 . S
C1069 C1071 1.353 1_556 S
C1069 H1125 0.929 . S
C1070 C1066 1.356 . S
C1070 C1067 1.394 . S
C1070 H1126 0.930 . S
C1071 N1068 1.314 . S
C1071 C1069 1.353 1_554 S
C1071 H1127 0.930 . S
C1072 N1073 1.314 . S
C1072 C1077 1.353 . S
C1072 H1078 0.930 . S
N1073 Li1056 1.990 . S
N1073 C1072 1.314 . S
N1073 C1075 1.279 . S
C1074 C1075 1.358 . S
C1074 C1076 1.356 . S
C1074 H1128 0.930 . S
C1075 N1073 1.279 . S
C1075 C1074 1.358 . S
C1075 H1079 0.930 . S
C1076 C1074 1.356 . S
C1076 C1077 1.348 . S
C1077 C1072 1.353 . S
C1077 C1076 1.348 . S
C1077 H1129 0.929 . S
H1078 C1072 0.930 . S
H1079 C1075 0.930 . S
C1080 N1081 1.314 . S
C1080 C1082 1.353 . S
C1080 H1086 0.930 . S
N1081 Li1057 1.990 . S
N1081 C1080 1.314 . S
N1081 C1084 1.279 . S
C1082 C1080 1.353 . S
C1082 C1085 1.348 . S
C1082 H1130 0.929 . S
C1083 C1084 1.358 . S
C1083 C1085 1.356 . S
C1083 H1131 0.930 . S
C1084 N1081 1.279 . S
C1084 C1083 1.358 . S
C1084 H1087 0.930 . S
C1085 C1082 1.348 . S
C1085 C1083 1.356 . S
H1086 C1080 0.930 . S
H1087 C1084 0.930 . S
C1088 C1090 1.348 . S
C1088 C1091 1.356 . S
C1088 O1118 1.325 . S
N1089 C1092 1.314 . S
N1089 C1093 1.279 . S
C1090 C1088 1.348 . S
C1090 C1092 1.353 . S
C1090 H1132 0.929 . S
C1091 C1088 1.356 . S
C1091 C1093 1.358 . S
C1091 H1133 0.930 . S
C1092 N1089 1.314 . S
C1092 C1090 1.353 . S
C1092 H1134 0.930 . S
C1093 N1089 1.279 . S
C1093 C1091 1.358 . S
C1093 H1135 0.930 . S
C1094 C1095 1.348 . S
C1094 C1096 1.356 . S
C1094 O1119 1.325 . S
C1095 C1094 1.348 . S
C1095 C1097 1.353 . S
C1095 H1136 0.929 . S
C1096 C1094 1.356 . S
C1096 C1098 1.358 . S
C1096 H1137 0.930 . S
C1097 C1095 1.353 . S
C1097 N1099 1.314 . S
C1097 H1138 0.930 . S
C1098 C1096 1.358 . S
C1098 N1099 1.279 . S
C1098 H1139 0.930 . S
N1099 C1097 1.314 . S
N1099 C1098 1.279 . S
C1100 C1102 1.353 . S
C1100 N1103 1.314 . S
C1100 H1106 0.930 . S
C1101 N1103 1.279 . S
C1101 C1104 1.358 . S
C1101 H1107 0.930 . S
C1102 C1100 1.353 . S
C1102 C1105 1.348 . S
C1102 H1140 0.929 . S
N1103 Li1058 1.990 . S
N1103 C1100 1.314 . S
N1103 C1101 1.279 . S
C1104 C1101 1.358 . S
C1104 C1105 1.356 . S
C1104 H1141 0.930 . S
C1105 C1102 1.348 . S
C1105 C1104 1.356 . S
H1106 C1100 0.930 . S
H1107 C1101 0.930 . S
C1108 N1109 1.314 . S
C1108 C1110 1.353 . S
C1108 H1114 0.930 . S
N1109 Li1059 1.990 . S
N1109 C1108 1.314 . S
N1109 C1112 1.279 . S
C1110 C1108 1.353 . S
C1110 C1113 1.348 . S
C1110 H1142 0.929 . S
C1111 C1112 1.358 . S
C1111 C1113 1.356 . S
C1111 H1143 0.930 . S
C1112 N1109 1.279 . S
C1112 C1111 1.358 . S
C1112 H1115 0.930 . S
C1113 C1110 1.348 . S
C1113 C1111 1.356 . S
H1114 C1108 0.930 . S
H1115 C1112 0.930 . S
O1116 Li1056 1.956 . S
O1116 Li1057 1.970 . S
O1116 Li1058 1.961 . S
O1116 C1060 1.325 . S
O1117 Li1056 1.970 . S
O1117 Li1057 1.956 . S
O1117 Li1059 1.961 . S
O1117 C1066 1.325 . S
O1118 Li1056 1.961 . S
O1118 Li1058 1.956 . S
O1118 Li1059 1.970 . S
O1118 C1088 1.325 . S
O1119 Li1057 1.961 . S
O1119 Li1058 1.970 . S
O1119 Li1059 1.956 . S
O1119 C1094 1.325 . S
H1120 C1062 0.929 . S
H1121 C1063 0.930 . S
H1122 C1064 0.930 . S
H1123 C1065 0.930 . S
H1124 C1067 0.923 1_554 S
H1125 C1069 0.929 . S
H1126 C1070 0.930 . S
H1127 C1071 0.930 . S
H1128 C1074 0.930 . S
H1129 C1077 0.929 . S
H1130 C1082 0.929 . S
H1131 C1083 0.930 . S
H1132 C1090 0.929 . S
H1133 C1091 0.930 . S
H1134 C1092 0.930 . S
H1135 C1093 0.930 . S
H1136 C1095 0.929 . S
H1137 C1096 0.930 . S
H1138 C1097 0.930 . S
H1139 C1098 0.930 . S
H1140 C1102 0.929 . S
H1141 C1104 0.930 . S
H1142 C1110 0.929 . S
H1143 C1111 0.930 . S
Li1144 N1161 1.990 . S
Li1144 O1204 1.956 . S
Li1144 O1205 1.970 . S
Li1144 O1206 1.961 . S
Li1145 N1169 1.990 . S
Li1145 O1204 1.970 . S
Li1145 O1205 1.956 . S
Li1145 O1207 1.961 . S
Li1146 N1191 1.990 . S
Li1146 O1204 1.961 . S
Li1146 O1206 1.956 . S
Li1146 O1207 1.970 . S
Li1147 N1197 1.990 . S
Li1147 O1205 1.961 . S
Li1147 O1206 1.970 . S
Li1147 O1207 1.956 . S
C1148 C1150 1.348 . S
C1148 C1151 1.356 . S
C1148 O1204 1.325 . S
N1149 C1152 1.314 . S
N1149 C1153 1.279 . S
C1150 C1148 1.348 . S
C1150 C1152 1.353 . S
C1150 H1208 0.929 . S
C1151 C1148 1.356 . S
C1151 C1153 1.358 . S
C1151 H1209 0.930 . S
C1152 N1149 1.314 . S
C1152 C1150 1.353 . S
C1152 H1210 0.930 . S
C1153 N1149 1.279 . S
C1153 C1151 1.358 . S
C1153 H1211 0.930 . S
C1154 C1157 1.348 . S
C1154 C1158 1.356 . S
C1154 O1205 1.325 . S
C1155 N1156 1.279 . S
C1155 C1158 1.358 . S
C1155 H1212 0.930 . S
N1156 C1155 1.279 . S
N1156 C1159 1.314 . S
C1157 C1154 1.348 . S
C1157 C1159 1.353 . S
C1157 H1213 0.929 . S
C1158 C1154 1.356 . S
C1158 C1155 1.358 . S
C1158 H1214 0.930 . S
C1159 N1156 1.314 . S
C1159 C1157 1.353 . S
C1159 H1215 0.930 . S
C1160 N1161 1.314 . S
C1160 C1165 1.353 . S
C1160 H1166 0.930 . S
N1161 Li1144 1.990 . S
N1161 C1160 1.314 . S
N1161 C1163 1.279 . S
C1162 C1163 1.358 . S
C1162 C1164 1.356 . S
C1162 H1216 0.930 . S
C1163 N1161 1.279 . S
C1163 C1162 1.358 . S
C1163 H1167 0.930 . S
C1164 C1162 1.356 . S
C1164 C1165 1.348 . S
C1165 C1160 1.353 . S
C1165 C1164 1.348 . S
C1165 H1217 0.929 . S
H1166 C1160 0.930 . S
H1167 C1163 0.930 . S
C1168 N1169 1.314 . S
C1168 C1170 1.353 . S
C1168 H1174 0.930 . S
N1169 Li1145 1.990 . S
N1169 C1168 1.314 . S
N1169 C1172 1.279 . S
C1170 C1168 1.353 . S
C1170 C1173 1.348 . S
C1170 H1218 0.929 . S
C1171 C1172 1.358 . S
C1171 C1173 1.356 . S
C1171 H1219 0.930 . S
C1172 N1169 1.279 . S
C1172 C1171 1.358 . S
C1172 H1175 0.930 . S
C1173 C1170 1.348 . S
C1173 C1171 1.356 . S
H1174 C1168 0.930 . S
H1175 C1172 0.930 . S
C1176 C1178 1.348 . S
C1176 C1179 1.356 . S
C1176 O1206 1.325 . S
N1177 C1180 1.314 . S
N1177 C1181 1.279 . S
C1178 C1176 1.348 . S
C1178 C1180 1.353 . S
C1178 H1220 0.929 . S
C1179 C1176 1.356 . S
C1179 C1181 1.358 . S
C1179 H1221 0.930 . S
C1180 N1177 1.314 . S
C1180 C1178 1.353 . S
C1180 H1222 0.930 . S
C1181 N1177 1.279 . S
C1181 C1179 1.358 . S
C1181 H1223 0.930 . S
C1182 C1183 1.348 . S
C1182 C1184 1.356 . S
C1182 O1207 1.325 . S
C1183 C1182 1.348 . S
C1183 C1185 1.353 . S
C1183 H1224 0.929 . S
C1184 C1182 1.356 . S
C1184 C1186 1.358 . S
C1184 H1225 0.930 . S
C1185 C1183 1.353 . S
C1185 N1187 1.314 . S
C1185 H1226 0.930 . S
C1186 C1184 1.358 . S
C1186 N1187 1.279 . S
C1186 H1227 0.930 . S
N1187 C1185 1.314 . S
N1187 C1186 1.279 . S
C1188 C1190 1.353 . S
C1188 N1191 1.314 . S
C1188 H1194 0.930 . S
C1189 N1191 1.279 . S
C1189 C1192 1.358 . S
C1189 H1195 0.930 . S
C1190 C1188 1.353 . S
C1190 C1193 1.348 . S
C1190 H1228 0.929 . S
N1191 Li1146 1.990 . S
N1191 C1188 1.314 . S
N1191 C1189 1.279 . S
C1192 C1189 1.358 . S
C1192 C1193 1.356 . S
C1192 H1229 0.930 . S
C1193 C1190 1.348 . S
C1193 C1192 1.356 . S
H1194 C1188 0.930 . S
H1195 C1189 0.930 . S
C1196 N1197 1.314 . S
C1196 C1198 1.353 . S
C1196 H1202 0.930 . S
N1197 Li1147 1.990 . S
N1197 C1196 1.314 . S
N1197 C1200 1.279 . S
C1198 C1196 1.353 . S
C1198 C1201 1.348 . S
C1198 H1230 0.929 . S
C1199 C1200 1.358 . S
C1199 C1201 1.356 . S
C1199 H1231 0.930 . S
C1200 N1197 1.279 . S
C1200 C1199 1.358 . S
C1200 H1203 0.930 . S
C1201 C1198 1.348 . S
C1201 C1199 1.356 . S
H1202 C1196 0.930 . S
H1203 C1200 0.930 . S
O1204 Li1144 1.956 . S
O1204 Li1145 1.970 . S
O1204 Li1146 1.961 . S
O1204 C1148 1.325 . S
O1205 Li1144 1.970 . S
O1205 Li1145 1.956 . S
O1205 Li1147 1.961 . S
O1205 C1154 1.325 . S
O1206 Li1144 1.961 . S
O1206 Li1146 1.956 . S
O1206 Li1147 1.970 . S
O1206 C1176 1.325 . S
O1207 Li1145 1.961 . S
O1207 Li1146 1.970 . S
O1207 Li1147 1.956 . S
O1207 C1182 1.325 . S
H1208 C1150 0.929 . S
H1209 C1151 0.930 . S
H1210 C1152 0.930 . S
H1211 C1153 0.930 . S
H1212 C1155 0.930 . S
H1213 C1157 0.929 . S
H1214 C1158 0.930 . S
H1215 C1159 0.930 . S
H1216 C1162 0.930 . S
H1217 C1165 0.929 . S
H1218 C1170 0.929 . S
H1219 C1171 0.930 . S
H1220 C1178 0.929 . S
H1221 C1179 0.930 . S
H1222 C1180 0.930 . S
H1223 C1181 0.930 . S
H1224 C1183 0.929 . S
H1225 C1184 0.930 . S
H1226 C1185 0.930 . S
H1227 C1186 0.930 . S
H1228 C1190 0.929 . S
H1229 C1192 0.930 . S
H1230 C1198 0.929 . S
H1231 C1199 0.930 . S
Li1232 N1249 1.990 . S
Li1232 O1292 1.956 . S
Li1232 O1293 1.970 . S
Li1232 O1294 1.961 . S
Li1233 N1257 1.990 . S
Li1233 O1292 1.970 . S
Li1233 O1293 1.956 . S
Li1233 O1295 1.961 . S
Li1234 N1279 1.990 . S
Li1234 O1292 1.961 . S
Li1234 O1294 1.956 . S
Li1234 O1295 1.970 . S
Li1235 N1285 1.990 . S
Li1235 O1293 1.961 . S
Li1235 O1294 1.970 . S
Li1235 O1295 1.956 . S
C1236 C1238 1.348 . S
C1236 C1239 1.356 . S
C1236 O1292 1.325 . S
N1237 C1240 1.314 . S
N1237 C1241 1.253 1_554 S
C1238 C1236 1.348 . S
C1238 C1240 1.353 1_556 S
C1238 H1296 0.929 . S
C1239 C1236 1.356 . S
C1239 C1241 1.392 . S
C1239 H1297 0.930 . S
C1240 N1237 1.314 . S
C1240 C1238 1.353 1_554 S
C1240 H1298 0.930 . S
C1241 N1237 1.253 1_556 S
C1241 C1239 1.392 . S
C1241 H1299 0.923 1_556 S
C1242 C1245 1.348 . S
C1242 C1246 1.356 . S
C1242 O1293 1.325 . S
C1243 N1244 1.279 . S
C1243 C1246 1.358 . S
C1243 H1300 0.930 . S
N1244 C1243 1.279 . S
N1244 C1247 1.314 . S
C1245 C1242 1.348 . S
C1245 C1247 1.353 . S
C1245 H1301 0.929 . S
C1246 C1242 1.356 . S
C1246 C1243 1.358 . S
C1246 H1302 0.930 . S
C1247 N1244 1.314 . S
C1247 C1245 1.353 . S
C1247 H1303 0.930 . S
C1248 N1249 1.314 . S
C1248 C1253 1.353 . S
C1248 H1254 0.930 . S
N1249 Li1232 1.990 . S
N1249 C1248 1.314 . S
N1249 C1251 1.279 . S
C1250 C1251 1.358 . S
C1250 C1252 1.356 . S
C1250 H1304 0.930 . S
C1251 N1249 1.279 . S
C1251 C1250 1.358 . S
C1251 H1255 0.930 . S
C1252 C1250 1.356 . S
C1252 C1253 1.348 . S
C1253 C1248 1.353 . S
C1253 C1252 1.348 . S
C1253 H1305 0.929 . S
H1254 C1248 0.930 . S
H1255 C1251 0.930 . S
C1256 N1257 1.314 . S
C1256 C1258 1.353 . S
C1256 H1262 0.930 . S
N1257 Li1233 1.990 . S
N1257 C1256 1.314 . S
N1257 C1260 1.279 . S
C1258 C1256 1.353 . S
C1258 C1261 1.348 . S
C1258 H1306 0.929 . S
C1259 C1260 1.358 . S
C1259 C1261 1.356 . S
C1259 H1307 0.930 . S
C1260 N1257 1.279 . S
C1260 C1259 1.358 . S
C1260 H1263 0.930 . S
C1261 C1258 1.348 . S
C1261 C1259 1.356 . S
H1262 C1256 0.930 . S
H1263 C1260 0.930 . S
C1264 C1266 1.348 . S
C1264 C1267 1.356 . S
C1264 O1294 1.325 . S
N1265 C1268 1.314 . S
N1265 C1269 1.279 . S
C1266 C1264 1.348 . S
C1266 C1268 1.353 . S
C1266 H1308 0.929 . S
C1267 C1264 1.356 . S
C1267 C1269 1.358 . S
C1267 H1309 0.930 . S
C1268 N1265 1.314 . S
C1268 C1266 1.353 . S
C1268 H1310 0.930 . S
C1269 N1265 1.279 . S
C1269 C1267 1.358 . S
C1269 H1311 0.930 . S
C1270 C1271 1.348 . S
C1270 C1272 1.356 . S
C1270 O1295 1.325 . S
C1271 C1270 1.348 . S
C1271 C1273 1.353 . S
C1271 H1312 0.929 . S
C1272 C1270 1.356 . S
C1272 C1274 1.358 . S
C1272 H1313 0.930 . S
C1273 C1271 1.353 . S
C1273 N1275 1.314 . S
C1273 H1314 0.930 . S
C1274 C1272 1.358 . S
C1274 N1275 1.279 . S
C1274 H1315 0.930 . S
N1275 C1273 1.314 . S
N1275 C1274 1.279 . S
C1276 C1278 1.353 . S
C1276 N1279 1.314 . S
C1276 H1282 0.930 . S
C1277 N1279 1.279 . S
C1277 C1280 1.358 . S
C1277 H1283 0.930 . S
C1278 C1276 1.353 . S
C1278 C1281 1.348 . S
C1278 H1316 0.929 . S
N1279 Li1234 1.990 . S
N1279 C1276 1.314 . S
N1279 C1277 1.279 . S
C1280 C1277 1.358 . S
C1280 C1281 1.356 . S
C1280 H1317 0.930 . S
C1281 C1278 1.348 . S
C1281 C1280 1.356 . S
H1282 C1276 0.930 . S
H1283 C1277 0.930 . S
C1284 N1285 1.314 . S
C1284 C1286 1.353 . S
C1284 H1290 0.930 . S
N1285 Li1235 1.990 . S
N1285 C1284 1.314 . S
N1285 C1288 1.279 . S
C1286 C1284 1.353 . S
C1286 C1289 1.348 . S
C1286 H1318 0.929 . S
C1287 C1288 1.358 . S
C1287 C1289 1.356 . S
C1287 H1319 0.930 . S
C1288 N1285 1.279 . S
C1288 C1287 1.358 . S
C1288 H1291 0.930 . S
C1289 C1286 1.348 . S
C1289 C1287 1.356 . S
H1290 C1284 0.930 . S
H1291 C1288 0.930 . S
O1292 Li1232 1.956 . S
O1292 Li1233 1.970 . S
O1292 Li1234 1.961 . S
O1292 C1236 1.325 . S
O1293 Li1232 1.970 . S
O1293 Li1233 1.956 . S
O1293 Li1235 1.961 . S
O1293 C1242 1.325 . S
O1294 Li1232 1.961 . S
O1294 Li1234 1.956 . S
O1294 Li1235 1.970 . S
O1294 C1264 1.325 . S
O1295 Li1233 1.961 . S
O1295 Li1234 1.970 . S
O1295 Li1235 1.956 . S
O1295 C1270 1.325 . S
H1296 C1238 0.929 . S
H1297 C1239 0.930 . S
H1298 C1240 0.930 . S
H1299 C1241 0.923 1_554 S
H1300 C1243 0.930 . S
H1301 C1245 0.929 . S
H1302 C1246 0.930 . S
H1303 C1247 0.930 . S
H1304 C1250 0.930 . S
H1305 C1253 0.929 . S
H1306 C1258 0.929 . S
H1307 C1259 0.930 . S
H1308 C1266 0.929 . S
H1309 C1267 0.930 . S
H1310 C1268 0.930 . S
H1311 C1269 0.930 . S
H1312 C1271 0.929 . S
H1313 C1272 0.930 . S
H1314 C1273 0.930 . S
H1315 C1274 0.930 . S
H1316 C1278 0.929 . S
H1317 C1280 0.930 . S
H1318 C1286 0.929 . S
H1319 C1287 0.930 . S
Li1320 N1337 1.990 . S
Li1320 O1380 1.956 . S
Li1320 O1381 1.970 . S
Li1320 O1382 1.961 . S
Li1321 N1345 1.990 . S
Li1321 O1380 1.970 . S
Li1321 O1381 1.956 . S
Li1321 O1383 1.961 . S
Li1322 N1367 1.990 . S
Li1322 O1380 1.961 . S
Li1322 O1382 1.956 . S
Li1322 O1383 1.970 . S
Li1323 N1373 1.990 . S
Li1323 O1381 1.961 . S
Li1323 O1382 1.970 . S
Li1323 O1383 1.956 . S
C1324 C1326 1.348 . S
C1324 C1327 1.356 . S
C1324 O1380 1.325 . S
N1325 C1328 1.314 . S
N1325 C1329 1.279 . S
C1326 C1324 1.348 . S
C1326 C1328 1.353 . S
C1326 H1384 0.929 . S
C1327 C1324 1.356 . S
C1327 C1329 1.358 . S
C1327 H1385 0.930 . S
C1328 N1325 1.314 . S
C1328 C1326 1.353 . S
C1328 H1386 0.930 . S
C1329 N1325 1.279 . S
C1329 C1327 1.358 . S
C1329 H1387 0.930 . S
C1330 C1333 1.348 . S
C1330 C1334 1.356 . S
C1330 O1381 1.325 . S
C1331 N1332 1.279 . S
C1331 C1334 1.358 . S
C1331 H1388 0.930 . S
N1332 C1331 1.279 . S
N1332 C1335 1.314 . S
C1333 C1330 1.348 . S
C1333 C1335 1.353 . S
C1333 H1389 0.929 . S
C1334 C1330 1.356 . S
C1334 C1331 1.358 . S
C1334 H1390 0.930 . S
C1335 N1332 1.314 . S
C1335 C1333 1.353 . S
C1335 H1391 0.930 . S
C1336 N1337 1.314 . S
C1336 C1341 1.353 . S
C1336 H1342 0.930 . S
N1337 Li1320 1.990 . S
N1337 C1336 1.314 . S
N1337 C1339 1.279 . S
C1338 C1339 1.358 . S
C1338 C1340 1.356 . S
C1338 H1392 0.930 . S
C1339 N1337 1.279 . S
C1339 C1338 1.358 . S
C1339 H1343 0.930 . S
C1340 C1338 1.356 . S
C1340 C1341 1.348 . S
C1341 C1336 1.353 . S
C1341 C1340 1.348 . S
C1341 H1393 0.929 . S
H1342 C1336 0.930 . S
H1343 C1339 0.930 . S
C1344 N1345 1.314 . S
C1344 C1346 1.353 . S
C1344 H1350 0.930 . S
N1345 Li1321 1.990 . S
N1345 C1344 1.314 . S
N1345 C1348 1.279 . S
C1346 C1344 1.353 . S
C1346 C1349 1.348 . S
C1346 H1394 0.929 . S
C1347 C1348 1.358 . S
C1347 C1349 1.356 . S
C1347 H1395 0.930 . S
C1348 N1345 1.279 . S
C1348 C1347 1.358 . S
C1348 H1351 0.930 . S
C1349 C1346 1.348 . S
C1349 C1347 1.356 . S
H1350 C1344 0.930 . S
H1351 C1348 0.930 . S
C1352 C1354 1.348 . S
C1352 C1355 1.356 . S
C1352 O1382 1.325 . S
N1353 C1356 1.314 . S
N1353 C1357 1.279 . S
C1354 C1352 1.348 . S
C1354 C1356 1.353 . S
C1354 H1396 0.929 . S
C1355 C1352 1.356 . S
C1355 C1357 1.358 . S
C1355 H1397 0.930 . S
C1356 N1353 1.314 . S
C1356 C1354 1.353 . S
C1356 H1398 0.930 . S
C1357 N1353 1.279 . S
C1357 C1355 1.358 . S
C1357 H1399 0.930 . S
C1358 C1359 1.348 . S
C1358 C1360 1.356 . S
C1358 O1383 1.325 . S
C1359 C1358 1.348 . S
C1359 C1361 1.353 . S
C1359 H1400 0.929 . S
C1360 C1358 1.356 . S
C1360 C1362 1.358 . S
C1360 H1401 0.930 . S
C1361 C1359 1.353 . S
C1361 N1363 1.314 . S
C1361 H1402 0.930 . S
C1362 C1360 1.358 . S
C1362 N1363 1.279 . S
C1362 H1403 0.930 . S
N1363 C1361 1.314 . S
N1363 C1362 1.279 . S
C1364 C1366 1.353 . S
C1364 N1367 1.314 . S
C1364 H1370 0.930 . S
C1365 N1367 1.279 . S
C1365 C1368 1.358 . S
C1365 H1371 0.930 . S
C1366 C1364 1.353 . S
C1366 C1369 1.348 . S
C1366 H1404 0.929 . S
N1367 Li1322 1.990 . S
N1367 C1364 1.314 . S
N1367 C1365 1.279 . S
C1368 C1365 1.358 . S
C1368 C1369 1.356 . S
C1368 H1405 0.930 . S
C1369 C1366 1.348 . S
C1369 C1368 1.356 . S
H1370 C1364 0.930 . S
H1371 C1365 0.930 . S
C1372 N1373 1.314 . S
C1372 C1374 1.353 . S
C1372 H1378 0.930 . S
N1373 Li1323 1.990 . S
N1373 C1372 1.314 . S
N1373 C1376 1.279 . S
C1374 C1372 1.353 . S
C1374 C1377 1.348 . S
C1374 H1406 0.929 . S
C1375 C1376 1.358 . S
C1375 C1377 1.356 . S
C1375 H1407 0.930 . S
C1376 N1373 1.279 . S
C1376 C1375 1.358 . S
C1376 H1379 0.930 . S
C1377 C1374 1.348 . S
C1377 C1375 1.356 . S
H1378 C1372 0.930 . S
H1379 C1376 0.930 . S
O1380 Li1320 1.956 . S
O1380 Li1321 1.970 . S
O1380 Li1322 1.961 . S
O1380 C1324 1.325 . S
O1381 Li1320 1.970 . S
O1381 Li1321 1.956 . S
O1381 Li1323 1.961 . S
O1381 C1330 1.325 . S
O1382 Li1320 1.961 . S
O1382 Li1322 1.956 . S
O1382 Li1323 1.970 . S
O1382 C1352 1.325 . S
O1383 Li1321 1.961 . S
O1383 Li1322 1.970 . S
O1383 Li1323 1.956 . S
O1383 C1358 1.325 . S
H1384 C1326 0.929 . S
H1385 C1327 0.930 . S
H1386 C1328 0.930 . S
H1387 C1329 0.930 . S
H1388 C1331 0.930 . S
H1389 C1333 0.929 . S
H1390 C1334 0.930 . S
H1391 C1335 0.930 . S
H1392 C1338 0.930 . S
H1393 C1341 0.929 . S
H1394 C1346 0.929 . S
H1395 C1347 0.930 . S
H1396 C1354 0.929 . S
H1397 C1355 0.930 . S
H1398 C1356 0.930 . S
H1399 C1357 0.930 . S
H1400 C1359 0.929 . S
H1401 C1360 0.930 . S
H1402 C1361 0.930 . S
H1403 C1362 0.930 . S
H1404 C1366 0.929 . S
H1405 C1368 0.930 . S
H1406 C1374 0.929 . S
H1407 C1375 0.930 . S
Li1408 N1425 1.990 . S
Li1408 O1468 1.956 . S
Li1408 O1469 1.970 . S
Li1408 O1470 1.961 . S
Li1409 N1433 1.990 . S
Li1409 O1468 1.970 . S
Li1409 O1469 1.956 . S
Li1409 O1471 1.961 . S
Li1410 N1455 1.990 . S
Li1410 O1468 1.961 . S
Li1410 O1470 1.956 . S
Li1410 O1471 1.970 . S
Li1411 N1461 1.990 . S
Li1411 O1469 1.961 . S
Li1411 O1470 1.970 . S
Li1411 O1471 1.956 . S
C1412 C1414 1.348 . S
C1412 C1415 1.356 . S
C1412 O1468 1.325 . S
N1413 C1416 1.314 . S
N1413 C1417 1.252 1_554 S
C1414 C1412 1.348 . S
C1414 C1416 1.353 1_556 S
C1414 H1472 0.929 . S
C1415 C1412 1.356 . S
C1415 C1417 1.393 . S
C1415 H1473 0.930 . S
C1416 N1413 1.314 . S
C1416 C1414 1.353 1_554 S
C1416 H1474 0.930 . S
C1417 N1413 1.252 1_556 S
C1417 C1415 1.393 . S
C1417 H1475 0.923 1_556 S
C1418 C1421 1.348 . S
C1418 C1422 1.356 . S
C1418 O1469 1.325 . S
C1419 N1420 1.279 . S
C1419 C1422 1.358 . S
C1419 H1476 0.930 . S
N1420 C1419 1.279 . S
N1420 C1423 1.314 . S
C1421 C1418 1.348 . S
C1421 C1423 1.353 . S
C1421 H1477 0.929 . S
C1422 C1418 1.356 . S
C1422 C1419 1.358 . S
C1422 H1478 0.930 . S
C1423 N1420 1.314 . S
C1423 C1421 1.353 . S
C1423 H1479 0.930 . S
C1424 N1425 1.314 . S
C1424 C1429 1.353 . S
C1424 H1430 0.930 . S
N1425 Li1408 1.990 . S
N1425 C1424 1.314 . S
N1425 C1427 1.279 . S
C1426 C1427 1.358 . S
C1426 C1428 1.356 . S
C1426 H1480 0.930 . S
C1427 N1425 1.279 . S
C1427 C1426 1.358 . S
C1427 H1431 0.930 . S
C1428 C1426 1.356 . S
C1428 C1429 1.348 . S
C1429 C1424 1.353 . S
C1429 C1428 1.348 . S
C1429 H1481 0.929 . S
H1430 C1424 0.930 . S
H1431 C1427 0.930 . S
C1432 N1433 1.314 . S
C1432 C1434 1.353 . S
C1432 H1438 0.930 . S
N1433 Li1409 1.990 . S
N1433 C1432 1.314 . S
N1433 C1436 1.279 . S
C1434 C1432 1.353 . S
C1434 C1437 1.348 . S
C1434 H1482 0.929 . S
C1435 C1436 1.358 . S
C1435 C1437 1.356 . S
C1435 H1483 0.930 . S
C1436 N1433 1.279 . S
C1436 C1435 1.358 . S
C1436 H1439 0.930 . S
C1437 C1434 1.348 . S
C1437 C1435 1.356 . S
H1438 C1432 0.930 . S
H1439 C1436 0.930 . S
C1440 C1442 1.348 . S
C1440 C1443 1.356 . S
C1440 O1470 1.325 . S
N1441 C1444 1.314 . S
N1441 C1445 1.279 . S
C1442 C1440 1.348 . S
C1442 C1444 1.353 . S
C1442 H1484 0.929 . S
C1443 C1440 1.356 . S
C1443 C1445 1.358 . S
C1443 H1485 0.930 . S
C1444 N1441 1.314 . S
C1444 C1442 1.353 . S
C1444 H1486 0.930 . S
C1445 N1441 1.279 . S
C1445 C1443 1.358 . S
C1445 H1487 0.930 . S
C1446 C1447 1.348 . S
C1446 C1448 1.356 . S
C1446 O1471 1.325 . S
C1447 C1446 1.348 . S
C1447 C1449 1.353 . S
C1447 H1488 0.929 . S
C1448 C1446 1.356 . S
C1448 C1450 1.358 . S
C1448 H1489 0.930 . S
C1449 C1447 1.353 . S
C1449 N1451 1.314 . S
C1449 H1490 0.930 . S
C1450 C1448 1.358 . S
C1450 N1451 1.279 . S
C1450 H1491 0.930 . S
N1451 C1449 1.314 . S
N1451 C1450 1.279 . S
C1452 C1454 1.353 . S
C1452 N1455 1.314 . S
C1452 H1458 0.930 . S
C1453 N1455 1.279 . S
C1453 C1456 1.358 . S
C1453 H1459 0.930 . S
C1454 C1452 1.353 . S
C1454 C1457 1.348 . S
C1454 H1492 0.929 . S
N1455 Li1410 1.990 . S
N1455 C1452 1.314 . S
N1455 C1453 1.279 . S
C1456 C1453 1.358 . S
C1456 C1457 1.356 . S
C1456 H1493 0.930 . S
C1457 C1454 1.348 . S
C1457 C1456 1.356 . S
H1458 C1452 0.930 . S
H1459 C1453 0.930 . S
C1460 N1461 1.314 . S
C1460 C1462 1.353 . S
C1460 H1466 0.930 . S
N1461 Li1411 1.990 . S
N1461 C1460 1.314 . S
N1461 C1464 1.279 . S
C1462 C1460 1.353 . S
C1462 C1465 1.348 . S
C1462 H1494 0.929 . S
C1463 C1464 1.358 . S
C1463 C1465 1.356 . S
C1463 H1495 0.930 . S
C1464 N1461 1.279 . S
C1464 C1463 1.358 . S
C1464 H1467 0.930 . S
C1465 C1462 1.348 . S
C1465 C1463 1.356 . S
H1466 C1460 0.930 . S
H1467 C1464 0.930 . S
O1468 Li1408 1.956 . S
O1468 Li1409 1.970 . S
O1468 Li1410 1.961 . S
O1468 C1412 1.325 . S
O1469 Li1408 1.970 . S
O1469 Li1409 1.956 . S
O1469 Li1411 1.961 . S
O1469 C1418 1.325 . S
O1470 Li1408 1.961 . S
O1470 Li1410 1.956 . S
O1470 Li1411 1.970 . S
O1470 C1440 1.325 . S
O1471 Li1409 1.961 . S
O1471 Li1410 1.970 . S
O1471 Li1411 1.956 . S
O1471 C1446 1.325 . S
H1472 C1414 0.929 . S
H1473 C1415 0.930 . S
H1474 C1416 0.930 . S
H1475 C1417 0.923 1_554 S
H1476 C1419 0.930 . S
H1477 C1421 0.929 . S
H1478 C1422 0.930 . S
H1479 C1423 0.930 . S
H1480 C1426 0.930 . S
H1481 C1429 0.929 . S
H1482 C1434 0.929 . S
H1483 C1435 0.930 . S
H1484 C1442 0.929 . S
H1485 C1443 0.930 . S
H1486 C1444 0.930 . S
H1487 C1445 0.930 . S
H1488 C1447 0.929 . S
H1489 C1448 0.930 . S
H1490 C1449 0.930 . S
H1491 C1450 0.930 . S
H1492 C1454 0.929 . S
H1493 C1456 0.930 . S
H1494 C1462 0.929 . S
H1495 C1463 0.930 . S
Li1496 N1513 1.990 . S
Li1496 O1556 1.956 . S
Li1496 O1557 1.970 . S
Li1496 O1558 1.961 . S
Li1497 N1521 1.990 . S
Li1497 O1556 1.970 . S
Li1497 O1557 1.956 . S
Li1497 O1559 1.961 . S
Li1498 N1543 1.990 . S
Li1498 O1556 1.961 . S
Li1498 O1558 1.956 . S
Li1498 O1559 1.970 . S
Li1499 N1549 1.990 . S
Li1499 O1557 1.961 . S
Li1499 O1558 1.970 . S
Li1499 O1559 1.956 . S
C1500 C1502 1.348 . S
C1500 C1503 1.356 . S
C1500 O1556 1.325 . S
N1501 C1504 1.314 . S
N1501 C1505 1.279 . S
C1502 C1500 1.348 . S
C1502 C1504 1.353 . S
C1502 H1560 0.929 . S
C1503 C1500 1.356 . S
C1503 C1505 1.358 . S
C1503 H1561 0.930 . S
C1504 N1501 1.314 . S
C1504 C1502 1.353 . S
C1504 H1562 0.930 . S
C1505 N1501 1.279 . S
C1505 C1503 1.358 . S
C1505 H1563 0.930 . S
C1506 C1509 1.348 . S
C1506 C1510 1.356 . S
C1506 O1557 1.325 . S
C1507 N1508 1.279 . S
C1507 C1510 1.358 . S
C1507 H1564 0.930 . S
N1508 C1507 1.279 . S
N1508 C1511 1.314 . S
C1509 C1506 1.348 . S
C1509 C1511 1.353 . S
C1509 H1565 0.929 . S
C1510 C1506 1.356 . S
C1510 C1507 1.358 . S
C1510 H1566 0.930 . S
C1511 N1508 1.314 . S
C1511 C1509 1.353 . S
C1511 H1567 0.930 . S
C1512 N1513 1.314 . S
C1512 C1517 1.353 . S
C1512 H1518 0.930 . S
N1513 Li1496 1.990 . S
N1513 C1512 1.314 . S
N1513 C1515 1.279 . S
C1514 C1515 1.358 . S
C1514 C1516 1.356 . S
C1514 H1568 0.930 . S
C1515 N1513 1.279 . S
C1515 C1514 1.358 . S
C1515 H1519 0.930 . S
C1516 C1514 1.356 . S
C1516 C1517 1.348 . S
C1517 C1512 1.353 . S
C1517 C1516 1.348 . S
C1517 H1569 0.929 . S
H1518 C1512 0.930 . S
H1519 C1515 0.930 . S
C1520 N1521 1.314 . S
C1520 C1522 1.353 . S
C1520 H1526 0.930 . S
N1521 Li1497 1.990 . S
N1521 C1520 1.314 . S
N1521 C1524 1.279 . S
C1522 C1520 1.353 . S
C1522 C1525 1.348 . S
C1522 H1570 0.929 . S
C1523 C1524 1.358 . S
C1523 C1525 1.356 . S
C1523 H1571 0.930 . S
C1524 N1521 1.279 . S
C1524 C1523 1.358 . S
C1524 H1527 0.930 . S
C1525 C1522 1.348 . S
C1525 C1523 1.356 . S
H1526 C1520 0.930 . S
H1527 C1524 0.930 . S
C1528 C1530 1.348 . S
C1528 C1531 1.356 . S
C1528 O1558 1.325 . S
N1529 C1532 1.314 . S
N1529 C1533 1.279 . S
C1530 C1528 1.348 . S
C1530 C1532 1.353 . S
C1530 H1572 0.929 . S
C1531 C1528 1.356 . S
C1531 C1533 1.358 . S
C1531 H1573 0.930 . S
C1532 N1529 1.314 . S
C1532 C1530 1.353 . S
C1532 H1574 0.930 . S
C1533 N1529 1.279 . S
C1533 C1531 1.358 . S
C1533 H1575 0.930 . S
C1534 C1535 1.348 . S
C1534 C1536 1.356 . S
C1534 O1559 1.325 . S
C1535 C1534 1.348 . S
C1535 C1537 1.353 . S
C1535 H1576 0.929 . S
C1536 C1534 1.356 . S
C1536 C1538 1.358 . S
C1536 H1577 0.930 . S
C1537 C1535 1.353 . S
C1537 N1539 1.314 . S
C1537 H1578 0.930 . S
C1538 C1536 1.358 . S
C1538 N1539 1.279 . S
C1538 H1579 0.930 . S
N1539 C1537 1.314 . S
N1539 C1538 1.279 . S
C1540 C1542 1.353 . S
C1540 N1543 1.314 . S
C1540 H1546 0.930 . S
C1541 N1543 1.279 . S
C1541 C1544 1.358 . S
C1541 H1547 0.930 . S
C1542 C1540 1.353 . S
C1542 C1545 1.348 . S
C1542 H1580 0.929 . S
N1543 Li1498 1.990 . S
N1543 C1540 1.314 . S
N1543 C1541 1.279 . S
C1544 C1541 1.358 . S
C1544 C1545 1.356 . S
C1544 H1581 0.930 . S
C1545 C1542 1.348 . S
C1545 C1544 1.356 . S
H1546 C1540 0.930 . S
H1547 C1541 0.930 . S
C1548 N1549 1.314 . S
C1548 C1550 1.353 . S
C1548 H1554 0.930 . S
N1549 Li1499 1.990 . S
N1549 C1548 1.314 . S
N1549 C1552 1.279 . S
C1550 C1548 1.353 . S
C1550 C1553 1.348 . S
C1550 H1582 0.929 . S
C1551 C1552 1.358 . S
C1551 C1553 1.356 . S
C1551 H1583 0.930 . S
C1552 N1549 1.279 . S
C1552 C1551 1.358 . S
C1552 H1555 0.930 . S
C1553 C1550 1.348 . S
C1553 C1551 1.356 . S
H1554 C1548 0.930 . S
H1555 C1552 0.930 . S
O1556 Li1496 1.956 . S
O1556 Li1497 1.970 . S
O1556 Li1498 1.961 . S
O1556 C1500 1.325 . S
O1557 Li1496 1.970 . S
O1557 Li1497 1.956 . S
O1557 Li1499 1.961 . S
O1557 C1506 1.325 . S
O1558 Li1496 1.961 . S
O1558 Li1498 1.956 . S
O1558 Li1499 1.970 . S
O1558 C1528 1.325 . S
O1559 Li1497 1.961 . S
O1559 Li1498 1.970 . S
O1559 Li1499 1.956 . S
O1559 C1534 1.325 . S
H1560 C1502 0.929 . S
H1561 C1503 0.930 . S
H1562 C1504 0.930 . S
H1563 C1505 0.930 . S
H1564 C1507 0.930 . S
H1565 C1509 0.929 . S
H1566 C1510 0.930 . S
H1567 C1511 0.930 . S
H1568 C1514 0.930 . S
H1569 C1517 0.929 . S
H1570 C1522 0.929 . S
H1571 C1523 0.930 . S
H1572 C1530 0.929 . S
H1573 C1531 0.930 . S
H1574 C1532 0.930 . S
H1575 C1533 0.930 . S
H1576 C1535 0.929 . S
H1577 C1536 0.930 . S
H1578 C1537 0.930 . S
H1579 C1538 0.930 . S
H1580 C1542 0.929 . S
H1581 C1544 0.930 . S
H1582 C1550 0.929 . S
H1583 C1551 0.930 . S
Li1584 N1601 1.990 . S
Li1584 O1644 1.956 . S
Li1584 O1645 1.970 . S
Li1584 O1646 1.961 . S
Li1585 N1609 1.990 . S
Li1585 O1644 1.970 . S
Li1585 O1645 1.956 . S
Li1585 O1647 1.961 . S
Li1586 N1631 1.990 . S
Li1586 O1644 1.961 . S
Li1586 O1646 1.956 . S
Li1586 O1647 1.970 . S
Li1587 N1637 1.990 . S
Li1587 O1645 1.961 . S
Li1587 O1646 1.970 . S
Li1587 O1647 1.956 . S
C1588 C1590 1.348 . S
C1588 C1591 1.356 . S
C1588 O1644 1.325 . S
N1589 C1592 1.314 . S
N1589 C1593 1.279 . S
C1590 C1588 1.348 . S
C1590 C1592 1.353 . S
C1590 H1648 0.929 . S
C1591 C1588 1.356 . S
C1591 C1593 1.358 . S
C1591 H1649 0.930 . S
C1592 N1589 1.314 . S
C1592 C1590 1.353 . S
C1592 H1650 0.930 . S
C1593 N1589 1.279 . S
C1593 C1591 1.358 . S
C1593 H1651 0.930 . S
C1594 C1597 1.348 . S
C1594 C1598 1.356 . S
C1594 O1645 1.325 . S
C1595 N1596 1.279 . S
C1595 C1598 1.358 . S
C1595 H1652 0.930 . S
N1596 C1595 1.279 . S
N1596 C1599 1.314 . S
C1597 C1594 1.348 . S
C1597 C1599 1.353 . S
C1597 H1653 0.929 . S
C1598 C1594 1.356 . S
C1598 C1595 1.358 . S
C1598 H1654 0.930 . S
C1599 N1596 1.314 . S
C1599 C1597 1.353 . S
C1599 H1655 0.930 . S
C1600 N1601 1.314 . S
C1600 C1605 1.353 . S
C1600 H1606 0.930 . S
N1601 Li1584 1.990 . S
N1601 C1600 1.314 . S
N1601 C1603 1.279 . S
C1602 C1603 1.358 . S
C1602 C1604 1.356 . S
C1602 H1656 0.930 . S
C1603 N1601 1.279 . S
C1603 C1602 1.358 . S
C1603 H1607 0.930 . S
C1604 C1602 1.356 . S
C1604 C1605 1.348 . S
C1605 C1600 1.353 . S
C1605 C1604 1.348 . S
C1605 H1657 0.929 . S
H1606 C1600 0.930 . S
H1607 C1603 0.930 . S
C1608 N1609 1.314 . S
C1608 C1610 1.353 . S
C1608 H1614 0.930 . S
N1609 Li1585 1.990 . S
N1609 C1608 1.314 . S
N1609 C1612 1.279 . S
C1610 C1608 1.353 . S
C1610 C1613 1.348 . S
C1610 H1658 0.929 . S
C1611 C1612 1.358 . S
C1611 C1613 1.356 . S
C1611 H1659 0.930 . S
C1612 N1609 1.279 . S
C1612 C1611 1.358 . S
C1612 H1615 0.930 . S
C1613 C1610 1.348 . S
C1613 C1611 1.356 . S
H1614 C1608 0.930 . S
H1615 C1612 0.930 . S
C1616 C1618 1.348 . S
C1616 C1619 1.356 . S
C1616 O1646 1.325 . S
N1617 C1620 1.314 . S
N1617 C1621 1.279 . S
C1618 C1616 1.348 . S
C1618 C1620 1.353 . S
C1618 H1660 0.929 . S
C1619 C1616 1.356 . S
C1619 C1621 1.358 . S
C1619 H1661 0.930 . S
C1620 N1617 1.314 . S
C1620 C1618 1.353 . S
C1620 H1662 0.930 . S
C1621 N1617 1.279 . S
C1621 C1619 1.358 . S
C1621 H1663 0.930 . S
C1622 C1623 1.348 . S
C1622 C1624 1.356 . S
C1622 O1647 1.325 . S
C1623 C1622 1.348 . S
C1623 C1625 1.353 . S
C1623 H1664 0.929 . S
C1624 C1622 1.356 . S
C1624 C1626 1.358 . S
C1624 H1665 0.930 . S
C1625 C1623 1.353 . S
C1625 N1627 1.314 . S
C1625 H1666 0.930 . S
C1626 C1624 1.358 . S
C1626 N1627 1.279 . S
C1626 H1667 0.930 . S
N1627 C1625 1.314 . S
N1627 C1626 1.279 . S
C1628 C1630 1.353 . S
C1628 N1631 1.314 . S
C1628 H1634 0.930 . S
C1629 N1631 1.279 . S
C1629 C1632 1.358 . S
C1629 H1635 0.930 . S
C1630 C1628 1.353 . S
C1630 C1633 1.348 . S
C1630 H1668 0.929 . S
N1631 Li1586 1.990 . S
N1631 C1628 1.314 . S
N1631 C1629 1.279 . S
C1632 C1629 1.358 . S
C1632 C1633 1.356 . S
C1632 H1669 0.930 . S
C1633 C1630 1.348 . S
C1633 C1632 1.356 . S
H1634 C1628 0.930 . S
H1635 C1629 0.930 . S
C1636 N1637 1.314 . S
C1636 C1638 1.353 . S
C1636 H1642 0.930 . S
N1637 Li1587 1.990 . S
N1637 C1636 1.314 . S
N1637 C1640 1.279 . S
C1638 C1636 1.353 . S
C1638 C1641 1.348 . S
C1638 H1670 0.929 . S
C1639 C1640 1.358 . S
C1639 C1641 1.356 . S
C1639 H1671 0.930 . S
C1640 N1637 1.279 . S
C1640 C1639 1.358 . S
C1640 H1643 0.930 . S
C1641 C1638 1.348 . S
C1641 C1639 1.356 . S
H1642 C1636 0.930 . S
H1643 C1640 0.930 . S
O1644 Li1584 1.956 . S
O1644 Li1585 1.970 . S
O1644 Li1586 1.961 . S
O1644 C1588 1.325 . S
O1645 Li1584 1.970 . S
O1645 Li1585 1.956 . S
O1645 Li1587 1.961 . S
O1645 C1594 1.325 . S
O1646 Li1584 1.961 . S
O1646 Li1586 1.956 . S
O1646 Li1587 1.970 . S
O1646 C1616 1.325 . S
O1647 Li1585 1.961 . S
O1647 Li1586 1.970 . S
O1647 Li1587 1.956 . S
O1647 C1622 1.325 . S
H1648 C1590 0.929 . S
H1649 C1591 0.930 . S
H1650 C1592 0.930 . S
H1651 C1593 0.930 . S
H1652 C1595 0.930 . S
H1653 C1597 0.929 . S
H1654 C1598 0.930 . S
H1655 C1599 0.930 . S
H1656 C1602 0.930 . S
H1657 C1605 0.929 . S
H1658 C1610 0.929 . S
H1659 C1611 0.930 . S
H1660 C1618 0.929 . S
H1661 C1619 0.930 . S
H1662 C1620 0.930 . S
H1663 C1621 0.930 . S
H1664 C1623 0.929 . S
H1665 C1624 0.930 . S
H1666 C1625 0.930 . S
H1667 C1626 0.930 . S
H1668 C1630 0.929 . S
H1669 C1632 0.930 . S
H1670 C1638 0.929 . S
H1671 C1639 0.930 . S
Li1672 N1689 1.990 . S
Li1672 O1732 1.956 . S
Li1672 O1733 1.970 . S
Li1672 O1734 1.961 . S
Li1673 N1697 1.990 . S
Li1673 O1732 1.970 . S
Li1673 O1733 1.956 . S
Li1673 O1735 1.961 . S
Li1674 N1719 1.990 . S
Li1674 O1732 1.961 . S
Li1674 O1734 1.956 . S
Li1674 O1735 1.970 . S
Li1675 N1725 1.990 . S
Li1675 O1733 1.961 . S
Li1675 O1734 1.970 . S
Li1675 O1735 1.956 . S
C1676 C1678 1.348 . S
C1676 C1679 1.356 . S
C1676 O1732 1.325 . S
N1677 C1680 1.314 . S
N1677 C1681 1.279 . S
C1678 C1676 1.348 . S
C1678 C1680 1.353 . S
C1678 H1736 0.929 . S
C1679 C1676 1.356 . S
C1679 C1681 1.358 . S
C1679 H1737 0.930 . S
C1680 N1677 1.314 . S
C1680 C1678 1.353 . S
C1680 H1738 0.930 . S
C1681 N1677 1.279 . S
C1681 C1679 1.358 . S
C1681 H1739 0.930 . S
C1682 C1685 1.348 . S
C1682 C1686 1.356 . S
C1682 O1733 1.325 . S
C1683 N1684 1.279 . S
C1683 C1686 1.358 . S
C1683 H1740 0.930 . S
N1684 C1683 1.279 . S
N1684 C1687 1.314 . S
C1685 C1682 1.348 . S
C1685 C1687 1.353 . S
C1685 H1741 0.929 . S
C1686 C1682 1.356 . S
C1686 C1683 1.358 . S
C1686 H1742 0.930 . S
C1687 N1684 1.314 . S
C1687 C1685 1.353 . S
C1687 H1743 0.930 . S
C1688 N1689 1.314 . S
C1688 C1693 1.353 . S
C1688 H1694 0.930 . S
N1689 Li1672 1.990 . S
N1689 C1688 1.314 . S
N1689 C1691 1.279 . S
C1690 C1691 1.358 . S
C1690 C1692 1.356 . S
C1690 H1744 0.930 . S
C1691 N1689 1.279 . S
C1691 C1690 1.358 . S
C1691 H1695 0.930 . S
C1692 C1690 1.356 . S
C1692 C1693 1.348 . S
C1693 C1688 1.353 . S
C1693 C1692 1.348 . S
C1693 H1745 0.929 . S
H1694 C1688 0.930 . S
H1695 C1691 0.930 . S
C1696 N1697 1.314 . S
C1696 C1698 1.353 . S
C1696 H1702 0.930 . S
N1697 Li1673 1.990 . S
N1697 C1696 1.314 . S
N1697 C1700 1.279 . S
C1698 C1696 1.353 . S
C1698 C1701 1.348 . S
C1698 H1746 0.929 . S
C1699 C1700 1.358 . S
C1699 C1701 1.356 . S
C1699 H1747 0.930 . S
C1700 N1697 1.279 . S
C1700 C1699 1.358 . S
C1700 H1703 0.930 . S
C1701 C1698 1.348 . S
C1701 C1699 1.356 . S
H1702 C1696 0.930 . S
H1703 C1700 0.930 . S
C1704 C1706 1.348 . S
C1704 C1707 1.356 . S
C1704 O1734 1.325 . S
N1705 C1708 1.314 . S
N1705 C1709 1.253 1_556 S
C1706 C1704 1.348 . S
C1706 C1708 1.353 1_554 S
C1706 H1748 0.929 . S
C1707 C1704 1.356 . S
C1707 C1709 1.392 . S
C1707 H1749 0.930 . S
C1708 N1705 1.314 . S
C1708 C1706 1.353 1_556 S
C1708 H1750 0.930 . S
C1709 N1705 1.253 1_554 S
C1709 C1707 1.392 . S
C1709 H1751 0.923 1_554 S
C1710 C1711 1.348 . S
C1710 C1712 1.356 . S
C1710 O1735 1.325 . S
C1711 C1710 1.348 . S
C1711 C1713 1.353 . S
C1711 H1752 0.929 . S
C1712 C1710 1.356 . S
C1712 C1714 1.358 . S
C1712 H1753 0.930 . S
C1713 C1711 1.353 . S
C1713 N1715 1.314 . S
C1713 H1754 0.930 . S
C1714 C1712 1.358 . S
C1714 N1715 1.279 . S
C1714 H1755 0.930 . S
N1715 C1713 1.314 . S
N1715 C1714 1.279 . S
C1716 C1718 1.353 . S
C1716 N1719 1.314 . S
C1716 H1722 0.930 . S
C1717 N1719 1.279 . S
C1717 C1720 1.358 . S
C1717 H1723 0.930 . S
C1718 C1716 1.353 . S
C1718 C1721 1.348 . S
C1718 H1756 0.929 . S
N1719 Li1674 1.990 . S
N1719 C1716 1.314 . S
N1719 C1717 1.279 . S
C1720 C1717 1.358 . S
C1720 C1721 1.356 . S
C1720 H1757 0.930 . S
C1721 C1718 1.348 . S
C1721 C1720 1.356 . S
H1722 C1716 0.930 . S
H1723 C1717 0.930 . S
C1724 N1725 1.314 . S
C1724 C1726 1.353 . S
C1724 H1730 0.930 . S
N1725 Li1675 1.990 . S
N1725 C1724 1.314 . S
N1725 C1728 1.279 . S
C1726 C1724 1.353 . S
C1726 C1729 1.348 . S
C1726 H1758 0.929 . S
C1727 C1728 1.358 . S
C1727 C1729 1.356 . S
C1727 H1759 0.930 . S
C1728 N1725 1.279 . S
C1728 C1727 1.358 . S
C1728 H1731 0.930 . S
C1729 C1726 1.348 . S
C1729 C1727 1.356 . S
H1730 C1724 0.930 . S
H1731 C1728 0.930 . S
O1732 Li1672 1.956 . S
O1732 Li1673 1.970 . S
O1732 Li1674 1.961 . S
O1732 C1676 1.325 . S
O1733 Li1672 1.970 . S
O1733 Li1673 1.956 . S
O1733 Li1675 1.961 . S
O1733 C1682 1.325 . S
O1734 Li1672 1.961 . S
O1734 Li1674 1.956 . S
O1734 Li1675 1.970 . S
O1734 C1704 1.325 . S
O1735 Li1673 1.961 . S
O1735 Li1674 1.970 . S
O1735 Li1675 1.956 . S
O1735 C1710 1.325 . S
H1736 C1678 0.929 . S
H1737 C1679 0.930 . S
H1738 C1680 0.930 . S
H1739 C1681 0.930 . S
H1740 C1683 0.930 . S
H1741 C1685 0.929 . S
H1742 C1686 0.930 . S
H1743 C1687 0.930 . S
H1744 C1690 0.930 . S
H1745 C1693 0.929 . S
H1746 C1698 0.929 . S
H1747 C1699 0.930 . S
H1748 C1706 0.929 . S
H1749 C1707 0.930 . S
H1750 C1708 0.930 . S
H1751 C1709 0.923 1_556 S
H1752 C1711 0.929 . S
H1753 C1712 0.930 . S
H1754 C1713 0.930 . S
H1755 C1714 0.930 . S
H1756 C1718 0.929 . S
H1757 C1720 0.930 . S
H1758 C1726 0.929 . S
H1759 C1727 0.930 . S
Li1760 N1777 1.990 . S
Li1760 O1820 1.956 . S
Li1760 O1821 1.970 . S
Li1760 O1822 1.961 . S
Li1761 N1785 1.990 . S
Li1761 O1820 1.970 . S
Li1761 O1821 1.956 . S
Li1761 O1823 1.961 . S
Li1762 N1807 1.990 . S
Li1762 O1820 1.961 . S
Li1762 O1822 1.956 . S
Li1762 O1823 1.970 . S
Li1763 N1813 1.990 . S
Li1763 O1821 1.961 . S
Li1763 O1822 1.970 . S
Li1763 O1823 1.956 . S
C1764 C1766 1.348 . S
C1764 C1767 1.356 . S
C1764 O1820 1.325 . S
N1765 C1768 1.314 . S
N1765 C1769 1.279 . S
C1766 C1764 1.348 . S
C1766 C1768 1.353 . S
C1766 H1824 0.929 . S
C1767 C1764 1.356 . S
C1767 C1769 1.358 . S
C1767 H1825 0.930 . S
C1768 N1765 1.314 . S
C1768 C1766 1.353 . S
C1768 H1826 0.930 . S
C1769 N1765 1.279 . S
C1769 C1767 1.358 . S
C1769 H1827 0.930 . S
C1770 C1773 1.348 . S
C1770 C1774 1.356 . S
C1770 O1821 1.325 . S
C1771 N1772 1.279 . S
C1771 C1774 1.358 . S
C1771 H1828 0.930 . S
N1772 C1771 1.279 . S
N1772 C1775 1.314 . S
C1773 C1770 1.348 . S
C1773 C1775 1.353 . S
C1773 H1829 0.929 . S
C1774 C1770 1.356 . S
C1774 C1771 1.358 . S
C1774 H1830 0.930 . S
C1775 N1772 1.314 . S
C1775 C1773 1.353 . S
C1775 H1831 0.930 . S
C1776 N1777 1.314 . S
C1776 C1781 1.353 . S
C1776 H1782 0.930 . S
N1777 Li1760 1.990 . S
N1777 C1776 1.314 . S
N1777 C1779 1.279 . S
C1778 C1779 1.358 . S
C1778 C1780 1.356 . S
C1778 H1832 0.930 . S
C1779 N1777 1.279 . S
C1779 C1778 1.358 . S
C1779 H1783 0.930 . S
C1780 C1778 1.356 . S
C1780 C1781 1.348 . S
C1781 C1776 1.353 . S
C1781 C1780 1.348 . S
C1781 H1833 0.929 . S
H1782 C1776 0.930 . S
H1783 C1779 0.930 . S
C1784 N1785 1.314 . S
C1784 C1786 1.353 . S
C1784 H1790 0.930 . S
N1785 Li1761 1.990 . S
N1785 C1784 1.314 . S
N1785 C1788 1.279 . S
C1786 C1784 1.353 . S
C1786 C1789 1.348 . S
C1786 H1834 0.929 . S
C1787 C1788 1.358 . S
C1787 C1789 1.356 . S
C1787 H1835 0.930 . S
C1788 N1785 1.279 . S
C1788 C1787 1.358 . S
C1788 H1791 0.930 . S
C1789 C1786 1.348 . S
C1789 C1787 1.356 . S
H1790 C1784 0.930 . S
H1791 C1788 0.930 . S
C1792 C1794 1.348 . S
C1792 C1795 1.356 . S
C1792 O1822 1.325 . S
N1793 C1796 1.314 . S
N1793 C1797 1.279 . S
C1794 C1792 1.348 . S
C1794 C1796 1.353 . S
C1794 H1836 0.929 . S
C1795 C1792 1.356 . S
C1795 C1797 1.358 . S
C1795 H1837 0.930 . S
C1796 N1793 1.314 . S
C1796 C1794 1.353 . S
C1796 H1838 0.930 . S
C1797 N1793 1.279 . S
C1797 C1795 1.358 . S
C1797 H1839 0.930 . S
C1798 C1799 1.348 . S
C1798 C1800 1.356 . S
C1798 O1823 1.325 . S
C1799 C1798 1.348 . S
C1799 C1801 1.353 . S
C1799 H1840 0.929 . S
C1800 C1798 1.356 . S
C1800 C1802 1.358 . S
C1800 H1841 0.930 . S
C1801 C1799 1.353 . S
C1801 N1803 1.314 . S
C1801 H1842 0.930 . S
C1802 C1800 1.358 . S
C1802 N1803 1.279 . S
C1802 H1843 0.930 . S
N1803 C1801 1.314 . S
N1803 C1802 1.279 . S
C1804 C1806 1.353 . S
C1804 N1807 1.314 . S
C1804 H1810 0.930 . S
C1805 N1807 1.279 . S
C1805 C1808 1.358 . S
C1805 H1811 0.930 . S
C1806 C1804 1.353 . S
C1806 C1809 1.348 . S
C1806 H1844 0.929 . S
N1807 Li1762 1.990 . S
N1807 C1804 1.314 . S
N1807 C1805 1.279 . S
C1808 C1805 1.358 . S
C1808 C1809 1.356 . S
C1808 H1845 0.930 . S
C1809 C1806 1.348 . S
C1809 C1808 1.356 . S
H1810 C1804 0.930 . S
H1811 C1805 0.930 . S
C1812 N1813 1.314 . S
C1812 C1814 1.353 . S
C1812 H1818 0.930 . S
N1813 Li1763 1.990 . S
N1813 C1812 1.314 . S
N1813 C1816 1.279 . S
C1814 C1812 1.353 . S
C1814 C1817 1.348 . S
C1814 H1846 0.929 . S
C1815 C1816 1.358 . S
C1815 C1817 1.356 . S
C1815 H1847 0.930 . S
C1816 N1813 1.279 . S
C1816 C1815 1.358 . S
C1816 H1819 0.930 . S
C1817 C1814 1.348 . S
C1817 C1815 1.356 . S
H1818 C1812 0.930 . S
H1819 C1816 0.930 . S
O1820 Li1760 1.956 . S
O1820 Li1761 1.970 . S
O1820 Li1762 1.961 . S
O1820 C1764 1.325 . S
O1821 Li1760 1.970 . S
O1821 Li1761 1.956 . S
O1821 Li1763 1.961 . S
O1821 C1770 1.325 . S
O1822 Li1760 1.961 . S
O1822 Li1762 1.956 . S
O1822 Li1763 1.970 . S
O1822 C1792 1.325 . S
O1823 Li1761 1.961 . S
O1823 Li1762 1.970 . S
O1823 Li1763 1.956 . S
O1823 C1798 1.325 . S
H1824 C1766 0.929 . S
H1825 C1767 0.930 . S
H1826 C1768 0.930 . S
H1827 C1769 0.930 . S
H1828 C1771 0.930 . S
H1829 C1773 0.929 . S
H1830 C1774 0.930 . S
H1831 C1775 0.930 . S
H1832 C1778 0.930 . S
H1833 C1781 0.929 . S
H1834 C1786 0.929 . S
H1835 C1787 0.930 . S
H1836 C1794 0.929 . S
H1837 C1795 0.930 . S
H1838 C1796 0.930 . S
H1839 C1797 0.930 . S
H1840 C1799 0.929 . S
H1841 C1800 0.930 . S
H1842 C1801 0.930 . S
H1843 C1802 0.930 . S
H1844 C1806 0.929 . S
H1845 C1808 0.930 . S
H1846 C1814 0.929 . S
H1847 C1815 0.930 . S
Li1848 N1865 1.990 . S
Li1848 O1908 1.956 . S
Li1848 O1909 1.970 . S
Li1848 O1910 1.961 . S
Li1849 N1873 1.990 . S
Li1849 O1908 1.970 . S
Li1849 O1909 1.956 . S
Li1849 O1911 1.961 . S
Li1850 N1895 1.990 . S
Li1850 O1908 1.961 . S
Li1850 O1910 1.956 . S
Li1850 O1911 1.970 . S
Li1851 N1901 1.990 . S
Li1851 O1909 1.961 . S
Li1851 O1910 1.970 . S
Li1851 O1911 1.956 . S
C1852 C1854 1.348 . S
C1852 C1855 1.356 . S
C1852 O1908 1.325 . S
N1853 C1856 1.314 . S
N1853 C1857 1.279 . S
C1854 C1852 1.348 . S
C1854 C1856 1.353 . S
C1854 H1912 0.929 . S
C1855 C1852 1.356 . S
C1855 C1857 1.358 . S
C1855 H1913 0.930 . S
C1856 N1853 1.314 . S
C1856 C1854 1.353 . S
C1856 H1914 0.930 . S
C1857 N1853 1.279 . S
C1857 C1855 1.358 . S
C1857 H1915 0.930 . S
C1858 C1861 1.348 . S
C1858 C1862 1.356 . S
C1858 O1909 1.325 . S
C1859 N1860 1.279 . S
C1859 C1862 1.358 . S
C1859 H1916 0.930 . S
N1860 C1859 1.279 . S
N1860 C1863 1.314 . S
C1861 C1858 1.348 . S
C1861 C1863 1.353 . S
C1861 H1917 0.929 . S
C1862 C1858 1.356 . S
C1862 C1859 1.358 . S
C1862 H1918 0.930 . S
C1863 N1860 1.314 . S
C1863 C1861 1.353 . S
C1863 H1919 0.930 . S
C1864 N1865 1.314 . S
C1864 C1869 1.353 . S
C1864 H1870 0.930 . S
N1865 Li1848 1.990 . S
N1865 C1864 1.314 . S
N1865 C1867 1.279 . S
C1866 C1867 1.358 . S
C1866 C1868 1.356 . S
C1866 H1920 0.930 . S
C1867 N1865 1.279 . S
C1867 C1866 1.358 . S
C1867 H1871 0.930 . S
C1868 C1866 1.356 . S
C1868 C1869 1.348 . S
C1869 C1864 1.353 . S
C1869 C1868 1.348 . S
C1869 H1921 0.929 . S
H1870 C1864 0.930 . S
H1871 C1867 0.930 . S
C1872 N1873 1.314 . S
C1872 C1874 1.353 . S
C1872 H1878 0.930 . S
N1873 Li1849 1.990 . S
N1873 C1872 1.314 . S
N1873 C1876 1.279 . S
C1874 C1872 1.353 . S
C1874 C1877 1.348 . S
C1874 H1922 0.929 . S
C1875 C1876 1.358 . S
C1875 C1877 1.356 . S
C1875 H1923 0.930 . S
C1876 N1873 1.279 . S
C1876 C1875 1.358 . S
C1876 H1879 0.930 . S
C1877 C1874 1.348 . S
C1877 C1875 1.356 . S
H1878 C1872 0.930 . S
H1879 C1876 0.930 . S
C1880 C1882 1.348 . S
C1880 C1883 1.356 . S
C1880 O1910 1.325 . S
N1881 C1884 1.314 . S
N1881 C1885 1.279 . S
C1882 C1880 1.348 . S
C1882 C1884 1.353 . S
C1882 H1924 0.929 . S
C1883 C1880 1.356 . S
C1883 C1885 1.358 . S
C1883 H1925 0.930 . S
C1884 N1881 1.314 . S
C1884 C1882 1.353 . S
C1884 H1926 0.930 . S
C1885 N1881 1.279 . S
C1885 C1883 1.358 . S
C1885 H1927 0.930 . S
C1886 C1887 1.348 . S
C1886 C1888 1.356 . S
C1886 O1911 1.325 . S
C1887 C1886 1.348 . S
C1887 C1889 1.353 1_554 S
C1887 H1928 0.929 . S
C1888 C1886 1.356 . S
C1888 C1890 1.394 . S
C1888 H1929 0.930 . S
C1889 C1887 1.353 1_556 S
C1889 N1891 1.314 . S
C1889 H1930 0.930 . S
C1890 C1888 1.394 . S
C1890 N1891 1.252 1_554 S
C1890 H1931 0.923 1_554 S
N1891 C1889 1.314 . S
N1891 C1890 1.252 1_556 S
C1892 C1894 1.353 . S
C1892 N1895 1.314 . S
C1892 H1898 0.930 . S
C1893 N1895 1.279 . S
C1893 C1896 1.358 . S
C1893 H1899 0.930 . S
C1894 C1892 1.353 . S
C1894 C1897 1.348 . S
C1894 H1932 0.929 . S
N1895 Li1850 1.990 . S
N1895 C1892 1.314 . S
N1895 C1893 1.279 . S
C1896 C1893 1.358 . S
C1896 C1897 1.356 . S
C1896 H1933 0.930 . S
C1897 C1894 1.348 . S
C1897 C1896 1.356 . S
H1898 C1892 0.930 . S
H1899 C1893 0.930 . S
C1900 N1901 1.314 . S
C1900 C1902 1.353 . S
C1900 H1906 0.930 . S
N1901 Li1851 1.990 . S
N1901 C1900 1.314 . S
N1901 C1904 1.279 . S
C1902 C1900 1.353 . S
C1902 C1905 1.348 . S
C1902 H1934 0.929 . S
C1903 C1904 1.358 . S
C1903 C1905 1.356 . S
C1903 H1935 0.930 . S
C1904 N1901 1.279 . S
C1904 C1903 1.358 . S
C1904 H1907 0.930 . S
C1905 C1902 1.348 . S
C1905 C1903 1.356 . S
H1906 C1900 0.930 . S
H1907 C1904 0.930 . S
O1908 Li1848 1.956 . S
O1908 Li1849 1.970 . S
O1908 Li1850 1.961 . S
O1908 C1852 1.325 . S
O1909 Li1848 1.970 . S
O1909 Li1849 1.956 . S
O1909 Li1851 1.961 . S
O1909 C1858 1.325 . S
O1910 Li1848 1.961 . S
O1910 Li1850 1.956 . S
O1910 Li1851 1.970 . S
O1910 C1880 1.325 . S
O1911 Li1849 1.961 . S
O1911 Li1850 1.970 . S
O1911 Li1851 1.956 . S
O1911 C1886 1.325 . S
H1912 C1854 0.929 . S
H1913 C1855 0.930 . S
H1914 C1856 0.930 . S
H1915 C1857 0.930 . S
H1916 C1859 0.930 . S
H1917 C1861 0.929 . S
H1918 C1862 0.930 . S
H1919 C1863 0.930 . S
H1920 C1866 0.930 . S
H1921 C1869 0.929 . S
H1922 C1874 0.929 . S
H1923 C1875 0.930 . S
H1924 C1882 0.929 . S
H1925 C1883 0.930 . S
H1926 C1884 0.930 . S
H1927 C1885 0.930 . S
H1928 C1887 0.929 . S
H1929 C1888 0.930 . S
H1930 C1889 0.930 . S
H1931 C1890 0.923 1_556 S
H1932 C1894 0.929 . S
H1933 C1896 0.930 . S
H1934 C1902 0.929 . S
H1935 C1903 0.930 . S
Li1936 N1953 1.990 . S
Li1936 O1996 1.956 . S
Li1936 O1997 1.970 . S
Li1936 O1998 1.961 . S
Li1937 N1961 1.990 . S
Li1937 O1996 1.970 . S
Li1937 O1997 1.956 . S
Li1937 O1999 1.961 . S
Li1938 N1983 1.990 . S
Li1938 O1996 1.961 . S
Li1938 O1998 1.956 . S
Li1938 O1999 1.970 . S
Li1939 N1989 1.990 . S
Li1939 O1997 1.961 . S
Li1939 O1998 1.970 . S
Li1939 O1999 1.956 . S
C1940 C1942 1.348 . S
C1940 C1943 1.356 . S
C1940 O1996 1.325 . S
N1941 C1944 1.314 . S
N1941 C1945 1.279 . S
C1942 C1940 1.348 . S
C1942 C1944 1.353 . S
C1942 H2000 0.929 . S
C1943 C1940 1.356 . S
C1943 C1945 1.358 . S
C1943 H2001 0.930 . S
C1944 N1941 1.314 . S
C1944 C1942 1.353 . S
C1944 H2002 0.930 . S
C1945 N1941 1.279 . S
C1945 C1943 1.358 . S
C1945 H2003 0.930 . S
C1946 C1949 1.348 . S
C1946 C1950 1.356 . S
C1946 O1997 1.325 . S
C1947 N1948 1.279 . S
C1947 C1950 1.358 . S
C1947 H2004 0.930 . S
N1948 C1947 1.279 . S
N1948 C1951 1.314 . S
C1949 C1946 1.348 . S
C1949 C1951 1.353 . S
C1949 H2005 0.929 . S
C1950 C1946 1.356 . S
C1950 C1947 1.358 . S
C1950 H2006 0.930 . S
C1951 N1948 1.314 . S
C1951 C1949 1.353 . S
C1951 H2007 0.930 . S
C1952 N1953 1.314 . S
C1952 C1957 1.353 . S
C1952 H1958 0.930 . S
N1953 Li1936 1.990 . S
N1953 C1952 1.314 . S
N1953 C1955 1.279 . S
C1954 C1955 1.358 . S
C1954 C1956 1.356 . S
C1954 H2008 0.930 . S
C1955 N1953 1.279 . S
C1955 C1954 1.358 . S
C1955 H1959 0.930 . S
C1956 C1954 1.356 . S
C1956 C1957 1.348 . S
C1957 C1952 1.353 . S
C1957 C1956 1.348 . S
C1957 H2009 0.929 . S
H1958 C1952 0.930 . S
H1959 C1955 0.930 . S
C1960 N1961 1.314 . S
C1960 C1962 1.353 . S
C1960 H1966 0.930 . S
N1961 Li1937 1.990 . S
N1961 C1960 1.314 . S
N1961 C1964 1.279 . S
C1962 C1960 1.353 . S
C1962 C1965 1.348 . S
C1962 H2010 0.929 . S
C1963 C1964 1.358 . S
C1963 C1965 1.356 . S
C1963 H2011 0.930 . S
C1964 N1961 1.279 . S
C1964 C1963 1.358 . S
C1964 H1967 0.930 . S
C1965 C1962 1.348 . S
C1965 C1963 1.356 . S
H1966 C1960 0.930 . S
H1967 C1964 0.930 . S
C1968 C1970 1.348 . S
C1968 C1971 1.356 . S
C1968 O1998 1.325 . S
N1969 C1972 1.314 . S
N1969 C1973 1.279 . S
C1970 C1968 1.348 . S
C1970 C1972 1.353 . S
C1970 H2012 0.929 . S
C1971 C1968 1.356 . S
C1971 C1973 1.358 . S
C1971 H2013 0.930 . S
C1972 N1969 1.314 . S
C1972 C1970 1.353 . S
C1972 H2014 0.930 . S
C1973 N1969 1.279 . S
C1973 C1971 1.358 . S
C1973 H2015 0.930 . S
C1974 C1975 1.348 . S
C1974 C1976 1.356 . S
C1974 O1999 1.325 . S
C1975 C1974 1.348 . S
C1975 C1977 1.353 . S
C1975 H2016 0.929 . S
C1976 C1974 1.356 . S
C1976 C1978 1.358 . S
C1976 H2017 0.930 . S
C1977 C1975 1.353 . S
C1977 N1979 1.314 . S
C1977 H2018 0.930 . S
C1978 C1976 1.358 . S
C1978 N1979 1.279 . S
C1978 H2019 0.930 . S
N1979 C1977 1.314 . S
N1979 C1978 1.279 . S
C1980 C1982 1.353 . S
C1980 N1983 1.314 . S
C1980 H1986 0.930 . S
C1981 N1983 1.279 . S
C1981 C1984 1.358 . S
C1981 H1987 0.930 . S
C1982 C1980 1.353 . S
C1982 C1985 1.348 . S
C1982 H2020 0.929 . S
N1983 Li1938 1.990 . S
N1983 C1980 1.314 . S
N1983 C1981 1.279 . S
C1984 C1981 1.358 . S
C1984 C1985 1.356 . S
C1984 H2021 0.930 . S
C1985 C1982 1.348 . S
C1985 C1984 1.356 . S
H1986 C1980 0.930 . S
H1987 C1981 0.930 . S
C1988 N1989 1.314 . S
C1988 C1990 1.353 . S
C1988 H1994 0.930 . S
N1989 Li1939 1.990 . S
N1989 C1988 1.314 . S
N1989 C1992 1.279 . S
C1990 C1988 1.353 . S
C1990 C1993 1.348 . S
C1990 H2022 0.929 . S
C1991 C1992 1.358 . S
C1991 C1993 1.356 . S
C1991 H2023 0.930 . S
C1992 N1989 1.279 . S
C1992 C1991 1.358 . S
C1992 H1995 0.930 . S
C1993 C1990 1.348 . S
C1993 C1991 1.356 . S
H1994 C1988 0.930 . S
H1995 C1992 0.930 . S
O1996 Li1936 1.956 . S
O1996 Li1937 1.970 . S
O1996 Li1938 1.961 . S
O1996 C1940 1.325 . S
O1997 Li1936 1.970 . S
O1997 Li1937 1.956 . S
O1997 Li1939 1.961 . S
O1997 C1946 1.325 . S
O1998 Li1936 1.961 . S
O1998 Li1938 1.956 . S
O1998 Li1939 1.970 . S
O1998 C1968 1.325 . S
O1999 Li1937 1.961 . S
O1999 Li1938 1.970 . S
O1999 Li1939 1.956 . S
O1999 C1974 1.325 . S
H2000 C1942 0.929 . S
H2001 C1943 0.930 . S
H2002 C1944 0.930 . S
H2003 C1945 0.930 . S
H2004 C1947 0.930 . S
H2005 C1949 0.929 . S
H2006 C1950 0.930 . S
H2007 C1951 0.930 . S
H2008 C1954 0.930 . S
H2009 C1957 0.929 . S
H2010 C1962 0.929 . S
H2011 C1963 0.930 . S
H2012 C1970 0.929 . S
H2013 C1971 0.930 . S
H2014 C1972 0.930 . S
H2015 C1973 0.930 . S
H2016 C1975 0.929 . S
H2017 C1976 0.930 . S
H2018 C1977 0.930 . S
H2019 C1978 0.930 . S
H2020 C1982 0.929 . S
H2021 C1984 0.930 . S
H2022 C1990 0.929 . S
H2023 C1991 0.930 . S
Li2024 N2041 1.990 . S
Li2024 O2084 1.956 . S
Li2024 O2085 1.970 . S
Li2024 O2086 1.961 . S
Li2025 N2049 1.990 . S
Li2025 O2084 1.970 . S
Li2025 O2085 1.956 . S
Li2025 O2087 1.961 . S
Li2026 N2071 1.990 . S
Li2026 O2084 1.961 . S
Li2026 O2086 1.956 . S
Li2026 O2087 1.970 . S
Li2027 N2077 1.990 . S
Li2027 O2085 1.961 . S
Li2027 O2086 1.970 . S
Li2027 O2087 1.956 . S
C2028 C2030 1.348 . S
C2028 C2031 1.356 . S
C2028 O2084 1.325 . S
N2029 C2032 1.314 . S
N2029 C2033 1.279 . S
C2030 C2028 1.348 . S
C2030 C2032 1.353 . S
C2030 H2088 0.929 . S
C2031 C2028 1.356 . S
C2031 C2033 1.358 . S
C2031 H2089 0.930 . S
C2032 N2029 1.314 . S
C2032 C2030 1.353 . S
C2032 H2090 0.930 . S
C2033 N2029 1.279 . S
C2033 C2031 1.358 . S
C2033 H2091 0.930 . S
C2034 C2037 1.348 . S
C2034 C2038 1.356 . S
C2034 O2085 1.325 . S
C2035 N2036 1.279 . S
C2035 C2038 1.358 . S
C2035 H2092 0.930 . S
N2036 C2035 1.279 . S
N2036 C2039 1.314 . S
C2037 C2034 1.348 . S
C2037 C2039 1.353 . S
C2037 H2093 0.929 . S
C2038 C2034 1.356 . S
C2038 C2035 1.358 . S
C2038 H2094 0.930 . S
C2039 N2036 1.314 . S
C2039 C2037 1.353 . S
C2039 H2095 0.930 . S
C2040 N2041 1.314 . S
C2040 C2045 1.353 . S
C2040 H2046 0.930 . S
N2041 Li2024 1.990 . S
N2041 C2040 1.314 . S
N2041 C2043 1.279 . S
C2042 C2043 1.358 . S
C2042 C2044 1.356 . S
C2042 H2096 0.930 . S
C2043 N2041 1.279 . S
C2043 C2042 1.358 . S
C2043 H2047 0.930 . S
C2044 C2042 1.356 . S
C2044 C2045 1.348 . S
C2045 C2040 1.353 . S
C2045 C2044 1.348 . S
C2045 H2097 0.929 . S
H2046 C2040 0.930 . S
H2047 C2043 0.930 . S
C2048 N2049 1.314 . S
C2048 C2050 1.353 . S
C2048 H2054 0.930 . S
N2049 Li2025 1.990 . S
N2049 C2048 1.314 . S
N2049 C2052 1.279 . S
C2050 C2048 1.353 . S
C2050 C2053 1.348 . S
C2050 H2098 0.929 . S
C2051 C2052 1.358 . S
C2051 C2053 1.356 . S
C2051 H2099 0.930 . S
C2052 N2049 1.279 . S
C2052 C2051 1.358 . S
C2052 H2055 0.930 . S
C2053 C2050 1.348 . S
C2053 C2051 1.356 . S
H2054 C2048 0.930 . S
H2055 C2052 0.930 . S
C2056 C2058 1.348 . S
C2056 C2059 1.356 . S
C2056 O2086 1.325 . S
N2057 C2060 1.314 . S
N2057 C2061 1.279 . S
C2058 C2056 1.348 . S
C2058 C2060 1.353 . S
C2058 H2100 0.929 . S
C2059 C2056 1.356 . S
C2059 C2061 1.358 . S
C2059 H2101 0.930 . S
C2060 N2057 1.314 . S
C2060 C2058 1.353 . S
C2060 H2102 0.930 . S
C2061 N2057 1.279 . S
C2061 C2059 1.358 . S
C2061 H2103 0.930 . S
C2062 C2063 1.348 . S
C2062 C2064 1.356 . S
C2062 O2087 1.325 . S
C2063 C2062 1.348 . S
C2063 C2065 1.353 1_554 S
C2063 H2104 0.929 . S
C2064 C2062 1.356 . S
C2064 C2066 1.393 . S
C2064 H2105 0.930 . S
C2065 C2063 1.353 1_556 S
C2065 N2067 1.314 . S
C2065 H2106 0.930 . S
C2066 C2064 1.393 . S
C2066 N2067 1.252 1_554 S
C2066 H2107 0.923 1_554 S
N2067 C2065 1.314 . S
N2067 C2066 1.252 1_556 S
C2068 C2070 1.353 . S
C2068 N2071 1.314 . S
C2068 H2074 0.930 . S
C2069 N2071 1.279 . S
C2069 C2072 1.358 . S
C2069 H2075 0.930 . S
C2070 C2068 1.353 . S
C2070 C2073 1.348 . S
C2070 H2108 0.929 . S
N2071 Li2026 1.990 . S
N2071 C2068 1.314 . S
N2071 C2069 1.279 . S
C2072 C2069 1.358 . S
C2072 C2073 1.356 . S
C2072 H2109 0.930 . S
C2073 C2070 1.348 . S
C2073 C2072 1.356 . S
H2074 C2068 0.930 . S
H2075 C2069 0.930 . S
C2076 N2077 1.314 . S
C2076 C2078 1.353 . S
C2076 H2082 0.930 . S
N2077 Li2027 1.990 . S
N2077 C2076 1.314 . S
N2077 C2080 1.279 . S
C2078 C2076 1.353 . S
C2078 C2081 1.348 . S
C2078 H2110 0.929 . S
C2079 C2080 1.358 . S
C2079 C2081 1.356 . S
C2079 H2111 0.930 . S
C2080 N2077 1.279 . S
C2080 C2079 1.358 . S
C2080 H2083 0.930 . S
C2081 C2078 1.348 . S
C2081 C2079 1.356 . S
H2082 C2076 0.930 . S
H2083 C2080 0.930 . S
O2084 Li2024 1.956 . S
O2084 Li2025 1.970 . S
O2084 Li2026 1.961 . S
O2084 C2028 1.325 . S
O2085 Li2024 1.970 . S
O2085 Li2025 1.956 . S
O2085 Li2027 1.961 . S
O2085 C2034 1.325 . S
O2086 Li2024 1.961 . S
O2086 Li2026 1.956 . S
O2086 Li2027 1.970 . S
O2086 C2056 1.325 . S
O2087 Li2025 1.961 . S
O2087 Li2026 1.970 . S
O2087 Li2027 1.956 . S
O2087 C2062 1.325 . S
H2088 C2030 0.929 . S
H2089 C2031 0.930 . S
H2090 C2032 0.930 . S
H2091 C2033 0.930 . S
H2092 C2035 0.930 . S
H2093 C2037 0.929 . S
H2094 C2038 0.930 . S
H2095 C2039 0.930 . S
H2096 C2042 0.930 . S
H2097 C2045 0.929 . S
H2098 C2050 0.929 . S
H2099 C2051 0.930 . S
H2100 C2058 0.929 . S
H2101 C2059 0.930 . S
H2102 C2060 0.930 . S
H2103 C2061 0.930 . S
H2104 C2063 0.929 . S
H2105 C2064 0.930 . S
H2106 C2065 0.930 . S
H2107 C2066 0.923 1_556 S
H2108 C2070 0.929 . S
H2109 C2072 0.930 . S
H2110 C2078 0.929 . S
H2111 C2079 0.930 . S
C2112 C2113 1.387 . S
C2112 H2116 0.950 . S
C2112 C2121 1.390 . S
C2113 C2112 1.387 . S
C2113 C2115 1.387 . S
H2114 C2121 0.950 . S
C2115 C2113 1.387 . S
C2115 C2117 1.390 . S
C2115 H2119 0.950 . S
H2116 C2112 0.950 . S
C2117 C2115 1.390 . S
C2117 C2118 1.387 . S
C2117 H2120 0.950 . S
C2118 C2117 1.387 . S
C2118 C2121 1.387 . S
H2119 C2115 0.950 . S
H2120 C2117 0.950 . S
C2121 C2112 1.390 . S
C2121 H2114 0.950 . S
C2121 C2118 1.387 . S
C2122 C2123 1.387 . S
C2122 H2126 0.950 . S
C2122 C2131 1.390 . S
C2123 C2122 1.387 . S
C2123 C2125 1.387 . S
H2124 C2131 0.950 . S
C2125 C2123 1.387 . S
C2125 C2127 1.390 . S
C2125 H2129 0.950 . S
H2126 C2122 0.950 . S
C2127 C2125 1.390 . S
C2127 C2128 1.387 . S
C2127 H2130 0.950 . S
C2128 C2127 1.387 . S
C2128 C2131 1.387 . S
H2129 C2125 0.950 . S
H2130 C2127 0.950 . S
C2131 C2122 1.390 . S
C2131 H2124 0.950 . S
C2131 C2128 1.387 . S
C2132 C2133 1.387 . S
C2132 H2136 0.950 . S
C2132 C2141 1.390 . S
C2133 C2132 1.387 . S
C2133 C2135 1.387 . S
H2134 C2141 0.950 . S
C2135 C2133 1.387 . S
C2135 C2137 1.390 . S
C2135 H2139 0.950 . S
H2136 C2132 0.950 . S
C2137 C2135 1.390 . S
C2137 C2138 1.387 . S
C2137 H2140 0.950 . S
C2138 C2137 1.387 . S
C2138 C2141 1.387 . S
H2139 C2135 0.950 . S
H2140 C2137 0.950 . S
C2141 C2132 1.390 . S
C2141 H2134 0.950 . S
C2141 C2138 1.387 . S
C2142 C2143 1.387 . S
C2142 H2146 0.950 . S
C2142 C2151 1.390 . S
C2143 C2142 1.387 . S
C2143 C2145 1.387 . S
H2144 C2151 0.950 . S
C2145 C2143 1.387 . S
C2145 C2147 1.390 . S
C2145 H2149 0.950 . S
H2146 C2142 0.950 . S
C2147 C2145 1.390 . S
C2147 C2148 1.387 . S
C2147 H2150 0.950 . S
C2148 C2147 1.387 . S
C2148 C2151 1.387 . S
H2149 C2145 0.950 . S
H2150 C2147 0.950 . S
C2151 C2142 1.390 . S
C2151 H2144 0.950 . S
C2151 C2148 1.387 . S
C2152 C2153 1.387 . S
C2152 H2156 0.950 . S
C2152 C2161 1.390 . S
C2153 C2152 1.387 . S
C2153 C2155 1.387 . S
H2154 C2161 0.950 . S
C2155 C2153 1.387 . S
C2155 C2157 1.390 . S
C2155 H2159 0.950 . S
H2156 C2152 0.950 . S
C2157 C2155 1.390 . S
C2157 C2158 1.387 . S
C2157 H2160 0.950 . S
C2158 C2157 1.387 . S
C2158 C2161 1.387 . S
H2159 C2155 0.950 . S
H2160 C2157 0.950 . S
C2161 C2152 1.390 . S
C2161 H2154 0.950 . S
C2161 C2158 1.387 . S
C2162 C2163 1.387 . S
C2162 H2166 0.950 . S
C2162 C2171 1.390 . S
C2163 C2162 1.387 . S
C2163 C2165 1.387 . S
H2164 C2171 0.950 . S
C2165 C2163 1.387 . S
C2165 C2167 1.390 . S
C2165 H2169 0.950 . S
H2166 C2162 0.950 . S
C2167 C2165 1.390 . S
C2167 C2168 1.387 . S
C2167 H2170 0.950 . S
C2168 C2167 1.387 . S
C2168 C2171 1.387 . S
H2169 C2165 0.950 . S
H2170 C2167 0.950 . S
C2171 C2162 1.390 . S
C2171 H2164 0.950 . S
C2171 C2168 1.387 . S
C2172 C2173 1.387 . S
C2172 H2176 0.950 . S
C2172 C2181 1.390 . S
C2173 C2172 1.387 . S
C2173 C2175 1.387 . S
H2174 C2181 0.950 . S
C2175 C2173 1.387 . S
C2175 C2177 1.390 . S
C2175 H2179 0.950 . S
H2176 C2172 0.950 . S
C2177 C2175 1.390 . S
C2177 C2178 1.387 . S
C2177 H2180 0.950 . S
C2178 C2177 1.387 . S
C2178 C2181 1.387 . S
H2179 C2175 0.950 . S
H2180 C2177 0.950 . S
C2181 C2172 1.390 . S
C2181 H2174 0.950 . S
C2181 C2178 1.387 . S
C2182 C2183 1.387 . S
C2182 H2186 0.950 . S
C2182 C2191 1.390 . S
C2183 C2182 1.387 . S
C2183 C2185 1.387 . S
H2184 C2191 0.950 . S
C2185 C2183 1.387 . S
C2185 C2187 1.390 . S
C2185 H2189 0.950 . S
H2186 C2182 0.950 . S
C2187 C2185 1.390 . S
C2187 C2188 1.387 . S
C2187 H2190 0.950 . S
C2188 C2187 1.387 . S
C2188 C2191 1.387 . S
H2189 C2185 0.950 . S
H2190 C2187 0.950 . S
C2191 C2182 1.390 . S
C2191 H2184 0.950 . S
C2191 C2188 1.387 . S
C2192 C2193 1.387 . S
C2192 H2196 0.950 . S
C2192 C2201 1.390 . S
C2193 C2192 1.387 . S
C2193 C2195 1.387 . S
H2194 C2201 0.950 . S
C2195 C2193 1.387 . S
C2195 C2197 1.390 . S
C2195 H2199 0.950 . S
H2196 C2192 0.950 . S
C2197 C2195 1.390 . S
C2197 C2198 1.387 . S
C2197 H2200 0.950 . S
C2198 C2197 1.387 . S
C2198 C2201 1.387 . S
H2199 C2195 0.950 . S
H2200 C2197 0.950 . S
C2201 C2192 1.390 . S
C2201 H2194 0.950 . S
C2201 C2198 1.387 . S
C2202 C2203 1.387 . S
C2202 H2206 0.950 . S
C2202 C2211 1.390 . S
C2203 C2202 1.387 . S
C2203 C2205 1.387 . S
H2204 C2211 0.950 . S
C2205 C2203 1.387 . S
C2205 C2207 1.390 . S
C2205 H2209 0.950 . S
H2206 C2202 0.950 . S
C2207 C2205 1.390 . S
C2207 C2208 1.387 . S
C2207 H2210 0.950 . S
C2208 C2207 1.387 . S
C2208 C2211 1.387 . S
H2209 C2205 0.950 . S
H2210 C2207 0.950 . S
C2211 C2202 1.390 . S
C2211 H2204 0.950 . S
C2211 C2208 1.387 . S
C2212 C2213 1.387 . S
C2212 H2216 0.950 . S
C2212 C2221 1.390 . S
C2213 C2212 1.387 . S
C2213 C2215 1.387 . S
H2214 C2221 0.950 . S
C2215 C2213 1.387 . S
C2215 C2217 1.390 . S
C2215 H2219 0.950 . S
H2216 C2212 0.950 . S
C2217 C2215 1.390 . S
C2217 C2218 1.387 . S
C2217 H2220 0.950 . S
C2218 C2217 1.387 . S
C2218 C2221 1.387 . S
H2219 C2215 0.950 . S
H2220 C2217 0.950 . S
C2221 C2212 1.390 . S
C2221 H2214 0.950 . S
C2221 C2218 1.387 . S
C2222 C2223 1.387 . S
C2222 H2226 0.950 . S
C2222 C2231 1.390 . S
C2223 C2222 1.387 . S
C2223 C2225 1.387 . S
H2224 C2231 0.950 . S
C2225 C2223 1.387 . S
C2225 C2227 1.390 . S
C2225 H2229 0.950 . S
H2226 C2222 0.950 . S
C2227 C2225 1.390 . S
C2227 C2228 1.387 . S
C2227 H2230 0.950 . S
C2228 C2227 1.387 . S
C2228 C2231 1.387 . S
H2229 C2225 0.950 . S
H2230 C2227 0.950 . S
C2231 C2222 1.390 . S
C2231 H2224 0.950 . S
C2231 C2228 1.387 . S
C2232 C2233 1.387 . S
C2232 H2236 0.950 . S
C2232 C2241 1.390 . S
C2233 C2232 1.387 . S
C2233 C2235 1.387 . S
H2234 C2241 0.950 . S
C2235 C2233 1.387 . S
C2235 C2237 1.390 . S
C2235 H2239 0.950 . S
H2236 C2232 0.950 . S
C2237 C2235 1.390 . S
C2237 C2238 1.387 . S
C2237 H2240 0.950 . S
C2238 C2237 1.387 . S
C2238 C2241 1.387 . S
H2239 C2235 0.950 . S
H2240 C2237 0.950 . S
C2241 C2232 1.390 . S
C2241 H2234 0.950 . S
C2241 C2238 1.387 . S
C2242 C2243 1.387 . S
C2242 H2246 0.950 . S
C2242 C2251 1.390 . S
C2243 C2242 1.387 . S
C2243 C2245 1.387 . S
H2244 C2251 0.950 . S
C2245 C2243 1.387 . S
C2245 C2247 1.390 . S
C2245 H2249 0.950 . S
H2246 C2242 0.950 . S
C2247 C2245 1.390 . S
C2247 C2248 1.387 . S
C2247 H2250 0.950 . S
C2248 C2247 1.387 . S
C2248 C2251 1.387 . S
H2249 C2245 0.950 . S
H2250 C2247 0.950 . S
C2251 C2242 1.390 . S
C2251 H2244 0.950 . S
C2251 C2248 1.387 . S
C2252 C2253 1.387 . S
C2252 H2256 0.950 . S
C2252 C2261 1.390 . S
C2253 C2252 1.387 . S
C2253 C2255 1.387 . S
H2254 C2261 0.950 . S
C2255 C2253 1.387 . S
C2255 C2257 1.390 . S
C2255 H2259 0.950 . S
H2256 C2252 0.950 . S
C2257 C2255 1.390 . S
C2257 C2258 1.387 . S
C2257 H2260 0.950 . S
C2258 C2257 1.387 . S
C2258 C2261 1.387 . S
H2259 C2255 0.950 . S
H2260 C2257 0.950 . S
C2261 C2252 1.390 . S
C2261 H2254 0.950 . S
C2261 C2258 1.387 . S
C2262 C2263 1.387 . S
C2262 H2266 0.950 . S
C2262 C2271 1.390 . S
C2263 C2262 1.387 . S
C2263 C2265 1.387 . S
H2264 C2271 0.950 . S
C2265 C2263 1.387 . S
C2265 C2267 1.390 . S
C2265 H2269 0.950 . S
H2266 C2262 0.950 . S
C2267 C2265 1.390 . S
C2267 C2268 1.387 . S
C2267 H2270 0.950 . S
C2268 C2267 1.387 . S
C2268 C2271 1.387 . S
H2269 C2265 0.950 . S
H2270 C2267 0.950 . S
C2271 C2262 1.390 . S
C2271 H2264 0.950 . S
C2271 C2268 1.387 . S
C2272 C2273 1.387 . S
C2272 H2276 0.950 . S
C2272 C2281 1.390 . S
C2273 C2272 1.387 . S
C2273 C2275 1.387 . S
H2274 C2281 0.950 . S
C2275 C2273 1.387 . S
C2275 C2277 1.390 . S
C2275 H2279 0.950 . S
H2276 C2272 0.950 . S
C2277 C2275 1.390 . S
C2277 C2278 1.387 . S
C2277 H2280 0.950 . S
C2278 C2277 1.387 . S
C2278 C2281 1.387 . S
H2279 C2275 0.950 . S
H2280 C2277 0.950 . S
C2281 C2272 1.390 . S
C2281 H2274 0.950 . S
C2281 C2278 1.387 . S
C2282 C2283 1.387 . S
C2282 H2286 0.950 . S
C2282 C2291 1.390 . S
C2283 C2282 1.387 . S
C2283 C2285 1.387 . S
H2284 C2291 0.950 . S
C2285 C2283 1.387 . S
C2285 C2287 1.390 . S
C2285 H2289 0.950 . S
H2286 C2282 0.950 . S
C2287 C2285 1.390 . S
C2287 C2288 1.387 . S
C2287 H2290 0.950 . S
C2288 C2287 1.387 . S
C2288 C2291 1.387 . S
H2289 C2285 0.950 . S
H2290 C2287 0.950 . S
C2291 C2282 1.390 . S
C2291 H2284 0.950 . S
C2291 C2288 1.387 . S
C2292 C2293 1.387 . S
C2292 H2296 0.950 . S
C2292 C2301 1.390 . S
C2293 C2292 1.387 . S
C2293 C2295 1.387 . S
H2294 C2301 0.950 . S
C2295 C2293 1.387 . S
C2295 C2297 1.390 . S
C2295 H2299 0.950 . S
H2296 C2292 0.950 . S
C2297 C2295 1.390 . S
C2297 C2298 1.387 . S
C2297 H2300 0.950 . S
C2298 C2297 1.387 . S
C2298 C2301 1.387 . S
H2299 C2295 0.950 . S
H2300 C2297 0.950 . S
C2301 C2292 1.390 . S
C2301 H2294 0.950 . S
C2301 C2298 1.387 . S
C2302 C2303 1.387 . S
C2302 H2306 0.950 . S
C2302 C2311 1.390 . S
C2303 C2302 1.387 . S
C2303 C2305 1.387 . S
H2304 C2311 0.950 . S
C2305 C2303 1.387 . S
C2305 C2307 1.390 . S
C2305 H2309 0.950 . S
H2306 C2302 0.950 . S
C2307 C2305 1.390 . S
C2307 C2308 1.387 . S
C2307 H2310 0.950 . S
C2308 C2307 1.387 . S
C2308 C2311 1.387 . S
H2309 C2305 0.950 . S
H2310 C2307 0.950 . S
C2311 C2302 1.390 . S
C2311 H2304 0.950 . S
C2311 C2308 1.387 . S
C2312 C2313 1.387 . S
C2312 H2316 0.950 . S
C2312 C2321 1.390 . S
C2313 C2312 1.387 . S
C2313 C2315 1.387 . S
H2314 C2321 0.950 . S
C2315 C2313 1.387 . S
C2315 C2317 1.390 . S
C2315 H2319 0.950 . S
H2316 C2312 0.950 . S
C2317 C2315 1.390 . S
C2317 C2318 1.387 . S
C2317 H2320 0.950 . S
C2318 C2317 1.387 . S
C2318 C2321 1.387 . S
H2319 C2315 0.950 . S
H2320 C2317 0.950 . S
C2321 C2312 1.390 . S
C2321 H2314 0.950 . S
C2321 C2318 1.387 . S
C2322 C2323 1.387 . S
C2322 H2326 0.950 . S
C2322 C2331 1.390 . S
C2323 C2322 1.387 . S
C2323 C2325 1.387 . S
H2324 C2331 0.950 . S
C2325 C2323 1.387 . S
C2325 C2327 1.390 . S
C2325 H2329 0.950 . S
H2326 C2322 0.950 . S
C2327 C2325 1.390 . S
C2327 C2328 1.387 . S
C2327 H2330 0.950 . S
C2328 C2327 1.387 . S
C2328 C2331 1.387 . S
H2329 C2325 0.950 . S
H2330 C2327 0.950 . S
C2331 C2322 1.390 . S
C2331 H2324 0.950 . S
C2331 C2328 1.387 . S
C2332 C2333 1.387 . S
C2332 H2336 0.950 . S
C2332 C2341 1.390 . S
C2333 C2332 1.387 . S
C2333 C2335 1.387 . S
H2334 C2341 0.950 . S
C2335 C2333 1.387 . S
C2335 C2337 1.390 . S
C2335 H2339 0.950 . S
H2336 C2332 0.950 . S
C2337 C2335 1.390 . S
C2337 C2338 1.387 . S
C2337 H2340 0.950 . S
C2338 C2337 1.387 . S
C2338 C2341 1.387 . S
H2339 C2335 0.950 . S
H2340 C2337 0.950 . S
C2341 C2332 1.390 . S
C2341 H2334 0.950 . S
C2341 C2338 1.387 . S
C2342 C2343 1.387 . S
C2342 H2346 0.950 . S
C2342 C2351 1.390 . S
C2343 C2342 1.387 . S
C2343 C2345 1.387 . S
H2344 C2351 0.950 . S
C2345 C2343 1.387 . S
C2345 C2347 1.390 . S
C2345 H2349 0.950 . S
H2346 C2342 0.950 . S
C2347 C2345 1.390 . S
C2347 C2348 1.387 . S
C2347 H2350 0.950 . S
C2348 C2347 1.387 . S
C2348 C2351 1.387 . S
H2349 C2345 0.950 . S
H2350 C2347 0.950 . S
C2351 C2342 1.390 . S
C2351 H2344 0.950 . S
C2351 C2348 1.387 . S
C2352 C2353 1.387 . S
C2352 H2356 0.950 . S
C2352 C2361 1.390 1_566 S
C2353 C2352 1.387 . S
C2353 C2355 1.387 . S
H2354 C2361 0.950 . S
C2355 C2353 1.387 . S
C2355 C2357 1.390 1_566 S
C2355 H2359 0.950 . S
H2356 C2352 0.950 . S
C2357 C2355 1.390 1_544 S
C2357 C2358 1.387 . S
C2357 H2360 0.950 . S
C2358 C2357 1.387 . S
C2358 C2361 1.387 . S
H2359 C2355 0.950 . S
H2360 C2357 0.950 . S
C2361 C2352 1.390 1_544 S
C2361 H2354 0.950 . S
C2361 C2358 1.387 . S
C2362 C2363 1.387 . S
C2362 H2366 0.950 . S
C2362 C2371 1.390 . S
C2363 C2362 1.387 . S
C2363 C2365 1.387 . S
H2364 C2371 0.950 . S
C2365 C2363 1.387 . S
C2365 C2367 1.390 . S
C2365 H2369 0.950 . S
H2366 C2362 0.950 . S
C2367 C2365 1.390 . S
C2367 C2368 1.387 . S
C2367 H2370 0.950 . S
C2368 C2367 1.387 . S
C2368 C2371 1.387 . S
H2369 C2365 0.950 . S
H2370 C2367 0.950 . S
C2371 C2362 1.390 . S
C2371 H2364 0.950 . S
C2371 C2368 1.387 . S
C2372 C2373 1.387 . S
C2372 H2376 0.950 . S
C2372 C2381 1.390 1_455 S
C2373 C2372 1.387 . S
C2373 C2375 1.387 1_556 S
H2374 C2381 0.950 . S
C2375 C2373 1.387 1_554 S
C2375 C2377 1.390 1_455 S
C2375 H2379 0.950 . S
H2376 C2372 0.950 . S
C2377 C2375 1.390 1_655 S
C2377 C2378 1.387 . S
C2377 H2380 0.950 . S
C2378 C2377 1.387 . S
C2378 C2381 1.387 1_554 S
H2379 C2375 0.950 . S
H2380 C2377 0.950 . S
C2381 C2372 1.390 1_655 S
C2381 H2374 0.950 . S
C2381 C2378 1.387 1_556 S
C2382 C2383 1.387 . S
C2382 H2386 0.950 . S
C2382 C2391 1.390 1_545 S
C2383 C2382 1.387 . S
C2383 C2385 1.387 . S
H2384 C2391 0.950 . S
C2385 C2383 1.387 . S
C2385 C2387 1.390 1_545 S
C2385 H2389 0.950 . S
H2386 C2382 0.950 . S
C2387 C2385 1.390 1_565 S
C2387 C2388 1.387 . S
C2387 H2390 0.950 . S
C2388 C2387 1.387 . S
C2388 C2391 1.387 . S
H2389 C2385 0.950 . S
H2390 C2387 0.950 . S
C2391 C2382 1.390 1_565 S
C2391 H2384 0.950 . S
C2391 C2388 1.387 . S
C2392 C2393 1.387 1_556 S
C2392 H2396 0.950 . S
C2392 C2401 1.390 . S
C2393 C2392 1.387 1_554 S
C2393 C2395 1.387 . S
H2394 C2401 0.950 . S
C2395 C2393 1.387 . S
C2395 C2397 1.390 . S
C2395 H2399 0.950 . S
H2396 C2392 0.950 . S
C2397 C2395 1.390 . S
C2397 C2398 1.387 1_554 S
C2397 H2400 0.950 . S
C2398 C2397 1.387 1_556 S
C2398 C2401 1.387 . S
H2399 C2395 0.950 . S
H2400 C2397 0.950 . S
C2401 C2392 1.390 . S
C2401 H2394 0.950 . S
C2401 C2398 1.387 . S
C2402 C2403 1.387 . S
C2402 H2406 0.950 . S
C2402 C2411 1.390 1_455 S
C2403 C2402 1.387 . S
C2403 C2405 1.387 . S
H2404 C2411 0.950 . S
C2405 C2403 1.387 . S
C2405 C2407 1.390 1_455 S
C2405 H2409 0.950 . S
H2406 C2402 0.950 . S
C2407 C2405 1.390 1_655 S
C2407 C2408 1.387 . S
C2407 H2410 0.950 . S
C2408 C2407 1.387 . S
C2408 C2411 1.387 . S
H2409 C2405 0.950 . S
H2410 C2407 0.950 . S
C2411 C2402 1.390 1_655 S
C2411 H2404 0.950 . S
C2411 C2408 1.387 . S
C2412 C2413 1.387 . S
C2412 H2416 0.950 . S
C2412 C2421 1.390 1_566 S
C2413 C2412 1.387 . S
C2413 C2415 1.387 . S
H2414 C2421 0.950 . S
C2415 C2413 1.387 . S
C2415 C2417 1.390 1_566 S
C2415 H2419 0.950 . S
H2416 C2412 0.950 . S
C2417 C2415 1.390 1_544 S
C2417 C2418 1.387 . S
C2417 H2420 0.950 . S
C2418 C2417 1.387 . S
C2418 C2421 1.387 . S
H2419 C2415 0.950 . S
H2420 C2417 0.950 . S
C2421 C2412 1.390 1_544 S
C2421 H2414 0.950 . S
C2421 C2418 1.387 . S
C2422 C2423 1.387 . S
C2422 H2426 0.950 . S
C2422 C2431 1.390 . S
C2423 C2422 1.387 . S
C2423 C2425 1.387 . S
H2424 C2431 0.950 . S
C2425 C2423 1.387 . S
C2425 C2427 1.390 . S
C2425 H2429 0.950 . S
H2426 C2422 0.950 . S
C2427 C2425 1.390 . S
C2427 C2428 1.387 . S
C2427 H2430 0.950 . S
C2428 C2427 1.387 . S
C2428 C2431 1.387 . S
H2429 C2425 0.950 . S
H2430 C2427 0.950 . S
C2431 C2422 1.390 . S
C2431 H2424 0.950 . S
C2431 C2428 1.387 . S
C2432 C2433 1.387 . S
C2432 H2436 0.950 . S
C2432 C2441 1.390 1_655 S
C2433 C2432 1.387 . S
C2433 C2435 1.387 1_554 S
H2434 C2441 0.950 . S
C2435 C2433 1.387 1_556 S
C2435 C2437 1.390 1_655 S
C2435 H2439 0.950 . S
H2436 C2432 0.950 . S
C2437 C2435 1.390 1_455 S
C2437 C2438 1.387 . S
C2437 H2440 0.950 . S
C2438 C2437 1.387 . S
C2438 C2441 1.387 1_556 S
H2439 C2435 0.950 . S
H2440 C2437 0.950 . S
C2441 C2432 1.390 1_455 S
C2441 H2434 0.950 . S
C2441 C2438 1.387 1_554 S
C2442 C2443 1.387 . S
C2442 H2446 0.950 . S
C2442 C2451 1.390 1_565 S
C2443 C2442 1.387 . S
C2443 C2445 1.387 . S
H2444 C2451 0.950 . S
C2445 C2443 1.387 . S
C2445 C2447 1.390 1_565 S
C2445 H2449 0.950 . S
H2446 C2442 0.950 . S
C2447 C2445 1.390 1_545 S
C2447 C2448 1.387 . S
C2447 H2450 0.950 . S
C2448 C2447 1.387 . S
C2448 C2451 1.387 . S
H2449 C2445 0.950 . S
H2450 C2447 0.950 . S
C2451 C2442 1.390 1_545 S
C2451 H2444 0.950 . S
C2451 C2448 1.387 . S
C2452 C2453 1.387 1_556 S
C2452 H2456 0.950 . S
C2452 C2461 1.390 . S
C2453 C2452 1.387 1_554 S
C2453 C2455 1.387 . S
H2454 C2461 0.950 . S
C2455 C2453 1.387 . S
C2455 C2457 1.390 . S
C2455 H2459 0.950 . S
H2456 C2452 0.950 . S
C2457 C2455 1.390 . S
C2457 C2458 1.387 1_554 S
C2457 H2460 0.950 . S
C2458 C2457 1.387 1_556 S
C2458 C2461 1.387 . S
H2459 C2455 0.950 . S
H2460 C2457 0.950 . S
C2461 C2452 1.390 . S
C2461 H2454 0.950 . S
C2461 C2458 1.387 . S
C2462 C2463 1.387 . S
C2462 H2466 0.950 . S
C2462 C2471 1.390 1_455 S
C2463 C2462 1.387 . S
C2463 C2465 1.387 . S
H2464 C2471 0.950 . S
C2465 C2463 1.387 . S
C2465 C2467 1.390 1_455 S
C2465 H2469 0.950 . S
H2466 C2462 0.950 . S
C2467 C2465 1.390 1_655 S
C2467 C2468 1.387 . S
C2467 H2470 0.950 . S
C2468 C2467 1.387 . S
C2468 C2471 1.387 . S
H2469 C2465 0.950 . S
H2470 C2467 0.950 . S
C2471 C2462 1.390 1_655 S
C2471 H2464 0.950 . S
C2471 C2468 1.387 . S
C2472 C2473 1.387 . S
C2472 H2476 0.950 . S
C2472 C2481 1.390 . S
C2473 C2472 1.387 . S
C2473 C2475 1.387 . S
H2474 C2481 0.950 . S
C2475 C2473 1.387 . S
C2475 C2477 1.390 . S
C2475 H2479 0.950 . S
H2476 C2472 0.950 . S
C2477 C2475 1.390 . S
C2477 C2478 1.387 . S
C2477 H2480 0.950 . S
C2478 C2477 1.387 . S
C2478 C2481 1.387 . S
H2479 C2475 0.950 . S
H2480 C2477 0.950 . S
C2481 C2472 1.390 . S
C2481 H2474 0.950 . S
C2481 C2478 1.387 . S
C2482 C2483 1.387 . S
C2482 H2486 0.950 . S
C2482 C2491 1.390 . S
C2483 C2482 1.387 . S
C2483 C2485 1.387 . S
H2484 C2491 0.950 . S
C2485 C2483 1.387 . S
C2485 C2487 1.390 . S
C2485 H2489 0.950 . S
H2486 C2482 0.950 . S
C2487 C2485 1.390 . S
C2487 C2488 1.387 . S
C2487 H2490 0.950 . S
C2488 C2487 1.387 . S
C2488 C2491 1.387 . S
H2489 C2485 0.950 . S
H2490 C2487 0.950 . S
C2491 C2482 1.390 . S
C2491 H2484 0.950 . S
C2491 C2488 1.387 . S
C2492 C2493 1.387 . S
C2492 H2496 0.950 . S
C2492 C2501 1.390 . S
C2493 C2492 1.387 . S
C2493 C2495 1.387 . S
H2494 C2501 0.950 . S
C2495 C2493 1.387 . S
C2495 C2497 1.390 . S
C2495 H2499 0.950 . S
H2496 C2492 0.950 . S
C2497 C2495 1.390 . S
C2497 C2498 1.387 . S
C2497 H2500 0.950 . S
C2498 C2497 1.387 . S
C2498 C2501 1.387 . S
H2499 C2495 0.950 . S
H2500 C2497 0.950 . S
C2501 C2492 1.390 . S
C2501 H2494 0.950 . S
C2501 C2498 1.387 . S
C2502 C2503 1.387 . S
C2502 H2506 0.950 . S
C2502 C2511 1.390 . S
C2503 C2502 1.387 . S
C2503 C2505 1.387 . S
H2504 C2511 0.950 . S
C2505 C2503 1.387 . S
C2505 C2507 1.390 . S
C2505 H2509 0.950 . S
H2506 C2502 0.950 . S
C2507 C2505 1.390 . S
C2507 C2508 1.387 . S
C2507 H2510 0.950 . S
C2508 C2507 1.387 . S
C2508 C2511 1.387 . S
H2509 C2505 0.950 . S
H2510 C2507 0.950 . S
C2511 C2502 1.390 . S
C2511 H2504 0.950 . S
C2511 C2508 1.387 . S
C2512 C2513 1.387 . S
C2512 H2516 0.950 . S
C2512 C2521 1.390 . S
C2513 C2512 1.387 . S
C2513 C2515 1.387 . S
H2514 C2521 0.950 . S
C2515 C2513 1.387 . S
C2515 C2517 1.390 . S
C2515 H2519 0.950 . S
H2516 C2512 0.950 . S
C2517 C2515 1.390 . S
C2517 C2518 1.387 . S
C2517 H2520 0.950 . S
C2518 C2517 1.387 . S
C2518 C2521 1.387 . S
H2519 C2515 0.950 . S
H2520 C2517 0.950 . S
C2521 C2512 1.390 . S
C2521 H2514 0.950 . S
C2521 C2518 1.387 . S
C2522 C2523 1.387 . S
C2522 H2526 0.950 . S
C2522 C2531 1.390 . S
C2523 C2522 1.387 . S
C2523 C2525 1.387 . S
H2524 C2531 0.950 . S
C2525 C2523 1.387 . S
C2525 C2527 1.390 . S
C2525 H2529 0.950 . S
H2526 C2522 0.950 . S
C2527 C2525 1.390 . S
C2527 C2528 1.387 . S
C2527 H2530 0.950 . S
C2528 C2527 1.387 . S
C2528 C2531 1.387 . S
H2529 C2525 0.950 . S
H2530 C2527 0.950 . S
C2531 C2522 1.390 . S
C2531 H2524 0.950 . S
C2531 C2528 1.387 . S
C2532 C2533 1.387 . S
C2532 H2536 0.950 . S
C2532 C2541 1.390 . S
C2533 C2532 1.387 . S
C2533 C2535 1.387 . S
H2534 C2541 0.950 . S
C2535 C2533 1.387 . S
C2535 C2537 1.390 . S
C2535 H2539 0.950 . S
H2536 C2532 0.950 . S
C2537 C2535 1.390 . S
C2537 C2538 1.387 . S
C2537 H2540 0.950 . S
C2538 C2537 1.387 . S
C2538 C2541 1.387 . S
H2539 C2535 0.950 . S
H2540 C2537 0.950 . S
C2541 C2532 1.390 . S
C2541 H2534 0.950 . S
C2541 C2538 1.387 . S
C2542 C2543 1.387 . S
C2542 H2546 0.950 . S
C2542 C2551 1.390 . S
C2543 C2542 1.387 . S
C2543 C2545 1.387 . S
H2544 C2551 0.950 . S
C2545 C2543 1.387 . S
C2545 C2547 1.390 . S
C2545 H2549 0.950 . S
H2546 C2542 0.950 . S
C2547 C2545 1.390 . S
C2547 C2548 1.387 . S
C2547 H2550 0.950 . S
C2548 C2547 1.387 . S
C2548 C2551 1.387 . S
H2549 C2545 0.950 . S
H2550 C2547 0.950 . S
C2551 C2542 1.390 . S
C2551 H2544 0.950 . S
C2551 C2548 1.387 . S
C2552 C2553 1.387 . S
C2552 H2556 0.950 . S
C2552 C2561 1.390 . S
C2553 C2552 1.387 . S
C2553 C2555 1.387 . S
H2554 C2561 0.950 . S
C2555 C2553 1.387 . S
C2555 C2557 1.390 . S
C2555 H2559 0.950 . S
H2556 C2552 0.950 . S
C2557 C2555 1.390 . S
C2557 C2558 1.387 . S
C2557 H2560 0.950 . S
C2558 C2557 1.387 . S
C2558 C2561 1.387 . S
H2559 C2555 0.950 . S
H2560 C2557 0.950 . S
C2561 C2552 1.390 . S
C2561 H2554 0.950 . S
C2561 C2558 1.387 . S
C2562 C2563 1.387 . S
C2562 H2566 0.950 . S
C2562 C2571 1.390 . S
C2563 C2562 1.387 . S
C2563 C2565 1.387 . S
H2564 C2571 0.950 . S
C2565 C2563 1.387 . S
C2565 C2567 1.390 . S
C2565 H2569 0.950 . S
H2566 C2562 0.950 . S
C2567 C2565 1.390 . S
C2567 C2568 1.387 . S
C2567 H2570 0.950 . S
C2568 C2567 1.387 . S
C2568 C2571 1.387 . S
H2569 C2565 0.950 . S
H2570 C2567 0.950 . S
C2571 C2562 1.390 . S
C2571 H2564 0.950 . S
C2571 C2568 1.387 . S
C2572 C2573 1.387 . S
C2572 H2576 0.950 . S
C2572 C2581 1.390 . S
C2573 C2572 1.387 . S
C2573 C2575 1.387 . S
H2574 C2581 0.950 . S
C2575 C2573 1.387 . S
C2575 C2577 1.390 . S
C2575 H2579 0.950 . S
H2576 C2572 0.950 . S
C2577 C2575 1.390 . S
C2577 C2578 1.387 . S
C2577 H2580 0.950 . S
C2578 C2577 1.387 . S
C2578 C2581 1.387 . S
H2579 C2575 0.950 . S
H2580 C2577 0.950 . S
C2581 C2572 1.390 . S
C2581 H2574 0.950 . S
C2581 C2578 1.387 . S
C2582 C2583 1.387 . S
C2582 H2586 0.950 . S
C2582 C2591 1.390 . S
C2583 C2582 1.387 . S
C2583 C2585 1.387 . S
H2584 C2591 0.950 . S
C2585 C2583 1.387 . S
C2585 C2587 1.390 . S
C2585 H2589 0.950 . S
H2586 C2582 0.950 . S
C2587 C2585 1.390 . S
C2587 C2588 1.387 . S
C2587 H2590 0.950 . S
C2588 C2587 1.387 . S
C2588 C2591 1.387 . S
H2589 C2585 0.950 . S
H2590 C2587 0.950 . S
C2591 C2582 1.390 . S
C2591 H2584 0.950 . S
C2591 C2588 1.387 . S
C2113 C1369 1.516 . S
C2118 C29 1.515 . S
C2123 C117 1.516 . S
C2128 C1465 1.515 . S
C2133 C196 1.516 . S
C2138 C1553 1.515 . S
C2143 C284 1.516 . S
C2148 C1105 1.515 . S
C2153 C1193 1.516 . S
C2158 C401 1.515 . S
C2163 C469 1.515 . S
C2168 C1289 1.516 . S
C2173 C1868 1.515 . S
C2178 C585 1.516 . S
C2183 C665 1.515 . S
C2188 C1956 1.516 . S
C2193 C761 1.516 . S
C2198 C2044 1.515 . S
C2203 C1613 1.515 . S
C2208 C841 1.516 . S
C2213 C937 1.515 . S
C2218 C1701 1.516 . S
C2223 C1780 1.515 . S
C2228 C1017 1.516 . S
C2233 C20 1.130 . S
C2238 C2081 1.133 . S
C2243 C1633 1.134 . S
C2248 C108 1.130 . S
C2253 C205 1.131 . S
C2258 C1721 1.133 . S
C2263 C1817 1.133 . S
C2268 C293 1.130 . S
C2273 C409 1.131 . S
C2278 C1905 1.132 . S
C2283 C1993 1.133 . S
C2288 C460 1.131 . S
C2293 C577 1.131 . S
C2298 C1173 1.133 . S
C2303 C1252 1.133 . S
C2308 C673 1.130 . S
C2313 C1349 1.133 . S
C2318 C753 1.131 . S
C2323 C1428 1.133 . S
C2328 C849 1.129 . S
C2333 C929 1.130 . S
C2338 C1516 1.133 . S
C2343 C1025 1.131 . S
C2348 C1085 1.133 . S
C2353 C636 1.077 . S
C2358 C57 1.077 . S
C2363 C733 1.077 . S
C2368 C145 1.079 . S
C2373 C812 1.076 . S
C2378 C225 1.078 . S
C2383 C909 1.078 . S
C2388 C313 1.078 . S
C2393 C372 1.079 . S
C2398 C988 1.077 . S
C2403 C497 1.078 . S
C2408 C557 1.076 . S
C2413 C1076 1.075 . S
C2418 C1729 1.075 . S
C2423 C1164 1.073 . S
C2428 C1809 1.073 . S
C2433 C1897 1.075 . S
C2438 C1261 1.073 . S
C2443 C1985 1.075 . S
C2448 C1340 1.075 . S
C2453 C2073 1.074 . S
C2458 C1437 1.075 . S
C2463 C1641 1.074 . S
C2468 C1525 1.074 . S
C2473 C49 1.530 . S
C2478 C1692 1.528 . S
C2483 C1789 1.529 . S
C2488 C137 1.529 . S
C2493 C233 1.529 . S
C2498 C1877 1.529 . S
C2503 C1965 1.528 . S
C2508 C321 1.530 . S
C2513 C381 1.530 . S
C2518 C2053 1.528 . S
C2523 C1604 1.529 . S
C2528 C489 1.529 . S
C2533 C548 1.528 . S
C2538 C1545 1.528 . S
C2543 C1113 1.528 . S
C2548 C645 1.530 . S
C2553 C724 1.529 . S
C2558 C1201 1.529 . S
C2563 C821 1.530 . S
C2568 C1281 1.528 . S
C2573 C900 1.530 . S
C2578 C1377 1.528 . S
C2583 C997 1.529 . S
C2588 C1457 1.529 . S
