# Generated by pormake.
# Topology ske, (6)-cn, num edge types: 1
# Building blocks:
#     Node 0, Type 0, BuildingBlock: PAMTOO_clean_sbu_0, # of connection points: 6
#     Node 1, Type 0, BuildingBlock: PAMTOO_clean_sbu_0, # of connection points: 6
#     Node 2, Type 0, BuildingBlock: PAMTOO_clean_sbu_0, # of connection points: 6
#     Node 3, Type 0, BuildingBlock: PAMTOO_clean_sbu_0, # of connection points: 6
#     Node 4, Type 0, BuildingBlock: PAMTOO_clean_sbu_0, # of connection points: 6
#     Node 5, Type 0, BuildingBlock: PAMTOO_clean_sbu_0, # of connection points: 6
#     Node 6, Type 0, BuildingBlock: PAMTOO_clean_sbu_0, # of connection points: 6
#     Node 7, Type 0, BuildingBlock: PAMTOO_clean_sbu_0, # of connection points: 6
#     Edge 8, Type (0, 0), BuildingBlock: TEMPAE_clean_linker_10, # of connection points: 2
#     Edge 9, Type (0, 0), BuildingBlock: TEMPAE_clean_linker_10, # of connection points: 2
#     Edge 10, Type (0, 0), BuildingBlock: TEMPAE_clean_linker_10, # of connection points: 2
#     Edge 11, Type (0, 0), BuildingBlock: TEMPAE_clean_linker_10, # of connection points: 2
#     Edge 12, Type (0, 0), BuildingBlock: TEMPAE_clean_linker_10, # of connection points: 2
#     Edge 13, Type (0, 0), BuildingBlock: TEMPAE_clean_linker_10, # of connection points: 2
#     Edge 14, Type (0, 0), BuildingBlock: TEMPAE_clean_linker_10, # of connection points: 2
#     Edge 15, Type (0, 0), BuildingBlock: TEMPAE_clean_linker_10, # of connection points: 2
#     Edge 16, Type (0, 0), BuildingBlock: TEMPAE_clean_linker_10, # of connection points: 2
#     Edge 17, Type (0, 0), BuildingBlock: TEMPAE_clean_linker_10, # of connection points: 2
#     Edge 18, Type (0, 0), BuildingBlock: TEMPAE_clean_linker_10, # of connection points: 2
#     Edge 19, Type (0, 0), BuildingBlock: TEMPAE_clean_linker_10, # of connection points: 2
#     Edge 20, Type (0, 0), BuildingBlock: TEMPAE_clean_linker_10, # of connection points: 2
#     Edge 21, Type (0, 0), BuildingBlock: TEMPAE_clean_linker_10, # of connection points: 2
#     Edge 22, Type (0, 0), BuildingBlock: TEMPAE_clean_linker_10, # of connection points: 2
#     Edge 23, Type (0, 0), BuildingBlock: TEMPAE_clean_linker_10, # of connection points: 2
#     Edge 24, Type (0, 0), BuildingBlock: TEMPAE_clean_linker_10, # of connection points: 2
#     Edge 25, Type (0, 0), BuildingBlock: TEMPAE_clean_linker_10, # of connection points: 2
#     Edge 26, Type (0, 0), BuildingBlock: TEMPAE_clean_linker_10, # of connection points: 2
#     Edge 27, Type (0, 0), BuildingBlock: TEMPAE_clean_linker_10, # of connection points: 2
#     Edge 28, Type (0, 0), BuildingBlock: TEMPAE_clean_linker_10, # of connection points: 2
#     Edge 29, Type (0, 0), BuildingBlock: TEMPAE_clean_linker_10, # of connection points: 2
#     Edge 30, Type (0, 0), BuildingBlock: TEMPAE_clean_linker_10, # of connection points: 2
#     Edge 31, Type (0, 0), BuildingBlock: TEMPAE_clean_linker_10, # of connection points: 2
# Relax obj value: 0.158
# Max RMSD: 0.180
# Mean RMSD: 0.173
data_MOF--net-ske--node1-PAMTOO_clean_sbu_0--edge1-TEMPAE_clean_linker_10
_symmetry_space_group_name_H-M    P1
_symmetry_Int_Tables_number       1
_symmetry_cell_setting            triclinic
loop_
_symmetry_equiv_pos_as_xyz
'x, y, z'
_cell_length_a     104.89113
_cell_length_b     30.669968
_cell_length_c     15.606174
_cell_angle_alpha  90.011256
_cell_angle_beta   89.983494
_cell_angle_gamma 90.05421
loop_
_atom_site_label
_atom_site_type_symbol
_atom_site_fract_x
_atom_site_fract_y
_atom_site_fract_z
_atom_type_partial_charge
Dy0 Dy 0.15715 0.24226 0.48175 0.0
Dy1 Dy 0.12548 0.23778 0.48743 0.0
C2 C 0.14204 0.1527 0.48308 0.0
O3 O 0.15131 0.22847 0.34695 0.0
O4 O 0.13004 0.24775 0.34843 0.0
O5 O 0.1755 0.21308 0.45527 0.0
O6 O 0.17432 0.28046 0.49726 0.0
O7 O 0.13215 0.30336 0.52866 0.0
O8 O 0.14918 0.30585 0.4395 0.0
O9 O 0.13229 0.22164 0.61947 0.0
O10 O 0.15185 0.2556 0.61827 0.0
O11 O 0.10752 0.27015 0.46592 0.0
O12 O 0.10795 0.20675 0.52863 0.0
C13 C 0.14061 0.23783 0.30703 0.0
O14 O 0.15131 0.17489 0.51946 0.0
O15 O 0.13236 0.17244 0.44652 0.0
C16 C 0.19395 0.2441 0.52066 0.0
C17 C 0.21803 0.23602 0.59995 0.0
C18 C 0.20739 0.21314 0.63216 0.0
C19 C 0.19542 0.21708 0.59261 0.0
C20 C 0.20445 0.26747 0.48974 0.0
C21 C 0.21635 0.26355 0.52885 0.0
C22 C 0.18177 0.2485 0.47463 0.0
C23 C 0.14048 0.32587 0.48468 0.0
C24 C 0.14215 0.23839 0.65951 0.0
C25 C 0.08799 0.22925 0.46802 0.0
C26 C 0.06169 0.22302 0.42893 0.0
C27 C 0.06996 0.24737 0.37624 0.0
C28 C 0.08298 0.25063 0.39579 0.0
C29 C 0.07987 0.2033 0.518 0.0
C30 C 0.0669 0.20024 0.49891 0.0
C31 C 0.10089 0.23886 0.50111 0.0
H32 H 0.20839 0.1916 0.68673 0.0
H33 H 0.18738 0.19885 0.61755 0.0
H34 H 0.20347 0.28869 0.4346 0.0
H35 H 0.22424 0.28234 0.50346 0.0
H36 H 0.06634 0.26482 0.3211 0.0
H37 H 0.08899 0.27115 0.35628 0.0
H38 H 0.08343 0.18709 0.57486 0.0
H39 H 0.06086 0.18178 0.54197 0.0
Dy40 Dy 0.86791 0.24568 0.47582 0.0
Dy41 Dy 0.9004 0.2403 0.47359 0.0
C42 C 0.88556 0.32928 0.48476 0.0
O43 O 0.87271 0.23453 0.33855 0.0
O44 O 0.89448 0.24734 0.33693 0.0
O45 O 0.85176 0.28625 0.50585 0.0
O46 O 0.84883 0.22289 0.44685 0.0
O47 O 0.89335 0.17238 0.45707 0.0
O48 O 0.8724 0.17623 0.50376 0.0
O49 O 0.89562 0.23653 0.61259 0.0
O50 O 0.87357 0.24508 0.61387 0.0
O51 O 0.91821 0.2063 0.49557 0.0
O52 O 0.91816 0.27187 0.43809 0.0
C53 C 0.88356 0.2402 0.29807 0.0
O54 O 0.8761 0.31066 0.44418 0.0
O55 O 0.89498 0.30669 0.51674 0.0
C56 C 0.83167 0.25261 0.53096 0.0
C57 C 0.80746 0.24732 0.61069 0.0
C58 C 0.81381 0.28753 0.60316 0.0
C59 C 0.82573 0.29012 0.56368 0.0
C60 C 0.82553 0.21213 0.54027 0.0
C61 C 0.81356 0.20951 0.57995 0.0
C62 C 0.84345 0.25756 0.47947 0.0
C63 C 0.8827 0.15415 0.48347 0.0
C64 C 0.88462 0.2401 0.65263 0.0
C65 C 0.93885 0.23708 0.45745 0.0
C66 C 0.96559 0.23536 0.43994 0.0
C67 C 0.95829 0.1981 0.42137 0.0
C68 C 0.94503 0.19883 0.43093 0.0
C69 C 0.9461 0.27445 0.47529 0.0
C70 C 0.95939 0.27345 0.46756 0.0
C71 C 0.92485 0.23841 0.46343 0.0
H72 H 0.80935 0.3174 0.62478 0.0
H73 H 0.83013 0.32187 0.5562 0.0
H74 H 0.8298 0.18263 0.51519 0.0
H75 H 0.80902 0.17792 0.58565 0.0
H76 H 0.96287 0.1683 0.40043 0.0
H77 H 0.93958 0.16973 0.41623 0.0
H78 H 0.9415 0.30433 0.4956 0.0
H79 H 0.96482 0.30262 0.48197 0.0
Dy80 Dy 0.15652 0.73605 0.53795 0.0
Dy81 Dy 0.12471 0.74033 0.53353 0.0
C82 C 0.14133 0.82551 0.5322 0.0
O83 O 0.15084 0.74984 0.67312 0.0
O84 O 0.12949 0.73102 0.67234 0.0
O85 O 0.17492 0.76507 0.56462 0.0
O86 O 0.17367 0.69847 0.51851 0.0
O87 O 0.13155 0.67512 0.49108 0.0
O88 O 0.14855 0.67247 0.58058 0.0
O89 O 0.13129 0.75575 0.4006 0.0
O90 O 0.15099 0.72259 0.40184 0.0
O91 O 0.1069 0.70677 0.55469 0.0
O92 O 0.10693 0.7712 0.49631 0.0
C93 C 0.14012 0.7408 0.71331 0.0
O94 O 0.15064 0.80286 0.49758 0.0
O95 O 0.13166 0.80631 0.57023 0.0
C96 C 0.19294 0.73675 0.48738 0.0
C97 C 0.2171 0.74552 0.40748 0.0
C98 C 0.21039 0.78248 0.43629 0.0
C99 C 0.19847 0.77816 0.47601 0.0
C100 C 0.19949 0.69999 0.45667 0.0
C101 C 0.21139 0.70429 0.41711 0.0
C102 C 0.18121 0.73065 0.53932 0.0
C103 C 0.1399 0.65256 0.53463 0.0
C104 C 0.14123 0.73941 0.36073 0.0
C105 C 0.08712 0.74629 0.5572 0.0
C106 C 0.06078 0.7496 0.59783 0.0
C107 C 0.06921 0.72382 0.64656 0.0
C108 C 0.08223 0.72204 0.62629 0.0
C109 C 0.07885 0.77362 0.51137 0.0
C110 C 0.06587 0.77529 0.53131 0.0
C111 C 0.10005 0.73827 0.52238 0.0
H112 H 0.21442 0.81479 0.42905 0.0
H113 H 0.19374 0.80716 0.49959 0.0
H114 H 0.19561 0.66757 0.46576 0.0
H115 H 0.21633 0.67501 0.39708 0.0
H116 H 0.06569 0.70411 0.69908 0.0
H117 H 0.08833 0.70039 0.66259 0.0
H118 H 0.08231 0.79208 0.45689 0.0
H119 H 0.05972 0.79504 0.4914 0.0
Dy120 Dy 0.86857 0.74292 0.54519 0.0
Dy121 Dy 0.90027 0.7414 0.54065 0.0
C122 C 0.88419 0.65514 0.54144 0.0
O123 O 0.87455 0.72671 0.67879 0.0
O124 O 0.89514 0.75319 0.67819 0.0
O125 O 0.85026 0.71183 0.56641 0.0
O126 O 0.85131 0.78051 0.53424 0.0
O127 O 0.89315 0.80599 0.49649 0.0
O128 O 0.87623 0.80729 0.58678 0.0
O129 O 0.8939 0.72618 0.40728 0.0
O130 O 0.87372 0.75566 0.40823 0.0
O131 O 0.91804 0.77526 0.5628 0.0
O132 O 0.91808 0.71105 0.50361 0.0
C133 C 0.88491 0.73949 0.71919 0.0
O134 O 0.87495 0.6768 0.50397 0.0
O135 O 0.89362 0.67528 0.58016 0.0
C136 C 0.83217 0.74349 0.49517 0.0
C137 C 0.8079 0.73975 0.4155 0.0
C138 C 0.81374 0.70162 0.44673 0.0
C139 C 0.82571 0.7035 0.48649 0.0
C140 C 0.82652 0.78128 0.46121 0.0
C141 C 0.81458 0.77941 0.42164 0.0
C142 C 0.84387 0.74717 0.54827 0.0
C143 C 0.88465 0.8279 0.54008 0.0
C144 C 0.88373 0.74054 0.36697 0.0
C145 C 0.93788 0.73582 0.56501 0.0
C146 C 0.96441 0.73109 0.59839 0.0
C147 C 0.95688 0.76359 0.63696 0.0
C148 C 0.94377 0.76605 0.62016 0.0
C149 C 0.94528 0.70188 0.53059 0.0
C150 C 0.95836 0.69947 0.54724 0.0
C151 C 0.92493 0.74392 0.5303 0.0
H152 H 0.80882 0.67059 0.44369 0.0
H153 H 0.8297 0.67386 0.51295 0.0
H154 H 0.83113 0.81272 0.46754 0.0
H155 H 0.81046 0.80928 0.39711 0.0
H156 H 0.96123 0.78863 0.67622 0.0
H157 H 0.93841 0.79298 0.64687 0.0
H158 H 0.94109 0.67838 0.48705 0.0
H159 H 0.96384 0.67361 0.51762 0.0
Dy160 Dy 0.65644 0.7326 0.05733 0.0
Dy161 Dy 0.62426 0.73023 0.05857 0.0
C162 C 0.64078 0.64433 0.05129 0.0
O163 O 0.65077 0.74259 0.92055 0.0
O164 O 0.62944 0.7221 0.92045 0.0
O165 O 0.67397 0.697 0.07053 0.0
O166 O 0.67457 0.76578 0.03884 0.0
O167 O 0.63037 0.79613 0.01353 0.0
O168 O 0.64933 0.79977 0.08669 0.0
O169 O 0.63008 0.74348 0.19386 0.0
O170 O 0.65124 0.72244 0.19462 0.0
O171 O 0.60602 0.75993 0.08782 0.0
O172 O 0.60693 0.69311 0.04084 0.0
C173 C 0.6401 0.73256 0.88077 0.0
O174 O 0.65016 0.66635 0.0169 0.0
O175 O 0.63134 0.66379 0.09053 0.0
C176 C 0.69291 0.73511 0.10963 0.0
C177 C 0.71739 0.73822 0.18669 0.0
C178 C 0.70988 0.70029 0.19164 0.0
C179 C 0.69782 0.69874 0.15355 0.0
C180 C 0.70023 0.77349 0.1069 0.0
C181 C 0.71229 0.77511 0.14533 0.0
C182 C 0.68119 0.73091 0.05693 0.0
C183 C 0.63986 0.81866 0.04605 0.0
C184 C 0.64066 0.73334 0.23442 0.0
C185 C 0.58664 0.72827 0.03243 0.0
C186 C 0.56054 0.73487 0.98741 0.0
C187 C 0.56906 0.7695 0.97063 0.0
C188 C 0.582 0.76633 0.99334 0.0
C189 C 0.57828 0.69337 0.04659 0.0
C190 C 0.56542 0.69662 0.02486 0.0
C191 C 0.59966 0.72474 0.06779 0.0
H192 H 0.71352 0.67106 0.22182 0.0
H193 H 0.69257 0.66833 0.15579 0.0
H194 H 0.69681 0.8019 0.0727 0.0
H195 H 0.71772 0.8051 0.14136 0.0
H196 H 0.56573 0.79929 0.94099 0.0
H197 H 0.58826 0.79382 0.98204 0.0
H198 H 0.58161 0.66392 0.07775 0.0
H199 H 0.55922 0.66959 0.0409 0.0
Dy200 Dy 0.36884 0.73707 0.05568 0.0
Dy201 Dy 0.40054 0.73203 0.05881 0.0
C202 C 0.38611 0.82168 0.04936 0.0
O203 O 0.37472 0.75016 0.92039 0.0
O204 O 0.39543 0.72436 0.92027 0.0
O205 O 0.35116 0.773 0.04044 0.0
O206 O 0.35084 0.70343 0.06429 0.0
O207 O 0.39273 0.66638 0.0909 0.0
O208 O 0.37495 0.67179 1.00821 0.0
O209 O 0.39414 0.74906 0.19137 0.0
O210 O 0.37396 0.7202 0.19066 0.0
O211 O 0.41813 0.69849 0.02881 0.0
O212 O 0.41841 0.75706 0.10724 0.0
C213 C 0.38512 0.73773 0.8798 0.0
O214 O 0.37658 0.80297 0.09003 0.0
O215 O 0.39524 0.79856 0.0142 0.0
C216 C 0.33237 0.74326 0.10726 0.0
C217 C 0.30801 0.74954 0.18557 0.0
C218 C 0.31446 0.78716 0.15717 0.0
C219 C 0.32646 0.78404 0.11815 0.0
C220 C 0.32608 0.70584 0.13788 0.0
C221 C 0.31409 0.70893 0.17659 0.0
C222 C 0.34407 0.7387 0.05436 0.0
C223 C 0.38365 0.64795 0.04596 0.0
C224 C 0.384 0.73472 0.23196 0.0
C225 C 0.43808 0.7372 0.03962 0.0
C226 C 0.4644 0.74534 1.00307 0.0
C227 C 0.45639 0.72116 0.94852 0.0
C228 C 0.44335 0.71687 0.96692 0.0
C229 C 0.44598 0.76327 0.09114 0.0
C230 C 0.45897 0.76732 0.07311 0.0
C231 C 0.42513 0.72634 0.0712 0.0
H232 H 0.31015 0.81904 0.16396 0.0
H233 H 0.33094 0.81347 0.09434 0.0
H234 H 0.33022 0.67379 0.12913 0.0
H235 H 0.30938 0.67915 0.19628 0.0
H236 H 0.46033 0.70371 0.89427 0.0
H237 H 0.43755 0.69616 0.92642 0.0
H238 H 0.44224 0.77893 0.14807 0.0
H239 H 0.46487 0.78662 0.11569 0.0
Dy240 Dy 0.65579 0.23348 0.96068 0.0
Dy241 Dy 0.62402 0.22971 0.95839 0.0
C242 C 0.63903 0.31865 0.9692 0.0
O243 O 0.64976 0.24709 0.09548 0.0
O244 O 0.62943 0.2182 0.09531 0.0
O245 O 0.67353 0.2694 0.97377 0.0
O246 O 0.67372 0.19931 0.95745 0.0
O247 O 0.63118 0.16371 0.92351 0.0
O248 O 0.64967 0.16684 1.00049 0.0
O249 O 0.63022 0.24478 0.82442 0.0
O250 O 0.6508 0.21891 0.8246 0.0
O251 O 0.60641 0.19531 0.98381 0.0
O252 O 0.60608 0.25806 0.91935 0.0
C253 C 0.63958 0.23275 0.13591 0.0
O254 O 0.64832 0.29961 0.92693 0.0
O255 O 0.62983 0.29573 1.00428 0.0
C256 C 0.69235 0.23741 0.91208 0.0
C257 C 0.71689 0.24112 0.83653 0.0
C258 C 0.71024 0.27966 0.85641 0.0
C259 C 0.69812 0.27782 0.89419 0.0
C260 C 0.69883 0.199 0.8893 0.0
C261 C 0.71091 0.20084 0.85176 0.0
C262 C 0.68055 0.23464 0.96428 0.0
C263 C 0.64057 0.14436 0.96366 0.0
C264 C 0.64053 0.23191 0.78367 0.0
C265 C 0.58669 0.23501 0.98824 0.0
C266 C 0.56052 0.24536 0.02853 0.0
C267 C 0.56695 0.20655 0.04918 0.0
C268 C 0.57987 0.2014 0.029 0.0
C269 C 0.58043 0.27467 0.97176 0.0
C270 C 0.56752 0.27982 0.99193 0.0
C271 C 0.59935 0.22577 0.9499 0.0
H272 H 0.71461 0.31122 0.8461 0.0
H273 H 0.69349 0.30803 0.91207 0.0
H274 H 0.69475 0.1673 0.90307 0.0
H275 H 0.71567 0.17056 0.83602 0.0
H276 H 0.56185 0.17916 0.07653 0.0
H277 H 0.58433 0.17017 0.04127 0.0
H278 H 0.58534 0.3011 0.93964 0.0
H279 H 0.5629 0.31038 0.97634 0.0
Dy280 Dy 0.36852 0.23287 0.96998 0.0
Dy281 Dy 0.40037 0.23604 0.96735 0.0
C282 C 0.38505 0.14777 0.97986 0.0
O283 O 0.37419 0.24537 0.10596 0.0
O284 O 0.39559 0.22704 0.10595 0.0
O285 O 0.35126 0.1958 0.9535 0.0
O286 O 0.35016 0.26363 0.99224 0.0
O287 O 0.3935 0.30116 1.0107 0.0
O288 O 0.37464 0.30065 0.93603 0.0
O289 O 0.39378 0.25208 0.83476 0.0
O290 O 0.37429 0.21778 0.83518 0.0
O291 O 0.41819 0.26908 0.93845 0.0
O292 O 0.41815 0.20143 0.97922 0.0
C293 C 0.38491 0.23658 0.14647 0.0
O294 O 0.37563 0.16883 0.01591 0.0
O295 O 0.39397 0.16834 0.93718 0.0
C296 C 0.33193 0.2334 0.9208 0.0
C297 C 0.30736 0.23474 0.8455 0.0
C298 C 0.31656 0.2043 0.81853 0.0
C299 C 0.3287 0.20359 0.85577 0.0
C300 C 0.32291 0.26474 0.94563 0.0
C301 C 0.31078 0.26553 0.90827 0.0
C302 C 0.34381 0.22859 0.97129 0.0
C303 C 0.38385 0.32163 0.97545 0.0
C304 C 0.384 0.23507 0.79425 0.0
C305 C 0.43779 0.24037 0.99657 0.0
C306 C 0.46408 0.24449 0.03749 0.0
C307 C 0.45765 0.2815 1.0065 0.0
C308 C 0.44466 0.27939 0.98583 0.0
C309 C 0.44407 0.20416 0.03229 0.0
C310 C 0.45704 0.20623 0.05263 0.0
C311 C 0.42506 0.23483 0.95648 0.0
H312 H 0.31431 0.18056 0.76939 0.0
H313 H 0.33539 0.1788 0.83537 0.0
H314 H 0.32506 0.28767 0.99645 0.0
H315 H 0.30391 0.28915 0.9312 0.0
H316 H 0.4628 0.31139 0.99346 0.0
H317 H 0.44018 0.30767 0.95722 0.0
H318 H 0.43914 0.17341 0.04056 0.0
H319 H 0.46167 0.17733 0.07752 0.0
C320 C 0.23257 0.2321 0.72824 0.0
C321 C 0.23093 0.23145 0.63901 0.0
C322 C 0.24483 0.23101 0.76483 0.0
C323 C 0.2557 0.22916 0.71091 0.0
C324 C 0.25407 0.22725 0.62098 0.0
C325 C 0.24173 0.2283 0.58626 0.0
C326 C 0.24617 0.23293 0.86104 0.0
C327 C 0.26537 0.22497 0.56118 0.0
C328 C 0.2876 0.27199 0.79117 0.0
C329 C 0.29411 0.23333 0.81091 0.0
C330 C 0.27504 0.2711 0.7599 0.0
C331 C 0.26881 0.23056 0.74791 0.0
C332 C 0.27529 0.19142 0.76817 0.0
C333 C 0.28784 0.19328 0.79937 0.0
C334 C 0.26849 0.31356 0.73868 0.0
C335 C 0.26897 0.14756 0.75654 0.0
H336 H 0.22428 0.2348 0.76942 0.0
H337 H 0.24055 0.22691 0.51731 0.0
H338 H 0.25199 0.20511 0.8841 0.0
H339 H 0.25125 0.26325 0.87961 0.0
H340 H 0.2368 0.2322 0.89416 0.0
H341 H 0.26247 0.22254 0.49289 0.0
H342 H 0.27139 0.25447 0.56917 0.0
H343 H 0.27137 0.19635 0.57721 0.0
H344 H 0.2924 0.30305 0.79908 0.0
H345 H 0.29271 0.16327 0.81589 0.0
H346 H 0.2594 0.31616 0.77463 0.0
H347 H 0.26611 0.31449 0.66943 0.0
H348 H 0.27449 0.34237 0.75416 0.0
H349 H 0.26 0.14618 0.79415 0.0
H350 H 0.27521 0.1202 0.77686 0.0
H351 H 0.26638 0.14278 0.68825 0.0
C352 C 0.73942 0.21386 0.83668 0.0
C353 C 0.73023 0.24264 0.8039 0.0
C354 C 0.75205 0.2145 0.80688 0.0
C355 C 0.75563 0.24471 0.74267 0.0
C356 C 0.74645 0.27414 0.70976 0.0
C357 C 0.73387 0.27279 0.74084 0.0
C358 C 0.76156 0.18277 0.84405 0.0
C359 C 0.7499 0.30684 0.64127 0.0
C360 C 0.79089 0.27131 0.7173 0.0
C361 C 0.7943 0.24542 0.6467 0.0
C362 C 0.77834 0.27158 0.74894 0.0
C363 C 0.76896 0.24511 0.70946 0.0
C364 C 0.77236 0.21855 0.63882 0.0
C365 C 0.78496 0.21909 0.60823 0.0
C366 C 0.77512 0.30029 0.8245 0.0
C367 C 0.76265 0.18979 0.59508 0.0
H368 H 0.73677 0.19102 0.88661 0.0
H369 H 0.72681 0.29494 0.71482 0.0
H370 H 0.76546 0.16173 0.79251 0.0
H371 H 0.7697 0.20077 0.87255 0.0
H372 H 0.75728 0.16159 0.89415 0.0
H373 H 0.74172 0.32795 0.62344 0.0
H374 H 0.75784 0.32788 0.66373 0.0
H375 H 0.75328 0.28959 0.58305 0.0
H376 H 0.79805 0.29136 0.74816 0.0
H377 H 0.78742 0.19954 0.55282 0.0
H378 H 0.77151 0.28007 0.87824 0.0
H379 H 0.76741 0.32334 0.80683 0.0
H380 H 0.78347 0.31934 0.84732 0.0
H381 H 0.75851 0.16655 0.64193 0.0
H382 H 0.76682 0.17094 0.54115 0.0
H383 H 0.75471 0.20996 0.57003 0.0
C384 C 0.28574 0.78027 0.18363 0.0
C385 C 0.29476 0.7521 0.22052 0.0
C386 C 0.27306 0.78133 0.21283 0.0
C387 C 0.26922 0.75333 0.28023 0.0
C388 C 0.27828 0.72517 0.31839 0.0
C389 C 0.29092 0.72504 0.28843 0.0
C390 C 0.26371 0.81195 0.17061 0.0
C391 C 0.27458 0.69471 0.39026 0.0
C392 C 0.23913 0.77824 0.40804 0.0
C393 C 0.23025 0.74944 0.37138 0.0
C394 C 0.25176 0.78039 0.37809 0.0
C395 C 0.25568 0.75293 0.31007 0.0
C396 C 0.24673 0.7243 0.27185 0.0
C397 C 0.23415 0.72302 0.30269 0.0
C398 C 0.26099 0.81149 0.42039 0.0
C399 C 0.25051 0.69445 0.1992 0.0
H400 H 0.2885 0.80082 0.13029 0.0
H401 H 0.29782 0.70362 0.31831 0.0
H402 H 0.25592 0.79297 0.14018 0.0
H403 H 0.25927 0.83343 0.21942 0.0
H404 H 0.26828 0.83267 0.12096 0.0
H405 H 0.28277 0.675 0.41343 0.0
H406 H 0.27068 0.71362 0.4449 0.0
H407 H 0.26696 0.67222 0.36829 0.0
H408 H 0.23631 0.79835 0.4619 0.0
H409 H 0.22734 0.70113 0.27301 0.0
H410 H 0.26533 0.83325 0.37167 0.0
H411 H 0.26885 0.7929 0.45073 0.0
H412 H 0.25633 0.83191 0.47015 0.0
H413 H 0.25437 0.71382 0.14507 0.0
H414 H 0.24238 0.6746 0.17551 0.0
H415 H 0.25818 0.67209 0.22067 0.0
C416 C 0.74054 0.75908 0.17524 0.0
C417 C 0.73069 0.73848 0.22094 0.0
C418 C 0.75316 0.75867 0.20533 0.0
C419 C 0.75609 0.73689 0.28286 0.0
C420 C 0.74623 0.71582 0.32912 0.0
C421 C 0.73367 0.717 0.29784 0.0
C422 C 0.76338 0.78158 0.15412 0.0
C423 C 0.74896 0.69219 0.41199 0.0
C424 C 0.79064 0.70511 0.32608 0.0
C425 C 0.79466 0.73877 0.38071 0.0
C426 C 0.77811 0.70399 0.29378 0.0
C427 C 0.76939 0.73727 0.31677 0.0
C428 C 0.77339 0.7712 0.37211 0.0
C429 C 0.78594 0.77151 0.40339 0.0
C430 C 0.77423 0.66728 0.23486 0.0
C431 C 0.76439 0.80721 0.39849 0.0
H432 H 0.73842 0.77503 0.11495 0.0
H433 H 0.72614 0.70137 0.33419 0.0
H434 H 0.76788 0.80745 0.19362 0.0
H435 H 0.77099 0.75817 0.13633 0.0
H436 H 0.75958 0.79666 0.09468 0.0
H437 H 0.74032 0.67632 0.43896 0.0
H438 H 0.75635 0.66689 0.40152 0.0
H439 H 0.75278 0.71542 0.46007 0.0
H440 H 0.79733 0.67988 0.30771 0.0
H441 H 0.78887 0.79719 0.44685 0.0
H442 H 0.77117 0.68065 0.1721 0.0
H443 H 0.76596 0.64954 0.26231 0.0
H444 H 0.78209 0.64368 0.22385 0.0
H445 H 0.76087 0.82464 0.34091 0.0
H446 H 0.76898 0.83124 0.44193 0.0
H447 H 0.75597 0.79318 0.43147 0.0
C448 C 0.1499 0.89386 0.46732 0.0
C449 C 0.14145 0.87348 0.52429 0.0
C450 C 0.14999 0.93928 0.45777 0.0
C451 C 0.14151 0.96488 0.50711 0.0
C452 C 0.13295 0.94455 0.56471 0.0
C453 C 0.13297 0.89901 0.57234 0.0
C454 C 0.15914 0.95986 0.3949 0.0
C455 C 0.12383 0.97094 0.61872 0.0
C456 C 0.15021 0.08321 0.54519 0.0
C457 C 0.14214 0.10464 0.48734 0.0
C458 C 0.15007 0.03767 0.55236 0.0
C459 C 0.14178 0.01305 0.49965 0.0
C460 C 0.13375 0.03442 0.44022 0.0
C461 C 0.13397 0.08005 0.43513 0.0
C462 C 0.15869 0.01594 0.61704 0.0
C463 C 0.1249 0.0091 0.38225 0.0
H464 H 0.1564 0.8743 0.42935 0.0
H465 H 0.12642 0.88345 0.61654 0.0
H466 H 0.15382 0.97977 0.34761 0.0
H467 H 0.16575 0.98212 0.42917 0.0
H468 H 0.16488 0.93521 0.35976 0.0
H469 H 0.11772 0.95009 0.66003 0.0
H470 H 0.12924 -0.00623 0.6602 0.0
H471 H 0.11759 -0.00907 0.57694 0.0
H472 H 0.15649 0.10205 0.58611 0.0
H473 H 0.12776 0.09645 0.38996 0.0
H474 H 0.16515 -0.00734 0.58428 0.0
H475 H 0.15289 -0.00306 0.66336 0.0
H476 H 0.16457 0.03982 0.65318 0.0
H477 H 0.13043 0.98538 0.34352 0.0
H478 H 0.11948 0.03063 0.33811 0.0
H479 H 0.11801 -0.00986 0.42128 0.0
C480 C 0.87416 0.39783 0.51902 0.0
C481 C 0.88546 0.37676 0.49554 0.0
C482 C 0.8739 0.44307 0.53134 0.0
C483 C 0.88509 0.46774 0.51632 0.0
C484 C 0.89651 0.44649 0.49177 0.0
C485 C 0.89662 0.40097 0.48335 0.0
C486 C 0.86168 0.4644 0.56065 0.0
C487 C 0.90852 0.4719 0.47253 0.0
C488 C 0.88041 0.58681 0.46027 0.0
C489 C 0.8843 0.60736 0.53596 0.0
C490 C 0.88081 0.54132 0.45264 0.0
C491 C 0.88475 0.51593 0.52358 0.0
C492 C 0.8884 0.53659 0.60097 0.0
C493 C 0.88836 0.58227 0.60568 0.0
C494 C 0.87721 0.52051 0.36832 0.0
C495 C 0.8922 0.51046 0.67887 0.0
H496 H 0.86559 0.37874 0.52951 0.0
H497 H 0.90532 0.38439 0.4649 0.0
H498 H 0.86347 0.48416 0.61902 0.0
H499 H 0.85813 0.48689 0.51044 0.0
H500 H 0.85409 0.44017 0.57499 0.0
H501 H 0.91652 0.45043 0.45283 0.0
H502 H 0.90666 0.49567 0.42041 0.0
H503 H 0.9115 0.49078 0.52972 0.0
H504 H 0.87738 0.60643 0.40619 0.0
H505 H 0.89125 0.59838 0.66442 0.0
H506 H 0.86889 0.49862 0.37724 0.0
H507 H 0.88521 0.50019 0.34449 0.0
H508 H 0.87478 0.54505 0.31857 0.0
H509 H 0.8845 0.48715 0.69578 0.0
H510 H 0.89417 0.5315 0.7353 0.0
H511 H 0.90085 0.49101 0.66469 0.0
C512 C 0.87862 0.90073 0.59832 0.0
C513 C 0.88412 0.87572 0.53294 0.0
C514 C 0.87811 0.94631 0.59208 0.0
C515 C 0.88291 0.96705 0.51773 0.0
C516 C 0.88828 0.94181 0.45092 0.0
C517 C 0.88897 0.89642 0.45985 0.0
C518 C 0.87261 0.9723 0.66552 0.0
C519 C 0.89326 0.96273 0.36992 0.0
C520 C 0.8718 0.08222 0.46953 0.0
C521 C 0.88256 0.10649 0.49296 0.0
C522 C 0.87181 0.0366 0.47653 0.0
C523 C 0.88265 0.01525 0.51059 0.0
C524 C 0.8934 0.0399 0.53644 0.0
C525 C 0.89329 0.08523 0.52591 0.0
C526 C 0.86034 0.0112 0.44603 0.0
C527 C 0.90498 0.01841 0.5754 0.0
H528 H 0.87493 0.8847 0.65507 0.0
H529 H 0.8931 0.87704 0.40881 0.0
H530 H 0.87989 -0.00461 0.69028 0.0
H531 H 0.86441 -0.00801 0.643 0.0
H532 H 0.86937 0.95117 0.71909 0.0
H533 H 0.89656 0.93826 0.32236 0.0
H534 H 0.8857 0.98294 0.34008 0.0
H535 H 0.90134 0.98473 0.38532 0.0
H536 H 0.86354 0.09884 0.44364 0.0
H537 H 0.90155 0.10423 0.54497 0.0
H538 H 0.85629 -0.00819 0.49952 0.0
H539 H 0.86324 0.98786 0.39531 0.0
H540 H 0.85275 0.03272 0.42005 0.0
H541 H 0.90213 -0.00138 0.63178 0.0
H542 H 0.91227 0.04251 0.59598 0.0
H543 H 0.90939 -0.00409 0.52835 0.0
C544 C 0.14694 0.57944 0.58602 0.0
C545 C 0.14011 0.60472 0.52701 0.0
C546 C 0.14723 0.5339 0.57892 0.0
C547 C 0.14066 0.51345 0.51062 0.0
C548 C 0.1339 0.53886 0.45026 0.0
C549 C 0.13363 0.58424 0.45954 0.0
C550 C 0.15445 0.50766 0.64483 0.0
C551 C 0.12693 0.51811 0.37601 0.0
C552 C 0.15 0.39833 0.4493 0.0
C553 C 0.14042 0.37389 0.48966 0.0
C554 C 0.15022 0.4439 0.45565 0.0
C555 C 0.14062 0.46534 0.50332 0.0
C556 C 0.13089 0.4409 0.54376 0.0
C557 C 0.13091 0.39541 0.53644 0.0
C558 C 0.16073 0.46908 0.41166 0.0
C559 C 0.12048 0.4628 0.595 0.0
H560 H 0.15194 0.5952 0.63835 0.0
H561 H 0.12846 0.60373 0.41323 0.0
H562 H 0.14784 0.48509 0.67825 0.0
H563 H 0.16181 0.4874 0.61294 0.0
H564 H 0.15918 0.52863 0.69341 0.0
H565 H 0.12242 0.54266 0.33334 0.0
H566 H 0.13362 0.49812 0.33746 0.0
H567 H 0.1194 0.4959 0.40037 0.0
H568 H 0.1574 0.38188 0.41318 0.0
H569 H 0.12347 0.37673 0.56771 0.0
H570 H 0.16622 0.48809 0.45961 0.0
H571 H 0.15658 0.49273 0.36571 0.0
H572 H 0.16742 0.44744 0.37651 0.0
H573 H 0.12474 0.48202 0.64804 0.0
H574 H 0.11363 0.43901 0.62261 0.0
H575 H 0.11515 0.4859 0.55371 0.0
C576 C 0.62982 0.57652 1.00538 0.0
C577 C 0.6405 0.59672 0.04153 0.0
C578 C 0.62962 0.53131 0.99151 0.0
C579 C 0.64015 0.5057 0.01777 0.0
C580 C 0.65085 0.52606 0.05627 0.0
C581 C 0.651 0.57159 0.06596 0.0
C582 C 0.61824 0.51107 0.94752 0.0
C583 C 0.66206 0.49976 0.08793 0.0
C584 C 0.63372 0.38517 0.05386 0.0
C585 C 0.63923 0.36645 0.98075 0.0
C586 C 0.63417 0.43038 0.06747 0.0
C587 C 0.63993 0.4576 1.00522 0.0
C588 C 0.64537 0.43888 0.9307 0.0
C589 C 0.64512 0.3934 0.91997 0.0
C590 C 0.6286 0.44896 0.1489 0.0
C591 C 0.6513 0.46691 0.86185 0.0
H592 H 0.62177 0.59632 0.98567 0.0
H593 H 0.65923 0.58751 0.09418 0.0
H594 H 0.62139 0.49307 0.88957 0.0
H595 H 0.61359 0.48715 0.99069 0.0
H596 H 0.61105 0.53578 0.92817 0.0
H597 H 0.66937 0.52041 0.11967 0.0
H598 H 0.65875 0.4747 0.13418 0.0
H599 H 0.66659 0.48233 0.03368 0.0
H600 H 0.62931 0.36433 0.10152 0.0
H601 H 0.64934 0.37898 0.86324 0.0
H602 H 0.62064 0.47138 0.13339 0.0
H603 H 0.63594 0.46829 0.18335 0.0
H604 H 0.62497 0.42317 0.19256 0.0
H605 H 0.64421 0.49081 0.83791 0.0
H606 H 0.65484 0.44735 0.80684 0.0
H607 H 0.65939 0.48577 0.88871 0.0
C608 C 0.38189 0.89628 0.10674 0.0
C609 C 0.3864 0.86952 0.04067 0.0
C610 C 0.38216 0.94188 0.0987 0.0
C611 C 0.38659 0.96091 0.02149 0.0
C612 C 0.39104 0.93388 0.95431 0.0
C613 C 0.39109 0.88848 0.96533 0.0
C614 C 0.37773 0.96968 0.17279 0.0
C615 C 0.39546 0.95282 0.87006 0.0
C616 C 0.37473 0.07503 0.97163 0.0
C617 C 0.38559 0.10012 0.98815 0.0
C618 C 0.37501 0.02953 0.98044 0.0
C619 C 0.38628 0.00904 1.01006 0.0
C620 C 0.39723 0.03453 0.02823 0.0
C621 C 0.39683 0.07981 0.01528 0.0
C622 C 0.3633 0.00339 0.95739 0.0
C623 C 0.40926 0.01409 0.06287 0.0
H624 H 0.37836 0.88154 0.16529 0.0
H625 H 0.39447 0.8677 0.91391 0.0
H626 H 0.38525 -0.00646 0.1903 0.0
H627 H 0.36917 -0.01143 0.15391 0.0
H628 H 0.37534 0.94991 0.23024 0.0
H629 H 0.39844 0.92724 0.82381 0.0
H630 H 0.38767 0.97224 0.84084 0.0
H631 H 0.40361 0.97524 0.8807 0.0
H632 H 0.36607 0.09102 0.95029 0.0
H633 H 0.40516 0.09956 0.02896 0.0
H634 H 0.35965 0.98608 0.01477 0.0
H635 H 0.36576 0.97824 0.90901 0.0
H636 H 0.35554 0.02413 0.9313 0.0
H637 H 0.4071 -0.00391 0.12284 0.0
H638 H 0.41677 0.03869 0.0765 0.0
H639 H 0.41308 -0.00988 0.01631 0.0
C640 C 0.38677 0.39574 0.91442 0.0
C641 C 0.38318 0.36918 0.98309 0.0
C642 C 0.38677 0.44135 0.9228 0.0
C643 C 0.38288 0.46046 1.00129 0.0
C644 C 0.37899 0.43343 0.07016 0.0
C645 C 0.37932 0.38797 0.06044 0.0
C646 C 0.39114 0.46903 0.84838 0.0
C647 C 0.3746 0.45254 0.15431 0.0
C648 C 0.39406 0.5748 0.0577 0.0
C649 C 0.38341 0.59998 0.03537 0.0
C650 C 0.39405 0.52941 0.04609 0.0
C651 C 0.3831 0.50865 0.01216 0.0
C652 C 0.3723 0.53386 0.98992 0.0
C653 C 0.37261 0.57925 1.00133 0.0
C654 C 0.40583 0.50372 0.06931 0.0
C655 C 0.36038 0.51286 0.95464 0.0
H656 H 0.3898 0.38077 0.85486 0.0
H657 H 0.37656 0.36701 0.11327 0.0
H658 H 0.38354 0.49231 0.8299 0.0
H659 H 0.39958 0.48857 0.86756 0.0
H660 H 0.3937 0.44911 0.79145 0.0
H661 H 0.37139 0.42708 0.20015 0.0
H662 H 0.38248 0.4713 0.18417 0.0
H663 H 0.36662 0.4756 0.14324 0.0
H664 H 0.40248 0.59061 0.08329 0.0
H665 H 0.36433 0.59847 0.98412 0.0
H666 H 0.40976 0.48789 1.01107 0.0
H667 H 0.40339 0.47741 0.11526 0.0
H668 H 0.41337 0.52452 0.09817 0.0
H669 H 0.36263 0.49486 0.89487 0.0
H670 H 0.35279 0.53707 0.94055 0.0
H671 H 0.3566 0.48878 1.00128 0.0
C672 C 0.62916 0.07442 0.98962 0.0
C673 C 0.64054 0.09652 0.97179 0.0
C674 C 0.62908 0.02913 1.00263 0.0
C675 C 0.64058 0.00529 0.9942 0.0
C676 C 0.65204 0.02747 0.97371 0.0
C677 C 0.65192 0.07303 0.96453 0.0
C678 C 0.61675 0.00694 0.02723 0.0
C679 C 0.6644 0.00309 0.96101 0.0
C680 C 0.64358 0.89411 0.10033 0.0
C681 C 0.64013 0.86622 0.03321 0.0
C682 C 0.6436 0.93955 0.08888 0.0
C683 C 0.64061 0.95721 1.00738 0.0
C684 C 0.63747 0.92891 0.93879 0.0
C685 C 0.63702 0.88375 0.95307 0.0
C686 C 0.64657 0.96867 0.16431 0.0
C687 C 0.63471 0.94628 0.85019 0.0
H688 H 0.62039 0.0928 0.99619 0.0
H689 H 0.6607 0.09026 0.95025 0.0
H690 H 0.61415 0.98226 0.97835 0.0
H691 H 0.61798 -0.01051 0.08898 0.0
H692 H 0.60874 0.03037 0.03379 0.0
H693 H 0.67229 0.02491 0.94054 0.0
H694 H 0.66721 0.98675 0.02146 0.0
H695 H 0.66312 0.97726 0.91192 0.0
H696 H 0.64593 0.88039 0.16237 0.0
H697 H 0.63451 0.86198 0.90093 0.0
H698 H 0.63852 -0.00858 0.17566 0.0
H699 H 0.65512 -0.01121 0.15044 0.0
H700 H 0.64833 0.94983 0.22393 0.0
H701 H 0.62608 0.96711 0.85165 0.0
H702 H 0.63318 0.91975 0.80277 0.0
H703 H 0.64275 0.96697 0.82803 0.0
C704 C 0.12944 0.24572 0.16513 0.0
C705 C 0.14063 0.23752 0.21168 0.0
C706 C 0.12949 0.24605 0.07498 0.0
C707 C 0.14099 0.23794 0.03019 0.0
C708 C 0.1523 0.22952 0.0767 0.0
C709 C 0.15199 0.22945 0.16663 0.0
C710 C 0.11723 0.2553 0.02762 0.0
C711 C 0.16476 0.22051 0.03142 0.0
C712 C 0.13887 0.20008 0.79839 0.0
C713 C 0.14216 0.2381 0.7539 0.0
C714 C 0.13862 0.1994 0.88837 0.0
C715 C 0.14125 0.23815 0.93463 0.0
C716 C 0.14435 0.27686 0.88956 0.0
C717 C 0.145 0.27615 0.79961 0.0
C718 C 0.13568 0.15714 0.93391 0.0
C719 C 0.14685 0.31911 0.9363 0.0
H720 H 0.12061 0.25198 0.19906 0.0
H721 H 0.16072 0.22316 0.20158 0.0
H722 H 0.11848 0.28415 0.98554 0.0
H723 H 0.11476 0.2273 0.98578 0.0
H724 H 0.10913 0.26147 0.07179 0.0
H725 H 0.17267 0.21391 0.0769 0.0
H726 H 0.16368 0.19201 0.98822 0.0
H727 H 0.16744 0.24882 0.99098 0.0
H728 H 0.13672 0.17065 0.76266 0.0
H729 H 0.14737 0.30566 0.7648 0.0
H730 H 0.12707 0.16099 0.9744 0.0
H731 H 0.14369 0.1484 0.97709 0.0
H732 H 0.13408 0.12976 0.88855 0.0
H733 H 0.13859 0.32732 0.97771 0.0
H734 H 0.14859 0.34671 0.89168 0.0
H735 H 0.15527 0.31552 0.9787 0.0
C736 C 0.89272 0.21445 0.15989 0.0
C737 C 0.88354 0.23897 0.20371 0.0
C738 C 0.89286 0.21298 0.06996 0.0
C739 C 0.88396 0.23814 0.023 0.0
C740 C 0.87478 0.2635 0.06731 0.0
C741 C 0.87453 0.26289 0.15731 0.0
C742 C 0.90248 0.18427 0.02526 0.0
C743 C 0.86542 0.29195 0.01971 0.0
C744 C 0.89277 0.26649 0.79317 0.0
C745 C 0.88465 0.23896 0.7469 0.0
C746 C 0.8925 0.26708 0.88316 0.0
C747 C 0.88428 0.23815 0.92756 0.0
C748 C 0.87631 0.20942 0.88068 0.0
C749 C 0.8764 0.21085 0.79073 0.0
C750 C 0.90081 0.29924 0.93062 0.0
C751 C 0.86777 0.17697 0.92548 0.0
H752 H 0.89963 0.19573 0.19615 0.0
H753 H 0.86751 0.28215 0.19155 0.0
H754 H 0.89753 0.1616 0.98089 0.0
H755 H 0.90903 0.20451 0.98616 0.0
H756 H 0.90824 0.16484 0.07115 0.0
H757 H 0.85921 0.31087 0.06376 0.0
H758 H 0.87064 0.31509 0.97775 0.0
H759 H 0.85929 0.27164 0.97776 0.0
H760 H 0.89906 0.28847 0.75882 0.0
H761 H 0.8702 0.18937 0.75449 0.0
H762 H 0.90761 0.28165 0.97256 0.0
H763 H 0.89483 0.32009 0.97258 0.0
H764 H 0.90631 0.32055 0.88649 0.0
H765 H 0.87348 0.15659 0.96997 0.0
H766 H 0.86274 0.15521 0.87967 0.0
H767 H 0.86055 0.19437 0.96448 0.0
C768 C 0.14292 0.70089 0.22083 0.0
C769 C 0.1413 0.73975 0.26647 0.0
C770 C 0.1424 0.7005 0.13084 0.0
C771 C 0.14068 0.74019 0.08576 0.0
C772 C 0.1393 0.77967 0.13207 0.0
C773 C 0.13938 0.77882 0.22207 0.0
C774 C 0.14356 0.65759 0.08407 0.0
C775 C 0.13785 0.82282 0.0866 0.0
C776 C 0.1517 0.745 0.85373 0.0
C777 C 0.14016 0.74105 0.80867 0.0
C778 C 0.152 0.74472 0.9437 0.0
C779 C 0.14048 0.74051 0.99018 0.0
C780 C 0.12879 0.73666 0.94533 0.0
C781 C 0.12877 0.7369 0.85519 0.0
C782 C 0.16466 0.74895 0.98906 0.0
C783 C 0.1163 0.73211 0.99262 0.0
H784 H 0.14426 0.67065 0.25571 0.0
H785 H 0.13817 0.80884 0.25791 0.0
H786 H 0.13511 0.6525 0.04246 0.0
H787 H 0.15207 0.65807 0.04186 0.0
H788 H 0.14438 0.6295 0.12867 0.0
H789 H 0.13712 0.85061 0.13201 0.0
H790 H 0.14613 0.82843 0.04375 0.0
H791 H 0.12919 0.82234 0.04577 0.0
H792 H 0.16059 0.74802 0.81873 0.0
H793 H 0.1198 0.73394 0.82124 0.0
H794 H 0.16638 0.7198 0.02949 0.0
H795 H 0.16452 0.77767 0.0323 0.0
H796 H 0.17275 0.75252 0.94364 0.0
H797 H 0.11657 0.70293 0.03459 0.0
H798 H 0.10804 0.72913 0.94842 0.0
H799 H 0.11477 0.76084 0.03457 0.0
C800 C 0.87634 0.71205 0.85887 0.0
C801 C 0.88491 0.73889 0.81418 0.0
C802 C 0.87606 0.71157 0.94884 0.0
C803 C 0.88437 0.73921 0.99536 0.0
C804 C 0.893 0.76654 0.95063 0.0
C805 C 0.89325 0.76573 0.86059 0.0
C806 C 0.8669 0.68133 0.99413 0.0
C807 C 0.90188 0.79695 0.99789 0.0
C808 C 0.87544 0.76685 0.22552 0.0
C809 C 0.88367 0.73972 0.27202 0.0
C810 C 0.87563 0.76728 0.13547 0.0
C811 C 0.88409 0.73932 0.09086 0.0
C812 C 0.89228 0.7114 0.13752 0.0
C813 C 0.89205 0.71221 0.22746 0.0
C814 C 0.86687 0.79797 0.08805 0.0
C815 C 0.90127 0.68054 0.09244 0.0
H816 H 0.86993 0.69099 0.82346 0.0
H817 H 0.89982 0.7868 0.82648 0.0
H818 H 0.87223 0.65913 0.03731 0.0
H819 H 0.86025 0.70045 0.03461 0.0
H820 H 0.86122 0.66133 0.94864 0.0
H821 H 0.9078 0.81684 0.95366 0.0
H822 H 0.89629 0.81924 0.03945 0.0
H823 H 0.9083 0.77796 0.04023 0.0
H824 H 0.869 0.78841 0.25954 0.0
H825 H 0.89837 0.69089 0.26293 0.0
H826 H 0.86037 0.77917 0.04589 0.0
H827 H 0.87255 0.81993 0.04631 0.0
H828 H 0.86104 0.8182 0.13219 0.0
H829 H 0.89582 0.65855 0.04943 0.0
H830 H 0.90684 0.66031 0.13806 0.0
H831 H 0.90802 0.6992 0.05182 0.0
C832 C 0.62991 0.71913 0.3744 0.0
C833 C 0.64059 0.73413 0.32915 0.0
C834 C 0.62978 0.71873 0.46444 0.0
C835 C 0.6404 0.73518 0.51028 0.0
C836 C 0.65109 0.75135 0.46465 0.0
C837 C 0.65115 0.74987 0.37458 0.0
C838 C 0.61835 0.70001 0.51051 0.0
C839 C 0.66243 0.77045 0.51095 0.0
C840 C 0.6348 0.76849 0.74249 0.0
C841 C 0.64011 0.73325 0.78663 0.0
C842 C 0.63499 0.76993 0.65245 0.0
C843 C 0.6404 0.73478 0.60591 0.0
C844 C 0.6457 0.69895 0.65087 0.0
C845 C 0.64562 0.69887 0.74091 0.0
C846 C 0.62949 0.80912 0.6072 0.0
C847 C 0.65134 0.6605 0.60387 0.0
H848 H 0.62177 0.70667 0.33925 0.0
H849 H 0.65936 0.76188 0.33954 0.0
H850 H 0.6214 0.6728 0.55265 0.0
H851 H 0.61397 0.72519 0.55213 0.0
H852 H 0.61099 0.68766 0.46549 0.0
H853 H 0.66969 0.78367 0.46606 0.0
H854 H 0.65928 0.79705 0.55424 0.0
H855 H 0.66699 0.74516 0.5514 0.0
H856 H 0.63063 0.79515 0.77856 0.0
H857 H 0.64972 0.67171 0.77574 0.0
H858 H 0.62128 0.79903 0.567 0.0
H859 H 0.63673 0.82357 0.56379 0.0
H860 H 0.62622 0.8346 0.65278 0.0
H861 H 0.64408 0.64589 0.56089 0.0
H862 H 0.65486 0.6349 0.64829 0.0
H863 H 0.65939 0.67141 0.56301 0.0
C864 C 0.37578 0.76192 0.73985 0.0
C865 C 0.38508 0.73828 0.78471 0.0
C866 C 0.37546 0.76206 0.64986 0.0
C867 C 0.38456 0.73746 0.60345 0.0
C868 C 0.39397 0.71348 0.6483 0.0
C869 C 0.39418 0.71444 0.73832 0.0
C870 C 0.36542 0.78866 0.60444 0.0
C871 C 0.40374 0.68644 0.6012 0.0
C872 C 0.37649 0.70615 0.37361 0.0
C873 C 0.38393 0.73574 0.32682 0.0
C874 C 0.3767 0.70604 0.46369 0.0
C875 C 0.38427 0.73699 0.50793 0.0
C876 C 0.39162 0.76746 0.46088 0.0
C877 C 0.39148 0.76611 0.37094 0.0
C878 C 0.36893 0.67248 0.51152 0.0
C879 C 0.39959 0.80163 0.50554 0.0
H880 H 0.36876 0.78066 0.77507 0.0
H881 H 0.40135 0.69585 0.77237 0.0
H882 H 0.37003 0.81253 0.56088 0.0
H883 H 0.35937 0.76709 0.56434 0.0
H884 H 0.35917 0.80662 0.64983 0.0
H885 H 0.41026 0.66897 0.64552 0.0
H886 H 0.39888 0.66211 0.55991 0.0
H887 H 0.40952 0.7076 0.55862 0.0
H888 H 0.37071 0.68241 0.33976 0.0
H889 H 0.39717 0.78932 0.33505 0.0
H890 H 0.36188 0.68891 0.55349 0.0
H891 H 0.37524 0.65285 0.55351 0.0
H892 H 0.36375 0.65008 0.46766 0.0
H893 H 0.39348 0.82158 0.54835 0.0
H894 H 0.40449 0.82367 0.45964 0.0
H895 H 0.40689 0.78571 0.54632 0.0
C896 C 0.63281 0.20148 0.27667 0.0
C897 C 0.63959 0.23316 0.23065 0.0
C898 C 0.63309 0.20069 0.36667 0.0
C899 C 0.64003 0.23309 0.41166 0.0
C900 C 0.6467 0.26561 0.36535 0.0
C901 C 0.64654 0.2649 0.27537 0.0
C902 C 0.62607 0.16495 0.4136 0.0
C903 C 0.65395 0.30134 0.41086 0.0
C904 C 0.63081 0.25425 0.64367 0.0
C905 C 0.64053 0.23255 0.6885 0.0
C906 C 0.6306 0.255 0.5537 0.0
C907 C 0.64025 0.23307 0.50717 0.0
C908 C 0.65007 0.21103 0.55191 0.0
C909 C 0.65014 0.21127 0.64198 0.0
C910 C 0.62008 0.2794 0.50842 0.0
C911 C 0.66044 0.18687 0.50458 0.0
H912 H 0.62752 0.17667 0.2422 0.0
H913 H 0.6517 0.28967 0.2399 0.0
H914 H 0.63278 0.1468 0.45539 0.0
H915 H 0.61865 0.17929 0.45565 0.0
H916 H 0.62143 0.14151 0.36913 0.0
H917 H 0.65841 0.32472 0.36548 0.0
H918 H 0.64742 0.31958 0.45385 0.0
H919 H 0.66153 0.28699 0.45155 0.0
H920 H 0.62338 0.27102 0.67888 0.0
H921 H 0.65765 0.19427 0.67592 0.0
H922 H 0.61452 0.25668 0.46758 0.0
H923 H 0.62422 0.30458 0.4656 0.0
H924 H 0.61344 0.29554 0.55392 0.0
H925 H 0.65616 0.16166 0.46245 0.0
H926 H 0.66728 0.17082 0.54877 0.0
H927 H 0.66579 0.20973 0.46281 0.0
C928 C 0.39586 0.22635 0.28832 0.0
C929 C 0.38487 0.2373 0.24179 0.0
C930 C 0.39583 0.22611 0.3784 0.0
C931 C 0.38455 0.23728 0.42326 0.0
C932 C 0.37346 0.24873 0.3768 0.0
C933 C 0.37374 0.24851 0.28682 0.0
C934 C 0.40784 0.21353 0.42561 0.0
C935 C 0.36128 0.26122 0.42219 0.0
C936 C 0.38006 0.19901 0.65338 0.0
C937 C 0.38394 0.23579 0.69972 0.0
C938 C 0.38044 0.19876 0.56335 0.0
C939 C 0.38433 0.23679 0.51881 0.0
C940 C 0.38797 0.27438 0.56563 0.0
C941 C 0.38796 0.27313 0.65563 0.0
C942 C 0.37682 0.15767 0.51592 0.0
C943 C 0.39179 0.31599 0.52069 0.0
H944 H 0.40451 0.21764 0.25444 0.0
H945 H 0.36518 0.25713 0.25182 0.0
H946 H 0.41094 0.24068 0.4677 0.0
H947 H 0.40594 0.18498 0.4674 0.0
H948 H 0.41578 0.20532 0.38135 0.0
H949 H 0.35356 0.27019 0.37678 0.0
H950 H 0.35791 0.2337 0.46239 0.0
H951 H 0.36305 0.28921 0.46564 0.0
H952 H 0.37707 0.17001 0.68769 0.0
H953 H 0.39087 0.30169 0.69169 0.0
H954 H 0.3848 0.14725 0.47399 0.0
H955 H 0.36849 0.16397 0.47395 0.0
H956 H 0.37442 0.13046 0.56007 0.0
H957 H 0.40027 0.31014 0.47989 0.0
H958 H 0.39401 0.34269 0.56644 0.0
H959 H 0.38397 0.32691 0.47787 0.0
C960 C 0.04137 0.26248 0.39212 0.0
C961 C 0.04759 0.22374 0.41574 0.0
C962 C 0.02799 0.26485 0.38881 0.0
C963 C 0.02063 0.22784 0.41103 0.0
C964 C 0.02681 0.18829 0.43218 0.0
C965 C 0.04019 0.1866 0.43336 0.0
C966 C 0.02175 0.30743 0.36449 0.0
C967 C 0.01931 0.14816 0.45688 0.0
C968 C 0.98737 0.24646 0.50076 0.0
C969 C 0.97966 0.23435 0.4315 0.0
C970 C 1.00071 0.24452 0.49483 0.0
C971 C 1.00647 0.23104 0.41706 0.0
C972 C 0.9987 0.21965 0.34627 0.0
C973 C 0.98537 0.22094 0.35469 0.0
C974 C 1.00864 0.25616 0.57232 0.0
C975 C 1.00448 0.20617 0.26172 0.0
H976 H 0.04692 0.29157 0.37936 0.0
H977 H 0.04486 0.15625 0.44988 0.0
H978 H 0.01448 0.30196 0.31399 0.0
H979 H 0.01676 0.32128 0.42094 0.0
H980 H 0.02876 0.33181 0.34094 0.0
H981 H 0.02555 0.11958 0.46917 0.0
H982 H 0.01368 0.1549 0.5156 0.0
H983 H 1.01246 0.13957 0.40545 0.0
H984 H 0.98294 0.25654 0.56032 0.0
H985 H 0.97938 0.21197 0.30087 0.0
H986 H 0.01516 0.28352 0.55678 0.0
H987 H 0.01464 0.22795 0.591 0.0
H988 H 1.00268 0.26571 0.62811 0.0
H989 H 1.0109 0.23225 0.2378 0.0
H990 H 0.99712 0.19945 0.21224 0.0
H991 H 1.01036 0.17647 0.27036 0.0
C992 C 0.98616 0.72562 0.53249 0.0
C993 C 0.97859 0.73222 0.60557 0.0
C994 C 0.99951 0.7284 0.53645 0.0
C995 C 1.00552 0.7379 0.61552 0.0
C996 C 0.99797 0.74423 0.68978 0.0
C997 C 0.9846 0.74149 0.68386 0.0
C998 C 1.00717 0.7218 0.45552 0.0
C999 C 1.00402 0.75408 0.77536 0.0
C1000 C 0.04067 0.70752 0.62904 0.0
C1001 C 0.04668 0.7475 0.61151 0.0
C1002 C 0.02731 0.70423 0.63369 0.0
C1003 C 0.01971 0.74171 0.61965 0.0
C1004 C 0.02571 0.78238 0.60444 0.0
C1005 C 0.03908 0.78483 0.6011 0.0
C1006 C 0.02131 0.66029 0.65052 0.0
C1007 C 0.01798 0.82311 0.58874 0.0
H1008 H 0.98162 0.71929 0.47137 0.0
H1009 H 0.97883 0.74638 0.7407 0.0
H1010 H 0.01281 0.75157 0.44135 0.0
H1011 H 0.01403 0.69465 0.4643 0.0
H1012 H 1.00106 0.71437 0.39927 0.0
H1013 H 0.99684 0.75737 0.82734 0.0
H1014 H 1.01079 0.72777 0.79278 0.0
H1015 H 1.00957 0.78481 0.77133 0.0
H1016 H 0.04637 0.6783 0.63599 0.0
H1017 H 0.04359 0.81602 0.589 0.0
H1018 H 0.01604 0.64933 0.59276 0.0
H1019 H 0.01431 0.66267 0.70364 0.0
H1020 H 0.0285 0.6351 0.66711 0.0
H1021 H 1.01224 0.81915 0.5295 0.0
H1022 H 0.02406 0.85255 0.58172 0.0
H1023 H 1.0112 0.82851 0.64229 0.0
C1024 C 0.54015 0.7785 0.98711 0.0
C1025 C 0.54651 0.73898 0.97163 0.0
C1026 C 0.52677 0.78122 0.98292 0.0
C1027 C 0.51952 0.74338 0.96444 0.0
C1028 C 0.52588 0.70389 0.9452 0.0
C1029 C 0.53926 0.70234 0.94785 0.0
C1030 C 0.52037 0.82416 1.00234 0.0
C1031 C 0.51854 0.66262 0.92614 0.0
C1032 C 0.48639 0.7367 0.06231 0.0
C1033 C 0.47849 0.74502 0.99168 0.0
C1034 C 0.49971 0.73588 0.05398 0.0
C1035 C 0.50534 0.74406 0.97307 0.0
C1036 C 0.49743 0.75245 0.90131 0.0
C1037 C 0.48408 0.75249 0.91133 0.0
C1038 C 0.50775 0.72592 0.13186 0.0
C1039 C 0.50308 0.76184 0.8143 0.0
H1040 H 0.54555 0.807 1.00624 0.0
H1041 H 0.54403 0.67189 0.93342 0.0
H1042 H 0.51311 0.83171 0.95281 0.0
H1043 H 0.51535 0.82198 0.06477 0.0
H1044 H 0.5273 0.85153 1.0055 0.0
H1045 H 0.52488 0.63527 0.90723 0.0
H1046 H 0.51307 0.65265 0.98381 0.0
H1047 H 0.51155 0.66832 0.87403 0.0
H1048 H 0.48212 0.7301 0.12425 0.0
H1049 H 0.47801 0.75907 0.85665 0.0
H1050 H 0.51422 0.75367 0.14557 0.0
H1051 H 0.5138 0.69695 0.11938 0.0
H1052 H 0.50187 0.71951 0.18977 0.0
H1053 H 0.50912 0.79149 0.81775 0.0
H1054 H 0.49564 0.76688 0.76463 0.0
H1055 H 0.50931 0.73455 0.79396 0.0
C1056 C 0.48464 0.2803 0.08282 0.0
C1057 C 0.47823 0.24458 0.04664 0.0
C1058 C 0.49804 0.28159 0.08644 0.0
C1059 C 0.50522 0.24651 0.05237 0.0
C1060 C 0.49879 0.21006 0.01712 0.0
C1061 C 0.48541 0.20951 0.01484 0.0
C1062 C 0.50453 0.32087 0.12514 0.0
C1063 C 0.50606 0.17213 0.97942 0.0
C1064 C 0.53898 0.26667 0.97261 0.0
C1065 C 0.54639 0.24841 0.03831 0.0
C1066 C 0.52561 0.26704 0.97731 0.0
C1067 C 0.51943 0.24871 0.04952 0.0
C1068 C 0.52684 0.23097 0.11689 0.0
C1069 C 0.54022 0.23096 0.11044 0.0
C1070 C 0.51808 0.28596 0.90369 0.0
C1071 C 0.52062 0.21122 0.19503 0.0
H1072 H 0.47916 0.30735 0.10811 0.0
H1073 H 0.48056 0.1821 0.98544 0.0
H1074 H 0.51126 0.31049 0.176 0.0
H1075 H 0.51019 0.33796 0.07532 0.0
H1076 H 0.49761 0.34431 0.15308 0.0
H1077 H 0.49965 0.14547 0.95767 0.0
H1078 H 0.51179 0.1834 0.92388 0.0
H1079 H 0.51281 0.15874 0.02737 0.0
H1080 H 0.54362 0.27948 0.91588 0.0
H1081 H 0.54586 0.21711 0.16181 0.0
H1082 H 0.51149 0.31154 0.9274 0.0
H1083 H 0.51216 0.2601 0.87378 0.0
H1084 H 0.52432 0.30041 0.85363 0.0
H1085 H 0.51411 0.23522 0.22526 0.0
H1086 H 0.52771 0.20042 0.24341 0.0
H1087 H 0.51475 0.1827 0.17592 0.0
loop_
_geom_bond_atom_site_label_1
_geom_bond_atom_site_label_2
_geom_bond_distance
_geom_bond_site_symmetry_2
_ccdc_geom_bond_type
Dy0 O3 2.307 . S
Dy0 O5 2.395 . S
Dy0 O6 2.379 . S
Dy0 O8 2.339 . S
Dy0 O10 2.298 . S
Dy0 O14 2.275 . S
Dy0 C22 2.738 . S
Dy1 O4 2.298 . S
Dy1 O7 2.275 . S
Dy1 O9 2.307 . S
Dy1 O11 2.395 . S
Dy1 O12 2.379 . S
Dy1 O15 2.339 . S
Dy1 C31 2.738 . S
C2 O14 1.254 . S
C2 O15 1.257 . S
O3 Dy0 2.307 . S
O3 C13 1.266 . S
O4 Dy1 2.298 . S
O4 C13 1.236 . S
O5 Dy0 2.395 . S
O5 C22 1.255 . S
O6 Dy0 2.379 . S
O6 C22 1.249 . S
O7 Dy1 2.275 . S
O7 C23 1.254 . S
O8 Dy0 2.339 . S
O8 C23 1.257 . S
O9 Dy1 2.307 . S
O9 C24 1.266 . S
O10 Dy0 2.298 . S
O10 C24 1.236 . S
O11 Dy1 2.395 . S
O11 C31 1.255 . S
O12 Dy1 2.379 . S
O12 C31 1.249 . S
C13 O3 1.266 . S
C13 O4 1.236 . S
O14 Dy0 2.275 . S
O14 C2 1.254 . S
O15 Dy1 2.339 . S
O15 C2 1.257 . S
C16 C19 1.344 . S
C16 C20 1.328 . S
C16 C22 1.516 . S
C17 C18 1.304 . S
C17 C21 1.323 . S
C18 C17 1.304 . S
C18 C19 1.371 . S
C18 H32 0.930 . S
C19 C16 1.344 . S
C19 C18 1.371 . S
C19 H33 0.931 . S
C20 C16 1.328 . S
C20 C21 1.433 . S
C20 H34 0.931 . S
C21 C17 1.323 . S
C21 C20 1.433 . S
C21 H35 0.933 . S
C22 Dy0 2.738 . S
C22 O5 1.255 . S
C22 O6 1.249 . S
C22 C16 1.516 . S
C23 O7 1.254 . S
C23 O8 1.257 . S
C24 O9 1.266 . S
C24 O10 1.236 . S
C25 C28 1.344 . S
C25 C29 1.328 . S
C25 C31 1.516 . S
C26 C27 1.304 . S
C26 C30 1.323 . S
C27 C26 1.304 . S
C27 C28 1.371 . S
C27 H36 0.930 . S
C28 C25 1.344 . S
C28 C27 1.371 . S
C28 H37 0.931 . S
C29 C25 1.328 . S
C29 C30 1.433 . S
C29 H38 0.931 . S
C30 C26 1.323 . S
C30 C29 1.433 . S
C30 H39 0.933 . S
C31 Dy1 2.738 . S
C31 O11 1.255 . S
C31 O12 1.249 . S
C31 C25 1.516 . S
H32 C18 0.930 . S
H33 C19 0.931 . S
H34 C20 0.931 . S
H35 C21 0.933 . S
H36 C27 0.930 . S
H37 C28 0.931 . S
H38 C29 0.931 . S
H39 C30 0.933 . S
Dy40 O43 2.307 . S
Dy40 O45 2.395 . S
Dy40 O46 2.379 . S
Dy40 O48 2.339 . S
Dy40 O50 2.298 . S
Dy40 O54 2.275 . S
Dy40 C62 2.738 . S
Dy41 O44 2.298 . S
Dy41 O47 2.275 . S
Dy41 O49 2.307 . S
Dy41 O51 2.395 . S
Dy41 O52 2.379 . S
Dy41 O55 2.339 . S
Dy41 C71 2.738 . S
C42 O54 1.254 . S
C42 O55 1.257 . S
O43 Dy40 2.307 . S
O43 C53 1.266 . S
O44 Dy41 2.298 . S
O44 C53 1.236 . S
O45 Dy40 2.395 . S
O45 C62 1.255 . S
O46 Dy40 2.379 . S
O46 C62 1.249 . S
O47 Dy41 2.275 . S
O47 C63 1.254 . S
O48 Dy40 2.339 . S
O48 C63 1.257 . S
O49 Dy41 2.307 . S
O49 C64 1.266 . S
O50 Dy40 2.298 . S
O50 C64 1.236 . S
O51 Dy41 2.395 . S
O51 C71 1.255 . S
O52 Dy41 2.379 . S
O52 C71 1.249 . S
C53 O43 1.266 . S
C53 O44 1.236 . S
O54 Dy40 2.275 . S
O54 C42 1.254 . S
O55 Dy41 2.339 . S
O55 C42 1.257 . S
C56 C59 1.344 . S
C56 C60 1.328 . S
C56 C62 1.516 . S
C57 C58 1.304 . S
C57 C61 1.323 . S
C58 C57 1.304 . S
C58 C59 1.371 . S
C58 H72 0.930 . S
C59 C56 1.344 . S
C59 C58 1.371 . S
C59 H73 0.931 . S
C60 C56 1.328 . S
C60 C61 1.433 . S
C60 H74 0.931 . S
C61 C57 1.323 . S
C61 C60 1.433 . S
C61 H75 0.933 . S
C62 Dy40 2.738 . S
C62 O45 1.255 . S
C62 O46 1.249 . S
C62 C56 1.516 . S
C63 O47 1.254 . S
C63 O48 1.257 . S
C64 O49 1.266 . S
C64 O50 1.236 . S
C65 C68 1.344 . S
C65 C69 1.328 . S
C65 C71 1.516 . S
C66 C67 1.304 . S
C66 C70 1.323 . S
C67 C66 1.304 . S
C67 C68 1.371 . S
C67 H76 0.930 . S
C68 C65 1.344 . S
C68 C67 1.371 . S
C68 H77 0.931 . S
C69 C65 1.328 . S
C69 C70 1.433 . S
C69 H78 0.931 . S
C70 C66 1.323 . S
C70 C69 1.433 . S
C70 H79 0.933 . S
C71 Dy41 2.738 . S
C71 O51 1.255 . S
C71 O52 1.249 . S
C71 C65 1.516 . S
H72 C58 0.930 . S
H73 C59 0.931 . S
H74 C60 0.931 . S
H75 C61 0.933 . S
H76 C67 0.930 . S
H77 C68 0.931 . S
H78 C69 0.931 . S
H79 C70 0.933 . S
Dy80 O83 2.307 . S
Dy80 O85 2.395 . S
Dy80 O86 2.379 . S
Dy80 O88 2.339 . S
Dy80 O90 2.298 . S
Dy80 O94 2.275 . S
Dy80 C102 2.738 . S
Dy81 O84 2.298 . S
Dy81 O87 2.275 . S
Dy81 O89 2.307 . S
Dy81 O91 2.395 . S
Dy81 O92 2.379 . S
Dy81 O95 2.339 . S
Dy81 C111 2.738 . S
C82 O94 1.254 . S
C82 O95 1.257 . S
O83 Dy80 2.307 . S
O83 C93 1.266 . S
O84 Dy81 2.298 . S
O84 C93 1.236 . S
O85 Dy80 2.395 . S
O85 C102 1.255 . S
O86 Dy80 2.379 . S
O86 C102 1.249 . S
O87 Dy81 2.275 . S
O87 C103 1.254 . S
O88 Dy80 2.339 . S
O88 C103 1.257 . S
O89 Dy81 2.307 . S
O89 C104 1.266 . S
O90 Dy80 2.298 . S
O90 C104 1.236 . S
O91 Dy81 2.395 . S
O91 C111 1.255 . S
O92 Dy81 2.379 . S
O92 C111 1.249 . S
C93 O83 1.266 . S
C93 O84 1.236 . S
O94 Dy80 2.275 . S
O94 C82 1.254 . S
O95 Dy81 2.339 . S
O95 C82 1.257 . S
C96 C99 1.344 . S
C96 C100 1.328 . S
C96 C102 1.516 . S
C97 C98 1.304 . S
C97 C101 1.323 . S
C98 C97 1.304 . S
C98 C99 1.371 . S
C98 H112 0.930 . S
C99 C96 1.344 . S
C99 C98 1.371 . S
C99 H113 0.931 . S
C100 C96 1.328 . S
C100 C101 1.433 . S
C100 H114 0.931 . S
C101 C97 1.323 . S
C101 C100 1.433 . S
C101 H115 0.933 . S
C102 Dy80 2.738 . S
C102 O85 1.255 . S
C102 O86 1.249 . S
C102 C96 1.516 . S
C103 O87 1.254 . S
C103 O88 1.257 . S
C104 O89 1.266 . S
C104 O90 1.236 . S
C105 C108 1.344 . S
C105 C109 1.328 . S
C105 C111 1.516 . S
C106 C107 1.304 . S
C106 C110 1.323 . S
C107 C106 1.304 . S
C107 C108 1.371 . S
C107 H116 0.930 . S
C108 C105 1.344 . S
C108 C107 1.371 . S
C108 H117 0.931 . S
C109 C105 1.328 . S
C109 C110 1.433 . S
C109 H118 0.931 . S
C110 C106 1.323 . S
C110 C109 1.433 . S
C110 H119 0.933 . S
C111 Dy81 2.738 . S
C111 O91 1.255 . S
C111 O92 1.249 . S
C111 C105 1.516 . S
H112 C98 0.930 . S
H113 C99 0.931 . S
H114 C100 0.931 . S
H115 C101 0.933 . S
H116 C107 0.930 . S
H117 C108 0.931 . S
H118 C109 0.931 . S
H119 C110 0.933 . S
Dy120 O123 2.307 . S
Dy120 O125 2.395 . S
Dy120 O126 2.379 . S
Dy120 O128 2.339 . S
Dy120 O130 2.298 . S
Dy120 O134 2.275 . S
Dy120 C142 2.738 . S
Dy121 O124 2.298 . S
Dy121 O127 2.275 . S
Dy121 O129 2.307 . S
Dy121 O131 2.395 . S
Dy121 O132 2.379 . S
Dy121 O135 2.339 . S
Dy121 C151 2.738 . S
C122 O134 1.254 . S
C122 O135 1.257 . S
O123 Dy120 2.307 . S
O123 C133 1.266 . S
O124 Dy121 2.298 . S
O124 C133 1.236 . S
O125 Dy120 2.395 . S
O125 C142 1.255 . S
O126 Dy120 2.379 . S
O126 C142 1.249 . S
O127 Dy121 2.275 . S
O127 C143 1.254 . S
O128 Dy120 2.339 . S
O128 C143 1.257 . S
O129 Dy121 2.307 . S
O129 C144 1.266 . S
O130 Dy120 2.298 . S
O130 C144 1.236 . S
O131 Dy121 2.395 . S
O131 C151 1.255 . S
O132 Dy121 2.379 . S
O132 C151 1.249 . S
C133 O123 1.266 . S
C133 O124 1.236 . S
O134 Dy120 2.275 . S
O134 C122 1.254 . S
O135 Dy121 2.339 . S
O135 C122 1.257 . S
C136 C139 1.344 . S
C136 C140 1.328 . S
C136 C142 1.516 . S
C137 C138 1.304 . S
C137 C141 1.323 . S
C138 C137 1.304 . S
C138 C139 1.371 . S
C138 H152 0.930 . S
C139 C136 1.344 . S
C139 C138 1.371 . S
C139 H153 0.931 . S
C140 C136 1.328 . S
C140 C141 1.433 . S
C140 H154 0.931 . S
C141 C137 1.323 . S
C141 C140 1.433 . S
C141 H155 0.933 . S
C142 Dy120 2.738 . S
C142 O125 1.255 . S
C142 O126 1.249 . S
C142 C136 1.516 . S
C143 O127 1.254 . S
C143 O128 1.257 . S
C144 O129 1.266 . S
C144 O130 1.236 . S
C145 C148 1.344 . S
C145 C149 1.328 . S
C145 C151 1.516 . S
C146 C147 1.304 . S
C146 C150 1.323 . S
C147 C146 1.304 . S
C147 C148 1.371 . S
C147 H156 0.930 . S
C148 C145 1.344 . S
C148 C147 1.371 . S
C148 H157 0.931 . S
C149 C145 1.328 . S
C149 C150 1.433 . S
C149 H158 0.931 . S
C150 C146 1.323 . S
C150 C149 1.433 . S
C150 H159 0.933 . S
C151 Dy121 2.738 . S
C151 O131 1.255 . S
C151 O132 1.249 . S
C151 C145 1.516 . S
H152 C138 0.930 . S
H153 C139 0.931 . S
H154 C140 0.931 . S
H155 C141 0.933 . S
H156 C147 0.930 . S
H157 C148 0.931 . S
H158 C149 0.931 . S
H159 C150 0.933 . S
Dy160 O163 2.307 . S
Dy160 O165 2.395 1_556 S
Dy160 O166 2.379 1_556 S
Dy160 O168 2.339 . S
Dy160 O170 2.298 1_556 S
Dy160 O174 2.275 . S
Dy160 C182 2.738 1_556 S
Dy161 O164 2.298 1_554 S
Dy161 O167 2.275 . S
Dy161 O169 2.307 . S
Dy161 O171 2.395 1_554 S
Dy161 O172 2.379 1_554 S
Dy161 O175 2.339 . S
Dy161 C191 2.738 1_554 S
C162 O174 1.254 1_554 S
C162 O175 1.257 . S
O163 Dy160 2.307 . S
O163 C173 1.266 . S
O164 Dy161 2.298 1_556 S
O164 C173 1.236 . S
O165 Dy160 2.395 1_554 S
O165 C182 1.255 . S
O166 Dy160 2.379 1_554 S
O166 C182 1.249 . S
O167 Dy161 2.275 . S
O167 C183 1.254 1_554 S
O168 Dy160 2.339 . S
O168 C183 1.257 . S
O169 Dy161 2.307 . S
O169 C184 1.266 . S
O170 Dy160 2.298 1_554 S
O170 C184 1.236 . S
O171 Dy161 2.395 1_556 S
O171 C191 1.255 . S
O172 Dy161 2.379 1_556 S
O172 C191 1.249 . S
C173 O163 1.266 . S
C173 O164 1.236 . S
O174 Dy160 2.275 . S
O174 C162 1.254 1_556 S
O175 Dy161 2.339 . S
O175 C162 1.257 . S
C176 C179 1.344 . S
C176 C180 1.328 . S
C176 C182 1.516 . S
C177 C178 1.304 . S
C177 C181 1.323 . S
C178 C177 1.304 . S
C178 C179 1.371 . S
C178 H192 0.930 . S
C179 C176 1.344 . S
C179 C178 1.371 . S
C179 H193 0.931 . S
C180 C176 1.328 . S
C180 C181 1.433 . S
C180 H194 0.931 . S
C181 C177 1.323 . S
C181 C180 1.433 . S
C181 H195 0.933 . S
C182 Dy160 2.738 1_554 S
C182 O165 1.255 . S
C182 O166 1.249 . S
C182 C176 1.516 . S
C183 O167 1.254 1_556 S
C183 O168 1.257 . S
C184 O169 1.266 . S
C184 O170 1.236 . S
C185 C188 1.344 . S
C185 C189 1.328 . S
C185 C191 1.516 . S
C186 C187 1.304 . S
C186 C190 1.323 . S
C187 C186 1.304 . S
C187 C188 1.371 . S
C187 H196 0.930 . S
C188 C185 1.344 . S
C188 C187 1.371 . S
C188 H197 0.931 . S
C189 C185 1.328 . S
C189 C190 1.433 . S
C189 H198 0.931 . S
C190 C186 1.323 . S
C190 C189 1.433 . S
C190 H199 0.933 . S
C191 Dy161 2.738 1_556 S
C191 O171 1.255 . S
C191 O172 1.249 . S
C191 C185 1.516 . S
H192 C178 0.930 . S
H193 C179 0.931 . S
H194 C180 0.931 . S
H195 C181 0.933 . S
H196 C187 0.930 . S
H197 C188 0.931 . S
H198 C189 0.931 . S
H199 C190 0.933 . S
Dy200 O203 2.307 . S
Dy200 O205 2.395 1_556 S
Dy200 O206 2.379 1_556 S
Dy200 O208 2.339 . S
Dy200 O210 2.298 1_556 S
Dy200 O214 2.275 . S
Dy200 C222 2.738 1_556 S
Dy201 O204 2.298 1_554 S
Dy201 O207 2.275 . S
Dy201 O209 2.307 . S
Dy201 O211 2.395 1_554 S
Dy201 O212 2.379 1_554 S
Dy201 O215 2.339 . S
Dy201 C231 2.738 1_554 S
C202 O214 1.254 1_554 S
C202 O215 1.257 . S
O203 Dy200 2.307 . S
O203 C213 1.266 . S
O204 Dy201 2.298 1_556 S
O204 C213 1.236 . S
O205 Dy200 2.395 1_554 S
O205 C222 1.255 . S
O206 Dy200 2.379 1_554 S
O206 C222 1.249 . S
O207 Dy201 2.275 . S
O207 C223 1.254 1_554 S
O208 Dy200 2.339 . S
O208 C223 1.257 . S
O209 Dy201 2.307 . S
O209 C224 1.266 . S
O210 Dy200 2.298 1_554 S
O210 C224 1.236 . S
O211 Dy201 2.395 1_556 S
O211 C231 1.255 . S
O212 Dy201 2.379 1_556 S
O212 C231 1.249 . S
C213 O203 1.266 . S
C213 O204 1.236 . S
O214 Dy200 2.275 . S
O214 C202 1.254 1_556 S
O215 Dy201 2.339 . S
O215 C202 1.257 . S
C216 C219 1.344 . S
C216 C220 1.328 . S
C216 C222 1.516 . S
C217 C218 1.304 . S
C217 C221 1.323 . S
C218 C217 1.304 . S
C218 C219 1.371 . S
C218 H232 0.930 . S
C219 C216 1.344 . S
C219 C218 1.371 . S
C219 H233 0.931 . S
C220 C216 1.328 . S
C220 C221 1.433 . S
C220 H234 0.931 . S
C221 C217 1.323 . S
C221 C220 1.433 . S
C221 H235 0.933 . S
C222 Dy200 2.738 1_554 S
C222 O205 1.255 . S
C222 O206 1.249 . S
C222 C216 1.516 . S
C223 O207 1.254 1_556 S
C223 O208 1.257 . S
C224 O209 1.266 . S
C224 O210 1.236 . S
C225 C228 1.344 . S
C225 C229 1.328 . S
C225 C231 1.516 . S
C226 C227 1.304 . S
C226 C230 1.323 . S
C227 C226 1.304 . S
C227 C228 1.371 . S
C227 H236 0.930 . S
C228 C225 1.344 . S
C228 C227 1.371 . S
C228 H237 0.931 . S
C229 C225 1.328 . S
C229 C230 1.433 . S
C229 H238 0.931 . S
C230 C226 1.323 . S
C230 C229 1.433 . S
C230 H239 0.933 . S
C231 Dy201 2.738 1_556 S
C231 O211 1.255 . S
C231 O212 1.249 . S
C231 C225 1.516 . S
H232 C218 0.930 . S
H233 C219 0.931 . S
H234 C220 0.931 . S
H235 C221 0.933 . S
H236 C227 0.930 . S
H237 C228 0.931 . S
H238 C229 0.931 . S
H239 C230 0.933 . S
Dy240 O243 2.307 . S
Dy240 O245 2.395 1_554 S
Dy240 O246 2.379 1_554 S
Dy240 O248 2.339 . S
Dy240 O250 2.298 1_554 S
Dy240 O254 2.275 . S
Dy240 C262 2.738 1_554 S
Dy241 O244 2.298 1_556 S
Dy241 O247 2.275 . S
Dy241 O249 2.307 . S
Dy241 O251 2.395 1_556 S
Dy241 O252 2.379 1_556 S
Dy241 O255 2.339 . S
Dy241 C271 2.738 1_556 S
C242 O254 1.254 1_556 S
C242 O255 1.257 . S
O243 Dy240 2.307 . S
O243 C253 1.266 . S
O244 Dy241 2.298 1_554 S
O244 C253 1.236 . S
O245 Dy240 2.395 1_556 S
O245 C262 1.255 . S
O246 Dy240 2.379 1_556 S
O246 C262 1.249 . S
O247 Dy241 2.275 . S
O247 C263 1.254 1_556 S
O248 Dy240 2.339 . S
O248 C263 1.257 . S
O249 Dy241 2.307 . S
O249 C264 1.266 . S
O250 Dy240 2.298 1_556 S
O250 C264 1.236 . S
O251 Dy241 2.395 1_554 S
O251 C271 1.255 . S
O252 Dy241 2.379 1_554 S
O252 C271 1.249 . S
C253 O243 1.266 . S
C253 O244 1.236 . S
O254 Dy240 2.275 . S
O254 C242 1.254 1_554 S
O255 Dy241 2.339 . S
O255 C242 1.257 . S
C256 C259 1.344 . S
C256 C260 1.328 . S
C256 C262 1.516 . S
C257 C258 1.304 . S
C257 C261 1.323 . S
C258 C257 1.304 . S
C258 C259 1.371 . S
C258 H272 0.930 . S
C259 C256 1.344 . S
C259 C258 1.371 . S
C259 H273 0.931 . S
C260 C256 1.328 . S
C260 C261 1.433 . S
C260 H274 0.931 . S
C261 C257 1.323 . S
C261 C260 1.433 . S
C261 H275 0.933 . S
C262 Dy240 2.738 1_556 S
C262 O245 1.255 . S
C262 O246 1.249 . S
C262 C256 1.516 . S
C263 O247 1.254 1_554 S
C263 O248 1.257 . S
C264 O249 1.266 . S
C264 O250 1.236 . S
C265 C268 1.344 . S
C265 C269 1.328 . S
C265 C271 1.516 . S
C266 C267 1.304 . S
C266 C270 1.323 . S
C267 C266 1.304 . S
C267 C268 1.371 . S
C267 H276 0.930 . S
C268 C265 1.344 . S
C268 C267 1.371 . S
C268 H277 0.931 . S
C269 C265 1.328 . S
C269 C270 1.433 . S
C269 H278 0.931 . S
C270 C266 1.323 . S
C270 C269 1.433 . S
C270 H279 0.933 . S
C271 Dy241 2.738 1_554 S
C271 O251 1.255 . S
C271 O252 1.249 . S
C271 C265 1.516 . S
H272 C258 0.930 . S
H273 C259 0.931 . S
H274 C260 0.931 . S
H275 C261 0.933 . S
H276 C267 0.930 . S
H277 C268 0.931 . S
H278 C269 0.931 . S
H279 C270 0.933 . S
Dy280 O283 2.307 . S
Dy280 O285 2.395 1_554 S
Dy280 O286 2.379 1_554 S
Dy280 O288 2.339 . S
Dy280 O290 2.298 1_554 S
Dy280 O294 2.275 . S
Dy280 C302 2.738 1_554 S
Dy281 O284 2.298 1_556 S
Dy281 O287 2.275 . S
Dy281 O289 2.307 . S
Dy281 O291 2.395 1_556 S
Dy281 O292 2.379 1_556 S
Dy281 O295 2.339 . S
Dy281 C311 2.738 1_556 S
C282 O294 1.254 1_556 S
C282 O295 1.257 . S
O283 Dy280 2.307 . S
O283 C293 1.266 . S
O284 Dy281 2.298 1_554 S
O284 C293 1.236 . S
O285 Dy280 2.395 1_556 S
O285 C302 1.255 . S
O286 Dy280 2.379 1_556 S
O286 C302 1.249 . S
O287 Dy281 2.275 . S
O287 C303 1.254 1_556 S
O288 Dy280 2.339 . S
O288 C303 1.257 . S
O289 Dy281 2.307 . S
O289 C304 1.266 . S
O290 Dy280 2.298 1_556 S
O290 C304 1.236 . S
O291 Dy281 2.395 1_554 S
O291 C311 1.255 . S
O292 Dy281 2.379 1_554 S
O292 C311 1.249 . S
C293 O283 1.266 . S
C293 O284 1.236 . S
O294 Dy280 2.275 . S
O294 C282 1.254 1_554 S
O295 Dy281 2.339 . S
O295 C282 1.257 . S
C296 C299 1.344 . S
C296 C300 1.328 . S
C296 C302 1.516 . S
C297 C298 1.304 . S
C297 C301 1.323 . S
C298 C297 1.304 . S
C298 C299 1.371 . S
C298 H312 0.930 . S
C299 C296 1.344 . S
C299 C298 1.371 . S
C299 H313 0.931 . S
C300 C296 1.328 . S
C300 C301 1.433 . S
C300 H314 0.931 . S
C301 C297 1.323 . S
C301 C300 1.433 . S
C301 H315 0.933 . S
C302 Dy280 2.738 1_556 S
C302 O285 1.255 . S
C302 O286 1.249 . S
C302 C296 1.516 . S
C303 O287 1.254 1_554 S
C303 O288 1.257 . S
C304 O289 1.266 . S
C304 O290 1.236 . S
C305 C308 1.344 . S
C305 C309 1.328 . S
C305 C311 1.516 . S
C306 C307 1.304 . S
C306 C310 1.323 . S
C307 C306 1.304 . S
C307 C308 1.371 . S
C307 H316 0.930 . S
C308 C305 1.344 . S
C308 C307 1.371 . S
C308 H317 0.931 . S
C309 C305 1.328 . S
C309 C310 1.433 . S
C309 H318 0.931 . S
C310 C306 1.323 . S
C310 C309 1.433 . S
C310 H319 0.933 . S
C311 Dy281 2.738 1_554 S
C311 O291 1.255 . S
C311 O292 1.249 . S
C311 C305 1.516 . S
H312 C298 0.930 . S
H313 C299 0.931 . S
H314 C300 0.931 . S
H315 C301 0.933 . S
H316 C307 0.930 . S
H317 C308 0.931 . S
H318 C309 0.931 . S
H319 C310 0.933 . S
C320 C321 1.391 . S
C320 C322 1.394 . S
C320 H336 0.931 . S
C321 C320 1.391 . S
C321 C325 1.376 . S
C322 C320 1.394 . S
C322 C323 1.369 . S
C322 C326 1.531 . S
C323 C322 1.369 . S
C323 C324 1.410 . S
C323 C331 1.503 . S
C324 C323 1.410 . S
C324 C325 1.392 . S
C324 C327 1.511 . S
C325 C321 1.376 . S
C325 C324 1.392 . S
C325 H337 0.929 . S
C326 C322 1.531 . S
C326 H338 0.960 . S
C326 H339 0.962 . S
C326 H340 0.960 . S
C327 C324 1.511 . S
C327 H341 0.961 . S
C327 H342 0.961 . S
C327 H343 0.961 . S
C328 C329 1.370 . S
C328 C330 1.363 . S
C328 H344 0.931 . S
C329 C328 1.370 . S
C329 C333 1.408 . S
C330 C328 1.363 . S
C330 C331 1.370 . S
C330 C334 1.524 . S
C331 C323 1.503 . S
C331 C330 1.370 . S
C331 C332 1.403 . S
C332 C331 1.403 . S
C332 C333 1.404 . S
C332 C335 1.539 . S
C333 C329 1.408 . S
C333 C332 1.404 . S
C333 H345 0.930 . S
C334 C330 1.524 . S
C334 H346 0.956 . S
C334 H347 0.961 . S
C334 H348 0.961 . S
C335 C332 1.539 . S
C335 H349 0.958 . S
C335 H350 0.961 . S
C335 H351 0.960 . S
H336 C320 0.931 . S
H337 C325 0.929 . S
H338 C326 0.960 . S
H339 C326 0.962 . S
H340 C326 0.960 . S
H341 C327 0.961 . S
H342 C327 0.961 . S
H343 C327 0.961 . S
H344 C328 0.931 . S
H345 C333 0.930 . S
H346 C334 0.956 . S
H347 C334 0.961 . S
H348 C334 0.961 . S
H349 C335 0.958 . S
H350 C335 0.961 . S
H351 C335 0.960 . S
C352 C353 1.391 . S
C352 C354 1.394 . S
C352 H368 0.931 . S
C353 C352 1.391 . S
C353 C357 1.376 . S
C354 C352 1.394 . S
C354 C355 1.369 . S
C354 C358 1.531 . S
C355 C354 1.369 . S
C355 C356 1.410 . S
C355 C363 1.503 . S
C356 C355 1.410 . S
C356 C357 1.392 . S
C356 C359 1.511 . S
C357 C353 1.376 . S
C357 C356 1.392 . S
C357 H369 0.929 . S
C358 C354 1.531 . S
C358 H370 0.960 . S
C358 H371 0.962 . S
C358 H372 0.960 . S
C359 C356 1.511 . S
C359 H373 0.961 . S
C359 H374 0.961 . S
C359 H375 0.961 . S
C360 C361 1.370 . S
C360 C362 1.363 . S
C360 H376 0.931 . S
C361 C360 1.370 . S
C361 C365 1.408 . S
C362 C360 1.363 . S
C362 C363 1.370 . S
C362 C366 1.524 . S
C363 C355 1.503 . S
C363 C362 1.370 . S
C363 C364 1.403 . S
C364 C363 1.403 . S
C364 C365 1.404 . S
C364 C367 1.539 . S
C365 C361 1.408 . S
C365 C364 1.404 . S
C365 H377 0.930 . S
C366 C362 1.524 . S
C366 H378 0.956 . S
C366 H379 0.961 . S
C366 H380 0.961 . S
C367 C364 1.539 . S
C367 H381 0.958 . S
C367 H382 0.961 . S
C367 H383 0.960 . S
H368 C352 0.931 . S
H369 C357 0.929 . S
H370 C358 0.960 . S
H371 C358 0.962 . S
H372 C358 0.960 . S
H373 C359 0.961 . S
H374 C359 0.961 . S
H375 C359 0.961 . S
H376 C360 0.931 . S
H377 C365 0.930 . S
H378 C366 0.956 . S
H379 C366 0.961 . S
H380 C366 0.961 . S
H381 C367 0.958 . S
H382 C367 0.961 . S
H383 C367 0.960 . S
C384 C385 1.391 . S
C384 C386 1.394 . S
C384 H400 0.931 . S
C385 C384 1.391 . S
C385 C389 1.376 . S
C386 C384 1.394 . S
C386 C387 1.369 . S
C386 C390 1.531 . S
C387 C386 1.369 . S
C387 C388 1.410 . S
C387 C395 1.503 . S
C388 C387 1.410 . S
C388 C389 1.392 . S
C388 C391 1.511 . S
C389 C385 1.376 . S
C389 C388 1.392 . S
C389 H401 0.929 . S
C390 C386 1.531 . S
C390 H402 0.960 . S
C390 H403 0.962 . S
C390 H404 0.960 . S
C391 C388 1.511 . S
C391 H405 0.961 . S
C391 H406 0.961 . S
C391 H407 0.961 . S
C392 C393 1.370 . S
C392 C394 1.363 . S
C392 H408 0.931 . S
C393 C392 1.370 . S
C393 C397 1.408 . S
C394 C392 1.363 . S
C394 C395 1.370 . S
C394 C398 1.524 . S
C395 C387 1.503 . S
C395 C394 1.370 . S
C395 C396 1.403 . S
C396 C395 1.403 . S
C396 C397 1.404 . S
C396 C399 1.539 . S
C397 C393 1.408 . S
C397 C396 1.404 . S
C397 H409 0.930 . S
C398 C394 1.524 . S
C398 H410 0.956 . S
C398 H411 0.961 . S
C398 H412 0.961 . S
C399 C396 1.539 . S
C399 H413 0.958 . S
C399 H414 0.961 . S
C399 H415 0.960 . S
H400 C384 0.931 . S
H401 C389 0.929 . S
H402 C390 0.960 . S
H403 C390 0.962 . S
H404 C390 0.960 . S
H405 C391 0.961 . S
H406 C391 0.961 . S
H407 C391 0.961 . S
H408 C392 0.931 . S
H409 C397 0.930 . S
H410 C398 0.956 . S
H411 C398 0.961 . S
H412 C398 0.961 . S
H413 C399 0.958 . S
H414 C399 0.961 . S
H415 C399 0.960 . S
C416 C417 1.391 . S
C416 C418 1.394 . S
C416 H432 0.931 . S
C417 C416 1.391 . S
C417 C421 1.376 . S
C418 C416 1.394 . S
C418 C419 1.369 . S
C418 C422 1.531 . S
C419 C418 1.369 . S
C419 C420 1.410 . S
C419 C427 1.503 . S
C420 C419 1.410 . S
C420 C421 1.392 . S
C420 C423 1.511 . S
C421 C417 1.376 . S
C421 C420 1.392 . S
C421 H433 0.929 . S
C422 C418 1.531 . S
C422 H434 0.960 . S
C422 H435 0.962 . S
C422 H436 0.960 . S
C423 C420 1.511 . S
C423 H437 0.961 . S
C423 H438 0.961 . S
C423 H439 0.961 . S
C424 C425 1.370 . S
C424 C426 1.363 . S
C424 H440 0.931 . S
C425 C424 1.370 . S
C425 C429 1.408 . S
C426 C424 1.363 . S
C426 C427 1.370 . S
C426 C430 1.524 . S
C427 C419 1.503 . S
C427 C426 1.370 . S
C427 C428 1.403 . S
C428 C427 1.403 . S
C428 C429 1.404 . S
C428 C431 1.539 . S
C429 C425 1.408 . S
C429 C428 1.404 . S
C429 H441 0.930 . S
C430 C426 1.524 . S
C430 H442 0.956 . S
C430 H443 0.961 . S
C430 H444 0.961 . S
C431 C428 1.539 . S
C431 H445 0.958 . S
C431 H446 0.961 . S
C431 H447 0.960 . S
H432 C416 0.931 . S
H433 C421 0.929 . S
H434 C422 0.960 . S
H435 C422 0.962 . S
H436 C422 0.960 . S
H437 C423 0.961 . S
H438 C423 0.961 . S
H439 C423 0.961 . S
H440 C424 0.931 . S
H441 C429 0.930 . S
H442 C430 0.956 . S
H443 C430 0.961 . S
H444 C430 0.961 . S
H445 C431 0.958 . S
H446 C431 0.961 . S
H447 C431 0.960 . S
C448 C449 1.391 . S
C448 C450 1.394 . S
C448 H464 0.931 . S
C449 C448 1.391 . S
C449 C453 1.376 . S
C450 C448 1.394 . S
C450 C451 1.369 . S
C450 C454 1.531 . S
C451 C450 1.369 . S
C451 C452 1.410 . S
C451 C459 1.503 1_565 S
C452 C451 1.410 . S
C452 C453 1.392 . S
C452 C455 1.511 . S
C453 C449 1.376 . S
C453 C452 1.392 . S
C453 H465 0.929 . S
C454 C450 1.531 . S
C454 H466 0.960 . S
C454 H467 0.962 . S
C454 H468 0.960 . S
C455 C452 1.511 . S
C455 H469 0.961 . S
C455 H470 0.961 1_565 S
C455 H471 0.961 . S
C456 C457 1.370 . S
C456 C458 1.363 . S
C456 H472 0.931 . S
C457 C456 1.370 . S
C457 C461 1.408 . S
C458 C456 1.363 . S
C458 C459 1.370 . S
C458 C462 1.524 . S
C459 C451 1.503 1_545 S
C459 C458 1.370 . S
C459 C460 1.403 . S
C460 C459 1.403 . S
C460 C461 1.404 . S
C460 C463 1.539 . S
C461 C457 1.408 . S
C461 C460 1.404 . S
C461 H473 0.930 . S
C462 C458 1.524 . S
C462 H474 0.956 . S
C462 H475 0.961 . S
C462 H476 0.961 . S
C463 C460 1.539 . S
C463 H477 0.958 . S
C463 H478 0.961 . S
C463 H479 0.960 1_545 S
H464 C448 0.931 . S
H465 C453 0.929 . S
H466 C454 0.960 . S
H467 C454 0.962 . S
H468 C454 0.960 . S
H469 C455 0.961 . S
H470 C455 0.961 1_545 S
H471 C455 0.961 . S
H472 C456 0.931 . S
H473 C461 0.930 . S
H474 C462 0.956 . S
H475 C462 0.961 . S
H476 C462 0.961 . S
H477 C463 0.958 . S
H478 C463 0.961 . S
H479 C463 0.960 1_565 S
C480 C481 1.391 . S
C480 C482 1.394 . S
C480 H496 0.931 . S
C481 C480 1.391 . S
C481 C485 1.376 . S
C482 C480 1.394 . S
C482 C483 1.369 . S
C482 C486 1.531 . S
C483 C482 1.369 . S
C483 C484 1.410 . S
C483 C491 1.503 . S
C484 C483 1.410 . S
C484 C485 1.392 . S
C484 C487 1.511 . S
C485 C481 1.376 . S
C485 C484 1.392 . S
C485 H497 0.929 . S
C486 C482 1.531 . S
C486 H498 0.960 . S
C486 H499 0.962 . S
C486 H500 0.960 . S
C487 C484 1.511 . S
C487 H501 0.961 . S
C487 H502 0.961 . S
C487 H503 0.961 . S
C488 C489 1.370 . S
C488 C490 1.363 . S
C488 H504 0.931 . S
C489 C488 1.370 . S
C489 C493 1.408 . S
C490 C488 1.363 . S
C490 C491 1.370 . S
C490 C494 1.524 . S
C491 C483 1.503 . S
C491 C490 1.370 . S
C491 C492 1.403 . S
C492 C491 1.403 . S
C492 C493 1.404 . S
C492 C495 1.539 . S
C493 C489 1.408 . S
C493 C492 1.404 . S
C493 H505 0.930 . S
C494 C490 1.524 . S
C494 H506 0.956 . S
C494 H507 0.961 . S
C494 H508 0.961 . S
C495 C492 1.539 . S
C495 H509 0.958 . S
C495 H510 0.961 . S
C495 H511 0.960 . S
H496 C480 0.931 . S
H497 C485 0.929 . S
H498 C486 0.960 . S
H499 C486 0.962 . S
H500 C486 0.960 . S
H501 C487 0.961 . S
H502 C487 0.961 . S
H503 C487 0.961 . S
H504 C488 0.931 . S
H505 C493 0.930 . S
H506 C494 0.956 . S
H507 C494 0.961 . S
H508 C494 0.961 . S
H509 C495 0.958 . S
H510 C495 0.961 . S
H511 C495 0.960 . S
C512 C513 1.391 . S
C512 C514 1.394 . S
C512 H528 0.931 . S
C513 C512 1.391 . S
C513 C517 1.376 . S
C514 C512 1.394 . S
C514 C515 1.369 . S
C514 C518 1.531 . S
C515 C514 1.369 . S
C515 C516 1.410 . S
C515 C523 1.503 1_565 S
C516 C515 1.410 . S
C516 C517 1.392 . S
C516 C519 1.511 . S
C517 C513 1.376 . S
C517 C516 1.392 . S
C517 H529 0.929 . S
C518 C514 1.531 . S
C518 H530 0.960 1_565 S
C518 H531 0.962 . S
C518 H532 0.960 . S
C519 C516 1.511 . S
C519 H533 0.961 . S
C519 H534 0.961 . S
C519 H535 0.961 . S
C520 C521 1.370 . S
C520 C522 1.363 . S
C520 H536 0.931 . S
C521 C520 1.370 . S
C521 C525 1.408 . S
C522 C520 1.363 . S
C522 C523 1.370 . S
C522 C526 1.524 . S
C523 C515 1.503 1_545 S
C523 C522 1.370 . S
C523 C524 1.403 . S
C524 C523 1.403 . S
C524 C525 1.404 . S
C524 C527 1.539 . S
C525 C521 1.408 . S
C525 C524 1.404 . S
C525 H537 0.930 . S
C526 C522 1.524 . S
C526 H538 0.956 1_545 S
C526 H539 0.961 1_545 S
C526 H540 0.961 . S
C527 C524 1.539 . S
C527 H541 0.958 . S
C527 H542 0.961 . S
C527 H543 0.960 . S
H528 C512 0.931 . S
H529 C517 0.929 . S
H530 C518 0.960 1_545 S
H531 C518 0.962 . S
H532 C518 0.960 . S
H533 C519 0.961 . S
H534 C519 0.961 . S
H535 C519 0.961 . S
H536 C520 0.931 . S
H537 C525 0.930 . S
H538 C526 0.956 1_565 S
H539 C526 0.961 1_565 S
H540 C526 0.961 . S
H541 C527 0.958 . S
H542 C527 0.961 . S
H543 C527 0.960 . S
C544 C545 1.391 . S
C544 C546 1.394 . S
C544 H560 0.931 . S
C545 C544 1.391 . S
C545 C549 1.376 . S
C546 C544 1.394 . S
C546 C547 1.369 . S
C546 C550 1.531 . S
C547 C546 1.369 . S
C547 C548 1.410 . S
C547 C555 1.503 . S
C548 C547 1.410 . S
C548 C549 1.392 . S
C548 C551 1.511 . S
C549 C545 1.376 . S
C549 C548 1.392 . S
C549 H561 0.929 . S
C550 C546 1.531 . S
C550 H562 0.960 . S
C550 H563 0.962 . S
C550 H564 0.960 . S
C551 C548 1.511 . S
C551 H565 0.961 . S
C551 H566 0.961 . S
C551 H567 0.961 . S
C552 C553 1.370 . S
C552 C554 1.363 . S
C552 H568 0.931 . S
C553 C552 1.370 . S
C553 C557 1.408 . S
C554 C552 1.363 . S
C554 C555 1.370 . S
C554 C558 1.524 . S
C555 C547 1.503 . S
C555 C554 1.370 . S
C555 C556 1.403 . S
C556 C555 1.403 . S
C556 C557 1.404 . S
C556 C559 1.539 . S
C557 C553 1.408 . S
C557 C556 1.404 . S
C557 H569 0.930 . S
C558 C554 1.524 . S
C558 H570 0.956 . S
C558 H571 0.961 . S
C558 H572 0.961 . S
C559 C556 1.539 . S
C559 H573 0.958 . S
C559 H574 0.961 . S
C559 H575 0.960 . S
H560 C544 0.931 . S
H561 C549 0.929 . S
H562 C550 0.960 . S
H563 C550 0.962 . S
H564 C550 0.960 . S
H565 C551 0.961 . S
H566 C551 0.961 . S
H567 C551 0.961 . S
H568 C552 0.931 . S
H569 C557 0.930 . S
H570 C558 0.956 . S
H571 C558 0.961 . S
H572 C558 0.961 . S
H573 C559 0.958 . S
H574 C559 0.961 . S
H575 C559 0.960 . S
C576 C577 1.391 1_556 S
C576 C578 1.394 . S
C576 H592 0.931 . S
C577 C576 1.391 1_554 S
C577 C581 1.376 . S
C578 C576 1.394 . S
C578 C579 1.369 . S
C578 C582 1.531 . S
C579 C578 1.369 . S
C579 C580 1.410 1_556 S
C579 C587 1.503 . S
C580 C579 1.410 1_554 S
C580 C581 1.392 . S
C580 C583 1.511 . S
C581 C577 1.376 . S
C581 C580 1.392 . S
C581 H593 0.929 . S
C582 C578 1.531 . S
C582 H594 0.960 . S
C582 H595 0.962 . S
C582 H596 0.960 . S
C583 C580 1.511 . S
C583 H597 0.961 . S
C583 H598 0.961 . S
C583 H599 0.961 . S
C584 C585 1.370 1_554 S
C584 C586 1.363 . S
C584 H600 0.931 . S
C585 C584 1.370 1_556 S
C585 C589 1.408 . S
C586 C584 1.363 . S
C586 C587 1.370 1_554 S
C586 C590 1.524 . S
C587 C579 1.503 . S
C587 C586 1.370 1_556 S
C587 C588 1.403 . S
C588 C587 1.403 . S
C588 C589 1.404 . S
C588 C591 1.539 . S
C589 C585 1.408 . S
C589 C588 1.404 . S
C589 H601 0.930 . S
C590 C586 1.524 . S
C590 H602 0.956 . S
C590 H603 0.961 . S
C590 H604 0.961 . S
C591 C588 1.539 . S
C591 H605 0.958 . S
C591 H606 0.961 . S
C591 H607 0.960 . S
H592 C576 0.931 . S
H593 C581 0.929 . S
H594 C582 0.960 . S
H595 C582 0.962 . S
H596 C582 0.960 . S
H597 C583 0.961 . S
H598 C583 0.961 . S
H599 C583 0.961 . S
H600 C584 0.931 . S
H601 C589 0.930 . S
H602 C590 0.956 . S
H603 C590 0.961 . S
H604 C590 0.961 . S
H605 C591 0.958 . S
H606 C591 0.961 . S
H607 C591 0.960 . S
C608 C609 1.391 . S
C608 C610 1.394 . S
C608 H624 0.931 . S
C609 C608 1.391 . S
C609 C613 1.376 1_554 S
C610 C608 1.394 . S
C610 C611 1.369 . S
C610 C614 1.531 . S
C611 C610 1.369 . S
C611 C612 1.410 1_554 S
C611 C619 1.503 1_565 S
C612 C611 1.410 1_556 S
C612 C613 1.392 . S
C612 C615 1.511 . S
C613 C609 1.376 1_556 S
C613 C612 1.392 . S
C613 H625 0.929 . S
C614 C610 1.531 . S
C614 H626 0.960 1_565 S
C614 H627 0.962 . S
C614 H628 0.960 . S
C615 C612 1.511 . S
C615 H629 0.961 . S
C615 H630 0.939 1_565 S
C615 H631 0.961 . S
C616 C617 1.370 . S
C616 C618 1.363 . S
C616 H632 0.931 . S
C617 C616 1.370 . S
C617 C621 1.408 1_556 S
C618 C616 1.363 . S
C618 C619 1.370 1_556 S
C618 C622 1.524 . S
C619 C611 1.503 1_545 S
C619 C618 1.370 1_554 S
C619 C620 1.403 . S
C620 C619 1.403 . S
C620 C621 1.404 . S
C620 C623 1.539 . S
C621 C617 1.408 1_554 S
C621 C620 1.404 . S
C621 H633 0.930 . S
C622 C618 1.524 . S
C622 H634 0.956 . S
C622 H635 0.961 1_545 S
C622 H636 0.961 . S
C623 C620 1.539 . S
C623 H637 0.958 . S
C623 H638 0.961 . S
C623 H639 0.960 . S
H624 C608 0.931 . S
H625 C613 0.929 . S
H626 C614 0.960 1_545 S
H627 C614 0.962 . S
H628 C614 0.960 . S
H629 C615 0.961 . S
H630 C615 0.939 1_545 S
H631 C615 0.961 . S
H632 C616 0.931 . S
H633 C621 0.930 . S
H634 C622 0.956 . S
H635 C622 0.961 1_565 S
H636 C622 0.961 . S
H637 C623 0.958 . S
H638 C623 0.961 . S
H639 C623 0.960 . S
C640 C641 1.391 1_556 S
C640 C642 1.394 . S
C640 H656 0.931 . S
C641 C640 1.391 1_554 S
C641 C645 1.376 . S
C642 C640 1.394 . S
C642 C643 1.369 . S
C642 C646 1.531 . S
C643 C642 1.369 . S
C643 C644 1.410 1_556 S
C643 C651 1.503 . S
C644 C643 1.410 1_554 S
C644 C645 1.392 . S
C644 C647 1.511 . S
C645 C641 1.376 . S
C645 C644 1.392 . S
C645 H657 0.929 . S
C646 C642 1.531 . S
C646 H658 0.960 . S
C646 H659 0.962 . S
C646 H660 0.960 . S
C647 C644 1.511 . S
C647 H661 0.961 . S
C647 H662 0.961 . S
C647 H663 0.961 . S
C648 C649 1.370 1_554 S
C648 C650 1.363 . S
C648 H664 0.931 . S
C649 C648 1.370 1_556 S
C649 C653 1.408 . S
C650 C648 1.363 . S
C650 C651 1.370 1_554 S
C650 C654 1.524 . S
C651 C643 1.503 . S
C651 C650 1.370 1_556 S
C651 C652 1.403 . S
C652 C651 1.403 . S
C652 C653 1.404 . S
C652 C655 1.539 . S
C653 C649 1.408 . S
C653 C652 1.404 . S
C653 H665 0.930 . S
C654 C650 1.524 . S
C654 H666 0.956 . S
C654 H667 0.961 . S
C654 H668 0.961 . S
C655 C652 1.539 . S
C655 H669 0.958 . S
C655 H670 0.961 . S
C655 H671 0.960 . S
H656 C640 0.931 . S
H657 C645 0.929 . S
H658 C646 0.960 . S
H659 C646 0.962 . S
H660 C646 0.960 . S
H661 C647 0.961 . S
H662 C647 0.961 . S
H663 C647 0.961 . S
H664 C648 0.931 . S
H665 C653 0.930 . S
H666 C654 0.956 . S
H667 C654 0.961 . S
H668 C654 0.961 . S
H669 C655 0.958 . S
H670 C655 0.961 . S
H671 C655 0.960 . S
C672 C673 1.391 . S
C672 C674 1.394 . S
C672 H688 0.931 . S
C673 C672 1.391 . S
C673 C677 1.376 1_554 S
C674 C672 1.394 . S
C674 C675 1.369 1_554 S
C674 C678 1.531 . S
C675 C674 1.369 1_556 S
C675 C676 1.410 . S
C675 C683 1.503 1_545 S
C676 C675 1.410 . S
C676 C677 1.392 . S
C676 C679 1.511 . S
C677 C673 1.376 1_556 S
C677 C676 1.392 . S
C677 H689 0.929 . S
C678 C674 1.531 . S
C678 H690 0.960 1_544 S
C678 H691 0.962 . S
C678 H692 0.964 . S
C679 C676 1.511 . S
C679 H693 0.961 . S
C679 H694 0.961 1_545 S
C679 H695 0.961 . S
C680 C681 1.370 1_554 S
C680 C682 1.363 . S
C680 H696 0.931 . S
C681 C680 1.370 1_556 S
C681 C685 1.408 . S
C682 C680 1.363 . S
C682 C683 1.370 1_554 S
C682 C686 1.524 . S
C683 C675 1.503 1_565 S
C683 C682 1.370 1_556 S
C683 C684 1.403 . S
C684 C683 1.403 . S
C684 C685 1.404 . S
C684 C687 1.539 . S
C685 C681 1.408 . S
C685 C684 1.404 . S
C685 H697 0.930 . S
C686 C682 1.524 . S
C686 H698 0.956 . S
C686 H699 0.966 . S
C686 H700 0.961 . S
C687 C684 1.539 . S
C687 H701 0.958 . S
C687 H702 0.961 . S
C687 H703 0.960 1_565 S
H688 C672 0.931 . S
H689 C677 0.929 . S
H690 C678 0.960 1_566 S
H691 C678 0.962 . S
H692 C678 0.964 . S
H693 C679 0.961 . S
H694 C679 0.961 1_565 S
H695 C679 0.961 . S
H696 C680 0.931 . S
H697 C685 0.930 . S
H698 C686 0.956 . S
H699 C686 0.966 . S
H700 C686 0.961 . S
H701 C687 0.958 . S
H702 C687 0.961 . S
H703 C687 0.960 1_545 S
C704 C705 1.391 . S
C704 C706 1.394 . S
C704 H720 0.931 . S
C705 C704 1.391 . S
C705 C709 1.376 . S
C706 C704 1.394 . S
C706 C707 1.369 1_554 S
C706 C710 1.531 1_554 S
C707 C706 1.369 1_556 S
C707 C708 1.410 1_556 S
C707 C715 1.503 . S
C708 C707 1.410 1_554 S
C708 C709 1.392 . S
C708 C711 1.511 . S
C709 C705 1.376 . S
C709 C708 1.392 . S
C709 H721 0.929 . S
C710 C706 1.531 1_556 S
C710 H722 0.960 . S
C710 H723 0.962 . S
C710 H724 0.960 1_556 S
C711 C708 1.511 . S
C711 H725 0.961 . S
C711 H726 0.961 1_554 S
C711 H727 0.961 . S
C712 C713 1.370 . S
C712 C714 1.363 . S
C712 H728 0.931 . S
C713 C712 1.370 . S
C713 C717 1.408 . S
C714 C712 1.363 . S
C714 C715 1.370 . S
C714 C718 1.524 . S
C715 C707 1.503 . S
C715 C714 1.370 . S
C715 C716 1.403 . S
C716 C715 1.403 . S
C716 C717 1.404 . S
C716 C719 1.539 . S
C717 C713 1.408 . S
C717 C716 1.404 . S
C717 H729 0.930 . S
C718 C714 1.524 . S
C718 H730 0.956 . S
C718 H731 0.961 . S
C718 H732 0.961 . S
C719 C716 1.539 . S
C719 H733 0.958 . S
C719 H734 0.961 . S
C719 H735 0.960 . S
H720 C704 0.931 . S
H721 C709 0.929 . S
H722 C710 0.960 . S
H723 C710 0.962 . S
H724 C710 0.960 1_554 S
H725 C711 0.961 . S
H726 C711 0.961 1_556 S
H727 C711 0.961 . S
H728 C712 0.931 . S
H729 C717 0.930 . S
H730 C718 0.956 . S
H731 C718 0.961 . S
H732 C718 0.961 . S
H733 C719 0.958 . S
H734 C719 0.961 . S
H735 C719 0.960 . S
C736 C737 1.391 . S
C736 C738 1.394 . S
C736 H752 0.931 . S
C737 C736 1.391 . S
C737 C741 1.376 . S
C738 C736 1.394 . S
C738 C739 1.369 . S
C738 C742 1.531 1_554 S
C739 C738 1.369 . S
C739 C740 1.409 . S
C739 C747 1.504 1_554 S
C740 C739 1.409 . S
C740 C741 1.392 . S
C740 C743 1.511 . S
C741 C737 1.376 . S
C741 C740 1.392 . S
C741 H753 0.929 . S
C742 C738 1.531 1_556 S
C742 H754 0.960 . S
C742 H755 0.962 . S
C742 H756 0.960 1_556 S
C743 C740 1.511 . S
C743 H757 0.961 . S
C743 H758 0.961 1_554 S
C743 H759 0.961 . S
C744 C745 1.370 . S
C744 C746 1.363 . S
C744 H760 0.931 . S
C745 C744 1.370 . S
C745 C749 1.408 . S
C746 C744 1.363 . S
C746 C747 1.370 . S
C746 C750 1.524 . S
C747 C739 1.504 1_556 S
C747 C746 1.370 . S
C747 C748 1.403 . S
C748 C747 1.403 . S
C748 C749 1.404 . S
C748 C751 1.539 . S
C749 C745 1.408 . S
C749 C748 1.404 . S
C749 H761 0.930 . S
C750 C746 1.524 . S
C750 H762 0.956 . S
C750 H763 0.961 . S
C750 H764 0.961 . S
C751 C748 1.539 . S
C751 H765 0.958 . S
C751 H766 0.961 . S
C751 H767 0.960 . S
H752 C736 0.931 . S
H753 C741 0.929 . S
H754 C742 0.960 . S
H755 C742 0.962 . S
H756 C742 0.960 1_554 S
H757 C743 0.961 . S
H758 C743 0.961 1_556 S
H759 C743 0.961 . S
H760 C744 0.931 . S
H761 C749 0.930 . S
H762 C750 0.956 . S
H763 C750 0.961 . S
H764 C750 0.961 . S
H765 C751 0.958 . S
H766 C751 0.961 . S
H767 C751 0.960 . S
C768 C769 1.391 . S
C768 C770 1.394 . S
C768 H784 0.931 . S
C769 C768 1.391 . S
C769 C773 1.376 . S
C770 C768 1.394 . S
C770 C771 1.369 . S
C770 C774 1.531 . S
C771 C770 1.369 . S
C771 C772 1.410 . S
C771 C779 1.503 . S
C772 C771 1.410 . S
C772 C773 1.392 . S
C772 C775 1.511 . S
C773 C769 1.376 . S
C773 C772 1.392 . S
C773 H785 0.929 . S
C774 C770 1.531 . S
C774 H786 0.960 . S
C774 H787 0.962 . S
C774 H788 0.960 . S
C775 C772 1.511 . S
C775 H789 0.961 . S
C775 H790 0.961 . S
C775 H791 0.961 . S
C776 C777 1.370 . S
C776 C778 1.363 . S
C776 H792 0.931 . S
C777 C776 1.370 . S
C777 C781 1.408 . S
C778 C776 1.363 . S
C778 C779 1.370 1_556 S
C778 C782 1.524 . S
C779 C771 1.503 . S
C779 C778 1.370 1_554 S
C779 C780 1.403 1_554 S
C780 C779 1.403 1_556 S
C780 C781 1.404 . S
C780 C783 1.539 1_556 S
C781 C777 1.408 . S
C781 C780 1.404 . S
C781 H793 0.930 . S
C782 C778 1.524 . S
C782 H794 0.956 1_556 S
C782 H795 0.961 1_556 S
C782 H796 0.961 . S
C783 C780 1.539 1_554 S
C783 H797 0.958 . S
C783 H798 0.961 1_554 S
C783 H799 0.960 . S
H784 C768 0.931 . S
H785 C773 0.929 . S
H786 C774 0.960 . S
H787 C774 0.962 . S
H788 C774 0.960 . S
H789 C775 0.961 . S
H790 C775 0.961 . S
H791 C775 0.961 . S
H792 C776 0.931 . S
H793 C781 0.930 . S
H794 C782 0.956 1_554 S
H795 C782 0.961 1_554 S
H796 C782 0.961 . S
H797 C783 0.958 . S
H798 C783 0.961 1_556 S
H799 C783 0.960 . S
C800 C801 1.391 . S
C800 C802 1.394 . S
C800 H816 0.931 . S
C801 C800 1.391 . S
C801 C805 1.376 . S
C802 C800 1.394 . S
C802 C803 1.369 1_556 S
C802 C806 1.531 . S
C803 C802 1.369 1_554 S
C803 C804 1.410 1_554 S
C803 C811 1.503 . S
C804 C803 1.410 1_556 S
C804 C805 1.392 . S
C804 C807 1.511 1_556 S
C805 C801 1.376 . S
C805 C804 1.392 . S
C805 H817 0.929 . S
C806 C802 1.531 . S
C806 H818 0.960 1_556 S
C806 H819 0.962 . S
C806 H820 0.960 . S
C807 C804 1.511 1_554 S
C807 H821 0.961 1_554 S
C807 H822 0.961 . S
C807 H823 0.961 . S
C808 C809 1.370 . S
C808 C810 1.363 . S
C808 H824 0.931 . S
C809 C808 1.370 . S
C809 C813 1.408 . S
C810 C808 1.363 . S
C810 C811 1.370 . S
C810 C814 1.524 . S
C811 C803 1.503 . S
C811 C810 1.370 . S
C811 C812 1.403 . S
C812 C811 1.403 . S
C812 C813 1.404 . S
C812 C815 1.539 . S
C813 C809 1.408 . S
C813 C812 1.404 . S
C813 H825 0.930 . S
C814 C810 1.524 . S
C814 H826 0.956 . S
C814 H827 0.961 . S
C814 H828 0.961 . S
C815 C812 1.539 . S
C815 H829 0.958 . S
C815 H830 0.961 . S
C815 H831 0.960 . S
H816 C800 0.931 . S
H817 C805 0.929 . S
H818 C806 0.960 1_554 S
H819 C806 0.962 . S
H820 C806 0.960 . S
H821 C807 0.961 1_556 S
H822 C807 0.961 . S
H823 C807 0.961 . S
H824 C808 0.931 . S
H825 C813 0.930 . S
H826 C814 0.956 . S
H827 C814 0.961 . S
H828 C814 0.961 . S
H829 C815 0.958 . S
H830 C815 0.961 . S
H831 C815 0.960 . S
C832 C833 1.391 . S
C832 C834 1.394 . S
C832 H848 0.931 . S
C833 C832 1.391 . S
C833 C837 1.376 . S
C834 C832 1.394 . S
C834 C835 1.369 . S
C834 C838 1.531 . S
C835 C834 1.369 . S
C835 C836 1.410 . S
C835 C843 1.503 . S
C836 C835 1.410 . S
C836 C837 1.392 . S
C836 C839 1.511 . S
C837 C833 1.376 . S
C837 C836 1.392 . S
C837 H849 0.929 . S
C838 C834 1.531 . S
C838 H850 0.960 . S
C838 H851 0.962 . S
C838 H852 0.960 . S
C839 C836 1.511 . S
C839 H853 0.961 . S
C839 H854 0.961 . S
C839 H855 0.961 . S
C840 C841 1.370 . S
C840 C842 1.363 . S
C840 H856 0.931 . S
C841 C840 1.370 . S
C841 C845 1.408 . S
C842 C840 1.363 . S
C842 C843 1.370 . S
C842 C846 1.524 . S
C843 C835 1.503 . S
C843 C842 1.370 . S
C843 C844 1.403 . S
C844 C843 1.403 . S
C844 C845 1.404 . S
C844 C847 1.539 . S
C845 C841 1.408 . S
C845 C844 1.404 . S
C845 H857 0.930 . S
C846 C842 1.524 . S
C846 H858 0.956 . S
C846 H859 0.961 . S
C846 H860 0.961 . S
C847 C844 1.539 . S
C847 H861 0.958 . S
C847 H862 0.961 . S
C847 H863 0.960 . S
H848 C832 0.931 . S
H849 C837 0.929 . S
H850 C838 0.960 . S
H851 C838 0.962 . S
H852 C838 0.960 . S
H853 C839 0.961 . S
H854 C839 0.961 . S
H855 C839 0.961 . S
H856 C840 0.931 . S
H857 C845 0.930 . S
H858 C846 0.956 . S
H859 C846 0.961 . S
H860 C846 0.961 . S
H861 C847 0.958 . S
H862 C847 0.961 . S
H863 C847 0.960 . S
C864 C865 1.391 . S
C864 C866 1.394 . S
C864 H880 0.931 . S
C865 C864 1.391 . S
C865 C869 1.376 . S
C866 C864 1.394 . S
C866 C867 1.369 . S
C866 C870 1.531 . S
C867 C866 1.369 . S
C867 C868 1.410 . S
C867 C875 1.503 . S
C868 C867 1.410 . S
C868 C869 1.392 . S
C868 C871 1.511 . S
C869 C865 1.376 . S
C869 C868 1.392 . S
C869 H881 0.929 . S
C870 C866 1.531 . S
C870 H882 0.960 . S
C870 H883 0.962 . S
C870 H884 0.960 . S
C871 C868 1.511 . S
C871 H885 0.961 . S
C871 H886 0.961 . S
C871 H887 0.961 . S
C872 C873 1.370 . S
C872 C874 1.363 . S
C872 H888 0.931 . S
C873 C872 1.370 . S
C873 C877 1.408 . S
C874 C872 1.363 . S
C874 C875 1.370 . S
C874 C878 1.524 . S
C875 C867 1.503 . S
C875 C874 1.370 . S
C875 C876 1.403 . S
C876 C875 1.403 . S
C876 C877 1.404 . S
C876 C879 1.539 . S
C877 C873 1.408 . S
C877 C876 1.404 . S
C877 H889 0.930 . S
C878 C874 1.524 . S
C878 H890 0.956 . S
C878 H891 0.961 . S
C878 H892 0.961 . S
C879 C876 1.539 . S
C879 H893 0.958 . S
C879 H894 0.961 . S
C879 H895 0.960 . S
H880 C864 0.931 . S
H881 C869 0.929 . S
H882 C870 0.960 . S
H883 C870 0.962 . S
H884 C870 0.960 . S
H885 C871 0.961 . S
H886 C871 0.961 . S
H887 C871 0.961 . S
H888 C872 0.931 . S
H889 C877 0.930 . S
H890 C878 0.956 . S
H891 C878 0.961 . S
H892 C878 0.961 . S
H893 C879 0.958 . S
H894 C879 0.961 . S
H895 C879 0.960 . S
C896 C897 1.391 . S
C896 C898 1.394 . S
C896 H912 0.931 . S
C897 C896 1.391 . S
C897 C901 1.376 . S
C898 C896 1.394 . S
C898 C899 1.369 . S
C898 C902 1.531 . S
C899 C898 1.369 . S
C899 C900 1.410 . S
C899 C907 1.503 . S
C900 C899 1.410 . S
C900 C901 1.392 . S
C900 C903 1.511 . S
C901 C897 1.376 . S
C901 C900 1.392 . S
C901 H913 0.929 . S
C902 C898 1.531 . S
C902 H914 0.960 . S
C902 H915 0.962 . S
C902 H916 0.960 . S
C903 C900 1.511 . S
C903 H917 0.961 . S
C903 H918 0.961 . S
C903 H919 0.961 . S
C904 C905 1.370 . S
C904 C906 1.363 . S
C904 H920 0.931 . S
C905 C904 1.370 . S
C905 C909 1.408 . S
C906 C904 1.363 . S
C906 C907 1.370 . S
C906 C910 1.524 . S
C907 C899 1.503 . S
C907 C906 1.370 . S
C907 C908 1.403 . S
C908 C907 1.403 . S
C908 C909 1.404 . S
C908 C911 1.539 . S
C909 C905 1.408 . S
C909 C908 1.404 . S
C909 H921 0.930 . S
C910 C906 1.524 . S
C910 H922 0.956 . S
C910 H923 0.961 . S
C910 H924 0.961 . S
C911 C908 1.539 . S
C911 H925 0.958 . S
C911 H926 0.961 . S
C911 H927 0.960 . S
H912 C896 0.931 . S
H913 C901 0.929 . S
H914 C902 0.960 . S
H915 C902 0.962 . S
H916 C902 0.960 . S
H917 C903 0.961 . S
H918 C903 0.961 . S
H919 C903 0.961 . S
H920 C904 0.931 . S
H921 C909 0.930 . S
H922 C910 0.956 . S
H923 C910 0.961 . S
H924 C910 0.961 . S
H925 C911 0.958 . S
H926 C911 0.961 . S
H927 C911 0.960 . S
C928 C929 1.391 . S
C928 C930 1.394 . S
C928 H944 0.931 . S
C929 C928 1.391 . S
C929 C933 1.376 . S
C930 C928 1.394 . S
C930 C931 1.369 . S
C930 C934 1.531 . S
C931 C930 1.369 . S
C931 C932 1.410 . S
C931 C939 1.503 . S
C932 C931 1.410 . S
C932 C933 1.392 . S
C932 C935 1.511 . S
C933 C929 1.376 . S
C933 C932 1.392 . S
C933 H945 0.929 . S
C934 C930 1.531 . S
C934 H946 0.960 . S
C934 H947 0.962 . S
C934 H948 0.960 . S
C935 C932 1.511 . S
C935 H949 0.961 . S
C935 H950 0.961 . S
C935 H951 0.961 . S
C936 C937 1.370 . S
C936 C938 1.363 . S
C936 H952 0.931 . S
C937 C936 1.370 . S
C937 C941 1.408 . S
C938 C936 1.363 . S
C938 C939 1.370 . S
C938 C942 1.524 . S
C939 C931 1.503 . S
C939 C938 1.370 . S
C939 C940 1.403 . S
C940 C939 1.403 . S
C940 C941 1.404 . S
C940 C943 1.539 . S
C941 C937 1.408 . S
C941 C940 1.404 . S
C941 H953 0.930 . S
C942 C938 1.524 . S
C942 H954 0.956 . S
C942 H955 0.961 . S
C942 H956 0.961 . S
C943 C940 1.539 . S
C943 H957 0.958 . S
C943 H958 0.961 . S
C943 H959 0.960 . S
H944 C928 0.931 . S
H945 C933 0.929 . S
H946 C934 0.960 . S
H947 C934 0.962 . S
H948 C934 0.960 . S
H949 C935 0.961 . S
H950 C935 0.961 . S
H951 C935 0.961 . S
H952 C936 0.931 . S
H953 C941 0.930 . S
H954 C942 0.956 . S
H955 C942 0.961 . S
H956 C942 0.961 . S
H957 C943 0.958 . S
H958 C943 0.961 . S
H959 C943 0.960 . S
C960 C961 1.391 . S
C960 C962 1.394 . S
C960 H976 0.931 . S
C961 C960 1.391 . S
C961 C965 1.376 . S
C962 C960 1.394 . S
C962 C963 1.369 . S
C962 C966 1.531 . S
C963 C962 1.369 . S
C963 C964 1.410 . S
C963 C971 1.503 1_455 S
C964 C963 1.410 . S
C964 C965 1.392 . S
C964 C967 1.511 . S
C965 C961 1.376 . S
C965 C964 1.392 . S
C965 H977 0.929 . S
C966 C962 1.531 . S
C966 H978 0.960 1_455 S
C966 H979 0.962 . S
C966 H980 0.960 . S
C967 C964 1.511 . S
C967 H981 0.961 . S
C967 H982 0.966 . S
C967 H983 0.961 . S
C968 C969 1.370 . S
C968 C970 1.363 . S
C968 H984 0.931 . S
C969 C968 1.370 . S
C969 C973 1.408 . S
C970 C968 1.363 . S
C970 C971 1.370 . S
C970 C974 1.524 . S
C971 C963 1.503 1_655 S
C971 C970 1.370 . S
C971 C972 1.403 . S
C972 C971 1.403 . S
C972 C973 1.404 . S
C972 C975 1.539 . S
C973 C969 1.408 . S
C973 C972 1.404 . S
C973 H985 0.930 . S
C974 C970 1.524 . S
C974 H986 0.956 . S
C974 H987 0.910 1_655 S
C974 H988 0.961 . S
C975 C972 1.539 . S
C975 H989 0.958 . S
C975 H990 0.961 . S
C975 H991 0.916 1_655 S
H976 C960 0.931 . S
H977 C965 0.929 . S
H978 C966 0.960 1_655 S
H979 C966 0.962 . S
H980 C966 0.960 . S
H981 C967 0.961 . S
H982 C967 0.966 . S
H983 C967 0.961 . S
H984 C968 0.931 . S
H985 C973 0.930 . S
H986 C974 0.956 . S
H987 C974 0.910 1_455 S
H988 C974 0.961 . S
H989 C975 0.958 . S
H990 C975 0.961 . S
H991 C975 0.916 1_455 S
C992 C993 1.391 . S
C992 C994 1.394 . S
C992 H1008 0.931 . S
C993 C992 1.391 . S
C993 C997 1.376 . S
C994 C992 1.394 . S
C994 C995 1.369 . S
C994 C998 1.531 . S
C995 C994 1.369 . S
C995 C996 1.410 . S
C995 C1003 1.503 1_655 S
C996 C995 1.410 . S
C996 C997 1.392 . S
C996 C999 1.511 . S
C997 C993 1.376 . S
C997 C996 1.392 . S
C997 H1009 0.929 . S
C998 C994 1.531 . S
C998 H1010 0.960 1_655 S
C998 H1011 0.962 . S
C998 H1012 0.960 . S
C999 C996 1.511 . S
C999 H1013 0.961 . S
C999 H1014 0.961 1_655 S
C999 H1015 0.961 . S
C1000 C1001 1.370 . S
C1000 C1002 1.363 . S
C1000 H1016 0.931 . S
C1001 C1000 1.370 . S
C1001 C1005 1.408 . S
C1002 C1000 1.363 . S
C1002 C1003 1.370 . S
C1002 C1006 1.524 . S
C1003 C995 1.503 1_455 S
C1003 C1002 1.370 . S
C1003 C1004 1.403 . S
C1004 C1003 1.403 . S
C1004 C1005 1.404 . S
C1004 C1007 1.539 . S
C1005 C1001 1.408 . S
C1005 C1004 1.404 . S
C1005 H1017 0.930 . S
C1006 C1002 1.524 . S
C1006 H1018 0.909 1_455 S
C1006 H1019 0.961 1_455 S
C1006 H1020 0.961 . S
C1007 C1004 1.539 . S
C1007 H1021 0.958 . S
C1007 H1022 0.961 . S
C1007 H1023 0.960 . S
H1008 C992 0.931 . S
H1009 C997 0.929 . S
H1010 C998 0.960 1_455 S
H1011 C998 0.962 . S
H1012 C998 0.960 . S
H1013 C999 0.961 . S
H1014 C999 0.961 1_455 S
H1015 C999 0.961 . S
H1016 C1000 0.931 . S
H1017 C1005 0.930 . S
H1018 C1006 0.909 1_655 S
H1019 C1006 0.961 1_655 S
H1020 C1006 0.961 . S
H1021 C1007 0.958 . S
H1022 C1007 0.961 . S
H1023 C1007 0.960 . S
C1024 C1025 1.391 . S
C1024 C1026 1.394 . S
C1024 H1040 0.931 . S
C1025 C1024 1.391 . S
C1025 C1029 1.376 . S
C1026 C1024 1.394 . S
C1026 C1027 1.369 . S
C1026 C1030 1.531 . S
C1027 C1026 1.369 . S
C1027 C1028 1.410 . S
C1027 C1035 1.503 . S
C1028 C1027 1.410 . S
C1028 C1029 1.392 . S
C1028 C1031 1.511 . S
C1029 C1025 1.376 . S
C1029 C1028 1.392 . S
C1029 H1041 0.929 . S
C1030 C1026 1.531 . S
C1030 H1042 0.960 . S
C1030 H1043 0.962 . S
C1030 H1044 0.960 . S
C1031 C1028 1.511 . S
C1031 H1045 0.961 . S
C1031 H1046 0.961 . S
C1031 H1047 0.961 . S
C1032 C1033 1.370 . S
C1032 C1034 1.363 . S
C1032 H1048 0.931 . S
C1033 C1032 1.370 . S
C1033 C1037 1.408 . S
C1034 C1032 1.363 . S
C1034 C1035 1.370 . S
C1034 C1038 1.524 . S
C1035 C1027 1.503 . S
C1035 C1034 1.370 . S
C1035 C1036 1.403 . S
C1036 C1035 1.403 . S
C1036 C1037 1.404 . S
C1036 C1039 1.539 . S
C1037 C1033 1.408 . S
C1037 C1036 1.404 . S
C1037 H1049 0.930 . S
C1038 C1034 1.524 . S
C1038 H1050 0.956 . S
C1038 H1051 0.961 . S
C1038 H1052 0.961 . S
C1039 C1036 1.539 . S
C1039 H1053 0.958 . S
C1039 H1054 0.961 . S
C1039 H1055 0.960 . S
H1040 C1024 0.931 . S
H1041 C1029 0.929 . S
H1042 C1030 0.960 . S
H1043 C1030 0.962 . S
H1044 C1030 0.960 . S
H1045 C1031 0.961 . S
H1046 C1031 0.961 . S
H1047 C1031 0.961 . S
H1048 C1032 0.931 . S
H1049 C1037 0.930 . S
H1050 C1038 0.956 . S
H1051 C1038 0.961 . S
H1052 C1038 0.961 . S
H1053 C1039 0.958 . S
H1054 C1039 0.961 . S
H1055 C1039 0.960 . S
C1056 C1057 1.391 . S
C1056 C1058 1.394 . S
C1056 H1072 0.931 . S
C1057 C1056 1.391 . S
C1057 C1061 1.376 . S
C1058 C1056 1.394 . S
C1058 C1059 1.369 . S
C1058 C1062 1.531 . S
C1059 C1058 1.369 . S
C1059 C1060 1.410 . S
C1059 C1067 1.503 . S
C1060 C1059 1.410 . S
C1060 C1061 1.392 . S
C1060 C1063 1.511 . S
C1061 C1057 1.376 . S
C1061 C1060 1.392 . S
C1061 H1073 0.929 . S
C1062 C1058 1.531 . S
C1062 H1074 0.960 . S
C1062 H1075 0.962 . S
C1062 H1076 0.960 . S
C1063 C1060 1.511 . S
C1063 H1077 0.961 . S
C1063 H1078 0.961 . S
C1063 H1079 0.961 . S
C1064 C1065 1.370 . S
C1064 C1066 1.363 . S
C1064 H1080 0.931 . S
C1065 C1064 1.370 . S
C1065 C1069 1.408 . S
C1066 C1064 1.363 . S
C1066 C1067 1.370 . S
C1066 C1070 1.524 . S
C1067 C1059 1.503 . S
C1067 C1066 1.370 . S
C1067 C1068 1.403 . S
C1068 C1067 1.403 . S
C1068 C1069 1.404 . S
C1068 C1071 1.539 . S
C1069 C1065 1.408 . S
C1069 C1068 1.404 . S
C1069 H1081 0.930 . S
C1070 C1066 1.524 . S
C1070 H1082 0.956 . S
C1070 H1083 0.961 . S
C1070 H1084 0.961 . S
C1071 C1068 1.539 . S
C1071 H1085 0.958 . S
C1071 H1086 0.961 . S
C1071 H1087 0.960 . S
H1072 C1056 0.931 . S
H1073 C1061 0.929 . S
H1074 C1062 0.960 . S
H1075 C1062 0.962 . S
H1076 C1062 0.960 . S
H1077 C1063 0.961 . S
H1078 C1063 0.961 . S
H1079 C1063 0.961 . S
H1080 C1064 0.931 . S
H1081 C1069 0.930 . S
H1082 C1070 0.956 . S
H1083 C1070 0.961 . S
H1084 C1070 0.961 . S
H1085 C1071 0.958 . S
H1086 C1071 0.961 . S
H1087 C1071 0.960 . S
C321 C17 1.653 . S
C329 C297 1.657 . S
C353 C257 1.653 . S
C361 C57 1.658 . S
C385 C217 1.654 . S
C393 C97 1.657 . S
C417 C177 1.653 . S
C425 C137 1.658 . S
C449 C82 1.054 . S
C457 C2 1.071 . S
C481 C42 1.065 . S
C489 C122 1.076 . S
C513 C143 1.975 . S
C521 C63 1.961 . S
C545 C103 1.975 . S
C553 C23 1.962 . S
C577 C162 1.056 . S
C585 C242 1.058 . S
C609 C202 1.012 . S
C617 C282 1.025 . S
C641 C303 1.858 . S
C649 C223 1.878 . S
C673 C263 1.879 . S
C681 C183 1.889 . S
C705 C13 1.898 . S
C713 C24 1.886 . S
C737 C53 1.884 . S
C745 C64 1.892 . S
C769 C104 1.874 . S
C777 C93 1.894 . S
C801 C133 1.890 . S
C809 C144 1.887 . S
C833 C184 1.901 . S
C841 C173 1.883 . S
C865 C213 1.883 . S
C873 C224 1.890 . S
C897 C253 1.875 . S
C905 C264 1.895 . S
C929 C293 1.894 . S
C937 C304 1.888 . S
C961 C26 2.150 . S
C969 C66 2.149 . S
C993 C146 2.139 . S
C1001 C106 2.143 . S
C1025 C186 2.151 . S
C1033 C226 2.149 . S
C1057 C306 2.149 . S
C1065 C266 2.149 . S
