# Generated by pormake.
# Topology xbj, (5)-cn, num edge types: 1
# Building blocks:
#     Node 0, Type 0, BuildingBlock: XOMCOT_clean_sbu_1, # of connection points: 5
#     Node 1, Type 0, BuildingBlock: XOMCOT_clean_sbu_1, # of connection points: 5
#     Node 2, Type 0, BuildingBlock: XOMCOT_clean_sbu_1, # of connection points: 5
#     Node 3, Type 0, BuildingBlock: XOMCOT_clean_sbu_1, # of connection points: 5
#     Node 4, Type 0, BuildingBlock: XOMCOT_clean_sbu_1, # of connection points: 5
#     Node 5, Type 0, BuildingBlock: XOMCOT_clean_sbu_1, # of connection points: 5
#     Node 6, Type 0, BuildingBlock: XOMCOT_clean_sbu_1, # of connection points: 5
#     Node 7, Type 0, BuildingBlock: XOMCOT_clean_sbu_1, # of connection points: 5
#     Edge 8, Type (0, 0), BuildingBlock: MIFKUJ_clean_linker_0, # of connection points: 2
#     Edge 9, Type (0, 0), BuildingBlock: MIFKUJ_clean_linker_0, # of connection points: 2
#     Edge 10, Type (0, 0), BuildingBlock: MIFKUJ_clean_linker_0, # of connection points: 2
#     Edge 11, Type (0, 0), BuildingBlock: MIFKUJ_clean_linker_0, # of connection points: 2
#     Edge 12, Type (0, 0), BuildingBlock: MIFKUJ_clean_linker_0, # of connection points: 2
#     Edge 13, Type (0, 0), BuildingBlock: MIFKUJ_clean_linker_0, # of connection points: 2
#     Edge 14, Type (0, 0), BuildingBlock: MIFKUJ_clean_linker_0, # of connection points: 2
#     Edge 15, Type (0, 0), BuildingBlock: MIFKUJ_clean_linker_0, # of connection points: 2
#     Edge 16, Type (0, 0), BuildingBlock: MIFKUJ_clean_linker_0, # of connection points: 2
#     Edge 17, Type (0, 0), BuildingBlock: MIFKUJ_clean_linker_0, # of connection points: 2
#     Edge 18, Type (0, 0), BuildingBlock: MIFKUJ_clean_linker_0, # of connection points: 2
#     Edge 19, Type (0, 0), BuildingBlock: MIFKUJ_clean_linker_0, # of connection points: 2
#     Edge 20, Type (0, 0), BuildingBlock: MIFKUJ_clean_linker_0, # of connection points: 2
#     Edge 21, Type (0, 0), BuildingBlock: MIFKUJ_clean_linker_0, # of connection points: 2
#     Edge 22, Type (0, 0), BuildingBlock: MIFKUJ_clean_linker_0, # of connection points: 2
#     Edge 23, Type (0, 0), BuildingBlock: MIFKUJ_clean_linker_0, # of connection points: 2
#     Edge 24, Type (0, 0), BuildingBlock: MIFKUJ_clean_linker_0, # of connection points: 2
#     Edge 25, Type (0, 0), BuildingBlock: MIFKUJ_clean_linker_0, # of connection points: 2
#     Edge 26, Type (0, 0), BuildingBlock: MIFKUJ_clean_linker_0, # of connection points: 2
#     Edge 27, Type (0, 0), BuildingBlock: MIFKUJ_clean_linker_0, # of connection points: 2
# Relax obj value: 0.199
# Max RMSD: 0.174
# Mean RMSD: 0.167
data_MOF--net-xbj--node1-XOMCOT_clean_sbu_1--edge1-MIFKUJ_clean_linker_0
_symmetry_space_group_name_H-M    P1
_symmetry_Int_Tables_number       1
_symmetry_cell_setting            triclinic
loop_
_symmetry_equiv_pos_as_xyz
'x, y, z'
_cell_length_a     22.171916
_cell_length_b     22.190133
_cell_length_c     137.80019
_cell_angle_alpha  95.784051
_cell_angle_beta   95.87378
_cell_angle_gamma 88.861096
loop_
_atom_site_label
_atom_site_type_symbol
_atom_site_fract_x
_atom_site_fract_y
_atom_site_fract_z
_atom_type_partial_charge
C0 C 0.20971 0.97422 0.04286 0.0
C1 C 0.27125 0.98246 0.0443 0.0
N2 N 0.29782 0.93012 0.04663 0.0
N3 N 0.19674 0.91625 0.04395 0.0
C4 C 0.25152 0.89123 0.04674 0.0
H5 H 0.17655 1.00816 0.04078 0.0
Co6 Co 0.11644 0.88581 0.0414 0.0
C7 C 0.18631 0.7858 0.0297 0.0
O8 O 0.23827 0.81346 0.02993 0.0
N9 N 0.03581 0.85756 0.03901 0.0
C10 C 0.95058 0.82231 0.03062 0.0
C11 C 1.01221 0.82647 0.03059 0.0
C12 C 0.98716 0.87177 0.04407 0.0
N13 N 0.93449 0.85116 0.03905 0.0
O14 O 0.1276 0.84354 0.0527 0.0
H15 H 0.03745 0.81133 0.02448 0.0
H16 H 0.98982 0.90016 0.05096 0.0
O17 O 0.14202 0.81219 0.0337 0.0
C18 C 0.12889 0.87197 0.06118 0.0
O19 O 0.12719 0.93148 0.06206 0.0
N20 N 0.1027 0.92877 0.03028 0.0
C21 C 0.06507 0.98736 0.01373 0.0
C22 C 0.1155 0.94821 0.01383 0.0
C23 C 0.13374 0.91949 0.0222 0.0
C24 C 0.05661 0.97037 0.03058 0.0
C25 C 0.03638 0.99956 0.02232 0.0
H26 H 0.17224 0.88949 0.02208 0.0
H27 H 0.03383 0.97919 0.03715 0.0
H28 H 0.25775 0.8444 0.04822 0.0
H29 H 0.29497 0.02335 0.04337 0.0
H30 H 0.91964 0.80145 0.0247 0.0
H31 H 0.1392 0.93782 0.00736 0.0
H32 H 0.99802 0.03046 0.0226 0.0
C33 C 0.50529 0.82536 0.29485 0.0
C34 C 0.49925 0.8874 0.29603 0.0
N35 N 0.54839 0.91209 0.29305 0.0
N36 N 0.55832 0.81009 0.29123 0.0
C37 C 0.58319 0.8641 0.29012 0.0
H38 H 0.47162 0.79347 0.29617 0.0
Co39 Co 0.58142 0.72915 0.28748 0.0
C40 C 0.70508 0.78059 0.29099 0.0
O41 O 0.69826 0.80465 0.29992 0.0
N42 N 0.6036 0.64826 0.28365 0.0
C43 C 0.64505 0.56868 0.27561 0.0
C44 C 0.63824 0.63057 0.27636 0.0
C45 C 0.58969 0.59592 0.28718 0.0
N46 N 0.61474 0.54642 0.28246 0.0
O47 O 0.60648 0.71693 0.3007 0.0
H48 H 0.65711 0.66083 0.27181 0.0
H49 H 0.56193 0.59422 0.29313 0.0
O50 O 0.66179 0.75269 0.28575 0.0
C51 C 0.5656 0.69923 0.30555 0.0
O52 O 0.50999 0.69279 0.3013 0.0
N53 N 0.55436 0.73996 0.27453 0.0
C54 C 0.50245 0.75105 0.25559 0.0
C55 C 0.55331 0.78523 0.25942 0.0
C56 C 0.57917 0.77858 0.26894 0.0
C57 C 0.50431 0.7072 0.27094 0.0
C58 C 0.47802 0.71143 0.26141 0.0
H59 H 0.61855 0.80499 0.27179 0.0
H60 H 0.48484 0.67758 0.27554 0.0
H61 H 0.62525 0.86837 0.28696 0.0
H62 H 0.46019 0.91207 0.29851 0.0
H63 H 0.66999 0.54246 0.27028 0.0
H64 H 0.57297 0.81635 0.25508 0.0
H65 H 0.43827 0.68488 0.25867 0.0
C66 C 0.68468 0.44639 0.5599 0.0
C67 C 0.74668 0.45196 0.56149 0.0
N68 N 0.77245 0.40144 0.55736 0.0
N69 N 0.67107 0.39286 0.55472 0.0
C70 C 0.7254 0.36601 0.55338 0.0
H71 H 0.65141 0.47955 0.56225 0.0
Co72 Co 0.59188 0.36615 0.551 0.0
C73 C 0.59267 0.30279 0.5315 0.0
O74 O 0.54345 0.33463 0.52927 0.0
N75 N 0.51042 0.33708 0.54806 0.0
C76 C 0.4348 0.2709 0.54455 0.0
C77 C 0.49605 0.27907 0.54477 0.0
C78 C 0.45676 0.36158 0.55056 0.0
N79 N 0.40979 0.32297 0.54816 0.0
O80 O 0.60606 0.30635 0.5599 0.0
H81 H 0.5284 0.24357 0.54301 0.0
H82 H 0.4524 0.40575 0.55452 0.0
O83 O 0.61885 0.30878 0.54029 0.0
C84 C 0.58062 0.3115 0.56778 0.0
O85 O 0.54342 0.35727 0.5695 0.0
N86 N 0.58058 0.42767 0.542 0.0
C87 C 0.5599 0.48637 0.52498 0.0
C88 C 0.61746 0.4636 0.52784 0.0
C89 C 0.62671 0.43411 0.53628 0.0
C90 C 0.52823 0.46028 0.54034 0.0
C91 C 0.51606 0.48848 0.53167 0.0
H92 H 0.66941 0.41069 0.53748 0.0
H93 H 0.49405 0.46215 0.54532 0.0
H94 H 0.73024 0.32149 0.54953 0.0
H95 H 0.77078 0.49102 0.5652 0.0
H96 H 0.41093 0.22888 0.54233 0.0
H97 H 0.65396 0.46397 0.52319 0.0
H98 H 0.47158 0.50806 0.52998 0.0
C99 C 0.10803 0.3817 0.80994 0.0
C100 C 0.10232 0.44378 0.81131 0.0
N101 N 0.12043 0.46754 0.80346 0.0
N102 N 0.13092 0.36568 0.80137 0.0
C103 C 0.13686 0.41888 0.79748 0.0
H104 H 0.0961 0.35 0.81489 0.0
Co105 Co 0.14066 0.28472 0.79612 0.0
C106 C 0.25557 0.34001 0.79122 0.0
O107 O 0.26397 0.37725 0.79923 0.0
N108 N 0.14823 0.20364 0.79089 0.0
C109 C 0.16547 0.12163 0.78087 0.0
C110 C 0.16416 0.18384 0.78192 0.0
C111 C 0.13965 0.15233 0.79513 0.0
N112 N 0.15031 0.10147 0.78919 0.0
O113 O 0.19252 0.26534 0.80747 0.0
H114 H 0.17412 0.21268 0.77644 0.0
H115 H 0.12691 0.15248 0.80251 0.0
O116 O 0.21025 0.30462 0.78978 0.0
C117 C 0.22674 0.28938 0.81476 0.0
O118 O 0.23383 0.34832 0.81603 0.0
N119 N 0.08747 0.3002 0.78521 0.0
C120 C 0.99949 0.3036 0.76936 0.0
C121 C 0.0594 0.31978 0.76855 0.0
C122 C 0.1028 0.31841 0.77661 0.0
C123 C 0.02898 0.28681 0.78626 0.0
C124 C 0.98402 0.28853 0.77842 0.0
H125 H 0.14878 0.32997 0.77572 0.0
H126 H 1.01777 0.27254 0.79313 0.0
H127 H 0.15159 0.42166 0.7903 0.0
H128 H 0.08622 0.46918 0.81767 0.0
H129 H 0.17607 0.09351 0.77437 0.0
H130 H 0.0728 0.33223 0.76168 0.0
H131 H 0.93826 0.27538 0.7793 0.0
C132 C 0.94627 0.3119 0.91056 0.0
C133 C 0.88456 0.321 0.90992 0.0
N134 N 0.86024 0.28113 0.91513 0.0
N135 N 0.96155 0.26585 0.91603 0.0
C136 C 0.90806 0.24871 0.91885 0.0
H137 H 0.97793 0.3382 0.90733 0.0
Co138 Co 0.04213 0.23951 0.91907 0.0
C139 C 0.98135 0.12083 0.91887 0.0
O140 O 0.94978 0.12291 0.91031 0.0
N141 N 0.12282 0.21447 0.92217 0.0
C142 C 0.20422 0.1703 0.9293 0.0
C143 C 0.1423 0.17654 0.92892 0.0
C144 C 0.1741 0.23149 0.91865 0.0
N145 N 0.2244 0.20482 0.92283 0.0
O146 O 0.04547 0.20356 0.90606 0.0
H147 H 0.11357 0.15569 0.93349 0.0
H148 H 0.17461 0.26294 0.91316 0.0
O149 O 1.01537 0.16443 0.92259 0.0
C150 C 0.0631 0.23588 0.89982 0.0
O151 O 0.07482 0.29337 0.9024 0.0
N152 N 0.04101 0.27584 0.93184 0.0
C153 C 0.06028 0.33269 0.9508 0.0
C154 C 0.02302 0.28172 0.94879 0.0
C155 C 1.01394 0.25368 0.93921 0.0
C156 C 0.07482 0.32694 0.93358 0.0
C157 C 0.08532 0.35597 0.94302 0.0
H158 H 0.98636 0.21358 0.93783 0.0
H159 H 0.09542 0.34397 0.92763 0.0
H160 H 0.90423 0.21419 0.92374 0.0
H161 H 0.85966 0.35425 0.90583 0.0
H162 H 0.23238 0.14375 0.93419 0.0
H163 H 1.00269 0.26271 0.95461 0.0
H164 H 0.11324 0.39608 0.94425 0.0
C165 C 0.86581 0.62603 0.17036 0.0
C166 C 0.8558 0.56485 0.16854 0.0
N167 N 0.90375 0.53865 0.16448 0.0
N168 N 0.92046 0.6392 0.16765 0.0
C169 C 0.94153 0.58504 0.16377 0.0
H170 H 0.8354 0.65891 0.17365 0.0
Co171 Co 0.9511 0.71951 0.16928 0.0
C172 C 0.06699 0.65049 0.17671 0.0
O173 O 0.04581 0.59562 0.17658 0.0
N174 N 0.97976 0.80015 0.1708 0.0
C175 C 0.02982 0.88319 0.17715 0.0
C176 C 0.02251 0.82259 0.17785 0.0
C177 C 0.96097 0.84873 0.16598 0.0
N178 N 0.99115 0.9 0.16969 0.0
O179 O 0.9757 0.71017 0.15644 0.0
H180 H 0.04541 0.79718 0.18346 0.0
H181 H 0.92539 0.84665 0.15996 0.0
O182 O 0.03219 0.69388 0.17417 0.0
C183 C 0.94435 0.69375 0.14841 0.0
O184 O 0.88742 0.67838 0.14838 0.0
N185 N 0.92735 0.73064 0.18207 0.0
C186 C 0.90189 0.76016 0.20139 0.0
C187 C 0.93718 0.70896 0.19884 0.0
C188 C 0.94863 0.69457 0.18914 0.0
C189 C 0.88988 0.77849 0.18426 0.0
C190 C 0.87692 0.7944 0.1939 0.0
H191 H 0.97503 0.65459 0.18737 0.0
H192 H 0.87151 0.80565 0.17854 0.0
H193 H 0.98386 0.57962 0.16049 0.0
H194 H 0.81711 0.54121 0.17045 0.0
H195 H 0.05968 0.91319 0.18204 0.0
H196 H 0.95735 0.68091 0.20432 0.0
H197 H 0.84803 0.83332 0.19548 0.0
C198 C 0.44931 0.83841 0.41445 0.0
C199 C 0.38721 0.84459 0.41324 0.0
N200 N 0.36233 0.79257 0.41511 0.0
N201 N 0.46411 0.78279 0.41709 0.0
C202 C 0.41007 0.75561 0.41737 0.0
H203 H 0.48184 0.87288 0.41369 0.0
Co204 Co 0.54445 0.75789 0.42046 0.0
C205 C 0.52282 0.6388 0.42726 0.0
O206 O 0.55622 0.61017 0.42088 0.0
N207 N 0.62565 0.73387 0.42394 0.0
C208 C 0.70862 0.70657 0.43299 0.0
C209 C 0.64673 0.71283 0.43252 0.0
C210 C 0.67616 0.74065 0.41937 0.0
N211 N 0.72755 0.72447 0.42476 0.0
O212 O 0.54216 0.70495 0.40881 0.0
H213 H 0.6192 0.70481 0.43829 0.0
H214 H 0.67554 0.75994 0.41246 0.0
O215 O 0.5154 0.6959 0.42748 0.0
C216 C 0.55432 0.73441 0.40184 0.0
O217 O 0.56254 0.79315 0.40363 0.0
N218 N 0.54863 0.81264 0.4316 0.0
C219 C 0.57455 0.89232 0.44834 0.0
C220 C 0.52997 0.8478 0.44801 0.0
C221 C 0.51736 0.80851 0.43953 0.0
C222 C 0.58858 0.85824 0.4315 0.0
C223 C 0.60243 0.89854 0.4398 0.0
H224 H 0.48356 0.77413 0.43944 0.0
H225 H 0.61146 0.86185 0.42501 0.0
H226 H 0.40568 0.71051 0.41954 0.0
H227 H 0.36231 0.88463 0.41121 0.0
H228 H 0.73747 0.69098 0.43907 0.0
H229 H 0.50653 0.84169 0.45435 0.0
H230 H 0.63538 0.93359 0.43957 0.0
C231 C 0.3794 0.16281 0.66682 0.0
C232 C 0.37378 0.10108 0.66475 0.0
N233 N 0.42966 0.07592 0.66503 0.0
N234 N 0.43858 0.17724 0.66859 0.0
C235 C 0.46812 0.12335 0.6671 0.0
H236 H 0.34237 0.19518 0.66717 0.0
Co237 Co 0.46754 0.25754 0.67177 0.0
C238 C 0.54461 0.19123 0.68756 0.0
O239 O 0.51639 0.13918 0.68643 0.0
N240 N 0.49579 0.33881 0.67471 0.0
C241 C 0.52626 0.42428 0.68359 0.0
C242 C 0.51692 0.36345 0.68375 0.0
C243 C 0.49147 0.38664 0.66921 0.0
N244 N 0.51008 0.43931 0.67446 0.0
O245 O 0.52673 0.2409 0.66292 0.0
H246 H 0.52105 0.33986 0.69027 0.0
H247 H 0.47269 0.38351 0.66162 0.0
O248 O 0.52673 0.23382 0.68233 0.0
C249 C 0.51201 0.253 0.65419 0.0
O250 O 0.45838 0.2769 0.65192 0.0
N251 N 0.40776 0.27505 0.6804 0.0
C252 C 0.33477 0.319 0.69478 0.0
C253 C 0.36531 0.26335 0.69535 0.0
C254 C 0.4014 0.24204 0.68804 0.0
C255 C 0.37254 0.32539 0.67912 0.0
C256 C 0.3367 0.34916 0.68638 0.0
H257 H 0.42543 0.2 0.68872 0.0
H258 H 0.3753 0.34954 0.67275 0.0
H259 H 0.51702 0.11888 0.66766 0.0
H260 H 0.33158 0.0765 0.66347 0.0
H261 H 0.54018 0.45578 0.68991 0.0
H262 H 0.36476 0.23841 0.70171 0.0
H263 H 0.31294 0.39183 0.68563 0.0
H264 H 0.09694 0.75388 0.06136 0.0
H265 H 0.07661 0.70279 0.07561 0.0
H266 H 0.12963 0.86315 0.09467 0.0
H267 H 0.14943 0.91489 0.08047 0.0
H268 H 0.17259 0.74833 0.10172 0.0
H269 H 0.98502 0.84725 0.08826 0.0
H270 H 0.90307 0.8638 0.07526 0.0
H271 H 0.86523 0.67332 0.0715 0.0
H272 H 0.94686 0.65582 0.08452 0.0
H273 H 0.03525 0.76619 0.14506 0.0
H274 H 0.07704 0.77485 0.12963 0.0
H275 H 0.95946 0.63209 0.11551 0.0
H276 H 0.91465 0.62607 0.13093 0.0
H277 H 0.95479 0.71428 0.10449 0.0
H278 H 0.1221 0.61569 0.12006 0.0
H279 H 0.20093 0.59303 0.13318 0.0
H280 H 0.2806 0.76707 0.13243 0.0
H281 H 0.20174 0.79123 0.11941 0.0
C282 C 0.10528 0.77794 0.0686 0.0
C283 C 0.12438 0.83857 0.06981 0.0
C284 C 0.09354 0.7487 0.07671 0.0
C285 C 0.10137 0.77943 0.08614 0.0
C286 C 0.12348 0.83877 0.08742 0.0
C287 C 0.1345 0.8683 0.07931 0.0
C288 C 0.0818 0.75204 0.09462 0.0
C289 C 0.12506 0.74078 0.10239 0.0
C290 C 1.02015 0.7397 0.09524 0.0
C291 C 0.97235 0.75017 0.08726 0.0
C292 C 0.95956 0.80889 0.08459 0.0
C293 C 0.91306 0.81844 0.07724 0.0
C294 C 0.87915 0.76956 0.07252 0.0
C295 C 0.89161 0.71108 0.07515 0.0
C296 C 0.93785 0.70135 0.08252 0.0
C297 C 1.01874 0.73619 0.13868 0.0
C298 C 0.97172 0.69549 0.13915 0.0
C299 C 0.04318 0.74068 0.12987 0.0
C300 C 0.02258 0.70313 0.12141 0.0
C301 C 0.97635 0.66141 0.12193 0.0
C302 C 0.95072 0.65801 0.13072 0.0
C303 C 0.04534 0.71195 0.11188 0.0
C304 C 1.00267 0.71993 0.10385 0.0
C305 C 0.1078 0.71969 0.11097 0.0
C306 C 0.15572 0.70537 0.11877 0.0
C307 C 0.1562 0.64931 0.12273 0.0
C308 C 0.20093 0.63618 0.13015 0.0
C309 C 0.2457 0.67861 0.13364 0.0
C310 C 0.2459 0.73423 0.12971 0.0
C311 C 0.20124 0.74763 0.1223 0.0
H312 H 0.28028 0.66836 0.13939 0.0
H313 H 0.84302 0.77691 0.06686 0.0
H314 H 0.57001 0.6125 0.39648 0.0
H315 H 0.59788 0.56587 0.38052 0.0
H316 H 0.59049 0.74199 0.3697 0.0
H317 H 0.56342 0.78821 0.38537 0.0
H318 H 0.54058 0.56522 0.36146 0.0
H319 H 0.70925 0.76504 0.35909 0.0
H320 H 0.78679 0.8209 0.37041 0.0
H321 H 0.80502 0.67264 0.38828 0.0
H322 H 0.72849 0.6153 0.37698 0.0
H323 H 0.48914 0.69495 0.3195 0.0
H324 H 0.51133 0.66161 0.33574 0.0
H325 H 0.69719 0.62444 0.33009 0.0
H326 H 0.67545 0.66092 0.31384 0.0
H327 H 0.69834 0.67482 0.34731 0.0
H328 H 0.59657 0.50885 0.33171 0.0
H329 H 0.5214 0.44888 0.32055 0.0
H330 H 0.38144 0.50919 0.33868 0.0
H331 H 0.45483 0.57185 0.34971 0.0
C332 C 0.57398 0.64092 0.39064 0.0
C333 C 0.56514 0.70403 0.39217 0.0
C334 C 0.59011 0.61432 0.38158 0.0
C335 C 0.59783 0.6508 0.37406 0.0
C336 C 0.58649 0.71327 0.37551 0.0
C337 C 0.57062 0.73962 0.38446 0.0
C338 C 0.61612 0.62571 0.36446 0.0
C339 C 0.57571 0.5878 0.35831 0.0
C340 C 0.66487 0.65188 0.36057 0.0
C341 C 0.71306 0.68563 0.36713 0.0
C342 C 0.73035 0.74386 0.36534 0.0
C343 C 0.77401 0.77595 0.37179 0.0
C344 C 0.80079 0.75032 0.38006 0.0
C345 C 0.78421 0.69246 0.38188 0.0
C346 C 0.74069 0.66016 0.37545 0.0
C347 C 0.53471 0.67958 0.3217 0.0
C348 C 0.58057 0.6805 0.31545 0.0
C349 C 0.54726 0.65971 0.33095 0.0
C350 C 0.60552 0.63854 0.33405 0.0
C351 C 0.65175 0.63984 0.32782 0.0
C352 C 0.6394 0.66096 0.31858 0.0
C353 C 0.6179 0.62036 0.34413 0.0
C354 C 0.66471 0.64962 0.35037 0.0
C355 C 0.57652 0.58392 0.34809 0.0
C356 C 0.53173 0.54499 0.34162 0.0
C357 C 0.54977 0.50955 0.33333 0.0
C358 C 0.50738 0.47514 0.327 0.0
C359 C 0.44684 0.4748 0.32895 0.0
C360 C 0.42846 0.50923 0.3372 0.0
C361 C 0.4705 0.54432 0.3435 0.0
H362 H 0.41413 0.44802 0.32405 0.0
H363 H 0.83432 0.77527 0.38506 0.0
H364 H 0.68734 0.25049 0.57157 0.0
H365 H 0.71685 0.19464 0.58587 0.0
H366 H 0.53698 0.2224 0.59497 0.0
H367 H 0.50803 0.27886 0.58093 0.0
H368 H 0.71586 0.25272 0.60445 0.0
H369 H 0.49622 0.1104 0.60618 0.0
H370 H 0.4332 0.03728 0.59512 0.0
H371 H 0.58157 0.99689 0.57774 0.0
H372 H 0.646 0.06904 0.58878 0.0
H373 H 0.52695 0.31802 0.63914 0.0
H374 H 0.58579 0.28973 0.62534 0.0
H375 H 0.64621 0.12598 0.63795 0.0
H376 H 0.58843 0.15549 0.65207 0.0
H377 H 0.58448 0.11129 0.61817 0.0
H378 H 0.75683 0.20391 0.63461 0.0
H379 H 0.81824 0.27859 0.64565 0.0
H380 H 0.76523 0.41666 0.6267 0.0
H381 H 0.70268 0.34324 0.61562 0.0
C382 C 0.65382 0.24312 0.57651 0.0
C383 C 0.59563 0.26936 0.57526 0.0
C384 C 0.67069 0.21117 0.58463 0.0
C385 C 0.62894 0.20377 0.59141 0.0
C386 C 0.56961 0.22653 0.58974 0.0
C387 C 0.55324 0.25938 0.58178 0.0
C388 C 0.64844 0.18318 0.60112 0.0
C389 C 0.68854 0.22058 0.60746 0.0
C390 C 0.61487 0.13921 0.60495 0.0
C391 C 0.5762 0.09511 0.59836 0.0
C392 C 0.51578 0.08548 0.60008 0.0
C393 C 0.47968 0.04431 0.59378 0.0
C394 C 0.50338 1.01242 0.58574 0.0
C395 C 0.56325 1.02165 0.58397 0.0
C396 C 0.59957 0.06275 0.59024 0.0
C397 C 0.55382 0.27668 0.63907 0.0
C398 C 0.55321 0.23878 0.64659 0.0
C399 C 0.58778 0.26076 0.63125 0.0
C400 C 0.62077 0.20609 0.6307 0.0
C401 C 0.62163 0.16869 0.63833 0.0
C402 C 0.58871 0.18552 0.64635 0.0
C403 C 0.64609 0.18595 0.62141 0.0
C404 C 0.61448 0.14091 0.61515 0.0
C405 C 0.68746 0.22285 0.61765 0.0
C406 C 0.72522 0.26773 0.62423 0.0
C407 C 0.75805 0.25024 0.6328 0.0
C408 C 0.79308 0.2924 0.63908 0.0
C409 C 0.79574 0.3523 0.63687 0.0
C410 C 0.76332 0.37018 0.62838 0.0
C411 C 0.72818 0.32822 0.62208 0.0
H412 H 0.82287 0.38488 0.64174 0.0
H413 H 0.47533 0.98059 0.58088 0.0
H414 H 0.11282 0.12395 0.89563 0.0
H415 H 0.15617 0.08656 0.88037 0.0
H416 H 0.09299 0.24871 0.86753 0.0
H417 H 0.0515 0.28673 0.88275 0.0
H418 H 0.07892 0.1355 0.85457 0.0
H419 H 0.22599 0.25134 0.87909 0.0
H420 H 0.28833 0.26136 0.89506 0.0
H421 H 0.37174 0.0884 0.88796 0.0
H422 H 0.30908 0.07699 0.87201 0.0
H423 H 0.26629 0.32869 0.83369 0.0
H424 H 0.26343 0.27098 0.84771 0.0
H425 H 0.22779 0.10766 0.82834 0.0
H426 H 0.22932 0.16562 0.8142 0.0
H427 H 0.30072 0.16981 0.85685 0.0
H428 H 0.1056 0.0466 0.83575 0.0
H429 H 0.04324 0.04283 0.81979 0.0
H430 H 0.05494 0.23615 0.82025 0.0
H431 H 0.11695 0.24083 0.83625 0.0
C432 C 0.10696 0.15067 0.88943 0.0
C433 C 0.07903 0.20817 0.89029 0.0
C434 C 0.13176 0.12936 0.88077 0.0
C435 C 0.12753 0.16491 0.87287 0.0
C436 C 0.09622 0.2205 0.87355 0.0
C437 C 0.0728 0.2423 0.88223 0.0
C438 C 0.16106 0.14927 0.86425 0.0
C439 C 0.12774 0.14068 0.85503 0.0
C440 C 0.22471 0.15564 0.86489 0.0
C441 C 0.26236 0.16294 0.87443 0.0
C442 C 0.25723 0.21524 0.88098 0.0
C443 C 0.29265 0.22119 0.89001 0.0
C444 C 0.33381 0.17543 0.89253 0.0
C445 C 0.3397 0.12369 0.88601 0.0
C446 C 0.30423 0.11744 0.87698 0.0
C447 C 0.26008 0.28015 0.83238 0.0
C448 C 0.24555 0.25214 0.82286 0.0
C449 C 0.25897 0.24696 0.84043 0.0
C450 C 0.24364 0.18537 0.83906 0.0
C451 C 0.23861 0.1554 0.82955 0.0
C452 C 0.23908 0.18874 0.82148 0.0
C453 C 0.21809 0.15891 0.84717 0.0
C454 C 0.25266 0.16008 0.85631 0.0
C455 C 0.15542 0.14572 0.84648 0.0
C456 C 0.11623 0.14388 0.8371 0.0
C457 C 0.09461 0.0882 0.83244 0.0
C458 C 0.05935 0.08594 0.8234 0.0
C459 C 0.04513 0.13924 0.81901 0.0
C460 C 0.0659 0.19493 0.82367 0.0
C461 C 0.101 0.19742 0.83273 0.0
H462 H 1.01806 0.13738 0.81199 0.0
H463 H 0.36133 0.18009 0.8995 0.0
H464 H 0.08557 0.71379 0.0275 0.0
H465 H 0.06531 0.62438 0.01584 0.0
H466 H 0.24534 0.63391 0.00684 0.0
H467 H 0.26516 0.72447 0.0182 0.0
H468 H 0.1639 0.62698 -0.00847 0.0
H469 H 0.20237 0.52026 0.02017 0.0
H470 H 0.18907 0.49612 0.0369 0.0
H471 H 1.0026 0.45211 0.02797 0.0
H472 H 1.01454 0.47682 0.01122 0.0
H473 H 0.17072 0.36588 0.9599 0.0
H474 H 0.19233 0.42878 0.97541 0.0
H475 H 1.00291 0.42856 0.98006 0.0
H476 H 0.98094 0.36492 0.96448 0.0
H477 H 0.08511 0.42819 -0.0022 0.0
H478 H 0.04607 0.5392 0.96949 0.0
H479 H 0.05967 0.56152 0.95268 0.0
H480 H 0.24815 0.59782 0.96125 0.0
H481 H 0.23586 0.57469 0.97808 0.0
C482 C 0.12092 0.69685 0.02306 0.0
C483 C 0.17651 0.72718 0.02363 0.0
C484 C 0.10949 0.64522 0.01647 0.0
C485 C 0.15381 0.6224 0.01046 0.0
C486 C 0.21035 0.6509 0.01137 0.0
C487 C 0.22164 0.70268 0.01789 0.0
C488 C 0.13974 0.57241 0.0026 0.0
C489 C 0.14762 0.58326 -0.00704 0.0
C490 C 0.11646 0.516 0.0044 0.0
C491 C 0.1092 0.50101 0.01446 0.0
C492 C 0.15838 0.50595 0.02179 0.0
C493 C 0.15111 0.49205 0.03128 0.0
C494 C 0.09498 0.47276 0.0335 0.0
C495 C 0.04603 0.46715 0.02624 0.0
C496 C 0.05304 0.48104 0.01675 0.0
C497 C 0.13379 0.37854 0.96429 0.0
C498 C 0.07396 0.36191 0.9609 0.0
C499 C 0.14624 0.41407 0.97317 0.0
C500 C 0.09902 0.43417 0.97876 0.0
C501 C 0.03988 0.41361 0.97581 0.0
C502 C 0.02739 0.37753 0.96692 0.0
C503 C 0.1106 0.48283 -0.01313 0.0
C504 C 0.10171 0.47196 -0.00353 0.0
C505 C 0.13292 0.53953 -0.01492 0.0
C506 C 0.14015 0.55471 0.97502 0.0
C507 C 0.0905 0.55157 0.96777 0.0
C508 C 0.09796 0.56439 0.95824 0.0
C509 C 0.15477 0.58096 0.95589 0.0
C510 C 0.20419 0.58492 0.96308 0.0
C511 C 0.19699 0.57201 0.97261 0.0
H512 H 0.16046 0.59083 0.94851 0.0
H513 H 0.08945 0.46202 0.04085 0.0
H514 H 0.77459 0.70191 0.2809 0.0
H515 H 0.83781 0.7258 0.26838 0.0
H516 H 0.81077 0.91678 0.27642 0.0
H517 H 0.74784 0.8925 0.28917 0.0
H518 H 0.76924 0.881 0.25745 0.0
H519 H 0.95417 0.86421 0.27703 0.0
H520 H 0.02971 0.82244 0.28901 0.0
H521 H 0.04018 0.65823 0.26989 0.0
H522 H 0.96402 0.69851 0.25784 0.0
H523 H 0.89927 0.87471 0.21098 0.0
H524 H 0.88816 0.90269 0.22839 0.0
H525 H 0.87578 0.71394 0.23282 0.0
H526 H 0.88391 0.68565 0.21545 0.0
H527 H 0.95829 0.78298 0.24703 0.0
H528 H 0.75348 0.78855 0.23067 0.0
H529 H 0.67319 0.82474 0.21889 0.0
H530 H 0.69721 1.00665 0.2325 0.0
H531 H 0.77886 0.97155 0.24424 0.0
C532 C 0.78471 0.74891 0.28031 0.0
C533 C 0.7572 0.79541 0.286 0.0
C534 C 0.82086 0.76263 0.27317 0.0
C535 C 0.82927 0.82313 0.2715 0.0
C536 C 0.80532 0.86987 0.27767 0.0
C537 C 0.76984 0.85603 0.28497 0.0
C538 C 0.8523 0.83547 0.26219 0.0
C539 C 0.81174 0.86167 0.25527 0.0
C540 C 0.90715 0.80923 0.25931 0.0
C541 C 0.9532 0.7845 0.26652 0.0
C542 C 0.97227 0.81904 0.27539 0.0
C543 C 1.01527 0.79563 0.2822 0.0
C544 C 0.03973 0.73773 0.28021 0.0
C545 C 1.02127 0.70313 0.27141 0.0
C546 C 0.97826 0.7263 0.26458 0.0
C547 C 0.89321 0.83921 0.21563 0.0
C548 C 0.89253 0.77788 0.21181 0.0
C549 C 0.88763 0.8553 0.22558 0.0
C550 C 0.8819 0.81028 0.23186 0.0
C551 C 0.88113 0.74923 0.22809 0.0
C552 C 0.88576 0.73319 0.21816 0.0
C553 C 0.87394 0.82589 0.24233 0.0
C554 C 0.91724 0.80476 0.24938 0.0
C555 C 0.82143 0.85637 0.24533 0.0
C556 C 0.77303 0.87764 0.2382 0.0
C557 C 0.74227 0.8364 0.23106 0.0
C558 C 0.69635 0.85668 0.22441 0.0
C559 C 0.68019 0.91802 0.22492 0.0
C560 C 0.70994 0.95919 0.23209 0.0
C561 C 0.75612 0.93914 0.23873 0.0
H562 H 0.6445 0.93362 0.21978 0.0
H563 H 0.07301 0.71968 0.2855 0.0
H564 H 0.43784 0.67655 0.43949 0.0
H565 H 0.42949 0.64493 0.45575 0.0
H566 H 0.56181 0.50327 0.45061 0.0
H567 H 0.57151 0.53559 0.43436 0.0
H568 H 0.46919 0.46907 0.46136 0.0
H569 H 0.61135 0.62723 0.46177 0.0
H570 H 0.6537 0.72576 0.45932 0.0
H571 H 0.52261 0.81769 0.47652 0.0
H572 H 0.4788 0.71958 0.47898 0.0
H573 H 0.59842 0.42544 0.50857 0.0
H574 H 0.57758 0.44793 0.49174 0.0
H575 H 0.46192 0.59743 0.50081 0.0
H576 H 0.48624 0.57768 0.51799 0.0
H577 H 0.5355 0.62836 0.48804 0.0
H578 H 0.40315 0.45906 0.48887 0.0
H579 H 0.38147 0.35635 0.49289 0.0
H580 H 0.51209 0.2811 0.47398 0.0
H581 H 0.53493 0.38338 0.46991 0.0
C582 C 0.46455 0.63809 0.44176 0.0
C583 C 0.50643 0.60943 0.43575 0.0
C584 C 0.45958 0.62004 0.45104 0.0
C585 C 0.49599 0.57269 0.45443 0.0
C586 C 0.5336 0.5402 0.44812 0.0
C587 C 0.53894 0.55856 0.43882 0.0
C588 C 0.49909 0.56113 0.46485 0.0
C589 C 0.48368 0.50378 0.46721 0.0
C590 C 0.51778 0.60671 0.47245 0.0
C591 C 0.54125 0.666 0.47045 0.0
C592 C 0.59081 0.66843 0.46489 0.0
C593 C 0.61535 0.72419 0.46356 0.0
C594 C 0.59113 0.77782 0.46783 0.0
C595 C 0.5415 0.77598 0.47327 0.0
C596 C 0.51675 0.72033 0.47463 0.0
C597 C 0.56938 0.46394 0.50708 0.0
C598 C 0.54491 0.50055 0.5147 0.0
C599 C 0.55647 0.47589 0.49737 0.0
C600 C 0.51711 0.5235 0.49497 0.0
C601 C 0.49202 0.56006 0.50251 0.0
C602 C 0.5057 0.5486 0.51231 0.0
C603 C 0.50504 0.53647 0.48461 0.0
C604 C 0.51925 0.5941 0.48223 0.0
C605 C 0.48651 0.49075 0.477 0.0
C606 C 0.47078 0.42894 0.4791 0.0
C607 C 0.4272 0.4206 0.48556 0.0
C608 C 0.41477 0.36246 0.48786 0.0
C609 C 0.44542 0.31224 0.4837 0.0
C610 C 0.48831 0.32002 0.47719 0.0
C611 C 0.50087 0.37806 0.47486 0.0
H612 H 0.43592 0.26729 0.48552 0.0
H613 H 0.61098 0.8208 0.46695 0.0
H614 H 0.88403 0.34965 0.76756 0.0
H615 H 0.80802 0.33394 0.75335 0.0
H616 H 0.93709 0.22579 0.73754 0.0
H617 H 1.01355 0.24354 0.75156 0.0
H618 H 0.8773 0.28982 0.72556 0.0
H619 H 0.82202 0.16304 0.74925 0.0
H620 H 0.79567 0.13856 0.76535 0.0
H621 H 0.63986 0.25624 0.76302 0.0
H622 H 0.66578 0.28209 0.74695 0.0
H623 H 0.58567 0.11632 0.70146 0.0
H624 H 0.66513 0.13638 0.71495 0.0
H625 H 0.69232 0.31307 0.70568 0.0
H626 H 0.61633 0.29155 0.69179 0.0
H627 H 0.67484 0.21235 0.73014 0.0
H628 H 0.83453 0.36023 0.71175 0.0
H629 H 0.86557 0.37049 0.69531 0.0
H630 H 0.8218 0.18415 0.68641 0.0
H631 H 0.79126 0.17257 0.70283 0.0
C632 C 0.89607 0.32296 0.76101 0.0
C633 C 0.95448 0.29776 0.76063 0.0
C634 C 0.85264 0.31371 0.75292 0.0
C635 C 0.86641 0.27772 0.74442 0.0
C636 C 0.9253 0.25378 0.74398 0.0
C637 C 0.96898 0.26394 0.752 0.0
C638 C 0.81941 0.26377 0.73604 0.0
C639 C 0.83302 0.27294 0.72657 0.0
C640 C 0.76199 0.24049 0.7373 0.0
C641 C 0.74622 0.225 0.74695 0.0
C642 C 0.7824 0.18405 0.7522 0.0
C643 C 0.76751 0.16988 0.76132 0.0
C644 C 0.71623 0.19596 0.76522 0.0
C645 C 0.67964 0.23616 0.76 0.0
C646 C 0.69439 0.25057 0.75088 0.0
C647 C 0.60902 0.1592 0.70222 0.0
C648 C 0.59405 0.2026 0.69558 0.0
C649 C 0.65418 0.17079 0.70999 0.0
C650 C 0.68511 0.2261 0.71132 0.0
C651 C 0.66996 0.26962 0.70473 0.0
C652 C 0.62568 0.25758 0.69685 0.0
C653 C 0.73274 0.2384 0.71966 0.0
C654 C 0.71913 0.22923 0.72912 0.0
C655 C 0.79095 0.25952 0.71835 0.0
C656 C 0.81005 0.26576 0.70849 0.0
C657 C 0.83178 0.3214 0.70629 0.0
C658 C 0.84923 0.32745 0.69698 0.0
C659 C 0.84547 0.27806 0.68981 0.0
C660 C 0.82448 0.22243 0.69195 0.0
C661 C 0.80703 0.21612 0.70126 0.0
H662 H 0.85894 0.28286 0.6826 0.0
H663 H 0.70476 0.18492 0.77227 0.0
H664 H 0.31066 0.44269 0.78729 0.0
H665 H 0.34144 0.46296 0.77136 0.0
H666 H 0.30368 0.27752 0.76012 0.0
H667 H 0.27435 0.25677 0.77601 0.0
H668 H 0.39871 0.32354 0.7518 0.0
H669 H 0.18791 0.3827 0.75852 0.0
H670 H 0.11984 0.44125 0.76917 0.0
H671 H 0.21094 0.60525 0.76562 0.0
H672 H 0.27912 0.54786 0.75489 0.0
H673 H 0.26001 0.26979 0.70628 0.0
H674 H 0.2521 0.30327 0.72354 0.0
H675 H 0.3476 0.46684 0.72068 0.0
H676 H 0.35634 0.4333 0.7034 0.0
H677 H 0.242 0.45769 0.73653 0.0
H678 H 0.44346 0.39621 0.72704 0.0
H679 H 0.50738 0.33303 0.71631 0.0
H680 H 0.43568 0.17212 0.72551 0.0
H681 H 0.37051 0.23446 0.73616 0.0
C682 C 0.31118 0.40574 0.78153 0.0
C683 C 0.28904 0.34842 0.78278 0.0
C684 C 0.32845 0.41748 0.77243 0.0
C685 C 0.32361 0.37202 0.76454 0.0
C686 C 0.3075 0.31327 0.76611 0.0
C687 C 0.29028 0.30157 0.77516 0.0
C688 C 0.32551 0.38662 0.75436 0.0
C689 C 0.36538 0.35385 0.7485 0.0
C690 C 0.28212 0.42637 0.75007 0.0
C691 C 0.23847 0.46116 0.75593 0.0
C692 C 0.19298 0.43134 0.75995 0.0
C693 C 0.15447 0.46423 0.766 0.0
C694 C 0.16098 0.52683 0.76805 0.0
C695 C 0.20568 0.55681 0.76398 0.0
C696 C 0.24412 0.52421 0.75789 0.0
C697 C 0.2769 0.31409 0.70922 0.0
C698 C 0.30974 0.34846 0.7036 0.0
C699 C 0.27214 0.33328 0.71905 0.0
C700 C 0.30005 0.387 0.72334 0.0
C701 C 0.32568 0.42536 0.71744 0.0
C702 C 0.33054 0.40611 0.70758 0.0
C703 C 0.31482 0.39419 0.73404 0.0
C704 C 0.27741 0.42999 0.73992 0.0
C705 C 0.36087 0.35761 0.73839 0.0
C706 C 0.40196 0.31997 0.73235 0.0
C707 C 0.4412 0.34735 0.72674 0.0
C708 C 0.47762 0.31172 0.72067 0.0
C709 C 0.47556 0.2486 0.72022 0.0
C710 C 0.43725 0.22102 0.72587 0.0
C711 C 0.40062 0.25648 0.73193 0.0
H712 H 0.50368 0.2211 0.7155 0.0
H713 H 0.13145 0.55204 0.77279 0.0
H714 H 0.12868 0.58879 0.19074 0.0
H715 H 0.21531 0.62485 0.20206 0.0
H716 H 0.22574 0.78296 0.18653 0.0
H717 H 0.13824 0.74746 0.17516 0.0
H718 H 0.3452 0.72017 0.19414 0.0
H719 H 0.1596 0.81385 0.20344 0.0
H720 H 0.05201 0.81496 0.20658 0.0
H721 H 0.09324 0.69651 0.22919 0.0
H722 H 0.20079 0.69326 0.22601 0.0
H723 H 0.44719 0.85092 0.24871 0.0
H724 H 0.38515 0.8556 0.23293 0.0
H725 H 0.43082 0.66904 0.22451 0.0
H726 H 0.49128 0.66392 0.24033 0.0
H727 H 0.28463 0.77626 0.2276 0.0
H728 H 0.44059 0.65758 0.19966 0.0
H729 H 0.54826 0.65859 0.1966 0.0
H730 H 0.56614 0.83821 0.21136 0.0
H731 H 0.45873 0.8384 0.21446 0.0
C732 C 0.15028 0.63043 0.18956 0.0
C733 C 0.12629 0.66579 0.18216 0.0
C734 C 0.19962 0.651 0.19604 0.0
C735 C 0.22617 0.70672 0.19515 0.0
C736 C 0.20555 0.73987 0.18731 0.0
C737 C 0.15554 0.7197 0.18088 0.0
C738 C 0.27079 0.73258 0.20305 0.0
C739 C 0.33217 0.73308 0.20144 0.0
C740 C 0.25306 0.75093 0.21248 0.0
C741 C 0.18831 0.75297 0.21443 0.0
C742 C 0.14566 0.78747 0.20901 0.0
C743 C 0.08467 0.78856 0.2108 0.0
C744 C 0.06589 0.75588 0.21809 0.0
C745 C 0.10793 0.72182 0.22356 0.0
C746 C 0.16889 0.72032 0.22176 0.0
C747 C 0.44483 0.81151 0.24337 0.0
C748 C 0.47354 0.75703 0.24564 0.0
C749 C 0.40952 0.81418 0.23441 0.0
C750 C 0.4039 0.76279 0.22757 0.0
C751 C 0.4353 0.70935 0.22966 0.0
C752 C 0.4695 0.70634 0.23867 0.0
C753 C 0.35947 0.76159 0.21881 0.0
C754 C 0.2978 0.76511 0.22026 0.0
C755 C 0.37696 0.74773 0.20925 0.0
C756 C 0.44162 0.74781 0.20734 0.0
C757 C 0.46745 0.69737 0.20222 0.0
C758 C 0.52852 0.69767 0.2005 0.0
C759 C 0.56414 0.74831 0.20382 0.0
C760 C 0.53873 0.79881 0.20885 0.0
C761 C 0.47778 0.79866 0.21061 0.0
H762 H 0.61139 0.74849 0.20248 0.0
H763 H 1.01884 0.75706 0.21953 0.0
H764 H 0.689 0.93142 0.45516 0.0
H765 H 0.72047 0.99422 0.47036 0.0
H766 H 0.53654 0.99891 0.47798 0.0
H767 H 0.50383 0.93868 0.46261 0.0
H768 H 0.67425 0.11191 0.4762 0.0
H769 H 0.54609 0.98525 0.50269 0.0
H770 H 0.5183 0.88032 0.50458 0.0
H771 H 0.66964 0.81299 0.48947 0.0
H772 H 0.69893 0.91747 0.48762 0.0
H773 H 0.55185 0.29326 0.51228 0.0
H774 H 0.57833 0.21805 0.49948 0.0
H775 H 0.70954 0.13867 0.51994 0.0
H776 H 0.68138 0.21411 0.53315 0.0
H777 H 0.63699 0.05374 0.50891 0.0
H778 H 0.75957 0.21538 0.50185 0.0
H779 H 0.77987 0.32214 0.49989 0.0
H780 H 0.63876 0.3199 0.47607 0.0
H781 H 0.61716 0.21339 0.47795 0.0
C782 C 0.65491 0.94658 0.45997 0.0
C783 C 0.59364 0.93043 0.45759 0.0
C784 C 0.67324 0.98184 0.4687 0.0
C785 C 0.63093 1.00045 0.47529 0.0
C786 C 0.56998 0.98404 0.47302 0.0
C787 C 0.55141 0.94955 0.46423 0.0
C788 C 0.64917 0.03998 0.48432 0.0
C789 C 0.66728 0.09906 0.48339 0.0
C790 C 0.64106 1.02239 0.49367 0.0
C791 C 0.6246 0.95935 0.49499 0.0
C792 C 0.57378 0.94812 0.49985 0.0
C793 C 0.5577 0.88868 0.5009 0.0
C794 C 0.59223 0.84003 0.49716 0.0
C795 C 0.64297 0.85072 0.49238 0.0
C796 C 0.65924 0.91004 0.4913 0.0
C797 C 0.58667 0.26021 0.51413 0.0
C798 C 0.61432 0.25942 0.52376 0.0
C799 C 0.60221 0.21746 0.50674 0.0
C800 C 0.64673 0.17348 0.50871 0.0
C801 C 0.6754 0.17273 0.51828 0.0
C802 C 0.65948 0.21577 0.52578 0.0
C803 C 0.65918 0.12662 0.50073 0.0
C804 C 0.64644 0.0661 0.50181 0.0
C805 C 0.67222 0.14287 0.49149 0.0
C806 C 0.68694 0.2062 0.49003 0.0
C807 C 0.73295 0.23761 0.49618 0.0
C808 C 0.7446 0.29813 0.4951 0.0
C809 C 0.71064 0.32776 0.48786 0.0
C810 C 0.66515 0.29684 0.48166 0.0
C811 C 0.65335 0.2363 0.4827 0.0
H812 H 0.71956 0.3747 0.48706 0.0
H813 H 0.57956 0.79405 0.49795 0.0
H814 H 0.12748 0.03681 0.00044 0.0
H815 H 0.0884 0.06069 -0.01597 0.0
H816 H 0.90769 1.01545 -0.01032 0.0
H817 H 0.94682 0.99039 0.00606 0.0
H818 H 0.93727 0.95509 0.9732 0.0
H819 H 0.94186 0.1596 -0.01353 0.0
H820 H 0.97876 0.25596 -0.00467 0.0
H821 H 0.1176 0.26197 0.97592 0.0
H822 H 0.08254 0.16505 0.96705 0.0
H823 H 0.87235 0.09837 0.92506 0.0
H824 H 0.86129 0.06564 0.94128 0.0
H825 H 0.05115 1.01768 0.94445 0.0
H826 H 0.06229 0.05051 0.92836 0.0
H827 H 0.98846 0.13276 0.95662 0.0
H828 H 0.99386 0.91314 0.94641 0.0
H829 H 0.95055 0.82074 0.93704 0.0
H830 H 0.78502 0.85102 0.95057 0.0
H831 H 0.82718 0.94416 0.95991 0.0
C832 C 0.07929 0.03288 -0.00177 0.0
C833 C 0.04025 1.01142 0.00449 0.0
C834 C 0.05688 0.04707 -0.0111 0.0
C835 C 0.99504 0.04013 -0.01434 0.0
C836 C 0.95549 1.02132 -0.00794 0.0
C837 C 0.97786 1.00739 0.00143 0.0
C838 C 0.97373 0.04561 0.97524 0.0
C839 C 0.94735 0.99457 0.96962 0.0
C840 C 0.98676 0.09709 0.97056 0.0
C841 C 1.00975 0.15445 0.97613 0.0
C842 C 0.98082 0.18091 -0.01584 0.0
C843 C 1.00133 0.23582 -0.01082 0.0
C844 C 0.05057 0.265 -0.01379 0.0
C845 C 0.07952 0.23927 0.97823 0.0
C846 C 0.05932 0.18431 0.9732 0.0
C847 C 0.91064 0.07727 0.92897 0.0
C848 C 0.96816 0.07682 0.92555 0.0
C849 C 0.90439 0.05903 0.93825 0.0
C850 C 0.95552 0.03959 0.944 0.0
C851 C 1.01119 0.03214 0.94004 0.0
C852 C 1.01745 0.05055 0.93084 0.0
C853 C 0.95559 0.0414 0.9547 0.0
C854 C 0.97753 0.09405 0.96032 0.0
C855 C 0.93848 0.99177 0.95936 0.0
C856 C 0.91327 0.93605 0.95372 0.0
C857 C 0.94795 0.90053 0.94728 0.0
C858 C 0.92371 0.8479 0.94201 0.0
C859 C 0.86497 0.83016 0.94318 0.0
C860 C 0.83044 0.86491 0.94965 0.0
C861 C 0.85449 0.91759 0.95493 0.0
H862 H 0.84629 0.78938 0.93909 0.0
H863 H 0.0662 0.30762 -0.00993 0.0
H864 H 0.83652 0.8719 0.02642 0.0
H865 H 0.73127 0.88553 0.03004 0.0
H866 H 0.7859 0.86996 0.06061 0.0
H867 H 0.89259 0.85699 0.05696 0.0
H868 H 0.67642 0.79249 0.04987 0.0
H869 H 0.75097 0.99625 0.05764 0.0
H870 H 0.80562 0.08661 0.05438 0.0
H871 H 0.6857 0.10201 0.02821 0.0
H872 H 0.63091 1.01112 0.03123 0.0
H873 H 0.36845 0.87003 0.05994 0.0
H874 H 0.47945 0.8565 0.06087 0.0
H875 H 0.48197 0.94544 0.03445 0.0
H876 H 0.37262 0.96115 0.03386 0.0
H877 H 0.56836 0.98773 0.04599 0.0
H878 H 0.50129 0.7832 0.03631 0.0
H879 H 0.44777 0.68867 0.03778 0.0
H880 H 0.55214 0.66952 0.06534 0.0
H881 H 0.60577 0.76442 0.06408 0.0
C882 C 0.82631 0.87113 0.03392 0.0
C883 C 0.87289 0.86264 0.04141 0.0
C884 C 0.76605 0.8791 0.03598 0.0
C885 C 0.75053 0.87815 0.04558 0.0
C886 C 0.79681 0.87026 0.05313 0.0
C887 C 0.85762 0.86331 0.05108 0.0
C888 C 0.68575 0.88606 0.04753 0.0
C889 C 0.65281 0.83544 0.04924 0.0
C890 C 0.65469 0.94155 0.04641 0.0
C891 C 0.68714 0.99659 0.04463 0.0
C892 C 0.73657 1.0186 0.05115 0.0
C893 C 0.76751 0.06998 0.04935 0.0
C894 C 0.74922 0.09996 0.04108 0.0
C895 C 0.69984 0.07872 0.03461 0.0
C896 C 0.66878 0.02732 0.03637 0.0
C897 C 0.39303 0.88617 0.05434 0.0
C898 C 0.36207 0.91703 0.04688 0.0
C899 C 0.45648 0.87834 0.05483 0.0
C900 C 0.48987 0.89977 0.04771 0.0
C901 C 0.45812 0.92904 0.04013 0.0
C902 C 0.39538 0.93788 0.03976 0.0
C903 C 0.55772 0.89362 0.04811 0.0
C904 C 0.59153 0.94474 0.04679 0.0
C905 C 0.58923 0.83817 0.04939 0.0
C906 C 0.55695 0.78128 0.05016 0.0
C907 C 0.51245 0.75909 0.04272 0.0
C908 C 0.48217 0.7054 0.04351 0.0
C909 C 0.49639 0.67323 0.05166 0.0
C910 C 0.54107 0.69458 0.05904 0.0
C911 C 0.57143 0.74829 0.05829 0.0
H912 H 0.47292 0.63166 0.05226 0.0
H913 H 0.77324 0.13972 0.0397 0.0
H914 H 0.5387 0.49633 0.29391 0.0
H915 H 0.53112 0.38961 0.29649 0.0
H916 H 0.67244 0.3446 0.27766 0.0
H917 H 0.68159 0.45052 0.27519 0.0
H918 H 0.57754 0.26967 0.27292 0.0
H919 H 0.69874 0.34636 0.30199 0.0
H920 H 0.72664 0.41075 0.31736 0.0
H921 H 0.57384 0.34559 0.32986 0.0
H922 H 0.54382 0.28217 0.31445 0.0
H923 H 0.6265 0.96313 0.28215 0.0
H924 H 0.64153 0.0707 0.28109 0.0
H925 H 0.50858 0.11525 0.30149 0.0
H926 H 0.49532 1.00801 0.30297 0.0
H927 H 0.59966 0.1907 0.30552 0.0
H928 H 0.47565 0.11848 0.27602 0.0
H929 H 0.45046 0.05131 0.26082 0.0
H930 H 0.61148 0.10654 0.2494 0.0
H931 H 0.63798 0.17355 0.26459 0.0
C932 C 0.56873 0.46421 0.29037 0.0
C933 C 0.6105 0.48317 0.28425 0.0
C934 C 0.56422 0.40284 0.29186 0.0
C935 C 0.60122 0.35884 0.28727 0.0
C936 C 0.64307 0.3775 0.28124 0.0
C937 C 0.64798 0.43864 0.2798 0.0
C938 C 0.59557 0.29313 0.28849 0.0
C939 C 0.58305 0.25242 0.28006 0.0
C940 C 0.60158 0.27047 0.2978 0.0
C941 C 0.61852 0.31004 0.30699 0.0
C942 C 0.67046 0.34644 0.30795 0.0
C943 C 0.68675 0.3827 0.31669 0.0
C944 C 0.65197 0.38234 0.32458 0.0
C945 C 0.60074 0.34582 0.32374 0.0
C946 C 0.58391 0.30991 0.31499 0.0
C947 C 0.60084 0.99548 0.28652 0.0
C948 C 0.55907 0.97606 0.29258 0.0
C949 C 0.6091 0.05734 0.28582 0.0
C950 C 0.57535 0.10145 0.29106 0.0
C951 C 0.53492 0.08234 0.29731 0.0
C952 C 0.52692 1.0206 0.29807 0.0
C953 C 0.58135 0.16738 0.28996 0.0
C954 C 0.59393 0.2081 0.2984 0.0
C955 C 0.57537 0.19019 0.28066 0.0
C956 C 0.55906 0.1506 0.27147 0.0
C957 C 0.50584 0.11604 0.27029 0.0
C958 C 0.49131 0.07804 0.26168 0.0
C959 C 0.52942 0.07455 0.25416 0.0
C960 C 0.58203 0.10925 0.25523 0.0
C961 C 0.59679 0.1473 0.26383 0.0
H962 H 0.51813 0.04505 0.2475 0.0
H963 H 0.66481 0.41023 0.33135 0.0
H964 H 0.31473 0.27007 0.53687 0.0
H965 H 0.20723 0.28455 0.53887 0.0
H966 H 0.25162 0.41454 0.56389 0.0
H967 H 0.36004 0.39932 0.56202 0.0
H968 H 0.16489 0.33292 0.56723 0.0
H969 H 0.19611 0.4627 0.54248 0.0
H970 H 0.23075 0.48884 0.527 0.0
H971 H 0.11143 0.35623 0.51076 0.0
H972 H 0.0767 0.32864 0.52616 0.0
H973 H 0.86518 0.44873 0.57007 0.0
H974 H 0.97354 0.43526 0.56873 0.0
H975 H 0.93516 0.31381 0.54245 0.0
H976 H 0.82629 0.32867 0.54357 0.0
H977 H 1.01974 0.39302 0.53996 0.0
H978 H 0.98943 0.26148 0.56443 0.0
H979 H 0.95525 0.23276 0.57978 0.0
H980 H 0.07266 0.36557 0.59642 0.0
H981 H 0.10693 0.3957 0.58114 0.0
C982 C 0.30181 0.30149 0.54284 0.0
C983 C 0.34618 0.33339 0.5493 0.0
C984 C 0.24018 0.31012 0.54393 0.0
C985 C 0.22116 0.35101 0.55148 0.0
C986 C 0.26521 0.38285 0.55799 0.0
C987 C 0.32714 0.37448 0.55687 0.0
C988 C 0.15526 0.35977 0.55257 0.0
C989 C 0.13325 0.34705 0.56133 0.0
C990 C 0.11366 0.3765 0.54477 0.0
C991 C 0.13421 0.39323 0.53548 0.0
C992 C 0.1776 0.43877 0.53561 0.0
C993 C 0.19719 0.45391 0.52685 0.0
C994 C 0.17341 0.42412 0.5179 0.0
C995 C 0.12986 0.37922 0.5177 0.0
C996 C 0.11016 0.36386 0.52644 0.0
C997 C 0.87959 0.41926 0.56398 0.0
C998 C 0.83668 0.38997 0.55691 0.0
C999 C 0.94179 0.41111 0.56328 0.0
C1000 C 0.96281 0.37309 0.55553 0.0
C1001 C 0.92017 0.3433 0.54851 0.0
C1002 C 0.85783 0.35142 0.54921 0.0
C1003 C 0.02914 0.36598 0.55462 0.0
C1004 C 0.05129 0.37902 0.54588 0.0
C1005 C 0.07079 0.34927 0.56242 0.0
C1006 C 0.05028 0.33128 0.57163 0.0
C1007 C 1.00758 0.28493 0.57135 0.0
C1008 C 0.98826 0.26832 0.58004 0.0
C1009 C 1.01164 0.29744 0.58907 0.0
C1010 C 0.05452 0.34312 0.58942 0.0
C1011 C 0.07395 0.35995 0.58075 0.0
H1012 H 0.99664 0.2845 0.59579 0.0
H1013 H 0.18864 0.4359 0.51113 0.0
H1014 H 0.0834 0.05391 0.80207 0.0
H1015 H 0.07602 0.94691 0.80481 0.0
H1016 H 0.202 0.89899 0.78338 0.0
H1017 H 0.21007 1.00521 0.78072 0.0
H1018 H 0.10645 0.82403 0.78053 0.0
H1019 H 0.24468 0.90226 0.80814 0.0
H1020 H 0.27328 0.97429 0.82264 0.0
H1021 H 0.12273 0.91661 0.83655 0.0
H1022 H 0.09265 0.84486 0.82206 0.0
H1023 H 0.18441 0.52098 0.79075 0.0
H1024 H 0.18654 0.62871 0.78837 0.0
H1025 H 0.06228 0.66794 0.81032 0.0
H1026 H 0.05862 0.56075 0.81257 0.0
H1027 H 0.15272 0.74826 0.81314 0.0
H1028 H 1.01582 0.66794 0.7865 0.0
H1029 H 0.9764 0.60373 0.77167 0.0
H1030 H 0.11349 0.66987 0.75571 0.0
H1031 H 0.15495 0.73323 0.77053 0.0
C1032 C 0.11008 1.02073 0.79804 0.0
C1033 C 0.14713 0.03862 0.79115 0.0
C1034 C 0.10568 0.95938 0.79958 0.0
C1035 C 0.13857 0.91452 0.79431 0.0
C1036 C 0.17577 0.9324 0.78749 0.0
C1037 C 0.18019 0.99347 0.78595 0.0
C1038 C 0.13441 0.84889 0.79579 0.0
C1039 C 0.11749 0.8073 0.78763 0.0
C1040 C 0.14675 0.82716 0.80512 0.0
C1041 C 0.16617 0.86849 0.81399 0.0
C1042 C 0.21758 0.90505 0.81428 0.0
C1043 C 0.23403 0.94584 0.82249 0.0
C1044 C 0.19981 0.95006 0.8305 0.0
C1045 C 0.14921 0.91326 0.83034 0.0
C1046 C 0.13246 0.87249 0.82213 0.0
C1047 C 0.15687 0.55221 0.79499 0.0
C1048 C 0.12132 0.53134 0.80187 0.0
C1049 C 0.15835 0.61411 0.79365 0.0
C1050 C 0.12444 0.65683 0.79915 0.0
C1051 C 0.08917 0.63621 0.80602 0.0
C1052 C 0.08732 0.57446 0.80732 0.0
C1053 C 0.12581 0.72294 0.79781 0.0
C1054 C 0.14202 0.76471 0.80601 0.0
C1055 C 0.11222 0.74495 0.78851 0.0
C1056 C 0.08906 0.70482 0.77969 0.0
C1057 C 0.03825 0.6681 0.77988 0.0
C1058 C 1.01537 0.632 0.77146 0.0
C1059 C 0.0424 0.63273 0.76275 0.0
C1060 C 0.09251 0.66944 0.76245 0.0
C1061 C 0.11589 0.70527 0.77088 0.0
H1062 H 0.02459 0.6048 0.75623 0.0
H1063 H 0.21249 0.98184 0.83684 0.0
H1064 H 0.80381 0.18112 0.91966 0.0
H1065 H 0.6955 0.16914 0.92082 0.0
H1066 H 0.66252 0.35293 0.91391 0.0
H1067 H 0.77072 0.36601 0.91315 0.0
H1068 H 0.59639 0.33058 0.92784 0.0
H1069 H 0.63286 0.22846 0.89658 0.0
H1070 H 0.68267 0.15544 0.88519 0.0
H1071 H 0.62507 1.00817 0.89988 0.0
H1072 H 0.57559 0.08041 0.91145 0.0
H1073 H 0.27544 0.30364 0.91685 0.0
H1074 H 0.38303 0.31788 0.91507 0.0
H1075 H 0.42319 0.13806 0.92338 0.0
H1076 H 0.316 0.12315 0.92493 0.0
H1077 H 0.48465 0.1602 0.90835 0.0
H1078 H 0.44994 0.26324 0.9398 0.0
H1079 H 0.39941 0.33666 0.95104 0.0
H1080 H 0.45314 0.48279 0.93573 0.0
H1081 H 0.50331 0.4101 0.9243 0.0
C1082 C 0.77377 0.21928 0.91851 0.0
C1083 C 0.79645 0.27441 0.91623 0.0
C1084 C 0.71153 0.21214 0.91907 0.0
C1085 C 0.67035 0.25979 0.91728 0.0
C1086 C 0.69306 0.31529 0.91526 0.0
C1087 C 0.75518 0.32252 0.91474 0.0
C1088 C 0.60369 0.25199 0.91747 0.0
C1089 C 0.57192 0.29373 0.92347 0.0
C1090 C 0.57149 0.20344 0.91191 0.0
C1091 C 0.60105 0.1599 0.90494 0.0
C1092 C 0.63121 0.18054 0.89743 0.0
C1093 C 0.65932 0.13928 0.89093 0.0
C1094 C 0.65718 0.07721 0.89183 0.0
C1095 C 0.62677 0.05626 0.89921 0.0
C1096 C 0.59865 0.09734 0.90573 0.0
C1097 C 0.30707 0.26694 0.91819 0.0
C1098 C 0.28703 0.21248 0.92114 0.0
C1099 C 0.36871 0.27532 0.91726 0.0
C1100 C 0.41156 0.2294 0.91925 0.0
C1101 C 0.39126 0.17434 0.92187 0.0
C1102 C 0.32988 0.16605 0.92283 0.0
C1103 C 0.47763 0.23854 0.91876 0.0
C1104 C 0.50921 0.19709 0.91269 0.0
C1105 C 0.50962 0.28741 0.92425 0.0
C1106 C 0.47982 0.33118 0.93114 0.0
C1107 C 0.45058 0.31099 0.93879 0.0
C1108 C 0.42207 0.35247 0.9452 0.0
C1109 C 0.42291 0.41433 0.94408 0.0
C1110 C 0.45244 0.43485 0.93657 0.0
C1111 C 0.48095 0.39354 0.93013 0.0
H1112 H 0.40081 0.44638 0.94905 0.0
H1113 H 0.67896 0.04535 0.88679 0.0
H1114 H 0.88641 0.95401 0.1626 0.0
H1115 H 0.87161 0.06148 0.16 0.0
H1116 H 0.06236 0.09245 0.16814 0.0
H1117 H 0.07691 0.98594 0.17083 0.0
H1118 H 1.00139 0.17605 0.17752 0.0
H1119 H 0.99342 0.09283 0.14391 0.0
H1120 H 0.95675 0.02578 0.12921 0.0
H1121 H 0.7777 0.10185 0.13031 0.0
H1122 H 0.81314 0.16883 0.1451 0.0
H1123 H 1.01217 0.47858 0.16553 0.0
H1124 H 0.02822 0.36859 0.16462 0.0
H1125 H 0.83544 0.34154 0.15868 0.0
H1126 H 0.81933 0.45117 0.1594 0.0
H1127 H 0.89686 0.25636 0.14788 0.0
H1128 H 0.9048 0.33722 0.1817 0.0
H1129 H 0.94163 0.40475 0.19633 0.0
H1130 H 0.12176 0.33227 0.19473 0.0
H1131 H 0.08613 0.26489 0.17999 0.0
C1132 C 0.92527 0.98358 0.16366 0.0
C1133 C 0.98277 0.96132 0.16699 0.0
C1134 C 0.91683 0.04517 0.16218 0.0
C1135 C 0.96589 0.08566 0.16387 0.0
C1136 C 0.02356 0.06275 0.16687 0.0
C1137 C 0.03186 1.00162 0.1684 0.0
C1138 C 0.95733 0.15226 0.163 0.0
C1139 C 0.97934 0.19337 0.17096 0.0
C1140 C 0.92723 0.17558 0.15456 0.0
C1141 C 0.90581 0.1354 0.14567 0.0
C1142 C 0.94612 0.09491 0.14106 0.0
C1143 C 0.92558 0.05699 0.13271 0.0
C1144 C 0.8649 0.05943 0.12885 0.0
C1145 C 0.82467 0.09994 0.13332 0.0
C1146 C 0.84497 0.13793 0.14169 0.0
C1147 C 0.97332 0.44925 0.16383 0.0
C1148 C 0.91438 0.47399 0.16263 0.0
C1149 C 0.98247 0.38623 0.16339 0.0
C1150 C 0.93295 0.34644 0.16174 0.0
C1151 C 0.87443 0.37098 0.16002 0.0
C1152 C 0.86524 0.43387 0.1605 0.0
C1153 C 0.94158 0.27972 0.16235 0.0
C1154 C 0.91927 0.23876 0.1544 0.0
C1155 C 0.9715 0.25637 0.17078 0.0
C1156 C 0.99293 0.29649 0.17968 0.0
C1157 C 0.95235 0.33601 0.18442 0.0
C1158 C 0.973 0.37421 0.19274 0.0
C1159 C 0.03403 0.37293 0.19644 0.0
C1160 C 0.07452 0.33329 0.19185 0.0
C1161 C 0.05412 0.29506 0.18351 0.0
H1162 H 0.04993 0.40254 0.20288 0.0
H1163 H 0.84909 0.03004 0.12237 0.0
H1164 H 0.82654 0.73995 0.43803 0.0
H1165 H 0.93192 0.74528 0.43485 0.0
H1166 H 0.87841 0.72635 0.40372 0.0
H1167 H 0.77163 0.72078 0.40689 0.0
H1168 H 1.00557 0.6683 0.42636 0.0
H1169 H 0.98449 0.80224 0.39247 0.0
H1170 H 0.91539 0.87566 0.38461 0.0
H1171 H 0.85508 0.93875 0.41252 0.0
H1172 H 0.92456 0.86651 0.42057 0.0
H1173 H 0.30371 0.68491 0.41098 0.0
H1174 H 0.19472 0.66734 0.41097 0.0
H1175 H 0.16706 0.85715 0.4198 0.0
H1176 H 0.27502 0.87486 0.41959 0.0
H1177 H 0.07924 0.8225 0.40685 0.0
H1178 H 0.17321 0.74102 0.4361 0.0
H1179 H 0.24346 0.67426 0.44524 0.0
H1180 H 0.15864 0.51773 0.429 0.0
H1181 H 0.08841 0.58362 0.41968 0.0
C1182 C 0.83678 0.73621 0.43048 0.0
C1183 C 0.79012 0.72936 0.42272 0.0
C1184 C 0.89746 0.73941 0.42867 0.0
C1185 C 0.91368 0.73614 0.41905 0.0
C1186 C 0.86732 0.72953 0.41123 0.0
C1187 C 0.80616 0.72647 0.41305 0.0
C1188 C 0.97915 0.74046 0.4174 0.0
C1189 C 1.02151 0.70177 0.42202 0.0
C1190 C 1.00058 0.78427 0.41182 0.0
C1191 C 0.95915 0.82841 0.40709 0.0
C1192 C 0.95663 0.83195 0.39693 0.0
C1193 C 0.91748 0.87342 0.39245 0.0
C1194 C 0.88069 0.91167 0.39806 0.0
C1195 C 0.88335 0.90888 0.40818 0.0
C1196 C 0.92262 0.86769 0.4127 0.0
C1197 C 0.27434 0.72276 0.41295 0.0
C1198 C 0.29827 0.78131 0.41526 0.0
C1199 C 0.21191 0.71273 0.41294 0.0
C1200 C 0.17214 0.76082 0.41546 0.0
C1201 C 0.19621 0.81923 0.41775 0.0
C1202 C 0.25824 0.82934 0.41763 0.0
C1203 C 0.10581 0.75093 0.41593 0.0
C1204 C 0.06326 0.78843 0.41107 0.0
C1205 C 0.08425 0.70681 0.42146 0.0
C1206 C 0.12603 0.66723 0.42713 0.0
C1207 C 0.16981 0.69237 0.43444 0.0
C1208 C 0.20958 0.65469 0.43966 0.0
C1209 C 0.20563 0.5918 0.43768 0.0
C1210 C 0.16173 0.56645 0.43051 0.0
C1211 C 0.12192 0.60392 0.42526 0.0
H1212 H 0.23648 0.56272 0.44172 0.0
H1213 H 0.85024 0.94357 0.39456 0.0
H1214 H 0.52655 1.01927 0.6741 0.0
H1215 H 0.54365 0.90995 0.67422 0.0
H1216 H 0.38136 0.87654 0.65446 0.0
H1217 H 0.36373 0.98559 0.65447 0.0
H1218 H 0.38109 0.80597 0.66825 0.0
H1219 H 0.53061 0.85141 0.64739 0.0
H1220 H 0.61775 0.90504 0.64265 0.0
H1221 H 0.73017 0.84584 0.66722 0.0
H1222 H 0.64346 0.79252 0.67218 0.0
H1223 H 0.42958 0.48622 0.66077 0.0
H1224 H 0.41915 0.59283 0.65743 0.0
H1225 H 0.57267 0.63842 0.67855 0.0
H1226 H 0.58395 0.53229 0.68172 0.0
H1227 H 0.57655 0.70124 0.66308 0.0
H1228 H 0.42562 0.66082 0.68433 0.0
H1229 H 0.33855 0.60722 0.68911 0.0
H1230 H 0.22875 0.6574 0.66361 0.0
H1231 H 0.31549 0.71059 0.65861 0.0
C1232 C 0.4951 0.98868 0.66965 0.0
C1233 C 0.44368 1.01152 0.66429 0.0
C1234 C 0.50488 0.9259 0.66971 0.0
C1235 C 0.46405 0.88426 0.66429 0.0
C1236 C 0.4135 0.9072 0.65876 0.0
C1237 C 0.40345 0.9698 0.65876 0.0
C1238 C 0.47236 0.81709 0.66468 0.0
C1239 C 0.42362 0.78311 0.66694 0.0
C1240 C 0.52807 0.78668 0.6632 0.0
C1241 C 0.58038 0.81842 0.6602 0.0
C1242 C 0.57381 0.85018 0.65182 0.0
C1243 C 0.62314 0.88047 0.64909 0.0
C1244 C 0.67942 0.87897 0.65464 0.0
C1245 C 0.68653 0.84702 0.66293 0.0
C1246 C 0.63732 0.8167 0.6657 0.0
C1247 C 0.46174 0.51876 0.66456 0.0
C1248 C 0.50729 0.50055 0.67159 0.0
C1249 C 0.45542 0.57995 0.66272 0.0
C1250 C 0.49453 0.6243 0.66785 0.0
C1251 C 0.54166 0.60555 0.67451 0.0
C1252 C 0.54782 0.54469 0.67638 0.0
C1253 C 0.48533 0.69044 0.66664 0.0
C1254 C 0.53391 0.72419 0.66428 0.0
C1255 C 0.42947 0.7207 0.66801 0.0
C1256 C 0.37721 0.68909 0.67104 0.0
C1257 C 0.38303 0.66003 0.67971 0.0
C1258 C 0.33373 0.62979 0.68246 0.0
C1259 C 0.27821 0.62876 0.67665 0.0
C1260 C 0.27182 0.65814 0.66809 0.0
C1261 C 0.32102 0.68836 0.6653 0.0
H1262 H 0.24009 0.60532 0.67879 0.0
H1263 H 0.71756 0.90246 0.65252 0.0
loop_
_geom_bond_atom_site_label_1
_geom_bond_atom_site_label_2
_geom_bond_distance
_geom_bond_site_symmetry_2
_ccdc_geom_bond_type
C0 C1 1.351 . S
C0 N3 1.368 . S
C0 H5 0.931 . S
C1 C0 1.351 . S
C1 N2 1.373 . S
C1 H29 0.930 . S
N2 C1 1.373 . S
N2 C4 1.340 . S
N3 C0 1.368 . S
N3 C4 1.321 . S
N3 Co6 2.135 . S
C4 N2 1.340 . S
C4 N3 1.321 . S
C4 H28 0.930 . S
H5 C0 0.931 . S
Co6 N3 2.135 . S
Co6 N9 2.121 1_455 S
Co6 O14 2.055 . S
Co6 O17 2.039 . S
Co6 N20 2.140 . S
C7 O8 1.227 . S
C7 O17 1.265 . S
O8 C7 1.227 . S
N9 Co6 2.121 1_655 S
N9 C11 1.375 . S
N9 C12 1.313 . S
C10 C11 1.338 . S
C10 N13 1.377 . S
C10 H30 0.930 . S
C11 N9 1.375 . S
C11 C10 1.338 . S
C11 H15 0.931 . S
C12 N9 1.313 . S
C12 N13 1.344 . S
C12 H16 0.930 . S
N13 C10 1.377 . S
N13 C12 1.344 . S
O14 Co6 2.055 . S
O14 C18 1.253 . S
H15 C11 0.931 . S
H16 C12 0.930 . S
O17 Co6 2.039 . S
O17 C7 1.265 . S
C18 O14 1.253 . S
C18 O19 1.227 . S
O19 C18 1.227 . S
N20 Co6 2.140 . S
N20 C23 1.346 . S
N20 C24 1.344 1_455 S
C21 C22 1.387 . S
C21 C25 1.391 1_455 S
C22 C21 1.387 . S
C22 C23 1.369 . S
C22 H31 0.929 . S
C23 N20 1.346 . S
C23 C22 1.369 . S
C23 H26 0.928 . S
C24 N20 1.344 1_655 S
C24 C25 1.371 . S
C24 H27 0.932 . S
C25 C21 1.391 1_655 S
C25 C24 1.371 . S
C25 H32 0.930 . S
H26 C23 0.928 . S
H27 C24 0.932 . S
H28 C4 0.930 . S
H29 C1 0.930 . S
H30 C10 0.930 . S
H31 C22 0.929 . S
H32 C25 0.930 . S
C33 C34 1.351 . S
C33 N36 1.368 . S
C33 H38 0.931 . S
C34 C33 1.351 . S
C34 N35 1.373 . S
C34 H62 0.930 . S
N35 C34 1.373 . S
N35 C37 1.340 . S
N36 C33 1.368 . S
N36 C37 1.321 . S
N36 Co39 2.135 . S
C37 N35 1.340 . S
C37 N36 1.321 . S
C37 H61 0.930 . S
H38 C33 0.931 . S
Co39 N36 2.135 . S
Co39 N42 2.121 . S
Co39 O47 2.055 . S
Co39 O50 2.039 . S
Co39 N53 2.140 . S
C40 O41 1.227 . S
C40 O50 1.265 . S
O41 C40 1.227 . S
N42 Co39 2.121 . S
N42 C44 1.375 . S
N42 C45 1.313 . S
C43 C44 1.338 . S
C43 N46 1.377 . S
C43 H63 0.930 . S
C44 N42 1.375 . S
C44 C43 1.338 . S
C44 H48 0.931 . S
C45 N42 1.313 . S
C45 N46 1.344 . S
C45 H49 0.930 . S
N46 C43 1.377 . S
N46 C45 1.344 . S
O47 Co39 2.055 . S
O47 C51 1.253 . S
H48 C44 0.931 . S
H49 C45 0.930 . S
O50 Co39 2.039 . S
O50 C40 1.265 . S
C51 O47 1.253 . S
C51 O52 1.227 . S
O52 C51 1.227 . S
N53 Co39 2.140 . S
N53 C56 1.346 . S
N53 C57 1.345 . S
C54 C55 1.387 . S
C54 C58 1.391 . S
C55 C54 1.387 . S
C55 C56 1.369 . S
C55 H64 0.929 . S
C56 N53 1.346 . S
C56 C55 1.369 . S
C56 H59 0.928 . S
C57 N53 1.345 . S
C57 C58 1.371 . S
C57 H60 0.931 . S
C58 C54 1.391 . S
C58 C57 1.371 . S
C58 H65 0.930 . S
H59 C56 0.928 . S
H60 C57 0.931 . S
H61 C37 0.930 . S
H62 C34 0.930 . S
H63 C43 0.930 . S
H64 C55 0.929 . S
H65 C58 0.930 . S
C66 C67 1.351 . S
C66 N69 1.368 . S
C66 H71 0.931 . S
C67 C66 1.351 . S
C67 N68 1.373 . S
C67 H95 0.930 . S
N68 C67 1.373 . S
N68 C70 1.340 . S
N69 C66 1.368 . S
N69 C70 1.321 . S
N69 Co72 2.135 . S
C70 N68 1.340 . S
C70 N69 1.321 . S
C70 H94 0.930 . S
H71 C66 0.931 . S
Co72 N69 2.135 . S
Co72 N75 2.121 . S
Co72 O80 2.055 . S
Co72 O83 2.039 . S
Co72 N86 2.140 . S
C73 O74 1.227 . S
C73 O83 1.265 . S
O74 C73 1.227 . S
N75 Co72 2.121 . S
N75 C77 1.375 . S
N75 C78 1.313 . S
C76 C77 1.338 . S
C76 N79 1.377 . S
C76 H96 0.930 . S
C77 N75 1.375 . S
C77 C76 1.338 . S
C77 H81 0.931 . S
C78 N75 1.313 . S
C78 N79 1.344 . S
C78 H82 0.930 . S
N79 C76 1.377 . S
N79 C78 1.344 . S
O80 Co72 2.055 . S
O80 C84 1.253 . S
H81 C77 0.931 . S
H82 C78 0.930 . S
O83 Co72 2.039 . S
O83 C73 1.265 . S
C84 O80 1.253 . S
C84 O85 1.227 . S
O85 C84 1.227 . S
N86 Co72 2.140 . S
N86 C89 1.346 . S
N86 C90 1.345 . S
C87 C88 1.387 . S
C87 C91 1.391 . S
C88 C87 1.387 . S
C88 C89 1.369 . S
C88 H97 0.929 . S
C89 N86 1.346 . S
C89 C88 1.369 . S
C89 H92 0.928 . S
C90 N86 1.345 . S
C90 C91 1.371 . S
C90 H93 0.931 . S
C91 C87 1.391 . S
C91 C90 1.371 . S
C91 H98 0.930 . S
H92 C89 0.928 . S
H93 C90 0.931 . S
H94 C70 0.930 . S
H95 C67 0.930 . S
H96 C76 0.930 . S
H97 C88 0.929 . S
H98 C91 0.930 . S
C99 C100 1.351 . S
C99 N102 1.368 . S
C99 H104 0.931 . S
C100 C99 1.351 . S
C100 N101 1.373 . S
C100 H128 0.930 . S
N101 C100 1.373 . S
N101 C103 1.340 . S
N102 C99 1.368 . S
N102 C103 1.321 . S
N102 Co105 2.135 . S
C103 N101 1.340 . S
C103 N102 1.321 . S
C103 H127 0.930 . S
H104 C99 0.931 . S
Co105 N102 2.135 . S
Co105 N108 2.121 . S
Co105 O113 2.055 . S
Co105 O116 2.039 . S
Co105 N119 2.140 . S
C106 O107 1.227 . S
C106 O116 1.265 . S
O107 C106 1.227 . S
N108 Co105 2.121 . S
N108 C110 1.375 . S
N108 C111 1.313 . S
C109 C110 1.338 . S
C109 N112 1.377 . S
C109 H129 0.930 . S
C110 N108 1.375 . S
C110 C109 1.338 . S
C110 H114 0.931 . S
C111 N108 1.313 . S
C111 N112 1.344 . S
C111 H115 0.930 . S
N112 C109 1.377 . S
N112 C111 1.344 . S
O113 Co105 2.055 . S
O113 C117 1.253 . S
H114 C110 0.931 . S
H115 C111 0.930 . S
O116 Co105 2.039 . S
O116 C106 1.265 . S
C117 O113 1.253 . S
C117 O118 1.227 . S
O118 C117 1.227 . S
N119 Co105 2.140 . S
N119 C122 1.346 . S
N119 C123 1.345 1_455 S
C120 C121 1.387 . S
C120 C124 1.391 . S
C121 C120 1.387 . S
C121 C122 1.369 1_655 S
C121 H130 0.929 . S
C122 N119 1.346 . S
C122 C121 1.369 1_455 S
C122 H125 0.928 . S
C123 N119 1.345 1_655 S
C123 C124 1.371 . S
C123 H126 0.931 . S
C124 C120 1.391 . S
C124 C123 1.371 . S
C124 H131 0.930 . S
H125 C122 0.928 . S
H126 C123 0.931 . S
H127 C103 0.930 . S
H128 C100 0.930 . S
H129 C109 0.930 . S
H130 C121 0.929 . S
H131 C124 0.930 . S
C132 C133 1.351 . S
C132 N135 1.368 . S
C132 H137 0.931 . S
C133 C132 1.351 . S
C133 N134 1.373 . S
C133 H161 0.930 . S
N134 C133 1.373 . S
N134 C136 1.340 . S
N135 C132 1.368 . S
N135 C136 1.321 . S
N135 Co138 2.135 1_655 S
C136 N134 1.340 . S
C136 N135 1.321 . S
C136 H160 0.930 . S
H137 C132 0.931 . S
Co138 N135 2.135 1_455 S
Co138 N141 2.121 . S
Co138 O146 2.055 . S
Co138 O149 2.039 . S
Co138 N152 2.140 . S
C139 O140 1.227 . S
C139 O149 1.265 . S
O140 C139 1.227 . S
N141 Co138 2.121 . S
N141 C143 1.375 . S
N141 C144 1.313 . S
C142 C143 1.338 . S
C142 N145 1.377 . S
C142 H162 0.930 . S
C143 N141 1.375 . S
C143 C142 1.338 . S
C143 H147 0.931 . S
C144 N141 1.313 . S
C144 N145 1.344 . S
C144 H148 0.930 . S
N145 C142 1.377 . S
N145 C144 1.344 . S
O146 Co138 2.055 . S
O146 C150 1.253 . S
H147 C143 0.931 . S
H148 C144 0.930 . S
O149 Co138 2.039 . S
O149 C139 1.265 . S
C150 O146 1.253 . S
C150 O151 1.227 . S
O151 C150 1.227 . S
N152 Co138 2.140 . S
N152 C155 1.346 . S
N152 C156 1.345 . S
C153 C154 1.387 . S
C153 C157 1.391 . S
C154 C153 1.387 . S
C154 C155 1.369 . S
C154 H163 0.929 1_455 S
C155 N152 1.346 . S
C155 C154 1.369 . S
C155 H158 0.928 1_455 S
C156 N152 1.345 . S
C156 C157 1.371 . S
C156 H159 0.931 . S
C157 C153 1.391 . S
C157 C156 1.371 . S
C157 H164 0.930 . S
H158 C155 0.928 1_655 S
H159 C156 0.931 . S
H160 C136 0.930 . S
H161 C133 0.930 . S
H162 C142 0.930 . S
H163 C154 0.929 1_655 S
H164 C157 0.930 . S
C165 C166 1.351 . S
C165 N168 1.368 1_655 S
C165 H170 0.931 . S
C166 C165 1.351 . S
C166 N167 1.373 1_655 S
C166 H194 0.930 . S
N167 C166 1.373 1_455 S
N167 C169 1.340 . S
N168 C165 1.368 1_455 S
N168 C169 1.321 . S
N168 Co171 2.135 . S
C169 N167 1.340 . S
C169 N168 1.321 . S
C169 H193 0.930 . S
H170 C165 0.931 . S
Co171 N168 2.135 . S
Co171 N174 2.121 . S
Co171 O179 2.055 . S
Co171 O182 2.039 . S
Co171 N185 2.140 1_455 S
C172 O173 1.227 . S
C172 O182 1.265 . S
O173 C172 1.227 . S
N174 Co171 2.121 . S
N174 C176 1.375 . S
N174 C177 1.313 . S
C175 C176 1.338 . S
C175 N178 1.377 . S
C175 H195 0.930 . S
C176 N174 1.375 . S
C176 C175 1.338 . S
C176 H180 0.931 . S
C177 N174 1.313 . S
C177 N178 1.344 . S
C177 H181 0.930 . S
N178 C175 1.377 . S
N178 C177 1.344 . S
O179 Co171 2.055 . S
O179 C183 1.253 . S
H180 C176 0.931 . S
H181 C177 0.930 . S
O182 Co171 2.039 . S
O182 C172 1.265 . S
C183 O179 1.253 . S
C183 O184 1.227 1_455 S
O184 C183 1.227 1_655 S
N185 Co171 2.140 1_655 S
N185 C188 1.346 . S
N185 C189 1.345 . S
C186 C187 1.387 . S
C186 C190 1.391 . S
C187 C186 1.387 . S
C187 C188 1.369 . S
C187 H196 0.929 . S
C188 N185 1.346 . S
C188 C187 1.369 . S
C188 H191 0.928 . S
C189 N185 1.345 . S
C189 C190 1.371 . S
C189 H192 0.931 . S
C190 C186 1.391 . S
C190 C189 1.371 . S
C190 H197 0.930 . S
H191 C188 0.928 . S
H192 C189 0.931 . S
H193 C169 0.930 . S
H194 C166 0.930 . S
H195 C175 0.930 . S
H196 C187 0.929 . S
H197 C190 0.930 . S
C198 C199 1.351 . S
C198 N201 1.368 . S
C198 H203 0.931 . S
C199 C198 1.351 . S
C199 N200 1.373 . S
C199 H227 0.930 . S
N200 C199 1.373 . S
N200 C202 1.340 . S
N201 C198 1.368 . S
N201 C202 1.321 . S
N201 Co204 2.135 . S
C202 N200 1.340 . S
C202 N201 1.321 . S
C202 H226 0.930 . S
H203 C198 0.931 . S
Co204 N201 2.135 . S
Co204 N207 2.121 . S
Co204 O212 2.055 . S
Co204 O215 2.039 . S
Co204 N218 2.140 . S
C205 O206 1.227 . S
C205 O215 1.265 . S
O206 C205 1.227 . S
N207 Co204 2.121 . S
N207 C209 1.375 . S
N207 C210 1.313 . S
C208 C209 1.338 . S
C208 N211 1.377 . S
C208 H228 0.930 . S
C209 N207 1.375 . S
C209 C208 1.338 . S
C209 H213 0.931 . S
C210 N207 1.313 . S
C210 N211 1.344 . S
C210 H214 0.930 . S
N211 C208 1.377 . S
N211 C210 1.344 . S
O212 Co204 2.055 . S
O212 C216 1.253 . S
H213 C209 0.931 . S
H214 C210 0.930 . S
O215 Co204 2.039 . S
O215 C205 1.265 . S
C216 O212 1.253 . S
C216 O217 1.227 . S
O217 C216 1.227 . S
N218 Co204 2.140 . S
N218 C221 1.346 . S
N218 C222 1.345 . S
C219 C220 1.387 . S
C219 C223 1.391 . S
C220 C219 1.387 . S
C220 C221 1.369 . S
C220 H229 0.929 . S
C221 N218 1.346 . S
C221 C220 1.369 . S
C221 H224 0.928 . S
C222 N218 1.345 . S
C222 C223 1.371 . S
C222 H225 0.931 . S
C223 C219 1.391 . S
C223 C222 1.371 . S
C223 H230 0.930 . S
H224 C221 0.928 . S
H225 C222 0.931 . S
H226 C202 0.930 . S
H227 C199 0.930 . S
H228 C208 0.930 . S
H229 C220 0.929 . S
H230 C223 0.930 . S
C231 C232 1.351 . S
C231 N234 1.368 . S
C231 H236 0.931 . S
C232 C231 1.351 . S
C232 N233 1.373 . S
C232 H260 0.930 . S
N233 C232 1.373 . S
N233 C235 1.340 . S
N234 C231 1.368 . S
N234 C235 1.321 . S
N234 Co237 2.135 . S
C235 N233 1.340 . S
C235 N234 1.321 . S
C235 H259 0.930 . S
H236 C231 0.931 . S
Co237 N234 2.135 . S
Co237 N240 2.121 . S
Co237 O245 2.055 . S
Co237 O248 2.039 . S
Co237 N251 2.140 . S
C238 O239 1.227 . S
C238 O248 1.265 . S
O239 C238 1.227 . S
N240 Co237 2.121 . S
N240 C242 1.375 . S
N240 C243 1.313 . S
C241 C242 1.338 . S
C241 N244 1.377 . S
C241 H261 0.930 . S
C242 N240 1.375 . S
C242 C241 1.338 . S
C242 H246 0.931 . S
C243 N240 1.313 . S
C243 N244 1.344 . S
C243 H247 0.930 . S
N244 C241 1.377 . S
N244 C243 1.344 . S
O245 Co237 2.055 . S
O245 C249 1.253 . S
H246 C242 0.931 . S
H247 C243 0.930 . S
O248 Co237 2.039 . S
O248 C238 1.265 . S
C249 O245 1.253 . S
C249 O250 1.227 . S
O250 C249 1.227 . S
N251 Co237 2.140 . S
N251 C254 1.346 . S
N251 C255 1.345 . S
C252 C253 1.387 . S
C252 C256 1.391 . S
C253 C252 1.387 . S
C253 C254 1.369 . S
C253 H262 0.929 . S
C254 N251 1.346 . S
C254 C253 1.369 . S
C254 H257 0.928 . S
C255 N251 1.345 . S
C255 C256 1.371 . S
C255 H258 0.931 . S
C256 C252 1.391 . S
C256 C255 1.371 . S
C256 H263 0.930 . S
H257 C254 0.928 . S
H258 C255 0.931 . S
H259 C235 0.930 . S
H260 C232 0.930 . S
H261 C241 0.930 . S
H262 C253 0.929 . S
H263 C256 0.930 . S
H264 C282 0.951 . S
H265 C284 0.951 . S
H266 C286 0.950 . S
H267 C287 0.950 . S
H268 C289 0.950 . S
H269 C292 0.950 . S
H270 C293 0.950 . S
H271 C295 0.950 . S
H272 C296 0.950 . S
H273 C297 0.951 . S
H274 C299 0.951 . S
H275 C301 0.950 . S
H276 C302 0.950 . S
H277 C304 0.950 . S
H278 C307 0.950 . S
H279 C308 0.950 . S
H280 C310 0.950 . S
H281 C311 0.950 . S
C282 H264 0.951 . S
C282 C283 1.366 1_655 S
C282 C284 1.388 . S
C283 C282 1.366 1_455 S
C283 C287 1.385 . S
C284 H265 0.951 . S
C284 C282 1.388 . S
C284 C285 1.366 1_655 S
C285 C284 1.366 1_455 S
C285 C286 1.414 . S
C285 C288 1.499 . S
C286 H266 0.950 . S
C286 C285 1.414 . S
C286 C287 1.374 . S
C287 H267 0.950 . S
C287 C283 1.385 . S
C287 C286 1.374 . S
C288 C285 1.499 . S
C288 C289 1.373 . S
C288 C290 1.389 1_455 S
C289 H268 0.950 . S
C289 C288 1.373 . S
C289 C305 1.377 . S
C290 C288 1.389 1_655 S
C290 C291 1.524 . S
C290 C304 1.377 . S
C291 C290 1.524 . S
C291 C292 1.397 . S
C291 C296 1.363 . S
C292 H269 0.950 . S
C292 C291 1.397 . S
C292 C293 1.334 . S
C293 H270 0.950 . S
C293 C292 1.334 . S
C293 C294 1.287 . S
C294 C293 1.287 . S
C294 C295 1.524 . S
C294 H313 0.913 . S
C295 H271 0.950 . S
C295 C294 1.524 . S
C295 C296 1.415 . S
C296 H272 0.950 . S
C296 C291 1.363 . S
C296 C295 1.415 . S
C297 H273 0.951 . S
C297 C298 1.366 . S
C297 C299 1.388 . S
C298 C297 1.366 . S
C298 C302 1.385 1_455 S
C299 H274 0.951 . S
C299 C297 1.388 . S
C299 C300 1.366 . S
C300 C299 1.366 . S
C300 C301 1.414 1_455 S
C300 C303 1.499 . S
C301 H275 0.950 . S
C301 C300 1.414 1_655 S
C301 C302 1.374 . S
C302 H276 0.950 . S
C302 C298 1.385 1_655 S
C302 C301 1.374 . S
C303 C300 1.499 . S
C303 C304 1.373 1_455 S
C303 C305 1.389 . S
C304 H277 0.950 . S
C304 C290 1.377 . S
C304 C303 1.373 1_655 S
C305 C289 1.377 . S
C305 C303 1.389 . S
C305 C306 1.524 . S
C306 C305 1.524 . S
C306 C307 1.397 . S
C306 C311 1.363 . S
C307 H278 0.950 . S
C307 C306 1.397 . S
C307 C308 1.334 . S
C308 H279 0.950 . S
C308 C307 1.334 . S
C308 C309 1.287 . S
C309 C308 1.287 . S
C309 C310 1.524 . S
C309 H312 0.999 . S
C310 H280 0.950 . S
C310 C309 1.524 . S
C310 C311 1.415 . S
C311 H281 0.950 . S
C311 C306 1.363 . S
C311 C310 1.415 . S
H312 C309 0.999 . S
H313 C294 0.913 . S
H314 C332 0.951 . S
H315 C334 0.951 . S
H316 C336 0.950 . S
H317 C337 0.950 . S
H318 C339 0.950 . S
H319 C342 0.950 . S
H320 C343 0.950 . S
H321 C345 0.950 . S
H322 C346 0.950 . S
H323 C347 0.951 . S
H324 C349 0.951 . S
H325 C351 0.950 . S
H326 C352 0.950 . S
H327 C354 0.950 . S
H328 C357 0.950 . S
H329 C358 0.950 . S
H330 C360 0.950 . S
H331 C361 0.950 . S
C332 H314 0.951 . S
C332 C333 1.366 . S
C332 C334 1.388 . S
C333 C332 1.366 . S
C333 C337 1.385 . S
C334 H315 0.951 . S
C334 C332 1.388 . S
C334 C335 1.366 . S
C335 C334 1.366 . S
C335 C336 1.414 . S
C335 C338 1.499 . S
C336 H316 0.950 . S
C336 C335 1.414 . S
C336 C337 1.374 . S
C337 H317 0.950 . S
C337 C333 1.385 . S
C337 C336 1.374 . S
C338 C335 1.499 . S
C338 C339 1.373 . S
C338 C340 1.389 . S
C339 H318 0.950 . S
C339 C338 1.373 . S
C339 C355 1.377 . S
C340 C338 1.389 . S
C340 C341 1.524 . S
C340 C354 1.377 . S
C341 C340 1.524 . S
C341 C342 1.397 . S
C341 C346 1.363 . S
C342 H319 0.950 . S
C342 C341 1.397 . S
C342 C343 1.334 . S
C343 H320 0.950 . S
C343 C342 1.334 . S
C343 C344 1.287 . S
C344 C343 1.287 . S
C344 C345 1.524 . S
C344 H363 0.913 . S
C345 H321 0.950 . S
C345 C344 1.524 . S
C345 C346 1.415 . S
C346 H322 0.950 . S
C346 C341 1.363 . S
C346 C345 1.415 . S
C347 H323 0.951 . S
C347 C348 1.366 . S
C347 C349 1.388 . S
C348 C347 1.366 . S
C348 C352 1.385 . S
C349 H324 0.951 . S
C349 C347 1.388 . S
C349 C350 1.366 . S
C350 C349 1.366 . S
C350 C351 1.414 . S
C350 C353 1.499 . S
C351 H325 0.950 . S
C351 C350 1.414 . S
C351 C352 1.374 . S
C352 H326 0.950 . S
C352 C348 1.385 . S
C352 C351 1.374 . S
C353 C350 1.499 . S
C353 C354 1.373 . S
C353 C355 1.389 . S
C354 H327 0.950 . S
C354 C340 1.377 . S
C354 C353 1.373 . S
C355 C339 1.377 . S
C355 C353 1.389 . S
C355 C356 1.524 . S
C356 C355 1.524 . S
C356 C357 1.397 . S
C356 C361 1.363 . S
C357 H328 0.950 . S
C357 C356 1.397 . S
C357 C358 1.334 . S
C358 H329 0.950 . S
C358 C357 1.334 . S
C358 C359 1.287 . S
C359 C358 1.287 . S
C359 C360 1.524 . S
C359 H362 0.999 . S
C360 H330 0.950 . S
C360 C359 1.524 . S
C360 C361 1.415 . S
C361 H331 0.950 . S
C361 C356 1.363 . S
C361 C360 1.415 . S
H362 C359 0.999 . S
H363 C344 0.913 . S
H364 C382 0.951 . S
H365 C384 0.951 . S
H366 C386 0.950 . S
H367 C387 0.950 . S
H368 C389 0.950 . S
H369 C392 0.950 . S
H370 C393 0.950 . S
H371 C395 0.950 . S
H372 C396 0.950 . S
H373 C397 0.951 . S
H374 C399 0.951 . S
H375 C401 0.950 . S
H376 C402 0.950 . S
H377 C404 0.950 . S
H378 C407 0.950 . S
H379 C408 0.950 . S
H380 C410 0.950 . S
H381 C411 0.950 . S
C382 H364 0.951 . S
C382 C383 1.366 . S
C382 C384 1.388 . S
C383 C382 1.366 . S
C383 C387 1.385 . S
C384 H365 0.951 . S
C384 C382 1.388 . S
C384 C385 1.366 . S
C385 C384 1.366 . S
C385 C386 1.414 . S
C385 C388 1.499 . S
C386 H366 0.950 . S
C386 C385 1.414 . S
C386 C387 1.374 . S
C387 H367 0.950 . S
C387 C383 1.385 . S
C387 C386 1.374 . S
C388 C385 1.499 . S
C388 C389 1.373 . S
C388 C390 1.389 . S
C389 H368 0.950 . S
C389 C388 1.373 . S
C389 C405 1.377 . S
C390 C388 1.389 . S
C390 C391 1.524 . S
C390 C404 1.377 . S
C391 C390 1.524 . S
C391 C392 1.397 . S
C391 C396 1.363 . S
C392 H369 0.950 . S
C392 C391 1.397 . S
C392 C393 1.334 . S
C393 H370 0.950 . S
C393 C392 1.334 . S
C393 C394 1.287 . S
C394 C393 1.287 . S
C394 C395 1.524 . S
C394 H413 0.913 . S
C395 H371 0.950 . S
C395 C394 1.524 . S
C395 C396 1.415 . S
C396 H372 0.950 . S
C396 C391 1.363 . S
C396 C395 1.415 . S
C397 H373 0.951 . S
C397 C398 1.366 . S
C397 C399 1.388 . S
C398 C397 1.366 . S
C398 C402 1.385 . S
C399 H374 0.951 . S
C399 C397 1.388 . S
C399 C400 1.366 . S
C400 C399 1.366 . S
C400 C401 1.414 . S
C400 C403 1.499 . S
C401 H375 0.950 . S
C401 C400 1.414 . S
C401 C402 1.374 . S
C402 H376 0.950 . S
C402 C398 1.385 . S
C402 C401 1.374 . S
C403 C400 1.499 . S
C403 C404 1.373 . S
C403 C405 1.389 . S
C404 H377 0.950 . S
C404 C390 1.377 . S
C404 C403 1.373 . S
C405 C389 1.377 . S
C405 C403 1.389 . S
C405 C406 1.524 . S
C406 C405 1.524 . S
C406 C407 1.397 . S
C406 C411 1.363 . S
C407 H378 0.950 . S
C407 C406 1.397 . S
C407 C408 1.334 . S
C408 H379 0.950 . S
C408 C407 1.334 . S
C408 C409 1.287 . S
C409 C408 1.287 . S
C409 C410 1.524 . S
C409 H412 0.999 . S
C410 H380 0.950 . S
C410 C409 1.524 . S
C410 C411 1.415 . S
C411 H381 0.950 . S
C411 C406 1.363 . S
C411 C410 1.415 . S
H412 C409 0.999 . S
H413 C394 0.913 . S
H414 C432 0.951 . S
H415 C434 0.951 . S
H416 C436 0.950 . S
H417 C437 0.950 . S
H418 C439 0.950 . S
H419 C442 0.950 . S
H420 C443 0.950 . S
H421 C445 0.950 1_565 S
H422 C446 0.950 . S
H423 C447 0.951 . S
H424 C449 0.951 . S
H425 C451 0.950 . S
H426 C452 0.950 . S
H427 C454 0.950 . S
H428 C457 0.950 . S
H429 C458 0.950 . S
H430 C460 0.950 . S
H431 C461 0.950 . S
C432 H414 0.951 . S
C432 C433 1.366 . S
C432 C434 1.388 . S
C433 C432 1.366 . S
C433 C437 1.385 . S
C434 H415 0.951 . S
C434 C432 1.388 . S
C434 C435 1.366 . S
C435 C434 1.366 . S
C435 C436 1.414 . S
C435 C438 1.499 . S
C436 H416 0.950 . S
C436 C435 1.414 . S
C436 C437 1.374 . S
C437 H417 0.950 . S
C437 C433 1.385 . S
C437 C436 1.374 . S
C438 C435 1.499 . S
C438 C439 1.373 . S
C438 C440 1.389 . S
C439 H418 0.950 . S
C439 C438 1.373 . S
C439 C455 1.377 . S
C440 C438 1.389 . S
C440 C441 1.524 . S
C440 C454 1.377 . S
C441 C440 1.524 . S
C441 C442 1.397 . S
C441 C446 1.363 . S
C442 H419 0.950 . S
C442 C441 1.397 . S
C442 C443 1.334 . S
C443 H420 0.950 . S
C443 C442 1.334 . S
C443 C444 1.287 . S
C444 C443 1.287 . S
C444 C445 1.524 . S
C444 H463 0.897 1_545 S
C445 H421 0.950 1_545 S
C445 C444 1.524 . S
C445 C446 1.415 . S
C446 H422 0.950 . S
C446 C441 1.363 . S
C446 C445 1.415 . S
C447 H423 0.951 . S
C447 C448 1.366 . S
C447 C449 1.388 . S
C448 C447 1.366 . S
C448 C452 1.385 . S
C449 H424 0.951 . S
C449 C447 1.388 . S
C449 C450 1.366 . S
C450 C449 1.366 . S
C450 C451 1.414 . S
C450 C453 1.499 . S
C451 H425 0.950 . S
C451 C450 1.414 . S
C451 C452 1.374 . S
C452 H426 0.950 . S
C452 C448 1.385 . S
C452 C451 1.374 . S
C453 C450 1.499 . S
C453 C454 1.373 . S
C453 C455 1.389 . S
C454 H427 0.950 . S
C454 C440 1.377 . S
C454 C453 1.373 . S
C455 C439 1.377 . S
C455 C453 1.389 . S
C455 C456 1.524 . S
C456 C455 1.524 . S
C456 C457 1.397 1_455 S
C456 C461 1.363 . S
C457 H428 0.950 . S
C457 C456 1.397 1_655 S
C457 C458 1.334 . S
C458 H429 0.950 . S
C458 C457 1.334 . S
C458 C459 1.287 . S
C459 C458 1.287 . S
C459 C460 1.524 1_655 S
C459 H462 0.999 . S
C460 H430 0.950 . S
C460 C459 1.524 1_455 S
C460 C461 1.415 . S
C461 H431 0.950 . S
C461 C456 1.363 . S
C461 C460 1.415 . S
H462 C459 0.999 . S
H463 C444 0.897 1_565 S
H464 C482 0.951 1_655 S
H465 C484 0.951 1_655 S
H466 C486 0.950 . S
H467 C487 0.950 . S
H468 C489 0.950 . S
H469 C492 0.950 . S
H470 C493 0.950 . S
H471 C495 0.950 . S
H472 C496 0.950 . S
H473 C497 0.951 . S
H474 C499 0.951 . S
H475 C501 0.950 1_655 S
H476 C502 0.950 1_655 S
H477 C504 0.950 . S
H478 C507 0.950 . S
H479 C508 0.950 . S
H480 C510 0.950 . S
H481 C511 0.950 . S
C482 H464 0.951 1_455 S
C482 C483 1.365 . S
C482 C484 1.388 . S
C483 C482 1.365 . S
C483 C487 1.385 . S
C484 H465 0.951 1_455 S
C484 C482 1.388 . S
C484 C485 1.366 . S
C485 C484 1.366 . S
C485 C486 1.414 . S
C485 C488 1.499 . S
C486 H466 0.950 . S
C486 C485 1.414 . S
C486 C487 1.374 . S
C487 H467 0.950 . S
C487 C483 1.385 . S
C487 C486 1.374 . S
C488 C485 1.499 . S
C488 C489 1.373 . S
C488 C490 1.389 . S
C489 H468 0.950 . S
C489 C488 1.373 . S
C489 C505 1.377 1_554 S
C490 C488 1.389 . S
C490 C491 1.524 . S
C490 C504 1.377 . S
C491 C490 1.524 . S
C491 C492 1.397 . S
C491 C496 1.363 1_455 S
C492 H469 0.950 . S
C492 C491 1.397 . S
C492 C493 1.334 . S
C493 H470 0.950 . S
C493 C492 1.334 . S
C493 C494 1.287 . S
C494 C493 1.287 . S
C494 C495 1.524 1_455 S
C494 H513 0.913 . S
C495 H471 0.950 . S
C495 C494 1.524 1_655 S
C495 C496 1.415 . S
C496 H472 0.950 . S
C496 C491 1.363 1_655 S
C496 C495 1.415 . S
C497 H473 0.951 . S
C497 C498 1.366 . S
C497 C499 1.388 . S
C498 C497 1.366 . S
C498 C502 1.385 . S
C499 H474 0.951 . S
C499 C497 1.388 . S
C499 C500 1.366 . S
C500 C499 1.366 . S
C500 C501 1.414 . S
C500 C503 1.499 . S
C501 H475 0.950 1_455 S
C501 C500 1.414 . S
C501 C502 1.374 . S
C502 H476 0.950 1_455 S
C502 C498 1.385 . S
C502 C501 1.374 . S
C503 C500 1.499 . S
C503 C504 1.373 1_556 S
C503 C505 1.389 . S
C504 H477 0.950 . S
C504 C490 1.377 . S
C504 C503 1.373 1_554 S
C505 C489 1.377 1_556 S
C505 C503 1.389 . S
C505 C506 1.524 . S
C506 C505 1.524 . S
C506 C507 1.397 . S
C506 C511 1.363 . S
C507 H478 0.950 . S
C507 C506 1.397 . S
C507 C508 1.334 . S
C508 H479 0.950 . S
C508 C507 1.334 . S
C508 C509 1.287 . S
C509 C508 1.287 . S
C509 C510 1.524 . S
C509 H512 0.999 . S
C510 H480 0.950 . S
C510 C509 1.524 . S
C510 C511 1.415 . S
C511 H481 0.950 . S
C511 C506 1.363 . S
C511 C510 1.415 . S
H512 C509 0.999 . S
H513 C494 0.913 . S
H514 C532 0.951 . S
H515 C534 0.951 . S
H516 C536 0.950 . S
H517 C537 0.950 . S
H518 C539 0.950 . S
H519 C542 0.950 . S
H520 C543 0.950 . S
H521 C545 0.950 . S
H522 C546 0.950 . S
H523 C547 0.951 . S
H524 C549 0.951 . S
H525 C551 0.950 . S
H526 C552 0.950 . S
H527 C554 0.950 . S
H528 C557 0.950 . S
H529 C558 0.950 . S
H530 C560 0.943 1_545 S
H531 C561 0.950 . S
C532 H514 0.951 . S
C532 C533 1.366 . S
C532 C534 1.388 . S
C533 C532 1.366 . S
C533 C537 1.385 . S
C534 H515 0.951 . S
C534 C532 1.388 . S
C534 C535 1.366 . S
C535 C534 1.366 . S
C535 C536 1.414 . S
C535 C538 1.499 . S
C536 H516 0.950 . S
C536 C535 1.414 . S
C536 C537 1.374 . S
C537 H517 0.950 . S
C537 C533 1.385 . S
C537 C536 1.374 . S
C538 C535 1.499 . S
C538 C539 1.373 . S
C538 C540 1.389 . S
C539 H518 0.950 . S
C539 C538 1.373 . S
C539 C555 1.377 . S
C540 C538 1.389 . S
C540 C541 1.524 . S
C540 C554 1.377 . S
C541 C540 1.524 . S
C541 C542 1.397 . S
C541 C546 1.363 . S
C542 H519 0.950 . S
C542 C541 1.397 . S
C542 C543 1.334 . S
C543 H520 0.950 . S
C543 C542 1.334 . S
C543 C544 1.287 . S
C544 C543 1.287 . S
C544 C545 1.524 . S
C544 H563 0.913 . S
C545 H521 0.950 . S
C545 C544 1.524 . S
C545 C546 1.415 . S
C546 H522 0.950 . S
C546 C541 1.363 . S
C546 C545 1.415 . S
C547 H523 0.951 . S
C547 C548 1.366 . S
C547 C549 1.388 . S
C548 C547 1.366 . S
C548 C552 1.385 . S
C549 H524 0.951 . S
C549 C547 1.388 . S
C549 C550 1.366 . S
C550 C549 1.366 . S
C550 C551 1.414 . S
C550 C553 1.499 . S
C551 H525 0.950 . S
C551 C550 1.414 . S
C551 C552 1.374 . S
C552 H526 0.950 . S
C552 C548 1.385 . S
C552 C551 1.374 . S
C553 C550 1.499 . S
C553 C554 1.373 . S
C553 C555 1.389 . S
C554 H527 0.950 . S
C554 C540 1.377 . S
C554 C553 1.373 . S
C555 C539 1.377 . S
C555 C553 1.389 . S
C555 C556 1.524 . S
C556 C555 1.524 . S
C556 C557 1.397 . S
C556 C561 1.363 . S
C557 H528 0.950 . S
C557 C556 1.397 . S
C557 C558 1.334 . S
C558 H529 0.950 . S
C558 C557 1.334 . S
C558 C559 1.287 . S
C559 C558 1.287 . S
C559 C560 1.524 . S
C559 H562 0.999 . S
C560 H530 0.943 1_565 S
C560 C559 1.524 . S
C560 C561 1.415 . S
C561 H531 0.950 . S
C561 C556 1.363 . S
C561 C560 1.415 . S
H562 C559 0.999 . S
H563 C544 0.913 . S
H564 C582 0.951 . S
H565 C584 0.951 . S
H566 C586 0.950 . S
H567 C587 0.950 . S
H568 C589 0.950 . S
H569 C592 0.950 . S
H570 C593 0.950 . S
H571 C595 0.950 . S
H572 C596 0.950 . S
H573 C597 0.951 . S
H574 C599 0.951 . S
H575 C601 0.950 . S
H576 C602 0.950 . S
H577 C604 0.950 . S
H578 C607 0.950 . S
H579 C608 0.950 . S
H580 C610 0.950 . S
H581 C611 0.950 . S
C582 H564 0.951 . S
C582 C583 1.366 . S
C582 C584 1.388 . S
C583 C582 1.366 . S
C583 C587 1.385 . S
C584 H565 0.951 . S
C584 C582 1.388 . S
C584 C585 1.366 . S
C585 C584 1.366 . S
C585 C586 1.414 . S
C585 C588 1.499 . S
C586 H566 0.950 . S
C586 C585 1.414 . S
C586 C587 1.374 . S
C587 H567 0.950 . S
C587 C583 1.385 . S
C587 C586 1.374 . S
C588 C585 1.499 . S
C588 C589 1.373 . S
C588 C590 1.389 . S
C589 H568 0.950 . S
C589 C588 1.373 . S
C589 C605 1.377 . S
C590 C588 1.389 . S
C590 C591 1.524 . S
C590 C604 1.377 . S
C591 C590 1.524 . S
C591 C592 1.397 . S
C591 C596 1.363 . S
C592 H569 0.950 . S
C592 C591 1.397 . S
C592 C593 1.334 . S
C593 H570 0.950 . S
C593 C592 1.334 . S
C593 C594 1.287 . S
C594 C593 1.287 . S
C594 C595 1.524 . S
C594 H613 0.913 . S
C595 H571 0.950 . S
C595 C594 1.524 . S
C595 C596 1.415 . S
C596 H572 0.950 . S
C596 C591 1.363 . S
C596 C595 1.415 . S
C597 H573 0.951 . S
C597 C598 1.366 . S
C597 C599 1.388 . S
C598 C597 1.366 . S
C598 C602 1.385 . S
C599 H574 0.951 . S
C599 C597 1.388 . S
C599 C600 1.366 . S
C600 C599 1.366 . S
C600 C601 1.414 . S
C600 C603 1.499 . S
C601 H575 0.950 . S
C601 C600 1.414 . S
C601 C602 1.374 . S
C602 H576 0.950 . S
C602 C598 1.385 . S
C602 C601 1.374 . S
C603 C600 1.499 . S
C603 C604 1.373 . S
C603 C605 1.389 . S
C604 H577 0.950 . S
C604 C590 1.377 . S
C604 C603 1.373 . S
C605 C589 1.377 . S
C605 C603 1.389 . S
C605 C606 1.524 . S
C606 C605 1.524 . S
C606 C607 1.397 . S
C606 C611 1.363 . S
C607 H578 0.950 . S
C607 C606 1.397 . S
C607 C608 1.334 . S
C608 H579 0.950 . S
C608 C607 1.334 . S
C608 C609 1.287 . S
C609 C608 1.287 . S
C609 C610 1.524 . S
C609 H612 0.999 . S
C610 H580 0.950 . S
C610 C609 1.524 . S
C610 C611 1.415 . S
C611 H581 0.950 . S
C611 C606 1.363 . S
C611 C610 1.415 . S
H612 C609 0.999 . S
H613 C594 0.913 . S
H614 C632 0.951 . S
H615 C634 0.951 . S
H616 C636 0.950 . S
H617 C637 0.950 . S
H618 C639 0.950 . S
H619 C642 0.950 . S
H620 C643 0.950 . S
H621 C645 0.950 . S
H622 C646 0.950 . S
H623 C647 0.951 . S
H624 C649 0.951 . S
H625 C651 0.950 . S
H626 C652 0.950 . S
H627 C654 0.950 . S
H628 C657 0.950 . S
H629 C658 0.950 . S
H630 C660 0.950 . S
H631 C661 0.950 . S
C632 H614 0.951 . S
C632 C633 1.366 . S
C632 C634 1.388 . S
C633 C632 1.366 . S
C633 C637 1.385 . S
C634 H615 0.951 . S
C634 C632 1.388 . S
C634 C635 1.366 . S
C635 C634 1.366 . S
C635 C636 1.414 . S
C635 C638 1.499 . S
C636 H616 0.950 . S
C636 C635 1.414 . S
C636 C637 1.374 . S
C637 H617 0.950 . S
C637 C633 1.385 . S
C637 C636 1.374 . S
C638 C635 1.499 . S
C638 C639 1.373 . S
C638 C640 1.389 . S
C639 H618 0.950 . S
C639 C638 1.373 . S
C639 C655 1.377 . S
C640 C638 1.389 . S
C640 C641 1.524 . S
C640 C654 1.377 . S
C641 C640 1.524 . S
C641 C642 1.397 . S
C641 C646 1.363 . S
C642 H619 0.950 . S
C642 C641 1.397 . S
C642 C643 1.334 . S
C643 H620 0.950 . S
C643 C642 1.334 . S
C643 C644 1.287 . S
C644 C643 1.287 . S
C644 C645 1.524 . S
C644 H663 0.913 . S
C645 H621 0.950 . S
C645 C644 1.524 . S
C645 C646 1.415 . S
C646 H622 0.950 . S
C646 C641 1.363 . S
C646 C645 1.415 . S
C647 H623 0.951 . S
C647 C648 1.366 . S
C647 C649 1.388 . S
C648 C647 1.366 . S
C648 C652 1.385 . S
C649 H624 0.951 . S
C649 C647 1.388 . S
C649 C650 1.366 . S
C650 C649 1.366 . S
C650 C651 1.414 . S
C650 C653 1.499 . S
C651 H625 0.950 . S
C651 C650 1.414 . S
C651 C652 1.374 . S
C652 H626 0.950 . S
C652 C648 1.385 . S
C652 C651 1.374 . S
C653 C650 1.499 . S
C653 C654 1.373 . S
C653 C655 1.389 . S
C654 H627 0.950 . S
C654 C640 1.377 . S
C654 C653 1.373 . S
C655 C639 1.377 . S
C655 C653 1.389 . S
C655 C656 1.524 . S
C656 C655 1.524 . S
C656 C657 1.397 . S
C656 C661 1.363 . S
C657 H628 0.950 . S
C657 C656 1.397 . S
C657 C658 1.334 . S
C658 H629 0.950 . S
C658 C657 1.334 . S
C658 C659 1.287 . S
C659 C658 1.287 . S
C659 C660 1.524 . S
C659 H662 0.999 . S
C660 H630 0.950 . S
C660 C659 1.524 . S
C660 C661 1.415 . S
C661 H631 0.950 . S
C661 C656 1.363 . S
C661 C660 1.415 . S
H662 C659 0.999 . S
H663 C644 0.913 . S
H664 C682 0.951 . S
H665 C684 0.951 . S
H666 C686 0.950 . S
H667 C687 0.950 . S
H668 C689 0.950 . S
H669 C692 0.950 . S
H670 C693 0.950 . S
H671 C695 0.950 . S
H672 C696 0.950 . S
H673 C697 0.951 . S
H674 C699 0.951 . S
H675 C701 0.950 . S
H676 C702 0.950 . S
H677 C704 0.950 . S
H678 C707 0.950 . S
H679 C708 0.950 . S
H680 C710 0.950 . S
H681 C711 0.950 . S
C682 H664 0.951 . S
C682 C683 1.366 . S
C682 C684 1.388 . S
C683 C682 1.366 . S
C683 C687 1.385 . S
C684 H665 0.951 . S
C684 C682 1.388 . S
C684 C685 1.366 . S
C685 C684 1.366 . S
C685 C686 1.414 . S
C685 C688 1.499 . S
C686 H666 0.950 . S
C686 C685 1.414 . S
C686 C687 1.374 . S
C687 H667 0.950 . S
C687 C683 1.385 . S
C687 C686 1.374 . S
C688 C685 1.499 . S
C688 C689 1.373 . S
C688 C690 1.389 . S
C689 H668 0.950 . S
C689 C688 1.373 . S
C689 C705 1.377 . S
C690 C688 1.389 . S
C690 C691 1.524 . S
C690 C704 1.377 . S
C691 C690 1.524 . S
C691 C692 1.397 . S
C691 C696 1.363 . S
C692 H669 0.950 . S
C692 C691 1.397 . S
C692 C693 1.334 . S
C693 H670 0.950 . S
C693 C692 1.334 . S
C693 C694 1.287 . S
C694 C693 1.287 . S
C694 C695 1.524 . S
C694 H713 0.913 . S
C695 H671 0.950 . S
C695 C694 1.524 . S
C695 C696 1.415 . S
C696 H672 0.950 . S
C696 C691 1.363 . S
C696 C695 1.415 . S
C697 H673 0.951 . S
C697 C698 1.366 . S
C697 C699 1.388 . S
C698 C697 1.366 . S
C698 C702 1.385 . S
C699 H674 0.951 . S
C699 C697 1.388 . S
C699 C700 1.366 . S
C700 C699 1.366 . S
C700 C701 1.414 . S
C700 C703 1.499 . S
C701 H675 0.950 . S
C701 C700 1.414 . S
C701 C702 1.374 . S
C702 H676 0.950 . S
C702 C698 1.385 . S
C702 C701 1.374 . S
C703 C700 1.499 . S
C703 C704 1.373 . S
C703 C705 1.389 . S
C704 H677 0.950 . S
C704 C690 1.377 . S
C704 C703 1.373 . S
C705 C689 1.377 . S
C705 C703 1.389 . S
C705 C706 1.524 . S
C706 C705 1.524 . S
C706 C707 1.397 . S
C706 C711 1.363 . S
C707 H678 0.950 . S
C707 C706 1.397 . S
C707 C708 1.334 . S
C708 H679 0.950 . S
C708 C707 1.334 . S
C708 C709 1.287 . S
C709 C708 1.287 . S
C709 C710 1.524 . S
C709 H712 0.999 . S
C710 H680 0.950 . S
C710 C709 1.524 . S
C710 C711 1.415 . S
C711 H681 0.950 . S
C711 C706 1.363 . S
C711 C710 1.415 . S
H712 C709 0.999 . S
H713 C694 0.913 . S
H714 C732 0.951 . S
H715 C734 0.951 . S
H716 C736 0.950 . S
H717 C737 0.950 . S
H718 C739 0.950 . S
H719 C742 0.950 . S
H720 C743 0.950 . S
H721 C745 0.950 . S
H722 C746 0.950 . S
H723 C747 0.951 . S
H724 C749 0.951 . S
H725 C751 0.950 . S
H726 C752 0.950 . S
H727 C754 0.950 . S
H728 C757 0.950 . S
H729 C758 0.950 . S
H730 C760 0.950 . S
H731 C761 0.950 . S
C732 H714 0.951 . S
C732 C733 1.366 . S
C732 C734 1.388 . S
C733 C732 1.366 . S
C733 C737 1.385 . S
C734 H715 0.951 . S
C734 C732 1.388 . S
C734 C735 1.366 . S
C735 C734 1.366 . S
C735 C736 1.414 . S
C735 C738 1.499 . S
C736 H716 0.950 . S
C736 C735 1.414 . S
C736 C737 1.374 . S
C737 H717 0.950 . S
C737 C733 1.385 . S
C737 C736 1.374 . S
C738 C735 1.499 . S
C738 C739 1.373 . S
C738 C740 1.389 . S
C739 H718 0.950 . S
C739 C738 1.373 . S
C739 C755 1.377 . S
C740 C738 1.389 . S
C740 C741 1.524 . S
C740 C754 1.377 . S
C741 C740 1.524 . S
C741 C742 1.397 . S
C741 C746 1.363 . S
C742 H719 0.950 . S
C742 C741 1.397 . S
C742 C743 1.334 . S
C743 H720 0.950 . S
C743 C742 1.334 . S
C743 C744 1.287 . S
C744 C743 1.287 . S
C744 C745 1.524 . S
C744 H763 0.913 . S
C745 H721 0.950 . S
C745 C744 1.524 . S
C745 C746 1.415 . S
C746 H722 0.950 . S
C746 C741 1.363 . S
C746 C745 1.415 . S
C747 H723 0.951 . S
C747 C748 1.366 . S
C747 C749 1.388 . S
C748 C747 1.366 . S
C748 C752 1.385 . S
C749 H724 0.951 . S
C749 C747 1.388 . S
C749 C750 1.366 . S
C750 C749 1.366 . S
C750 C751 1.414 . S
C750 C753 1.499 . S
C751 H725 0.950 . S
C751 C750 1.414 . S
C751 C752 1.374 . S
C752 H726 0.950 . S
C752 C748 1.385 . S
C752 C751 1.374 . S
C753 C750 1.499 . S
C753 C754 1.373 . S
C753 C755 1.389 . S
C754 H727 0.950 . S
C754 C740 1.377 . S
C754 C753 1.373 . S
C755 C739 1.377 . S
C755 C753 1.389 . S
C755 C756 1.524 . S
C756 C755 1.524 . S
C756 C757 1.397 . S
C756 C761 1.363 . S
C757 H728 0.950 . S
C757 C756 1.397 . S
C757 C758 1.334 . S
C758 H729 0.950 . S
C758 C757 1.334 . S
C758 C759 1.287 . S
C759 C758 1.287 . S
C759 C760 1.524 . S
C759 H762 0.999 . S
C760 H730 0.950 . S
C760 C759 1.524 . S
C760 C761 1.415 . S
C761 H731 0.950 . S
C761 C756 1.363 . S
C761 C760 1.415 . S
H762 C759 0.999 . S
H763 C744 0.913 . S
H764 C782 0.951 . S
H765 C784 0.951 . S
H766 C786 0.950 1_545 S
H767 C787 0.950 . S
H768 C789 0.950 . S
H769 C792 0.950 . S
H770 C793 0.950 . S
H771 C795 0.950 . S
H772 C796 0.950 . S
H773 C797 0.951 . S
H774 C799 0.951 . S
H775 C801 0.950 . S
H776 C802 0.950 . S
H777 C804 0.950 1_565 S
H778 C807 0.950 . S
H779 C808 0.950 . S
H780 C810 0.950 . S
H781 C811 0.950 . S
C782 H764 0.951 . S
C782 C783 1.366 . S
C782 C784 1.388 . S
C783 C782 1.366 . S
C783 C787 1.385 . S
C784 H765 0.951 . S
C784 C782 1.388 . S
C784 C785 1.366 . S
C785 C784 1.366 . S
C785 C786 1.414 . S
C785 C788 1.499 . S
C786 H766 0.950 1_565 S
C786 C785 1.414 . S
C786 C787 1.374 . S
C787 H767 0.950 . S
C787 C783 1.385 . S
C787 C786 1.374 . S
C788 C785 1.499 . S
C788 C789 1.373 1_565 S
C788 C790 1.389 . S
C789 H768 0.950 . S
C789 C788 1.373 1_545 S
C789 C805 1.377 . S
C790 C788 1.389 . S
C790 C791 1.524 . S
C790 C804 1.377 1_565 S
C791 C790 1.524 . S
C791 C792 1.397 . S
C791 C796 1.363 . S
C792 H769 0.950 . S
C792 C791 1.397 . S
C792 C793 1.334 . S
C793 H770 0.950 . S
C793 C792 1.334 . S
C793 C794 1.287 . S
C794 C793 1.287 . S
C794 C795 1.524 . S
C794 H813 0.913 . S
C795 H771 0.950 . S
C795 C794 1.524 . S
C795 C796 1.415 . S
C796 H772 0.950 . S
C796 C791 1.363 . S
C796 C795 1.415 . S
C797 H773 0.951 . S
C797 C798 1.366 . S
C797 C799 1.388 . S
C798 C797 1.366 . S
C798 C802 1.385 . S
C799 H774 0.951 . S
C799 C797 1.388 . S
C799 C800 1.366 . S
C800 C799 1.366 . S
C800 C801 1.414 . S
C800 C803 1.499 . S
C801 H775 0.950 . S
C801 C800 1.414 . S
C801 C802 1.374 . S
C802 H776 0.950 . S
C802 C798 1.385 . S
C802 C801 1.374 . S
C803 C800 1.499 . S
C803 C804 1.373 . S
C803 C805 1.389 . S
C804 H777 0.950 1_545 S
C804 C790 1.377 1_545 S
C804 C803 1.373 . S
C805 C789 1.377 . S
C805 C803 1.389 . S
C805 C806 1.524 . S
C806 C805 1.524 . S
C806 C807 1.397 . S
C806 C811 1.363 . S
C807 H778 0.950 . S
C807 C806 1.397 . S
C807 C808 1.334 . S
C808 H779 0.950 . S
C808 C807 1.334 . S
C808 C809 1.287 . S
C809 C808 1.287 . S
C809 C810 1.524 . S
C809 H812 0.999 . S
C810 H780 0.950 . S
C810 C809 1.524 . S
C810 C811 1.415 . S
C811 H781 0.950 . S
C811 C806 1.363 . S
C811 C810 1.415 . S
H812 C809 0.999 . S
H813 C794 0.913 . S
H814 C832 0.951 . S
H815 C834 0.947 1_545 S
H816 C836 0.950 . S
H817 C837 0.950 . S
H818 C839 0.967 . S
H819 C842 0.963 . S
H820 C843 0.950 . S
H821 C845 0.950 . S
H822 C846 0.950 . S
H823 C847 0.940 1_655 S
H824 C849 0.939 1_655 S
H825 C851 0.950 . S
H826 C852 0.950 . S
H827 C854 0.950 . S
H828 C857 0.950 . S
H829 C858 0.950 . S
H830 C860 0.950 . S
H831 C861 0.950 . S
C832 H814 0.951 . S
C832 C833 1.366 . S
C832 C834 1.391 . S
C833 C832 1.366 . S
C833 C837 1.385 1_455 S
C834 H815 0.947 1_565 S
C834 C832 1.391 . S
C834 C835 1.367 . S
C835 C834 1.367 . S
C835 C836 1.414 1_455 S
C835 C838 1.499 1_565 S
C836 H816 0.950 . S
C836 C835 1.414 1_655 S
C836 C837 1.374 . S
C837 H817 0.950 . S
C837 C833 1.385 1_655 S
C837 C836 1.374 . S
C838 C835 1.499 1_545 S
C838 C839 1.373 1_544 S
C838 C840 1.389 . S
C839 H818 0.967 . S
C839 C838 1.373 1_566 S
C839 C855 1.377 . S
C840 C838 1.389 . S
C840 C841 1.524 . S
C840 C854 1.377 1_554 S
C841 C840 1.524 . S
C841 C842 1.381 1_455 S
C841 C846 1.363 . S
C842 H819 0.963 . S
C842 C841 1.381 1_655 S
C842 C843 1.337 . S
C843 H820 0.950 . S
C843 C842 1.337 . S
C843 C844 1.287 1_655 S
C844 C843 1.287 1_455 S
C844 C845 1.524 . S
C844 H863 0.913 . S
C845 H821 0.950 . S
C845 C844 1.524 . S
C845 C846 1.415 . S
C846 H822 0.950 . S
C846 C841 1.363 . S
C846 C845 1.415 . S
C847 H823 0.940 1_455 S
C847 C848 1.378 . S
C847 C849 1.388 . S
C848 C847 1.378 . S
C848 C852 1.385 . S
C849 H824 0.939 1_455 S
C849 C847 1.388 . S
C849 C850 1.376 . S
C850 C849 1.376 . S
C850 C851 1.414 . S
C850 C853 1.499 . S
C851 H825 0.950 . S
C851 C850 1.414 . S
C851 C852 1.374 . S
C852 H826 0.950 . S
C852 C848 1.385 . S
C852 C851 1.374 . S
C853 C850 1.499 . S
C853 C854 1.373 . S
C853 C855 1.389 1_545 S
C854 H827 0.950 . S
C854 C840 1.377 1_556 S
C854 C853 1.373 . S
C855 C839 1.377 . S
C855 C853 1.389 1_565 S
C855 C856 1.524 . S
C856 C855 1.524 . S
C856 C857 1.397 . S
C856 C861 1.363 1_455 S
C857 H828 0.950 . S
C857 C856 1.397 . S
C857 C858 1.334 . S
C858 H829 0.950 . S
C858 C857 1.334 . S
C858 C859 1.287 . S
C859 C858 1.287 . S
C859 C860 1.524 1_455 S
C859 H862 0.999 . S
C860 H830 0.950 . S
C860 C859 1.524 1_655 S
C860 C861 1.415 . S
C861 H831 0.950 . S
C861 C856 1.363 1_655 S
C861 C860 1.415 . S
H862 C859 0.999 . S
H863 C844 0.913 . S
H864 C882 0.951 . S
H865 C884 0.951 . S
H866 C886 0.950 . S
H867 C887 0.950 . S
H868 C889 0.950 . S
H869 C892 0.950 . S
H870 C893 0.950 . S
H871 C895 0.950 . S
H872 C896 0.950 . S
H873 C897 0.951 . S
H874 C899 0.951 . S
H875 C901 0.950 . S
H876 C902 0.950 . S
H877 C904 0.950 . S
H878 C907 0.950 . S
H879 C908 0.950 . S
H880 C910 0.950 . S
H881 C911 0.950 . S
C882 H864 0.951 . S
C882 C883 1.366 . S
C882 C884 1.388 . S
C883 C882 1.366 . S
C883 C887 1.385 . S
C884 H865 0.951 . S
C884 C882 1.388 . S
C884 C885 1.366 . S
C885 C884 1.366 . S
C885 C886 1.414 . S
C885 C888 1.499 . S
C886 H866 0.950 . S
C886 C885 1.414 . S
C886 C887 1.374 . S
C887 H867 0.950 . S
C887 C883 1.385 . S
C887 C886 1.374 . S
C888 C885 1.499 . S
C888 C889 1.373 . S
C888 C890 1.389 . S
C889 H868 0.950 . S
C889 C888 1.373 . S
C889 C905 1.377 . S
C890 C888 1.389 . S
C890 C891 1.524 . S
C890 C904 1.377 . S
C891 C890 1.524 . S
C891 C892 1.397 . S
C891 C896 1.363 . S
C892 H869 0.950 . S
C892 C891 1.397 . S
C892 C893 1.334 . S
C893 H870 0.950 . S
C893 C892 1.334 . S
C893 C894 1.287 . S
C894 C893 1.287 . S
C894 C895 1.524 . S
C894 H913 0.913 . S
C895 H871 0.950 . S
C895 C894 1.524 . S
C895 C896 1.415 . S
C896 H872 0.950 . S
C896 C891 1.363 . S
C896 C895 1.415 . S
C897 H873 0.951 . S
C897 C898 1.366 . S
C897 C899 1.388 . S
C898 C897 1.366 . S
C898 C902 1.385 . S
C899 H874 0.951 . S
C899 C897 1.388 . S
C899 C900 1.366 . S
C900 C899 1.366 . S
C900 C901 1.414 . S
C900 C903 1.499 . S
C901 H875 0.950 . S
C901 C900 1.414 . S
C901 C902 1.374 . S
C902 H876 0.950 . S
C902 C898 1.385 . S
C902 C901 1.374 . S
C903 C900 1.499 . S
C903 C904 1.373 . S
C903 C905 1.389 . S
C904 H877 0.950 . S
C904 C890 1.377 . S
C904 C903 1.373 . S
C905 C889 1.377 . S
C905 C903 1.389 . S
C905 C906 1.524 . S
C906 C905 1.524 . S
C906 C907 1.397 . S
C906 C911 1.363 . S
C907 H878 0.950 . S
C907 C906 1.397 . S
C907 C908 1.334 . S
C908 H879 0.950 . S
C908 C907 1.334 . S
C908 C909 1.287 . S
C909 C908 1.287 . S
C909 C910 1.524 . S
C909 H912 0.999 . S
C910 H880 0.950 . S
C910 C909 1.524 . S
C910 C911 1.415 . S
C911 H881 0.950 . S
C911 C906 1.363 . S
C911 C910 1.415 . S
H912 C909 0.999 . S
H913 C894 0.913 . S
H914 C932 0.951 . S
H915 C934 0.951 . S
H916 C936 0.950 . S
H917 C937 0.950 . S
H918 C939 0.950 . S
H919 C942 0.950 . S
H920 C943 0.950 . S
H921 C945 0.950 . S
H922 C946 0.950 . S
H923 C947 0.951 . S
H924 C949 0.951 . S
H925 C951 0.950 . S
H926 C952 0.950 . S
H927 C954 0.950 . S
H928 C957 0.950 . S
H929 C958 0.950 . S
H930 C960 0.950 . S
H931 C961 0.950 . S
C932 H914 0.951 . S
C932 C933 1.366 . S
C932 C934 1.388 . S
C933 C932 1.366 . S
C933 C937 1.385 . S
C934 H915 0.951 . S
C934 C932 1.388 . S
C934 C935 1.366 . S
C935 C934 1.366 . S
C935 C936 1.414 . S
C935 C938 1.499 . S
C936 H916 0.950 . S
C936 C935 1.414 . S
C936 C937 1.374 . S
C937 H917 0.950 . S
C937 C933 1.385 . S
C937 C936 1.374 . S
C938 C935 1.499 . S
C938 C939 1.373 . S
C938 C940 1.389 . S
C939 H918 0.950 . S
C939 C938 1.373 . S
C939 C955 1.377 . S
C940 C938 1.389 . S
C940 C941 1.524 . S
C940 C954 1.377 . S
C941 C940 1.524 . S
C941 C942 1.397 . S
C941 C946 1.363 . S
C942 H919 0.950 . S
C942 C941 1.397 . S
C942 C943 1.334 . S
C943 H920 0.950 . S
C943 C942 1.334 . S
C943 C944 1.287 . S
C944 C943 1.287 . S
C944 C945 1.524 . S
C944 H963 0.913 . S
C945 H921 0.950 . S
C945 C944 1.524 . S
C945 C946 1.415 . S
C946 H922 0.950 . S
C946 C941 1.363 . S
C946 C945 1.415 . S
C947 H923 0.951 . S
C947 C948 1.366 . S
C947 C949 1.388 . S
C948 C947 1.366 . S
C948 C952 1.385 . S
C949 H924 0.951 . S
C949 C947 1.388 . S
C949 C950 1.366 . S
C950 C949 1.366 . S
C950 C951 1.414 . S
C950 C953 1.499 . S
C951 H925 0.950 . S
C951 C950 1.414 . S
C951 C952 1.374 . S
C952 H926 0.950 . S
C952 C948 1.385 . S
C952 C951 1.374 . S
C953 C950 1.499 . S
C953 C954 1.373 . S
C953 C955 1.389 . S
C954 H927 0.950 . S
C954 C940 1.377 . S
C954 C953 1.373 . S
C955 C939 1.377 . S
C955 C953 1.389 . S
C955 C956 1.524 . S
C956 C955 1.524 . S
C956 C957 1.397 . S
C956 C961 1.363 . S
C957 H928 0.950 . S
C957 C956 1.397 . S
C957 C958 1.334 . S
C958 H929 0.950 . S
C958 C957 1.334 . S
C958 C959 1.287 . S
C959 C958 1.287 . S
C959 C960 1.524 . S
C959 H962 0.999 . S
C960 H930 0.950 . S
C960 C959 1.524 . S
C960 C961 1.415 . S
C961 H931 0.950 . S
C961 C956 1.363 . S
C961 C960 1.415 . S
H962 C959 0.999 . S
H963 C944 0.913 . S
H964 C982 0.951 . S
H965 C984 0.951 . S
H966 C986 0.950 . S
H967 C987 0.950 . S
H968 C989 0.950 . S
H969 C992 0.950 . S
H970 C993 0.950 . S
H971 C995 0.950 . S
H972 C996 0.950 . S
H973 C997 0.951 . S
H974 C999 0.951 . S
H975 C1001 0.950 . S
H976 C1002 0.950 . S
H977 C1004 0.950 1_655 S
H978 C1007 0.950 . S
H979 C1008 0.950 . S
H980 C1010 0.950 . S
H981 C1011 0.950 . S
C982 H964 0.951 . S
C982 C983 1.366 . S
C982 C984 1.388 . S
C983 C982 1.366 . S
C983 C987 1.385 . S
C984 H965 0.951 . S
C984 C982 1.388 . S
C984 C985 1.366 . S
C985 C984 1.366 . S
C985 C986 1.414 . S
C985 C988 1.499 . S
C986 H966 0.950 . S
C986 C985 1.414 . S
C986 C987 1.374 . S
C987 H967 0.950 . S
C987 C983 1.385 . S
C987 C986 1.374 . S
C988 C985 1.499 . S
C988 C989 1.373 . S
C988 C990 1.389 . S
C989 H968 0.950 . S
C989 C988 1.373 . S
C989 C1005 1.377 . S
C990 C988 1.389 . S
C990 C991 1.524 . S
C990 C1004 1.377 . S
C991 C990 1.524 . S
C991 C992 1.397 . S
C991 C996 1.363 . S
C992 H969 0.950 . S
C992 C991 1.397 . S
C992 C993 1.334 . S
C993 H970 0.950 . S
C993 C992 1.334 . S
C993 C994 1.287 . S
C994 C993 1.287 . S
C994 C995 1.524 . S
C994 H1013 0.913 . S
C995 H971 0.950 . S
C995 C994 1.524 . S
C995 C996 1.415 . S
C996 H972 0.950 . S
C996 C991 1.363 . S
C996 C995 1.415 . S
C997 H973 0.951 . S
C997 C998 1.366 . S
C997 C999 1.388 . S
C998 C997 1.366 . S
C998 C1002 1.385 . S
C999 H974 0.951 . S
C999 C997 1.388 . S
C999 C1000 1.366 . S
C1000 C999 1.366 . S
C1000 C1001 1.414 . S
C1000 C1003 1.499 . S
C1001 H975 0.950 . S
C1001 C1000 1.414 . S
C1001 C1002 1.374 . S
C1002 H976 0.950 . S
C1002 C998 1.385 . S
C1002 C1001 1.374 . S
C1003 C1000 1.499 . S
C1003 C1004 1.373 1_655 S
C1003 C1005 1.389 1_655 S
C1004 H977 0.950 1_455 S
C1004 C990 1.377 . S
C1004 C1003 1.373 1_455 S
C1005 C989 1.377 . S
C1005 C1003 1.389 1_455 S
C1005 C1006 1.524 1_455 S
C1006 C1005 1.524 1_655 S
C1006 C1007 1.397 . S
C1006 C1011 1.363 1_655 S
C1007 H978 0.950 . S
C1007 C1006 1.397 . S
C1007 C1008 1.334 . S
C1008 H979 0.950 . S
C1008 C1007 1.334 . S
C1008 C1009 1.287 . S
C1009 C1008 1.287 . S
C1009 C1010 1.524 . S
C1009 H1012 0.999 . S
C1010 H980 0.950 . S
C1010 C1009 1.524 . S
C1010 C1011 1.415 1_655 S
C1011 H981 0.950 . S
C1011 C1006 1.363 1_455 S
C1011 C1010 1.415 1_455 S
H1012 C1009 0.999 . S
H1013 C994 0.913 . S
H1014 C1032 0.951 . S
H1015 C1034 0.951 . S
H1016 C1036 0.950 . S
H1017 C1037 0.950 . S
H1018 C1039 0.950 . S
H1019 C1042 0.950 . S
H1020 C1043 0.950 . S
H1021 C1045 0.950 . S
H1022 C1046 0.950 . S
H1023 C1047 0.951 . S
H1024 C1049 0.951 . S
H1025 C1051 0.950 . S
H1026 C1052 0.950 . S
H1027 C1054 0.950 . S
H1028 C1057 0.950 . S
H1029 C1058 0.950 . S
H1030 C1060 0.950 . S
H1031 C1061 0.950 1_455 S
C1032 H1014 0.951 . S
C1032 C1033 1.366 . S
C1032 C1034 1.388 . S
C1033 C1032 1.366 . S
C1033 C1037 1.385 . S
C1034 H1015 0.951 . S
C1034 C1032 1.388 . S
C1034 C1035 1.366 . S
C1035 C1034 1.366 . S
C1035 C1036 1.414 . S
C1035 C1038 1.499 . S
C1036 H1016 0.950 . S
C1036 C1035 1.414 . S
C1036 C1037 1.374 . S
C1037 H1017 0.950 . S
C1037 C1033 1.385 . S
C1037 C1036 1.374 . S
C1038 C1035 1.499 . S
C1038 C1039 1.373 . S
C1038 C1040 1.389 . S
C1039 H1018 0.950 . S
C1039 C1038 1.373 . S
C1039 C1055 1.377 . S
C1040 C1038 1.389 . S
C1040 C1041 1.524 . S
C1040 C1054 1.377 . S
C1041 C1040 1.524 . S
C1041 C1042 1.397 . S
C1041 C1046 1.363 . S
C1042 H1019 0.950 . S
C1042 C1041 1.397 . S
C1042 C1043 1.334 . S
C1043 H1020 0.950 . S
C1043 C1042 1.334 . S
C1043 C1044 1.287 . S
C1044 C1043 1.287 . S
C1044 C1045 1.524 . S
C1044 H1063 0.913 . S
C1045 H1021 0.950 . S
C1045 C1044 1.524 . S
C1045 C1046 1.415 . S
C1046 H1022 0.950 . S
C1046 C1041 1.363 . S
C1046 C1045 1.415 . S
C1047 H1023 0.951 . S
C1047 C1048 1.366 . S
C1047 C1049 1.388 . S
C1048 C1047 1.366 . S
C1048 C1052 1.385 . S
C1049 H1024 0.951 . S
C1049 C1047 1.388 . S
C1049 C1050 1.366 . S
C1050 C1049 1.366 . S
C1050 C1051 1.414 . S
C1050 C1053 1.499 . S
C1051 H1025 0.950 . S
C1051 C1050 1.414 . S
C1051 C1052 1.374 . S
C1052 H1026 0.950 . S
C1052 C1048 1.385 . S
C1052 C1051 1.374 . S
C1053 C1050 1.499 . S
C1053 C1054 1.373 . S
C1053 C1055 1.389 . S
C1054 H1027 0.950 . S
C1054 C1040 1.377 . S
C1054 C1053 1.373 . S
C1055 C1039 1.377 . S
C1055 C1053 1.389 . S
C1055 C1056 1.524 . S
C1056 C1055 1.524 . S
C1056 C1057 1.397 1_455 S
C1056 C1061 1.363 1_455 S
C1057 H1028 0.950 . S
C1057 C1056 1.397 1_655 S
C1057 C1058 1.334 . S
C1058 H1029 0.950 . S
C1058 C1057 1.334 . S
C1058 C1059 1.287 . S
C1059 C1058 1.287 . S
C1059 C1060 1.524 . S
C1059 H1062 0.999 . S
C1060 H1030 0.950 . S
C1060 C1059 1.524 . S
C1060 C1061 1.415 . S
C1061 H1031 0.950 1_655 S
C1061 C1056 1.363 1_655 S
C1061 C1060 1.415 . S
H1062 C1059 0.999 . S
H1063 C1044 0.913 . S
H1064 C1082 0.951 . S
H1065 C1084 0.951 . S
H1066 C1086 0.950 . S
H1067 C1087 0.950 . S
H1068 C1089 0.950 . S
H1069 C1092 0.950 . S
H1070 C1093 0.950 . S
H1071 C1095 0.950 . S
H1072 C1096 0.950 . S
H1073 C1097 0.951 . S
H1074 C1099 0.951 . S
H1075 C1101 0.950 . S
H1076 C1102 0.950 . S
H1077 C1104 0.950 . S
H1078 C1107 0.950 . S
H1079 C1108 0.950 . S
H1080 C1110 0.950 . S
H1081 C1111 0.950 . S
C1082 H1064 0.951 . S
C1082 C1083 1.366 . S
C1082 C1084 1.388 . S
C1083 C1082 1.366 . S
C1083 C1087 1.385 . S
C1084 H1065 0.951 . S
C1084 C1082 1.388 . S
C1084 C1085 1.366 . S
C1085 C1084 1.366 . S
C1085 C1086 1.414 . S
C1085 C1088 1.499 . S
C1086 H1066 0.950 . S
C1086 C1085 1.414 . S
C1086 C1087 1.374 . S
C1087 H1067 0.950 . S
C1087 C1083 1.385 . S
C1087 C1086 1.374 . S
C1088 C1085 1.499 . S
C1088 C1089 1.373 . S
C1088 C1090 1.389 . S
C1089 H1068 0.950 . S
C1089 C1088 1.373 . S
C1089 C1105 1.377 . S
C1090 C1088 1.389 . S
C1090 C1091 1.524 . S
C1090 C1104 1.377 . S
C1091 C1090 1.524 . S
C1091 C1092 1.397 . S
C1091 C1096 1.363 . S
C1092 H1069 0.950 . S
C1092 C1091 1.397 . S
C1092 C1093 1.334 . S
C1093 H1070 0.950 . S
C1093 C1092 1.334 . S
C1093 C1094 1.287 . S
C1094 C1093 1.287 . S
C1094 C1095 1.524 . S
C1094 H1113 0.913 . S
C1095 H1071 0.950 . S
C1095 C1094 1.524 . S
C1095 C1096 1.415 . S
C1096 H1072 0.950 . S
C1096 C1091 1.363 . S
C1096 C1095 1.415 . S
C1097 H1073 0.951 . S
C1097 C1098 1.366 . S
C1097 C1099 1.388 . S
C1098 C1097 1.366 . S
C1098 C1102 1.385 . S
C1099 H1074 0.951 . S
C1099 C1097 1.388 . S
C1099 C1100 1.366 . S
C1100 C1099 1.366 . S
C1100 C1101 1.414 . S
C1100 C1103 1.499 . S
C1101 H1075 0.950 . S
C1101 C1100 1.414 . S
C1101 C1102 1.374 . S
C1102 H1076 0.950 . S
C1102 C1098 1.385 . S
C1102 C1101 1.374 . S
C1103 C1100 1.499 . S
C1103 C1104 1.373 . S
C1103 C1105 1.389 . S
C1104 H1077 0.950 . S
C1104 C1090 1.377 . S
C1104 C1103 1.373 . S
C1105 C1089 1.377 . S
C1105 C1103 1.389 . S
C1105 C1106 1.524 . S
C1106 C1105 1.524 . S
C1106 C1107 1.397 . S
C1106 C1111 1.363 . S
C1107 H1078 0.950 . S
C1107 C1106 1.397 . S
C1107 C1108 1.334 . S
C1108 H1079 0.950 . S
C1108 C1107 1.334 . S
C1108 C1109 1.287 . S
C1109 C1108 1.287 . S
C1109 C1110 1.524 . S
C1109 H1112 0.999 . S
C1110 H1080 0.950 . S
C1110 C1109 1.524 . S
C1110 C1111 1.415 . S
C1111 H1081 0.950 . S
C1111 C1106 1.363 . S
C1111 C1110 1.415 . S
H1112 C1109 0.999 . S
H1113 C1094 0.913 . S
H1114 C1132 0.951 . S
H1115 C1134 0.951 . S
H1116 C1136 0.950 . S
H1117 C1137 0.950 . S
H1118 C1139 0.950 1_655 S
H1119 C1142 0.950 . S
H1120 C1143 0.950 . S
H1121 C1145 0.950 . S
H1122 C1146 0.950 . S
H1123 C1147 0.951 . S
H1124 C1149 0.951 . S
H1125 C1151 0.950 . S
H1126 C1152 0.950 . S
H1127 C1154 0.950 . S
H1128 C1157 0.950 . S
H1129 C1158 0.950 . S
H1130 C1160 0.950 . S
H1131 C1161 0.950 1_455 S
C1132 H1114 0.951 . S
C1132 C1133 1.366 . S
C1132 C1134 1.388 . S
C1133 C1132 1.366 . S
C1133 C1137 1.385 . S
C1134 H1115 0.951 . S
C1134 C1132 1.388 . S
C1134 C1135 1.366 . S
C1135 C1134 1.366 . S
C1135 C1136 1.414 . S
C1135 C1138 1.499 . S
C1136 H1116 0.950 . S
C1136 C1135 1.414 . S
C1136 C1137 1.374 . S
C1137 H1117 0.950 . S
C1137 C1133 1.385 . S
C1137 C1136 1.374 . S
C1138 C1135 1.499 . S
C1138 C1139 1.373 . S
C1138 C1140 1.389 . S
C1139 H1118 0.950 1_455 S
C1139 C1138 1.373 . S
C1139 C1155 1.377 . S
C1140 C1138 1.389 . S
C1140 C1141 1.524 . S
C1140 C1154 1.377 . S
C1141 C1140 1.524 . S
C1141 C1142 1.397 . S
C1141 C1146 1.363 . S
C1142 H1119 0.950 . S
C1142 C1141 1.397 . S
C1142 C1143 1.334 . S
C1143 H1120 0.950 . S
C1143 C1142 1.334 . S
C1143 C1144 1.287 . S
C1144 C1143 1.287 . S
C1144 C1145 1.524 . S
C1144 H1163 0.913 . S
C1145 H1121 0.950 . S
C1145 C1144 1.524 . S
C1145 C1146 1.415 . S
C1146 H1122 0.950 . S
C1146 C1141 1.363 . S
C1146 C1145 1.415 . S
C1147 H1123 0.951 . S
C1147 C1148 1.366 . S
C1147 C1149 1.388 . S
C1148 C1147 1.366 . S
C1148 C1152 1.385 . S
C1149 H1124 0.951 . S
C1149 C1147 1.388 . S
C1149 C1150 1.366 . S
C1150 C1149 1.366 . S
C1150 C1151 1.414 . S
C1150 C1153 1.499 . S
C1151 H1125 0.950 . S
C1151 C1150 1.414 . S
C1151 C1152 1.374 . S
C1152 H1126 0.950 . S
C1152 C1148 1.385 . S
C1152 C1151 1.374 . S
C1153 C1150 1.499 . S
C1153 C1154 1.373 . S
C1153 C1155 1.389 . S
C1154 H1127 0.950 . S
C1154 C1140 1.377 . S
C1154 C1153 1.373 . S
C1155 C1139 1.377 . S
C1155 C1153 1.389 . S
C1155 C1156 1.524 1_455 S
C1156 C1155 1.524 1_655 S
C1156 C1157 1.397 . S
C1156 C1161 1.363 . S
C1157 H1128 0.950 . S
C1157 C1156 1.397 . S
C1157 C1158 1.334 . S
C1158 H1129 0.950 . S
C1158 C1157 1.334 . S
C1158 C1159 1.287 . S
C1159 C1158 1.287 . S
C1159 C1160 1.524 . S
C1159 H1162 0.999 . S
C1160 H1130 0.950 . S
C1160 C1159 1.524 . S
C1160 C1161 1.415 . S
C1161 H1131 0.950 1_655 S
C1161 C1156 1.363 . S
C1161 C1160 1.415 . S
H1162 C1159 0.999 . S
H1163 C1144 0.913 . S
H1164 C1182 0.951 . S
H1165 C1184 0.951 . S
H1166 C1186 0.950 . S
H1167 C1187 0.950 . S
H1168 C1189 0.950 1_655 S
H1169 C1192 0.950 . S
H1170 C1193 0.950 . S
H1171 C1195 0.950 1_455 S
H1172 C1196 0.950 . S
H1173 C1197 0.951 . S
H1174 C1199 0.951 . S
H1175 C1201 0.950 . S
H1176 C1202 0.950 . S
H1177 C1204 0.950 . S
H1178 C1207 0.950 . S
H1179 C1208 0.950 . S
H1180 C1210 0.950 . S
H1181 C1211 0.950 . S
C1182 H1164 0.951 . S
C1182 C1183 1.366 . S
C1182 C1184 1.388 . S
C1183 C1182 1.366 . S
C1183 C1187 1.385 . S
C1184 H1165 0.951 . S
C1184 C1182 1.388 . S
C1184 C1185 1.366 . S
C1185 C1184 1.366 . S
C1185 C1186 1.414 . S
C1185 C1188 1.499 . S
C1186 H1166 0.950 . S
C1186 C1185 1.414 . S
C1186 C1187 1.374 . S
C1187 H1167 0.950 . S
C1187 C1183 1.385 . S
C1187 C1186 1.374 . S
C1188 C1185 1.499 . S
C1188 C1189 1.373 1_655 S
C1188 C1190 1.389 1_655 S
C1189 H1168 0.950 1_455 S
C1189 C1188 1.373 1_455 S
C1189 C1205 1.377 . S
C1190 C1188 1.389 1_455 S
C1190 C1191 1.524 1_455 S
C1190 C1204 1.377 . S
C1191 C1190 1.524 1_655 S
C1191 C1192 1.397 . S
C1191 C1196 1.363 1_655 S
C1192 H1169 0.950 . S
C1192 C1191 1.397 . S
C1192 C1193 1.334 . S
C1193 H1170 0.950 . S
C1193 C1192 1.334 . S
C1193 C1194 1.287 . S
C1194 C1193 1.287 . S
C1194 C1195 1.524 . S
C1194 H1213 0.913 . S
C1195 H1171 0.950 1_655 S
C1195 C1194 1.524 . S
C1195 C1196 1.415 1_655 S
C1196 H1172 0.950 . S
C1196 C1191 1.363 1_455 S
C1196 C1195 1.415 1_455 S
C1197 H1173 0.951 . S
C1197 C1198 1.366 . S
C1197 C1199 1.388 . S
C1198 C1197 1.366 . S
C1198 C1202 1.385 . S
C1199 H1174 0.951 . S
C1199 C1197 1.388 . S
C1199 C1200 1.366 . S
C1200 C1199 1.366 . S
C1200 C1201 1.414 . S
C1200 C1203 1.499 . S
C1201 H1175 0.950 . S
C1201 C1200 1.414 . S
C1201 C1202 1.374 . S
C1202 H1176 0.950 . S
C1202 C1198 1.385 . S
C1202 C1201 1.374 . S
C1203 C1200 1.499 . S
C1203 C1204 1.373 . S
C1203 C1205 1.389 . S
C1204 H1177 0.950 . S
C1204 C1190 1.377 . S
C1204 C1203 1.373 . S
C1205 C1189 1.377 . S
C1205 C1203 1.389 . S
C1205 C1206 1.524 . S
C1206 C1205 1.524 . S
C1206 C1207 1.397 . S
C1206 C1211 1.363 . S
C1207 H1178 0.950 . S
C1207 C1206 1.397 . S
C1207 C1208 1.334 . S
C1208 H1179 0.950 . S
C1208 C1207 1.334 . S
C1208 C1209 1.287 . S
C1209 C1208 1.287 . S
C1209 C1210 1.524 . S
C1209 H1212 0.999 . S
C1210 H1180 0.950 . S
C1210 C1209 1.524 . S
C1210 C1211 1.415 . S
C1211 H1181 0.950 . S
C1211 C1206 1.363 . S
C1211 C1210 1.415 . S
H1212 C1209 0.999 . S
H1213 C1194 0.913 . S
H1214 C1232 0.951 . S
H1215 C1234 0.951 . S
H1216 C1236 0.950 . S
H1217 C1237 0.950 . S
H1218 C1239 0.950 . S
H1219 C1242 0.950 . S
H1220 C1243 0.950 . S
H1221 C1245 0.950 . S
H1222 C1246 0.950 . S
H1223 C1247 0.951 . S
H1224 C1249 0.951 . S
H1225 C1251 0.950 . S
H1226 C1252 0.950 . S
H1227 C1254 0.950 . S
H1228 C1257 0.950 . S
H1229 C1258 0.950 . S
H1230 C1260 0.950 . S
H1231 C1261 0.950 . S
C1232 H1214 0.951 . S
C1232 C1233 1.366 . S
C1232 C1234 1.388 . S
C1233 C1232 1.366 . S
C1233 C1237 1.385 . S
C1234 H1215 0.951 . S
C1234 C1232 1.388 . S
C1234 C1235 1.366 . S
C1235 C1234 1.366 . S
C1235 C1236 1.414 . S
C1235 C1238 1.499 . S
C1236 H1216 0.950 . S
C1236 C1235 1.414 . S
C1236 C1237 1.374 . S
C1237 H1217 0.950 . S
C1237 C1233 1.385 . S
C1237 C1236 1.374 . S
C1238 C1235 1.499 . S
C1238 C1239 1.373 . S
C1238 C1240 1.389 . S
C1239 H1218 0.950 . S
C1239 C1238 1.373 . S
C1239 C1255 1.377 . S
C1240 C1238 1.389 . S
C1240 C1241 1.524 . S
C1240 C1254 1.377 . S
C1241 C1240 1.524 . S
C1241 C1242 1.397 . S
C1241 C1246 1.363 . S
C1242 H1219 0.950 . S
C1242 C1241 1.397 . S
C1242 C1243 1.334 . S
C1243 H1220 0.950 . S
C1243 C1242 1.334 . S
C1243 C1244 1.287 . S
C1244 C1243 1.287 . S
C1244 C1245 1.524 . S
C1244 H1263 0.913 . S
C1245 H1221 0.950 . S
C1245 C1244 1.524 . S
C1245 C1246 1.415 . S
C1246 H1222 0.950 . S
C1246 C1241 1.363 . S
C1246 C1245 1.415 . S
C1247 H1223 0.951 . S
C1247 C1248 1.366 . S
C1247 C1249 1.388 . S
C1248 C1247 1.366 . S
C1248 C1252 1.385 . S
C1249 H1224 0.951 . S
C1249 C1247 1.388 . S
C1249 C1250 1.366 . S
C1250 C1249 1.366 . S
C1250 C1251 1.414 . S
C1250 C1253 1.499 . S
C1251 H1225 0.950 . S
C1251 C1250 1.414 . S
C1251 C1252 1.374 . S
C1252 H1226 0.950 . S
C1252 C1248 1.385 . S
C1252 C1251 1.374 . S
C1253 C1250 1.499 . S
C1253 C1254 1.373 . S
C1253 C1255 1.389 . S
C1254 H1227 0.950 . S
C1254 C1240 1.377 . S
C1254 C1253 1.373 . S
C1255 C1239 1.377 . S
C1255 C1253 1.389 . S
C1255 C1256 1.524 . S
C1256 C1255 1.524 . S
C1256 C1257 1.397 . S
C1256 C1261 1.363 . S
C1257 H1228 0.950 . S
C1257 C1256 1.397 . S
C1257 C1258 1.334 . S
C1258 H1229 0.950 . S
C1258 C1257 1.334 . S
C1258 C1259 1.287 . S
C1259 C1258 1.287 . S
C1259 C1260 1.524 . S
C1259 H1262 0.999 . S
C1260 H1230 0.950 . S
C1260 C1259 1.524 . S
C1260 C1261 1.415 . S
C1261 H1231 0.950 . S
C1261 C1256 1.363 . S
C1261 C1260 1.415 . S
H1262 C1259 0.999 . S
H1263 C1244 0.913 . S
C283 C18 1.264 . S
C298 C183 1.265 . S
C333 C216 1.262 . S
C348 C51 1.261 . S
C383 C84 1.264 . S
C398 C249 1.264 . S
C433 C150 1.262 . S
C448 C117 1.262 . S
C483 C7 0.407 . S
C498 C153 0.336 . S
C533 C40 0.503 . S
C548 C186 0.444 . S
C583 C205 0.506 . S
C598 C87 0.447 . S
C633 C120 0.336 . S
C648 C238 0.407 . S
C683 C106 0.506 . S
C698 C252 0.446 . S
C733 C172 0.411 . S
C748 C54 0.341 . S
C783 C219 0.340 . S
C798 C73 0.411 . S
C833 C21 0.443 . S
C848 C139 0.503 . S
C883 N13 1.902 . S
C898 N2 1.899 . S
C933 N46 1.902 . S
C948 N35 1.899 1_545 S
C983 N79 1.902 . S
C998 N68 1.899 . S
C1033 N112 1.902 1_565 S
C1048 N101 1.899 . S
C1083 N134 1.899 . S
C1098 N145 1.903 . S
C1133 N178 1.902 1_545 S
C1148 N167 1.899 . S
C1183 N211 1.902 . S
C1198 N200 1.899 . S
C1233 N233 1.899 1_565 S
C1248 N244 1.902 . S
