# Generated by pormake.
# Topology ukv, (4)-cn, num edge types: 1
# Building blocks:
#     Node 0, Type 0, BuildingBlock: CEKHIL_clean_sbu_0, # of connection points: 4
#     Node 1, Type 0, BuildingBlock: CEKHIL_clean_sbu_0, # of connection points: 4
#     Node 2, Type 0, BuildingBlock: CEKHIL_clean_sbu_0, # of connection points: 4
#     Node 3, Type 0, BuildingBlock: CEKHIL_clean_sbu_0, # of connection points: 4
#     Node 4, Type 0, BuildingBlock: CEKHIL_clean_sbu_0, # of connection points: 4
#     Node 5, Type 0, BuildingBlock: CEKHIL_clean_sbu_0, # of connection points: 4
#     Node 6, Type 0, BuildingBlock: CEKHIL_clean_sbu_0, # of connection points: 4
#     Node 7, Type 0, BuildingBlock: CEKHIL_clean_sbu_0, # of connection points: 4
#     Node 8, Type 0, BuildingBlock: CEKHIL_clean_sbu_0, # of connection points: 4
#     Node 9, Type 0, BuildingBlock: CEKHIL_clean_sbu_0, # of connection points: 4
#     Node 10, Type 0, BuildingBlock: CEKHIL_clean_sbu_0, # of connection points: 4
#     Node 11, Type 0, BuildingBlock: CEKHIL_clean_sbu_0, # of connection points: 4
#     Node 12, Type 0, BuildingBlock: CEKHIL_clean_sbu_0, # of connection points: 4
#     Node 13, Type 0, BuildingBlock: CEKHIL_clean_sbu_0, # of connection points: 4
#     Node 14, Type 0, BuildingBlock: CEKHIL_clean_sbu_0, # of connection points: 4
#     Node 15, Type 0, BuildingBlock: CEKHIL_clean_sbu_0, # of connection points: 4
#     Node 16, Type 0, BuildingBlock: CEKHIL_clean_sbu_0, # of connection points: 4
#     Node 17, Type 0, BuildingBlock: CEKHIL_clean_sbu_0, # of connection points: 4
#     Node 18, Type 0, BuildingBlock: CEKHIL_clean_sbu_0, # of connection points: 4
#     Node 19, Type 0, BuildingBlock: CEKHIL_clean_sbu_0, # of connection points: 4
#     Node 20, Type 0, BuildingBlock: CEKHIL_clean_sbu_0, # of connection points: 4
#     Node 21, Type 0, BuildingBlock: CEKHIL_clean_sbu_0, # of connection points: 4
#     Node 22, Type 0, BuildingBlock: CEKHIL_clean_sbu_0, # of connection points: 4
#     Node 23, Type 0, BuildingBlock: CEKHIL_clean_sbu_0, # of connection points: 4
#     Node 24, Type 0, BuildingBlock: CEKHIL_clean_sbu_0, # of connection points: 4
#     Node 25, Type 0, BuildingBlock: CEKHIL_clean_sbu_0, # of connection points: 4
#     Node 26, Type 0, BuildingBlock: CEKHIL_clean_sbu_0, # of connection points: 4
#     Node 27, Type 0, BuildingBlock: CEKHIL_clean_sbu_0, # of connection points: 4
#     Node 28, Type 0, BuildingBlock: CEKHIL_clean_sbu_0, # of connection points: 4
#     Node 29, Type 0, BuildingBlock: CEKHIL_clean_sbu_0, # of connection points: 4
#     Node 30, Type 0, BuildingBlock: CEKHIL_clean_sbu_0, # of connection points: 4
#     Node 31, Type 0, BuildingBlock: CEKHIL_clean_sbu_0, # of connection points: 4
#     Node 32, Type 0, BuildingBlock: CEKHIL_clean_sbu_0, # of connection points: 4
#     Node 33, Type 0, BuildingBlock: CEKHIL_clean_sbu_0, # of connection points: 4
#     Node 34, Type 0, BuildingBlock: CEKHIL_clean_sbu_0, # of connection points: 4
#     Node 35, Type 0, BuildingBlock: CEKHIL_clean_sbu_0, # of connection points: 4
#     Edge 36, Type (0, 0), BuildingBlock: XUDNAN_clean_linker_2, # of connection points: 2
#     Edge 37, Type (0, 0), BuildingBlock: XUDNAN_clean_linker_2, # of connection points: 2
#     Edge 38, Type (0, 0), BuildingBlock: XUDNAN_clean_linker_2, # of connection points: 2
#     Edge 39, Type (0, 0), BuildingBlock: XUDNAN_clean_linker_2, # of connection points: 2
#     Edge 40, Type (0, 0), BuildingBlock: XUDNAN_clean_linker_2, # of connection points: 2
#     Edge 41, Type (0, 0), BuildingBlock: XUDNAN_clean_linker_2, # of connection points: 2
#     Edge 42, Type (0, 0), BuildingBlock: XUDNAN_clean_linker_2, # of connection points: 2
#     Edge 43, Type (0, 0), BuildingBlock: XUDNAN_clean_linker_2, # of connection points: 2
#     Edge 44, Type (0, 0), BuildingBlock: XUDNAN_clean_linker_2, # of connection points: 2
#     Edge 45, Type (0, 0), BuildingBlock: XUDNAN_clean_linker_2, # of connection points: 2
#     Edge 46, Type (0, 0), BuildingBlock: XUDNAN_clean_linker_2, # of connection points: 2
#     Edge 47, Type (0, 0), BuildingBlock: XUDNAN_clean_linker_2, # of connection points: 2
#     Edge 48, Type (0, 0), BuildingBlock: XUDNAN_clean_linker_2, # of connection points: 2
#     Edge 49, Type (0, 0), BuildingBlock: XUDNAN_clean_linker_2, # of connection points: 2
#     Edge 50, Type (0, 0), BuildingBlock: XUDNAN_clean_linker_2, # of connection points: 2
#     Edge 51, Type (0, 0), BuildingBlock: XUDNAN_clean_linker_2, # of connection points: 2
#     Edge 52, Type (0, 0), BuildingBlock: XUDNAN_clean_linker_2, # of connection points: 2
#     Edge 53, Type (0, 0), BuildingBlock: XUDNAN_clean_linker_2, # of connection points: 2
#     Edge 54, Type (0, 0), BuildingBlock: XUDNAN_clean_linker_2, # of connection points: 2
#     Edge 55, Type (0, 0), BuildingBlock: XUDNAN_clean_linker_2, # of connection points: 2
#     Edge 56, Type (0, 0), BuildingBlock: XUDNAN_clean_linker_2, # of connection points: 2
#     Edge 57, Type (0, 0), BuildingBlock: XUDNAN_clean_linker_2, # of connection points: 2
#     Edge 58, Type (0, 0), BuildingBlock: XUDNAN_clean_linker_2, # of connection points: 2
#     Edge 59, Type (0, 0), BuildingBlock: XUDNAN_clean_linker_2, # of connection points: 2
#     Edge 60, Type (0, 0), BuildingBlock: XUDNAN_clean_linker_2, # of connection points: 2
#     Edge 61, Type (0, 0), BuildingBlock: XUDNAN_clean_linker_2, # of connection points: 2
#     Edge 62, Type (0, 0), BuildingBlock: XUDNAN_clean_linker_2, # of connection points: 2
#     Edge 63, Type (0, 0), BuildingBlock: XUDNAN_clean_linker_2, # of connection points: 2
#     Edge 64, Type (0, 0), BuildingBlock: XUDNAN_clean_linker_2, # of connection points: 2
#     Edge 65, Type (0, 0), BuildingBlock: XUDNAN_clean_linker_2, # of connection points: 2
#     Edge 66, Type (0, 0), BuildingBlock: XUDNAN_clean_linker_2, # of connection points: 2
#     Edge 67, Type (0, 0), BuildingBlock: XUDNAN_clean_linker_2, # of connection points: 2
#     Edge 68, Type (0, 0), BuildingBlock: XUDNAN_clean_linker_2, # of connection points: 2
#     Edge 69, Type (0, 0), BuildingBlock: XUDNAN_clean_linker_2, # of connection points: 2
#     Edge 70, Type (0, 0), BuildingBlock: XUDNAN_clean_linker_2, # of connection points: 2
#     Edge 71, Type (0, 0), BuildingBlock: XUDNAN_clean_linker_2, # of connection points: 2
#     Edge 72, Type (0, 0), BuildingBlock: XUDNAN_clean_linker_2, # of connection points: 2
#     Edge 73, Type (0, 0), BuildingBlock: XUDNAN_clean_linker_2, # of connection points: 2
#     Edge 74, Type (0, 0), BuildingBlock: XUDNAN_clean_linker_2, # of connection points: 2
#     Edge 75, Type (0, 0), BuildingBlock: XUDNAN_clean_linker_2, # of connection points: 2
#     Edge 76, Type (0, 0), BuildingBlock: XUDNAN_clean_linker_2, # of connection points: 2
#     Edge 77, Type (0, 0), BuildingBlock: XUDNAN_clean_linker_2, # of connection points: 2
#     Edge 78, Type (0, 0), BuildingBlock: XUDNAN_clean_linker_2, # of connection points: 2
#     Edge 79, Type (0, 0), BuildingBlock: XUDNAN_clean_linker_2, # of connection points: 2
#     Edge 80, Type (0, 0), BuildingBlock: XUDNAN_clean_linker_2, # of connection points: 2
#     Edge 81, Type (0, 0), BuildingBlock: XUDNAN_clean_linker_2, # of connection points: 2
#     Edge 82, Type (0, 0), BuildingBlock: XUDNAN_clean_linker_2, # of connection points: 2
#     Edge 83, Type (0, 0), BuildingBlock: XUDNAN_clean_linker_2, # of connection points: 2
#     Edge 84, Type (0, 0), BuildingBlock: XUDNAN_clean_linker_2, # of connection points: 2
#     Edge 85, Type (0, 0), BuildingBlock: XUDNAN_clean_linker_2, # of connection points: 2
#     Edge 86, Type (0, 0), BuildingBlock: XUDNAN_clean_linker_2, # of connection points: 2
#     Edge 87, Type (0, 0), BuildingBlock: XUDNAN_clean_linker_2, # of connection points: 2
#     Edge 88, Type (0, 0), BuildingBlock: XUDNAN_clean_linker_2, # of connection points: 2
#     Edge 89, Type (0, 0), BuildingBlock: XUDNAN_clean_linker_2, # of connection points: 2
#     Edge 90, Type (0, 0), BuildingBlock: XUDNAN_clean_linker_2, # of connection points: 2
#     Edge 91, Type (0, 0), BuildingBlock: XUDNAN_clean_linker_2, # of connection points: 2
#     Edge 92, Type (0, 0), BuildingBlock: XUDNAN_clean_linker_2, # of connection points: 2
#     Edge 93, Type (0, 0), BuildingBlock: XUDNAN_clean_linker_2, # of connection points: 2
#     Edge 94, Type (0, 0), BuildingBlock: XUDNAN_clean_linker_2, # of connection points: 2
#     Edge 95, Type (0, 0), BuildingBlock: XUDNAN_clean_linker_2, # of connection points: 2
#     Edge 96, Type (0, 0), BuildingBlock: XUDNAN_clean_linker_2, # of connection points: 2
#     Edge 97, Type (0, 0), BuildingBlock: XUDNAN_clean_linker_2, # of connection points: 2
#     Edge 98, Type (0, 0), BuildingBlock: XUDNAN_clean_linker_2, # of connection points: 2
#     Edge 99, Type (0, 0), BuildingBlock: XUDNAN_clean_linker_2, # of connection points: 2
#     Edge 100, Type (0, 0), BuildingBlock: XUDNAN_clean_linker_2, # of connection points: 2
#     Edge 101, Type (0, 0), BuildingBlock: XUDNAN_clean_linker_2, # of connection points: 2
#     Edge 102, Type (0, 0), BuildingBlock: XUDNAN_clean_linker_2, # of connection points: 2
#     Edge 103, Type (0, 0), BuildingBlock: XUDNAN_clean_linker_2, # of connection points: 2
#     Edge 104, Type (0, 0), BuildingBlock: XUDNAN_clean_linker_2, # of connection points: 2
#     Edge 105, Type (0, 0), BuildingBlock: XUDNAN_clean_linker_2, # of connection points: 2
#     Edge 106, Type (0, 0), BuildingBlock: XUDNAN_clean_linker_2, # of connection points: 2
#     Edge 107, Type (0, 0), BuildingBlock: XUDNAN_clean_linker_2, # of connection points: 2
# Relax obj value: 0.234
# Max RMSD: 0.137
# Mean RMSD: 0.137
data_MOF--net-ukv--node1-CEKHIL_clean_sbu_0--edge1-XUDNAN_clean_linker_2
_symmetry_space_group_name_H-M    P1
_symmetry_Int_Tables_number       1
_symmetry_cell_setting            triclinic
loop_
_symmetry_equiv_pos_as_xyz
'x, y, z'
_cell_length_a     94.439384
_cell_length_b     94.427922
_cell_length_c     21.312709
_cell_angle_alpha  89.944792
_cell_angle_beta   90.055347
_cell_angle_gamma 120.01837
loop_
_atom_site_label
_atom_site_type_symbol
_atom_site_fract_x
_atom_site_fract_y
_atom_site_fract_z
_atom_type_partial_charge
Co0 Co 0.27374 0.07844 0.1058 0.0
O1 O 0.2668 0.05919 0.15521 0.0
O2 O 0.25003 0.06622 0.10986 0.0
C3 C 0.29222 0.07544 0.0496 0.0
O4 O 0.2766 0.09697 0.0489 0.0
Co5 Co 0.30988 0.10683 0.11132 0.0
O6 O 0.30342 0.11488 0.03675 0.0
C7 C 0.28672 0.10339 0.21167 0.0
C8 C 0.25196 0.05575 0.14317 0.0
C9 C 0.28848 0.10963 0.02271 0.0
O10 O 0.27478 0.09152 0.18216 0.0
O11 O 0.30162 0.11008 0.19348 0.0
O12 O 0.27692 0.06765 0.03318 0.0
O13 O 0.29558 0.08361 0.10112 0.0
Co14 Co 0.92354 0.19324 0.10463 0.0
O15 O 0.94359 0.20611 0.14899 0.0
O16 O 0.93473 0.18086 0.11458 0.0
C17 C 0.92654 0.21298 0.03729 0.0
O18 O 0.90383 0.17674 0.05433 0.0
Co19 Co 0.89662 0.20308 0.10928 0.0
O20 O 0.88684 0.18675 0.04093 0.0
C21 C 0.89983 0.1846 0.21472 0.0
C22 C 0.94608 0.19388 0.14237 0.0
C23 C 0.89108 0.17613 0.02966 0.0
O24 O 0.91126 0.18374 0.18527 0.0
O25 O 0.89326 0.19273 0.19431 0.0
O26 O 0.93387 0.20467 0.02706 0.0
O27 O 0.91929 0.21042 0.09096 0.0
Co28 Co 0.80528 0.73057 0.07685 0.0
O29 O 0.79484 0.73472 0.14545 0.0
O30 O 0.81415 0.75394 0.08612 0.0
C31 C 0.78212 0.71056 0.03358 0.0
O32 O 0.81837 0.73082 0.00083 0.0
Co33 Co 0.80241 0.69639 0.0616 0.0
O34 O 0.812 0.70498 0.97792 0.0
C35 C 0.82594 0.72028 0.15277 0.0
C36 C 0.80386 0.75013 0.13231 0.0
C37 C 0.81903 0.72018 0.96527 0.0
O38 O 0.82248 0.73122 0.13483 0.0
O39 O 0.81851 0.70555 0.13231 0.0
O40 O 0.78684 0.72577 0.02163 0.0
O41 O 0.79066 0.708 0.07441 0.0
Co42 Co 0.0733 0.25977 0.38652 0.0
O43 O 0.06002 0.25612 0.3138 0.0
O44 O 0.05859 0.23652 0.37531 0.0
C45 C 0.06996 0.28002 0.42689 0.0
O46 O 0.08469 0.25902 0.46643 0.0
Co47 Co 0.10456 0.2937 0.40962 0.0
O48 O 0.10246 0.28485 0.49557 0.0
C49 C 0.10562 0.26988 0.32152 0.0
C50 C 0.05301 0.24065 0.327 0.0
C51 C 0.09466 0.26952 0.50628 0.0
O52 O 0.09074 0.25903 0.3344 0.0
O53 O 0.11269 0.28445 0.34361 0.0
O54 O 0.05892 0.26482 0.43617 0.0
O55 O 0.08164 0.28235 0.38944 0.0
Co56 Co 0.73004 0.80524 0.37232 0.0
O57 O 0.73544 0.79207 0.32102 0.0
O58 O 0.75358 0.81617 0.36071 0.0
C59 C 0.7126 0.78494 0.43627 0.0
O60 O 0.72858 0.82166 0.4298 0.0
Co61 Co 0.69384 0.79769 0.37298 0.0
O62 O 0.70185 0.81279 0.44559 0.0
C63 C 0.71581 0.81722 0.26996 0.0
C64 C 0.75061 0.80327 0.32847 0.0
C65 C 0.71693 0.82257 0.45739 0.0
O66 O 0.72786 0.81685 0.29662 0.0
O67 O 0.70111 0.8093 0.29051 0.0
O68 O 0.72827 0.79199 0.4455 0.0
O69 O 0.70824 0.78898 0.38497 0.0
Co70 Co 0.19614 0.92703 0.37805 0.0
O71 O 0.20744 0.94322 0.31517 0.0
O72 O 0.18654 0.94097 0.37038 0.0
C73 C 0.21865 0.93004 0.4267 0.0
O74 O 0.18187 0.91194 0.44784 0.0
Co75 Co 0.20056 0.89647 0.38449 0.0
O76 O 0.18988 0.89357 0.46721 0.0
C77 C 0.1777 0.89761 0.29203 0.0
C78 C 0.19757 0.94867 0.32737 0.0
C79 C 0.18146 0.9003 0.48073 0.0
O80 O 0.18053 0.91154 0.31325 0.0
O81 O 0.18518 0.89027 0.31158 0.0
O82 O 0.2131 0.93979 0.44002 0.0
O83 O 0.21145 0.91999 0.38115 0.0
Co84 Co 0.72636 0.92302 0.87316 0.0
O85 O 0.73125 0.94089 0.81875 0.0
O86 O 0.74998 0.9373 0.86701 0.0
C87 C 0.70676 0.92454 0.92761 0.0
O88 O 0.72524 0.90588 0.93422 0.0
Co89 Co 0.69114 0.89263 0.86884 0.0
O90 O 0.69874 0.88668 0.94592 0.0
C91 C 0.71519 0.8972 0.77066 0.0
C92 C 0.74657 0.94609 0.82948 0.0
C93 C 0.71377 0.89301 0.9611 0.0
O94 O 0.72657 0.9096 0.79995 0.0
O95 O 0.70019 0.88982 0.78791 0.0
O96 O 0.72201 0.93383 0.94294 0.0
O97 O 0.70408 0.91598 0.87746 0.0
Co98 Co 0.07534 0.80802 0.87729 0.0
O99 O 0.05935 0.79577 0.81492 0.0
O100 O 0.06153 0.81756 0.86324 0.0
C101 C 0.07188 0.78625 0.93341 0.0
O102 O 0.09011 0.82316 0.94614 0.0
Co103 Co 0.10569 0.80337 0.89175 0.0
O104 O 0.10766 0.81455 0.97261 0.0
C105 C 0.10522 0.82503 0.79225 0.0
C106 C 0.05367 0.80559 0.82382 0.0
C107 C 0.10117 0.82339 0.98222 0.0
O108 O 0.09129 0.82268 0.81153 0.0
O109 O 0.11228 0.81762 0.81534 0.0
O110 O 0.06201 0.79194 0.94093 0.0
O111 O 0.0822 0.7927 0.888 0.0
Co112 Co 0.19273 0.26506 0.88692 0.0
O113 O 0.20257 0.26118 0.81491 0.0
O114 O 0.18518 0.242 0.8803 0.0
C115 C 0.21568 0.2865 0.92588 0.0
O116 O 0.18046 0.26422 0.96626 0.0
Co117 Co 0.19307 0.29797 0.9058 0.0
O118 O 0.18641 0.28966 0.9925 0.0
C119 C 0.16884 0.2726 0.82014 0.0
C120 C 0.19449 0.24588 0.83108 0.0
C121 C 0.17995 0.27445 0.00463 0.0
O122 O 0.17389 0.26263 0.83433 0.0
O123 O 0.17555 0.28732 0.84066 0.0
O124 O 0.21249 0.27164 0.93669 0.0
O125 O 0.20595 0.28787 0.88711 0.0
Co126 Co 0.92355 0.73195 0.58336 0.0
O127 O 0.93794 0.73593 0.65245 0.0
O128 O 0.93782 0.75534 0.59423 0.0
C129 C 0.92735 0.71244 0.53866 0.0
O130 O 0.91073 0.73214 0.50672 0.0
Co131 Co 0.89282 0.69737 0.56472 0.0
O132 O 0.89337 0.70602 0.47957 0.0
C133 C 0.89141 0.72138 0.65035 0.0
C134 C 0.94446 0.75136 0.63936 0.0
C135 C 0.9004 0.72133 0.46855 0.0
O136 O 0.90648 0.73204 0.63992 0.0
O137 O 0.88406 0.707 0.6266 0.0
O138 O 0.93777 0.7278 0.52909 0.0
O139 O 0.91605 0.70948 0.57914 0.0
Co140 Co 0.27493 0.19791 0.60461 0.0
O141 O 0.26794 0.20943 0.65898 0.0
O142 O 0.25133 0.18642 0.60845 0.0
C143 C 0.29331 0.21967 0.54866 0.0
O144 O 0.27755 0.18279 0.54398 0.0
Co145 Co 0.31104 0.20542 0.60732 0.0
O146 O 0.30419 0.19069 0.53348 0.0
C147 C 0.28806 0.18489 0.70661 0.0
C148 C 0.25312 0.1981 0.64569 0.0
C149 C 0.28921 0.1815 0.51857 0.0
O150 O 0.27611 0.18502 0.67795 0.0
O151 O 0.30296 0.19332 0.68862 0.0
O152 O 0.27784 0.21265 0.53521 0.0
O153 O 0.29685 0.21455 0.5992 0.0
Co154 Co 0.80419 0.078 0.60597 0.0
O155 O 0.79044 0.05892 0.65389 0.0
O156 O 0.81478 0.065 0.61689 0.0
C157 C 0.78431 0.07585 0.54127 0.0
O158 O 0.82128 0.09657 0.55215 0.0
Co159 Co 0.79719 0.10694 0.60851 0.0
O160 O 0.81312 0.11506 0.53847 0.0
C161 C 0.81485 0.1025 0.71389 0.0
C162 C 0.80157 0.05485 0.64717 0.0
C163 C 0.82279 0.10965 0.52664 0.0
O164 O 0.81498 0.09067 0.68446 0.0
O165 O 0.80732 0.10971 0.69368 0.0
O166 O 0.79152 0.06745 0.53056 0.0
O167 O 0.78816 0.08385 0.59348 0.0
Co168 Co 0.93312 0.40388 0.42005 0.0
O169 O 0.92647 0.38692 0.48168 0.0
O170 O 0.90963 0.38992 0.41747 0.0
C171 C 0.954 0.40161 0.37961 0.0
O172 O 0.93553 0.41969 0.35027 0.0
Co173 Co 0.96802 0.43475 0.42438 0.0
O174 O 0.96188 0.43941 0.34136 0.0
C175 C 0.94188 0.43229 0.50843 0.0
C176 C 0.91165 0.38169 0.46211 0.0
C177 C 0.94707 0.43236 0.32273 0.0
O178 O 0.93123 0.41863 0.48369 0.0
O179 O 0.95708 0.43977 0.49406 0.0
O180 O 0.93908 0.39173 0.36158 0.0
O181 O 0.95553 0.41122 0.42526 0.0
Co182 Co 0.59233 0.52892 0.43818 0.0
O183 O 0.61033 0.53951 0.49523 0.0
O184 O 0.60444 0.51734 0.43981 0.0
C185 C 0.59642 0.55171 0.38873 0.0
O186 O 0.57501 0.51489 0.37394 0.0
Co187 Co 0.56389 0.53661 0.44087 0.0
O188 O 0.55724 0.52396 0.36149 0.0
C189 C 0.5653 0.51439 0.53588 0.0
C190 C 0.61394 0.52839 0.48006 0.0
C191 C 0.5628 0.51463 0.34591 0.0
O192 O 0.57769 0.51495 0.50832 0.0
O193 O 0.559 0.52306 0.51884 0.0
O194 O 0.60465 0.54468 0.37214 0.0
O195 O 0.58727 0.54571 0.43754 0.0
Co196 Co 0.47144 0.06404 0.43965 0.0
O197 O 0.45986 0.07013 0.49711 0.0
O198 O 0.48248 0.08771 0.44691 0.0
C199 C 0.44899 0.04572 0.38729 0.0
O200 O 0.48618 0.06216 0.3746 0.0
Co201 Co 0.46445 0.02814 0.43436 0.0
O202 O 0.47674 0.03555 0.35435 0.0
C203 C 0.48635 0.05066 0.5327 0.0
C204 C 0.47062 0.08519 0.48474 0.0
C205 C 0.48623 0.05067 0.34236 0.0
O206 O 0.48519 0.06265 0.50944 0.0
O207 O 0.47819 0.03598 0.51204 0.0
O208 O 0.45593 0.06113 0.37295 0.0
O209 O 0.455 0.0421 0.43482 0.0
Co210 Co 0.74039 0.59882 0.71547 0.0
O211 O 0.72587 0.59303 0.64488 0.0
O212 O 0.7272 0.57532 0.70982 0.0
C213 C 0.73571 0.61826 0.75516 0.0
O214 O 0.75323 0.60008 0.794 0.0
Co215 Co 0.77033 0.63395 0.73136 0.0
O216 O 0.77051 0.62642 0.81794 0.0
C217 C 0.77297 0.60964 0.6517 0.0
C218 C 0.72042 0.57796 0.66158 0.0
C219 C 0.76356 0.61122 0.83105 0.0
O220 O 0.75795 0.59879 0.66185 0.0
O221 O 0.77988 0.62422 0.67348 0.0
O222 O 0.72559 0.60289 0.76622 0.0
O223 O 0.74715 0.62121 0.71532 0.0
Co224 Co 0.40819 0.14979 0.7436 0.0
O225 O 0.41026 0.14047 0.66661 0.0
O226 O 0.43093 0.15647 0.72895 0.0
C227 C 0.38679 0.1265 0.78071 0.0
O228 O 0.41076 0.16103 0.82779 0.0
Co229 Co 0.37636 0.1503 0.7786 0.0
O230 O 0.38568 0.15378 0.8642 0.0
C231 C 0.40146 0.17619 0.6967 0.0
C232 C 0.42576 0.14734 0.67906 0.0
C233 C 0.40103 0.16006 0.87185 0.0
O234 O 0.41062 0.16969 0.69852 0.0
O235 O 0.38749 0.17009 0.72355 0.0
O236 O 0.4016 0.12914 0.78694 0.0
O237 O 0.38534 0.13722 0.74817 0.0
Co238 Co 0.85905 0.25598 0.70716 0.0
O239 O 0.86769 0.27046 0.63645 0.0
O240 O 0.85002 0.27033 0.70563 0.0
C241 C 0.88296 0.25893 0.74101 0.0
O242 O 0.84773 0.24337 0.78613 0.0
Co243 Co 0.86183 0.22457 0.71838 0.0
O244 O 0.85497 0.2245 0.80624 0.0
C245 C 0.83541 0.22423 0.64214 0.0
C246 C 0.85885 0.27658 0.65562 0.0
C247 C 0.84785 0.23242 0.82167 0.0
O248 O 0.84039 0.23932 0.65478 0.0
O249 O 0.84247 0.21645 0.66112 0.0
O250 O 0.87875 0.26964 0.75621 0.0
O251 O 0.87346 0.2478 0.70187 0.0
Co252 Co 0.40866 0.26057 0.24347 0.0
O253 O 0.41138 0.27234 0.167 0.0
O254 O 0.43156 0.27645 0.23112 0.0
C255 C 0.3873 0.26284 0.27771 0.0
O256 O 0.41061 0.25145 0.32746 0.0
Co257 Co 0.37642 0.2285 0.27572 0.0
O258 O 0.38539 0.23341 0.36199 0.0
C259 C 0.40162 0.22748 0.19519 0.0
C260 C 0.42682 0.28073 0.18084 0.0
C261 C 0.40071 0.24245 0.37062 0.0
O262 O 0.41102 0.24311 0.19803 0.0
O263 O 0.3875 0.21973 0.22101 0.0
O264 O 0.40215 0.27466 0.28706 0.0
O265 O 0.38578 0.25063 0.24536 0.0
Co266 Co 0.74025 0.14174 0.21167 0.0
O267 O 0.72527 0.13217 0.14285 0.0
O268 O 0.72696 0.15192 0.20443 0.0
C269 C 0.73575 0.11789 0.25332 0.0
O270 O 0.75331 0.15413 0.28826 0.0
Co271 Co 0.77022 0.13667 0.22946 0.0
O272 O 0.77152 0.14627 0.3134 0.0
C273 C 0.77174 0.16116 0.13804 0.0
C274 C 0.71986 0.14191 0.15802 0.0
C275 C 0.764 0.15401 0.32509 0.0
O276 O 0.75753 0.15861 0.15468 0.0
O277 O 0.77808 0.15288 0.15916 0.0
O278 O 0.72588 0.12334 0.26602 0.0
O279 O 0.74706 0.12623 0.21305 0.0
Co280 Co 0.85723 0.59969 0.22293 0.0
O281 O 0.8676 0.59603 0.15286 0.0
O282 O 0.84848 0.5764 0.21152 0.0
C283 C 0.88059 0.61952 0.26561 0.0
O284 O 0.8443 0.59887 0.30041 0.0
Co285 Co 0.86004 0.63364 0.2442 0.0
O286 O 0.85173 0.62464 0.32887 0.0
C287 C 0.83644 0.61049 0.15112 0.0
C288 C 0.85884 0.58055 0.16542 0.0
C289 C 0.84438 0.60931 0.33923 0.0
O290 O 0.83988 0.59938 0.16681 0.0
O291 O 0.84388 0.62502 0.17354 0.0
O292 O 0.87589 0.60427 0.27654 0.0
O293 O 0.87177 0.62224 0.2267 0.0
Co294 Co 0.59057 0.06268 0.93862 0.0
O295 O 0.60784 0.06968 -0.00101 0.0
O296 O 0.60316 0.08634 0.9404 0.0
C297 C 0.59479 0.04365 0.89261 0.0
O298 O 0.57431 0.05997 0.87055 0.0
Co299 Co 0.56152 0.02684 0.93715 0.0
O300 O 0.55624 0.03331 0.8558 0.0
C301 C 0.56196 0.05061 0.02921 0.0
C302 C 0.61209 0.08452 0.98261 0.0
C303 C 0.56233 0.0483 0.84053 0.0
O304 O 0.57518 0.06228 0.0051 0.0
O305 O 0.55546 0.03569 0.01141 0.0
O306 O 0.60347 0.0589 0.87619 0.0
O307 O 0.58498 0.04063 0.93915 0.0
Co308 Co 0.93111 0.52268 0.92095 0.0
O309 O 0.92769 0.53652 0.97669 0.0
O310 O 0.9079 0.51329 0.93684 0.0
C311 C 0.94884 0.54267 0.85656 0.0
O312 O 0.93019 0.50583 0.85949 0.0
Co313 Co 0.96601 0.5271 0.90813 0.0
O314 O 0.95614 0.51416 0.83079 0.0
C315 C 0.94496 0.50827 0.01472 0.0
C316 C 0.91218 0.52623 0.97101 0.0
C317 C 0.94073 0.50506 0.82365 0.0
O318 O 0.93314 0.50997 0.99327 0.0
O319 O 0.95923 0.51513 0.98997 0.0
O320 O 0.93321 0.53674 0.84985 0.0
O321 O 0.95315 0.53775 0.90563 0.0
Co322 Co 0.47289 0.40965 0.94156 0.0
O323 O 0.46057 0.39152 -0.00361 0.0
O324 O 0.48448 0.39774 0.95434 0.0
C325 C 0.45177 0.40535 0.87948 0.0
O326 O 0.48858 0.42699 0.88045 0.0
Co327 Co 0.46481 0.43781 0.93522 0.0
O328 O 0.47912 0.44417 0.86032 0.0
C329 C 0.48557 0.43737 0.03787 0.0
C330 C 0.472 0.38788 0.98863 0.0
C331 C 0.48903 0.43897 0.84985 0.0
O332 O 0.48486 0.42446 0.01441 0.0
O333 O 0.47759 0.4439 0.01558 0.0
O334 O 0.4592 0.39707 0.87114 0.0
O335 O 0.45611 0.4145 0.92888 0.0
Co336 Co 0.60483 0.74346 0.79953 0.0
O337 O 0.5986 0.72347 0.84298 0.0
O338 O 0.58116 0.72995 0.80022 0.0
C339 C 0.6246 0.74297 0.74219 0.0
O340 O 0.60694 0.76263 0.74842 0.0
Co341 Co 0.64017 0.7731 0.81267 0.0
O342 O 0.63348 0.78195 0.74127 0.0
C343 C 0.61575 0.76606 0.91276 0.0
C344 C 0.58361 0.71932 0.82997 0.0
C345 C 0.61852 0.77616 0.72605 0.0
O346 O 0.60437 0.75457 0.87981 0.0
O347 O 0.63081 0.77372 0.89618 0.0
O348 O 0.60947 0.73476 0.72379 0.0
O349 O 0.62706 0.75002 0.79599 0.0
Co350 Co 0.25577 0.86288 0.79312 0.0
O351 O 0.27314 0.87457 0.85165 0.0
O352 O 0.26798 0.85155 0.80456 0.0
C353 C 0.26007 0.88453 0.73426 0.0
O354 O 0.23907 0.84779 0.72888 0.0
Co355 Co 0.22728 0.87057 0.7878 0.0
O356 O 0.2213 0.8567 0.71176 0.0
C357 C 0.22764 0.84911 0.88765 0.0
C358 C 0.27707 0.86338 0.84295 0.0
C359 C 0.22689 0.84721 0.69929 0.0
O360 O 0.24046 0.84985 0.86329 0.0
O361 O 0.22126 0.85741 0.86719 0.0
O362 O 0.2688 0.87758 0.72559 0.0
O363 O 0.25061 0.87951 0.78276 0.0
Co364 Co 0.13496 0.39861 0.72662 0.0
O365 O 0.12265 0.40376 0.78454 0.0
O366 O 0.14306 0.42189 0.72552 0.0
C367 C 0.11294 0.37735 0.68188 0.0
O368 O 0.15004 0.39799 0.6601 0.0
Co369 Co 0.1329 0.36457 0.72826 0.0
O370 O 0.14676 0.37275 0.65232 0.0
C371 C 0.15464 0.39056 0.818 0.0
C372 C 0.13156 0.41877 0.76594 0.0
C373 C 0.15336 0.38763 0.63486 0.0
O374 O 0.15108 0.40097 0.79423 0.0
O375 O 0.14773 0.37555 0.80109 0.0
O376 O 0.11778 0.39218 0.66334 0.0
O377 O 0.1207 0.3759 0.72885 0.0
Co378 Co 0.40695 0.93387 0.06634 0.0
O379 O 0.39132 0.9282 8e-05 0.0
O380 O 0.39335 0.91031 0.06156 0.0
C381 C 0.40305 0.95356 0.10873 0.0
O382 O 0.42089 0.93528 0.14159 0.0
Co383 Co 0.4373 0.96897 0.07613 0.0
O384 O 0.43732 0.96198 0.16383 0.0
C385 C 0.43774 0.94474 0.98881 0.0
C386 C 0.38572 0.91311 0.01676 0.0
C387 C 0.43074 0.94689 0.17812 0.0
O388 O 0.42348 0.93359 0.0073 0.0
O389 O 0.4447 0.95958 0.008 0.0
O390 O 0.39309 0.93826 0.12155 0.0
O391 O 0.41388 0.95626 0.06638 0.0
Co392 Co 0.06915 0.47596 0.06762 0.0
O393 O 0.06642 0.46436 0.99052 0.0
O394 O 0.09031 0.48126 0.03481 0.0
C395 C 0.0499 0.45442 0.1213 0.0
O396 O 0.07689 0.48991 0.14673 0.0
Co397 Co 0.04059 0.4794 0.12441 0.0
O398 O 0.05522 0.48818 0.19783 0.0
C399 C 0.06046 0.50112 0.0208 0.0
C400 C 0.08225 0.47132 0.98918 0.0
C401 C 0.07038 0.49285 0.19419 0.0
O402 O 0.06959 0.4946 0.01993 0.0
O403 O 0.04808 0.49645 0.05691 0.0
O404 O 0.06452 0.45649 0.11616 0.0
O405 O 0.04706 0.4645 0.09063 0.0
Co406 Co 0.52477 0.58753 0.04127 0.0
O407 O 0.53553 0.6021 0.97269 0.0
O408 O 0.51518 0.60125 0.02736 0.0
C409 C 0.54764 0.59177 0.0911 0.0
O410 O 0.51129 0.57461 0.1167 0.0
Co411 Co 0.52902 0.55713 0.06199 0.0
O412 O 0.5203 0.55753 0.14611 0.0
C413 C 0.50582 0.55606 0.96603 0.0
C414 C 0.52606 0.60812 0.98323 0.0
C415 C 0.51203 0.56462 0.15578 0.0
O416 O 0.50856 0.57032 0.98252 0.0
O417 O 0.51352 0.5493 0.98914 0.0
O418 O 0.54237 0.60202 0.09785 0.0
O419 O 0.54003 0.58049 0.04964 0.0
Co420 Co 0.06838 0.58837 0.55724 0.0
O421 O 0.07263 0.60316 0.48912 0.0
O422 O 0.0905 0.60671 0.56365 0.0
C423 C 0.04372 0.58497 0.58285 0.0
O424 O 0.06792 0.57599 0.63608 0.0
Co425 Co 0.03852 0.55284 0.55002 0.0
O426 O 0.04465 0.55149 0.63763 0.0
C427 C 0.06956 0.5609 0.48714 0.0
C428 C 0.08705 0.61218 0.51324 0.0
C429 C 0.05798 0.56231 0.6625 0.0
O430 O 0.07646 0.57576 0.50657 0.0
O431 O 0.05455 0.55028 0.4969 0.0
O432 O 0.05701 0.5976 0.60311 0.0
O433 O 0.04574 0.57585 0.54299 0.0
Co434 Co 0.40938 0.46931 0.53312 0.0
O435 O 0.39445 0.4595 0.46493 0.0
O436 O 0.39573 0.47922 0.52522 0.0
C437 C 0.40516 0.4456 0.57526 0.0
O438 O 0.42285 0.48183 0.60921 0.0
Co439 Co 0.43951 0.46431 0.54715 0.0
O440 O 0.44036 0.47299 0.63249 0.0
C441 C 0.44141 0.49067 0.46529 0.0
C442 C 0.38866 0.46896 0.47933 0.0
C443 C 0.43353 0.48135 0.64537 0.0
O444 O 0.42641 0.48644 0.47619 0.0
O445 O 0.4485 0.4832 0.48742 0.0
O446 O 0.39523 0.45097 0.58792 0.0
O447 O 0.41625 0.45382 0.53401 0.0
Co448 Co 0.52364 0.93572 0.55577 0.0
O449 O 0.53305 0.93154 0.48365 0.0
O450 O 0.51349 0.91236 0.54221 0.0
C451 C 0.54754 0.9542 0.60046 0.0
O452 O 0.5114 0.93543 0.63476 0.0
Co453 Co 0.52932 0.97073 0.58288 0.0
O454 O 0.52099 0.96132 0.66697 0.0
C455 C 0.50283 0.94833 0.4963 0.0
C456 C 0.52366 0.9161 0.49566 0.0
C457 C 0.51231 0.94592 0.67541 0.0
O458 O 0.50653 0.937 0.50285 0.0
O459 O 0.51076 0.96245 0.52194 0.0
O460 O 0.54208 0.93865 0.60728 0.0
O461 O 0.53936 0.95796 0.56216 0.0
Co462 Co 0.25859 0.40521 0.22964 0.0
O463 O 0.27488 0.40835 0.2896 0.0
O464 O 0.27486 0.42839 0.2356 0.0
C465 C 0.25869 0.38396 0.18194 0.0
O466 O 0.24372 0.40596 0.16209 0.0
Co467 Co 0.22583 0.37186 0.22882 0.0
O468 O 0.22346 0.38006 0.14595 0.0
C469 C 0.23175 0.39679 0.32486 0.0
C470 C 0.28209 0.42377 0.27613 0.0
C471 C 0.23133 0.39516 0.13088 0.0
O472 O 0.24483 0.40747 0.29682 0.0
O473 O 0.22348 0.38174 0.3086 0.0
O474 O 0.26936 0.39883 0.16604 0.0
O475 O 0.24931 0.38248 0.22823 0.0
Co476 Co 0.60137 0.85953 0.30101 0.0
O477 O 0.59578 0.87351 0.3462 0.0
O478 O 0.5778 0.84875 0.3117 0.0
C479 C 0.61878 0.87879 0.23358 0.0
O480 O 0.60295 0.84215 0.24989 0.0
Co481 Co 0.63756 0.86715 0.30411 0.0
O482 O 0.62966 0.85056 0.23643 0.0
C483 C 0.61568 0.84984 0.41055 0.0
C484 C 0.58063 0.8622 0.33939 0.0
C485 C 0.61458 0.84064 0.22525 0.0
O486 O 0.60356 0.84942 0.38122 0.0
O487 O 0.63038 0.85746 0.38984 0.0
O488 O 0.60312 0.8714 0.22379 0.0
O489 O 0.62318 0.87566 0.28675 0.0
Co490 Co 0.1358 0.74363 0.29196 0.0
O491 O 0.12367 0.72518 0.34538 0.0
O492 O 0.14676 0.73091 0.2971 0.0
C493 C 0.11402 0.7406 0.23779 0.0
O494 O 0.15109 0.76125 0.23095 0.0
Co495 Co 0.12902 0.7727 0.29456 0.0
O496 O 0.14214 0.77906 0.21628 0.0
C497 C 0.14987 0.77005 0.39241 0.0
C498 C 0.13463 0.72115 0.33314 0.0
C499 C 0.15155 0.77348 0.20223 0.0
O500 O 0.14899 0.75749 0.36504 0.0
O501 O 0.14185 0.77695 0.37413 0.0
O502 O 0.12094 0.73219 0.22229 0.0
O503 O 0.1195 0.74933 0.28787 0.0
H504 H 0.21786 0.96415 0.23037 0.0
H505 H 0.18268 0.9669 0.35279 0.0
H506 H 0.18981 0.99376 0.30587 0.0
H507 H 0.24793 0.00345 0.24887 0.0
H508 H 0.25558 0.00623 0.1697 0.0
H509 H 0.24529 0.98615 0.2037 0.0
H510 H 0.22461 0.97563 0.11135 0.0
H511 H 0.23491 0.99575 0.07679 0.0
H512 H 0.21329 0.98582 0.09286 0.0
H513 H 0.2038 0.0222 0.25349 0.0
H514 H 0.22383 0.04904 0.20648 0.0
H515 H 0.25001 0.02689 0.12456 0.0
C516 C 0.21131 0.97015 0.24645 0.0
C517 C 0.1997 0.96345 0.29509 0.0
C518 C 0.19155 0.9718 0.31514 0.0
C519 C 0.19551 0.98702 0.28865 0.0
C520 C 0.2075 0.99355 0.24198 0.0
C521 C 0.21518 0.98523 0.22103 0.0
C522 C 0.22894 0.99537 0.17621 0.0
C523 C 0.24539 0.99796 0.20116 0.0
C524 C 0.2252 0.98768 0.1104 0.0
C525 C 0.22836 0.01103 0.177 0.0
C526 C 0.2157 0.00976 0.21373 0.0
C527 C 0.21358 0.02321 0.22393 0.0
C528 C 0.22493 0.03836 0.19709 0.0
C529 C 0.2383 0.03982 0.1621 0.0
C530 C 0.23976 0.02595 0.15095 0.0
H531 H 0.9756 0.22053 0.12793 0.0
H532 H 0.95165 0.17126 0.2023 0.0
H533 H 0.97813 0.17643 0.24756 0.0
H534 H 0.01554 0.22297 0.0912 0.0
H535 H 0.02671 0.24431 0.11221 0.0
H536 H 0.0065 0.23564 0.07905 0.0
H537 H 0.99723 0.24584 0.17504 0.0
H538 H 0.01731 0.25447 0.20843 0.0
H539 H 0.99977 0.23994 0.25287 0.0
H540 H 0.00647 0.18916 0.29925 0.0
H541 H 0.03361 0.20742 0.34697 0.0
H542 H 0.03857 0.2474 0.23094 0.0
C543 C 0.97603 0.21071 0.15257 0.0
C544 C 0.96175 0.19556 0.16212 0.0
C545 C 0.96261 0.18293 0.19438 0.0
C546 C 0.97757 0.18578 0.22009 0.0
C547 C 0.99146 0.20113 0.21126 0.0
C548 C 0.99079 0.21324 0.17703 0.0
C549 C 0.00696 0.22903 0.17723 0.0
C550 C 0.01436 0.23323 0.11098 0.0
C551 C 0.0052 0.24313 0.20508 0.0
C552 C 0.01667 0.22429 0.21977 0.0
C553 C 0.00769 0.20813 0.23866 0.0
C554 C 0.01373 0.20169 0.28346 0.0
C555 C 0.02914 0.21214 0.31036 0.0
C556 C 0.03823 0.22879 0.29234 0.0
C557 C 0.03205 0.23468 0.24513 0.0
H558 H 0.7502 0.77479 0.33447 0.0
H559 H 0.77973 0.82478 0.27044 0.0
H560 H 0.79913 0.81754 0.22066 0.0
H561 H 0.78461 0.76739 0.36635 0.0
H562 H 0.77273 0.74644 0.34086 0.0
H563 H 0.76274 0.75638 0.37676 0.0
H564 H 0.7438 0.74928 0.27963 0.0
H565 H 0.75375 0.73943 0.24337 0.0
H566 H 0.75278 0.75569 0.20284 0.0
H567 H 0.81274 0.80309 0.16505 0.0
H568 H 0.81986 0.78367 0.11553 0.0
H569 H 0.78163 0.74404 0.22347 0.0
C570 C 0.76094 0.7843 0.31097 0.0
C571 C 0.76355 0.80028 0.30574 0.0
C572 C 0.77768 0.81247 0.275 0.0
C573 C 0.78869 0.80844 0.24669 0.0
C574 C 0.78549 0.79233 0.2513 0.0
C575 C 0.77207 0.78057 0.28389 0.0
C576 C 0.77062 0.76396 0.27988 0.0
C577 C 0.77281 0.75821 0.34483 0.0
C578 C 0.75428 0.75137 0.2496 0.0
C579 C 0.78491 0.76793 0.23764 0.0
C580 C 0.79349 0.78432 0.22167 0.0
C581 C 0.80631 0.79032 0.17842 0.0
C582 C 0.81026 0.77922 0.15046 0.0
C583 C 0.80137 0.76238 0.16598 0.0
C584 C 0.78882 0.75686 0.21112 0.0
H585 H 0.74084 0.96466 0.749 0.0
H586 H 0.78034 0.9628 0.84536 0.0
H587 H 0.80011 0.99 0.80036 0.0
H588 H 0.76297 0.98567 0.60774 0.0
H589 H 0.75257 0.99727 0.60306 0.0
H590 H 0.7424 0.9771 0.63712 0.0
H591 H 0.73714 0.9888 0.73898 0.0
H592 H 0.74727 0.00895 0.70536 0.0
H593 H 0.75417 0.00532 0.77935 0.0
H594 H 0.81511 0.01892 0.74757 0.0
H595 H 0.82289 0.04598 0.69977 0.0
H596 H 0.77248 0.02745 0.64489 0.0
C597 C 0.75367 0.96976 0.76022 0.0
C598 C 0.75907 0.9616 0.80057 0.0
C599 C 0.77597 0.96884 0.81421 0.0
C600 C 0.78725 0.98425 0.78876 0.0
C601 C 0.78135 0.99209 0.74983 0.0
C602 C 0.76488 0.98495 0.7359 0.0
C603 C 0.76108 0.99601 0.69742 0.0
C604 C 0.75436 0.98857 0.63248 0.0
C605 C 0.74923 1.00001 0.73239 0.0
C606 C 0.77791 0.01076 0.69257 0.0
C607 C 0.78962 0.00837 0.72191 0.0
C608 C 0.80601 0.02081 0.72424 0.0
C609 C 0.81034 0.03609 0.69694 0.0
C610 C 0.79822 0.03869 0.66919 0.0
C611 C 0.78196 0.02577 0.66621 0.0
H612 H 0.03016 0.77593 0.78605 0.0
H613 H 0.04136 0.82629 0.80016 0.0
H614 H 0.01413 0.81837 0.75398 0.0
H615 H 0.00816 0.76571 0.642 0.0
H616 H 0.99367 0.74528 0.66752 0.0
H617 H 0.01413 0.75547 0.69863 0.0
H618 H 0.00245 0.75084 0.81172 0.0
H619 H 0.98196 0.74072 0.78095 0.0
H620 H 0.98864 0.75805 0.83244 0.0
H621 H 0.98534 0.80402 0.70017 0.0
H622 H 0.95804 0.78487 0.65417 0.0
H623 H 0.96653 0.74445 0.6879 0.0
C624 C 0.02703 0.7854 0.7789 0.0
C625 C 0.0379 0.80175 0.79559 0.0
C626 C 0.03317 0.81368 0.78706 0.0
C627 C 0.01777 0.80928 0.76092 0.0
C628 C 0.00729 0.7929 0.74501 0.0
C629 C 0.01177 0.78119 0.75458 0.0
C630 C 0.99839 0.76432 0.73667 0.0
C631 C 0.00392 0.75729 0.68302 0.0
C632 C 0.99251 0.75282 0.79386 0.0
C633 C 0.98556 0.76823 0.71496 0.0
C634 C 0.99082 0.78475 0.71901 0.0
C635 C 0.98107 0.79105 0.69776 0.0
C636 C 0.96562 0.78014 0.67177 0.0
C637 C 0.9601 0.76319 0.66876 0.0
C638 C 0.97023 0.75729 0.69103 0.0
H639 H 0.24929 0.20717 0.76205 0.0
H640 H 0.22609 0.19257 0.57988 0.0
H641 H 0.20545 0.19997 0.61272 0.0
H642 H 0.20977 0.19298 0.85279 0.0
H643 H 0.21989 0.20978 0.90699 0.0
H644 H 0.231 0.20087 0.87205 0.0
H645 H 0.2528 0.22946 0.83124 0.0
H646 H 0.24172 0.23841 0.86531 0.0
H647 H 0.24647 0.24096 0.78272 0.0
H648 H 0.19144 0.21449 0.65795 0.0
H649 H 0.18308 0.23181 0.71676 0.0
H650 H 0.21367 0.23437 0.87254 0.0
C651 C 0.23951 0.20505 0.72998 0.0
C652 C 0.23912 0.1993 0.66873 0.0
C653 C 0.22636 0.19678 0.62737 0.0
C654 C 0.21465 0.20098 0.6456 0.0
C655 C 0.21565 0.20715 0.70591 0.0
C656 C 0.2275 0.20872 0.74809 0.0
C657 C 0.22659 0.21653 0.80871 0.0
C658 C 0.22151 0.20431 0.86337 0.0
C659 C 0.24285 0.23227 0.82274 0.0
C660 C 0.21316 0.22018 0.79257 0.0
C661 C 0.20687 0.21457 0.73326 0.0
C662 C 0.19581 0.21839 0.70527 0.0
C663 C 0.19117 0.22823 0.73869 0.0
C664 C 0.19745 0.23388 0.79937 0.0
C665 C 0.20832 0.22961 0.82694 0.0
H666 H 0.87667 0.30758 0.69586 0.0
H667 H 0.84536 0.27794 0.54452 0.0
H668 H 0.85176 0.30305 0.48498 0.0
H669 H 0.87054 0.34407 0.67619 0.0
H670 H 0.89181 0.35805 0.69268 0.0
H671 H 0.88153 0.33817 0.72936 0.0
H672 H 0.90364 0.33218 0.68593 0.0
H673 H 0.9139 0.35191 0.64906 0.0
H674 H 0.90757 0.33375 0.6027 0.0
H675 H 0.8645 0.33112 0.43679 0.0
H676 H 0.88433 0.35904 0.39983 0.0
H677 H 0.90887 0.36979 0.57992 0.0
C678 C 0.87066 0.3065 0.65135 0.0
C679 C 0.86019 0.29106 0.6251 0.0
C680 C 0.8531 0.28982 0.56557 0.0
C681 C 0.85663 0.30398 0.53173 0.0
C682 C 0.86739 0.31917 0.55816 0.0
C683 C 0.87434 0.32049 0.61668 0.0
C684 C 0.88752 0.33788 0.63034 0.0
C685 C 0.88255 0.34496 0.68541 0.0
C686 C 0.90413 0.33898 0.64267 0.0
C687 C 0.88753 0.346 0.56922 0.0
C688 C 0.87546 0.33519 0.52897 0.0
C689 C 0.87382 0.33975 0.46827 0.0
C690 C 0.88509 0.3556 0.44768 0.0
C691 C 0.89804 0.36644 0.48722 0.0
C692 C 0.89899 0.3617 0.54905 0.0
H693 H 0.62726 0.53963 0.59419 0.0
H694 H 0.63435 0.51971 0.42184 0.0
H695 H 0.66206 0.52657 0.45764 0.0
H696 H 0.66443 0.57293 0.60318 0.0
H697 H 0.66688 0.57294 0.68708 0.0
H698 H 0.64674 0.56355 0.65366 0.0
H699 H 0.63914 0.53623 0.70938 0.0
H700 H 0.65929 0.54562 0.74366 0.0
H701 H 0.65179 0.52713 0.6983 0.0
H702 H 0.69078 0.54098 0.50286 0.0
H703 H 0.71692 0.55957 0.55732 0.0
H704 H 0.69019 0.56844 0.7019 0.0
C705 C 0.63446 0.53622 0.56499 0.0
C706 C 0.62879 0.52915 0.5055 0.0
C707 C 0.63849 0.52496 0.46801 0.0
C708 C 0.65423 0.52884 0.48796 0.0
C709 C 0.65977 0.53646 0.5461 0.0
C710 C 0.64997 0.53973 0.58469 0.0
C711 C 0.65911 0.54923 0.64229 0.0
C712 C 0.6593 0.56562 0.64672 0.0
C713 C 0.6519 0.53893 0.70194 0.0
C714 C 0.67589 0.55177 0.62834 0.0
C715 C 0.67606 0.54415 0.57312 0.0
C716 C 0.69068 0.54651 0.54718 0.0
C717 C 0.70543 0.55705 0.57815 0.0
C718 C 0.70529 0.56492 0.63423 0.0
C719 C 0.69039 0.56203 0.66005 0.0
H720 H 0.41579 0.12077 0.6052 0.0
H721 H 0.45949 0.16331 0.67491 0.0
H722 H 0.47654 0.15341 0.62371 0.0
H723 H 0.42879 0.09331 0.63916 0.0
H724 H 0.41906 0.08033 0.57235 0.0
H725 H 0.41076 0.09215 0.60516 0.0
H726 H 0.4128 0.10555 0.49674 0.0
H727 H 0.42101 0.09364 0.46335 0.0
H728 H 0.43214 0.11561 0.4562 0.0
H729 H 0.48856 0.13745 0.56792 0.0
H730 H 0.49389 0.11632 0.52192 0.0
H731 H 0.44174 0.08384 0.49991 0.0
C732 C 0.42897 0.12829 0.60826 0.0
C733 C 0.43635 0.14295 0.64297 0.0
C734 C 0.45362 0.15213 0.64775 0.0
C735 C 0.46337 0.1466 0.61879 0.0
C736 C 0.45561 0.13181 0.58604 0.0
C737 C 0.43876 0.12279 0.58114 0.0
C738 C 0.43311 0.10649 0.54992 0.0
C739 C 0.4223 0.09224 0.59431 0.0
C740 C 0.42425 0.10526 0.48786 0.0
C741 C 0.44938 0.10756 0.53856 0.0
C742 C 0.46231 0.12234 0.5583 0.0
C743 C 0.4785 0.12585 0.55236 0.0
C744 C 0.48143 0.11385 0.52626 0.0
C745 C 0.4682 0.09848 0.50826 0.0
C746 C 0.45207 0.09545 0.51407 0.0
H747 H 0.41761 0.29659 0.09946 0.0
H748 H 0.4605 0.29936 0.18596 0.0
H749 H 0.47782 0.32658 0.13689 0.0
H750 H 0.43668 0.31894 0.95363 0.0
H751 H 0.42468 0.32895 0.95467 0.0
H752 H 0.4165 0.30876 0.98757 0.0
H753 H 0.41141 0.3192 0.09296 0.0
H754 H 0.41971 0.33941 0.06076 0.0
H755 H 0.42824 0.33633 0.13169 0.0
H756 H 0.49001 0.35475 0.08251 0.0
H757 H 0.49523 0.38112 0.03572 0.0
H758 H 0.44353 0.35957 0.99557 0.0
C759 C 0.43071 0.30265 0.1067 0.0
C760 C 0.43777 0.29578 0.14566 0.0
C761 C 0.4549 0.30437 0.15555 0.0
C762 C 0.4648 0.3198 0.12785 0.0
C763 C 0.45732 0.32645 0.091 0.0
C764 C 0.44061 0.31807 0.08075 0.0
C765 C 0.43508 0.32836 0.04586 0.0
C766 C 0.42781 0.3208 0.98161 0.0
C767 C 0.4229 0.33098 0.08519 0.0
C768 C 0.4512 0.34399 0.03887 0.0
C769 C 0.46402 0.34268 0.06378 0.0
C770 C 0.48004 0.35586 0.06281 0.0
C771 C 0.48292 0.37075 0.03627 0.0
C772 C 0.46973 0.3723 0.01293 0.0
C773 C 0.45379 0.35871 0.01384 0.0
H774 H 0.69001 0.11957 0.19652 0.0
H775 H 0.71537 0.15757 0.05817 0.0
H776 H 0.68888 0.14965 0.00577 0.0
H777 H 0.66448 0.09023 0.09514 0.0
H778 H 0.64695 0.08085 0.14636 0.0
H779 H 0.66716 0.0917 0.17913 0.0
H780 H 0.6593 0.11027 0.24199 0.0
H781 H 0.63897 0.0994 0.20942 0.0
H782 H 0.65108 0.12131 0.20126 0.0
H783 H 0.65991 0.13497 0.96177 0.0
H784 H 0.63205 0.11423 0.92703 0.0
H785 H 0.62646 0.0856 0.09376 0.0
C786 C 0.68983 0.12655 0.15644 0.0
C787 C 0.70444 0.13933 0.13171 0.0
C788 C 0.70409 0.14794 0.07812 0.0
C789 C 0.68914 0.14353 0.04835 0.0
C790 C 0.67481 0.13056 0.07326 0.0
C791 C 0.6751 0.12226 0.1264 0.0
C792 C 0.65854 0.10757 0.13982 0.0
C793 C 0.65934 0.09166 0.14006 0.0
C794 C 0.65156 0.10978 0.2018 0.0
C795 C 0.64902 0.10834 0.08429 0.0
C796 C 0.65841 0.1219 0.04719 0.0
C797 C 0.65239 0.12448 0.99107 0.0
C798 C 0.63656 0.11268 0.97176 0.0
C799 C 0.62718 0.09839 0.00792 0.0
C800 C 0.63337 0.09648 0.06549 0.0
H801 H 0.88513 0.58773 0.0938 0.0
H802 H 0.84042 0.54676 0.16572 0.0
H803 H 0.84806 0.52757 0.11723 0.0
H804 H 0.88775 0.56951 0.94717 0.0
H805 H 0.90967 0.57894 0.95288 0.0
H806 H 0.89943 0.58889 0.98652 0.0
H807 H 0.91277 0.59004 0.09428 0.0
H808 H 0.92293 0.57999 0.0612 0.0
H809 H 0.90998 0.57139 0.12896 0.0
H810 H 0.8618 0.51307 0.06191 0.0
H811 H 0.88082 0.50516 0.01323 0.0
H812 H 0.91672 0.5564 0.98804 0.0
C813 C 0.87671 0.57472 0.09835 0.0
C814 C 0.86208 0.5687 0.13271 0.0
C815 C 0.85163 0.55159 0.13896 0.0
C816 C 0.85587 0.54064 0.11156 0.0
C817 C 0.87063 0.54708 0.07883 0.0
C818 C 0.88087 0.56378 0.07264 0.0
C819 C 0.89669 0.5679 0.04049 0.0
C820 C 0.89848 0.57683 0.97806 0.0
C821 C 0.91145 0.57791 0.08384 0.0
C822 C 0.89392 0.55093 0.02983 0.0
C823 C 0.87876 0.53898 0.05103 0.0
C824 C 0.8737 0.52237 0.04534 0.0
C825 C 0.88452 0.51798 0.01773 0.0
C826 C 0.90024 0.5302 -0.00217 0.0
C827 C 0.90485 0.5468 0.00374 0.0
H828 H 0.58538 0.69191 0.82171 0.0
H829 H 0.55237 0.70941 0.87182 0.0
H830 H 0.5318 0.68137 0.90702 0.0
H831 H 0.55353 0.65113 0.76527 0.0
H832 H 0.56459 0.64159 0.79521 0.0
H833 H 0.57555 0.66251 0.76863 0.0
H834 H 0.59008 0.67152 0.8766 0.0
H835 H 0.57919 0.6507 0.90344 0.0
H836 H 0.57793 0.66638 0.94704 0.0
H837 H 0.51685 0.65196 0.95088 0.0
H838 H 0.50859 0.62435 0.99265 0.0
H839 H 0.55113 0.6267 0.90487 0.0
C840 C 0.5737 0.68978 0.83915 0.0
C841 C 0.57039 0.70269 0.8446 0.0
C842 C 0.55501 0.69954 0.8672 0.0
C843 C 0.54331 0.6837 0.88721 0.0
C844 C 0.54714 0.67122 0.88245 0.0
C845 C 0.56189 0.67412 0.85776 0.0
C846 C 0.56359 0.65907 0.85985 0.0
C847 C 0.56435 0.65323 0.79327 0.0
C848 C 0.57857 0.66211 0.89908 0.0
C849 C 0.54779 0.64732 0.89205 0.0
C850 C 0.53835 0.6544 0.90468 0.0
C851 C 0.52398 0.6462 0.93984 0.0
C852 C 0.51938 0.63054 0.96339 0.0
C853 C 0.52913 0.62331 0.95142 0.0
C854 C 0.54323 0.63172 0.91393 0.0
H855 H 0.35804 0.91345 0.03552 0.0
H856 H 0.37722 0.88514 0.9486 0.0
H857 H 0.34974 0.86637 0.90305 0.0
H858 H 0.31653 0.87824 0.07046 0.0
H859 H 0.30713 0.89046 0.05499 0.0
H860 H 0.32758 0.89989 0.08643 0.0
H861 H 0.33803 0.92049 0.99381 0.0
H862 H 0.3177 0.91113 0.96208 0.0
H863 H 0.33426 0.91287 0.91443 0.0
H864 H 0.32071 0.85321 0.85619 0.0
H865 H 0.29361 0.84697 0.8147 0.0
H866 H 0.29426 0.88387 0.93753 0.0
C867 C 0.35631 0.90306 0.00799 0.0
C868 C 0.3695 0.90057 0.99526 0.0
C869 C 0.36706 0.88703 0.95896 0.0
C870 C 0.35154 0.87636 0.93314 0.0
C871 C 0.33873 0.87936 0.94557 0.0
C872 C 0.34099 0.89228 0.98309 0.0
C873 C 0.32582 0.89373 0.98661 0.0
C874 C 0.31886 0.89038 0.0536 0.0
C875 C 0.32916 0.91054 0.96277 0.0
C876 C 0.31483 0.88016 0.94255 0.0
C877 C 0.32226 0.87177 0.91987 0.0
C878 C 0.31469 0.85951 0.87465 0.0
C879 C 0.29931 0.85603 0.85138 0.0
C880 C 0.29187 0.86493 0.87302 0.0
C881 C 0.2996 0.8768 0.92025 0.0
H882 H 0.14037 0.43961 0.86625 0.0
H883 H 0.11 0.42323 0.69991 0.0
H884 H 0.09651 0.4387 0.73235 0.0
H885 H 0.11133 0.43563 0.96895 0.0
H886 H 0.12369 0.45372 0.01496 0.0
H887 H 0.13317 0.44411 0.97339 0.0
H888 H 0.15226 0.47133 0.916 0.0
H889 H 0.14289 0.48111 0.95794 0.0
H890 H 0.14352 0.48163 0.87341 0.0
H891 H 0.08296 0.45106 0.79136 0.0
H892 H 0.07126 0.4613 0.87064 0.0
H893 H 0.11117 0.47134 -0.0027 0.0
C894 C 0.13136 0.43993 0.8357 0.0
C895 C 0.12637 0.43064 0.78007 0.0
C896 C 0.11415 0.43067 0.74196 0.0
C897 C 0.10644 0.43938 0.76003 0.0
C898 C 0.1113 0.44817 0.81595 0.0
C899 C 0.12368 0.44879 0.85279 0.0
C900 C 0.12549 0.45796 0.91336 0.0
C901 C 0.12328 0.44721 0.97103 0.0
C902 C 0.14203 0.47396 0.91528 0.0
C903 C 0.11149 0.46137 0.90666 0.0
C904 C 0.10364 0.45582 0.84965 0.0
C905 C 0.08928 0.45591 0.83535 0.0
C906 C 0.08268 0.46166 0.88073 0.0
C907 C 0.09047 0.46731 0.93946 0.0
C908 C 0.10525 0.4675 0.952 0.0
H909 H 0.07888 0.62942 0.43487 0.0
H910 H 0.12032 0.63174 0.53223 0.0
H911 H 0.13827 0.65954 0.48835 0.0
H912 H 0.09998 0.65201 0.29473 0.0
H913 H 0.08811 0.66213 0.29055 0.0
H914 H 0.07931 0.64195 0.32408 0.0
H915 H 0.07279 0.65242 0.42646 0.0
H916 H 0.08152 0.67257 0.39326 0.0
H917 H 0.08904 0.66963 0.46705 0.0
H918 H 0.15135 0.68787 0.43399 0.0
H919 H 0.1573 0.71429 0.38519 0.0
H920 H 0.10635 0.69275 0.33246 0.0
C921 C 0.09179 0.6356 0.44618 0.0
C922 C 0.09829 0.62838 0.48617 0.0
C923 C 0.11516 0.63707 0.5012 0.0
C924 C 0.12542 0.6528 0.47631 0.0
C925 C 0.11852 0.65961 0.43716 0.0
C926 C 0.10202 0.65125 0.42288 0.0
C927 C 0.09707 0.66153 0.38476 0.0
C928 C 0.09075 0.65395 0.31967 0.0
C929 C 0.08436 0.6642 0.42001 0.0
C930 C 0.1133 0.67712 0.38014 0.0
C931 C 0.12568 0.67582 0.40936 0.0
C932 C 0.14172 0.68897 0.41098 0.0
C933 C 0.14502 0.70386 0.38309 0.0
C934 C 0.13223 0.7054 0.35562 0.0
C935 C 0.11631 0.69183 0.35354 0.0
H936 H 0.3652 0.44103 0.42834 0.0
H937 H 0.37807 0.4913 0.46242 0.0
H938 H 0.35234 0.48606 0.40952 0.0
H939 H 0.34647 0.43562 0.27843 0.0
H940 H 0.33073 0.41492 0.2951 0.0
H941 H 0.35041 0.42327 0.33236 0.0
H942 H 0.33647 0.41637 0.44174 0.0
H943 H 0.31675 0.40797 0.40484 0.0
H944 H 0.32298 0.42397 0.4624 0.0
H945 H 0.32457 0.4744 0.34865 0.0
H946 H 0.29737 0.45726 0.2979 0.0
H947 H 0.30365 0.41496 0.31389 0.0
C948 C 0.36276 0.45104 0.42411 0.0
C949 C 0.37368 0.46663 0.44836 0.0
C950 C 0.36983 0.47928 0.44357 0.0
C951 C 0.3553 0.47641 0.41352 0.0
C952 C 0.34476 0.46077 0.38983 0.0
C953 C 0.34833 0.4483 0.39587 0.0
C954 C 0.33486 0.43231 0.37061 0.0
C955 C 0.34099 0.42619 0.31587 0.0
C956 C 0.32732 0.4194 0.42302 0.0
C957 C 0.32311 0.43764 0.34843 0.0
C958 C 0.32892 0.45408 0.35898 0.0
C959 C 0.31991 0.46149 0.34071 0.0
C960 C 0.30455 0.45174 0.31181 0.0
C961 C 0.2984 0.4348 0.30279 0.0
C962 C 0.30792 0.42784 0.321 0.0
H963 H 0.54784 0.92215 0.41338 0.0
H964 H 0.50642 0.88247 0.50869 0.0
H965 H 0.51462 0.863 0.46809 0.0
H966 H 0.54952 0.89902 0.2759 0.0
H967 H 0.57156 0.9101 0.27698 0.0
H968 H 0.56042 0.9199 0.30306 0.0
H969 H 0.57585 0.92666 0.40935 0.0
H970 H 0.58686 0.91674 0.38407 0.0
H971 H 0.57513 0.91032 0.45561 0.0
H972 H 0.52952 0.84843 0.42444 0.0
H973 H 0.54998 0.84099 0.38765 0.0
H974 H 0.58202 0.8912 0.33051 0.0
C975 C 0.54013 0.90929 0.4242 0.0
C976 C 0.52638 0.90379 0.46357 0.0
C977 C 0.51691 0.88691 0.47791 0.0
C978 C 0.52148 0.87578 0.45505 0.0
C979 C 0.53555 0.88178 0.41821 0.0
C980 C 0.54468 0.89819 0.40294 0.0
C981 C 0.56032 0.90216 0.36964 0.0
C982 C 0.56045 0.90814 0.3024 0.0
C983 C 0.57542 0.9147 0.40692 0.0
C984 C 0.55888 0.88553 0.36981 0.0
C985 C 0.5444 0.87376 0.3966 0.0
C986 C 0.54083 0.85756 0.40303 0.0
C987 C 0.55246 0.85343 0.38216 0.0
C988 C 0.56755 0.86559 0.35699 0.0
C989 C 0.57061 0.88171 0.35016 0.0
H990 H 0.31002 0.18095 0.77744 0.0
H991 H 0.25793 0.16241 0.75454 0.0
H992 H 0.25218 0.14117 0.83433 0.0
H993 H 0.30769 0.14278 0.79095 0.0
H994 H 0.32374 0.14943 0.84856 0.0
H995 H 0.32378 0.16388 0.79332 0.0
H996 H 0.32462 0.18239 0.88483 0.0
H997 H 0.32479 0.16809 0.94032 0.0
H998 H 0.3093 0.17386 0.94551 0.0
H999 H 0.25226 0.12084 0.9124 0.0
H1000 H 0.2582 0.10425 0.98608 0.0
H1001 H 0.31024 0.13636 0.95489 0.0
C1002 C 0.29738 0.17261 0.78963 0.0
C1003 C 0.28443 0.1734 0.7596 0.0
C1004 C 0.26808 0.16213 0.77702 0.0
C1005 C 0.26468 0.14998 0.82214 0.0
C1006 C 0.27777 0.14932 0.84945 0.0
C1007 C 0.29378 0.16045 0.83415 0.0
C1008 C 0.30567 0.15692 0.86864 0.0
C1009 C 0.31581 0.15302 0.82261 0.0
C1010 C 0.31674 0.17116 0.91243 0.0
C1011 C 0.29385 0.14194 0.90537 0.0
C1012 C 0.27781 0.13772 0.89388 0.0
C1013 C 0.26479 0.12411 0.92204 0.0
C1014 C 0.26829 0.11473 0.96363 0.0
C1015 C 0.2847 0.11901 0.97656 0.0
C1016 C 0.29756 0.13275 0.94645 0.0
H1017 H 0.81861 0.12789 0.78772 0.0
H1018 H 0.83532 0.09285 0.76621 0.0
H1019 H 0.85583 0.10699 0.84938 0.0
H1020 H 0.85665 0.16235 0.80564 0.0
H1021 H 0.8504 0.17202 0.86355 0.0
H1022 H 0.83578 0.15804 0.8079 0.0
H1023 H 0.81704 0.14098 0.89908 0.0
H1024 H 0.8317 0.15442 0.95616 0.0
H1025 H 0.82468 0.13286 0.95835 0.0
H1026 H 0.87651 0.12683 0.92704 0.0
H1027 H 0.89441 0.14969 -0.00265 0.0
H1028 H 0.86384 0.17139 0.96642 0.0
C1029 C 0.82631 0.12293 0.80125 0.0
C1030 C 0.82532 0.10924 0.77023 0.0
C1031 C 0.83577 0.10327 0.78933 0.0
C1032 C 0.8475 0.11124 0.83649 0.0
C1033 C 0.84852 0.12506 0.86441 0.0
C1034 C 0.83805 0.1307 0.84803 0.0
C1035 C 0.84212 0.14622 0.88285 0.0
C1036 C 0.8465 0.16049 0.83725 0.0
C1037 C 0.82803 0.14344 0.92668 0.0
C1038 C 0.85687 0.14875 0.91972 0.0
C1039 C 0.86032 0.13637 0.90905 0.0
C1040 C 0.8738 0.13649 0.93637 0.0
C1041 C 0.88393 0.14957 0.97598 0.0
C1042 C 0.88054 0.16235 0.98761 0.0
C1043 C 0.86678 0.16182 0.95896 0.0
H1044 H 0.89457 0.73034 0.77389 0.0
H1045 H 0.86502 0.72212 0.60775 0.0
H1046 H 0.84526 0.72622 0.66954 0.0
H1047 H 0.86267 0.70729 0.87116 0.0
H1048 H 0.87073 0.71982 0.94028 0.0
H1049 H 0.88445 0.72015 0.88125 0.0
H1050 H 0.89748 0.75158 0.8709 0.0
H1051 H 0.88376 0.75134 0.93025 0.0
H1052 H 0.88464 0.76023 0.85446 0.0
H1053 H 0.82668 0.72652 0.75025 0.0
H1054 H 0.81014 0.72218 0.84598 0.0
H1055 H 0.85102 0.7294 0.96101 0.0
C1056 C 0.88424 0.73005 0.75052 0.0
C1057 C 0.88131 0.72621 0.68632 0.0
C1058 C 0.86742 0.72524 0.65702 0.0
C1059 C 0.85622 0.72764 0.69159 0.0
C1060 C 0.8591 0.73093 0.75544 0.0
C1061 C 0.87278 0.73217 0.78477 0.0
C1062 C 0.87173 0.73341 0.85526 0.0
C1063 C 0.87242 0.71932 0.88891 0.0
C1064 C 0.8852 0.75014 0.87911 0.0
C1065 C 0.85501 0.73182 0.86102 0.0
C1066 C 0.84811 0.73082 0.80278 0.0
C1067 C 0.83209 0.72771 0.79612 0.0
C1068 C 0.82278 0.72524 0.85043 0.0
C1069 C 0.82955 0.7258 0.91001 0.0
C1070 C 0.84588 0.72942 0.91556 0.0
H1071 H 0.15277 0.28905 0.79225 0.0
H1072 H 0.15204 0.24347 0.75533 0.0
H1073 H 0.12855 0.23515 0.68361 0.0
H1074 H 0.10784 0.27256 0.78104 0.0
H1075 H 0.11082 0.29097 0.74353 0.0
H1076 H 0.12559 0.29195 0.79962 0.0
H1077 H 0.14868 0.30636 0.71713 0.0
H1078 H 0.13406 0.30555 0.66134 0.0
H1079 H 0.14662 0.29678 0.64191 0.0
H1080 H 0.10758 0.2336 0.60577 0.0
H1081 H 0.09303 0.23996 0.52391 0.0
H1082 H 0.10782 0.28651 0.6137 0.0
C1083 C 0.14757 0.27718 0.77 0.0
C1084 C 0.15431 0.26694 0.77932 0.0
C1085 C 0.14709 0.25153 0.74897 0.0
C1086 C 0.13367 0.24665 0.70854 0.0
C1087 C 0.1275 0.25722 0.69979 0.0
C1088 C 0.13425 0.27215 0.72994 0.0
C1089 C 0.12673 0.28212 0.70794 0.0
C1090 C 0.11717 0.28453 0.76122 0.0
C1091 C 0.1398 0.29866 0.68042 0.0
C1092 C 0.11532 0.2709 0.65795 0.0
C1093 C 0.11555 0.25637 0.65497 0.0
C1094 C 0.10708 0.24478 0.60844 0.0
C1095 C 0.09879 0.24847 0.56228 0.0
C1096 C 0.09934 0.26374 0.5626 0.0
C1097 C 0.10712 0.27471 0.61259 0.0
H1098 H 0.69529 0.82853 0.51951 0.0
H1099 H 0.74735 0.84685 0.49804 0.0
H1100 H 0.75312 0.86942 0.57186 0.0
H1101 H 0.69768 0.86761 0.52617 0.0
H1102 H 0.68134 0.86066 0.58249 0.0
H1103 H 0.68186 0.84644 0.52741 0.0
H1104 H 0.68038 0.82797 0.62021 0.0
H1105 H 0.68047 0.84225 0.67631 0.0
H1106 H 0.69581 0.83629 0.68057 0.0
H1107 H 0.75266 0.88984 0.65106 0.0
H1108 H 0.74602 0.90491 0.72991 0.0
H1109 H 0.69429 0.87268 0.69319 0.0
C1110 C 0.70796 0.83723 0.52997 0.0
C1111 C 0.72087 0.83589 0.50283 0.0
C1112 C 0.73724 0.84761 0.51828 0.0
C1113 C 0.74063 0.8605 0.55995 0.0
C1114 C 0.72752 0.86147 0.58526 0.0
C1115 C 0.71154 0.85007 0.57071 0.0
C1116 C 0.6995 0.85344 0.60426 0.0
C1117 C 0.68949 0.85726 0.55729 0.0
C1118 C 0.68838 0.83914 0.64787 0.0
C1119 C 0.71113 0.86844 0.64093 0.0
C1120 C 0.72727 0.87305 0.62942 0.0
C1121 C 0.74005 0.88637 0.66004 0.0
C1122 C 0.73616 0.8949 0.70451 0.0
C1123 C 0.71962 0.89 0.71786 0.0
C1124 C 0.70707 0.87682 0.68432 0.0
H1125 H 0.18078 0.87978 0.5721 0.0
H1126 H 0.1548 0.9039 0.50465 0.0
H1127 H 0.13257 0.88799 0.58046 0.0
H1128 H 0.14747 0.8415 0.58457 0.0
H1129 H 0.15346 0.83552 0.65549 0.0
H1130 H 0.16884 0.85028 0.60374 0.0
H1131 H 0.18141 0.87157 0.69214 0.0
H1132 H 0.16685 0.85683 0.74625 0.0
H1133 H 0.16852 0.87661 0.73805 0.0
H1134 H 0.11177 0.86698 0.65628 0.0
H1135 H 0.09551 0.84455 0.73105 0.0
H1136 H 0.13564 0.83466 0.74568 0.0
C1137 C 0.17061 0.88204 0.57408 0.0
C1138 C 0.16953 0.89307 0.53245 0.0
C1139 C 0.15595 0.89558 0.53646 0.0
C1140 C 0.14324 0.88655 0.57918 0.0
C1141 C 0.14443 0.87528 0.61786 0.0
C1142 C 0.15793 0.87323 0.61629 0.0
C1143 C 0.15599 0.85979 0.65992 0.0
C1144 C 0.15648 0.84596 0.62367 0.0
C1145 C 0.16896 0.86661 0.71221 0.0
C1146 C 0.13911 0.85426 0.68529 0.0
C1147 C 0.1326 0.86333 0.66091 0.0
C1148 C 0.11684 0.85993 0.67621 0.0
C1149 C 0.10766 0.84709 0.71837 0.0
C1150 C 0.11425 0.83778 0.74431 0.0
C1151 C 0.13016 0.84146 0.72692 0.0
H1152 H 0.6926 0.86639 0.03002 0.0
H1153 H 0.74444 0.89955 -0.00099 0.0
H1154 H 0.75089 0.88306 0.07164 0.0
H1155 H 0.69477 0.85879 0.1924 0.0
H1156 H 0.6792 0.83755 0.18732 0.0
H1157 H 0.67889 0.85218 0.134 0.0
H1158 H 0.67935 0.83527 0.03832 0.0
H1159 H 0.67908 0.82038 0.09202 0.0
H1160 H 0.69495 0.82969 0.03372 0.0
H1161 H 0.75132 0.86211 0.14654 0.0
H1162 H 0.74582 0.84016 0.22266 0.0
H1163 H 0.69362 0.82097 0.19995 0.0
C1164 C 0.70536 0.87034 0.03851 0.0
C1165 C 0.71802 0.88428 0.00857 0.0
C1166 C 0.73451 0.88894 0.02147 0.0
C1167 C 0.73829 0.8796 0.06239 0.0
C1168 C 0.72543 0.86567 0.08978 0.0
C1169 C 0.70932 0.86118 0.07858 0.0
C1170 C 0.69766 0.84568 0.11295 0.0
C1171 C 0.68701 0.84874 0.15942 0.0
C1172 C 0.68713 0.83193 0.06651 0.0
C1173 C 0.70971 0.84223 0.14635 0.0
C1174 C 0.72568 0.85376 0.13209 0.0
C1175 C 0.73885 0.85302 0.15799 0.0
C1176 C 0.73559 0.84044 0.20087 0.0
C1177 C 0.71927 0.8288 0.21747 0.0
C1178 C 0.70624 0.8296 0.18848 0.0
H1179 H 0.11727 0.82175 0.0849 0.0
H1180 H 0.1013 0.85248 0.99387 0.0
H1181 H 0.1177 0.87469 0.0694 0.0
H1182 H 0.11955 0.83732 0.24774 0.0
H1183 H 0.13742 0.83573 0.26455 0.0
H1184 H 0.1222 0.82166 0.2105 0.0
H1185 H 0.1446 0.82977 0.12599 0.0
H1186 H 0.15985 0.84408 0.17903 0.0
H1187 H 0.157 0.85094 0.10359 0.0
H1188 H 0.13895 0.89469 0.14688 0.0
H1189 H 0.16159 0.90988 0.22229 0.0
H1190 H 0.16351 0.86558 0.2579 0.0
C1191 C 0.11686 0.833 0.08177 0.0
C1192 C 0.10806 0.83543 0.03359 0.0
C1193 C 0.10786 0.85032 0.0309 0.0
C1194 C 0.11719 0.86301 0.07342 0.0
C1195 C 0.12638 0.86045 0.1186 0.0
C1196 C 0.12601 0.84566 0.12357 0.0
C1197 C 0.13785 0.84625 0.17246 0.0
C1198 C 0.12871 0.83455 0.22706 0.0
C1199 C 0.15058 0.84256 0.1435 0.0
C1200 C 0.14551 0.86388 0.19252 0.0
C1201 C 0.13863 0.87188 0.16189 0.0
C1202 C 0.14428 0.88847 0.17167 0.0
C1203 C 0.15719 0.89701 0.21427 0.0
C1204 C 0.16442 0.88897 0.24573 0.0
C1205 C 0.15839 0.87218 0.23444 0.0
H1206 H 0.18219 0.2912 0.1114 0.0
H1207 H 0.15366 0.24382 0.02264 0.0
H1208 H 0.13256 0.23567 0.10483 0.0
H1209 H 0.16932 0.27609 0.27935 0.0
H1210 H 0.16927 0.29462 0.29905 0.0
H1211 H 0.18362 0.2951 0.24212 0.0
H1212 H 0.17313 0.30833 0.16164 0.0
H1213 H 0.15857 0.30761 0.21747 0.0
H1214 H 0.15168 0.298 0.14192 0.0
H1215 H 0.11221 0.23503 0.18309 0.0
H1216 H 0.09558 0.24118 0.2559 0.0
H1217 H 0.13795 0.28883 0.293 0.0
C1218 C 0.17179 0.2789 0.1106 0.0
C1219 C 0.16952 0.26816 0.0608 0.0
C1220 C 0.1557 0.25219 0.06084 0.0
C1221 C 0.14364 0.24746 0.10726 0.0
C1222 C 0.1458 0.25871 0.15389 0.0
C1223 C 0.15976 0.27397 0.15675 0.0
C1224 C 0.15851 0.28445 0.20742 0.0
C1225 C 0.17091 0.28775 0.26012 0.0
C1226 C 0.16058 0.30053 0.18045 0.0
C1227 C 0.14122 0.27319 0.22946 0.0
C1228 C 0.13415 0.25828 0.19916 0.0
C1229 C 0.11775 0.24653 0.20824 0.0
C1230 C 0.10837 0.25017 0.24931 0.0
C1231 C 0.11542 0.26551 0.28009 0.0
C1232 C 0.13213 0.27697 0.27046 0.0
H1233 H 0.83888 0.70149 0.19032 0.0
H1234 H 0.84403 0.74948 0.21601 0.0
H1235 H 0.86678 0.75662 0.29039 0.0
H1236 H 0.84476 0.69487 0.34597 0.0
H1237 H 0.85578 0.68435 0.32819 0.0
H1238 H 0.84119 0.68394 0.273 0.0
H1239 H 0.86362 0.69554 0.18696 0.0
H1240 H 0.87836 0.69616 0.24233 0.0
H1241 H 0.88239 0.71445 0.20079 0.0
H1242 H 0.88755 0.75747 0.36875 0.0
H1243 H 0.90279 0.75123 0.44815 0.0
H1244 H 0.88388 0.7029 0.36739 0.0
C1245 C 0.84481 0.71358 0.21103 0.0
C1246 C 0.83961 0.72491 0.19733 0.0
C1247 C 0.84779 0.74058 0.22574 0.0
C1248 C 0.86078 0.74478 0.26774 0.0
C1249 C 0.86554 0.73325 0.28015 0.0
C1250 C 0.85776 0.71797 0.25248 0.0
C1251 C 0.86431 0.7073 0.27635 0.0
C1252 C 0.8507 0.69171 0.30776 0.0
C1253 C 0.87267 0.70312 0.22345 0.0
C1254 C 0.87663 0.71873 0.32362 0.0
C1255 C 0.87743 0.73375 0.32458 0.0
C1256 C 0.88719 0.74583 0.36778 0.0
C1257 C 0.89587 0.74221 0.41251 0.0
C1258 C 0.89451 0.72657 0.41394 0.0
C1259 C 0.88523 0.71499 0.3674 0.0
H1260 H 0.30873 0.12745 0.28875 0.0
H1261 H 0.25659 0.09727 0.25408 0.0
H1262 H 0.25127 0.11353 0.33154 0.0
H1263 H 0.30603 0.13413 0.45695 0.0
H1264 H 0.3228 0.15488 0.45276 0.0
H1265 H 0.32209 0.13961 0.40014 0.0
H1266 H 0.32439 0.15791 0.30544 0.0
H1267 H 0.32479 0.17307 0.35758 0.0
H1268 H 0.30958 0.1645 0.29649 0.0
H1269 H 0.25204 0.13495 0.40609 0.0
H1270 H 0.2587 0.15824 0.47662 0.0
H1271 H 0.31037 0.17421 0.45863 0.0
C1272 C 0.29614 0.12397 0.29815 0.0
C1273 C 0.28309 0.11105 0.26521 0.0
C1274 C 0.26681 0.10704 0.27897 0.0
C1275 C 0.26366 0.11626 0.32269 0.0
C1276 C 0.27691 0.12934 0.35238 0.0
C1277 C 0.2928 0.13302 0.34118 0.0
C1278 C 0.30499 0.14811 0.37654 0.0
C1279 C 0.31454 0.14393 0.42445 0.0
C1280 C 0.31661 0.16169 0.3313 0.0
C1281 C 0.29351 0.15256 0.40864 0.0
C1282 C 0.27736 0.1416 0.39449 0.0
C1283 C 0.26465 0.14351 0.41792 0.0
C1284 C 0.26856 0.15684 0.45766 0.0
C1285 C 0.28507 0.16809 0.47332 0.0
C1286 C 0.29763 0.16588 0.44784 0.0
H1287 H 0.82866 0.13682 0.46024 0.0
H1288 H 0.84841 0.10475 0.49568 0.0
H1289 H 0.87186 0.12196 0.42632 0.0
H1290 H 0.83898 0.14363 0.29936 0.0
H1291 H 0.8437 0.16464 0.30112 0.0
H1292 H 0.82906 0.1501 0.35538 0.0
H1293 H 0.84584 0.1687 0.4482 0.0
H1294 H 0.86066 0.18322 0.39416 0.0
H1295 H 0.86714 0.17474 0.45618 0.0
H1296 H 0.89281 0.14254 0.35006 0.0
H1297 H 0.90817 0.16325 0.26863 0.0
H1298 H 0.87434 0.18157 0.28606 0.0
C1299 C 0.8379 0.13337 0.45387 0.0
C1300 C 0.83668 0.11942 0.4837 0.0
C1301 C 0.84905 0.11537 0.47337 0.0
C1302 C 0.86246 0.12512 0.43434 0.0
C1303 C 0.86332 0.13888 0.40624 0.0
C1304 C 0.85129 0.14292 0.4154 0.0
C1305 C 0.85459 0.15789 0.37815 0.0
C1306 C 0.84077 0.15381 0.33069 0.0
C1307 C 0.85722 0.17197 0.4218 0.0
C1308 C 0.87029 0.16158 0.34569 0.0
C1309 C 0.87525 0.15061 0.3628 0.0
C1310 C 0.88908 0.15126 0.33666 0.0
C1311 C 0.89777 0.16312 0.29055 0.0
C1312 C 0.89252 0.17411 0.27079 0.0
C1313 C 0.87882 0.1735 0.30019 0.0
H1314 H 0.96822 0.45732 0.24663 0.0
H1315 H 0.91649 0.42611 0.28625 0.0
H1316 H 0.91012 0.44261 0.21363 0.0
H1317 H 0.96828 0.49447 0.24295 0.0
H1318 H 0.98287 0.50317 0.17988 0.0
H1319 H 0.98326 0.48822 0.23119 0.0
H1320 H 0.98042 0.46992 0.1359 0.0
H1321 H 0.98038 0.48498 0.08414 0.0
H1322 H 0.9638 0.46411 0.08139 0.0
H1323 H 0.90975 0.46389 0.14102 0.0
H1324 H 0.91521 0.48615 0.06645 0.0
H1325 H 0.96723 0.50317 0.07791 0.0
C1326 C 0.95551 0.45375 0.23951 0.0
C1327 C 0.94287 0.44042 0.27229 0.0
C1328 C 0.9264 0.43621 0.26141 0.0
C1329 C 0.92266 0.44558 0.22059 0.0
C1330 C 0.93552 0.45902 0.19089 0.0
C1331 C 0.95158 0.46292 0.19923 0.0
C1332 C 0.96322 0.47805 0.16276 0.0
C1333 C 0.9751 0.49178 0.20685 0.0
C1334 C 0.9725 0.47402 0.11309 0.0
C1335 C 0.95123 0.48218 0.13287 0.0
C1336 C 0.93531 0.47114 0.14963 0.0
C1337 C 0.92218 0.47256 0.12739 0.0
C1338 C 0.92542 0.48533 0.08544 0.0
C1339 C 0.94166 0.49645 0.06617 0.0
C1340 C 0.95467 0.49494 0.09149 0.0
H1341 H 0.53868 0.51214 0.26711 0.0
H1342 H 0.5664 0.48834 0.31609 0.0
H1343 H 0.54928 0.46565 0.24416 0.0
H1344 H 0.49988 0.47655 0.25966 0.0
H1345 H 0.49284 0.48322 0.19337 0.0
H1346 H 0.50782 0.49807 0.246 0.0
H1347 H 0.52762 0.51228 0.15314 0.0
H1348 H 0.51264 0.49763 0.09988 0.0
H1349 H 0.53297 0.50043 0.10233 0.0
H1350 H 0.52807 0.44478 0.17143 0.0
H1351 H 0.50609 0.42857 0.09555 0.0
H1352 H 0.4924 0.4662 0.09477 0.0
C1353 C 0.54128 0.50225 0.26238 0.0
C1354 C 0.55386 0.50201 0.29754 0.0
C1355 C 0.55688 0.48885 0.28958 0.0
C1356 C 0.54716 0.47585 0.24907 0.0
C1357 C 0.53457 0.47626 0.21656 0.0
C1358 C 0.53177 0.48923 0.2221 0.0
C1359 C 0.51745 0.48673 0.18213 0.0
C1360 C 0.50369 0.4861 0.22274 0.0
C1361 C 0.523 0.50005 0.13135 0.0
C1362 C 0.51247 0.47018 0.15391 0.0
C1363 C 0.52247 0.46434 0.17439 0.0
C1364 C 0.5202 0.44927 0.1548 0.0
C1365 C 0.5076 0.4401 0.11194 0.0
C1366 C 0.49744 0.44605 0.08906 0.0
C1367 C 0.49985 0.46121 0.11133 0.0
H1368 H 0.53165 0.03001 0.07711 0.0
H1369 H 0.57191 0.08005 0.08913 0.0
H1370 H 0.55612 0.08627 0.16605 0.0
H1371 H 0.49915 0.03955 0.08799 0.0
H1372 H 0.48624 0.02154 0.13358 0.0
H1373 H 0.50057 0.02134 0.07837 0.0
H1374 H 0.51349 0.01258 0.16692 0.0
H1375 H 0.49912 0.01265 0.22208 0.0
H1376 H 0.52076 0.02477 0.23722 0.0
H1377 H 0.53578 0.08656 0.2441 0.0
H1378 H 0.51359 0.08056 0.31962 0.0
H1379 H 0.48712 0.03038 0.25326 0.0
C1380 C 0.53727 0.04231 0.09583 0.0
C1381 C 0.55309 0.05453 0.07719 0.0
C1382 C 0.55983 0.07046 0.10277 0.0
C1383 C 0.55092 0.07413 0.14625 0.0
C1384 C 0.5353 0.06175 0.16312 0.0
C1385 C 0.52858 0.04617 0.13861 0.0
C1386 C 0.51175 0.03488 0.16494 0.0
C1387 C 0.49866 0.02899 0.11312 0.0
C1388 C 0.51126 0.02037 0.19988 0.0
C1389 C 0.51016 0.04641 0.20953 0.0
C1390 C 0.52373 0.06192 0.20742 0.0
C1391 C 0.52508 0.07448 0.24588 0.0
C1392 C 0.51238 0.07096 0.28847 0.0
C1393 C 0.49863 0.05498 0.29254 0.0
C1394 C 0.49746 0.04271 0.25153 0.0
H1395 H 0.7819 0.63075 0.92769 0.0
H1396 H 0.75912 0.58085 0.85884 0.0
H1397 H 0.77363 0.57433 0.94018 0.0
H1398 H 0.81989 0.63609 0.94989 0.0
H1399 H 0.82463 0.64814 0.02046 0.0
H1400 H 0.81031 0.64816 0.96493 0.0
H1401 H 0.78818 0.63894 0.05152 0.0
H1402 H 0.80255 0.63919 0.10786 0.0
H1403 H 0.78301 0.62091 0.0972 0.0
H1404 H 0.79388 0.57454 0.01869 0.0
H1405 H 0.81647 0.58094 0.09291 0.0
H1406 H 0.82568 0.63074 0.10816 0.0
C1407 C 0.77958 0.61831 0.93071 0.0
C1408 C 0.7694 0.60633 0.88683 0.0
C1409 C 0.76678 0.59022 0.89224 0.0
C1410 C 0.775 0.58641 0.93818 0.0
C1411 C 0.78559 0.59876 0.97877 0.0
C1412 C 0.78764 0.61432 0.97614 0.0
C1413 C 0.80061 0.62578 0.02154 0.0
C1414 C 0.81468 0.64039 0.98712 0.0
C1415 C 0.79314 0.63154 0.07256 0.0
C1416 C 0.80606 0.61445 0.04823 0.0
C1417 C 0.79717 0.59887 0.02371 0.0
C1418 C 0.80074 0.58663 0.03902 0.0
C1419 C 0.81365 0.59041 0.08088 0.0
C1420 C 0.82289 0.60635 0.1065 0.0
C1421 C 0.81889 0.61841 0.08983 0.0
H1422 H 0.41742 0.19271 0.88717 0.0
H1423 H 0.39776 0.14689 0.9875 0.0
H1424 H 0.40239 0.16153 0.08818 0.0
H1425 H 0.44696 0.22082 0.01676 0.0
H1426 H 0.44186 0.23636 -0.00174 0.0
H1427 H 0.44228 0.22341 0.93701 0.0
H1428 H 0.41257 0.21516 0.9068 0.0
H1429 H 0.41194 0.22781 0.96815 0.0
H1430 H 0.39676 0.20638 0.96563 0.0
H1431 H 0.4025 0.1792 0.17187 0.0
H1432 H 0.39794 0.19857 0.23364 0.0
H1433 H 0.41686 0.23351 0.08084 0.0
C1434 C 0.41506 0.18602 0.93083 0.0
C1435 C 0.40782 0.16886 0.93056 0.0
C1436 C 0.40381 0.16013 0.9876 0.0
C1437 C 0.40641 0.16836 0.04477 0.0
C1438 C 0.41287 0.18528 0.04369 0.0
C1439 C 0.41729 0.19408 0.98818 0.0
C1440 C 0.42091 0.21148 -0.00149 0.0
C1441 C 0.43909 0.22374 0.98696 0.0
C1442 C 0.40988 0.21541 0.95737 0.0
C1443 C 0.4167 0.21074 0.06742 0.0
C1444 C 0.41256 0.19565 0.09287 0.0
C1445 C 0.40616 0.1912 0.15312 0.0
C1446 C 0.40349 0.20223 0.18765 0.0
C1447 C 0.40719 0.21751 0.16189 0.0
C1448 C 0.41437 0.22205 0.10194 0.0
H1449 H 0.84736 0.21232 0.91477 0.0
H1450 H 0.82418 0.2398 0.85456 0.0
H1451 H 0.80309 0.22621 0.93627 0.0
H1452 H 0.81291 0.17607 0.93463 0.0
H1453 H 0.81921 0.16963 0.00365 0.0
H1454 H 0.83432 0.1836 0.94937 0.0
H1455 H 0.84898 0.20474 0.03771 0.0
H1456 H 0.83429 0.19065 0.09322 0.0
H1457 H 0.83749 0.21108 0.08607 0.0
H1458 H 0.78209 0.20624 0.01293 0.0
H1459 H 0.76452 0.18347 0.08453 0.0
H1460 H 0.80199 0.16963 0.09284 0.0
C1461 C 0.83817 0.2159 0.91996 0.0
C1462 C 0.83742 0.2271 0.87823 0.0
C1463 C 0.82508 0.23132 0.88626 0.0
C1464 C 0.81301 0.22363 0.93247 0.0
C1465 C 0.81365 0.21201 0.9708 0.0
C1466 C 0.82614 0.20844 0.96583 0.0
C1467 C 0.82345 0.19462 0.00892 0.0
C1468 C 0.82241 0.18014 0.97187 0.0
C1469 C 0.83684 0.20064 0.0595 0.0
C1470 C 0.8071 0.19043 0.03672 0.0
C1471 C 0.80168 0.20066 0.0149 0.0
C1472 C 0.78635 0.19834 0.03126 0.0
C1473 C 0.77641 0.1853 0.07151 0.0
C1474 C 0.78183 0.17473 0.09442 0.0
C1475 C 0.79742 0.17747 0.07663 0.0
H1476 H 0.41627 0.22542 0.3861 0.0
H1477 H 0.39834 0.25311 0.48612 0.0
H1478 H 0.403 0.24317 0.58707 0.0
H1479 H 0.39576 0.19153 0.46749 0.0
H1480 H 0.41079 0.18508 0.46941 0.0
H1481 H 0.41122 0.19814 0.40737 0.0
H1482 H 0.44117 0.21952 0.43477 0.0
H1483 H 0.44094 0.20638 0.49676 0.0
H1484 H 0.44637 0.22719 0.51383 0.0
H1485 H 0.40301 0.22564 0.67151 0.0
H1486 H 0.39839 0.20182 0.73454 0.0
H1487 H 0.41622 0.1848 0.58162 0.0
C1488 C 0.41424 0.23004 0.42966 0.0
C1489 C 0.40734 0.24025 0.42932 0.0
C1490 C 0.40391 0.24549 0.48626 0.0
C1491 C 0.40661 0.23997 0.54357 0.0
C1492 C 0.41272 0.22922 0.54264 0.0
C1493 C 0.41668 0.22443 0.48713 0.0
C1494 C 0.42017 0.21059 0.49796 0.0
C1495 C 0.4088 0.19545 0.45824 0.0
C1496 C 0.43824 0.21627 0.48508 0.0
C1497 C 0.41634 0.20751 0.56724 0.0
C1498 C 0.41253 0.21872 0.59238 0.0
C1499 C 0.40644 0.21711 0.65301 0.0
C1500 C 0.40373 0.20349 0.68824 0.0
C1501 C 0.40709 0.19165 0.66278 0.0
C1502 C 0.414 0.19397 0.60246 0.0
H1503 H 0.83041 0.22793 0.51918 0.0
H1504 H 0.80717 0.19895 0.68462 0.0
H1505 H 0.78301 0.18016 0.62145 0.0
H1506 H 0.79154 0.21993 0.43374 0.0
H1507 H 0.79986 0.21855 0.35939 0.0
H1508 H 0.81323 0.23201 0.41964 0.0
H1509 H 0.83059 0.21775 0.41334 0.0
H1510 H 0.81728 0.20427 0.35358 0.0
H1511 H 0.82075 0.19591 0.42419 0.0
H1512 H 0.76364 0.16237 0.53923 0.0
H1513 H 0.75147 0.146 0.44293 0.0
H1514 H 0.7882 0.18539 0.33024 0.0
C1515 C 0.81989 0.21799 0.5421 0.0
C1516 C 0.82029 0.21493 0.60644 0.0
C1517 C 0.80678 0.2015 0.63526 0.0
C1518 C 0.79302 0.19086 0.59988 0.0
C1519 C 0.79311 0.19383 0.5358 0.0
C1520 C 0.8062 0.20708 0.50707 0.0
C1521 C 0.80447 0.20604 0.43641 0.0
C1522 C 0.80213 0.21996 0.41079 0.0
C1523 C 0.81914 0.20598 0.4051 0.0
C1524 C 0.78894 0.18969 0.42983 0.0
C1525 C 0.78226 0.18311 0.48769 0.0
C1526 C 0.7686 0.16751 0.49364 0.0
C1527 C 0.76185 0.15827 0.43908 0.0
C1528 C 0.76906 0.16457 0.3802 0.0
C1529 C 0.78245 0.18055 0.3752 0.0
H1530 H 0.76883 0.59727 0.53276 0.0
H1531 H 0.80105 0.61232 0.69402 0.0
H1532 H 0.82088 0.60784 0.63462 0.0
H1533 H 0.78045 0.56709 0.46521 0.0
H1534 H 0.7797 0.57348 0.38617 0.0
H1535 H 0.76623 0.57384 0.44528 0.0
H1536 H 0.77703 0.60452 0.42203 0.0
H1537 H 0.79044 0.60423 0.36306 0.0
H1538 H 0.7987 0.61877 0.42648 0.0
H1539 H 0.83899 0.60648 0.55503 0.0
H1540 H 0.85481 0.60993 0.45821 0.0
H1541 H 0.81174 0.59684 0.34629 0.0
C1542 C 0.77981 0.599 0.55584 0.0
C1543 C 0.78345 0.60489 0.61782 0.0
C1544 C 0.79812 0.60767 0.64649 0.0
C1545 C 0.80936 0.60504 0.61334 0.0
C1546 C 0.80574 0.59969 0.55147 0.0
C1547 C 0.79133 0.59671 0.5228 0.0
C1548 C 0.79164 0.59362 0.45322 0.0
C1549 C 0.77874 0.57595 0.4365 0.0
C1550 C 0.78933 0.60603 0.41393 0.0
C1551 C 0.80878 0.59629 0.44677 0.0
C1552 C 0.81651 0.59927 0.50437 0.0
C1553 C 0.83297 0.60378 0.50982 0.0
C1554 C 0.84188 0.60579 0.45483 0.0
C1555 C 0.83432 0.60343 0.39569 0.0
C1556 C 0.81753 0.59818 0.39151 0.0
H1557 H 0.53761 0.02715 0.76308 0.0
H1558 H 0.56822 0.07882 0.80552 0.0
H1559 H 0.55206 0.08525 0.73159 0.0
H1560 H 0.53169 0.03216 0.59699 0.0
H1561 H 0.51088 0.01547 0.59784 0.0
H1562 H 0.52573 0.01534 0.65061 0.0
H1563 H 0.50686 0.01192 0.74458 0.0
H1564 H 0.49211 0.01237 0.69235 0.0
H1565 H 0.50036 0.02671 0.75638 0.0
H1566 H 0.53122 0.08575 0.65759 0.0
H1567 H 0.50891 0.08041 0.58344 0.0
H1568 H 0.49213 0.02839 0.59258 0.0
C1569 C 0.5411 0.03986 0.7564 0.0
C1570 C 0.55416 0.05246 0.79039 0.0
C1571 C 0.55828 0.06893 0.77995 0.0
C1572 C 0.54914 0.07271 0.73824 0.0
C1573 C 0.53598 0.0599 0.70715 0.0
C1574 C 0.53212 0.04384 0.71519 0.0
C1575 C 0.51723 0.03226 0.6774 0.0
C1576 C 0.52165 0.02329 0.62775 0.0
C1577 C 0.50332 0.02011 0.72026 0.0
C1578 C 0.51314 0.0443 0.64755 0.0
C1579 C 0.52407 0.06019 0.66504 0.0
C1580 C 0.52262 0.07335 0.64333 0.0
C1581 C 0.50984 0.07018 0.60155 0.0
C1582 C 0.4987 0.05398 0.58209 0.0
C1583 C 0.50036 0.04093 0.60636 0.0
H1584 H 0.95725 0.46468 0.53355 0.0
H1585 H 0.9144 0.41864 0.58386 0.0
H1586 H 0.90696 0.43315 0.6628 0.0
H1587 H 0.96861 0.48 0.68164 0.0
H1588 H 0.97543 0.50094 0.66063 0.0
H1589 H 0.97578 0.48722 0.60326 0.0
H1590 H 0.95791 0.49354 0.52865 0.0
H1591 H 0.95747 0.5073 0.58614 0.0
H1592 H 0.9386 0.4907 0.55601 0.0
H1593 H 0.90629 0.45269 0.74435 0.0
H1594 H 0.91291 0.4748 0.82154 0.0
H1595 H 0.95615 0.50733 0.71426 0.0
C1596 C 0.94619 0.4576 0.56068 0.0
C1597 C 0.93648 0.44052 0.55322 0.0
C1598 C 0.92201 0.43176 0.58906 0.0
C1599 C 0.91768 0.4399 0.63368 0.0
C1600 C 0.92779 0.45678 0.64062 0.0
C1601 C 0.94168 0.46549 0.6045 0.0
C1602 C 0.95125 0.48325 0.62333 0.0
C1603 C 0.96879 0.48812 0.64344 0.0
C1604 C 0.9513 0.49435 0.57038 0.0
C1605 C 0.94111 0.48309 0.67812 0.0
C1606 C 0.92741 0.46786 0.6868 0.0
C1607 C 0.91684 0.46469 0.73735 0.0
C1608 C 0.92067 0.4773 0.78083 0.0
C1609 C 0.93508 0.49267 0.77371 0.0
C1610 C 0.94509 0.49566 0.72081 0.0
H1611 H 0.53824 0.50907 0.60126 0.0
H1612 H 0.57319 0.49211 0.58491 0.0
H1613 H 0.55744 0.47051 0.66338 0.0
H1614 H 0.53151 0.50247 0.7661 0.0
H1615 H 0.51003 0.4957 0.76169 0.0
H1616 H 0.52387 0.51008 0.7049 0.0
H1617 H 0.50729 0.49116 0.61326 0.0
H1618 H 0.49283 0.47682 0.6686 0.0
H1619 H 0.50268 0.47018 0.61295 0.0
H1620 H 0.53686 0.45006 0.74245 0.0
H1621 H 0.51435 0.43376 0.81695 0.0
H1622 H 0.49341 0.46459 0.77677 0.0
C1623 C 0.54276 0.50096 0.61428 0.0
C1624 C 0.55699 0.50234 0.58679 0.0
C1625 C 0.56235 0.49135 0.60542 0.0
C1626 C 0.55345 0.479 0.64977 0.0
C1627 C 0.53926 0.47783 0.67485 0.0
C1628 C 0.53405 0.48861 0.65782 0.0
C1629 C 0.51842 0.48485 0.69077 0.0
C1630 C 0.52113 0.49914 0.73335 0.0
C1631 C 0.50449 0.48049 0.64357 0.0
C1632 C 0.51548 0.47014 0.72874 0.0
C1633 C 0.52759 0.46622 0.71932 0.0
C1634 C 0.52734 0.45306 0.75016 0.0
C1635 C 0.51448 0.44384 0.79221 0.0
C1636 C 0.50208 0.44786 0.80284 0.0
C1637 C 0.50263 0.46111 0.76997 0.0
H1638 H 0.63807 0.84813 0.4869 0.0
H1639 H 0.58578 0.82739 0.46005 0.0
H1640 H 0.58057 0.8068 0.54195 0.0
H1641 H 0.63752 0.81118 0.50249 0.0
H1642 H 0.65357 0.81872 0.56037 0.0
H1643 H 0.65265 0.83259 0.50474 0.0
H1644 H 0.65219 0.85044 0.59777 0.0
H1645 H 0.65303 0.83633 0.65264 0.0
H1646 H 0.63675 0.84097 0.65751 0.0
H1647 H 0.58132 0.78661 0.61908 0.0
H1648 H 0.58794 0.76997 0.68992 0.0
H1649 H 0.63973 0.80423 0.6636 0.0
C1650 C 0.62549 0.83952 0.49901 0.0
C1651 C 0.61235 0.83943 0.4669 0.0
C1652 C 0.59608 0.82782 0.48419 0.0
C1653 C 0.59299 0.81601 0.5305 0.0
C1654 C 0.60628 0.81608 0.55931 0.0
C1655 C 0.62219 0.82769 0.54471 0.0
C1656 C 0.63437 0.82471 0.57977 0.0
C1657 C 0.64517 0.82162 0.53415 0.0
C1658 C 0.64471 0.83896 0.62457 0.0
C1659 C 0.62287 0.80939 0.61542 0.0
C1660 C 0.60671 0.80459 0.60338 0.0
C1661 C 0.59394 0.79038 0.62943 0.0
C1662 C 0.59783 0.78097 0.66934 0.0
C1663 C 0.61436 0.7858 0.68266 0.0
C1664 C 0.62697 0.8002 0.65497 0.0
H1665 H 0.19958 0.8413 0.63468 0.0
H1666 H 0.23371 0.82351 0.65777 0.0
H1667 H 0.21708 0.80075 0.58454 0.0
H1668 H 0.16304 0.80142 0.63022 0.0
H1669 H 0.15355 0.8089 0.5763 0.0
H1670 H 0.16878 0.82265 0.63115 0.0
H1671 H 0.18478 0.84107 0.53397 0.0
H1672 H 0.16971 0.82632 0.48145 0.0
H1673 H 0.19094 0.83223 0.47236 0.0
H1674 H 0.19595 0.77959 0.5086 0.0
H1675 H 0.17363 0.76334 0.43337 0.0
H1676 H 0.15372 0.79538 0.46593 0.0
C1677 C 0.20374 0.83275 0.62427 0.0
C1678 C 0.218 0.83424 0.65201 0.0
C1679 C 0.22284 0.82266 0.63697 0.0
C1680 C 0.21344 0.80965 0.59566 0.0
C1681 C 0.19924 0.80842 0.57025 0.0
C1682 C 0.19451 0.81974 0.58398 0.0
C1683 C 0.17873 0.81577 0.55181 0.0
C1684 C 0.16521 0.81195 0.60018 0.0
C1685 C 0.18119 0.82967 0.50725 0.0
C1686 C 0.17541 0.80061 0.51637 0.0
C1687 C 0.18722 0.79638 0.52784 0.0
C1688 C 0.18663 0.7828 0.49943 0.0
C1689 C 0.17385 0.77359 0.45707 0.0
C1690 C 0.1619 0.77808 0.44357 0.0
C1691 C 0.16261 0.79157 0.47492 0.0
H1692 H 0.17412 0.37612 0.61508 0.0
H1693 H 0.16242 0.41254 0.54937 0.0
H1694 H 0.18468 0.422 0.47061 0.0
H1695 H 0.21904 0.40213 0.59255 0.0
H1696 H 0.22103 0.3848 0.57035 0.0
H1697 H 0.20539 0.38225 0.62522 0.0
H1698 H 0.18315 0.35973 0.55442 0.0
H1699 H 0.19869 0.36208 0.50005 0.0
H1700 H 0.18176 0.36425 0.47316 0.0
H1701 H 0.20679 0.42561 0.39315 0.0
H1702 H 0.22495 0.42161 0.32021 0.0
H1703 H 0.22172 0.38289 0.43894 0.0
C1704 C 0.17625 0.38612 0.58421 0.0
C1705 C 0.16648 0.3935 0.58761 0.0
C1706 C 0.1698 0.40673 0.54725 0.0
C1707 C 0.18247 0.41223 0.50279 0.0
C1708 C 0.19189 0.40462 0.50066 0.0
C1709 C 0.18895 0.39191 0.5407 0.0
C1710 C 0.20014 0.38516 0.5274 0.0
C1711 C 0.21211 0.3888 0.58214 0.0
C1712 C 0.19035 0.36673 0.51284 0.0
C1713 C 0.20898 0.39514 0.47035 0.0
C1714 C 0.20453 0.40673 0.45677 0.0
C1715 C 0.21056 0.41679 0.40402 0.0
C1716 C 0.22092 0.41452 0.36312 0.0
C1717 C 0.22477 0.40207 0.37484 0.0
C1718 C 0.21909 0.39263 0.42981 0.0
H1719 H 0.49117 0.93199 0.38405 0.0
H1720 H 0.48106 0.95721 0.53194 0.0
H1721 H 0.45753 0.95454 0.4725 0.0
H1722 H 0.48479 0.95173 0.2627 0.0
H1723 H 0.47524 0.93462 0.20957 0.0
H1724 H 0.48904 0.93517 0.26884 0.0
H1725 H 0.46657 0.90707 0.31096 0.0
H1726 H 0.45265 0.90644 0.25158 0.0
H1727 H 0.44695 0.90435 0.33319 0.0
H1728 H 0.43902 0.95413 0.39201 0.0
H1729 H 0.42633 0.95588 0.29309 0.0
H1730 H 0.4472 0.93043 0.19552 0.0
C1731 C 0.48362 0.93644 0.40444 0.0
C1732 C 0.48783 0.94477 0.46238 0.0
C1733 C 0.47803 0.95085 0.48733 0.0
C1734 C 0.46455 0.94926 0.45425 0.0
C1735 C 0.46098 0.9415 0.39625 0.0
C1736 C 0.47013 0.9351 0.37142 0.0
C1737 C 0.46492 0.92933 0.30457 0.0
C1738 C 0.47935 0.93825 0.25875 0.0
C1739 C 0.45732 0.91069 0.29982 0.0
C1740 C 0.45212 0.93435 0.29486 0.0
C1741 C 0.44983 0.94104 0.34894 0.0
C1742 C 0.44025 0.94846 0.34987 0.0
C1743 C 0.43313 0.94944 0.2937 0.0
C1744 C 0.43552 0.9429 0.23786 0.0
C1745 C 0.44475 0.93491 0.23856 0.0
H1746 H 0.08099 0.56701 0.36761 0.0
H1747 H 0.07857 0.54036 0.53596 0.0
H1748 H 0.08795 0.52416 0.47688 0.0
H1749 H 0.06269 0.53614 0.27631 0.0
H1750 H 0.0743 0.54444 0.20522 0.0
H1751 H 0.07385 0.55793 0.26296 0.0
H1752 H 0.10548 0.57346 0.26893 0.0
H1753 H 0.10602 0.55989 0.21065 0.0
H1754 H 0.11605 0.56239 0.28516 0.0
H1755 H 0.08797 0.5055 0.39856 0.0
H1756 H 0.07915 0.48663 0.30808 0.0
H1757 H 0.08272 0.52507 0.18753 0.0
C1758 C 0.08345 0.55843 0.39217 0.0
C1759 C 0.07947 0.55504 0.45602 0.0
C1760 C 0.08193 0.54324 0.48706 0.0
C1761 C 0.08732 0.53405 0.45387 0.0
C1762 C 0.09023 0.53687 0.38969 0.0
C1763 C 0.08869 0.54903 0.3592 0.0
C1764 C 0.08929 0.54746 0.28866 0.0
C1765 C 0.07413 0.5464 0.25652 0.0
C1766 C 0.10516 0.56164 0.26178 0.0
C1767 C 0.08937 0.53148 0.28434 0.0
C1768 C 0.0906 0.5259 0.34308 0.0
C1769 C 0.08778 0.51002 0.35208 0.0
C1770 C 0.0828 0.49936 0.3006 0.0
C1771 C 0.08089 0.50473 0.24117 0.0
C1772 C 0.08493 0.52111 0.23238 0.0
H1773 H 0.43679 0.50005 0.34838 0.0
H1774 H 0.46985 0.51541 0.50723 0.0
H1775 H 0.48962 0.54007 0.44961 0.0
H1776 H 0.46606 0.50927 0.23786 0.0
H1777 H 0.45764 0.5164 0.17791 0.0
H1778 H 0.44443 0.50213 0.23604 0.0
H1779 H 0.43415 0.52202 0.26656 0.0
H1780 H 0.44743 0.53642 0.20837 0.0
H1781 H 0.44869 0.54272 0.28896 0.0
H1782 H 0.50766 0.55956 0.37115 0.0
H1783 H 0.52324 0.57241 0.27435 0.0
H1784 H 0.47917 0.54526 0.16412 0.0
C1785 C 0.44796 0.50896 0.37137 0.0
C1786 C 0.45186 0.50605 0.43208 0.0
C1787 C 0.46675 0.51757 0.46059 0.0
C1788 C 0.47796 0.53166 0.4285 0.0
C1789 C 0.4741 0.53403 0.36783 0.0
C1790 C 0.45946 0.52305 0.33935 0.0
C1791 C 0.45948 0.52726 0.27069 0.0
C1792 C 0.45675 0.51292 0.22816 0.0
C1793 C 0.44667 0.53241 0.25791 0.0
C1794 C 0.47669 0.54167 0.26441 0.0
C1795 C 0.48475 0.54561 0.3215 0.0
C1796 C 0.50138 0.55702 0.32652 0.0
C1797 C 0.51013 0.56425 0.27157 0.0
C1798 C 0.50218 0.56011 0.21284 0.0
C1799 C 0.48523 0.54905 0.2092 0.0
H1800 H 0.06208 0.53656 0.6846 0.0
H1801 H 0.06341 0.57833 0.77428 0.0
H1802 H 0.06731 0.56863 0.87782 0.0
H1803 H 0.03961 0.50788 0.79629 0.0
H1804 H 0.05039 0.49667 0.7914 0.0
H1805 H 0.04978 0.50799 0.72461 0.0
H1806 H 0.08146 0.52406 0.72024 0.0
H1807 H 0.08219 0.5127 0.78696 0.0
H1808 H 0.09295 0.53473 0.78907 0.0
H1809 H 0.06623 0.55174 0.97135 0.0
H1810 H 0.063 0.53045 0.0474 0.0
H1811 H 0.0649 0.50108 0.89522 0.0
C1812 C 0.06362 0.54383 0.72606 0.0
C1813 C 0.06255 0.55814 0.72236 0.0
C1814 C 0.06441 0.56741 0.77686 0.0
C1815 C 0.0666 0.56197 0.83552 0.0
C1816 C 0.06727 0.54754 0.83793 0.0
C1817 C 0.06616 0.53878 0.78437 0.0
C1818 C 0.06635 0.52324 0.79957 0.0
C1819 C 0.0506 0.50806 0.77663 0.0
C1820 C 0.08165 0.52372 0.77235 0.0
C1821 C 0.06706 0.52421 0.87031 0.0
C1822 C 0.06756 0.5383 0.89166 0.0
C1823 C 0.06633 0.54093 0.95528 0.0
C1824 C 0.06442 0.52879 -0.00202 0.0
C1825 C 0.06404 0.51441 0.97674 0.0
C1826 C 0.06568 0.51225 0.91241 0.0
H1827 H 0.49697 0.52589 0.91814 0.0
H1828 H 0.48481 0.56456 0.90988 0.0
H1829 H 0.46254 0.54806 0.83503 0.0
H1830 H 0.49134 0.516 0.75843 0.0
H1831 H 0.48292 0.49437 0.77078 0.0
H1832 H 0.4969 0.50873 0.82716 0.0
H1833 H 0.47545 0.49413 0.91522 0.0
H1834 H 0.46147 0.47979 0.85861 0.0
H1835 H 0.45525 0.49144 0.90658 0.0
H1836 H 0.44245 0.52771 0.75656 0.0
H1837 H 0.428 0.5065 0.67573 0.0
H1838 H 0.45381 0.48169 0.73731 0.0
C1839 C 0.4896 0.53092 0.90112 0.0
C1840 C 0.49266 0.54654 0.92006 0.0
C1841 C 0.48273 0.55263 0.89606 0.0
C1842 C 0.46997 0.54331 0.85388 0.0
C1843 C 0.46727 0.52791 0.83654 0.0
C1844 C 0.47688 0.52183 0.85933 0.0
C1845 C 0.47223 0.50544 0.83067 0.0
C1846 C 0.48671 0.5062 0.7946 0.0
C1847 C 0.46571 0.4919 0.88078 0.0
C1848 C 0.45879 0.50343 0.78682 0.0
C1849 C 0.45588 0.51634 0.79145 0.0
C1850 C 0.44453 0.51747 0.75297 0.0
C1851 C 0.43634 0.50532 0.70732 0.0
C1852 C 0.43974 0.49239 0.7002 0.0
C1853 C 0.4508 0.4913 0.74175 0.0
H1854 H 0.51407 0.96353 0.77913 0.0
H1855 H 0.48487 0.91584 0.69304 0.0
H1856 H 0.46324 0.90893 0.77209 0.0
H1857 H 0.50027 0.95044 0.94518 0.0
H1858 H 0.50055 0.96933 0.96094 0.0
H1859 H 0.51485 0.96899 0.90589 0.0
H1860 H 0.50482 0.98171 0.82131 0.0
H1861 H 0.49028 0.98178 0.87533 0.0
H1862 H 0.48343 0.97149 0.80095 0.0
H1863 H 0.44304 0.90914 0.85005 0.0
H1864 H 0.42699 0.91586 0.92375 0.0
H1865 H 0.46973 0.96362 0.95522 0.0
C1866 C 0.50336 0.95143 0.77797 0.0
C1867 C 0.50115 0.94024 0.72991 0.0
C1868 C 0.4869 0.92457 0.7298 0.0
C1869 C 0.47452 0.92055 0.77441 0.0
C1870 C 0.47673 0.93225 0.81912 0.0
C1871 C 0.49096 0.94727 0.82183 0.0
C1872 C 0.48983 0.95835 0.87015 0.0
C1873 C 0.5021 0.96198 0.92372 0.0
C1874 C 0.49222 0.97425 0.8401 0.0
C1875 C 0.47246 0.94754 0.89214 0.0
C1876 C 0.46513 0.93244 0.86315 0.0
C1877 C 0.44876 0.92084 0.87382 0.0
C1878 C 0.43972 0.92479 0.91545 0.0
C1879 C 0.44705 0.94029 0.94512 0.0
C1880 C 0.46368 0.95167 0.93334 0.0
H1881 H 0.17033 0.37422 0.85119 0.0
H1882 H 0.17006 0.41934 0.88696 0.0
H1883 H 0.19288 0.42757 0.96273 0.0
H1884 H 0.17631 0.36599 0.00349 0.0
H1885 H 0.18931 0.35782 0.98255 0.0
H1886 H 0.17435 0.35672 0.92767 0.0
H1887 H 0.19721 0.3718 0.84477 0.0
H1888 H 0.21227 0.37309 0.90003 0.0
H1889 H 0.21465 0.3914 0.86364 0.0
H1890 H 0.21449 0.42944 0.04131 0.0
H1891 H 0.23086 0.4239 0.1183 0.0
H1892 H 0.21616 0.37755 0.02731 0.0
C1893 C 0.175 0.38589 0.87463 0.0
C1894 C 0.16825 0.39606 0.8636 0.0
C1895 C 0.17499 0.41131 0.89488 0.0
C1896 C 0.188 0.41611 0.93763 0.0
C1897 C 0.19425 0.40563 0.94751 0.0
C1898 C 0.18793 0.39085 0.9165 0.0
C1899 C 0.1959 0.3812 0.93724 0.0
C1900 C 0.18321 0.36446 0.96438 0.0
C1901 C 0.20558 0.37927 0.88319 0.0
C1902 C 0.20721 0.39245 0.98727 0.0
C1903 C 0.20646 0.40668 0.99181 0.0
C1904 C 0.21529 0.41843 0.03752 0.0
C1905 C 0.22461 0.41523 0.08082 0.0
C1906 C 0.22472 0.4003 0.07847 0.0
C1907 C 0.21632 0.38909 0.02993 0.0
H1908 H 0.63665 0.78886 0.99579 0.0
H1909 H 0.58494 0.758 0.95503 0.0
H1910 H 0.57845 0.77249 0.03687 0.0
H1911 H 0.63341 0.79392 0.16549 0.0
H1912 H 0.6497 0.8149 0.16206 0.0
H1913 H 0.64941 0.8001 0.108 0.0
H1914 H 0.65063 0.81866 0.01409 0.0
H1915 H 0.65103 0.83321 0.06958 0.0
H1916 H 0.63552 0.82492 0.0095 0.0
H1917 H 0.57819 0.79292 0.11574 0.0
H1918 H 0.58414 0.81614 0.18614 0.0
H1919 H 0.63609 0.83336 0.16917 0.0
C1920 C 0.62389 0.78479 0.00484 0.0
C1921 C 0.61131 0.77225 0.96891 0.0
C1922 C 0.59481 0.76749 0.98226 0.0
C1923 C 0.59101 0.77569 0.02851 0.0
C1924 C 0.60384 0.78853 0.06101 0.0
C1925 C 0.61994 0.79289 0.04996 0.0
C1926 C 0.63167 0.80791 0.08658 0.0
C1927 C 0.64163 0.80397 0.13332 0.0
C1928 C 0.64287 0.82201 0.04234 0.0
C1929 C 0.61972 0.81149 0.11979 0.0
C1930 C 0.60371 0.80022 0.10494 0.0
C1931 C 0.59069 0.80168 0.12822 0.0
C1932 C 0.59419 0.81494 0.16793 0.0
C1933 C 0.61058 0.82659 0.18343 0.0
C1934 C 0.6234 0.82469 0.15881 0.0
H1935 H 0.19934 0.84271 0.94728 0.0
H1936 H 0.23611 0.82791 0.94193 0.0
H1937 H 0.2202 0.8062 0.01937 0.0
H1938 H 0.19141 0.83644 0.11134 0.0
H1939 H 0.16977 0.82863 0.10477 0.0
H1940 H 0.18347 0.84311 0.0479 0.0
H1941 H 0.16806 0.8234 0.95664 0.0
H1942 H 0.15366 0.809 0.01201 0.0
H1943 H 0.16437 0.80273 0.95907 0.0
H1944 H 0.19971 0.78559 0.09618 0.0
H1945 H 0.17744 0.7692 0.17107 0.0
H1946 H 0.1544 0.79776 0.124 0.0
C1947 C 0.20417 0.83502 0.96252 0.0
C1948 C 0.21901 0.83707 0.93836 0.0
C1949 C 0.2248 0.82665 0.95979 0.0
C1950 C 0.21581 0.81421 0.00354 0.0
C1951 C 0.20107 0.81236 0.02533 0.0
C1952 C 0.19537 0.82256 0.00579 0.0
C1953 C 0.17933 0.81823 0.03687 0.0
C1954 C 0.18112 0.83247 0.07759 0.0
C1955 C 0.16555 0.81303 0.98823 0.0
C1956 C 0.17681 0.80392 0.07676 0.0
C1957 C 0.18943 0.80066 0.06946 0.0
C1958 C 0.18978 0.78806 0.10229 0.0
C1959 C 0.17703 0.77878 0.14454 0.0
C1960 C 0.16418 0.78222 0.15369 0.0
C1961 C 0.16405 0.79482 0.11845 0.0
H1962 H 0.355 0.11921 0.77584 0.0
H1963 H 0.38763 0.1065 0.87212 0.0
H1964 H 0.3652 0.08861 0.94401 0.0
H1965 H 0.33603 0.12283 0.90818 0.0
H1966 H 0.31597 0.11442 0.87388 0.0
H1967 H 0.3338 0.12428 0.82479 0.0
H1968 H 0.32256 0.09812 0.75646 0.0
H1969 H 0.30465 0.08818 0.80554 0.0
H1970 H 0.31701 0.07881 0.79308 0.0
H1971 H 0.34096 0.07607 0.01522 0.0
H1972 H 0.31606 0.06856 0.07748 0.0
H1973 H 0.2986 0.08801 0.93182 0.0
C1974 C 0.35732 0.11235 0.81109 0.0
C1975 C 0.37302 0.11417 0.81839 0.0
C1976 C 0.37565 0.10517 0.86549 0.0
C1977 C 0.36299 0.09498 0.90646 0.0
C1978 C 0.34775 0.0938 0.89902 0.0
C1979 C 0.34482 0.1021 0.85206 0.0
C1980 C 0.32779 0.0998 0.85713 0.0
C1981 C 0.32845 0.1163 0.86658 0.0
C1982 C 0.31739 0.09068 0.79963 0.0
C1983 C 0.32177 0.0893 0.91549 0.0
C1984 C 0.33345 0.08594 0.93885 0.0
C1985 C 0.33151 0.07816 -0.00358 0.0
C1986 C 0.31739 0.07394 0.0314 0.0
C1987 C 0.30535 0.07727 0.00807 0.0
C1988 C 0.30739 0.08474 0.94903 0.0
H1989 H 0.9093 0.22926 0.04212 0.0
H1990 H 0.9393 0.21845 0.9192 0.0
H1991 H 0.93421 0.23259 0.83227 0.0
H1992 H 0.87906 0.22187 0.93243 0.0
H1993 H 0.87558 0.23805 0.9583 0.0
H1994 H 0.88315 0.22882 0.01265 0.0
H1995 H 0.90802 0.25739 0.03736 0.0
H1996 H 0.9005 0.26667 0.98266 0.0
H1997 H 0.9209 0.26991 0.9742 0.0
H1998 H 0.92272 0.24404 0.7557 0.0
H1999 H 0.90622 0.25303 0.69535 0.0
H2000 H 0.88502 0.25808 0.86802 0.0
C2001 C 0.91508 0.23018 -0.00272 0.0
C2002 C 0.92473 0.22281 0.9874 0.0
C2003 C 0.9319 0.22407 0.92785 0.0
C2004 C 0.92913 0.23211 0.87822 0.0
C2005 C 0.91931 0.23899 0.88911 0.0
C2006 C 0.91248 0.23823 0.94725 0.0
C2007 C 0.90144 0.24559 0.94523 0.0
C2008 C 0.88377 0.23282 0.96319 0.0
C2009 C 0.90812 0.2608 0.98737 0.0
C2010 C 0.90277 0.25017 0.87648 0.0
C2011 C 0.91318 0.24629 0.84501 0.0
C2012 C 0.91493 0.2476 0.77998 0.0
C2013 C 0.90557 0.25272 0.74613 0.0
C2014 C 0.89487 0.25672 0.7775 0.0
C2015 C 0.8937 0.25577 0.84348 0.0
H2016 H 0.75667 0.65112 0.74501 0.0
H2017 H 0.71769 0.61462 0.86075 0.0
H2018 H 0.7229 0.63581 0.9397 0.0
H2019 H 0.78353 0.67065 0.86468 0.0
H2020 H 0.79211 0.69106 0.83365 0.0
H2021 H 0.78349 0.67385 0.78128 0.0
H2022 H 0.76395 0.68305 0.73527 0.0
H2023 H 0.77265 0.70045 0.78721 0.0
H2024 H 0.75089 0.68647 0.78717 0.0
H2025 H 0.73579 0.65939 0.01398 0.0
H2026 H 0.75417 0.68431 0.07464 0.0
H2027 H 0.78364 0.706 0.90888 0.0
C2028 C 0.74889 0.64768 0.78605 0.0
C2029 C 0.73675 0.63125 0.79674 0.0
C2030 C 0.72698 0.62716 0.85142 0.0
C2031 C 0.72985 0.63912 0.89652 0.0
C2032 C 0.74236 0.65511 0.88567 0.0
C2033 C 0.75156 0.65947 0.8313 0.0
C2034 C 0.76528 0.67709 0.83358 0.0
C2035 C 0.78208 0.67822 0.82799 0.0
C2036 C 0.76305 0.68737 0.78279 0.0
C2037 C 0.76268 0.68184 0.89852 0.0
C2038 C 0.74938 0.66899 0.92783 0.0
C2039 C 0.74587 0.66972 0.99089 0.0
C2040 C 0.75633 0.68386 0.02496 0.0
C2041 C 0.76987 0.6971 0.99549 0.0
C2042 C 0.77292 0.69622 0.93139 0.0
H2043 H 0.11704 0.37005 0.5629 0.0
H2044 H 0.08427 0.3519 0.72209 0.0
H2045 H 0.0671 0.32566 0.66671 0.0
H2046 H 0.08676 0.34827 0.43562 0.0
H2047 H 0.10072 0.34393 0.39366 0.0
H2048 H 0.10849 0.3622 0.44055 0.0
H2049 H 0.12673 0.35369 0.50231 0.0
H2050 H 0.11898 0.33541 0.45586 0.0
H2051 H 0.1174 0.33397 0.54015 0.0
H2052 H 0.05534 0.30055 0.59892 0.0
H2053 H 0.0508 0.27808 0.52706 0.0
H2054 H 0.09219 0.3124 0.41484 0.0
C2055 C 0.10587 0.36074 0.58472 0.0
C2056 C 0.10153 0.36299 0.64551 0.0
C2057 C 0.08743 0.35037 0.6747 0.0
C2058 C 0.07765 0.3355 0.64363 0.0
C2059 C 0.08238 0.33344 0.58395 0.0
C2060 C 0.09622 0.34571 0.55492 0.0
C2061 C 0.09995 0.33968 0.49487 0.0
C2062 C 0.0989 0.34908 0.43779 0.0
C2063 C 0.11675 0.34075 0.49856 0.0
C2064 C 0.08615 0.32211 0.49491 0.0
C2065 C 0.07602 0.31877 0.54617 0.0
C2066 C 0.06305 0.30306 0.55812 0.0
C2067 C 0.06056 0.29038 0.51711 0.0
C2068 C 0.0711 0.29352 0.4654 0.0
C2069 C 0.08383 0.30965 0.45373 0.0
H2070 H 0.67944 0.77262 0.43562 0.0
H2071 H 0.71917 0.77622 0.55 0.0
H2072 H 0.7 0.76306 0.63794 0.0
H2073 H 0.66087 0.78299 0.554 0.0
H2074 H 0.64015 0.76927 0.52931 0.0
H2075 H 0.65647 0.77708 0.47277 0.0
H2076 H 0.64824 0.74749 0.44015 0.0
H2077 H 0.63182 0.73956 0.49652 0.0
H2078 H 0.64687 0.73315 0.49907 0.0
H2079 H 0.67769 0.75312 0.7169 0.0
H2080 H 0.65312 0.74567 0.78086 0.0
H2081 H 0.62743 0.74739 0.61501 0.0
C2082 C 0.68404 0.77032 0.47871 0.0
C2083 C 0.70078 0.7754 0.48602 0.0
C2084 C 0.70638 0.77238 0.54337 0.0
C2085 C 0.69558 0.76489 0.59353 0.0
C2086 C 0.67922 0.7604 0.58534 0.0
C2087 C 0.67342 0.76287 0.52926 0.0
C2088 C 0.65553 0.75797 0.53423 0.0
C2089 C 0.65312 0.7727 0.52186 0.0
C2090 C 0.64499 0.74369 0.48986 0.0
C2091 C 0.65228 0.75267 0.60225 0.0
C2092 C 0.66613 0.75417 0.6308 0.0
C2093 C 0.66665 0.75152 0.69482 0.0
C2094 C 0.6527 0.74734 0.73073 0.0
C2095 C 0.63841 0.74567 0.70237 0.0
C2096 C 0.63809 0.74811 0.63723 0.0
H2097 H 0.21638 0.9258 0.55326 0.0
H2098 H 0.24512 0.92814 0.39129 0.0
H2099 H 0.26163 0.92031 0.45762 0.0
H2100 H 0.24906 0.93866 0.67568 0.0
H2101 H 0.23505 0.92393 0.73131 0.0
H2102 H 0.22775 0.93291 0.6743 0.0
H2103 H 0.20616 0.90397 0.63648 0.0
H2104 H 0.21346 0.89487 0.69261 0.0
H2105 H 0.21272 0.88999 0.61051 0.0
H2106 H 0.27282 0.90939 0.53763 0.0
H2107 H 0.27707 0.89462 0.62441 0.0
H2108 H 0.23998 0.89775 0.73379 0.0
C2109 C 0.22661 0.92531 0.53266 0.0
C2110 C 0.22994 0.92803 0.46794 0.0
C2111 C 0.24274 0.92642 0.44125 0.0
C2112 C 0.25215 0.92201 0.47852 0.0
C2113 C 0.24836 0.919 0.54208 0.0
C2114 C 0.23584 0.9205 0.56899 0.0
C2115 C 0.2328 0.91437 0.63611 0.0
C2116 C 0.23639 0.9283 0.68207 0.0
C2117 C 0.21525 0.89995 0.64435 0.0
C2118 C 0.24532 0.90888 0.64223 0.0
C2119 C 0.25434 0.91194 0.58783 0.0
C2120 C 0.26599 0.90712 0.5808 0.0
C2121 C 0.26829 0.89871 0.63032 0.0
C2122 C 0.25888 0.89507 0.68584 0.0
C2123 C 0.24747 0.9005 0.69215 0.0
H2124 H 0.70414 0.91876 0.05365 0.0
H2125 H 0.67849 0.92279 0.89214 0.0
H2126 H 0.65384 0.91424 0.95711 0.0
H2127 H 0.67107 0.88229 0.10719 0.0
H2128 H 0.67517 0.88665 0.18963 0.0
H2129 H 0.69166 0.89576 0.13389 0.0
H2130 H 0.69957 0.92466 0.17476 0.0
H2131 H 0.68315 0.91562 0.23103 0.0
H2132 H 0.68434 0.93084 0.1768 0.0
H2133 H 0.63144 0.90281 0.03547 0.0
H2134 H 0.61223 0.88844 0.12212 0.0
H2135 H 0.65191 0.89062 0.23263 0.0
C2136 C 0.69349 0.9184 0.0329 0.0
C2137 C 0.69319 0.92182 0.96867 0.0
C2138 C 0.6789 0.92048 0.94174 0.0
C2139 C 0.6649 0.91566 0.9782 0.0
C2140 C 0.66538 0.91199 0.0412 0.0
C2141 C 0.67927 0.91323 0.06842 0.0
C2142 C 0.67591 0.9067 0.135 0.0
C2143 C 0.67861 0.89198 0.14179 0.0
C2144 C 0.68636 0.92027 0.18219 0.0
C2145 C 0.65796 0.90153 0.14069 0.0
C2146 C 0.6522 0.90482 0.0862 0.0
C2147 C 0.63583 0.90034 0.07871 0.0
C2148 C 0.62501 0.89215 0.1281 0.0
C2149 C 0.6306 0.88849 0.18409 0.0
C2150 C 0.64733 0.89343 0.19063 0.0
H2151 H 0.11825 0.74772 0.11334 0.0
H2152 H 0.08585 0.73962 0.26988 0.0
H2153 H 0.06914 0.74713 0.20317 0.0
H2154 H 0.11964 0.78346 0.06511 0.0
H2155 H 0.12091 0.78046 0.98228 0.0
H2156 H 0.12842 0.77146 0.03797 0.0
H2157 H 0.10948 0.74277 0.99013 0.0
H2158 H 0.10196 0.75171 0.93389 0.0
H2159 H 0.08783 0.73527 0.9838 0.0
H2160 H 0.05781 0.75816 0.12373 0.0
H2161 H 0.05335 0.77331 0.03882 0.0
H2162 H 0.09402 0.77561 0.93537 0.0
C2163 C 0.10725 0.74693 0.13251 0.0
C2164 C 0.10292 0.74266 0.19578 0.0
C2165 C 0.08903 0.74256 0.2209 0.0
C2166 C 0.07952 0.74678 0.18342 0.0
C2167 C 0.08427 0.75132 0.12137 0.0
C2168 C 0.09787 0.75152 0.09613 0.0
C2169 C 0.10163 0.75898 0.0311 0.0
C2170 C 0.11865 0.7745 0.02904 0.0
C2171 C 0.10013 0.74643 0.98182 0.0
C2172 C 0.08811 0.76306 0.024 0.0
C2173 C 0.07812 0.75836 0.07625 0.0
C2174 C 0.0654 0.76172 0.08218 0.0
C2175 C 0.06297 0.77034 0.03378 0.0
C2176 C 0.0733 0.77558 0.98053 0.0
C2177 C 0.08583 0.77162 0.97526 0.0
H2178 H 0.25084 0.37634 0.05889 0.0
H2179 H 0.26083 0.3588 0.23167 0.0
H2180 H 0.25451 0.33289 0.17931 0.0
H2181 H 0.21617 0.33942 0.02225 0.0
H2182 H 0.2191 0.34101 0.93844 0.0
H2183 H 0.22729 0.35923 0.98543 0.0
H2184 H 0.25622 0.36897 0.94102 0.0
H2185 H 0.24816 0.3508 0.89338 0.0
H2186 H 0.26487 0.35577 0.9465 0.0
H2187 H 0.24489 0.30816 0.11121 0.0
H2188 H 0.23036 0.28555 0.03557 0.0
H2189 H 0.2251 0.31863 0.90894 0.0
C2190 C 0.25221 0.36721 0.08472 0.0
C2191 C 0.25674 0.36956 0.14846 0.0
C2192 C 0.25767 0.35718 0.18229 0.0
C2193 C 0.25415 0.3425 0.15294 0.0
C2194 C 0.24947 0.34037 0.09006 0.0
C2195 C 0.24835 0.35232 0.05645 0.0
C2196 C 0.241 0.34616 0.99218 0.0
C2197 C 0.22494 0.34647 0.98416 0.0
C2198 C 0.2533 0.35601 0.9402 0.0
C2199 C 0.23794 0.32882 0.99534 0.0
C2200 C 0.24318 0.32581 0.05169 0.0
C2201 C 0.24089 0.31041 0.06659 0.0
C2202 C 0.23268 0.29765 0.02332 0.0
C2203 C 0.22668 0.30037 0.9664 0.0
C2204 C 0.22968 0.31624 0.95189 0.0
H2205 H 0.8798 0.62425 0.39034 0.0
H2206 H 0.9085 0.64544 0.22262 0.0
H2207 H 0.92708 0.67059 0.28168 0.0
H2208 H 0.87972 0.65943 0.43139 0.0
H2209 H 0.8799 0.65669 0.51504 0.0
H2210 H 0.8714 0.63924 0.46407 0.0
H2211 H 0.89113 0.63033 0.51129 0.0
H2212 H 0.89974 0.64792 0.56227 0.0
H2213 H 0.91285 0.64448 0.51077 0.0
H2214 H 0.93991 0.6946 0.35416 0.0
H2215 H 0.94498 0.71606 0.43182 0.0
H2216 H 0.90676 0.67966 0.5504 0.0
C2217 C 0.89043 0.63395 0.36713 0.0
C2218 C 0.89318 0.63289 0.30291 0.0
C2219 C 0.90659 0.64603 0.27245 0.0
C2220 C 0.91716 0.6603 0.3056 0.0
C2221 C 0.91388 0.66125 0.36876 0.0
C2222 C 0.90076 0.64844 0.39914 0.0
C2223 C 0.89823 0.65348 0.46363 0.0
C2224 C 0.88132 0.65213 0.46879 0.0
C2225 C 0.90064 0.64345 0.51503 0.0
C2226 C 0.91179 0.67114 0.46449 0.0
C2227 C 0.92086 0.67534 0.40981 0.0
C2228 C 0.9331 0.69138 0.39766 0.0
C2229 C 0.93589 0.70349 0.44197 0.0
C2230 C 0.92629 0.69948 0.4971 0.0
C2231 C 0.91441 0.68304 0.50898 0.0
H2232 H 0.32644 0.2341 0.5627 0.0
H2233 H 0.28889 0.22856 0.43123 0.0
H2234 H 0.31002 0.24302 0.35032 0.0
H2235 H 0.35952 0.27477 0.50624 0.0
H2236 H 0.37494 0.26908 0.51755 0.0
H2237 H 0.3572 0.26063 0.5677 0.0
H2238 H 0.35085 0.23138 0.53875 0.0
H2239 H 0.3684 0.23965 0.48818 0.0
H2240 H 0.34851 0.22541 0.45737 0.0
H2241 H 0.33423 0.25347 0.27944 0.0
H2242 H 0.36013 0.26049 0.22533 0.0
H2243 H 0.38234 0.26094 0.40358 0.0
C2244 C 0.3227 0.23633 0.51743 0.0
C2245 C 0.30604 0.23026 0.50324 0.0
C2246 C 0.3016 0.23319 0.44319 0.0
C2247 C 0.31352 0.24142 0.39698 0.0
C2248 C 0.32982 0.24682 0.41191 0.0
C2249 C 0.33445 0.24457 0.47094 0.0
C2250 C 0.35252 0.25013 0.47328 0.0
C2251 C 0.36158 0.26451 0.5189 0.0
C2252 C 0.35521 0.23579 0.49038 0.0
C2253 C 0.35727 0.25549 0.40594 0.0
C2254 C 0.34399 0.2535 0.37128 0.0
C2255 C 0.34484 0.25561 0.30637 0.0
C2256 C 0.35954 0.2596 0.27605 0.0
C2257 C 0.3732 0.26172 0.31083 0.0
C2258 C 0.37218 0.26 0.37657 0.0
H2259 H 0.77069 0.09543 0.54712 0.0
H2260 H 0.77396 0.05971 0.42945 0.0
H2261 H 0.75762 0.06359 0.34786 0.0
H2262 H 0.72909 0.08613 0.50007 0.0
H2263 H 0.73484 0.10744 0.5008 0.0
H2264 H 0.74469 0.10006 0.55337 0.0
H2265 H 0.77305 0.12165 0.50978 0.0
H2266 H 0.76332 0.12907 0.45751 0.0
H2267 H 0.77677 0.12247 0.42651 0.0
H2268 H 0.74465 0.07421 0.27398 0.0
H2269 H 0.73612 0.09098 0.21291 0.0
H2270 H 0.74012 0.11894 0.37944 0.0
C2271 C 0.76764 0.08814 0.50481 0.0
C2272 C 0.7735 0.07721 0.49465 0.0
C2273 C 0.76954 0.06812 0.43821 0.0
C2274 C 0.76019 0.07017 0.39178 0.0
C2275 C 0.75481 0.08126 0.40282 0.0
C2276 C 0.75835 0.09005 0.45805 0.0
C2277 C 0.7527 0.10247 0.45563 0.0
C2278 C 0.73954 0.09879 0.50544 0.0
C2279 C 0.76733 0.11994 0.46275 0.0
C2280 C 0.74561 0.09948 0.39005 0.0
C2281 C 0.7469 0.08713 0.36044 0.0
C2282 C 0.74308 0.08352 0.29715 0.0
C2283 C 0.7382 0.09303 0.26292 0.0
C2284 C 0.73693 0.10575 0.29233 0.0
C2285 C 0.74028 0.10875 0.3569 0.0
H2286 H 0.98549 0.42628 0.39279 0.0
H2287 H 0.95471 0.3832 0.28133 0.0
H2288 H 0.97817 0.38994 0.21138 0.0
H2289 H 0.00351 0.45154 0.26677 0.0
H2290 H 0.02329 0.46372 0.30275 0.0
H2291 H 0.00529 0.45374 0.35087 0.0
H2292 H 0.01795 0.4392 0.41329 0.0
H2293 H 0.03607 0.44921 0.36532 0.0
H2294 H 0.02499 0.42722 0.37199 0.0
H2295 H 0.00376 0.40342 0.1459 0.0
H2296 H 0.02869 0.42313 0.08794 0.0
H2297 H 0.04205 0.45775 0.24038 0.0
C2298 C 0.98373 0.41802 0.35461 0.0
C2299 C 0.9683 0.40418 0.34255 0.0
C2300 C 0.96648 0.39382 0.29154 0.0
C2301 C 0.97974 0.39753 0.25177 0.0
C2302 C 0.99468 0.41162 0.26378 0.0
C2303 C 0.9967 0.4217 0.31404 0.0
C2304 C 0.01317 0.43723 0.31223 0.0
C2305 C 0.01119 0.45245 0.30786 0.0
C2306 C 0.02367 0.43827 0.36909 0.0
C2307 C 0.01999 0.43455 0.25216 0.0
C2308 C 0.00929 0.41957 0.22543 0.0
C2309 C 0.01237 0.415 0.16704 0.0
C2310 C 0.02652 0.4262 0.13457 0.0
C2311 C 0.03725 0.44169 0.16061 0.0
C2312 C 0.03413 0.44579 0.22043 0.0
H2313 H 0.55924 0.57043 0.09069 0.0
H2314 H 0.56122 0.61085 0.1949 0.0
H2315 H 0.57739 0.60714 0.27765 0.0
H2316 H 0.55297 0.54539 0.21894 0.0
H2317 H 0.56518 0.53699 0.19046 0.0
H2318 H 0.55569 0.54421 0.13579 0.0
H2319 H 0.58398 0.56362 0.08575 0.0
H2320 H 0.59355 0.55644 0.14052 0.0
H2321 H 0.60054 0.578 0.13464 0.0
H2322 H 0.58922 0.59627 0.35589 0.0
H2323 H 0.5973 0.57984 0.42165 0.0
H2324 H 0.58924 0.54762 0.26451 0.0
C2325 C 0.56342 0.57876 0.13018 0.0
C2326 C 0.55905 0.59097 0.13634 0.0
C2327 C 0.56454 0.60148 0.18908 0.0
C2328 C 0.57373 0.59947 0.23628 0.0
C2329 C 0.57749 0.58704 0.22955 0.0
C2330 C 0.57265 0.57696 0.17752 0.0
C2331 C 0.57718 0.56374 0.18385 0.0
C2332 C 0.56185 0.54658 0.18218 0.0
C2333 C 0.58955 0.56557 0.13317 0.0
C2334 C 0.58496 0.56771 0.24829 0.0
C2335 C 0.58501 0.5812 0.27386 0.0
C2336 C 0.58974 0.58602 0.33576 0.0
C2337 C 0.59429 0.57666 0.3727 0.0
C2338 C 0.59436 0.5629 0.34715 0.0
C2339 C 0.58995 0.55855 0.28397 0.0
H2340 H 0.42516 0.98622 0.09951 0.0
H2341 H 0.3844 0.95067 0.21124 0.0
H2342 H 0.38937 0.97221 0.28812 0.0
H2343 H 0.45107 0.00562 0.2229 0.0
H2344 H 0.46041 0.02594 0.19033 0.0
H2345 H 0.45193 0.00851 0.13907 0.0
H2346 H 0.43356 0.01844 0.08718 0.0
H2347 H 0.44203 0.03592 0.13872 0.0
H2348 H 0.42021 0.02235 0.13541 0.0
H2349 H 0.40167 0.99583 0.3611 0.0
H2350 H 0.41987 0.02045 0.42327 0.0
H2351 H 0.45196 0.04123 0.26313 0.0
C2352 C 0.41699 0.98306 0.13923 0.0
C2353 C 0.40436 0.9668 0.1494 0.0
C2354 C 0.39408 0.96308 0.20239 0.0
C2355 C 0.39679 0.97524 0.24623 0.0
C2356 C 0.4097 0.99106 0.23593 0.0
C2357 C 0.41955 0.99505 0.1834 0.0
C2358 C 0.43359 0.01253 0.18649 0.0
C2359 C 0.45022 0.01317 0.18462 0.0
C2360 C 0.43226 0.02292 0.13382 0.0
C2361 C 0.43046 0.01755 0.25007 0.0
C2362 C 0.41654 0.00501 0.27758 0.0
C2363 C 0.41227 0.00593 0.33938 0.0
C2364 C 0.42263 0.0199 0.3743 0.0
C2365 C 0.43689 0.03278 0.34696 0.0
C2366 C 0.44069 0.03178 0.28383 0.0
H2367 H 0.58903 0.04035 0.76748 0.0
H2368 H 0.59527 0.01644 0.92986 0.0
H2369 H 0.58797 0.99184 0.86588 0.0
H2370 H 0.5534 0.00653 0.72019 0.0
H2371 H 0.55674 0.01018 0.63707 0.0
H2372 H 0.566 0.02705 0.691 0.0
H2373 H 0.59465 0.03562 0.64542 0.0
H2374 H 0.58545 0.01878 0.59093 0.0
H2375 H 0.60153 0.02093 0.64264 0.0
H2376 H 0.57681 0.96889 0.78825 0.0
H2377 H 0.5608 0.94875 0.70588 0.0
H2378 H 0.56029 0.98721 0.59608 0.0
C2379 C 0.58954 0.03016 0.78854 0.0
C2380 C 0.5932 0.03032 0.85267 0.0
C2381 C 0.59285 0.01654 0.88021 0.0
C2382 C 0.58875 0.00258 0.84426 0.0
C2383 C 0.58477 0.00258 0.78124 0.0
C2384 C 0.58502 0.01599 0.75371 0.0
C2385 C 0.57777 0.01202 0.68841 0.0
C2386 C 0.56259 0.01406 0.68395 0.0
C2387 C 0.59062 0.02246 0.63893 0.0
C2388 C 0.57317 0.99423 0.68387 0.0
C2389 C 0.57756 0.98908 0.73738 0.0
C2390 C 0.57354 0.97283 0.74569 0.0
C2391 C 0.56446 0.96148 0.69866 0.0
C2392 C 0.55937 0.96644 0.64459 0.0
C2393 C 0.56415 0.98309 0.63665 0.0
H2394 H 0.03738 0.58811 0.70486 0.0
H2395 H 0.01403 0.56944 0.52499 0.0
H2396 H 0.98686 0.55923 0.5742 0.0
H2397 H 0.00895 0.55368 0.79003 0.0
H2398 H 0.00967 0.56495 0.8593 0.0
H2399 H 0.02714 0.57275 0.80822 0.0
H2400 H 0.02677 0.59991 0.79628 0.0
H2401 H 0.00922 0.59214 0.84719 0.0
H2402 H 0.00838 0.59939 0.76977 0.0
H2403 H 0.96227 0.55021 0.64421 0.0
H2404 H 0.94216 0.54016 0.73095 0.0
H2405 H 0.98174 0.56276 0.86583 0.0
C2406 C 0.02654 0.58225 0.67568 0.0
C2407 C 0.02768 0.57985 0.61105 0.0
C2408 C 0.0133 0.57154 0.57454 0.0
C2409 C 0.99787 0.56578 0.602 0.0
C2410 C 0.99711 0.56822 0.66615 0.0
C2411 C 0.01107 0.57606 0.70266 0.0
C2412 C 0.0069 0.57546 0.7715 0.0
C2413 C 0.01355 0.56615 0.80947 0.0
C2414 C 0.01319 0.59275 0.79771 0.0
C2415 C 0.98842 0.56599 0.76813 0.0
C2416 C 0.98299 0.56221 0.70689 0.0
C2417 C 0.96638 0.5532 0.69231 0.0
C2418 C 0.95505 0.54763 0.74176 0.0
C2419 C 0.96046 0.55083 0.80481 0.0
C2420 C 0.97732 0.56029 0.81792 0.0
H2421 H 0.40711 0.44595 0.70246 0.0
H2422 H 0.40828 0.42002 0.53693 0.0
H2423 H 0.4164 0.40356 0.60202 0.0
H2424 H 0.4428 0.45118 0.76299 0.0
H2425 H 0.43712 0.44916 0.84458 0.0
H2426 H 0.42755 0.45604 0.78896 0.0
H2427 H 0.39897 0.4326 0.8221 0.0
H2428 H 0.40845 0.42571 0.87855 0.0
H2429 H 0.39475 0.41175 0.82025 0.0
H2430 H 0.42801 0.39289 0.68089 0.0
H2431 H 0.44337 0.38936 0.76723 0.0
H2432 H 0.4364 0.42346 0.88117 0.0
C2433 C 0.40832 0.43624 0.68074 0.0
C2434 C 0.40659 0.43376 0.61533 0.0
C2435 C 0.40918 0.4217 0.58735 0.0
C2436 C 0.41378 0.41234 0.62393 0.0
C2437 C 0.41596 0.41541 0.68819 0.0
C2438 C 0.41333 0.42708 0.71648 0.0
C2439 C 0.41894 0.42974 0.78428 0.0
C2440 C 0.4324 0.44758 0.79581 0.0
C2441 C 0.40441 0.42464 0.82893 0.0
C2442 C 0.42561 0.41815 0.78899 0.0
C2443 C 0.42344 0.40976 0.73347 0.0
C2444 C 0.42955 0.39918 0.72496 0.0
C2445 C 0.4383 0.3973 0.77421 0.0
C2446 C 0.44104 0.40611 0.83088 0.0
C2447 C 0.43435 0.41644 0.83859 0.0
loop_
_geom_bond_atom_site_label_1
_geom_bond_atom_site_label_2
_geom_bond_distance
_geom_bond_site_symmetry_2
_ccdc_geom_bond_type
Co0 O1 2.216 . S
Co0 O2 2.091 . S
Co0 O4 2.004 1_554 S
Co0 O10 2.021 . S
Co0 O12 2.137 1_554 S
Co0 O13 2.244 . S
O1 Co0 2.216 . S
O1 C8 1.247 . S
O2 Co0 2.091 . S
O2 C8 1.261 . S
C3 O12 1.247 1_554 S
C3 O13 1.272 . S
O4 Co0 2.004 1_556 S
O4 C9 1.259 . S
Co5 O6 2.061 1_554 S
Co5 O11 2.052 . S
Co5 O13 2.135 . S
O6 Co5 2.061 1_556 S
O6 C9 1.235 . S
C7 O10 1.238 . S
C7 O11 1.241 . S
C8 O1 1.247 . S
C8 O2 1.261 . S
C9 O4 1.259 . S
C9 O6 1.235 . S
O10 Co0 2.021 . S
O10 C7 1.238 . S
O11 Co5 2.052 . S
O11 C7 1.241 . S
O12 Co0 2.137 1_556 S
O12 C3 1.247 1_556 S
O13 Co0 2.244 . S
O13 C3 1.272 . S
O13 Co5 2.135 . S
Co14 O15 2.216 . S
Co14 O16 2.091 . S
Co14 O18 2.004 1_554 S
Co14 O24 2.021 . S
Co14 O26 2.137 1_554 S
Co14 O27 2.244 . S
O15 Co14 2.216 . S
O15 C22 1.247 . S
O16 Co14 2.091 . S
O16 C22 1.261 . S
C17 O26 1.247 1_554 S
C17 O27 1.272 . S
O18 Co14 2.004 1_556 S
O18 C23 1.259 . S
Co19 O20 2.061 1_554 S
Co19 O25 2.052 . S
Co19 O27 2.135 . S
O20 Co19 2.061 1_556 S
O20 C23 1.235 . S
C21 O24 1.238 . S
C21 O25 1.241 . S
C22 O15 1.247 . S
C22 O16 1.261 . S
C23 O18 1.259 . S
C23 O20 1.235 . S
O24 Co14 2.021 . S
O24 C21 1.238 . S
O25 Co19 2.052 . S
O25 C21 1.241 . S
O26 Co14 2.137 1_556 S
O26 C17 1.247 1_556 S
O27 Co14 2.244 . S
O27 C17 1.272 . S
O27 Co19 2.135 . S
Co28 O29 2.216 . S
Co28 O30 2.091 . S
Co28 O32 2.004 1_554 S
Co28 O38 2.021 . S
Co28 O40 2.137 1_554 S
Co28 O41 2.244 . S
O29 Co28 2.216 . S
O29 C36 1.247 . S
O30 Co28 2.091 . S
O30 C36 1.261 . S
C31 O40 1.247 1_554 S
C31 O41 1.272 . S
O32 Co28 2.004 1_556 S
O32 C37 1.259 . S
Co33 O34 2.061 1_554 S
Co33 O39 2.052 . S
Co33 O41 2.135 . S
O34 Co33 2.061 1_556 S
O34 C37 1.235 . S
C35 O38 1.238 . S
C35 O39 1.241 . S
C36 O29 1.247 . S
C36 O30 1.261 . S
C37 O32 1.259 . S
C37 O34 1.235 . S
O38 Co28 2.021 . S
O38 C35 1.238 . S
O39 Co33 2.052 . S
O39 C35 1.241 . S
O40 Co28 2.137 1_556 S
O40 C31 1.247 1_556 S
O41 Co28 2.244 . S
O41 C31 1.272 . S
O41 Co33 2.135 . S
Co42 O43 2.216 . S
Co42 O44 2.091 . S
Co42 O46 2.004 . S
Co42 O52 2.021 . S
Co42 O54 2.137 . S
Co42 O55 2.244 . S
O43 Co42 2.216 . S
O43 C50 1.247 . S
O44 Co42 2.091 . S
O44 C50 1.261 . S
C45 O54 1.247 . S
C45 O55 1.272 . S
O46 Co42 2.004 . S
O46 C51 1.259 . S
Co47 O48 2.061 . S
Co47 O53 2.052 . S
Co47 O55 2.135 . S
O48 Co47 2.061 . S
O48 C51 1.235 . S
C49 O52 1.238 . S
C49 O53 1.241 . S
C50 O43 1.247 . S
C50 O44 1.261 . S
C51 O46 1.259 . S
C51 O48 1.235 . S
O52 Co42 2.021 . S
O52 C49 1.238 . S
O53 Co47 2.052 . S
O53 C49 1.241 . S
O54 Co42 2.137 . S
O54 C45 1.247 . S
O55 Co42 2.244 . S
O55 C45 1.272 . S
O55 Co47 2.135 . S
Co56 O57 2.216 . S
Co56 O58 2.091 . S
Co56 O60 2.004 . S
Co56 O66 2.021 . S
Co56 O68 2.137 . S
Co56 O69 2.244 . S
O57 Co56 2.216 . S
O57 C64 1.247 . S
O58 Co56 2.091 . S
O58 C64 1.261 . S
C59 O68 1.247 . S
C59 O69 1.272 . S
O60 Co56 2.004 . S
O60 C65 1.259 . S
Co61 O62 2.061 . S
Co61 O67 2.052 . S
Co61 O69 2.135 . S
O62 Co61 2.061 . S
O62 C65 1.235 . S
C63 O66 1.238 . S
C63 O67 1.241 . S
C64 O57 1.247 . S
C64 O58 1.261 . S
C65 O60 1.259 . S
C65 O62 1.235 . S
O66 Co56 2.021 . S
O66 C63 1.238 . S
O67 Co61 2.052 . S
O67 C63 1.241 . S
O68 Co56 2.137 . S
O68 C59 1.247 . S
O69 Co56 2.244 . S
O69 C59 1.272 . S
O69 Co61 2.135 . S
Co70 O71 2.216 . S
Co70 O72 2.091 . S
Co70 O74 2.004 . S
Co70 O80 2.021 . S
Co70 O82 2.137 . S
Co70 O83 2.244 . S
O71 Co70 2.216 . S
O71 C78 1.247 . S
O72 Co70 2.091 . S
O72 C78 1.261 . S
C73 O82 1.247 . S
C73 O83 1.272 . S
O74 Co70 2.004 . S
O74 C79 1.259 . S
Co75 O76 2.061 . S
Co75 O81 2.052 . S
Co75 O83 2.135 . S
O76 Co75 2.061 . S
O76 C79 1.235 . S
C77 O80 1.238 . S
C77 O81 1.241 . S
C78 O71 1.247 . S
C78 O72 1.261 . S
C79 O74 1.259 . S
C79 O76 1.235 . S
O80 Co70 2.021 . S
O80 C77 1.238 . S
O81 Co75 2.052 . S
O81 C77 1.241 . S
O82 Co70 2.137 . S
O82 C73 1.247 . S
O83 Co70 2.244 . S
O83 C73 1.272 . S
O83 Co75 2.135 . S
Co84 O85 2.216 . S
Co84 O86 2.091 . S
Co84 O88 2.004 1_556 S
Co84 O94 2.021 . S
Co84 O96 2.137 1_556 S
Co84 O97 2.244 . S
O85 Co84 2.216 . S
O85 C92 1.247 . S
O86 Co84 2.091 . S
O86 C92 1.261 . S
C87 O96 1.247 1_556 S
C87 O97 1.272 . S
O88 Co84 2.004 1_554 S
O88 C93 1.259 . S
Co89 O90 2.061 1_556 S
Co89 O95 2.052 . S
Co89 O97 2.135 . S
O90 Co89 2.061 1_554 S
O90 C93 1.235 . S
C91 O94 1.238 . S
C91 O95 1.241 . S
C92 O85 1.247 . S
C92 O86 1.261 . S
C93 O88 1.259 . S
C93 O90 1.235 . S
O94 Co84 2.021 . S
O94 C91 1.238 . S
O95 Co89 2.052 . S
O95 C91 1.241 . S
O96 Co84 2.137 1_554 S
O96 C87 1.247 1_554 S
O97 Co84 2.244 . S
O97 C87 1.272 . S
O97 Co89 2.135 . S
Co98 O99 2.216 . S
Co98 O100 2.091 . S
Co98 O102 2.004 1_556 S
Co98 O108 2.021 . S
Co98 O110 2.137 1_556 S
Co98 O111 2.244 . S
O99 Co98 2.216 . S
O99 C106 1.247 . S
O100 Co98 2.091 . S
O100 C106 1.261 . S
C101 O110 1.247 1_556 S
C101 O111 1.272 . S
O102 Co98 2.004 1_554 S
O102 C107 1.259 . S
Co103 O104 2.061 1_556 S
Co103 O109 2.052 . S
Co103 O111 2.135 . S
O104 Co103 2.061 1_554 S
O104 C107 1.235 . S
C105 O108 1.238 . S
C105 O109 1.241 . S
C106 O99 1.247 . S
C106 O100 1.261 . S
C107 O102 1.259 . S
C107 O104 1.235 . S
O108 Co98 2.021 . S
O108 C105 1.238 . S
O109 Co103 2.052 . S
O109 C105 1.241 . S
O110 Co98 2.137 1_554 S
O110 C101 1.247 1_554 S
O111 Co98 2.244 . S
O111 C101 1.272 . S
O111 Co103 2.135 . S
Co112 O113 2.216 . S
Co112 O114 2.091 . S
Co112 O116 2.004 1_556 S
Co112 O122 2.021 . S
Co112 O124 2.137 1_556 S
Co112 O125 2.244 . S
O113 Co112 2.216 . S
O113 C120 1.247 . S
O114 Co112 2.091 . S
O114 C120 1.261 . S
C115 O124 1.247 1_556 S
C115 O125 1.272 . S
O116 Co112 2.004 1_554 S
O116 C121 1.259 . S
Co117 O118 2.061 1_556 S
Co117 O123 2.052 . S
Co117 O125 2.135 . S
O118 Co117 2.061 1_554 S
O118 C121 1.235 . S
C119 O122 1.238 . S
C119 O123 1.241 . S
C120 O113 1.247 . S
C120 O114 1.261 . S
C121 O116 1.259 . S
C121 O118 1.235 . S
O122 Co112 2.021 . S
O122 C119 1.238 . S
O123 Co117 2.052 . S
O123 C119 1.241 . S
O124 Co112 2.137 1_554 S
O124 C115 1.247 1_554 S
O125 Co112 2.244 . S
O125 C115 1.272 . S
O125 Co117 2.135 . S
Co126 O127 2.216 . S
Co126 O128 2.091 . S
Co126 O130 2.004 . S
Co126 O136 2.021 . S
Co126 O138 2.137 . S
Co126 O139 2.244 . S
O127 Co126 2.216 . S
O127 C134 1.247 . S
O128 Co126 2.091 . S
O128 C134 1.261 . S
C129 O138 1.247 . S
C129 O139 1.272 . S
O130 Co126 2.004 . S
O130 C135 1.259 . S
Co131 O132 2.061 . S
Co131 O137 2.052 . S
Co131 O139 2.135 . S
O132 Co131 2.061 . S
O132 C135 1.235 . S
C133 O136 1.238 . S
C133 O137 1.241 . S
C134 O127 1.247 . S
C134 O128 1.261 . S
C135 O130 1.259 . S
C135 O132 1.235 . S
O136 Co126 2.021 . S
O136 C133 1.238 . S
O137 Co131 2.052 . S
O137 C133 1.241 . S
O138 Co126 2.137 . S
O138 C129 1.247 . S
O139 Co126 2.244 . S
O139 C129 1.272 . S
O139 Co131 2.135 . S
Co140 O141 2.216 . S
Co140 O142 2.091 . S
Co140 O144 2.004 . S
Co140 O150 2.021 . S
Co140 O152 2.137 . S
Co140 O153 2.244 . S
O141 Co140 2.216 . S
O141 C148 1.247 . S
O142 Co140 2.091 . S
O142 C148 1.261 . S
C143 O152 1.247 . S
C143 O153 1.272 . S
O144 Co140 2.004 . S
O144 C149 1.259 . S
Co145 O146 2.061 . S
Co145 O151 2.052 . S
Co145 O153 2.135 . S
O146 Co145 2.061 . S
O146 C149 1.235 . S
C147 O150 1.238 . S
C147 O151 1.241 . S
C148 O141 1.247 . S
C148 O142 1.261 . S
C149 O144 1.259 . S
C149 O146 1.235 . S
O150 Co140 2.021 . S
O150 C147 1.238 . S
O151 Co145 2.052 . S
O151 C147 1.241 . S
O152 Co140 2.137 . S
O152 C143 1.247 . S
O153 Co140 2.244 . S
O153 C143 1.272 . S
O153 Co145 2.135 . S
Co154 O155 2.216 . S
Co154 O156 2.091 . S
Co154 O158 2.004 . S
Co154 O164 2.021 . S
Co154 O166 2.137 . S
Co154 O167 2.244 . S
O155 Co154 2.216 . S
O155 C162 1.247 . S
O156 Co154 2.091 . S
O156 C162 1.261 . S
C157 O166 1.247 . S
C157 O167 1.272 . S
O158 Co154 2.004 . S
O158 C163 1.259 . S
Co159 O160 2.061 . S
Co159 O165 2.052 . S
Co159 O167 2.135 . S
O160 Co159 2.061 . S
O160 C163 1.235 . S
C161 O164 1.238 . S
C161 O165 1.241 . S
C162 O155 1.247 . S
C162 O156 1.261 . S
C163 O158 1.259 . S
C163 O160 1.235 . S
O164 Co154 2.021 . S
O164 C161 1.238 . S
O165 Co159 2.052 . S
O165 C161 1.241 . S
O166 Co154 2.137 . S
O166 C157 1.247 . S
O167 Co154 2.244 . S
O167 C157 1.272 . S
O167 Co159 2.135 . S
Co168 O169 2.216 . S
Co168 O170 2.091 . S
Co168 O172 2.004 . S
Co168 O178 2.021 . S
Co168 O180 2.137 . S
Co168 O181 2.244 . S
O169 Co168 2.216 . S
O169 C176 1.247 . S
O170 Co168 2.091 . S
O170 C176 1.261 . S
C171 O180 1.247 . S
C171 O181 1.272 . S
O172 Co168 2.004 . S
O172 C177 1.259 . S
Co173 O174 2.061 . S
Co173 O179 2.052 . S
Co173 O181 2.135 . S
O174 Co173 2.061 . S
O174 C177 1.235 . S
C175 O178 1.238 . S
C175 O179 1.241 . S
C176 O169 1.247 . S
C176 O170 1.261 . S
C177 O172 1.259 . S
C177 O174 1.235 . S
O178 Co168 2.021 . S
O178 C175 1.238 . S
O179 Co173 2.052 . S
O179 C175 1.241 . S
O180 Co168 2.137 . S
O180 C171 1.247 . S
O181 Co168 2.244 . S
O181 C171 1.272 . S
O181 Co173 2.135 . S
Co182 O183 2.216 . S
Co182 O184 2.091 . S
Co182 O186 2.004 . S
Co182 O192 2.021 . S
Co182 O194 2.137 . S
Co182 O195 2.244 . S
O183 Co182 2.216 . S
O183 C190 1.247 . S
O184 Co182 2.091 . S
O184 C190 1.261 . S
C185 O194 1.247 . S
C185 O195 1.272 . S
O186 Co182 2.004 . S
O186 C191 1.259 . S
Co187 O188 2.061 . S
Co187 O193 2.052 . S
Co187 O195 2.135 . S
O188 Co187 2.061 . S
O188 C191 1.235 . S
C189 O192 1.238 . S
C189 O193 1.241 . S
C190 O183 1.247 . S
C190 O184 1.261 . S
C191 O186 1.259 . S
C191 O188 1.235 . S
O192 Co182 2.021 . S
O192 C189 1.238 . S
O193 Co187 2.052 . S
O193 C189 1.241 . S
O194 Co182 2.137 . S
O194 C185 1.247 . S
O195 Co182 2.244 . S
O195 C185 1.272 . S
O195 Co187 2.135 . S
Co196 O197 2.216 . S
Co196 O198 2.091 . S
Co196 O200 2.004 . S
Co196 O206 2.021 . S
Co196 O208 2.137 . S
Co196 O209 2.244 . S
O197 Co196 2.216 . S
O197 C204 1.247 . S
O198 Co196 2.091 . S
O198 C204 1.261 . S
C199 O208 1.247 . S
C199 O209 1.272 . S
O200 Co196 2.004 . S
O200 C205 1.259 . S
Co201 O202 2.061 . S
Co201 O207 2.052 . S
Co201 O209 2.135 . S
O202 Co201 2.061 . S
O202 C205 1.235 . S
C203 O206 1.238 . S
C203 O207 1.241 . S
C204 O197 1.247 . S
C204 O198 1.261 . S
C205 O200 1.259 . S
C205 O202 1.235 . S
O206 Co196 2.021 . S
O206 C203 1.238 . S
O207 Co201 2.052 . S
O207 C203 1.241 . S
O208 Co196 2.137 . S
O208 C199 1.247 . S
O209 Co196 2.244 . S
O209 C199 1.272 . S
O209 Co201 2.135 . S
Co210 O211 2.216 . S
Co210 O212 2.091 . S
Co210 O214 2.004 . S
Co210 O220 2.021 . S
Co210 O222 2.137 . S
Co210 O223 2.244 . S
O211 Co210 2.216 . S
O211 C218 1.247 . S
O212 Co210 2.091 . S
O212 C218 1.261 . S
C213 O222 1.247 . S
C213 O223 1.272 . S
O214 Co210 2.004 . S
O214 C219 1.259 . S
Co215 O216 2.061 . S
Co215 O221 2.052 . S
Co215 O223 2.135 . S
O216 Co215 2.061 . S
O216 C219 1.235 . S
C217 O220 1.238 . S
C217 O221 1.241 . S
C218 O211 1.247 . S
C218 O212 1.261 . S
C219 O214 1.259 . S
C219 O216 1.235 . S
O220 Co210 2.021 . S
O220 C217 1.238 . S
O221 Co215 2.052 . S
O221 C217 1.241 . S
O222 Co210 2.137 . S
O222 C213 1.247 . S
O223 Co210 2.244 . S
O223 C213 1.272 . S
O223 Co215 2.135 . S
Co224 O225 2.216 . S
Co224 O226 2.091 . S
Co224 O228 2.004 . S
Co224 O234 2.021 . S
Co224 O236 2.137 . S
Co224 O237 2.244 . S
O225 Co224 2.216 . S
O225 C232 1.247 . S
O226 Co224 2.091 . S
O226 C232 1.261 . S
C227 O236 1.247 . S
C227 O237 1.272 . S
O228 Co224 2.004 . S
O228 C233 1.259 . S
Co229 O230 2.061 . S
Co229 O235 2.052 . S
Co229 O237 2.135 . S
O230 Co229 2.061 . S
O230 C233 1.235 . S
C231 O234 1.238 . S
C231 O235 1.241 . S
C232 O225 1.247 . S
C232 O226 1.261 . S
C233 O228 1.259 . S
C233 O230 1.235 . S
O234 Co224 2.021 . S
O234 C231 1.238 . S
O235 Co229 2.052 . S
O235 C231 1.241 . S
O236 Co224 2.137 . S
O236 C227 1.247 . S
O237 Co224 2.244 . S
O237 C227 1.272 . S
O237 Co229 2.135 . S
Co238 O239 2.216 . S
Co238 O240 2.091 . S
Co238 O242 2.004 . S
Co238 O248 2.021 . S
Co238 O250 2.137 . S
Co238 O251 2.244 . S
O239 Co238 2.216 . S
O239 C246 1.247 . S
O240 Co238 2.091 . S
O240 C246 1.261 . S
C241 O250 1.247 . S
C241 O251 1.272 . S
O242 Co238 2.004 . S
O242 C247 1.259 . S
Co243 O244 2.061 . S
Co243 O249 2.052 . S
Co243 O251 2.135 . S
O244 Co243 2.061 . S
O244 C247 1.235 . S
C245 O248 1.238 . S
C245 O249 1.241 . S
C246 O239 1.247 . S
C246 O240 1.261 . S
C247 O242 1.259 . S
C247 O244 1.235 . S
O248 Co238 2.021 . S
O248 C245 1.238 . S
O249 Co243 2.052 . S
O249 C245 1.241 . S
O250 Co238 2.137 . S
O250 C241 1.247 . S
O251 Co238 2.244 . S
O251 C241 1.272 . S
O251 Co243 2.135 . S
Co252 O253 2.216 . S
Co252 O254 2.091 . S
Co252 O256 2.004 . S
Co252 O262 2.021 . S
Co252 O264 2.137 . S
Co252 O265 2.244 . S
O253 Co252 2.216 . S
O253 C260 1.247 . S
O254 Co252 2.091 . S
O254 C260 1.261 . S
C255 O264 1.247 . S
C255 O265 1.272 . S
O256 Co252 2.004 . S
O256 C261 1.259 . S
Co257 O258 2.061 . S
Co257 O263 2.052 . S
Co257 O265 2.135 . S
O258 Co257 2.061 . S
O258 C261 1.235 . S
C259 O262 1.238 . S
C259 O263 1.241 . S
C260 O253 1.247 . S
C260 O254 1.261 . S
C261 O256 1.259 . S
C261 O258 1.235 . S
O262 Co252 2.021 . S
O262 C259 1.238 . S
O263 Co257 2.052 . S
O263 C259 1.241 . S
O264 Co252 2.137 . S
O264 C255 1.247 . S
O265 Co252 2.244 . S
O265 C255 1.272 . S
O265 Co257 2.135 . S
Co266 O267 2.216 . S
Co266 O268 2.091 . S
Co266 O270 2.004 . S
Co266 O276 2.021 . S
Co266 O278 2.137 . S
Co266 O279 2.244 . S
O267 Co266 2.216 . S
O267 C274 1.247 . S
O268 Co266 2.091 . S
O268 C274 1.261 . S
C269 O278 1.247 . S
C269 O279 1.272 . S
O270 Co266 2.004 . S
O270 C275 1.259 . S
Co271 O272 2.061 . S
Co271 O277 2.052 . S
Co271 O279 2.135 . S
O272 Co271 2.061 . S
O272 C275 1.235 . S
C273 O276 1.238 . S
C273 O277 1.241 . S
C274 O267 1.247 . S
C274 O268 1.261 . S
C275 O270 1.259 . S
C275 O272 1.235 . S
O276 Co266 2.021 . S
O276 C273 1.238 . S
O277 Co271 2.052 . S
O277 C273 1.241 . S
O278 Co266 2.137 . S
O278 C269 1.247 . S
O279 Co266 2.244 . S
O279 C269 1.272 . S
O279 Co271 2.135 . S
Co280 O281 2.216 . S
Co280 O282 2.091 . S
Co280 O284 2.004 . S
Co280 O290 2.021 . S
Co280 O292 2.137 . S
Co280 O293 2.244 . S
O281 Co280 2.216 . S
O281 C288 1.247 . S
O282 Co280 2.091 . S
O282 C288 1.261 . S
C283 O292 1.247 . S
C283 O293 1.272 . S
O284 Co280 2.004 . S
O284 C289 1.259 . S
Co285 O286 2.061 . S
Co285 O291 2.052 . S
Co285 O293 2.135 . S
O286 Co285 2.061 . S
O286 C289 1.235 . S
C287 O290 1.238 . S
C287 O291 1.241 . S
C288 O281 1.247 . S
C288 O282 1.261 . S
C289 O284 1.259 . S
C289 O286 1.235 . S
O290 Co280 2.021 . S
O290 C287 1.238 . S
O291 Co285 2.052 . S
O291 C287 1.241 . S
O292 Co280 2.137 . S
O292 C283 1.247 . S
O293 Co280 2.244 . S
O293 C283 1.272 . S
O293 Co285 2.135 . S
Co294 O295 2.216 . S
Co294 O296 2.091 . S
Co294 O298 2.004 . S
Co294 O304 2.021 . S
Co294 O306 2.137 . S
Co294 O307 2.244 . S
O295 Co294 2.216 . S
O295 C302 1.247 . S
O296 Co294 2.091 . S
O296 C302 1.261 . S
C297 O306 1.247 . S
C297 O307 1.272 . S
O298 Co294 2.004 . S
O298 C303 1.259 . S
Co299 O300 2.061 . S
Co299 O305 2.052 . S
Co299 O307 2.135 . S
O300 Co299 2.061 . S
O300 C303 1.235 . S
C301 O304 1.238 . S
C301 O305 1.241 . S
C302 O295 1.247 . S
C302 O296 1.261 . S
C303 O298 1.259 . S
C303 O300 1.235 . S
O304 Co294 2.021 . S
O304 C301 1.238 . S
O305 Co299 2.052 . S
O305 C301 1.241 . S
O306 Co294 2.137 . S
O306 C297 1.247 . S
O307 Co294 2.244 . S
O307 C297 1.272 . S
O307 Co299 2.135 . S
Co308 O309 2.216 . S
Co308 O310 2.091 . S
Co308 O312 2.004 . S
Co308 O318 2.021 . S
Co308 O320 2.137 . S
Co308 O321 2.244 . S
O309 Co308 2.216 . S
O309 C316 1.247 . S
O310 Co308 2.091 . S
O310 C316 1.261 . S
C311 O320 1.247 . S
C311 O321 1.272 . S
O312 Co308 2.004 . S
O312 C317 1.259 . S
Co313 O314 2.061 . S
Co313 O319 2.052 . S
Co313 O321 2.135 . S
O314 Co313 2.061 . S
O314 C317 1.235 . S
C315 O318 1.238 . S
C315 O319 1.241 . S
C316 O309 1.247 . S
C316 O310 1.261 . S
C317 O312 1.259 . S
C317 O314 1.235 . S
O318 Co308 2.021 . S
O318 C315 1.238 . S
O319 Co313 2.052 . S
O319 C315 1.241 . S
O320 Co308 2.137 . S
O320 C311 1.247 . S
O321 Co308 2.244 . S
O321 C311 1.272 . S
O321 Co313 2.135 . S
Co322 O323 2.216 . S
Co322 O324 2.091 . S
Co322 O326 2.004 . S
Co322 O332 2.021 . S
Co322 O334 2.137 . S
Co322 O335 2.244 . S
O323 Co322 2.216 . S
O323 C330 1.247 . S
O324 Co322 2.091 . S
O324 C330 1.261 . S
C325 O334 1.247 . S
C325 O335 1.272 . S
O326 Co322 2.004 . S
O326 C331 1.259 . S
Co327 O328 2.061 . S
Co327 O333 2.052 . S
Co327 O335 2.135 . S
O328 Co327 2.061 . S
O328 C331 1.235 . S
C329 O332 1.238 . S
C329 O333 1.241 . S
C330 O323 1.247 . S
C330 O324 1.261 . S
C331 O326 1.259 . S
C331 O328 1.235 . S
O332 Co322 2.021 . S
O332 C329 1.238 . S
O333 Co327 2.052 . S
O333 C329 1.241 . S
O334 Co322 2.137 . S
O334 C325 1.247 . S
O335 Co322 2.244 . S
O335 C325 1.272 . S
O335 Co327 2.135 . S
Co336 O337 2.216 . S
Co336 O338 2.091 . S
Co336 O340 2.004 . S
Co336 O346 2.021 . S
Co336 O348 2.137 . S
Co336 O349 2.244 . S
O337 Co336 2.216 . S
O337 C344 1.247 . S
O338 Co336 2.091 . S
O338 C344 1.261 . S
C339 O348 1.247 . S
C339 O349 1.272 . S
O340 Co336 2.004 . S
O340 C345 1.259 . S
Co341 O342 2.061 . S
Co341 O347 2.052 . S
Co341 O349 2.135 . S
O342 Co341 2.061 . S
O342 C345 1.235 . S
C343 O346 1.238 . S
C343 O347 1.241 . S
C344 O337 1.247 . S
C344 O338 1.261 . S
C345 O340 1.259 . S
C345 O342 1.235 . S
O346 Co336 2.021 . S
O346 C343 1.238 . S
O347 Co341 2.052 . S
O347 C343 1.241 . S
O348 Co336 2.137 . S
O348 C339 1.247 . S
O349 Co336 2.244 . S
O349 C339 1.272 . S
O349 Co341 2.135 . S
Co350 O351 2.216 . S
Co350 O352 2.091 . S
Co350 O354 2.004 . S
Co350 O360 2.021 . S
Co350 O362 2.137 . S
Co350 O363 2.244 . S
O351 Co350 2.216 . S
O351 C358 1.247 . S
O352 Co350 2.091 . S
O352 C358 1.261 . S
C353 O362 1.247 . S
C353 O363 1.272 . S
O354 Co350 2.004 . S
O354 C359 1.259 . S
Co355 O356 2.061 . S
Co355 O361 2.052 . S
Co355 O363 2.135 . S
O356 Co355 2.061 . S
O356 C359 1.235 . S
C357 O360 1.238 . S
C357 O361 1.241 . S
C358 O351 1.247 . S
C358 O352 1.261 . S
C359 O354 1.259 . S
C359 O356 1.235 . S
O360 Co350 2.021 . S
O360 C357 1.238 . S
O361 Co355 2.052 . S
O361 C357 1.241 . S
O362 Co350 2.137 . S
O362 C353 1.247 . S
O363 Co350 2.244 . S
O363 C353 1.272 . S
O363 Co355 2.135 . S
Co364 O365 2.216 . S
Co364 O366 2.091 . S
Co364 O368 2.004 . S
Co364 O374 2.021 . S
Co364 O376 2.137 . S
Co364 O377 2.244 . S
O365 Co364 2.216 . S
O365 C372 1.247 . S
O366 Co364 2.091 . S
O366 C372 1.261 . S
C367 O376 1.247 . S
C367 O377 1.272 . S
O368 Co364 2.004 . S
O368 C373 1.259 . S
Co369 O370 2.061 . S
Co369 O375 2.052 . S
Co369 O377 2.135 . S
O370 Co369 2.061 . S
O370 C373 1.235 . S
C371 O374 1.238 . S
C371 O375 1.241 . S
C372 O365 1.247 . S
C372 O366 1.261 . S
C373 O368 1.259 . S
C373 O370 1.235 . S
O374 Co364 2.021 . S
O374 C371 1.238 . S
O375 Co369 2.052 . S
O375 C371 1.241 . S
O376 Co364 2.137 . S
O376 C367 1.247 . S
O377 Co364 2.244 . S
O377 C367 1.272 . S
O377 Co369 2.135 . S
Co378 O379 2.216 . S
Co378 O380 2.091 . S
Co378 O382 2.004 . S
Co378 O388 2.021 . S
Co378 O390 2.137 . S
Co378 O391 2.244 . S
O379 Co378 2.216 . S
O379 C386 1.247 . S
O380 Co378 2.091 . S
O380 C386 1.261 . S
C381 O390 1.247 . S
C381 O391 1.272 . S
O382 Co378 2.004 . S
O382 C387 1.259 . S
Co383 O384 2.061 . S
Co383 O389 2.052 . S
Co383 O391 2.135 . S
O384 Co383 2.061 . S
O384 C387 1.235 . S
C385 O388 1.238 . S
C385 O389 1.241 . S
C386 O379 1.247 . S
C386 O380 1.261 . S
C387 O382 1.259 . S
C387 O384 1.235 . S
O388 Co378 2.021 . S
O388 C385 1.238 . S
O389 Co383 2.052 . S
O389 C385 1.241 . S
O390 Co378 2.137 . S
O390 C381 1.247 . S
O391 Co378 2.244 . S
O391 C381 1.272 . S
O391 Co383 2.135 . S
Co392 O393 2.216 . S
Co392 O394 2.091 . S
Co392 O396 2.004 . S
Co392 O402 2.021 . S
Co392 O404 2.137 . S
Co392 O405 2.244 . S
O393 Co392 2.216 . S
O393 C400 1.247 . S
O394 Co392 2.091 . S
O394 C400 1.261 . S
C395 O404 1.247 . S
C395 O405 1.272 . S
O396 Co392 2.004 . S
O396 C401 1.259 . S
Co397 O398 2.061 . S
Co397 O403 2.052 . S
Co397 O405 2.135 . S
O398 Co397 2.061 . S
O398 C401 1.235 . S
C399 O402 1.238 . S
C399 O403 1.241 . S
C400 O393 1.247 . S
C400 O394 1.261 . S
C401 O396 1.259 . S
C401 O398 1.235 . S
O402 Co392 2.021 . S
O402 C399 1.238 . S
O403 Co397 2.052 . S
O403 C399 1.241 . S
O404 Co392 2.137 . S
O404 C395 1.247 . S
O405 Co392 2.244 . S
O405 C395 1.272 . S
O405 Co397 2.135 . S
Co406 O407 2.216 . S
Co406 O408 2.091 . S
Co406 O410 2.004 . S
Co406 O416 2.021 . S
Co406 O418 2.137 . S
Co406 O419 2.244 . S
O407 Co406 2.216 . S
O407 C414 1.247 . S
O408 Co406 2.091 . S
O408 C414 1.261 . S
C409 O418 1.247 . S
C409 O419 1.272 . S
O410 Co406 2.004 . S
O410 C415 1.259 . S
Co411 O412 2.061 . S
Co411 O417 2.052 . S
Co411 O419 2.135 . S
O412 Co411 2.061 . S
O412 C415 1.235 . S
C413 O416 1.238 . S
C413 O417 1.241 . S
C414 O407 1.247 . S
C414 O408 1.261 . S
C415 O410 1.259 . S
C415 O412 1.235 . S
O416 Co406 2.021 . S
O416 C413 1.238 . S
O417 Co411 2.052 . S
O417 C413 1.241 . S
O418 Co406 2.137 . S
O418 C409 1.247 . S
O419 Co406 2.244 . S
O419 C409 1.272 . S
O419 Co411 2.135 . S
Co420 O421 2.216 . S
Co420 O422 2.091 . S
Co420 O424 2.004 . S
Co420 O430 2.021 . S
Co420 O432 2.137 . S
Co420 O433 2.244 . S
O421 Co420 2.216 . S
O421 C428 1.247 . S
O422 Co420 2.091 . S
O422 C428 1.261 . S
C423 O432 1.247 . S
C423 O433 1.272 . S
O424 Co420 2.004 . S
O424 C429 1.259 . S
Co425 O426 2.061 . S
Co425 O431 2.052 . S
Co425 O433 2.135 . S
O426 Co425 2.061 . S
O426 C429 1.235 . S
C427 O430 1.238 . S
C427 O431 1.241 . S
C428 O421 1.247 . S
C428 O422 1.261 . S
C429 O424 1.259 . S
C429 O426 1.235 . S
O430 Co420 2.021 . S
O430 C427 1.238 . S
O431 Co425 2.052 . S
O431 C427 1.241 . S
O432 Co420 2.137 . S
O432 C423 1.247 . S
O433 Co420 2.244 . S
O433 C423 1.272 . S
O433 Co425 2.135 . S
Co434 O435 2.216 . S
Co434 O436 2.091 . S
Co434 O438 2.004 . S
Co434 O444 2.021 . S
Co434 O446 2.137 . S
Co434 O447 2.244 . S
O435 Co434 2.216 . S
O435 C442 1.247 . S
O436 Co434 2.091 . S
O436 C442 1.261 . S
C437 O446 1.247 . S
C437 O447 1.272 . S
O438 Co434 2.004 . S
O438 C443 1.259 . S
Co439 O440 2.061 . S
Co439 O445 2.052 . S
Co439 O447 2.135 . S
O440 Co439 2.061 . S
O440 C443 1.235 . S
C441 O444 1.238 . S
C441 O445 1.241 . S
C442 O435 1.247 . S
C442 O436 1.261 . S
C443 O438 1.259 . S
C443 O440 1.235 . S
O444 Co434 2.021 . S
O444 C441 1.238 . S
O445 Co439 2.052 . S
O445 C441 1.241 . S
O446 Co434 2.137 . S
O446 C437 1.247 . S
O447 Co434 2.244 . S
O447 C437 1.272 . S
O447 Co439 2.135 . S
Co448 O449 2.216 . S
Co448 O450 2.091 . S
Co448 O452 2.004 . S
Co448 O458 2.021 . S
Co448 O460 2.137 . S
Co448 O461 2.244 . S
O449 Co448 2.216 . S
O449 C456 1.247 . S
O450 Co448 2.091 . S
O450 C456 1.261 . S
C451 O460 1.247 . S
C451 O461 1.272 . S
O452 Co448 2.004 . S
O452 C457 1.259 . S
Co453 O454 2.061 . S
Co453 O459 2.052 . S
Co453 O461 2.135 . S
O454 Co453 2.061 . S
O454 C457 1.235 . S
C455 O458 1.238 . S
C455 O459 1.241 . S
C456 O449 1.247 . S
C456 O450 1.261 . S
C457 O452 1.259 . S
C457 O454 1.235 . S
O458 Co448 2.021 . S
O458 C455 1.238 . S
O459 Co453 2.052 . S
O459 C455 1.241 . S
O460 Co448 2.137 . S
O460 C451 1.247 . S
O461 Co448 2.244 . S
O461 C451 1.272 . S
O461 Co453 2.135 . S
Co462 O463 2.216 . S
Co462 O464 2.091 . S
Co462 O466 2.004 . S
Co462 O472 2.021 . S
Co462 O474 2.137 . S
Co462 O475 2.244 . S
O463 Co462 2.216 . S
O463 C470 1.247 . S
O464 Co462 2.091 . S
O464 C470 1.261 . S
C465 O474 1.247 . S
C465 O475 1.272 . S
O466 Co462 2.004 . S
O466 C471 1.259 . S
Co467 O468 2.061 . S
Co467 O473 2.052 . S
Co467 O475 2.135 . S
O468 Co467 2.061 . S
O468 C471 1.235 . S
C469 O472 1.238 . S
C469 O473 1.241 . S
C470 O463 1.247 . S
C470 O464 1.261 . S
C471 O466 1.259 . S
C471 O468 1.235 . S
O472 Co462 2.021 . S
O472 C469 1.238 . S
O473 Co467 2.052 . S
O473 C469 1.241 . S
O474 Co462 2.137 . S
O474 C465 1.247 . S
O475 Co462 2.244 . S
O475 C465 1.272 . S
O475 Co467 2.135 . S
Co476 O477 2.216 . S
Co476 O478 2.091 . S
Co476 O480 2.004 . S
Co476 O486 2.021 . S
Co476 O488 2.137 . S
Co476 O489 2.244 . S
O477 Co476 2.216 . S
O477 C484 1.247 . S
O478 Co476 2.091 . S
O478 C484 1.261 . S
C479 O488 1.247 . S
C479 O489 1.272 . S
O480 Co476 2.004 . S
O480 C485 1.259 . S
Co481 O482 2.061 . S
Co481 O487 2.052 . S
Co481 O489 2.135 . S
O482 Co481 2.061 . S
O482 C485 1.235 . S
C483 O486 1.238 . S
C483 O487 1.241 . S
C484 O477 1.247 . S
C484 O478 1.261 . S
C485 O480 1.259 . S
C485 O482 1.235 . S
O486 Co476 2.021 . S
O486 C483 1.238 . S
O487 Co481 2.052 . S
O487 C483 1.241 . S
O488 Co476 2.137 . S
O488 C479 1.247 . S
O489 Co476 2.244 . S
O489 C479 1.272 . S
O489 Co481 2.135 . S
Co490 O491 2.216 . S
Co490 O492 2.091 . S
Co490 O494 2.004 . S
Co490 O500 2.021 . S
Co490 O502 2.137 . S
Co490 O503 2.244 . S
O491 Co490 2.216 . S
O491 C498 1.247 . S
O492 Co490 2.091 . S
O492 C498 1.261 . S
C493 O502 1.247 . S
C493 O503 1.272 . S
O494 Co490 2.004 . S
O494 C499 1.259 . S
Co495 O496 2.061 . S
Co495 O501 2.052 . S
Co495 O503 2.135 . S
O496 Co495 2.061 . S
O496 C499 1.235 . S
C497 O500 1.238 . S
C497 O501 1.241 . S
C498 O491 1.247 . S
C498 O492 1.261 . S
C499 O494 1.259 . S
C499 O496 1.235 . S
O500 Co490 2.021 . S
O500 C497 1.238 . S
O501 Co495 2.052 . S
O501 C497 1.241 . S
O502 Co490 2.137 . S
O502 C493 1.247 . S
O503 Co490 2.244 . S
O503 C493 1.272 . S
O503 Co495 2.135 . S
H504 C516 0.930 . S
H505 C518 0.930 . S
H506 C519 0.930 . S
H507 C523 0.959 . S
H508 C523 0.959 . S
H509 C523 0.961 . S
H510 C524 0.970 . S
H511 C524 0.961 . S
H512 C524 0.959 . S
H513 C527 0.929 . S
H514 C528 0.931 . S
H515 C530 0.930 . S
C516 H504 0.930 . S
C516 C517 1.399 . S
C516 C521 1.399 . S
C517 C516 1.399 . S
C517 C518 1.376 . S
C518 H505 0.930 . S
C518 C517 1.376 . S
C518 C519 1.388 . S
C519 H506 0.930 . S
C519 C518 1.388 . S
C519 C520 1.390 . S
C520 C519 1.390 . S
C520 C521 1.394 . S
C520 C526 1.465 1_565 S
C521 C516 1.399 . S
C521 C520 1.394 . S
C521 C522 1.516 . S
C522 C521 1.516 . S
C522 C523 1.502 . S
C522 C524 1.561 1_565 S
C522 C525 1.526 1_565 S
C523 H507 0.959 . S
C523 H508 0.959 . S
C523 H509 0.961 . S
C523 C522 1.502 . S
C524 H510 0.970 . S
C524 H511 0.961 . S
C524 H512 0.959 . S
C524 C522 1.561 1_545 S
C525 C522 1.526 1_545 S
C525 C526 1.396 . S
C525 C530 1.390 . S
C526 C520 1.465 1_545 S
C526 C525 1.396 . S
C526 C527 1.399 . S
C527 H513 0.929 . S
C527 C526 1.399 . S
C527 C528 1.385 . S
C528 H514 0.931 . S
C528 C527 1.385 . S
C528 C529 1.389 . S
C529 C528 1.389 . S
C529 C530 1.387 . S
C530 H515 0.930 . S
C530 C525 1.390 . S
C530 C529 1.387 . S
H531 C543 0.930 . S
H532 C545 0.930 . S
H533 C546 0.930 . S
H534 C550 0.959 . S
H535 C550 0.959 . S
H536 C550 0.961 . S
H537 C551 0.960 . S
H538 C551 0.961 . S
H539 C551 0.959 . S
H540 C554 0.923 1_655 S
H541 C555 0.931 . S
H542 C557 0.930 . S
C543 H531 0.930 . S
C543 C544 1.399 . S
C543 C548 1.399 . S
C544 C543 1.399 . S
C544 C545 1.376 . S
C545 H532 0.930 . S
C545 C544 1.376 . S
C545 C546 1.388 . S
C546 H533 0.930 . S
C546 C545 1.388 . S
C546 C547 1.390 . S
C547 C546 1.390 . S
C547 C548 1.394 . S
C547 C553 1.436 1_655 S
C548 C543 1.399 . S
C548 C547 1.394 . S
C548 C549 1.516 1_655 S
C549 C548 1.516 1_455 S
C549 C550 1.502 . S
C549 C551 1.561 . S
C549 C552 1.526 . S
C550 H534 0.959 . S
C550 H535 0.959 . S
C550 H536 0.961 . S
C550 C549 1.502 . S
C551 H537 0.960 . S
C551 H538 0.961 . S
C551 H539 0.959 . S
C551 C549 1.561 . S
C552 C549 1.526 . S
C552 C553 1.425 . S
C552 C557 1.390 . S
C553 C547 1.436 1_455 S
C553 C552 1.425 . S
C553 C554 1.403 . S
C554 H540 0.923 1_455 S
C554 C553 1.403 . S
C554 C555 1.393 . S
C555 H541 0.931 . S
C555 C554 1.393 . S
C555 C556 1.389 . S
C556 C555 1.389 . S
C556 C557 1.387 . S
C557 H542 0.930 . S
C557 C552 1.390 . S
C557 C556 1.387 . S
H558 C570 0.930 . S
H559 C572 0.930 . S
H560 C573 0.930 . S
H561 C577 0.959 . S
H562 C577 0.959 . S
H563 C577 0.961 . S
H564 C578 0.960 . S
H565 C578 0.961 . S
H566 C578 0.959 . S
H567 C581 0.929 . S
H568 C582 0.931 . S
H569 C584 0.930 . S
C570 H558 0.930 . S
C570 C571 1.399 . S
C570 C575 1.399 . S
C571 C570 1.399 . S
C571 C572 1.376 . S
C572 H559 0.930 . S
C572 C571 1.376 . S
C572 C573 1.388 . S
C573 H560 0.930 . S
C573 C572 1.388 . S
C573 C574 1.390 . S
C574 C573 1.390 . S
C574 C575 1.394 . S
C574 C580 1.465 . S
C575 C570 1.399 . S
C575 C574 1.394 . S
C575 C576 1.516 . S
C576 C575 1.516 . S
C576 C577 1.502 . S
C576 C578 1.561 . S
C576 C579 1.526 . S
C577 H561 0.959 . S
C577 H562 0.959 . S
C577 H563 0.961 . S
C577 C576 1.502 . S
C578 H564 0.960 . S
C578 H565 0.961 . S
C578 H566 0.959 . S
C578 C576 1.561 . S
C579 C576 1.526 . S
C579 C580 1.396 . S
C579 C584 1.390 . S
C580 C574 1.465 . S
C580 C579 1.396 . S
C580 C581 1.399 . S
C581 H567 0.929 . S
C581 C580 1.399 . S
C581 C582 1.385 . S
C582 H568 0.931 . S
C582 C581 1.385 . S
C582 C583 1.389 . S
C583 C582 1.389 . S
C583 C584 1.387 . S
C584 H569 0.930 . S
C584 C579 1.390 . S
C584 C583 1.387 . S
H585 C597 0.930 . S
H586 C599 0.930 . S
H587 C600 0.930 . S
H588 C604 0.959 . S
H589 C604 0.959 . S
H590 C604 0.961 . S
H591 C605 0.960 . S
H592 C605 0.961 . S
H593 C605 0.959 . S
H594 C608 0.929 1_565 S
H595 C609 0.931 . S
H596 C611 0.930 . S
C597 H585 0.930 . S
C597 C598 1.399 . S
C597 C602 1.399 . S
C598 C597 1.399 . S
C598 C599 1.376 . S
C599 H586 0.930 . S
C599 C598 1.376 . S
C599 C600 1.388 . S
C600 H587 0.930 . S
C600 C599 1.388 . S
C600 C601 1.390 . S
C601 C600 1.390 . S
C601 C602 1.394 . S
C601 C607 1.465 1_565 S
C602 C597 1.399 . S
C602 C601 1.394 . S
C602 C603 1.516 1_565 S
C603 C602 1.516 1_545 S
C603 C604 1.502 . S
C603 C605 1.561 . S
C603 C606 1.526 . S
C604 H588 0.959 . S
C604 H589 0.959 . S
C604 H590 0.961 . S
C604 C603 1.502 . S
C605 H591 0.960 . S
C605 H592 0.961 . S
C605 H593 0.959 . S
C605 C603 1.561 . S
C606 C603 1.526 . S
C606 C607 1.396 . S
C606 C611 1.390 . S
C607 C601 1.465 1_545 S
C607 C606 1.396 . S
C607 C608 1.399 . S
C608 H594 0.929 1_545 S
C608 C607 1.399 . S
C608 C609 1.385 . S
C609 H595 0.931 . S
C609 C608 1.385 . S
C609 C610 1.389 . S
C610 C609 1.389 . S
C610 C611 1.387 . S
C611 H596 0.930 . S
C611 C606 1.390 . S
C611 C610 1.387 . S
H612 C624 0.930 . S
H613 C626 0.930 . S
H614 C627 0.931 1_655 S
H615 C631 0.959 . S
H616 C631 0.959 . S
H617 C631 0.961 . S
H618 C632 0.960 . S
H619 C632 0.961 . S
H620 C632 0.959 . S
H621 C635 0.929 . S
H622 C636 0.931 . S
H623 C638 0.930 . S
C624 H612 0.930 . S
C624 C625 1.399 . S
C624 C629 1.399 . S
C625 C624 1.399 . S
C625 C626 1.376 . S
C626 H613 0.930 . S
C626 C625 1.376 . S
C626 C627 1.387 . S
C627 H614 0.931 1_455 S
C627 C626 1.387 . S
C627 C628 1.391 . S
C628 C627 1.391 . S
C628 C629 1.445 . S
C628 C634 1.421 1_455 S
C629 C624 1.399 . S
C629 C628 1.445 . S
C629 C630 1.516 . S
C630 C629 1.516 . S
C630 C631 1.502 . S
C630 C632 1.561 . S
C630 C633 1.526 1_455 S
C631 H615 0.959 . S
C631 H616 0.959 . S
C631 H617 0.961 . S
C631 C630 1.502 . S
C632 H618 0.960 . S
C632 H619 0.961 . S
C632 H620 0.959 . S
C632 C630 1.561 . S
C633 C630 1.526 1_655 S
C633 C634 1.396 . S
C633 C638 1.390 . S
C634 C628 1.421 1_655 S
C634 C633 1.396 . S
C634 C635 1.399 . S
C635 H621 0.929 . S
C635 C634 1.399 . S
C635 C636 1.385 . S
C636 H622 0.931 . S
C636 C635 1.385 . S
C636 C637 1.389 . S
C637 C636 1.389 . S
C637 C638 1.387 . S
C638 H623 0.930 . S
C638 C633 1.390 . S
C638 C637 1.387 . S
H639 C651 0.930 . S
H640 C653 0.930 . S
H641 C654 0.930 . S
H642 C658 0.959 . S
H643 C658 0.959 . S
H644 C658 0.961 . S
H645 C659 0.960 . S
H646 C659 0.961 . S
H647 C659 0.959 . S
H648 C662 0.929 . S
H649 C663 0.931 . S
H650 C665 0.930 . S
C651 H639 0.930 . S
C651 C652 1.399 . S
C651 C656 1.399 . S
C652 C651 1.399 . S
C652 C653 1.376 . S
C653 H640 0.930 . S
C653 C652 1.376 . S
C653 C654 1.388 . S
C654 H641 0.930 . S
C654 C653 1.388 . S
C654 C655 1.390 . S
C655 C654 1.390 . S
C655 C656 1.394 . S
C655 C661 1.465 . S
C656 C651 1.399 . S
C656 C655 1.394 . S
C656 C657 1.516 . S
C657 C656 1.516 . S
C657 C658 1.502 . S
C657 C659 1.561 . S
C657 C660 1.526 . S
C658 H642 0.959 . S
C658 H643 0.959 . S
C658 H644 0.961 . S
C658 C657 1.502 . S
C659 H645 0.960 . S
C659 H646 0.961 . S
C659 H647 0.959 . S
C659 C657 1.561 . S
C660 C657 1.526 . S
C660 C661 1.396 . S
C660 C665 1.390 . S
C661 C655 1.465 . S
C661 C660 1.396 . S
C661 C662 1.399 . S
C662 H648 0.929 . S
C662 C661 1.399 . S
C662 C663 1.385 . S
C663 H649 0.931 . S
C663 C662 1.385 . S
C663 C664 1.389 . S
C664 C663 1.389 . S
C664 C665 1.387 . S
C665 H650 0.930 . S
C665 C660 1.390 . S
C665 C664 1.387 . S
H666 C678 0.930 . S
H667 C680 0.930 . S
H668 C681 0.930 . S
H669 C685 0.959 . S
H670 C685 0.959 . S
H671 C685 0.961 . S
H672 C686 0.960 . S
H673 C686 0.961 . S
H674 C686 0.959 . S
H675 C689 0.929 . S
H676 C690 0.931 . S
H677 C692 0.930 . S
C678 H666 0.930 . S
C678 C679 1.399 . S
C678 C683 1.399 . S
C679 C678 1.399 . S
C679 C680 1.376 . S
C680 H667 0.930 . S
C680 C679 1.376 . S
C680 C681 1.388 . S
C681 H668 0.930 . S
C681 C680 1.388 . S
C681 C682 1.390 . S
C682 C681 1.390 . S
C682 C683 1.394 . S
C682 C688 1.465 . S
C683 C678 1.399 . S
C683 C682 1.394 . S
C683 C684 1.516 . S
C684 C683 1.516 . S
C684 C685 1.502 . S
C684 C686 1.561 . S
C684 C687 1.526 . S
C685 H669 0.959 . S
C685 H670 0.959 . S
C685 H671 0.961 . S
C685 C684 1.502 . S
C686 H672 0.960 . S
C686 H673 0.961 . S
C686 H674 0.959 . S
C686 C684 1.561 . S
C687 C684 1.526 . S
C687 C688 1.396 . S
C687 C692 1.390 . S
C688 C682 1.465 . S
C688 C687 1.396 . S
C688 C689 1.399 . S
C689 H675 0.929 . S
C689 C688 1.399 . S
C689 C690 1.385 . S
C690 H676 0.931 . S
C690 C689 1.385 . S
C690 C691 1.389 . S
C691 C690 1.389 . S
C691 C692 1.387 . S
C692 H677 0.930 . S
C692 C687 1.390 . S
C692 C691 1.387 . S
H693 C705 0.930 . S
H694 C707 0.930 . S
H695 C708 0.930 . S
H696 C712 0.959 . S
H697 C712 0.959 . S
H698 C712 0.961 . S
H699 C713 0.960 . S
H700 C713 0.961 . S
H701 C713 0.959 . S
H702 C716 0.929 . S
H703 C717 0.931 . S
H704 C719 0.930 . S
C705 H693 0.930 . S
C705 C706 1.399 . S
C705 C710 1.399 . S
C706 C705 1.399 . S
C706 C707 1.376 . S
C707 H694 0.930 . S
C707 C706 1.376 . S
C707 C708 1.388 . S
C708 H695 0.930 . S
C708 C707 1.388 . S
C708 C709 1.390 . S
C709 C708 1.390 . S
C709 C710 1.394 . S
C709 C715 1.465 . S
C710 C705 1.399 . S
C710 C709 1.394 . S
C710 C711 1.516 . S
C711 C710 1.516 . S
C711 C712 1.502 . S
C711 C713 1.561 . S
C711 C714 1.526 . S
C712 H696 0.959 . S
C712 H697 0.959 . S
C712 H698 0.961 . S
C712 C711 1.502 . S
C713 H699 0.960 . S
C713 H700 0.961 . S
C713 H701 0.959 . S
C713 C711 1.561 . S
C714 C711 1.526 . S
C714 C715 1.396 . S
C714 C719 1.390 . S
C715 C709 1.465 . S
C715 C714 1.396 . S
C715 C716 1.399 . S
C716 H702 0.929 . S
C716 C715 1.399 . S
C716 C717 1.385 . S
C717 H703 0.931 . S
C717 C716 1.385 . S
C717 C718 1.389 . S
C718 C717 1.389 . S
C718 C719 1.387 . S
C719 H704 0.930 . S
C719 C714 1.390 . S
C719 C718 1.387 . S
H720 C732 0.930 . S
H721 C734 0.930 . S
H722 C735 0.930 . S
H723 C739 0.959 . S
H724 C739 0.959 . S
H725 C739 0.961 . S
H726 C740 0.960 . S
H727 C740 0.961 . S
H728 C740 0.959 . S
H729 C743 0.929 . S
H730 C744 0.931 . S
H731 C746 0.930 . S
C732 H720 0.930 . S
C732 C733 1.399 . S
C732 C737 1.399 . S
C733 C732 1.399 . S
C733 C734 1.376 . S
C734 H721 0.930 . S
C734 C733 1.376 . S
C734 C735 1.388 . S
C735 H722 0.930 . S
C735 C734 1.388 . S
C735 C736 1.390 . S
C736 C735 1.390 . S
C736 C737 1.394 . S
C736 C742 1.465 . S
C737 C732 1.399 . S
C737 C736 1.394 . S
C737 C738 1.516 . S
C738 C737 1.516 . S
C738 C739 1.502 . S
C738 C740 1.561 . S
C738 C741 1.526 . S
C739 H723 0.959 . S
C739 H724 0.959 . S
C739 H725 0.961 . S
C739 C738 1.502 . S
C740 H726 0.960 . S
C740 H727 0.961 . S
C740 H728 0.959 . S
C740 C738 1.561 . S
C741 C738 1.526 . S
C741 C742 1.396 . S
C741 C746 1.390 . S
C742 C736 1.465 . S
C742 C741 1.396 . S
C742 C743 1.399 . S
C743 H729 0.929 . S
C743 C742 1.399 . S
C743 C744 1.385 . S
C744 H730 0.931 . S
C744 C743 1.385 . S
C744 C745 1.389 . S
C745 C744 1.389 . S
C745 C746 1.387 . S
C746 H731 0.930 . S
C746 C741 1.390 . S
C746 C745 1.387 . S
H747 C759 0.930 . S
H748 C761 0.930 . S
H749 C762 0.930 . S
H750 C766 0.959 1_554 S
H751 C766 0.959 . S
H752 C766 0.961 1_554 S
H753 C767 0.960 . S
H754 C767 0.961 1_556 S
H755 C767 0.959 . S
H756 C770 0.929 . S
H757 C771 0.931 . S
H758 C773 0.930 . S
C759 H747 0.930 . S
C759 C760 1.399 . S
C759 C764 1.399 . S
C760 C759 1.399 . S
C760 C761 1.376 . S
C761 H748 0.930 . S
C761 C760 1.376 . S
C761 C762 1.388 . S
C762 H749 0.930 . S
C762 C761 1.388 . S
C762 C763 1.390 . S
C763 C762 1.390 . S
C763 C764 1.394 . S
C763 C769 1.465 . S
C764 C759 1.399 . S
C764 C763 1.394 . S
C764 C765 1.516 . S
C765 C764 1.516 . S
C765 C766 1.502 1_554 S
C765 C767 1.561 . S
C765 C768 1.526 . S
C766 H750 0.959 1_556 S
C766 H751 0.959 . S
C766 H752 0.961 1_556 S
C766 C765 1.502 1_556 S
C767 H753 0.960 . S
C767 H754 0.961 1_554 S
C767 H755 0.959 . S
C767 C765 1.561 . S
C768 C765 1.526 . S
C768 C769 1.396 . S
C768 C773 1.390 1_554 S
C769 C763 1.465 . S
C769 C768 1.396 . S
C769 C770 1.399 . S
C770 H756 0.929 . S
C770 C769 1.399 . S
C770 C771 1.385 . S
C771 H757 0.931 . S
C771 C770 1.385 . S
C771 C772 1.389 1_554 S
C772 C771 1.389 1_556 S
C772 C773 1.387 . S
C773 H758 0.930 . S
C773 C768 1.390 1_556 S
C773 C772 1.387 . S
H774 C786 0.930 . S
H775 C788 0.930 . S
H776 C789 0.930 . S
H777 C793 0.959 . S
H778 C793 0.959 . S
H779 C793 0.961 . S
H780 C794 0.960 . S
H781 C794 0.961 . S
H782 C794 0.959 . S
H783 C797 0.929 . S
H784 C798 0.931 . S
H785 C800 0.930 . S
C786 H774 0.930 . S
C786 C787 1.399 . S
C786 C791 1.399 . S
C787 C786 1.399 . S
C787 C788 1.376 . S
C788 H775 0.930 . S
C788 C787 1.376 . S
C788 C789 1.388 . S
C789 H776 0.930 . S
C789 C788 1.388 . S
C789 C790 1.390 . S
C790 C789 1.390 . S
C790 C791 1.394 . S
C790 C796 1.465 . S
C791 C786 1.399 . S
C791 C790 1.394 . S
C791 C792 1.516 . S
C792 C791 1.516 . S
C792 C793 1.502 . S
C792 C794 1.561 . S
C792 C795 1.526 . S
C793 H777 0.959 . S
C793 H778 0.959 . S
C793 H779 0.961 . S
C793 C792 1.502 . S
C794 H780 0.960 . S
C794 H781 0.961 . S
C794 H782 0.959 . S
C794 C792 1.561 . S
C795 C792 1.526 . S
C795 C796 1.396 . S
C795 C800 1.390 . S
C796 C790 1.465 . S
C796 C795 1.396 . S
C796 C797 1.399 1_554 S
C797 H783 0.929 . S
C797 C796 1.399 1_556 S
C797 C798 1.385 . S
C798 H784 0.931 . S
C798 C797 1.385 . S
C798 C799 1.389 . S
C799 C798 1.389 . S
C799 C800 1.387 1_556 S
C800 H785 0.930 . S
C800 C795 1.390 . S
C800 C799 1.387 1_554 S
H801 C813 0.930 . S
H802 C815 0.930 . S
H803 C816 0.930 . S
H804 C820 0.959 . S
H805 C820 0.959 . S
H806 C820 0.961 1_554 S
H807 C821 0.960 . S
H808 C821 0.961 . S
H809 C821 0.959 . S
H810 C824 0.929 . S
H811 C825 0.931 . S
H812 C827 0.930 . S
C813 H801 0.930 . S
C813 C814 1.399 . S
C813 C818 1.399 . S
C814 C813 1.399 . S
C814 C815 1.376 . S
C815 H802 0.930 . S
C815 C814 1.376 . S
C815 C816 1.388 . S
C816 H803 0.930 . S
C816 C815 1.388 . S
C816 C817 1.390 . S
C817 C816 1.390 . S
C817 C818 1.394 . S
C817 C823 1.465 . S
C818 C813 1.399 . S
C818 C817 1.394 . S
C818 C819 1.516 . S
C819 C818 1.516 . S
C819 C820 1.502 1_554 S
C819 C821 1.561 . S
C819 C822 1.526 . S
C820 H804 0.959 . S
C820 H805 0.959 . S
C820 H806 0.961 1_556 S
C820 C819 1.502 1_556 S
C821 H807 0.960 . S
C821 H808 0.961 . S
C821 H809 0.959 . S
C821 C819 1.561 . S
C822 C819 1.526 . S
C822 C823 1.396 . S
C822 C827 1.390 1_554 S
C823 C817 1.465 . S
C823 C822 1.396 . S
C823 C824 1.399 . S
C824 H810 0.929 . S
C824 C823 1.399 . S
C824 C825 1.385 . S
C825 H811 0.931 . S
C825 C824 1.385 . S
C825 C826 1.389 1_554 S
C826 C825 1.389 1_556 S
C826 C827 1.387 . S
C827 H812 0.930 . S
C827 C822 1.390 1_556 S
C827 C826 1.387 . S
H828 C840 0.930 . S
H829 C842 0.930 . S
H830 C843 0.930 . S
H831 C847 0.959 . S
H832 C847 0.959 . S
H833 C847 0.961 . S
H834 C848 0.960 . S
H835 C848 0.961 . S
H836 C848 0.959 . S
H837 C851 0.929 . S
H838 C852 0.931 . S
H839 C854 0.930 . S
C840 H828 0.930 . S
C840 C841 1.399 . S
C840 C845 1.399 . S
C841 C840 1.399 . S
C841 C842 1.376 . S
C842 H829 0.930 . S
C842 C841 1.376 . S
C842 C843 1.388 . S
C843 H830 0.930 . S
C843 C842 1.388 . S
C843 C844 1.390 . S
C844 C843 1.390 . S
C844 C845 1.394 . S
C844 C850 1.465 . S
C845 C840 1.399 . S
C845 C844 1.394 . S
C845 C846 1.516 . S
C846 C845 1.516 . S
C846 C847 1.502 . S
C846 C848 1.561 . S
C846 C849 1.526 . S
C847 H831 0.959 . S
C847 H832 0.959 . S
C847 H833 0.961 . S
C847 C846 1.502 . S
C848 H834 0.960 . S
C848 H835 0.961 . S
C848 H836 0.959 . S
C848 C846 1.561 . S
C849 C846 1.526 . S
C849 C850 1.396 . S
C849 C854 1.390 . S
C850 C844 1.465 . S
C850 C849 1.396 . S
C850 C851 1.399 1_556 S
C851 H837 0.929 . S
C851 C850 1.399 1_554 S
C851 C852 1.385 . S
C852 H838 0.931 . S
C852 C851 1.385 . S
C852 C853 1.389 . S
C853 C852 1.389 . S
C853 C854 1.387 1_554 S
C854 H839 0.930 . S
C854 C849 1.390 . S
C854 C853 1.387 1_556 S
H855 C867 0.930 . S
H856 C869 0.930 . S
H857 C870 0.930 . S
H858 C874 0.959 . S
H859 C874 0.959 . S
H860 C874 0.961 . S
H861 C875 0.960 . S
H862 C875 0.961 . S
H863 C875 0.959 . S
H864 C878 0.929 . S
H865 C879 0.931 . S
H866 C881 0.930 . S
C867 H855 0.930 . S
C867 C868 1.399 1_556 S
C867 C872 1.399 . S
C868 C867 1.399 1_554 S
C868 C869 1.376 . S
C869 H856 0.930 . S
C869 C868 1.376 . S
C869 C870 1.388 1_554 S
C870 H857 0.930 . S
C870 C869 1.388 1_556 S
C870 C871 1.390 . S
C871 C870 1.390 . S
C871 C872 1.394 . S
C871 C877 1.465 . S
C872 C867 1.399 . S
C872 C871 1.394 . S
C872 C873 1.516 . S
C873 C872 1.516 . S
C873 C874 1.502 . S
C873 C875 1.561 . S
C873 C876 1.526 . S
C874 H858 0.959 . S
C874 H859 0.959 . S
C874 H860 0.961 . S
C874 C873 1.502 . S
C875 H861 0.960 . S
C875 H862 0.961 . S
C875 H863 0.959 . S
C875 C873 1.561 . S
C876 C873 1.526 . S
C876 C877 1.396 . S
C876 C881 1.390 . S
C877 C871 1.465 . S
C877 C876 1.396 . S
C877 C878 1.399 . S
C878 H864 0.929 . S
C878 C877 1.399 . S
C878 C879 1.385 . S
C879 H865 0.931 . S
C879 C878 1.385 . S
C879 C880 1.389 . S
C880 C879 1.389 . S
C880 C881 1.387 . S
C881 H866 0.930 . S
C881 C876 1.390 . S
C881 C880 1.387 . S
H882 C894 0.930 . S
H883 C896 0.930 . S
H884 C897 0.930 . S
H885 C901 0.959 . S
H886 C901 0.959 . S
H887 C901 0.961 . S
H888 C902 0.960 . S
H889 C902 0.961 . S
H890 C902 0.959 . S
H891 C905 0.929 . S
H892 C906 0.931 . S
H893 C908 0.930 . S
C894 H882 0.930 . S
C894 C895 1.399 . S
C894 C899 1.399 . S
C895 C894 1.399 . S
C895 C896 1.376 . S
C896 H883 0.930 . S
C896 C895 1.376 . S
C896 C897 1.388 . S
C897 H884 0.930 . S
C897 C896 1.388 . S
C897 C898 1.390 . S
C898 C897 1.390 . S
C898 C899 1.394 . S
C898 C904 1.465 . S
C899 C894 1.399 . S
C899 C898 1.394 . S
C899 C900 1.516 . S
C900 C899 1.516 . S
C900 C901 1.502 . S
C900 C902 1.561 . S
C900 C903 1.526 . S
C901 H885 0.959 . S
C901 H886 0.959 . S
C901 H887 0.961 . S
C901 C900 1.502 . S
C902 H888 0.960 . S
C902 H889 0.961 . S
C902 H890 0.959 . S
C902 C900 1.561 . S
C903 C900 1.526 . S
C903 C904 1.396 . S
C903 C908 1.390 . S
C904 C898 1.465 . S
C904 C903 1.396 . S
C904 C905 1.399 . S
C905 H891 0.929 . S
C905 C904 1.399 . S
C905 C906 1.385 1_556 S
C906 H892 0.931 . S
C906 C905 1.385 1_554 S
C906 C907 1.389 . S
C907 C906 1.389 . S
C907 C908 1.387 1_554 S
C908 H893 0.930 . S
C908 C903 1.390 . S
C908 C907 1.387 1_556 S
H909 C921 0.930 . S
H910 C923 0.930 . S
H911 C924 0.930 . S
H912 C928 0.959 . S
H913 C928 0.959 . S
H914 C928 0.961 . S
H915 C929 0.960 . S
H916 C929 0.961 . S
H917 C929 0.959 . S
H918 C932 0.929 . S
H919 C933 0.931 . S
H920 C935 0.930 . S
C921 H909 0.930 . S
C921 C922 1.399 . S
C921 C926 1.399 . S
C922 C921 1.399 . S
C922 C923 1.376 . S
C923 H910 0.930 . S
C923 C922 1.376 . S
C923 C924 1.388 . S
C924 H911 0.930 . S
C924 C923 1.388 . S
C924 C925 1.390 . S
C925 C924 1.390 . S
C925 C926 1.394 . S
C925 C931 1.465 . S
C926 C921 1.399 . S
C926 C925 1.394 . S
C926 C927 1.516 . S
C927 C926 1.516 . S
C927 C928 1.502 . S
C927 C929 1.561 . S
C927 C930 1.526 . S
C928 H912 0.959 . S
C928 H913 0.959 . S
C928 H914 0.961 . S
C928 C927 1.502 . S
C929 H915 0.960 . S
C929 H916 0.961 . S
C929 H917 0.959 . S
C929 C927 1.561 . S
C930 C927 1.526 . S
C930 C931 1.396 . S
C930 C935 1.390 . S
C931 C925 1.465 . S
C931 C930 1.396 . S
C931 C932 1.399 . S
C932 H918 0.929 . S
C932 C931 1.399 . S
C932 C933 1.385 . S
C933 H919 0.931 . S
C933 C932 1.385 . S
C933 C934 1.389 . S
C934 C933 1.389 . S
C934 C935 1.387 . S
C935 H920 0.930 . S
C935 C930 1.390 . S
C935 C934 1.387 . S
H936 C948 0.930 . S
H937 C950 0.930 . S
H938 C951 0.930 . S
H939 C955 0.959 . S
H940 C955 0.959 . S
H941 C955 0.961 . S
H942 C956 0.960 . S
H943 C956 0.961 . S
H944 C956 0.959 . S
H945 C959 0.929 . S
H946 C960 0.931 . S
H947 C962 0.930 . S
C948 H936 0.930 . S
C948 C949 1.399 . S
C948 C953 1.399 . S
C949 C948 1.399 . S
C949 C950 1.376 . S
C950 H937 0.930 . S
C950 C949 1.376 . S
C950 C951 1.388 . S
C951 H938 0.930 . S
C951 C950 1.388 . S
C951 C952 1.390 . S
C952 C951 1.390 . S
C952 C953 1.394 . S
C952 C958 1.465 . S
C953 C948 1.399 . S
C953 C952 1.394 . S
C953 C954 1.516 . S
C954 C953 1.516 . S
C954 C955 1.502 . S
C954 C956 1.561 . S
C954 C957 1.526 . S
C955 H939 0.959 . S
C955 H940 0.959 . S
C955 H941 0.961 . S
C955 C954 1.502 . S
C956 H942 0.960 . S
C956 H943 0.961 . S
C956 H944 0.959 . S
C956 C954 1.561 . S
C957 C954 1.526 . S
C957 C958 1.396 . S
C957 C962 1.390 . S
C958 C952 1.465 . S
C958 C957 1.396 . S
C958 C959 1.399 . S
C959 H945 0.929 . S
C959 C958 1.399 . S
C959 C960 1.385 . S
C960 H946 0.931 . S
C960 C959 1.385 . S
C960 C961 1.389 . S
C961 C960 1.389 . S
C961 C962 1.387 . S
C962 H947 0.930 . S
C962 C957 1.390 . S
C962 C961 1.387 . S
H963 C975 0.930 . S
H964 C977 0.930 . S
H965 C978 0.930 . S
H966 C982 0.959 . S
H967 C982 0.959 . S
H968 C982 0.961 . S
H969 C983 0.960 . S
H970 C983 0.961 . S
H971 C983 0.959 . S
H972 C986 0.929 . S
H973 C987 0.931 . S
H974 C989 0.930 . S
C975 H963 0.930 . S
C975 C976 1.399 . S
C975 C980 1.399 . S
C976 C975 1.399 . S
C976 C977 1.376 . S
C977 H964 0.930 . S
C977 C976 1.376 . S
C977 C978 1.388 . S
C978 H965 0.930 . S
C978 C977 1.388 . S
C978 C979 1.390 . S
C979 C978 1.390 . S
C979 C980 1.394 . S
C979 C985 1.465 . S
C980 C975 1.399 . S
C980 C979 1.394 . S
C980 C981 1.516 . S
C981 C980 1.516 . S
C981 C982 1.502 . S
C981 C983 1.561 . S
C981 C984 1.526 . S
C982 H966 0.959 . S
C982 H967 0.959 . S
C982 H968 0.961 . S
C982 C981 1.502 . S
C983 H969 0.960 . S
C983 H970 0.961 . S
C983 H971 0.959 . S
C983 C981 1.561 . S
C984 C981 1.526 . S
C984 C985 1.396 . S
C984 C989 1.390 . S
C985 C979 1.465 . S
C985 C984 1.396 . S
C985 C986 1.399 . S
C986 H972 0.929 . S
C986 C985 1.399 . S
C986 C987 1.385 . S
C987 H973 0.931 . S
C987 C986 1.385 . S
C987 C988 1.389 . S
C988 C987 1.389 . S
C988 C989 1.387 . S
C989 H974 0.930 . S
C989 C984 1.390 . S
C989 C988 1.387 . S
H990 C1002 0.930 . S
H991 C1004 0.930 . S
H992 C1005 0.930 . S
H993 C1009 0.959 . S
H994 C1009 0.959 . S
H995 C1009 0.961 . S
H996 C1010 0.960 . S
H997 C1010 0.961 . S
H998 C1010 0.959 . S
H999 C1013 0.929 . S
H1000 C1014 0.931 . S
H1001 C1016 0.930 . S
C1002 H990 0.930 . S
C1002 C1003 1.399 . S
C1002 C1007 1.399 . S
C1003 C1002 1.399 . S
C1003 C1004 1.376 . S
C1004 H991 0.930 . S
C1004 C1003 1.376 . S
C1004 C1005 1.388 . S
C1005 H992 0.930 . S
C1005 C1004 1.388 . S
C1005 C1006 1.390 . S
C1006 C1005 1.390 . S
C1006 C1007 1.394 . S
C1006 C1012 1.465 . S
C1007 C1002 1.399 . S
C1007 C1006 1.394 . S
C1007 C1008 1.516 . S
C1008 C1007 1.516 . S
C1008 C1009 1.502 . S
C1008 C1010 1.561 . S
C1008 C1011 1.526 . S
C1009 H993 0.959 . S
C1009 H994 0.959 . S
C1009 H995 0.961 . S
C1009 C1008 1.502 . S
C1010 H996 0.960 . S
C1010 H997 0.961 . S
C1010 H998 0.959 . S
C1010 C1008 1.561 . S
C1011 C1008 1.526 . S
C1011 C1012 1.396 . S
C1011 C1016 1.390 . S
C1012 C1006 1.465 . S
C1012 C1011 1.396 . S
C1012 C1013 1.399 . S
C1013 H999 0.929 . S
C1013 C1012 1.399 . S
C1013 C1014 1.385 . S
C1014 H1000 0.931 . S
C1014 C1013 1.385 . S
C1014 C1015 1.389 . S
C1015 C1014 1.389 . S
C1015 C1016 1.387 . S
C1016 H1001 0.930 . S
C1016 C1011 1.390 . S
C1016 C1015 1.387 . S
H1017 C1029 0.930 . S
H1018 C1031 0.930 . S
H1019 C1032 0.930 . S
H1020 C1036 0.959 . S
H1021 C1036 0.959 . S
H1022 C1036 0.961 . S
H1023 C1037 0.960 . S
H1024 C1037 0.961 . S
H1025 C1037 0.959 . S
H1026 C1040 0.929 . S
H1027 C1041 0.931 . S
H1028 C1043 0.930 . S
C1029 H1017 0.930 . S
C1029 C1030 1.399 . S
C1029 C1034 1.399 . S
C1030 C1029 1.399 . S
C1030 C1031 1.376 . S
C1031 H1018 0.930 . S
C1031 C1030 1.376 . S
C1031 C1032 1.388 . S
C1032 H1019 0.930 . S
C1032 C1031 1.388 . S
C1032 C1033 1.390 . S
C1033 C1032 1.390 . S
C1033 C1034 1.394 . S
C1033 C1039 1.465 . S
C1034 C1029 1.399 . S
C1034 C1033 1.394 . S
C1034 C1035 1.516 . S
C1035 C1034 1.516 . S
C1035 C1036 1.502 . S
C1035 C1037 1.561 . S
C1035 C1038 1.526 . S
C1036 H1020 0.959 . S
C1036 H1021 0.959 . S
C1036 H1022 0.961 . S
C1036 C1035 1.502 . S
C1037 H1023 0.960 . S
C1037 H1024 0.961 . S
C1037 H1025 0.959 . S
C1037 C1035 1.561 . S
C1038 C1035 1.526 . S
C1038 C1039 1.396 . S
C1038 C1043 1.390 . S
C1039 C1033 1.465 . S
C1039 C1038 1.396 . S
C1039 C1040 1.399 . S
C1040 H1026 0.929 . S
C1040 C1039 1.399 . S
C1040 C1041 1.385 . S
C1041 H1027 0.931 . S
C1041 C1040 1.385 . S
C1041 C1042 1.389 . S
C1042 C1041 1.389 . S
C1042 C1043 1.387 . S
C1043 H1028 0.930 . S
C1043 C1038 1.390 . S
C1043 C1042 1.387 . S
H1044 C1056 0.930 . S
H1045 C1058 0.930 . S
H1046 C1059 0.930 . S
H1047 C1063 0.959 . S
H1048 C1063 0.959 . S
H1049 C1063 0.961 . S
H1050 C1064 0.960 . S
H1051 C1064 0.961 . S
H1052 C1064 0.959 . S
H1053 C1067 0.929 . S
H1054 C1068 0.931 . S
H1055 C1070 0.930 . S
C1056 H1044 0.930 . S
C1056 C1057 1.399 . S
C1056 C1061 1.399 . S
C1057 C1056 1.399 . S
C1057 C1058 1.376 . S
C1058 H1045 0.930 . S
C1058 C1057 1.376 . S
C1058 C1059 1.388 . S
C1059 H1046 0.930 . S
C1059 C1058 1.388 . S
C1059 C1060 1.390 . S
C1060 C1059 1.390 . S
C1060 C1061 1.394 . S
C1060 C1066 1.465 . S
C1061 C1056 1.399 . S
C1061 C1060 1.394 . S
C1061 C1062 1.516 . S
C1062 C1061 1.516 . S
C1062 C1063 1.502 . S
C1062 C1064 1.561 . S
C1062 C1065 1.526 . S
C1063 H1047 0.959 . S
C1063 H1048 0.959 . S
C1063 H1049 0.961 . S
C1063 C1062 1.502 . S
C1064 H1050 0.960 . S
C1064 H1051 0.961 . S
C1064 H1052 0.959 . S
C1064 C1062 1.561 . S
C1065 C1062 1.526 . S
C1065 C1066 1.396 . S
C1065 C1070 1.390 . S
C1066 C1060 1.465 . S
C1066 C1065 1.396 . S
C1066 C1067 1.399 . S
C1067 H1053 0.929 . S
C1067 C1066 1.399 . S
C1067 C1068 1.385 . S
C1068 H1054 0.931 . S
C1068 C1067 1.385 . S
C1068 C1069 1.389 . S
C1069 C1068 1.389 . S
C1069 C1070 1.387 . S
C1070 H1055 0.930 . S
C1070 C1065 1.390 . S
C1070 C1069 1.387 . S
H1071 C1083 0.930 . S
H1072 C1085 0.930 . S
H1073 C1086 0.930 . S
H1074 C1090 0.959 . S
H1075 C1090 0.959 . S
H1076 C1090 0.961 . S
H1077 C1091 0.960 . S
H1078 C1091 0.961 . S
H1079 C1091 0.959 . S
H1080 C1094 0.929 . S
H1081 C1095 0.931 . S
H1082 C1097 0.930 . S
C1083 H1071 0.930 . S
C1083 C1084 1.399 . S
C1083 C1088 1.399 . S
C1084 C1083 1.399 . S
C1084 C1085 1.376 . S
C1085 H1072 0.930 . S
C1085 C1084 1.376 . S
C1085 C1086 1.388 . S
C1086 H1073 0.930 . S
C1086 C1085 1.388 . S
C1086 C1087 1.390 . S
C1087 C1086 1.390 . S
C1087 C1088 1.394 . S
C1087 C1093 1.465 . S
C1088 C1083 1.399 . S
C1088 C1087 1.394 . S
C1088 C1089 1.516 . S
C1089 C1088 1.516 . S
C1089 C1090 1.502 . S
C1089 C1091 1.561 . S
C1089 C1092 1.526 . S
C1090 H1074 0.959 . S
C1090 H1075 0.959 . S
C1090 H1076 0.961 . S
C1090 C1089 1.502 . S
C1091 H1077 0.960 . S
C1091 H1078 0.961 . S
C1091 H1079 0.959 . S
C1091 C1089 1.561 . S
C1092 C1089 1.526 . S
C1092 C1093 1.396 . S
C1092 C1097 1.390 . S
C1093 C1087 1.465 . S
C1093 C1092 1.396 . S
C1093 C1094 1.399 . S
C1094 H1080 0.929 . S
C1094 C1093 1.399 . S
C1094 C1095 1.385 . S
C1095 H1081 0.931 . S
C1095 C1094 1.385 . S
C1095 C1096 1.389 . S
C1096 C1095 1.389 . S
C1096 C1097 1.387 . S
C1097 H1082 0.930 . S
C1097 C1092 1.390 . S
C1097 C1096 1.387 . S
H1098 C1110 0.930 . S
H1099 C1112 0.930 . S
H1100 C1113 0.930 . S
H1101 C1117 0.959 . S
H1102 C1117 0.959 . S
H1103 C1117 0.961 . S
H1104 C1118 0.960 . S
H1105 C1118 0.961 . S
H1106 C1118 0.959 . S
H1107 C1121 0.929 . S
H1108 C1122 0.931 . S
H1109 C1124 0.930 . S
C1110 H1098 0.930 . S
C1110 C1111 1.399 . S
C1110 C1115 1.399 . S
C1111 C1110 1.399 . S
C1111 C1112 1.376 . S
C1112 H1099 0.930 . S
C1112 C1111 1.376 . S
C1112 C1113 1.388 . S
C1113 H1100 0.930 . S
C1113 C1112 1.388 . S
C1113 C1114 1.390 . S
C1114 C1113 1.390 . S
C1114 C1115 1.394 . S
C1114 C1120 1.465 . S
C1115 C1110 1.399 . S
C1115 C1114 1.394 . S
C1115 C1116 1.516 . S
C1116 C1115 1.516 . S
C1116 C1117 1.502 . S
C1116 C1118 1.561 . S
C1116 C1119 1.526 . S
C1117 H1101 0.959 . S
C1117 H1102 0.959 . S
C1117 H1103 0.961 . S
C1117 C1116 1.502 . S
C1118 H1104 0.960 . S
C1118 H1105 0.961 . S
C1118 H1106 0.959 . S
C1118 C1116 1.561 . S
C1119 C1116 1.526 . S
C1119 C1120 1.396 . S
C1119 C1124 1.390 . S
C1120 C1114 1.465 . S
C1120 C1119 1.396 . S
C1120 C1121 1.399 . S
C1121 H1107 0.929 . S
C1121 C1120 1.399 . S
C1121 C1122 1.385 . S
C1122 H1108 0.931 . S
C1122 C1121 1.385 . S
C1122 C1123 1.389 . S
C1123 C1122 1.389 . S
C1123 C1124 1.387 . S
C1124 H1109 0.930 . S
C1124 C1119 1.390 . S
C1124 C1123 1.387 . S
H1125 C1137 0.930 . S
H1126 C1139 0.930 . S
H1127 C1140 0.930 . S
H1128 C1144 0.959 . S
H1129 C1144 0.959 . S
H1130 C1144 0.961 . S
H1131 C1145 0.960 . S
H1132 C1145 0.961 . S
H1133 C1145 0.959 . S
H1134 C1148 0.929 . S
H1135 C1149 0.931 . S
H1136 C1151 0.930 . S
C1137 H1125 0.930 . S
C1137 C1138 1.399 . S
C1137 C1142 1.399 . S
C1138 C1137 1.399 . S
C1138 C1139 1.376 . S
C1139 H1126 0.930 . S
C1139 C1138 1.376 . S
C1139 C1140 1.388 . S
C1140 H1127 0.930 . S
C1140 C1139 1.388 . S
C1140 C1141 1.390 . S
C1141 C1140 1.390 . S
C1141 C1142 1.394 . S
C1141 C1147 1.465 . S
C1142 C1137 1.399 . S
C1142 C1141 1.394 . S
C1142 C1143 1.516 . S
C1143 C1142 1.516 . S
C1143 C1144 1.502 . S
C1143 C1145 1.561 . S
C1143 C1146 1.526 . S
C1144 H1128 0.959 . S
C1144 H1129 0.959 . S
C1144 H1130 0.961 . S
C1144 C1143 1.502 . S
C1145 H1131 0.960 . S
C1145 H1132 0.961 . S
C1145 H1133 0.959 . S
C1145 C1143 1.561 . S
C1146 C1143 1.526 . S
C1146 C1147 1.396 . S
C1146 C1151 1.390 . S
C1147 C1141 1.465 . S
C1147 C1146 1.396 . S
C1147 C1148 1.399 . S
C1148 H1134 0.929 . S
C1148 C1147 1.399 . S
C1148 C1149 1.385 . S
C1149 H1135 0.931 . S
C1149 C1148 1.385 . S
C1149 C1150 1.389 . S
C1150 C1149 1.389 . S
C1150 C1151 1.387 . S
C1151 H1136 0.930 . S
C1151 C1146 1.390 . S
C1151 C1150 1.387 . S
H1152 C1164 0.930 . S
H1153 C1166 0.930 . S
H1154 C1167 0.930 . S
H1155 C1171 0.959 . S
H1156 C1171 0.959 . S
H1157 C1171 0.961 . S
H1158 C1172 0.960 . S
H1159 C1172 0.961 . S
H1160 C1172 0.959 . S
H1161 C1175 0.929 . S
H1162 C1176 0.931 . S
H1163 C1178 0.930 . S
C1164 H1152 0.930 . S
C1164 C1165 1.399 . S
C1164 C1169 1.399 . S
C1165 C1164 1.399 . S
C1165 C1166 1.376 . S
C1166 H1153 0.930 . S
C1166 C1165 1.376 . S
C1166 C1167 1.388 . S
C1167 H1154 0.930 . S
C1167 C1166 1.388 . S
C1167 C1168 1.390 . S
C1168 C1167 1.390 . S
C1168 C1169 1.394 . S
C1168 C1174 1.465 . S
C1169 C1164 1.399 . S
C1169 C1168 1.394 . S
C1169 C1170 1.516 . S
C1170 C1169 1.516 . S
C1170 C1171 1.502 . S
C1170 C1172 1.561 . S
C1170 C1173 1.526 . S
C1171 H1155 0.959 . S
C1171 H1156 0.959 . S
C1171 H1157 0.961 . S
C1171 C1170 1.502 . S
C1172 H1158 0.960 . S
C1172 H1159 0.961 . S
C1172 H1160 0.959 . S
C1172 C1170 1.561 . S
C1173 C1170 1.526 . S
C1173 C1174 1.396 . S
C1173 C1178 1.390 . S
C1174 C1168 1.465 . S
C1174 C1173 1.396 . S
C1174 C1175 1.399 . S
C1175 H1161 0.929 . S
C1175 C1174 1.399 . S
C1175 C1176 1.385 . S
C1176 H1162 0.931 . S
C1176 C1175 1.385 . S
C1176 C1177 1.389 . S
C1177 C1176 1.389 . S
C1177 C1178 1.387 . S
C1178 H1163 0.930 . S
C1178 C1173 1.390 . S
C1178 C1177 1.387 . S
H1179 C1191 0.930 . S
H1180 C1193 0.930 . S
H1181 C1194 0.930 . S
H1182 C1198 0.959 . S
H1183 C1198 0.959 . S
H1184 C1198 0.961 . S
H1185 C1199 0.960 . S
H1186 C1199 0.961 . S
H1187 C1199 0.959 . S
H1188 C1202 0.929 . S
H1189 C1203 0.931 . S
H1190 C1205 0.930 . S
C1191 H1179 0.930 . S
C1191 C1192 1.399 . S
C1191 C1196 1.399 . S
C1192 C1191 1.399 . S
C1192 C1193 1.376 . S
C1193 H1180 0.930 . S
C1193 C1192 1.376 . S
C1193 C1194 1.388 . S
C1194 H1181 0.930 . S
C1194 C1193 1.388 . S
C1194 C1195 1.390 . S
C1195 C1194 1.390 . S
C1195 C1196 1.394 . S
C1195 C1201 1.465 . S
C1196 C1191 1.399 . S
C1196 C1195 1.394 . S
C1196 C1197 1.516 . S
C1197 C1196 1.516 . S
C1197 C1198 1.502 . S
C1197 C1199 1.561 . S
C1197 C1200 1.526 . S
C1198 H1182 0.959 . S
C1198 H1183 0.959 . S
C1198 H1184 0.961 . S
C1198 C1197 1.502 . S
C1199 H1185 0.960 . S
C1199 H1186 0.961 . S
C1199 H1187 0.959 . S
C1199 C1197 1.561 . S
C1200 C1197 1.526 . S
C1200 C1201 1.396 . S
C1200 C1205 1.390 . S
C1201 C1195 1.465 . S
C1201 C1200 1.396 . S
C1201 C1202 1.399 . S
C1202 H1188 0.929 . S
C1202 C1201 1.399 . S
C1202 C1203 1.385 . S
C1203 H1189 0.931 . S
C1203 C1202 1.385 . S
C1203 C1204 1.389 . S
C1204 C1203 1.389 . S
C1204 C1205 1.387 . S
C1205 H1190 0.930 . S
C1205 C1200 1.390 . S
C1205 C1204 1.387 . S
H1206 C1218 0.930 . S
H1207 C1220 0.930 . S
H1208 C1221 0.930 . S
H1209 C1225 0.959 . S
H1210 C1225 0.959 . S
H1211 C1225 0.961 . S
H1212 C1226 0.960 . S
H1213 C1226 0.961 . S
H1214 C1226 0.959 . S
H1215 C1229 0.929 . S
H1216 C1230 0.931 . S
H1217 C1232 0.930 . S
C1218 H1206 0.930 . S
C1218 C1219 1.399 . S
C1218 C1223 1.399 . S
C1219 C1218 1.399 . S
C1219 C1220 1.376 . S
C1220 H1207 0.930 . S
C1220 C1219 1.376 . S
C1220 C1221 1.388 . S
C1221 H1208 0.930 . S
C1221 C1220 1.388 . S
C1221 C1222 1.390 . S
C1222 C1221 1.390 . S
C1222 C1223 1.394 . S
C1222 C1228 1.465 . S
C1223 C1218 1.399 . S
C1223 C1222 1.394 . S
C1223 C1224 1.516 . S
C1224 C1223 1.516 . S
C1224 C1225 1.502 . S
C1224 C1226 1.561 . S
C1224 C1227 1.526 . S
C1225 H1209 0.959 . S
C1225 H1210 0.959 . S
C1225 H1211 0.961 . S
C1225 C1224 1.502 . S
C1226 H1212 0.960 . S
C1226 H1213 0.961 . S
C1226 H1214 0.959 . S
C1226 C1224 1.561 . S
C1227 C1224 1.526 . S
C1227 C1228 1.396 . S
C1227 C1232 1.390 . S
C1228 C1222 1.465 . S
C1228 C1227 1.396 . S
C1228 C1229 1.399 . S
C1229 H1215 0.929 . S
C1229 C1228 1.399 . S
C1229 C1230 1.385 . S
C1230 H1216 0.931 . S
C1230 C1229 1.385 . S
C1230 C1231 1.389 . S
C1231 C1230 1.389 . S
C1231 C1232 1.387 . S
C1232 H1217 0.930 . S
C1232 C1227 1.390 . S
C1232 C1231 1.387 . S
H1233 C1245 0.930 . S
H1234 C1247 0.930 . S
H1235 C1248 0.930 . S
H1236 C1252 0.959 . S
H1237 C1252 0.959 . S
H1238 C1252 0.961 . S
H1239 C1253 0.960 . S
H1240 C1253 0.961 . S
H1241 C1253 0.959 . S
H1242 C1256 0.929 . S
H1243 C1257 0.931 . S
H1244 C1259 0.930 . S
C1245 H1233 0.930 . S
C1245 C1246 1.399 . S
C1245 C1250 1.399 . S
C1246 C1245 1.399 . S
C1246 C1247 1.376 . S
C1247 H1234 0.930 . S
C1247 C1246 1.376 . S
C1247 C1248 1.388 . S
C1248 H1235 0.930 . S
C1248 C1247 1.388 . S
C1248 C1249 1.390 . S
C1249 C1248 1.390 . S
C1249 C1250 1.394 . S
C1249 C1255 1.465 . S
C1250 C1245 1.399 . S
C1250 C1249 1.394 . S
C1250 C1251 1.516 . S
C1251 C1250 1.516 . S
C1251 C1252 1.502 . S
C1251 C1253 1.561 . S
C1251 C1254 1.526 . S
C1252 H1236 0.959 . S
C1252 H1237 0.959 . S
C1252 H1238 0.961 . S
C1252 C1251 1.502 . S
C1253 H1239 0.960 . S
C1253 H1240 0.961 . S
C1253 H1241 0.959 . S
C1253 C1251 1.561 . S
C1254 C1251 1.526 . S
C1254 C1255 1.396 . S
C1254 C1259 1.390 . S
C1255 C1249 1.465 . S
C1255 C1254 1.396 . S
C1255 C1256 1.399 . S
C1256 H1242 0.929 . S
C1256 C1255 1.399 . S
C1256 C1257 1.385 . S
C1257 H1243 0.931 . S
C1257 C1256 1.385 . S
C1257 C1258 1.389 . S
C1258 C1257 1.389 . S
C1258 C1259 1.387 . S
C1259 H1244 0.930 . S
C1259 C1254 1.390 . S
C1259 C1258 1.387 . S
H1260 C1272 0.930 . S
H1261 C1274 0.930 . S
H1262 C1275 0.930 . S
H1263 C1279 0.959 . S
H1264 C1279 0.959 . S
H1265 C1279 0.961 . S
H1266 C1280 0.960 . S
H1267 C1280 0.961 . S
H1268 C1280 0.959 . S
H1269 C1283 0.929 . S
H1270 C1284 0.931 . S
H1271 C1286 0.930 . S
C1272 H1260 0.930 . S
C1272 C1273 1.399 . S
C1272 C1277 1.399 . S
C1273 C1272 1.399 . S
C1273 C1274 1.376 . S
C1274 H1261 0.930 . S
C1274 C1273 1.376 . S
C1274 C1275 1.388 . S
C1275 H1262 0.930 . S
C1275 C1274 1.388 . S
C1275 C1276 1.390 . S
C1276 C1275 1.390 . S
C1276 C1277 1.394 . S
C1276 C1282 1.465 . S
C1277 C1272 1.399 . S
C1277 C1276 1.394 . S
C1277 C1278 1.516 . S
C1278 C1277 1.516 . S
C1278 C1279 1.502 . S
C1278 C1280 1.561 . S
C1278 C1281 1.526 . S
C1279 H1263 0.959 . S
C1279 H1264 0.959 . S
C1279 H1265 0.961 . S
C1279 C1278 1.502 . S
C1280 H1266 0.960 . S
C1280 H1267 0.961 . S
C1280 H1268 0.959 . S
C1280 C1278 1.561 . S
C1281 C1278 1.526 . S
C1281 C1282 1.396 . S
C1281 C1286 1.390 . S
C1282 C1276 1.465 . S
C1282 C1281 1.396 . S
C1282 C1283 1.399 . S
C1283 H1269 0.929 . S
C1283 C1282 1.399 . S
C1283 C1284 1.385 . S
C1284 H1270 0.931 . S
C1284 C1283 1.385 . S
C1284 C1285 1.389 . S
C1285 C1284 1.389 . S
C1285 C1286 1.387 . S
C1286 H1271 0.930 . S
C1286 C1281 1.390 . S
C1286 C1285 1.387 . S
H1287 C1299 0.930 . S
H1288 C1301 0.930 . S
H1289 C1302 0.930 . S
H1290 C1306 0.959 . S
H1291 C1306 0.959 . S
H1292 C1306 0.961 . S
H1293 C1307 0.960 . S
H1294 C1307 0.961 . S
H1295 C1307 0.959 . S
H1296 C1310 0.929 . S
H1297 C1311 0.931 . S
H1298 C1313 0.930 . S
C1299 H1287 0.930 . S
C1299 C1300 1.399 . S
C1299 C1304 1.399 . S
C1300 C1299 1.399 . S
C1300 C1301 1.376 . S
C1301 H1288 0.930 . S
C1301 C1300 1.376 . S
C1301 C1302 1.388 . S
C1302 H1289 0.930 . S
C1302 C1301 1.388 . S
C1302 C1303 1.390 . S
C1303 C1302 1.390 . S
C1303 C1304 1.394 . S
C1303 C1309 1.465 . S
C1304 C1299 1.399 . S
C1304 C1303 1.394 . S
C1304 C1305 1.516 . S
C1305 C1304 1.516 . S
C1305 C1306 1.502 . S
C1305 C1307 1.561 . S
C1305 C1308 1.526 . S
C1306 H1290 0.959 . S
C1306 H1291 0.959 . S
C1306 H1292 0.961 . S
C1306 C1305 1.502 . S
C1307 H1293 0.960 . S
C1307 H1294 0.961 . S
C1307 H1295 0.959 . S
C1307 C1305 1.561 . S
C1308 C1305 1.526 . S
C1308 C1309 1.396 . S
C1308 C1313 1.390 . S
C1309 C1303 1.465 . S
C1309 C1308 1.396 . S
C1309 C1310 1.399 . S
C1310 H1296 0.929 . S
C1310 C1309 1.399 . S
C1310 C1311 1.385 . S
C1311 H1297 0.931 . S
C1311 C1310 1.385 . S
C1311 C1312 1.389 . S
C1312 C1311 1.389 . S
C1312 C1313 1.387 . S
C1313 H1298 0.930 . S
C1313 C1308 1.390 . S
C1313 C1312 1.387 . S
H1314 C1326 0.930 . S
H1315 C1328 0.930 . S
H1316 C1329 0.930 . S
H1317 C1333 0.959 . S
H1318 C1333 0.959 . S
H1319 C1333 0.961 . S
H1320 C1334 0.960 . S
H1321 C1334 0.961 . S
H1322 C1334 0.959 . S
H1323 C1337 0.929 . S
H1324 C1338 0.931 . S
H1325 C1340 0.930 . S
C1326 H1314 0.930 . S
C1326 C1327 1.399 . S
C1326 C1331 1.399 . S
C1327 C1326 1.399 . S
C1327 C1328 1.376 . S
C1328 H1315 0.930 . S
C1328 C1327 1.376 . S
C1328 C1329 1.388 . S
C1329 H1316 0.930 . S
C1329 C1328 1.388 . S
C1329 C1330 1.390 . S
C1330 C1329 1.390 . S
C1330 C1331 1.394 . S
C1330 C1336 1.465 . S
C1331 C1326 1.399 . S
C1331 C1330 1.394 . S
C1331 C1332 1.516 . S
C1332 C1331 1.516 . S
C1332 C1333 1.502 . S
C1332 C1334 1.561 . S
C1332 C1335 1.526 . S
C1333 H1317 0.959 . S
C1333 H1318 0.959 . S
C1333 H1319 0.961 . S
C1333 C1332 1.502 . S
C1334 H1320 0.960 . S
C1334 H1321 0.961 . S
C1334 H1322 0.959 . S
C1334 C1332 1.561 . S
C1335 C1332 1.526 . S
C1335 C1336 1.396 . S
C1335 C1340 1.390 . S
C1336 C1330 1.465 . S
C1336 C1335 1.396 . S
C1336 C1337 1.399 . S
C1337 H1323 0.929 . S
C1337 C1336 1.399 . S
C1337 C1338 1.385 1_554 S
C1338 H1324 0.931 . S
C1338 C1337 1.385 1_556 S
C1338 C1339 1.389 1_556 S
C1339 C1338 1.389 1_554 S
C1339 C1340 1.387 . S
C1340 H1325 0.930 . S
C1340 C1335 1.390 . S
C1340 C1339 1.387 . S
H1341 C1353 0.930 . S
H1342 C1355 0.930 . S
H1343 C1356 0.930 . S
H1344 C1360 0.959 . S
H1345 C1360 0.959 . S
H1346 C1360 0.961 . S
H1347 C1361 0.960 . S
H1348 C1361 0.961 . S
H1349 C1361 0.959 . S
H1350 C1364 0.929 . S
H1351 C1365 0.931 . S
H1352 C1367 0.930 . S
C1353 H1341 0.930 . S
C1353 C1354 1.399 . S
C1353 C1358 1.399 . S
C1354 C1353 1.399 . S
C1354 C1355 1.376 . S
C1355 H1342 0.930 . S
C1355 C1354 1.376 . S
C1355 C1356 1.388 . S
C1356 H1343 0.930 . S
C1356 C1355 1.388 . S
C1356 C1357 1.390 . S
C1357 C1356 1.390 . S
C1357 C1358 1.394 . S
C1357 C1363 1.465 . S
C1358 C1353 1.399 . S
C1358 C1357 1.394 . S
C1358 C1359 1.516 . S
C1359 C1358 1.516 . S
C1359 C1360 1.502 . S
C1359 C1361 1.561 . S
C1359 C1362 1.526 . S
C1360 H1344 0.959 . S
C1360 H1345 0.959 . S
C1360 H1346 0.961 . S
C1360 C1359 1.502 . S
C1361 H1347 0.960 . S
C1361 H1348 0.961 . S
C1361 H1349 0.959 . S
C1361 C1359 1.561 . S
C1362 C1359 1.526 . S
C1362 C1363 1.396 . S
C1362 C1367 1.390 . S
C1363 C1357 1.465 . S
C1363 C1362 1.396 . S
C1363 C1364 1.399 . S
C1364 H1350 0.929 . S
C1364 C1363 1.399 . S
C1364 C1365 1.385 . S
C1365 H1351 0.931 . S
C1365 C1364 1.385 . S
C1365 C1366 1.389 . S
C1366 C1365 1.389 . S
C1366 C1367 1.387 . S
C1367 H1352 0.930 . S
C1367 C1362 1.390 . S
C1367 C1366 1.387 . S
H1368 C1380 0.930 . S
H1369 C1382 0.930 . S
H1370 C1383 0.930 . S
H1371 C1387 0.959 . S
H1372 C1387 0.959 . S
H1373 C1387 0.961 . S
H1374 C1388 0.960 . S
H1375 C1388 0.961 . S
H1376 C1388 0.959 . S
H1377 C1391 0.929 . S
H1378 C1392 0.931 . S
H1379 C1394 0.930 . S
C1380 H1368 0.930 . S
C1380 C1381 1.399 . S
C1380 C1385 1.399 . S
C1381 C1380 1.399 . S
C1381 C1382 1.376 . S
C1382 H1369 0.930 . S
C1382 C1381 1.376 . S
C1382 C1383 1.388 . S
C1383 H1370 0.930 . S
C1383 C1382 1.388 . S
C1383 C1384 1.390 . S
C1384 C1383 1.390 . S
C1384 C1385 1.394 . S
C1384 C1390 1.465 . S
C1385 C1380 1.399 . S
C1385 C1384 1.394 . S
C1385 C1386 1.516 . S
C1386 C1385 1.516 . S
C1386 C1387 1.502 . S
C1386 C1388 1.561 . S
C1386 C1389 1.526 . S
C1387 H1371 0.959 . S
C1387 H1372 0.959 . S
C1387 H1373 0.961 . S
C1387 C1386 1.502 . S
C1388 H1374 0.960 . S
C1388 H1375 0.961 . S
C1388 H1376 0.959 . S
C1388 C1386 1.561 . S
C1389 C1386 1.526 . S
C1389 C1390 1.396 . S
C1389 C1394 1.390 . S
C1390 C1384 1.465 . S
C1390 C1389 1.396 . S
C1390 C1391 1.399 . S
C1391 H1377 0.929 . S
C1391 C1390 1.399 . S
C1391 C1392 1.385 . S
C1392 H1378 0.931 . S
C1392 C1391 1.385 . S
C1392 C1393 1.389 . S
C1393 C1392 1.389 . S
C1393 C1394 1.387 . S
C1394 H1379 0.930 . S
C1394 C1389 1.390 . S
C1394 C1393 1.387 . S
H1395 C1407 0.930 . S
H1396 C1409 0.930 . S
H1397 C1410 0.930 . S
H1398 C1414 0.959 . S
H1399 C1414 0.959 . S
H1400 C1414 0.961 . S
H1401 C1415 0.960 . S
H1402 C1415 0.961 . S
H1403 C1415 0.959 . S
H1404 C1418 0.929 . S
H1405 C1419 0.931 . S
H1406 C1421 0.930 . S
C1407 H1395 0.930 . S
C1407 C1408 1.399 . S
C1407 C1412 1.399 1_556 S
C1408 C1407 1.399 . S
C1408 C1409 1.376 . S
C1409 H1396 0.930 . S
C1409 C1408 1.376 . S
C1409 C1410 1.388 . S
C1410 H1397 0.930 . S
C1410 C1409 1.388 . S
C1410 C1411 1.390 . S
C1411 C1410 1.390 . S
C1411 C1412 1.394 1_556 S
C1411 C1417 1.465 1_556 S
C1412 C1407 1.399 1_554 S
C1412 C1411 1.394 1_554 S
C1412 C1413 1.516 . S
C1413 C1412 1.516 . S
C1413 C1414 1.502 . S
C1413 C1415 1.561 . S
C1413 C1416 1.526 . S
C1414 H1398 0.959 . S
C1414 H1399 0.959 . S
C1414 H1400 0.961 . S
C1414 C1413 1.502 . S
C1415 H1401 0.960 . S
C1415 H1402 0.961 . S
C1415 H1403 0.959 . S
C1415 C1413 1.561 . S
C1416 C1413 1.526 . S
C1416 C1417 1.396 . S
C1416 C1421 1.390 . S
C1417 C1411 1.465 1_554 S
C1417 C1416 1.396 . S
C1417 C1418 1.399 . S
C1418 H1404 0.929 . S
C1418 C1417 1.399 . S
C1418 C1419 1.385 . S
C1419 H1405 0.931 . S
C1419 C1418 1.385 . S
C1419 C1420 1.389 . S
C1420 C1419 1.389 . S
C1420 C1421 1.387 . S
C1421 H1406 0.930 . S
C1421 C1416 1.390 . S
C1421 C1420 1.387 . S
H1422 C1434 0.930 . S
H1423 C1436 0.930 . S
H1424 C1437 0.930 1_554 S
H1425 C1441 0.959 . S
H1426 C1441 0.959 . S
H1427 C1441 0.954 1_556 S
H1428 C1442 0.960 . S
H1429 C1442 0.961 . S
H1430 C1442 0.959 . S
H1431 C1445 0.929 . S
H1432 C1446 0.931 . S
H1433 C1448 0.930 . S
C1434 H1422 0.930 . S
C1434 C1435 1.399 . S
C1434 C1439 1.399 . S
C1435 C1434 1.399 . S
C1435 C1436 1.376 . S
C1436 H1423 0.930 . S
C1436 C1435 1.376 . S
C1436 C1437 1.388 . S
C1437 H1424 0.930 1_556 S
C1437 C1436 1.388 . S
C1437 C1438 1.390 1_556 S
C1438 C1437 1.390 1_554 S
C1438 C1439 1.394 1_554 S
C1438 C1444 1.465 . S
C1439 C1434 1.399 . S
C1439 C1438 1.394 1_556 S
C1439 C1440 1.516 1_556 S
C1440 C1439 1.516 1_554 S
C1440 C1441 1.502 . S
C1440 C1442 1.561 1_554 S
C1440 C1443 1.526 . S
C1441 H1425 0.959 . S
C1441 H1426 0.959 . S
C1441 H1427 0.954 1_554 S
C1441 C1440 1.502 . S
C1442 H1428 0.960 . S
C1442 H1429 0.961 . S
C1442 H1430 0.959 . S
C1442 C1440 1.561 1_556 S
C1443 C1440 1.526 . S
C1443 C1444 1.396 . S
C1443 C1448 1.390 . S
C1444 C1438 1.465 . S
C1444 C1443 1.396 . S
C1444 C1445 1.399 . S
C1445 H1431 0.929 . S
C1445 C1444 1.399 . S
C1445 C1446 1.385 . S
C1446 H1432 0.931 . S
C1446 C1445 1.385 . S
C1446 C1447 1.389 . S
C1447 C1446 1.389 . S
C1447 C1448 1.387 . S
C1448 H1433 0.930 . S
C1448 C1443 1.390 . S
C1448 C1447 1.387 . S
H1449 C1461 0.930 1_554 S
H1450 C1463 0.930 . S
H1451 C1464 0.930 . S
H1452 C1468 0.959 . S
H1453 C1468 0.959 . S
H1454 C1468 0.961 . S
H1455 C1469 0.960 . S
H1456 C1469 0.961 . S
H1457 C1469 0.959 . S
H1458 C1472 0.929 1_556 S
H1459 C1473 0.931 . S
H1460 C1475 0.930 . S
C1461 H1449 0.930 1_556 S
C1461 C1462 1.399 . S
C1461 C1466 1.399 1_556 S
C1462 C1461 1.399 . S
C1462 C1463 1.376 . S
C1463 H1450 0.930 . S
C1463 C1462 1.376 . S
C1463 C1464 1.388 . S
C1464 H1451 0.930 . S
C1464 C1463 1.388 . S
C1464 C1465 1.390 . S
C1465 C1464 1.390 . S
C1465 C1466 1.394 1_556 S
C1465 C1471 1.465 1_556 S
C1466 C1461 1.399 1_554 S
C1466 C1465 1.394 1_554 S
C1466 C1467 1.516 . S
C1467 C1466 1.516 . S
C1467 C1468 1.502 . S
C1467 C1469 1.561 . S
C1467 C1470 1.526 . S
C1468 H1452 0.959 . S
C1468 H1453 0.959 . S
C1468 H1454 0.961 . S
C1468 C1467 1.502 . S
C1469 H1455 0.960 . S
C1469 H1456 0.961 . S
C1469 H1457 0.959 . S
C1469 C1467 1.561 . S
C1470 C1467 1.526 . S
C1470 C1471 1.396 . S
C1470 C1475 1.390 . S
C1471 C1465 1.465 1_554 S
C1471 C1470 1.396 . S
C1471 C1472 1.399 . S
C1472 H1458 0.929 1_554 S
C1472 C1471 1.399 . S
C1472 C1473 1.385 . S
C1473 H1459 0.931 . S
C1473 C1472 1.385 . S
C1473 C1474 1.389 . S
C1474 C1473 1.389 . S
C1474 C1475 1.387 . S
C1475 H1460 0.930 . S
C1475 C1470 1.390 . S
C1475 C1474 1.387 . S
H1476 C1488 0.930 . S
H1477 C1490 0.930 . S
H1478 C1491 0.930 . S
H1479 C1495 0.959 . S
H1480 C1495 0.959 . S
H1481 C1495 0.961 . S
H1482 C1496 0.960 . S
H1483 C1496 0.961 . S
H1484 C1496 0.959 . S
H1485 C1499 0.929 . S
H1486 C1500 0.931 . S
H1487 C1502 0.930 . S
C1488 H1476 0.930 . S
C1488 C1489 1.399 . S
C1488 C1493 1.399 . S
C1489 C1488 1.399 . S
C1489 C1490 1.376 . S
C1490 H1477 0.930 . S
C1490 C1489 1.376 . S
C1490 C1491 1.388 . S
C1491 H1478 0.930 . S
C1491 C1490 1.388 . S
C1491 C1492 1.390 . S
C1492 C1491 1.390 . S
C1492 C1493 1.394 . S
C1492 C1498 1.465 . S
C1493 C1488 1.399 . S
C1493 C1492 1.394 . S
C1493 C1494 1.516 . S
C1494 C1493 1.516 . S
C1494 C1495 1.502 . S
C1494 C1496 1.561 . S
C1494 C1497 1.526 . S
C1495 H1479 0.959 . S
C1495 H1480 0.959 . S
C1495 H1481 0.961 . S
C1495 C1494 1.502 . S
C1496 H1482 0.960 . S
C1496 H1483 0.961 . S
C1496 H1484 0.959 . S
C1496 C1494 1.561 . S
C1497 C1494 1.526 . S
C1497 C1498 1.396 . S
C1497 C1502 1.390 . S
C1498 C1492 1.465 . S
C1498 C1497 1.396 . S
C1498 C1499 1.399 . S
C1499 H1485 0.929 . S
C1499 C1498 1.399 . S
C1499 C1500 1.385 . S
C1500 H1486 0.931 . S
C1500 C1499 1.385 . S
C1500 C1501 1.389 . S
C1501 C1500 1.389 . S
C1501 C1502 1.387 . S
C1502 H1487 0.930 . S
C1502 C1497 1.390 . S
C1502 C1501 1.387 . S
H1503 C1515 0.930 . S
H1504 C1517 0.930 . S
H1505 C1518 0.930 . S
H1506 C1522 0.959 . S
H1507 C1522 0.959 . S
H1508 C1522 0.961 . S
H1509 C1523 0.960 . S
H1510 C1523 0.961 . S
H1511 C1523 0.959 . S
H1512 C1526 0.929 . S
H1513 C1527 0.931 . S
H1514 C1529 0.930 . S
C1515 H1503 0.930 . S
C1515 C1516 1.399 . S
C1515 C1520 1.399 . S
C1516 C1515 1.399 . S
C1516 C1517 1.376 . S
C1517 H1504 0.930 . S
C1517 C1516 1.376 . S
C1517 C1518 1.388 . S
C1518 H1505 0.930 . S
C1518 C1517 1.388 . S
C1518 C1519 1.390 . S
C1519 C1518 1.390 . S
C1519 C1520 1.394 . S
C1519 C1525 1.465 . S
C1520 C1515 1.399 . S
C1520 C1519 1.394 . S
C1520 C1521 1.516 . S
C1521 C1520 1.516 . S
C1521 C1522 1.502 . S
C1521 C1523 1.561 . S
C1521 C1524 1.526 . S
C1522 H1506 0.959 . S
C1522 H1507 0.959 . S
C1522 H1508 0.961 . S
C1522 C1521 1.502 . S
C1523 H1509 0.960 . S
C1523 H1510 0.961 . S
C1523 H1511 0.959 . S
C1523 C1521 1.561 . S
C1524 C1521 1.526 . S
C1524 C1525 1.396 . S
C1524 C1529 1.390 . S
C1525 C1519 1.465 . S
C1525 C1524 1.396 . S
C1525 C1526 1.399 . S
C1526 H1512 0.929 . S
C1526 C1525 1.399 . S
C1526 C1527 1.385 . S
C1527 H1513 0.931 . S
C1527 C1526 1.385 . S
C1527 C1528 1.389 . S
C1528 C1527 1.389 . S
C1528 C1529 1.387 . S
C1529 H1514 0.930 . S
C1529 C1524 1.390 . S
C1529 C1528 1.387 . S
H1530 C1542 0.930 . S
H1531 C1544 0.930 . S
H1532 C1545 0.930 . S
H1533 C1549 0.959 . S
H1534 C1549 0.959 . S
H1535 C1549 0.961 . S
H1536 C1550 0.960 . S
H1537 C1550 0.961 . S
H1538 C1550 0.959 . S
H1539 C1553 0.929 . S
H1540 C1554 0.931 . S
H1541 C1556 0.930 . S
C1542 H1530 0.930 . S
C1542 C1543 1.399 . S
C1542 C1547 1.399 . S
C1543 C1542 1.399 . S
C1543 C1544 1.376 . S
C1544 H1531 0.930 . S
C1544 C1543 1.376 . S
C1544 C1545 1.388 . S
C1545 H1532 0.930 . S
C1545 C1544 1.388 . S
C1545 C1546 1.390 . S
C1546 C1545 1.390 . S
C1546 C1547 1.394 . S
C1546 C1552 1.465 . S
C1547 C1542 1.399 . S
C1547 C1546 1.394 . S
C1547 C1548 1.516 . S
C1548 C1547 1.516 . S
C1548 C1549 1.502 . S
C1548 C1550 1.561 . S
C1548 C1551 1.526 . S
C1549 H1533 0.959 . S
C1549 H1534 0.959 . S
C1549 H1535 0.961 . S
C1549 C1548 1.502 . S
C1550 H1536 0.960 . S
C1550 H1537 0.961 . S
C1550 H1538 0.959 . S
C1550 C1548 1.561 . S
C1551 C1548 1.526 . S
C1551 C1552 1.396 . S
C1551 C1556 1.390 . S
C1552 C1546 1.465 . S
C1552 C1551 1.396 . S
C1552 C1553 1.399 . S
C1553 H1539 0.929 . S
C1553 C1552 1.399 . S
C1553 C1554 1.385 . S
C1554 H1540 0.931 . S
C1554 C1553 1.385 . S
C1554 C1555 1.389 . S
C1555 C1554 1.389 . S
C1555 C1556 1.387 . S
C1556 H1541 0.930 . S
C1556 C1551 1.390 . S
C1556 C1555 1.387 . S
H1557 C1569 0.930 . S
H1558 C1571 0.930 . S
H1559 C1572 0.930 . S
H1560 C1576 0.959 . S
H1561 C1576 0.959 . S
H1562 C1576 0.961 . S
H1563 C1577 0.960 . S
H1564 C1577 0.961 . S
H1565 C1577 0.959 . S
H1566 C1580 0.929 . S
H1567 C1581 0.931 . S
H1568 C1583 0.930 . S
C1569 H1557 0.930 . S
C1569 C1570 1.399 . S
C1569 C1574 1.399 . S
C1570 C1569 1.399 . S
C1570 C1571 1.376 . S
C1571 H1558 0.930 . S
C1571 C1570 1.376 . S
C1571 C1572 1.388 . S
C1572 H1559 0.930 . S
C1572 C1571 1.388 . S
C1572 C1573 1.390 . S
C1573 C1572 1.390 . S
C1573 C1574 1.394 . S
C1573 C1579 1.465 . S
C1574 C1569 1.399 . S
C1574 C1573 1.394 . S
C1574 C1575 1.516 . S
C1575 C1574 1.516 . S
C1575 C1576 1.502 . S
C1575 C1577 1.561 . S
C1575 C1578 1.526 . S
C1576 H1560 0.959 . S
C1576 H1561 0.959 . S
C1576 H1562 0.961 . S
C1576 C1575 1.502 . S
C1577 H1563 0.960 . S
C1577 H1564 0.961 . S
C1577 H1565 0.959 . S
C1577 C1575 1.561 . S
C1578 C1575 1.526 . S
C1578 C1579 1.396 . S
C1578 C1583 1.390 . S
C1579 C1573 1.465 . S
C1579 C1578 1.396 . S
C1579 C1580 1.399 . S
C1580 H1566 0.929 . S
C1580 C1579 1.399 . S
C1580 C1581 1.385 . S
C1581 H1567 0.931 . S
C1581 C1580 1.385 . S
C1581 C1582 1.389 . S
C1582 C1581 1.389 . S
C1582 C1583 1.387 . S
C1583 H1568 0.930 . S
C1583 C1578 1.390 . S
C1583 C1582 1.387 . S
H1584 C1596 0.930 . S
H1585 C1598 0.930 . S
H1586 C1599 0.930 . S
H1587 C1603 0.959 . S
H1588 C1603 0.959 . S
H1589 C1603 0.961 . S
H1590 C1604 0.960 . S
H1591 C1604 0.961 . S
H1592 C1604 0.959 . S
H1593 C1607 0.929 . S
H1594 C1608 0.931 . S
H1595 C1610 0.930 . S
C1596 H1584 0.930 . S
C1596 C1597 1.399 . S
C1596 C1601 1.399 . S
C1597 C1596 1.399 . S
C1597 C1598 1.376 . S
C1598 H1585 0.930 . S
C1598 C1597 1.376 . S
C1598 C1599 1.388 . S
C1599 H1586 0.930 . S
C1599 C1598 1.388 . S
C1599 C1600 1.390 . S
C1600 C1599 1.390 . S
C1600 C1601 1.394 . S
C1600 C1606 1.465 . S
C1601 C1596 1.399 . S
C1601 C1600 1.394 . S
C1601 C1602 1.516 . S
C1602 C1601 1.516 . S
C1602 C1603 1.502 . S
C1602 C1604 1.561 . S
C1602 C1605 1.526 . S
C1603 H1587 0.959 . S
C1603 H1588 0.959 . S
C1603 H1589 0.961 . S
C1603 C1602 1.502 . S
C1604 H1590 0.960 . S
C1604 H1591 0.961 . S
C1604 H1592 0.959 . S
C1604 C1602 1.561 . S
C1605 C1602 1.526 . S
C1605 C1606 1.396 . S
C1605 C1610 1.390 . S
C1606 C1600 1.465 . S
C1606 C1605 1.396 . S
C1606 C1607 1.399 . S
C1607 H1593 0.929 . S
C1607 C1606 1.399 . S
C1607 C1608 1.385 . S
C1608 H1594 0.931 . S
C1608 C1607 1.385 . S
C1608 C1609 1.389 . S
C1609 C1608 1.389 . S
C1609 C1610 1.387 . S
C1610 H1595 0.930 . S
C1610 C1605 1.390 . S
C1610 C1609 1.387 . S
H1611 C1623 0.930 . S
H1612 C1625 0.930 . S
H1613 C1626 0.930 . S
H1614 C1630 0.959 . S
H1615 C1630 0.959 . S
H1616 C1630 0.961 . S
H1617 C1631 0.960 . S
H1618 C1631 0.961 . S
H1619 C1631 0.959 . S
H1620 C1634 0.929 . S
H1621 C1635 0.931 . S
H1622 C1637 0.930 . S
C1623 H1611 0.930 . S
C1623 C1624 1.399 . S
C1623 C1628 1.399 . S
C1624 C1623 1.399 . S
C1624 C1625 1.376 . S
C1625 H1612 0.930 . S
C1625 C1624 1.376 . S
C1625 C1626 1.388 . S
C1626 H1613 0.930 . S
C1626 C1625 1.388 . S
C1626 C1627 1.390 . S
C1627 C1626 1.390 . S
C1627 C1628 1.394 . S
C1627 C1633 1.465 . S
C1628 C1623 1.399 . S
C1628 C1627 1.394 . S
C1628 C1629 1.516 . S
C1629 C1628 1.516 . S
C1629 C1630 1.502 . S
C1629 C1631 1.561 . S
C1629 C1632 1.526 . S
C1630 H1614 0.959 . S
C1630 H1615 0.959 . S
C1630 H1616 0.961 . S
C1630 C1629 1.502 . S
C1631 H1617 0.960 . S
C1631 H1618 0.961 . S
C1631 H1619 0.959 . S
C1631 C1629 1.561 . S
C1632 C1629 1.526 . S
C1632 C1633 1.396 . S
C1632 C1637 1.390 . S
C1633 C1627 1.465 . S
C1633 C1632 1.396 . S
C1633 C1634 1.399 . S
C1634 H1620 0.929 . S
C1634 C1633 1.399 . S
C1634 C1635 1.385 . S
C1635 H1621 0.931 . S
C1635 C1634 1.385 . S
C1635 C1636 1.389 . S
C1636 C1635 1.389 . S
C1636 C1637 1.387 . S
C1637 H1622 0.930 . S
C1637 C1632 1.390 . S
C1637 C1636 1.387 . S
H1638 C1650 0.930 . S
H1639 C1652 0.930 . S
H1640 C1653 0.930 . S
H1641 C1657 0.959 . S
H1642 C1657 0.959 . S
H1643 C1657 0.961 . S
H1644 C1658 0.960 . S
H1645 C1658 0.961 . S
H1646 C1658 0.959 . S
H1647 C1661 0.929 . S
H1648 C1662 0.931 . S
H1649 C1664 0.930 . S
C1650 H1638 0.930 . S
C1650 C1651 1.399 . S
C1650 C1655 1.399 . S
C1651 C1650 1.399 . S
C1651 C1652 1.376 . S
C1652 H1639 0.930 . S
C1652 C1651 1.376 . S
C1652 C1653 1.388 . S
C1653 H1640 0.930 . S
C1653 C1652 1.388 . S
C1653 C1654 1.390 . S
C1654 C1653 1.390 . S
C1654 C1655 1.394 . S
C1654 C1660 1.465 . S
C1655 C1650 1.399 . S
C1655 C1654 1.394 . S
C1655 C1656 1.516 . S
C1656 C1655 1.516 . S
C1656 C1657 1.502 . S
C1656 C1658 1.561 . S
C1656 C1659 1.526 . S
C1657 H1641 0.959 . S
C1657 H1642 0.959 . S
C1657 H1643 0.961 . S
C1657 C1656 1.502 . S
C1658 H1644 0.960 . S
C1658 H1645 0.961 . S
C1658 H1646 0.959 . S
C1658 C1656 1.561 . S
C1659 C1656 1.526 . S
C1659 C1660 1.396 . S
C1659 C1664 1.390 . S
C1660 C1654 1.465 . S
C1660 C1659 1.396 . S
C1660 C1661 1.399 . S
C1661 H1647 0.929 . S
C1661 C1660 1.399 . S
C1661 C1662 1.385 . S
C1662 H1648 0.931 . S
C1662 C1661 1.385 . S
C1662 C1663 1.389 . S
C1663 C1662 1.389 . S
C1663 C1664 1.387 . S
C1664 H1649 0.930 . S
C1664 C1659 1.390 . S
C1664 C1663 1.387 . S
H1665 C1677 0.930 . S
H1666 C1679 0.930 . S
H1667 C1680 0.930 . S
H1668 C1684 0.959 . S
H1669 C1684 0.959 . S
H1670 C1684 0.961 . S
H1671 C1685 0.960 . S
H1672 C1685 0.961 . S
H1673 C1685 0.959 . S
H1674 C1688 0.929 . S
H1675 C1689 0.931 . S
H1676 C1691 0.930 . S
C1677 H1665 0.930 . S
C1677 C1678 1.399 . S
C1677 C1682 1.399 . S
C1678 C1677 1.399 . S
C1678 C1679 1.376 . S
C1679 H1666 0.930 . S
C1679 C1678 1.376 . S
C1679 C1680 1.388 . S
C1680 H1667 0.930 . S
C1680 C1679 1.388 . S
C1680 C1681 1.390 . S
C1681 C1680 1.390 . S
C1681 C1682 1.394 . S
C1681 C1687 1.465 . S
C1682 C1677 1.399 . S
C1682 C1681 1.394 . S
C1682 C1683 1.516 . S
C1683 C1682 1.516 . S
C1683 C1684 1.502 . S
C1683 C1685 1.561 . S
C1683 C1686 1.526 . S
C1684 H1668 0.959 . S
C1684 H1669 0.959 . S
C1684 H1670 0.961 . S
C1684 C1683 1.502 . S
C1685 H1671 0.960 . S
C1685 H1672 0.961 . S
C1685 H1673 0.959 . S
C1685 C1683 1.561 . S
C1686 C1683 1.526 . S
C1686 C1687 1.396 . S
C1686 C1691 1.390 . S
C1687 C1681 1.465 . S
C1687 C1686 1.396 . S
C1687 C1688 1.399 . S
C1688 H1674 0.929 . S
C1688 C1687 1.399 . S
C1688 C1689 1.385 . S
C1689 H1675 0.931 . S
C1689 C1688 1.385 . S
C1689 C1690 1.389 . S
C1690 C1689 1.389 . S
C1690 C1691 1.387 . S
C1691 H1676 0.930 . S
C1691 C1686 1.390 . S
C1691 C1690 1.387 . S
H1692 C1704 0.930 . S
H1693 C1706 0.930 . S
H1694 C1707 0.930 . S
H1695 C1711 0.959 . S
H1696 C1711 0.959 . S
H1697 C1711 0.961 . S
H1698 C1712 0.960 . S
H1699 C1712 0.961 . S
H1700 C1712 0.959 . S
H1701 C1715 0.929 . S
H1702 C1716 0.931 . S
H1703 C1718 0.930 . S
C1704 H1692 0.930 . S
C1704 C1705 1.399 . S
C1704 C1709 1.399 . S
C1705 C1704 1.399 . S
C1705 C1706 1.376 . S
C1706 H1693 0.930 . S
C1706 C1705 1.376 . S
C1706 C1707 1.388 . S
C1707 H1694 0.930 . S
C1707 C1706 1.388 . S
C1707 C1708 1.390 . S
C1708 C1707 1.390 . S
C1708 C1709 1.394 . S
C1708 C1714 1.465 . S
C1709 C1704 1.399 . S
C1709 C1708 1.394 . S
C1709 C1710 1.516 . S
C1710 C1709 1.516 . S
C1710 C1711 1.502 . S
C1710 C1712 1.561 . S
C1710 C1713 1.526 . S
C1711 H1695 0.959 . S
C1711 H1696 0.959 . S
C1711 H1697 0.961 . S
C1711 C1710 1.502 . S
C1712 H1698 0.960 . S
C1712 H1699 0.961 . S
C1712 H1700 0.959 . S
C1712 C1710 1.561 . S
C1713 C1710 1.526 . S
C1713 C1714 1.396 . S
C1713 C1718 1.390 . S
C1714 C1708 1.465 . S
C1714 C1713 1.396 . S
C1714 C1715 1.399 . S
C1715 H1701 0.929 . S
C1715 C1714 1.399 . S
C1715 C1716 1.385 . S
C1716 H1702 0.931 . S
C1716 C1715 1.385 . S
C1716 C1717 1.389 . S
C1717 C1716 1.389 . S
C1717 C1718 1.387 . S
C1718 H1703 0.930 . S
C1718 C1713 1.390 . S
C1718 C1717 1.387 . S
H1719 C1731 0.930 . S
H1720 C1733 0.930 . S
H1721 C1734 0.930 . S
H1722 C1738 0.959 . S
H1723 C1738 0.959 . S
H1724 C1738 0.961 . S
H1725 C1739 0.960 . S
H1726 C1739 0.961 . S
H1727 C1739 0.959 . S
H1728 C1742 0.929 . S
H1729 C1743 0.931 . S
H1730 C1745 0.930 . S
C1731 H1719 0.930 . S
C1731 C1732 1.399 . S
C1731 C1736 1.399 . S
C1732 C1731 1.399 . S
C1732 C1733 1.376 . S
C1733 H1720 0.930 . S
C1733 C1732 1.376 . S
C1733 C1734 1.388 . S
C1734 H1721 0.930 . S
C1734 C1733 1.388 . S
C1734 C1735 1.390 . S
C1735 C1734 1.390 . S
C1735 C1736 1.394 . S
C1735 C1741 1.465 . S
C1736 C1731 1.399 . S
C1736 C1735 1.394 . S
C1736 C1737 1.516 . S
C1737 C1736 1.516 . S
C1737 C1738 1.502 . S
C1737 C1739 1.561 . S
C1737 C1740 1.526 . S
C1738 H1722 0.959 . S
C1738 H1723 0.959 . S
C1738 H1724 0.961 . S
C1738 C1737 1.502 . S
C1739 H1725 0.960 . S
C1739 H1726 0.961 . S
C1739 H1727 0.959 . S
C1739 C1737 1.561 . S
C1740 C1737 1.526 . S
C1740 C1741 1.396 . S
C1740 C1745 1.390 . S
C1741 C1735 1.465 . S
C1741 C1740 1.396 . S
C1741 C1742 1.399 . S
C1742 H1728 0.929 . S
C1742 C1741 1.399 . S
C1742 C1743 1.385 . S
C1743 H1729 0.931 . S
C1743 C1742 1.385 . S
C1743 C1744 1.389 . S
C1744 C1743 1.389 . S
C1744 C1745 1.387 . S
C1745 H1730 0.930 . S
C1745 C1740 1.390 . S
C1745 C1744 1.387 . S
H1746 C1758 0.930 . S
H1747 C1760 0.930 . S
H1748 C1761 0.930 . S
H1749 C1765 0.959 . S
H1750 C1765 0.959 . S
H1751 C1765 0.961 . S
H1752 C1766 0.960 . S
H1753 C1766 0.961 . S
H1754 C1766 0.959 . S
H1755 C1769 0.929 . S
H1756 C1770 0.931 . S
H1757 C1772 0.930 . S
C1758 H1746 0.930 . S
C1758 C1759 1.399 . S
C1758 C1763 1.399 . S
C1759 C1758 1.399 . S
C1759 C1760 1.376 . S
C1760 H1747 0.930 . S
C1760 C1759 1.376 . S
C1760 C1761 1.388 . S
C1761 H1748 0.930 . S
C1761 C1760 1.388 . S
C1761 C1762 1.390 . S
C1762 C1761 1.390 . S
C1762 C1763 1.394 . S
C1762 C1768 1.465 . S
C1763 C1758 1.399 . S
C1763 C1762 1.394 . S
C1763 C1764 1.516 . S
C1764 C1763 1.516 . S
C1764 C1765 1.502 . S
C1764 C1766 1.561 . S
C1764 C1767 1.526 . S
C1765 H1749 0.959 . S
C1765 H1750 0.959 . S
C1765 H1751 0.961 . S
C1765 C1764 1.502 . S
C1766 H1752 0.960 . S
C1766 H1753 0.961 . S
C1766 H1754 0.959 . S
C1766 C1764 1.561 . S
C1767 C1764 1.526 . S
C1767 C1768 1.396 . S
C1767 C1772 1.390 . S
C1768 C1762 1.465 . S
C1768 C1767 1.396 . S
C1768 C1769 1.399 . S
C1769 H1755 0.929 . S
C1769 C1768 1.399 . S
C1769 C1770 1.385 . S
C1770 H1756 0.931 . S
C1770 C1769 1.385 . S
C1770 C1771 1.389 . S
C1771 C1770 1.389 . S
C1771 C1772 1.387 . S
C1772 H1757 0.930 . S
C1772 C1767 1.390 . S
C1772 C1771 1.387 . S
H1773 C1785 0.930 . S
H1774 C1787 0.930 . S
H1775 C1788 0.930 . S
H1776 C1792 0.959 . S
H1777 C1792 0.959 . S
H1778 C1792 0.961 . S
H1779 C1793 0.960 . S
H1780 C1793 0.961 . S
H1781 C1793 0.959 . S
H1782 C1796 0.929 . S
H1783 C1797 0.931 . S
H1784 C1799 0.930 . S
C1785 H1773 0.930 . S
C1785 C1786 1.399 . S
C1785 C1790 1.399 . S
C1786 C1785 1.399 . S
C1786 C1787 1.376 . S
C1787 H1774 0.930 . S
C1787 C1786 1.376 . S
C1787 C1788 1.388 . S
C1788 H1775 0.930 . S
C1788 C1787 1.388 . S
C1788 C1789 1.390 . S
C1789 C1788 1.390 . S
C1789 C1790 1.394 . S
C1789 C1795 1.465 . S
C1790 C1785 1.399 . S
C1790 C1789 1.394 . S
C1790 C1791 1.516 . S
C1791 C1790 1.516 . S
C1791 C1792 1.502 . S
C1791 C1793 1.561 . S
C1791 C1794 1.526 . S
C1792 H1776 0.959 . S
C1792 H1777 0.959 . S
C1792 H1778 0.961 . S
C1792 C1791 1.502 . S
C1793 H1779 0.960 . S
C1793 H1780 0.961 . S
C1793 H1781 0.959 . S
C1793 C1791 1.561 . S
C1794 C1791 1.526 . S
C1794 C1795 1.396 . S
C1794 C1799 1.390 . S
C1795 C1789 1.465 . S
C1795 C1794 1.396 . S
C1795 C1796 1.399 . S
C1796 H1782 0.929 . S
C1796 C1795 1.399 . S
C1796 C1797 1.385 . S
C1797 H1783 0.931 . S
C1797 C1796 1.385 . S
C1797 C1798 1.389 . S
C1798 C1797 1.389 . S
C1798 C1799 1.387 . S
C1799 H1784 0.930 . S
C1799 C1794 1.390 . S
C1799 C1798 1.387 . S
H1800 C1812 0.930 . S
H1801 C1814 0.930 . S
H1802 C1815 0.930 . S
H1803 C1819 0.959 . S
H1804 C1819 0.959 . S
H1805 C1819 0.961 . S
H1806 C1820 0.960 . S
H1807 C1820 0.961 . S
H1808 C1820 0.959 . S
H1809 C1823 0.929 . S
H1810 C1824 0.931 1_554 S
H1811 C1826 0.930 . S
C1812 H1800 0.930 . S
C1812 C1813 1.399 . S
C1812 C1817 1.399 . S
C1813 C1812 1.399 . S
C1813 C1814 1.376 . S
C1814 H1801 0.930 . S
C1814 C1813 1.376 . S
C1814 C1815 1.388 . S
C1815 H1802 0.930 . S
C1815 C1814 1.388 . S
C1815 C1816 1.390 . S
C1816 C1815 1.390 . S
C1816 C1817 1.394 . S
C1816 C1822 1.465 . S
C1817 C1812 1.399 . S
C1817 C1816 1.394 . S
C1817 C1818 1.516 . S
C1818 C1817 1.516 . S
C1818 C1819 1.502 . S
C1818 C1820 1.561 . S
C1818 C1821 1.526 . S
C1819 H1803 0.959 . S
C1819 H1804 0.959 . S
C1819 H1805 0.961 . S
C1819 C1818 1.502 . S
C1820 H1806 0.960 . S
C1820 H1807 0.961 . S
C1820 H1808 0.959 . S
C1820 C1818 1.561 . S
C1821 C1818 1.526 . S
C1821 C1822 1.396 . S
C1821 C1826 1.390 . S
C1822 C1816 1.465 . S
C1822 C1821 1.396 . S
C1822 C1823 1.399 . S
C1823 H1809 0.929 . S
C1823 C1822 1.399 . S
C1823 C1824 1.385 . S
C1824 H1810 0.931 1_556 S
C1824 C1823 1.385 . S
C1824 C1825 1.389 . S
C1825 C1824 1.389 . S
C1825 C1826 1.387 . S
C1826 H1811 0.930 . S
C1826 C1821 1.390 . S
C1826 C1825 1.387 . S
H1827 C1839 0.930 . S
H1828 C1841 0.930 . S
H1829 C1842 0.930 . S
H1830 C1846 0.959 . S
H1831 C1846 0.959 . S
H1832 C1846 0.961 . S
H1833 C1847 0.960 . S
H1834 C1847 0.961 . S
H1835 C1847 0.959 . S
H1836 C1850 0.929 . S
H1837 C1851 0.931 . S
H1838 C1853 0.930 . S
C1839 H1827 0.930 . S
C1839 C1840 1.399 . S
C1839 C1844 1.399 . S
C1840 C1839 1.399 . S
C1840 C1841 1.376 . S
C1841 H1828 0.930 . S
C1841 C1840 1.376 . S
C1841 C1842 1.388 . S
C1842 H1829 0.930 . S
C1842 C1841 1.388 . S
C1842 C1843 1.390 . S
C1843 C1842 1.390 . S
C1843 C1844 1.394 . S
C1843 C1849 1.465 . S
C1844 C1839 1.399 . S
C1844 C1843 1.394 . S
C1844 C1845 1.516 . S
C1845 C1844 1.516 . S
C1845 C1846 1.502 . S
C1845 C1847 1.561 . S
C1845 C1848 1.526 . S
C1846 H1830 0.959 . S
C1846 H1831 0.959 . S
C1846 H1832 0.961 . S
C1846 C1845 1.502 . S
C1847 H1833 0.960 . S
C1847 H1834 0.961 . S
C1847 H1835 0.959 . S
C1847 C1845 1.561 . S
C1848 C1845 1.526 . S
C1848 C1849 1.396 . S
C1848 C1853 1.390 . S
C1849 C1843 1.465 . S
C1849 C1848 1.396 . S
C1849 C1850 1.399 . S
C1850 H1836 0.929 . S
C1850 C1849 1.399 . S
C1850 C1851 1.385 . S
C1851 H1837 0.931 . S
C1851 C1850 1.385 . S
C1851 C1852 1.389 . S
C1852 C1851 1.389 . S
C1852 C1853 1.387 . S
C1853 H1838 0.930 . S
C1853 C1848 1.390 . S
C1853 C1852 1.387 . S
H1854 C1866 0.930 . S
H1855 C1868 0.930 . S
H1856 C1869 0.930 . S
H1857 C1873 0.959 . S
H1858 C1873 0.959 1_554 S
H1859 C1873 0.961 . S
H1860 C1874 0.960 . S
H1861 C1874 0.961 . S
H1862 C1874 0.959 . S
H1863 C1877 0.929 . S
H1864 C1878 0.931 . S
H1865 C1880 0.930 1_554 S
C1866 H1854 0.930 . S
C1866 C1867 1.399 . S
C1866 C1871 1.399 . S
C1867 C1866 1.399 . S
C1867 C1868 1.376 . S
C1868 H1855 0.930 . S
C1868 C1867 1.376 . S
C1868 C1869 1.388 . S
C1869 H1856 0.930 . S
C1869 C1868 1.388 . S
C1869 C1870 1.390 . S
C1870 C1869 1.390 . S
C1870 C1871 1.394 . S
C1870 C1876 1.465 . S
C1871 C1866 1.399 . S
C1871 C1870 1.394 . S
C1871 C1872 1.516 . S
C1872 C1871 1.516 . S
C1872 C1873 1.502 . S
C1872 C1874 1.561 . S
C1872 C1875 1.526 . S
C1873 H1857 0.959 . S
C1873 H1858 0.959 1_556 S
C1873 H1859 0.961 . S
C1873 C1872 1.502 . S
C1874 H1860 0.960 . S
C1874 H1861 0.961 . S
C1874 H1862 0.959 . S
C1874 C1872 1.561 . S
C1875 C1872 1.526 . S
C1875 C1876 1.396 . S
C1875 C1880 1.390 . S
C1876 C1870 1.465 . S
C1876 C1875 1.396 . S
C1876 C1877 1.399 . S
C1877 H1863 0.929 . S
C1877 C1876 1.399 . S
C1877 C1878 1.385 . S
C1878 H1864 0.931 . S
C1878 C1877 1.385 . S
C1878 C1879 1.389 . S
C1879 C1878 1.389 . S
C1879 C1880 1.387 . S
C1880 H1865 0.930 1_556 S
C1880 C1875 1.390 . S
C1880 C1879 1.387 . S
H1881 C1893 0.930 . S
H1882 C1895 0.930 . S
H1883 C1896 0.930 1_554 S
H1884 C1900 0.959 . S
H1885 C1900 0.959 . S
H1886 C1900 0.961 . S
H1887 C1901 0.960 . S
H1888 C1901 0.961 . S
H1889 C1901 0.959 . S
H1890 C1904 0.929 . S
H1891 C1905 0.931 . S
H1892 C1907 0.930 . S
C1893 H1881 0.930 . S
C1893 C1894 1.399 . S
C1893 C1898 1.399 . S
C1894 C1893 1.399 . S
C1894 C1895 1.376 . S
C1895 H1882 0.930 . S
C1895 C1894 1.376 . S
C1895 C1896 1.388 . S
C1896 H1883 0.930 1_556 S
C1896 C1895 1.388 . S
C1896 C1897 1.390 . S
C1897 C1896 1.390 . S
C1897 C1898 1.394 . S
C1897 C1903 1.465 1_556 S
C1898 C1893 1.399 . S
C1898 C1897 1.394 . S
C1898 C1899 1.516 . S
C1899 C1898 1.516 . S
C1899 C1900 1.502 . S
C1899 C1901 1.561 . S
C1899 C1902 1.526 . S
C1900 H1884 0.959 . S
C1900 H1885 0.959 . S
C1900 H1886 0.961 . S
C1900 C1899 1.502 . S
C1901 H1887 0.960 . S
C1901 H1888 0.961 . S
C1901 H1889 0.959 . S
C1901 C1899 1.561 . S
C1902 C1899 1.526 . S
C1902 C1903 1.396 1_556 S
C1902 C1907 1.390 1_556 S
C1903 C1897 1.465 1_554 S
C1903 C1902 1.396 1_554 S
C1903 C1904 1.399 . S
C1904 H1890 0.929 . S
C1904 C1903 1.399 . S
C1904 C1905 1.385 . S
C1905 H1891 0.931 . S
C1905 C1904 1.385 . S
C1905 C1906 1.389 . S
C1906 C1905 1.389 . S
C1906 C1907 1.387 . S
C1907 H1892 0.930 . S
C1907 C1902 1.390 1_554 S
C1907 C1906 1.387 . S
H1908 C1920 0.930 . S
H1909 C1922 0.930 . S
H1910 C1923 0.930 . S
H1911 C1927 0.959 . S
H1912 C1927 0.959 . S
H1913 C1927 0.961 . S
H1914 C1928 0.960 . S
H1915 C1928 0.961 . S
H1916 C1928 0.959 1_554 S
H1917 C1931 0.929 . S
H1918 C1932 0.931 . S
H1919 C1934 0.930 . S
C1920 H1908 0.930 . S
C1920 C1921 1.399 . S
C1920 C1925 1.399 . S
C1921 C1920 1.399 . S
C1921 C1922 1.376 . S
C1922 H1909 0.930 . S
C1922 C1921 1.376 . S
C1922 C1923 1.388 . S
C1923 H1910 0.930 . S
C1923 C1922 1.388 . S
C1923 C1924 1.390 . S
C1924 C1923 1.390 . S
C1924 C1925 1.394 . S
C1924 C1930 1.465 1_556 S
C1925 C1920 1.399 . S
C1925 C1924 1.394 . S
C1925 C1926 1.516 . S
C1926 C1925 1.516 . S
C1926 C1927 1.502 . S
C1926 C1928 1.561 . S
C1926 C1929 1.526 . S
C1927 H1911 0.959 . S
C1927 H1912 0.959 . S
C1927 H1913 0.961 . S
C1927 C1926 1.502 . S
C1928 H1914 0.960 . S
C1928 H1915 0.961 . S
C1928 H1916 0.959 1_556 S
C1928 C1926 1.561 . S
C1929 C1926 1.526 . S
C1929 C1930 1.396 1_556 S
C1929 C1934 1.390 1_556 S
C1930 C1924 1.465 1_554 S
C1930 C1929 1.396 1_554 S
C1930 C1931 1.399 . S
C1931 H1917 0.929 . S
C1931 C1930 1.399 . S
C1931 C1932 1.385 . S
C1932 H1918 0.931 . S
C1932 C1931 1.385 . S
C1932 C1933 1.389 . S
C1933 C1932 1.389 . S
C1933 C1934 1.387 . S
C1934 H1919 0.930 . S
C1934 C1929 1.390 1_554 S
C1934 C1933 1.387 . S
H1935 C1947 0.930 . S
H1936 C1949 0.930 . S
H1937 C1950 0.930 . S
H1938 C1954 0.959 . S
H1939 C1954 0.959 . S
H1940 C1954 0.961 . S
H1941 C1955 0.960 . S
H1942 C1955 0.961 1_554 S
H1943 C1955 0.959 . S
H1944 C1958 0.929 . S
H1945 C1959 0.931 . S
H1946 C1961 0.930 . S
C1947 H1935 0.930 . S
C1947 C1948 1.399 . S
C1947 C1952 1.399 . S
C1948 C1947 1.399 . S
C1948 C1949 1.376 . S
C1949 H1936 0.930 . S
C1949 C1948 1.376 . S
C1949 C1950 1.388 . S
C1950 H1937 0.930 . S
C1950 C1949 1.388 . S
C1950 C1951 1.390 . S
C1951 C1950 1.390 . S
C1951 C1952 1.394 . S
C1951 C1957 1.465 . S
C1952 C1947 1.399 . S
C1952 C1951 1.394 . S
C1952 C1953 1.516 1_556 S
C1953 C1952 1.516 1_554 S
C1953 C1954 1.502 . S
C1953 C1955 1.561 1_554 S
C1953 C1956 1.526 . S
C1954 H1938 0.959 . S
C1954 H1939 0.959 . S
C1954 H1940 0.961 . S
C1954 C1953 1.502 . S
C1955 H1941 0.960 . S
C1955 H1942 0.961 1_556 S
C1955 H1943 0.959 . S
C1955 C1953 1.561 1_556 S
C1956 C1953 1.526 . S
C1956 C1957 1.396 1_554 S
C1956 C1961 1.390 . S
C1957 C1951 1.465 . S
C1957 C1956 1.396 1_556 S
C1957 C1958 1.399 . S
C1958 H1944 0.929 . S
C1958 C1957 1.399 . S
C1958 C1959 1.385 1_556 S
C1959 H1945 0.931 . S
C1959 C1958 1.385 1_554 S
C1959 C1960 1.389 . S
C1960 C1959 1.389 . S
C1960 C1961 1.387 . S
C1961 H1946 0.930 . S
C1961 C1956 1.390 . S
C1961 C1960 1.387 . S
H1962 C1974 0.930 . S
H1963 C1976 0.930 . S
H1964 C1977 0.930 . S
H1965 C1981 0.959 1_554 S
H1966 C1981 0.959 1_554 S
H1967 C1981 0.961 . S
H1968 C1982 0.960 . S
H1969 C1982 0.961 . S
H1970 C1982 0.959 . S
H1971 C1985 0.929 . S
H1972 C1986 0.931 . S
H1973 C1988 0.930 . S
C1974 H1962 0.930 . S
C1974 C1975 1.399 . S
C1974 C1979 1.399 . S
C1975 C1974 1.399 . S
C1975 C1976 1.376 . S
C1976 H1963 0.930 . S
C1976 C1975 1.376 . S
C1976 C1977 1.388 . S
C1977 H1964 0.930 . S
C1977 C1976 1.388 . S
C1977 C1978 1.390 . S
C1978 C1977 1.390 . S
C1978 C1979 1.394 . S
C1978 C1984 1.465 . S
C1979 C1974 1.399 . S
C1979 C1978 1.394 . S
C1979 C1980 1.516 . S
C1980 C1979 1.516 . S
C1980 C1981 1.502 . S
C1980 C1982 1.561 . S
C1980 C1983 1.526 . S
C1981 H1965 0.959 1_556 S
C1981 H1966 0.959 1_556 S
C1981 H1967 0.961 . S
C1981 C1980 1.502 . S
C1982 H1968 0.960 . S
C1982 H1969 0.961 . S
C1982 H1970 0.959 . S
C1982 C1980 1.561 . S
C1983 C1980 1.526 . S
C1983 C1984 1.396 . S
C1983 C1988 1.390 . S
C1984 C1978 1.465 . S
C1984 C1983 1.396 . S
C1984 C1985 1.399 . S
C1985 H1971 0.929 . S
C1985 C1984 1.399 . S
C1985 C1986 1.385 . S
C1986 H1972 0.931 . S
C1986 C1985 1.385 . S
C1986 C1987 1.389 . S
C1987 C1986 1.389 . S
C1987 C1988 1.387 . S
C1988 H1973 0.930 . S
C1988 C1983 1.390 . S
C1988 C1987 1.387 . S
H1989 C2001 0.930 . S
H1990 C2003 0.930 . S
H1991 C2004 0.930 . S
H1992 C2008 0.959 . S
H1993 C2008 0.959 . S
H1994 C2008 0.961 . S
H1995 C2009 0.966 . S
H1996 C2009 0.962 . S
H1997 C2009 0.953 1_556 S
H1998 C2012 0.929 . S
H1999 C2013 0.931 . S
H2000 C2015 0.930 . S
C2001 H1989 0.930 . S
C2001 C2002 1.399 1_554 S
C2001 C2006 1.399 1_554 S
C2002 C2001 1.399 1_556 S
C2002 C2003 1.376 . S
C2003 H1990 0.930 . S
C2003 C2002 1.376 . S
C2003 C2004 1.388 . S
C2004 H1991 0.930 . S
C2004 C2003 1.388 . S
C2004 C2005 1.390 . S
C2005 C2004 1.390 . S
C2005 C2006 1.394 . S
C2005 C2011 1.465 . S
C2006 C2001 1.399 1_556 S
C2006 C2005 1.394 . S
C2006 C2007 1.516 . S
C2007 C2006 1.516 . S
C2007 C2008 1.502 1_556 S
C2007 C2009 1.559 1_556 S
C2007 C2010 1.526 . S
C2008 H1992 0.959 . S
C2008 H1993 0.959 . S
C2008 H1994 0.961 . S
C2008 C2007 1.502 1_554 S
C2009 H1995 0.966 . S
C2009 H1996 0.962 . S
C2009 H1997 0.953 1_554 S
C2009 C2007 1.559 1_554 S
C2010 C2007 1.526 . S
C2010 C2011 1.396 . S
C2010 C2015 1.390 . S
C2011 C2005 1.465 . S
C2011 C2010 1.396 . S
C2011 C2012 1.399 . S
C2012 H1998 0.929 . S
C2012 C2011 1.399 . S
C2012 C2013 1.385 . S
C2013 H1999 0.931 . S
C2013 C2012 1.385 . S
C2013 C2014 1.389 . S
C2014 C2013 1.389 . S
C2014 C2015 1.387 . S
C2015 H2000 0.930 . S
C2015 C2010 1.390 . S
C2015 C2014 1.387 . S
H2016 C2028 0.930 . S
H2017 C2030 0.930 . S
H2018 C2031 0.930 . S
H2019 C2035 0.959 . S
H2020 C2035 0.959 . S
H2021 C2035 0.961 . S
H2022 C2036 0.960 . S
H2023 C2036 0.961 . S
H2024 C2036 0.959 . S
H2025 C2039 0.929 . S
H2026 C2040 0.931 . S
H2027 C2042 0.930 . S
C2028 H2016 0.930 . S
C2028 C2029 1.399 . S
C2028 C2033 1.399 . S
C2029 C2028 1.399 . S
C2029 C2030 1.376 . S
C2030 H2017 0.930 . S
C2030 C2029 1.376 . S
C2030 C2031 1.388 . S
C2031 H2018 0.930 . S
C2031 C2030 1.388 . S
C2031 C2032 1.390 . S
C2032 C2031 1.390 . S
C2032 C2033 1.394 . S
C2032 C2038 1.465 . S
C2033 C2028 1.399 . S
C2033 C2032 1.394 . S
C2033 C2034 1.516 . S
C2034 C2033 1.516 . S
C2034 C2035 1.502 . S
C2034 C2036 1.561 . S
C2034 C2037 1.526 . S
C2035 H2019 0.959 . S
C2035 H2020 0.959 . S
C2035 H2021 0.961 . S
C2035 C2034 1.502 . S
C2036 H2022 0.960 . S
C2036 H2023 0.961 . S
C2036 H2024 0.959 . S
C2036 C2034 1.561 . S
C2037 C2034 1.526 . S
C2037 C2038 1.396 . S
C2037 C2042 1.390 . S
C2038 C2032 1.465 . S
C2038 C2037 1.396 . S
C2038 C2039 1.400 1_556 S
C2039 H2025 0.929 . S
C2039 C2038 1.400 1_554 S
C2039 C2040 1.385 . S
C2040 H2026 0.931 . S
C2040 C2039 1.385 . S
C2040 C2041 1.389 1_554 S
C2041 C2040 1.389 1_556 S
C2041 C2042 1.387 . S
C2042 H2027 0.930 . S
C2042 C2037 1.390 . S
C2042 C2041 1.387 . S
H2043 C2055 0.930 . S
H2044 C2057 0.930 . S
H2045 C2058 0.930 . S
H2046 C2062 0.959 . S
H2047 C2062 0.959 . S
H2048 C2062 0.961 . S
H2049 C2063 0.960 . S
H2050 C2063 0.961 . S
H2051 C2063 0.959 . S
H2052 C2066 0.929 . S
H2053 C2067 0.931 . S
H2054 C2069 0.930 . S
C2055 H2043 0.930 . S
C2055 C2056 1.399 . S
C2055 C2060 1.399 . S
C2056 C2055 1.399 . S
C2056 C2057 1.376 . S
C2057 H2044 0.930 . S
C2057 C2056 1.376 . S
C2057 C2058 1.388 . S
C2058 H2045 0.930 . S
C2058 C2057 1.388 . S
C2058 C2059 1.390 . S
C2059 C2058 1.390 . S
C2059 C2060 1.394 . S
C2059 C2065 1.465 . S
C2060 C2055 1.399 . S
C2060 C2059 1.394 . S
C2060 C2061 1.516 . S
C2061 C2060 1.516 . S
C2061 C2062 1.502 . S
C2061 C2063 1.561 . S
C2061 C2064 1.526 . S
C2062 H2046 0.959 . S
C2062 H2047 0.959 . S
C2062 H2048 0.961 . S
C2062 C2061 1.502 . S
C2063 H2049 0.960 . S
C2063 H2050 0.961 . S
C2063 H2051 0.959 . S
C2063 C2061 1.561 . S
C2064 C2061 1.526 . S
C2064 C2065 1.396 . S
C2064 C2069 1.390 . S
C2065 C2059 1.465 . S
C2065 C2064 1.396 . S
C2065 C2066 1.399 . S
C2066 H2052 0.929 . S
C2066 C2065 1.399 . S
C2066 C2067 1.385 . S
C2067 H2053 0.931 . S
C2067 C2066 1.385 . S
C2067 C2068 1.389 . S
C2068 C2067 1.389 . S
C2068 C2069 1.387 . S
C2069 H2054 0.930 . S
C2069 C2064 1.390 . S
C2069 C2068 1.387 . S
H2070 C2082 0.930 . S
H2071 C2084 0.930 . S
H2072 C2085 0.930 . S
H2073 C2089 0.959 . S
H2074 C2089 0.959 . S
H2075 C2089 0.961 . S
H2076 C2090 0.960 . S
H2077 C2090 0.961 . S
H2078 C2090 0.959 . S
H2079 C2093 0.929 . S
H2080 C2094 0.931 . S
H2081 C2096 0.930 . S
C2082 H2070 0.930 . S
C2082 C2083 1.399 . S
C2082 C2087 1.399 . S
C2083 C2082 1.399 . S
C2083 C2084 1.376 . S
C2084 H2071 0.930 . S
C2084 C2083 1.376 . S
C2084 C2085 1.388 . S
C2085 H2072 0.930 . S
C2085 C2084 1.388 . S
C2085 C2086 1.390 . S
C2086 C2085 1.390 . S
C2086 C2087 1.394 . S
C2086 C2092 1.465 . S
C2087 C2082 1.399 . S
C2087 C2086 1.394 . S
C2087 C2088 1.516 . S
C2088 C2087 1.516 . S
C2088 C2089 1.502 . S
C2088 C2090 1.561 . S
C2088 C2091 1.526 . S
C2089 H2073 0.959 . S
C2089 H2074 0.959 . S
C2089 H2075 0.961 . S
C2089 C2088 1.502 . S
C2090 H2076 0.960 . S
C2090 H2077 0.961 . S
C2090 H2078 0.959 . S
C2090 C2088 1.561 . S
C2091 C2088 1.526 . S
C2091 C2092 1.396 . S
C2091 C2096 1.390 . S
C2092 C2086 1.465 . S
C2092 C2091 1.396 . S
C2092 C2093 1.399 . S
C2093 H2079 0.929 . S
C2093 C2092 1.399 . S
C2093 C2094 1.385 . S
C2094 H2080 0.931 . S
C2094 C2093 1.385 . S
C2094 C2095 1.389 . S
C2095 C2094 1.389 . S
C2095 C2096 1.387 . S
C2096 H2081 0.930 . S
C2096 C2091 1.390 . S
C2096 C2095 1.387 . S
H2097 C2109 0.930 . S
H2098 C2111 0.930 . S
H2099 C2112 0.930 . S
H2100 C2116 0.959 . S
H2101 C2116 0.959 . S
H2102 C2116 0.961 . S
H2103 C2117 0.960 . S
H2104 C2117 0.961 . S
H2105 C2117 0.959 . S
H2106 C2120 0.929 . S
H2107 C2121 0.931 . S
H2108 C2123 0.930 . S
C2109 H2097 0.930 . S
C2109 C2110 1.399 . S
C2109 C2114 1.399 . S
C2110 C2109 1.399 . S
C2110 C2111 1.376 . S
C2111 H2098 0.930 . S
C2111 C2110 1.376 . S
C2111 C2112 1.388 . S
C2112 H2099 0.930 . S
C2112 C2111 1.388 . S
C2112 C2113 1.390 . S
C2113 C2112 1.390 . S
C2113 C2114 1.394 . S
C2113 C2119 1.465 . S
C2114 C2109 1.399 . S
C2114 C2113 1.394 . S
C2114 C2115 1.516 . S
C2115 C2114 1.516 . S
C2115 C2116 1.502 . S
C2115 C2117 1.561 . S
C2115 C2118 1.526 . S
C2116 H2100 0.959 . S
C2116 H2101 0.959 . S
C2116 H2102 0.961 . S
C2116 C2115 1.502 . S
C2117 H2103 0.960 . S
C2117 H2104 0.961 . S
C2117 H2105 0.959 . S
C2117 C2115 1.561 . S
C2118 C2115 1.526 . S
C2118 C2119 1.396 . S
C2118 C2123 1.390 . S
C2119 C2113 1.465 . S
C2119 C2118 1.396 . S
C2119 C2120 1.399 . S
C2120 H2106 0.929 . S
C2120 C2119 1.399 . S
C2120 C2121 1.385 . S
C2121 H2107 0.931 . S
C2121 C2120 1.385 . S
C2121 C2122 1.389 . S
C2122 C2121 1.389 . S
C2122 C2123 1.387 . S
C2123 H2108 0.930 . S
C2123 C2118 1.390 . S
C2123 C2122 1.387 . S
H2124 C2136 0.930 . S
H2125 C2138 0.930 . S
H2126 C2139 0.930 . S
H2127 C2143 0.959 . S
H2128 C2143 0.959 . S
H2129 C2143 0.961 . S
H2130 C2144 0.960 . S
H2131 C2144 0.961 . S
H2132 C2144 0.959 . S
H2133 C2147 0.929 . S
H2134 C2148 0.931 . S
H2135 C2150 0.930 . S
C2136 H2124 0.930 . S
C2136 C2137 1.399 . S
C2136 C2141 1.399 . S
C2137 C2136 1.399 . S
C2137 C2138 1.376 1_554 S
C2138 H2125 0.930 . S
C2138 C2137 1.376 1_556 S
C2138 C2139 1.388 . S
C2139 H2126 0.930 . S
C2139 C2138 1.388 . S
C2139 C2140 1.390 1_556 S
C2140 C2139 1.390 1_554 S
C2140 C2141 1.394 . S
C2140 C2146 1.465 . S
C2141 C2136 1.399 . S
C2141 C2140 1.394 . S
C2141 C2142 1.516 . S
C2142 C2141 1.516 . S
C2142 C2143 1.502 . S
C2142 C2144 1.561 . S
C2142 C2145 1.526 . S
C2143 H2127 0.959 . S
C2143 H2128 0.959 . S
C2143 H2129 0.961 . S
C2143 C2142 1.502 . S
C2144 H2130 0.960 . S
C2144 H2131 0.961 . S
C2144 H2132 0.959 . S
C2144 C2142 1.561 . S
C2145 C2142 1.526 . S
C2145 C2146 1.396 . S
C2145 C2150 1.390 . S
C2146 C2140 1.465 . S
C2146 C2145 1.396 . S
C2146 C2147 1.399 . S
C2147 H2133 0.929 . S
C2147 C2146 1.399 . S
C2147 C2148 1.385 . S
C2148 H2134 0.931 . S
C2148 C2147 1.385 . S
C2148 C2149 1.389 . S
C2149 C2148 1.389 . S
C2149 C2150 1.387 . S
C2150 H2135 0.930 . S
C2150 C2145 1.390 . S
C2150 C2149 1.387 . S
H2151 C2163 0.930 . S
H2152 C2165 0.930 . S
H2153 C2166 0.930 . S
H2154 C2170 0.959 . S
H2155 C2170 0.959 . S
H2156 C2170 0.961 . S
H2157 C2171 0.960 . S
H2158 C2171 0.961 . S
H2159 C2171 0.959 . S
H2160 C2174 0.929 . S
H2161 C2175 0.931 . S
H2162 C2177 0.930 1_556 S
C2163 H2151 0.930 . S
C2163 C2164 1.399 . S
C2163 C2168 1.399 . S
C2164 C2163 1.399 . S
C2164 C2165 1.376 . S
C2165 H2152 0.930 . S
C2165 C2164 1.376 . S
C2165 C2166 1.388 . S
C2166 H2153 0.930 . S
C2166 C2165 1.388 . S
C2166 C2167 1.390 . S
C2167 C2166 1.390 . S
C2167 C2168 1.394 . S
C2167 C2173 1.465 . S
C2168 C2163 1.399 . S
C2168 C2167 1.394 . S
C2168 C2169 1.516 . S
C2169 C2168 1.516 . S
C2169 C2170 1.502 . S
C2169 C2171 1.561 1_554 S
C2169 C2172 1.526 . S
C2170 H2154 0.959 . S
C2170 H2155 0.959 . S
C2170 H2156 0.961 . S
C2170 C2169 1.502 . S
C2171 H2157 0.960 . S
C2171 H2158 0.961 . S
C2171 H2159 0.959 . S
C2171 C2169 1.561 1_556 S
C2172 C2169 1.526 . S
C2172 C2173 1.396 . S
C2172 C2177 1.390 . S
C2173 C2167 1.465 . S
C2173 C2172 1.396 . S
C2173 C2174 1.399 . S
C2174 H2160 0.929 . S
C2174 C2173 1.399 . S
C2174 C2175 1.385 . S
C2175 H2161 0.931 . S
C2175 C2174 1.385 . S
C2175 C2176 1.389 . S
C2176 C2175 1.389 . S
C2176 C2177 1.387 . S
C2177 H2162 0.930 1_554 S
C2177 C2172 1.390 . S
C2177 C2176 1.387 . S
H2178 C2190 0.930 . S
H2179 C2192 0.930 . S
H2180 C2193 0.930 . S
H2181 C2197 0.959 1_554 S
H2182 C2197 0.959 . S
H2183 C2197 0.961 . S
H2184 C2198 0.960 . S
H2185 C2198 0.961 . S
H2186 C2198 0.959 . S
H2187 C2201 0.929 . S
H2188 C2202 0.931 . S
H2189 C2204 0.930 . S
C2190 H2178 0.930 . S
C2190 C2191 1.399 . S
C2190 C2195 1.399 . S
C2191 C2190 1.399 . S
C2191 C2192 1.376 . S
C2192 H2179 0.930 . S
C2192 C2191 1.376 . S
C2192 C2193 1.388 . S
C2193 H2180 0.930 . S
C2193 C2192 1.388 . S
C2193 C2194 1.390 . S
C2194 C2193 1.390 . S
C2194 C2195 1.394 . S
C2194 C2200 1.465 . S
C2195 C2190 1.399 . S
C2195 C2194 1.394 . S
C2195 C2196 1.516 . S
C2196 C2195 1.516 . S
C2196 C2197 1.502 1_554 S
C2196 C2198 1.561 1_554 S
C2196 C2199 1.526 . S
C2197 H2181 0.959 1_556 S
C2197 H2182 0.959 . S
C2197 H2183 0.961 . S
C2197 C2196 1.502 1_556 S
C2198 H2184 0.960 . S
C2198 H2185 0.961 . S
C2198 H2186 0.959 . S
C2198 C2196 1.561 1_556 S
C2199 C2196 1.526 . S
C2199 C2200 1.396 . S
C2199 C2204 1.390 1_554 S
C2200 C2194 1.465 . S
C2200 C2199 1.396 . S
C2200 C2201 1.399 . S
C2201 H2187 0.929 . S
C2201 C2200 1.399 . S
C2201 C2202 1.385 . S
C2202 H2188 0.931 . S
C2202 C2201 1.385 . S
C2202 C2203 1.389 . S
C2203 C2202 1.389 . S
C2203 C2204 1.387 1_554 S
C2204 H2189 0.930 . S
C2204 C2199 1.390 1_556 S
C2204 C2203 1.387 1_556 S
H2205 C2217 0.930 . S
H2206 C2219 0.930 . S
H2207 C2220 0.930 . S
H2208 C2224 0.959 . S
H2209 C2224 0.959 . S
H2210 C2224 0.961 . S
H2211 C2225 0.960 . S
H2212 C2225 0.961 . S
H2213 C2225 0.959 . S
H2214 C2228 0.929 . S
H2215 C2229 0.931 . S
H2216 C2231 0.930 . S
C2217 H2205 0.930 . S
C2217 C2218 1.399 . S
C2217 C2222 1.399 . S
C2218 C2217 1.399 . S
C2218 C2219 1.376 . S
C2219 H2206 0.930 . S
C2219 C2218 1.376 . S
C2219 C2220 1.388 . S
C2220 H2207 0.930 . S
C2220 C2219 1.388 . S
C2220 C2221 1.390 . S
C2221 C2220 1.390 . S
C2221 C2222 1.394 . S
C2221 C2227 1.465 . S
C2222 C2217 1.399 . S
C2222 C2221 1.394 . S
C2222 C2223 1.516 . S
C2223 C2222 1.516 . S
C2223 C2224 1.502 . S
C2223 C2225 1.561 . S
C2223 C2226 1.526 . S
C2224 H2208 0.959 . S
C2224 H2209 0.959 . S
C2224 H2210 0.961 . S
C2224 C2223 1.502 . S
C2225 H2211 0.960 . S
C2225 H2212 0.961 . S
C2225 H2213 0.959 . S
C2225 C2223 1.561 . S
C2226 C2223 1.526 . S
C2226 C2227 1.396 . S
C2226 C2231 1.390 . S
C2227 C2221 1.465 . S
C2227 C2226 1.396 . S
C2227 C2228 1.399 . S
C2228 H2214 0.929 . S
C2228 C2227 1.399 . S
C2228 C2229 1.385 . S
C2229 H2215 0.931 . S
C2229 C2228 1.385 . S
C2229 C2230 1.389 . S
C2230 C2229 1.389 . S
C2230 C2231 1.387 . S
C2231 H2216 0.930 . S
C2231 C2226 1.390 . S
C2231 C2230 1.387 . S
H2232 C2244 0.930 . S
H2233 C2246 0.930 . S
H2234 C2247 0.930 . S
H2235 C2251 0.959 . S
H2236 C2251 0.959 . S
H2237 C2251 0.961 . S
H2238 C2252 0.960 . S
H2239 C2252 0.961 . S
H2240 C2252 0.959 . S
H2241 C2255 0.929 . S
H2242 C2256 0.931 . S
H2243 C2258 0.930 . S
C2244 H2232 0.930 . S
C2244 C2245 1.399 . S
C2244 C2249 1.399 . S
C2245 C2244 1.399 . S
C2245 C2246 1.376 . S
C2246 H2233 0.930 . S
C2246 C2245 1.376 . S
C2246 C2247 1.388 . S
C2247 H2234 0.930 . S
C2247 C2246 1.388 . S
C2247 C2248 1.390 . S
C2248 C2247 1.390 . S
C2248 C2249 1.394 . S
C2248 C2254 1.465 . S
C2249 C2244 1.399 . S
C2249 C2248 1.394 . S
C2249 C2250 1.516 . S
C2250 C2249 1.516 . S
C2250 C2251 1.502 . S
C2250 C2252 1.561 . S
C2250 C2253 1.526 . S
C2251 H2235 0.959 . S
C2251 H2236 0.959 . S
C2251 H2237 0.961 . S
C2251 C2250 1.502 . S
C2252 H2238 0.960 . S
C2252 H2239 0.961 . S
C2252 H2240 0.959 . S
C2252 C2250 1.561 . S
C2253 C2250 1.526 . S
C2253 C2254 1.396 . S
C2253 C2258 1.390 . S
C2254 C2248 1.465 . S
C2254 C2253 1.396 . S
C2254 C2255 1.399 . S
C2255 H2241 0.929 . S
C2255 C2254 1.399 . S
C2255 C2256 1.385 . S
C2256 H2242 0.931 . S
C2256 C2255 1.385 . S
C2256 C2257 1.389 . S
C2257 C2256 1.389 . S
C2257 C2258 1.387 . S
C2258 H2243 0.930 . S
C2258 C2253 1.390 . S
C2258 C2257 1.387 . S
H2259 C2271 0.930 . S
H2260 C2273 0.930 . S
H2261 C2274 0.930 . S
H2262 C2278 0.959 . S
H2263 C2278 0.959 . S
H2264 C2278 0.961 . S
H2265 C2279 0.960 . S
H2266 C2279 0.961 . S
H2267 C2279 0.959 . S
H2268 C2282 0.929 . S
H2269 C2283 0.931 . S
H2270 C2285 0.930 . S
C2271 H2259 0.930 . S
C2271 C2272 1.399 . S
C2271 C2276 1.399 . S
C2272 C2271 1.399 . S
C2272 C2273 1.376 . S
C2273 H2260 0.930 . S
C2273 C2272 1.376 . S
C2273 C2274 1.388 . S
C2274 H2261 0.930 . S
C2274 C2273 1.388 . S
C2274 C2275 1.390 . S
C2275 C2274 1.390 . S
C2275 C2276 1.394 . S
C2275 C2281 1.465 . S
C2276 C2271 1.399 . S
C2276 C2275 1.394 . S
C2276 C2277 1.516 . S
C2277 C2276 1.516 . S
C2277 C2278 1.502 . S
C2277 C2279 1.561 . S
C2277 C2280 1.526 . S
C2278 H2262 0.959 . S
C2278 H2263 0.959 . S
C2278 H2264 0.961 . S
C2278 C2277 1.502 . S
C2279 H2265 0.960 . S
C2279 H2266 0.961 . S
C2279 H2267 0.959 . S
C2279 C2277 1.561 . S
C2280 C2277 1.526 . S
C2280 C2281 1.396 . S
C2280 C2285 1.390 . S
C2281 C2275 1.465 . S
C2281 C2280 1.396 . S
C2281 C2282 1.399 . S
C2282 H2268 0.929 . S
C2282 C2281 1.399 . S
C2282 C2283 1.385 . S
C2283 H2269 0.931 . S
C2283 C2282 1.385 . S
C2283 C2284 1.389 . S
C2284 C2283 1.389 . S
C2284 C2285 1.387 . S
C2285 H2270 0.930 . S
C2285 C2280 1.390 . S
C2285 C2284 1.387 . S
H2286 C2298 0.930 . S
H2287 C2300 0.930 . S
H2288 C2301 0.930 . S
H2289 C2305 0.974 . S
H2290 C2305 0.931 1_455 S
H2291 C2305 1.024 . S
H2292 C2306 0.960 . S
H2293 C2306 0.961 . S
H2294 C2306 0.959 . S
H2295 C2309 0.929 . S
H2296 C2310 0.931 . S
H2297 C2312 0.930 . S
C2298 H2286 0.930 . S
C2298 C2299 1.399 . S
C2298 C2303 1.399 . S
C2299 C2298 1.399 . S
C2299 C2300 1.376 . S
C2300 H2287 0.930 . S
C2300 C2299 1.376 . S
C2300 C2301 1.388 . S
C2301 H2288 0.930 . S
C2301 C2300 1.388 . S
C2301 C2302 1.390 . S
C2302 C2301 1.390 . S
C2302 C2303 1.394 . S
C2302 C2308 1.465 1_655 S
C2303 C2298 1.399 . S
C2303 C2302 1.394 . S
C2303 C2304 1.516 1_655 S
C2304 C2303 1.516 1_455 S
C2304 C2305 1.459 1_455 S
C2304 C2306 1.561 . S
C2304 C2307 1.526 . S
C2305 H2289 0.974 . S
C2305 H2290 0.931 1_655 S
C2305 H2291 1.024 . S
C2305 C2304 1.459 1_655 S
C2306 H2292 0.960 . S
C2306 H2293 0.961 . S
C2306 H2294 0.959 . S
C2306 C2304 1.561 . S
C2307 C2304 1.526 . S
C2307 C2308 1.396 . S
C2307 C2312 1.390 . S
C2308 C2302 1.465 1_455 S
C2308 C2307 1.396 . S
C2308 C2309 1.399 . S
C2309 H2295 0.929 . S
C2309 C2308 1.399 . S
C2309 C2310 1.385 . S
C2310 H2296 0.931 . S
C2310 C2309 1.385 . S
C2310 C2311 1.389 . S
C2311 C2310 1.389 . S
C2311 C2312 1.387 . S
C2312 H2297 0.930 . S
C2312 C2307 1.390 . S
C2312 C2311 1.387 . S
H2313 C2325 0.930 . S
H2314 C2327 0.930 . S
H2315 C2328 0.930 . S
H2316 C2332 0.959 . S
H2317 C2332 0.959 . S
H2318 C2332 0.961 . S
H2319 C2333 0.960 . S
H2320 C2333 0.961 . S
H2321 C2333 0.959 . S
H2322 C2336 0.929 . S
H2323 C2337 0.931 . S
H2324 C2339 0.930 . S
C2325 H2313 0.930 . S
C2325 C2326 1.399 . S
C2325 C2330 1.399 . S
C2326 C2325 1.399 . S
C2326 C2327 1.376 . S
C2327 H2314 0.930 . S
C2327 C2326 1.376 . S
C2327 C2328 1.388 . S
C2328 H2315 0.930 . S
C2328 C2327 1.388 . S
C2328 C2329 1.390 . S
C2329 C2328 1.390 . S
C2329 C2330 1.394 . S
C2329 C2335 1.465 . S
C2330 C2325 1.399 . S
C2330 C2329 1.394 . S
C2330 C2331 1.516 . S
C2331 C2330 1.516 . S
C2331 C2332 1.502 . S
C2331 C2333 1.561 . S
C2331 C2334 1.526 . S
C2332 H2316 0.959 . S
C2332 H2317 0.959 . S
C2332 H2318 0.961 . S
C2332 C2331 1.502 . S
C2333 H2319 0.960 . S
C2333 H2320 0.961 . S
C2333 H2321 0.959 . S
C2333 C2331 1.561 . S
C2334 C2331 1.526 . S
C2334 C2335 1.396 . S
C2334 C2339 1.390 . S
C2335 C2329 1.465 . S
C2335 C2334 1.396 . S
C2335 C2336 1.399 . S
C2336 H2322 0.929 . S
C2336 C2335 1.399 . S
C2336 C2337 1.385 . S
C2337 H2323 0.931 . S
C2337 C2336 1.385 . S
C2337 C2338 1.389 . S
C2338 C2337 1.389 . S
C2338 C2339 1.387 . S
C2339 H2324 0.930 . S
C2339 C2334 1.390 . S
C2339 C2338 1.387 . S
H2340 C2352 0.930 . S
H2341 C2354 0.930 . S
H2342 C2355 0.930 . S
H2343 C2359 0.959 . S
H2344 C2359 0.959 . S
H2345 C2359 0.961 . S
H2346 C2360 0.960 . S
H2347 C2360 0.961 . S
H2348 C2360 0.959 . S
H2349 C2363 0.929 . S
H2350 C2364 0.931 . S
H2351 C2366 0.930 . S
C2352 H2340 0.930 . S
C2352 C2353 1.399 . S
C2352 C2357 1.399 . S
C2353 C2352 1.399 . S
C2353 C2354 1.376 . S
C2354 H2341 0.930 . S
C2354 C2353 1.376 . S
C2354 C2355 1.388 . S
C2355 H2342 0.930 . S
C2355 C2354 1.388 . S
C2355 C2356 1.390 . S
C2356 C2355 1.390 . S
C2356 C2357 1.394 . S
C2356 C2362 1.465 1_565 S
C2357 C2352 1.399 . S
C2357 C2356 1.394 . S
C2357 C2358 1.516 1_565 S
C2358 C2357 1.516 1_545 S
C2358 C2359 1.502 . S
C2358 C2360 1.561 . S
C2358 C2361 1.526 . S
C2359 H2343 0.959 . S
C2359 H2344 0.959 . S
C2359 H2345 0.961 . S
C2359 C2358 1.502 . S
C2360 H2346 0.960 . S
C2360 H2347 0.961 . S
C2360 H2348 0.959 . S
C2360 C2358 1.561 . S
C2361 C2358 1.526 . S
C2361 C2362 1.396 . S
C2361 C2366 1.390 . S
C2362 C2356 1.465 1_545 S
C2362 C2361 1.396 . S
C2362 C2363 1.399 . S
C2363 H2349 0.929 . S
C2363 C2362 1.399 . S
C2363 C2364 1.385 . S
C2364 H2350 0.931 . S
C2364 C2363 1.385 . S
C2364 C2365 1.389 . S
C2365 C2364 1.389 . S
C2365 C2366 1.387 . S
C2366 H2351 0.930 . S
C2366 C2361 1.390 . S
C2366 C2365 1.387 . S
H2367 C2379 0.930 . S
H2368 C2381 0.930 . S
H2369 C2382 0.930 . S
H2370 C2386 0.959 . S
H2371 C2386 0.959 1_565 S
H2372 C2386 0.961 . S
H2373 C2387 0.940 1_545 S
H2374 C2387 0.961 . S
H2375 C2387 0.959 . S
H2376 C2390 0.929 . S
H2377 C2391 0.931 . S
H2378 C2393 0.930 . S
C2379 H2367 0.930 . S
C2379 C2380 1.399 . S
C2379 C2384 1.399 . S
C2380 C2379 1.399 . S
C2380 C2381 1.376 . S
C2381 H2368 0.930 . S
C2381 C2380 1.376 . S
C2381 C2382 1.388 . S
C2382 H2369 0.930 . S
C2382 C2381 1.388 . S
C2382 C2383 1.390 . S
C2383 C2382 1.390 . S
C2383 C2384 1.394 . S
C2383 C2389 1.465 1_545 S
C2384 C2379 1.399 . S
C2384 C2383 1.394 . S
C2384 C2385 1.463 1_545 S
C2385 C2384 1.463 1_565 S
C2385 C2386 1.507 1_565 S
C2385 C2387 1.595 . S
C2385 C2388 1.543 . S
C2386 H2370 0.959 . S
C2386 H2371 0.959 1_545 S
C2386 H2372 0.961 . S
C2386 C2385 1.507 1_545 S
C2387 H2373 0.940 1_565 S
C2387 H2374 0.961 . S
C2387 H2375 0.959 . S
C2387 C2385 1.595 . S
C2388 C2385 1.543 . S
C2388 C2389 1.396 . S
C2388 C2393 1.390 . S
C2389 C2383 1.465 1_565 S
C2389 C2388 1.396 . S
C2389 C2390 1.399 . S
C2390 H2376 0.929 . S
C2390 C2389 1.399 . S
C2390 C2391 1.385 . S
C2391 H2377 0.931 . S
C2391 C2390 1.385 . S
C2391 C2392 1.389 . S
C2392 C2391 1.389 . S
C2392 C2393 1.387 . S
C2393 H2378 0.930 . S
C2393 C2388 1.390 . S
C2393 C2392 1.387 . S
H2394 C2406 0.930 . S
H2395 C2408 0.930 . S
H2396 C2409 0.930 . S
H2397 C2413 0.959 . S
H2398 C2413 0.959 . S
H2399 C2413 0.961 . S
H2400 C2414 0.960 . S
H2401 C2414 0.961 . S
H2402 C2414 0.959 . S
H2403 C2417 0.929 . S
H2404 C2418 0.931 . S
H2405 C2420 0.930 . S
C2406 H2394 0.930 . S
C2406 C2407 1.399 . S
C2406 C2411 1.399 . S
C2407 C2406 1.399 . S
C2407 C2408 1.376 . S
C2408 H2395 0.930 . S
C2408 C2407 1.376 . S
C2408 C2409 1.388 . S
C2409 H2396 0.930 . S
C2409 C2408 1.388 . S
C2409 C2410 1.390 . S
C2410 C2409 1.390 . S
C2410 C2411 1.394 . S
C2410 C2416 1.465 1_455 S
C2411 C2406 1.399 . S
C2411 C2410 1.394 . S
C2411 C2412 1.516 . S
C2412 C2411 1.516 . S
C2412 C2413 1.502 . S
C2412 C2414 1.561 . S
C2412 C2415 1.526 1_455 S
C2413 H2397 0.959 . S
C2413 H2398 0.959 . S
C2413 H2399 0.961 . S
C2413 C2412 1.502 . S
C2414 H2400 0.960 . S
C2414 H2401 0.961 . S
C2414 H2402 0.959 . S
C2414 C2412 1.561 . S
C2415 C2412 1.526 1_655 S
C2415 C2416 1.396 . S
C2415 C2420 1.390 . S
C2416 C2410 1.465 1_655 S
C2416 C2415 1.396 . S
C2416 C2417 1.399 . S
C2417 H2403 0.929 . S
C2417 C2416 1.399 . S
C2417 C2418 1.385 . S
C2418 H2404 0.931 . S
C2418 C2417 1.385 . S
C2418 C2419 1.389 . S
C2419 C2418 1.389 . S
C2419 C2420 1.387 . S
C2420 H2405 0.930 . S
C2420 C2415 1.390 . S
C2420 C2419 1.387 . S
H2421 C2433 0.930 . S
H2422 C2435 0.930 . S
H2423 C2436 0.930 . S
H2424 C2440 0.959 . S
H2425 C2440 0.959 . S
H2426 C2440 0.961 . S
H2427 C2441 0.960 . S
H2428 C2441 0.961 . S
H2429 C2441 0.959 . S
H2430 C2444 0.929 . S
H2431 C2445 0.931 . S
H2432 C2447 0.930 . S
C2433 H2421 0.930 . S
C2433 C2434 1.399 . S
C2433 C2438 1.399 . S
C2434 C2433 1.399 . S
C2434 C2435 1.376 . S
C2435 H2422 0.930 . S
C2435 C2434 1.376 . S
C2435 C2436 1.388 . S
C2436 H2423 0.930 . S
C2436 C2435 1.388 . S
C2436 C2437 1.390 . S
C2437 C2436 1.390 . S
C2437 C2438 1.394 . S
C2437 C2443 1.465 . S
C2438 C2433 1.399 . S
C2438 C2437 1.394 . S
C2438 C2439 1.516 . S
C2439 C2438 1.516 . S
C2439 C2440 1.502 . S
C2439 C2441 1.561 . S
C2439 C2442 1.526 . S
C2440 H2424 0.959 . S
C2440 H2425 0.959 . S
C2440 H2426 0.961 . S
C2440 C2439 1.502 . S
C2441 H2427 0.960 . S
C2441 H2428 0.961 . S
C2441 H2429 0.959 . S
C2441 C2439 1.561 . S
C2442 C2439 1.526 . S
C2442 C2443 1.396 . S
C2442 C2447 1.390 . S
C2443 C2437 1.465 . S
C2443 C2442 1.396 . S
C2443 C2444 1.399 . S
C2444 H2430 0.929 . S
C2444 C2443 1.399 . S
C2444 C2445 1.385 . S
C2445 H2431 0.931 . S
C2445 C2444 1.385 . S
C2445 C2446 1.389 . S
C2446 C2445 1.389 . S
C2446 C2447 1.387 . S
C2447 H2432 0.930 . S
C2447 C2442 1.390 . S
C2447 C2446 1.387 . S
C517 C78 1.216 . S
C529 C8 1.191 . S
C544 C22 1.171 . S
C556 C50 1.220 . S
C571 C64 1.171 . S
C583 C36 1.212 . S
C598 C92 1.183 . S
C610 C162 1.208 . S
C625 C106 1.221 . S
C637 C134 1.173 . S
C652 C148 1.195 . S
C664 C120 1.199 . S
C679 C246 1.183 . S
C691 C176 1.220 . S
C706 C190 1.217 . S
C718 C218 1.189 . S
C733 C232 1.173 . S
C745 C204 1.209 . S
C760 C260 1.221 . S
C772 C330 1.172 . S
C787 C274 1.177 . S
C799 C302 1.216 . S
C814 C288 1.219 . S
C826 C316 1.173 . S
C841 C344 1.176 . S
C853 C414 1.222 . S
C868 C386 1.215 . S
C880 C358 1.193 . S
C895 C372 1.203 . S
C907 C400 1.206 . S
C922 C428 1.221 . S
C934 C498 1.171 . S
C949 C442 1.203 . S
C961 C470 1.188 . S
C976 C456 1.222 . S
C988 C484 1.171 . S
C1003 C147 1.273 . S
C1015 C9 1.294 . S
C1030 C161 1.270 . S
C1042 C23 1.294 . S
C1057 C133 1.218 . S
C1069 C37 1.223 . S
C1084 C119 1.302 . S
C1096 C51 1.250 . S
C1111 C65 1.290 . S
C1123 C91 1.304 . S
C1138 C79 1.204 . S
C1150 C105 1.267 . S
C1165 C93 1.196 . S
C1177 C63 1.277 . S
C1192 C107 1.234 . S
C1204 C77 1.306 . S
C1219 C121 1.223 . S
C1231 C49 1.303 . S
C1246 C35 1.269 . S
C1258 C135 1.297 . S
C1273 C7 1.243 . S
C1285 C149 1.294 . S
C1300 C163 1.296 . S
C1312 C21 1.274 . S
C1327 C177 1.277 . S
C1339 C315 1.247 1_554 S
C1354 C191 1.295 . S
C1366 C329 1.298 1_554 S
C1381 C301 1.307 1_554 S
C1393 C205 1.283 . S
C1408 C219 1.202 . S
C1420 C287 1.264 . S
C1435 C233 1.198 . S
C1447 C259 1.228 . S
C1462 C247 1.244 . S
C1474 C273 1.299 . S
C1489 C261 1.240 . S
C1501 C231 1.220 . S
C1516 C245 1.247 . S
C1528 C275 1.295 . S
C1543 C217 1.224 . S
C1555 C289 1.224 . S
C1570 C303 1.217 . S
C1582 C203 1.229 . S
C1597 C175 1.304 . S
C1609 C317 1.263 . S
C1624 C189 1.292 . S
C1636 C331 1.206 . S
C1651 C483 1.287 . S
C1663 C345 1.297 . S
C1678 C359 1.255 . S
C1690 C497 1.304 . S
C1705 C373 1.204 . S
C1717 C469 1.223 . S
C1732 C455 1.218 . S
C1744 C387 1.222 . S
C1759 C427 1.265 . S
C1771 C401 1.291 . S
C1786 C441 1.228 . S
C1798 C415 1.254 . S
C1813 C429 1.250 . S
C1825 C399 1.219 1_556 S
C1840 C413 1.293 1_556 S
C1852 C443 1.282 . S
C1867 C457 1.221 . S
C1879 C385 1.303 1_556 S
C1894 C371 1.295 . S
C1906 C471 1.208 . S
C1921 C343 1.278 . S
C1933 C485 1.197 . S
C1948 C357 1.245 . S
C1960 C499 1.294 . S
C1975 C227 1.381 . S
C1987 C3 1.375 1_556 S
C2002 C17 1.357 1_556 S
C2014 C241 1.367 . S
C2029 C213 1.376 . S
C2041 C31 1.381 1_556 S
C2056 C367 1.380 . S
C2068 C45 1.382 . S
C2083 C59 1.346 . S
C2095 C339 1.355 . S
C2110 C73 1.363 . S
C2122 C353 1.354 . S
C2137 C87 1.380 1_554 S
C2149 C479 1.361 . S
C2164 C493 1.380 . S
C2176 C101 1.378 1_554 S
C2191 C465 1.380 . S
C2203 C115 1.362 1_554 S
C2218 C283 1.381 . S
C2230 C129 1.364 . S
C2245 C143 1.357 . S
C2257 C255 1.378 . S
C2272 C157 1.338 . S
C2284 C269 1.356 . S
C2299 C171 1.382 . S
C2311 C395 1.382 . S
C2326 C409 1.374 . S
C2338 C185 1.380 . S
C2353 C381 1.367 . S
C2365 C199 1.375 . S
C2380 C297 1.345 . S
C2392 C451 1.339 . S
C2407 C423 1.373 . S
C2419 C311 1.351 . S
C2434 C437 1.381 . S
C2446 C325 1.375 . S
