# Generated by pormake.
# Topology pcb, (4)-cn, num edge types: 1
# Building blocks:
#     Node 0, Type 0, BuildingBlock: ICAMEG_clean_sbu_1, # of connection points: 4
#     Node 1, Type 0, BuildingBlock: ICAMEG_clean_sbu_1, # of connection points: 4
#     Node 2, Type 0, BuildingBlock: ICAMEG_clean_sbu_1, # of connection points: 4
#     Node 3, Type 0, BuildingBlock: ICAMEG_clean_sbu_1, # of connection points: 4
#     Node 4, Type 0, BuildingBlock: ICAMEG_clean_sbu_1, # of connection points: 4
#     Node 5, Type 0, BuildingBlock: ICAMEG_clean_sbu_1, # of connection points: 4
#     Node 6, Type 0, BuildingBlock: ICAMEG_clean_sbu_1, # of connection points: 4
#     Node 7, Type 0, BuildingBlock: ICAMEG_clean_sbu_1, # of connection points: 4
#     Node 8, Type 0, BuildingBlock: ICAMEG_clean_sbu_1, # of connection points: 4
#     Node 9, Type 0, BuildingBlock: ICAMEG_clean_sbu_1, # of connection points: 4
#     Node 10, Type 0, BuildingBlock: ICAMEG_clean_sbu_1, # of connection points: 4
#     Node 11, Type 0, BuildingBlock: ICAMEG_clean_sbu_1, # of connection points: 4
#     Node 12, Type 0, BuildingBlock: ICAMEG_clean_sbu_1, # of connection points: 4
#     Node 13, Type 0, BuildingBlock: ICAMEG_clean_sbu_1, # of connection points: 4
#     Node 14, Type 0, BuildingBlock: ICAMEG_clean_sbu_1, # of connection points: 4
#     Node 15, Type 0, BuildingBlock: ICAMEG_clean_sbu_1, # of connection points: 4
#     Edge 16, Type (0, 0), BuildingBlock: ZUJKAS_clean_linker_0, # of connection points: 2
#     Edge 17, Type (0, 0), BuildingBlock: ZUJKAS_clean_linker_0, # of connection points: 2
#     Edge 18, Type (0, 0), BuildingBlock: ZUJKAS_clean_linker_0, # of connection points: 2
#     Edge 19, Type (0, 0), BuildingBlock: ZUJKAS_clean_linker_0, # of connection points: 2
#     Edge 20, Type (0, 0), BuildingBlock: ZUJKAS_clean_linker_0, # of connection points: 2
#     Edge 21, Type (0, 0), BuildingBlock: ZUJKAS_clean_linker_0, # of connection points: 2
#     Edge 22, Type (0, 0), BuildingBlock: ZUJKAS_clean_linker_0, # of connection points: 2
#     Edge 23, Type (0, 0), BuildingBlock: ZUJKAS_clean_linker_0, # of connection points: 2
#     Edge 24, Type (0, 0), BuildingBlock: ZUJKAS_clean_linker_0, # of connection points: 2
#     Edge 25, Type (0, 0), BuildingBlock: ZUJKAS_clean_linker_0, # of connection points: 2
#     Edge 26, Type (0, 0), BuildingBlock: ZUJKAS_clean_linker_0, # of connection points: 2
#     Edge 27, Type (0, 0), BuildingBlock: ZUJKAS_clean_linker_0, # of connection points: 2
#     Edge 28, Type (0, 0), BuildingBlock: ZUJKAS_clean_linker_0, # of connection points: 2
#     Edge 29, Type (0, 0), BuildingBlock: ZUJKAS_clean_linker_0, # of connection points: 2
#     Edge 30, Type (0, 0), BuildingBlock: ZUJKAS_clean_linker_0, # of connection points: 2
#     Edge 31, Type (0, 0), BuildingBlock: ZUJKAS_clean_linker_0, # of connection points: 2
#     Edge 32, Type (0, 0), BuildingBlock: ZUJKAS_clean_linker_0, # of connection points: 2
#     Edge 33, Type (0, 0), BuildingBlock: ZUJKAS_clean_linker_0, # of connection points: 2
#     Edge 34, Type (0, 0), BuildingBlock: ZUJKAS_clean_linker_0, # of connection points: 2
#     Edge 35, Type (0, 0), BuildingBlock: ZUJKAS_clean_linker_0, # of connection points: 2
#     Edge 36, Type (0, 0), BuildingBlock: ZUJKAS_clean_linker_0, # of connection points: 2
#     Edge 37, Type (0, 0), BuildingBlock: ZUJKAS_clean_linker_0, # of connection points: 2
#     Edge 38, Type (0, 0), BuildingBlock: ZUJKAS_clean_linker_0, # of connection points: 2
#     Edge 39, Type (0, 0), BuildingBlock: ZUJKAS_clean_linker_0, # of connection points: 2
#     Edge 40, Type (0, 0), BuildingBlock: ZUJKAS_clean_linker_0, # of connection points: 2
#     Edge 41, Type (0, 0), BuildingBlock: ZUJKAS_clean_linker_0, # of connection points: 2
#     Edge 42, Type (0, 0), BuildingBlock: ZUJKAS_clean_linker_0, # of connection points: 2
#     Edge 43, Type (0, 0), BuildingBlock: ZUJKAS_clean_linker_0, # of connection points: 2
#     Edge 44, Type (0, 0), BuildingBlock: ZUJKAS_clean_linker_0, # of connection points: 2
#     Edge 45, Type (0, 0), BuildingBlock: ZUJKAS_clean_linker_0, # of connection points: 2
#     Edge 46, Type (0, 0), BuildingBlock: ZUJKAS_clean_linker_0, # of connection points: 2
#     Edge 47, Type (0, 0), BuildingBlock: ZUJKAS_clean_linker_0, # of connection points: 2
# Relax obj value: 0.342
# Max RMSD: 0.268
# Mean RMSD: 0.202
data_MOF--net-pcb--node1-ICAMEG_clean_sbu_1--edge1-ZUJKAS_clean_linker_0
_symmetry_space_group_name_H-M    P1
_symmetry_Int_Tables_number       1
_symmetry_cell_setting            triclinic
loop_
_symmetry_equiv_pos_as_xyz
'x, y, z'
_cell_length_a     70.089463
_cell_length_b     55.576125
_cell_length_c     57.468022
_cell_angle_alpha  95.130022
_cell_angle_beta   94.062805
_cell_angle_gamma 99.357712
loop_
_atom_site_label
_atom_site_type_symbol
_atom_site_fract_x
_atom_site_fract_y
_atom_site_fract_z
_atom_type_partial_charge
Co0 Co 0.1249 0.12688 0.12418 0.0
Co1 Co 0.13015 0.18884 0.13669 0.0
O2 O 0.13794 0.1574 0.14178 0.0
C3 C 0.12409 0.11012 0.17253 0.0
O4 O 0.11283 0.1258 0.1789 0.0
C5 C 0.17297 0.19795 0.1356 0.0
O6 O 0.17108 0.17835 0.12052 0.0
O7 O 0.13342 0.18338 0.10255 0.0
O8 O 0.12008 0.1437 0.09546 0.0
H9 H 0.09372 0.24551 0.09511 0.0
H10 H 0.16427 0.12948 0.14782 0.0
O11 O 0.12987 0.10896 0.15202 0.0
H12 H 0.17032 0.10592 0.06423 0.0
H13 H 0.11559 0.03624 0.09922 0.0
H14 H 0.08907 0.11243 0.092 0.0
H15 H 0.13874 0.11219 0.07782 0.0
H16 H 0.13236 0.07535 0.12038 0.0
O17 O 0.15797 0.20517 0.14311 0.0
H18 H 0.10311 0.20571 0.10213 0.0
H19 H 0.14196 0.23968 0.16023 0.0
H20 H 0.07192 0.07374 0.07036 0.0
H21 H 0.19608 0.1231 0.13503 0.0
H22 H 0.08519 0.03528 0.0739 0.0
H23 H 0.19927 0.11133 0.09294 0.0
O24 O 0.09962 0.13314 0.13499 0.0
H25 H 0.14957 0.18888 0.22257 0.0
H26 H 0.09907 0.20463 0.16441 0.0
H27 H 0.09427 0.21007 0.20652 0.0
H28 H 0.11966 0.20224 0.23594 0.0
H29 H 0.15371 0.18346 0.18027 0.0
H30 H 0.13311 0.27989 0.15372 0.0
H31 H 0.10877 0.28296 0.12102 0.0
O32 O 0.10203 0.17328 0.13075 0.0
C33 C 0.1262 0.1645 0.08847 0.0
C34 C 0.1043 0.24439 0.10946 0.0
C35 C 0.12643 0.26369 0.14234 0.0
N36 N 0.12295 0.22035 0.13167 0.0
C37 C 0.10964 0.2219 0.11356 0.0
C38 C 0.13142 0.24089 0.1459 0.0
C39 C 0.11277 0.2654 0.12399 0.0
C40 C 0.16549 0.12412 0.12951 0.0
N41 N 0.14964 0.12121 0.11359 0.0
C42 C 0.18357 0.12063 0.12236 0.0
C43 C 0.18535 0.11407 0.09874 0.0
C44 C 0.16912 0.11107 0.08261 0.0
C45 C 0.15128 0.11474 0.0904 0.0
C46 C 0.10968 0.05288 0.0975 0.0
C47 C 0.09499 0.09579 0.09353 0.0
C48 C 0.11909 0.07508 0.10948 0.0
N49 N 0.11178 0.0962 0.10729 0.0
C50 C 0.08519 0.07393 0.08128 0.0
C51 C 0.09263 0.05236 0.08329 0.0
C52 C 0.09216 0.15252 0.13381 0.0
C53 C 0.13843 0.19242 0.20993 0.0
C54 C 0.11017 0.20113 0.17709 0.0
C55 C 0.10738 0.20428 0.20092 0.0
C56 C 0.12163 0.19989 0.21741 0.0
N57 N 0.12672 0.19387 0.16989 0.0
C58 C 0.14072 0.18946 0.18595 0.0
Co59 Co 0.85138 0.13855 0.17086 0.0
Co60 Co 0.86948 0.18095 0.21831 0.0
O61 O 0.85131 0.16893 0.19069 0.0
C62 C 0.85385 0.17644 0.1374 0.0
O63 O 0.86607 0.19105 0.1529 0.0
C64 C 0.83072 0.17671 0.2359 0.0
O65 O 0.82704 0.15479 0.22431 0.0
O66 O 0.86579 0.14821 0.23063 0.0
O67 O 0.85619 0.12107 0.19893 0.0
H68 H 0.92567 0.17904 0.27711 0.0
H69 H 0.81843 0.16549 0.16572 0.0
O70 O 0.84647 0.1551 0.14203 0.0
H71 H 0.7897 0.08349 0.18514 0.0
H72 H 0.82745 0.07498 0.10254 0.0
H73 H 0.87575 0.09969 0.17067 0.0
H74 H 0.82477 0.09368 0.18081 0.0
H75 H 0.82724 0.11299 0.12814 0.0
O76 O 0.84737 0.18995 0.23579 0.0
H77 H 0.90291 0.16375 0.24224 0.0
H78 H 0.87396 0.22469 0.25349 0.0
H79 H 0.87636 0.0614 0.14567 0.0
H80 H 0.78325 0.15604 0.16966 0.0
H81 H 0.85209 0.04884 0.11131 0.0
H82 H 0.76868 0.11481 0.17955 0.0
O83 O 0.87989 0.14721 0.16853 0.0
H84 H 0.8478 0.25326 0.18424 0.0
H85 H 0.90429 0.21714 0.21088 0.0
H86 H 0.90953 0.25724 0.19497 0.0
H87 H 0.88115 0.27557 0.18154 0.0
H88 H 0.84322 0.2131 0.20007 0.0
H89 H 0.89631 0.24056 0.2886 0.0
H90 H 0.92244 0.21772 0.30055 0.0
O91 O 0.8917 0.17199 0.20129 0.0
C92 C 0.86127 0.12632 0.22078 0.0
C93 C 0.91438 0.18919 0.27204 0.0
C94 C 0.89788 0.2237 0.27851 0.0
N95 N 0.88722 0.1934 0.24575 0.0
C96 C 0.90148 0.18066 0.25228 0.0
C97 C 0.88524 0.2146 0.25865 0.0
C98 C 0.91255 0.21089 0.2852 0.0
C99 C 0.81216 0.14744 0.16983 0.0
N100 N 0.82364 0.13016 0.17308 0.0
C101 C 0.79225 0.14223 0.17212 0.0
C102 C 0.78409 0.1191 0.1777 0.0
C103 C 0.79588 0.10153 0.18087 0.0
C104 C 0.81574 0.10743 0.17849 0.0
C105 C 0.83808 0.08024 0.11748 0.0
C106 C 0.86506 0.09425 0.15584 0.0
C107 C 0.83806 0.10177 0.13201 0.0
N108 N 0.85139 0.10845 0.15097 0.0
C109 C 0.86551 0.0726 0.14171 0.0
C110 C 0.85191 0.06557 0.12242 0.0
C111 C 0.89395 0.15953 0.18219 0.0
C112 C 0.86028 0.2455 0.1901 0.0
C113 C 0.89186 0.22497 0.20502 0.0
C114 C 0.89492 0.24771 0.19607 0.0
C115 C 0.879 0.25799 0.18856 0.0
N116 N 0.87346 0.21285 0.20651 0.0
C117 C 0.85777 0.22281 0.19918 0.0
Co118 Co 0.87483 0.87139 0.17942 0.0
Co119 Co 0.86696 0.80841 0.17771 0.0
O120 O 0.8627 0.8408 0.19035 0.0
C121 C 0.89223 0.90006 0.2239 0.0
O122 O 0.90932 0.8993 0.21612 0.0
C123 C 0.82427 0.80484 0.17262 0.0
O124 O 0.82706 0.82528 0.16256 0.0
O125 O 0.86136 0.81583 0.14484 0.0
O126 O 0.87261 0.85615 0.14644 0.0
H127 H 0.89426 0.74897 0.12377 0.0
H128 H 0.84105 0.87113 0.20772 0.0
O129 O 0.87703 0.88765 0.21238 0.0
H130 H 0.8207 0.89984 0.1326 0.0
H131 H 0.88612 0.96292 0.17611 0.0
H132 H 0.90536 0.8848 0.14745 0.0
H133 H 0.85351 0.88994 0.13972 0.0
H134 H 0.87034 0.92392 0.18883 0.0
O135 O 0.83874 0.79526 0.17948 0.0
H136 H 0.88918 0.78984 0.13997 0.0
H137 H 0.8527 0.75752 0.18874 0.0
H138 H 0.92142 0.92338 0.13413 0.0
H139 H 0.80816 0.88108 0.20141 0.0
H140 H 0.91184 0.96282 0.14852 0.0
H141 H 0.79778 0.89547 0.1636 0.0
O142 O 0.90087 0.86187 0.18432 0.0
H143 H 0.85466 0.80506 0.26256 0.0
H144 H 0.89846 0.78742 0.20215 0.0
H145 H 0.90601 0.77853 0.24274 0.0
H146 H 0.88398 0.78728 0.27325 0.0
H147 H 0.84776 0.8139 0.22179 0.0
H148 H 0.85726 0.71628 0.17294 0.0
H149 H 0.87823 0.71183 0.14028 0.0
O150 O 0.89522 0.82093 0.17585 0.0
C151 C 0.86619 0.83535 0.13503 0.0
C152 C 0.88513 0.75068 0.13805 0.0
C153 C 0.86434 0.73233 0.16562 0.0
N154 N 0.87078 0.77607 0.16539 0.0
C155 C 0.88225 0.77377 0.14734 0.0
C156 C 0.86178 0.75572 0.17446 0.0
C157 C 0.87612 0.72984 0.14731 0.0
C158 C 0.83672 0.87765 0.19131 0.0
N159 N 0.84925 0.88009 0.17417 0.0
C160 C 0.81804 0.88314 0.1878 0.0
C161 C 0.81222 0.89117 0.16657 0.0
C162 C 0.82506 0.8936 0.14916 0.0
C163 C 0.84361 0.8879 0.15327 0.0
C164 C 0.89041 0.94586 0.1697 0.0
C165 C 0.90106 0.90187 0.15374 0.0
C166 C 0.88155 0.92371 0.17687 0.0
N167 N 0.88693 0.90208 0.16891 0.0
C168 C 0.91022 0.92367 0.14615 0.0
C169 C 0.90485 0.94579 0.15423 0.0
C170 C 0.9067 0.84145 0.1801 0.0
C171 C 0.86434 0.80112 0.24941 0.0
C172 C 0.88886 0.79141 0.21535 0.0
C173 C 0.89318 0.78626 0.2383 0.0
C174 C 0.88081 0.79116 0.2554 0.0
N175 N 0.87264 0.80108 0.20959 0.0
C176 C 0.86048 0.80603 0.22628 0.0
Co177 Co 0.14837 0.85367 0.14846 0.0
Co178 Co 0.14519 0.82759 0.20082 0.0
O179 O 0.15489 0.83039 0.16992 0.0
C180 C 0.13605 0.80609 0.1187 0.0
O181 O 0.12585 0.79761 0.13541 0.0
C182 C 0.1879 0.83759 0.21022 0.0
O183 O 0.18801 0.85502 0.19623 0.0
O184 O 0.15078 0.86389 0.20926 0.0
O185 O 0.15112 0.88015 0.17478 0.0
H186 H 0.10562 0.84769 0.26725 0.0
H187 H 0.17985 0.82525 0.13935 0.0
O188 O 0.14576 0.82775 0.12142 0.0
H189 H 0.21088 0.91207 0.1452 0.0
H190 H 0.15061 0.89297 0.07282 0.0
H191 H 0.12364 0.89218 0.14977 0.0
H192 H 0.17578 0.90083 0.14892 0.0
H193 H 0.15905 0.86417 0.10057 0.0
O194 O 0.17187 0.82488 0.2143 0.0
H195 H 0.11788 0.85148 0.22834 0.0
H196 H 0.1523 0.79659 0.2392 0.0
H197 H 0.11495 0.92143 0.12264 0.0
H198 H 0.21496 0.83564 0.1353 0.0
H199 H 0.12847 0.92193 0.08385 0.0
H200 H 0.23071 0.87933 0.13832 0.0
O201 O 0.1201 0.84491 0.15268 0.0
H202 H 0.16003 0.74593 0.16949 0.0
H203 H 0.11073 0.78898 0.2036 0.0
H204 H 0.10294 0.74435 0.19257 0.0
H205 H 0.12771 0.72252 0.17541 0.0
H206 H 0.16714 0.79058 0.18059 0.0
H207 H 0.14054 0.79234 0.27833 0.0
H208 H 0.11697 0.81795 0.29255 0.0
O209 O 0.11858 0.83031 0.1879 0.0
C210 C 0.15208 0.88213 0.19711 0.0
C211 C 0.11587 0.83641 0.26125 0.0
C212 C 0.13549 0.80537 0.26747 0.0
N213 N 0.13575 0.82424 0.23149 0.0
C214 C 0.12284 0.83845 0.23921 0.0
C215 C 0.14215 0.80791 0.24534 0.0
C216 C 0.12225 0.81973 0.27543 0.0
C217 C 0.18658 0.84431 0.14051 0.0
N218 N 0.17579 0.86243 0.14443 0.0
C219 C 0.20647 0.85007 0.13827 0.0
C220 C 0.2153 0.87459 0.14 0.0
C221 C 0.20419 0.89297 0.14389 0.0
C222 C 0.18434 0.88651 0.14608 0.0
C223 C 0.14465 0.89295 0.08969 0.0
C224 C 0.12968 0.8924 0.13298 0.0
C225 C 0.14934 0.87664 0.10545 0.0
N226 N 0.14194 0.87662 0.12684 0.0
C227 C 0.12466 0.90895 0.11767 0.0
C228 C 0.13223 0.90921 0.09589 0.0
C229 C 0.11061 0.83685 0.16938 0.0
C230 C 0.14913 0.75522 0.177 0.0
C231 C 0.12156 0.77963 0.19608 0.0
C232 C 0.11708 0.75434 0.18992 0.0
C233 C 0.13099 0.7421 0.1803 0.0
N234 N 0.1394 0.79236 0.19284 0.0
C235 C 0.1531 0.78049 0.1834 0.0
Co236 Co 0.13368 0.82191 0.86284 0.0
Co237 Co 0.13012 0.76568 0.82973 0.0
O238 O 0.14127 0.80071 0.83713 0.0
C239 C 0.13707 0.85342 0.82214 0.0
O240 O 0.14164 0.83589 0.80787 0.0
C241 C 0.17251 0.76585 0.83621 0.0
O242 O 0.17323 0.78119 0.85513 0.0
O243 O 0.13415 0.75912 0.86318 0.0
O244 O 0.13341 0.79526 0.88376 0.0
H245 H 0.08685 0.68682 0.84075 0.0
H246 H 0.16962 0.83721 0.83895 0.0
O247 O 0.13365 0.85002 0.84318 0.0
H248 H 0.19129 0.84222 0.92291 0.0
H249 H 0.13515 0.901 0.91379 0.0
H250 H 0.10507 0.81389 0.8981 0.0
H251 H 0.15672 0.82944 0.90924 0.0
H252 H 0.14538 0.87455 0.88191 0.0
O253 O 0.15642 0.75793 0.82413 0.0
H254 H 0.10086 0.7306 0.84994 0.0
H255 H 0.13638 0.72669 0.79328 0.0
H256 H 0.09455 0.83965 0.93033 0.0
H257 H 0.20422 0.85037 0.85186 0.0
H258 H 0.10962 0.88354 0.93833 0.0
H259 H 0.21533 0.8529 0.89415 0.0
O260 O 0.10566 0.81072 0.85228 0.0
H261 H 0.15029 0.79781 0.75456 0.0
H262 H 0.09645 0.75402 0.79336 0.0
H263 H 0.09104 0.7618 0.75206 0.0
H264 H 0.1181 0.78377 0.73234 0.0
H265 H 0.15499 0.78997 0.79597 0.0
H266 H 0.12288 0.68281 0.78361 0.0
H267 H 0.09787 0.66262 0.80737 0.0
O268 O 0.1036 0.77243 0.83494 0.0
C269 C 0.13433 0.77251 0.88241 0.0
C270 C 0.09771 0.69542 0.83023 0.0
C271 C 0.11794 0.69317 0.79818 0.0
N272 N 0.11934 0.73122 0.82209 0.0
C273 C 0.10566 0.72022 0.83532 0.0
C274 C 0.12557 0.718 0.80378 0.0
C275 C 0.10391 0.68185 0.81151 0.0
C276 C 0.17415 0.83868 0.85738 0.0
N277 N 0.16097 0.83297 0.8733 0.0
C278 C 0.19386 0.84597 0.8646 0.0
C279 C 0.2001 0.84732 0.88831 0.0
C280 C 0.18663 0.84134 0.90445 0.0
C281 C 0.16704 0.8341 0.89658 0.0
C282 C 0.1285 0.88189 0.9105 0.0
C283 C 0.11179 0.83294 0.90159 0.0
C284 C 0.13419 0.86683 0.89243 0.0
N285 N 0.12593 0.84264 0.88826 0.0
C286 C 0.10573 0.84745 0.91981 0.0
C287 C 0.11418 0.87208 0.92427 0.0
C288 C 0.09588 0.79046 0.84262 0.0
C289 C 0.13839 0.7882 0.76295 0.0
C290 C 0.10825 0.76382 0.78501 0.0
C291 C 0.10512 0.76805 0.76156 0.0
C292 C 0.12032 0.78035 0.7505 0.0
N293 N 0.12601 0.77161 0.79712 0.0
C294 C 0.14098 0.78362 0.78637 0.0
Co295 Co 0.10217 0.13595 0.79082 0.0
Co296 Co 0.12908 0.19342 0.7995 0.0
O297 O 0.12524 0.15921 0.78529 0.0
C298 C 0.13291 0.10553 0.8 0.0
O299 O 0.14307 0.1237 0.81415 0.0
C300 C 0.14402 0.19592 0.75137 0.0
O301 O 0.13462 0.17387 0.74404 0.0
O302 O 0.10351 0.19743 0.784 0.0
O303 O 0.08601 0.16245 0.79248 0.0
H304 H 0.10814 0.26637 0.8421 0.0
H305 H 0.12348 0.12373 0.74988 0.0
O306 O 0.11711 0.10821 0.78903 0.0
H307 H 0.05732 0.12783 0.71695 0.0
H308 H 0.05574 0.05565 0.77845 0.0
H309 H 0.07163 0.13696 0.82386 0.0
H310 H 0.06596 0.13497 0.7596 0.0
H311 H 0.08419 0.08524 0.7706 0.0
O312 O 0.14253 0.20559 0.77197 0.0
H313 H 0.10423 0.22348 0.82467 0.0
H314 H 0.16159 0.23612 0.80356 0.0
H315 H 0.04293 0.10801 0.83214 0.0
H316 H 0.11538 0.11605 0.7071 0.0
H317 H 0.03483 0.06701 0.80935 0.0
H318 H 0.08211 0.1182 0.69036 0.0
O319 O 0.10935 0.14228 0.82515 0.0
H320 H 0.1936 0.16477 0.80251 0.0
H321 H 0.14892 0.20612 0.84784 0.0
H322 H 0.17989 0.19981 0.86738 0.0
H323 H 0.20254 0.17908 0.84466 0.0
H324 H 0.16236 0.17115 0.78376 0.0
H325 H 0.16603 0.27919 0.82057 0.0
H326 H 0.13922 0.29455 0.8401 0.0
O327 O 0.11642 0.18322 0.82822 0.0
C328 C 0.08725 0.1839 0.78585 0.0
C329 C 0.11995 0.25988 0.83368 0.0
C330 C 0.15243 0.26708 0.82157 0.0
N331 N 0.13269 0.22724 0.81322 0.0
C332 C 0.11783 0.23559 0.82382 0.0
C333 C 0.1498 0.24269 0.81191 0.0
C334 C 0.13738 0.27569 0.83254 0.0
C335 C 0.10894 0.12454 0.74274 0.0
N336 N 0.09527 0.12997 0.75723 0.0
C337 C 0.10445 0.12025 0.71849 0.0
C338 C 0.08579 0.12149 0.70911 0.0
C339 C 0.07189 0.12693 0.72401 0.0
C340 C 0.07691 0.13112 0.74816 0.0
C341 C 0.05911 0.07346 0.78849 0.0
C342 C 0.06817 0.11919 0.81381 0.0
C343 C 0.07525 0.09027 0.78418 0.0
N344 N 0.07955 0.11285 0.79672 0.0
C345 C 0.05191 0.10286 0.8186 0.0
C346 C 0.04738 0.07985 0.80582 0.0
C347 C 0.11268 0.16306 0.83736 0.0
C348 C 0.1839 0.17393 0.81258 0.0
C349 C 0.15864 0.19702 0.83783 0.0
C350 C 0.17619 0.19355 0.84899 0.0
C351 C 0.18889 0.18193 0.83623 0.0
N352 N 0.15386 0.18922 0.81458 0.0
C353 C 0.16621 0.17772 0.80201 0.0
Co354 Co 0.88638 0.20805 0.86444 0.0
Co355 Co 0.85903 0.19317 0.81115 0.0
O356 O 0.86346 0.20989 0.84331 0.0
C357 C 0.85324 0.20404 0.8963 0.0
O358 O 0.83978 0.20429 0.8793 0.0
C359 C 0.85349 0.24447 0.80465 0.0
O360 O 0.86864 0.25305 0.81958 0.0
O361 O 0.88553 0.20804 0.80351 0.0
O362 O 0.90307 0.20983 0.8379 0.0
H363 H 0.8764 0.14342 0.74084 0.0
H364 H 0.86215 0.24634 0.87497 0.0
O365 O 0.87104 0.20589 0.89244 0.0
H366 H 0.92806 0.29161 0.87016 0.0
H367 H 0.93073 0.2278 0.93901 0.0
H368 H 0.91909 0.18055 0.86104 0.0
H369 H 0.92152 0.24647 0.86451 0.0
H370 H 0.90216 0.23079 0.9125 0.0
O371 O 0.84825 0.22148 0.79957 0.0
H372 H 0.88158 0.16426 0.78108 0.0
H373 H 0.82678 0.18723 0.7731 0.0
H374 H 0.94796 0.17722 0.88692 0.0
H375 H 0.86808 0.29141 0.88107 0.0
H376 H 0.95392 0.20095 0.92622 0.0
H377 H 0.90124 0.31442 0.8786 0.0
O378 O 0.88103 0.17162 0.85925 0.0
H379 H 0.79394 0.19509 0.84209 0.0
H380 H 0.83581 0.14253 0.80482 0.0
H381 H 0.8033 0.12402 0.8144 0.0
H382 H 0.78207 0.15039 0.8331 0.0
H383 H 0.82671 0.21276 0.83257 0.0
H384 H 0.82109 0.16683 0.73272 0.0
H385 H 0.84597 0.14464 0.71637 0.0
O386 O 0.86912 0.16389 0.82158 0.0
C387 C 0.90174 0.21147 0.81592 0.0
C388 C 0.86543 0.15299 0.74779 0.0
C389 C 0.8344 0.16616 0.74321 0.0
N390 N 0.85447 0.17686 0.77947 0.0
C391 C 0.86826 0.16478 0.77057 0.0
C392 C 0.83773 0.17774 0.76607 0.0
C393 C 0.84836 0.1537 0.73406 0.0
C394 C 0.87667 0.25609 0.87424 0.0
N395 N 0.89149 0.24365 0.86967 0.0
C396 C 0.87992 0.28169 0.87755 0.0
C397 C 0.89851 0.29458 0.87611 0.0
C398 C 0.91356 0.2818 0.87135 0.0
C399 C 0.90975 0.25621 0.86811 0.0
C400 C 0.92832 0.21741 0.92191 0.0
C401 C 0.92166 0.19106 0.87806 0.0
C402 C 0.91214 0.21899 0.90683 0.0
N403 N 0.90905 0.20601 0.88515 0.0
C404 C 0.938 0.18904 0.89266 0.0
C405 C 0.94132 0.20235 0.91472 0.0
C406 C 0.8754 0.15696 0.84081 0.0
C407 C 0.80305 0.18341 0.83395 0.0
C408 C 0.82679 0.15408 0.81324 0.0
C409 C 0.80833 0.14352 0.81848 0.0
C410 C 0.79641 0.15832 0.82894 0.0
N411 N 0.83324 0.17869 0.81828 0.0
C412 C 0.82161 0.19332 0.82846 0.0
Co413 Co 0.89259 0.85783 0.84704 0.0
Co414 Co 0.85707 0.80752 0.83936 0.0
O415 O 0.86772 0.84041 0.83124 0.0
C416 C 0.86858 0.89757 0.84992 0.0
O417 O 0.85426 0.88242 0.85698 0.0
C418 C 0.84756 0.80503 0.78679 0.0
O419 O 0.8611 0.82385 0.78486 0.0
O420 O 0.88123 0.79571 0.83052 0.0
O421 O 0.90246 0.82642 0.85029 0.0
H422 H 0.86041 0.73013 0.87733 0.0
H423 H 0.87916 0.87339 0.80163 0.0
O424 O 0.88406 0.89014 0.84449 0.0
H425 H 0.94205 0.84766 0.78901 0.0
H426 H 0.95073 0.92548 0.85992 0.0
H427 H 0.91743 0.85024 0.88884 0.0
H428 H 0.9289 0.84622 0.82759 0.0
H429 H 0.91999 0.903 0.83954 0.0
O430 O 0.84485 0.79717 0.80663 0.0
H431 H 0.87287 0.77159 0.86706 0.0
H432 H 0.81929 0.77329 0.82826 0.0
H433 H 0.94822 0.87203 0.90962 0.0
H434 H 0.89196 0.87557 0.76282 0.0
H435 H 0.96509 0.90995 0.89518 0.0
H436 H 0.92358 0.86251 0.75629 0.0
O437 O 0.88161 0.85574 0.8778 0.0
H438 H 0.80172 0.85361 0.82739 0.0
H439 H 0.8329 0.80341 0.88014 0.0
H440 H 0.80365 0.81931 0.89135 0.0
H441 H 0.7878 0.84454 0.86484 0.0
H442 H 0.83114 0.83759 0.817 0.0
H443 H 0.80634 0.73177 0.83793 0.0
H444 H 0.82692 0.70994 0.86273 0.0
O445 O 0.86825 0.81607 0.87283 0.0
C446 C 0.89824 0.80491 0.83964 0.0
C447 C 0.85129 0.73947 0.86655 0.0
C448 C 0.82095 0.74038 0.84442 0.0
N449 N 0.84681 0.77492 0.84717 0.0
C450 C 0.85825 0.76297 0.86071 0.0
C451 C 0.82839 0.76387 0.83894 0.0
C452 C 0.8325 0.72815 0.85834 0.0
C453 C 0.89301 0.86789 0.79896 0.0
N454 N 0.9032 0.8596 0.81683 0.0
C455 C 0.90015 0.86908 0.77694 0.0
C456 C 0.91788 0.86172 0.77328 0.0
C457 C 0.92824 0.85336 0.79161 0.0
C458 C 0.92065 0.85246 0.8134 0.0
C459 C 0.94352 0.90897 0.86638 0.0
C460 C 0.9247 0.86667 0.88238 0.0
C461 C 0.92608 0.8962 0.85495 0.0
N462 N 0.91693 0.87528 0.86295 0.0
C463 C 0.94213 0.87896 0.89425 0.0
C464 C 0.95158 0.90024 0.88615 0.0
C465 C 0.8743 0.83603 0.88591 0.0
C466 C 0.80844 0.84255 0.83904 0.0
C467 C 0.82615 0.81444 0.86854 0.0
C468 C 0.80955 0.82335 0.87496 0.0
C469 C 0.80066 0.83749 0.86008 0.0
N470 N 0.83367 0.81941 0.84783 0.0
C471 C 0.82506 0.83333 0.83319 0.0
Co472 Co 0.62903 0.62816 0.63189 0.0
Co473 Co 0.63374 0.69027 0.64449 0.0
O474 O 0.64195 0.65895 0.64921 0.0
C475 C 0.62841 0.61172 0.68033 0.0
O476 O 0.61701 0.62728 0.68655 0.0
C477 C 0.67634 0.69983 0.64129 0.0
O478 O 0.6743 0.67964 0.62697 0.0
O479 O 0.63589 0.68472 0.61008 0.0
O480 O 0.62388 0.64461 0.60312 0.0
H481 H 0.59522 0.74606 0.60473 0.0
H482 H 0.66853 0.63124 0.65536 0.0
O483 O 0.63427 0.61056 0.65986 0.0
H484 H 0.6744 0.60768 0.57172 0.0
H485 H 0.62044 0.53742 0.60765 0.0
H486 H 0.59308 0.61295 0.60001 0.0
H487 H 0.6428 0.6136 0.58547 0.0
H488 H 0.63702 0.57687 0.62836 0.0
O489 O 0.66152 0.70699 0.64937 0.0
H490 H 0.60528 0.70651 0.6113 0.0
H491 H 0.64586 0.74132 0.66745 0.0
H492 H 0.57611 0.57393 0.57884 0.0
H493 H 0.70037 0.62519 0.64241 0.0
H494 H 0.5898 0.5358 0.5826 0.0
H495 H 0.70347 0.61342 0.6003 0.0
O496 O 0.60365 0.634 0.64265 0.0
H497 H 0.65635 0.69107 0.72955 0.0
H498 H 0.60369 0.70605 0.67399 0.0
H499 H 0.60046 0.71176 0.71648 0.0
H500 H 0.62694 0.70432 0.74459 0.0
H501 H 0.6589 0.68538 0.68689 0.0
H502 H 0.63636 0.78128 0.66137 0.0
H503 H 0.6108 0.7838 0.62988 0.0
O504 O 0.60569 0.6744 0.64006 0.0
C505 C 0.62915 0.66561 0.59609 0.0
C506 C 0.60633 0.74518 0.61855 0.0
C507 C 0.62944 0.76496 0.65032 0.0
N508 N 0.62604 0.72158 0.63984 0.0
C509 C 0.61205 0.72283 0.62239 0.0
C510 C 0.63479 0.74229 0.65364 0.0
C511 C 0.61509 0.76636 0.63265 0.0
C512 C 0.66971 0.62587 0.63704 0.0
N513 N 0.6538 0.62277 0.6212 0.0
C514 C 0.6878 0.62257 0.6298 0.0
C515 C 0.68954 0.61602 0.60616 0.0
C516 C 0.67324 0.61282 0.59012 0.0
C517 C 0.65539 0.6163 0.59799 0.0
C518 C 0.61436 0.55392 0.60584 0.0
C519 C 0.59919 0.59647 0.60163 0.0
C520 C 0.62366 0.57631 0.61756 0.0
N521 N 0.6161 0.59724 0.61525 0.0
C522 C 0.58949 0.57442 0.58964 0.0
C523 C 0.59717 0.55303 0.59178 0.0
C524 C 0.596 0.65332 0.64241 0.0
C525 C 0.64473 0.69443 0.71748 0.0
C526 C 0.61524 0.70269 0.6861 0.0
C527 C 0.61335 0.70601 0.71015 0.0
C528 C 0.62822 0.70184 0.72591 0.0
N529 N 0.63151 0.69549 0.67796 0.0
C530 C 0.64612 0.69131 0.69331 0.0
Co531 Co 0.3536 0.63951 0.67055 0.0
Co532 Co 0.37197 0.68102 0.71875 0.0
O533 O 0.35441 0.67028 0.69025 0.0
C534 C 0.3596 0.67806 0.6376 0.0
O535 O 0.36955 0.69335 0.65455 0.0
C536 C 0.33264 0.67829 0.73451 0.0
O537 O 0.32837 0.65702 0.72179 0.0
O538 O 0.36693 0.64793 0.73041 0.0
O539 O 0.35498 0.62156 0.6988 0.0
H540 H 0.42624 0.67552 0.779 0.0
H541 H 0.32344 0.67009 0.66191 0.0
O542 O 0.35214 0.65644 0.64133 0.0
H543 H 0.28796 0.59079 0.68003 0.0
H544 H 0.32996 0.57742 0.60099 0.0
H545 H 0.37472 0.59762 0.67279 0.0
H546 H 0.32353 0.5973 0.67893 0.0
H547 H 0.33083 0.61602 0.62613 0.0
O548 O 0.34975 0.69061 0.73558 0.0
H549 H 0.4041 0.66181 0.74329 0.0
H550 H 0.37666 0.72406 0.7548 0.0
H551 H 0.37421 0.55872 0.64826 0.0
H552 H 0.28784 0.66431 0.66263 0.0
H553 H 0.35171 0.54842 0.61206 0.0
H554 H 0.26988 0.62445 0.67184 0.0
O555 O 0.38245 0.64511 0.67075 0.0
H556 H 0.35347 0.75574 0.68603 0.0
H557 H 0.40791 0.71622 0.71323 0.0
H558 H 0.41474 0.75688 0.69862 0.0
H559 H 0.3874 0.77693 0.68494 0.0
H560 H 0.34729 0.71498 0.70052 0.0
H561 H 0.39838 0.73833 0.79076 0.0
H562 H 0.42344 0.71404 0.80301 0.0
O563 O 0.39427 0.67151 0.70241 0.0
C564 C 0.36031 0.62644 0.72056 0.0
C565 C 0.41541 0.6863 0.77381 0.0
C566 C 0.39976 0.72153 0.78043 0.0
N567 N 0.38919 0.6922 0.7469 0.0
C568 C 0.40287 0.67866 0.75358 0.0
C569 C 0.38747 0.71333 0.76009 0.0
C570 C 0.41382 0.7079 0.78729 0.0
C571 C 0.31569 0.65261 0.66567 0.0
N572 N 0.32553 0.63402 0.67024 0.0
C573 C 0.29555 0.64948 0.66616 0.0
C574 C 0.28548 0.62712 0.67136 0.0
C575 C 0.29562 0.60823 0.67597 0.0
C576 C 0.31576 0.61204 0.67535 0.0
C577 C 0.3398 0.58168 0.61674 0.0
C578 C 0.3648 0.59318 0.65714 0.0
C579 C 0.34039 0.60353 0.63102 0.0
N580 N 0.35272 0.60897 0.651 0.0
C581 C 0.36462 0.57117 0.64329 0.0
C582 C 0.352 0.56541 0.62297 0.0
C583 C 0.39654 0.65766 0.68421 0.0
C584 C 0.3655 0.74722 0.692 0.0
C585 C 0.39593 0.72478 0.7072 0.0
C586 C 0.39989 0.74783 0.69901 0.0
C587 C 0.38454 0.75908 0.69136 0.0
N588 N 0.37722 0.71327 0.7078 0.0
C589 C 0.36209 0.72419 0.70033 0.0
Co590 Co 0.37937 0.36426 0.66786 0.0
Co591 Co 0.36724 0.30384 0.67639 0.0
O592 O 0.36405 0.33818 0.6828 0.0
C593 C 0.37499 0.38705 0.7169 0.0
O594 O 0.36643 0.36628 0.72346 0.0
C595 C 0.32445 0.30122 0.67056 0.0
O596 O 0.32725 0.31893 0.65687 0.0
O597 O 0.36144 0.30531 0.64218 0.0
O598 O 0.37936 0.34184 0.63862 0.0
H599 H 0.39175 0.23371 0.63362 0.0
H600 H 0.34231 0.37237 0.68727 0.0
O601 O 0.38044 0.38829 0.6963 0.0
H602 H 0.33441 0.38638 0.60395 0.0
H603 H 0.39895 0.45068 0.64762 0.0
H604 H 0.41318 0.36645 0.63934 0.0
H605 H 0.36479 0.37537 0.62068 0.0
H606 H 0.37904 0.41768 0.66553 0.0
O607 O 0.33889 0.29306 0.67971 0.0
H608 H 0.38805 0.27689 0.64232 0.0
H609 H 0.35191 0.25752 0.69635 0.0
H610 H 0.43334 0.39887 0.621 0.0
H611 H 0.31187 0.38373 0.67137 0.0
H612 H 0.42628 0.44135 0.62508 0.0
H613 H 0.30771 0.39076 0.62937 0.0
O614 O 0.40355 0.35445 0.68079 0.0
H615 H 0.35511 0.31633 0.76143 0.0
H616 H 0.39851 0.28691 0.70551 0.0
H617 H 0.40607 0.28556 0.74787 0.0
H618 H 0.38426 0.30028 0.77616 0.0
H619 H 0.34822 0.31763 0.71892 0.0
H620 H 0.35508 0.2141 0.6881 0.0
H621 H 0.37519 0.20197 0.6566 0.0
O622 O 0.39586 0.31362 0.67307 0.0
C623 C 0.36997 0.32105 0.62992 0.0
C624 C 0.383 0.23877 0.64743 0.0
C625 C 0.36239 0.22776 0.67799 0.0
N626 N 0.36991 0.26975 0.66994 0.0
C627 C 0.38089 0.26321 0.65248 0.0
C628 C 0.36062 0.25237 0.68255 0.0
C629 C 0.37368 0.22097 0.66032 0.0
C630 C 0.34083 0.37582 0.66913 0.0
N631 N 0.35552 0.3736 0.65509 0.0
C632 C 0.32345 0.38206 0.66015 0.0
C633 C 0.32111 0.38595 0.63658 0.0
C634 C 0.33608 0.38349 0.6223 0.0
C635 C 0.35325 0.37722 0.63189 0.0
C636 C 0.40215 0.43223 0.64568 0.0
C637 C 0.40993 0.38485 0.64109 0.0
C638 C 0.39096 0.41347 0.65583 0.0
N639 N 0.39485 0.39009 0.65335 0.0
C640 C 0.42144 0.40315 0.63071 0.0
C641 C 0.41748 0.42698 0.63303 0.0
C642 C 0.40832 0.33328 0.67797 0.0
C643 C 0.36473 0.30987 0.74928 0.0
C644 C 0.38904 0.29358 0.7177 0.0
C645 C 0.39335 0.29265 0.74168 0.0
C646 C 0.3811 0.30089 0.75754 0.0
N647 N 0.37298 0.30248 0.70974 0.0
C648 C 0.36088 0.31051 0.72518 0.0
Co649 Co 0.65053 0.35365 0.65333 0.0
Co650 Co 0.64975 0.32807 0.706 0.0
O651 O 0.6588 0.33135 0.67482 0.0
C652 C 0.64119 0.30552 0.6238 0.0
O653 O 0.63234 0.29574 0.64096 0.0
C654 C 0.69239 0.34097 0.7151 0.0
O655 O 0.69145 0.35895 0.70194 0.0
O656 O 0.65432 0.36435 0.71428 0.0
O657 O 0.65206 0.38002 0.6796 0.0
H658 H 0.61129 0.34654 0.77399 0.0
H659 H 0.68403 0.32883 0.64435 0.0
O660 O 0.64916 0.32798 0.62629 0.0
H661 H 0.70979 0.41729 0.64884 0.0
H662 H 0.64928 0.39273 0.57756 0.0
H663 H 0.62305 0.3889 0.65479 0.0
H664 H 0.67513 0.40274 0.65293 0.0
H665 H 0.66009 0.36528 0.60531 0.0
O666 O 0.67692 0.32675 0.71872 0.0
H667 H 0.62251 0.35083 0.73462 0.0
H668 H 0.6586 0.29743 0.74404 0.0
H669 H 0.61197 0.41679 0.62767 0.0
H670 H 0.71875 0.34253 0.63991 0.0
H671 H 0.6251 0.41881 0.58874 0.0
H672 H 0.73186 0.38706 0.64226 0.0
O673 O 0.62264 0.34207 0.65776 0.0
H674 H 0.6667 0.24768 0.67436 0.0
H675 H 0.61639 0.28812 0.70943 0.0
H676 H 0.6098 0.24342 0.69854 0.0
H677 H 0.63507 0.22291 0.68091 0.0
H678 H 0.67263 0.29237 0.68533 0.0
H679 H 0.64789 0.29268 0.78359 0.0
H680 H 0.624 0.31728 0.79877 0.0
O681 O 0.6226 0.32943 0.69387 0.0
C682 C 0.65397 0.38229 0.70196 0.0
C683 C 0.62167 0.33568 0.76756 0.0
C684 C 0.64222 0.30547 0.77296 0.0
N685 N 0.64111 0.3243 0.73699 0.0
C686 C 0.62804 0.33799 0.74526 0.0
C687 C 0.64828 0.30828 0.75057 0.0
C688 C 0.62882 0.31927 0.78146 0.0
C689 C 0.68961 0.34823 0.64525 0.0
N690 N 0.6776 0.36498 0.64902 0.0
C691 C 0.70929 0.35588 0.64278 0.0
C692 C 0.71664 0.38087 0.64413 0.0
C693 C 0.70427 0.39784 0.64785 0.0
C694 C 0.68468 0.38951 0.65027 0.0
C695 C 0.64347 0.39204 0.59449 0.0
C696 C 0.62892 0.3898 0.63794 0.0
C697 C 0.64949 0.37648 0.61025 0.0
N698 N 0.64229 0.37561 0.63171 0.0
C699 C 0.62255 0.40557 0.62263 0.0
C700 C 0.62991 0.40667 0.60078 0.0
C701 C 0.61385 0.33431 0.67507 0.0
C702 C 0.65559 0.2564 0.68209 0.0
C703 C 0.62745 0.27934 0.70171 0.0
C704 C 0.62364 0.25401 0.69563 0.0
C705 C 0.63783 0.24252 0.68574 0.0
N706 N 0.64492 0.29281 0.69814 0.0
C707 C 0.6589 0.28168 0.68842 0.0
Co708 Co 0.6367 0.32868 0.36348 0.0
Co709 Co 0.63008 0.27099 0.33429 0.0
O710 O 0.64365 0.30499 0.33977 0.0
C711 C 0.6362 0.35809 0.3225 0.0
O712 O 0.62368 0.34029 0.31065 0.0
C713 C 0.67171 0.26646 0.33988 0.0
O714 O 0.67351 0.28198 0.35883 0.0
O715 O 0.63439 0.26637 0.36826 0.0
O716 O 0.63027 0.30292 0.38498 0.0
H717 H 0.58263 0.19769 0.35056 0.0
H718 H 0.67492 0.33908 0.3442 0.0
O719 O 0.64317 0.35562 0.34303 0.0
H720 H 0.68969 0.33768 0.4292 0.0
H721 H 0.64493 0.41049 0.41177 0.0
H722 H 0.60431 0.3288 0.39399 0.0
H723 H 0.65578 0.3311 0.41202 0.0
H724 H 0.65392 0.37995 0.38258 0.0
O725 O 0.65525 0.25985 0.32825 0.0
H726 H 0.59948 0.24061 0.35712 0.0
H727 H 0.63283 0.22871 0.29959 0.0
H728 H 0.59487 0.35874 0.42343 0.0
H729 H 0.70906 0.34602 0.3607 0.0
H730 H 0.61525 0.39992 0.43249 0.0
H731 H 0.71662 0.34524 0.40349 0.0
O732 O 0.60933 0.32204 0.34958 0.0
H733 H 0.65003 0.29877 0.25741 0.0
H734 H 0.5958 0.25978 0.29877 0.0
H735 H 0.59007 0.26631 0.25716 0.0
H736 H 0.61732 0.28588 0.23617 0.0
H737 H 0.65507 0.29208 0.2991 0.0
H738 H 0.61647 0.18561 0.29253 0.0
H739 H 0.59111 0.16987 0.31806 0.0
O740 O 0.60447 0.28135 0.33972 0.0
C741 C 0.63173 0.28049 0.38605 0.0
C742 C 0.59362 0.20435 0.33928 0.0
C743 C 0.61263 0.19756 0.30672 0.0
N744 N 0.61703 0.23719 0.32866 0.0
C745 C 0.60318 0.22864 0.34287 0.0
C746 C 0.62188 0.22196 0.31085 0.0
C747 C 0.5984 0.18874 0.32105 0.0
C748 C 0.6781 0.33899 0.36287 0.0
N749 N 0.66338 0.33477 0.37712 0.0
C750 C 0.69746 0.34281 0.3721 0.0
C751 C 0.70169 0.34233 0.3961 0.0
C752 C 0.68659 0.33807 0.41054 0.0
C753 C 0.66741 0.33428 0.40069 0.0
C754 C 0.63596 0.39259 0.40801 0.0
C755 C 0.61332 0.34664 0.39793 0.0
C756 C 0.64096 0.37522 0.39147 0.0
N757 N 0.62974 0.35252 0.38673 0.0
C758 C 0.60787 0.36353 0.41458 0.0
C759 C 0.6193 0.38664 0.41964 0.0
C760 C 0.59821 0.30162 0.3431 0.0
C761 C 0.63805 0.29017 0.26635 0.0
C762 C 0.60771 0.2684 0.2898 0.0
C763 C 0.60439 0.27199 0.26621 0.0
C764 C 0.61969 0.28296 0.25445 0.0
N765 N 0.62577 0.27546 0.30134 0.0
C766 C 0.64083 0.28627 0.28993 0.0
Co767 Co 0.60558 0.64224 0.29786 0.0
Co768 Co 0.63354 0.69886 0.30864 0.0
O769 O 0.6289 0.66528 0.29296 0.0
C770 C 0.63505 0.60986 0.30604 0.0
O771 O 0.64423 0.62603 0.32286 0.0
C772 C 0.6457 0.70414 0.25983 0.0
O773 O 0.63301 0.68483 0.25125 0.0
O774 O 0.60814 0.70439 0.29394 0.0
O775 O 0.58998 0.66928 0.30122 0.0
H776 H 0.61484 0.77114 0.35501 0.0
H777 H 0.62636 0.63152 0.25598 0.0
O778 O 0.62015 0.61421 0.29425 0.0
H779 H 0.56036 0.63894 0.22504 0.0
H780 H 0.55851 0.56261 0.28291 0.0
H781 H 0.57501 0.64238 0.33099 0.0
H782 H 0.56939 0.64382 0.26763 0.0
H783 H 0.58729 0.59223 0.27612 0.0
O784 O 0.64704 0.71166 0.28154 0.0
H785 H 0.60974 0.7289 0.33566 0.0
H786 H 0.66691 0.74051 0.31392 0.0
H787 H 0.54599 0.6134 0.33822 0.0
H788 H 0.61782 0.62605 0.21323 0.0
H789 H 0.53757 0.57317 0.31409 0.0
H790 H 0.58464 0.62988 0.1975 0.0
O791 O 0.61286 0.64683 0.33223 0.0
H792 H 0.69708 0.66808 0.30843 0.0
H793 H 0.65376 0.7083 0.35701 0.0
H794 H 0.68453 0.69987 0.37529 0.0
H795 H 0.70648 0.67967 0.35094 0.0
H796 H 0.66606 0.67662 0.29091 0.0
H797 H 0.67255 0.78294 0.33284 0.0
H798 H 0.64643 0.79849 0.35367 0.0
O799 O 0.62082 0.68771 0.33697 0.0
C800 C 0.59173 0.69126 0.29584 0.0
C801 C 0.62634 0.76457 0.34603 0.0
C802 C 0.65872 0.7712 0.33356 0.0
N803 N 0.63803 0.73218 0.32377 0.0
C804 C 0.62355 0.74064 0.33508 0.0
C805 C 0.65541 0.74717 0.32282 0.0
C806 C 0.64407 0.77991 0.34526 0.0
C807 C 0.61184 0.63298 0.24928 0.0
N808 N 0.59843 0.63805 0.2643 0.0
C809 C 0.60711 0.62997 0.22505 0.0
C810 C 0.5885 0.63216 0.21624 0.0
C811 C 0.57488 0.63727 0.23167 0.0
C812 C 0.58012 0.64015 0.25579 0.0
C813 C 0.56199 0.58011 0.29351 0.0
C814 C 0.57138 0.62499 0.3203 0.0
C815 C 0.5783 0.59694 0.28977 0.0
N816 N 0.58274 0.61913 0.30301 0.0
C817 C 0.55495 0.60862 0.32453 0.0
C818 C 0.55025 0.58604 0.311 0.0
C819 C 0.61657 0.66713 0.34523 0.0
C820 C 0.68767 0.67695 0.31921 0.0
C821 C 0.66317 0.69942 0.3463 0.0
C822 C 0.68062 0.69475 0.35674 0.0
C823 C 0.69292 0.68343 0.34307 0.0
N824 N 0.65813 0.69306 0.32287 0.0
C825 C 0.67011 0.68191 0.30937 0.0
Co826 Co 0.39073 0.70372 0.35856 0.0
Co827 Co 0.35892 0.69275 0.30959 0.0
O828 O 0.3678 0.71086 0.34049 0.0
C829 C 0.36243 0.7049 0.39465 0.0
O830 O 0.3487 0.69293 0.3792 0.0
C831 C 0.35167 0.74462 0.3056 0.0
O832 O 0.36193 0.75279 0.32553 0.0
O833 O 0.38493 0.70375 0.2985 0.0
O834 O 0.40317 0.69537 0.32929 0.0
H835 H 0.36557 0.63573 0.23883 0.0
H836 H 0.37858 0.75152 0.37085 0.0
O837 O 0.37949 0.71157 0.38874 0.0
H838 H 0.44507 0.77186 0.3471 0.0
H839 H 0.44333 0.71767 0.42514 0.0
H840 H 0.41423 0.66397 0.35428 0.0
H841 H 0.42961 0.72882 0.34745 0.0
H842 H 0.4151 0.72725 0.40189 0.0
O843 O 0.3498 0.72217 0.29754 0.0
H844 H 0.37566 0.65834 0.27782 0.0
H845 H 0.32422 0.68959 0.27533 0.0
H846 H 0.44255 0.65381 0.37692 0.0
H847 H 0.39364 0.79491 0.37116 0.0
H848 H 0.45729 0.68076 0.41264 0.0
H849 H 0.42709 0.8053 0.35909 0.0
O850 O 0.37794 0.6692 0.35799 0.0
H851 H 0.29982 0.70509 0.35101 0.0
H852 H 0.33176 0.64503 0.30691 0.0
H853 H 0.29998 0.6314 0.32148 0.0
H854 H 0.28372 0.66155 0.34362 0.0
H855 H 0.33174 0.71784 0.33649 0.0
H856 H 0.31367 0.66752 0.23623 0.0
H857 H 0.33437 0.64026 0.21776 0.0
O858 O 0.36711 0.66195 0.32004 0.0
C859 C 0.40107 0.70039 0.30817 0.0
C860 C 0.3564 0.6475 0.24672 0.0
C861 C 0.32729 0.66537 0.24524 0.0
N862 N 0.3505 0.67515 0.27892 0.0
C863 C 0.36202 0.66031 0.26882 0.0
C864 C 0.33337 0.67788 0.26737 0.0
C865 C 0.3389 0.65007 0.2349 0.0
C866 C 0.39319 0.75593 0.36574 0.0
N867 N 0.40312 0.73766 0.35898 0.0
C868 C 0.40162 0.78051 0.36588 0.0
C869 C 0.42038 0.78633 0.35909 0.0
C870 C 0.43047 0.76759 0.35233 0.0
C871 C 0.42158 0.74322 0.35243 0.0
C872 C 0.43706 0.70581 0.40959 0.0
C873 C 0.42062 0.67586 0.36973 0.0
C874 C 0.42105 0.71111 0.39636 0.0
N875 N 0.4131 0.69627 0.37664 0.0
C876 C 0.43663 0.66998 0.38251 0.0
C877 C 0.44489 0.6851 0.40256 0.0
C878 C 0.37092 0.65456 0.34 0.0
C879 C 0.3067 0.6918 0.34127 0.0
C880 C 0.32485 0.65828 0.3166 0.0
C881 C 0.30681 0.65044 0.32476 0.0
C882 C 0.2977 0.66737 0.33716 0.0
N883 N 0.33358 0.68231 0.32061 0.0
C884 C 0.32475 0.69896 0.33285 0.0
Co885 Co 0.37493 0.36324 0.34301 0.0
Co886 Co 0.35619 0.30197 0.33626 0.0
O887 O 0.3546 0.33591 0.33018 0.0
C888 C 0.35321 0.39945 0.3642 0.0
O889 O 0.36195 0.39626 0.38437 0.0
C890 C 0.34439 0.29879 0.28487 0.0
O891 O 0.35675 0.31892 0.28335 0.0
O892 O 0.38216 0.30472 0.32366 0.0
O893 O 0.39548 0.34229 0.34017 0.0
H894 H 0.389 0.23494 0.36508 0.0
H895 H 0.34824 0.37054 0.30298 0.0
O896 O 0.35502 0.38548 0.34587 0.0
H897 H 0.41359 0.3853 0.27493 0.0
H898 H 0.41 0.45081 0.35227 0.0
H899 H 0.40818 0.36864 0.37899 0.0
H900 H 0.40922 0.3748 0.31518 0.0
H901 H 0.38487 0.41627 0.33514 0.0
O902 O 0.34301 0.28969 0.30435 0.0
H903 H 0.38651 0.27747 0.358 0.0
H904 H 0.32915 0.25417 0.32606 0.0
H905 H 0.43368 0.40265 0.39647 0.0
H906 H 0.35198 0.38145 0.26269 0.0
H907 H 0.43466 0.44411 0.38315 0.0
H908 H 0.38484 0.38881 0.24839 0.0
O909 O 0.37098 0.35352 0.37504 0.0
H910 H 0.28637 0.31277 0.33593 0.0
H911 H 0.33998 0.28375 0.37938 0.0
H912 H 0.30823 0.28128 0.39575 0.0
H913 H 0.28112 0.29577 0.37394 0.0
H914 H 0.31843 0.31517 0.3203 0.0
H915 H 0.33108 0.21136 0.33263 0.0
H916 H 0.36114 0.20153 0.35236 0.0
O917 O 0.3689 0.31279 0.36872 0.0
C918 C 0.39689 0.32135 0.33003 0.0
C919 C 0.37581 0.239 0.35652 0.0
C920 C 0.34331 0.22576 0.33828 0.0
N921 N 0.35767 0.26834 0.34174 0.0
C922 C 0.3743 0.26306 0.3525 0.0
C923 C 0.34233 0.25003 0.33454 0.0
C924 C 0.36018 0.22026 0.34935 0.0
C925 C 0.36261 0.37398 0.29697 0.0
N926 N 0.37849 0.37204 0.31146 0.0
C927 C 0.36462 0.38004 0.2741 0.0
C928 C 0.38306 0.38412 0.26607 0.0
C929 C 0.39919 0.38211 0.28094 0.0
C930 C 0.39662 0.37601 0.30369 0.0
C931 C 0.40973 0.43283 0.35821 0.0
C932 C 0.40855 0.3866 0.37304 0.0
C933 C 0.39553 0.41319 0.34858 0.0
N934 N 0.39503 0.39042 0.35606 0.0
C935 C 0.42301 0.4058 0.38302 0.0
C936 C 0.42356 0.42906 0.37554 0.0
C937 C 0.3708 0.33255 0.38242 0.0
C938 C 0.29805 0.30634 0.34557 0.0
C939 C 0.32829 0.29021 0.36982 0.0
C940 C 0.31033 0.2887 0.37916 0.0
C941 C 0.29512 0.29682 0.36691 0.0
N942 N 0.33104 0.29949 0.34883 0.0
C943 C 0.31622 0.30759 0.33677 0.0
H944 H 0.32364 0.25256 0.27871 0.0
H945 H 0.29714 0.23578 0.24897 0.0
H946 H 0.30574 0.3034 0.21665 0.0
H947 H 0.33273 0.32018 0.24619 0.0
H948 H 0.26422 0.25364 0.24373 0.0
H949 H 0.29847 0.25322 0.15963 0.0
H950 H 0.31244 0.25695 0.18774 0.0
H951 H 0.3031 0.28248 0.17686 0.0
C952 C 0.32016 0.26374 0.26502 0.0
C953 C 0.33026 0.28774 0.26485 0.0
C954 C 0.30498 0.2541 0.24801 0.0
C955 C 0.29945 0.26823 0.23046 0.0
C956 C 0.30995 0.29194 0.22971 0.0
H957 H 0.18223 0.24197 0.16243 0.0
H958 H 0.21343 0.26003 0.18361 0.0
C959 C 0.32534 0.30155 0.24666 0.0
C960 C 0.28159 0.25884 0.21455 0.0
H961 H 0.26386 0.24541 0.15704 0.0
C962 C 0.2642 0.25179 0.22477 0.0
C963 C 0.28155 0.25622 0.18981 0.0
C964 C 0.29991 0.26239 0.17781 0.0
C965 C 0.2468 0.24231 0.21105 0.0
C966 C 0.2466 0.24038 0.18631 0.0
C967 C 0.264 0.24718 0.176 0.0
C968 C 0.22841 0.23096 0.17107 0.0
C969 C 0.22887 0.23396 0.22326 0.0
C970 C 0.22669 0.20922 0.15602 0.0
C971 C 0.20885 0.19893 0.14363 0.0
C972 C 0.19244 0.21023 0.14612 0.0
C973 C 0.19451 0.23264 0.1603 0.0
C974 C 0.21233 0.24296 0.17251 0.0
H975 H 0.23257 0.23052 0.24166 0.0
H976 H 0.21969 0.24846 0.22368 0.0
H977 H 0.22018 0.21693 0.21384 0.0
H978 H 0.23894 0.19971 0.15457 0.0
H979 H 0.20776 0.18167 0.13286 0.0
H980 H 0.7102 0.28292 0.35422 0.0
H981 H 0.73839 0.26916 0.33769 0.0
H982 H 0.70018 0.21542 0.28962 0.0
H983 H 0.67207 0.22935 0.30557 0.0
H984 H 0.75049 0.22461 0.33439 0.0
H985 H 0.73427 0.25101 0.24541 0.0
H986 H 0.7221 0.26091 0.27026 0.0
H987 H 0.71434 0.23083 0.25491 0.0
C988 C 0.70782 0.26814 0.34016 0.0
C989 C 0.68888 0.25738 0.33108 0.0
C990 C 0.72394 0.26032 0.33072 0.0
C991 C 0.72141 0.24163 0.31205 0.0
C992 C 0.70251 0.23034 0.30354 0.0
H993 H 0.79216 0.15713 0.23322 0.0
H994 H 0.76649 0.1737 0.25278 0.0
C995 C 0.68644 0.23824 0.31281 0.0
C996 C 0.73842 0.23373 0.30146 0.0
H997 H 0.75791 0.22474 0.24916 0.0
C998 C 0.75223 0.22488 0.31581 0.0
C999 C 0.74075 0.23423 0.27721 0.0
C1000 C 0.72719 0.245 0.2611 0.0
C1001 C 0.76792 0.21571 0.30639 0.0
C1002 C 0.76983 0.21549 0.28206 0.0
C1003 C 0.75627 0.22476 0.26779 0.0
C1004 C 0.78561 0.20528 0.27092 0.0
C1005 C 0.78206 0.20569 0.32232 0.0
C1006 C 0.80485 0.21768 0.27458 0.0
C1007 C 0.81956 0.20835 0.26332 0.0
C1008 C 0.81529 0.18639 0.24829 0.0
C1009 C 0.79598 0.17398 0.2448 0.0
C1010 C 0.78128 0.18343 0.25591 0.0
H1011 H 0.77703 0.20397 0.34009 0.0
H1012 H 0.78436 0.18742 0.31465 0.0
H1013 H 0.79629 0.21814 0.32411 0.0
H1014 H 0.80842 0.23472 0.28592 0.0
H1015 H 0.83427 0.21838 0.26635 0.0
H1016 H 0.79058 0.82365 0.1671 0.0
H1017 H 0.75844 0.8062 0.178 0.0
H1018 H 0.78091 0.7431 0.19943 0.0
H1019 H 0.81308 0.76049 0.18898 0.0
H1020 H 0.7331 0.76127 0.16413 0.0
H1021 H 0.75892 0.77004 0.25854 0.0
H1022 H 0.77302 0.78482 0.23713 0.0
H1023 H 0.77252 0.75277 0.24 0.0
C1024 C 0.78865 0.80597 0.17397 0.0
C1025 C 0.80445 0.79358 0.17739 0.0
C1026 C 0.77026 0.79601 0.18015 0.0
C1027 C 0.76736 0.77354 0.18987 0.0
C1028 C 0.78292 0.76069 0.19238 0.0
H1029 H 0.65883 0.68433 0.2197 0.0
H1030 H 0.68731 0.7017 0.2004 0.0
C1031 C 0.80129 0.77065 0.18634 0.0
C1032 C 0.74835 0.76402 0.19838 0.0
H1033 H 0.72714 0.74835 0.24777 0.0
C1034 C 0.73173 0.75849 0.18241 0.0
C1035 C 0.74657 0.76072 0.2223 0.0
C1036 C 0.76365 0.7676 0.24056 0.0
C1037 C 0.71342 0.7494 0.18972 0.0
C1038 C 0.71178 0.74547 0.21355 0.0
C1039 C 0.7284 0.75123 0.22948 0.0
C1040 C 0.69302 0.73601 0.22278 0.0
C1041 C 0.69596 0.74456 0.172 0.0
C1042 C 0.68665 0.74954 0.24162 0.0
C1043 C 0.67062 0.73956 0.25279 0.0
C1044 C 0.6605 0.71583 0.24534 0.0
C1045 C 0.66622 0.70274 0.22569 0.0
C1046 C 0.68247 0.71269 0.21461 0.0
H1047 H 0.69869 0.75448 0.15629 0.0
H1048 H 0.69253 0.72465 0.16614 0.0
H1049 H 0.68307 0.75008 0.17978 0.0
H1050 H 0.6945 0.76757 0.24821 0.0
H1051 H 0.66651 0.75018 0.2678 0.0
H1052 H 0.3375 0.73952 0.25984 0.0
H1053 H 0.31287 0.76024 0.24203 0.0
H1054 H 0.31196 0.80379 0.30786 0.0
H1055 H 0.33724 0.78377 0.3255 0.0
H1056 H 0.27759 0.7566 0.25386 0.0
H1057 H 0.30947 0.85515 0.26386 0.0
H1058 H 0.3239 0.83156 0.26822 0.0
H1059 H 0.31024 0.84214 0.29129 0.0
C1060 C 0.33242 0.75399 0.27035 0.0
C1061 C 0.33931 0.76005 0.29406 0.0
C1062 C 0.3183 0.76578 0.26017 0.0
C1063 C 0.31058 0.78372 0.27351 0.0
C1064 C 0.31798 0.79047 0.29699 0.0
H1065 H 0.19306 0.80967 0.24611 0.0
H1066 H 0.22323 0.79798 0.26149 0.0
C1067 C 0.33239 0.77893 0.30711 0.0
C1068 C 0.2934 0.79318 0.26355 0.0
H1069 H 0.27488 0.84533 0.25536 0.0
C1070 C 0.27713 0.77603 0.25401 0.0
C1071 C 0.29276 0.81851 0.26348 0.0
C1072 C 0.31011 0.83789 0.27204 0.0
C1073 C 0.26019 0.78342 0.24481 0.0
C1074 C 0.25917 0.80871 0.24587 0.0
C1075 C 0.27556 0.82593 0.25489 0.0
C1076 C 0.24115 0.81748 0.2377 0.0
C1077 C 0.24367 0.76396 0.23372 0.0
C1078 C 0.24131 0.83329 0.21995 0.0
C1079 C 0.22408 0.84036 0.21135 0.0
C1080 C 0.20638 0.83165 0.22033 0.0
C1081 C 0.2064 0.81644 0.23861 0.0
C1082 C 0.22363 0.80964 0.24735 0.0
H1083 H 0.24884 0.74673 0.22784 0.0
H1084 H 0.23307 0.75963 0.24683 0.0
H1085 H 0.23605 0.77029 0.21841 0.0
H1086 H 0.25468 0.83969 0.21234 0.0
H1087 H 0.22455 0.8521 0.19726 0.0
H1088 H 0.29379 0.66019 0.7311 0.0
H1089 H 0.26861 0.677 0.7513 0.0
H1090 H 0.3118 0.73528 0.78698 0.0
H1091 H 0.33708 0.7189 0.76644 0.0
H1092 H 0.26429 0.68411 0.79817 0.0
H1093 H 0.27221 0.77311 0.75976 0.0
H1094 H 0.2833 0.74793 0.74833 0.0
H1095 H 0.29412 0.76694 0.77441 0.0
C1096 C 0.29796 0.67661 0.74322 0.0
C1097 C 0.31745 0.68826 0.7471 0.0
C1098 C 0.28353 0.68619 0.75476 0.0
C1099 C 0.28826 0.7076 0.77039 0.0
C1100 C 0.30774 0.71907 0.77459 0.0
H1101 H 0.21044 0.78419 0.85216 0.0
H1102 H 0.23971 0.77058 0.83831 0.0
C1103 C 0.32219 0.70959 0.76294 0.0
C1104 C 0.27274 0.71756 0.78246 0.0
H1105 H 0.24992 0.76737 0.78861 0.0
C1106 C 0.26121 0.70234 0.79613 0.0
C1107 C 0.26875 0.74141 0.77986 0.0
C1108 C 0.28012 0.75825 0.76464 0.0
C1109 C 0.24567 0.71019 0.80701 0.0
C1110 C 0.24147 0.7338 0.80402 0.0
C1111 C 0.25328 0.74931 0.79092 0.0
C1112 C 0.22398 0.74193 0.81283 0.0
C1113 C 0.23372 0.69311 0.82149 0.0
C1114 C 0.20554 0.73047 0.8029 0.0
C1115 C 0.1889 0.73824 0.81061 0.0
C1116 C 0.19034 0.75763 0.8285 0.0
C1117 C 0.20885 0.76911 0.83847 0.0
C1118 C 0.22556 0.76141 0.83056 0.0
H1119 H 0.24148 0.67826 0.82672 0.0
H1120 H 0.2299 0.70331 0.83753 0.0
H1121 H 0.22001 0.6845 0.81101 0.0
H1122 H 0.20404 0.71562 0.78898 0.0
H1123 H 0.17489 0.72899 0.80251 0.0
H1124 H 0.16019 0.24428 0.75648 0.0
H1125 H 0.18839 0.26384 0.73847 0.0
H1126 H 0.19096 0.19531 0.69816 0.0
H1127 H 0.16233 0.17574 0.71571 0.0
H1128 H 0.2234 0.25216 0.74423 0.0
H1129 H 0.20069 0.24234 0.64911 0.0
H1130 H 0.18353 0.23749 0.67093 0.0
H1131 H 0.19681 0.21372 0.66168 0.0
C1132 C 0.16648 0.23348 0.74339 0.0
C1133 C 0.15902 0.20842 0.73756 0.0
C1134 C 0.18263 0.24469 0.73312 0.0
C1135 C 0.19179 0.23115 0.71684 0.0
C1136 C 0.18394 0.20633 0.71028 0.0
H1137 H 0.31365 0.26222 0.69528 0.0
H1138 H 0.28123 0.24581 0.70543 0.0
C1139 C 0.16759 0.19512 0.7204 0.0
C1140 C 0.21061 0.2424 0.70874 0.0
H1141 H 0.23485 0.25325 0.66012 0.0
C1142 C 0.22581 0.25256 0.72582 0.0
C1143 C 0.21377 0.24317 0.68473 0.0
C1144 C 0.19778 0.23382 0.66555 0.0
C1145 C 0.24411 0.26298 0.71963 0.0
C1146 C 0.24755 0.26275 0.69565 0.0
C1147 C 0.23226 0.25316 0.6785 0.0
C1148 C 0.26705 0.27204 0.6882 0.0
C1149 C 0.25956 0.27436 0.73888 0.0
C1150 C 0.26981 0.29175 0.67442 0.0
C1151 C 0.28841 0.30113 0.6684 0.0
C1152 C 0.30456 0.29089 0.676 0.0
C1153 C 0.30161 0.27074 0.6893 0.0
C1154 C 0.28306 0.26136 0.69521 0.0
H1155 H 0.25314 0.27938 0.7554 0.0
H1156 H 0.26923 0.26096 0.74258 0.0
H1157 H 0.26854 0.29104 0.73365 0.0
H1158 H 0.25763 0.30019 0.66872 0.0
H1159 H 0.29015 0.31661 0.65809 0.0
H1160 H 0.8259 0.2329 0.76795 0.0
H1161 H 0.80332 0.258 0.75335 0.0
H1162 H 0.83037 0.31857 0.80332 0.0
H1163 H 0.85314 0.29317 0.81847 0.0
H1164 H 0.79053 0.30902 0.80369 0.0
H1165 H 0.80957 0.31401 0.7125 0.0
H1166 H 0.80599 0.28296 0.71969 0.0
H1167 H 0.82554 0.30505 0.735 0.0
C1168 C 0.82729 0.25165 0.77573 0.0
C1169 C 0.84134 0.26101 0.79444 0.0
C1170 C 0.81443 0.26608 0.76716 0.0
C1171 C 0.81534 0.29031 0.77694 0.0
C1172 C 0.82956 0.29998 0.79536 0.0
H1173 H 0.72855 0.36681 0.71053 0.0
H1174 H 0.75988 0.35912 0.72725 0.0
C1175 C 0.84257 0.28549 0.80395 0.0
C1176 C 0.80021 0.30437 0.76907 0.0
H1177 H 0.77654 0.31861 0.7195 0.0
C1178 C 0.78771 0.31162 0.78536 0.0
C1179 C 0.79666 0.30814 0.74523 0.0
C1180 C 0.8103 0.30236 0.72717 0.0
C1181 C 0.77101 0.3209 0.77817 0.0
C1182 C 0.76652 0.32253 0.75401 0.0
C1183 C 0.77977 0.31697 0.73797 0.0
C1184 C 0.74757 0.32814 0.74483 0.0
C1185 C 0.75812 0.32839 0.79649 0.0
C1186 C 0.73026 0.3131 0.7489 0.0
C1187 C 0.71238 0.31744 0.73944 0.0
C1188 C 0.7114 0.33682 0.72548 0.0
C1189 C 0.72877 0.35182 0.7213 0.0
C1190 C 0.74669 0.34745 0.73083 0.0
H1191 H 0.7665 0.334 0.8138 0.0
H1192 H 0.75094 0.34377 0.79139 0.0
H1193 H 0.74672 0.31255 0.79855 0.0
H1194 H 0.73059 0.29766 0.75908 0.0
H1195 H 0.69933 0.3054 0.74288 0.0
H1196 H 0.83861 0.82511 0.74612 0.0
H1197 H 0.81146 0.80915 0.71635 0.0
H1198 H 0.79773 0.74456 0.75237 0.0
H1199 H 0.82444 0.76034 0.7821 0.0
H1200 H 0.7998 0.7635 0.68587 0.0
H1201 H 0.74849 0.77652 0.75319 0.0
H1202 H 0.77385 0.79006 0.75741 0.0
H1203 H 0.76628 0.75838 0.7617 0.0
C1204 C 0.83 0.80732 0.74742 0.0
C1205 C 0.83349 0.79417 0.76665 0.0
C1206 C 0.8145 0.79825 0.73044 0.0
C1207 C 0.80236 0.77591 0.73246 0.0
C1208 C 0.80667 0.76206 0.75075 0.0
H1209 H 0.71102 0.68307 0.64096 0.0
H1210 H 0.74238 0.70346 0.66055 0.0
C1211 C 0.82198 0.77112 0.76771 0.0
C1212 C 0.78436 0.76766 0.71665 0.0
H1213 H 0.73525 0.75284 0.71752 0.0
C1214 C 0.78564 0.76136 0.69267 0.0
C1215 C 0.76589 0.76529 0.7255 0.0
C1216 C 0.76346 0.77314 0.75081 0.0
C1217 C 0.76893 0.75191 0.67746 0.0
C1218 C 0.75054 0.74832 0.68661 0.0
C1219 C 0.74931 0.75539 0.71047 0.0
C1220 C 0.73229 0.737 0.67214 0.0
C1221 C 0.77114 0.74608 0.65176 0.0
C1222 C 0.71609 0.74892 0.67218 0.0
C1223 C 0.6981 0.73714 0.66139 0.0
C1224 C 0.69591 0.71319 0.65017 0.0
C1225 C 0.71229 0.70161 0.64926 0.0
C1226 C 0.73028 0.71333 0.66035 0.0
H1227 H 0.78461 0.75686 0.64643 0.0
H1228 H 0.77209 0.72636 0.6483 0.0
H1229 H 0.75854 0.74983 0.64067 0.0
H1230 H 0.71724 0.76715 0.68117 0.0
H1231 H 0.68579 0.74661 0.66233 0.0
H1232 H 0.11822 0.20406 0.86885 0.0
H1233 H 0.11981 0.20621 0.91152 0.0
H1234 H 0.1079 0.12733 0.90763 0.0
H1235 H 0.10638 0.12484 0.86471 0.0
H1236 H 0.08552 0.15449 0.93963 0.0
H1237 H 0.16533 0.18661 0.95309 0.0
H1238 H 0.15184 0.20308 0.93411 0.0
H1239 H 0.15343 0.1717 0.92541 0.0
C1240 C 0.11593 0.18708 0.87695 0.0
C1241 C 0.11236 0.16422 0.86325 0.0
C1242 C 0.11691 0.1884 0.9014 0.0
C1243 C 0.11428 0.16694 0.9127 0.0
C1244 C 0.11011 0.1441 0.89918 0.0
H1245 H 0.11296 0.12761 0.05364 0.0
H1246 H 0.10986 0.12996 0.01162 0.0
C1247 C 0.10923 0.14273 0.87466 0.0
C1248 C 0.11591 0.16839 0.93865 0.0
H1249 H 0.14831 0.18411 0.98701 0.0
C1250 C 0.09923 0.16095 0.95002 0.0
C1251 C 0.13378 0.17712 0.95211 0.0
C1252 C 0.15219 0.18495 0.94065 0.0
C1253 C 0.09993 0.16197 0.97458 0.0
C1254 C 0.11792 0.17006 0.98807 0.0
C1255 C 0.13454 0.17793 0.97667 0.0
C1256 C 0.11999 0.16907 0.01385 0.0
C1257 C 0.08133 0.15464 0.98584 0.0
C1258 C 0.12738 0.19018 0.0292 0.0
C1259 C 0.12947 0.18889 0.05349 0.0
C1260 C 0.12428 0.1664 0.06281 0.0
C1261 C 0.11707 0.14531 0.04725 0.0
C1262 C 0.1151 0.14661 0.02311 0.0
H1263 H 0.06845 0.15671 0.97424 0.0
H1264 H 0.07989 0.13507 0.98909 0.0
H1265 H 0.08125 0.16577 0.00286 0.0
H1266 H 0.13141 0.20769 0.02239 0.0
H1267 H 0.13507 0.20548 0.06492 0.0
H1268 H 0.82276 0.21967 0.91767 0.0
H1269 H 0.81823 0.22189 0.95992 0.0
H1270 H 0.86836 0.1873 0.97196 0.0
H1271 H 0.87325 0.18574 0.93044 0.0
H1272 H 0.81234 0.18826 0.99147 0.0
H1273 H 0.88259 0.24852 0.01679 0.0
H1274 H 0.87215 0.24277 0.98678 0.0
H1275 H 0.88621 0.22175 0.99902 0.0
C1276 C 0.83267 0.21241 0.9294 0.0
C1277 C 0.84851 0.20286 0.92086 0.0
C1278 C 0.83014 0.21378 0.95348 0.0
C1279 C 0.84336 0.20552 0.96919 0.0
C1280 C 0.85842 0.19465 0.96034 0.0
H1281 H 0.83836 0.14675 0.09815 0.0
H1282 H 0.83306 0.15798 0.05862 0.0
C1283 C 0.86109 0.19359 0.93654 0.0
C1284 C 0.84172 0.20783 0.99488 0.0
H1285 H 0.86973 0.2237 0.04667 0.0
C1286 C 0.82473 0.19645 0.00361 0.0
C1287 C 0.85761 0.21925 0.01083 0.0
C1288 C 0.87556 0.23401 0.00284 0.0
C1289 C 0.82383 0.19439 0.02773 0.0
C1290 C 0.84059 0.20323 0.04336 0.0
C1291 C 0.85697 0.21642 0.03477 0.0
C1292 C 0.84223 0.197 0.068 0.0
C1293 C 0.80499 0.18247 0.03607 0.0
C1294 C 0.84981 0.21504 0.08656 0.0
C1295 C 0.85341 0.20852 0.10926 0.0
C1296 C 0.84935 0.18387 0.11381 0.0
C1297 C 0.84143 0.16595 0.09532 0.0
C1298 C 0.83816 0.1724 0.07266 0.0
H1299 H 0.79239 0.18622 0.02496 0.0
H1300 H 0.80434 0.1623 0.03458 0.0
H1301 H 0.80353 0.18902 0.05458 0.0
H1302 H 0.85325 0.23412 0.0834 0.0
H1303 H 0.85948 0.22274 0.12316 0.0
H1304 H 0.8844 0.87446 0.92043 0.0
H1305 H 0.88245 0.87331 0.96269 0.0
H1306 H 0.86056 0.79566 0.9517 0.0
H1307 H 0.86214 0.79661 0.90958 0.0
H1308 H 0.83957 0.82049 0.98157 0.0
H1309 H 0.91857 0.84535 0.0079 0.0
H1310 H 0.90906 0.8668 0.99067 0.0
H1311 H 0.90901 0.83606 0.97787 0.0
C1312 C 0.87923 0.85712 0.927 0.0
C1313 C 0.87348 0.83564 0.91157 0.0
C1314 C 0.87822 0.85648 0.95117 0.0
C1315 C 0.87161 0.83432 0.96033 0.0
C1316 C 0.86576 0.81292 0.94499 0.0
H1317 H 0.85618 0.79464 0.10282 0.0
H1318 H 0.85664 0.79317 0.06007 0.0
C1319 C 0.86671 0.81354 0.92088 0.0
C1320 C 0.87042 0.83343 0.98588 0.0
H1321 H 0.89755 0.84453 0.0386 0.0
C1322 C 0.85225 0.8256 0.99406 0.0
C1323 C 0.88702 0.83997 0.00207 0.0
C1324 C 0.90705 0.84729 0.99422 0.0
C1325 C 0.85015 0.82478 0.01811 0.0
C1326 C 0.8667 0.83171 0.03429 0.0
C1327 C 0.88489 0.83926 0.02609 0.0
C1328 C 0.86542 0.83233 0.05991 0.0
C1329 C 0.83022 0.81718 0.0261 0.0
C1330 C 0.87027 0.85478 0.07387 0.0
C1331 C 0.87007 0.8557 0.09815 0.0
C1332 C 0.86508 0.83412 0.10908 0.0
C1333 C 0.85996 0.81161 0.09499 0.0
C1334 C 0.86017 0.81073 0.07058 0.0
H1335 H 0.81856 0.81698 0.0119 0.0
H1336 H 0.82903 0.79845 0.03173 0.0
H1337 H 0.82777 0.82974 0.04133 0.0
H1338 H 0.87439 0.87163 0.06595 0.0
H1339 H 0.87412 0.87339 0.10833 0.0
H1340 H 0.15987 0.81553 0.0841 0.0
H1341 H 0.15747 0.79443 0.0448 0.0
H1342 H 0.1092 0.74212 0.0616 0.0
H1343 H 0.11138 0.76345 0.10134 0.0
H1344 H 0.15849 0.74427 0.02798 0.0
H1345 H 0.08769 0.77339 0.00436 0.0
H1346 H 0.10305 0.78725 0.0302 0.0
H1347 H 0.08981 0.75669 0.02958 0.0
C1348 C 0.14879 0.79944 0.07961 0.0
C1349 C 0.13564 0.79136 0.0958 0.0
C1350 C 0.14752 0.7873 0.05712 0.0
C1351 C 0.13305 0.76688 0.05019 0.0
C1352 C 0.12035 0.75804 0.06654 0.0
H1353 H 0.10986 0.73451 0.89716 0.0
H1354 H 0.10863 0.72387 0.93783 0.0
C1355 C 0.12167 0.77018 0.08924 0.0
C1356 C 0.13081 0.75635 0.02532 0.0
H1357 H 0.10418 0.7586 0.97372 0.0
C1358 C 0.14638 0.74679 0.01614 0.0
C1359 C 0.11493 0.75945 0.00992 0.0
C1360 C 0.0979 0.76983 0.01884 0.0
C1361 C 0.14713 0.74193 0.99185 0.0
C1362 C 0.13209 0.74716 0.97638 0.0
C1363 C 0.11573 0.75464 0.98562 0.0
C1364 C 0.13458 0.74947 0.9512 0.0
C1365 C 0.16447 0.73232 0.98296 0.0
C1366 C 0.14972 0.767 0.9452 0.0
C1367 C 0.15033 0.77311 0.92224 0.0
C1368 C 0.13587 0.76178 0.90479 0.0
C1369 C 0.12132 0.74319 0.91033 0.0
C1370 C 0.12057 0.73722 0.93351 0.0
H1371 H 0.17045 0.72086 0.99558 0.0
H1372 H 0.1607 0.7213 0.96567 0.0
H1373 H 0.17604 0.74801 0.981 0.0
H1374 H 0.16043 0.77712 0.95857 0.0
H1375 H 0.16165 0.78753 0.91834 0.0
H1376 H 0.06793 0.11906 0.15514 0.0
H1377 H 0.03383 0.11939 0.16164 0.0
H1378 H 0.03466 0.1832 0.12384 0.0
H1379 H 0.06887 0.18361 0.11826 0.0
H1380 H 0.01822 0.19003 0.16197 0.0
H1381 H 0.98536 0.09788 0.11966 0.0
H1382 H 0.0039 0.09639 0.14238 0.0
H1383 H 0.01018 0.11127 0.1167 0.0
C1384 C 0.06076 0.13298 0.14798 0.0
C1385 C 0.07111 0.15129 0.13616 0.0
C1386 C 0.0412 0.13306 0.15158 0.0
C1387 C 0.03147 0.15108 0.14289 0.0
C1388 C 0.04176 0.16908 0.13071 0.0
H1389 H 0.90583 0.14497 0.13945 0.0
H1390 H 0.93904 0.14378 0.12942 0.0
C1391 C 0.06135 0.16927 0.12749 0.0
C1392 C 0.01098 0.15219 0.14762 0.0
H1393 H 0.96533 0.11843 0.14383 0.0
C1394 C 0.00665 0.17439 0.15781 0.0
C1395 C 0.99574 0.13196 0.1419 0.0
C1396 C 0.99897 0.10813 0.12933 0.0
C1397 C 0.98768 0.17685 0.16272 0.0
C1398 C 0.97263 0.15625 0.15818 0.0
C1399 C 0.97687 0.13415 0.14762 0.0
C1400 C 0.95244 0.15725 0.16426 0.0
C1401 C 0.98397 0.20173 0.17222 0.0
C1402 C 0.94881 0.16498 0.18723 0.0
C1403 C 0.92989 0.16611 0.1929 0.0
C1404 C 0.91406 0.15894 0.17587 0.0
C1405 C 0.91767 0.15069 0.15299 0.0
C1406 C 0.93666 0.14994 0.14724 0.0
H1407 H 0.99503 0.21668 0.16729 0.0
H1408 H 0.96939 0.20492 0.1657 0.0
H1409 H 0.98483 0.20293 0.19165 0.0
H1410 H 0.96062 0.16996 0.20089 0.0
H1411 H 0.92768 0.17223 0.21078 0.0
H1412 H 0.92071 0.93136 0.25188 0.0
H1413 H 0.9179 0.97178 0.2705 0.0
H1414 H 0.85616 0.95686 0.25129 0.0
H1415 H 0.8587 0.91632 0.23393 0.0
H1416 H 0.90923 0.00381 0.24487 0.0
H1417 H 0.85555 0.99867 0.30995 0.0
H1418 H 0.8662 0.97239 0.30041 0.0
H1419 H 0.84493 0.97912 0.28433 0.0
C1420 C 0.90642 0.93632 0.25255 0.0
C1421 C 0.88999 0.92075 0.24105 0.0
C1422 C 0.90483 0.95948 0.26318 0.0
C1423 C 0.88682 0.96755 0.26236 0.0
C1424 C 0.87017 0.95107 0.25278 0.0
H1425 H 0.84259 0.07914 0.2117 0.0
H1426 H 0.8501 0.04355 0.23 0.0
C1427 C 0.8717 0.9278 0.24256 0.0
C1428 C 0.88586 0.99412 0.2666 0.0
H1429 H 0.85563 0.0331 0.28485 0.0
C1430 C 0.898 0.01039 0.25444 0.0
C1431 C 0.87126 0.00297 0.27909 0.0
C1432 C 0.85894 0.98732 0.29436 0.0
C1433 C 0.89472 0.03437 0.25252 0.0
C1434 C 0.87885 0.04226 0.26292 0.0
C1435 C 0.8677 0.02685 0.27673 0.0
C1436 C 0.87182 0.06441 0.25589 0.0
C1437 C 0.90718 0.05046 0.23767 0.0
C1438 C 0.88113 0.088 0.26497 0.0
C1439 C 0.87674 0.10856 0.2546 0.0
C1440 C 0.86323 0.10564 0.23479 0.0
C1441 C 0.85315 0.08204 0.22677 0.0
C1442 C 0.85734 0.06166 0.2373 0.0
H1443 H 0.91928 0.04179 0.23123 0.0
H1444 H 0.89814 0.05451 0.22232 0.0
H1445 H 0.91338 0.06819 0.24801 0.0
H1446 H 0.89244 0.09039 0.27924 0.0
H1447 H 0.88477 0.12649 0.26116 0.0
H1448 H 0.93595 0.88126 0.18288 0.0
H1449 H 0.97043 0.88124 0.17885 0.0
H1450 H 0.9599 0.80219 0.17098 0.0
H1451 H 0.9254 0.80193 0.17454 0.0
H1452 H 0.99704 0.86231 0.20542 0.0
H1453 H 0.98933 0.81783 0.11425 0.0
H1454 H 0.96977 0.82987 0.12747 0.0
H1455 H 0.97499 0.8003 0.13354 0.0
C1456 C 0.94093 0.86384 0.18034 0.0
C1457 C 0.92781 0.84159 0.17897 0.0
C1458 C 0.96066 0.86388 0.17798 0.0
C1459 C 0.96768 0.84173 0.17414 0.0
C1460 C 0.95473 0.81951 0.17331 0.0
H1461 H 0.08502 0.8168 0.19899 0.0
H1462 H 0.05053 0.81852 0.19893 0.0
C1463 C 0.935 0.81942 0.17557 0.0
C1464 C 0.98863 0.84182 0.17164 0.0
H1465 H 0.02032 0.82075 0.13552 0.0
C1466 C 0.00214 0.85337 0.19007 0.0
C1467 C 0.9953 0.83051 0.15143 0.0
C1468 C 0.98161 0.81914 0.13044 0.0
C1469 C 0.02208 0.85325 0.18916 0.0
C1470 C 0.02865 0.84082 0.16949 0.0
C1471 C 0.01523 0.82997 0.15071 0.0
C1472 C 0.04937 0.83852 0.1684 0.0
C1473 C 0.03595 0.86657 0.20923 0.0
C1474 C 0.06001 0.84824 0.1506 0.0
C1475 C 0.07982 0.84708 0.15039 0.0
C1476 C 0.08929 0.8361 0.16798 0.0
C1477 C 0.07832 0.82558 0.18525 0.0
C1478 C 0.05858 0.82668 0.18537 0.0
H1479 H 0.02946 0.88075 0.21931 0.0
H1480 H 0.03952 0.85323 0.22142 0.0
H1481 H 0.04967 0.87552 0.20285 0.0
H1482 H 0.05311 0.85728 0.13721 0.0
H1483 H 0.08778 0.85536 0.13682 0.0
H1484 H 0.15261 0.08283 0.16813 0.0
H1485 H 0.15779 0.04798 0.18893 0.0
H1486 H 0.11238 0.06053 0.2331 0.0
H1487 H 0.10677 0.09559 0.21181 0.0
H1488 H 0.16665 0.0405 0.2357 0.0
H1489 H 0.09295 0.99113 0.20087 0.0
H1490 H 0.10365 0.01927 0.19006 0.0
H1491 H 0.09469 0.0199 0.21857 0.0
C1492 C 0.14382 0.07845 0.18244 0.0
C1493 C 0.12904 0.09175 0.18806 0.0
C1494 C 0.1469 0.05856 0.19444 0.0
C1495 C 0.13529 0.05139 0.21233 0.0
C1496 C 0.1213 0.06552 0.21908 0.0
H1497 H 0.1332 0.89665 0.23463 0.0
H1498 H 0.12975 0.93894 0.24778 0.0
C1499 C 0.1182 0.08562 0.20702 0.0
C1500 C 0.13699 0.0278 0.22185 0.0
H1501 H 0.11506 0.96779 0.2152 0.0
C1502 C 0.15519 0.02468 0.23185 0.0
C1503 C 0.122 0.00717 0.21695 0.0
C1504 C 0.10222 0.00931 0.20593 0.0
C1505 C 0.15928 0.00127 0.23523 0.0
C1506 C 0.14485 0.9805 0.22826 0.0
C1507 C 0.12611 0.98379 0.22047 0.0
C1508 C 0.14973 0.95555 0.22442 0.0
C1509 C 0.17934 0.99886 0.24497 0.0
C1510 C 0.16236 0.95095 0.2073 0.0
C1511 C 0.16414 0.92697 0.19963 0.0
C1512 C 0.15342 0.90708 0.209 0.0
C1513 C 0.14178 0.91167 0.22729 0.0
C1514 C 0.13975 0.93578 0.23475 0.0
H1515 H 0.18611 0.01538 0.25684 0.0
H1516 H 0.17901 0.98242 0.25469 0.0
H1517 H 0.18865 0.99705 0.23028 0.0
H1518 H 0.1699 0.96583 0.19873 0.0
H1519 H 0.17324 0.92396 0.18558 0.0
H1520 H 0.90892 0.78016 0.80078 0.0
H1521 H 0.94082 0.76784 0.7968 0.0
H1522 H 0.95612 0.78825 0.87078 0.0
H1523 H 0.92457 0.80052 0.87472 0.0
H1524 H 0.97447 0.80284 0.80722 0.0
H1525 H 0.97808 0.72487 0.8598 0.0
H1526 H 0.95535 0.73311 0.84921 0.0
H1527 H 0.96878 0.74925 0.87541 0.0
C1528 C 0.91882 0.78093 0.81629 0.0
C1529 C 0.91433 0.79102 0.83808 0.0
C1530 C 0.93706 0.77412 0.81399 0.0
C1531 C 0.95077 0.77691 0.83355 0.0
C1532 C 0.94567 0.78542 0.85557 0.0
H1533 H 0.07293 0.82454 0.85442 0.0
H1534 H 0.0375 0.81931 0.84961 0.0
C1535 C 0.92765 0.79247 0.8578 0.0
C1536 C 0.97129 0.77466 0.83077 0.0
H1537 H 0.00878 0.74992 0.85448 0.0
C1538 C 0.98192 0.7909 0.81715 0.0
C1539 C 0.98097 0.75904 0.84366 0.0
C1540 C 0.97016 0.74041 0.85766 0.0
C1541 C 0.00214 0.7929 0.81715 0.0
C1542 C 0.01198 0.77852 0.83138 0.0
C1543 C 0.00123 0.76124 0.84389 0.0
C1544 C 0.03346 0.78169 0.83408 0.0
C1545 C 0.01283 0.81069 0.80223 0.0
C1546 C 0.0429 0.76211 0.82746 0.0
C1547 C 0.06314 0.76499 0.83025 0.0
C1548 C 0.07437 0.78751 0.83991 0.0
C1549 C 0.0648 0.80702 0.84681 0.0
C1550 C 0.04454 0.8041 0.84394 0.0
H1551 H 0.00303 0.81506 0.78773 0.0
H1552 H 0.01884 0.82805 0.81328 0.0
H1553 H 0.02506 0.80325 0.79464 0.0
H1554 H 0.03461 0.74462 0.81998 0.0
H1555 H 0.06994 0.74949 0.82482 0.0
H1556 H 0.11643 0.88765 0.83821 0.0
H1557 H 0.12017 0.93056 0.83065 0.0
H1558 H 0.16475 0.91959 0.78462 0.0
H1559 H 0.1603 0.87611 0.7913 0.0
H1560 H 0.15039 0.96466 0.84159 0.0
H1561 H 0.13359 0.95696 0.74509 0.0
H1562 H 0.12901 0.93095 0.76176 0.0
H1563 H 0.15317 0.94183 0.75422 0.0
C1564 C 0.12676 0.89427 0.8261 0.0
C1565 C 0.13797 0.87852 0.81519 0.0
C1566 C 0.12897 0.91885 0.82188 0.0
C1567 C 0.14267 0.92842 0.80695 0.0
C1568 C 0.15376 0.91261 0.79576 0.0
H1569 H 0.16599 0.09106 0.81907 0.0
H1570 H 0.17251 0.04896 0.81919 0.0
C1571 C 0.15124 0.88777 0.79962 0.0
C1572 C 0.14571 0.95514 0.80424 0.0
H1573 H 0.14371 0.99678 0.76426 0.0
C1574 C 0.14899 0.97169 0.82466 0.0
C1575 C 0.14394 0.96435 0.78215 0.0
C1576 C 0.13956 0.94762 0.75956 0.0
C1577 C 0.14957 0.99696 0.82375 0.0
C1578 C 0.14765 0.00619 0.80167 0.0
C1579 C 0.14531 0.98976 0.78118 0.0
C1580 C 0.1454 0.03211 0.7995 0.0
C1581 C 0.15105 0.01321 0.84654 0.0
C1582 C 0.12859 0.03683 0.78729 0.0
C1583 C 0.12509 0.06074 0.7867 0.0
C1584 C 0.1382 0.08067 0.79857 0.0
C1585 C 0.15549 0.07612 0.80999 0.0
C1586 C 0.15915 0.05204 0.81023 0.0
H1587 H 0.14788 0.00244 0.86162 0.0
H1588 H 0.16602 0.02366 0.85009 0.0
H1589 H 0.14084 0.02648 0.84564 0.0
H1590 H 0.11776 0.02188 0.77879 0.0
H1591 H 0.11169 0.06343 0.77754 0.0
H1592 H 0.05111 0.16139 0.79327 0.0
H1593 H 0.02046 0.17492 0.78579 0.0
H1594 H 0.04961 0.24038 0.75992 0.0
H1595 H 0.08107 0.22698 0.76789 0.0
H1596 H 0.02306 0.25068 0.7893 0.0
H1597 H 0.98753 0.17416 0.72583 0.0
H1598 H 0.99771 0.16172 0.75059 0.0
H1599 H 0.01349 0.18008 0.73301 0.0
C1600 C 0.05122 0.1786 0.78578 0.0
C1601 C 0.0687 0.19299 0.78103 0.0
C1602 C 0.03351 0.1862 0.78125 0.0
C1603 C 0.03258 0.20825 0.77152 0.0
C1604 C 0.04995 0.22303 0.76702 0.0
H1605 H 0.90766 0.21316 0.76885 0.0
H1606 H 0.93906 0.21929 0.75165 0.0
C1607 C 0.0679 0.2154 0.77166 0.0
C1608 C 0.01339 0.21619 0.76825 0.0
H1609 H 0.96592 0.19114 0.75297 0.0
C1610 C 0.01061 0.23805 0.7807 0.0
C1611 C 0.99709 0.2003 0.75633 0.0
C1612 C 0.99919 0.17792 0.74046 0.0
C1613 C 0.99185 0.2428 0.78401 0.0
C1614 C 0.97555 0.22487 0.77527 0.0
C1615 C 0.97835 0.20464 0.76027 0.0
C1616 C 0.95638 0.22432 0.78501 0.0
C1617 C 0.98975 0.2664 0.79793 0.0
C1618 C 0.95563 0.22487 0.80935 0.0
C1619 C 0.93793 0.22141 0.81912 0.0
C1620 C 0.92029 0.21695 0.80484 0.0
C1621 C 0.92093 0.2167 0.78038 0.0
C1622 C 0.93886 0.22022 0.77054 0.0
H1623 H 0.00115 0.28161 0.79422 0.0
H1624 H 0.97528 0.2715 0.79392 0.0
H1625 H 0.99173 0.26434 0.81693 0.0
H1626 H 0.96882 0.22701 0.82091 0.0
H1627 H 0.9382 0.22152 0.83798 0.0
H1628 H 0.83643 0.92034 0.84962 0.0
H1629 H 0.83584 0.96428 0.84756 0.0
H1630 H 0.89826 0.97808 0.84834 0.0
H1631 H 0.89892 0.93469 0.84964 0.0
H1632 H 0.85199 0.00514 0.8765 0.0
H1633 H 0.88316 0.00923 0.79098 0.0
H1634 H 0.87452 0.98059 0.80232 0.0
H1635 H 0.89848 0.99726 0.81174 0.0
C1636 C 0.84997 0.93279 0.84923 0.0
C1637 C 0.86767 0.92396 0.84936 0.0
C1638 C 0.84964 0.95785 0.84809 0.0
C1639 C 0.86699 0.97438 0.84718 0.0
C1640 C 0.88465 0.96562 0.84822 0.0
H1641 H 0.88788 0.13336 0.87768 0.0
H1642 H 0.88539 0.08913 0.87945 0.0
C1643 C 0.88498 0.94073 0.84905 0.0
C1644 C 0.86694 0.00085 0.84532 0.0
H1645 H 0.88427 0.04769 0.81386 0.0
C1646 C 0.85885 0.01444 0.86267 0.0
C1647 C 0.87563 0.01292 0.82707 0.0
C1648 C 0.88324 0.99918 0.80685 0.0
C1649 C 0.85972 0.0399 0.86264 0.0
C1650 C 0.86947 0.05218 0.84517 0.0
C1651 C 0.87708 0.03842 0.82749 0.0
C1652 C 0.87144 0.07914 0.84428 0.0
C1653 C 0.8499 0.05324 0.88109 0.0
C1654 C 0.86535 0.08835 0.82357 0.0
C1655 C 0.86724 0.11355 0.82229 0.0
C1656 C 0.87505 0.13027 0.84181 0.0
C1657 C 0.88159 0.12105 0.8624 0.0
C1658 C 0.87996 0.09573 0.86354 0.0
H1659 H 0.83837 0.0406 0.88831 0.0
H1660 H 0.8608 0.06138 0.89581 0.0
H1661 H 0.84333 0.06821 0.87392 0.0
H1662 H 0.85892 0.07598 0.80838 0.0
H1663 H 0.86229 0.11985 0.80599 0.0
H1664 H 0.60948 0.62773 0.37102 0.0
H1665 H 0.61032 0.62856 0.4138 0.0
H1666 H 0.62393 0.70751 0.42049 0.0
H1667 H 0.62266 0.70698 0.37804 0.0
H1668 H 0.64133 0.64697 0.44607 0.0
H1669 H 0.57999 0.69609 0.46244 0.0
H1670 H 0.58383 0.68306 0.43358 0.0
H1671 H 0.5977 0.71215 0.44574 0.0
C1672 C 0.61242 0.64528 0.38158 0.0
C1673 C 0.616 0.66727 0.37101 0.0
C1674 C 0.61293 0.64572 0.40602 0.0
C1675 C 0.61692 0.66812 0.42033 0.0
C1676 C 0.62038 0.69005 0.40982 0.0
H1677 H 0.63798 0.70637 0.57224 0.0
H1678 H 0.63546 0.7079 0.52954 0.0
C1679 C 0.6198 0.68965 0.38547 0.0
C1680 C 0.61848 0.6686 0.44627 0.0
H1681 H 0.6006 0.69137 0.49592 0.0
C1682 C 0.63234 0.65655 0.45695 0.0
C1683 C 0.60684 0.68128 0.46046 0.0
C1684 C 0.59113 0.69369 0.44999 0.0
C1685 C 0.635 0.65702 0.48143 0.0
C1686 C 0.62336 0.66966 0.49559 0.0
C1687 C 0.60959 0.68186 0.48498 0.0
C1688 C 0.62455 0.66913 0.52136 0.0
C1689 C 0.65038 0.64417 0.49202 0.0
C1690 C 0.6189 0.64696 0.53078 0.0
C1691 C 0.62024 0.64602 0.55498 0.0
C1692 C 0.62729 0.66727 0.57041 0.0
C1693 C 0.63261 0.68964 0.56091 0.0
C1694 C 0.63117 0.69056 0.53655 0.0
H1695 H 0.66109 0.64049 0.47938 0.0
H1696 H 0.65822 0.65523 0.50793 0.0
H1697 H 0.64337 0.62634 0.4973 0.0
H1698 H 0.61345 0.63031 0.51935 0.0
H1699 H 0.61579 0.62847 0.56153 0.0
H1700 H 0.35773 0.6484 0.59728 0.0
H1701 H 0.3549 0.65928 0.55722 0.0
H1702 H 0.3526 0.734 0.58328 0.0
H1703 H 0.35687 0.72338 0.62369 0.0
H1704 H 0.32821 0.67386 0.53275 0.0
H1705 H 0.39285 0.74745 0.53959 0.0
H1706 H 0.38773 0.72825 0.56278 0.0
H1707 H 0.375 0.75353 0.55915 0.0
C1708 C 0.35677 0.66721 0.59446 0.0
C1709 C 0.35769 0.68512 0.61353 0.0
C1710 C 0.35507 0.67342 0.57154 0.0
C1711 C 0.35379 0.69757 0.56706 0.0
C1712 C 0.35417 0.71542 0.58616 0.0
H1713 H 0.32835 0.7079 0.41487 0.0
H1714 H 0.32369 0.7106 0.45696 0.0
C1715 C 0.35647 0.70933 0.60924 0.0
C1716 C 0.35212 0.70353 0.54231 0.0
H1717 H 0.3743 0.73917 0.50328 0.0
C1718 C 0.33828 0.68819 0.52631 0.0
C1719 C 0.36519 0.7223 0.53386 0.0
C1720 C 0.38114 0.73868 0.54967 0.0
C1721 C 0.33796 0.68996 0.50206 0.0
C1722 C 0.35119 0.70854 0.49358 0.0
C1723 C 0.36416 0.72492 0.50974 0.0
C1724 C 0.3537 0.70939 0.46812 0.0
C1725 C 0.32431 0.67082 0.48584 0.0
C1726 C 0.37223 0.70918 0.46038 0.0
C1727 C 0.37499 0.70855 0.4366 0.0
C1728 C 0.35923 0.70764 0.41982 0.0
C1729 C 0.34071 0.70833 0.42744 0.0
C1730 C 0.33802 0.70965 0.45146 0.0
H1731 H 0.31871 0.65458 0.49487 0.0
H1732 H 0.31165 0.67881 0.47943 0.0
H1733 H 0.3316 0.66447 0.47047 0.0
H1734 H 0.38458 0.70888 0.47274 0.0
H1735 H 0.38945 0.70787 0.43132 0.0
H1736 H 0.36282 0.36514 0.41744 0.0
H1737 H 0.36289 0.36028 0.45923 0.0
H1738 H 0.38231 0.29079 0.44713 0.0
H1739 H 0.38154 0.2951 0.40515 0.0
H1740 H 0.35427 0.28702 0.47542 0.0
H1741 H 0.40788 0.36991 0.50749 0.0
H1742 H 0.38762 0.37725 0.49038 0.0
H1743 H 0.40347 0.35876 0.47683 0.0
C1744 C 0.36737 0.34899 0.42369 0.0
C1745 C 0.37235 0.33063 0.40798 0.0
C1746 C 0.36745 0.34625 0.44764 0.0
C1747 C 0.37296 0.32538 0.45644 0.0
C1748 C 0.37806 0.30709 0.44079 0.0
H1749 H 0.40126 0.32311 0.60518 0.0
H1750 H 0.40179 0.32051 0.56256 0.0
C1751 C 0.37769 0.30964 0.4168 0.0
C1752 C 0.37287 0.32227 0.48184 0.0
H1753 H 0.38957 0.3507 0.53621 0.0
C1754 C 0.36213 0.30084 0.48873 0.0
C1755 C 0.38335 0.34011 0.49922 0.0
C1756 C 0.39639 0.36266 0.49311 0.0
C1757 C 0.36135 0.29694 0.5125 0.0
C1758 C 0.37109 0.31534 0.52989 0.0
C1759 C 0.38198 0.33662 0.52294 0.0
C1760 C 0.3705 0.31307 0.55543 0.0
C1761 C 0.35047 0.27294 0.51863 0.0
C1762 C 0.35276 0.309 0.56569 0.0
C1763 C 0.35249 0.30977 0.5901 0.0
C1764 C 0.36995 0.31525 0.60451 0.0
C1765 C 0.38764 0.31868 0.59429 0.0
C1766 C 0.38793 0.31734 0.56998 0.0
H1767 H 0.34943 0.25824 0.50393 0.0
H1768 H 0.35754 0.2669 0.53447 0.0
H1769 H 0.33547 0.27522 0.52214 0.0
H1770 H 0.33911 0.30636 0.55496 0.0
H1771 H 0.3387 0.30762 0.59775 0.0
H1772 H 0.62076 0.30374 0.42521 0.0
H1773 H 0.62091 0.29132 0.46444 0.0
H1774 H 0.63944 0.22383 0.4402 0.0
H1775 H 0.63966 0.23646 0.40017 0.0
H1776 H 0.60114 0.25029 0.48265 0.0
H1777 H 0.68144 0.25516 0.4931 0.0
H1778 H 0.66988 0.2678 0.46909 0.0
H1779 H 0.66754 0.2352 0.46929 0.0
C1780 C 0.62483 0.28616 0.42795 0.0
C1781 C 0.63044 0.27124 0.40944 0.0
C1782 C 0.62478 0.27901 0.45051 0.0
C1783 C 0.63032 0.25675 0.45535 0.0
C1784 C 0.63533 0.24125 0.43689 0.0
H1785 H 0.62253 0.25841 0.60877 0.0
H1786 H 0.62015 0.23741 0.56889 0.0
C1787 C 0.63537 0.24844 0.41404 0.0
C1788 C 0.63172 0.25131 0.48017 0.0
H1789 H 0.66526 0.2568 0.52721 0.0
C1790 C 0.61506 0.25093 0.49244 0.0
C1791 C 0.64991 0.25211 0.49281 0.0
C1792 C 0.66829 0.25267 0.48056 0.0
C1793 C 0.61634 0.25399 0.51706 0.0
C1794 C 0.63478 0.2569 0.52973 0.0
C1795 C 0.65116 0.25465 0.51745 0.0
C1796 C 0.63794 0.2673 0.55472 0.0
C1797 C 0.59823 0.25647 0.52916 0.0
C1798 C 0.64938 0.29054 0.56024 0.0
C1799 C 0.65091 0.30238 0.58286 0.0
C1800 C 0.64097 0.29134 0.60062 0.0
C1801 C 0.63022 0.26752 0.59544 0.0
C1802 C 0.62877 0.25555 0.57263 0.0
H1803 H 0.58553 0.25674 0.51652 0.0
H1804 H 0.59462 0.24075 0.5396 0.0
H1805 H 0.6006 0.27357 0.54132 0.0
H1806 H 0.6566 0.30001 0.54677 0.0
H1807 H 0.65951 0.32057 0.58619 0.0
H1808 H 0.56963 0.61254 0.64882 0.0
H1809 H 0.53497 0.6103 0.65379 0.0
H1810 H 0.54003 0.68773 0.64737 0.0
H1811 H 0.57443 0.69017 0.64209 0.0
H1812 H 0.51757 0.63512 0.6884 0.0
H1813 H 0.49384 0.65852 0.60045 0.0
H1814 H 0.5171 0.64951 0.60699 0.0
H1815 H 0.51365 0.68044 0.61511 0.0
C1816 C 0.56336 0.62907 0.6483 0.0
C1817 C 0.57489 0.65152 0.64499 0.0
C1818 C 0.54354 0.62775 0.65116 0.0
C1819 C 0.53485 0.64877 0.65058 0.0
C1820 C 0.54632 0.67117 0.64737 0.0
H1821 H 0.43064 0.68166 0.70791 0.0
H1822 H 0.46368 0.67789 0.69932 0.0
C1823 C 0.56607 0.67253 0.64451 0.0
C1824 C 0.51398 0.64765 0.65423 0.0
H1825 H 0.47149 0.66082 0.62983 0.0
C1826 C 0.50744 0.64051 0.67551 0.0
C1827 C 0.50072 0.65439 0.63728 0.0
C1828 C 0.5066 0.66091 0.61358 0.0
C1829 C 0.48816 0.64076 0.68063 0.0
C1830 C 0.47517 0.64872 0.66418 0.0
C1831 C 0.48152 0.65501 0.64255 0.0
C1832 C 0.45502 0.65105 0.66922 0.0
C1833 C 0.48188 0.6324 0.7036 0.0
C1834 C 0.43914 0.63776 0.65473 0.0
C1835 C 0.42016 0.64 0.65946 0.0
C1836 C 0.41668 0.65572 0.67873 0.0
C1837 C 0.43269 0.66928 0.69299 0.0
C1838 C 0.45163 0.66703 0.68822 0.0
H1839 H 0.49157 0.6205 0.71098 0.0
H1840 H 0.48248 0.64868 0.71648 0.0
H1841 H 0.46676 0.6222 0.70146 0.0
H1842 H 0.44144 0.62544 0.63987 0.0
H1843 H 0.40823 0.62927 0.64807 0.0
H1844 H 0.32873 0.59274 0.72503 0.0
H1845 H 0.32861 0.55237 0.73886 0.0
H1846 H 0.39026 0.57128 0.75819 0.0
H1847 H 0.39006 0.61217 0.74557 0.0
H1848 H 0.34626 0.52216 0.71657 0.0
H1849 H 0.37573 0.52965 0.80905 0.0
H1850 H 0.36742 0.55499 0.79618 0.0
H1851 H 0.39157 0.54882 0.79256 0.0
C1852 C 0.34204 0.58856 0.73323 0.0
C1853 C 0.35938 0.60542 0.73442 0.0
C1854 C 0.34201 0.5655 0.74106 0.0
C1855 C 0.35941 0.55867 0.74967 0.0
C1856 C 0.37654 0.57619 0.75225 0.0
H1857 H 0.40128 0.42866 0.71793 0.0
H1858 H 0.39705 0.46994 0.73247 0.0
C1859 C 0.37647 0.59954 0.74493 0.0
C1860 C 0.36027 0.53233 0.75152 0.0
H1861 H 0.37941 0.49254 0.78484 0.0
C1862 C 0.35304 0.51568 0.73181 0.0
C1863 C 0.36925 0.52372 0.77129 0.0
C1864 C 0.37624 0.54024 0.79353 0.0
C1865 C 0.35529 0.49107 0.73089 0.0
C1866 C 0.36521 0.48283 0.75005 0.0
C1867 C 0.37185 0.49904 0.77017 0.0
C1868 C 0.37032 0.45803 0.74789 0.0
C1869 C 0.34785 0.47417 0.70892 0.0
C1870 C 0.3571 0.43766 0.75275 0.0
C1871 C 0.35957 0.41392 0.74459 0.0
C1872 C 0.37512 0.41048 0.73122 0.0
C1873 C 0.38915 0.43083 0.72815 0.0
C1874 C 0.38681 0.4544 0.73652 0.0
H1875 H 0.33914 0.48295 0.6963 0.0
H1876 H 0.36029 0.46862 0.70014 0.0
H1877 H 0.33874 0.45726 0.71348 0.0
H1878 H 0.34418 0.44022 0.76128 0.0
H1879 H 0.34846 0.39857 0.74701 0.0
H1880 H 0.5883 0.33519 0.63666 0.0
H1881 H 0.55305 0.33274 0.63575 0.0
H1882 H 0.55578 0.32634 0.71013 0.0
H1883 H 0.59067 0.32767 0.71102 0.0
H1884 H 0.52594 0.2959 0.68898 0.0
H1885 H 0.52542 0.3871 0.65716 0.0
H1886 H 0.53554 0.36666 0.63751 0.0
H1887 H 0.54759 0.37674 0.66627 0.0
C1888 C 0.58137 0.33316 0.6528 0.0
C1889 C 0.59239 0.3318 0.67394 0.0
C1890 C 0.56122 0.33197 0.65229 0.0
C1891 C 0.55177 0.32994 0.67298 0.0
C1892 C 0.5627 0.32803 0.69395 0.0
H1893 H 0.43917 0.36808 0.69641 0.0
H1894 H 0.47368 0.36607 0.69556 0.0
C1895 C 0.58273 0.32884 0.69441 0.0
C1896 C 0.53052 0.32979 0.67307 0.0
H1897 H 0.49478 0.36272 0.65991 0.0
C1898 C 0.51913 0.31054 0.68264 0.0
C1899 C 0.52166 0.34908 0.66515 0.0
C1900 C 0.5332 0.37119 0.65617 0.0
C1901 C 0.49922 0.31006 0.68462 0.0
C1902 C 0.49024 0.32894 0.67601 0.0
C1903 C 0.50161 0.34815 0.66636 0.0
C1904 C 0.46919 0.32953 0.6773 0.0
C1905 C 0.48821 0.28975 0.69665 0.0
C1906 C 0.4551 0.30966 0.66736 0.0
C1907 C 0.43534 0.31058 0.66822 0.0
C1908 C 0.42924 0.33164 0.67856 0.0
C1909 C 0.44336 0.35157 0.68836 0.0
C1910 C 0.46311 0.35047 0.68782 0.0
H1911 H 0.49809 0.28158 0.70843 0.0
H1912 H 0.47708 0.29646 0.70714 0.0
H1913 H 0.48081 0.27498 0.68321 0.0
H1914 H 0.45936 0.29358 0.65854 0.0
H1915 H 0.42486 0.29504 0.6602 0.0
H1916 H 0.65687 0.58432 0.67614 0.0
H1917 H 0.66149 0.54901 0.69654 0.0
H1918 H 0.61578 0.56157 0.74024 0.0
H1919 H 0.61072 0.59706 0.71932 0.0
H1920 H 0.66971 0.54027 0.74289 0.0
H1921 H 0.59571 0.49299 0.70687 0.0
H1922 H 0.60686 0.52129 0.69675 0.0
H1923 H 0.59771 0.52143 0.72516 0.0
C1924 C 0.64791 0.57985 0.69029 0.0
C1925 C 0.63318 0.59325 0.69583 0.0
C1926 C 0.65066 0.55969 0.70205 0.0
C1927 C 0.63878 0.55238 0.71964 0.0
C1928 C 0.6249 0.56666 0.72642 0.0
H1929 H 0.63488 0.39653 0.73936 0.0
H1930 H 0.63164 0.43881 0.75303 0.0
C1931 C 0.62211 0.58701 0.71458 0.0
C1932 C 0.64002 0.52846 0.72872 0.0
H1933 H 0.61728 0.46878 0.72082 0.0
C1934 C 0.65806 0.52472 0.7387 0.0
C1935 C 0.62479 0.50816 0.72339 0.0
C1936 C 0.60517 0.51096 0.71236 0.0
C1937 C 0.66176 0.50104 0.74158 0.0
C1938 C 0.6471 0.48064 0.73417 0.0
C1939 C 0.62851 0.4845 0.72643 0.0
C1940 C 0.65164 0.45558 0.72978 0.0
C1941 C 0.68168 0.49795 0.75123 0.0
C1942 C 0.66414 0.45108 0.71249 0.0
C1943 C 0.66578 0.42714 0.70452 0.0
C1944 C 0.65506 0.40719 0.71377 0.0
C1945 C 0.64345 0.41164 0.73212 0.0
C1946 C 0.64155 0.43572 0.73988 0.0
H1947 H 0.68868 0.51419 0.76334 0.0
H1948 H 0.68104 0.48129 0.76068 0.0
H1949 H 0.69097 0.49611 0.73653 0.0
H1950 H 0.67177 0.46606 0.7041 0.0
H1951 H 0.6749 0.42422 0.69047 0.0
H1952 H 0.43085 0.35376 0.33828 0.0
H1953 H 0.46367 0.34586 0.33558 0.0
H1954 H 0.44164 0.26975 0.31289 0.0
H1955 H 0.40824 0.27748 0.31548 0.0
H1956 H 0.47208 0.27883 0.35066 0.0
H1957 H 0.49207 0.33245 0.2767 0.0
H1958 H 0.4813 0.34922 0.29893 0.0
H1959 H 0.46716 0.3224 0.28242 0.0
C1960 C 0.43279 0.33534 0.33235 0.0
C1961 C 0.41677 0.31629 0.32688 0.0
C1962 C 0.45167 0.33091 0.33075 0.0
C1963 C 0.4551 0.30734 0.32365 0.0
C1964 C 0.43926 0.28815 0.31817 0.0
H1965 H 0.5697 0.26199 0.3289 0.0
H1966 H 0.5348 0.26131 0.3227 0.0
C1967 C 0.4202 0.29262 0.31961 0.0
C1968 C 0.4754 0.30295 0.32341 0.0
H1969 H 0.51846 0.32368 0.30166 0.0
C1970 C 0.48219 0.28822 0.33966 0.0
C1971 C 0.48853 0.31535 0.3091 0.0
C1972 C 0.48188 0.33056 0.29064 0.0
C1973 C 0.502 0.28661 0.34285 0.0
C1974 C 0.51525 0.29978 0.32914 0.0
C1975 C 0.50831 0.31375 0.31228 0.0
C1976 C 0.53648 0.30012 0.33264 0.0
C1977 C 0.50871 0.27178 0.36162 0.0
C1978 C 0.54909 0.32228 0.33978 0.0
C1979 C 0.56912 0.32282 0.34322 0.0
C1980 C 0.57696 0.30118 0.33945 0.0
C1981 C 0.56424 0.27903 0.33207 0.0
C1982 C 0.54422 0.27854 0.32863 0.0
H1983 H 0.49746 0.26726 0.37396 0.0
H1984 H 0.51201 0.25433 0.35326 0.0
H1985 H 0.52215 0.28184 0.3718 0.0
H1986 H 0.5434 0.33917 0.3429 0.0
H1987 H 0.57843 0.3402 0.34887 0.0
H1988 H 0.61817 0.37499 0.2847 0.0
H1989 H 0.62182 0.41749 0.275 0.0
H1990 H 0.66658 0.4392 0.3319 0.0
H1991 H 0.66336 0.39701 0.34134 0.0
H1992 H 0.61438 0.4547 0.30495 0.0
H1993 H 0.68988 0.4774 0.28137 0.0
H1994 H 0.67787 0.4462 0.28218 0.0
H1995 H 0.68866 0.46439 0.30879 0.0
C1996 C 0.62915 0.3887 0.29472 0.0
C1997 C 0.64038 0.3826 0.31387 0.0
C1998 C 0.63119 0.413 0.2892 0.0
C1999 C 0.64462 0.43153 0.30257 0.0
C2000 C 0.65644 0.42521 0.32098 0.0
H2001 H 0.65933 0.58835 0.33422 0.0
H2002 H 0.66291 0.54499 0.331 0.0
C2003 C 0.65443 0.40103 0.32649 0.0
C2004 C 0.64469 0.45777 0.29932 0.0
H2005 H 0.67435 0.51167 0.29307 0.0
C2006 C 0.62742 0.46706 0.30194 0.0
C2007 C 0.66176 0.47396 0.29564 0.0
C2008 C 0.68054 0.46493 0.2916 0.0
C2009 C 0.62689 0.49217 0.30181 0.0
C2010 C 0.64404 0.50843 0.29865 0.0
C2011 C 0.66126 0.49916 0.2956 0.0
C2012 C 0.64421 0.53515 0.29882 0.0
C2013 C 0.60811 0.50125 0.30589 0.0
C2014 C 0.63314 0.54407 0.28132 0.0
C2015 C 0.63104 0.5687 0.28311 0.0
C2016 C 0.64005 0.58496 0.30243 0.0
C2017 C 0.65218 0.57631 0.31917 0.0
C2018 C 0.65423 0.55155 0.31736 0.0
H2019 H 0.59746 0.48729 0.31295 0.0
H2020 H 0.61076 0.51819 0.31829 0.0
H2021 H 0.60151 0.50567 0.28901 0.0
H2022 H 0.62554 0.53177 0.26668 0.0
H2023 H 0.62178 0.57478 0.26974 0.0
H2024 H 0.55882 0.67868 0.31687 0.0
H2025 H 0.52739 0.69072 0.30861 0.0
H2026 H 0.55146 0.7383 0.25891 0.0
H2027 H 0.5835 0.72632 0.26729 0.0
H2028 H 0.51933 0.74805 0.30582 0.0
H2029 H 0.50128 0.67756 0.22884 0.0
H2030 H 0.51744 0.67186 0.2528 0.0
H2031 H 0.52517 0.69597 0.23507 0.0
C2032 C 0.55758 0.69193 0.30435 0.0
C2033 C 0.57361 0.70144 0.29259 0.0
C2034 C 0.5396 0.69883 0.29972 0.0
C2035 C 0.53714 0.71527 0.28312 0.0
C2036 C 0.55318 0.72559 0.27183 0.0
H2037 H 0.4141 0.73557 0.27982 0.0
H2038 H 0.44702 0.74386 0.2665 0.0
C2039 C 0.57141 0.71882 0.27667 0.0
C2040 C 0.51729 0.71989 0.27713 0.0
H2041 H 0.47488 0.6902 0.24752 0.0
C2042 C 0.50964 0.73621 0.29243 0.0
C2043 C 0.50476 0.70416 0.25982 0.0
C2044 C 0.51247 0.68639 0.24304 0.0
C2045 C 0.48952 0.73574 0.29213 0.0
C2046 C 0.47686 0.71846 0.27615 0.0
C2047 C 0.48464 0.70355 0.25959 0.0
C2048 C 0.45607 0.71198 0.27998 0.0
C2049 C 0.48178 0.752 0.31034 0.0
C2050 C 0.45019 0.69096 0.29116 0.0
C2051 C 0.43167 0.68636 0.29885 0.0
C2052 C 0.41854 0.70251 0.29519 0.0
C2053 C 0.4239 0.72268 0.28252 0.0
C2054 C 0.44268 0.72751 0.27508 0.0
H2055 H 0.49357 0.76441 0.32157 0.0
H2056 H 0.47233 0.76331 0.30159 0.0
H2057 H 0.47276 0.74056 0.32173 0.0
H2058 H 0.46033 0.67882 0.29517 0.0
H2059 H 0.42789 0.67075 0.30866 0.0
H2060 H 0.34389 0.41882 0.3234 0.0
H2061 H 0.34271 0.46201 0.31923 0.0
H2062 H 0.34817 0.47785 0.39441 0.0
H2063 H 0.34939 0.43482 0.39887 0.0
H2064 H 0.31959 0.49933 0.34056 0.0
H2065 H 0.3987 0.51578 0.3684 0.0
H2066 H 0.38535 0.4857 0.35799 0.0
H2067 H 0.38315 0.49894 0.38712 0.0
C2068 C 0.34422 0.4313 0.33908 0.0
C2069 C 0.34704 0.4234 0.3615 0.0
C2070 C 0.34361 0.456 0.33663 0.0
C2071 C 0.34572 0.47309 0.35651 0.0
C2072 C 0.34676 0.46491 0.37887 0.0
H2073 H 0.37499 0.63138 0.37975 0.0
H2074 H 0.36783 0.58744 0.38345 0.0
C2075 C 0.34738 0.44028 0.38136 0.0
C2076 C 0.34907 0.49968 0.35399 0.0
H2077 H 0.3844 0.55051 0.36229 0.0
C2078 C 0.33373 0.51058 0.34526 0.0
C2079 C 0.36758 0.51418 0.36008 0.0
C2080 C 0.38473 0.50313 0.36876 0.0
C2081 C 0.33633 0.53585 0.34292 0.0
C2082 C 0.35487 0.55038 0.34904 0.0
C2083 C 0.3702 0.53937 0.35768 0.0
C2084 C 0.35878 0.57706 0.34665 0.0
C2085 C 0.31913 0.54687 0.33443 0.0
C2086 C 0.35638 0.5858 0.32465 0.0
C2087 C 0.36047 0.61092 0.32244 0.0
C2088 C 0.36719 0.62783 0.3422 0.0
C2089 C 0.36984 0.61894 0.36416 0.0
C2090 C 0.36572 0.59382 0.36634 0.0
H2091 H 0.30517 0.53488 0.33652 0.0
H2092 H 0.31926 0.56515 0.34404 0.0
H2093 H 0.31979 0.54922 0.31551 0.0
H2094 H 0.35152 0.57316 0.30912 0.0
H2095 H 0.35839 0.61705 0.30521 0.0
loop_
_geom_bond_atom_site_label_1
_geom_bond_atom_site_label_2
_geom_bond_distance
_geom_bond_site_symmetry_2
_ccdc_geom_bond_type
Co0 O2 2.143 . S
Co0 O8 2.074 . S
Co0 O11 2.093 . S
Co0 O24 2.097 . S
Co0 N41 2.151 . S
Co0 N49 2.214 . S
Co1 O2 2.160 . S
Co1 O7 2.058 . S
Co1 O17 2.057 . S
Co1 O32 2.037 . S
Co1 N36 2.145 . S
Co1 N57 2.257 . S
O2 Co0 2.143 . S
O2 Co1 2.160 . S
C3 O4 1.278 . S
C3 O11 1.224 . S
O4 C3 1.278 . S
C5 O6 1.245 . S
C5 O17 1.232 . S
O6 C5 1.245 . S
O7 Co1 2.058 . S
O7 C33 1.269 . S
O8 Co0 2.074 . S
O8 C33 1.257 . S
H9 C34 0.930 . S
H10 C40 0.930 . S
O11 Co0 2.093 . S
O11 C3 1.224 . S
H12 C44 0.929 . S
H13 C46 0.930 . S
H14 C47 0.930 . S
H15 C45 0.929 . S
H16 C48 0.928 . S
O17 Co1 2.057 . S
O17 C5 1.232 . S
H18 C37 0.929 . S
H19 C38 0.929 . S
H20 C50 0.931 . S
H21 C42 0.929 . S
H22 C51 0.930 . S
H23 C43 0.931 . S
O24 Co0 2.097 . S
O24 C52 1.214 . S
H25 C53 0.929 . S
H26 C54 0.929 . S
H27 C55 0.930 . S
H28 C56 0.929 . S
H29 C58 0.930 . S
H30 C35 0.930 . S
H31 C39 0.930 . S
O32 Co1 2.037 . S
O32 C52 1.234 . S
C33 O7 1.269 . S
C33 O8 1.257 . S
C34 H9 0.930 . S
C34 C37 1.388 . S
C34 C39 1.418 . S
C35 H30 0.930 . S
C35 C38 1.404 . S
C35 C39 1.353 . S
N36 Co1 2.145 . S
N36 C37 1.397 . S
N36 C38 1.334 . S
C37 H18 0.929 . S
C37 C34 1.388 . S
C37 N36 1.397 . S
C38 H19 0.929 . S
C38 C35 1.404 . S
C38 N36 1.334 . S
C39 H31 0.930 . S
C39 C34 1.418 . S
C39 C35 1.353 . S
C40 H10 0.930 . S
C40 N41 1.330 . S
C40 C42 1.446 . S
N41 Co0 2.151 . S
N41 C40 1.330 . S
N41 C45 1.418 . S
C42 H21 0.929 . S
C42 C40 1.446 . S
C42 C43 1.332 . S
C43 H23 0.931 . S
C43 C42 1.332 . S
C43 C44 1.267 . S
C44 H12 0.929 . S
C44 C43 1.267 . S
C44 C45 1.251 . S
C45 H15 0.929 . S
C45 N41 1.418 . S
C45 C44 1.251 . S
C46 H13 0.930 . S
C46 C48 1.406 . S
C46 C51 1.261 . S
C47 H14 0.930 . S
C47 N49 1.325 . S
C47 C50 1.357 . S
C48 H16 0.928 . S
C48 C46 1.406 . S
C48 N49 1.261 . S
N49 Co0 2.214 . S
N49 C47 1.325 . S
N49 C48 1.261 . S
C50 H20 0.931 . S
C50 C47 1.357 . S
C50 C51 1.312 . S
C51 H22 0.930 . S
C51 C46 1.261 . S
C51 C50 1.312 . S
C52 O24 1.214 . S
C52 O32 1.234 . S
C53 H25 0.929 . S
C53 C56 1.391 . S
C53 C58 1.391 . S
C54 H26 0.929 . S
C54 C55 1.390 . S
C54 N57 1.391 . S
C55 H27 0.930 . S
C55 C54 1.390 . S
C55 C56 1.392 . S
C56 H28 0.929 . S
C56 C53 1.391 . S
C56 C55 1.392 . S
N57 Co1 2.257 . S
N57 C54 1.391 . S
N57 C58 1.388 . S
C58 H29 0.930 . S
C58 C53 1.391 . S
C58 N57 1.388 . S
Co59 O61 2.143 . S
Co59 O67 2.074 . S
Co59 O70 2.093 . S
Co59 O83 2.097 . S
Co59 N100 2.151 . S
Co59 N108 2.214 . S
Co60 O61 2.160 . S
Co60 O66 2.058 . S
Co60 O76 2.057 . S
Co60 O91 2.037 . S
Co60 N95 2.145 . S
Co60 N116 2.257 . S
O61 Co59 2.143 . S
O61 Co60 2.160 . S
C62 O63 1.278 . S
C62 O70 1.224 . S
O63 C62 1.278 . S
C64 O65 1.245 . S
C64 O76 1.232 . S
O65 C64 1.245 . S
O66 Co60 2.058 . S
O66 C92 1.269 . S
O67 Co59 2.074 . S
O67 C92 1.257 . S
H68 C93 0.930 . S
H69 C99 0.930 . S
O70 Co59 2.093 . S
O70 C62 1.224 . S
H71 C103 0.929 . S
H72 C105 0.930 . S
H73 C106 0.930 . S
H74 C104 0.929 . S
H75 C107 0.928 . S
O76 Co60 2.057 . S
O76 C64 1.232 . S
H77 C96 0.929 . S
H78 C97 0.929 . S
H79 C109 0.931 . S
H80 C101 0.929 . S
H81 C110 0.930 . S
H82 C102 0.931 . S
O83 Co59 2.097 . S
O83 C111 1.214 . S
H84 C112 0.929 . S
H85 C113 0.929 . S
H86 C114 0.930 . S
H87 C115 0.929 . S
H88 C117 0.930 . S
H89 C94 0.930 . S
H90 C98 0.930 . S
O91 Co60 2.037 . S
O91 C111 1.234 . S
C92 O66 1.269 . S
C92 O67 1.257 . S
C93 H68 0.930 . S
C93 C96 1.388 . S
C93 C98 1.418 . S
C94 H89 0.930 . S
C94 C97 1.404 . S
C94 C98 1.353 . S
N95 Co60 2.145 . S
N95 C96 1.397 . S
N95 C97 1.334 . S
C96 H77 0.929 . S
C96 C93 1.388 . S
C96 N95 1.397 . S
C97 H78 0.929 . S
C97 C94 1.404 . S
C97 N95 1.334 . S
C98 H90 0.930 . S
C98 C93 1.418 . S
C98 C94 1.353 . S
C99 H69 0.930 . S
C99 N100 1.330 . S
C99 C101 1.446 . S
N100 Co59 2.151 . S
N100 C99 1.330 . S
N100 C104 1.418 . S
C101 H80 0.929 . S
C101 C99 1.446 . S
C101 C102 1.332 . S
C102 H82 0.931 . S
C102 C101 1.332 . S
C102 C103 1.267 . S
C103 H71 0.929 . S
C103 C102 1.267 . S
C103 C104 1.251 . S
C104 H74 0.929 . S
C104 N100 1.418 . S
C104 C103 1.251 . S
C105 H72 0.930 . S
C105 C107 1.406 . S
C105 C110 1.261 . S
C106 H73 0.930 . S
C106 N108 1.325 . S
C106 C109 1.357 . S
C107 H75 0.928 . S
C107 C105 1.406 . S
C107 N108 1.261 . S
N108 Co59 2.214 . S
N108 C106 1.325 . S
N108 C107 1.261 . S
C109 H79 0.931 . S
C109 C106 1.357 . S
C109 C110 1.312 . S
C110 H81 0.930 . S
C110 C105 1.261 . S
C110 C109 1.312 . S
C111 O83 1.214 . S
C111 O91 1.234 . S
C112 H84 0.929 . S
C112 C115 1.391 . S
C112 C117 1.391 . S
C113 H85 0.929 . S
C113 C114 1.390 . S
C113 N116 1.391 . S
C114 H86 0.930 . S
C114 C113 1.390 . S
C114 C115 1.392 . S
C115 H87 0.929 . S
C115 C112 1.391 . S
C115 C114 1.392 . S
N116 Co60 2.257 . S
N116 C113 1.391 . S
N116 C117 1.388 . S
C117 H88 0.930 . S
C117 C112 1.391 . S
C117 N116 1.388 . S
Co118 O120 2.143 . S
Co118 O126 2.074 . S
Co118 O129 2.093 . S
Co118 O142 2.097 . S
Co118 N159 2.151 . S
Co118 N167 2.214 . S
Co119 O120 2.160 . S
Co119 O125 2.058 . S
Co119 O135 2.057 . S
Co119 O150 2.037 . S
Co119 N154 2.145 . S
Co119 N175 2.257 . S
O120 Co118 2.143 . S
O120 Co119 2.160 . S
C121 O122 1.278 . S
C121 O129 1.224 . S
O122 C121 1.278 . S
C123 O124 1.245 . S
C123 O135 1.232 . S
O124 C123 1.245 . S
O125 Co119 2.058 . S
O125 C151 1.269 . S
O126 Co118 2.074 . S
O126 C151 1.257 . S
H127 C152 0.930 . S
H128 C158 0.930 . S
O129 Co118 2.093 . S
O129 C121 1.224 . S
H130 C162 0.929 . S
H131 C164 0.930 . S
H132 C165 0.930 . S
H133 C163 0.929 . S
H134 C166 0.928 . S
O135 Co119 2.057 . S
O135 C123 1.232 . S
H136 C155 0.929 . S
H137 C156 0.929 . S
H138 C168 0.931 . S
H139 C160 0.929 . S
H140 C169 0.930 . S
H141 C161 0.931 . S
O142 Co118 2.097 . S
O142 C170 1.214 . S
H143 C171 0.929 . S
H144 C172 0.929 . S
H145 C173 0.930 . S
H146 C174 0.929 . S
H147 C176 0.930 . S
H148 C153 0.930 . S
H149 C157 0.930 . S
O150 Co119 2.037 . S
O150 C170 1.234 . S
C151 O125 1.269 . S
C151 O126 1.257 . S
C152 H127 0.930 . S
C152 C155 1.388 . S
C152 C157 1.418 . S
C153 H148 0.930 . S
C153 C156 1.404 . S
C153 C157 1.353 . S
N154 Co119 2.145 . S
N154 C155 1.397 . S
N154 C156 1.334 . S
C155 H136 0.929 . S
C155 C152 1.388 . S
C155 N154 1.397 . S
C156 H137 0.929 . S
C156 C153 1.404 . S
C156 N154 1.334 . S
C157 H149 0.930 . S
C157 C152 1.418 . S
C157 C153 1.353 . S
C158 H128 0.930 . S
C158 N159 1.330 . S
C158 C160 1.446 . S
N159 Co118 2.151 . S
N159 C158 1.330 . S
N159 C163 1.418 . S
C160 H139 0.929 . S
C160 C158 1.446 . S
C160 C161 1.332 . S
C161 H141 0.931 . S
C161 C160 1.332 . S
C161 C162 1.267 . S
C162 H130 0.929 . S
C162 C161 1.267 . S
C162 C163 1.251 . S
C163 H133 0.929 . S
C163 N159 1.418 . S
C163 C162 1.251 . S
C164 H131 0.930 . S
C164 C166 1.406 . S
C164 C169 1.261 . S
C165 H132 0.930 . S
C165 N167 1.325 . S
C165 C168 1.357 . S
C166 H134 0.928 . S
C166 C164 1.406 . S
C166 N167 1.261 . S
N167 Co118 2.214 . S
N167 C165 1.325 . S
N167 C166 1.261 . S
C168 H138 0.931 . S
C168 C165 1.357 . S
C168 C169 1.312 . S
C169 H140 0.930 . S
C169 C164 1.261 . S
C169 C168 1.312 . S
C170 O142 1.214 . S
C170 O150 1.234 . S
C171 H143 0.929 . S
C171 C174 1.391 . S
C171 C176 1.391 . S
C172 H144 0.929 . S
C172 C173 1.390 . S
C172 N175 1.391 . S
C173 H145 0.930 . S
C173 C172 1.390 . S
C173 C174 1.392 . S
C174 H146 0.929 . S
C174 C171 1.391 . S
C174 C173 1.392 . S
N175 Co119 2.257 . S
N175 C172 1.391 . S
N175 C176 1.388 . S
C176 H147 0.930 . S
C176 C171 1.391 . S
C176 N175 1.388 . S
Co177 O179 2.143 . S
Co177 O185 2.074 . S
Co177 O188 2.093 . S
Co177 O201 2.097 . S
Co177 N218 2.151 . S
Co177 N226 2.214 . S
Co178 O179 2.160 . S
Co178 O184 2.058 . S
Co178 O194 2.057 . S
Co178 O209 2.037 . S
Co178 N213 2.145 . S
Co178 N234 2.257 . S
O179 Co177 2.143 . S
O179 Co178 2.160 . S
C180 O181 1.278 . S
C180 O188 1.224 . S
O181 C180 1.278 . S
C182 O183 1.245 . S
C182 O194 1.232 . S
O183 C182 1.245 . S
O184 Co178 2.058 . S
O184 C210 1.269 . S
O185 Co177 2.074 . S
O185 C210 1.257 . S
H186 C211 0.930 . S
H187 C217 0.930 . S
O188 Co177 2.093 . S
O188 C180 1.224 . S
H189 C221 0.929 . S
H190 C223 0.930 . S
H191 C224 0.930 . S
H192 C222 0.929 . S
H193 C225 0.928 . S
O194 Co178 2.057 . S
O194 C182 1.232 . S
H195 C214 0.929 . S
H196 C215 0.929 . S
H197 C227 0.931 . S
H198 C219 0.929 . S
H199 C228 0.930 . S
H200 C220 0.931 . S
O201 Co177 2.097 . S
O201 C229 1.214 . S
H202 C230 0.929 . S
H203 C231 0.929 . S
H204 C232 0.930 . S
H205 C233 0.929 . S
H206 C235 0.930 . S
H207 C212 0.930 . S
H208 C216 0.930 . S
O209 Co178 2.037 . S
O209 C229 1.234 . S
C210 O184 1.269 . S
C210 O185 1.257 . S
C211 H186 0.930 . S
C211 C214 1.388 . S
C211 C216 1.418 . S
C212 H207 0.930 . S
C212 C215 1.404 . S
C212 C216 1.353 . S
N213 Co178 2.145 . S
N213 C214 1.397 . S
N213 C215 1.334 . S
C214 H195 0.929 . S
C214 C211 1.388 . S
C214 N213 1.397 . S
C215 H196 0.929 . S
C215 C212 1.404 . S
C215 N213 1.334 . S
C216 H208 0.930 . S
C216 C211 1.418 . S
C216 C212 1.353 . S
C217 H187 0.930 . S
C217 N218 1.330 . S
C217 C219 1.446 . S
N218 Co177 2.151 . S
N218 C217 1.330 . S
N218 C222 1.418 . S
C219 H198 0.929 . S
C219 C217 1.446 . S
C219 C220 1.332 . S
C220 H200 0.931 . S
C220 C219 1.332 . S
C220 C221 1.267 . S
C221 H189 0.929 . S
C221 C220 1.267 . S
C221 C222 1.251 . S
C222 H192 0.929 . S
C222 N218 1.418 . S
C222 C221 1.251 . S
C223 H190 0.930 . S
C223 C225 1.406 . S
C223 C228 1.261 . S
C224 H191 0.930 . S
C224 N226 1.325 . S
C224 C227 1.357 . S
C225 H193 0.928 . S
C225 C223 1.406 . S
C225 N226 1.261 . S
N226 Co177 2.214 . S
N226 C224 1.325 . S
N226 C225 1.261 . S
C227 H197 0.931 . S
C227 C224 1.357 . S
C227 C228 1.312 . S
C228 H199 0.930 . S
C228 C223 1.261 . S
C228 C227 1.312 . S
C229 O201 1.214 . S
C229 O209 1.234 . S
C230 H202 0.929 . S
C230 C233 1.391 . S
C230 C235 1.391 . S
C231 H203 0.929 . S
C231 C232 1.390 . S
C231 N234 1.391 . S
C232 H204 0.930 . S
C232 C231 1.390 . S
C232 C233 1.392 . S
C233 H205 0.929 . S
C233 C230 1.391 . S
C233 C232 1.392 . S
N234 Co178 2.257 . S
N234 C231 1.391 . S
N234 C235 1.388 . S
C235 H206 0.930 . S
C235 C230 1.391 . S
C235 N234 1.388 . S
Co236 O238 2.143 . S
Co236 O244 2.074 . S
Co236 O247 2.093 . S
Co236 O260 2.097 . S
Co236 N277 2.151 . S
Co236 N285 2.214 . S
Co237 O238 2.160 . S
Co237 O243 2.058 . S
Co237 O253 2.057 . S
Co237 O268 2.037 . S
Co237 N272 2.145 . S
Co237 N293 2.257 . S
O238 Co236 2.143 . S
O238 Co237 2.160 . S
C239 O240 1.278 . S
C239 O247 1.224 . S
O240 C239 1.278 . S
C241 O242 1.245 . S
C241 O253 1.232 . S
O242 C241 1.245 . S
O243 Co237 2.058 . S
O243 C269 1.269 . S
O244 Co236 2.074 . S
O244 C269 1.257 . S
H245 C270 0.930 . S
H246 C276 0.930 . S
O247 Co236 2.093 . S
O247 C239 1.224 . S
H248 C280 0.929 . S
H249 C282 0.930 . S
H250 C283 0.930 . S
H251 C281 0.929 . S
H252 C284 0.928 . S
O253 Co237 2.057 . S
O253 C241 1.232 . S
H254 C273 0.929 . S
H255 C274 0.929 . S
H256 C286 0.931 . S
H257 C278 0.929 . S
H258 C287 0.930 . S
H259 C279 0.931 . S
O260 Co236 2.097 . S
O260 C288 1.214 . S
H261 C289 0.929 . S
H262 C290 0.929 . S
H263 C291 0.930 . S
H264 C292 0.929 . S
H265 C294 0.930 . S
H266 C271 0.930 . S
H267 C275 0.930 . S
O268 Co237 2.037 . S
O268 C288 1.234 . S
C269 O243 1.269 . S
C269 O244 1.257 . S
C270 H245 0.930 . S
C270 C273 1.388 . S
C270 C275 1.418 . S
C271 H266 0.930 . S
C271 C274 1.404 . S
C271 C275 1.353 . S
N272 Co237 2.145 . S
N272 C273 1.397 . S
N272 C274 1.334 . S
C273 H254 0.929 . S
C273 C270 1.388 . S
C273 N272 1.397 . S
C274 H255 0.929 . S
C274 C271 1.404 . S
C274 N272 1.334 . S
C275 H267 0.930 . S
C275 C270 1.418 . S
C275 C271 1.353 . S
C276 H246 0.930 . S
C276 N277 1.330 . S
C276 C278 1.446 . S
N277 Co236 2.151 . S
N277 C276 1.330 . S
N277 C281 1.418 . S
C278 H257 0.929 . S
C278 C276 1.446 . S
C278 C279 1.332 . S
C279 H259 0.931 . S
C279 C278 1.332 . S
C279 C280 1.267 . S
C280 H248 0.929 . S
C280 C279 1.267 . S
C280 C281 1.251 . S
C281 H251 0.929 . S
C281 N277 1.418 . S
C281 C280 1.251 . S
C282 H249 0.930 . S
C282 C284 1.406 . S
C282 C287 1.261 . S
C283 H250 0.930 . S
C283 N285 1.325 . S
C283 C286 1.357 . S
C284 H252 0.928 . S
C284 C282 1.406 . S
C284 N285 1.261 . S
N285 Co236 2.214 . S
N285 C283 1.325 . S
N285 C284 1.261 . S
C286 H256 0.931 . S
C286 C283 1.357 . S
C286 C287 1.312 . S
C287 H258 0.930 . S
C287 C282 1.261 . S
C287 C286 1.312 . S
C288 O260 1.214 . S
C288 O268 1.234 . S
C289 H261 0.929 . S
C289 C292 1.391 . S
C289 C294 1.391 . S
C290 H262 0.929 . S
C290 C291 1.390 . S
C290 N293 1.391 . S
C291 H263 0.930 . S
C291 C290 1.390 . S
C291 C292 1.392 . S
C292 H264 0.929 . S
C292 C289 1.391 . S
C292 C291 1.392 . S
N293 Co237 2.257 . S
N293 C290 1.391 . S
N293 C294 1.388 . S
C294 H265 0.930 . S
C294 C289 1.391 . S
C294 N293 1.388 . S
Co295 O297 2.143 . S
Co295 O303 2.074 . S
Co295 O306 2.093 . S
Co295 O319 2.097 . S
Co295 N336 2.151 . S
Co295 N344 2.214 . S
Co296 O297 2.160 . S
Co296 O302 2.058 . S
Co296 O312 2.057 . S
Co296 O327 2.037 . S
Co296 N331 2.145 . S
Co296 N352 2.257 . S
O297 Co295 2.143 . S
O297 Co296 2.160 . S
C298 O299 1.278 . S
C298 O306 1.224 . S
O299 C298 1.278 . S
C300 O301 1.245 . S
C300 O312 1.232 . S
O301 C300 1.245 . S
O302 Co296 2.058 . S
O302 C328 1.269 . S
O303 Co295 2.074 . S
O303 C328 1.257 . S
H304 C329 0.930 . S
H305 C335 0.930 . S
O306 Co295 2.093 . S
O306 C298 1.224 . S
H307 C339 0.929 . S
H308 C341 0.930 . S
H309 C342 0.930 . S
H310 C340 0.929 . S
H311 C343 0.928 . S
O312 Co296 2.057 . S
O312 C300 1.232 . S
H313 C332 0.929 . S
H314 C333 0.929 . S
H315 C345 0.931 . S
H316 C337 0.929 . S
H317 C346 0.930 . S
H318 C338 0.931 . S
O319 Co295 2.097 . S
O319 C347 1.214 . S
H320 C348 0.929 . S
H321 C349 0.929 . S
H322 C350 0.930 . S
H323 C351 0.929 . S
H324 C353 0.930 . S
H325 C330 0.930 . S
H326 C334 0.930 . S
O327 Co296 2.037 . S
O327 C347 1.234 . S
C328 O302 1.269 . S
C328 O303 1.257 . S
C329 H304 0.930 . S
C329 C332 1.388 . S
C329 C334 1.418 . S
C330 H325 0.930 . S
C330 C333 1.404 . S
C330 C334 1.353 . S
N331 Co296 2.145 . S
N331 C332 1.397 . S
N331 C333 1.334 . S
C332 H313 0.929 . S
C332 C329 1.388 . S
C332 N331 1.397 . S
C333 H314 0.929 . S
C333 C330 1.404 . S
C333 N331 1.334 . S
C334 H326 0.930 . S
C334 C329 1.418 . S
C334 C330 1.353 . S
C335 H305 0.930 . S
C335 N336 1.330 . S
C335 C337 1.446 . S
N336 Co295 2.151 . S
N336 C335 1.330 . S
N336 C340 1.418 . S
C337 H316 0.929 . S
C337 C335 1.446 . S
C337 C338 1.332 . S
C338 H318 0.931 . S
C338 C337 1.332 . S
C338 C339 1.267 . S
C339 H307 0.929 . S
C339 C338 1.267 . S
C339 C340 1.251 . S
C340 H310 0.929 . S
C340 N336 1.418 . S
C340 C339 1.251 . S
C341 H308 0.930 . S
C341 C343 1.406 . S
C341 C346 1.261 . S
C342 H309 0.930 . S
C342 N344 1.325 . S
C342 C345 1.357 . S
C343 H311 0.928 . S
C343 C341 1.406 . S
C343 N344 1.261 . S
N344 Co295 2.214 . S
N344 C342 1.325 . S
N344 C343 1.261 . S
C345 H315 0.931 . S
C345 C342 1.357 . S
C345 C346 1.312 . S
C346 H317 0.930 . S
C346 C341 1.261 . S
C346 C345 1.312 . S
C347 O319 1.214 . S
C347 O327 1.234 . S
C348 H320 0.929 . S
C348 C351 1.391 . S
C348 C353 1.391 . S
C349 H321 0.929 . S
C349 C350 1.390 . S
C349 N352 1.391 . S
C350 H322 0.930 . S
C350 C349 1.390 . S
C350 C351 1.392 . S
C351 H323 0.929 . S
C351 C348 1.391 . S
C351 C350 1.392 . S
N352 Co296 2.257 . S
N352 C349 1.391 . S
N352 C353 1.388 . S
C353 H324 0.930 . S
C353 C348 1.391 . S
C353 N352 1.388 . S
Co354 O356 2.143 . S
Co354 O362 2.074 . S
Co354 O365 2.093 . S
Co354 O378 2.097 . S
Co354 N395 2.151 . S
Co354 N403 2.214 . S
Co355 O356 2.160 . S
Co355 O361 2.058 . S
Co355 O371 2.057 . S
Co355 O386 2.037 . S
Co355 N390 2.145 . S
Co355 N411 2.257 . S
O356 Co354 2.143 . S
O356 Co355 2.160 . S
C357 O358 1.278 . S
C357 O365 1.224 . S
O358 C357 1.278 . S
C359 O360 1.245 . S
C359 O371 1.232 . S
O360 C359 1.245 . S
O361 Co355 2.058 . S
O361 C387 1.269 . S
O362 Co354 2.074 . S
O362 C387 1.257 . S
H363 C388 0.930 . S
H364 C394 0.930 . S
O365 Co354 2.093 . S
O365 C357 1.224 . S
H366 C398 0.929 . S
H367 C400 0.930 . S
H368 C401 0.930 . S
H369 C399 0.929 . S
H370 C402 0.928 . S
O371 Co355 2.057 . S
O371 C359 1.232 . S
H372 C391 0.929 . S
H373 C392 0.929 . S
H374 C404 0.931 . S
H375 C396 0.929 . S
H376 C405 0.930 . S
H377 C397 0.931 . S
O378 Co354 2.097 . S
O378 C406 1.214 . S
H379 C407 0.929 . S
H380 C408 0.929 . S
H381 C409 0.930 . S
H382 C410 0.929 . S
H383 C412 0.930 . S
H384 C389 0.930 . S
H385 C393 0.930 . S
O386 Co355 2.037 . S
O386 C406 1.234 . S
C387 O361 1.269 . S
C387 O362 1.257 . S
C388 H363 0.930 . S
C388 C391 1.388 . S
C388 C393 1.418 . S
C389 H384 0.930 . S
C389 C392 1.404 . S
C389 C393 1.353 . S
N390 Co355 2.145 . S
N390 C391 1.397 . S
N390 C392 1.334 . S
C391 H372 0.929 . S
C391 C388 1.388 . S
C391 N390 1.397 . S
C392 H373 0.929 . S
C392 C389 1.404 . S
C392 N390 1.334 . S
C393 H385 0.930 . S
C393 C388 1.418 . S
C393 C389 1.353 . S
C394 H364 0.930 . S
C394 N395 1.330 . S
C394 C396 1.446 . S
N395 Co354 2.151 . S
N395 C394 1.330 . S
N395 C399 1.418 . S
C396 H375 0.929 . S
C396 C394 1.446 . S
C396 C397 1.332 . S
C397 H377 0.931 . S
C397 C396 1.332 . S
C397 C398 1.267 . S
C398 H366 0.929 . S
C398 C397 1.267 . S
C398 C399 1.251 . S
C399 H369 0.929 . S
C399 N395 1.418 . S
C399 C398 1.251 . S
C400 H367 0.930 . S
C400 C402 1.406 . S
C400 C405 1.261 . S
C401 H368 0.930 . S
C401 N403 1.325 . S
C401 C404 1.357 . S
C402 H370 0.928 . S
C402 C400 1.406 . S
C402 N403 1.261 . S
N403 Co354 2.214 . S
N403 C401 1.325 . S
N403 C402 1.261 . S
C404 H374 0.931 . S
C404 C401 1.357 . S
C404 C405 1.312 . S
C405 H376 0.930 . S
C405 C400 1.261 . S
C405 C404 1.312 . S
C406 O378 1.214 . S
C406 O386 1.234 . S
C407 H379 0.929 . S
C407 C410 1.391 . S
C407 C412 1.391 . S
C408 H380 0.929 . S
C408 C409 1.390 . S
C408 N411 1.391 . S
C409 H381 0.930 . S
C409 C408 1.390 . S
C409 C410 1.392 . S
C410 H382 0.929 . S
C410 C407 1.391 . S
C410 C409 1.392 . S
N411 Co355 2.257 . S
N411 C408 1.391 . S
N411 C412 1.388 . S
C412 H383 0.930 . S
C412 C407 1.391 . S
C412 N411 1.388 . S
Co413 O415 2.143 . S
Co413 O421 2.074 . S
Co413 O424 2.093 . S
Co413 O437 2.097 . S
Co413 N454 2.151 . S
Co413 N462 2.214 . S
Co414 O415 2.160 . S
Co414 O420 2.058 . S
Co414 O430 2.057 . S
Co414 O445 2.037 . S
Co414 N449 2.145 . S
Co414 N470 2.257 . S
O415 Co413 2.143 . S
O415 Co414 2.160 . S
C416 O417 1.278 . S
C416 O424 1.224 . S
O417 C416 1.278 . S
C418 O419 1.245 . S
C418 O430 1.232 . S
O419 C418 1.245 . S
O420 Co414 2.058 . S
O420 C446 1.269 . S
O421 Co413 2.074 . S
O421 C446 1.257 . S
H422 C447 0.930 . S
H423 C453 0.930 . S
O424 Co413 2.093 . S
O424 C416 1.224 . S
H425 C457 0.929 . S
H426 C459 0.930 . S
H427 C460 0.930 . S
H428 C458 0.929 . S
H429 C461 0.928 . S
O430 Co414 2.057 . S
O430 C418 1.232 . S
H431 C450 0.929 . S
H432 C451 0.929 . S
H433 C463 0.931 . S
H434 C455 0.929 . S
H435 C464 0.930 . S
H436 C456 0.931 . S
O437 Co413 2.097 . S
O437 C465 1.214 . S
H438 C466 0.929 . S
H439 C467 0.929 . S
H440 C468 0.930 . S
H441 C469 0.929 . S
H442 C471 0.930 . S
H443 C448 0.930 . S
H444 C452 0.930 . S
O445 Co414 2.037 . S
O445 C465 1.234 . S
C446 O420 1.269 . S
C446 O421 1.257 . S
C447 H422 0.930 . S
C447 C450 1.388 . S
C447 C452 1.418 . S
C448 H443 0.930 . S
C448 C451 1.404 . S
C448 C452 1.353 . S
N449 Co414 2.145 . S
N449 C450 1.397 . S
N449 C451 1.334 . S
C450 H431 0.929 . S
C450 C447 1.388 . S
C450 N449 1.397 . S
C451 H432 0.929 . S
C451 C448 1.404 . S
C451 N449 1.334 . S
C452 H444 0.930 . S
C452 C447 1.418 . S
C452 C448 1.353 . S
C453 H423 0.930 . S
C453 N454 1.330 . S
C453 C455 1.446 . S
N454 Co413 2.151 . S
N454 C453 1.330 . S
N454 C458 1.418 . S
C455 H434 0.929 . S
C455 C453 1.446 . S
C455 C456 1.332 . S
C456 H436 0.931 . S
C456 C455 1.332 . S
C456 C457 1.267 . S
C457 H425 0.929 . S
C457 C456 1.267 . S
C457 C458 1.251 . S
C458 H428 0.929 . S
C458 N454 1.418 . S
C458 C457 1.251 . S
C459 H426 0.930 . S
C459 C461 1.406 . S
C459 C464 1.261 . S
C460 H427 0.930 . S
C460 N462 1.325 . S
C460 C463 1.357 . S
C461 H429 0.928 . S
C461 C459 1.406 . S
C461 N462 1.261 . S
N462 Co413 2.214 . S
N462 C460 1.325 . S
N462 C461 1.261 . S
C463 H433 0.931 . S
C463 C460 1.357 . S
C463 C464 1.312 . S
C464 H435 0.930 . S
C464 C459 1.261 . S
C464 C463 1.312 . S
C465 O437 1.214 . S
C465 O445 1.234 . S
C466 H438 0.929 . S
C466 C469 1.391 . S
C466 C471 1.391 . S
C467 H439 0.929 . S
C467 C468 1.390 . S
C467 N470 1.391 . S
C468 H440 0.930 . S
C468 C467 1.390 . S
C468 C469 1.392 . S
C469 H441 0.929 . S
C469 C466 1.391 . S
C469 C468 1.392 . S
N470 Co414 2.257 . S
N470 C467 1.391 . S
N470 C471 1.388 . S
C471 H442 0.930 . S
C471 C466 1.391 . S
C471 N470 1.388 . S
Co472 O474 2.143 . S
Co472 O480 2.074 . S
Co472 O483 2.093 . S
Co472 O496 2.097 . S
Co472 N513 2.151 . S
Co472 N521 2.214 . S
Co473 O474 2.160 . S
Co473 O479 2.058 . S
Co473 O489 2.057 . S
Co473 O504 2.037 . S
Co473 N508 2.145 . S
Co473 N529 2.257 . S
O474 Co472 2.143 . S
O474 Co473 2.160 . S
C475 O476 1.278 . S
C475 O483 1.224 . S
O476 C475 1.278 . S
C477 O478 1.245 . S
C477 O489 1.232 . S
O478 C477 1.245 . S
O479 Co473 2.058 . S
O479 C505 1.269 . S
O480 Co472 2.074 . S
O480 C505 1.257 . S
H481 C506 0.930 . S
H482 C512 0.930 . S
O483 Co472 2.093 . S
O483 C475 1.224 . S
H484 C516 0.929 . S
H485 C518 0.930 . S
H486 C519 0.930 . S
H487 C517 0.929 . S
H488 C520 0.928 . S
O489 Co473 2.057 . S
O489 C477 1.232 . S
H490 C509 0.929 . S
H491 C510 0.929 . S
H492 C522 0.931 . S
H493 C514 0.929 . S
H494 C523 0.930 . S
H495 C515 0.931 . S
O496 Co472 2.097 . S
O496 C524 1.214 . S
H497 C525 0.929 . S
H498 C526 0.929 . S
H499 C527 0.930 . S
H500 C528 0.929 . S
H501 C530 0.930 . S
H502 C507 0.930 . S
H503 C511 0.930 . S
O504 Co473 2.037 . S
O504 C524 1.234 . S
C505 O479 1.269 . S
C505 O480 1.257 . S
C506 H481 0.930 . S
C506 C509 1.388 . S
C506 C511 1.418 . S
C507 H502 0.930 . S
C507 C510 1.404 . S
C507 C511 1.353 . S
N508 Co473 2.145 . S
N508 C509 1.397 . S
N508 C510 1.334 . S
C509 H490 0.929 . S
C509 C506 1.388 . S
C509 N508 1.397 . S
C510 H491 0.929 . S
C510 C507 1.404 . S
C510 N508 1.334 . S
C511 H503 0.930 . S
C511 C506 1.418 . S
C511 C507 1.353 . S
C512 H482 0.930 . S
C512 N513 1.330 . S
C512 C514 1.446 . S
N513 Co472 2.151 . S
N513 C512 1.330 . S
N513 C517 1.418 . S
C514 H493 0.929 . S
C514 C512 1.446 . S
C514 C515 1.332 . S
C515 H495 0.931 . S
C515 C514 1.332 . S
C515 C516 1.267 . S
C516 H484 0.929 . S
C516 C515 1.267 . S
C516 C517 1.251 . S
C517 H487 0.929 . S
C517 N513 1.418 . S
C517 C516 1.251 . S
C518 H485 0.930 . S
C518 C520 1.406 . S
C518 C523 1.261 . S
C519 H486 0.930 . S
C519 N521 1.325 . S
C519 C522 1.357 . S
C520 H488 0.928 . S
C520 C518 1.406 . S
C520 N521 1.261 . S
N521 Co472 2.214 . S
N521 C519 1.325 . S
N521 C520 1.261 . S
C522 H492 0.931 . S
C522 C519 1.357 . S
C522 C523 1.312 . S
C523 H494 0.930 . S
C523 C518 1.261 . S
C523 C522 1.312 . S
C524 O496 1.214 . S
C524 O504 1.234 . S
C525 H497 0.929 . S
C525 C528 1.391 . S
C525 C530 1.391 . S
C526 H498 0.929 . S
C526 C527 1.390 . S
C526 N529 1.391 . S
C527 H499 0.930 . S
C527 C526 1.390 . S
C527 C528 1.392 . S
C528 H500 0.929 . S
C528 C525 1.391 . S
C528 C527 1.392 . S
N529 Co473 2.257 . S
N529 C526 1.391 . S
N529 C530 1.388 . S
C530 H501 0.930 . S
C530 C525 1.391 . S
C530 N529 1.388 . S
Co531 O533 2.143 . S
Co531 O539 2.074 . S
Co531 O542 2.093 . S
Co531 O555 2.097 . S
Co531 N572 2.151 . S
Co531 N580 2.214 . S
Co532 O533 2.160 . S
Co532 O538 2.058 . S
Co532 O548 2.057 . S
Co532 O563 2.037 . S
Co532 N567 2.145 . S
Co532 N588 2.257 . S
O533 Co531 2.143 . S
O533 Co532 2.160 . S
C534 O535 1.278 . S
C534 O542 1.224 . S
O535 C534 1.278 . S
C536 O537 1.245 . S
C536 O548 1.232 . S
O537 C536 1.245 . S
O538 Co532 2.058 . S
O538 C564 1.269 . S
O539 Co531 2.074 . S
O539 C564 1.257 . S
H540 C565 0.930 . S
H541 C571 0.930 . S
O542 Co531 2.093 . S
O542 C534 1.224 . S
H543 C575 0.929 . S
H544 C577 0.930 . S
H545 C578 0.930 . S
H546 C576 0.929 . S
H547 C579 0.928 . S
O548 Co532 2.057 . S
O548 C536 1.232 . S
H549 C568 0.929 . S
H550 C569 0.929 . S
H551 C581 0.931 . S
H552 C573 0.929 . S
H553 C582 0.930 . S
H554 C574 0.931 . S
O555 Co531 2.097 . S
O555 C583 1.214 . S
H556 C584 0.929 . S
H557 C585 0.929 . S
H558 C586 0.930 . S
H559 C587 0.929 . S
H560 C589 0.930 . S
H561 C566 0.930 . S
H562 C570 0.930 . S
O563 Co532 2.037 . S
O563 C583 1.234 . S
C564 O538 1.269 . S
C564 O539 1.257 . S
C565 H540 0.930 . S
C565 C568 1.388 . S
C565 C570 1.418 . S
C566 H561 0.930 . S
C566 C569 1.404 . S
C566 C570 1.353 . S
N567 Co532 2.145 . S
N567 C568 1.397 . S
N567 C569 1.334 . S
C568 H549 0.929 . S
C568 C565 1.388 . S
C568 N567 1.397 . S
C569 H550 0.929 . S
C569 C566 1.404 . S
C569 N567 1.334 . S
C570 H562 0.930 . S
C570 C565 1.418 . S
C570 C566 1.353 . S
C571 H541 0.930 . S
C571 N572 1.330 . S
C571 C573 1.446 . S
N572 Co531 2.151 . S
N572 C571 1.330 . S
N572 C576 1.418 . S
C573 H552 0.929 . S
C573 C571 1.446 . S
C573 C574 1.332 . S
C574 H554 0.931 . S
C574 C573 1.332 . S
C574 C575 1.267 . S
C575 H543 0.929 . S
C575 C574 1.267 . S
C575 C576 1.251 . S
C576 H546 0.929 . S
C576 N572 1.418 . S
C576 C575 1.251 . S
C577 H544 0.930 . S
C577 C579 1.406 . S
C577 C582 1.261 . S
C578 H545 0.930 . S
C578 N580 1.325 . S
C578 C581 1.357 . S
C579 H547 0.928 . S
C579 C577 1.406 . S
C579 N580 1.261 . S
N580 Co531 2.214 . S
N580 C578 1.325 . S
N580 C579 1.261 . S
C581 H551 0.931 . S
C581 C578 1.357 . S
C581 C582 1.312 . S
C582 H553 0.930 . S
C582 C577 1.261 . S
C582 C581 1.312 . S
C583 O555 1.214 . S
C583 O563 1.234 . S
C584 H556 0.929 . S
C584 C587 1.391 . S
C584 C589 1.391 . S
C585 H557 0.929 . S
C585 C586 1.390 . S
C585 N588 1.391 . S
C586 H558 0.930 . S
C586 C585 1.390 . S
C586 C587 1.392 . S
C587 H559 0.929 . S
C587 C584 1.391 . S
C587 C586 1.392 . S
N588 Co532 2.257 . S
N588 C585 1.391 . S
N588 C589 1.388 . S
C589 H560 0.930 . S
C589 C584 1.391 . S
C589 N588 1.388 . S
Co590 O592 2.143 . S
Co590 O598 2.074 . S
Co590 O601 2.093 . S
Co590 O614 2.097 . S
Co590 N631 2.151 . S
Co590 N639 2.214 . S
Co591 O592 2.160 . S
Co591 O597 2.058 . S
Co591 O607 2.057 . S
Co591 O622 2.037 . S
Co591 N626 2.145 . S
Co591 N647 2.257 . S
O592 Co590 2.143 . S
O592 Co591 2.160 . S
C593 O594 1.278 . S
C593 O601 1.224 . S
O594 C593 1.278 . S
C595 O596 1.245 . S
C595 O607 1.232 . S
O596 C595 1.245 . S
O597 Co591 2.058 . S
O597 C623 1.269 . S
O598 Co590 2.074 . S
O598 C623 1.257 . S
H599 C624 0.930 . S
H600 C630 0.930 . S
O601 Co590 2.093 . S
O601 C593 1.224 . S
H602 C634 0.929 . S
H603 C636 0.930 . S
H604 C637 0.930 . S
H605 C635 0.929 . S
H606 C638 0.928 . S
O607 Co591 2.057 . S
O607 C595 1.232 . S
H608 C627 0.929 . S
H609 C628 0.929 . S
H610 C640 0.931 . S
H611 C632 0.929 . S
H612 C641 0.930 . S
H613 C633 0.931 . S
O614 Co590 2.097 . S
O614 C642 1.214 . S
H615 C643 0.929 . S
H616 C644 0.929 . S
H617 C645 0.930 . S
H618 C646 0.929 . S
H619 C648 0.930 . S
H620 C625 0.930 . S
H621 C629 0.930 . S
O622 Co591 2.037 . S
O622 C642 1.234 . S
C623 O597 1.269 . S
C623 O598 1.257 . S
C624 H599 0.930 . S
C624 C627 1.388 . S
C624 C629 1.418 . S
C625 H620 0.930 . S
C625 C628 1.404 . S
C625 C629 1.353 . S
N626 Co591 2.145 . S
N626 C627 1.397 . S
N626 C628 1.334 . S
C627 H608 0.929 . S
C627 C624 1.388 . S
C627 N626 1.397 . S
C628 H609 0.929 . S
C628 C625 1.404 . S
C628 N626 1.334 . S
C629 H621 0.930 . S
C629 C624 1.418 . S
C629 C625 1.353 . S
C630 H600 0.930 . S
C630 N631 1.330 . S
C630 C632 1.446 . S
N631 Co590 2.151 . S
N631 C630 1.330 . S
N631 C635 1.418 . S
C632 H611 0.929 . S
C632 C630 1.446 . S
C632 C633 1.332 . S
C633 H613 0.931 . S
C633 C632 1.332 . S
C633 C634 1.267 . S
C634 H602 0.929 . S
C634 C633 1.267 . S
C634 C635 1.251 . S
C635 H605 0.929 . S
C635 N631 1.418 . S
C635 C634 1.251 . S
C636 H603 0.930 . S
C636 C638 1.406 . S
C636 C641 1.261 . S
C637 H604 0.930 . S
C637 N639 1.325 . S
C637 C640 1.357 . S
C638 H606 0.928 . S
C638 C636 1.406 . S
C638 N639 1.261 . S
N639 Co590 2.214 . S
N639 C637 1.325 . S
N639 C638 1.261 . S
C640 H610 0.931 . S
C640 C637 1.357 . S
C640 C641 1.312 . S
C641 H612 0.930 . S
C641 C636 1.261 . S
C641 C640 1.312 . S
C642 O614 1.214 . S
C642 O622 1.234 . S
C643 H615 0.929 . S
C643 C646 1.391 . S
C643 C648 1.391 . S
C644 H616 0.929 . S
C644 C645 1.390 . S
C644 N647 1.391 . S
C645 H617 0.930 . S
C645 C644 1.390 . S
C645 C646 1.392 . S
C646 H618 0.929 . S
C646 C643 1.391 . S
C646 C645 1.392 . S
N647 Co591 2.257 . S
N647 C644 1.391 . S
N647 C648 1.388 . S
C648 H619 0.930 . S
C648 C643 1.391 . S
C648 N647 1.388 . S
Co649 O651 2.143 . S
Co649 O657 2.074 . S
Co649 O660 2.093 . S
Co649 O673 2.097 . S
Co649 N690 2.151 . S
Co649 N698 2.214 . S
Co650 O651 2.160 . S
Co650 O656 2.058 . S
Co650 O666 2.057 . S
Co650 O681 2.037 . S
Co650 N685 2.145 . S
Co650 N706 2.257 . S
O651 Co649 2.143 . S
O651 Co650 2.160 . S
C652 O653 1.278 . S
C652 O660 1.224 . S
O653 C652 1.278 . S
C654 O655 1.245 . S
C654 O666 1.232 . S
O655 C654 1.245 . S
O656 Co650 2.058 . S
O656 C682 1.269 . S
O657 Co649 2.074 . S
O657 C682 1.257 . S
H658 C683 0.930 . S
H659 C689 0.930 . S
O660 Co649 2.093 . S
O660 C652 1.224 . S
H661 C693 0.929 . S
H662 C695 0.930 . S
H663 C696 0.930 . S
H664 C694 0.929 . S
H665 C697 0.928 . S
O666 Co650 2.057 . S
O666 C654 1.232 . S
H667 C686 0.929 . S
H668 C687 0.929 . S
H669 C699 0.931 . S
H670 C691 0.929 . S
H671 C700 0.930 . S
H672 C692 0.931 . S
O673 Co649 2.097 . S
O673 C701 1.214 . S
H674 C702 0.929 . S
H675 C703 0.929 . S
H676 C704 0.930 . S
H677 C705 0.929 . S
H678 C707 0.930 . S
H679 C684 0.930 . S
H680 C688 0.930 . S
O681 Co650 2.037 . S
O681 C701 1.234 . S
C682 O656 1.269 . S
C682 O657 1.257 . S
C683 H658 0.930 . S
C683 C686 1.388 . S
C683 C688 1.418 . S
C684 H679 0.930 . S
C684 C687 1.404 . S
C684 C688 1.353 . S
N685 Co650 2.145 . S
N685 C686 1.397 . S
N685 C687 1.334 . S
C686 H667 0.929 . S
C686 C683 1.388 . S
C686 N685 1.397 . S
C687 H668 0.929 . S
C687 C684 1.404 . S
C687 N685 1.334 . S
C688 H680 0.930 . S
C688 C683 1.418 . S
C688 C684 1.353 . S
C689 H659 0.930 . S
C689 N690 1.330 . S
C689 C691 1.446 . S
N690 Co649 2.151 . S
N690 C689 1.330 . S
N690 C694 1.418 . S
C691 H670 0.929 . S
C691 C689 1.446 . S
C691 C692 1.332 . S
C692 H672 0.931 . S
C692 C691 1.332 . S
C692 C693 1.267 . S
C693 H661 0.929 . S
C693 C692 1.267 . S
C693 C694 1.251 . S
C694 H664 0.929 . S
C694 N690 1.418 . S
C694 C693 1.251 . S
C695 H662 0.930 . S
C695 C697 1.406 . S
C695 C700 1.261 . S
C696 H663 0.930 . S
C696 N698 1.325 . S
C696 C699 1.357 . S
C697 H665 0.928 . S
C697 C695 1.406 . S
C697 N698 1.261 . S
N698 Co649 2.214 . S
N698 C696 1.325 . S
N698 C697 1.261 . S
C699 H669 0.931 . S
C699 C696 1.357 . S
C699 C700 1.312 . S
C700 H671 0.930 . S
C700 C695 1.261 . S
C700 C699 1.312 . S
C701 O673 1.214 . S
C701 O681 1.234 . S
C702 H674 0.929 . S
C702 C705 1.391 . S
C702 C707 1.391 . S
C703 H675 0.929 . S
C703 C704 1.390 . S
C703 N706 1.391 . S
C704 H676 0.930 . S
C704 C703 1.390 . S
C704 C705 1.392 . S
C705 H677 0.929 . S
C705 C702 1.391 . S
C705 C704 1.392 . S
N706 Co650 2.257 . S
N706 C703 1.391 . S
N706 C707 1.388 . S
C707 H678 0.930 . S
C707 C702 1.391 . S
C707 N706 1.388 . S
Co708 O710 2.143 . S
Co708 O716 2.074 . S
Co708 O719 2.093 . S
Co708 O732 2.097 . S
Co708 N749 2.151 . S
Co708 N757 2.214 . S
Co709 O710 2.160 . S
Co709 O715 2.058 . S
Co709 O725 2.057 . S
Co709 O740 2.037 . S
Co709 N744 2.145 . S
Co709 N765 2.257 . S
O710 Co708 2.143 . S
O710 Co709 2.160 . S
C711 O712 1.278 . S
C711 O719 1.224 . S
O712 C711 1.278 . S
C713 O714 1.245 . S
C713 O725 1.232 . S
O714 C713 1.245 . S
O715 Co709 2.058 . S
O715 C741 1.269 . S
O716 Co708 2.074 . S
O716 C741 1.257 . S
H717 C742 0.930 . S
H718 C748 0.930 . S
O719 Co708 2.093 . S
O719 C711 1.224 . S
H720 C752 0.929 . S
H721 C754 0.930 . S
H722 C755 0.930 . S
H723 C753 0.929 . S
H724 C756 0.928 . S
O725 Co709 2.057 . S
O725 C713 1.232 . S
H726 C745 0.929 . S
H727 C746 0.929 . S
H728 C758 0.931 . S
H729 C750 0.929 . S
H730 C759 0.930 . S
H731 C751 0.931 . S
O732 Co708 2.097 . S
O732 C760 1.214 . S
H733 C761 0.929 . S
H734 C762 0.929 . S
H735 C763 0.930 . S
H736 C764 0.929 . S
H737 C766 0.930 . S
H738 C743 0.930 . S
H739 C747 0.930 . S
O740 Co709 2.037 . S
O740 C760 1.234 . S
C741 O715 1.269 . S
C741 O716 1.257 . S
C742 H717 0.930 . S
C742 C745 1.388 . S
C742 C747 1.418 . S
C743 H738 0.930 . S
C743 C746 1.404 . S
C743 C747 1.353 . S
N744 Co709 2.145 . S
N744 C745 1.397 . S
N744 C746 1.334 . S
C745 H726 0.929 . S
C745 C742 1.388 . S
C745 N744 1.397 . S
C746 H727 0.929 . S
C746 C743 1.404 . S
C746 N744 1.334 . S
C747 H739 0.930 . S
C747 C742 1.418 . S
C747 C743 1.353 . S
C748 H718 0.930 . S
C748 N749 1.330 . S
C748 C750 1.446 . S
N749 Co708 2.151 . S
N749 C748 1.330 . S
N749 C753 1.418 . S
C750 H729 0.929 . S
C750 C748 1.446 . S
C750 C751 1.332 . S
C751 H731 0.931 . S
C751 C750 1.332 . S
C751 C752 1.267 . S
C752 H720 0.929 . S
C752 C751 1.267 . S
C752 C753 1.251 . S
C753 H723 0.929 . S
C753 N749 1.418 . S
C753 C752 1.251 . S
C754 H721 0.930 . S
C754 C756 1.406 . S
C754 C759 1.261 . S
C755 H722 0.930 . S
C755 N757 1.325 . S
C755 C758 1.357 . S
C756 H724 0.928 . S
C756 C754 1.406 . S
C756 N757 1.261 . S
N757 Co708 2.214 . S
N757 C755 1.325 . S
N757 C756 1.261 . S
C758 H728 0.931 . S
C758 C755 1.357 . S
C758 C759 1.312 . S
C759 H730 0.930 . S
C759 C754 1.261 . S
C759 C758 1.312 . S
C760 O732 1.214 . S
C760 O740 1.234 . S
C761 H733 0.929 . S
C761 C764 1.391 . S
C761 C766 1.391 . S
C762 H734 0.929 . S
C762 C763 1.390 . S
C762 N765 1.391 . S
C763 H735 0.930 . S
C763 C762 1.390 . S
C763 C764 1.392 . S
C764 H736 0.929 . S
C764 C761 1.391 . S
C764 C763 1.392 . S
N765 Co709 2.257 . S
N765 C762 1.391 . S
N765 C766 1.388 . S
C766 H737 0.930 . S
C766 C761 1.391 . S
C766 N765 1.388 . S
Co767 O769 2.143 . S
Co767 O775 2.074 . S
Co767 O778 2.093 . S
Co767 O791 2.097 . S
Co767 N808 2.151 . S
Co767 N816 2.214 . S
Co768 O769 2.160 . S
Co768 O774 2.058 . S
Co768 O784 2.057 . S
Co768 O799 2.037 . S
Co768 N803 2.145 . S
Co768 N824 2.257 . S
O769 Co767 2.143 . S
O769 Co768 2.160 . S
C770 O771 1.278 . S
C770 O778 1.224 . S
O771 C770 1.278 . S
C772 O773 1.245 . S
C772 O784 1.232 . S
O773 C772 1.245 . S
O774 Co768 2.058 . S
O774 C800 1.269 . S
O775 Co767 2.074 . S
O775 C800 1.257 . S
H776 C801 0.930 . S
H777 C807 0.930 . S
O778 Co767 2.093 . S
O778 C770 1.224 . S
H779 C811 0.929 . S
H780 C813 0.930 . S
H781 C814 0.930 . S
H782 C812 0.929 . S
H783 C815 0.928 . S
O784 Co768 2.057 . S
O784 C772 1.232 . S
H785 C804 0.929 . S
H786 C805 0.929 . S
H787 C817 0.931 . S
H788 C809 0.929 . S
H789 C818 0.930 . S
H790 C810 0.931 . S
O791 Co767 2.097 . S
O791 C819 1.214 . S
H792 C820 0.929 . S
H793 C821 0.929 . S
H794 C822 0.930 . S
H795 C823 0.929 . S
H796 C825 0.930 . S
H797 C802 0.930 . S
H798 C806 0.930 . S
O799 Co768 2.037 . S
O799 C819 1.234 . S
C800 O774 1.269 . S
C800 O775 1.257 . S
C801 H776 0.930 . S
C801 C804 1.388 . S
C801 C806 1.418 . S
C802 H797 0.930 . S
C802 C805 1.404 . S
C802 C806 1.353 . S
N803 Co768 2.145 . S
N803 C804 1.397 . S
N803 C805 1.334 . S
C804 H785 0.929 . S
C804 C801 1.388 . S
C804 N803 1.397 . S
C805 H786 0.929 . S
C805 C802 1.404 . S
C805 N803 1.334 . S
C806 H798 0.930 . S
C806 C801 1.418 . S
C806 C802 1.353 . S
C807 H777 0.930 . S
C807 N808 1.330 . S
C807 C809 1.446 . S
N808 Co767 2.151 . S
N808 C807 1.330 . S
N808 C812 1.418 . S
C809 H788 0.929 . S
C809 C807 1.446 . S
C809 C810 1.332 . S
C810 H790 0.931 . S
C810 C809 1.332 . S
C810 C811 1.267 . S
C811 H779 0.929 . S
C811 C810 1.267 . S
C811 C812 1.251 . S
C812 H782 0.929 . S
C812 N808 1.418 . S
C812 C811 1.251 . S
C813 H780 0.930 . S
C813 C815 1.406 . S
C813 C818 1.261 . S
C814 H781 0.930 . S
C814 N816 1.325 . S
C814 C817 1.357 . S
C815 H783 0.928 . S
C815 C813 1.406 . S
C815 N816 1.261 . S
N816 Co767 2.214 . S
N816 C814 1.325 . S
N816 C815 1.261 . S
C817 H787 0.931 . S
C817 C814 1.357 . S
C817 C818 1.312 . S
C818 H789 0.930 . S
C818 C813 1.261 . S
C818 C817 1.312 . S
C819 O791 1.214 . S
C819 O799 1.234 . S
C820 H792 0.929 . S
C820 C823 1.391 . S
C820 C825 1.391 . S
C821 H793 0.929 . S
C821 C822 1.390 . S
C821 N824 1.391 . S
C822 H794 0.930 . S
C822 C821 1.390 . S
C822 C823 1.392 . S
C823 H795 0.929 . S
C823 C820 1.391 . S
C823 C822 1.392 . S
N824 Co768 2.257 . S
N824 C821 1.391 . S
N824 C825 1.388 . S
C825 H796 0.930 . S
C825 C820 1.391 . S
C825 N824 1.388 . S
Co826 O828 2.143 . S
Co826 O834 2.074 . S
Co826 O837 2.093 . S
Co826 O850 2.097 . S
Co826 N867 2.151 . S
Co826 N875 2.214 . S
Co827 O828 2.160 . S
Co827 O833 2.058 . S
Co827 O843 2.057 . S
Co827 O858 2.037 . S
Co827 N862 2.145 . S
Co827 N883 2.257 . S
O828 Co826 2.143 . S
O828 Co827 2.160 . S
C829 O830 1.278 . S
C829 O837 1.224 . S
O830 C829 1.278 . S
C831 O832 1.245 . S
C831 O843 1.232 . S
O832 C831 1.245 . S
O833 Co827 2.058 . S
O833 C859 1.269 . S
O834 Co826 2.074 . S
O834 C859 1.257 . S
H835 C860 0.930 . S
H836 C866 0.930 . S
O837 Co826 2.093 . S
O837 C829 1.224 . S
H838 C870 0.929 . S
H839 C872 0.930 . S
H840 C873 0.930 . S
H841 C871 0.929 . S
H842 C874 0.928 . S
O843 Co827 2.057 . S
O843 C831 1.232 . S
H844 C863 0.929 . S
H845 C864 0.929 . S
H846 C876 0.931 . S
H847 C868 0.929 . S
H848 C877 0.930 . S
H849 C869 0.931 . S
O850 Co826 2.097 . S
O850 C878 1.214 . S
H851 C879 0.929 . S
H852 C880 0.929 . S
H853 C881 0.930 . S
H854 C882 0.929 . S
H855 C884 0.930 . S
H856 C861 0.930 . S
H857 C865 0.930 . S
O858 Co827 2.037 . S
O858 C878 1.234 . S
C859 O833 1.269 . S
C859 O834 1.257 . S
C860 H835 0.930 . S
C860 C863 1.388 . S
C860 C865 1.418 . S
C861 H856 0.930 . S
C861 C864 1.404 . S
C861 C865 1.353 . S
N862 Co827 2.145 . S
N862 C863 1.397 . S
N862 C864 1.334 . S
C863 H844 0.929 . S
C863 C860 1.388 . S
C863 N862 1.397 . S
C864 H845 0.929 . S
C864 C861 1.404 . S
C864 N862 1.334 . S
C865 H857 0.930 . S
C865 C860 1.418 . S
C865 C861 1.353 . S
C866 H836 0.930 . S
C866 N867 1.330 . S
C866 C868 1.446 . S
N867 Co826 2.151 . S
N867 C866 1.330 . S
N867 C871 1.418 . S
C868 H847 0.929 . S
C868 C866 1.446 . S
C868 C869 1.332 . S
C869 H849 0.931 . S
C869 C868 1.332 . S
C869 C870 1.267 . S
C870 H838 0.929 . S
C870 C869 1.267 . S
C870 C871 1.251 . S
C871 H841 0.929 . S
C871 N867 1.418 . S
C871 C870 1.251 . S
C872 H839 0.930 . S
C872 C874 1.406 . S
C872 C877 1.261 . S
C873 H840 0.930 . S
C873 N875 1.325 . S
C873 C876 1.357 . S
C874 H842 0.928 . S
C874 C872 1.406 . S
C874 N875 1.261 . S
N875 Co826 2.214 . S
N875 C873 1.325 . S
N875 C874 1.261 . S
C876 H846 0.931 . S
C876 C873 1.357 . S
C876 C877 1.312 . S
C877 H848 0.930 . S
C877 C872 1.261 . S
C877 C876 1.312 . S
C878 O850 1.214 . S
C878 O858 1.234 . S
C879 H851 0.929 . S
C879 C882 1.391 . S
C879 C884 1.391 . S
C880 H852 0.929 . S
C880 C881 1.390 . S
C880 N883 1.391 . S
C881 H853 0.930 . S
C881 C880 1.390 . S
C881 C882 1.392 . S
C882 H854 0.929 . S
C882 C879 1.391 . S
C882 C881 1.392 . S
N883 Co827 2.257 . S
N883 C880 1.391 . S
N883 C884 1.388 . S
C884 H855 0.930 . S
C884 C879 1.391 . S
C884 N883 1.388 . S
Co885 O887 2.143 . S
Co885 O893 2.074 . S
Co885 O896 2.093 . S
Co885 O909 2.097 . S
Co885 N926 2.151 . S
Co885 N934 2.214 . S
Co886 O887 2.160 . S
Co886 O892 2.058 . S
Co886 O902 2.057 . S
Co886 O917 2.037 . S
Co886 N921 2.145 . S
Co886 N942 2.257 . S
O887 Co885 2.143 . S
O887 Co886 2.160 . S
C888 O889 1.278 . S
C888 O896 1.224 . S
O889 C888 1.278 . S
C890 O891 1.245 . S
C890 O902 1.232 . S
O891 C890 1.245 . S
O892 Co886 2.058 . S
O892 C918 1.269 . S
O893 Co885 2.074 . S
O893 C918 1.257 . S
H894 C919 0.930 . S
H895 C925 0.930 . S
O896 Co885 2.093 . S
O896 C888 1.224 . S
H897 C929 0.929 . S
H898 C931 0.930 . S
H899 C932 0.930 . S
H900 C930 0.929 . S
H901 C933 0.928 . S
O902 Co886 2.057 . S
O902 C890 1.232 . S
H903 C922 0.929 . S
H904 C923 0.929 . S
H905 C935 0.931 . S
H906 C927 0.929 . S
H907 C936 0.930 . S
H908 C928 0.931 . S
O909 Co885 2.097 . S
O909 C937 1.214 . S
H910 C938 0.929 . S
H911 C939 0.929 . S
H912 C940 0.930 . S
H913 C941 0.929 . S
H914 C943 0.930 . S
H915 C920 0.930 . S
H916 C924 0.930 . S
O917 Co886 2.037 . S
O917 C937 1.234 . S
C918 O892 1.269 . S
C918 O893 1.257 . S
C919 H894 0.930 . S
C919 C922 1.388 . S
C919 C924 1.418 . S
C920 H915 0.930 . S
C920 C923 1.404 . S
C920 C924 1.353 . S
N921 Co886 2.145 . S
N921 C922 1.397 . S
N921 C923 1.334 . S
C922 H903 0.929 . S
C922 C919 1.388 . S
C922 N921 1.397 . S
C923 H904 0.929 . S
C923 C920 1.404 . S
C923 N921 1.334 . S
C924 H916 0.930 . S
C924 C919 1.418 . S
C924 C920 1.353 . S
C925 H895 0.930 . S
C925 N926 1.330 . S
C925 C927 1.446 . S
N926 Co885 2.151 . S
N926 C925 1.330 . S
N926 C930 1.418 . S
C927 H906 0.929 . S
C927 C925 1.446 . S
C927 C928 1.332 . S
C928 H908 0.931 . S
C928 C927 1.332 . S
C928 C929 1.267 . S
C929 H897 0.929 . S
C929 C928 1.267 . S
C929 C930 1.251 . S
C930 H900 0.929 . S
C930 N926 1.418 . S
C930 C929 1.251 . S
C931 H898 0.930 . S
C931 C933 1.406 . S
C931 C936 1.261 . S
C932 H899 0.930 . S
C932 N934 1.325 . S
C932 C935 1.357 . S
C933 H901 0.928 . S
C933 C931 1.406 . S
C933 N934 1.261 . S
N934 Co885 2.214 . S
N934 C932 1.325 . S
N934 C933 1.261 . S
C935 H905 0.931 . S
C935 C932 1.357 . S
C935 C936 1.312 . S
C936 H907 0.930 . S
C936 C931 1.261 . S
C936 C935 1.312 . S
C937 O909 1.214 . S
C937 O917 1.234 . S
C938 H910 0.929 . S
C938 C941 1.391 . S
C938 C943 1.391 . S
C939 H911 0.929 . S
C939 C940 1.390 . S
C939 N942 1.391 . S
C940 H912 0.930 . S
C940 C939 1.390 . S
C940 C941 1.392 . S
C941 H913 0.929 . S
C941 C938 1.391 . S
C941 C940 1.392 . S
N942 Co886 2.257 . S
N942 C939 1.391 . S
N942 C943 1.388 . S
C943 H914 0.930 . S
C943 C938 1.391 . S
C943 N942 1.388 . S
H944 C952 0.929 . S
H945 C954 0.930 . S
H946 C956 0.930 . S
H947 C959 0.929 . S
H948 C962 0.930 . S
H949 C964 0.960 . S
H950 C964 0.960 . S
H951 C964 0.960 . S
C952 H944 0.929 . S
C952 C953 1.377 . S
C952 C954 1.384 . S
C953 C952 1.377 . S
C953 C959 1.390 . S
C954 H945 0.930 . S
C954 C952 1.384 . S
C954 C955 1.372 . S
C955 C954 1.372 . S
C955 C956 1.400 . S
C955 C960 1.490 . S
C956 H946 0.930 . S
C956 C955 1.400 . S
C956 C959 1.386 . S
H957 C973 0.930 . S
H958 C974 0.931 . S
C959 H947 0.929 . S
C959 C953 1.390 . S
C959 C956 1.386 . S
C960 C955 1.490 . S
C960 C962 1.395 . S
C960 C963 1.403 . S
H961 C967 0.930 . S
C962 H948 0.930 . S
C962 C960 1.395 . S
C962 C965 1.403 . S
C963 C960 1.403 . S
C963 C964 1.524 . S
C963 C967 1.400 . S
C964 H949 0.960 . S
C964 H950 0.960 . S
C964 H951 0.960 . S
C964 C963 1.524 . S
C965 C962 1.403 . S
C965 C966 1.392 . S
C965 C969 1.495 . S
C966 C965 1.392 . S
C966 C967 1.385 . S
C966 C968 1.478 . S
C967 H961 0.930 . S
C967 C963 1.400 . S
C967 C966 1.385 . S
C968 C966 1.478 . S
C968 C970 1.381 . S
C968 C974 1.383 . S
C969 C965 1.495 . S
C969 H975 0.959 . S
C969 H976 0.961 . S
C969 H977 0.960 . S
C970 C968 1.381 . S
C970 C971 1.394 . S
C970 H978 0.930 . S
C971 C970 1.394 . S
C971 C972 1.383 . S
C971 H979 0.929 . S
C972 C971 1.383 . S
C972 C973 1.377 . S
C973 H957 0.930 . S
C973 C972 1.377 . S
C973 C974 1.379 . S
C974 H958 0.931 . S
C974 C968 1.383 . S
C974 C973 1.379 . S
H975 C969 0.959 . S
H976 C969 0.961 . S
H977 C969 0.960 . S
H978 C970 0.930 . S
H979 C971 0.929 . S
H980 C988 0.929 . S
H981 C990 0.930 . S
H982 C992 0.930 . S
H983 C995 0.929 . S
H984 C998 0.930 . S
H985 C1000 0.960 . S
H986 C1000 0.960 . S
H987 C1000 0.960 . S
C988 H980 0.929 . S
C988 C989 1.377 . S
C988 C990 1.384 . S
C989 C988 1.377 . S
C989 C995 1.390 . S
C990 H981 0.930 . S
C990 C988 1.384 . S
C990 C991 1.372 . S
C991 C990 1.372 . S
C991 C992 1.400 . S
C991 C996 1.490 . S
C992 H982 0.930 . S
C992 C991 1.400 . S
C992 C995 1.386 . S
H993 C1009 0.930 . S
H994 C1010 0.931 . S
C995 H983 0.929 . S
C995 C989 1.390 . S
C995 C992 1.386 . S
C996 C991 1.490 . S
C996 C998 1.395 . S
C996 C999 1.403 . S
H997 C1003 0.930 . S
C998 H984 0.930 . S
C998 C996 1.395 . S
C998 C1001 1.403 . S
C999 C996 1.403 . S
C999 C1000 1.524 . S
C999 C1003 1.400 . S
C1000 H985 0.960 . S
C1000 H986 0.960 . S
C1000 H987 0.960 . S
C1000 C999 1.524 . S
C1001 C998 1.403 . S
C1001 C1002 1.392 . S
C1001 C1005 1.495 . S
C1002 C1001 1.392 . S
C1002 C1003 1.385 . S
C1002 C1004 1.478 . S
C1003 H997 0.930 . S
C1003 C999 1.400 . S
C1003 C1002 1.385 . S
C1004 C1002 1.478 . S
C1004 C1006 1.381 . S
C1004 C1010 1.383 . S
C1005 C1001 1.495 . S
C1005 H1011 0.959 . S
C1005 H1012 0.961 . S
C1005 H1013 0.960 . S
C1006 C1004 1.381 . S
C1006 C1007 1.394 . S
C1006 H1014 0.930 . S
C1007 C1006 1.394 . S
C1007 C1008 1.383 . S
C1007 H1015 0.929 . S
C1008 C1007 1.383 . S
C1008 C1009 1.377 . S
C1009 H993 0.930 . S
C1009 C1008 1.377 . S
C1009 C1010 1.379 . S
C1010 H994 0.931 . S
C1010 C1004 1.383 . S
C1010 C1009 1.379 . S
H1011 C1005 0.959 . S
H1012 C1005 0.961 . S
H1013 C1005 0.960 . S
H1014 C1006 0.930 . S
H1015 C1007 0.929 . S
H1016 C1024 0.929 . S
H1017 C1026 0.930 . S
H1018 C1028 0.930 . S
H1019 C1031 0.929 . S
H1020 C1034 0.930 . S
H1021 C1036 0.960 . S
H1022 C1036 0.960 . S
H1023 C1036 0.960 . S
C1024 H1016 0.929 . S
C1024 C1025 1.377 . S
C1024 C1026 1.384 . S
C1025 C1024 1.377 . S
C1025 C1031 1.390 . S
C1026 H1017 0.930 . S
C1026 C1024 1.384 . S
C1026 C1027 1.372 . S
C1027 C1026 1.372 . S
C1027 C1028 1.400 . S
C1027 C1032 1.490 . S
C1028 H1018 0.930 . S
C1028 C1027 1.400 . S
C1028 C1031 1.386 . S
H1029 C1045 0.930 . S
H1030 C1046 0.931 . S
C1031 H1019 0.929 . S
C1031 C1025 1.390 . S
C1031 C1028 1.386 . S
C1032 C1027 1.490 . S
C1032 C1034 1.395 . S
C1032 C1035 1.403 . S
H1033 C1039 0.930 . S
C1034 H1020 0.930 . S
C1034 C1032 1.395 . S
C1034 C1037 1.403 . S
C1035 C1032 1.403 . S
C1035 C1036 1.524 . S
C1035 C1039 1.400 . S
C1036 H1021 0.960 . S
C1036 H1022 0.960 . S
C1036 H1023 0.960 . S
C1036 C1035 1.524 . S
C1037 C1034 1.403 . S
C1037 C1038 1.392 . S
C1037 C1041 1.495 . S
C1038 C1037 1.392 . S
C1038 C1039 1.385 . S
C1038 C1040 1.478 . S
C1039 H1033 0.930 . S
C1039 C1035 1.400 . S
C1039 C1038 1.385 . S
C1040 C1038 1.478 . S
C1040 C1042 1.381 . S
C1040 C1046 1.383 . S
C1041 C1037 1.495 . S
C1041 H1047 0.959 . S
C1041 H1048 0.961 . S
C1041 H1049 0.960 . S
C1042 C1040 1.381 . S
C1042 C1043 1.394 . S
C1042 H1050 0.930 . S
C1043 C1042 1.394 . S
C1043 C1044 1.383 . S
C1043 H1051 0.929 . S
C1044 C1043 1.383 . S
C1044 C1045 1.377 . S
C1045 H1029 0.930 . S
C1045 C1044 1.377 . S
C1045 C1046 1.379 . S
C1046 H1030 0.931 . S
C1046 C1040 1.383 . S
C1046 C1045 1.379 . S
H1047 C1041 0.959 . S
H1048 C1041 0.961 . S
H1049 C1041 0.960 . S
H1050 C1042 0.930 . S
H1051 C1043 0.929 . S
H1052 C1060 0.929 . S
H1053 C1062 0.930 . S
H1054 C1064 0.930 . S
H1055 C1067 0.929 . S
H1056 C1070 0.930 . S
H1057 C1072 0.960 . S
H1058 C1072 0.960 . S
H1059 C1072 0.960 . S
C1060 H1052 0.929 . S
C1060 C1061 1.377 . S
C1060 C1062 1.384 . S
C1061 C1060 1.377 . S
C1061 C1067 1.390 . S
C1062 H1053 0.930 . S
C1062 C1060 1.384 . S
C1062 C1063 1.372 . S
C1063 C1062 1.372 . S
C1063 C1064 1.400 . S
C1063 C1068 1.490 . S
C1064 H1054 0.930 . S
C1064 C1063 1.400 . S
C1064 C1067 1.386 . S
H1065 C1081 0.930 . S
H1066 C1082 0.931 . S
C1067 H1055 0.929 . S
C1067 C1061 1.390 . S
C1067 C1064 1.386 . S
C1068 C1063 1.490 . S
C1068 C1070 1.395 . S
C1068 C1071 1.403 . S
H1069 C1075 0.930 . S
C1070 H1056 0.930 . S
C1070 C1068 1.395 . S
C1070 C1073 1.403 . S
C1071 C1068 1.403 . S
C1071 C1072 1.524 . S
C1071 C1075 1.400 . S
C1072 H1057 0.960 . S
C1072 H1058 0.960 . S
C1072 H1059 0.960 . S
C1072 C1071 1.524 . S
C1073 C1070 1.403 . S
C1073 C1074 1.392 . S
C1073 C1077 1.495 . S
C1074 C1073 1.392 . S
C1074 C1075 1.385 . S
C1074 C1076 1.478 . S
C1075 H1069 0.930 . S
C1075 C1071 1.400 . S
C1075 C1074 1.385 . S
C1076 C1074 1.478 . S
C1076 C1078 1.381 . S
C1076 C1082 1.383 . S
C1077 C1073 1.495 . S
C1077 H1083 0.959 . S
C1077 H1084 0.961 . S
C1077 H1085 0.960 . S
C1078 C1076 1.381 . S
C1078 C1079 1.394 . S
C1078 H1086 0.930 . S
C1079 C1078 1.394 . S
C1079 C1080 1.383 . S
C1079 H1087 0.929 . S
C1080 C1079 1.383 . S
C1080 C1081 1.377 . S
C1081 H1065 0.930 . S
C1081 C1080 1.377 . S
C1081 C1082 1.379 . S
C1082 H1066 0.931 . S
C1082 C1076 1.383 . S
C1082 C1081 1.379 . S
H1083 C1077 0.959 . S
H1084 C1077 0.961 . S
H1085 C1077 0.960 . S
H1086 C1078 0.930 . S
H1087 C1079 0.929 . S
H1088 C1096 0.929 . S
H1089 C1098 0.930 . S
H1090 C1100 0.930 . S
H1091 C1103 0.929 . S
H1092 C1106 0.930 . S
H1093 C1108 0.960 . S
H1094 C1108 0.960 . S
H1095 C1108 0.960 . S
C1096 H1088 0.929 . S
C1096 C1097 1.377 . S
C1096 C1098 1.384 . S
C1097 C1096 1.377 . S
C1097 C1103 1.390 . S
C1098 H1089 0.930 . S
C1098 C1096 1.384 . S
C1098 C1099 1.372 . S
C1099 C1098 1.372 . S
C1099 C1100 1.400 . S
C1099 C1104 1.490 . S
C1100 H1090 0.930 . S
C1100 C1099 1.400 . S
C1100 C1103 1.386 . S
H1101 C1117 0.930 . S
H1102 C1118 0.931 . S
C1103 H1091 0.929 . S
C1103 C1097 1.390 . S
C1103 C1100 1.386 . S
C1104 C1099 1.490 . S
C1104 C1106 1.395 . S
C1104 C1107 1.403 . S
H1105 C1111 0.930 . S
C1106 H1092 0.930 . S
C1106 C1104 1.395 . S
C1106 C1109 1.403 . S
C1107 C1104 1.403 . S
C1107 C1108 1.524 . S
C1107 C1111 1.400 . S
C1108 H1093 0.960 . S
C1108 H1094 0.960 . S
C1108 H1095 0.960 . S
C1108 C1107 1.524 . S
C1109 C1106 1.403 . S
C1109 C1110 1.392 . S
C1109 C1113 1.495 . S
C1110 C1109 1.392 . S
C1110 C1111 1.385 . S
C1110 C1112 1.478 . S
C1111 H1105 0.930 . S
C1111 C1107 1.400 . S
C1111 C1110 1.385 . S
C1112 C1110 1.478 . S
C1112 C1114 1.381 . S
C1112 C1118 1.383 . S
C1113 C1109 1.495 . S
C1113 H1119 0.959 . S
C1113 H1120 0.961 . S
C1113 H1121 0.960 . S
C1114 C1112 1.381 . S
C1114 C1115 1.394 . S
C1114 H1122 0.930 . S
C1115 C1114 1.394 . S
C1115 C1116 1.383 . S
C1115 H1123 0.929 . S
C1116 C1115 1.383 . S
C1116 C1117 1.377 . S
C1117 H1101 0.930 . S
C1117 C1116 1.377 . S
C1117 C1118 1.379 . S
C1118 H1102 0.931 . S
C1118 C1112 1.383 . S
C1118 C1117 1.379 . S
H1119 C1113 0.959 . S
H1120 C1113 0.961 . S
H1121 C1113 0.960 . S
H1122 C1114 0.930 . S
H1123 C1115 0.929 . S
H1124 C1132 0.929 . S
H1125 C1134 0.930 . S
H1126 C1136 0.930 . S
H1127 C1139 0.929 . S
H1128 C1142 0.930 . S
H1129 C1144 0.960 . S
H1130 C1144 0.960 . S
H1131 C1144 0.960 . S
C1132 H1124 0.929 . S
C1132 C1133 1.377 . S
C1132 C1134 1.384 . S
C1133 C1132 1.377 . S
C1133 C1139 1.390 . S
C1134 H1125 0.930 . S
C1134 C1132 1.384 . S
C1134 C1135 1.372 . S
C1135 C1134 1.372 . S
C1135 C1136 1.400 . S
C1135 C1140 1.490 . S
C1136 H1126 0.930 . S
C1136 C1135 1.400 . S
C1136 C1139 1.386 . S
H1137 C1153 0.930 . S
H1138 C1154 0.931 . S
C1139 H1127 0.929 . S
C1139 C1133 1.390 . S
C1139 C1136 1.386 . S
C1140 C1135 1.490 . S
C1140 C1142 1.395 . S
C1140 C1143 1.403 . S
H1141 C1147 0.930 . S
C1142 H1128 0.930 . S
C1142 C1140 1.395 . S
C1142 C1145 1.403 . S
C1143 C1140 1.403 . S
C1143 C1144 1.524 . S
C1143 C1147 1.400 . S
C1144 H1129 0.960 . S
C1144 H1130 0.960 . S
C1144 H1131 0.960 . S
C1144 C1143 1.524 . S
C1145 C1142 1.403 . S
C1145 C1146 1.392 . S
C1145 C1149 1.495 . S
C1146 C1145 1.392 . S
C1146 C1147 1.385 . S
C1146 C1148 1.478 . S
C1147 H1141 0.930 . S
C1147 C1143 1.400 . S
C1147 C1146 1.385 . S
C1148 C1146 1.478 . S
C1148 C1150 1.381 . S
C1148 C1154 1.383 . S
C1149 C1145 1.495 . S
C1149 H1155 0.959 . S
C1149 H1156 0.961 . S
C1149 H1157 0.960 . S
C1150 C1148 1.381 . S
C1150 C1151 1.394 . S
C1150 H1158 0.930 . S
C1151 C1150 1.394 . S
C1151 C1152 1.383 . S
C1151 H1159 0.929 . S
C1152 C1151 1.383 . S
C1152 C1153 1.377 . S
C1153 H1137 0.930 . S
C1153 C1152 1.377 . S
C1153 C1154 1.379 . S
C1154 H1138 0.931 . S
C1154 C1148 1.383 . S
C1154 C1153 1.379 . S
H1155 C1149 0.959 . S
H1156 C1149 0.961 . S
H1157 C1149 0.960 . S
H1158 C1150 0.930 . S
H1159 C1151 0.929 . S
H1160 C1168 0.929 . S
H1161 C1170 0.930 . S
H1162 C1172 0.930 . S
H1163 C1175 0.929 . S
H1164 C1178 0.930 . S
H1165 C1180 0.960 . S
H1166 C1180 0.960 . S
H1167 C1180 0.960 . S
C1168 H1160 0.929 . S
C1168 C1169 1.377 . S
C1168 C1170 1.384 . S
C1169 C1168 1.377 . S
C1169 C1175 1.390 . S
C1170 H1161 0.930 . S
C1170 C1168 1.384 . S
C1170 C1171 1.372 . S
C1171 C1170 1.372 . S
C1171 C1172 1.400 . S
C1171 C1176 1.490 . S
C1172 H1162 0.930 . S
C1172 C1171 1.400 . S
C1172 C1175 1.386 . S
H1173 C1189 0.930 . S
H1174 C1190 0.931 . S
C1175 H1163 0.929 . S
C1175 C1169 1.390 . S
C1175 C1172 1.386 . S
C1176 C1171 1.490 . S
C1176 C1178 1.395 . S
C1176 C1179 1.403 . S
H1177 C1183 0.930 . S
C1178 H1164 0.930 . S
C1178 C1176 1.395 . S
C1178 C1181 1.403 . S
C1179 C1176 1.403 . S
C1179 C1180 1.524 . S
C1179 C1183 1.400 . S
C1180 H1165 0.960 . S
C1180 H1166 0.960 . S
C1180 H1167 0.960 . S
C1180 C1179 1.524 . S
C1181 C1178 1.403 . S
C1181 C1182 1.392 . S
C1181 C1185 1.495 . S
C1182 C1181 1.392 . S
C1182 C1183 1.385 . S
C1182 C1184 1.478 . S
C1183 H1177 0.930 . S
C1183 C1179 1.400 . S
C1183 C1182 1.385 . S
C1184 C1182 1.478 . S
C1184 C1186 1.381 . S
C1184 C1190 1.383 . S
C1185 C1181 1.495 . S
C1185 H1191 0.959 . S
C1185 H1192 0.961 . S
C1185 H1193 0.960 . S
C1186 C1184 1.381 . S
C1186 C1187 1.394 . S
C1186 H1194 0.930 . S
C1187 C1186 1.394 . S
C1187 C1188 1.383 . S
C1187 H1195 0.929 . S
C1188 C1187 1.383 . S
C1188 C1189 1.377 . S
C1189 H1173 0.930 . S
C1189 C1188 1.377 . S
C1189 C1190 1.379 . S
C1190 H1174 0.931 . S
C1190 C1184 1.383 . S
C1190 C1189 1.379 . S
H1191 C1185 0.959 . S
H1192 C1185 0.961 . S
H1193 C1185 0.960 . S
H1194 C1186 0.930 . S
H1195 C1187 0.929 . S
H1196 C1204 0.929 . S
H1197 C1206 0.930 . S
H1198 C1208 0.930 . S
H1199 C1211 0.929 . S
H1200 C1214 0.930 . S
H1201 C1216 0.960 . S
H1202 C1216 0.960 . S
H1203 C1216 0.960 . S
C1204 H1196 0.929 . S
C1204 C1205 1.377 . S
C1204 C1206 1.384 . S
C1205 C1204 1.377 . S
C1205 C1211 1.390 . S
C1206 H1197 0.930 . S
C1206 C1204 1.384 . S
C1206 C1207 1.372 . S
C1207 C1206 1.372 . S
C1207 C1208 1.400 . S
C1207 C1212 1.490 . S
C1208 H1198 0.930 . S
C1208 C1207 1.400 . S
C1208 C1211 1.386 . S
H1209 C1225 0.930 . S
H1210 C1226 0.931 . S
C1211 H1199 0.929 . S
C1211 C1205 1.390 . S
C1211 C1208 1.386 . S
C1212 C1207 1.490 . S
C1212 C1214 1.395 . S
C1212 C1215 1.403 . S
H1213 C1219 0.930 . S
C1214 H1200 0.930 . S
C1214 C1212 1.395 . S
C1214 C1217 1.403 . S
C1215 C1212 1.403 . S
C1215 C1216 1.524 . S
C1215 C1219 1.400 . S
C1216 H1201 0.960 . S
C1216 H1202 0.960 . S
C1216 H1203 0.960 . S
C1216 C1215 1.524 . S
C1217 C1214 1.403 . S
C1217 C1218 1.392 . S
C1217 C1221 1.495 . S
C1218 C1217 1.392 . S
C1218 C1219 1.385 . S
C1218 C1220 1.478 . S
C1219 H1213 0.930 . S
C1219 C1215 1.400 . S
C1219 C1218 1.385 . S
C1220 C1218 1.478 . S
C1220 C1222 1.381 . S
C1220 C1226 1.383 . S
C1221 C1217 1.495 . S
C1221 H1227 0.959 . S
C1221 H1228 0.961 . S
C1221 H1229 0.960 . S
C1222 C1220 1.381 . S
C1222 C1223 1.394 . S
C1222 H1230 0.930 . S
C1223 C1222 1.394 . S
C1223 C1224 1.383 . S
C1223 H1231 0.929 . S
C1224 C1223 1.383 . S
C1224 C1225 1.377 . S
C1225 H1209 0.930 . S
C1225 C1224 1.377 . S
C1225 C1226 1.379 . S
C1226 H1210 0.931 . S
C1226 C1220 1.383 . S
C1226 C1225 1.379 . S
H1227 C1221 0.959 . S
H1228 C1221 0.961 . S
H1229 C1221 0.960 . S
H1230 C1222 0.930 . S
H1231 C1223 0.929 . S
H1232 C1240 0.929 . S
H1233 C1242 0.930 . S
H1234 C1244 0.930 . S
H1235 C1247 0.929 . S
H1236 C1250 0.930 . S
H1237 C1252 0.960 . S
H1238 C1252 0.960 . S
H1239 C1252 0.960 . S
C1240 H1232 0.929 . S
C1240 C1241 1.377 . S
C1240 C1242 1.384 . S
C1241 C1240 1.377 . S
C1241 C1247 1.390 . S
C1242 H1233 0.930 . S
C1242 C1240 1.384 . S
C1242 C1243 1.372 . S
C1243 C1242 1.372 . S
C1243 C1244 1.400 . S
C1243 C1248 1.490 . S
C1244 H1234 0.930 . S
C1244 C1243 1.400 . S
C1244 C1247 1.386 . S
H1245 C1261 0.930 . S
H1246 C1262 0.931 . S
C1247 H1235 0.929 . S
C1247 C1241 1.390 . S
C1247 C1244 1.386 . S
C1248 C1243 1.490 . S
C1248 C1250 1.395 . S
C1248 C1251 1.403 . S
H1249 C1255 0.930 . S
C1250 H1236 0.930 . S
C1250 C1248 1.395 . S
C1250 C1253 1.403 . S
C1251 C1248 1.403 . S
C1251 C1252 1.524 . S
C1251 C1255 1.400 . S
C1252 H1237 0.960 . S
C1252 H1238 0.960 . S
C1252 H1239 0.960 . S
C1252 C1251 1.524 . S
C1253 C1250 1.403 . S
C1253 C1254 1.392 . S
C1253 C1257 1.495 . S
C1254 C1253 1.392 . S
C1254 C1255 1.385 . S
C1254 C1256 1.478 1_556 S
C1255 H1249 0.930 . S
C1255 C1251 1.400 . S
C1255 C1254 1.385 . S
C1256 C1254 1.478 1_554 S
C1256 C1258 1.381 . S
C1256 C1262 1.383 . S
C1257 C1253 1.495 . S
C1257 H1263 0.959 . S
C1257 H1264 0.961 1_556 S
C1257 H1265 0.960 1_556 S
C1258 C1256 1.381 . S
C1258 C1259 1.394 . S
C1258 H1266 0.930 . S
C1259 C1258 1.394 . S
C1259 C1260 1.383 . S
C1259 H1267 0.929 . S
C1260 C1259 1.383 . S
C1260 C1261 1.377 . S
C1261 H1245 0.930 . S
C1261 C1260 1.377 . S
C1261 C1262 1.379 . S
C1262 H1246 0.931 . S
C1262 C1256 1.383 . S
C1262 C1261 1.379 . S
H1263 C1257 0.959 . S
H1264 C1257 0.961 1_554 S
H1265 C1257 0.960 1_554 S
H1266 C1258 0.930 . S
H1267 C1259 0.929 . S
H1268 C1276 0.929 . S
H1269 C1278 0.930 . S
H1270 C1280 0.930 . S
H1271 C1283 0.929 . S
H1272 C1286 0.930 1_556 S
H1273 C1288 0.960 . S
H1274 C1288 0.971 . S
H1275 C1288 0.960 1_556 S
C1276 H1268 0.929 . S
C1276 C1277 1.377 . S
C1276 C1278 1.384 . S
C1277 C1276 1.377 . S
C1277 C1283 1.390 . S
C1278 H1269 0.930 . S
C1278 C1276 1.384 . S
C1278 C1279 1.372 . S
C1279 C1278 1.372 . S
C1279 C1280 1.400 . S
C1279 C1284 1.525 . S
C1280 H1270 0.930 . S
C1280 C1279 1.400 . S
C1280 C1283 1.386 . S
H1281 C1297 0.930 . S
H1282 C1298 0.931 . S
C1283 H1271 0.929 . S
C1283 C1277 1.390 . S
C1283 C1280 1.386 . S
C1284 C1279 1.525 . S
C1284 C1286 1.379 1_556 S
C1284 C1287 1.383 1_556 S
H1285 C1291 0.930 . S
C1286 H1272 0.930 1_554 S
C1286 C1284 1.379 1_554 S
C1286 C1289 1.403 . S
C1287 C1284 1.383 1_554 S
C1287 C1288 1.524 . S
C1287 C1291 1.400 . S
C1288 H1273 0.960 . S
C1288 H1274 0.971 . S
C1288 H1275 0.960 1_554 S
C1288 C1287 1.524 . S
C1289 C1286 1.403 . S
C1289 C1290 1.392 . S
C1289 C1293 1.495 . S
C1290 C1289 1.392 . S
C1290 C1291 1.385 . S
C1290 C1292 1.478 . S
C1291 H1285 0.930 . S
C1291 C1287 1.400 . S
C1291 C1290 1.385 . S
C1292 C1290 1.478 . S
C1292 C1294 1.381 . S
C1292 C1298 1.383 . S
C1293 C1289 1.495 . S
C1293 H1299 0.959 . S
C1293 H1300 0.961 . S
C1293 H1301 0.960 . S
C1294 C1292 1.381 . S
C1294 C1295 1.394 . S
C1294 H1302 0.930 . S
C1295 C1294 1.394 . S
C1295 C1296 1.383 . S
C1295 H1303 0.929 . S
C1296 C1295 1.383 . S
C1296 C1297 1.377 . S
C1297 H1281 0.930 . S
C1297 C1296 1.377 . S
C1297 C1298 1.379 . S
C1298 H1282 0.931 . S
C1298 C1292 1.383 . S
C1298 C1297 1.379 . S
H1299 C1293 0.959 . S
H1300 C1293 0.961 . S
H1301 C1293 0.960 . S
H1302 C1294 0.930 . S
H1303 C1295 0.929 . S
H1304 C1312 0.929 . S
H1305 C1314 0.930 . S
H1306 C1316 0.930 . S
H1307 C1319 0.929 . S
H1308 C1322 0.930 1_556 S
H1309 C1324 0.960 . S
H1310 C1324 0.946 1_556 S
H1311 C1324 0.960 1_556 S
C1312 H1304 0.929 . S
C1312 C1313 1.377 . S
C1312 C1314 1.384 . S
C1313 C1312 1.377 . S
C1313 C1319 1.390 . S
C1314 H1305 0.930 . S
C1314 C1312 1.384 . S
C1314 C1315 1.372 . S
C1315 C1314 1.372 . S
C1315 C1316 1.400 . S
C1315 C1320 1.490 . S
C1316 H1306 0.930 . S
C1316 C1315 1.400 . S
C1316 C1319 1.386 . S
H1317 C1333 0.930 . S
H1318 C1334 0.931 . S
C1319 H1307 0.929 . S
C1319 C1313 1.390 . S
C1319 C1316 1.386 . S
C1320 C1315 1.490 . S
C1320 C1322 1.395 1_556 S
C1320 C1323 1.403 1_556 S
H1321 C1327 0.930 . S
C1322 H1308 0.930 1_554 S
C1322 C1320 1.395 1_554 S
C1322 C1325 1.403 . S
C1323 C1320 1.403 1_554 S
C1323 C1324 1.524 . S
C1323 C1327 1.400 . S
C1324 H1309 0.960 . S
C1324 H1310 0.946 1_554 S
C1324 H1311 0.960 1_554 S
C1324 C1323 1.524 . S
C1325 C1322 1.403 . S
C1325 C1326 1.392 . S
C1325 C1329 1.495 . S
C1326 C1325 1.392 . S
C1326 C1327 1.385 . S
C1326 C1328 1.478 . S
C1327 H1321 0.930 . S
C1327 C1323 1.400 . S
C1327 C1326 1.385 . S
C1328 C1326 1.478 . S
C1328 C1330 1.381 . S
C1328 C1334 1.383 . S
C1329 C1325 1.495 . S
C1329 H1335 0.959 . S
C1329 H1336 0.961 . S
C1329 H1337 0.960 . S
C1330 C1328 1.381 . S
C1330 C1331 1.394 . S
C1330 H1338 0.930 . S
C1331 C1330 1.394 . S
C1331 C1332 1.383 . S
C1331 H1339 0.929 . S
C1332 C1331 1.383 . S
C1332 C1333 1.377 . S
C1333 H1317 0.930 . S
C1333 C1332 1.377 . S
C1333 C1334 1.379 . S
C1334 H1318 0.931 . S
C1334 C1328 1.383 . S
C1334 C1333 1.379 . S
H1335 C1329 0.959 . S
H1336 C1329 0.961 . S
H1337 C1329 0.960 . S
H1338 C1330 0.930 . S
H1339 C1331 0.929 . S
H1340 C1348 0.929 . S
H1341 C1350 0.930 . S
H1342 C1352 0.930 . S
H1343 C1355 0.929 . S
H1344 C1358 0.936 . S
H1345 C1360 0.960 1_556 S
H1346 C1360 0.960 . S
H1347 C1360 0.960 . S
C1348 H1340 0.929 . S
C1348 C1349 1.377 . S
C1348 C1350 1.384 . S
C1349 C1348 1.377 . S
C1349 C1355 1.390 . S
C1350 H1341 0.930 . S
C1350 C1348 1.384 . S
C1350 C1351 1.372 . S
C1351 C1350 1.372 . S
C1351 C1352 1.400 . S
C1351 C1356 1.490 . S
C1352 H1342 0.930 . S
C1352 C1351 1.400 . S
C1352 C1355 1.386 . S
H1353 C1369 0.930 . S
H1354 C1370 0.931 . S
C1355 H1343 0.929 . S
C1355 C1349 1.390 . S
C1355 C1352 1.386 . S
C1356 C1351 1.490 . S
C1356 C1358 1.400 . S
C1356 C1359 1.403 1_554 S
H1357 C1363 0.930 . S
C1358 H1344 0.936 . S
C1358 C1356 1.400 . S
C1358 C1361 1.393 1_554 S
C1359 C1356 1.403 1_556 S
C1359 C1360 1.524 1_556 S
C1359 C1363 1.400 . S
C1360 H1345 0.960 1_554 S
C1360 H1346 0.960 . S
C1360 H1347 0.960 . S
C1360 C1359 1.524 1_554 S
C1361 C1358 1.393 1_556 S
C1361 C1362 1.392 . S
C1361 C1365 1.495 . S
C1362 C1361 1.392 . S
C1362 C1363 1.385 . S
C1362 C1364 1.478 . S
C1363 H1357 0.930 . S
C1363 C1359 1.400 . S
C1363 C1362 1.385 . S
C1364 C1362 1.478 . S
C1364 C1366 1.381 . S
C1364 C1370 1.383 . S
C1365 C1361 1.495 . S
C1365 H1371 0.959 . S
C1365 H1372 0.961 . S
C1365 H1373 0.960 . S
C1366 C1364 1.381 . S
C1366 C1367 1.394 . S
C1366 H1374 0.930 . S
C1367 C1366 1.394 . S
C1367 C1368 1.383 . S
C1367 H1375 0.929 . S
C1368 C1367 1.383 . S
C1368 C1369 1.377 . S
C1369 H1353 0.930 . S
C1369 C1368 1.377 . S
C1369 C1370 1.379 . S
C1370 H1354 0.931 . S
C1370 C1364 1.383 . S
C1370 C1369 1.379 . S
H1371 C1365 0.959 . S
H1372 C1365 0.961 . S
H1373 C1365 0.960 . S
H1374 C1366 0.930 . S
H1375 C1367 0.929 . S
H1376 C1384 0.929 . S
H1377 C1386 0.930 . S
H1378 C1388 0.930 . S
H1379 C1391 0.929 . S
H1380 C1394 0.930 . S
H1381 C1396 0.960 1_655 S
H1382 C1396 0.960 . S
H1383 C1396 0.960 . S
C1384 H1376 0.929 . S
C1384 C1385 1.377 . S
C1384 C1386 1.384 . S
C1385 C1384 1.377 . S
C1385 C1391 1.390 . S
C1386 H1377 0.930 . S
C1386 C1384 1.384 . S
C1386 C1387 1.372 . S
C1387 C1386 1.372 . S
C1387 C1388 1.400 . S
C1387 C1392 1.490 . S
C1388 H1378 0.930 . S
C1388 C1387 1.400 . S
C1388 C1391 1.386 . S
H1389 C1405 0.930 . S
H1390 C1406 0.931 . S
C1391 H1379 0.929 . S
C1391 C1385 1.390 . S
C1391 C1388 1.386 . S
C1392 C1387 1.490 . S
C1392 C1394 1.395 . S
C1392 C1395 1.403 . S
H1393 C1399 0.930 . S
C1394 H1380 0.930 . S
C1394 C1392 1.395 . S
C1394 C1397 1.403 . S
C1395 C1392 1.403 . S
C1395 C1396 1.524 . S
C1395 C1399 1.400 1_455 S
C1396 H1381 0.960 1_455 S
C1396 H1382 0.960 . S
C1396 H1383 0.960 . S
C1396 C1395 1.524 . S
C1397 C1394 1.403 . S
C1397 C1398 1.392 1_455 S
C1397 C1401 1.495 . S
C1398 C1397 1.392 1_655 S
C1398 C1399 1.385 . S
C1398 C1400 1.478 . S
C1399 H1393 0.930 . S
C1399 C1395 1.400 1_655 S
C1399 C1398 1.385 . S
C1400 C1398 1.478 . S
C1400 C1402 1.381 . S
C1400 C1406 1.383 . S
C1401 C1397 1.495 . S
C1401 H1407 0.959 . S
C1401 H1408 0.961 1_455 S
C1401 H1409 0.960 1_455 S
C1402 C1400 1.381 . S
C1402 C1403 1.394 . S
C1402 H1410 0.930 . S
C1403 C1402 1.394 . S
C1403 C1404 1.383 . S
C1403 H1411 0.929 . S
C1404 C1403 1.383 . S
C1404 C1405 1.377 . S
C1405 H1389 0.930 . S
C1405 C1404 1.377 . S
C1405 C1406 1.379 . S
C1406 H1390 0.931 . S
C1406 C1400 1.383 . S
C1406 C1405 1.379 . S
H1407 C1401 0.959 . S
H1408 C1401 0.961 1_655 S
H1409 C1401 0.960 1_655 S
H1410 C1402 0.930 . S
H1411 C1403 0.929 . S
H1412 C1420 0.929 . S
H1413 C1422 0.930 . S
H1414 C1424 0.930 . S
H1415 C1427 0.929 . S
H1416 C1430 0.930 . S
H1417 C1432 0.960 . S
H1418 C1432 0.960 1_565 S
H1419 C1432 0.960 1_565 S
C1420 H1412 0.929 . S
C1420 C1421 1.377 . S
C1420 C1422 1.384 . S
C1421 C1420 1.377 . S
C1421 C1427 1.390 . S
C1422 H1413 0.930 . S
C1422 C1420 1.384 . S
C1422 C1423 1.372 . S
C1423 C1422 1.372 . S
C1423 C1424 1.400 . S
C1423 C1428 1.490 1_565 S
C1424 H1414 0.930 . S
C1424 C1423 1.400 . S
C1424 C1427 1.386 . S
H1425 C1441 0.930 . S
H1426 C1442 0.931 . S
C1427 H1415 0.929 . S
C1427 C1421 1.390 . S
C1427 C1424 1.386 . S
C1428 C1423 1.490 1_545 S
C1428 C1430 1.395 . S
C1428 C1431 1.403 . S
H1429 C1435 0.930 . S
C1430 H1416 0.930 . S
C1430 C1428 1.395 . S
C1430 C1433 1.403 . S
C1431 C1428 1.403 . S
C1431 C1432 1.524 . S
C1431 C1435 1.400 . S
C1432 H1417 0.960 . S
C1432 H1418 0.960 1_545 S
C1432 H1419 0.960 1_545 S
C1432 C1431 1.524 . S
C1433 C1430 1.403 . S
C1433 C1434 1.392 . S
C1433 C1437 1.495 . S
C1434 C1433 1.392 . S
C1434 C1435 1.385 . S
C1434 C1436 1.478 . S
C1435 H1429 0.930 . S
C1435 C1431 1.400 . S
C1435 C1434 1.385 . S
C1436 C1434 1.478 . S
C1436 C1438 1.381 . S
C1436 C1442 1.383 . S
C1437 C1433 1.495 . S
C1437 H1443 0.959 . S
C1437 H1444 0.961 . S
C1437 H1445 0.960 . S
C1438 C1436 1.381 . S
C1438 C1439 1.394 . S
C1438 H1446 0.930 . S
C1439 C1438 1.394 . S
C1439 C1440 1.383 . S
C1439 H1447 0.929 . S
C1440 C1439 1.383 . S
C1440 C1441 1.377 . S
C1441 H1425 0.930 . S
C1441 C1440 1.377 . S
C1441 C1442 1.379 . S
C1442 H1426 0.931 . S
C1442 C1436 1.383 . S
C1442 C1441 1.379 . S
H1443 C1437 0.959 . S
H1444 C1437 0.961 . S
H1445 C1437 0.960 . S
H1446 C1438 0.930 . S
H1447 C1439 0.929 . S
H1448 C1456 0.929 . S
H1449 C1458 0.930 . S
H1450 C1460 0.930 . S
H1451 C1463 0.929 . S
H1452 C1466 0.918 1_655 S
H1453 C1468 0.960 . S
H1454 C1468 0.960 . S
H1455 C1468 0.960 . S
C1456 H1448 0.929 . S
C1456 C1457 1.377 . S
C1456 C1458 1.384 . S
C1457 C1456 1.377 . S
C1457 C1463 1.390 . S
C1458 H1449 0.930 . S
C1458 C1456 1.384 . S
C1458 C1459 1.372 . S
C1459 C1458 1.372 . S
C1459 C1460 1.400 . S
C1459 C1464 1.490 . S
C1460 H1450 0.930 . S
C1460 C1459 1.400 . S
C1460 C1463 1.386 . S
H1461 C1477 0.930 . S
H1462 C1478 0.931 . S
C1463 H1451 0.929 . S
C1463 C1457 1.390 . S
C1463 C1460 1.386 . S
C1464 C1459 1.490 . S
C1464 C1466 1.377 1_655 S
C1464 C1467 1.403 . S
H1465 C1471 0.930 . S
C1466 H1452 0.918 1_455 S
C1466 C1464 1.377 1_455 S
C1466 C1469 1.433 . S
C1467 C1464 1.403 . S
C1467 C1468 1.524 . S
C1467 C1471 1.400 1_655 S
C1468 H1453 0.960 . S
C1468 H1454 0.960 . S
C1468 H1455 0.960 . S
C1468 C1467 1.524 . S
C1469 C1466 1.433 . S
C1469 C1470 1.392 . S
C1469 C1473 1.495 . S
C1470 C1469 1.392 . S
C1470 C1471 1.385 . S
C1470 C1472 1.478 . S
C1471 H1465 0.930 . S
C1471 C1467 1.400 1_455 S
C1471 C1470 1.385 . S
C1472 C1470 1.478 . S
C1472 C1474 1.381 . S
C1472 C1478 1.383 . S
C1473 C1469 1.495 . S
C1473 H1479 0.959 . S
C1473 H1480 0.961 . S
C1473 H1481 0.960 . S
C1474 C1472 1.381 . S
C1474 C1475 1.394 . S
C1474 H1482 0.930 . S
C1475 C1474 1.394 . S
C1475 C1476 1.383 . S
C1475 H1483 0.929 . S
C1476 C1475 1.383 . S
C1476 C1477 1.377 . S
C1477 H1461 0.930 . S
C1477 C1476 1.377 . S
C1477 C1478 1.379 . S
C1478 H1462 0.931 . S
C1478 C1472 1.383 . S
C1478 C1477 1.379 . S
H1479 C1473 0.959 . S
H1480 C1473 0.961 . S
H1481 C1473 0.960 . S
H1482 C1474 0.930 . S
H1483 C1475 0.929 . S
H1484 C1492 0.929 . S
H1485 C1494 0.930 . S
H1486 C1496 0.930 . S
H1487 C1499 0.929 . S
H1488 C1502 0.930 1_545 S
H1489 C1504 0.960 . S
H1490 C1504 0.960 . S
H1491 C1504 0.960 . S
C1492 H1484 0.929 . S
C1492 C1493 1.377 . S
C1492 C1494 1.384 . S
C1493 C1492 1.377 . S
C1493 C1499 1.390 . S
C1494 H1485 0.930 . S
C1494 C1492 1.384 . S
C1494 C1495 1.372 . S
C1495 C1494 1.372 . S
C1495 C1496 1.400 . S
C1495 C1500 1.490 . S
C1496 H1486 0.930 . S
C1496 C1495 1.400 . S
C1496 C1499 1.386 . S
H1497 C1513 0.930 . S
H1498 C1514 0.931 . S
C1499 H1487 0.929 . S
C1499 C1493 1.390 . S
C1499 C1496 1.386 . S
C1500 C1495 1.490 . S
C1500 C1502 1.395 1_545 S
C1500 C1503 1.403 1_545 S
H1501 C1507 0.930 . S
C1502 H1488 0.930 1_565 S
C1502 C1500 1.395 1_565 S
C1502 C1505 1.403 . S
C1503 C1500 1.403 1_565 S
C1503 C1504 1.524 . S
C1503 C1507 1.400 . S
C1504 H1489 0.960 . S
C1504 H1490 0.960 . S
C1504 H1491 0.960 . S
C1504 C1503 1.524 . S
C1505 C1502 1.403 . S
C1505 C1506 1.392 . S
C1505 C1509 1.495 . S
C1506 C1505 1.392 . S
C1506 C1507 1.385 . S
C1506 C1508 1.478 . S
C1507 H1501 0.930 . S
C1507 C1503 1.400 . S
C1507 C1506 1.385 . S
C1508 C1506 1.478 . S
C1508 C1510 1.381 . S
C1508 C1514 1.383 . S
C1509 C1505 1.495 . S
C1509 H1515 0.959 . S
C1509 H1516 0.961 . S
C1509 H1517 0.960 . S
C1510 C1508 1.381 . S
C1510 C1511 1.394 . S
C1510 H1518 0.930 . S
C1511 C1510 1.394 . S
C1511 C1512 1.383 . S
C1511 H1519 0.929 . S
C1512 C1511 1.383 . S
C1512 C1513 1.377 . S
C1513 H1497 0.930 . S
C1513 C1512 1.377 . S
C1513 C1514 1.379 . S
C1514 H1498 0.931 . S
C1514 C1508 1.383 . S
C1514 C1513 1.379 . S
H1515 C1509 0.959 . S
H1516 C1509 0.961 . S
H1517 C1509 0.960 . S
H1518 C1510 0.930 . S
H1519 C1511 0.929 . S
H1520 C1528 0.929 . S
H1521 C1530 0.930 . S
H1522 C1532 0.930 . S
H1523 C1535 0.929 . S
H1524 C1538 0.930 . S
H1525 C1540 0.960 . S
H1526 C1540 0.960 . S
H1527 C1540 0.960 . S
C1528 H1520 0.929 . S
C1528 C1529 1.377 . S
C1528 C1530 1.384 . S
C1529 C1528 1.377 . S
C1529 C1535 1.390 . S
C1530 H1521 0.930 . S
C1530 C1528 1.384 . S
C1530 C1531 1.372 . S
C1531 C1530 1.372 . S
C1531 C1532 1.400 . S
C1531 C1536 1.490 . S
C1532 H1522 0.930 . S
C1532 C1531 1.400 . S
C1532 C1535 1.386 . S
H1533 C1549 0.930 . S
H1534 C1550 0.931 . S
C1535 H1523 0.929 . S
C1535 C1529 1.390 . S
C1535 C1532 1.386 . S
C1536 C1531 1.490 . S
C1536 C1538 1.395 . S
C1536 C1539 1.403 . S
H1537 C1543 0.930 . S
C1538 H1524 0.930 . S
C1538 C1536 1.395 . S
C1538 C1541 1.403 . S
C1539 C1536 1.403 . S
C1539 C1540 1.524 . S
C1539 C1543 1.400 1_655 S
C1540 H1525 0.960 . S
C1540 H1526 0.960 . S
C1540 H1527 0.960 . S
C1540 C1539 1.524 . S
C1541 C1538 1.403 . S
C1541 C1542 1.392 1_655 S
C1541 C1545 1.497 . S
C1542 C1541 1.392 1_455 S
C1542 C1543 1.385 . S
C1542 C1544 1.478 . S
C1543 H1537 0.930 . S
C1543 C1539 1.400 1_455 S
C1543 C1542 1.385 . S
C1544 C1542 1.478 . S
C1544 C1546 1.381 . S
C1544 C1550 1.383 . S
C1545 C1541 1.497 . S
C1545 H1551 0.963 . S
C1545 H1552 0.958 1_655 S
C1545 H1553 0.957 1_655 S
C1546 C1544 1.381 . S
C1546 C1547 1.394 . S
C1546 H1554 0.930 . S
C1547 C1546 1.394 . S
C1547 C1548 1.383 . S
C1547 H1555 0.929 . S
C1548 C1547 1.383 . S
C1548 C1549 1.377 . S
C1549 H1533 0.930 . S
C1549 C1548 1.377 . S
C1549 C1550 1.379 . S
C1550 H1534 0.931 . S
C1550 C1544 1.383 . S
C1550 C1549 1.379 . S
H1551 C1545 0.963 . S
H1552 C1545 0.958 1_455 S
H1553 C1545 0.957 1_455 S
H1554 C1546 0.930 . S
H1555 C1547 0.929 . S
H1556 C1564 0.929 . S
H1557 C1566 0.930 . S
H1558 C1568 0.930 . S
H1559 C1571 0.929 . S
H1560 C1574 0.930 . S
H1561 C1576 0.960 . S
H1562 C1576 0.960 . S
H1563 C1576 0.960 . S
C1564 H1556 0.929 . S
C1564 C1565 1.377 . S
C1564 C1566 1.384 . S
C1565 C1564 1.377 . S
C1565 C1571 1.390 . S
C1566 H1557 0.930 . S
C1566 C1564 1.384 . S
C1566 C1567 1.372 . S
C1567 C1566 1.372 . S
C1567 C1568 1.400 . S
C1567 C1572 1.490 . S
C1568 H1558 0.930 . S
C1568 C1567 1.400 . S
C1568 C1571 1.386 . S
H1569 C1585 0.930 . S
H1570 C1586 0.931 . S
C1571 H1559 0.929 . S
C1571 C1565 1.390 . S
C1571 C1568 1.386 . S
C1572 C1567 1.490 . S
C1572 C1574 1.395 . S
C1572 C1575 1.403 . S
H1573 C1579 0.930 . S
C1574 H1560 0.930 . S
C1574 C1572 1.395 . S
C1574 C1577 1.403 . S
C1575 C1572 1.403 . S
C1575 C1576 1.524 . S
C1575 C1579 1.400 . S
C1576 H1561 0.960 . S
C1576 H1562 0.960 . S
C1576 H1563 0.960 . S
C1576 C1575 1.524 . S
C1577 C1574 1.403 . S
C1577 C1578 1.392 . S
C1577 C1581 1.495 . S
C1578 C1577 1.392 . S
C1578 C1579 1.385 . S
C1578 C1580 1.478 1_565 S
C1579 H1573 0.930 . S
C1579 C1575 1.400 . S
C1579 C1578 1.385 . S
C1580 C1578 1.478 1_545 S
C1580 C1582 1.381 . S
C1580 C1586 1.383 . S
C1581 C1577 1.495 . S
C1581 H1587 0.959 . S
C1581 H1588 0.961 1_565 S
C1581 H1589 0.960 1_565 S
C1582 C1580 1.381 . S
C1582 C1583 1.394 . S
C1582 H1590 0.930 . S
C1583 C1582 1.394 . S
C1583 C1584 1.383 . S
C1583 H1591 0.929 . S
C1584 C1583 1.383 . S
C1584 C1585 1.377 . S
C1585 H1569 0.930 . S
C1585 C1584 1.377 . S
C1585 C1586 1.379 . S
C1586 H1570 0.931 . S
C1586 C1580 1.383 . S
C1586 C1585 1.379 . S
H1587 C1581 0.959 . S
H1588 C1581 0.961 1_545 S
H1589 C1581 0.960 1_545 S
H1590 C1582 0.930 . S
H1591 C1583 0.929 . S
H1592 C1600 0.929 . S
H1593 C1602 0.930 . S
H1594 C1604 0.930 . S
H1595 C1607 0.929 . S
H1596 C1610 0.930 . S
H1597 C1612 0.960 1_655 S
H1598 C1612 0.960 . S
H1599 C1612 0.960 . S
C1600 H1592 0.929 . S
C1600 C1601 1.377 . S
C1600 C1602 1.384 . S
C1601 C1600 1.377 . S
C1601 C1607 1.390 . S
C1602 H1593 0.930 . S
C1602 C1600 1.384 . S
C1602 C1603 1.372 . S
C1603 C1602 1.372 . S
C1603 C1604 1.400 . S
C1603 C1608 1.490 . S
C1604 H1594 0.930 . S
C1604 C1603 1.400 . S
C1604 C1607 1.386 . S
H1605 C1621 0.930 . S
H1606 C1622 0.931 . S
C1607 H1595 0.929 . S
C1607 C1601 1.390 . S
C1607 C1604 1.386 . S
C1608 C1603 1.490 . S
C1608 C1610 1.395 . S
C1608 C1611 1.403 . S
H1609 C1615 0.930 . S
C1610 H1596 0.930 . S
C1610 C1608 1.395 . S
C1610 C1613 1.403 1_455 S
C1611 C1608 1.403 . S
C1611 C1612 1.524 . S
C1611 C1615 1.400 1_455 S
C1612 H1597 0.960 1_455 S
C1612 H1598 0.960 . S
C1612 H1599 0.960 . S
C1612 C1611 1.524 . S
C1613 C1610 1.403 1_655 S
C1613 C1614 1.392 . S
C1613 C1617 1.495 . S
C1614 C1613 1.392 . S
C1614 C1615 1.385 . S
C1614 C1616 1.478 . S
C1615 H1609 0.930 . S
C1615 C1611 1.400 1_655 S
C1615 C1614 1.385 . S
C1616 C1614 1.478 . S
C1616 C1618 1.381 . S
C1616 C1622 1.383 . S
C1617 C1613 1.495 . S
C1617 H1623 0.955 1_655 S
C1617 H1624 0.961 . S
C1617 H1625 0.960 . S
C1618 C1616 1.381 . S
C1618 C1619 1.394 . S
C1618 H1626 0.930 . S
C1619 C1618 1.394 . S
C1619 C1620 1.383 . S
C1619 H1627 0.929 . S
C1620 C1619 1.383 . S
C1620 C1621 1.377 . S
C1621 H1605 0.930 . S
C1621 C1620 1.377 . S
C1621 C1622 1.379 . S
C1622 H1606 0.931 . S
C1622 C1616 1.383 . S
C1622 C1621 1.379 . S
H1623 C1617 0.955 1_455 S
H1624 C1617 0.961 . S
H1625 C1617 0.960 . S
H1626 C1618 0.930 . S
H1627 C1619 0.929 . S
H1628 C1636 0.929 . S
H1629 C1638 0.930 . S
H1630 C1640 0.930 . S
H1631 C1643 0.929 . S
H1632 C1646 0.930 . S
H1633 C1648 0.960 . S
H1634 C1648 0.960 . S
H1635 C1648 0.960 . S
C1636 H1628 0.929 . S
C1636 C1637 1.377 . S
C1636 C1638 1.384 . S
C1637 C1636 1.377 . S
C1637 C1643 1.390 . S
C1638 H1629 0.930 . S
C1638 C1636 1.384 . S
C1638 C1639 1.372 . S
C1639 C1638 1.372 . S
C1639 C1640 1.400 . S
C1639 C1644 1.490 1_565 S
C1640 H1630 0.930 . S
C1640 C1639 1.400 . S
C1640 C1643 1.386 . S
H1641 C1657 0.930 . S
H1642 C1658 0.931 . S
C1643 H1631 0.929 . S
C1643 C1637 1.390 . S
C1643 C1640 1.386 . S
C1644 C1639 1.490 1_545 S
C1644 C1646 1.395 . S
C1644 C1647 1.403 . S
H1645 C1651 0.930 . S
C1646 H1632 0.930 . S
C1646 C1644 1.395 . S
C1646 C1649 1.403 . S
C1647 C1644 1.403 . S
C1647 C1648 1.524 . S
C1647 C1651 1.400 . S
C1648 H1633 0.960 . S
C1648 H1634 0.960 . S
C1648 H1635 0.960 . S
C1648 C1647 1.524 . S
C1649 C1646 1.403 . S
C1649 C1650 1.392 . S
C1649 C1653 1.495 . S
C1650 C1649 1.392 . S
C1650 C1651 1.385 . S
C1650 C1652 1.478 . S
C1651 H1645 0.930 . S
C1651 C1647 1.400 . S
C1651 C1650 1.385 . S
C1652 C1650 1.478 . S
C1652 C1654 1.381 . S
C1652 C1658 1.383 . S
C1653 C1649 1.495 . S
C1653 H1659 0.959 . S
C1653 H1660 0.961 . S
C1653 H1661 0.960 . S
C1654 C1652 1.381 . S
C1654 C1655 1.394 . S
C1654 H1662 0.930 . S
C1655 C1654 1.394 . S
C1655 C1656 1.383 . S
C1655 H1663 0.929 . S
C1656 C1655 1.383 . S
C1656 C1657 1.377 . S
C1657 H1641 0.930 . S
C1657 C1656 1.377 . S
C1657 C1658 1.379 . S
C1658 H1642 0.931 . S
C1658 C1652 1.383 . S
C1658 C1657 1.379 . S
H1659 C1653 0.959 . S
H1660 C1653 0.961 . S
H1661 C1653 0.960 . S
H1662 C1654 0.930 . S
H1663 C1655 0.929 . S
H1664 C1672 0.929 . S
H1665 C1674 0.930 . S
H1666 C1676 0.930 . S
H1667 C1679 0.929 . S
H1668 C1682 0.930 . S
H1669 C1684 0.960 . S
H1670 C1684 0.960 . S
H1671 C1684 0.960 . S
C1672 H1664 0.929 . S
C1672 C1673 1.377 . S
C1672 C1674 1.384 . S
C1673 C1672 1.377 . S
C1673 C1679 1.390 . S
C1674 H1665 0.930 . S
C1674 C1672 1.384 . S
C1674 C1675 1.372 . S
C1675 C1674 1.372 . S
C1675 C1676 1.400 . S
C1675 C1680 1.490 . S
C1676 H1666 0.930 . S
C1676 C1675 1.400 . S
C1676 C1679 1.386 . S
H1677 C1693 0.930 . S
H1678 C1694 0.931 . S
C1679 H1667 0.929 . S
C1679 C1673 1.390 . S
C1679 C1676 1.386 . S
C1680 C1675 1.490 . S
C1680 C1682 1.395 . S
C1680 C1683 1.403 . S
H1681 C1687 0.930 . S
C1682 H1668 0.930 . S
C1682 C1680 1.395 . S
C1682 C1685 1.403 . S
C1683 C1680 1.403 . S
C1683 C1684 1.524 . S
C1683 C1687 1.400 . S
C1684 H1669 0.960 . S
C1684 H1670 0.960 . S
C1684 H1671 0.960 . S
C1684 C1683 1.524 . S
C1685 C1682 1.403 . S
C1685 C1686 1.392 . S
C1685 C1689 1.495 . S
C1686 C1685 1.392 . S
C1686 C1687 1.385 . S
C1686 C1688 1.478 . S
C1687 H1681 0.930 . S
C1687 C1683 1.400 . S
C1687 C1686 1.385 . S
C1688 C1686 1.478 . S
C1688 C1690 1.381 . S
C1688 C1694 1.383 . S
C1689 C1685 1.495 . S
C1689 H1695 0.959 . S
C1689 H1696 0.961 . S
C1689 H1697 0.960 . S
C1690 C1688 1.381 . S
C1690 C1691 1.394 . S
C1690 H1698 0.930 . S
C1691 C1690 1.394 . S
C1691 C1692 1.383 . S
C1691 H1699 0.929 . S
C1692 C1691 1.383 . S
C1692 C1693 1.377 . S
C1693 H1677 0.930 . S
C1693 C1692 1.377 . S
C1693 C1694 1.379 . S
C1694 H1678 0.931 . S
C1694 C1688 1.383 . S
C1694 C1693 1.379 . S
H1695 C1689 0.959 . S
H1696 C1689 0.961 . S
H1697 C1689 0.960 . S
H1698 C1690 0.930 . S
H1699 C1691 0.929 . S
H1700 C1708 0.929 . S
H1701 C1710 0.930 . S
H1702 C1712 0.930 . S
H1703 C1715 0.929 . S
H1704 C1718 0.930 . S
H1705 C1720 0.960 . S
H1706 C1720 0.960 . S
H1707 C1720 0.960 . S
C1708 H1700 0.929 . S
C1708 C1709 1.377 . S
C1708 C1710 1.384 . S
C1709 C1708 1.377 . S
C1709 C1715 1.390 . S
C1710 H1701 0.930 . S
C1710 C1708 1.384 . S
C1710 C1711 1.372 . S
C1711 C1710 1.372 . S
C1711 C1712 1.400 . S
C1711 C1716 1.490 . S
C1712 H1702 0.930 . S
C1712 C1711 1.400 . S
C1712 C1715 1.386 . S
H1713 C1729 0.930 . S
H1714 C1730 0.931 . S
C1715 H1703 0.929 . S
C1715 C1709 1.390 . S
C1715 C1712 1.386 . S
C1716 C1711 1.490 . S
C1716 C1718 1.395 . S
C1716 C1719 1.403 . S
H1717 C1723 0.930 . S
C1718 H1704 0.930 . S
C1718 C1716 1.395 . S
C1718 C1721 1.403 . S
C1719 C1716 1.403 . S
C1719 C1720 1.524 . S
C1719 C1723 1.400 . S
C1720 H1705 0.960 . S
C1720 H1706 0.960 . S
C1720 H1707 0.960 . S
C1720 C1719 1.524 . S
C1721 C1718 1.403 . S
C1721 C1722 1.392 . S
C1721 C1725 1.495 . S
C1722 C1721 1.392 . S
C1722 C1723 1.385 . S
C1722 C1724 1.478 . S
C1723 H1717 0.930 . S
C1723 C1719 1.400 . S
C1723 C1722 1.385 . S
C1724 C1722 1.478 . S
C1724 C1726 1.381 . S
C1724 C1730 1.383 . S
C1725 C1721 1.495 . S
C1725 H1731 0.959 . S
C1725 H1732 0.961 . S
C1725 H1733 0.960 . S
C1726 C1724 1.381 . S
C1726 C1727 1.394 . S
C1726 H1734 0.930 . S
C1727 C1726 1.394 . S
C1727 C1728 1.383 . S
C1727 H1735 0.929 . S
C1728 C1727 1.383 . S
C1728 C1729 1.377 . S
C1729 H1713 0.930 . S
C1729 C1728 1.377 . S
C1729 C1730 1.379 . S
C1730 H1714 0.931 . S
C1730 C1724 1.383 . S
C1730 C1729 1.379 . S
H1731 C1725 0.959 . S
H1732 C1725 0.961 . S
H1733 C1725 0.960 . S
H1734 C1726 0.930 . S
H1735 C1727 0.929 . S
H1736 C1744 0.929 . S
H1737 C1746 0.930 . S
H1738 C1748 0.930 . S
H1739 C1751 0.929 . S
H1740 C1754 0.930 . S
H1741 C1756 0.960 . S
H1742 C1756 0.960 . S
H1743 C1756 0.960 . S
C1744 H1736 0.929 . S
C1744 C1745 1.377 . S
C1744 C1746 1.384 . S
C1745 C1744 1.377 . S
C1745 C1751 1.390 . S
C1746 H1737 0.930 . S
C1746 C1744 1.384 . S
C1746 C1747 1.372 . S
C1747 C1746 1.372 . S
C1747 C1748 1.400 . S
C1747 C1752 1.490 . S
C1748 H1738 0.930 . S
C1748 C1747 1.400 . S
C1748 C1751 1.386 . S
H1749 C1765 0.930 . S
H1750 C1766 0.931 . S
C1751 H1739 0.929 . S
C1751 C1745 1.390 . S
C1751 C1748 1.386 . S
C1752 C1747 1.490 . S
C1752 C1754 1.395 . S
C1752 C1755 1.403 . S
H1753 C1759 0.930 . S
C1754 H1740 0.930 . S
C1754 C1752 1.395 . S
C1754 C1757 1.403 . S
C1755 C1752 1.403 . S
C1755 C1756 1.524 . S
C1755 C1759 1.400 . S
C1756 H1741 0.960 . S
C1756 H1742 0.960 . S
C1756 H1743 0.960 . S
C1756 C1755 1.524 . S
C1757 C1754 1.403 . S
C1757 C1758 1.392 . S
C1757 C1761 1.495 . S
C1758 C1757 1.392 . S
C1758 C1759 1.385 . S
C1758 C1760 1.478 . S
C1759 H1753 0.930 . S
C1759 C1755 1.400 . S
C1759 C1758 1.385 . S
C1760 C1758 1.478 . S
C1760 C1762 1.381 . S
C1760 C1766 1.383 . S
C1761 C1757 1.495 . S
C1761 H1767 0.959 . S
C1761 H1768 0.961 . S
C1761 H1769 0.960 . S
C1762 C1760 1.381 . S
C1762 C1763 1.394 . S
C1762 H1770 0.930 . S
C1763 C1762 1.394 . S
C1763 C1764 1.383 . S
C1763 H1771 0.929 . S
C1764 C1763 1.383 . S
C1764 C1765 1.377 . S
C1765 H1749 0.930 . S
C1765 C1764 1.377 . S
C1765 C1766 1.379 . S
C1766 H1750 0.931 . S
C1766 C1760 1.383 . S
C1766 C1765 1.379 . S
H1767 C1761 0.959 . S
H1768 C1761 0.961 . S
H1769 C1761 0.960 . S
H1770 C1762 0.930 . S
H1771 C1763 0.929 . S
H1772 C1780 0.929 . S
H1773 C1782 0.930 . S
H1774 C1784 0.930 . S
H1775 C1787 0.929 . S
H1776 C1790 0.930 . S
H1777 C1792 0.960 . S
H1778 C1792 0.960 . S
H1779 C1792 0.960 . S
C1780 H1772 0.929 . S
C1780 C1781 1.377 . S
C1780 C1782 1.384 . S
C1781 C1780 1.377 . S
C1781 C1787 1.390 . S
C1782 H1773 0.930 . S
C1782 C1780 1.384 . S
C1782 C1783 1.372 . S
C1783 C1782 1.372 . S
C1783 C1784 1.400 . S
C1783 C1788 1.490 . S
C1784 H1774 0.930 . S
C1784 C1783 1.400 . S
C1784 C1787 1.386 . S
H1785 C1801 0.930 . S
H1786 C1802 0.931 . S
C1787 H1775 0.929 . S
C1787 C1781 1.390 . S
C1787 C1784 1.386 . S
C1788 C1783 1.490 . S
C1788 C1790 1.395 . S
C1788 C1791 1.403 . S
H1789 C1795 0.930 . S
C1790 H1776 0.930 . S
C1790 C1788 1.395 . S
C1790 C1793 1.403 . S
C1791 C1788 1.403 . S
C1791 C1792 1.524 . S
C1791 C1795 1.400 . S
C1792 H1777 0.960 . S
C1792 H1778 0.960 . S
C1792 H1779 0.960 . S
C1792 C1791 1.524 . S
C1793 C1790 1.403 . S
C1793 C1794 1.392 . S
C1793 C1797 1.495 . S
C1794 C1793 1.392 . S
C1794 C1795 1.385 . S
C1794 C1796 1.478 . S
C1795 H1789 0.930 . S
C1795 C1791 1.400 . S
C1795 C1794 1.385 . S
C1796 C1794 1.478 . S
C1796 C1798 1.381 . S
C1796 C1802 1.383 . S
C1797 C1793 1.495 . S
C1797 H1803 0.959 . S
C1797 H1804 0.961 . S
C1797 H1805 0.960 . S
C1798 C1796 1.381 . S
C1798 C1799 1.394 . S
C1798 H1806 0.930 . S
C1799 C1798 1.394 . S
C1799 C1800 1.383 . S
C1799 H1807 0.929 . S
C1800 C1799 1.383 . S
C1800 C1801 1.377 . S
C1801 H1785 0.930 . S
C1801 C1800 1.377 . S
C1801 C1802 1.379 . S
C1802 H1786 0.931 . S
C1802 C1796 1.383 . S
C1802 C1801 1.379 . S
H1803 C1797 0.959 . S
H1804 C1797 0.961 . S
H1805 C1797 0.960 . S
H1806 C1798 0.930 . S
H1807 C1799 0.929 . S
H1808 C1816 0.929 . S
H1809 C1818 0.930 . S
H1810 C1820 0.930 . S
H1811 C1823 0.929 . S
H1812 C1826 0.930 . S
H1813 C1828 0.960 . S
H1814 C1828 0.960 . S
H1815 C1828 0.960 . S
C1816 H1808 0.929 . S
C1816 C1817 1.377 . S
C1816 C1818 1.384 . S
C1817 C1816 1.377 . S
C1817 C1823 1.390 . S
C1818 H1809 0.930 . S
C1818 C1816 1.384 . S
C1818 C1819 1.372 . S
C1819 C1818 1.372 . S
C1819 C1820 1.400 . S
C1819 C1824 1.490 . S
C1820 H1810 0.930 . S
C1820 C1819 1.400 . S
C1820 C1823 1.386 . S
H1821 C1837 0.930 . S
H1822 C1838 0.931 . S
C1823 H1811 0.929 . S
C1823 C1817 1.390 . S
C1823 C1820 1.386 . S
C1824 C1819 1.490 . S
C1824 C1826 1.395 . S
C1824 C1827 1.403 . S
H1825 C1831 0.930 . S
C1826 H1812 0.930 . S
C1826 C1824 1.395 . S
C1826 C1829 1.403 . S
C1827 C1824 1.403 . S
C1827 C1828 1.524 . S
C1827 C1831 1.400 . S
C1828 H1813 0.960 . S
C1828 H1814 0.960 . S
C1828 H1815 0.960 . S
C1828 C1827 1.524 . S
C1829 C1826 1.403 . S
C1829 C1830 1.392 . S
C1829 C1833 1.495 . S
C1830 C1829 1.392 . S
C1830 C1831 1.385 . S
C1830 C1832 1.478 . S
C1831 H1825 0.930 . S
C1831 C1827 1.400 . S
C1831 C1830 1.385 . S
C1832 C1830 1.478 . S
C1832 C1834 1.381 . S
C1832 C1838 1.383 . S
C1833 C1829 1.495 . S
C1833 H1839 0.959 . S
C1833 H1840 0.961 . S
C1833 H1841 0.960 . S
C1834 C1832 1.381 . S
C1834 C1835 1.394 . S
C1834 H1842 0.930 . S
C1835 C1834 1.394 . S
C1835 C1836 1.383 . S
C1835 H1843 0.929 . S
C1836 C1835 1.383 . S
C1836 C1837 1.377 . S
C1837 H1821 0.930 . S
C1837 C1836 1.377 . S
C1837 C1838 1.379 . S
C1838 H1822 0.931 . S
C1838 C1832 1.383 . S
C1838 C1837 1.379 . S
H1839 C1833 0.959 . S
H1840 C1833 0.961 . S
H1841 C1833 0.960 . S
H1842 C1834 0.930 . S
H1843 C1835 0.929 . S
H1844 C1852 0.929 . S
H1845 C1854 0.930 . S
H1846 C1856 0.930 . S
H1847 C1859 0.929 . S
H1848 C1862 0.930 . S
H1849 C1864 0.960 . S
H1850 C1864 0.960 . S
H1851 C1864 0.960 . S
C1852 H1844 0.929 . S
C1852 C1853 1.377 . S
C1852 C1854 1.384 . S
C1853 C1852 1.377 . S
C1853 C1859 1.390 . S
C1854 H1845 0.930 . S
C1854 C1852 1.384 . S
C1854 C1855 1.372 . S
C1855 C1854 1.372 . S
C1855 C1856 1.400 . S
C1855 C1860 1.490 . S
C1856 H1846 0.930 . S
C1856 C1855 1.400 . S
C1856 C1859 1.386 . S
H1857 C1873 0.930 . S
H1858 C1874 0.931 . S
C1859 H1847 0.929 . S
C1859 C1853 1.390 . S
C1859 C1856 1.386 . S
C1860 C1855 1.490 . S
C1860 C1862 1.395 . S
C1860 C1863 1.403 . S
H1861 C1867 0.930 . S
C1862 H1848 0.930 . S
C1862 C1860 1.395 . S
C1862 C1865 1.403 . S
C1863 C1860 1.403 . S
C1863 C1864 1.524 . S
C1863 C1867 1.400 . S
C1864 H1849 0.960 . S
C1864 H1850 0.960 . S
C1864 H1851 0.960 . S
C1864 C1863 1.524 . S
C1865 C1862 1.403 . S
C1865 C1866 1.392 . S
C1865 C1869 1.495 . S
C1866 C1865 1.392 . S
C1866 C1867 1.385 . S
C1866 C1868 1.478 . S
C1867 H1861 0.930 . S
C1867 C1863 1.400 . S
C1867 C1866 1.385 . S
C1868 C1866 1.478 . S
C1868 C1870 1.381 . S
C1868 C1874 1.383 . S
C1869 C1865 1.495 . S
C1869 H1875 0.959 . S
C1869 H1876 0.961 . S
C1869 H1877 0.960 . S
C1870 C1868 1.381 . S
C1870 C1871 1.394 . S
C1870 H1878 0.930 . S
C1871 C1870 1.394 . S
C1871 C1872 1.383 . S
C1871 H1879 0.929 . S
C1872 C1871 1.383 . S
C1872 C1873 1.377 . S
C1873 H1857 0.930 . S
C1873 C1872 1.377 . S
C1873 C1874 1.379 . S
C1874 H1858 0.931 . S
C1874 C1868 1.383 . S
C1874 C1873 1.379 . S
H1875 C1869 0.959 . S
H1876 C1869 0.961 . S
H1877 C1869 0.960 . S
H1878 C1870 0.930 . S
H1879 C1871 0.929 . S
H1880 C1888 0.929 . S
H1881 C1890 0.930 . S
H1882 C1892 0.930 . S
H1883 C1895 0.929 . S
H1884 C1898 0.930 . S
H1885 C1900 0.960 . S
H1886 C1900 0.960 . S
H1887 C1900 0.960 . S
C1888 H1880 0.929 . S
C1888 C1889 1.377 . S
C1888 C1890 1.384 . S
C1889 C1888 1.377 . S
C1889 C1895 1.390 . S
C1890 H1881 0.930 . S
C1890 C1888 1.384 . S
C1890 C1891 1.372 . S
C1891 C1890 1.372 . S
C1891 C1892 1.400 . S
C1891 C1896 1.490 . S
C1892 H1882 0.930 . S
C1892 C1891 1.400 . S
C1892 C1895 1.386 . S
H1893 C1909 0.930 . S
H1894 C1910 0.931 . S
C1895 H1883 0.929 . S
C1895 C1889 1.390 . S
C1895 C1892 1.386 . S
C1896 C1891 1.490 . S
C1896 C1898 1.395 . S
C1896 C1899 1.403 . S
H1897 C1903 0.930 . S
C1898 H1884 0.930 . S
C1898 C1896 1.395 . S
C1898 C1901 1.403 . S
C1899 C1896 1.403 . S
C1899 C1900 1.524 . S
C1899 C1903 1.400 . S
C1900 H1885 0.960 . S
C1900 H1886 0.960 . S
C1900 H1887 0.960 . S
C1900 C1899 1.524 . S
C1901 C1898 1.403 . S
C1901 C1902 1.392 . S
C1901 C1905 1.495 . S
C1902 C1901 1.392 . S
C1902 C1903 1.385 . S
C1902 C1904 1.478 . S
C1903 H1897 0.930 . S
C1903 C1899 1.400 . S
C1903 C1902 1.385 . S
C1904 C1902 1.478 . S
C1904 C1906 1.381 . S
C1904 C1910 1.383 . S
C1905 C1901 1.495 . S
C1905 H1911 0.959 . S
C1905 H1912 0.961 . S
C1905 H1913 0.960 . S
C1906 C1904 1.381 . S
C1906 C1907 1.394 . S
C1906 H1914 0.930 . S
C1907 C1906 1.394 . S
C1907 C1908 1.383 . S
C1907 H1915 0.929 . S
C1908 C1907 1.383 . S
C1908 C1909 1.377 . S
C1909 H1893 0.930 . S
C1909 C1908 1.377 . S
C1909 C1910 1.379 . S
C1910 H1894 0.931 . S
C1910 C1904 1.383 . S
C1910 C1909 1.379 . S
H1911 C1905 0.959 . S
H1912 C1905 0.961 . S
H1913 C1905 0.960 . S
H1914 C1906 0.930 . S
H1915 C1907 0.929 . S
H1916 C1924 0.929 . S
H1917 C1926 0.930 . S
H1918 C1928 0.930 . S
H1919 C1931 0.929 . S
H1920 C1934 0.930 . S
H1921 C1936 0.960 . S
H1922 C1936 0.960 . S
H1923 C1936 0.960 . S
C1924 H1916 0.929 . S
C1924 C1925 1.377 . S
C1924 C1926 1.384 . S
C1925 C1924 1.377 . S
C1925 C1931 1.390 . S
C1926 H1917 0.930 . S
C1926 C1924 1.384 . S
C1926 C1927 1.372 . S
C1927 C1926 1.372 . S
C1927 C1928 1.400 . S
C1927 C1932 1.490 . S
C1928 H1918 0.930 . S
C1928 C1927 1.400 . S
C1928 C1931 1.386 . S
H1929 C1945 0.930 . S
H1930 C1946 0.931 . S
C1931 H1919 0.929 . S
C1931 C1925 1.390 . S
C1931 C1928 1.386 . S
C1932 C1927 1.490 . S
C1932 C1934 1.395 . S
C1932 C1935 1.403 . S
H1933 C1939 0.930 . S
C1934 H1920 0.930 . S
C1934 C1932 1.395 . S
C1934 C1937 1.403 . S
C1935 C1932 1.403 . S
C1935 C1936 1.524 . S
C1935 C1939 1.400 . S
C1936 H1921 0.960 . S
C1936 H1922 0.960 . S
C1936 H1923 0.960 . S
C1936 C1935 1.524 . S
C1937 C1934 1.403 . S
C1937 C1938 1.392 . S
C1937 C1941 1.495 . S
C1938 C1937 1.392 . S
C1938 C1939 1.385 . S
C1938 C1940 1.478 . S
C1939 H1933 0.930 . S
C1939 C1935 1.400 . S
C1939 C1938 1.385 . S
C1940 C1938 1.478 . S
C1940 C1942 1.381 . S
C1940 C1946 1.383 . S
C1941 C1937 1.495 . S
C1941 H1947 0.959 . S
C1941 H1948 0.961 . S
C1941 H1949 0.960 . S
C1942 C1940 1.381 . S
C1942 C1943 1.394 . S
C1942 H1950 0.930 . S
C1943 C1942 1.394 . S
C1943 C1944 1.383 . S
C1943 H1951 0.929 . S
C1944 C1943 1.383 . S
C1944 C1945 1.377 . S
C1945 H1929 0.930 . S
C1945 C1944 1.377 . S
C1945 C1946 1.379 . S
C1946 H1930 0.931 . S
C1946 C1940 1.383 . S
C1946 C1945 1.379 . S
H1947 C1941 0.959 . S
H1948 C1941 0.961 . S
H1949 C1941 0.960 . S
H1950 C1942 0.930 . S
H1951 C1943 0.929 . S
H1952 C1960 0.929 . S
H1953 C1962 0.930 . S
H1954 C1964 0.930 . S
H1955 C1967 0.929 . S
H1956 C1970 0.930 . S
H1957 C1972 0.960 . S
H1958 C1972 0.960 . S
H1959 C1972 0.960 . S
C1960 H1952 0.929 . S
C1960 C1961 1.377 . S
C1960 C1962 1.384 . S
C1961 C1960 1.377 . S
C1961 C1967 1.390 . S
C1962 H1953 0.930 . S
C1962 C1960 1.384 . S
C1962 C1963 1.372 . S
C1963 C1962 1.372 . S
C1963 C1964 1.400 . S
C1963 C1968 1.490 . S
C1964 H1954 0.930 . S
C1964 C1963 1.400 . S
C1964 C1967 1.386 . S
H1965 C1981 0.930 . S
H1966 C1982 0.931 . S
C1967 H1955 0.929 . S
C1967 C1961 1.390 . S
C1967 C1964 1.386 . S
C1968 C1963 1.490 . S
C1968 C1970 1.395 . S
C1968 C1971 1.403 . S
H1969 C1975 0.930 . S
C1970 H1956 0.930 . S
C1970 C1968 1.395 . S
C1970 C1973 1.403 . S
C1971 C1968 1.403 . S
C1971 C1972 1.524 . S
C1971 C1975 1.400 . S
C1972 H1957 0.960 . S
C1972 H1958 0.960 . S
C1972 H1959 0.960 . S
C1972 C1971 1.524 . S
C1973 C1970 1.403 . S
C1973 C1974 1.392 . S
C1973 C1977 1.495 . S
C1974 C1973 1.392 . S
C1974 C1975 1.385 . S
C1974 C1976 1.478 . S
C1975 H1969 0.930 . S
C1975 C1971 1.400 . S
C1975 C1974 1.385 . S
C1976 C1974 1.478 . S
C1976 C1978 1.381 . S
C1976 C1982 1.383 . S
C1977 C1973 1.495 . S
C1977 H1983 0.959 . S
C1977 H1984 0.961 . S
C1977 H1985 0.960 . S
C1978 C1976 1.381 . S
C1978 C1979 1.394 . S
C1978 H1986 0.930 . S
C1979 C1978 1.394 . S
C1979 C1980 1.383 . S
C1979 H1987 0.929 . S
C1980 C1979 1.383 . S
C1980 C1981 1.377 . S
C1981 H1965 0.930 . S
C1981 C1980 1.377 . S
C1981 C1982 1.379 . S
C1982 H1966 0.931 . S
C1982 C1976 1.383 . S
C1982 C1981 1.379 . S
H1983 C1977 0.959 . S
H1984 C1977 0.961 . S
H1985 C1977 0.960 . S
H1986 C1978 0.930 . S
H1987 C1979 0.929 . S
H1988 C1996 0.929 . S
H1989 C1998 0.930 . S
H1990 C2000 0.930 . S
H1991 C2003 0.929 . S
H1992 C2006 0.930 . S
H1993 C2008 0.960 . S
H1994 C2008 0.960 . S
H1995 C2008 0.960 . S
C1996 H1988 0.929 . S
C1996 C1997 1.377 . S
C1996 C1998 1.384 . S
C1997 C1996 1.377 . S
C1997 C2003 1.390 . S
C1998 H1989 0.930 . S
C1998 C1996 1.384 . S
C1998 C1999 1.372 . S
C1999 C1998 1.372 . S
C1999 C2000 1.400 . S
C1999 C2004 1.490 . S
C2000 H1990 0.930 . S
C2000 C1999 1.400 . S
C2000 C2003 1.386 . S
H2001 C2017 0.930 . S
H2002 C2018 0.931 . S
C2003 H1991 0.929 . S
C2003 C1997 1.390 . S
C2003 C2000 1.386 . S
C2004 C1999 1.490 . S
C2004 C2006 1.395 . S
C2004 C2007 1.403 . S
H2005 C2011 0.930 . S
C2006 H1992 0.930 . S
C2006 C2004 1.395 . S
C2006 C2009 1.403 . S
C2007 C2004 1.403 . S
C2007 C2008 1.524 . S
C2007 C2011 1.400 . S
C2008 H1993 0.960 . S
C2008 H1994 0.960 . S
C2008 H1995 0.960 . S
C2008 C2007 1.524 . S
C2009 C2006 1.403 . S
C2009 C2010 1.392 . S
C2009 C2013 1.495 . S
C2010 C2009 1.392 . S
C2010 C2011 1.385 . S
C2010 C2012 1.478 . S
C2011 H2005 0.930 . S
C2011 C2007 1.400 . S
C2011 C2010 1.385 . S
C2012 C2010 1.478 . S
C2012 C2014 1.381 . S
C2012 C2018 1.383 . S
C2013 C2009 1.495 . S
C2013 H2019 0.959 . S
C2013 H2020 0.961 . S
C2013 H2021 0.960 . S
C2014 C2012 1.381 . S
C2014 C2015 1.394 . S
C2014 H2022 0.930 . S
C2015 C2014 1.394 . S
C2015 C2016 1.383 . S
C2015 H2023 0.929 . S
C2016 C2015 1.383 . S
C2016 C2017 1.377 . S
C2017 H2001 0.930 . S
C2017 C2016 1.377 . S
C2017 C2018 1.379 . S
C2018 H2002 0.931 . S
C2018 C2012 1.383 . S
C2018 C2017 1.379 . S
H2019 C2013 0.959 . S
H2020 C2013 0.961 . S
H2021 C2013 0.960 . S
H2022 C2014 0.930 . S
H2023 C2015 0.929 . S
H2024 C2032 0.929 . S
H2025 C2034 0.930 . S
H2026 C2036 0.930 . S
H2027 C2039 0.929 . S
H2028 C2042 0.930 . S
H2029 C2044 0.960 . S
H2030 C2044 0.960 . S
H2031 C2044 0.960 . S
C2032 H2024 0.929 . S
C2032 C2033 1.377 . S
C2032 C2034 1.384 . S
C2033 C2032 1.377 . S
C2033 C2039 1.390 . S
C2034 H2025 0.930 . S
C2034 C2032 1.384 . S
C2034 C2035 1.372 . S
C2035 C2034 1.372 . S
C2035 C2036 1.400 . S
C2035 C2040 1.490 . S
C2036 H2026 0.930 . S
C2036 C2035 1.400 . S
C2036 C2039 1.386 . S
H2037 C2053 0.930 . S
H2038 C2054 0.931 . S
C2039 H2027 0.929 . S
C2039 C2033 1.390 . S
C2039 C2036 1.386 . S
C2040 C2035 1.490 . S
C2040 C2042 1.395 . S
C2040 C2043 1.403 . S
H2041 C2047 0.930 . S
C2042 H2028 0.930 . S
C2042 C2040 1.395 . S
C2042 C2045 1.403 . S
C2043 C2040 1.403 . S
C2043 C2044 1.524 . S
C2043 C2047 1.400 . S
C2044 H2029 0.960 . S
C2044 H2030 0.960 . S
C2044 H2031 0.960 . S
C2044 C2043 1.524 . S
C2045 C2042 1.403 . S
C2045 C2046 1.392 . S
C2045 C2049 1.495 . S
C2046 C2045 1.392 . S
C2046 C2047 1.385 . S
C2046 C2048 1.478 . S
C2047 H2041 0.930 . S
C2047 C2043 1.400 . S
C2047 C2046 1.385 . S
C2048 C2046 1.478 . S
C2048 C2050 1.381 . S
C2048 C2054 1.383 . S
C2049 C2045 1.495 . S
C2049 H2055 0.959 . S
C2049 H2056 0.961 . S
C2049 H2057 0.960 . S
C2050 C2048 1.381 . S
C2050 C2051 1.394 . S
C2050 H2058 0.930 . S
C2051 C2050 1.394 . S
C2051 C2052 1.383 . S
C2051 H2059 0.929 . S
C2052 C2051 1.383 . S
C2052 C2053 1.377 . S
C2053 H2037 0.930 . S
C2053 C2052 1.377 . S
C2053 C2054 1.379 . S
C2054 H2038 0.931 . S
C2054 C2048 1.383 . S
C2054 C2053 1.379 . S
H2055 C2049 0.959 . S
H2056 C2049 0.961 . S
H2057 C2049 0.960 . S
H2058 C2050 0.930 . S
H2059 C2051 0.929 . S
H2060 C2068 0.929 . S
H2061 C2070 0.930 . S
H2062 C2072 0.930 . S
H2063 C2075 0.929 . S
H2064 C2078 0.930 . S
H2065 C2080 0.960 . S
H2066 C2080 0.960 . S
H2067 C2080 0.960 . S
C2068 H2060 0.929 . S
C2068 C2069 1.377 . S
C2068 C2070 1.384 . S
C2069 C2068 1.377 . S
C2069 C2075 1.390 . S
C2070 H2061 0.930 . S
C2070 C2068 1.384 . S
C2070 C2071 1.372 . S
C2071 C2070 1.372 . S
C2071 C2072 1.400 . S
C2071 C2076 1.490 . S
C2072 H2062 0.930 . S
C2072 C2071 1.400 . S
C2072 C2075 1.386 . S
H2073 C2089 0.930 . S
H2074 C2090 0.931 . S
C2075 H2063 0.929 . S
C2075 C2069 1.390 . S
C2075 C2072 1.386 . S
C2076 C2071 1.490 . S
C2076 C2078 1.395 . S
C2076 C2079 1.403 . S
H2077 C2083 0.930 . S
C2078 H2064 0.930 . S
C2078 C2076 1.395 . S
C2078 C2081 1.403 . S
C2079 C2076 1.403 . S
C2079 C2080 1.524 . S
C2079 C2083 1.400 . S
C2080 H2065 0.960 . S
C2080 H2066 0.960 . S
C2080 H2067 0.960 . S
C2080 C2079 1.524 . S
C2081 C2078 1.403 . S
C2081 C2082 1.392 . S
C2081 C2085 1.495 . S
C2082 C2081 1.392 . S
C2082 C2083 1.385 . S
C2082 C2084 1.478 . S
C2083 H2077 0.930 . S
C2083 C2079 1.400 . S
C2083 C2082 1.385 . S
C2084 C2082 1.478 . S
C2084 C2086 1.381 . S
C2084 C2090 1.383 . S
C2085 C2081 1.495 . S
C2085 H2091 0.959 . S
C2085 H2092 0.961 . S
C2085 H2093 0.960 . S
C2086 C2084 1.381 . S
C2086 C2087 1.394 . S
C2086 H2094 0.930 . S
C2087 C2086 1.394 . S
C2087 C2088 1.383 . S
C2087 H2095 0.929 . S
C2088 C2087 1.383 . S
C2088 C2089 1.377 . S
C2089 H2073 0.930 . S
C2089 C2088 1.377 . S
C2089 C2090 1.379 . S
C2090 H2074 0.931 . S
C2090 C2084 1.383 . S
C2090 C2089 1.379 . S
H2091 C2085 0.959 . S
H2092 C2085 0.961 . S
H2093 C2085 0.960 . S
H2094 C2086 0.930 . S
H2095 C2087 0.929 . S
C953 C890 1.099 . S
C972 C5 1.100 . S
C989 C713 1.035 . S
C1008 C64 1.055 . S
C1025 C123 1.489 . S
C1044 C772 1.458 . S
C1061 C831 1.330 . S
C1080 C182 1.367 . S
C1097 C536 1.038 . S
C1116 C241 1.057 . S
C1133 C300 1.453 . S
C1152 C595 1.491 . S
C1169 C359 1.322 . S
C1188 C654 1.352 . S
C1205 C418 1.099 . S
C1224 C477 1.107 . S
C1241 C347 2.363 . S
C1260 C33 2.323 . S
C1277 C357 1.118 . S
C1296 C62 1.114 . S
C1313 C465 1.560 . S
C1332 C151 1.534 . S
C1349 C180 1.562 . S
C1368 C269 1.610 . S
C1385 C52 1.437 . S
C1404 C111 1.436 . S
C1421 C121 1.156 . S
C1440 C92 1.163 . S
C1457 C170 1.302 . S
C1476 C229 1.294 . S
C1493 C3 1.127 . S
C1512 C210 1.146 . S
C1529 C446 1.053 . S
C1548 C288 1.041 . S
C1565 C239 1.883 . S
C1584 C298 1.871 . S
C1601 C328 1.251 . S
C1620 C387 1.265 . S
C1637 C416 2.150 . S
C1656 C406 2.168 . S
C1673 C819 2.365 . S
C1692 C505 2.310 . S
C1709 C534 1.114 . S
C1728 C829 1.105 . S
C1745 C937 1.557 . S
C1764 C623 1.554 . S
C1781 C741 1.601 . S
C1800 C652 1.563 . S
C1817 C524 1.439 . S
C1836 C583 1.413 . S
C1853 C564 1.185 . S
C1872 C593 1.117 . S
C1889 C701 1.298 . S
C1908 C642 1.292 . S
C1925 C475 1.127 . S
C1944 C682 1.142 . S
C1961 C918 1.046 . S
C1980 C760 1.026 . S
C1997 C711 1.890 . S
C2016 C770 1.859 . S
C2033 C800 1.250 . S
C2052 C859 1.223 . S
C2069 C888 2.145 . S
C2088 C878 2.175 . S
