# Generated by pormake.
# Topology vce, (5)-cn, num edge types: 1
# Building blocks:
#     Node 0, Type 0, BuildingBlock: XOMCOT_clean_sbu_1, # of connection points: 5
#     Node 1, Type 0, BuildingBlock: XOMCOT_clean_sbu_1, # of connection points: 5
#     Node 2, Type 0, BuildingBlock: XOMCOT_clean_sbu_1, # of connection points: 5
#     Node 3, Type 0, BuildingBlock: XOMCOT_clean_sbu_1, # of connection points: 5
#     Node 4, Type 0, BuildingBlock: XOMCOT_clean_sbu_1, # of connection points: 5
#     Node 5, Type 0, BuildingBlock: XOMCOT_clean_sbu_1, # of connection points: 5
#     Node 6, Type 0, BuildingBlock: XOMCOT_clean_sbu_1, # of connection points: 5
#     Node 7, Type 0, BuildingBlock: XOMCOT_clean_sbu_1, # of connection points: 5
#     Node 8, Type 0, BuildingBlock: XOMCOT_clean_sbu_1, # of connection points: 5
#     Node 9, Type 0, BuildingBlock: XOMCOT_clean_sbu_1, # of connection points: 5
#     Node 10, Type 0, BuildingBlock: XOMCOT_clean_sbu_1, # of connection points: 5
#     Node 11, Type 0, BuildingBlock: XOMCOT_clean_sbu_1, # of connection points: 5
#     Node 12, Type 0, BuildingBlock: XOMCOT_clean_sbu_1, # of connection points: 5
#     Node 13, Type 0, BuildingBlock: XOMCOT_clean_sbu_1, # of connection points: 5
#     Node 14, Type 0, BuildingBlock: XOMCOT_clean_sbu_1, # of connection points: 5
#     Node 15, Type 0, BuildingBlock: XOMCOT_clean_sbu_1, # of connection points: 5
#     Node 16, Type 0, BuildingBlock: XOMCOT_clean_sbu_1, # of connection points: 5
#     Node 17, Type 0, BuildingBlock: XOMCOT_clean_sbu_1, # of connection points: 5
#     Node 18, Type 0, BuildingBlock: XOMCOT_clean_sbu_1, # of connection points: 5
#     Node 19, Type 0, BuildingBlock: XOMCOT_clean_sbu_1, # of connection points: 5
#     Node 20, Type 0, BuildingBlock: XOMCOT_clean_sbu_1, # of connection points: 5
#     Node 21, Type 0, BuildingBlock: XOMCOT_clean_sbu_1, # of connection points: 5
#     Node 22, Type 0, BuildingBlock: XOMCOT_clean_sbu_1, # of connection points: 5
#     Node 23, Type 0, BuildingBlock: XOMCOT_clean_sbu_1, # of connection points: 5
#     Node 24, Type 0, BuildingBlock: XOMCOT_clean_sbu_1, # of connection points: 5
#     Node 25, Type 0, BuildingBlock: XOMCOT_clean_sbu_1, # of connection points: 5
#     Node 26, Type 0, BuildingBlock: XOMCOT_clean_sbu_1, # of connection points: 5
#     Node 27, Type 0, BuildingBlock: XOMCOT_clean_sbu_1, # of connection points: 5
#     Node 28, Type 0, BuildingBlock: XOMCOT_clean_sbu_1, # of connection points: 5
#     Node 29, Type 0, BuildingBlock: XOMCOT_clean_sbu_1, # of connection points: 5
#     Node 30, Type 0, BuildingBlock: XOMCOT_clean_sbu_1, # of connection points: 5
#     Node 31, Type 0, BuildingBlock: XOMCOT_clean_sbu_1, # of connection points: 5
#     Edge 32, Type (0, 0), BuildingBlock: ZUJKAS_clean_linker_0, # of connection points: 2
#     Edge 33, Type (0, 0), BuildingBlock: ZUJKAS_clean_linker_0, # of connection points: 2
#     Edge 34, Type (0, 0), BuildingBlock: ZUJKAS_clean_linker_0, # of connection points: 2
#     Edge 35, Type (0, 0), BuildingBlock: ZUJKAS_clean_linker_0, # of connection points: 2
#     Edge 36, Type (0, 0), BuildingBlock: ZUJKAS_clean_linker_0, # of connection points: 2
#     Edge 37, Type (0, 0), BuildingBlock: ZUJKAS_clean_linker_0, # of connection points: 2
#     Edge 38, Type (0, 0), BuildingBlock: ZUJKAS_clean_linker_0, # of connection points: 2
#     Edge 39, Type (0, 0), BuildingBlock: ZUJKAS_clean_linker_0, # of connection points: 2
#     Edge 40, Type (0, 0), BuildingBlock: ZUJKAS_clean_linker_0, # of connection points: 2
#     Edge 41, Type (0, 0), BuildingBlock: ZUJKAS_clean_linker_0, # of connection points: 2
#     Edge 42, Type (0, 0), BuildingBlock: ZUJKAS_clean_linker_0, # of connection points: 2
#     Edge 43, Type (0, 0), BuildingBlock: ZUJKAS_clean_linker_0, # of connection points: 2
#     Edge 44, Type (0, 0), BuildingBlock: ZUJKAS_clean_linker_0, # of connection points: 2
#     Edge 45, Type (0, 0), BuildingBlock: ZUJKAS_clean_linker_0, # of connection points: 2
#     Edge 46, Type (0, 0), BuildingBlock: ZUJKAS_clean_linker_0, # of connection points: 2
#     Edge 47, Type (0, 0), BuildingBlock: ZUJKAS_clean_linker_0, # of connection points: 2
#     Edge 48, Type (0, 0), BuildingBlock: ZUJKAS_clean_linker_0, # of connection points: 2
#     Edge 49, Type (0, 0), BuildingBlock: ZUJKAS_clean_linker_0, # of connection points: 2
#     Edge 50, Type (0, 0), BuildingBlock: ZUJKAS_clean_linker_0, # of connection points: 2
#     Edge 51, Type (0, 0), BuildingBlock: ZUJKAS_clean_linker_0, # of connection points: 2
#     Edge 52, Type (0, 0), BuildingBlock: ZUJKAS_clean_linker_0, # of connection points: 2
#     Edge 53, Type (0, 0), BuildingBlock: ZUJKAS_clean_linker_0, # of connection points: 2
#     Edge 54, Type (0, 0), BuildingBlock: ZUJKAS_clean_linker_0, # of connection points: 2
#     Edge 55, Type (0, 0), BuildingBlock: ZUJKAS_clean_linker_0, # of connection points: 2
#     Edge 56, Type (0, 0), BuildingBlock: ZUJKAS_clean_linker_0, # of connection points: 2
#     Edge 57, Type (0, 0), BuildingBlock: ZUJKAS_clean_linker_0, # of connection points: 2
#     Edge 58, Type (0, 0), BuildingBlock: ZUJKAS_clean_linker_0, # of connection points: 2
#     Edge 59, Type (0, 0), BuildingBlock: ZUJKAS_clean_linker_0, # of connection points: 2
#     Edge 60, Type (0, 0), BuildingBlock: ZUJKAS_clean_linker_0, # of connection points: 2
#     Edge 61, Type (0, 0), BuildingBlock: ZUJKAS_clean_linker_0, # of connection points: 2
#     Edge 62, Type (0, 0), BuildingBlock: ZUJKAS_clean_linker_0, # of connection points: 2
#     Edge 63, Type (0, 0), BuildingBlock: ZUJKAS_clean_linker_0, # of connection points: 2
#     Edge 64, Type (0, 0), BuildingBlock: ZUJKAS_clean_linker_0, # of connection points: 2
#     Edge 65, Type (0, 0), BuildingBlock: ZUJKAS_clean_linker_0, # of connection points: 2
#     Edge 66, Type (0, 0), BuildingBlock: ZUJKAS_clean_linker_0, # of connection points: 2
#     Edge 67, Type (0, 0), BuildingBlock: ZUJKAS_clean_linker_0, # of connection points: 2
#     Edge 68, Type (0, 0), BuildingBlock: ZUJKAS_clean_linker_0, # of connection points: 2
#     Edge 69, Type (0, 0), BuildingBlock: ZUJKAS_clean_linker_0, # of connection points: 2
#     Edge 70, Type (0, 0), BuildingBlock: ZUJKAS_clean_linker_0, # of connection points: 2
#     Edge 71, Type (0, 0), BuildingBlock: ZUJKAS_clean_linker_0, # of connection points: 2
#     Edge 72, Type (0, 0), BuildingBlock: ZUJKAS_clean_linker_0, # of connection points: 2
#     Edge 73, Type (0, 0), BuildingBlock: ZUJKAS_clean_linker_0, # of connection points: 2
#     Edge 74, Type (0, 0), BuildingBlock: ZUJKAS_clean_linker_0, # of connection points: 2
#     Edge 75, Type (0, 0), BuildingBlock: ZUJKAS_clean_linker_0, # of connection points: 2
#     Edge 76, Type (0, 0), BuildingBlock: ZUJKAS_clean_linker_0, # of connection points: 2
#     Edge 77, Type (0, 0), BuildingBlock: ZUJKAS_clean_linker_0, # of connection points: 2
#     Edge 78, Type (0, 0), BuildingBlock: ZUJKAS_clean_linker_0, # of connection points: 2
#     Edge 79, Type (0, 0), BuildingBlock: ZUJKAS_clean_linker_0, # of connection points: 2
#     Edge 80, Type (0, 0), BuildingBlock: ZUJKAS_clean_linker_0, # of connection points: 2
#     Edge 81, Type (0, 0), BuildingBlock: ZUJKAS_clean_linker_0, # of connection points: 2
#     Edge 82, Type (0, 0), BuildingBlock: ZUJKAS_clean_linker_0, # of connection points: 2
#     Edge 83, Type (0, 0), BuildingBlock: ZUJKAS_clean_linker_0, # of connection points: 2
#     Edge 84, Type (0, 0), BuildingBlock: ZUJKAS_clean_linker_0, # of connection points: 2
#     Edge 85, Type (0, 0), BuildingBlock: ZUJKAS_clean_linker_0, # of connection points: 2
#     Edge 86, Type (0, 0), BuildingBlock: ZUJKAS_clean_linker_0, # of connection points: 2
#     Edge 87, Type (0, 0), BuildingBlock: ZUJKAS_clean_linker_0, # of connection points: 2
#     Edge 88, Type (0, 0), BuildingBlock: ZUJKAS_clean_linker_0, # of connection points: 2
#     Edge 89, Type (0, 0), BuildingBlock: ZUJKAS_clean_linker_0, # of connection points: 2
#     Edge 90, Type (0, 0), BuildingBlock: ZUJKAS_clean_linker_0, # of connection points: 2
#     Edge 91, Type (0, 0), BuildingBlock: ZUJKAS_clean_linker_0, # of connection points: 2
#     Edge 92, Type (0, 0), BuildingBlock: ZUJKAS_clean_linker_0, # of connection points: 2
#     Edge 93, Type (0, 0), BuildingBlock: ZUJKAS_clean_linker_0, # of connection points: 2
#     Edge 94, Type (0, 0), BuildingBlock: ZUJKAS_clean_linker_0, # of connection points: 2
#     Edge 95, Type (0, 0), BuildingBlock: ZUJKAS_clean_linker_0, # of connection points: 2
#     Edge 96, Type (0, 0), BuildingBlock: ZUJKAS_clean_linker_0, # of connection points: 2
#     Edge 97, Type (0, 0), BuildingBlock: ZUJKAS_clean_linker_0, # of connection points: 2
#     Edge 98, Type (0, 0), BuildingBlock: ZUJKAS_clean_linker_0, # of connection points: 2
#     Edge 99, Type (0, 0), BuildingBlock: ZUJKAS_clean_linker_0, # of connection points: 2
#     Edge 100, Type (0, 0), BuildingBlock: ZUJKAS_clean_linker_0, # of connection points: 2
#     Edge 101, Type (0, 0), BuildingBlock: ZUJKAS_clean_linker_0, # of connection points: 2
#     Edge 102, Type (0, 0), BuildingBlock: ZUJKAS_clean_linker_0, # of connection points: 2
#     Edge 103, Type (0, 0), BuildingBlock: ZUJKAS_clean_linker_0, # of connection points: 2
#     Edge 104, Type (0, 0), BuildingBlock: ZUJKAS_clean_linker_0, # of connection points: 2
#     Edge 105, Type (0, 0), BuildingBlock: ZUJKAS_clean_linker_0, # of connection points: 2
#     Edge 106, Type (0, 0), BuildingBlock: ZUJKAS_clean_linker_0, # of connection points: 2
#     Edge 107, Type (0, 0), BuildingBlock: ZUJKAS_clean_linker_0, # of connection points: 2
#     Edge 108, Type (0, 0), BuildingBlock: ZUJKAS_clean_linker_0, # of connection points: 2
#     Edge 109, Type (0, 0), BuildingBlock: ZUJKAS_clean_linker_0, # of connection points: 2
#     Edge 110, Type (0, 0), BuildingBlock: ZUJKAS_clean_linker_0, # of connection points: 2
#     Edge 111, Type (0, 0), BuildingBlock: ZUJKAS_clean_linker_0, # of connection points: 2
# Relax obj value: 0.150
# Max RMSD: 0.173
# Mean RMSD: 0.173
data_MOF--net-vce--node1-XOMCOT_clean_sbu_1--edge1-ZUJKAS_clean_linker_0
_symmetry_space_group_name_H-M    P1
_symmetry_Int_Tables_number       1
_symmetry_cell_setting            triclinic
loop_
_symmetry_equiv_pos_as_xyz
'x, y, z'
_cell_length_a     60.314581
_cell_length_b     157.67071
_cell_length_c     34.439992
_cell_angle_alpha  89.969045
_cell_angle_beta   90.054172
_cell_angle_gamma 90.046399
loop_
_atom_site_label
_atom_site_type_symbol
_atom_site_fract_x
_atom_site_fract_y
_atom_site_fract_z
_atom_type_partial_charge
C0 C 0.03364 0.24166 0.42102 0.0
C1 C 0.02873 0.24973 0.40896 0.0
N2 N 0.02495 0.24961 0.37039 0.0
N3 N 0.03324 0.23634 0.39034 0.0
C4 C 0.02809 0.24142 0.35975 0.0
H5 H 0.03665 0.23982 0.45074 0.0
Co6 Co 0.0363 0.22438 0.39262 0.0
C7 C 0.07841 0.22553 0.34754 0.0
O8 O 0.09144 0.22537 0.37811 0.0
N9 N 0.03915 0.21248 0.39541 0.0
C10 C 0.02943 0.19909 0.4059 0.0
C11 C 0.02211 0.20732 0.40453 0.0
C12 C 0.05681 0.20722 0.39177 0.0
N13 N 0.05133 0.19898 0.39806 0.0
O14 O 0.05816 0.22543 0.43259 0.0
H15 H 0.00536 0.20944 0.41 0.0
H16 H 0.07343 0.20941 0.38568 0.0
O17 O 0.05749 0.22503 0.35145 0.0
C18 C 0.04832 0.22392 0.46465 0.0
O19 O 0.02687 0.22243 0.46374 0.0
N20 N 0.01361 0.22307 0.35654 0.0
C21 C 0.97523 0.217 0.32209 0.0
C22 C -0.00399 0.2147 0.30729 0.0
C23 C 0.01519 0.21793 0.32472 0.0
C24 C 0.99355 0.22583 0.36941 0.0
C25 C 0.97412 0.22299 0.35209 0.0
H26 H 0.03113 0.21556 0.31543 0.0
H27 H 0.99255 0.22964 0.39543 0.0
H28 H 0.02564 0.23905 0.33057 0.0
H29 H 0.02773 0.25525 0.42754 0.0
H30 H 0.01923 0.1936 0.412 0.0
H31 H -0.0026 0.21001 0.28449 0.0
H32 H 0.95838 0.22477 0.36485 0.0
C33 C 0.1911 0.08002 0.40603 0.0
C34 C 0.19473 0.07176 0.39503 0.0
N35 N 0.20078 0.07167 0.35741 0.0
N36 N 0.19463 0.08521 0.3755 0.0
C37 C 0.20045 0.07991 0.34619 0.0
H38 H 0.18697 0.08206 0.43504 0.0
Co39 Co 0.19424 0.09724 0.37624 0.0
C40 C 0.16647 0.10183 0.30582 0.0
O41 O 0.17065 0.10999 0.30752 0.0
N42 N 0.19399 0.10933 0.37825 0.0
C43 C 0.20558 0.12272 0.38261 0.0
C44 C 0.21206 0.11439 0.37958 0.0
C45 C 0.17672 0.11477 0.38275 0.0
N46 N 0.18329 0.12299 0.38428 0.0
O47 O 0.16956 0.09705 0.41099 0.0
H48 H 0.22902 0.1122 0.37892 0.0
H49 H 0.15957 0.11275 0.38354 0.0
O50 O 0.17491 0.09676 0.3307 0.0
C51 C 0.17747 0.09852 0.4447 0.0
O52 O 0.19899 0.09969 0.44797 0.0
N53 N 0.21986 0.09743 0.34581 0.0
C54 C 0.26279 0.0998 0.31916 0.0
C55 C 0.24483 0.103 0.29794 0.0
C56 C 0.22324 0.10161 0.31151 0.0
C57 C 0.23723 0.09405 0.36579 0.0
C58 C 0.25878 0.09501 0.35256 0.0
H59 H 0.20966 0.1045 0.29623 0.0
H60 H 0.23442 0.09102 0.39354 0.0
H61 H 0.20498 0.08208 0.31745 0.0
H62 H 0.19405 0.06627 0.41392 0.0
H63 H 0.21653 0.12815 0.38406 0.0
H64 H 0.24752 0.10687 0.27239 0.0
H65 H 0.27235 0.09263 0.37011 0.0
C66 C 0.04794 0.07513 0.84723 0.0
C67 C 0.04366 0.06696 0.85863 0.0
N68 N 0.03526 0.0671 0.89482 0.0
N69 N 0.04245 0.08055 0.87601 0.0
C70 C 0.03507 0.07541 0.90496 0.0
H71 H 0.05402 0.07691 0.81895 0.0
Co72 Co 0.04229 0.09262 0.87256 0.0
C73 C 0.07045 0.09819 0.94116 0.0
O74 O 0.06585 0.10628 0.93768 0.0
N75 N 0.04189 0.10466 0.86752 0.0
C76 C 0.02941 0.11784 0.85974 0.0
C77 C 0.02349 0.10949 0.8642 0.0
C78 C 0.05881 0.11024 0.86247 0.0
N79 N 0.0517 0.11836 0.85914 0.0
O80 O 0.06672 0.09232 0.83734 0.0
H81 H 0.00669 0.10711 0.86471 0.0
H82 H 0.0761 0.1084 0.86293 0.0
O83 O 0.062 0.09278 0.91782 0.0
C84 C 0.05824 0.09305 0.80352 0.0
O85 O 0.03654 0.09353 0.80064 0.0
N86 N 0.01689 0.093 0.90352 0.0
C87 C 0.97415 0.09668 0.92783 0.0
C88 C 0.99239 0.09971 0.94886 0.0
C89 C 0.01383 0.09768 0.93649 0.0
C90 C -0.00074 0.08956 0.88446 0.0
C91 C 0.97775 0.09119 0.89656 0.0
H92 H 0.02761 0.10057 0.95117 0.0
H93 H 0.00187 0.0861 0.85775 0.0
H94 H 0.02853 0.07775 0.93216 0.0
H95 H 0.04618 0.06135 0.84109 0.0
H96 H 0.01807 0.12312 0.8569 0.0
H97 H 0.99011 0.10406 0.97288 0.0
H98 H 0.96407 0.08887 0.87912 0.0
C99 C 0.17899 0.23897 0.86619 0.0
C100 C 0.18338 0.24716 0.87758 0.0
N101 N 0.19216 0.247 0.91357 0.0
N102 N 0.18478 0.23357 0.89483 0.0
C103 C 0.1925 0.23869 0.92356 0.0
H104 H 0.17286 0.23712 0.83798 0.0
Co105 Co 0.18584 0.22159 0.89097 0.0
C106 C 0.16482 0.21506 0.96417 0.0
O107 O 0.17348 0.20749 0.95979 0.0
N108 N 0.18714 0.20955 0.88586 0.0
C109 C 0.19968 0.19641 0.87693 0.0
C110 C 0.20557 0.20474 0.88261 0.0
C111 C 0.17023 0.20395 0.88099 0.0
N112 N 0.17739 0.19588 0.87597 0.0
O113 O 0.15935 0.22165 0.8603 0.0
H114 H 0.22238 0.2071 0.88386 0.0
H115 H 0.15295 0.20578 0.88122 0.0
O116 O 0.16881 0.2209 0.93933 0.0
C117 C 0.16533 0.22043 0.82521 0.0
O118 O 0.1866 0.21958 0.81781 0.0
N119 N 0.213 0.2217 0.91672 0.0
C120 C 0.25734 0.22212 0.9383 0.0
C121 C 0.24122 0.21923 0.96447 0.0
C122 C 0.21891 0.21915 0.95322 0.0
C123 C 0.2285 0.22463 0.89136 0.0
C124 C 0.2507 0.22496 0.9016 0.0
H125 H 0.20682 0.21691 0.97365 0.0
H126 H 0.2235 0.22655 0.86249 0.0
H127 H 0.19952 0.23631 0.95035 0.0
H128 H 0.18079 0.25277 0.86008 0.0
H129 H 0.21106 0.19115 0.87422 0.0
H130 H 0.24587 0.21696 0.99303 0.0
H131 H 0.26269 0.22707 0.88027 0.0
C132 C 0.97483 0.83322 0.60518 0.0
C133 C 0.98498 0.82575 0.61564 0.0
N134 N 0.97209 0.82176 0.6419 0.0
N135 N 0.95554 0.83398 0.62465 0.0
C136 C 0.95433 0.8269 0.64682 0.0
H137 H 0.98117 0.83785 0.58484 0.0
Co138 Co 0.93559 0.8431 0.62028 0.0
C139 C 0.91977 0.84589 0.69926 0.0
O140 O 0.92311 0.85403 0.6935 0.0
N141 N 0.91465 0.85225 0.61578 0.0
C142 C 0.88123 0.85835 0.61425 0.0
C143 C 0.89252 0.85084 0.6173 0.0
C144 C 0.91618 0.86084 0.61237 0.0
N145 N 0.89611 0.86466 0.6112 0.0
O146 O 0.91455 0.83572 0.59616 0.0
H147 H 0.88485 0.84471 0.62161 0.0
H148 H 0.9315 0.86435 0.61137 0.0
O149 O 0.92408 0.84062 0.67214 0.0
C150 C 0.92055 0.8348 0.56094 0.0
O151 O 0.93904 0.83842 0.54947 0.0
N152 N 0.95783 0.85025 0.63903 0.0
C153 C -7e-05 0.85742 0.64621 0.0
C154 C 0.9909 0.8525 0.67643 0.0
C155 C 0.9698 0.84892 0.67219 0.0
C156 C 0.9662 0.85514 0.60999 0.0
C157 C 0.98665 0.8591 0.61369 0.0
H158 H 0.96422 0.8444 0.69364 0.0
H159 H 0.95757 0.85551 0.58249 0.0
H160 H 0.94059 0.82549 0.66593 0.0
H161 H 0.00087 0.82352 0.60528 0.0
H162 H 0.86342 0.85913 0.61551 0.0
H163 H 0.00072 0.85079 0.70158 0.0
H164 H 0.99265 0.86292 0.58977 0.0
C165 C 0.79138 0.99046 0.58247 0.0
C166 C 0.78786 0.99858 0.59556 0.0
N167 N 0.7851 0.99832 0.63434 0.0
N168 N 0.79102 0.98504 0.61279 0.0
C169 C 0.78726 0.99004 0.64408 0.0
H170 H 0.79312 0.98866 0.5524 0.0
Co171 Co 0.79226 0.97312 0.61019 0.0
C172 C 0.83412 0.97339 0.65649 0.0
O173 O 0.8473 0.97317 0.62618 0.0
N174 N 0.79336 0.96123 0.60705 0.0
C175 C 0.78212 0.94807 0.59531 0.0
C176 C 0.77574 0.95641 0.5974 0.0
C177 C 0.81039 0.95568 0.61036 0.0
N178 N 0.80398 0.94759 0.60327 0.0
O179 O 0.81458 0.97376 0.57098 0.0
H180 H 0.75927 0.95885 0.59186 0.0
H181 H 0.82727 0.95756 0.61651 0.0
O182 O 0.81318 0.97322 0.6521 0.0
C183 C 0.8049 0.97253 0.53851 0.0
O184 O 0.78325 0.97156 0.53851 0.0
N185 N 0.76906 0.97226 0.64559 0.0
C186 C 0.72957 0.96732 0.67987 0.0
C187 C 0.74982 0.96439 0.69465 0.0
C188 C 0.76959 0.96705 0.67731 0.0
C189 C 0.74961 0.9756 0.63266 0.0
C190 C 0.72966 0.97333 0.64993 0.0
H191 H 0.78502 0.96423 0.68669 0.0
H192 H 0.74938 0.97947 0.60673 0.0
H193 H 0.78541 0.98761 0.67328 0.0
H194 H 0.78625 1.00417 0.57754 0.0
H195 H 0.7714 0.94278 0.58845 0.0
H196 H 0.75025 0.95964 0.71737 0.0
H197 H 0.71431 0.97559 0.63721 0.0
C198 C 0.93528 0.98549 0.13836 0.0
C199 C 0.93924 0.99373 0.12752 0.0
N200 N 0.94806 0.99374 0.0916 0.0
N201 N 0.94137 0.98021 0.10944 0.0
C202 C 0.94886 0.98547 0.08106 0.0
H203 H 0.92917 0.98353 0.16641 0.0
Co204 Co 0.94257 0.96821 0.11296 0.0
C205 C 0.92006 0.9619 0.04 0.0
O206 O 0.92678 0.95407 0.04493 0.0
N207 N 0.94396 0.95618 0.11804 0.0
C208 C 0.95682 0.94314 0.12838 0.0
C209 C 0.96249 0.95149 0.12278 0.0
C210 C 0.92718 0.95052 0.12266 0.0
N211 N 0.93455 0.9425 0.12809 0.0
O212 O 0.91624 0.96822 0.14398 0.0
H213 H 0.9792 0.95397 0.12311 0.0
H214 H 0.90984 0.95225 0.12108 0.0
O215 O 0.92541 0.96765 0.06453 0.0
C216 C 0.9226 0.96697 0.17889 0.0
O217 O 0.94397 0.96617 0.18563 0.0
N218 N 0.96966 0.96829 0.0867 0.0
C219 C 0.01414 0.96643 0.06825 0.0
C220 C -0.00219 0.96307 0.04376 0.0
C221 C 0.97543 0.9642 0.05322 0.0
C222 C 0.98544 0.9719 0.10968 0.0
C223 C 0.00775 0.97118 0.10064 0.0
H224 H 0.96317 0.96122 0.0352 0.0
H225 H 0.98068 0.97491 0.13662 0.0
H226 H 0.95602 0.98322 0.05416 0.0
H227 H 0.93631 0.99927 0.1453 0.0
H228 H 0.96828 0.93796 0.13321 0.0
H229 H 0.00231 0.95928 0.01876 0.0
H230 H 0.01996 0.97371 0.12064 0.0
C231 C 0.79562 0.82267 0.15856 0.0
C232 C 0.79199 0.81455 0.14551 0.0
N233 N 0.78881 0.81481 0.10682 0.0
N234 N 0.79495 0.82809 0.12829 0.0
C235 C 0.79083 0.8231 0.09708 0.0
H236 H 0.79758 0.82447 0.1886 0.0
Co237 Co 0.79595 0.84003 0.13124 0.0
C238 C 0.82677 0.84516 0.06583 0.0
O239 O 0.822 0.85326 0.0681 0.0
N240 N 0.79658 0.85205 0.13558 0.0
C241 C 0.78517 0.86542 0.14096 0.0
C242 C 0.77864 0.85717 0.13533 0.0
C243 C 0.81376 0.85736 0.14325 0.0
N244 N 0.80733 0.86558 0.14566 0.0
O245 O 0.81902 0.83927 0.16917 0.0
H246 H 0.76172 0.85507 0.13142 0.0
H247 H 0.83074 0.85524 0.14629 0.0
O248 O 0.81744 0.83984 0.08856 0.0
C249 C 0.81058 0.84052 0.20263 0.0
O250 O 0.78936 0.84237 0.2047 0.0
N251 N 0.77184 0.84064 0.09726 0.0
C252 C 0.73067 0.84255 0.06207 0.0
C253 C 0.74983 0.84563 0.04386 0.0
C254 C 0.77046 0.84453 0.06184 0.0
C255 C 0.75338 0.83747 0.11471 0.0
C256 C 0.73271 0.83823 0.0974 0.0
H257 H 0.78486 0.84722 0.04825 0.0
H258 H 0.75464 0.83463 0.14323 0.0
H259 H 0.78859 0.82554 0.06797 0.0
H260 H 0.79057 0.80895 0.16353 0.0
H261 H 0.77439 0.8709 0.14065 0.0
H262 H 0.74875 0.84911 0.01679 0.0
H263 H 0.71825 0.83595 0.11288 0.0
C264 C 0.04535 0.74091 0.9125 0.0
C265 C 0.04121 0.7489 0.8985 0.0
N266 N 0.0371 0.74835 0.86016 0.0
N267 N 0.04404 0.73524 0.88323 0.0
C268 C 0.03923 0.74001 0.85147 0.0
H269 H 0.04812 0.73938 0.94263 0.0
Co270 Co 0.04454 0.7233 0.88905 0.0
C271 C 0.07476 0.71732 0.82392 0.0
O272 O 0.07097 0.70922 0.82944 0.0
N273 N 0.04463 0.71135 0.89658 0.0
C274 C 0.03278 0.69816 0.90701 0.0
C275 C 0.02647 0.70638 0.89964 0.0
C276 C 0.06173 0.70604 0.9045 0.0
N277 N 0.05504 0.69791 0.90972 0.0
O278 O 0.06818 0.7242 0.92593 0.0
H279 H 0.00955 0.70855 0.89682 0.0
H280 H 0.07886 0.70808 0.90568 0.0
O281 O 0.06527 0.72288 0.84519 0.0
C282 C 0.05931 0.7236 0.95946 0.0
O283 O 0.03761 0.72288 0.96146 0.0
N284 N 0.01994 0.7224 0.85624 0.0
C285 C 0.97809 0.71823 0.82876 0.0
C286 C -0.00297 0.71502 0.8104 0.0
C287 C 0.01801 0.7173 0.82431 0.0
C288 C 0.00168 0.72599 0.87261 0.0
C289 C 0.98061 0.72411 0.85887 0.0
H290 H 0.03229 0.71428 0.81186 0.0
H291 H 0.00337 0.72979 0.89858 0.0
H292 H 0.03593 0.73735 0.82307 0.0
H293 H 0.04067 0.75465 0.91558 0.0
H294 H 0.02178 0.69276 0.90921 0.0
H295 H -0.00441 0.71038 0.78736 0.0
H296 H 0.96636 0.72658 0.8743 0.0
C297 C 0.18414 0.57732 0.9038 0.0
C298 C 0.18795 0.56929 0.88968 0.0
N299 N 0.19398 0.56991 0.85211 0.0
N300 N 0.18761 0.58303 0.87532 0.0
C301 C 0.19341 0.57831 0.84403 0.0
H302 H 0.18005 0.57887 0.93349 0.0
Co303 Co 0.18848 0.59487 0.88137 0.0
C304 C 0.1689 0.60185 0.80752 0.0
O305 O 0.17736 0.60942 0.81311 0.0
N306 N 0.18955 0.60683 0.88847 0.0
C307 C 0.20171 0.61987 0.90106 0.0
C308 C 0.20782 0.6116 0.89465 0.0
C309 C 0.17248 0.61237 0.89232 0.0
N310 N 0.17944 0.62038 0.89952 0.0
O311 O 0.1614 0.59448 0.91041 0.0
H312 H 0.22464 0.60925 0.895 0.0
H313 H 0.15525 0.61053 0.88989 0.0
O314 O 0.17243 0.59592 0.83213 0.0
C315 C 0.1668 0.59545 0.94599 0.0
O316 O 0.1879 0.59637 0.95466 0.0
N317 N 0.21618 0.595 0.85752 0.0
C318 C 0.26119 0.59537 0.84067 0.0
C319 C 0.24571 0.59842 0.81363 0.0
C320 C 0.22306 0.59809 0.82247 0.0
C321 C 0.23104 0.59183 0.88346 0.0
C322 C 0.25356 0.59188 0.87555 0.0
H323 H 0.21148 0.60054 0.8016 0.0
H324 H 0.22531 0.5895 0.91124 0.0
H325 H 0.19843 0.58103 0.81655 0.0
H326 H 0.18689 0.56347 0.90622 0.0
H327 H 0.21292 0.62512 0.90607 0.0
H328 H 0.25109 0.60116 0.78638 0.0
H329 H 0.26498 0.58962 0.89753 0.0
C330 C 0.04015 0.57139 0.35655 0.0
C331 C 0.03683 0.56345 0.37185 0.0
N332 N 0.03248 0.56423 0.40999 0.0
N333 N 0.03811 0.57727 0.38482 0.0
C334 C 0.03344 0.57267 0.41719 0.0
H335 H 0.04325 0.57273 0.32631 0.0
Co336 Co 0.03965 0.58921 0.37848 0.0
C337 C 0.0817 0.58925 0.42402 0.0
O338 O 0.09465 0.58872 0.39348 0.0
N339 N 0.04115 0.60107 0.37189 0.0
C340 C 0.03041 0.61417 0.35741 0.0
C341 C 0.0238 0.60585 0.3606 0.0
C342 C 0.05825 0.60662 0.375 0.0
N343 N 0.05215 0.61468 0.36632 0.0
O344 O 0.06173 0.58798 0.33895 0.0
H345 H 0.00733 0.60343 0.35504 0.0
H346 H 0.07493 0.60475 0.38255 0.0
O347 O 0.06076 0.58961 0.42 0.0
C348 C 0.05155 0.58869 0.30659 0.0
O349 O 0.02986 0.58953 0.30734 0.0
N350 N 0.01664 0.59066 0.4138 0.0
C351 C 0.97731 0.59652 0.44548 0.0
C352 C -0.00231 0.59949 0.45963 0.0
C353 C 0.01736 0.59636 0.44367 0.0
C354 C -0.00297 0.58729 0.40175 0.0
C355 C 0.97715 0.59001 0.41779 0.0
H356 H 0.03293 0.5992 0.45226 0.0
H357 H -0.00333 0.58303 0.37717 0.0
H358 H 0.03044 0.57548 0.44538 0.0
H359 H 0.03673 0.55756 0.35572 0.0
H360 H 0.01982 0.61942 0.34941 0.0
H361 H -0.00167 0.6046 0.48061 0.0
H362 H 0.96173 0.5877 0.40557 0.0
C363 C 0.19845 0.73402 0.35924 0.0
C364 C 0.20363 0.74205 0.3718 0.0
N365 N 0.20782 0.74175 0.4102 0.0
N366 N 0.19916 0.72859 0.3895 0.0
C367 C 0.20475 0.73353 0.42031 0.0
H368 H 0.1953 0.73227 0.32946 0.0
Co369 Co 0.19692 0.71663 0.38615 0.0
C370 C 0.16876 0.71193 0.456 0.0
O371 O 0.17163 0.70371 0.45265 0.0
N372 N 0.19495 0.7046 0.38136 0.0
C373 C 0.20519 0.6912 0.37173 0.0
C374 C 0.21248 0.69937 0.37711 0.0
C375 C 0.17709 0.69945 0.37648 0.0
N376 N 0.18286 0.69121 0.37149 0.0
O377 O 0.17216 0.71773 0.35175 0.0
H378 H 0.22965 0.70134 0.3774 0.0
H379 H 0.16016 0.70172 0.37667 0.0
O380 O 0.17785 0.71702 0.43197 0.0
C381 C 0.17969 0.71658 0.31753 0.0
O382 O 0.20096 0.71495 0.31364 0.0
N383 N 0.22259 0.71558 0.41624 0.0
C384 C 0.26528 0.71182 0.44092 0.0
C385 C 0.24697 0.70871 0.46151 0.0
C386 C 0.22553 0.7108 0.44898 0.0
C387 C 0.24033 0.71889 0.39707 0.0
C388 C 0.26178 0.71724 0.40938 0.0
H389 H 0.21162 0.70795 0.46352 0.0
H390 H 0.23786 0.72237 0.37036 0.0
H391 H 0.20781 0.73103 0.44911 0.0
H392 H 0.2047 0.74765 0.35371 0.0
H393 H 0.21567 0.68568 0.36872 0.0
H394 H 0.24919 0.70437 0.48559 0.0
H395 H 0.27554 0.71958 0.39219 0.0
C396 C 0.93598 0.32874 0.09808 0.0
C397 C 0.94063 0.32066 0.11052 0.0
N398 N 0.94707 0.321 0.14797 0.0
N399 N 0.93924 0.33424 0.1275 0.0
C400 C 0.94587 0.32932 0.15769 0.0
H401 H 0.93139 0.3305 0.06885 0.0
Co402 Co 0.93836 0.34613 0.12243 0.0
C403 C 0.91657 0.35228 0.19628 0.0
O404 O 0.92087 0.36031 0.18959 0.0
N405 N 0.93772 0.35814 0.11562 0.0
C406 C 0.94875 0.37122 0.10061 0.0
C407 C 0.95552 0.36306 0.10793 0.0
C408 C 0.92019 0.36347 0.1113 0.0
N409 N 0.92648 0.3715 0.10276 0.0
O410 O 0.91107 0.3452 0.0944 0.0
H411 H 0.97247 0.36087 0.10663 0.0
H412 H 0.90311 0.36145 0.11396 0.0
O413 O 0.92271 0.3466 0.17212 0.0
C414 C 0.91469 0.34667 0.05856 0.0
O415 O 0.93491 0.34857 0.04735 0.0
N416 N 0.96608 0.34687 0.14638 0.0
C417 C 0.01052 0.34962 0.16288 0.0
C418 C 0.99412 0.35298 0.18712 0.0
C419 C 0.9718 0.35142 0.17864 0.0
C420 C 0.98196 0.34331 0.12354 0.0
C421 C 0.00429 0.34449 0.13162 0.0
H422 H 0.95943 0.35442 0.19634 0.0
H423 H 0.97723 0.33994 0.09746 0.0
H424 H 0.95092 0.33185 0.18552 0.0
H425 H 0.93974 0.31498 0.09292 0.0
H426 H 0.95952 0.37653 0.09422 0.0
H427 H -0.00151 0.35706 0.21124 0.0
H428 H 0.01655 0.34194 0.11184 0.0
C429 C 0.79494 0.49218 0.07888 0.0
C430 C 0.79109 0.50018 0.09309 0.0
N431 N 0.78549 0.49955 0.13084 0.0
N432 N 0.79197 0.48642 0.1074 0.0
C433 C 0.78648 0.49114 0.13893 0.0
H434 H 0.79888 0.49073 0.04906 0.0
Co435 Co 0.79205 0.47445 0.10147 0.0
C436 C 0.82169 0.46833 0.16753 0.0
O437 O 0.81738 0.46026 0.16232 0.0
N438 N 0.79181 0.46249 0.09412 0.0
C439 C 0.7796 0.44932 0.08447 0.0
C440 C 0.77351 0.45759 0.09103 0.0
C441 C 0.80879 0.45706 0.08702 0.0
N442 N 0.80187 0.44895 0.08232 0.0
O443 O 0.81561 0.47524 0.06403 0.0
H444 H 0.75666 0.45985 0.09346 0.0
H445 H 0.82599 0.45902 0.08625 0.0
O446 O 0.81279 0.47394 0.14563 0.0
C447 C 0.80609 0.47466 0.03095 0.0
O448 O 0.78433 0.47407 0.0303 0.0
N449 N 0.76738 0.47365 0.13417 0.0
C450 C 0.72528 0.46969 0.1612 0.0
C451 C 0.74408 0.46648 0.18008 0.0
C452 C 0.76517 0.46864 0.16636 0.0
C453 C 0.74926 0.47724 0.11725 0.0
C454 C 0.72808 0.47546 0.13071 0.0
H455 H 0.77931 0.46562 0.17934 0.0
H456 H 0.75116 0.48097 0.09111 0.0
H457 H 0.78206 0.48842 0.16671 0.0
H458 H 0.79194 0.50599 0.07648 0.0
H459 H 0.76843 0.44396 0.08256 0.0
H460 H 0.74244 0.46193 0.20349 0.0
H461 H 0.71396 0.47794 0.11489 0.0
C462 C 0.96496 0.47796 0.6512 0.0
C463 C 0.97177 0.48628 0.64885 0.0
N464 N 0.96248 0.48983 0.61715 0.0
N465 N 0.95147 0.47619 0.62101 0.0
C466 C 0.94988 0.48362 0.6013 0.0
H467 H 0.97063 0.47334 0.6722 0.0
Co468 Co 0.9417 0.46517 0.60711 0.0
C469 C 0.93838 0.4697 0.52169 0.0
O470 O 0.95801 0.46658 0.51379 0.0
N471 N 0.93132 0.45409 0.59266 0.0
C472 C 0.92731 0.44221 0.55836 0.0
C473 C 0.9359 0.45024 0.55856 0.0
C474 C 0.91966 0.44814 0.61276 0.0
N475 N 0.91718 0.44082 0.59252 0.0
O476 O 0.91384 0.4676 0.63151 0.0
H477 H 0.94582 0.45285 0.53561 0.0
H478 H 0.91378 0.44902 0.64212 0.0
O479 O 0.93085 0.46945 0.55646 0.0
C480 C 0.9185 0.46577 0.66678 0.0
O481 O 0.93756 0.46203 0.67393 0.0
N482 N 0.9709 0.46254 0.59013 0.0
C483 C 0.01642 0.46041 0.60186 0.0
C484 C 0.00839 0.46746 0.58141 0.0
C485 C 0.98556 0.46842 0.57599 0.0
C486 C 0.97882 0.45534 0.60739 0.0
C487 C 0.00142 0.45406 0.61261 0.0
H488 H 0.97974 0.47432 0.5638 0.0
H489 H 0.9677 0.45092 0.62131 0.0
H490 H 0.94119 0.4843 0.57402 0.0
H491 H 0.98343 0.48936 0.66816 0.0
H492 H 0.92866 0.43769 0.53482 0.0
H493 H 0.01935 0.47257 0.57291 0.0
H494 H 0.00692 0.44846 0.6281 0.0
C495 C 0.79157 0.31871 0.65144 0.0
C496 C 0.7877 0.31054 0.63919 0.0
N497 N 0.7849 0.31059 0.60034 0.0
N498 N 0.79143 0.32397 0.62058 0.0
C499 C 0.78759 0.31881 0.58976 0.0
H500 H 0.79346 0.32067 0.68129 0.0
Co501 Co 0.79229 0.33593 0.62257 0.0
C502 C 0.8353 0.33605 0.58 0.0
O503 O 0.84765 0.33662 0.61133 0.0
N504 N 0.79285 0.34788 0.62497 0.0
C505 C 0.78048 0.36098 0.63479 0.0
C506 C 0.77465 0.35258 0.63214 0.0
C507 C 0.80967 0.35359 0.62364 0.0
N508 N 0.80256 0.36165 0.62964 0.0
O509 O 0.81373 0.3355 0.66341 0.0
H510 H 0.75814 0.35002 0.63578 0.0
H511 H 0.82686 0.35186 0.61971 0.0
O512 O 0.81428 0.33586 0.58262 0.0
C513 C 0.80413 0.33725 0.69538 0.0
O514 O 0.78261 0.33858 0.69509 0.0
N515 N 0.77004 0.33654 0.58531 0.0
C516 C 0.73171 0.3401 0.54381 0.0
C517 C 0.75231 0.34304 0.53058 0.0
C518 C 0.77146 0.34114 0.55178 0.0
C519 C 0.75033 0.3333 0.59747 0.0
C520 C 0.73101 0.33489 0.57683 0.0
H521 H 0.78704 0.34394 0.54301 0.0
H522 H 0.74942 0.32992 0.62477 0.0
H523 H 0.78544 0.32113 0.56043 0.0
H524 H 0.7865 0.30503 0.6578 0.0
H525 H 0.76921 0.36618 0.64007 0.0
H526 H 0.75341 0.34717 0.50552 0.0
H527 H 0.7154 0.33268 0.58866 0.0
C528 C 0.53243 0.23606 0.88293 0.0
C529 C 0.52558 0.24431 0.87743 0.0
N530 N 0.53529 0.24735 0.84503 0.0
N531 N 0.5464 0.23386 0.85409 0.0
C532 C 0.54821 0.24095 0.83204 0.0
H533 H 0.52638 0.23176 0.90495 0.0
Co534 Co 0.55679 0.22277 0.84381 0.0
C535 C 0.55809 0.22646 0.75725 0.0
O536 O 0.53795 0.22368 0.75074 0.0
N537 N 0.56783 0.21175 0.833 0.0
C538 C 0.57381 0.19953 0.80253 0.0
C539 C 0.56523 0.20753 0.79916 0.0
C540 C 0.57825 0.20611 0.85654 0.0
N541 N 0.58189 0.19859 0.83868 0.0
O542 O 0.58497 0.22587 0.86495 0.0
H543 H 0.55675 0.20992 0.77391 0.0
H544 H 0.58222 0.20735 0.88664 0.0
O545 O 0.56645 0.22622 0.79141 0.0
C546 C 0.58209 0.22506 0.90148 0.0
O547 O 0.56294 0.22219 0.9141 0.0
N548 N 0.52752 0.21942 0.82915 0.0
C549 C 0.48236 0.2159 0.83853 0.0
C550 C 0.48927 0.22321 0.81874 0.0
C551 C 0.5119 0.22487 0.81453 0.0
C552 C 0.52076 0.21206 0.84653 0.0
C553 C 0.49843 0.21007 0.85037 0.0
H554 H 0.51664 0.23091 0.80232 0.0
H555 H 0.53239 0.20798 0.86122 0.0
H556 H 0.55792 0.24128 0.80575 0.0
H557 H 0.51317 0.24758 0.89446 0.0
H558 H 0.57383 0.19473 0.78008 0.0
H559 H 0.47746 0.22797 0.80957 0.0
H560 H 0.49387 0.2043 0.8655 0.0
C561 C 0.6963 0.07687 0.90433 0.0
C562 C 0.69941 0.06878 0.89061 0.0
N563 N 0.70328 0.06919 0.85214 0.0
N564 N 0.69802 0.08244 0.87473 0.0
C565 C 0.70217 0.07755 0.84321 0.0
H566 H 0.69399 0.07855 0.93444 0.0
Co567 Co 0.69818 0.09436 0.87903 0.0
C568 C 0.66707 0.09988 0.81367 0.0
O569 O 0.66992 0.10807 0.81811 0.0
N570 N 0.69876 0.10631 0.88502 0.0
C571 C 0.71189 0.11928 0.89646 0.0
C572 C 0.7174 0.11099 0.88897 0.0
C573 C 0.68213 0.11188 0.89224 0.0
N574 N 0.68966 0.11986 0.89829 0.0
O575 O 0.6748 0.09378 0.91633 0.0
H576 H 0.73409 0.10854 0.88709 0.0
H577 H 0.66481 0.11009 0.89321 0.0
O578 O 0.67722 0.09462 0.83562 0.0
C579 C 0.68348 0.09477 0.94983 0.0
O580 O 0.7051 0.09577 0.95202 0.0
N581 N 0.72245 0.09493 0.84544 0.0
C582 C 0.76408 0.09867 0.81586 0.0
C583 C 0.74508 0.10214 0.79864 0.0
C584 C 0.7242 0.10007 0.81359 0.0
C585 C 0.74071 0.09111 0.86075 0.0
C586 C 0.76164 0.09276 0.84589 0.0
H587 H 0.70991 0.10331 0.8022 0.0
H588 H 0.73923 0.08731 0.88675 0.0
H589 H 0.70519 0.08012 0.81456 0.0
H590 H 0.70004 0.06309 0.90814 0.0
H591 H 0.72341 0.1245 0.89973 0.0
H592 H 0.74647 0.10683 0.7758 0.0
H593 H 0.77596 0.09011 0.86054 0.0
C594 C 0.55152 0.07124 0.35376 0.0
C595 C 0.54729 0.06319 0.36679 0.0
N596 N 0.53875 0.06367 0.40281 0.0
N597 N 0.54588 0.07693 0.38135 0.0
C598 C 0.53843 0.07207 0.41124 0.0
H599 H 0.55764 0.07275 0.32518 0.0
Co600 Co 0.54557 0.08893 0.37509 0.0
C601 C 0.57289 0.09541 0.44309 0.0
O602 O 0.5689 0.10345 0.43638 0.0
N603 N 0.54502 0.1009 0.36709 0.0
C604 C 0.53266 0.11396 0.35509 0.0
C605 C 0.52667 0.10571 0.36259 0.0
C606 C 0.56198 0.10635 0.35979 0.0
N607 N 0.55493 0.11439 0.35364 0.0
O608 O 0.57064 0.08831 0.34134 0.0
H609 H 0.50983 0.10339 0.36398 0.0
H610 H 0.57924 0.10449 0.36025 0.0
O611 O 0.56448 0.08968 0.42134 0.0
C612 C 0.56289 0.08867 0.30689 0.0
O613 O 0.54125 0.08901 0.30247 0.0
N614 N 0.51967 0.08957 0.40464 0.0
C615 C 0.4766 0.09357 0.42586 0.0
C616 C 0.49454 0.09685 0.44694 0.0
C617 C 0.51615 0.09465 0.43619 0.0
C618 C 0.50232 0.08588 0.3858 0.0
C619 C 0.48062 0.08766 0.39642 0.0
H620 H 0.52974 0.09775 0.45058 0.0
H621 H 0.50532 0.08207 0.36021 0.0
H622 H 0.53173 0.07467 0.43784 0.0
H623 H 0.54991 0.05741 0.35046 0.0
H624 H 0.5214 0.1192 0.35042 0.0
H625 H 0.49192 0.10152 0.46955 0.0
H626 H 0.46717 0.08513 0.37905 0.0
C627 C 0.70249 0.23321 0.3117 0.0
C628 C 0.70735 0.24122 0.32495 0.0
N629 N 0.71055 0.24086 0.36367 0.0
N630 N 0.70239 0.22775 0.34182 0.0
C631 C 0.70718 0.23262 0.37319 0.0
H632 H 0.69999 0.23148 0.28168 0.0
Co633 Co 0.69963 0.21584 0.33816 0.0
C634 C 0.66926 0.2114 0.40569 0.0
O635 O 0.67234 0.20318 0.40346 0.0
N636 N 0.69718 0.20386 0.33323 0.0
C637 C 0.70705 0.19039 0.32483 0.0
C638 C 0.71458 0.19852 0.33004 0.0
C639 C 0.67921 0.19881 0.3279 0.0
N640 N 0.68473 0.19052 0.32373 0.0
O641 O 0.67621 0.21719 0.30089 0.0
H642 H 0.7318 0.2004 0.33121 0.0
H643 H 0.66236 0.20116 0.32746 0.0
O644 O 0.67893 0.21639 0.38186 0.0
C645 C 0.68424 0.21557 0.2674 0.0
O646 O 0.70518 0.21331 0.2651 0.0
N647 N 0.72414 0.21456 0.37107 0.0
C648 C 0.76555 0.21032 0.40037 0.0
C649 C 0.74632 0.20747 0.41899 0.0
C650 C 0.72557 0.20979 0.40413 0.0
C651 C 0.74278 0.21765 0.35382 0.0
C652 C 0.76362 0.21574 0.36841 0.0
H653 H 0.71104 0.20713 0.41734 0.0
H654 H 0.74151 0.22115 0.32689 0.0
H655 H 0.70934 0.23006 0.40213 0.0
H656 H 0.7088 0.24684 0.30711 0.0
H657 H 0.71732 0.18478 0.32284 0.0
H658 H 0.74734 0.20315 0.44342 0.0
H659 H 0.77816 0.2179 0.35277 0.0
C660 C 0.45911 0.83158 0.09988 0.0
C661 C 0.46603 0.82327 0.10243 0.0
N662 N 0.45689 0.81974 0.13432 0.0
N663 N 0.44565 0.83334 0.13001 0.0
C664 C 0.44428 0.82596 0.15005 0.0
H665 H 0.46454 0.83618 0.07863 0.0
Co666 Co 0.435 0.84425 0.14267 0.0
C667 C 0.43088 0.83986 0.22866 0.0
O668 O 0.45035 0.84299 0.23762 0.0
N669 N 0.42378 0.85526 0.15575 0.0
C670 C 0.4188 0.86725 0.18894 0.0
C671 C 0.42732 0.85921 0.19005 0.0
C672 C 0.41278 0.86116 0.13423 0.0
N673 N 0.40974 0.86853 0.15377 0.0
O674 O 0.40761 0.84135 0.11786 0.0
H675 H 0.43655 0.85664 0.21403 0.0
H676 H 0.40791 0.86026 0.10433 0.0
O677 O 0.42383 0.8401 0.19353 0.0
C678 C 0.41103 0.84351 0.08259 0.0
O679 O 0.42954 0.84755 0.07436 0.0
N680 N 0.46374 0.84728 0.16043 0.0
C681 C 0.50932 0.8503 0.15465 0.0
C682 C 0.50132 0.84318 0.17462 0.0
C683 C 0.47851 0.84171 0.17664 0.0
C684 C 0.47143 0.85446 0.14275 0.0
C685 C 0.49402 0.85616 0.14015 0.0
H686 H 0.47299 0.83574 0.18855 0.0
H687 H 0.4603 0.85852 0.12674 0.0
H688 H 0.43503 0.82524 0.1767 0.0
H689 H 0.47796 0.82024 0.08353 0.0
H690 H 0.41956 0.87186 0.21219 0.0
H691 H 0.51259 0.83847 0.18619 0.0
H692 H 0.49938 0.86161 0.12344 0.0
C693 C 0.3045 0.99161 0.11414 0.0
C694 C 0.30135 0.99961 0.1288 0.0
N695 N 0.29262 0.99894 0.16462 0.0
N696 N 0.2979 0.98577 0.14042 0.0
C697 C 0.29092 0.99048 0.17114 0.0
H698 H 0.31044 0.99027 0.08527 0.0
Co699 Co 0.2961 0.97383 0.13229 0.0
C700 C 0.32362 0.96645 0.19818 0.0
O701 O 0.31748 0.95857 0.19222 0.0
N702 N 0.29405 0.96197 0.12265 0.0
C703 C 0.28005 0.94925 0.10867 0.0
C704 C 0.27511 0.95756 0.11707 0.0
C705 C 0.31031 0.95624 0.11544 0.0
N706 N 0.30225 0.94839 0.10799 0.0
O707 O 0.3204 0.97429 0.09682 0.0
H708 H 0.2586 0.96019 0.11885 0.0
H709 H 0.3278 0.95778 0.11631 0.0
O710 O 0.31603 0.97243 0.17688 0.0
C711 C 0.31182 0.97444 0.06294 0.0
O712 O 0.29008 0.9747 0.06008 0.0
N713 N 0.27078 0.97334 0.16344 0.0
C714 C 0.22769 0.96998 0.18695 0.0
C715 C 0.24562 0.96633 0.20673 0.0
C716 C 0.26724 0.9682 0.1948 0.0
C717 C 0.25353 0.97738 0.14584 0.0
C718 C 0.23186 0.9759 0.15759 0.0
H719 H 0.28069 0.96487 0.20839 0.0
H720 H 0.2565 0.98123 0.12037 0.0
H721 H 0.28406 0.98775 0.19735 0.0
H722 H 0.30416 1.00548 0.11324 0.0
H723 H 0.26814 0.9442 0.10438 0.0
H724 H 0.2429 0.96166 0.22929 0.0
H725 H 0.21844 0.97872 0.1411 0.0
C726 C 0.44341 0.98385 0.66382 0.0
C727 C 0.4473 0.99205 0.65237 0.0
N728 N 0.45439 0.992 0.61528 0.0
N729 N 0.44779 0.97853 0.63414 0.0
C730 C 0.45422 0.98372 0.60475 0.0
H731 H 0.43845 0.98194 0.69262 0.0
Co732 Co 0.44796 0.96653 0.63715 0.0
C733 C 0.42146 0.96109 0.56618 0.0
O734 O 0.42552 0.95296 0.57007 0.0
N735 N 0.4484 0.95449 0.64182 0.0
C736 C 0.46115 0.94151 0.65418 0.0
C737 C 0.46685 0.94984 0.64816 0.0
C738 C 0.43156 0.94883 0.64594 0.0
N739 N 0.43892 0.94085 0.65257 0.0
O740 O 0.42264 0.96682 0.6706 0.0
H741 H 0.48352 0.95235 0.6492 0.0
H742 H 0.41421 0.95055 0.64438 0.0
O743 O 0.42942 0.96642 0.59042 0.0
C744 C 0.42987 0.96554 0.70496 0.0
O745 O 0.45134 0.96453 0.7098 0.0
N746 N 0.4741 0.96622 0.608 0.0
C747 C 0.51742 0.96287 0.586 0.0
C748 C 0.49973 0.95949 0.56469 0.0
C749 C 0.47798 0.96137 0.57584 0.0
C750 C 0.49121 0.96993 0.62749 0.0
C751 C 0.51301 0.96847 0.61649 0.0
H752 H 0.46462 0.95822 0.56103 0.0
H753 H 0.488 0.9735 0.65369 0.0
H754 H 0.45986 0.9814 0.57687 0.0
H755 H 0.44543 0.99761 0.67047 0.0
H756 H 0.47255 0.93632 0.65911 0.0
H757 H 0.50269 0.95503 0.54135 0.0
H758 H 0.52632 0.97105 0.63407 0.0
C759 C 0.26322 0.82596 0.67111 0.0
C760 C 0.25512 0.81837 0.6578 0.0
N761 N 0.26942 0.81523 0.63146 0.0
N762 N 0.28265 0.82769 0.65345 0.0
C763 C 0.28601 0.82103 0.62918 0.0
H764 H 0.25544 0.83001 0.69245 0.0
Co765 Co 0.29929 0.83752 0.66533 0.0
C766 C 0.31104 0.84202 0.58329 0.0
O767 O 0.29911 0.84897 0.58529 0.0
N768 N 0.31614 0.84723 0.67936 0.0
C769 C 0.33254 0.85602 0.72116 0.0
C770 C 0.32093 0.84859 0.71715 0.0
C771 C 0.32516 0.85402 0.66089 0.0
N772 N 0.33514 0.85948 0.68576 0.0
O773 O 0.32279 0.83063 0.68674 0.0
H774 H 0.31565 0.84452 0.74067 0.0
H775 H 0.32469 0.85504 0.63004 0.0
O776 O 0.31291 0.83718 0.61303 0.0
C777 C 0.31734 0.82717 0.71894 0.0
O778 O 0.2966 0.82766 0.73018 0.0
N779 N 0.27509 0.84433 0.64897 0.0
C780 C 0.23428 0.85249 0.63966 0.0
C781 C 0.24121 0.84627 0.61317 0.0
C782 C 0.26162 0.84224 0.61842 0.0
C783 C 0.2687 0.85051 0.67437 0.0
C784 C 0.24875 0.8548 0.66966 0.0
H785 H 0.26616 0.83716 0.5989 0.0
H786 H 0.27833 0.85184 0.70001 0.0
H787 H 0.30041 0.82039 0.61071 0.0
H788 H 0.23966 0.81544 0.66648 0.0
H789 H 0.33796 0.85882 0.74826 0.0
H790 H 0.23045 0.84414 0.58996 0.0
H791 H 0.24424 0.8596 0.69068 0.0
C792 C 0.54673 0.73878 0.38491 0.0
C793 C 0.54209 0.74666 0.37017 0.0
N794 N 0.53464 0.74578 0.33353 0.0
N795 N 0.54244 0.73281 0.35781 0.0
C796 C 0.53535 0.73732 0.32651 0.0
H797 H 0.55214 0.73756 0.41423 0.0
Co798 Co 0.54304 0.72088 0.36582 0.0
C799 C 0.57052 0.71436 0.29819 0.0
O800 O 0.56676 0.70631 0.30506 0.0
N801 N 0.54341 0.70897 0.37535 0.0
C802 C 0.53191 0.69593 0.39007 0.0
C803 C 0.52539 0.70407 0.38154 0.0
C804 C 0.56075 0.7037 0.38239 0.0
N805 N 0.55424 0.69565 0.39041 0.0
O806 O 0.56802 0.72203 0.3997 0.0
H807 H 0.50842 0.70625 0.38039 0.0
H808 H 0.57788 0.70574 0.38139 0.0
O809 O 0.562 0.72007 0.31988 0.0
C810 C 0.56009 0.72178 0.43404 0.0
O811 O 0.53845 0.7212 0.43799 0.0
N812 N 0.51716 0.71974 0.33637 0.0
C813 C 0.47417 0.71522 0.31642 0.0
C814 C 0.49219 0.7119 0.29576 0.0
C815 C 0.51375 0.71436 0.30585 0.0
C816 C 0.49971 0.72346 0.35474 0.0
C817 C 0.47807 0.72141 0.34474 0.0
H818 H 0.52743 0.71125 0.29187 0.0
H819 H 0.50261 0.72749 0.37962 0.0
H820 H 0.52961 0.73441 0.29988 0.0
H821 H 0.54364 0.75259 0.38574 0.0
H822 H 0.52093 0.69062 0.39505 0.0
H823 H 0.4897 0.70703 0.27399 0.0
H824 H 0.46461 0.724 0.36186 0.0
C825 C 0.69979 0.57665 0.41789 0.0
C826 C 0.70457 0.56863 0.4048 0.0
N827 N 0.70934 0.56905 0.36661 0.0
N828 N 0.70129 0.58219 0.38818 0.0
C829 C 0.70701 0.57735 0.35719 0.0
H830 H 0.69617 0.57833 0.44761 0.0
Co831 Co 0.69894 0.59408 0.39247 0.0
C832 C 0.67236 0.59904 0.32073 0.0
O833 O 0.67583 0.60723 0.32401 0.0
N834 N 0.69684 0.60608 0.3982 0.0
C835 C 0.70726 0.61943 0.4087 0.0
C836 C 0.71437 0.61121 0.4047 0.0
C837 C 0.67904 0.61133 0.40071 0.0
N838 N 0.68501 0.61954 0.40576 0.0
O839 O 0.67355 0.59271 0.42544 0.0
H840 H 0.73141 0.60914 0.4068 0.0
H841 H 0.66208 0.60918 0.39757 0.0
O842 O 0.68057 0.59389 0.34552 0.0
C843 C 0.67958 0.59421 0.46032 0.0
O844 O 0.7002 0.59655 0.46664 0.0
N845 N 0.72519 0.59532 0.36391 0.0
C846 C 0.76812 0.59972 0.34303 0.0
C847 C 0.75008 0.60273 0.32145 0.0
C848 C 0.72858 0.60032 0.33202 0.0
C849 C 0.74272 0.59201 0.38375 0.0
C850 C 0.76434 0.59401 0.37334 0.0
H851 H 0.7149 0.60313 0.31677 0.0
H852 H 0.7399 0.58832 0.40973 0.0
H853 H 0.71047 0.57996 0.32876 0.0
H854 H 0.7048 0.56295 0.42242 0.0
H855 H 0.71773 0.62489 0.41381 0.0
H856 H 0.75253 0.60726 0.29817 0.0
H857 H 0.77789 0.5917 0.39112 0.0
C858 C 0.5171 0.58163 0.86283 0.0
C859 C 0.50791 0.57364 0.86195 0.0
N860 N 0.52306 0.56803 0.87501 0.0
N861 N 0.53785 0.58116 0.87728 0.0
C862 C 0.54138 0.57275 0.88237 0.0
H863 H 0.50867 0.58748 0.85574 0.0
Co864 Co 0.55596 0.59059 0.89001 0.0
C865 C 0.56475 0.57932 0.9628 0.0
O866 O 0.5472 0.57441 0.96158 0.0
N867 N 0.57426 0.6 0.9023 0.0
C868 C 0.59164 0.60988 0.93702 0.0
C869 C 0.57968 0.60248 0.93863 0.0
C870 C 0.58287 0.60612 0.87908 0.0
N871 N 0.59355 0.6122 0.89959 0.0
O872 O 0.57882 0.58606 0.85767 0.0
H873 H 0.5743 0.59938 0.96497 0.0
H874 H 0.58072 0.6063 0.84791 0.0
O875 O 0.56788 0.585 0.93681 0.0
C876 C 0.57352 0.58901 0.82439 0.0
O877 O 0.55553 0.59369 0.82174 0.0
N878 N 0.53229 0.59565 0.91734 0.0
C879 C 0.48959 0.60207 0.9266 0.0
C880 C 0.49599 0.59453 0.94527 0.0
C881 C 0.51761 0.59148 0.9407 0.0
C882 C 0.52698 0.60345 0.90288 0.0
C883 C 0.50606 0.60691 0.90845 0.0
H884 H 0.5212 0.58525 0.95134 0.0
H885 H 0.53805 0.60669 0.88325 0.0
H886 H 0.55684 0.57018 0.89305 0.0
H887 H 0.49082 0.57219 0.85494 0.0
H888 H 0.59738 0.61352 0.96169 0.0
H889 H 0.48395 0.59051 0.95963 0.0
H890 H 0.50223 0.61293 0.89483 0.0
C891 C 0.69469 0.73689 0.83851 0.0
C892 C 0.69783 0.74494 0.85277 0.0
N893 N 0.70228 0.74439 0.89103 0.0
N894 N 0.69695 0.73121 0.86756 0.0
C895 C 0.70147 0.736 0.8993 0.0
H896 H 0.69197 0.73533 0.80837 0.0
Co897 Co 0.69739 0.71929 0.86229 0.0
C898 C 0.6675 0.71321 0.92794 0.0
O899 O 0.6714 0.70511 0.92284 0.0
N900 N 0.69821 0.70734 0.85545 0.0
C901 C 0.71126 0.69431 0.84585 0.0
C902 C 0.71681 0.70262 0.85277 0.0
C903 C 0.68161 0.70177 0.84777 0.0
N904 N 0.68903 0.69373 0.84296 0.0
O905 O 0.67365 0.71988 0.82556 0.0
H906 H 0.73351 0.70503 0.85551 0.0
H907 H 0.66433 0.7036 0.84631 0.0
O908 O 0.67679 0.71874 0.9062 0.0
C909 C 0.68218 0.71914 0.79184 0.0
O910 O 0.70383 0.71835 0.78927 0.0
N911 N 0.72205 0.71875 0.89512 0.0
C912 C 0.76412 0.71547 0.92402 0.0
C913 C 0.74545 0.71194 0.94204 0.0
C914 C 0.72434 0.71378 0.92741 0.0
C915 C 0.74 0.72259 0.87883 0.0
C916 C 0.76115 0.72116 0.89328 0.0
H917 H 0.71031 0.71054 0.9397 0.0
H918 H 0.73807 0.72628 0.85257 0.0
H919 H 0.70492 0.73334 0.92764 0.0
H920 H 0.69809 0.7507 0.8357 0.0
H921 H 0.72282 0.68909 0.84404 0.0
H922 H 0.74727 0.70741 0.96549 0.0
H923 H 0.77522 0.72386 0.87808 0.0
C924 C 0.47018 0.33373 0.60277 0.0
C925 C 0.47727 0.32553 0.60865 0.0
N926 N 0.46699 0.32241 0.64035 0.0
N927 N 0.45547 0.33583 0.63061 0.0
C928 C 0.45353 0.32873 0.65253 0.0
H929 H 0.47655 0.33809 0.58121 0.0
Co930 Co 0.44448 0.34687 0.64017 0.0
C931 C 0.44094 0.34327 0.72664 0.0
O932 O 0.46024 0.34665 0.73489 0.0
N933 N 0.43293 0.35788 0.65014 0.0
C934 C 0.42655 0.37016 0.67989 0.0
C935 C 0.43498 0.36216 0.68394 0.0
C936 C 0.42294 0.36351 0.62588 0.0
N937 N 0.41908 0.37106 0.64333 0.0
O938 O 0.41702 0.34368 0.61628 0.0
H939 H 0.4431 0.35984 0.70964 0.0
H940 H 0.41955 0.36226 0.59557 0.0
O941 O 0.43352 0.34327 0.69178 0.0
C942 C 0.42139 0.34464 0.58024 0.0
O943 O 0.44077 0.34783 0.57062 0.0
N944 N 0.47315 0.35026 0.65724 0.0
C945 C 0.51854 0.35354 0.65053 0.0
C946 C 0.51096 0.34651 0.67162 0.0
C947 C 0.48823 0.34492 0.6742 0.0
C948 C 0.48048 0.3574 0.63865 0.0
C949 C 0.50296 0.35924 0.63565 0.0
H950 H 0.48303 0.33901 0.68709 0.0
H951 H 0.46921 0.36129 0.62208 0.0
H952 H 0.44333 0.32832 0.67823 0.0
H953 H 0.49019 0.32234 0.59246 0.0
H954 H 0.42637 0.37504 0.70201 0.0
H955 H 0.52251 0.34193 0.68342 0.0
H956 H 0.50804 0.3646 0.61812 0.0
C957 C 0.26666 0.48624 0.59825 0.0
C958 C 0.25739 0.49411 0.60446 0.0
N959 N 0.26899 0.49805 0.63261 0.0
N960 N 0.28421 0.48521 0.62206 0.0
C961 C 0.28528 0.49256 0.64241 0.0
H962 H 0.2601 0.48138 0.57934 0.0
Co963 Co 0.29943 0.47494 0.63029 0.0
C964 C 0.33866 0.48073 0.6732 0.0
O965 O 0.35157 0.47766 0.64592 0.0
N966 N 0.31448 0.46462 0.6394 0.0
C967 C 0.33078 0.45418 0.67218 0.0
C968 C 0.3205 0.46189 0.67509 0.0
C969 C 0.32088 0.45829 0.61522 0.0
N970 N 0.33105 0.45189 0.63456 0.0
O971 O 0.31967 0.47775 0.58952 0.0
H972 H 0.31736 0.46527 0.70185 0.0
H973 H 0.31822 0.45834 0.58416 0.0
O974 O 0.31767 0.48026 0.66944 0.0
C975 C 0.31141 0.47537 0.55722 0.0
O976 O 0.29215 0.47146 0.55762 0.0
N977 N 0.27833 0.47193 0.66693 0.0
C978 C 0.2392 0.46809 0.70536 0.0
C979 C 0.25281 0.4747 0.71864 0.0
C980 C 0.27262 0.47648 0.69913 0.0
C981 C 0.26586 0.46524 0.65497 0.0
C982 C 0.2464 0.46311 0.67415 0.0
H983 H 0.28244 0.48185 0.70823 0.0
H984 H 0.27036 0.46185 0.62883 0.0
H985 H 0.29708 0.49373 0.66544 0.0
H986 H 0.24236 0.49648 0.59116 0.0
H987 H 0.3371 0.45043 0.69608 0.0
H988 H 0.24759 0.47873 0.74242 0.0
H989 H 0.23613 0.45808 0.66245 0.0
C990 C 0.4433 0.48929 0.14332 0.0
C991 C 0.4482 0.497 0.12678 0.0
N992 N 0.45149 0.49585 0.08846 0.0
N993 N 0.44338 0.48322 0.11568 0.0
C994 C 0.44822 0.48746 0.08241 0.0
H995 H 0.44087 0.48819 0.17396 0.0
Co996 Co 0.44149 0.47137 0.1238 0.0
C997 C 0.41312 0.46572 0.05488 0.0
O998 O 0.41568 0.45752 0.05946 0.0
N999 N 0.43991 0.45951 0.13302 0.0
C1000 C 0.45113 0.44645 0.14774 0.0
C1001 C 0.45776 0.45464 0.14094 0.0
C1002 C 0.42242 0.45415 0.13736 0.0
N1003 N 0.42887 0.44609 0.14513 0.0
O1004 O 0.41688 0.47296 0.15817 0.0
H1005 H 0.47466 0.45691 0.14213 0.0
H1006 H 0.40533 0.45611 0.13402 0.0
O1007 O 0.42228 0.47092 0.07835 0.0
C1008 C 0.42508 0.47278 0.19235 0.0
O1009 O 0.4466 0.47167 0.1959 0.0
N1010 N 0.46702 0.46986 0.09374 0.0
C1011 C 0.50952 0.46574 0.06932 0.0
C1012 C 0.49105 0.4621 0.05109 0.0
C1013 C 0.46973 0.46436 0.06343 0.0
C1014 C 0.4849 0.47366 0.11056 0.0
C1015 C 0.50626 0.47182 0.09829 0.0
H1016 H 0.45577 0.46111 0.05097 0.0
H1017 H 0.48267 0.47771 0.13556 0.0
H1018 H 0.45068 0.48435 0.05473 0.0
H1019 H 0.44978 0.50296 0.14208 0.0
H1020 H 0.46193 0.44119 0.15468 0.0
H1021 H 0.49309 0.45727 0.02907 0.0
H1022 H 0.52016 0.47459 0.1137 0.0
C1023 C 0.30022 0.32532 0.16929 0.0
C1024 C 0.29572 0.31722 0.15694 0.0
N1025 N 0.28722 0.31759 0.1208 0.0
N1026 N 0.29475 0.33092 0.14119 0.0
C1027 C 0.28724 0.32596 0.11167 0.0
H1028 H 0.30638 0.32693 0.19776 0.0
Co1029 Co 0.29456 0.34298 0.14603 0.0
C1030 C 0.32442 0.3491 0.081 0.0
O1031 O 0.31827 0.35704 0.08448 0.0
N1032 N 0.29399 0.355 0.15216 0.0
C1033 C 0.28143 0.3682 0.15895 0.0
C1034 C 0.27561 0.35988 0.15273 0.0
C1035 C 0.31072 0.36051 0.16012 0.0
N1036 N 0.30359 0.36864 0.16327 0.0
O1037 O 0.31742 0.34242 0.18482 0.0
H1038 H 0.25887 0.35759 0.14881 0.0
H1039 H 0.3279 0.3586 0.16256 0.0
O1040 O 0.31623 0.34342 0.10337 0.0
C1041 C 0.30752 0.34325 0.21741 0.0
O1042 O 0.28582 0.34406 0.21713 0.0
N1043 N 0.27045 0.34356 0.11194 0.0
C1044 C 0.22884 0.34664 0.08062 0.0
C1045 C 0.24788 0.34954 0.06152 0.0
C1046 C 0.26873 0.34781 0.07745 0.0
C1047 C 0.25208 0.34034 0.12958 0.0
C1048 C 0.23113 0.34169 0.11408 0.0
H1049 H 0.28301 0.35045 0.06341 0.0
H1050 H 0.25363 0.33717 0.15731 0.0
H1051 H 0.28071 0.32847 0.08475 0.0
H1052 H 0.29809 0.31151 0.17387 0.0
H1053 H 0.27015 0.37353 0.15913 0.0
H1054 H 0.24657 0.35346 0.0358 0.0
H1055 H 0.21675 0.3395 0.13005 0.0
H1056 H 0.15375 0.20407 0.02195 0.0
H1057 H 0.13767 0.20735 0.08493 0.0
H1058 H 0.13378 0.23379 0.05359 0.0
H1059 H 0.15042 0.23059 0.99027 0.0
H1060 H 0.15184 0.23121 0.12667 0.0
H1061 H 0.07384 0.21304 0.11089 0.0
H1062 H 0.09781 0.20668 0.1009 0.0
H1063 H 0.09139 0.21557 0.07006 0.0
C1064 C 0.14932 0.21058 0.02815 0.0
C1065 C 0.15331 0.21706 0.00097 0.0
C1066 C 0.13999 0.21243 0.06418 0.0
C1067 C 0.13422 0.22079 0.07372 0.0
C1068 C 0.138 0.22729 0.04664 0.0
H1069 H 0.05662 0.23009 0.2817 0.0
H1070 H 0.0706 0.23008 0.21535 0.0
C1071 C 0.1474 0.22544 0.01045 0.0
C1072 C 0.12509 0.22268 0.11269 0.0
H1073 H 0.08436 0.21677 0.17576 0.0
C1074 C 0.13693 0.22815 0.13733 0.0
C1075 C 0.1055 0.21876 0.12634 0.0
C1076 C 0.09128 0.21326 0.10052 0.0
C1077 C 0.13011 0.22956 0.17579 0.0
C1078 C 0.11123 0.22524 0.1901 0.0
C1079 C 0.099 0.22001 0.16497 0.0
C1080 C 0.10369 0.22601 0.23096 0.0
C1081 C 0.14311 0.23569 0.20054 0.0
C1082 C 0.11771 0.22379 0.262 0.0
C1083 C 0.1098 0.22388 0.30022 0.0
C1084 C 0.08763 0.22603 0.30786 0.0
C1085 C 0.07376 0.22835 0.27677 0.0
C1086 C 0.08173 0.22836 0.23878 0.0
H1087 H 0.15245 0.24031 0.18245 0.0
H1088 H 0.13206 0.23925 0.2205 0.0
H1089 H 0.1553 0.23211 0.21826 0.0
H1090 H 0.13456 0.22175 0.2566 0.0
H1091 H 0.1208 0.222 0.32355 0.0
H1092 H 0.16559 0.08547 0.27848 0.0
H1093 H 0.14887 0.08048 0.21752 0.0
H1094 H 0.12366 0.10561 0.19556 0.0
H1095 H 0.14025 0.11064 0.25592 0.0
H1096 H 0.09292 0.09066 0.18145 0.0
H1097 H 0.17562 0.08917 0.10929 0.0
H1098 H 0.17166 0.08413 0.15578 0.0
H1099 H 0.17135 0.09547 0.15239 0.0
C1100 C 0.15619 0.08989 0.26092 0.0
C1101 C 0.15438 0.09847 0.27181 0.0
C1102 C 0.14674 0.08703 0.22612 0.0
C1103 C 0.13519 0.0927 0.20209 0.0
C1104 C 0.13252 0.10115 0.2138 0.0
H1105 H 0.09857 0.10756 0.98509 0.0
H1106 H 0.11524 0.10369 0.04715 0.0
C1107 C 0.14209 0.10402 0.24823 0.0
C1108 C 0.12701 0.09016 0.16336 0.0
H1109 H 0.14416 0.08874 0.06919 0.0
C1110 C 0.10405 0.08997 0.15694 0.0
C1111 C 0.14168 0.08932 0.13162 0.0
C1112 C 0.16649 0.08954 0.13724 0.0
C1113 C 0.09536 0.08951 0.11918 0.0
C1114 C 0.11006 0.08924 0.08727 0.0
C1115 C 0.13299 0.08888 0.09385 0.0
C1116 C 0.10211 0.09093 0.04742 0.0
C1117 C 0.07059 0.08997 0.11339 0.0
C1118 C 0.08969 0.08493 0.02659 0.0
C1119 C 0.08021 0.08711 0.99079 0.0
C1120 C 0.08286 0.09535 0.97576 0.0
C1121 C 0.0961 0.10119 0.99605 0.0
C1122 C 0.1057 0.09898 0.03143 0.0
H1123 H 0.06148 0.09048 0.14131 0.0
H1124 H 0.06636 0.09553 0.09502 0.0
H1125 H 0.06478 0.0842 0.098 0.0
H1126 H 0.08683 0.07866 0.03853 0.0
H1127 H 0.07002 0.08249 0.97581 0.0
H1128 H 0.91628 0.85535 0.76481 0.0
H1129 H 0.90456 0.8508 0.82903 0.0
H1130 H 0.89523 0.8253 0.7869 0.0
H1131 H 0.90722 0.82982 0.72175 0.0
H1132 H 0.85836 0.83285 0.83123 0.0
H1133 H 0.9387 0.8355 0.9078 0.0
H1134 H 0.93293 0.84451 0.8775 0.0
H1135 H 0.93662 0.83423 0.85573 0.0
C1136 C 0.91186 0.84875 0.769 0.0
C1137 C 0.91268 0.84294 0.7381 0.0
C1138 C 0.90532 0.84615 0.80588 0.0
C1139 C 0.89941 0.83769 0.81281 0.0
C1140 C 0.89999 0.83184 0.78212 0.0
H1141 H 0.83063 0.82897 0.03689 0.0
H1142 H 0.85012 0.82464 0.97748 0.0
C1143 C 0.90679 0.83443 0.74501 0.0
C1144 C 0.89141 0.83529 0.8519 0.0
H1145 H 0.90579 0.8373 0.94724 0.0
C1146 C 0.86878 0.83353 0.85672 0.0
C1147 C 0.90513 0.83616 0.88493 0.0
C1148 C 0.92976 0.83762 0.88129 0.0
C1149 C 0.85912 0.83344 0.89383 0.0
C1150 C 0.87256 0.83507 0.9267 0.0
C1151 C 0.89551 0.8361 0.92197 0.0
C1152 C 0.86271 0.8372 0.96481 0.0
C1153 C 0.83435 0.83234 0.8974 0.0
C1154 C 0.86399 0.8456 0.97791 0.0
C1155 C 0.85297 0.84807 0.01157 0.0
C1156 C 0.84051 0.84218 0.03302 0.0
C1157 C 0.84009 0.83365 0.02094 0.0
C1158 C 0.85109 0.83118 0.98694 0.0
H1159 H 0.82605 0.83189 0.86865 0.0
H1160 H 0.83072 0.82646 0.91391 0.0
H1161 H 0.82707 0.83774 0.91365 0.0
H1162 H 0.87292 0.85033 0.96126 0.0
H1163 H 0.85379 0.85467 0.02023 0.0
H1164 H 0.81248 0.97818 0.72211 0.0
H1165 H 0.82638 0.97815 0.78857 0.0
H1166 H 0.88968 0.96898 0.74818 0.0
H1167 H 0.87605 0.96929 0.68113 0.0
H1168 H 0.83878 0.96507 0.82965 0.0
H1169 H 0.9095 0.98735 0.82092 0.0
H1170 H 0.88916 0.98642 0.78268 0.0
H1171 H 0.91169 0.97897 0.78597 0.0
C1172 C 0.82947 0.97625 0.72726 0.0
C1173 C 0.8432 0.97373 0.69636 0.0
C1174 C 0.83739 0.97625 0.76532 0.0
C1175 C 0.85917 0.97367 0.77344 0.0
C1176 C 0.87301 0.97122 0.74259 0.0
H1177 H 0.9068 0.95117 0.98263 0.0
H1178 H 0.89083 0.95477 0.91992 0.0
C1179 C 0.86516 0.97133 0.7043 0.0
C1180 C 0.86667 0.97295 0.8144 0.0
H1181 H 0.90834 0.9783 0.87705 0.0
C1182 C 0.85387 0.96805 0.84005 0.0
C1183 C 0.88614 0.97696 0.82831 0.0
C1184 C 0.89978 0.98279 0.80313 0.0
C1185 C 0.86037 0.9668 0.87872 0.0
C1186 C 0.88057 0.97034 0.89188 0.0
C1187 C 0.89297 0.97551 0.86678 0.0
C1188 C 0.88976 0.96828 0.93071 0.0
C1189 C 0.8455 0.96168 0.90506 0.0
C1190 C 0.89492 0.97471 0.95747 0.0
C1191 C 0.9043 0.97268 0.99354 0.0
C1192 C 0.90879 0.96418 0.00322 0.0
C1193 C 0.90347 0.95778 0.97632 0.0
C1194 C 0.89419 0.95982 0.94043 0.0
H1195 H 0.82798 0.96189 0.89511 0.0
H1196 H 0.85089 0.95495 0.90468 0.0
H1197 H 0.84628 0.96401 0.93545 0.0
H1198 H 0.89176 0.9813 0.9504 0.0
H1199 H 0.90835 0.97776 0.01349 0.0
H1200 H 0.16914 0.7282 0.48462 0.0
H1201 H 0.15313 0.73314 0.5461 0.0
H1202 H 0.12671 0.70814 0.56719 0.0
H1203 H 0.14258 0.70315 0.50622 0.0
H1204 H 0.09674 0.72289 0.58237 0.0
H1205 H 0.17973 0.72457 0.65362 0.0
H1206 H 0.17567 0.72976 0.60755 0.0
H1207 H 0.17528 0.71841 0.6101 0.0
C1208 C 0.15968 0.72378 0.50213 0.0
C1209 C 0.15728 0.71526 0.49072 0.0
C1210 C 0.15063 0.72662 0.53725 0.0
C1211 C 0.13892 0.72098 0.56119 0.0
C1212 C 0.13572 0.71258 0.54906 0.0
H1213 H 0.10404 0.70779 0.7832 0.0
H1214 H 0.12062 0.71106 0.7204 0.0
C1215 C 0.14487 0.70973 0.51426 0.0
C1216 C 0.13091 0.72353 0.60002 0.0
H1217 H 0.14846 0.72553 0.69383 0.0
C1218 C 0.10798 0.72371 0.60669 0.0
C1219 C 0.14572 0.72453 0.63152 0.0
C1220 C 0.1705 0.72429 0.62571 0.0
C1221 C 0.09945 0.72437 0.64446 0.0
C1222 C 0.11428 0.72489 0.6762 0.0
C1223 C 0.13719 0.72519 0.66932 0.0
C1224 C 0.10646 0.72363 0.71648 0.0
C1225 C 0.07469 0.72391 0.6505 0.0
C1226 C 0.09354 0.72974 0.73557 0.0
C1227 C 0.08408 0.7279 0.77178 0.0
C1228 C 0.08729 0.7199 0.78901 0.0
C1229 C 0.10112 0.71398 0.77053 0.0
C1230 C 0.11067 0.71585 0.73471 0.0
H1231 H 0.06554 0.72291 0.62287 0.0
H1232 H 0.07058 0.71867 0.67077 0.0
H1233 H 0.0688 0.72991 0.66378 0.0
H1234 H 0.09023 0.7358 0.72196 0.0
H1235 H 0.07347 0.73258 0.78533 0.0
H1236 H 0.16027 0.61287 0.74843 0.0
H1237 H 0.14464 0.6097 0.68486 0.0
H1238 H 0.13718 0.58344 0.7173 0.0
H1239 H 0.15336 0.58651 0.78112 0.0
H1240 H 0.15582 0.5854 0.64483 0.0
H1241 H 0.08041 0.60518 0.6575 0.0
H1242 H 0.10526 0.61108 0.66715 0.0
H1243 H 0.09742 0.6025 0.69885 0.0
C1244 C 0.15516 0.60642 0.74231 0.0
C1245 C 0.15797 0.59995 0.77 0.0
C1246 C 0.14611 0.60463 0.70594 0.0
C1247 C 0.13941 0.59637 0.69656 0.0
C1248 C 0.14212 0.58987 0.72408 0.0
H1249 H 0.05989 0.58631 0.49174 0.0
H1250 H 0.07442 0.58719 0.55764 0.0
C1251 C 0.15127 0.59165 0.76057 0.0
C1252 C 0.13027 0.59452 0.65749 0.0
H1253 H 0.0902 0.60069 0.59353 0.0
C1254 C 0.14134 0.58867 0.63368 0.0
C1255 C 0.11122 0.59872 0.64319 0.0
C1256 C 0.09775 0.60465 0.66815 0.0
C1257 C 0.13422 0.58708 0.5955 0.0
C1258 C 0.11584 0.59161 0.58056 0.0
C1259 C 0.10446 0.59729 0.60479 0.0
C1260 C 0.10777 0.59051 0.54013 0.0
C1261 C 0.14628 0.5805 0.5718 0.0
C1262 C 0.12171 0.59205 0.5082 0.0
C1263 C 0.11347 0.59146 0.47025 0.0
C1264 C 0.09106 0.58948 0.46371 0.0
C1265 C 0.07722 0.5879 0.49576 0.0
C1266 C 0.0855 0.58839 0.5335 0.0
H1267 H 0.1553 0.57593 0.59063 0.0
H1268 H 0.13465 0.57691 0.55294 0.0
H1269 H 0.15867 0.5837 0.55301 0.0
H1270 H 0.13882 0.5939 0.51259 0.0
H1271 H 0.12448 0.59277 0.44615 0.0
H1272 H 0.87667 0.34164 0.55898 0.0
H1273 H 0.89101 0.34329 0.4927 0.0
H1274 H 0.83104 0.33221 0.44695 0.0
H1275 H 0.81643 0.33074 0.51263 0.0
H1276 H 0.89877 0.33218 0.43132 0.0
H1277 H 0.83262 0.35524 0.39418 0.0
H1278 H 0.83786 0.35184 0.44333 0.0
H1279 H 0.82219 0.34522 0.41078 0.0
C1280 C 0.86667 0.33949 0.53477 0.0
C1281 C 0.84532 0.33619 0.54091 0.0
C1282 C 0.87486 0.34043 0.49698 0.0
C1283 C 0.86185 0.33805 0.46493 0.0
C1284 C 0.84109 0.33429 0.47122 0.0
H1285 H 0.90719 0.33625 0.22308 0.0
H1286 H 0.89374 0.33232 0.28778 0.0
C1287 C 0.83282 0.33344 0.50879 0.0
C1288 C 0.86945 0.33983 0.42487 0.0
H1289 H 0.8555 0.35064 0.34254 0.0
C1290 C 0.88937 0.33622 0.41185 0.0
C1291 C 0.85724 0.34519 0.39976 0.0
C1292 C 0.83641 0.34967 0.41277 0.0
C1293 C 0.89735 0.3378 0.37421 0.0
C1294 C 0.88483 0.34298 0.3488 0.0
C1295 C 0.86495 0.34659 0.36192 0.0
C1296 C 0.89261 0.34522 0.30928 0.0
C1297 C 0.9194 0.3341 0.36241 0.0
C1298 C 0.89569 0.35377 0.2995 0.0
C1299 C 0.90299 0.35604 0.26254 0.0
C1300 C 0.90744 0.34979 0.23449 0.0
C1301 C 0.90399 0.34122 0.24407 0.0
C1302 C 0.89651 0.33895 0.28113 0.0
H1303 H 0.92932 0.33207 0.38799 0.0
H1304 H 0.91653 0.32844 0.34392 0.0
H1305 H 0.92925 0.33875 0.34541 0.0
H1306 H 0.89267 0.35871 0.32071 0.0
H1307 H 0.90544 0.3627 0.25622 0.0
H1308 H 0.82088 0.48365 0.2058 0.0
H1309 H 0.83741 0.48685 0.26933 0.0
H1310 H 0.86646 0.46187 0.27254 0.0
H1311 H 0.84973 0.45858 0.20992 0.0
H1312 H 0.84329 0.4657 0.3388 0.0
H1313 H 0.90152 0.49181 0.30085 0.0
H1314 H 0.87304 0.49324 0.2869 0.0
H1315 H 0.8892 0.48504 0.26449 0.0
C1316 C 0.83113 0.47891 0.21979 0.0
C1317 C 0.83397 0.47085 0.20291 0.0
C1318 C 0.84057 0.48075 0.25607 0.0
C1319 C 0.85321 0.4746 0.27567 0.0
C1320 C 0.85667 0.46669 0.25808 0.0
H1321 H 0.95052 0.47122 0.44602 0.0
H1322 H 0.92698 0.47409 0.39037 0.0
C1323 C 0.84714 0.46483 0.22219 0.0
C1324 C 0.86212 0.47609 0.3153 0.0
H1325 H 0.9013 0.4872 0.36575 0.0
C1326 C 0.85577 0.47047 0.34492 0.0
C1327 C 0.87834 0.48234 0.32313 0.0
C1328 C 0.88611 0.48843 0.29221 0.0
C1329 C 0.86609 0.47059 0.38146 0.0
C1330 C 0.88286 0.47665 0.38896 0.0
C1331 C 0.88834 0.48259 0.36002 0.0
C1332 C 0.89717 0.47608 0.42401 0.0
C1333 C 0.85996 0.46384 0.41068 0.0
C1334 C 0.88842 0.4765 0.46181 0.0
C1335 C 0.90191 0.47474 0.49406 0.0
C1336 C 0.92436 0.47261 0.48891 0.0
C1337 C 0.93325 0.47273 0.45117 0.0
C1338 C 0.91982 0.47443 0.41917 0.0
H1339 H 0.84961 0.45874 0.39766 0.0
H1340 H 0.87506 0.4609 0.42329 0.0
H1341 H 0.85037 0.46676 0.43466 0.0
H1342 H 0.87107 0.47794 0.4663 0.0
H1343 H 0.8946 0.47479 0.52278 0.0
H1344 H 0.60174 0.22274 0.74552 0.0
H1345 H 0.62158 0.22343 0.68362 0.0
H1346 H 0.56521 0.23578 0.63094 0.0
H1347 H 0.54504 0.23471 0.69226 0.0
H1348 H 0.57548 0.22262 0.59125 0.0
H1349 H 0.65326 0.24019 0.61729 0.0
H1350 H 0.65023 0.23174 0.65169 0.0
H1351 H 0.63056 0.24034 0.65144 0.0
C1352 C 0.59392 0.22584 0.721 0.0
C1353 C 0.57188 0.22864 0.72344 0.0
C1354 C 0.60529 0.22628 0.68563 0.0
C1355 C 0.59498 0.22972 0.65252 0.0
C1356 C 0.57352 0.23309 0.65596 0.0
H1357 H 0.66357 0.22812 0.4262 0.0
H1358 H 0.64454 0.23361 0.48389 0.0
C1359 C 0.56202 0.23248 0.69098 0.0
C1360 C 0.60503 0.22865 0.61342 0.0
H1361 H 0.6533 0.23055 0.56228 0.0
C1362 C 0.59237 0.22452 0.58482 0.0
C1363 C 0.62698 0.23118 0.60457 0.0
C1364 C 0.64093 0.23619 0.63279 0.0
C1365 C 0.60133 0.2225 0.54848 0.0
C1366 C 0.62378 0.22443 0.54079 0.0
C1367 C 0.63616 0.22895 0.56846 0.0
C1368 C 0.63501 0.22124 0.50545 0.0
C1369 C 0.58668 0.21821 0.51883 0.0
C1370 C 0.63608 0.21248 0.49865 0.0
C1371 C 0.64675 0.20934 0.46579 0.0
C1372 C 0.65683 0.21488 0.43913 0.0
C1373 C 0.65582 0.22367 0.446 0.0
C1374 C 0.64506 0.22683 0.47901 0.0
H1375 H 0.56891 0.21973 0.52378 0.0
H1376 H 0.59117 0.22013 0.48882 0.0
H1377 H 0.58863 0.21124 0.52135 0.0
H1378 H 0.62886 0.20805 0.5191 0.0
H1379 H 0.64732 0.20253 0.46164 0.0
H1380 H 0.60184 0.10515 0.48374 0.0
H1381 H 0.61823 0.10214 0.54708 0.0
H1382 H 0.58665 0.0776 0.5483 0.0
H1383 H 0.57025 0.08053 0.48427 0.0
H1384 H 0.57889 0.08891 0.61604 0.0
H1385 H 0.66792 0.08489 0.58045 0.0
H1386 H 0.65499 0.09379 0.55697 0.0
H1387 H 0.64604 0.08322 0.54532 0.0
C1388 C 0.59865 0.09905 0.49714 0.0
C1389 C 0.58475 0.09308 0.47909 0.0
C1390 C 0.60812 0.09733 0.53324 0.0
C1391 C 0.60378 0.08963 0.55214 0.0
C1392 C 0.59031 0.08355 0.53393 0.0
H1393 H 0.66856 0.0841 0.7802 0.0
H1394 H 0.65145 0.07972 0.71874 0.0
C1395 C 0.58104 0.08522 0.49739 0.0
C1396 C 0.61188 0.08839 0.5923 0.0
H1397 H 0.65935 0.08873 0.64625 0.0
C1398 C 0.59646 0.08867 0.62274 0.0
C1399 C 0.63477 0.08802 0.60089 0.0
C1400 C 0.65193 0.08738 0.5692 0.0
C1401 C 0.60344 0.08919 0.66157 0.0
C1402 C 0.62637 0.08947 0.66996 0.0
C1403 C 0.64175 0.08857 0.6397 0.0
C1404 C 0.63474 0.09167 0.7091 0.0
C1405 C 0.58626 0.08975 0.69325 0.0
C1406 C 0.63088 0.09981 0.72401 0.0
C1407 C 0.64077 0.10236 0.75876 0.0
C1408 C 0.65467 0.09679 0.77937 0.0
C1409 C 0.65787 0.08852 0.7651 0.0
C1410 C 0.64815 0.08601 0.72999 0.0
H1411 H 0.57009 0.0871 0.68369 0.0
H1412 H 0.59182 0.08633 0.71973 0.0
H1413 H 0.58368 0.09651 0.70099 0.0
H1414 H 0.62085 0.10431 0.70801 0.0
H1415 H 0.63794 0.10876 0.76897 0.0
H1416 H 0.30009 0.84815 0.51227 0.0
H1417 H 0.31809 0.84547 0.45036 0.0
H1418 H 0.36435 0.8286 0.50665 0.0
H1419 H 0.34576 0.83107 0.56912 0.0
H1420 H 0.35914 0.84949 0.43204 0.0
H1421 H 0.34831 0.81483 0.412 0.0
H1422 H 0.33321 0.82074 0.44822 0.0
H1423 H 0.36145 0.81763 0.457 0.0
C1424 C 0.31398 0.8438 0.51159 0.0
C1425 C 0.32161 0.83987 0.54573 0.0
C1426 C 0.32423 0.84226 0.47603 0.0
C1427 C 0.34249 0.83678 0.4736 0.0
C1428 C 0.34999 0.83271 0.50754 0.0
H1429 H 0.44365 0.83396 0.2992 0.0
H1430 H 0.42059 0.83205 0.35686 0.0
C1431 C 0.33948 0.83417 0.54329 0.0
C1432 C 0.35448 0.83597 0.43602 0.0
H1433 H 0.37276 0.82183 0.36777 0.0
C1434 C 0.3619 0.84344 0.41792 0.0
C1435 C 0.35813 0.82807 0.41747 0.0
C1436 C 0.34968 0.81986 0.43444 0.0
C1437 C 0.373 0.84323 0.38219 0.0
C1438 C 0.3769 0.83536 0.36398 0.0
C1439 C 0.36958 0.82786 0.38183 0.0
C1440 C 0.38982 0.83491 0.32752 0.0
C1441 C 0.3809 0.85143 0.36426 0.0
C1442 C 0.37998 0.83689 0.29164 0.0
C1443 C 0.39314 0.83794 0.25841 0.0
C1444 C 0.41631 0.83714 0.26089 0.0
C1445 C 0.42586 0.83468 0.29645 0.0
C1446 C 0.41272 0.83355 0.3294 0.0
H1447 H 0.37747 0.85701 0.38303 0.0
H1448 H 0.39902 0.85111 0.35871 0.0
H1449 H 0.37254 0.8524 0.33588 0.0
H1450 H 0.3623 0.83801 0.28978 0.0
H1451 H 0.38534 0.83987 0.23148 0.0
H1452 H 0.41893 0.97737 0.53773 0.0
H1453 H 0.4036 0.98184 0.47479 0.0
H1454 H 0.38387 0.95609 0.45101 0.0
H1455 H 0.39903 0.95155 0.51334 0.0
H1456 H 0.41663 0.96868 0.39371 0.0
H1457 H 0.33068 0.97793 0.43501 0.0
H1458 H 0.35414 0.97987 0.46652 0.0
H1459 H 0.3439 0.96929 0.46047 0.0
C1460 C 0.41104 0.97268 0.51933 0.0
C1461 C 0.41029 0.96409 0.53045 0.0
C1462 C 0.40237 0.97525 0.48343 0.0
C1463 C 0.39269 0.96928 0.45849 0.0
C1464 C 0.3913 0.96078 0.47002 0.0
H1465 H 0.34862 0.95546 0.24022 0.0
H1466 H 0.36769 0.95813 0.3014 0.0
C1467 C 0.39999 0.9582 0.50564 0.0
C1468 C 0.38503 0.97164 0.41927 0.0
H1469 H 0.33784 0.9758 0.3681 0.0
C1470 C 0.39955 0.97044 0.38801 0.0
C1471 C 0.36281 0.97397 0.41217 0.0
C1472 C 0.34685 0.97539 0.44518 0.0
C1473 C 0.39202 0.97101 0.34955 0.0
C1474 C 0.36936 0.9727 0.34239 0.0
C1475 C 0.3552 0.97449 0.37368 0.0
C1476 C 0.35947 0.97148 0.30342 0.0
C1477 C 0.40819 0.96948 0.31692 0.0
C1478 C 0.34842 0.97811 0.28429 0.0
C1479 C 0.33747 0.9766 0.24904 0.0
C1480 C 0.33711 0.9684 0.2329 0.0
C1481 C 0.34857 0.96184 0.25188 0.0
C1482 C 0.35961 0.96337 0.28675 0.0
H1483 H 0.42544 0.971 0.32593 0.0
H1484 H 0.40767 0.96268 0.30866 0.0
H1485 H 0.40391 0.97333 0.29096 0.0
H1486 H 0.34797 0.98439 0.29693 0.0
H1487 H 0.32865 0.98177 0.23521 0.0
H1488 H 0.66684 0.7289 0.96267 0.0
H1489 H 0.64972 0.7326 0.02508 0.0
H1490 H 0.62315 0.70729 0.03431 0.0
H1491 H 0.64016 0.70353 0.97239 0.0
H1492 H 0.59296 0.7218 0.05495 0.0
H1493 H 0.67521 0.72162 0.12917 0.0
H1494 H 0.67189 0.72776 0.08541 0.0
H1495 H 0.671 0.71641 0.08307 0.0
C1496 C 0.65707 0.72417 0.97772 0.0
C1497 C 0.655 0.71589 0.96278 0.0
C1498 C 0.64738 0.72629 0.01338 0.0
C1499 C 0.63537 0.72019 0.03431 0.0
C1500 C 0.6324 0.71207 0.01854 0.0
H1501 H 0.59684 0.70432 0.25367 0.0
H1502 H 0.61322 0.70768 0.19074 0.0
C1503 C 0.64219 0.70993 0.98322 0.0
C1504 C 0.62696 0.72194 0.07383 0.0
H1505 H 0.64356 0.72224 0.16863 0.0
C1506 C 0.60397 0.72211 0.07983 0.0
C1507 C 0.64146 0.72226 0.10608 0.0
C1508 C 0.66629 0.72198 0.10098 0.0
C1509 C 0.59506 0.72222 0.11748 0.0
C1510 C 0.60956 0.72214 0.14975 0.0
C1511 C 0.63255 0.72236 0.14372 0.0
C1512 C 0.60121 0.7206 0.18948 0.0
C1513 C 0.57024 0.72189 0.12268 0.0
C1514 C 0.58944 0.72683 0.20993 0.0
C1515 C 0.58012 0.72494 0.24617 0.0
C1516 C 0.58229 0.71677 0.26218 0.0
C1517 C 0.59473 0.71065 0.24204 0.0
C1518 C 0.60416 0.71257 0.20614 0.0
H1519 H 0.5613 0.72143 0.09453 0.0
H1520 H 0.56563 0.71636 0.14095 0.0
H1521 H 0.56458 0.7277 0.13792 0.0
H1522 H 0.5871 0.73308 0.19751 0.0
H1523 H 0.57059 0.72978 0.26097 0.0
H1524 H 0.55835 0.5702 0.02937 0.0
H1525 H 0.57818 0.57167 0.09082 0.0
H1526 H 0.62269 0.58972 0.03821 0.0
H1527 H 0.6033 0.58815 0.97618 0.0
H1528 H 0.6434 0.578 0.09138 0.0
H1529 H 0.56905 0.5938 0.15353 0.0
H1530 H 0.56432 0.58346 0.13319 0.0
H1531 H 0.57241 0.59208 0.10208 0.0
C1532 C 0.57257 0.57439 0.03057 0.0
C1533 C 0.57889 0.57922 0.99802 0.0
C1534 C 0.58382 0.57524 0.06582 0.0
C1535 C 0.60155 0.58095 0.06923 0.0
C1536 C 0.60889 0.58534 0.03622 0.0
H1537 H 0.65163 0.60826 0.26449 0.0
H1538 H 0.63481 0.60311 0.20459 0.0
C1539 C 0.59768 0.58448 0.00086 0.0
C1540 C 0.61136 0.58281 0.10773 0.0
H1541 H 0.59947 0.5918 0.19542 0.0
C1542 C 0.63382 0.58097 0.11428 0.0
C1543 C 0.59881 0.58676 0.13729 0.0
C1544 C 0.57486 0.58922 0.13126 0.0
C1545 C 0.64411 0.58303 0.14969 0.0
C1546 C 0.6315 0.58695 0.17928 0.0
C1547 C 0.60901 0.58872 0.17277 0.0
C1548 C 0.64162 0.58988 0.21612 0.0
C1549 C 0.66852 0.58127 0.15471 0.0
C1550 C 0.65073 0.58412 0.24283 0.0
C1551 C 0.66038 0.58705 0.27731 0.0
C1552 C 0.66103 0.59579 0.2856 0.0
C1553 C 0.6515 0.6015 0.25903 0.0
C1554 C 0.64186 0.59857 0.22474 0.0
H1555 H 0.67671 0.57975 0.12668 0.0
H1556 H 0.67704 0.58681 0.16794 0.0
H1557 H 0.6707 0.57577 0.17448 0.0
H1558 H 0.65037 0.57737 0.23701 0.0
H1559 H 0.66756 0.58248 0.29717 0.0
H1560 H 0.34314 0.35967 0.02796 0.0
H1561 H 0.36241 0.35592 0.96852 0.0
H1562 H 0.35607 0.32937 0.99656 0.0
H1563 H 0.33599 0.33307 0.05621 0.0
H1564 H 0.40069 0.34756 0.95824 0.0
H1565 H 0.33167 0.33024 0.88611 0.0
H1566 H 0.32759 0.33663 0.92898 0.0
H1567 H 0.33979 0.32627 0.93294 0.0
C1568 C 0.34581 0.35301 0.02171 0.0
C1569 C 0.3379 0.34667 0.04684 0.0
C1570 C 0.35686 0.35088 0.9876 0.0
C1571 C 0.36038 0.34237 0.97772 0.0
C1572 C 0.3531 0.33598 0.00318 0.0
H1573 H 0.45439 0.33424 0.78898 0.0
H1574 H 0.43409 0.33207 0.84965 0.0
C1575 C 0.34185 0.33811 0.03745 0.0
C1576 C 0.37203 0.34037 0.9409 0.0
H1577 H 0.36519 0.33146 0.85119 0.0
C1578 C 0.39302 0.34397 0.93495 0.0
C1579 C 0.36184 0.33577 0.91041 0.0
C1580 C 0.33891 0.33205 0.91461 0.0
C1581 C 0.40385 0.34335 0.89911 0.0
C1582 C 0.39377 0.33871 0.86859 0.0
C1583 C 0.37297 0.33493 0.87473 0.0
C1584 C 0.40413 0.33822 0.82958 0.0
C1585 C 0.42549 0.34804 0.8938 0.0
C1586 C 0.39339 0.34177 0.79715 0.0
C1587 C 0.4048 0.3428 0.76204 0.0
C1588 C 0.42713 0.34038 0.75925 0.0
C1589 C 0.43723 0.33624 0.7907 0.0
C1590 C 0.42571 0.33504 0.82538 0.0
H1591 H 0.42792 0.353 0.91632 0.0
H1592 H 0.43945 0.34349 0.8962 0.0
H1593 H 0.4263 0.35111 0.86482 0.0
H1594 H 0.37667 0.34421 0.79969 0.0
H1595 H 0.39672 0.34604 0.73817 0.0
H1596 H 0.40747 0.48231 0.03269 0.0
H1597 H 0.3929 0.48754 0.97083 0.0
H1598 H 0.38117 0.46182 0.93356 0.0
H1599 H 0.39532 0.45653 0.9953 0.0
H1600 H 0.40904 0.48459 0.89812 0.0
H1601 H 0.3227 0.47303 0.9078 0.0
H1602 H 0.34087 0.47345 0.94944 0.0
H1603 H 0.34224 0.46466 0.91613 0.0
C1604 C 0.4015 0.47776 0.01156 0.0
C1605 C 0.40252 0.46899 0.01903 0.0
C1606 C 0.39322 0.48077 0.97619 0.0
C1607 C 0.38566 0.47508 0.94779 0.0
C1608 C 0.38642 0.46634 0.95538 0.0
H1609 H 0.37943 0.47654 0.70196 0.0
H1610 H 0.39118 0.47704 0.76968 0.0
C1611 C 0.39464 0.46332 0.99069 0.0
C1612 C 0.37813 0.47818 0.90931 0.0
H1613 H 0.33612 0.47621 0.84363 0.0
C1614 C 0.39295 0.48288 0.88637 0.0
C1615 C 0.35699 0.4761 0.89426 0.0
C1616 C 0.33971 0.47161 0.91838 0.0
C1617 C 0.38766 0.48515 0.848 0.0
C1618 C 0.3672 0.48248 0.83197 0.0
C1619 C 0.35192 0.47819 0.85568 0.0
C1620 C 0.36175 0.48351 0.79016 0.0
C1621 C 0.40411 0.49032 0.82504 0.0
C1622 C 0.34136 0.48703 0.77889 0.0
C1623 C 0.33446 0.48664 0.74018 0.0
C1624 C 0.34783 0.48272 0.71199 0.0
C1625 C 0.36883 0.47967 0.72287 0.0
C1626 C 0.37563 0.47999 0.76166 0.0
H1627 H 0.41445 0.49433 0.84445 0.0
H1628 H 0.41541 0.48598 0.80923 0.0
H1629 H 0.39569 0.49447 0.80356 0.0
H1630 H 0.33037 0.48977 0.80034 0.0
H1631 H 0.31823 0.48909 0.73268 0.0
H1632 H 0.80295 0.21878 0.42063 0.0
H1633 H 0.84067 0.21369 0.40958 0.0
H1634 H 0.8154 0.1887 0.38433 0.0
H1635 H 0.77749 0.19379 0.39552 0.0
H1636 H 0.86935 0.19929 0.4322 0.0
H1637 H 0.83908 0.19876 0.279 0.0
H1638 H 0.82332 0.20384 0.31693 0.0
H1639 H 0.82496 0.19249 0.31501 0.0
C1640 C 0.80557 0.21211 0.41461 0.0
C1641 C 0.78748 0.20667 0.40878 0.0
C1642 C 0.82706 0.20921 0.40817 0.0
C1643 C 0.83068 0.20087 0.39547 0.0
C1644 C 0.81284 0.19517 0.39386 0.0
H1645 H 0.97031 0.19992 0.32679 0.0
H1646 H 0.93506 0.19253 0.33712 0.0
C1647 C 0.79128 0.19806 0.40061 0.0
C1648 C 0.85223 0.19884 0.37752 0.0
H1649 H 0.87734 0.19968 0.2888 0.0
C1650 C 0.87123 0.19904 0.4009 0.0
C1651 C 0.85444 0.19858 0.3366 0.0
C1652 C 0.83445 0.19843 0.31018 0.0
C1653 C 0.89239 0.19976 0.3844 0.0
C1654 C 0.89444 0.20023 0.34349 0.0
C1655 C 0.87561 0.19926 0.32009 0.0
C1656 C 0.91489 0.20358 0.32562 0.0
C1657 C 0.91216 0.20083 0.41088 0.0
C1658 C 0.91498 0.21203 0.31279 0.0
C1659 C 0.93499 0.21624 0.30672 0.0
C1660 C 0.95514 0.21203 0.3132 0.0
C1661 C 0.95497 0.20329 0.32129 0.0
C1662 C 0.93489 0.19907 0.32757 0.0
H1663 H 0.90742 0.2009 0.44204 0.0
H1664 H 0.92397 0.19554 0.4062 0.0
H1665 H 0.92094 0.20685 0.40409 0.0
H1666 H 0.89966 0.21559 0.31103 0.0
H1667 H 0.93476 0.22298 0.30053 0.0
H1668 H 0.46637 0.11006 0.41405 0.0
H1669 H 0.42983 0.11557 0.39574 0.0
H1670 H 0.4006 0.09122 0.421 0.0
H1671 H 0.43716 0.08564 0.4386 0.0
H1672 H 0.40723 0.10567 0.33102 0.0
H1673 H 0.356 0.11026 0.46337 0.0
H1674 H 0.38592 0.11112 0.46367 0.0
H1675 H 0.37295 0.10087 0.46265 0.0
C1676 C 0.45197 0.10601 0.41741 0.0
C1677 C 0.45442 0.09745 0.42795 0.0
C1678 C 0.43119 0.10915 0.40665 0.0
C1679 C 0.41264 0.1038 0.40713 0.0
C1680 C 0.41475 0.09546 0.42091 0.0
H1681 H 0.29789 0.08997 0.29937 0.0
H1682 H 0.33671 0.09348 0.31245 0.0
C1683 C 0.43556 0.09228 0.43106 0.0
C1684 C 0.39196 0.10634 0.3875 0.0
H1685 H 0.33657 0.10858 0.40328 0.0
C1686 C 0.39181 0.10653 0.34673 0.0
C1687 C 0.37203 0.10747 0.40817 0.0
C1688 C 0.37161 0.10749 0.45193 0.0
C1689 C 0.37186 0.10722 0.32604 0.0
C1690 C 0.35175 0.10775 0.34675 0.0
C1691 C 0.35209 0.10819 0.38749 0.0
C1692 C 0.33009 0.10656 0.32759 0.0
C1693 C 0.37226 0.10698 0.28229 0.0
C1694 C 0.31379 0.11287 0.32995 0.0
C1695 C 0.29169 0.11091 0.32174 0.0
C1696 C 0.28569 0.10257 0.31189 0.0
C1697 C 0.30227 0.09647 0.30623 0.0
C1698 C 0.32439 0.09847 0.31383 0.0
H1699 H 0.38879 0.10878 0.2707 0.0
H1700 H 0.36847 0.10044 0.27239 0.0
H1701 H 0.35952 0.11129 0.26993 0.0
H1702 H 0.3179 0.11912 0.34092 0.0
H1703 H 0.27905 0.11565 0.32704 0.0
H1704 H 0.80222 0.0904 0.79767 0.0
H1705 H 0.8394 0.09541 0.81423 0.0
H1706 H 0.81304 0.12018 0.84022 0.0
H1707 H 0.77575 0.11518 0.82363 0.0
H1708 H 0.86905 0.11032 0.79882 0.0
H1709 H 0.83145 0.10869 0.94669 0.0
H1710 H 0.81806 0.10398 0.9051 0.0
H1711 H 0.81853 0.11529 0.91051 0.0
C1712 C 0.80456 0.09702 0.80499 0.0
C1713 C 0.78622 0.10239 0.80967 0.0
C1714 C 0.82575 0.09988 0.81457 0.0
C1715 C 0.82877 0.10811 0.82913 0.0
C1716 C 0.81092 0.11379 0.82926 0.0
H1717 H 0.96337 0.11333 0.92367 0.0
H1718 H 0.92675 0.11891 0.90622 0.0
C1719 C 0.78969 0.11095 0.81942 0.0
C1720 C 0.84932 0.11 0.85071 0.0
H1721 H 0.87014 0.10901 0.94285 0.0
C1722 C 0.86936 0.11032 0.83031 0.0
C1723 C 0.84949 0.1099 0.89184 0.0
C1724 C 0.82831 0.10941 0.91507 0.0
C1725 C 0.88972 0.11 0.84996 0.0
C1726 C 0.88986 0.10934 0.89096 0.0
C1727 C 0.86985 0.10958 0.91147 0.0
C1728 C 0.91017 0.10681 0.9118 0.0
C1729 C 0.91089 0.10966 0.82667 0.0
C1730 C 0.91246 0.09831 0.92318 0.0
C1731 C 0.93325 0.09512 0.93317 0.0
C1732 C 0.95192 0.10043 0.93219 0.0
C1733 C 0.94914 0.10915 0.9251 0.0
C1734 C 0.92832 0.11232 0.91477 0.0
H1735 H 0.90775 0.10967 0.79487 0.0
H1736 H 0.92135 0.11524 0.83384 0.0
H1737 H 0.92045 0.10387 0.83424 0.0
H1738 H 0.89856 0.09397 0.92107 0.0
H1739 H 0.93508 0.08838 0.93834 0.0
H1740 H 0.4438 0.21984 0.79982 0.0
H1741 H 0.40617 0.21996 0.82667 0.0
H1742 H 0.43097 0.21001 0.93497 0.0
H1743 H 0.4685 0.21024 0.90935 0.0
H1744 H 0.38003 0.20692 0.85861 0.0
H1745 H 0.39951 0.23187 0.96742 0.0
H1746 H 0.41766 0.22944 0.92733 0.0
H1747 H 0.41711 0.2227 0.96941 0.0
C1748 C 0.44122 0.21767 0.82931 0.0
C1749 C 0.45918 0.21503 0.85235 0.0
C1750 C 0.41974 0.2177 0.84453 0.0
C1751 C 0.41596 0.21513 0.88298 0.0
C1752 C 0.43365 0.21216 0.90545 0.0
H1753 H 0.27985 0.20832 0.96504 0.0
H1754 H 0.32 0.20609 0.96056 0.0
C1755 C 0.45507 0.21217 0.89044 0.0
C1756 C 0.39357 0.21574 0.89994 0.0
H1757 H 0.36356 0.22593 0.96975 0.0
C1758 C 0.3764 0.21103 0.88306 0.0
C1759 C 0.38902 0.22116 0.9317 0.0
C1760 C 0.40673 0.22665 0.94989 0.0
C1761 C 0.35459 0.21169 0.89667 0.0
C1762 C 0.35003 0.21708 0.92852 0.0
C1763 C 0.36727 0.2217 0.94581 0.0
C1764 C 0.32704 0.21883 0.94071 0.0
C1765 C 0.33648 0.20691 0.87571 0.0
C1766 C 0.31813 0.2269 0.93388 0.0
C1767 C 0.29538 0.22821 0.93686 0.0
C1768 C 0.28125 0.22147 0.94671 0.0
C1769 C 0.29043 0.21362 0.95746 0.0
C1770 C 0.31328 0.21232 0.95451 0.0
H1771 H 0.34226 0.20427 0.84757 0.0
H1772 H 0.33079 0.20155 0.89408 0.0
H1773 H 0.32204 0.2111 0.87009 0.0
H1774 H 0.32856 0.23202 0.9235 0.0
H1775 H 0.28864 0.23434 0.92881 0.0
H1776 H 0.20836 0.85629 0.57615 0.0
H1777 H 0.16874 0.85974 0.57607 0.0
H1778 H 0.16845 0.85963 0.70119 0.0
H1779 H 0.20751 0.85587 0.70181 0.0
H1780 H 0.13799 0.84799 0.61755 0.0
H1781 H 0.13209 0.88145 0.6678 0.0
H1782 H 0.15645 0.87729 0.6439 0.0
H1783 H 0.15096 0.87462 0.69361 0.0
C1784 C 0.19992 0.85707 0.60365 0.0
C1785 C 0.2112 0.85579 0.63895 0.0
C1786 C 0.17738 0.85912 0.60353 0.0
C1787 C 0.16588 0.86005 0.63864 0.0
C1788 C 0.17722 0.85913 0.67384 0.0
H1789 H 0.02741 0.86179 0.70732 0.0
H1790 H 0.06795 0.86307 0.70573 0.0
C1791 C 0.19963 0.857 0.67404 0.0
C1792 C 0.14152 0.86074 0.63881 0.0
H1793 H 0.09849 0.8736 0.66457 0.0
C1794 C 0.12931 0.85361 0.62742 0.0
C1795 C 0.13044 0.86803 0.65258 0.0
C1796 C 0.14307 0.87583 0.66501 0.0
C1797 C 0.10616 0.85352 0.62983 0.0
C1798 C 0.09495 0.86087 0.64287 0.0
C1799 C 0.10718 0.86801 0.65445 0.0
C1800 C 0.07049 0.8612 0.64366 0.0
C1801 C 0.09399 0.84546 0.61933 0.0
C1802 C 0.0586 0.86003 0.60919 0.0
C1803 C 0.03569 0.8591 0.61005 0.0
C1804 C 0.02398 0.85955 0.64539 0.0
C1805 C 0.03587 0.86128 0.6797 0.0
C1806 C 0.05899 0.86209 0.67882 0.0
H1807 H 0.10501 0.83983 0.62098 0.0
H1808 H 0.07958 0.8444 0.63878 0.0
H1809 H 0.0878 0.84595 0.58906 0.0
H1810 H 0.06718 0.85947 0.58168 0.0
H1811 H 0.0274 0.8576 0.58303 0.0
H1812 H 0.5551 0.97156 0.56911 0.0
H1813 H 0.59283 0.96694 0.58466 0.0
H1814 H 0.5681 0.94216 0.61546 0.0
H1815 H 0.53034 0.94673 0.59906 0.0
H1816 H 0.58992 0.95246 0.67698 0.0
H1817 H 0.64029 0.94937 0.54307 0.0
H1818 H 0.62198 0.95837 0.54354 0.0
H1819 H 0.61056 0.94784 0.5437 0.0
C1820 C 0.55793 0.96501 0.57732 0.0
C1821 C 0.54002 0.95946 0.58255 0.0
C1822 C 0.57941 0.96238 0.58629 0.0
C1823 C 0.58315 0.95421 0.60107 0.0
C1824 C 0.56549 0.94846 0.6037 0.0
H1825 H 0.72108 0.95056 0.6721 0.0
H1826 H 0.68436 0.94433 0.66173 0.0
C1827 C 0.54403 0.95105 0.59406 0.0
C1828 C 0.60456 0.95235 0.61989 0.0
H1829 H 0.66001 0.95272 0.6019 0.0
C1830 C 0.60528 0.95225 0.66065 0.0
C1831 C 0.62445 0.95203 0.59849 0.0
C1832 C 0.62438 0.95183 0.55473 0.0
C1833 C 0.62556 0.95261 0.68055 0.0
C1834 C 0.64541 0.95307 0.65903 0.0
C1835 C 0.64471 0.95238 0.61837 0.0
C1836 C 0.66653 0.95575 0.67691 0.0
C1837 C 0.62556 0.95298 0.72428 0.0
C1838 C 0.66852 0.96409 0.69071 0.0
C1839 C 0.68942 0.96767 0.69639 0.0
C1840 C 0.70857 0.96293 0.68855 0.0
C1841 C 0.70653 0.9543 0.6789 0.0
C1842 C 0.6856 0.95075 0.67272 0.0
H1843 H 0.61043 0.94998 0.73654 0.0
H1844 H 0.64042 0.94979 0.73648 0.0
H1845 H 0.62585 0.95972 0.73365 0.0
H1846 H 0.65401 0.96809 0.6935 0.0
H1847 H 0.69065 0.97435 0.70346 0.0
H1848 H 0.03076 0.95051 0.07131 0.0
H1849 H 0.06885 0.9468 0.08981 0.0
H1850 H 0.08789 0.97307 0.07956 0.0
H1851 H 0.04986 0.9768 0.06155 0.0
H1852 H 0.1213 0.95881 0.05511 0.0
H1853 H 0.08419 0.95733 0.20339 0.0
H1854 H 0.07149 0.95153 0.16411 0.0
H1855 H 0.07053 0.96289 0.16429 0.0
C1856 C 0.04336 0.95541 0.07119 0.0
C1857 C 0.03756 0.96393 0.06504 0.0
C1858 C 0.065 0.9533 0.08205 0.0
C1859 C 0.08095 0.95969 0.08639 0.0
C1860 C 0.07571 0.96807 0.07627 0.0
H1861 H 0.18924 0.97862 0.19875 0.0
H1862 H 0.15229 0.97361 0.18023 0.0
C1863 C 0.05408 0.97019 0.06585 0.0
C1864 C 0.10184 0.95806 0.10724 0.0
H1865 H 0.12299 0.95795 0.19924 0.0
C1866 C 0.12178 0.95836 0.08653 0.0
C1867 C 0.10219 0.95758 0.14826 0.0
C1868 C 0.08103 0.95733 0.1716 0.0
C1869 C 0.14218 0.95863 0.10601 0.0
C1870 C 0.14247 0.95863 0.14711 0.0
C1871 C 0.12259 0.95788 0.16776 0.0
C1872 C 0.1629 0.96076 0.16844 0.0
C1873 C 0.16324 0.95952 0.08269 0.0
C1874 C 0.18059 0.95503 0.17025 0.0
C1875 C 0.20163 0.95786 0.18126 0.0
C1876 C 0.20512 0.96646 0.19015 0.0
C1877 C 0.18688 0.97196 0.19216 0.0
C1878 C 0.16585 0.96911 0.18149 0.0
H1879 H 0.15998 0.95994 0.051 0.0
H1880 H 0.17245 0.96528 0.09193 0.0
H1881 H 0.17409 0.95396 0.08812 0.0
H1882 H 0.17851 0.94856 0.1603 0.0
H1883 H 0.21551 0.95353 0.179 0.0
H1884 H 0.53568 0.8645 0.15166 0.0
H1885 H 0.57264 0.86566 0.12243 0.0
H1886 H 0.57303 0.83869 0.10177 0.0
H1887 H 0.53604 0.83751 0.12952 0.0
H1888 H 0.61211 0.85786 0.14272 0.0
H1889 H 0.58701 0.84839 0.99448 0.0
H1890 H 0.56724 0.85151 0.03115 0.0
H1891 H 0.57815 0.84088 0.03044 0.0
C1892 C 0.54371 0.85882 0.14096 0.0
C1893 C 0.53292 0.85092 0.14291 0.0
C1894 C 0.56475 0.8595 0.12423 0.0
C1895 C 0.57522 0.8523 0.10896 0.0
C1896 C 0.56493 0.84436 0.11242 0.0
H1897 H 0.69579 0.83192 0.05059 0.0
H1898 H 0.65677 0.83607 0.05152 0.0
C1899 C 0.54396 0.84367 0.12905 0.0
C1900 C 0.59728 0.85294 0.09057 0.0
H1901 H 0.62601 0.84705 0.0096 0.0
C1902 C 0.61515 0.8557 0.11331 0.0
C1903 C 0.60107 0.85017 0.05206 0.0
C1904 C 0.5823 0.84766 0.02548 0.0
C1905 C 0.63698 0.85513 0.09965 0.0
C1906 C 0.64089 0.85185 0.06199 0.0
C1907 C 0.62291 0.84957 0.03839 0.0
C1908 C 0.6635 0.84954 0.04953 0.0
C1909 C 0.65576 0.85748 0.12663 0.0
C1910 C 0.68002 0.85575 0.04526 0.0
C1911 C 0.70235 0.85338 0.04467 0.0
C1912 C 0.70825 0.84479 0.04837 0.0
C1913 C 0.69158 0.83858 0.04792 0.0
C1914 C 0.66933 0.84094 0.04845 0.0
H1915 H 0.64991 0.85883 0.15656 0.0
H1916 H 0.66816 0.85228 0.12799 0.0
H1917 H 0.66424 0.86323 0.11544 0.0
H1918 H 0.67574 0.86242 0.04558 0.0
H1919 H 0.71492 0.85829 0.04518 0.0
H1920 H 0.80136 0.72441 0.94152 0.0
H1921 H 0.83922 0.71974 0.92797 0.0
H1922 H 0.81537 0.69445 0.90488 0.0
H1923 H 0.77739 0.6991 0.91855 0.0
H1924 H 0.86923 0.70519 0.94951 0.0
H1925 H 0.83641 0.70523 0.79792 0.0
H1926 H 0.82156 0.71026 0.83709 0.0
H1927 H 0.82258 0.69891 0.83411 0.0
C1928 C 0.80437 0.71777 0.93539 0.0
C1929 C 0.78658 0.71211 0.93088 0.0
C1930 C 0.82594 0.71511 0.92753 0.0
C1931 C 0.82991 0.7068 0.91481 0.0
C1932 C 0.81252 0.7009 0.91448 0.0
H1933 H 0.9675 0.70158 0.83524 0.0
H1934 H 0.93049 0.69601 0.84997 0.0
C1935 C 0.79091 0.70354 0.92264 0.0
C1936 C 0.85121 0.70492 0.89567 0.0
H1937 H 0.87496 0.70528 0.80571 0.0
C1938 C 0.87057 0.70493 0.91813 0.0
C1939 C 0.85272 0.70468 0.85466 0.0
C1940 C 0.83229 0.7048 0.82929 0.0
C1941 C 0.89152 0.70523 0.90055 0.0
C1942 C 0.89297 0.70552 0.85954 0.0
C1943 C 0.87366 0.70498 0.83709 0.0
C1944 C 0.91387 0.70797 0.84036 0.0
C1945 C 0.91188 0.7059 0.92589 0.0
C1946 C 0.91636 0.71636 0.82762 0.0
C1947 C 0.93737 0.71955 0.81917 0.0
C1948 C 0.95609 0.71434 0.82309 0.0
C1949 C 0.95326 0.70569 0.83157 0.0
C1950 C 0.9322 0.70251 0.84034 0.0
H1951 H 0.9077 0.70618 0.95728 0.0
H1952 H 0.92271 0.70032 0.92093 0.0
H1953 H 0.92151 0.71167 0.91816 0.0
H1954 H 0.90232 0.72065 0.82746 0.0
H1955 H 0.93922 0.72625 0.81286 0.0
H1956 H 0.45317 0.59909 0.97348 0.0
H1957 H 0.41419 0.59934 0.9534 0.0
H1958 H 0.43306 0.6096 0.84223 0.0
H1959 H 0.4717 0.6089 0.86054 0.0
H1960 H 0.38491 0.61195 0.92424 0.0
H1961 H 0.40313 0.58709 0.81462 0.0
H1962 H 0.42245 0.58993 0.85247 0.0
H1963 H 0.41977 0.59648 0.80995 0.0
C1964 C 0.44904 0.60145 0.94486 0.0
C1965 C 0.46578 0.60389 0.91869 0.0
C1966 C 0.42675 0.60164 0.93355 0.0
C1967 C 0.42091 0.60431 0.89602 0.0
C1968 C 0.43732 0.60738 0.87105 0.0
H1969 H 0.28308 0.60979 0.81965 0.0
H1970 H 0.32292 0.6125 0.82702 0.0
C1971 C 0.4595 0.60709 0.88203 0.0
C1972 C 0.39798 0.60331 0.88174 0.0
H1973 H 0.36694 0.59282 0.81414 0.0
C1974 C 0.38092 0.6078 0.90011 0.0
C1975 C 0.39294 0.59781 0.85047 0.0
C1976 C 0.41048 0.59249 0.83091 0.0
C1977 C 0.35881 0.6069 0.88811 0.0
C1978 C 0.35383 0.6015 0.85643 0.0
C1979 C 0.37093 0.59706 0.83796 0.0
C1980 C 0.33073 0.59968 0.84486 0.0
C1981 C 0.34091 0.61149 0.91033 0.0
C1982 C 0.32236 0.59146 0.84979 0.0
C1983 C 0.2998 0.58987 0.84505 0.0
C1984 C 0.28528 0.5965 0.8353 0.0
C1985 C 0.29396 0.60457 0.82705 0.0
C1986 C 0.31662 0.60615 0.83177 0.0
H1987 H 0.34707 0.614 0.93849 0.0
H1988 H 0.33486 0.61693 0.8928 0.0
H1989 H 0.32663 0.60722 0.91607 0.0
H1990 H 0.33306 0.58636 0.8595 0.0
H1991 H 0.29349 0.58358 0.8512 0.0
H1992 H 0.9702 0.61321 0.43214 0.0
H1993 H 0.9341 0.61968 0.41889 0.0
H1994 H 0.90159 0.59677 0.45698 0.0
H1995 H 0.93761 0.59028 0.46996 0.0
H1996 H 0.90965 0.61119 0.36125 0.0
H1997 H 0.85882 0.61554 0.49323 0.0
H1998 H 0.88881 0.6153 0.49442 0.0
H1999 H 0.87318 0.60557 0.4932 0.0
C2000 C 0.95531 0.60974 0.43966 0.0
C2001 C 0.95658 0.60125 0.45206 0.0
C2002 C 0.93472 0.61342 0.43183 0.0
C2003 C 0.91521 0.60871 0.43702 0.0
C2004 C 0.91643 0.60057 0.45339 0.0
H2005 H 0.80675 0.5917 0.32645 0.0
H2006 H 0.84388 0.59694 0.34209 0.0
C2007 C 0.93699 0.59685 0.46078 0.0
C2008 C 0.8944 0.61136 0.41789 0.0
H2009 H 0.83873 0.61221 0.43375 0.0
C2010 C 0.89418 0.6117 0.37712 0.0
C2011 C 0.87431 0.61209 0.43857 0.0
C2012 C 0.87378 0.61219 0.48232 0.0
C2013 C 0.87415 0.61189 0.35647 0.0
C2014 C 0.854 0.61173 0.37719 0.0
C2015 C 0.85427 0.61226 0.4179 0.0
C2016 C 0.83284 0.60953 0.35812 0.0
C2017 C 0.87464 0.61172 0.31271 0.0
C2018 C 0.81453 0.61497 0.36055 0.0
C2019 C 0.79337 0.61201 0.35096 0.0
C2020 C 0.79032 0.60353 0.33963 0.0
C2021 C 0.80884 0.59829 0.33453 0.0
C2022 C 0.82999 0.60129 0.3435 0.0
H2023 H 0.89037 0.61441 0.30132 0.0
H2024 H 0.87341 0.60505 0.30266 0.0
H2025 H 0.86047 0.61531 0.30031 0.0
H2026 H 0.81642 0.62132 0.37218 0.0
H2027 H 0.77921 0.6161 0.35583 0.0
H2028 H 0.30287 0.72063 0.45682 0.0
H2029 H 0.34021 0.71606 0.43905 0.0
H2030 H 0.31565 0.69087 0.41572 0.0
H2031 H 0.27816 0.69545 0.43362 0.0
H2032 H 0.37132 0.7018 0.45467 0.0
H2033 H 0.33207 0.70197 0.30786 0.0
H2034 H 0.31862 0.70667 0.34937 0.0
H2035 H 0.32018 0.69535 0.34501 0.0
C2036 C 0.30569 0.71401 0.44987 0.0
C2037 C 0.28777 0.70839 0.44643 0.0
C2038 C 0.32696 0.71141 0.43955 0.0
C2039 C 0.3305 0.70318 0.4254 0.0
C2040 C 0.31313 0.69727 0.42633 0.0
H2041 H 0.46447 0.69859 0.32718 0.0
H2042 H 0.42852 0.69296 0.34824 0.0
C2043 C 0.29181 0.69986 0.43694 0.0
C2044 C 0.35101 0.70147 0.4034 0.0
H2045 H 0.3708 0.70201 0.31052 0.0
C2046 C 0.3713 0.70157 0.4232 0.0
C2047 C 0.35076 0.70129 0.36228 0.0
C2048 C 0.32931 0.70134 0.33963 0.0
C2049 C 0.39142 0.702 0.40288 0.0
C2050 C 0.39109 0.70231 0.3618 0.0
C2051 C 0.37088 0.70169 0.34199 0.0
C2052 C 0.41106 0.70479 0.33978 0.0
C2053 C 0.41279 0.70279 0.42547 0.0
C2054 C 0.41264 0.71311 0.32568 0.0
C2055 C 0.43304 0.71633 0.31356 0.0
C2056 C 0.45207 0.71122 0.31513 0.0
C2057 C 0.44996 0.70262 0.32526 0.0
C2058 C 0.42953 0.69942 0.33767 0.0
H2059 H 0.40994 0.70315 0.45729 0.0
H2060 H 0.42345 0.69721 0.41946 0.0
H2061 H 0.42199 0.70855 0.41618 0.0
H2062 H 0.3985 0.71734 0.32706 0.0
H2063 H 0.43432 0.72298 0.30604 0.0
H2064 H 0.21621 0.3631 0.07765 0.0
H2065 H 0.17816 0.36824 0.08616 0.0
H2066 H 0.15367 0.34269 0.07344 0.0
H2067 H 0.19162 0.33753 0.06524 0.0
H2068 H 0.12521 0.35747 0.04215 0.0
H2069 H 0.1538 0.3593 0.19619 0.0
H2070 H 0.16947 0.36462 0.15892 0.0
H2071 H 0.16891 0.35326 0.16044 0.0
C2072 C 0.20259 0.35867 0.07472 0.0
C2073 C 0.20668 0.34993 0.07096 0.0
C2074 C 0.18094 0.3616 0.07986 0.0
C2075 C 0.1633 0.35581 0.0809 0.0
C2076 C 0.16717 0.34723 0.07267 0.0
H2077 H 0.04671 0.33958 0.1708 0.0
H2078 H 0.08494 0.34361 0.15554 0.0
C2079 C 0.18877 0.34429 0.06791 0.0
C2080 C 0.1417 0.35823 0.0974 0.0
H2081 H 0.11547 0.35945 0.18503 0.0
C2082 C 0.12303 0.35819 0.07323 0.0
C2083 C 0.1391 0.35907 0.13807 0.0
C2084 C 0.15879 0.35905 0.16517 0.0
C2085 C 0.10163 0.35848 0.08897 0.0
C2086 C 0.09904 0.35874 0.12975 0.0
C2087 C 0.11769 0.35931 0.15378 0.0
C2088 C 0.07741 0.35691 0.14753 0.0
C2089 C 0.08185 0.35787 0.06227 0.0
C2090 C 0.06098 0.36317 0.14994 0.0
C2091 C 0.03923 0.36089 0.15922 0.0
C2092 C 0.03379 0.35233 0.16569 0.0
C2093 C 0.05064 0.34621 0.1662 0.0
C2094 C 0.07237 0.3485 0.15738 0.0
H2095 H 0.08669 0.35793 0.03115 0.0
H2096 H 0.07258 0.35193 0.06833 0.0
H2097 H 0.07043 0.36326 0.06772 0.0
H2098 H 0.0647 0.36968 0.14227 0.0
H2099 H 0.02636 0.36568 0.15809 0.0
H2100 H 0.52305 0.44955 0.08116 0.0
H2101 H 0.56119 0.44519 0.09602 0.0
H2102 H 0.58461 0.47007 0.06378 0.0
H2103 H 0.54661 0.47443 0.04912 0.0
H2104 H 0.61436 0.45524 0.04588 0.0
H2105 H 0.58372 0.45756 0.19837 0.0
H2106 H 0.56938 0.45072 0.16483 0.0
H2107 H 0.56832 0.462 0.15829 0.0
C2108 C 0.5365 0.45393 0.07546 0.0
C2109 C 0.53205 0.46232 0.06411 0.0
C2110 C 0.55819 0.45146 0.08429 0.0
C2111 C 0.57554 0.45736 0.08153 0.0
C2112 C 0.57138 0.46544 0.06609 0.0
H2113 H 0.68655 0.478 0.17481 0.0
H2114 H 0.64944 0.47238 0.16213 0.0
C2115 C 0.54974 0.46792 0.05759 0.0
C2116 C 0.59712 0.45579 0.10039 0.0
H2117 H 0.62216 0.45746 0.18904 0.0
C2118 C 0.61615 0.45545 0.07721 0.0
C2119 C 0.59922 0.45616 0.1413 0.0
C2120 C 0.57916 0.45666 0.16738 0.0
C2121 C 0.63735 0.45599 0.09379 0.0
C2122 C 0.6394 0.45689 0.13454 0.0
C2123 C 0.62041 0.4567 0.15788 0.0
C2124 C 0.66062 0.45952 0.15213 0.0
C2125 C 0.65734 0.45628 0.06748 0.0
C2126 C 0.67886 0.45402 0.15306 0.0
C2127 C 0.70004 0.45722 0.16069 0.0
C2128 C 0.70312 0.46595 0.16716 0.0
C2129 C 0.68453 0.47126 0.17 0.0
C2130 C 0.66339 0.46805 0.16267 0.0
H2131 H 0.65271 0.45614 0.03626 0.0
H2132 H 0.66717 0.46211 0.07315 0.0
H2133 H 0.66816 0.45074 0.07357 0.0
H2134 H 0.67693 0.44742 0.14516 0.0
H2135 H 0.71417 0.45303 0.15789 0.0
H2136 H 0.05495 0.46534 0.56551 0.0
H2137 H 0.09215 0.4661 0.59411 0.0
H2138 H 0.0668 0.45607 0.70181 0.0
H2139 H 0.02966 0.4556 0.67424 0.0
H2140 H 0.09333 0.47006 0.71256 0.0
H2141 H 0.13412 0.4464 0.61732 0.0
H2142 H 0.12044 0.45474 0.59113 0.0
H2143 H 0.10437 0.4475 0.62007 0.0
C2144 C 0.05735 0.46326 0.5952 0.0
C2145 C 0.03939 0.46028 0.61733 0.0
C2146 C 0.0786 0.46365 0.61141 0.0
C2147 C 0.08222 0.46103 0.64989 0.0
C2148 C 0.06437 0.45806 0.67199 0.0
H2149 H 0.21732 0.45371 0.72735 0.0
H2150 H 0.1771 0.4517 0.72494 0.0
C2151 C 0.04319 0.4577 0.65593 0.0
C2152 C 0.10451 0.46157 0.66762 0.0
H2153 H 0.15778 0.45487 0.65675 0.0
C2154 C 0.10743 0.46669 0.70063 0.0
C2155 C 0.1227 0.45702 0.65247 0.0
C2156 C 0.12027 0.45104 0.61853 0.0
C2157 C 0.12833 0.46762 0.71806 0.0
C2158 C 0.14676 0.46342 0.70162 0.0
C2159 C 0.14363 0.45808 0.66941 0.0
C2160 C 0.16978 0.46495 0.71479 0.0
C2161 C 0.13047 0.47309 0.75377 0.0
C2162 C 0.17885 0.47314 0.71225 0.0
C2163 C 0.20176 0.47431 0.71415 0.0
C2164 C 0.21591 0.46728 0.71796 0.0
C2165 C 0.20671 0.45922 0.72438 0.0
C2166 C 0.18378 0.45806 0.72284 0.0
H2167 H 0.11461 0.47335 0.77012 0.0
H2168 H 0.1437 0.47073 0.77342 0.0
H2169 H 0.13472 0.47966 0.74485 0.0
H2170 H 0.16845 0.47852 0.70528 0.0
H2171 H 0.20845 0.48057 0.70854 0.0
H2172 H 0.54508 0.36767 0.64581 0.0
H2173 H 0.58119 0.36873 0.61318 0.0
H2174 H 0.5802 0.34179 0.59187 0.0
H2175 H 0.54421 0.34069 0.62352 0.0
H2176 H 0.62158 0.35981 0.63009 0.0
H2177 H 0.58998 0.3525 0.48298 0.0
H2178 H 0.5722 0.35597 0.52209 0.0
H2179 H 0.58077 0.34506 0.51904 0.0
C2180 C 0.5527 0.36198 0.63444 0.0
C2181 C 0.54185 0.3541 0.63733 0.0
C2182 C 0.57321 0.3626 0.61571 0.0
C2183 C 0.58294 0.35538 0.59926 0.0
C2184 C 0.57263 0.34747 0.6036 0.0
H2185 H 0.69378 0.3315 0.52609 0.0
H2186 H 0.65662 0.33758 0.52821 0.0
C2187 C 0.55226 0.34683 0.62238 0.0
C2188 C 0.60428 0.35591 0.57853 0.0
H2189 H 0.62907 0.35006 0.4937 0.0
C2190 C 0.62329 0.35791 0.59997 0.0
C2191 C 0.60626 0.35349 0.53918 0.0
C2192 C 0.58618 0.35171 0.51434 0.0
C2193 C 0.64448 0.35679 0.58414 0.0
C2194 C 0.64653 0.35378 0.54551 0.0
C2195 C 0.62743 0.35239 0.52318 0.0
C2196 C 0.66799 0.35059 0.53092 0.0
C2197 C 0.66442 0.35815 0.61 0.0
C2198 C 0.68652 0.35594 0.52836 0.0
C2199 C 0.70782 0.35247 0.52747 0.0
C2200 C 0.71066 0.34362 0.52888 0.0
C2201 C 0.69199 0.33834 0.52557 0.0
C2202 C 0.67076 0.34181 0.52671 0.0
H2203 H 0.65968 0.35936 0.64068 0.0
H2204 H 0.67549 0.35253 0.60921 0.0
H2205 H 0.67397 0.36371 0.59949 0.0
H2206 H 0.68462 0.36275 0.53077 0.0
H2207 H 0.72192 0.35669 0.52998 0.0
H2208 H 0.04416 0.18384 0.43387 0.0
H2209 H 0.06701 0.17114 0.4306 0.0
H2210 H 0.11407 0.18433 0.3584 0.0
H2211 H 0.091 0.19712 0.36088 0.0
H2212 H 0.07997 0.16201 0.36309 0.0
H2213 H 0.15263 0.17397 0.446 0.0
H2214 H 0.12593 0.17914 0.44729 0.0
H2215 H 0.14377 0.18048 0.40603 0.0
C2216 C 0.05925 0.18409 0.41698 0.0
C2217 C 0.06556 0.19157 0.39742 0.0
C2218 C 0.07239 0.17679 0.41535 0.0
C2219 C 0.09234 0.17678 0.3945 0.0
C2220 C 0.0989 0.18423 0.37518 0.0
H2221 H 0.19352 0.13851 0.35555 0.0
H2222 H 0.17097 0.15133 0.35773 0.0
C2223 C 0.08568 0.19155 0.37667 0.0
C2224 C 0.10586 0.16888 0.39245 0.0
H2225 H 0.15578 0.16032 0.41838 0.0
C2226 C 0.09654 0.16163 0.37521 0.0
C2227 C 0.12748 0.16838 0.40825 0.0
C2228 C 0.13807 0.17587 0.42824 0.0
C2229 C 0.10836 0.15395 0.37276 0.0
C2230 C 0.12994 0.15342 0.3889 0.0
C2231 C 0.13925 0.16069 0.40609 0.0
C2232 C 0.14337 0.14546 0.38752 0.0
C2233 C 0.09781 0.14655 0.35197 0.0
C2234 C 0.13554 0.13784 0.40379 0.0
C2235 C 0.14847 0.13044 0.40249 0.0
C2236 C 0.16965 0.13054 0.38542 0.0
C2237 C 0.17746 0.1382 0.36944 0.0
C2238 C 0.16451 0.14556 0.37051 0.0
H2239 H 0.08437 0.14865 0.33209 0.0
H2240 H 0.11025 0.14296 0.33488 0.0
H2241 H 0.09039 0.14219 0.37368 0.0
H2242 H 0.11953 0.13763 0.41796 0.0
H2243 H 0.14206 0.12469 0.41551 0.0
H2244 H 0.03909 0.13399 0.8836 0.0
H2245 H 0.06099 0.14697 0.88356 0.0
H2246 H 0.11646 0.13338 0.8353 0.0
H2247 H 0.09435 0.12031 0.83433 0.0
H2248 H 0.10099 0.15003 0.92249 0.0
H2249 H 0.11073 0.15414 0.76316 0.0
H2250 H 0.09035 0.14709 0.78402 0.0
H2251 H 0.11896 0.14398 0.78199 0.0
C2252 C 0.0558 0.13374 0.87231 0.0
C2253 C 0.06481 0.12607 0.85856 0.0
C2254 C 0.06839 0.14119 0.87262 0.0
C2255 C 0.09029 0.14121 0.859 0.0
C2256 C 0.09947 0.13357 0.84537 0.0
H2257 H 0.19004 0.18102 0.84253 0.0
H2258 H 0.16894 0.16784 0.83904 0.0
C2259 C 0.08687 0.12607 0.84517 0.0
C2260 C 0.10353 0.14919 0.86029 0.0
H2261 H 0.12984 0.16385 0.8034 0.0
C2262 C 0.10727 0.15306 0.89645 0.0
C2263 C 0.11177 0.15314 0.82633 0.0
C2264 C 0.10765 0.14944 0.78658 0.0
C2265 C 0.11921 0.1607 0.89963 0.0
C2266 C 0.12723 0.16472 0.86562 0.0
C2267 C 0.12363 0.16081 0.82947 0.0
C2268 C 0.13972 0.17289 0.86704 0.0
C2269 C 0.12356 0.16428 0.93955 0.0
C2270 C 0.13023 0.18022 0.88324 0.0
C2271 C 0.14238 0.18779 0.88566 0.0
C2272 C 0.16429 0.18822 0.87166 0.0
C2273 C 0.17344 0.18092 0.85436 0.0
C2274 C 0.16131 0.17337 0.85204 0.0
H2275 H 0.12181 0.15936 0.96248 0.0
H2276 H 0.14045 0.16705 0.94149 0.0
H2277 H 0.11135 0.16937 0.94565 0.0
H2278 H 0.11342 0.18008 0.89423 0.0
H2279 H 0.13475 0.19323 0.89925 0.0
H2280 H 0.92047 0.87778 0.63991 0.0
H2281 H 0.91058 0.8929 0.63866 0.0
H2282 H 0.85059 0.88691 0.57629 0.0
H2283 H 0.86044 0.87188 0.57711 0.0
H2284 H 0.87703 0.90128 0.54623 0.0
H2285 H 0.85828 0.90338 0.70435 0.0
H2286 H 0.88437 0.89882 0.68998 0.0
H2287 H 0.85904 0.89336 0.67901 0.0
C2288 C 0.90531 0.8797 0.62558 0.0
C2289 C 0.89117 0.87361 0.6088 0.0
C2290 C 0.89959 0.88833 0.62517 0.0
C2291 C 0.87972 0.89101 0.60775 0.0
C2292 C 0.86593 0.88498 0.59008 0.0
H2293 H 0.79621 0.93318 0.56252 0.0
H2294 H 0.81747 0.92009 0.56411 0.0
C2295 C 0.87153 0.87638 0.59076 0.0
C2296 C 0.87291 0.90007 0.60803 0.0
H2297 H 0.85119 0.91547 0.66648 0.0
C2298 C 0.87161 0.90443 0.57257 0.0
C2299 C 0.86602 0.90418 0.64246 0.0
C2300 C 0.86683 0.89973 0.68121 0.0
C2301 C 0.86308 0.91271 0.57046 0.0
C2302 C 0.85506 0.91667 0.60459 0.0
C2303 C 0.85725 0.91244 0.64032 0.0
C2304 C 0.84266 0.92483 0.60327 0.0
C2305 C 0.86261 0.91711 0.53156 0.0
C2306 C 0.84935 0.93185 0.62556 0.0
C2307 C 0.83694 0.93938 0.62515 0.0
C2308 C 0.81745 0.94 0.60278 0.0
C2309 C 0.81092 0.93294 0.58047 0.0
C2310 C 0.82328 0.92546 0.5809 0.0
H2311 H 0.87576 0.91464 0.51204 0.0
H2312 H 0.84638 0.91591 0.51737 0.0
H2313 H 0.86482 0.92407 0.53471 0.0
H2314 H 0.86414 0.93149 0.64336 0.0
H2315 H 0.84234 0.94464 0.64297 0.0
H2316 H 0.89211 0.94093 0.15426 0.0
H2317 H 0.87065 0.92779 0.16083 0.0
H2318 H 0.92604 0.91347 0.11681 0.0
H2319 H 0.94747 0.9265 0.11008 0.0
H2320 H 0.8584 0.9161 0.10497 0.0
H2321 H 0.9114 0.90059 0.21569 0.0
H2322 H 0.91367 0.91173 0.20411 0.0
H2323 H 0.92643 0.90391 0.17337 0.0
C2324 C 0.89971 0.93499 0.1459 0.0
C2325 C 0.92165 0.9348 0.13198 0.0
C2326 C 0.88745 0.92747 0.14984 0.0
C2327 C 0.89687 0.9196 0.14011 0.0
C2328 C 0.9186 0.91942 0.12561 0.0
H2329 H 0.85038 0.86743 0.12346 0.0
H2330 H 0.87218 0.88057 0.12361 0.0
C2331 C 0.93086 0.9269 0.12175 0.0
C2332 C 0.88382 0.91161 0.14376 0.0
H2333 H 0.88426 0.89186 0.18503 0.0
C2334 C 0.86396 0.91083 0.12274 0.0
C2335 C 0.8911 0.90471 0.16685 0.0
C2336 C 0.9117 0.90528 0.19159 0.0
C2337 C 0.8515 0.90329 0.12343 0.0
C2338 C 0.85887 0.89636 0.14626 0.0
C2339 C 0.87866 0.89716 0.16745 0.0
C2340 C 0.84617 0.88828 0.14853 0.0
C2341 C 0.83081 0.90271 0.09888 0.0
C2342 C 0.82458 0.88817 0.16363 0.0
C2343 C 0.81215 0.88068 0.1638 0.0
C2344 C 0.82104 0.87308 0.149 0.0
C2345 C 0.84304 0.87313 0.13533 0.0
C2346 C 0.85548 0.88065 0.13518 0.0
H2347 H 0.83044 0.90768 0.07597 0.0
H2348 H 0.82947 0.8964 0.08482 0.0
H2349 H 0.81606 0.9036 0.11766 0.0
H2350 H 0.81723 0.89393 0.17498 0.0
H2351 H 0.79548 0.88086 0.17531 0.0
H2352 H 0.09726 0.69565 0.88393 0.0
H2353 H 0.11872 0.68248 0.88509 0.0
H2354 H 0.06487 0.6698 0.94344 0.0
H2355 H 0.04363 0.68298 0.94353 0.0
H2356 H 0.1056 0.66554 0.97413 0.0
H2357 H 0.10628 0.66236 0.81366 0.0
H2358 H 0.11744 0.67221 0.83111 0.0
H2359 H 0.08861 0.66981 0.83857 0.0
C2360 C 0.0901 0.6901 0.89758 0.0
C2361 C 0.06859 0.69038 0.91335 0.0
C2362 C 0.1023 0.68254 0.89777 0.0
C2363 C 0.09322 0.67509 0.91358 0.0
C2364 C 0.07214 0.67543 0.93071 0.0
H2365 H 0.1384 0.62337 0.86963 0.0
H2366 H 0.11675 0.63646 0.87488 0.0
C2367 C 0.05995 0.68298 0.93053 0.0
C2368 C 0.10548 0.6669 0.91193 0.0
H2369 H 0.12799 0.65249 0.84915 0.0
C2370 C 0.11049 0.66269 0.9468 0.0
C2371 C 0.11151 0.66309 0.87624 0.0
C2372 C 0.10553 0.66704 0.83772 0.0
C2373 C 0.12168 0.65486 0.94699 0.0
C2374 C 0.12836 0.65119 0.91136 0.0
C2375 C 0.12302 0.65533 0.87647 0.0
C2376 C 0.1411 0.64311 0.9096 0.0
C2377 C 0.12589 0.65053 0.98536 0.0
C2378 C 0.16201 0.64248 0.92727 0.0
C2379 C 0.17434 0.635 0.92454 0.0
C2380 C 0.16614 0.62796 0.90379 0.0
C2381 C 0.14512 0.6286 0.88626 0.0
C2382 C 0.13278 0.63611 0.889 0.0
H2383 H 0.11447 0.65285 0.0083 0.0
H2384 H 0.12396 0.64354 0.98276 0.0
H2385 H 0.14311 0.65189 0.99488 0.0
H2386 H 0.16898 0.64784 0.94274 0.0
H2387 H 0.19033 0.63474 0.93873 0.0
H2388 H 0.14046 0.68943 0.39787 0.0
H2389 H 0.11764 0.67657 0.39616 0.0
H2390 H 0.17034 0.66323 0.33788 0.0
H2391 H 0.19276 0.67608 0.33799 0.0
H2392 H 0.13112 0.6595 0.30592 0.0
H2393 H 0.12485 0.65608 0.4658 0.0
H2394 H 0.11471 0.66604 0.4479 0.0
H2395 H 0.14363 0.66348 0.44307 0.0
C2396 C 0.1471 0.6838 0.38426 0.0
C2397 C 0.16863 0.68382 0.36845 0.0
C2398 C 0.13413 0.67639 0.38379 0.0
C2399 C 0.14243 0.66883 0.36773 0.0
C2400 C 0.1636 0.66893 0.35085 0.0
H2401 H 0.09115 0.61745 0.40465 0.0
H2402 H 0.11355 0.63043 0.40416 0.0
C2403 C 0.17651 0.6763 0.35119 0.0
C2404 C 0.1292 0.66081 0.36804 0.0
H2405 H 0.10335 0.64656 0.42785 0.0
C2406 C 0.12507 0.65668 0.33262 0.0
C2407 C 0.1216 0.65701 0.40289 0.0
C2408 C 0.12658 0.66082 0.44212 0.0
C2409 C 0.1134 0.64896 0.331 0.0
C2410 C 0.10512 0.64531 0.3657 0.0
C2411 C 0.1095 0.64937 0.4012 0.0
C2412 C 0.09168 0.63735 0.36567 0.0
C2413 C 0.11048 0.64469 0.2921 0.0
C2414 C 0.07183 0.63689 0.34449 0.0
C2415 C 0.05913 0.62946 0.34439 0.0
C2416 C 0.06574 0.62228 0.36589 0.0
C2417 C 0.0856 0.62277 0.38736 0.0
C2418 C 0.09837 0.63023 0.38734 0.0
H2419 H 0.1232 0.64683 0.27093 0.0
H2420 H 0.11149 0.63768 0.29482 0.0
H2421 H 0.09396 0.64635 0.28012 0.0
H2422 H 0.06602 0.64232 0.32815 0.0
H2423 H 0.04415 0.62937 0.32714 0.0
H2424 H 0.79007 0.43388 0.05025 0.0
H2425 H 0.81078 0.42058 0.05243 0.0
H2426 H 0.86489 0.43331 0.10994 0.0
H2427 H 0.84392 0.4466 0.10911 0.0
H2428 H 0.85089 0.41587 0.02278 0.0
H2429 H 0.85229 0.41368 0.18351 0.0
H2430 H 0.83492 0.42112 0.15784 0.0
H2431 H 0.86389 0.42335 0.1649 0.0
C2432 C 0.80632 0.43387 0.06354 0.0
C2433 C 0.81516 0.44133 0.07989 0.0
C2434 C 0.81822 0.42625 0.06457 0.0
C2435 C 0.83921 0.42588 0.08208 0.0
C2436 C 0.8485 0.43338 0.09706 0.0
H2437 H 0.93609 0.38556 0.06038 0.0
H2438 H 0.91418 0.39848 0.05492 0.0
C2439 C 0.8366 0.44101 0.09607 0.0
C2440 C 0.85122 0.41764 0.08476 0.0
H2441 H 0.87396 0.4036 0.14917 0.0
C2442 C 0.8559 0.41318 0.05043 0.0
C2443 C 0.85739 0.41403 0.12087 0.0
C2444 C 0.8517 0.41824 0.15892 0.0
C2445 C 0.86696 0.40533 0.05116 0.0
C2446 C 0.8739 0.40189 0.08717 0.0
C2447 C 0.86881 0.40626 0.12155 0.0
C2448 C 0.88689 0.39387 0.08977 0.0
C2449 C 0.87082 0.40074 0.01334 0.0
C2450 C 0.87911 0.38697 0.1118 0.0
C2451 C 0.8918 0.37956 0.11539 0.0
C2452 C 0.91266 0.37892 0.09733 0.0
C2453 C 0.92026 0.38583 0.07506 0.0
C2454 C 0.90759 0.39321 0.07149 0.0
H2455 H 0.85901 0.40285 0.99052 0.0
H2456 H 0.88785 0.40212 0.00293 0.0
H2457 H 0.86917 0.39377 0.01706 0.0
H2458 H 0.86324 0.38734 0.12641 0.0
H2459 H 0.88553 0.37442 0.13312 0.0
H2460 H 0.92899 0.42501 0.5703 0.0
H2461 H 0.90953 0.41178 0.58345 0.0
H2462 H 0.86287 0.42519 0.65559 0.0
H2463 H 0.8821 0.43862 0.64141 0.0
H2464 H 0.90034 0.40307 0.65045 0.0
H2465 H 0.82234 0.41322 0.578 0.0
H2466 H 0.84789 0.41909 0.57338 0.0
H2467 H 0.83159 0.41995 0.61685 0.0
C2468 C 0.91451 0.42519 0.5888 0.0
C2469 C 0.90686 0.43292 0.60418 0.0
C2470 C 0.90348 0.41758 0.59656 0.0
C2471 C 0.88445 0.41748 0.61987 0.0
C2472 C 0.87725 0.42512 0.63681 0.0
H2473 H 0.79237 0.37611 0.66852 0.0
H2474 H 0.81276 0.38946 0.66833 0.0
C2475 C 0.88837 0.43279 0.62904 0.0
C2476 C 0.87209 0.40935 0.62523 0.0
H2477 H 0.82276 0.39955 0.60549 0.0
C2478 C 0.88334 0.40231 0.64077 0.0
C2479 C 0.84993 0.40833 0.61242 0.0
C2480 C 0.83722 0.41551 0.59391 0.0
C2481 C 0.87307 0.39432 0.6439 0.0
C2482 C 0.85103 0.39327 0.63056 0.0
C2483 C 0.83966 0.40034 0.61563 0.0
C2484 C 0.83936 0.38492 0.63182 0.0
C2485 C 0.88583 0.38709 0.66191 0.0
C2486 C 0.84746 0.37786 0.61133 0.0
C2487 C 0.83571 0.37016 0.6112 0.0
C2488 C 0.81548 0.36939 0.63127 0.0
C2489 C 0.80763 0.37647 0.65213 0.0
C2490 C 0.81936 0.38413 0.65226 0.0
H2491 H 0.8999 0.38941 0.67985 0.0
H2492 H 0.87489 0.38311 0.68036 0.0
H2493 H 0.8927 0.38304 0.63852 0.0
H2494 H 0.86262 0.37835 0.59467 0.0
H2495 H 0.84214 0.3649 0.59449 0.0
H2496 H 0.70169 0.13404 0.93743 0.0
H2497 H 0.68216 0.14762 0.93866 0.0
H2498 H 0.62957 0.13685 0.86949 0.0
H2499 H 0.64899 0.12324 0.86839 0.0
H2500 H 0.67275 0.15735 0.87648 0.0
H2501 H 0.59454 0.14924 0.95174 0.0
H2502 H 0.61844 0.14235 0.95243 0.0
H2503 H 0.59999 0.14239 0.91131 0.0
C2504 C 0.68586 0.13454 0.9228 0.0
C2505 C 0.67693 0.12755 0.90273 0.0
C2506 C 0.67467 0.1423 0.92364 0.0
C2507 C 0.65425 0.14326 0.90455 0.0
C2508 C 0.64501 0.13623 0.88528 0.0
H2509 H 0.57109 0.1825 0.81936 0.0
H2510 H 0.58918 0.16951 0.84086 0.0
C2511 C 0.65616 0.12844 0.8846 0.0
C2512 C 0.64361 0.15176 0.90198 0.0
H2513 H 0.59469 0.16226 0.91553 0.0
C2514 C 0.65579 0.15846 0.88561 0.0
C2515 C 0.6215 0.15322 0.91394 0.0
C2516 C 0.60793 0.14644 0.9337 0.0
C2517 C 0.64617 0.16646 0.87918 0.0
C2518 C 0.62383 0.16783 0.88991 0.0
C2519 C 0.61184 0.16121 0.90737 0.0
C2520 C 0.61203 0.1758 0.87976 0.0
C2521 C 0.65966 0.17325 0.85924 0.0
C2522 C 0.6185 0.18369 0.89519 0.0
C2523 C 0.60818 0.19119 0.88272 0.0
C2524 C 0.59132 0.19091 0.85452 0.0
C2525 C 0.58436 0.18297 0.84043 0.0
C2526 C 0.59456 0.17551 0.85296 0.0
H2527 H 0.67526 0.1707 0.84672 0.0
H2528 H 0.64991 0.17627 0.83563 0.0
H2529 H 0.66409 0.17823 0.8806 0.0
H2530 H 0.63174 0.18404 0.91638 0.0
H2531 H 0.61386 0.19721 0.89413 0.0
H2532 H 0.69397 0.17521 0.29158 0.0
H2533 H 0.67125 0.16241 0.29403 0.0
H2534 H 0.61988 0.17621 0.35361 0.0
H2535 H 0.64269 0.18907 0.35176 0.0
H2536 H 0.65589 0.15436 0.36207 0.0
H2537 H 0.58603 0.16382 0.2663 0.0
H2538 H 0.61224 0.16937 0.26667 0.0
H2539 H 0.59239 0.17116 0.30463 0.0
C2540 C 0.67783 0.17556 0.30517 0.0
C2541 C 0.67026 0.1832 0.32165 0.0
C2542 C 0.66482 0.16822 0.3064 0.0
C2543 C 0.6438 0.16834 0.32377 0.0
C2544 C 0.63589 0.17599 0.33946 0.0
H2545 H 0.54351 0.13047 0.37299 0.0
H2546 H 0.5656 0.14331 0.36508 0.0
C2547 C 0.64896 0.18335 0.33831 0.0
C2548 C 0.63076 0.16034 0.32715 0.0
H2549 H 0.58207 0.15087 0.30059 0.0
C2550 C 0.63979 0.15357 0.34847 0.0
C2551 C 0.60974 0.15933 0.30951 0.0
C2552 C 0.59953 0.16627 0.28519 0.0
C2553 C 0.62819 0.1459 0.35333 0.0
C2554 C 0.60717 0.14487 0.33559 0.0
C2555 C 0.59819 0.15164 0.31413 0.0
C2556 C 0.59388 0.13693 0.33992 0.0
C2557 C 0.63831 0.13907 0.37846 0.0
C2558 C 0.60226 0.12902 0.32807 0.0
C2559 C 0.5896 0.12161 0.33264 0.0
C2560 C 0.56816 0.12198 0.34866 0.0
C2561 C 0.55978 0.12993 0.36004 0.0
C2562 C 0.57246 0.1373 0.35568 0.0
H2563 H 0.65126 0.14167 0.39811 0.0
H2564 H 0.62548 0.13587 0.39635 0.0
H2565 H 0.64623 0.13424 0.35963 0.0
H2566 H 0.61852 0.12858 0.31496 0.0
H2567 H 0.59645 0.11563 0.32308 0.0
H2568 H 0.37554 0.87059 0.10302 0.0
H2569 H 0.35763 0.88407 0.08494 0.0
H2570 H 0.40424 0.89768 0.15662 0.0
H2571 H 0.42221 0.88438 0.1741 0.0
H2572 H 0.33787 0.89566 0.13743 0.0
H2573 H 0.40545 0.91127 0.05545 0.0
H2574 H 0.40506 0.9 0.0649 0.0
H2575 H 0.41423 0.90728 0.10179 0.0
C2576 C 0.38215 0.87648 0.11429 0.0
C2577 C 0.4002 0.87641 0.14019 0.0
C2578 C 0.37187 0.88417 0.10412 0.0
C2579 C 0.37974 0.89192 0.11908 0.0
C2580 C 0.39807 0.89183 0.14416 0.0
H2581 H 0.34238 0.94448 0.13922 0.0
H2582 H 0.36088 0.93065 0.13813 0.0
C2583 C 0.40818 0.88419 0.1545 0.0
C2584 C 0.36807 0.90006 0.11104 0.0
H2585 H 0.37643 0.92032 0.07859 0.0
C2586 C 0.34615 0.90102 0.12399 0.0
C2587 C 0.37895 0.90707 0.09378 0.0
C2588 C 0.40216 0.90635 0.07784 0.0
C2589 C 0.33517 0.90887 0.1217 0.0
C2590 C 0.34622 0.91595 0.10519 0.0
C2591 C 0.36796 0.91493 0.09135 0.0
C2592 C 0.33573 0.9245 0.10322 0.0
C2593 C 0.31216 0.90961 0.13858 0.0
C2594 C 0.31579 0.92574 0.08293 0.0
C2595 C 0.30519 0.93364 0.08351 0.0
C2596 C 0.31439 0.94052 0.10407 0.0
C2597 C 0.33489 0.93936 0.12288 0.0
C2598 C 0.34544 0.93144 0.12243 0.0
H2599 H 0.30832 0.90428 0.15862 0.0
H2600 H 0.31017 0.91567 0.1546 0.0
H2601 H 0.29982 0.90948 0.11467 0.0
H2602 H 0.30826 0.92057 0.067 0.0
H2603 H 0.28966 0.93434 0.06809 0.0
H2604 H 0.3693 0.86679 0.72412 0.0
H2605 H 0.38496 0.8809 0.71323 0.0
H2606 H 0.33997 0.88476 0.61756 0.0
H2607 H 0.32406 0.87059 0.6285 0.0
H2608 H 0.40414 0.88769 0.63981 0.0
H2609 H 0.33082 0.90562 0.69365 0.0
H2610 H 0.33555 0.89465 0.70636 0.0
H2611 H 0.3262 0.89735 0.65849 0.0
C2612 C 0.3627 0.87063 0.70079 0.0
C2613 C 0.34534 0.86757 0.67731 0.0
C2614 C 0.37172 0.87869 0.69452 0.0
C2615 C 0.36346 0.88392 0.66491 0.0
C2616 C 0.34643 0.88085 0.64085 0.0
H2617 H 0.40013 0.93702 0.61633 0.0
H2618 H 0.38087 0.92327 0.61688 0.0
C2619 C 0.3375 0.87273 0.64689 0.0
C2620 C 0.37284 0.89257 0.65957 0.0
H2621 H 0.36189 0.9136 0.6743 0.0
C2622 C 0.39488 0.89336 0.64711 0.0
C2623 C 0.36066 0.89996 0.66881 0.0
C2624 C 0.33701 0.89943 0.68279 0.0
C2625 C 0.40516 0.90134 0.64404 0.0
C2626 C 0.39331 0.90873 0.65488 0.0
C2627 C 0.37103 0.90795 0.66624 0.0
C2628 C 0.40411 0.91724 0.65604 0.0
C2629 C 0.42861 0.90176 0.62889 0.0
C2630 C 0.4231 0.91854 0.6789 0.0
C2631 C 0.4341 0.92635 0.67853 0.0
C2632 C 0.42622 0.93311 0.65572 0.0
C2633 C 0.40657 0.93195 0.6343 0.0
C2634 C 0.39562 0.92408 0.63445 0.0
H2635 H 0.43258 0.89617 0.61054 0.0
H2636 H 0.43141 0.9076 0.61155 0.0
H2637 H 0.44032 0.90177 0.65376 0.0
H2638 H 0.42959 0.91347 0.69683 0.0
H2639 H 0.44891 0.92708 0.69599 0.0
H2640 H 0.59668 0.69313 0.36571 0.0
H2641 H 0.61846 0.68008 0.37113 0.0
H2642 H 0.56463 0.66803 0.43213 0.0
H2643 H 0.54294 0.68105 0.42764 0.0
H2644 H 0.63083 0.67035 0.44015 0.0
H2645 H 0.57747 0.652 0.33875 0.0
H2646 H 0.57697 0.66344 0.34102 0.0
H2647 H 0.56328 0.65728 0.37773 0.0
C2648 C 0.58954 0.68776 0.38075 0.0
C2649 C 0.56787 0.68818 0.39588 0.0
C2650 C 0.60199 0.68027 0.38362 0.0
C2651 C 0.59301 0.67302 0.40138 0.0
C2652 C 0.57172 0.67348 0.41754 0.0
H2653 H 0.64175 0.62081 0.428 0.0
H2654 H 0.61894 0.63373 0.42883 0.0
C2655 C 0.55931 0.68096 0.41486 0.0
C2656 C 0.60584 0.66496 0.40299 0.0
H2657 H 0.60615 0.64448 0.37034 0.0
C2658 C 0.62547 0.66469 0.42484 0.0
C2659 C 0.59873 0.65756 0.38329 0.0
C2660 C 0.57805 0.65755 0.3586 0.0
C2661 C 0.63809 0.65722 0.42777 0.0
C2662 C 0.63123 0.64985 0.40746 0.0
C2663 C 0.61144 0.6501 0.38595 0.0
C2664 C 0.64484 0.64194 0.40685 0.0
C2665 C 0.65846 0.65726 0.45326 0.0
C2666 C 0.66677 0.64219 0.39337 0.0
C2667 C 0.67976 0.63486 0.39297 0.0
C2668 C 0.67113 0.62703 0.40564 0.0
C2669 C 0.64892 0.62672 0.41808 0.0
C2670 C 0.63591 0.63411 0.41867 0.0
H2671 H 0.65748 0.66227 0.47586 0.0
H2672 H 0.66085 0.65104 0.4678 0.0
H2673 H 0.67326 0.65859 0.43513 0.0
H2674 H 0.67385 0.64807 0.38283 0.0
H2675 H 0.69655 0.63531 0.38216 0.0
H2676 H 0.70297 0.67854 0.81473 0.0
H2677 H 0.68324 0.6651 0.81706 0.0
H2678 H 0.62577 0.67773 0.86379 0.0
H2679 H 0.64591 0.69118 0.86366 0.0
H2680 H 0.63484 0.66434 0.90526 0.0
H2681 H 0.63652 0.65441 0.75176 0.0
H2682 H 0.66399 0.65667 0.76868 0.0
H2683 H 0.64367 0.66504 0.76667 0.0
C2684 C 0.68612 0.67851 0.82544 0.0
C2685 C 0.6762 0.686 0.83936 0.0
C2686 C 0.67468 0.6708 0.82613 0.0
C2687 C 0.65283 0.67037 0.84001 0.0
C2688 C 0.64256 0.67788 0.85269 0.0
H2689 H 0.57865 0.62206 0.8403 0.0
H2690 H 0.59167 0.63639 0.82363 0.0
C2691 C 0.65409 0.68561 0.85233 0.0
C2692 C 0.64163 0.662 0.8448 0.0
H2693 H 0.63081 0.64321 0.79882 0.0
C2694 C 0.6337 0.65978 0.88177 0.0
C2695 C 0.63973 0.65604 0.81414 0.0
C2696 C 0.64621 0.6582 0.77302 0.0
C2697 C 0.62487 0.6517 0.88933 0.0
C2698 C 0.62455 0.64554 0.85943 0.0
C2699 C 0.63147 0.64786 0.82198 0.0
C2700 C 0.61767 0.63661 0.86701 0.0
C2701 C 0.61593 0.64988 0.92941 0.0
C2702 C 0.62848 0.63184 0.89577 0.0
C2703 C 0.62101 0.62372 0.90539 0.0
C2704 C 0.6028 0.62011 0.88601 0.0
C2705 C 0.59278 0.62467 0.8556 0.0
C2706 C 0.60014 0.63287 0.84621 0.0
H2707 H 0.61074 0.6558 0.94434 0.0
H2708 H 0.60153 0.6455 0.92824 0.0
H2709 H 0.62913 0.6469 0.94722 0.0
H2710 H 0.64249 0.63447 0.91136 0.0
H2711 H 0.62929 0.62029 0.92846 0.0
H2712 H 0.38586 0.37278 0.59043 0.0
H2713 H 0.36914 0.38622 0.56825 0.0
H2714 H 0.41626 0.40016 0.63766 0.0
H2715 H 0.43293 0.38691 0.65916 0.0
H2716 H 0.34969 0.39843 0.61683 0.0
H2717 H 0.41863 0.41291 0.53509 0.0
H2718 H 0.41758 0.4017 0.54593 0.0
H2719 H 0.42782 0.40912 0.58148 0.0
C2720 C 0.39284 0.37873 0.60018 0.0
C2721 C 0.41059 0.3788 0.6267 0.0
C2722 C 0.38327 0.38639 0.58766 0.0
C2723 C 0.39164 0.39421 0.60087 0.0
C2724 C 0.40977 0.39424 0.6264 0.0
H2725 H 0.36777 0.44392 0.65954 0.0
H2726 H 0.38057 0.42979 0.64118 0.0
C2727 C 0.41914 0.38664 0.63907 0.0
C2728 C 0.38058 0.40239 0.59138 0.0
H2729 H 0.39262 0.42276 0.56488 0.0
C2730 C 0.35879 0.4037 0.60436 0.0
C2731 C 0.39243 0.40926 0.57497 0.0
C2732 C 0.41533 0.40815 0.5582 0.0
C2733 C 0.34929 0.41185 0.60452 0.0
C2734 C 0.36187 0.41884 0.59102 0.0
C2735 C 0.38302 0.41741 0.5754 0.0
C2736 C 0.35483 0.42772 0.59847 0.0
C2737 C 0.32654 0.41306 0.62182 0.0
C2738 C 0.33641 0.43136 0.57977 0.0
C2739 C 0.32908 0.4395 0.59019 0.0
C2740 C 0.33997 0.44406 0.6197 0.0
C2741 C 0.3589 0.44051 0.63709 0.0
C2742 C 0.36628 0.43245 0.62649 0.0
H2743 H 0.31969 0.40708 0.63395 0.0
H2744 H 0.32716 0.41789 0.64526 0.0
H2745 H 0.31502 0.41541 0.5991 0.0
H2746 H 0.32744 0.42783 0.55781 0.0
H2747 H 0.31441 0.44208 0.57646 0.0
H2748 H 0.3857 0.4449 0.16819 0.0
H2749 H 0.36369 0.43186 0.1751 0.0
H2750 H 0.41936 0.41711 0.13532 0.0
H2751 H 0.44125 0.43 0.12847 0.0
H2752 H 0.35171 0.41966 0.1213 0.0
H2753 H 0.40386 0.40499 0.23535 0.0
H2754 H 0.40631 0.41603 0.22206 0.0
H2755 H 0.41947 0.40796 0.19317 0.0
C2756 C 0.39321 0.43888 0.16087 0.0
C2757 C 0.4154 0.43851 0.14838 0.0
C2758 C 0.38064 0.43142 0.16496 0.0
C2759 C 0.39003 0.42346 0.15669 0.0
C2760 C 0.41193 0.42312 0.14314 0.0
H2761 H 0.34655 0.37102 0.14134 0.0
H2762 H 0.36725 0.38441 0.14147 0.0
C2763 C 0.42446 0.43053 0.13921 0.0
C2764 C 0.37694 0.41548 0.16115 0.0
H2765 H 0.37785 0.39586 0.20379 0.0
C2766 C 0.3573 0.4145 0.13967 0.0
C2767 C 0.38423 0.40871 0.18505 0.0
C2768 C 0.4045 0.40949 0.21052 0.0
C2769 C 0.34517 0.40687 0.14051 0.0
C2770 C 0.35269 0.40005 0.16387 0.0
C2771 C 0.37216 0.40106 0.18572 0.0
C2772 C 0.34054 0.39183 0.16591 0.0
C2773 C 0.32472 0.40607 0.11548 0.0
C2774 C 0.3189 0.39148 0.18073 0.0
C2775 C 0.30711 0.38383 0.181 0.0
C2776 C 0.31666 0.37632 0.16651 0.0
C2777 C 0.33868 0.37663 0.153 0.0
C2778 C 0.3505 0.3843 0.15282 0.0
H2779 H 0.32409 0.41105 0.09267 0.0
H2780 H 0.32404 0.39975 0.10128 0.0
H2781 H 0.30977 0.40675 0.13395 0.0
H2782 H 0.31105 0.39715 0.19186 0.0
H2783 H 0.2904 0.38383 0.19238 0.0
H2784 H 0.96689 0.30666 0.12164 0.0
H2785 H 0.97987 0.29462 0.15979 0.0
H2786 H 0.96019 0.30733 0.26503 0.0
H2787 H 0.94657 0.3194 0.22674 0.0
H2788 H 0.01219 0.29396 0.21786 0.0
H2789 H 0.92998 0.28402 0.27449 0.0
H2790 H 0.93296 0.29133 0.23446 0.0
H2791 H 0.93713 0.29491 0.28345 0.0
C2792 C 0.965 0.30689 0.15285 0.0
C2793 C 0.95535 0.31399 0.17101 0.0
C2794 C 0.97264 0.3 0.17468 0.0
C2795 C 0.97073 0.29999 0.21525 0.0
C2796 C 0.96149 0.30712 0.23369 0.0
H2797 H 0.00368 0.26381 0.39525 0.0
H2798 H 0.99157 0.27584 0.3566 0.0
C2799 C 0.95389 0.31405 0.2118 0.0
C2800 C 0.97862 0.29251 0.23794 0.0
H2801 H 0.96127 0.27669 0.29868 0.0
C2802 C 0.00105 0.29017 0.23549 0.0
C2803 C 0.96408 0.28754 0.26081 0.0
C2804 C 0.93965 0.28951 0.26333 0.0
C2805 C 0.00943 0.28313 0.25589 0.0
C2806 C -0.00511 0.27815 0.27878 0.0
C2807 C 0.97244 0.28048 0.2811 0.0
C2808 C 0.00272 0.2707 0.30182 0.0
C2809 C 0.03391 0.28123 0.25358 0.0
C2810 C 0.01292 0.26368 0.28401 0.0
C2811 C 0.02019 0.25675 0.30629 0.0
C2812 C 0.01733 0.25667 0.34688 0.0
C2813 C 0.00673 0.26366 0.36434 0.0
C2814 C -0.00045 0.27056 0.34214 0.0
H2815 H 0.04354 0.2868 0.24328 0.0
H2816 H 0.04051 0.27924 0.28229 0.0
H2817 H 0.03663 0.27596 0.23275 0.0
H2818 H 0.01514 0.26354 0.25283 0.0
H2819 H 0.02824 0.25151 0.29177 0.0
H2820 H 0.25903 0.9986 0.21765 0.0
H2821 H 0.24279 1.01081 0.2514 0.0
H2822 H 0.29081 1.02731 0.19771 0.0
H2823 H 0.3073 1.01519 0.16451 0.0
H2824 H 0.26284 1.02341 0.30246 0.0
H2825 H 0.23003 0.03767 0.16665 0.0
H2826 H 0.23877 1.02673 0.16965 0.0
H2827 H 0.25902 0.03505 0.16552 0.0
C2828 C 0.26637 1.0048 0.2135 0.0
C2829 C 0.28436 1.0059 0.18791 0.0
C2830 C 0.25697 1.01179 0.23263 0.0
C2831 C 0.26527 1.02001 0.2264 0.0
C2832 C 0.28377 1.02107 0.20224 0.0
H2833 H 0.23143 0.07127 0.29947 0.0
H2834 H 0.2466 0.05864 0.26767 0.0
C2835 C 0.29319 1.01411 0.18325 0.0
C2836 C 0.25458 1.02753 0.24471 0.0
H2837 H 0.22784 0.04609 0.2235 0.0
C2838 C 0.25505 1.02834 0.28527 0.0
C2839 C 0.24451 0.03399 0.22222 0.0
C2840 C 0.24282 0.03332 0.17861 0.0
C2841 C 0.24623 0.03554 0.30388 0.0
C2842 C 0.23614 0.04202 0.28138 0.0
C2843 C 0.23557 0.04116 0.2408 0.0
C2844 C 0.22614 0.04973 0.29939 0.0
C2845 C 0.24844 0.03625 0.34741 0.0
C2846 C 0.20908 0.04899 0.32691 0.0
C2847 C 0.20041 0.05619 0.34509 0.0
C2848 C 0.20838 0.06435 0.33589 0.0
C2849 C 0.2248 0.06511 0.30709 0.0
C2850 C 0.23358 0.05788 0.28905 0.0
H2851 H 0.26186 0.0321 0.35875 0.0
H2852 H 0.25193 0.04288 0.35632 0.0
H2853 H 0.23267 0.03423 0.36119 0.0
H2854 H 0.20253 0.04281 0.33455 0.0
H2855 H 0.18748 0.05538 0.36654 0.0
H2856 H 0.01904 0.05248 0.86424 0.0
H2857 H 0.0045 0.04025 0.89895 0.0
H2858 H 0.01593 0.05294 0.008 0.0
H2859 H 0.03076 0.0653 0.9732 0.0
H2860 H 0.02518 1.02992 0.95252 0.0
H2861 H 0.95132 0.04537 0.01757 0.0
H2862 H 0.96715 0.05021 0.97899 0.0
H2863 H 0.97724 0.0505 0.02809 0.0
C2864 C 0.01871 0.0527 0.89561 0.0
C2865 C 0.02629 0.05991 0.91585 0.0
C2866 C 0.01022 0.04568 0.91546 0.0
C2867 C 0.00889 0.04567 0.95609 0.0
C2868 C 0.01639 0.05284 0.97658 0.0
H2869 H 0.96338 1.00839 0.12342 0.0
H2870 H 0.97811 1.02073 0.08972 0.0
C2871 C 0.02491 0.05991 0.95666 0.0
C2872 C 4e-05 0.03805 0.97658 0.0
H2873 H 0.95848 1.0312 0.03636 0.0
C2874 C 0.01057 1.0302 0.97081 0.0
C2875 C 0.98094 0.03839 1.00039 0.0
C2876 C 0.96834 0.04654 0.00646 0.0
C2877 C 0.00276 1.02273 0.98859 0.0
C2878 C 0.98361 1.02306 0.01227 0.0
C2879 C 0.97312 1.03092 0.01813 0.0
C2880 C 0.97455 1.01541 0.03222 0.0
C2881 C 0.01544 1.01459 0.98258 0.0
C2882 C 0.9674 1.00826 0.01119 0.0
C2883 C 0.95883 1.00112 0.03051 0.0
C2884 C 0.95699 1.00103 0.07125 0.0
C2885 C 0.9641 1.00824 0.09205 0.0
C2886 C 0.97269 1.01532 0.0728 0.0
H2887 H 0.0326 1.0158 0.97224 0.0
H2888 H 0.01628 1.01085 0.00986 0.0
H2889 H 0.00685 1.0107 0.96032 0.0
H2890 H 0.96823 1.00822 0.97979 0.0
H2891 H 0.95331 0.99575 0.01354 0.0
H2892 H 0.28112 0.31649 0.0424 0.0
H2893 H 0.26434 0.30467 0.0064 0.0
H2894 H 0.25548 0.29092 0.11344 0.0
H2895 H 0.27144 0.30269 0.1495 0.0
H2896 H 0.27765 0.28759 0.00191 0.0
H2897 H 0.19363 0.28996 0.06601 0.0
H2898 H 0.21391 0.29833 0.07033 0.0
H2899 H 0.21531 0.2892 0.10158 0.0
C2900 C 0.27542 0.31099 0.05832 0.0
C2901 C 0.27773 0.3106 0.09899 0.0
C2902 C 0.26592 0.30421 0.03767 0.0
C2903 C 0.2583 0.29694 0.05725 0.0
C2904 C 0.26081 0.2965 0.09769 0.0
H2905 H 0.19867 0.24844 0.99168 0.0
H2906 H 0.2153 0.26046 0.02643 0.0
C2907 C 0.27029 0.30324 0.11828 0.0
C2908 C 0.24815 0.28971 0.03562 0.0
H2909 H 0.20135 0.27748 0.02958 0.0
C2910 C 0.26091 0.28543 0.00774 0.0
C2911 C 0.22633 0.28683 0.04334 0.0
C2912 C 0.2114 0.29136 0.07167 0.0
C2913 C 0.25265 0.27826 0.98805 0.0
C2914 C 0.23086 0.27536 0.9959 0.0
C2915 C 0.21808 0.27966 0.02368 0.0
C2916 C 0.22084 0.26802 0.97489 0.0
C2917 C 0.26755 0.27373 0.95968 0.0
C2918 C 0.21811 0.26829 0.93446 0.0
C2919 C 0.2087 0.26144 0.91456 0.0
C2920 C 0.20158 0.25413 0.93457 0.0
C2921 C 0.20413 0.2539 0.97521 0.0
C2922 C 0.21354 0.26079 0.99516 0.0
H2923 H 0.28531 0.27523 0.96487 0.0
H2924 H 0.26528 0.26675 0.96149 0.0
H2925 H 0.26335 0.27578 0.92973 0.0
H2926 H 0.22321 0.27384 0.91818 0.0
H2927 H 0.20733 0.26186 0.88331 0.0
H2928 H 0.04419 0.75029 0.78258 0.0
H2929 H 0.03288 0.76242 0.7421 0.0
H2930 H 0.00107 0.77381 0.84125 0.0
H2931 H 0.0124 0.76187 0.88146 0.0
H2932 H 0.99176 0.76933 0.72412 0.0
H2933 H 0.04175 0.79272 0.80615 0.0
H2934 H 0.04534 0.78143 0.81192 0.0
H2935 H 0.02327 0.78685 0.83683 0.0
C2936 C 0.03474 0.75538 0.79559 0.0
C2937 C 0.0296 0.75519 0.83542 0.0
C2938 C 0.02831 0.76231 0.77251 0.0
C2939 C 0.01662 0.76915 0.78886 0.0
C2940 C 0.0107 0.76877 0.8282 0.0
H2941 H 0.95923 0.81694 0.71422 0.0
H2942 H 0.9693 0.80382 0.74821 0.0
C2943 C 0.01722 0.76191 0.85121 0.0
C2944 C 0.01048 0.77672 0.76524 0.0
H2945 H 0.01448 0.79836 0.76308 0.0
C2946 C -0.0031 0.77567 0.7324 0.0
C2947 C 0.01721 0.78502 0.77596 0.0
C2948 C 0.03288 0.78658 0.8094 0.0
C2949 C 0.98934 0.78269 0.71083 0.0
C2950 C -0.00436 0.79098 0.72221 0.0
C2951 C 0.00946 0.79202 0.75464 0.0
C2952 C 0.98839 0.79867 0.70061 0.0
C2953 C 0.97421 0.78123 0.67659 0.0
C2954 C -0.00422 0.80014 0.66258 0.0
C2955 C 0.99011 0.80764 0.64316 0.0
C2956 C 0.97689 0.81384 0.66132 0.0
C2957 C 0.96921 0.81227 0.69922 0.0
C2958 C 0.97505 0.80479 0.71875 0.0
H2959 H 0.96712 0.77472 0.67661 0.0
H2960 H 0.96041 0.78589 0.67651 0.0
H2961 H 0.98375 0.78208 0.64934 0.0
H2962 H 0.00632 0.79557 0.64817 0.0
H2963 H -0.00386 0.80859 0.6139 0.0
H2964 H 0.69302 0.05257 0.86112 0.0
H2965 H 0.70749 0.04062 0.82391 0.0
H2966 H 0.74285 0.05792 0.74933 0.0
H2967 H 0.72904 0.06992 0.78728 0.0
H2968 H 0.70383 0.03638 0.74652 0.0
H2969 H 0.79191 0.04201 0.7858 0.0
H2970 H 0.76929 0.04723 0.81032 0.0
H2971 H 0.77843 0.05093 0.76361 0.0
C2972 C 0.70396 0.05385 0.83694 0.0
C2973 C 0.71004 0.06223 0.82757 0.0
C2974 C 0.71213 0.047 0.81554 0.0
C2975 C 0.72663 0.04835 0.78432 0.0
C2976 C 0.73207 0.05671 0.77385 0.0
H2977 H 0.79449 1.01496 0.62359 0.0
H2978 H 0.7802 1.02696 0.66082 0.0
C2979 C 0.72391 0.06358 0.79529 0.0
C2980 C 0.73609 0.04098 0.76305 0.0
H2981 H 0.78486 1.03122 0.73951 0.0
C2982 C 0.72154 0.03523 0.74509 0.0
C2983 C 0.75921 0.03947 0.7613 0.0
C2984 C 0.77565 0.04518 0.78156 0.0
C2985 C 0.72948 1.02812 0.72484 0.0
C2986 C 0.7526 1.02662 0.72305 0.0
C2987 C 0.76715 0.03236 0.74098 0.0
C2988 C 0.76201 1.01924 0.70182 0.0
C2989 C 0.71307 1.02236 0.70477 0.0
C2990 C 0.75704 1.01089 0.71309 0.0
C2991 C 0.76516 1.004 0.69175 0.0
C2992 C 0.77844 1.00533 0.65873 0.0
C2993 C 0.78402 1.0137 0.64845 0.0
C2994 C 0.77595 1.02058 0.66982 0.0
H2995 H 0.69666 1.02546 0.70105 0.0
H2996 H 0.71929 1.02041 0.67579 0.0
H2997 H 0.71066 1.01656 0.72252 0.0
H2998 H 0.74665 1.0097 0.73815 0.0
H2999 H 0.76042 0.99765 0.7004 0.0
H3000 H 0.72951 0.74357 0.95406 0.0
H3001 H 0.74368 0.7555 0.99225 0.0
H3002 H 0.70614 0.77287 0.92131 0.0
H3003 H 0.69138 0.76099 0.88396 0.0
H3004 H 0.76889 0.76893 0.96534 0.0
H3005 H 0.69083 0.78093 0.02978 0.0
H3006 H 0.69285 0.7706 0.00758 0.0
H3007 H 0.68959 0.77991 0.97794 0.0
C3008 C 0.72386 0.7499 0.94714 0.0
C3009 C 0.70925 0.7513 0.91587 0.0
C3010 C 0.73213 0.75673 0.96881 0.0
C3011 C 0.72582 0.76509 0.95995 0.0
C3012 C 0.71097 0.76649 0.92921 0.0
H3013 H 0.76275 0.81545 0.04236 0.0
H3014 H 0.74856 0.80337 0.00503 0.0
C3015 C 0.70271 0.75968 0.90757 0.0
C3016 C 0.73561 0.7724 0.98137 0.0
H3017 H 0.72236 0.78998 0.03455 0.0
C3018 C 0.75873 0.7735 0.98073 0.0
C3019 C 0.72235 0.77839 0.00128 0.0
C3020 C 0.69755 0.77738 0.00457 0.0
C3021 C 0.76889 0.7805 0.99876 0.0
C3022 C 0.75561 0.78651 0.01848 0.0
C3023 C 0.73251 0.78541 0.01921 0.0
C3024 C 0.76539 0.79387 0.0395 0.0
C3025 C 0.79371 0.7815 0.99583 0.0
C3026 C 0.77965 0.79256 0.07115 0.0
C3027 C 0.78784 0.79944 0.09238 0.0
C3028 C 0.7819 0.80781 0.08259 0.0
C3029 C 0.76792 0.80911 0.05039 0.0
C3030 C 0.75965 0.80221 0.02922 0.0
H3031 H 0.80066 0.77774 0.97146 0.0
H3032 H 0.79836 0.78826 0.99173 0.0
H3033 H 0.80148 0.77923 0.02313 0.0
H3034 H 0.78405 0.78619 0.08003 0.0
H3035 H 0.79867 0.79821 0.11681 0.0
H3036 H 0.21399 0.55534 0.8749 0.0
H3037 H 0.22687 0.54376 0.83389 0.0
H3038 H 0.2046 0.55725 0.73214 0.0
H3039 H 0.19179 0.56897 0.7733 0.0
H3040 H 0.20379 0.53354 0.78626 0.0
H3041 H 0.26699 0.55099 0.70055 0.0
H3042 H 0.25441 0.55539 0.74358 0.0
H3043 H 0.23969 0.55549 0.69815 0.0
C3044 C 0.2117 0.55585 0.84384 0.0
C3045 C 0.20174 0.5631 0.82747 0.0
C3046 C 0.2192 0.54923 0.82034 0.0
C3047 C 0.21701 0.54964 0.7798 0.0
C3048 C 0.207 0.55685 0.76324 0.0
H3049 H 0.24739 0.51159 0.60194 0.0
H3050 H 0.23463 0.52429 0.6365 0.0
C3051 C 0.19959 0.56353 0.78681 0.0
C3052 C 0.2246 0.54237 0.75546 0.0
H3053 H 0.25998 0.53675 0.6822 0.0
C3054 C 0.2161 0.53426 0.76355 0.0
C3055 C 0.24064 0.54328 0.72569 0.0
C3056 C 0.25114 0.55174 0.71661 0.0
C3057 C 0.22316 0.52706 0.74289 0.0
C3058 C 0.23936 0.52796 0.71349 0.0
C3059 C 0.2476 0.53607 0.70481 0.0
C3060 C 0.24813 0.52049 0.69203 0.0
C3061 C 0.21311 0.51855 0.75249 0.0
C3062 C 0.26036 0.51423 0.71155 0.0
C3063 C 0.2677 0.50698 0.6919 0.0
C3064 C 0.26294 0.50583 0.65221 0.0
C3065 C 0.25114 0.51223 0.63253 0.0
C3066 C 0.24393 0.51951 0.65219 0.0
H3067 H 0.19747 0.5192 0.76922 0.0
H3068 H 0.20966 0.51489 0.72562 0.0
H3069 H 0.22501 0.51486 0.77034 0.0
H3070 H 0.264 0.51489 0.74221 0.0
H3071 H 0.2765 0.50217 0.70816 0.0
H3072 H 0.93643 0.49957 0.57063 0.0
H3073 H 0.9466 0.51294 0.53883 0.0
H3074 H 0.01123 0.51182 0.59221 0.0
H3075 H 0.00108 0.49859 0.62437 0.0
H3076 H -0.00471 0.52773 0.59412 0.0
H3077 H 0.98605 0.51487 0.44511 0.0
H3078 H 0.96121 0.51417 0.47355 0.0
H3079 H 0.98533 0.50819 0.4876 0.0
C3080 C 0.9528 0.50218 0.57557 0.0
C3081 C 0.96791 0.49797 0.60004 0.0
C3082 C 0.95864 0.50981 0.55725 0.0
C3083 C 0.97987 0.51334 0.56245 0.0
C3084 C -0.00524 0.50926 0.58763 0.0
H3085 H 0.04724 0.54807 0.40825 0.0
H3086 H 0.03429 0.53615 0.4475 0.0
C3087 C 0.98888 0.50168 0.60618 0.0
C3088 C 0.98686 0.52118 0.54129 0.0
H3089 H 0.99389 0.52951 0.45042 0.0
C3090 C -0.00505 0.52813 0.56268 0.0
C3091 C 0.98674 0.52168 0.50021 0.0
C3092 C 0.97958 0.51431 0.47521 0.0
C3093 C 0.00293 0.5355 0.54426 0.0
C3094 C 0.0024 0.53606 0.50321 0.0
C3095 C 0.9942 0.52913 0.48187 0.0
C3096 C 0.01117 0.54356 0.48147 0.0
C3097 C 0.01254 0.5425 0.56895 0.0
C3098 C 0.00276 0.55178 0.48761 0.0
C3099 C 0.01037 0.55865 0.46529 0.0
C3100 C 0.02625 0.55742 0.43594 0.0
C3101 C 0.03486 0.54922 0.43034 0.0
C3102 C 0.02744 0.5424 0.45281 0.0
H3103 H 0.01728 0.54018 0.59827 0.0
H3104 H 0.02738 0.54535 0.55501 0.0
H3105 H -6e-05 0.54756 0.5727 0.0
H3106 H 0.98985 0.55285 0.50886 0.0
H3107 H 0.00317 0.56486 0.46991 0.0
H3108 H 0.28247 0.81165 0.55756 0.0
H3109 H 0.27382 0.79872 0.52043 0.0
H3110 H 0.24179 0.78805 0.62111 0.0
H3111 H 0.25018 0.80088 0.6579 0.0
H3112 H 0.28348 0.78151 0.53117 0.0
H3113 H 0.1928 0.78679 0.54039 0.0
H3114 H 0.21272 0.79487 0.55306 0.0
H3115 H 0.20614 0.78655 0.58695 0.0
C3116 C 0.27381 0.8065 0.5718 0.0
C3117 C 0.26669 0.80735 0.61049 0.0
C3118 C 0.26878 0.79913 0.55055 0.0
C3119 C 0.2566 0.79248 0.56764 0.0
C3120 C 0.25057 0.79317 0.60685 0.0
H3121 H 0.20214 0.74396 0.48796 0.0
H3122 H 0.21511 0.75599 0.52736 0.0
C3123 C 0.25543 0.80051 0.6279 0.0
C3124 C 0.2498 0.78489 0.54467 0.0
H3125 H 0.20441 0.77341 0.51623 0.0
C3126 C 0.26619 0.77976 0.52773 0.0
C3127 C 0.22721 0.78258 0.54015 0.0
C3128 C 0.20868 0.78803 0.55576 0.0
C3129 C 0.26065 0.77234 0.50713 0.0
C3130 C 0.23808 0.77001 0.50289 0.0
C3131 C 0.2217 0.77514 0.51978 0.0
C3132 C 0.23101 0.76251 0.47958 0.0
C3133 C 0.27903 0.76696 0.49064 0.0
C3134 C 0.23547 0.76219 0.43965 0.0
C3135 C 0.22806 0.75536 0.41719 0.0
C3136 C 0.2159 0.74867 0.43401 0.0
C3137 C 0.21158 0.74896 0.47414 0.0
C3138 C 0.21892 0.75585 0.49663 0.0
H3139 H 0.29515 0.76827 0.50509 0.0
H3140 H 0.27518 0.7601 0.49369 0.0
H3141 H 0.28091 0.76839 0.45927 0.0
H3142 H 0.24443 0.7673 0.42565 0.0
H3143 H 0.232 0.75532 0.38655 0.0
H3144 H 0.76642 0.51435 0.10813 0.0
H3145 H 0.7541 0.52599 0.14913 0.0
H3146 H 0.7736 0.51199 0.25109 0.0
H3147 H 0.78668 0.50031 0.20992 0.0
H3148 H 0.72193 0.52612 0.20636 0.0
H3149 H 0.80399 0.53496 0.26748 0.0
H3150 H 0.8011 0.5281 0.22582 0.0
H3151 H 0.79641 0.52403 0.27386 0.0
C3152 C 0.76848 0.51375 0.13921 0.0
C3153 C 0.77789 0.50639 0.15558 0.0
C3154 C 0.7612 0.52042 0.16269 0.0
C3155 C 0.76318 0.51995 0.2032 0.0
C3156 C 0.77226 0.51258 0.21985 0.0
H3157 H 0.72938 0.55447 0.39003 0.0
H3158 H 0.74154 0.54269 0.34974 0.0
C3159 C 0.77954 0.50586 0.19629 0.0
C3160 C 0.75538 0.52716 0.22765 0.0
H3161 H 0.77275 0.54216 0.29261 0.0
C3162 C 0.73305 0.52964 0.22518 0.0
C3163 C 0.76989 0.53177 0.25215 0.0
C3164 C 0.79423 0.52965 0.25487 0.0
C3165 C 0.72475 0.53649 0.24695 0.0
C3166 C 0.73927 0.54113 0.27135 0.0
C3167 C 0.76161 0.53864 0.27386 0.0
C3168 C 0.73154 0.54842 0.29544 0.0
C3169 C 0.70038 0.53857 0.24432 0.0
C3170 C 0.72201 0.55567 0.27844 0.0
C3171 C 0.71475 0.56245 0.3016 0.0
C3172 C 0.71697 0.56214 0.34229 0.0
C3173 C 0.72689 0.55491 0.359 0.0
C3174 C 0.73408 0.54816 0.3359 0.0
H3175 H 0.69062 0.53316 0.23261 0.0
H3176 H 0.69361 0.5403 0.27321 0.0
H3177 H 0.69805 0.54405 0.2245 0.0
H3178 H 0.72027 0.55611 0.24721 0.0
H3179 H 0.7072 0.56788 0.28765 0.0
H3180 H 0.76327 0.29631 0.62349 0.0
H3181 H 0.75154 0.28441 0.58339 0.0
H3182 H 0.77776 0.29687 0.48189 0.0
H3183 H 0.79027 0.30876 0.52218 0.0
H3184 H 0.72223 0.28419 0.52202 0.0
H3185 H 0.80528 0.27328 0.47417 0.0
H3186 H 0.80157 0.28065 0.51373 0.0
H3187 H 0.7997 0.28426 0.46432 0.0
C3188 C 0.76696 0.29651 0.59279 0.0
C3189 C 0.77802 0.30351 0.5763 0.0
C3190 C 0.76002 0.28969 0.56978 0.0
C3191 C 0.76401 0.28966 0.52966 0.0
C3192 C 0.77485 0.29666 0.5129 0.0
H3193 H 0.73312 0.25503 0.34206 0.0
H3194 H 0.7452 0.2667 0.38324 0.0
C3195 C 0.78181 0.30351 0.53595 0.0
C3196 C 0.75631 0.28237 0.50555 0.0
H3197 H 0.77422 0.26668 0.44466 0.0
C3198 C 0.73361 0.28034 0.50522 0.0
C3199 C 0.77114 0.27732 0.48367 0.0
C3200 C 0.79581 0.27892 0.48414 0.0
C3201 C 0.7253 0.27354 0.48305 0.0
C3202 C 0.74013 0.26851 0.46109 0.0
C3203 C 0.76284 0.27052 0.46151 0.0
C3204 C 0.73239 0.26131 0.43643 0.0
C3205 C 0.70062 0.27196 0.48253 0.0
C3206 C 0.72128 0.25429 0.45253 0.0
C3207 C 0.7141 0.24758 0.42883 0.0
C3208 C 0.71795 0.24773 0.38851 0.0
C3209 C 0.72937 0.25473 0.37272 0.0
C3210 C 0.73651 0.26141 0.39636 0.0
H3211 H 0.69117 0.27757 0.49278 0.0
H3212 H 0.69485 0.2703 0.45287 0.0
H3213 H 0.69672 0.26657 0.5021 0.0
H3214 H 0.71826 0.25398 0.48348 0.0
H3215 H 0.70536 0.24233 0.44205 0.0
H3216 H 0.4633 0.31922 0.71782 0.0
H3217 H 0.47495 0.30644 0.7523 0.0
H3218 H 0.49486 0.29509 0.64396 0.0
H3219 H 0.48314 0.30786 0.60913 0.0
H3220 H 0.46181 0.28959 0.74562 0.0
H3221 H 0.55101 0.29308 0.70961 0.0
H3222 H 0.53123 0.30152 0.7023 0.0
H3223 H 0.53302 0.29294 0.66805 0.0
C3224 C 0.46984 0.31398 0.70113 0.0
C3225 C 0.47232 0.31461 0.66055 0.0
C3226 C 0.47666 0.30668 0.721 0.0
C3227 C 0.48621 0.29986 0.70087 0.0
C3228 C 0.48807 0.30035 0.66028 0.0
H3229 H 0.53819 0.25057 0.76744 0.0
H3230 H 0.52652 0.2634 0.73348 0.0
C3231 C 0.4813 0.30766 0.64037 0.0
C3232 C 0.49419 0.29225 0.72239 0.0
H3233 H 0.54034 0.2803 0.74084 0.0
C3234 C 0.479 0.28758 0.74472 0.0
C3235 C 0.51664 0.28962 0.72126 0.0
C3236 C 0.53399 0.29458 0.69933 0.0
C3237 C 0.48553 0.28028 0.76527 0.0
C3238 C 0.50796 0.27764 0.76405 0.0
C3239 C 0.52316 0.28232 0.74177 0.0
C3240 C 0.51592 0.26999 0.78529 0.0
C3241 C 0.46821 0.27532 0.78733 0.0
C3242 C 0.5144 0.26948 0.82591 0.0
C3243 C 0.52124 0.26215 0.84557 0.0
C3244 C 0.52987 0.25517 0.82506 0.0
C3245 C 0.53194 0.25582 0.78441 0.0
C3246 C 0.52511 0.26315 0.76481 0.0
H3247 H 0.45116 0.2769 0.77752 0.0
H3248 H 0.47081 0.26839 0.78395 0.0
H3249 H 0.46947 0.27688 0.81867 0.0
H3250 H 0.50786 0.27475 0.84246 0.0
H3251 H 0.5197 0.26194 0.87685 0.0
H3252 H 0.53461 0.06251 0.48149 0.0
H3253 H 0.52026 0.05035 0.51857 0.0
H3254 H 0.50793 0.03692 0.41175 0.0
H3255 H 0.522 0.04892 0.37485 0.0
H3256 H 0.47865 0.04232 0.51611 0.0
H3257 H 0.54476 1.01985 0.47276 0.0
H3258 H 0.54719 1.03115 0.46567 0.0
H3259 H 0.53125 1.02483 0.43231 0.0
C3260 C 0.52879 0.05697 0.46596 0.0
C3261 C 0.52986 0.05667 0.42516 0.0
C3262 C 0.52066 0.05002 0.48717 0.0
C3263 C 0.5135 0.04263 0.46799 0.0
C3264 C 0.51398 0.04242 0.42731 0.0
H3265 H 0.45724 0.9937 0.53658 0.0
H3266 H 0.4711 1.00605 0.50047 0.0
C3267 C 0.52209 0.04933 0.4062 0.0
C3268 C 0.5051 0.03515 0.4901 0.0
H3269 H 0.5132 1.01389 0.50399 0.0
C3270 C 0.48631 0.03612 0.51371 0.0
C3271 C 0.515 1.02704 0.4868 0.0
C3272 C 0.53579 1.02564 0.46331 0.0
C3273 C 0.47689 1.02917 0.5334 0.0
C3274 C 0.48673 1.02105 0.52995 0.0
C3275 C 0.50556 1.02009 0.50643 0.0
C3276 C 0.47822 1.01354 0.55162 0.0
C3277 C 0.45616 1.03055 0.55707 0.0
C3278 C 0.47799 1.01356 0.59232 0.0
C3279 C 0.47021 1.00653 0.61296 0.0
C3280 C 0.46249 0.99924 0.59348 0.0
C3281 C 0.46307 0.99917 0.5526 0.0
C3282 C 0.47092 1.00624 0.53191 0.0
H3283 H 0.44734 0.03643 0.5482 0.0
H3284 H 0.44461 1.0251 0.55422 0.0
H3285 H 0.46075 1.0312 0.58813 0.0
H3286 H 0.4841 1.01901 0.60824 0.0
H3287 H 0.47065 1.00679 0.64432 0.0
H3288 H 0.47136 0.80569 0.09624 0.0
H3289 H 0.48268 0.79215 0.12491 0.0
H3290 H 0.46633 0.80161 0.23872 0.0
H3291 H 0.45513 0.81513 0.21047 0.0
H3292 H 0.51572 0.78907 0.17828 0.0
H3293 H 0.43493 0.77884 0.23836 0.0
H3294 H 0.43734 0.7873 0.20328 0.0
H3295 H 0.44271 0.78928 0.25388 0.0
C3296 C 0.47008 0.80489 0.12736 0.0
C3297 C 0.46216 0.81153 0.1509 0.0
C3298 C 0.47652 0.79712 0.14372 0.0
C3299 C 0.47506 0.79578 0.18396 0.0
C3300 C 0.46709 0.80238 0.20751 0.0
H3301 H 0.51534 0.76038 0.35758 0.0
H3302 H 0.5011 0.77187 0.31758 0.0
C3303 C 0.46064 0.81014 0.19121 0.0
C3304 C 0.48283 0.78766 0.20163 0.0
H3305 H 0.46701 0.7716 0.26233 0.0
C3306 C 0.50499 0.78518 0.19622 0.0
C3307 C 0.46884 0.78256 0.22495 0.0
C3308 C 0.44457 0.78457 0.23018 0.0
C3309 C 0.51378 0.77798 0.21493 0.0
C3310 C 0.49997 0.77304 0.23929 0.0
C3311 C 0.47764 0.77538 0.24374 0.0
C3312 C 0.50869 0.76584 0.26285 0.0
C3313 C 0.53803 0.77593 0.20986 0.0
C3314 C 0.51756 0.75851 0.24549 0.0
C3315 C 0.52593 0.75187 0.2685 0.0
C3316 C 0.52563 0.75245 0.30929 0.0
C3317 C 0.51636 0.75975 0.32636 0.0
C3318 C 0.50799 0.76633 0.30347 0.0
H3319 H 0.54731 0.78123 0.19616 0.0
H3320 H 0.54582 0.77444 0.23829 0.0
H3321 H 0.5397 0.77026 0.191 0.0
H3322 H 0.51797 0.75791 0.21418 0.0
H3323 H 0.53291 0.74635 0.25441 0.0
H3324 H 0.47766 0.50941 0.10389 0.0
H3325 H 0.49011 0.52032 0.0585 0.0
H3326 H 0.45598 0.50762 0.96519 0.0
H3327 H 0.44328 0.4966 0.01079 0.0
H3328 H 0.51395 0.51649 0.97576 0.0
H3329 H 0.43447 0.53451 0.97699 0.0
H3330 H 0.44292 0.52826 0.0184 0.0
H3331 H 0.43425 0.52307 0.97469 0.0
C3332 C 0.47263 0.50893 0.07381 0.0
C3333 C 0.45926 0.50215 0.06109 0.0
C3334 C 0.47993 0.51515 0.04783 0.0
C3335 C 0.47393 0.51479 0.00856 0.0
C3336 C 0.46079 0.50801 0.99544 0.0
H3337 H 0.49143 0.55733 0.847 0.0
H3338 H 0.48037 0.54364 0.87421 0.0
C3339 C 0.45361 0.50171 0.02146 0.0
C3340 C 0.48117 0.52167 0.98189 0.0
H3341 H 0.46457 0.54068 0.94431 0.0
C3342 C 0.50312 0.52174 0.96843 0.0
C3343 C 0.46698 0.52848 0.97224 0.0
C3344 C 0.4433 0.52867 0.98622 0.0
C3345 C 0.51138 0.52853 0.94608 0.0
C3346 C 0.49749 0.53557 0.93796 0.0
C3347 C 0.4753 0.53533 0.95047 0.0
C3348 C 0.50582 0.54343 0.91851 0.0
C3349 C 0.53487 0.52804 0.93128 0.0
C3350 C 0.52407 0.54787 0.93376 0.0
C3351 C 0.53055 0.55569 0.91802 0.0
C3352 C 0.51866 0.55937 0.8871 0.0
C3353 C 0.50083 0.55477 0.87107 0.0
C3354 C 0.49448 0.54692 0.88661 0.0
H3355 H 0.54024 0.52134 0.92767 0.0
H3356 H 0.53673 0.53136 0.90304 0.0
H3357 H 0.54615 0.53104 0.95271 0.0
H3358 H 0.53281 0.54548 0.95894 0.0
H3359 H 0.54423 0.55899 0.93148 0.0
H3360 H 0.02998 0.22107 0.53524 0.0
H3361 H 0.04806 0.22093 0.59828 0.0
H3362 H 0.11071 0.2267 0.5441 0.0
H3363 H 0.09255 0.22693 0.48007 0.0
H3364 H 0.08276 0.21018 0.62079 0.0
H3365 H 0.10537 0.24426 0.63383 0.0
H3366 H 0.08508 0.24047 0.59933 0.0
H3367 H 0.11413 0.23909 0.58989 0.0
C3368 C 0.04761 0.22236 0.53649 0.0
C3369 C 0.05985 0.22402 0.50255 0.0
C3370 C 0.05789 0.22228 0.57267 0.0
C3371 C 0.08063 0.22388 0.57589 0.0
C3372 C 0.09303 0.22558 0.54221 0.0
H3373 H 0.17106 0.21222 0.7574 0.0
H3374 H 0.14804 0.21296 0.69938 0.0
C3375 C 0.08269 0.22566 0.5057 0.0
C3376 C 0.09125 0.22338 0.61457 0.0
H3377 H 0.11871 0.23501 0.68304 0.0
C3378 C 0.09055 0.21561 0.63447 0.0
C3379 C 0.10104 0.23052 0.63255 0.0
C3380 C 0.10136 0.23909 0.61306 0.0
C3381 C 0.09992 0.21474 0.67151 0.0
C3382 C 0.11036 0.2218 0.68893 0.0
C3383 C 0.11059 0.22963 0.66954 0.0
C3384 C 0.12302 0.22094 0.72547 0.0
C3385 C 0.09874 0.20625 0.69169 0.0
C3386 C 0.11642 0.22515 0.75952 0.0
C3387 C 0.12954 0.22468 0.79311 0.0
C3388 C 0.14956 0.22013 0.79255 0.0
C3389 C 0.15574 0.2158 0.75862 0.0
C3390 C 0.14259 0.21618 0.72546 0.0
H3391 H 0.08558 0.20215 0.67914 0.0
H3392 H 0.11485 0.20294 0.68832 0.0
H3393 H 0.09556 0.20706 0.72322 0.0
H3394 H 0.10135 0.22888 0.75987 0.0
H3395 H 0.12455 0.22813 0.81882 0.0
H3396 H 0.13329 0.09433 0.45265 0.0
H3397 H 0.11209 0.09359 0.51363 0.0
H3398 H 0.17 0.10157 0.57746 0.0
H3399 H 0.19094 0.10246 0.51748 0.0
H3400 H 0.12182 0.08347 0.57871 0.0
H3401 H 0.12262 0.11751 0.61846 0.0
H3402 H 0.12915 0.11384 0.57017 0.0
H3403 H 0.14973 0.11345 0.60799 0.0
C3404 C 0.14134 0.09602 0.47967 0.0
C3405 C 0.16375 0.09847 0.48022 0.0
C3406 C 0.12927 0.09558 0.51441 0.0
C3407 C 0.13943 0.09765 0.54994 0.0
C3408 C 0.16171 0.10013 0.55033 0.0
H3409 H 0.10319 0.09561 0.79535 0.0
H3410 H 0.12408 0.09625 0.73395 0.0
C3411 C 0.17369 0.10058 0.5159 0.0
C3412 C 0.12735 0.09683 0.58713 0.0
H3413 H 0.11295 0.10778 0.66886 0.0
C3414 C 0.11968 0.08879 0.59828 0.0
C3415 C 0.12479 0.10378 0.61272 0.0
C3416 C 0.13182 0.11265 0.60162 0.0
C3417 C 0.10986 0.08748 0.63471 0.0
C3418 C 0.10752 0.09441 0.66039 0.0
C3419 C 0.1151 0.10246 0.64924 0.0
C3420 C 0.09559 0.09359 0.69765 0.0
C3421 C 0.10229 0.07868 0.64572 0.0
C3422 C 0.07281 0.09193 0.69728 0.0
C3423 C 0.06097 0.09162 0.7319 0.0
C3424 C 0.07165 0.09296 0.7677 0.0
C3425 C 0.09459 0.09451 0.7682 0.0
C3426 C 0.10647 0.09489 0.73326 0.0
H3427 H 0.11014 0.07375 0.62726 0.0
H3428 H 0.10616 0.07731 0.67662 0.0
H3429 H 0.08406 0.07823 0.64189 0.0
H3430 H 0.06408 0.09104 0.67007 0.0
H3431 H 0.04331 0.09039 0.73047 0.0
H3432 H 0.85209 0.8335 0.21179 0.0
H3433 H 0.87043 0.82991 0.27349 0.0
H3434 H 0.81523 0.84042 0.33669 0.0
H3435 H 0.79691 0.84396 0.27589 0.0
H3436 H 0.8822 0.84084 0.33527 0.0
H3437 H 0.82157 0.81666 0.38413 0.0
H3438 H 0.82311 0.82029 0.33444 0.0
H3439 H 0.80902 0.82654 0.37045 0.0
C3440 C 0.84397 0.83507 0.23887 0.0
C3441 C 0.823 0.83896 0.23896 0.0
C3442 C 0.85437 0.83298 0.27402 0.0
C3443 C 0.84386 0.83469 0.30957 0.0
C3444 C 0.82331 0.83881 0.30959 0.0
H3445 H 0.87613 0.83737 0.55111 0.0
H3446 H 0.85625 0.83569 0.48928 0.0
C3447 C 0.81296 0.8409 0.27472 0.0
C3448 C 0.85462 0.83257 0.34697 0.0
H3449 H 0.8464 0.82205 0.43262 0.0
C3450 C 0.87459 0.83663 0.35634 0.0
C3451 C 0.8445 0.82712 0.37445 0.0
C3452 C 0.82347 0.82234 0.36529 0.0
C3453 C 0.8843 0.83565 0.39306 0.0
C3454 C 0.87398 0.83032 0.42083 0.0
C3455 C 0.85424 0.82612 0.41124 0.0
C3456 C 0.88337 0.82933 0.46027 0.0
C3457 C 0.9051 0.84059 0.40234 0.0
C3458 C 0.9045 0.8258 0.465 0.0
C3459 C 0.91583 0.82679 0.5 0.0
C3460 C 0.90602 0.83119 0.53097 0.0
C3461 C 0.8839 0.83386 0.52777 0.0
C3462 C 0.87263 0.83296 0.49242 0.0
H3463 H 0.90813 0.84576 0.38105 0.0
H3464 H 0.90413 0.84341 0.43184 0.0
H3465 H 0.91956 0.83625 0.40163 0.0
H3466 H 0.9129 0.82286 0.44069 0.0
H3467 H 0.9329 0.82469 0.50188 0.0
H3468 H 0.78734 0.96939 0.4675 0.0
H3469 H 0.80639 0.96849 0.40548 0.0
H3470 H 0.86862 0.97397 0.46178 0.0
H3471 H 0.84954 0.97491 0.52484 0.0
H3472 H 0.85738 0.98354 0.38789 0.0
H3473 H 0.84966 0.94848 0.37677 0.0
H3474 H 0.82472 0.95408 0.38927 0.0
H3475 H 0.84769 0.95405 0.42244 0.0
C3476 C 0.80509 0.97043 0.46695 0.0
C3477 C 0.81697 0.97219 0.50121 0.0
C3478 C 0.81592 0.96988 0.43138 0.0
C3479 C 0.83886 0.97108 0.42921 0.0
C3480 C 0.85086 0.973 0.46308 0.0
H3481 H 0.9297 0.95936 0.24783 0.0
H3482 H 0.90753 0.96043 0.30663 0.0
C3483 C 0.83998 0.97352 0.49898 0.0
C3484 C 0.85009 0.97021 0.39133 0.0
H3485 H 0.86253 0.95574 0.32103 0.0
C3486 C 0.85859 0.97748 0.37321 0.0
C3487 C 0.85151 0.96227 0.37243 0.0
C3488 C 0.84308 0.95425 0.39123 0.0
C3489 C 0.8685 0.97701 0.33639 0.0
C3490 C 0.86969 0.96909 0.31728 0.0
C3491 C 0.86124 0.96182 0.33555 0.0
C3492 C 0.88178 0.96804 0.28027 0.0
C3493 C 0.87813 0.98494 0.31856 0.0
C3494 C 0.87425 0.97176 0.24558 0.0
C3495 C 0.88691 0.97111 0.21155 0.0
C3496 C 0.90726 0.96679 0.21215 0.0
C3497 C 0.91418 0.9628 0.24659 0.0
C3498 C 0.90153 0.96339 0.28023 0.0
H3499 H 0.87885 0.99027 0.3396 0.0
H3500 H 0.8951 0.98371 0.30747 0.0
H3501 H 0.86769 0.98692 0.2936 0.0
H3502 H 0.85884 0.97529 0.24503 0.0
H3503 H 0.88127 0.97426 0.18538 0.0
H3504 H 0.10454 0.72211 0.96911 0.0
H3505 H 0.12476 0.72131 0.03117 0.0
H3506 H 0.06341 0.72468 0.09343 0.0
H3507 H 0.04325 0.72538 0.03238 0.0
H3508 H 0.12675 0.73312 0.09439 0.0
H3509 H 0.08838 0.70262 0.13898 0.0
H3510 H 0.08726 0.70651 0.08971 0.0
H3511 H 0.06873 0.71067 0.12584 0.0
C3512 C 0.09545 0.72272 0.99607 0.0
C3513 C 0.0723 0.72371 0.99586 0.0
C3514 C 0.10697 0.72225 0.03141 0.0
C3515 C 0.09546 0.72275 0.06682 0.0
C3516 C 0.07252 0.72406 0.06648 0.0
H3517 H 0.13495 0.7201 0.31187 0.0
H3518 H 0.11343 0.72208 0.25168 0.0
C3519 C 0.06105 0.7245 0.03144 0.0
C3520 C 0.10718 0.72191 0.1044 0.0
H3521 H 0.10927 0.70991 0.18699 0.0
C3522 C 0.12303 0.72803 0.11457 0.0
C3523 C 0.10212 0.71529 0.13077 0.0
C3524 C 0.08584 0.70835 0.12072 0.0
C3525 C 0.13384 0.72775 0.15066 0.0
C3526 C 0.12882 0.72112 0.17694 0.0
C3527 C 0.11287 0.71503 0.1669 0.0
C3528 C 0.14136 0.71998 0.21348 0.0
C3529 C 0.15046 0.73457 0.16056 0.0
C3530 C 0.16393 0.71799 0.21168 0.0
C3531 C 0.17608 0.71682 0.24561 0.0
C3532 C 0.16595 0.7176 0.28224 0.0
C3533 C 0.1432 0.71949 0.28411 0.0
C3534 C 0.13094 0.72062 0.24985 0.0
H3535 H 0.14817 0.74031 0.14227 0.0
H3536 H 0.14916 0.73642 0.19159 0.0
H3537 H 0.16744 0.73212 0.15546 0.0
H3538 H 0.17215 0.7173 0.1839 0.0
H3539 H 0.19354 0.71533 0.24296 0.0
H3540 H 0.03237 0.58953 0.23552 0.0
H3541 H 0.05023 0.59014 0.17241 0.0
H3542 H 0.11437 0.58839 0.22722 0.0
H3543 H 0.09645 0.58775 0.29139 0.0
H3544 H 0.08107 0.60282 0.14935 0.0
H3545 H 0.1153 0.57015 0.1387 0.0
H3546 H 0.09347 0.57292 0.17227 0.0
H3547 H 0.12161 0.57588 0.18253 0.0
C3548 C 0.05029 0.58921 0.23442 0.0
C3549 C 0.06301 0.5886 0.2686 0.0
C3550 C 0.06045 0.58956 0.19818 0.0
C3551 C 0.08356 0.58926 0.19512 0.0
C3552 C 0.09644 0.58852 0.22902 0.0
H3553 H 0.16976 0.6043 0.01251 0.0
H3554 H 0.14692 0.60286 0.0705 0.0
C3555 C 0.08623 0.58819 0.26559 0.0
C3556 C 0.0939 0.59016 0.15636 0.0
H3557 H 0.12483 0.57977 0.08842 0.0
C3558 C 0.09058 0.59777 0.13597 0.0
C3559 C 0.10596 0.58352 0.13879 0.0
C3560 C 0.10923 0.57511 0.15894 0.0
C3561 C 0.09953 0.59899 0.09881 0.0
C3562 C 0.11215 0.59244 0.08171 0.0
C3563 C 0.11503 0.58475 0.10164 0.0
C3564 C 0.12431 0.59379 0.04497 0.0
C3565 C 0.09558 0.60729 0.07814 0.0
C3566 C 0.11893 0.58924 0.01116 0.0
C3567 C 0.13189 0.59013 0.97757 0.0
C3568 C 0.15058 0.59544 0.97792 0.0
C3569 C 0.15544 0.60015 0.0115 0.0
C3570 C 0.14241 0.59935 0.04462 0.0
H3571 H 0.08138 0.61082 0.09079 0.0
H3572 H 0.11061 0.61132 0.08079 0.0
H3573 H 0.09238 0.60623 0.04676 0.0
H3574 H 0.10502 0.58489 0.01106 0.0
H3575 H 0.12799 0.58636 0.95215 0.0
H3576 H 0.90369 0.35836 0.00528 0.0
H3577 H 0.88232 0.35603 0.94591 0.0
H3578 H 0.86817 0.33041 0.98279 0.0
H3579 H 0.88869 0.33294 0.04331 0.0
H3580 H 0.89439 0.34516 0.89239 0.0
H3581 H 0.80906 0.33706 0.93967 0.0
H3582 H 0.82921 0.34166 0.97218 0.0
H3583 H 0.83001 0.33051 0.96131 0.0
C3584 C 0.89524 0.35235 0.00127 0.0
C3585 C 0.89746 0.34586 0.02879 0.0
C3586 C 0.88323 0.35099 0.96727 0.0
C3587 C 0.87362 0.34304 0.95979 0.0
C3588 C 0.875 0.33665 0.9882 0.0
H3589 H 0.84329 0.32958 0.71634 0.0
H3590 H 0.86116 0.33006 0.78052 0.0
C3591 C 0.88667 0.33809 0.02277 0.0
C3592 C 0.86417 0.34131 0.92076 0.0
H3593 H 0.8174 0.335 0.87307 0.0
C3594 C 0.87752 0.34296 0.88816 0.0
C3595 C 0.84221 0.33841 0.91528 0.0
C3596 C 0.82671 0.33688 0.94893 0.0
C3597 C 0.86934 0.34205 0.85025 0.0
C3598 C 0.84741 0.3391 0.84473 0.0
C3599 C 0.83426 0.33722 0.87734 0.0
C3600 C 0.83705 0.33863 0.80568 0.0
C3601 C 0.88396 0.34461 0.81668 0.0
C3602 C 0.81743 0.34315 0.79871 0.0
C3603 C 0.80708 0.34274 0.76262 0.0
C3604 C 0.81623 0.33788 0.73247 0.0
C3605 C 0.83606 0.33345 0.73903 0.0
C3606 C 0.84627 0.33374 0.7756 0.0
H3607 H 0.89791 0.34872 0.82622 0.0
H3608 H 0.89115 0.33884 0.80325 0.0
H3609 H 0.87434 0.34805 0.79415 0.0
H3610 H 0.81006 0.347 0.82131 0.0
H3611 H 0.79186 0.34626 0.75834 0.0
H3612 H 0.78813 0.47425 0.95882 0.0
H3613 H 0.80692 0.47369 0.89662 0.0
H3614 H 0.87025 0.47471 0.95468 0.0
H3615 H 0.85135 0.47514 0.018 0.0
H3616 H 0.83555 0.4848 0.8612 0.0
H3617 H 0.87555 0.45355 0.88668 0.0
H3618 H 0.85388 0.45761 0.91761 0.0
H3619 H 0.88179 0.46147 0.92253 0.0
C3620 C 0.80608 0.47436 0.95866 0.0
C3621 C 0.81826 0.47468 0.99356 0.0
C3622 C 0.81679 0.47407 0.92288 0.0
C3623 C 0.83996 0.47405 0.92092 0.0
C3624 C 0.85231 0.47456 0.95557 0.0
H3625 H 0.93404 0.47011 0.73694 0.0
H3626 H 0.91341 0.4727 0.79623 0.0
C3627 C 0.84153 0.47485 0.99169 0.0
C3628 C 0.85086 0.47335 0.88239 0.0
H3629 H 0.88453 0.46062 0.82826 0.0
C3630 C 0.84627 0.47951 0.85394 0.0
C3631 C 0.86454 0.46638 0.87279 0.0
C3632 C 0.86912 0.45932 0.90132 0.0
C3633 C 0.85547 0.479 0.81649 0.0
C3634 C 0.8694 0.4721 0.80718 0.0
C3635 C 0.87378 0.4659 0.83547 0.0
C3636 C 0.88115 0.47146 0.76944 0.0
C3637 C 0.85073 0.48594 0.7875 0.0
C3638 C 0.86982 0.47012 0.73416 0.0
C3639 C 0.88172 0.46866 0.69965 0.0
C3640 C 0.90499 0.46843 0.7004 0.0
C3641 C 0.91608 0.47012 0.73549 0.0
C3642 C 0.90433 0.47162 0.7695 0.0
H3643 H 0.84272 0.49152 0.80124 0.0
H3644 H 0.86628 0.48803 0.77313 0.0
H3645 H 0.83945 0.48346 0.76469 0.0
H3646 H 0.85188 0.46989 0.73359 0.0
H3647 H 0.8728 0.46734 0.67302 0.0
H3648 H 0.57813 0.23692 0.95657 0.0
H3649 H 0.59811 0.23719 0.01835 0.0
H3650 H 0.64192 0.21761 0.97663 0.0
H3651 H 0.62194 0.21741 0.91437 0.0
H3652 H 0.59753 0.2223 0.06247 0.0
H3653 H 0.68374 0.23348 0.03838 0.0
H3654 H 0.66138 0.23583 0.00511 0.0
H3655 H 0.67421 0.22555 0.00476 0.0
C3656 C 0.59274 0.23299 0.95995 0.0
C3657 C 0.59884 0.22727 0.93065 0.0
C3658 C 0.604 0.23309 0.99534 0.0
C3659 C 0.6215 0.22743 0.00212 0.0
C3660 C 0.62871 0.22214 0.97178 0.0
H3661 H 0.69259 0.20819 0.19824 0.0
H3662 H 0.67596 0.21141 0.1355 0.0
C3663 C 0.61744 0.22206 0.93613 0.0
C3664 C 0.62976 0.2262 0.04231 0.0
H3665 H 0.6762 0.22676 0.09884 0.0
C3666 C 0.61469 0.22336 0.07059 0.0
C3667 C 0.65213 0.22755 0.0527 0.0
C3668 C 0.66882 0.23084 0.02379 0.0
C3669 C 0.62153 0.22157 0.10871 0.0
C3670 C 0.64398 0.22282 0.11904 0.0
C3671 C 0.65897 0.22581 0.0909 0.0
C3672 C 0.65265 0.22058 0.1581 0.0
C3673 C 0.60485 0.21804 0.13709 0.0
C3674 C 0.64473 0.22453 0.192 0.0
C3675 C 0.65409 0.22261 0.22829 0.0
C3676 C 0.67169 0.21681 0.23096 0.0
C3677 C 0.6791 0.21272 0.1971 0.0
C3678 C 0.66968 0.21458 0.16115 0.0
H3679 H 0.5898 0.2156 0.1222 0.0
H3680 H 0.6122 0.21282 0.15454 0.0
H3681 H 0.59963 0.22313 0.1573 0.0
H3682 H 0.63181 0.22927 0.19027 0.0
H3683 H 0.64827 0.22593 0.25386 0.0
H3684 H 0.63933 0.09076 0.95926 0.0
H3685 H 0.61899 0.08974 0.021 0.0
H3686 H 0.67812 0.0969 0.0834 0.0
H3687 H 0.69831 0.09802 0.0226 0.0
H3688 H 0.62996 0.07908 0.08522 0.0
H3689 H 0.63122 0.11307 0.12691 0.0
H3690 H 0.63669 0.10952 0.078 0.0
H3691 H 0.65795 0.10888 0.1145 0.0
C3692 C 0.64787 0.0922 0.98615 0.0
C3693 C 0.67039 0.09448 0.98604 0.0
C3694 C 0.63628 0.0916 0.02131 0.0
C3695 C 0.64702 0.09336 0.05664 0.0
C3696 C 0.66942 0.09568 0.05644 0.0
H3697 H 0.60778 0.09169 0.30141 0.0
H3698 H 0.62992 0.09227 0.24136 0.0
C3699 C 0.68096 0.09626 0.02156 0.0
C3700 C 0.63531 0.09244 0.09411 0.0
H3701 H 0.62043 0.10326 0.17588 0.0
C3702 C 0.62773 0.08437 0.10496 0.0
C3703 C 0.63271 0.09934 0.11993 0.0
C3704 C 0.63988 0.10821 0.10919 0.0
C3705 C 0.61775 0.083 0.14121 0.0
C3706 C 0.61506 0.08991 0.16693 0.0
C3707 C 0.62277 0.09797 0.15621 0.0
C3708 C 0.60247 0.08906 0.20354 0.0
C3709 C 0.61034 0.07416 0.15185 0.0
C3710 C 0.57986 0.08711 0.20192 0.0
C3711 C 0.56732 0.08682 0.23576 0.0
C3712 C 0.5771 0.08848 0.27205 0.0
C3713 C 0.59988 0.09032 0.27386 0.0
C3714 C 0.61247 0.09067 0.23968 0.0
H3715 H 0.61905 0.06927 0.13435 0.0
H3716 H 0.61328 0.07285 0.18313 0.0
H3717 H 0.5923 0.07354 0.14615 0.0
H3718 H 0.57176 0.086 0.17428 0.0
H3719 H 0.54981 0.08537 0.23333 0.0
H3720 H 0.38595 0.82898 0.07446 0.0
H3721 H 0.37034 0.82355 0.01298 0.0
H3722 H 0.38979 0.84663 0.95514 0.0
H3723 H 0.40509 0.85206 0.01578 0.0
H3724 H 0.33811 0.83322 0.95218 0.0
H3725 H 0.42289 0.82494 0.90159 0.0
H3726 H 0.41567 0.82554 0.95246 0.0
H3727 H 0.41961 0.83508 0.92488 0.0
C3728 C 0.3862 0.83298 0.04887 0.0
C3729 C 0.39673 0.84093 0.04982 0.0
C3730 C 0.37753 0.82984 0.01377 0.0
C3731 C 0.37936 0.83464 0.97949 0.0
C3732 C 0.38852 0.84279 0.98116 0.0
H3733 H 0.35578 0.8356 0.73623 0.0
H3734 H 0.37296 0.83587 0.80076 0.0
C3735 C 0.39712 0.8459 0.0159 0.0
C3736 C 0.37273 0.83117 0.94123 0.0
H3737 H 0.39437 0.82501 0.85395 0.0
C3738 C 0.35029 0.83125 0.93087 0.0
C3739 C 0.38879 0.82874 0.91346 0.0
C3740 C 0.41312 0.8285 0.92352 0.0
C3741 C 0.34351 0.8293 0.89284 0.0
C3742 C 0.35962 0.82701 0.86471 0.0
C3743 C 0.38204 0.82671 0.87549 0.0
C3744 C 0.35344 0.82546 0.8235 0.0
C3745 C 0.31926 0.83017 0.88264 0.0
C3746 C 0.33807 0.81911 0.81396 0.0
C3747 C 0.32818 0.81899 0.77727 0.0
C3748 C 0.33379 0.82512 0.74927 0.0
C3749 C 0.35125 0.83077 0.75713 0.0
C3750 C 0.36093 0.83097 0.79416 0.0
H3751 H 0.31001 0.83385 0.90486 0.0
H3752 H 0.31716 0.83335 0.85409 0.0
H3753 H 0.31166 0.82377 0.88078 0.0
H3754 H 0.3325 0.81465 0.83579 0.0
H3755 H 0.31476 0.81457 0.77193 0.0
H3756 H 0.35537 0.96965 0.05359 0.0
H3757 H 0.37558 0.96838 0.99175 0.0
H3758 H 0.31819 0.97757 0.93003 0.0
H3759 H 0.29812 0.97888 0.99096 0.0
H3760 H 0.36037 0.95809 0.92659 0.0
H3761 H 0.36977 0.99205 0.88685 0.0
H3762 H 0.36425 0.9886 0.93593 0.0
H3763 H 0.34222 0.98897 0.90081 0.0
C3764 C 0.34727 0.97153 0.02685 0.0
C3765 C 0.3252 0.97436 0.02708 0.0
C3766 C 0.35875 0.97077 0.99164 0.0
C3767 C 0.3484 0.97297 0.95646 0.0
C3768 C 0.32658 0.97597 0.95688 0.0
H3769 H 0.38681 0.97126 0.71138 0.0
H3770 H 0.36508 0.97254 0.77162 0.0
C3771 C 0.31511 0.97667 0.99179 0.0
C3772 C 0.35966 0.97164 0.91883 0.0
H3773 H 0.37767 0.98196 0.83761 0.0
C3774 C 0.36432 0.96331 0.90722 0.0
C3775 C 0.36438 0.97845 0.89343 0.0
C3776 C 0.36008 0.98754 0.9049 0.0
C3777 C 0.37348 0.96159 0.87063 0.0
C3778 C 0.37848 0.96842 0.84538 0.0
C3779 C 0.37364 0.97675 0.8569 0.0
C3780 C 0.3905 0.9671 0.80842 0.0
C3781 C 0.37744 0.95249 0.85913 0.0
C3782 C 0.41185 0.96363 0.80928 0.0
C3783 C 0.42413 0.9629 0.77529 0.0
C3784 C 0.41544 0.96568 0.73958 0.0
C3785 C 0.39386 0.96902 0.73844 0.0
C3786 C 0.38151 0.96977 0.77276 0.0
H3787 H 0.36654 0.94808 0.87558 0.0
H3788 H 0.37457 0.95152 0.82759 0.0
H3789 H 0.39489 0.95078 0.86573 0.0
H3790 H 0.4193 0.9617 0.83652 0.0
H3791 H 0.44071 0.96029 0.77723 0.0
H3792 H 0.54595 0.72434 0.50761 0.0
H3793 H 0.56762 0.72428 0.56708 0.0
H3794 H 0.62728 0.72004 0.50096 0.0
H3795 H 0.6055 0.72019 0.44046 0.0
H3796 H 0.59282 0.71082 0.59449 0.0
H3797 H 0.64389 0.73984 0.57357 0.0
H3798 H 0.61939 0.73769 0.54503 0.0
H3799 H 0.64486 0.73225 0.53468 0.0
C3800 C 0.56371 0.72345 0.50546 0.0
C3801 C 0.57403 0.72225 0.46926 0.0
C3802 C 0.57606 0.72342 0.5396 0.0
C3803 C 0.59902 0.7222 0.53845 0.0
C3804 C 0.60957 0.72112 0.50238 0.0
H3805 H 0.69725 0.71732 0.7182 0.0
H3806 H 0.67632 0.71803 0.65796 0.0
C3807 C 0.59715 0.72118 0.46791 0.0
C3808 C 0.61146 0.72171 0.57548 0.0
H3809 H 0.65127 0.73159 0.62947 0.0
C3810 C 0.6056 0.71536 0.6022 0.0
C3811 C 0.62802 0.72767 0.58542 0.0
C3812 C 0.63436 0.7348 0.55839 0.0
C3813 C 0.61605 0.71475 0.63849 0.0
C3814 C 0.63255 0.72072 0.6485 0.0
C3815 C 0.63848 0.72706 0.62174 0.0
C3816 C 0.64474 0.72025 0.68576 0.0
C3817 C 0.6097 0.7076 0.66547 0.0
C3818 C 0.63388 0.72129 0.72156 0.0
C3819 C 0.64586 0.72087 0.75642 0.0
C3820 C 0.66885 0.71945 0.75581 0.0
C3821 C 0.67955 0.71843 0.71982 0.0
C3822 C 0.66764 0.71884 0.68524 0.0
H3823 H 0.60031 0.70254 0.65018 0.0
H3824 H 0.62466 0.70474 0.679 0.0
H3825 H 0.59907 0.71013 0.68905 0.0
H3826 H 0.61622 0.7225 0.72249 0.0
H3827 H 0.63719 0.72172 0.78367 0.0
H3828 H 0.57698 0.59986 0.76464 0.0
H3829 H 0.59412 0.59752 0.70182 0.0
H3830 H 0.61692 0.57293 0.73955 0.0
H3831 H 0.59977 0.57533 0.80378 0.0
H3832 H 0.64852 0.58192 0.69702 0.0
H3833 H 0.56895 0.5821 0.6182 0.0
H3834 H 0.57123 0.5913 0.64844 0.0
H3835 H 0.57054 0.58092 0.67031 0.0
C3836 C 0.5857 0.59394 0.75977 0.0
C3837 C 0.58681 0.58772 0.78892 0.0
C3838 C 0.59533 0.59259 0.72367 0.0
C3839 C 0.60607 0.58493 0.71548 0.0
C3840 C 0.60831 0.57883 0.74511 0.0
H3841 H 0.64638 0.58233 0.46821 0.0
H3842 H 0.62802 0.57818 0.52929 0.0
C3843 C 0.5987 0.58022 0.78177 0.0
C3844 C 0.6152 0.5836 0.67595 0.0
H3845 H 0.60132 0.58636 0.58058 0.0
C3846 C 0.63816 0.58268 0.67149 0.0
C3847 C 0.60165 0.58436 0.64248 0.0
C3848 C 0.5767 0.58462 0.6451 0.0
C3849 C 0.64809 0.58328 0.63473 0.0
C3850 C 0.63474 0.58507 0.60181 0.0
C3851 C 0.61162 0.58519 0.60585 0.0
C3852 C 0.6446 0.58769 0.56418 0.0
C3853 C 0.67289 0.58224 0.63171 0.0
C3854 C 0.65905 0.59466 0.5632 0.0
C3855 C 0.66942 0.59701 0.52872 0.0
C3856 C 0.66528 0.59254 0.4942 0.0
C3857 C 0.64973 0.5859 0.49442 0.0
C3858 C 0.63943 0.58349 0.52929 0.0
H3859 H 0.67926 0.57796 0.6548 0.0
H3860 H 0.67781 0.57966 0.603 0.0
H3861 H 0.68097 0.58851 0.63567 0.0
H3862 H 0.66263 0.59822 0.58936 0.0
H3863 H 0.68116 0.60221 0.52929 0.0
H3864 H 0.43331 0.33819 0.51137 0.0
H3865 H 0.41069 0.33673 0.45328 0.0
H3866 H 0.35271 0.34413 0.5182 0.0
H3867 H 0.37569 0.34573 0.57712 0.0
H3868 H 0.37343 0.32749 0.43265 0.0
H3869 H 0.35727 0.36225 0.43255 0.0
H3870 H 0.37758 0.35743 0.46407 0.0
H3871 H 0.34858 0.35656 0.47514 0.0
C3872 C 0.41565 0.33938 0.51352 0.0
C3873 C 0.40624 0.34217 0.54858 0.0
C3874 C 0.40274 0.33852 0.48027 0.0
C3875 C 0.38012 0.34048 0.48118 0.0
C3876 C 0.37026 0.34273 0.51678 0.0
H3877 H 0.28984 0.34658 0.28801 0.0
H3878 H 0.30737 0.34556 0.35136 0.0
C3879 C 0.38328 0.34356 0.55045 0.0
C3880 C 0.36773 0.34074 0.44394 0.0
H3881 H 0.34372 0.35444 0.37957 0.0
C3882 C 0.36675 0.33336 0.42114 0.0
C3883 C 0.35933 0.34844 0.42877 0.0
C3884 C 0.36083 0.35665 0.45114 0.0
C3885 C 0.35757 0.33347 0.38362 0.0
C3886 C 0.34948 0.3412 0.3683 0.0
C3887 C 0.35011 0.34854 0.39132 0.0
C3888 C 0.33934 0.34175 0.32911 0.0
C3889 C 0.35641 0.32532 0.36082 0.0
C3890 C 0.35163 0.34007 0.29525 0.0
C3891 C 0.3416 0.34066 0.25853 0.0
C3892 C 0.31915 0.34294 0.25529 0.0
C3893 C 0.30713 0.34475 0.28932 0.0
C3894 C 0.31712 0.34418 0.3257 0.0
H3895 H 0.35874 0.31967 0.3797 0.0
H3896 H 0.34023 0.32474 0.34562 0.0
H3897 H 0.3697 0.3253 0.33856 0.0
H3898 H 0.36896 0.33833 0.29724 0.0
H3899 H 0.35128 0.33925 0.23287 0.0
H3900 H 0.35523 0.47939 0.54401 0.0
H3901 H 0.37393 0.48022 0.48061 0.0
H3902 H 0.31204 0.47484 0.4229 0.0
H3903 H 0.29338 0.47402 0.48542 0.0
H3904 H 0.37451 0.46643 0.42516 0.0
H3905 H 0.33669 0.49552 0.36281 0.0
H3906 H 0.33666 0.49328 0.41428 0.0
H3907 H 0.31729 0.48803 0.38271 0.0
C3908 C 0.34561 0.47851 0.51774 0.0
C3909 C 0.32287 0.47662 0.51971 0.0
C3910 C 0.35628 0.47898 0.48162 0.0
C3911 C 0.34428 0.4777 0.44709 0.0
C3912 C 0.32152 0.476 0.4491 0.0
H3913 H 0.37956 0.47208 0.2013 0.0
H3914 H 0.35883 0.47332 0.26274 0.0
C3915 C 0.31094 0.47547 0.48497 0.0
C3916 C 0.35563 0.47745 0.40899 0.0
H3917 H 0.35712 0.48678 0.3194 0.0
C3918 C 0.37087 0.47092 0.40214 0.0
C3919 C 0.35049 0.48323 0.37883 0.0
C3920 C 0.33452 0.49046 0.38497 0.0
C3921 C 0.381 0.46995 0.36577 0.0
C3922 C 0.37612 0.47579 0.33571 0.0
C3923 C 0.36075 0.48229 0.34244 0.0
C3924 C 0.38799 0.47551 0.29807 0.0
C3925 C 0.39658 0.46258 0.35967 0.0
C3926 C 0.41102 0.47658 0.29756 0.0
C3927 C 0.42275 0.47583 0.26297 0.0
C3928 C 0.41172 0.4741 0.22784 0.0
C3929 C 0.38849 0.47338 0.22793 0.0
C3930 C 0.37668 0.47409 0.26293 0.0
H3931 H 0.3935 0.45741 0.38093 0.0
H3932 H 0.39495 0.45995 0.32989 0.0
H3933 H 0.41391 0.46478 0.36364 0.0
H3934 H 0.42001 0.47789 0.32415 0.0
H3935 H 0.44061 0.47656 0.26392 0.0
loop_
_geom_bond_atom_site_label_1
_geom_bond_atom_site_label_2
_geom_bond_distance
_geom_bond_site_symmetry_2
_ccdc_geom_bond_type
C0 C1 1.351 . S
C0 N3 1.368 . S
C0 H5 0.931 . S
C1 C0 1.351 . S
C1 N2 1.373 . S
C1 H29 0.930 . S
N2 C1 1.373 . S
N2 C4 1.340 . S
N3 C0 1.368 . S
N3 C4 1.321 . S
N3 Co6 2.135 . S
C4 N2 1.340 . S
C4 N3 1.321 . S
C4 H28 0.930 . S
H5 C0 0.931 . S
Co6 N3 2.135 . S
Co6 N9 2.121 . S
Co6 O14 2.055 . S
Co6 O17 2.039 . S
Co6 N20 2.140 . S
C7 O8 1.227 . S
C7 O17 1.265 . S
O8 C7 1.227 . S
N9 Co6 2.121 . S
N9 C11 1.375 . S
N9 C12 1.313 . S
C10 C11 1.338 . S
C10 N13 1.377 . S
C10 H30 0.930 . S
C11 N9 1.375 . S
C11 C10 1.338 . S
C11 H15 0.931 . S
C12 N9 1.313 . S
C12 N13 1.344 . S
C12 H16 0.930 . S
N13 C10 1.377 . S
N13 C12 1.344 . S
O14 Co6 2.055 . S
O14 C18 1.253 . S
H15 C11 0.931 . S
H16 C12 0.930 . S
O17 Co6 2.039 . S
O17 C7 1.265 . S
C18 O14 1.253 . S
C18 O19 1.227 . S
O19 C18 1.227 . S
N20 Co6 2.140 . S
N20 C23 1.346 . S
N20 C24 1.345 . S
C21 C22 1.387 . S
C21 C25 1.391 . S
C22 C21 1.387 . S
C22 C23 1.369 1_655 S
C22 H31 0.929 . S
C23 N20 1.346 . S
C23 C22 1.369 1_455 S
C23 H26 0.928 . S
C24 N20 1.345 . S
C24 C25 1.371 1_455 S
C24 H27 0.931 . S
C25 C21 1.391 . S
C25 C24 1.371 1_655 S
C25 H32 0.930 . S
H26 C23 0.928 . S
H27 C24 0.931 . S
H28 C4 0.930 . S
H29 C1 0.930 . S
H30 C10 0.930 . S
H31 C22 0.929 . S
H32 C25 0.930 . S
C33 C34 1.351 . S
C33 N36 1.368 . S
C33 H38 0.931 . S
C34 C33 1.351 . S
C34 N35 1.373 . S
C34 H62 0.930 . S
N35 C34 1.373 . S
N35 C37 1.340 . S
N36 C33 1.368 . S
N36 C37 1.321 . S
N36 Co39 2.135 . S
C37 N35 1.340 . S
C37 N36 1.321 . S
C37 H61 0.930 . S
H38 C33 0.931 . S
Co39 N36 2.135 . S
Co39 N42 2.121 . S
Co39 O47 2.055 . S
Co39 O50 2.039 . S
Co39 N53 2.140 . S
C40 O41 1.227 . S
C40 O50 1.265 . S
O41 C40 1.227 . S
N42 Co39 2.121 . S
N42 C44 1.375 . S
N42 C45 1.313 . S
C43 C44 1.338 . S
C43 N46 1.377 . S
C43 H63 0.930 . S
C44 N42 1.375 . S
C44 C43 1.338 . S
C44 H48 0.931 . S
C45 N42 1.313 . S
C45 N46 1.344 . S
C45 H49 0.930 . S
N46 C43 1.377 . S
N46 C45 1.344 . S
O47 Co39 2.055 . S
O47 C51 1.253 . S
H48 C44 0.931 . S
H49 C45 0.930 . S
O50 Co39 2.039 . S
O50 C40 1.265 . S
C51 O47 1.253 . S
C51 O52 1.227 . S
O52 C51 1.227 . S
N53 Co39 2.140 . S
N53 C56 1.346 . S
N53 C57 1.345 . S
C54 C55 1.387 . S
C54 C58 1.391 . S
C55 C54 1.387 . S
C55 C56 1.369 . S
C55 H64 0.929 . S
C56 N53 1.346 . S
C56 C55 1.369 . S
C56 H59 0.928 . S
C57 N53 1.345 . S
C57 C58 1.371 . S
C57 H60 0.931 . S
C58 C54 1.391 . S
C58 C57 1.371 . S
C58 H65 0.930 . S
H59 C56 0.928 . S
H60 C57 0.931 . S
H61 C37 0.930 . S
H62 C34 0.930 . S
H63 C43 0.930 . S
H64 C55 0.929 . S
H65 C58 0.930 . S
C66 C67 1.351 . S
C66 N69 1.368 . S
C66 H71 0.931 . S
C67 C66 1.351 . S
C67 N68 1.373 . S
C67 H95 0.930 . S
N68 C67 1.373 . S
N68 C70 1.340 . S
N69 C66 1.368 . S
N69 C70 1.321 . S
N69 Co72 2.135 . S
C70 N68 1.340 . S
C70 N69 1.321 . S
C70 H94 0.930 . S
H71 C66 0.931 . S
Co72 N69 2.135 . S
Co72 N75 2.121 . S
Co72 O80 2.055 . S
Co72 O83 2.039 . S
Co72 N86 2.140 . S
C73 O74 1.227 . S
C73 O83 1.265 . S
O74 C73 1.227 . S
N75 Co72 2.121 . S
N75 C77 1.375 . S
N75 C78 1.313 . S
C76 C77 1.338 . S
C76 N79 1.377 . S
C76 H96 0.930 . S
C77 N75 1.375 . S
C77 C76 1.338 . S
C77 H81 0.931 . S
C78 N75 1.313 . S
C78 N79 1.344 . S
C78 H82 0.930 . S
N79 C76 1.377 . S
N79 C78 1.344 . S
O80 Co72 2.055 . S
O80 C84 1.253 . S
H81 C77 0.931 . S
H82 C78 0.930 . S
O83 Co72 2.039 . S
O83 C73 1.265 . S
C84 O80 1.253 . S
C84 O85 1.227 . S
O85 C84 1.227 . S
N86 Co72 2.140 . S
N86 C89 1.346 . S
N86 C90 1.345 . S
C87 C88 1.387 . S
C87 C91 1.391 . S
C88 C87 1.387 . S
C88 C89 1.369 1_655 S
C88 H97 0.929 . S
C89 N86 1.346 . S
C89 C88 1.369 1_455 S
C89 H92 0.928 . S
C90 N86 1.345 . S
C90 C91 1.371 1_455 S
C90 H93 0.931 . S
C91 C87 1.391 . S
C91 C90 1.371 1_655 S
C91 H98 0.930 . S
H92 C89 0.928 . S
H93 C90 0.931 . S
H94 C70 0.930 . S
H95 C67 0.930 . S
H96 C76 0.930 . S
H97 C88 0.929 . S
H98 C91 0.930 . S
C99 C100 1.351 . S
C99 N102 1.368 . S
C99 H104 0.931 . S
C100 C99 1.351 . S
C100 N101 1.373 . S
C100 H128 0.930 . S
N101 C100 1.373 . S
N101 C103 1.340 . S
N102 C99 1.368 . S
N102 C103 1.321 . S
N102 Co105 2.135 . S
C103 N101 1.340 . S
C103 N102 1.321 . S
C103 H127 0.930 . S
H104 C99 0.931 . S
Co105 N102 2.135 . S
Co105 N108 2.121 . S
Co105 O113 2.055 . S
Co105 O116 2.039 . S
Co105 N119 2.140 . S
C106 O107 1.227 . S
C106 O116 1.265 . S
O107 C106 1.227 . S
N108 Co105 2.121 . S
N108 C110 1.375 . S
N108 C111 1.313 . S
C109 C110 1.338 . S
C109 N112 1.377 . S
C109 H129 0.930 . S
C110 N108 1.375 . S
C110 C109 1.338 . S
C110 H114 0.931 . S
C111 N108 1.313 . S
C111 N112 1.344 . S
C111 H115 0.930 . S
N112 C109 1.377 . S
N112 C111 1.344 . S
O113 Co105 2.055 . S
O113 C117 1.253 . S
H114 C110 0.931 . S
H115 C111 0.930 . S
O116 Co105 2.039 . S
O116 C106 1.265 . S
C117 O113 1.253 . S
C117 O118 1.227 . S
O118 C117 1.227 . S
N119 Co105 2.140 . S
N119 C122 1.346 . S
N119 C123 1.345 . S
C120 C121 1.387 . S
C120 C124 1.391 . S
C121 C120 1.387 . S
C121 C122 1.369 . S
C121 H130 0.929 . S
C122 N119 1.346 . S
C122 C121 1.369 . S
C122 H125 0.928 . S
C123 N119 1.345 . S
C123 C124 1.371 . S
C123 H126 0.931 . S
C124 C120 1.391 . S
C124 C123 1.371 . S
C124 H131 0.930 . S
H125 C122 0.928 . S
H126 C123 0.931 . S
H127 C103 0.930 . S
H128 C100 0.930 . S
H129 C109 0.930 . S
H130 C121 0.929 . S
H131 C124 0.930 . S
C132 C133 1.351 . S
C132 N135 1.368 . S
C132 H137 0.931 . S
C133 C132 1.351 . S
C133 N134 1.373 . S
C133 H161 0.930 . S
N134 C133 1.373 . S
N134 C136 1.340 . S
N135 C132 1.368 . S
N135 C136 1.321 . S
N135 Co138 2.135 . S
C136 N134 1.340 . S
C136 N135 1.321 . S
C136 H160 0.930 . S
H137 C132 0.931 . S
Co138 N135 2.135 . S
Co138 N141 2.121 . S
Co138 O146 2.055 . S
Co138 O149 2.039 . S
Co138 N152 2.140 . S
C139 O140 1.227 . S
C139 O149 1.265 . S
O140 C139 1.227 . S
N141 Co138 2.121 . S
N141 C143 1.375 . S
N141 C144 1.313 . S
C142 C143 1.338 . S
C142 N145 1.377 . S
C142 H162 0.930 . S
C143 N141 1.375 . S
C143 C142 1.338 . S
C143 H147 0.931 . S
C144 N141 1.313 . S
C144 N145 1.344 . S
C144 H148 0.930 . S
N145 C142 1.377 . S
N145 C144 1.344 . S
O146 Co138 2.055 . S
O146 C150 1.253 . S
H147 C143 0.931 . S
H148 C144 0.930 . S
O149 Co138 2.039 . S
O149 C139 1.265 . S
C150 O146 1.253 . S
C150 O151 1.227 . S
O151 C150 1.227 . S
N152 Co138 2.140 . S
N152 C155 1.346 . S
N152 C156 1.345 . S
C153 C154 1.387 . S
C153 C157 1.391 . S
C154 C153 1.387 . S
C154 C155 1.369 1_455 S
C154 H163 0.929 . S
C155 N152 1.346 . S
C155 C154 1.369 1_655 S
C155 H158 0.928 . S
C156 N152 1.345 . S
C156 C157 1.371 1_655 S
C156 H159 0.931 . S
C157 C153 1.391 . S
C157 C156 1.371 1_455 S
C157 H164 0.930 . S
H158 C155 0.928 . S
H159 C156 0.931 . S
H160 C136 0.930 . S
H161 C133 0.930 . S
H162 C142 0.930 . S
H163 C154 0.929 . S
H164 C157 0.930 . S
C165 C166 1.351 . S
C165 N168 1.368 . S
C165 H170 0.931 . S
C166 C165 1.351 . S
C166 N167 1.373 . S
C166 H194 0.930 . S
N167 C166 1.373 . S
N167 C169 1.340 . S
N168 C165 1.368 . S
N168 C169 1.321 . S
N168 Co171 2.135 . S
C169 N167 1.340 . S
C169 N168 1.321 . S
C169 H193 0.930 . S
H170 C165 0.931 . S
Co171 N168 2.135 . S
Co171 N174 2.121 . S
Co171 O179 2.055 . S
Co171 O182 2.039 . S
Co171 N185 2.140 . S
C172 O173 1.227 . S
C172 O182 1.265 . S
O173 C172 1.227 . S
N174 Co171 2.121 . S
N174 C176 1.375 . S
N174 C177 1.313 . S
C175 C176 1.338 . S
C175 N178 1.377 . S
C175 H195 0.930 . S
C176 N174 1.375 . S
C176 C175 1.338 . S
C176 H180 0.931 . S
C177 N174 1.313 . S
C177 N178 1.344 . S
C177 H181 0.930 . S
N178 C175 1.377 . S
N178 C177 1.344 . S
O179 Co171 2.055 . S
O179 C183 1.253 . S
H180 C176 0.931 . S
H181 C177 0.930 . S
O182 Co171 2.039 . S
O182 C172 1.265 . S
C183 O179 1.253 . S
C183 O184 1.227 . S
O184 C183 1.227 . S
N185 Co171 2.140 . S
N185 C188 1.346 . S
N185 C189 1.345 . S
C186 C187 1.387 . S
C186 C190 1.391 . S
C187 C186 1.387 . S
C187 C188 1.369 . S
C187 H196 0.929 . S
C188 N185 1.346 . S
C188 C187 1.369 . S
C188 H191 0.928 . S
C189 N185 1.345 . S
C189 C190 1.371 . S
C189 H192 0.931 . S
C190 C186 1.391 . S
C190 C189 1.371 . S
C190 H197 0.930 . S
H191 C188 0.928 . S
H192 C189 0.931 . S
H193 C169 0.930 . S
H194 C166 0.930 . S
H195 C175 0.930 . S
H196 C187 0.929 . S
H197 C190 0.930 . S
C198 C199 1.351 . S
C198 N201 1.368 . S
C198 H203 0.931 . S
C199 C198 1.351 . S
C199 N200 1.373 . S
C199 H227 0.930 . S
N200 C199 1.373 . S
N200 C202 1.340 . S
N201 C198 1.368 . S
N201 C202 1.321 . S
N201 Co204 2.135 . S
C202 N200 1.340 . S
C202 N201 1.321 . S
C202 H226 0.930 . S
H203 C198 0.931 . S
Co204 N201 2.135 . S
Co204 N207 2.121 . S
Co204 O212 2.055 . S
Co204 O215 2.039 . S
Co204 N218 2.140 . S
C205 O206 1.227 . S
C205 O215 1.265 . S
O206 C205 1.227 . S
N207 Co204 2.121 . S
N207 C209 1.375 . S
N207 C210 1.313 . S
C208 C209 1.338 . S
C208 N211 1.377 . S
C208 H228 0.930 . S
C209 N207 1.375 . S
C209 C208 1.338 . S
C209 H213 0.931 . S
C210 N207 1.313 . S
C210 N211 1.344 . S
C210 H214 0.930 . S
N211 C208 1.377 . S
N211 C210 1.344 . S
O212 Co204 2.055 . S
O212 C216 1.253 . S
H213 C209 0.931 . S
H214 C210 0.930 . S
O215 Co204 2.039 . S
O215 C205 1.265 . S
C216 O212 1.253 . S
C216 O217 1.227 . S
O217 C216 1.227 . S
N218 Co204 2.140 . S
N218 C221 1.346 . S
N218 C222 1.345 . S
C219 C220 1.387 . S
C219 C223 1.391 . S
C220 C219 1.387 . S
C220 C221 1.369 1_455 S
C220 H229 0.929 . S
C221 N218 1.346 . S
C221 C220 1.369 1_655 S
C221 H224 0.928 . S
C222 N218 1.345 . S
C222 C223 1.371 1_655 S
C222 H225 0.931 . S
C223 C219 1.391 . S
C223 C222 1.371 1_455 S
C223 H230 0.930 . S
H224 C221 0.928 . S
H225 C222 0.931 . S
H226 C202 0.930 . S
H227 C199 0.930 . S
H228 C208 0.930 . S
H229 C220 0.929 . S
H230 C223 0.930 . S
C231 C232 1.351 . S
C231 N234 1.368 . S
C231 H236 0.931 . S
C232 C231 1.351 . S
C232 N233 1.373 . S
C232 H260 0.930 . S
N233 C232 1.373 . S
N233 C235 1.340 . S
N234 C231 1.368 . S
N234 C235 1.321 . S
N234 Co237 2.135 . S
C235 N233 1.340 . S
C235 N234 1.321 . S
C235 H259 0.930 . S
H236 C231 0.931 . S
Co237 N234 2.135 . S
Co237 N240 2.121 . S
Co237 O245 2.055 . S
Co237 O248 2.039 . S
Co237 N251 2.140 . S
C238 O239 1.227 . S
C238 O248 1.265 . S
O239 C238 1.227 . S
N240 Co237 2.121 . S
N240 C242 1.375 . S
N240 C243 1.313 . S
C241 C242 1.338 . S
C241 N244 1.377 . S
C241 H261 0.930 . S
C242 N240 1.375 . S
C242 C241 1.338 . S
C242 H246 0.931 . S
C243 N240 1.313 . S
C243 N244 1.344 . S
C243 H247 0.930 . S
N244 C241 1.377 . S
N244 C243 1.344 . S
O245 Co237 2.055 . S
O245 C249 1.253 . S
H246 C242 0.931 . S
H247 C243 0.930 . S
O248 Co237 2.039 . S
O248 C238 1.265 . S
C249 O245 1.253 . S
C249 O250 1.227 . S
O250 C249 1.227 . S
N251 Co237 2.140 . S
N251 C254 1.346 . S
N251 C255 1.345 . S
C252 C253 1.387 . S
C252 C256 1.391 . S
C253 C252 1.387 . S
C253 C254 1.369 . S
C253 H262 0.929 . S
C254 N251 1.346 . S
C254 C253 1.369 . S
C254 H257 0.928 . S
C255 N251 1.345 . S
C255 C256 1.371 . S
C255 H258 0.931 . S
C256 C252 1.391 . S
C256 C255 1.371 . S
C256 H263 0.930 . S
H257 C254 0.928 . S
H258 C255 0.931 . S
H259 C235 0.930 . S
H260 C232 0.930 . S
H261 C241 0.930 . S
H262 C253 0.929 . S
H263 C256 0.930 . S
C264 C265 1.351 . S
C264 N267 1.368 . S
C264 H269 0.931 . S
C265 C264 1.351 . S
C265 N266 1.373 . S
C265 H293 0.930 . S
N266 C265 1.373 . S
N266 C268 1.340 . S
N267 C264 1.368 . S
N267 C268 1.321 . S
N267 Co270 2.135 . S
C268 N266 1.340 . S
C268 N267 1.321 . S
C268 H292 0.930 . S
H269 C264 0.931 . S
Co270 N267 2.135 . S
Co270 N273 2.121 . S
Co270 O278 2.055 . S
Co270 O281 2.039 . S
Co270 N284 2.140 . S
C271 O272 1.227 . S
C271 O281 1.265 . S
O272 C271 1.227 . S
N273 Co270 2.121 . S
N273 C275 1.375 . S
N273 C276 1.313 . S
C274 C275 1.338 . S
C274 N277 1.377 . S
C274 H294 0.930 . S
C275 N273 1.375 . S
C275 C274 1.338 . S
C275 H279 0.931 . S
C276 N273 1.313 . S
C276 N277 1.344 . S
C276 H280 0.930 . S
N277 C274 1.377 . S
N277 C276 1.344 . S
O278 Co270 2.055 . S
O278 C282 1.253 . S
H279 C275 0.931 . S
H280 C276 0.930 . S
O281 Co270 2.039 . S
O281 C271 1.265 . S
C282 O278 1.253 . S
C282 O283 1.227 . S
O283 C282 1.227 . S
N284 Co270 2.140 . S
N284 C287 1.346 . S
N284 C288 1.345 . S
C285 C286 1.387 . S
C285 C289 1.391 . S
C286 C285 1.387 . S
C286 C287 1.369 1_655 S
C286 H295 0.929 . S
C287 N284 1.346 . S
C287 C286 1.369 1_455 S
C287 H290 0.928 . S
C288 N284 1.345 . S
C288 C289 1.371 1_455 S
C288 H291 0.931 . S
C289 C285 1.391 . S
C289 C288 1.371 1_655 S
C289 H296 0.930 . S
H290 C287 0.928 . S
H291 C288 0.931 . S
H292 C268 0.930 . S
H293 C265 0.930 . S
H294 C274 0.930 . S
H295 C286 0.929 . S
H296 C289 0.930 . S
C297 C298 1.351 . S
C297 N300 1.368 . S
C297 H302 0.931 . S
C298 C297 1.351 . S
C298 N299 1.373 . S
C298 H326 0.930 . S
N299 C298 1.373 . S
N299 C301 1.340 . S
N300 C297 1.368 . S
N300 C301 1.321 . S
N300 Co303 2.135 . S
C301 N299 1.340 . S
C301 N300 1.321 . S
C301 H325 0.930 . S
H302 C297 0.931 . S
Co303 N300 2.135 . S
Co303 N306 2.121 . S
Co303 O311 2.055 . S
Co303 O314 2.039 . S
Co303 N317 2.140 . S
C304 O305 1.227 . S
C304 O314 1.265 . S
O305 C304 1.227 . S
N306 Co303 2.121 . S
N306 C308 1.375 . S
N306 C309 1.313 . S
C307 C308 1.338 . S
C307 N310 1.377 . S
C307 H327 0.930 . S
C308 N306 1.375 . S
C308 C307 1.338 . S
C308 H312 0.931 . S
C309 N306 1.313 . S
C309 N310 1.344 . S
C309 H313 0.930 . S
N310 C307 1.377 . S
N310 C309 1.344 . S
O311 Co303 2.055 . S
O311 C315 1.253 . S
H312 C308 0.931 . S
H313 C309 0.930 . S
O314 Co303 2.039 . S
O314 C304 1.265 . S
C315 O311 1.253 . S
C315 O316 1.227 . S
O316 C315 1.227 . S
N317 Co303 2.140 . S
N317 C320 1.346 . S
N317 C321 1.345 . S
C318 C319 1.387 . S
C318 C322 1.391 . S
C319 C318 1.387 . S
C319 C320 1.369 . S
C319 H328 0.929 . S
C320 N317 1.346 . S
C320 C319 1.369 . S
C320 H323 0.928 . S
C321 N317 1.345 . S
C321 C322 1.371 . S
C321 H324 0.931 . S
C322 C318 1.391 . S
C322 C321 1.371 . S
C322 H329 0.930 . S
H323 C320 0.928 . S
H324 C321 0.931 . S
H325 C301 0.930 . S
H326 C298 0.930 . S
H327 C307 0.930 . S
H328 C319 0.929 . S
H329 C322 0.930 . S
C330 C331 1.351 . S
C330 N333 1.368 . S
C330 H335 0.931 . S
C331 C330 1.351 . S
C331 N332 1.373 . S
C331 H359 0.930 . S
N332 C331 1.373 . S
N332 C334 1.340 . S
N333 C330 1.368 . S
N333 C334 1.321 . S
N333 Co336 2.135 . S
C334 N332 1.340 . S
C334 N333 1.321 . S
C334 H358 0.930 . S
H335 C330 0.931 . S
Co336 N333 2.135 . S
Co336 N339 2.121 . S
Co336 O344 2.055 . S
Co336 O347 2.039 . S
Co336 N350 2.140 . S
C337 O338 1.227 . S
C337 O347 1.265 . S
O338 C337 1.227 . S
N339 Co336 2.121 . S
N339 C341 1.375 . S
N339 C342 1.313 . S
C340 C341 1.338 . S
C340 N343 1.377 . S
C340 H360 0.930 . S
C341 N339 1.375 . S
C341 C340 1.338 . S
C341 H345 0.931 . S
C342 N339 1.313 . S
C342 N343 1.344 . S
C342 H346 0.930 . S
N343 C340 1.377 . S
N343 C342 1.344 . S
O344 Co336 2.055 . S
O344 C348 1.253 . S
H345 C341 0.931 . S
H346 C342 0.930 . S
O347 Co336 2.039 . S
O347 C337 1.265 . S
C348 O344 1.253 . S
C348 O349 1.227 . S
O349 C348 1.227 . S
N350 Co336 2.140 . S
N350 C353 1.346 . S
N350 C354 1.345 . S
C351 C352 1.387 . S
C351 C355 1.391 . S
C352 C351 1.387 . S
C352 C353 1.369 1_655 S
C352 H361 0.929 . S
C353 N350 1.346 . S
C353 C352 1.369 1_455 S
C353 H356 0.928 . S
C354 N350 1.345 . S
C354 C355 1.371 1_455 S
C354 H357 0.931 . S
C355 C351 1.391 . S
C355 C354 1.371 1_655 S
C355 H362 0.930 . S
H356 C353 0.928 . S
H357 C354 0.931 . S
H358 C334 0.930 . S
H359 C331 0.930 . S
H360 C340 0.930 . S
H361 C352 0.929 . S
H362 C355 0.930 . S
C363 C364 1.351 . S
C363 N366 1.368 . S
C363 H368 0.931 . S
C364 C363 1.351 . S
C364 N365 1.373 . S
C364 H392 0.930 . S
N365 C364 1.373 . S
N365 C367 1.340 . S
N366 C363 1.368 . S
N366 C367 1.321 . S
N366 Co369 2.135 . S
C367 N365 1.340 . S
C367 N366 1.321 . S
C367 H391 0.930 . S
H368 C363 0.931 . S
Co369 N366 2.135 . S
Co369 N372 2.121 . S
Co369 O377 2.055 . S
Co369 O380 2.039 . S
Co369 N383 2.140 . S
C370 O371 1.227 . S
C370 O380 1.265 . S
O371 C370 1.227 . S
N372 Co369 2.121 . S
N372 C374 1.375 . S
N372 C375 1.313 . S
C373 C374 1.338 . S
C373 N376 1.377 . S
C373 H393 0.930 . S
C374 N372 1.375 . S
C374 C373 1.338 . S
C374 H378 0.931 . S
C375 N372 1.313 . S
C375 N376 1.344 . S
C375 H379 0.930 . S
N376 C373 1.377 . S
N376 C375 1.344 . S
O377 Co369 2.055 . S
O377 C381 1.253 . S
H378 C374 0.931 . S
H379 C375 0.930 . S
O380 Co369 2.039 . S
O380 C370 1.265 . S
C381 O377 1.253 . S
C381 O382 1.227 . S
O382 C381 1.227 . S
N383 Co369 2.140 . S
N383 C386 1.346 . S
N383 C387 1.345 . S
C384 C385 1.387 . S
C384 C388 1.391 . S
C385 C384 1.387 . S
C385 C386 1.369 . S
C385 H394 0.929 . S
C386 N383 1.346 . S
C386 C385 1.369 . S
C386 H389 0.928 . S
C387 N383 1.345 . S
C387 C388 1.371 . S
C387 H390 0.931 . S
C388 C384 1.391 . S
C388 C387 1.371 . S
C388 H395 0.930 . S
H389 C386 0.928 . S
H390 C387 0.931 . S
H391 C367 0.930 . S
H392 C364 0.930 . S
H393 C373 0.930 . S
H394 C385 0.929 . S
H395 C388 0.930 . S
C396 C397 1.351 . S
C396 N399 1.368 . S
C396 H401 0.931 . S
C397 C396 1.351 . S
C397 N398 1.373 . S
C397 H425 0.930 . S
N398 C397 1.373 . S
N398 C400 1.340 . S
N399 C396 1.368 . S
N399 C400 1.321 . S
N399 Co402 2.135 . S
C400 N398 1.340 . S
C400 N399 1.321 . S
C400 H424 0.930 . S
H401 C396 0.931 . S
Co402 N399 2.135 . S
Co402 N405 2.121 . S
Co402 O410 2.055 . S
Co402 O413 2.039 . S
Co402 N416 2.140 . S
C403 O404 1.227 . S
C403 O413 1.265 . S
O404 C403 1.227 . S
N405 Co402 2.121 . S
N405 C407 1.375 . S
N405 C408 1.313 . S
C406 C407 1.338 . S
C406 N409 1.377 . S
C406 H426 0.930 . S
C407 N405 1.375 . S
C407 C406 1.338 . S
C407 H411 0.931 . S
C408 N405 1.313 . S
C408 N409 1.344 . S
C408 H412 0.930 . S
N409 C406 1.377 . S
N409 C408 1.344 . S
O410 Co402 2.055 . S
O410 C414 1.253 . S
H411 C407 0.931 . S
H412 C408 0.930 . S
O413 Co402 2.039 . S
O413 C403 1.265 . S
C414 O410 1.253 . S
C414 O415 1.227 . S
O415 C414 1.227 . S
N416 Co402 2.140 . S
N416 C419 1.346 . S
N416 C420 1.345 . S
C417 C418 1.387 . S
C417 C421 1.391 . S
C418 C417 1.387 . S
C418 C419 1.369 1_455 S
C418 H427 0.929 . S
C419 N416 1.346 . S
C419 C418 1.369 1_655 S
C419 H422 0.928 . S
C420 N416 1.345 . S
C420 C421 1.371 1_655 S
C420 H423 0.931 . S
C421 C417 1.391 . S
C421 C420 1.371 1_455 S
C421 H428 0.930 . S
H422 C419 0.928 . S
H423 C420 0.931 . S
H424 C400 0.930 . S
H425 C397 0.930 . S
H426 C406 0.930 . S
H427 C418 0.929 . S
H428 C421 0.930 . S
C429 C430 1.351 . S
C429 N432 1.368 . S
C429 H434 0.931 . S
C430 C429 1.351 . S
C430 N431 1.373 . S
C430 H458 0.930 . S
N431 C430 1.373 . S
N431 C433 1.340 . S
N432 C429 1.368 . S
N432 C433 1.321 . S
N432 Co435 2.135 . S
C433 N431 1.340 . S
C433 N432 1.321 . S
C433 H457 0.930 . S
H434 C429 0.931 . S
Co435 N432 2.135 . S
Co435 N438 2.121 . S
Co435 O443 2.055 . S
Co435 O446 2.039 . S
Co435 N449 2.140 . S
C436 O437 1.227 . S
C436 O446 1.265 . S
O437 C436 1.227 . S
N438 Co435 2.121 . S
N438 C440 1.375 . S
N438 C441 1.313 . S
C439 C440 1.338 . S
C439 N442 1.377 . S
C439 H459 0.930 . S
C440 N438 1.375 . S
C440 C439 1.338 . S
C440 H444 0.931 . S
C441 N438 1.313 . S
C441 N442 1.344 . S
C441 H445 0.930 . S
N442 C439 1.377 . S
N442 C441 1.344 . S
O443 Co435 2.055 . S
O443 C447 1.253 . S
H444 C440 0.931 . S
H445 C441 0.930 . S
O446 Co435 2.039 . S
O446 C436 1.265 . S
C447 O443 1.253 . S
C447 O448 1.227 . S
O448 C447 1.227 . S
N449 Co435 2.140 . S
N449 C452 1.346 . S
N449 C453 1.345 . S
C450 C451 1.387 . S
C450 C454 1.391 . S
C451 C450 1.387 . S
C451 C452 1.369 . S
C451 H460 0.929 . S
C452 N449 1.346 . S
C452 C451 1.369 . S
C452 H455 0.928 . S
C453 N449 1.345 . S
C453 C454 1.371 . S
C453 H456 0.931 . S
C454 C450 1.391 . S
C454 C453 1.371 . S
C454 H461 0.930 . S
H455 C452 0.928 . S
H456 C453 0.931 . S
H457 C433 0.930 . S
H458 C430 0.930 . S
H459 C439 0.930 . S
H460 C451 0.929 . S
H461 C454 0.930 . S
C462 C463 1.351 . S
C462 N465 1.368 . S
C462 H467 0.931 . S
C463 C462 1.351 . S
C463 N464 1.373 . S
C463 H491 0.930 . S
N464 C463 1.373 . S
N464 C466 1.340 . S
N465 C462 1.368 . S
N465 C466 1.321 . S
N465 Co468 2.135 . S
C466 N464 1.340 . S
C466 N465 1.321 . S
C466 H490 0.930 . S
H467 C462 0.931 . S
Co468 N465 2.135 . S
Co468 N471 2.121 . S
Co468 O476 2.055 . S
Co468 O479 2.039 . S
Co468 N482 2.140 . S
C469 O470 1.227 . S
C469 O479 1.265 . S
O470 C469 1.227 . S
N471 Co468 2.121 . S
N471 C473 1.375 . S
N471 C474 1.313 . S
C472 C473 1.338 . S
C472 N475 1.377 . S
C472 H492 0.930 . S
C473 N471 1.375 . S
C473 C472 1.338 . S
C473 H477 0.931 . S
C474 N471 1.313 . S
C474 N475 1.344 . S
C474 H478 0.930 . S
N475 C472 1.377 . S
N475 C474 1.344 . S
O476 Co468 2.055 . S
O476 C480 1.253 . S
H477 C473 0.931 . S
H478 C474 0.930 . S
O479 Co468 2.039 . S
O479 C469 1.265 . S
C480 O476 1.253 . S
C480 O481 1.227 . S
O481 C480 1.227 . S
N482 Co468 2.140 . S
N482 C485 1.346 . S
N482 C486 1.345 . S
C483 C484 1.387 . S
C483 C487 1.391 . S
C484 C483 1.387 . S
C484 C485 1.369 1_455 S
C484 H493 0.929 . S
C485 N482 1.346 . S
C485 C484 1.369 1_655 S
C485 H488 0.928 . S
C486 N482 1.345 . S
C486 C487 1.371 1_655 S
C486 H489 0.931 . S
C487 C483 1.391 . S
C487 C486 1.371 1_455 S
C487 H494 0.930 . S
H488 C485 0.928 . S
H489 C486 0.931 . S
H490 C466 0.930 . S
H491 C463 0.930 . S
H492 C472 0.930 . S
H493 C484 0.929 . S
H494 C487 0.930 . S
C495 C496 1.351 . S
C495 N498 1.368 . S
C495 H500 0.931 . S
C496 C495 1.351 . S
C496 N497 1.373 . S
C496 H524 0.930 . S
N497 C496 1.373 . S
N497 C499 1.340 . S
N498 C495 1.368 . S
N498 C499 1.321 . S
N498 Co501 2.135 . S
C499 N497 1.340 . S
C499 N498 1.321 . S
C499 H523 0.930 . S
H500 C495 0.931 . S
Co501 N498 2.135 . S
Co501 N504 2.121 . S
Co501 O509 2.055 . S
Co501 O512 2.039 . S
Co501 N515 2.140 . S
C502 O503 1.227 . S
C502 O512 1.265 . S
O503 C502 1.227 . S
N504 Co501 2.121 . S
N504 C506 1.375 . S
N504 C507 1.313 . S
C505 C506 1.338 . S
C505 N508 1.377 . S
C505 H525 0.930 . S
C506 N504 1.375 . S
C506 C505 1.338 . S
C506 H510 0.931 . S
C507 N504 1.313 . S
C507 N508 1.344 . S
C507 H511 0.930 . S
N508 C505 1.377 . S
N508 C507 1.344 . S
O509 Co501 2.055 . S
O509 C513 1.253 . S
H510 C506 0.931 . S
H511 C507 0.930 . S
O512 Co501 2.039 . S
O512 C502 1.265 . S
C513 O509 1.253 . S
C513 O514 1.227 . S
O514 C513 1.227 . S
N515 Co501 2.140 . S
N515 C518 1.346 . S
N515 C519 1.345 . S
C516 C517 1.387 . S
C516 C520 1.391 . S
C517 C516 1.387 . S
C517 C518 1.369 . S
C517 H526 0.929 . S
C518 N515 1.346 . S
C518 C517 1.369 . S
C518 H521 0.928 . S
C519 N515 1.345 . S
C519 C520 1.371 . S
C519 H522 0.931 . S
C520 C516 1.391 . S
C520 C519 1.371 . S
C520 H527 0.930 . S
H521 C518 0.928 . S
H522 C519 0.931 . S
H523 C499 0.930 . S
H524 C496 0.930 . S
H525 C505 0.930 . S
H526 C517 0.929 . S
H527 C520 0.930 . S
C528 C529 1.351 . S
C528 N531 1.368 . S
C528 H533 0.931 . S
C529 C528 1.351 . S
C529 N530 1.373 . S
C529 H557 0.930 . S
N530 C529 1.373 . S
N530 C532 1.340 . S
N531 C528 1.368 . S
N531 C532 1.321 . S
N531 Co534 2.135 . S
C532 N530 1.340 . S
C532 N531 1.321 . S
C532 H556 0.930 . S
H533 C528 0.931 . S
Co534 N531 2.135 . S
Co534 N537 2.121 . S
Co534 O542 2.055 . S
Co534 O545 2.039 . S
Co534 N548 2.140 . S
C535 O536 1.227 . S
C535 O545 1.265 . S
O536 C535 1.227 . S
N537 Co534 2.121 . S
N537 C539 1.375 . S
N537 C540 1.313 . S
C538 C539 1.338 . S
C538 N541 1.377 . S
C538 H558 0.930 . S
C539 N537 1.375 . S
C539 C538 1.338 . S
C539 H543 0.931 . S
C540 N537 1.313 . S
C540 N541 1.344 . S
C540 H544 0.930 . S
N541 C538 1.377 . S
N541 C540 1.344 . S
O542 Co534 2.055 . S
O542 C546 1.253 . S
H543 C539 0.931 . S
H544 C540 0.930 . S
O545 Co534 2.039 . S
O545 C535 1.265 . S
C546 O542 1.253 . S
C546 O547 1.227 . S
O547 C546 1.227 . S
N548 Co534 2.140 . S
N548 C551 1.346 . S
N548 C552 1.345 . S
C549 C550 1.387 . S
C549 C553 1.391 . S
C550 C549 1.387 . S
C550 C551 1.369 . S
C550 H559 0.929 . S
C551 N548 1.346 . S
C551 C550 1.369 . S
C551 H554 0.928 . S
C552 N548 1.345 . S
C552 C553 1.371 . S
C552 H555 0.931 . S
C553 C549 1.391 . S
C553 C552 1.371 . S
C553 H560 0.930 . S
H554 C551 0.928 . S
H555 C552 0.931 . S
H556 C532 0.930 . S
H557 C529 0.930 . S
H558 C538 0.930 . S
H559 C550 0.929 . S
H560 C553 0.930 . S
C561 C562 1.351 . S
C561 N564 1.368 . S
C561 H566 0.931 . S
C562 C561 1.351 . S
C562 N563 1.373 . S
C562 H590 0.930 . S
N563 C562 1.373 . S
N563 C565 1.340 . S
N564 C561 1.368 . S
N564 C565 1.321 . S
N564 Co567 2.135 . S
C565 N563 1.340 . S
C565 N564 1.321 . S
C565 H589 0.930 . S
H566 C561 0.931 . S
Co567 N564 2.135 . S
Co567 N570 2.121 . S
Co567 O575 2.055 . S
Co567 O578 2.039 . S
Co567 N581 2.140 . S
C568 O569 1.227 . S
C568 O578 1.265 . S
O569 C568 1.227 . S
N570 Co567 2.121 . S
N570 C572 1.375 . S
N570 C573 1.313 . S
C571 C572 1.338 . S
C571 N574 1.377 . S
C571 H591 0.930 . S
C572 N570 1.375 . S
C572 C571 1.338 . S
C572 H576 0.931 . S
C573 N570 1.313 . S
C573 N574 1.344 . S
C573 H577 0.930 . S
N574 C571 1.377 . S
N574 C573 1.344 . S
O575 Co567 2.055 . S
O575 C579 1.253 . S
H576 C572 0.931 . S
H577 C573 0.930 . S
O578 Co567 2.039 . S
O578 C568 1.265 . S
C579 O575 1.253 . S
C579 O580 1.227 . S
O580 C579 1.227 . S
N581 Co567 2.140 . S
N581 C584 1.346 . S
N581 C585 1.345 . S
C582 C583 1.387 . S
C582 C586 1.391 . S
C583 C582 1.387 . S
C583 C584 1.369 . S
C583 H592 0.929 . S
C584 N581 1.346 . S
C584 C583 1.369 . S
C584 H587 0.928 . S
C585 N581 1.345 . S
C585 C586 1.371 . S
C585 H588 0.931 . S
C586 C582 1.391 . S
C586 C585 1.371 . S
C586 H593 0.930 . S
H587 C584 0.928 . S
H588 C585 0.931 . S
H589 C565 0.930 . S
H590 C562 0.930 . S
H591 C571 0.930 . S
H592 C583 0.929 . S
H593 C586 0.930 . S
C594 C595 1.351 . S
C594 N597 1.368 . S
C594 H599 0.931 . S
C595 C594 1.351 . S
C595 N596 1.373 . S
C595 H623 0.930 . S
N596 C595 1.373 . S
N596 C598 1.340 . S
N597 C594 1.368 . S
N597 C598 1.321 . S
N597 Co600 2.135 . S
C598 N596 1.340 . S
C598 N597 1.321 . S
C598 H622 0.930 . S
H599 C594 0.931 . S
Co600 N597 2.135 . S
Co600 N603 2.121 . S
Co600 O608 2.055 . S
Co600 O611 2.039 . S
Co600 N614 2.140 . S
C601 O602 1.227 . S
C601 O611 1.265 . S
O602 C601 1.227 . S
N603 Co600 2.121 . S
N603 C605 1.375 . S
N603 C606 1.313 . S
C604 C605 1.338 . S
C604 N607 1.377 . S
C604 H624 0.930 . S
C605 N603 1.375 . S
C605 C604 1.338 . S
C605 H609 0.931 . S
C606 N603 1.313 . S
C606 N607 1.344 . S
C606 H610 0.930 . S
N607 C604 1.377 . S
N607 C606 1.344 . S
O608 Co600 2.055 . S
O608 C612 1.253 . S
H609 C605 0.931 . S
H610 C606 0.930 . S
O611 Co600 2.039 . S
O611 C601 1.265 . S
C612 O608 1.253 . S
C612 O613 1.227 . S
O613 C612 1.227 . S
N614 Co600 2.140 . S
N614 C617 1.346 . S
N614 C618 1.345 . S
C615 C616 1.387 . S
C615 C619 1.391 . S
C616 C615 1.387 . S
C616 C617 1.369 . S
C616 H625 0.929 . S
C617 N614 1.346 . S
C617 C616 1.369 . S
C617 H620 0.928 . S
C618 N614 1.345 . S
C618 C619 1.371 . S
C618 H621 0.931 . S
C619 C615 1.391 . S
C619 C618 1.371 . S
C619 H626 0.930 . S
H620 C617 0.928 . S
H621 C618 0.931 . S
H622 C598 0.930 . S
H623 C595 0.930 . S
H624 C604 0.930 . S
H625 C616 0.929 . S
H626 C619 0.930 . S
C627 C628 1.351 . S
C627 N630 1.368 . S
C627 H632 0.931 . S
C628 C627 1.351 . S
C628 N629 1.373 . S
C628 H656 0.930 . S
N629 C628 1.373 . S
N629 C631 1.340 . S
N630 C627 1.368 . S
N630 C631 1.321 . S
N630 Co633 2.135 . S
C631 N629 1.340 . S
C631 N630 1.321 . S
C631 H655 0.930 . S
H632 C627 0.931 . S
Co633 N630 2.135 . S
Co633 N636 2.121 . S
Co633 O641 2.055 . S
Co633 O644 2.039 . S
Co633 N647 2.140 . S
C634 O635 1.227 . S
C634 O644 1.265 . S
O635 C634 1.227 . S
N636 Co633 2.121 . S
N636 C638 1.375 . S
N636 C639 1.313 . S
C637 C638 1.338 . S
C637 N640 1.377 . S
C637 H657 0.930 . S
C638 N636 1.375 . S
C638 C637 1.338 . S
C638 H642 0.931 . S
C639 N636 1.313 . S
C639 N640 1.344 . S
C639 H643 0.930 . S
N640 C637 1.377 . S
N640 C639 1.344 . S
O641 Co633 2.055 . S
O641 C645 1.253 . S
H642 C638 0.931 . S
H643 C639 0.930 . S
O644 Co633 2.039 . S
O644 C634 1.265 . S
C645 O641 1.253 . S
C645 O646 1.227 . S
O646 C645 1.227 . S
N647 Co633 2.140 . S
N647 C650 1.346 . S
N647 C651 1.345 . S
C648 C649 1.387 . S
C648 C652 1.391 . S
C649 C648 1.387 . S
C649 C650 1.369 . S
C649 H658 0.929 . S
C650 N647 1.346 . S
C650 C649 1.369 . S
C650 H653 0.928 . S
C651 N647 1.345 . S
C651 C652 1.371 . S
C651 H654 0.931 . S
C652 C648 1.391 . S
C652 C651 1.371 . S
C652 H659 0.930 . S
H653 C650 0.928 . S
H654 C651 0.931 . S
H655 C631 0.930 . S
H656 C628 0.930 . S
H657 C637 0.930 . S
H658 C649 0.929 . S
H659 C652 0.930 . S
C660 C661 1.351 . S
C660 N663 1.368 . S
C660 H665 0.931 . S
C661 C660 1.351 . S
C661 N662 1.373 . S
C661 H689 0.930 . S
N662 C661 1.373 . S
N662 C664 1.340 . S
N663 C660 1.368 . S
N663 C664 1.321 . S
N663 Co666 2.135 . S
C664 N662 1.340 . S
C664 N663 1.321 . S
C664 H688 0.930 . S
H665 C660 0.931 . S
Co666 N663 2.135 . S
Co666 N669 2.121 . S
Co666 O674 2.055 . S
Co666 O677 2.039 . S
Co666 N680 2.140 . S
C667 O668 1.227 . S
C667 O677 1.265 . S
O668 C667 1.227 . S
N669 Co666 2.121 . S
N669 C671 1.375 . S
N669 C672 1.313 . S
C670 C671 1.338 . S
C670 N673 1.377 . S
C670 H690 0.930 . S
C671 N669 1.375 . S
C671 C670 1.338 . S
C671 H675 0.931 . S
C672 N669 1.313 . S
C672 N673 1.344 . S
C672 H676 0.930 . S
N673 C670 1.377 . S
N673 C672 1.344 . S
O674 Co666 2.055 . S
O674 C678 1.253 . S
H675 C671 0.931 . S
H676 C672 0.930 . S
O677 Co666 2.039 . S
O677 C667 1.265 . S
C678 O674 1.253 . S
C678 O679 1.227 . S
O679 C678 1.227 . S
N680 Co666 2.140 . S
N680 C683 1.346 . S
N680 C684 1.345 . S
C681 C682 1.387 . S
C681 C685 1.391 . S
C682 C681 1.387 . S
C682 C683 1.369 . S
C682 H691 0.929 . S
C683 N680 1.346 . S
C683 C682 1.369 . S
C683 H686 0.928 . S
C684 N680 1.345 . S
C684 C685 1.371 . S
C684 H687 0.931 . S
C685 C681 1.391 . S
C685 C684 1.371 . S
C685 H692 0.930 . S
H686 C683 0.928 . S
H687 C684 0.931 . S
H688 C664 0.930 . S
H689 C661 0.930 . S
H690 C670 0.930 . S
H691 C682 0.929 . S
H692 C685 0.930 . S
C693 C694 1.351 . S
C693 N696 1.368 . S
C693 H698 0.931 . S
C694 C693 1.351 . S
C694 N695 1.373 . S
C694 H722 0.930 . S
N695 C694 1.373 . S
N695 C697 1.340 . S
N696 C693 1.368 . S
N696 C697 1.321 . S
N696 Co699 2.135 . S
C697 N695 1.340 . S
C697 N696 1.321 . S
C697 H721 0.930 . S
H698 C693 0.931 . S
Co699 N696 2.135 . S
Co699 N702 2.121 . S
Co699 O707 2.055 . S
Co699 O710 2.039 . S
Co699 N713 2.140 . S
C700 O701 1.227 . S
C700 O710 1.265 . S
O701 C700 1.227 . S
N702 Co699 2.121 . S
N702 C704 1.375 . S
N702 C705 1.313 . S
C703 C704 1.338 . S
C703 N706 1.377 . S
C703 H723 0.930 . S
C704 N702 1.375 . S
C704 C703 1.338 . S
C704 H708 0.931 . S
C705 N702 1.313 . S
C705 N706 1.344 . S
C705 H709 0.930 . S
N706 C703 1.377 . S
N706 C705 1.344 . S
O707 Co699 2.055 . S
O707 C711 1.253 . S
H708 C704 0.931 . S
H709 C705 0.930 . S
O710 Co699 2.039 . S
O710 C700 1.265 . S
C711 O707 1.253 . S
C711 O712 1.227 . S
O712 C711 1.227 . S
N713 Co699 2.140 . S
N713 C716 1.346 . S
N713 C717 1.345 . S
C714 C715 1.387 . S
C714 C718 1.391 . S
C715 C714 1.387 . S
C715 C716 1.369 . S
C715 H724 0.929 . S
C716 N713 1.346 . S
C716 C715 1.369 . S
C716 H719 0.928 . S
C717 N713 1.345 . S
C717 C718 1.371 . S
C717 H720 0.931 . S
C718 C714 1.391 . S
C718 C717 1.371 . S
C718 H725 0.930 . S
H719 C716 0.928 . S
H720 C717 0.931 . S
H721 C697 0.930 . S
H722 C694 0.930 . S
H723 C703 0.930 . S
H724 C715 0.929 . S
H725 C718 0.930 . S
C726 C727 1.351 . S
C726 N729 1.368 . S
C726 H731 0.931 . S
C727 C726 1.351 . S
C727 N728 1.373 . S
C727 H755 0.930 . S
N728 C727 1.373 . S
N728 C730 1.340 . S
N729 C726 1.368 . S
N729 C730 1.321 . S
N729 Co732 2.135 . S
C730 N728 1.340 . S
C730 N729 1.321 . S
C730 H754 0.930 . S
H731 C726 0.931 . S
Co732 N729 2.135 . S
Co732 N735 2.121 . S
Co732 O740 2.055 . S
Co732 O743 2.039 . S
Co732 N746 2.140 . S
C733 O734 1.227 . S
C733 O743 1.265 . S
O734 C733 1.227 . S
N735 Co732 2.121 . S
N735 C737 1.375 . S
N735 C738 1.313 . S
C736 C737 1.338 . S
C736 N739 1.377 . S
C736 H756 0.930 . S
C737 N735 1.375 . S
C737 C736 1.338 . S
C737 H741 0.931 . S
C738 N735 1.313 . S
C738 N739 1.344 . S
C738 H742 0.930 . S
N739 C736 1.377 . S
N739 C738 1.344 . S
O740 Co732 2.055 . S
O740 C744 1.253 . S
H741 C737 0.931 . S
H742 C738 0.930 . S
O743 Co732 2.039 . S
O743 C733 1.265 . S
C744 O740 1.253 . S
C744 O745 1.227 . S
O745 C744 1.227 . S
N746 Co732 2.140 . S
N746 C749 1.346 . S
N746 C750 1.345 . S
C747 C748 1.387 . S
C747 C751 1.391 . S
C748 C747 1.387 . S
C748 C749 1.369 . S
C748 H757 0.929 . S
C749 N746 1.346 . S
C749 C748 1.369 . S
C749 H752 0.928 . S
C750 N746 1.345 . S
C750 C751 1.371 . S
C750 H753 0.931 . S
C751 C747 1.391 . S
C751 C750 1.371 . S
C751 H758 0.930 . S
H752 C749 0.928 . S
H753 C750 0.931 . S
H754 C730 0.930 . S
H755 C727 0.930 . S
H756 C736 0.930 . S
H757 C748 0.929 . S
H758 C751 0.930 . S
C759 C760 1.351 . S
C759 N762 1.368 . S
C759 H764 0.931 . S
C760 C759 1.351 . S
C760 N761 1.373 . S
C760 H788 0.930 . S
N761 C760 1.373 . S
N761 C763 1.340 . S
N762 C759 1.368 . S
N762 C763 1.321 . S
N762 Co765 2.135 . S
C763 N761 1.340 . S
C763 N762 1.321 . S
C763 H787 0.930 . S
H764 C759 0.931 . S
Co765 N762 2.135 . S
Co765 N768 2.121 . S
Co765 O773 2.055 . S
Co765 O776 2.039 . S
Co765 N779 2.140 . S
C766 O767 1.227 . S
C766 O776 1.265 . S
O767 C766 1.227 . S
N768 Co765 2.121 . S
N768 C770 1.375 . S
N768 C771 1.313 . S
C769 C770 1.338 . S
C769 N772 1.377 . S
C769 H789 0.930 . S
C770 N768 1.375 . S
C770 C769 1.338 . S
C770 H774 0.931 . S
C771 N768 1.313 . S
C771 N772 1.344 . S
C771 H775 0.930 . S
N772 C769 1.377 . S
N772 C771 1.344 . S
O773 Co765 2.055 . S
O773 C777 1.253 . S
H774 C770 0.931 . S
H775 C771 0.930 . S
O776 Co765 2.039 . S
O776 C766 1.265 . S
C777 O773 1.253 . S
C777 O778 1.227 . S
O778 C777 1.227 . S
N779 Co765 2.140 . S
N779 C782 1.346 . S
N779 C783 1.345 . S
C780 C781 1.387 . S
C780 C784 1.391 . S
C781 C780 1.387 . S
C781 C782 1.369 . S
C781 H790 0.929 . S
C782 N779 1.346 . S
C782 C781 1.369 . S
C782 H785 0.928 . S
C783 N779 1.345 . S
C783 C784 1.371 . S
C783 H786 0.931 . S
C784 C780 1.391 . S
C784 C783 1.371 . S
C784 H791 0.930 . S
H785 C782 0.928 . S
H786 C783 0.931 . S
H787 C763 0.930 . S
H788 C760 0.930 . S
H789 C769 0.930 . S
H790 C781 0.929 . S
H791 C784 0.930 . S
C792 C793 1.351 . S
C792 N795 1.368 . S
C792 H797 0.931 . S
C793 C792 1.351 . S
C793 N794 1.373 . S
C793 H821 0.930 . S
N794 C793 1.373 . S
N794 C796 1.340 . S
N795 C792 1.368 . S
N795 C796 1.321 . S
N795 Co798 2.135 . S
C796 N794 1.340 . S
C796 N795 1.321 . S
C796 H820 0.930 . S
H797 C792 0.931 . S
Co798 N795 2.135 . S
Co798 N801 2.121 . S
Co798 O806 2.055 . S
Co798 O809 2.039 . S
Co798 N812 2.140 . S
C799 O800 1.227 . S
C799 O809 1.265 . S
O800 C799 1.227 . S
N801 Co798 2.121 . S
N801 C803 1.375 . S
N801 C804 1.313 . S
C802 C803 1.338 . S
C802 N805 1.377 . S
C802 H822 0.930 . S
C803 N801 1.375 . S
C803 C802 1.338 . S
C803 H807 0.931 . S
C804 N801 1.313 . S
C804 N805 1.344 . S
C804 H808 0.930 . S
N805 C802 1.377 . S
N805 C804 1.344 . S
O806 Co798 2.055 . S
O806 C810 1.253 . S
H807 C803 0.931 . S
H808 C804 0.930 . S
O809 Co798 2.039 . S
O809 C799 1.265 . S
C810 O806 1.253 . S
C810 O811 1.227 . S
O811 C810 1.227 . S
N812 Co798 2.140 . S
N812 C815 1.346 . S
N812 C816 1.345 . S
C813 C814 1.387 . S
C813 C817 1.391 . S
C814 C813 1.387 . S
C814 C815 1.369 . S
C814 H823 0.929 . S
C815 N812 1.346 . S
C815 C814 1.369 . S
C815 H818 0.928 . S
C816 N812 1.345 . S
C816 C817 1.371 . S
C816 H819 0.931 . S
C817 C813 1.391 . S
C817 C816 1.371 . S
C817 H824 0.930 . S
H818 C815 0.928 . S
H819 C816 0.931 . S
H820 C796 0.930 . S
H821 C793 0.930 . S
H822 C802 0.930 . S
H823 C814 0.929 . S
H824 C817 0.930 . S
C825 C826 1.351 . S
C825 N828 1.368 . S
C825 H830 0.931 . S
C826 C825 1.351 . S
C826 N827 1.373 . S
C826 H854 0.930 . S
N827 C826 1.373 . S
N827 C829 1.340 . S
N828 C825 1.368 . S
N828 C829 1.321 . S
N828 Co831 2.135 . S
C829 N827 1.340 . S
C829 N828 1.321 . S
C829 H853 0.930 . S
H830 C825 0.931 . S
Co831 N828 2.135 . S
Co831 N834 2.121 . S
Co831 O839 2.055 . S
Co831 O842 2.039 . S
Co831 N845 2.140 . S
C832 O833 1.227 . S
C832 O842 1.265 . S
O833 C832 1.227 . S
N834 Co831 2.121 . S
N834 C836 1.375 . S
N834 C837 1.313 . S
C835 C836 1.338 . S
C835 N838 1.377 . S
C835 H855 0.930 . S
C836 N834 1.375 . S
C836 C835 1.338 . S
C836 H840 0.931 . S
C837 N834 1.313 . S
C837 N838 1.344 . S
C837 H841 0.930 . S
N838 C835 1.377 . S
N838 C837 1.344 . S
O839 Co831 2.055 . S
O839 C843 1.253 . S
H840 C836 0.931 . S
H841 C837 0.930 . S
O842 Co831 2.039 . S
O842 C832 1.265 . S
C843 O839 1.253 . S
C843 O844 1.227 . S
O844 C843 1.227 . S
N845 Co831 2.140 . S
N845 C848 1.346 . S
N845 C849 1.345 . S
C846 C847 1.387 . S
C846 C850 1.391 . S
C847 C846 1.387 . S
C847 C848 1.369 . S
C847 H856 0.929 . S
C848 N845 1.346 . S
C848 C847 1.369 . S
C848 H851 0.928 . S
C849 N845 1.345 . S
C849 C850 1.371 . S
C849 H852 0.931 . S
C850 C846 1.391 . S
C850 C849 1.371 . S
C850 H857 0.930 . S
H851 C848 0.928 . S
H852 C849 0.931 . S
H853 C829 0.930 . S
H854 C826 0.930 . S
H855 C835 0.930 . S
H856 C847 0.929 . S
H857 C850 0.930 . S
C858 C859 1.351 . S
C858 N861 1.368 . S
C858 H863 0.931 . S
C859 C858 1.351 . S
C859 N860 1.373 . S
C859 H887 0.930 . S
N860 C859 1.373 . S
N860 C862 1.340 . S
N861 C858 1.368 . S
N861 C862 1.321 . S
N861 Co864 2.135 . S
C862 N860 1.340 . S
C862 N861 1.321 . S
C862 H886 0.930 . S
H863 C858 0.931 . S
Co864 N861 2.135 . S
Co864 N867 2.121 . S
Co864 O872 2.055 . S
Co864 O875 2.039 . S
Co864 N878 2.140 . S
C865 O866 1.227 . S
C865 O875 1.265 . S
O866 C865 1.227 . S
N867 Co864 2.121 . S
N867 C869 1.375 . S
N867 C870 1.313 . S
C868 C869 1.338 . S
C868 N871 1.377 . S
C868 H888 0.930 . S
C869 N867 1.375 . S
C869 C868 1.338 . S
C869 H873 0.931 . S
C870 N867 1.313 . S
C870 N871 1.344 . S
C870 H874 0.930 . S
N871 C868 1.377 . S
N871 C870 1.344 . S
O872 Co864 2.055 . S
O872 C876 1.253 . S
H873 C869 0.931 . S
H874 C870 0.930 . S
O875 Co864 2.039 . S
O875 C865 1.265 . S
C876 O872 1.253 . S
C876 O877 1.227 . S
O877 C876 1.227 . S
N878 Co864 2.140 . S
N878 C881 1.346 . S
N878 C882 1.345 . S
C879 C880 1.387 . S
C879 C883 1.391 . S
C880 C879 1.387 . S
C880 C881 1.369 . S
C880 H889 0.929 . S
C881 N878 1.346 . S
C881 C880 1.369 . S
C881 H884 0.928 . S
C882 N878 1.345 . S
C882 C883 1.371 . S
C882 H885 0.931 . S
C883 C879 1.391 . S
C883 C882 1.371 . S
C883 H890 0.930 . S
H884 C881 0.928 . S
H885 C882 0.931 . S
H886 C862 0.930 . S
H887 C859 0.930 . S
H888 C868 0.930 . S
H889 C880 0.929 . S
H890 C883 0.930 . S
C891 C892 1.351 . S
C891 N894 1.368 . S
C891 H896 0.931 . S
C892 C891 1.351 . S
C892 N893 1.373 . S
C892 H920 0.930 . S
N893 C892 1.373 . S
N893 C895 1.340 . S
N894 C891 1.368 . S
N894 C895 1.321 . S
N894 Co897 2.135 . S
C895 N893 1.340 . S
C895 N894 1.321 . S
C895 H919 0.930 . S
H896 C891 0.931 . S
Co897 N894 2.135 . S
Co897 N900 2.121 . S
Co897 O905 2.055 . S
Co897 O908 2.039 . S
Co897 N911 2.140 . S
C898 O899 1.227 . S
C898 O908 1.265 . S
O899 C898 1.227 . S
N900 Co897 2.121 . S
N900 C902 1.375 . S
N900 C903 1.313 . S
C901 C902 1.338 . S
C901 N904 1.377 . S
C901 H921 0.930 . S
C902 N900 1.375 . S
C902 C901 1.338 . S
C902 H906 0.931 . S
C903 N900 1.313 . S
C903 N904 1.344 . S
C903 H907 0.930 . S
N904 C901 1.377 . S
N904 C903 1.344 . S
O905 Co897 2.055 . S
O905 C909 1.253 . S
H906 C902 0.931 . S
H907 C903 0.930 . S
O908 Co897 2.039 . S
O908 C898 1.265 . S
C909 O905 1.253 . S
C909 O910 1.227 . S
O910 C909 1.227 . S
N911 Co897 2.140 . S
N911 C914 1.346 . S
N911 C915 1.345 . S
C912 C913 1.387 . S
C912 C916 1.391 . S
C913 C912 1.387 . S
C913 C914 1.369 . S
C913 H922 0.929 . S
C914 N911 1.346 . S
C914 C913 1.369 . S
C914 H917 0.928 . S
C915 N911 1.345 . S
C915 C916 1.371 . S
C915 H918 0.931 . S
C916 C912 1.391 . S
C916 C915 1.371 . S
C916 H923 0.930 . S
H917 C914 0.928 . S
H918 C915 0.931 . S
H919 C895 0.930 . S
H920 C892 0.930 . S
H921 C901 0.930 . S
H922 C913 0.929 . S
H923 C916 0.930 . S
C924 C925 1.351 . S
C924 N927 1.368 . S
C924 H929 0.931 . S
C925 C924 1.351 . S
C925 N926 1.373 . S
C925 H953 0.930 . S
N926 C925 1.373 . S
N926 C928 1.340 . S
N927 C924 1.368 . S
N927 C928 1.321 . S
N927 Co930 2.135 . S
C928 N926 1.340 . S
C928 N927 1.321 . S
C928 H952 0.930 . S
H929 C924 0.931 . S
Co930 N927 2.135 . S
Co930 N933 2.121 . S
Co930 O938 2.055 . S
Co930 O941 2.039 . S
Co930 N944 2.140 . S
C931 O932 1.227 . S
C931 O941 1.265 . S
O932 C931 1.227 . S
N933 Co930 2.121 . S
N933 C935 1.375 . S
N933 C936 1.313 . S
C934 C935 1.338 . S
C934 N937 1.377 . S
C934 H954 0.930 . S
C935 N933 1.375 . S
C935 C934 1.338 . S
C935 H939 0.931 . S
C936 N933 1.313 . S
C936 N937 1.344 . S
C936 H940 0.930 . S
N937 C934 1.377 . S
N937 C936 1.344 . S
O938 Co930 2.055 . S
O938 C942 1.253 . S
H939 C935 0.931 . S
H940 C936 0.930 . S
O941 Co930 2.039 . S
O941 C931 1.265 . S
C942 O938 1.253 . S
C942 O943 1.227 . S
O943 C942 1.227 . S
N944 Co930 2.140 . S
N944 C947 1.346 . S
N944 C948 1.345 . S
C945 C946 1.387 . S
C945 C949 1.391 . S
C946 C945 1.387 . S
C946 C947 1.369 . S
C946 H955 0.929 . S
C947 N944 1.346 . S
C947 C946 1.369 . S
C947 H950 0.928 . S
C948 N944 1.345 . S
C948 C949 1.371 . S
C948 H951 0.931 . S
C949 C945 1.391 . S
C949 C948 1.371 . S
C949 H956 0.930 . S
H950 C947 0.928 . S
H951 C948 0.931 . S
H952 C928 0.930 . S
H953 C925 0.930 . S
H954 C934 0.930 . S
H955 C946 0.929 . S
H956 C949 0.930 . S
C957 C958 1.351 . S
C957 N960 1.368 . S
C957 H962 0.931 . S
C958 C957 1.351 . S
C958 N959 1.373 . S
C958 H986 0.930 . S
N959 C958 1.373 . S
N959 C961 1.340 . S
N960 C957 1.368 . S
N960 C961 1.321 . S
N960 Co963 2.135 . S
C961 N959 1.340 . S
C961 N960 1.321 . S
C961 H985 0.930 . S
H962 C957 0.931 . S
Co963 N960 2.135 . S
Co963 N966 2.121 . S
Co963 O971 2.055 . S
Co963 O974 2.039 . S
Co963 N977 2.140 . S
C964 O965 1.227 . S
C964 O974 1.265 . S
O965 C964 1.227 . S
N966 Co963 2.121 . S
N966 C968 1.375 . S
N966 C969 1.313 . S
C967 C968 1.338 . S
C967 N970 1.377 . S
C967 H987 0.930 . S
C968 N966 1.375 . S
C968 C967 1.338 . S
C968 H972 0.931 . S
C969 N966 1.313 . S
C969 N970 1.344 . S
C969 H973 0.930 . S
N970 C967 1.377 . S
N970 C969 1.344 . S
O971 Co963 2.055 . S
O971 C975 1.253 . S
H972 C968 0.931 . S
H973 C969 0.930 . S
O974 Co963 2.039 . S
O974 C964 1.265 . S
C975 O971 1.253 . S
C975 O976 1.227 . S
O976 C975 1.227 . S
N977 Co963 2.140 . S
N977 C980 1.346 . S
N977 C981 1.345 . S
C978 C979 1.387 . S
C978 C982 1.391 . S
C979 C978 1.387 . S
C979 C980 1.369 . S
C979 H988 0.929 . S
C980 N977 1.346 . S
C980 C979 1.369 . S
C980 H983 0.928 . S
C981 N977 1.345 . S
C981 C982 1.371 . S
C981 H984 0.931 . S
C982 C978 1.391 . S
C982 C981 1.371 . S
C982 H989 0.930 . S
H983 C980 0.928 . S
H984 C981 0.931 . S
H985 C961 0.930 . S
H986 C958 0.930 . S
H987 C967 0.930 . S
H988 C979 0.929 . S
H989 C982 0.930 . S
C990 C991 1.351 . S
C990 N993 1.368 . S
C990 H995 0.931 . S
C991 C990 1.351 . S
C991 N992 1.373 . S
C991 H1019 0.930 . S
N992 C991 1.373 . S
N992 C994 1.340 . S
N993 C990 1.368 . S
N993 C994 1.321 . S
N993 Co996 2.135 . S
C994 N992 1.340 . S
C994 N993 1.321 . S
C994 H1018 0.930 . S
H995 C990 0.931 . S
Co996 N993 2.135 . S
Co996 N999 2.121 . S
Co996 O1004 2.055 . S
Co996 O1007 2.039 . S
Co996 N1010 2.140 . S
C997 O998 1.227 . S
C997 O1007 1.265 . S
O998 C997 1.227 . S
N999 Co996 2.121 . S
N999 C1001 1.375 . S
N999 C1002 1.313 . S
C1000 C1001 1.338 . S
C1000 N1003 1.377 . S
C1000 H1020 0.930 . S
C1001 N999 1.375 . S
C1001 C1000 1.338 . S
C1001 H1005 0.931 . S
C1002 N999 1.313 . S
C1002 N1003 1.344 . S
C1002 H1006 0.930 . S
N1003 C1000 1.377 . S
N1003 C1002 1.344 . S
O1004 Co996 2.055 . S
O1004 C1008 1.253 . S
H1005 C1001 0.931 . S
H1006 C1002 0.930 . S
O1007 Co996 2.039 . S
O1007 C997 1.265 . S
C1008 O1004 1.253 . S
C1008 O1009 1.227 . S
O1009 C1008 1.227 . S
N1010 Co996 2.140 . S
N1010 C1013 1.346 . S
N1010 C1014 1.345 . S
C1011 C1012 1.387 . S
C1011 C1015 1.391 . S
C1012 C1011 1.387 . S
C1012 C1013 1.369 . S
C1012 H1021 0.929 . S
C1013 N1010 1.346 . S
C1013 C1012 1.369 . S
C1013 H1016 0.928 . S
C1014 N1010 1.345 . S
C1014 C1015 1.371 . S
C1014 H1017 0.931 . S
C1015 C1011 1.391 . S
C1015 C1014 1.371 . S
C1015 H1022 0.930 . S
H1016 C1013 0.928 . S
H1017 C1014 0.931 . S
H1018 C994 0.930 . S
H1019 C991 0.930 . S
H1020 C1000 0.930 . S
H1021 C1012 0.929 . S
H1022 C1015 0.930 . S
C1023 C1024 1.351 . S
C1023 N1026 1.368 . S
C1023 H1028 0.931 . S
C1024 C1023 1.351 . S
C1024 N1025 1.373 . S
C1024 H1052 0.930 . S
N1025 C1024 1.373 . S
N1025 C1027 1.340 . S
N1026 C1023 1.368 . S
N1026 C1027 1.321 . S
N1026 Co1029 2.135 . S
C1027 N1025 1.340 . S
C1027 N1026 1.321 . S
C1027 H1051 0.930 . S
H1028 C1023 0.931 . S
Co1029 N1026 2.135 . S
Co1029 N1032 2.121 . S
Co1029 O1037 2.055 . S
Co1029 O1040 2.039 . S
Co1029 N1043 2.140 . S
C1030 O1031 1.227 . S
C1030 O1040 1.265 . S
O1031 C1030 1.227 . S
N1032 Co1029 2.121 . S
N1032 C1034 1.375 . S
N1032 C1035 1.313 . S
C1033 C1034 1.338 . S
C1033 N1036 1.377 . S
C1033 H1053 0.930 . S
C1034 N1032 1.375 . S
C1034 C1033 1.338 . S
C1034 H1038 0.931 . S
C1035 N1032 1.313 . S
C1035 N1036 1.344 . S
C1035 H1039 0.930 . S
N1036 C1033 1.377 . S
N1036 C1035 1.344 . S
O1037 Co1029 2.055 . S
O1037 C1041 1.253 . S
H1038 C1034 0.931 . S
H1039 C1035 0.930 . S
O1040 Co1029 2.039 . S
O1040 C1030 1.265 . S
C1041 O1037 1.253 . S
C1041 O1042 1.227 . S
O1042 C1041 1.227 . S
N1043 Co1029 2.140 . S
N1043 C1046 1.346 . S
N1043 C1047 1.345 . S
C1044 C1045 1.387 . S
C1044 C1048 1.391 . S
C1045 C1044 1.387 . S
C1045 C1046 1.369 . S
C1045 H1054 0.929 . S
C1046 N1043 1.346 . S
C1046 C1045 1.369 . S
C1046 H1049 0.928 . S
C1047 N1043 1.345 . S
C1047 C1048 1.371 . S
C1047 H1050 0.931 . S
C1048 C1044 1.391 . S
C1048 C1047 1.371 . S
C1048 H1055 0.930 . S
H1049 C1046 0.928 . S
H1050 C1047 0.931 . S
H1051 C1027 0.930 . S
H1052 C1024 0.930 . S
H1053 C1033 0.930 . S
H1054 C1045 0.929 . S
H1055 C1048 0.930 . S
H1056 C1064 0.929 . S
H1057 C1066 0.930 . S
H1058 C1068 0.930 . S
H1059 C1071 0.929 . S
H1060 C1074 0.930 . S
H1061 C1076 0.960 . S
H1062 C1076 0.960 . S
H1063 C1076 0.960 . S
C1064 H1056 0.929 . S
C1064 C1065 1.377 1_554 S
C1064 C1066 1.384 . S
C1065 C1064 1.377 1_556 S
C1065 C1071 1.390 . S
C1066 H1057 0.930 . S
C1066 C1064 1.384 . S
C1066 C1067 1.372 . S
C1067 C1066 1.372 . S
C1067 C1068 1.400 . S
C1067 C1072 1.490 . S
C1068 H1058 0.930 . S
C1068 C1067 1.400 . S
C1068 C1071 1.386 1_554 S
H1069 C1085 0.930 . S
H1070 C1086 0.931 . S
C1071 H1059 0.929 . S
C1071 C1065 1.390 . S
C1071 C1068 1.386 1_556 S
C1072 C1067 1.490 . S
C1072 C1074 1.395 . S
C1072 C1075 1.403 . S
H1073 C1079 0.930 . S
C1074 H1060 0.930 . S
C1074 C1072 1.395 . S
C1074 C1077 1.403 . S
C1075 C1072 1.403 . S
C1075 C1076 1.524 . S
C1075 C1079 1.400 . S
C1076 H1061 0.960 . S
C1076 H1062 0.960 . S
C1076 H1063 0.960 . S
C1076 C1075 1.524 . S
C1077 C1074 1.403 . S
C1077 C1078 1.392 . S
C1077 C1081 1.495 . S
C1078 C1077 1.392 . S
C1078 C1079 1.385 . S
C1078 C1080 1.478 . S
C1079 H1073 0.930 . S
C1079 C1075 1.400 . S
C1079 C1078 1.385 . S
C1080 C1078 1.478 . S
C1080 C1082 1.381 . S
C1080 C1086 1.383 . S
C1081 C1077 1.495 . S
C1081 H1087 0.959 . S
C1081 H1088 0.961 . S
C1081 H1089 0.960 . S
C1082 C1080 1.381 . S
C1082 C1083 1.394 . S
C1082 H1090 0.930 . S
C1083 C1082 1.394 . S
C1083 C1084 1.383 . S
C1083 H1091 0.929 . S
C1084 C1083 1.383 . S
C1084 C1085 1.377 . S
C1085 H1069 0.930 . S
C1085 C1084 1.377 . S
C1085 C1086 1.379 . S
C1086 H1070 0.931 . S
C1086 C1080 1.383 . S
C1086 C1085 1.379 . S
H1087 C1081 0.959 . S
H1088 C1081 0.961 . S
H1089 C1081 0.960 . S
H1090 C1082 0.930 . S
H1091 C1083 0.929 . S
H1092 C1100 0.929 . S
H1093 C1102 0.930 . S
H1094 C1104 0.930 . S
H1095 C1107 0.929 . S
H1096 C1110 0.930 . S
H1097 C1112 0.960 . S
H1098 C1112 0.960 . S
H1099 C1112 0.960 . S
C1100 H1092 0.929 . S
C1100 C1101 1.377 . S
C1100 C1102 1.384 . S
C1101 C1100 1.377 . S
C1101 C1107 1.390 . S
C1102 H1093 0.930 . S
C1102 C1100 1.384 . S
C1102 C1103 1.372 . S
C1103 C1102 1.372 . S
C1103 C1104 1.400 . S
C1103 C1108 1.490 . S
C1104 H1094 0.930 . S
C1104 C1103 1.400 . S
C1104 C1107 1.386 . S
H1105 C1121 0.930 1_556 S
H1106 C1122 0.931 . S
C1107 H1095 0.929 . S
C1107 C1101 1.390 . S
C1107 C1104 1.386 . S
C1108 C1103 1.490 . S
C1108 C1110 1.395 . S
C1108 C1111 1.403 . S
H1109 C1115 0.930 . S
C1110 H1096 0.930 . S
C1110 C1108 1.395 . S
C1110 C1113 1.403 . S
C1111 C1108 1.403 . S
C1111 C1112 1.524 . S
C1111 C1115 1.400 . S
C1112 H1097 0.960 . S
C1112 H1098 0.960 . S
C1112 H1099 0.960 . S
C1112 C1111 1.524 . S
C1113 C1110 1.403 . S
C1113 C1114 1.392 . S
C1113 C1117 1.495 . S
C1114 C1113 1.392 . S
C1114 C1115 1.385 . S
C1114 C1116 1.478 . S
C1115 H1109 0.930 . S
C1115 C1111 1.400 . S
C1115 C1114 1.385 . S
C1116 C1114 1.478 . S
C1116 C1118 1.381 . S
C1116 C1122 1.383 . S
C1117 C1113 1.495 . S
C1117 H1123 0.959 . S
C1117 H1124 0.961 . S
C1117 H1125 0.960 . S
C1118 C1116 1.381 . S
C1118 C1119 1.394 . S
C1118 H1126 0.930 . S
C1119 C1118 1.394 . S
C1119 C1120 1.383 1_554 S
C1119 H1127 0.929 1_554 S
C1120 C1119 1.383 1_556 S
C1120 C1121 1.377 1_556 S
C1121 H1105 0.930 1_554 S
C1121 C1120 1.377 1_554 S
C1121 C1122 1.379 . S
C1122 H1106 0.931 . S
C1122 C1116 1.383 . S
C1122 C1121 1.379 . S
H1123 C1117 0.959 . S
H1124 C1117 0.961 . S
H1125 C1117 0.960 . S
H1126 C1118 0.930 . S
H1127 C1119 0.929 1_556 S
H1128 C1136 0.929 . S
H1129 C1138 0.930 . S
H1130 C1140 0.930 . S
H1131 C1143 0.929 . S
H1132 C1146 0.930 . S
H1133 C1148 0.960 . S
H1134 C1148 0.960 . S
H1135 C1148 0.960 . S
C1136 H1128 0.929 . S
C1136 C1137 1.377 . S
C1136 C1138 1.384 . S
C1137 C1136 1.377 . S
C1137 C1143 1.390 . S
C1138 H1129 0.930 . S
C1138 C1136 1.384 . S
C1138 C1139 1.372 . S
C1139 C1138 1.372 . S
C1139 C1140 1.400 . S
C1139 C1144 1.490 . S
C1140 H1130 0.930 . S
C1140 C1139 1.400 . S
C1140 C1143 1.386 . S
H1141 C1157 0.930 . S
H1142 C1158 0.931 . S
C1143 H1131 0.929 . S
C1143 C1137 1.390 . S
C1143 C1140 1.386 . S
C1144 C1139 1.490 . S
C1144 C1146 1.395 . S
C1144 C1147 1.403 . S
H1145 C1151 0.930 . S
C1146 H1132 0.930 . S
C1146 C1144 1.395 . S
C1146 C1149 1.403 . S
C1147 C1144 1.403 . S
C1147 C1148 1.524 . S
C1147 C1151 1.400 . S
C1148 H1133 0.960 . S
C1148 H1134 0.960 . S
C1148 H1135 0.960 . S
C1148 C1147 1.524 . S
C1149 C1146 1.403 . S
C1149 C1150 1.392 . S
C1149 C1153 1.495 . S
C1150 C1149 1.392 . S
C1150 C1151 1.385 . S
C1150 C1152 1.478 . S
C1151 H1145 0.930 . S
C1151 C1147 1.400 . S
C1151 C1150 1.385 . S
C1152 C1150 1.478 . S
C1152 C1154 1.381 . S
C1152 C1158 1.383 . S
C1153 C1149 1.495 . S
C1153 H1159 0.959 . S
C1153 H1160 0.961 . S
C1153 H1161 0.960 . S
C1154 C1152 1.381 . S
C1154 C1155 1.394 1_556 S
C1154 H1162 0.930 . S
C1155 C1154 1.394 1_554 S
C1155 C1156 1.383 . S
C1155 H1163 0.929 . S
C1156 C1155 1.383 . S
C1156 C1157 1.377 1_554 S
C1157 H1141 0.930 . S
C1157 C1156 1.377 1_556 S
C1157 C1158 1.379 . S
C1158 H1142 0.931 . S
C1158 C1152 1.383 . S
C1158 C1157 1.379 . S
H1159 C1153 0.959 . S
H1160 C1153 0.961 . S
H1161 C1153 0.960 . S
H1162 C1154 0.930 . S
H1163 C1155 0.929 . S
H1164 C1172 0.929 . S
H1165 C1174 0.930 . S
H1166 C1176 0.930 . S
H1167 C1179 0.929 . S
H1168 C1182 0.930 . S
H1169 C1184 0.960 . S
H1170 C1184 0.960 . S
H1171 C1184 0.960 . S
C1172 H1164 0.929 . S
C1172 C1173 1.377 . S
C1172 C1174 1.384 . S
C1173 C1172 1.377 . S
C1173 C1179 1.390 . S
C1174 H1165 0.930 . S
C1174 C1172 1.384 . S
C1174 C1175 1.372 . S
C1175 C1174 1.372 . S
C1175 C1176 1.400 . S
C1175 C1180 1.490 . S
C1176 H1166 0.930 . S
C1176 C1175 1.400 . S
C1176 C1179 1.386 . S
H1177 C1193 0.930 1_554 S
H1178 C1194 0.931 . S
C1179 H1167 0.929 . S
C1179 C1173 1.390 . S
C1179 C1176 1.386 . S
C1180 C1175 1.490 . S
C1180 C1182 1.395 . S
C1180 C1183 1.403 . S
H1181 C1187 0.930 . S
C1182 H1168 0.930 . S
C1182 C1180 1.395 . S
C1182 C1185 1.403 . S
C1183 C1180 1.403 . S
C1183 C1184 1.524 . S
C1183 C1187 1.400 . S
C1184 H1169 0.960 . S
C1184 H1170 0.960 . S
C1184 H1171 0.960 . S
C1184 C1183 1.524 . S
C1185 C1182 1.403 . S
C1185 C1186 1.392 . S
C1185 C1189 1.495 . S
C1186 C1185 1.392 . S
C1186 C1187 1.385 . S
C1186 C1188 1.478 . S
C1187 H1181 0.930 . S
C1187 C1183 1.400 . S
C1187 C1186 1.385 . S
C1188 C1186 1.478 . S
C1188 C1190 1.381 . S
C1188 C1194 1.383 . S
C1189 C1185 1.495 . S
C1189 H1195 0.959 . S
C1189 H1196 0.961 . S
C1189 H1197 0.960 . S
C1190 C1188 1.381 . S
C1190 C1191 1.394 1_556 S
C1190 H1198 0.930 . S
C1191 C1190 1.394 1_554 S
C1191 C1192 1.383 . S
C1191 H1199 0.929 . S
C1192 C1191 1.383 . S
C1192 C1193 1.377 1_554 S
C1193 H1177 0.930 1_556 S
C1193 C1192 1.377 1_556 S
C1193 C1194 1.379 . S
C1194 H1178 0.931 . S
C1194 C1188 1.383 . S
C1194 C1193 1.379 . S
H1195 C1189 0.959 . S
H1196 C1189 0.961 . S
H1197 C1189 0.960 . S
H1198 C1190 0.930 . S
H1199 C1191 0.929 . S
H1200 C1208 0.929 . S
H1201 C1210 0.930 . S
H1202 C1212 0.930 . S
H1203 C1215 0.929 . S
H1204 C1218 0.930 . S
H1205 C1220 0.960 . S
H1206 C1220 0.960 . S
H1207 C1220 0.960 . S
C1208 H1200 0.929 . S
C1208 C1209 1.377 . S
C1208 C1210 1.384 . S
C1209 C1208 1.377 . S
C1209 C1215 1.390 . S
C1210 H1201 0.930 . S
C1210 C1208 1.384 . S
C1210 C1211 1.372 . S
C1211 C1210 1.372 . S
C1211 C1212 1.400 . S
C1211 C1216 1.490 . S
C1212 H1202 0.930 . S
C1212 C1211 1.400 . S
C1212 C1215 1.386 . S
H1213 C1229 0.930 . S
H1214 C1230 0.931 . S
C1215 H1203 0.929 . S
C1215 C1209 1.390 . S
C1215 C1212 1.386 . S
C1216 C1211 1.490 . S
C1216 C1218 1.395 . S
C1216 C1219 1.403 . S
H1217 C1223 0.930 . S
C1218 H1204 0.930 . S
C1218 C1216 1.395 . S
C1218 C1221 1.403 . S
C1219 C1216 1.403 . S
C1219 C1220 1.524 . S
C1219 C1223 1.400 . S
C1220 H1205 0.960 . S
C1220 H1206 0.960 . S
C1220 H1207 0.960 . S
C1220 C1219 1.524 . S
C1221 C1218 1.403 . S
C1221 C1222 1.392 . S
C1221 C1225 1.495 . S
C1222 C1221 1.392 . S
C1222 C1223 1.385 . S
C1222 C1224 1.478 . S
C1223 H1217 0.930 . S
C1223 C1219 1.400 . S
C1223 C1222 1.385 . S
C1224 C1222 1.478 . S
C1224 C1226 1.381 . S
C1224 C1230 1.383 . S
C1225 C1221 1.495 . S
C1225 H1231 0.959 . S
C1225 H1232 0.961 . S
C1225 H1233 0.960 . S
C1226 C1224 1.381 . S
C1226 C1227 1.394 . S
C1226 H1234 0.930 . S
C1227 C1226 1.394 . S
C1227 C1228 1.383 . S
C1227 H1235 0.929 . S
C1228 C1227 1.383 . S
C1228 C1229 1.377 . S
C1229 H1213 0.930 . S
C1229 C1228 1.377 . S
C1229 C1230 1.379 . S
C1230 H1214 0.931 . S
C1230 C1224 1.383 . S
C1230 C1229 1.379 . S
H1231 C1225 0.959 . S
H1232 C1225 0.961 . S
H1233 C1225 0.960 . S
H1234 C1226 0.930 . S
H1235 C1227 0.929 . S
H1236 C1244 0.929 . S
H1237 C1246 0.930 . S
H1238 C1248 0.930 . S
H1239 C1251 0.929 . S
H1240 C1254 0.930 . S
H1241 C1256 0.960 . S
H1242 C1256 0.960 . S
H1243 C1256 0.960 . S
C1244 H1236 0.929 . S
C1244 C1245 1.377 . S
C1244 C1246 1.384 . S
C1245 C1244 1.377 . S
C1245 C1251 1.390 . S
C1246 H1237 0.930 . S
C1246 C1244 1.384 . S
C1246 C1247 1.372 . S
C1247 C1246 1.372 . S
C1247 C1248 1.400 . S
C1247 C1252 1.490 . S
C1248 H1238 0.930 . S
C1248 C1247 1.400 . S
C1248 C1251 1.386 . S
H1249 C1265 0.930 . S
H1250 C1266 0.931 . S
C1251 H1239 0.929 . S
C1251 C1245 1.390 . S
C1251 C1248 1.386 . S
C1252 C1247 1.490 . S
C1252 C1254 1.395 . S
C1252 C1255 1.403 . S
H1253 C1259 0.930 . S
C1254 H1240 0.930 . S
C1254 C1252 1.395 . S
C1254 C1257 1.403 . S
C1255 C1252 1.403 . S
C1255 C1256 1.524 . S
C1255 C1259 1.400 . S
C1256 H1241 0.960 . S
C1256 H1242 0.960 . S
C1256 H1243 0.960 . S
C1256 C1255 1.524 . S
C1257 C1254 1.403 . S
C1257 C1258 1.392 . S
C1257 C1261 1.495 . S
C1258 C1257 1.392 . S
C1258 C1259 1.385 . S
C1258 C1260 1.478 . S
C1259 H1253 0.930 . S
C1259 C1255 1.400 . S
C1259 C1258 1.385 . S
C1260 C1258 1.478 . S
C1260 C1262 1.381 . S
C1260 C1266 1.383 . S
C1261 C1257 1.495 . S
C1261 H1267 0.959 . S
C1261 H1268 0.961 . S
C1261 H1269 0.960 . S
C1262 C1260 1.381 . S
C1262 C1263 1.394 . S
C1262 H1270 0.930 . S
C1263 C1262 1.394 . S
C1263 C1264 1.383 . S
C1263 H1271 0.929 . S
C1264 C1263 1.383 . S
C1264 C1265 1.377 . S
C1265 H1249 0.930 . S
C1265 C1264 1.377 . S
C1265 C1266 1.379 . S
C1266 H1250 0.931 . S
C1266 C1260 1.383 . S
C1266 C1265 1.379 . S
H1267 C1261 0.959 . S
H1268 C1261 0.961 . S
H1269 C1261 0.960 . S
H1270 C1262 0.930 . S
H1271 C1263 0.929 . S
H1272 C1280 0.929 . S
H1273 C1282 0.930 . S
H1274 C1284 0.930 . S
H1275 C1287 0.929 . S
H1276 C1290 0.930 . S
H1277 C1292 0.960 . S
H1278 C1292 0.960 . S
H1279 C1292 0.960 . S
C1280 H1272 0.929 . S
C1280 C1281 1.377 . S
C1280 C1282 1.384 . S
C1281 C1280 1.377 . S
C1281 C1287 1.390 . S
C1282 H1273 0.930 . S
C1282 C1280 1.384 . S
C1282 C1283 1.372 . S
C1283 C1282 1.372 . S
C1283 C1284 1.400 . S
C1283 C1288 1.490 . S
C1284 H1274 0.930 . S
C1284 C1283 1.400 . S
C1284 C1287 1.386 . S
H1285 C1301 0.930 . S
H1286 C1302 0.931 . S
C1287 H1275 0.929 . S
C1287 C1281 1.390 . S
C1287 C1284 1.386 . S
C1288 C1283 1.490 . S
C1288 C1290 1.395 . S
C1288 C1291 1.403 . S
H1289 C1295 0.930 . S
C1290 H1276 0.930 . S
C1290 C1288 1.395 . S
C1290 C1293 1.403 . S
C1291 C1288 1.403 . S
C1291 C1292 1.524 . S
C1291 C1295 1.400 . S
C1292 H1277 0.960 . S
C1292 H1278 0.960 . S
C1292 H1279 0.960 . S
C1292 C1291 1.524 . S
C1293 C1290 1.403 . S
C1293 C1294 1.392 . S
C1293 C1297 1.495 . S
C1294 C1293 1.392 . S
C1294 C1295 1.385 . S
C1294 C1296 1.478 . S
C1295 H1289 0.930 . S
C1295 C1291 1.400 . S
C1295 C1294 1.385 . S
C1296 C1294 1.478 . S
C1296 C1298 1.381 . S
C1296 C1302 1.383 . S
C1297 C1293 1.495 . S
C1297 H1303 0.959 . S
C1297 H1304 0.961 . S
C1297 H1305 0.960 . S
C1298 C1296 1.381 . S
C1298 C1299 1.394 . S
C1298 H1306 0.930 . S
C1299 C1298 1.394 . S
C1299 C1300 1.383 . S
C1299 H1307 0.929 . S
C1300 C1299 1.383 . S
C1300 C1301 1.377 . S
C1301 H1285 0.930 . S
C1301 C1300 1.377 . S
C1301 C1302 1.379 . S
C1302 H1286 0.931 . S
C1302 C1296 1.383 . S
C1302 C1301 1.379 . S
H1303 C1297 0.959 . S
H1304 C1297 0.961 . S
H1305 C1297 0.960 . S
H1306 C1298 0.930 . S
H1307 C1299 0.929 . S
H1308 C1316 0.929 . S
H1309 C1318 0.930 . S
H1310 C1320 0.930 . S
H1311 C1323 0.929 . S
H1312 C1326 0.930 . S
H1313 C1328 0.960 . S
H1314 C1328 0.960 . S
H1315 C1328 0.960 . S
C1316 H1308 0.929 . S
C1316 C1317 1.377 . S
C1316 C1318 1.384 . S
C1317 C1316 1.377 . S
C1317 C1323 1.390 . S
C1318 H1309 0.930 . S
C1318 C1316 1.384 . S
C1318 C1319 1.372 . S
C1319 C1318 1.372 . S
C1319 C1320 1.400 . S
C1319 C1324 1.490 . S
C1320 H1310 0.930 . S
C1320 C1319 1.400 . S
C1320 C1323 1.386 . S
H1321 C1337 0.930 . S
H1322 C1338 0.931 . S
C1323 H1311 0.929 . S
C1323 C1317 1.390 . S
C1323 C1320 1.386 . S
C1324 C1319 1.490 . S
C1324 C1326 1.395 . S
C1324 C1327 1.403 . S
H1325 C1331 0.930 . S
C1326 H1312 0.930 . S
C1326 C1324 1.395 . S
C1326 C1329 1.403 . S
C1327 C1324 1.403 . S
C1327 C1328 1.524 . S
C1327 C1331 1.400 . S
C1328 H1313 0.960 . S
C1328 H1314 0.960 . S
C1328 H1315 0.960 . S
C1328 C1327 1.524 . S
C1329 C1326 1.403 . S
C1329 C1330 1.392 . S
C1329 C1333 1.495 . S
C1330 C1329 1.392 . S
C1330 C1331 1.385 . S
C1330 C1332 1.478 . S
C1331 H1325 0.930 . S
C1331 C1327 1.400 . S
C1331 C1330 1.385 . S
C1332 C1330 1.478 . S
C1332 C1334 1.381 . S
C1332 C1338 1.383 . S
C1333 C1329 1.495 . S
C1333 H1339 0.959 . S
C1333 H1340 0.961 . S
C1333 H1341 0.960 . S
C1334 C1332 1.381 . S
C1334 C1335 1.394 . S
C1334 H1342 0.930 . S
C1335 C1334 1.394 . S
C1335 C1336 1.383 . S
C1335 H1343 0.929 . S
C1336 C1335 1.383 . S
C1336 C1337 1.377 . S
C1337 H1321 0.930 . S
C1337 C1336 1.377 . S
C1337 C1338 1.379 . S
C1338 H1322 0.931 . S
C1338 C1332 1.383 . S
C1338 C1337 1.379 . S
H1339 C1333 0.959 . S
H1340 C1333 0.961 . S
H1341 C1333 0.960 . S
H1342 C1334 0.930 . S
H1343 C1335 0.929 . S
H1344 C1352 0.929 . S
H1345 C1354 0.930 . S
H1346 C1356 0.930 . S
H1347 C1359 0.929 . S
H1348 C1362 0.930 . S
H1349 C1364 0.960 . S
H1350 C1364 0.960 . S
H1351 C1364 0.960 . S
C1352 H1344 0.929 . S
C1352 C1353 1.377 . S
C1352 C1354 1.384 . S
C1353 C1352 1.377 . S
C1353 C1359 1.390 . S
C1354 H1345 0.930 . S
C1354 C1352 1.384 . S
C1354 C1355 1.372 . S
C1355 C1354 1.372 . S
C1355 C1356 1.400 . S
C1355 C1360 1.490 . S
C1356 H1346 0.930 . S
C1356 C1355 1.400 . S
C1356 C1359 1.386 . S
H1357 C1373 0.930 . S
H1358 C1374 0.931 . S
C1359 H1347 0.929 . S
C1359 C1353 1.390 . S
C1359 C1356 1.386 . S
C1360 C1355 1.490 . S
C1360 C1362 1.395 . S
C1360 C1363 1.403 . S
H1361 C1367 0.930 . S
C1362 H1348 0.930 . S
C1362 C1360 1.395 . S
C1362 C1365 1.403 . S
C1363 C1360 1.403 . S
C1363 C1364 1.524 . S
C1363 C1367 1.400 . S
C1364 H1349 0.960 . S
C1364 H1350 0.960 . S
C1364 H1351 0.960 . S
C1364 C1363 1.524 . S
C1365 C1362 1.403 . S
C1365 C1366 1.392 . S
C1365 C1369 1.495 . S
C1366 C1365 1.392 . S
C1366 C1367 1.385 . S
C1366 C1368 1.478 . S
C1367 H1361 0.930 . S
C1367 C1363 1.400 . S
C1367 C1366 1.385 . S
C1368 C1366 1.478 . S
C1368 C1370 1.381 . S
C1368 C1374 1.383 . S
C1369 C1365 1.495 . S
C1369 H1375 0.959 . S
C1369 H1376 0.961 . S
C1369 H1377 0.960 . S
C1370 C1368 1.381 . S
C1370 C1371 1.394 . S
C1370 H1378 0.930 . S
C1371 C1370 1.394 . S
C1371 C1372 1.383 . S
C1371 H1379 0.929 . S
C1372 C1371 1.383 . S
C1372 C1373 1.377 . S
C1373 H1357 0.930 . S
C1373 C1372 1.377 . S
C1373 C1374 1.379 . S
C1374 H1358 0.931 . S
C1374 C1368 1.383 . S
C1374 C1373 1.379 . S
H1375 C1369 0.959 . S
H1376 C1369 0.961 . S
H1377 C1369 0.960 . S
H1378 C1370 0.930 . S
H1379 C1371 0.929 . S
H1380 C1388 0.929 . S
H1381 C1390 0.930 . S
H1382 C1392 0.930 . S
H1383 C1395 0.929 . S
H1384 C1398 0.930 . S
H1385 C1400 0.960 . S
H1386 C1400 0.960 . S
H1387 C1400 0.960 . S
C1388 H1380 0.929 . S
C1388 C1389 1.377 . S
C1388 C1390 1.384 . S
C1389 C1388 1.377 . S
C1389 C1395 1.390 . S
C1390 H1381 0.930 . S
C1390 C1388 1.384 . S
C1390 C1391 1.372 . S
C1391 C1390 1.372 . S
C1391 C1392 1.400 . S
C1391 C1396 1.490 . S
C1392 H1382 0.930 . S
C1392 C1391 1.400 . S
C1392 C1395 1.386 . S
H1393 C1409 0.930 . S
H1394 C1410 0.931 . S
C1395 H1383 0.929 . S
C1395 C1389 1.390 . S
C1395 C1392 1.386 . S
C1396 C1391 1.490 . S
C1396 C1398 1.395 . S
C1396 C1399 1.403 . S
H1397 C1403 0.930 . S
C1398 H1384 0.930 . S
C1398 C1396 1.395 . S
C1398 C1401 1.403 . S
C1399 C1396 1.403 . S
C1399 C1400 1.524 . S
C1399 C1403 1.400 . S
C1400 H1385 0.960 . S
C1400 H1386 0.960 . S
C1400 H1387 0.960 . S
C1400 C1399 1.524 . S
C1401 C1398 1.403 . S
C1401 C1402 1.392 . S
C1401 C1405 1.495 . S
C1402 C1401 1.392 . S
C1402 C1403 1.385 . S
C1402 C1404 1.478 . S
C1403 H1397 0.930 . S
C1403 C1399 1.400 . S
C1403 C1402 1.385 . S
C1404 C1402 1.478 . S
C1404 C1406 1.381 . S
C1404 C1410 1.383 . S
C1405 C1401 1.495 . S
C1405 H1411 0.959 . S
C1405 H1412 0.961 . S
C1405 H1413 0.960 . S
C1406 C1404 1.381 . S
C1406 C1407 1.394 . S
C1406 H1414 0.930 . S
C1407 C1406 1.394 . S
C1407 C1408 1.383 . S
C1407 H1415 0.929 . S
C1408 C1407 1.383 . S
C1408 C1409 1.377 . S
C1409 H1393 0.930 . S
C1409 C1408 1.377 . S
C1409 C1410 1.379 . S
C1410 H1394 0.931 . S
C1410 C1404 1.383 . S
C1410 C1409 1.379 . S
H1411 C1405 0.959 . S
H1412 C1405 0.961 . S
H1413 C1405 0.960 . S
H1414 C1406 0.930 . S
H1415 C1407 0.929 . S
H1416 C1424 0.929 . S
H1417 C1426 0.930 . S
H1418 C1428 0.930 . S
H1419 C1431 0.929 . S
H1420 C1434 0.930 . S
H1421 C1436 0.960 . S
H1422 C1436 0.960 . S
H1423 C1436 0.960 . S
C1424 H1416 0.929 . S
C1424 C1425 1.377 . S
C1424 C1426 1.384 . S
C1425 C1424 1.377 . S
C1425 C1431 1.390 . S
C1426 H1417 0.930 . S
C1426 C1424 1.384 . S
C1426 C1427 1.372 . S
C1427 C1426 1.372 . S
C1427 C1428 1.400 . S
C1427 C1432 1.490 . S
C1428 H1418 0.930 . S
C1428 C1427 1.400 . S
C1428 C1431 1.386 . S
H1429 C1445 0.930 . S
H1430 C1446 0.931 . S
C1431 H1419 0.929 . S
C1431 C1425 1.390 . S
C1431 C1428 1.386 . S
C1432 C1427 1.490 . S
C1432 C1434 1.395 . S
C1432 C1435 1.403 . S
H1433 C1439 0.930 . S
C1434 H1420 0.930 . S
C1434 C1432 1.395 . S
C1434 C1437 1.403 . S
C1435 C1432 1.403 . S
C1435 C1436 1.524 . S
C1435 C1439 1.400 . S
C1436 H1421 0.960 . S
C1436 H1422 0.960 . S
C1436 H1423 0.960 . S
C1436 C1435 1.524 . S
C1437 C1434 1.403 . S
C1437 C1438 1.392 . S
C1437 C1441 1.495 . S
C1438 C1437 1.392 . S
C1438 C1439 1.385 . S
C1438 C1440 1.478 . S
C1439 H1433 0.930 . S
C1439 C1435 1.400 . S
C1439 C1438 1.385 . S
C1440 C1438 1.478 . S
C1440 C1442 1.381 . S
C1440 C1446 1.383 . S
C1441 C1437 1.495 . S
C1441 H1447 0.959 . S
C1441 H1448 0.961 . S
C1441 H1449 0.960 . S
C1442 C1440 1.381 . S
C1442 C1443 1.394 . S
C1442 H1450 0.930 . S
C1443 C1442 1.394 . S
C1443 C1444 1.383 . S
C1443 H1451 0.929 . S
C1444 C1443 1.383 . S
C1444 C1445 1.377 . S
C1445 H1429 0.930 . S
C1445 C1444 1.377 . S
C1445 C1446 1.379 . S
C1446 H1430 0.931 . S
C1446 C1440 1.383 . S
C1446 C1445 1.379 . S
H1447 C1441 0.959 . S
H1448 C1441 0.961 . S
H1449 C1441 0.960 . S
H1450 C1442 0.930 . S
H1451 C1443 0.929 . S
H1452 C1460 0.929 . S
H1453 C1462 0.930 . S
H1454 C1464 0.930 . S
H1455 C1467 0.929 . S
H1456 C1470 0.930 . S
H1457 C1472 0.960 . S
H1458 C1472 0.960 . S
H1459 C1472 0.960 . S
C1460 H1452 0.929 . S
C1460 C1461 1.377 . S
C1460 C1462 1.384 . S
C1461 C1460 1.377 . S
C1461 C1467 1.390 . S
C1462 H1453 0.930 . S
C1462 C1460 1.384 . S
C1462 C1463 1.372 . S
C1463 C1462 1.372 . S
C1463 C1464 1.400 . S
C1463 C1468 1.490 . S
C1464 H1454 0.930 . S
C1464 C1463 1.400 . S
C1464 C1467 1.386 . S
H1465 C1481 0.930 . S
H1466 C1482 0.931 . S
C1467 H1455 0.929 . S
C1467 C1461 1.390 . S
C1467 C1464 1.386 . S
C1468 C1463 1.490 . S
C1468 C1470 1.395 . S
C1468 C1471 1.403 . S
H1469 C1475 0.930 . S
C1470 H1456 0.930 . S
C1470 C1468 1.395 . S
C1470 C1473 1.403 . S
C1471 C1468 1.403 . S
C1471 C1472 1.524 . S
C1471 C1475 1.400 . S
C1472 H1457 0.960 . S
C1472 H1458 0.960 . S
C1472 H1459 0.960 . S
C1472 C1471 1.524 . S
C1473 C1470 1.403 . S
C1473 C1474 1.392 . S
C1473 C1477 1.495 . S
C1474 C1473 1.392 . S
C1474 C1475 1.385 . S
C1474 C1476 1.478 . S
C1475 H1469 0.930 . S
C1475 C1471 1.400 . S
C1475 C1474 1.385 . S
C1476 C1474 1.478 . S
C1476 C1478 1.381 . S
C1476 C1482 1.383 . S
C1477 C1473 1.495 . S
C1477 H1483 0.959 . S
C1477 H1484 0.961 . S
C1477 H1485 0.960 . S
C1478 C1476 1.381 . S
C1478 C1479 1.394 . S
C1478 H1486 0.930 . S
C1479 C1478 1.394 . S
C1479 C1480 1.383 . S
C1479 H1487 0.929 . S
C1480 C1479 1.383 . S
C1480 C1481 1.377 . S
C1481 H1465 0.930 . S
C1481 C1480 1.377 . S
C1481 C1482 1.379 . S
C1482 H1466 0.931 . S
C1482 C1476 1.383 . S
C1482 C1481 1.379 . S
H1483 C1477 0.959 . S
H1484 C1477 0.961 . S
H1485 C1477 0.960 . S
H1486 C1478 0.930 . S
H1487 C1479 0.929 . S
H1488 C1496 0.929 . S
H1489 C1498 0.930 . S
H1490 C1500 0.930 . S
H1491 C1503 0.929 . S
H1492 C1506 0.930 . S
H1493 C1508 0.960 . S
H1494 C1508 0.960 . S
H1495 C1508 0.960 . S
C1496 H1488 0.929 . S
C1496 C1497 1.377 . S
C1496 C1498 1.384 1_556 S
C1497 C1496 1.377 . S
C1497 C1503 1.390 1_556 S
C1498 H1489 0.930 . S
C1498 C1496 1.384 1_554 S
C1498 C1499 1.372 . S
C1499 C1498 1.372 . S
C1499 C1500 1.400 . S
C1499 C1504 1.490 . S
C1500 H1490 0.930 . S
C1500 C1499 1.400 . S
C1500 C1503 1.386 . S
H1501 C1517 0.930 . S
H1502 C1518 0.931 . S
C1503 H1491 0.929 . S
C1503 C1497 1.390 1_554 S
C1503 C1500 1.386 . S
C1504 C1499 1.490 . S
C1504 C1506 1.395 . S
C1504 C1507 1.403 . S
H1505 C1511 0.930 . S
C1506 H1492 0.930 . S
C1506 C1504 1.395 . S
C1506 C1509 1.403 . S
C1507 C1504 1.403 . S
C1507 C1508 1.524 . S
C1507 C1511 1.400 . S
C1508 H1493 0.960 . S
C1508 H1494 0.960 . S
C1508 H1495 0.960 . S
C1508 C1507 1.524 . S
C1509 C1506 1.403 . S
C1509 C1510 1.392 . S
C1509 C1513 1.495 . S
C1510 C1509 1.392 . S
C1510 C1511 1.385 . S
C1510 C1512 1.478 . S
C1511 H1505 0.930 . S
C1511 C1507 1.400 . S
C1511 C1510 1.385 . S
C1512 C1510 1.478 . S
C1512 C1514 1.381 . S
C1512 C1518 1.383 . S
C1513 C1509 1.495 . S
C1513 H1519 0.959 . S
C1513 H1520 0.961 . S
C1513 H1521 0.960 . S
C1514 C1512 1.381 . S
C1514 C1515 1.394 . S
C1514 H1522 0.930 . S
C1515 C1514 1.394 . S
C1515 C1516 1.383 . S
C1515 H1523 0.929 . S
C1516 C1515 1.383 . S
C1516 C1517 1.377 . S
C1517 H1501 0.930 . S
C1517 C1516 1.377 . S
C1517 C1518 1.379 . S
C1518 H1502 0.931 . S
C1518 C1512 1.383 . S
C1518 C1517 1.379 . S
H1519 C1513 0.959 . S
H1520 C1513 0.961 . S
H1521 C1513 0.960 . S
H1522 C1514 0.930 . S
H1523 C1515 0.929 . S
H1524 C1532 0.929 . S
H1525 C1534 0.930 . S
H1526 C1536 0.930 . S
H1527 C1539 0.929 . S
H1528 C1542 0.930 . S
H1529 C1544 0.960 . S
H1530 C1544 0.960 . S
H1531 C1544 0.960 . S
C1532 H1524 0.929 . S
C1532 C1533 1.377 1_554 S
C1532 C1534 1.384 . S
C1533 C1532 1.377 1_556 S
C1533 C1539 1.390 . S
C1534 H1525 0.930 . S
C1534 C1532 1.384 . S
C1534 C1535 1.372 . S
C1535 C1534 1.372 . S
C1535 C1536 1.400 . S
C1535 C1540 1.490 . S
C1536 H1526 0.930 . S
C1536 C1535 1.400 . S
C1536 C1539 1.386 1_554 S
H1537 C1553 0.930 . S
H1538 C1554 0.931 . S
C1539 H1527 0.929 . S
C1539 C1533 1.390 . S
C1539 C1536 1.386 1_556 S
C1540 C1535 1.490 . S
C1540 C1542 1.395 . S
C1540 C1543 1.403 . S
H1541 C1547 0.930 . S
C1542 H1528 0.930 . S
C1542 C1540 1.395 . S
C1542 C1545 1.403 . S
C1543 C1540 1.403 . S
C1543 C1544 1.524 . S
C1543 C1547 1.400 . S
C1544 H1529 0.960 . S
C1544 H1530 0.960 . S
C1544 H1531 0.960 . S
C1544 C1543 1.524 . S
C1545 C1542 1.403 . S
C1545 C1546 1.392 . S
C1545 C1549 1.495 . S
C1546 C1545 1.392 . S
C1546 C1547 1.385 . S
C1546 C1548 1.478 . S
C1547 H1541 0.930 . S
C1547 C1543 1.400 . S
C1547 C1546 1.385 . S
C1548 C1546 1.478 . S
C1548 C1550 1.381 . S
C1548 C1554 1.383 . S
C1549 C1545 1.495 . S
C1549 H1555 0.959 . S
C1549 H1556 0.961 . S
C1549 H1557 0.960 . S
C1550 C1548 1.381 . S
C1550 C1551 1.394 . S
C1550 H1558 0.930 . S
C1551 C1550 1.394 . S
C1551 C1552 1.383 . S
C1551 H1559 0.929 . S
C1552 C1551 1.383 . S
C1552 C1553 1.377 . S
C1553 H1537 0.930 . S
C1553 C1552 1.377 . S
C1553 C1554 1.379 . S
C1554 H1538 0.931 . S
C1554 C1548 1.383 . S
C1554 C1553 1.379 . S
H1555 C1549 0.959 . S
H1556 C1549 0.961 . S
H1557 C1549 0.960 . S
H1558 C1550 0.930 . S
H1559 C1551 0.929 . S
H1560 C1568 0.929 1_554 S
H1561 C1570 0.930 . S
H1562 C1572 0.930 . S
H1563 C1575 0.918 1_554 S
H1564 C1578 0.930 . S
H1565 C1580 0.960 . S
H1566 C1580 0.960 . S
H1567 C1580 0.960 . S
C1568 H1560 0.929 1_556 S
C1568 C1569 1.377 1_556 S
C1568 C1570 1.384 . S
C1569 C1568 1.377 1_554 S
C1569 C1575 1.380 1_554 S
C1570 H1561 0.930 . S
C1570 C1568 1.384 . S
C1570 C1571 1.372 . S
C1571 C1570 1.372 . S
C1571 C1572 1.400 . S
C1571 C1576 1.490 . S
C1572 H1562 0.930 . S
C1572 C1571 1.400 . S
C1572 C1575 1.407 . S
H1573 C1589 0.930 . S
H1574 C1590 0.931 . S
C1575 H1563 0.918 1_556 S
C1575 C1569 1.380 1_556 S
C1575 C1572 1.407 . S
C1576 C1571 1.490 . S
C1576 C1578 1.395 . S
C1576 C1579 1.403 . S
H1577 C1583 0.930 . S
C1578 H1564 0.930 . S
C1578 C1576 1.395 . S
C1578 C1581 1.403 . S
C1579 C1576 1.403 . S
C1579 C1580 1.524 . S
C1579 C1583 1.400 . S
C1580 H1565 0.960 . S
C1580 H1566 0.960 . S
C1580 H1567 0.960 . S
C1580 C1579 1.524 . S
C1581 C1578 1.403 . S
C1581 C1582 1.392 . S
C1581 C1585 1.495 . S
C1582 C1581 1.392 . S
C1582 C1583 1.385 . S
C1582 C1584 1.478 . S
C1583 H1577 0.930 . S
C1583 C1579 1.400 . S
C1583 C1582 1.385 . S
C1584 C1582 1.478 . S
C1584 C1586 1.381 . S
C1584 C1590 1.383 . S
C1585 C1581 1.495 . S
C1585 H1591 0.959 . S
C1585 H1592 0.961 . S
C1585 H1593 0.960 . S
C1586 C1584 1.381 . S
C1586 C1587 1.394 . S
C1586 H1594 0.930 . S
C1587 C1586 1.394 . S
C1587 C1588 1.383 . S
C1587 H1595 0.929 . S
C1588 C1587 1.383 . S
C1588 C1589 1.377 . S
C1589 H1573 0.930 . S
C1589 C1588 1.377 . S
C1589 C1590 1.379 . S
C1590 H1574 0.931 . S
C1590 C1584 1.383 . S
C1590 C1589 1.379 . S
H1591 C1585 0.959 . S
H1592 C1585 0.961 . S
H1593 C1585 0.960 . S
H1594 C1586 0.930 . S
H1595 C1587 0.929 . S
H1596 C1604 0.929 . S
H1597 C1606 0.930 . S
H1598 C1608 0.930 . S
H1599 C1611 0.929 . S
H1600 C1614 0.930 . S
H1601 C1616 0.960 . S
H1602 C1616 0.960 . S
H1603 C1616 0.960 . S
C1604 H1596 0.929 . S
C1604 C1605 1.377 . S
C1604 C1606 1.384 1_554 S
C1605 C1604 1.377 . S
C1605 C1611 1.390 1_554 S
C1606 H1597 0.930 . S
C1606 C1604 1.384 1_556 S
C1606 C1607 1.372 . S
C1607 C1606 1.372 . S
C1607 C1608 1.400 . S
C1607 C1612 1.490 . S
C1608 H1598 0.930 . S
C1608 C1607 1.400 . S
C1608 C1611 1.386 . S
H1609 C1625 0.930 . S
H1610 C1626 0.931 . S
C1611 H1599 0.929 . S
C1611 C1605 1.390 1_556 S
C1611 C1608 1.386 . S
C1612 C1607 1.490 . S
C1612 C1614 1.395 . S
C1612 C1615 1.403 . S
H1613 C1619 0.930 . S
C1614 H1600 0.930 . S
C1614 C1612 1.395 . S
C1614 C1617 1.403 . S
C1615 C1612 1.403 . S
C1615 C1616 1.524 . S
C1615 C1619 1.400 . S
C1616 H1601 0.960 . S
C1616 H1602 0.960 . S
C1616 H1603 0.960 . S
C1616 C1615 1.524 . S
C1617 C1614 1.403 . S
C1617 C1618 1.392 . S
C1617 C1621 1.495 . S
C1618 C1617 1.392 . S
C1618 C1619 1.385 . S
C1618 C1620 1.478 . S
C1619 H1613 0.930 . S
C1619 C1615 1.400 . S
C1619 C1618 1.385 . S
C1620 C1618 1.478 . S
C1620 C1622 1.381 . S
C1620 C1626 1.383 . S
C1621 C1617 1.495 . S
C1621 H1627 0.959 . S
C1621 H1628 0.961 . S
C1621 H1629 0.960 . S
C1622 C1620 1.381 . S
C1622 C1623 1.394 . S
C1622 H1630 0.930 . S
C1623 C1622 1.394 . S
C1623 C1624 1.383 . S
C1623 H1631 0.929 . S
C1624 C1623 1.383 . S
C1624 C1625 1.377 . S
C1625 H1609 0.930 . S
C1625 C1624 1.377 . S
C1625 C1626 1.379 . S
C1626 H1610 0.931 . S
C1626 C1620 1.383 . S
C1626 C1625 1.379 . S
H1627 C1621 0.959 . S
H1628 C1621 0.961 . S
H1629 C1621 0.960 . S
H1630 C1622 0.930 . S
H1631 C1623 0.929 . S
H1632 C1640 0.929 . S
H1633 C1642 0.930 . S
H1634 C1644 0.930 . S
H1635 C1647 0.929 . S
H1636 C1650 0.930 . S
H1637 C1652 0.960 . S
H1638 C1652 0.960 . S
H1639 C1652 0.960 . S
C1640 H1632 0.929 . S
C1640 C1641 1.377 . S
C1640 C1642 1.384 . S
C1641 C1640 1.377 . S
C1641 C1647 1.390 . S
C1642 H1633 0.930 . S
C1642 C1640 1.384 . S
C1642 C1643 1.372 . S
C1643 C1642 1.372 . S
C1643 C1644 1.400 . S
C1643 C1648 1.490 . S
C1644 H1634 0.930 . S
C1644 C1643 1.400 . S
C1644 C1647 1.386 . S
H1645 C1661 0.930 . S
H1646 C1662 0.931 . S
C1647 H1635 0.929 . S
C1647 C1641 1.390 . S
C1647 C1644 1.386 . S
C1648 C1643 1.490 . S
C1648 C1650 1.395 . S
C1648 C1651 1.403 . S
H1649 C1655 0.930 . S
C1650 H1636 0.930 . S
C1650 C1648 1.395 . S
C1650 C1653 1.403 . S
C1651 C1648 1.403 . S
C1651 C1652 1.524 . S
C1651 C1655 1.400 . S
C1652 H1637 0.960 . S
C1652 H1638 0.960 . S
C1652 H1639 0.960 . S
C1652 C1651 1.524 . S
C1653 C1650 1.403 . S
C1653 C1654 1.392 . S
C1653 C1657 1.495 . S
C1654 C1653 1.392 . S
C1654 C1655 1.385 . S
C1654 C1656 1.478 . S
C1655 H1649 0.930 . S
C1655 C1651 1.400 . S
C1655 C1654 1.385 . S
C1656 C1654 1.478 . S
C1656 C1658 1.381 . S
C1656 C1662 1.383 . S
C1657 C1653 1.495 . S
C1657 H1663 0.959 . S
C1657 H1664 0.961 . S
C1657 H1665 0.960 . S
C1658 C1656 1.381 . S
C1658 C1659 1.394 . S
C1658 H1666 0.930 . S
C1659 C1658 1.394 . S
C1659 C1660 1.383 . S
C1659 H1667 0.929 . S
C1660 C1659 1.383 . S
C1660 C1661 1.377 . S
C1661 H1645 0.930 . S
C1661 C1660 1.377 . S
C1661 C1662 1.379 . S
C1662 H1646 0.931 . S
C1662 C1656 1.383 . S
C1662 C1661 1.379 . S
H1663 C1657 0.959 . S
H1664 C1657 0.961 . S
H1665 C1657 0.960 . S
H1666 C1658 0.930 . S
H1667 C1659 0.929 . S
H1668 C1676 0.929 . S
H1669 C1678 0.930 . S
H1670 C1680 0.930 . S
H1671 C1683 0.929 . S
H1672 C1686 0.930 . S
H1673 C1688 0.960 . S
H1674 C1688 0.960 . S
H1675 C1688 0.960 . S
C1676 H1668 0.929 . S
C1676 C1677 1.377 . S
C1676 C1678 1.384 . S
C1677 C1676 1.377 . S
C1677 C1683 1.390 . S
C1678 H1669 0.930 . S
C1678 C1676 1.384 . S
C1678 C1679 1.372 . S
C1679 C1678 1.372 . S
C1679 C1680 1.400 . S
C1679 C1684 1.490 . S
C1680 H1670 0.930 . S
C1680 C1679 1.400 . S
C1680 C1683 1.386 . S
H1681 C1697 0.930 . S
H1682 C1698 0.931 . S
C1683 H1671 0.929 . S
C1683 C1677 1.390 . S
C1683 C1680 1.386 . S
C1684 C1679 1.490 . S
C1684 C1686 1.395 . S
C1684 C1687 1.403 . S
H1685 C1691 0.930 . S
C1686 H1672 0.930 . S
C1686 C1684 1.395 . S
C1686 C1689 1.403 . S
C1687 C1684 1.403 . S
C1687 C1688 1.524 . S
C1687 C1691 1.400 . S
C1688 H1673 0.960 . S
C1688 H1674 0.960 . S
C1688 H1675 0.960 . S
C1688 C1687 1.524 . S
C1689 C1686 1.403 . S
C1689 C1690 1.392 . S
C1689 C1693 1.495 . S
C1690 C1689 1.392 . S
C1690 C1691 1.385 . S
C1690 C1692 1.478 . S
C1691 H1685 0.930 . S
C1691 C1687 1.400 . S
C1691 C1690 1.385 . S
C1692 C1690 1.478 . S
C1692 C1694 1.381 . S
C1692 C1698 1.383 . S
C1693 C1689 1.495 . S
C1693 H1699 0.959 . S
C1693 H1700 0.961 . S
C1693 H1701 0.960 . S
C1694 C1692 1.381 . S
C1694 C1695 1.394 . S
C1694 H1702 0.930 . S
C1695 C1694 1.394 . S
C1695 C1696 1.383 . S
C1695 H1703 0.929 . S
C1696 C1695 1.383 . S
C1696 C1697 1.377 . S
C1697 H1681 0.930 . S
C1697 C1696 1.377 . S
C1697 C1698 1.379 . S
C1698 H1682 0.931 . S
C1698 C1692 1.383 . S
C1698 C1697 1.379 . S
H1699 C1693 0.959 . S
H1700 C1693 0.961 . S
H1701 C1693 0.960 . S
H1702 C1694 0.930 . S
H1703 C1695 0.929 . S
H1704 C1712 0.929 . S
H1705 C1714 0.930 . S
H1706 C1716 0.930 . S
H1707 C1719 0.929 . S
H1708 C1722 0.930 . S
H1709 C1724 0.960 . S
H1710 C1724 0.960 . S
H1711 C1724 0.960 . S
C1712 H1704 0.929 . S
C1712 C1713 1.377 . S
C1712 C1714 1.384 . S
C1713 C1712 1.377 . S
C1713 C1719 1.390 . S
C1714 H1705 0.930 . S
C1714 C1712 1.384 . S
C1714 C1715 1.372 . S
C1715 C1714 1.372 . S
C1715 C1716 1.400 . S
C1715 C1720 1.490 . S
C1716 H1706 0.930 . S
C1716 C1715 1.400 . S
C1716 C1719 1.386 . S
H1717 C1733 0.930 . S
H1718 C1734 0.931 . S
C1719 H1707 0.929 . S
C1719 C1713 1.390 . S
C1719 C1716 1.386 . S
C1720 C1715 1.490 . S
C1720 C1722 1.395 . S
C1720 C1723 1.403 . S
H1721 C1727 0.930 . S
C1722 H1708 0.930 . S
C1722 C1720 1.395 . S
C1722 C1725 1.403 . S
C1723 C1720 1.403 . S
C1723 C1724 1.524 . S
C1723 C1727 1.400 . S
C1724 H1709 0.960 . S
C1724 H1710 0.960 . S
C1724 H1711 0.960 . S
C1724 C1723 1.524 . S
C1725 C1722 1.403 . S
C1725 C1726 1.392 . S
C1725 C1729 1.495 . S
C1726 C1725 1.392 . S
C1726 C1727 1.385 . S
C1726 C1728 1.478 . S
C1727 H1721 0.930 . S
C1727 C1723 1.400 . S
C1727 C1726 1.385 . S
C1728 C1726 1.478 . S
C1728 C1730 1.381 . S
C1728 C1734 1.383 . S
C1729 C1725 1.495 . S
C1729 H1735 0.959 . S
C1729 H1736 0.961 . S
C1729 H1737 0.960 . S
C1730 C1728 1.381 . S
C1730 C1731 1.394 . S
C1730 H1738 0.930 . S
C1731 C1730 1.394 . S
C1731 C1732 1.383 . S
C1731 H1739 0.929 . S
C1732 C1731 1.383 . S
C1732 C1733 1.377 . S
C1733 H1717 0.930 . S
C1733 C1732 1.377 . S
C1733 C1734 1.379 . S
C1734 H1718 0.931 . S
C1734 C1728 1.383 . S
C1734 C1733 1.379 . S
H1735 C1729 0.959 . S
H1736 C1729 0.961 . S
H1737 C1729 0.960 . S
H1738 C1730 0.930 . S
H1739 C1731 0.929 . S
H1740 C1748 0.929 . S
H1741 C1750 0.930 . S
H1742 C1752 0.930 . S
H1743 C1755 0.929 . S
H1744 C1758 0.930 . S
H1745 C1760 0.960 . S
H1746 C1760 0.960 . S
H1747 C1760 0.960 . S
C1748 H1740 0.929 . S
C1748 C1749 1.377 . S
C1748 C1750 1.384 . S
C1749 C1748 1.377 . S
C1749 C1755 1.390 . S
C1750 H1741 0.930 . S
C1750 C1748 1.384 . S
C1750 C1751 1.372 . S
C1751 C1750 1.372 . S
C1751 C1752 1.400 . S
C1751 C1756 1.490 . S
C1752 H1742 0.930 . S
C1752 C1751 1.400 . S
C1752 C1755 1.386 . S
H1753 C1769 0.930 . S
H1754 C1770 0.931 . S
C1755 H1743 0.929 . S
C1755 C1749 1.390 . S
C1755 C1752 1.386 . S
C1756 C1751 1.490 . S
C1756 C1758 1.395 . S
C1756 C1759 1.403 . S
H1757 C1763 0.930 . S
C1758 H1744 0.930 . S
C1758 C1756 1.395 . S
C1758 C1761 1.403 . S
C1759 C1756 1.403 . S
C1759 C1760 1.524 . S
C1759 C1763 1.400 . S
C1760 H1745 0.960 . S
C1760 H1746 0.960 . S
C1760 H1747 0.960 . S
C1760 C1759 1.524 . S
C1761 C1758 1.403 . S
C1761 C1762 1.392 . S
C1761 C1765 1.495 . S
C1762 C1761 1.392 . S
C1762 C1763 1.385 . S
C1762 C1764 1.478 . S
C1763 H1757 0.930 . S
C1763 C1759 1.400 . S
C1763 C1762 1.385 . S
C1764 C1762 1.478 . S
C1764 C1766 1.381 . S
C1764 C1770 1.383 . S
C1765 C1761 1.495 . S
C1765 H1771 0.959 . S
C1765 H1772 0.961 . S
C1765 H1773 0.960 . S
C1766 C1764 1.381 . S
C1766 C1767 1.394 . S
C1766 H1774 0.930 . S
C1767 C1766 1.394 . S
C1767 C1768 1.383 . S
C1767 H1775 0.929 . S
C1768 C1767 1.383 . S
C1768 C1769 1.377 . S
C1769 H1753 0.930 . S
C1769 C1768 1.377 . S
C1769 C1770 1.379 . S
C1770 H1754 0.931 . S
C1770 C1764 1.383 . S
C1770 C1769 1.379 . S
H1771 C1765 0.959 . S
H1772 C1765 0.961 . S
H1773 C1765 0.960 . S
H1774 C1766 0.930 . S
H1775 C1767 0.929 . S
H1776 C1784 0.929 . S
H1777 C1786 0.930 . S
H1778 C1788 0.930 . S
H1779 C1791 0.929 . S
H1780 C1794 0.930 . S
H1781 C1796 0.960 . S
H1782 C1796 0.960 . S
H1783 C1796 0.960 . S
C1784 H1776 0.929 . S
C1784 C1785 1.377 . S
C1784 C1786 1.384 . S
C1785 C1784 1.377 . S
C1785 C1791 1.390 . S
C1786 H1777 0.930 . S
C1786 C1784 1.384 . S
C1786 C1787 1.372 . S
C1787 C1786 1.372 . S
C1787 C1788 1.400 . S
C1787 C1792 1.490 . S
C1788 H1778 0.930 . S
C1788 C1787 1.400 . S
C1788 C1791 1.386 . S
H1789 C1805 0.930 . S
H1790 C1806 0.931 . S
C1791 H1779 0.929 . S
C1791 C1785 1.390 . S
C1791 C1788 1.386 . S
C1792 C1787 1.490 . S
C1792 C1794 1.395 . S
C1792 C1795 1.403 . S
H1793 C1799 0.930 . S
C1794 H1780 0.930 . S
C1794 C1792 1.395 . S
C1794 C1797 1.403 . S
C1795 C1792 1.403 . S
C1795 C1796 1.524 . S
C1795 C1799 1.400 . S
C1796 H1781 0.960 . S
C1796 H1782 0.960 . S
C1796 H1783 0.960 . S
C1796 C1795 1.524 . S
C1797 C1794 1.403 . S
C1797 C1798 1.392 . S
C1797 C1801 1.495 . S
C1798 C1797 1.392 . S
C1798 C1799 1.385 . S
C1798 C1800 1.478 . S
C1799 H1793 0.930 . S
C1799 C1795 1.400 . S
C1799 C1798 1.385 . S
C1800 C1798 1.478 . S
C1800 C1802 1.381 . S
C1800 C1806 1.383 . S
C1801 C1797 1.495 . S
C1801 H1807 0.959 . S
C1801 H1808 0.961 . S
C1801 H1809 0.960 . S
C1802 C1800 1.381 . S
C1802 C1803 1.394 . S
C1802 H1810 0.930 . S
C1803 C1802 1.394 . S
C1803 C1804 1.383 . S
C1803 H1811 0.929 . S
C1804 C1803 1.383 . S
C1804 C1805 1.377 . S
C1805 H1789 0.930 . S
C1805 C1804 1.377 . S
C1805 C1806 1.379 . S
C1806 H1790 0.931 . S
C1806 C1800 1.383 . S
C1806 C1805 1.379 . S
H1807 C1801 0.959 . S
H1808 C1801 0.961 . S
H1809 C1801 0.960 . S
H1810 C1802 0.930 . S
H1811 C1803 0.929 . S
H1812 C1820 0.929 . S
H1813 C1822 0.930 . S
H1814 C1824 0.930 . S
H1815 C1827 0.929 . S
H1816 C1830 0.930 . S
H1817 C1832 0.960 . S
H1818 C1832 0.960 . S
H1819 C1832 0.960 . S
C1820 H1812 0.929 . S
C1820 C1821 1.377 . S
C1820 C1822 1.384 . S
C1821 C1820 1.377 . S
C1821 C1827 1.390 . S
C1822 H1813 0.930 . S
C1822 C1820 1.384 . S
C1822 C1823 1.372 . S
C1823 C1822 1.372 . S
C1823 C1824 1.400 . S
C1823 C1828 1.490 . S
C1824 H1814 0.930 . S
C1824 C1823 1.400 . S
C1824 C1827 1.386 . S
H1825 C1841 0.930 . S
H1826 C1842 0.931 . S
C1827 H1815 0.929 . S
C1827 C1821 1.390 . S
C1827 C1824 1.386 . S
C1828 C1823 1.490 . S
C1828 C1830 1.395 . S
C1828 C1831 1.403 . S
H1829 C1835 0.930 . S
C1830 H1816 0.930 . S
C1830 C1828 1.395 . S
C1830 C1833 1.403 . S
C1831 C1828 1.403 . S
C1831 C1832 1.524 . S
C1831 C1835 1.400 . S
C1832 H1817 0.960 . S
C1832 H1818 0.960 . S
C1832 H1819 0.960 . S
C1832 C1831 1.524 . S
C1833 C1830 1.403 . S
C1833 C1834 1.392 . S
C1833 C1837 1.495 . S
C1834 C1833 1.392 . S
C1834 C1835 1.385 . S
C1834 C1836 1.478 . S
C1835 H1829 0.930 . S
C1835 C1831 1.400 . S
C1835 C1834 1.385 . S
C1836 C1834 1.478 . S
C1836 C1838 1.381 . S
C1836 C1842 1.383 . S
C1837 C1833 1.495 . S
C1837 H1843 0.959 . S
C1837 H1844 0.961 . S
C1837 H1845 0.960 . S
C1838 C1836 1.381 . S
C1838 C1839 1.394 . S
C1838 H1846 0.930 . S
C1839 C1838 1.394 . S
C1839 C1840 1.383 . S
C1839 H1847 0.929 . S
C1840 C1839 1.383 . S
C1840 C1841 1.377 . S
C1841 H1825 0.930 . S
C1841 C1840 1.377 . S
C1841 C1842 1.379 . S
C1842 H1826 0.931 . S
C1842 C1836 1.383 . S
C1842 C1841 1.379 . S
H1843 C1837 0.959 . S
H1844 C1837 0.961 . S
H1845 C1837 0.960 . S
H1846 C1838 0.930 . S
H1847 C1839 0.929 . S
H1848 C1856 0.929 . S
H1849 C1858 0.930 . S
H1850 C1860 0.930 . S
H1851 C1863 0.929 . S
H1852 C1866 0.930 . S
H1853 C1868 0.960 . S
H1854 C1868 0.960 . S
H1855 C1868 0.960 . S
C1856 H1848 0.929 . S
C1856 C1857 1.377 . S
C1856 C1858 1.384 . S
C1857 C1856 1.377 . S
C1857 C1863 1.390 . S
C1858 H1849 0.930 . S
C1858 C1856 1.384 . S
C1858 C1859 1.372 . S
C1859 C1858 1.372 . S
C1859 C1860 1.400 . S
C1859 C1864 1.490 . S
C1860 H1850 0.930 . S
C1860 C1859 1.400 . S
C1860 C1863 1.386 . S
H1861 C1877 0.930 . S
H1862 C1878 0.931 . S
C1863 H1851 0.929 . S
C1863 C1857 1.390 . S
C1863 C1860 1.386 . S
C1864 C1859 1.490 . S
C1864 C1866 1.395 . S
C1864 C1867 1.403 . S
H1865 C1871 0.930 . S
C1866 H1852 0.930 . S
C1866 C1864 1.395 . S
C1866 C1869 1.403 . S
C1867 C1864 1.403 . S
C1867 C1868 1.524 . S
C1867 C1871 1.400 . S
C1868 H1853 0.960 . S
C1868 H1854 0.960 . S
C1868 H1855 0.960 . S
C1868 C1867 1.524 . S
C1869 C1866 1.403 . S
C1869 C1870 1.392 . S
C1869 C1873 1.495 . S
C1870 C1869 1.392 . S
C1870 C1871 1.385 . S
C1870 C1872 1.478 . S
C1871 H1865 0.930 . S
C1871 C1867 1.400 . S
C1871 C1870 1.385 . S
C1872 C1870 1.478 . S
C1872 C1874 1.381 . S
C1872 C1878 1.383 . S
C1873 C1869 1.495 . S
C1873 H1879 0.959 . S
C1873 H1880 0.961 . S
C1873 H1881 0.960 . S
C1874 C1872 1.381 . S
C1874 C1875 1.394 . S
C1874 H1882 0.930 . S
C1875 C1874 1.394 . S
C1875 C1876 1.383 . S
C1875 H1883 0.929 . S
C1876 C1875 1.383 . S
C1876 C1877 1.377 . S
C1877 H1861 0.930 . S
C1877 C1876 1.377 . S
C1877 C1878 1.379 . S
C1878 H1862 0.931 . S
C1878 C1872 1.383 . S
C1878 C1877 1.379 . S
H1879 C1873 0.959 . S
H1880 C1873 0.961 . S
H1881 C1873 0.960 . S
H1882 C1874 0.930 . S
H1883 C1875 0.929 . S
H1884 C1892 0.929 . S
H1885 C1894 0.930 . S
H1886 C1896 0.930 . S
H1887 C1899 0.929 . S
H1888 C1902 0.930 . S
H1889 C1904 0.960 . S
H1890 C1904 0.960 . S
H1891 C1904 0.960 . S
C1892 H1884 0.929 . S
C1892 C1893 1.377 . S
C1892 C1894 1.384 . S
C1893 C1892 1.377 . S
C1893 C1899 1.390 . S
C1894 H1885 0.930 . S
C1894 C1892 1.384 . S
C1894 C1895 1.372 . S
C1895 C1894 1.372 . S
C1895 C1896 1.400 . S
C1895 C1900 1.490 . S
C1896 H1886 0.930 . S
C1896 C1895 1.400 . S
C1896 C1899 1.386 . S
H1897 C1913 0.930 . S
H1898 C1914 0.931 . S
C1899 H1887 0.929 . S
C1899 C1893 1.390 . S
C1899 C1896 1.386 . S
C1900 C1895 1.490 . S
C1900 C1902 1.395 . S
C1900 C1903 1.403 . S
H1901 C1907 0.930 . S
C1902 H1888 0.930 . S
C1902 C1900 1.395 . S
C1902 C1905 1.403 . S
C1903 C1900 1.403 . S
C1903 C1904 1.524 . S
C1903 C1907 1.400 . S
C1904 H1889 0.960 . S
C1904 H1890 0.960 . S
C1904 H1891 0.960 . S
C1904 C1903 1.524 . S
C1905 C1902 1.403 . S
C1905 C1906 1.392 . S
C1905 C1909 1.495 . S
C1906 C1905 1.392 . S
C1906 C1907 1.385 . S
C1906 C1908 1.478 . S
C1907 H1901 0.930 . S
C1907 C1903 1.400 . S
C1907 C1906 1.385 . S
C1908 C1906 1.478 . S
C1908 C1910 1.381 . S
C1908 C1914 1.383 . S
C1909 C1905 1.495 . S
C1909 H1915 0.959 . S
C1909 H1916 0.961 . S
C1909 H1917 0.960 . S
C1910 C1908 1.381 . S
C1910 C1911 1.394 . S
C1910 H1918 0.930 . S
C1911 C1910 1.394 . S
C1911 C1912 1.383 . S
C1911 H1919 0.929 . S
C1912 C1911 1.383 . S
C1912 C1913 1.377 . S
C1913 H1897 0.930 . S
C1913 C1912 1.377 . S
C1913 C1914 1.379 . S
C1914 H1898 0.931 . S
C1914 C1908 1.383 . S
C1914 C1913 1.379 . S
H1915 C1909 0.959 . S
H1916 C1909 0.961 . S
H1917 C1909 0.960 . S
H1918 C1910 0.930 . S
H1919 C1911 0.929 . S
H1920 C1928 0.929 . S
H1921 C1930 0.930 . S
H1922 C1932 0.930 . S
H1923 C1935 0.929 . S
H1924 C1938 0.930 . S
H1925 C1940 0.960 . S
H1926 C1940 0.960 . S
H1927 C1940 0.960 . S
C1928 H1920 0.929 . S
C1928 C1929 1.377 . S
C1928 C1930 1.384 . S
C1929 C1928 1.377 . S
C1929 C1935 1.390 . S
C1930 H1921 0.930 . S
C1930 C1928 1.384 . S
C1930 C1931 1.372 . S
C1931 C1930 1.372 . S
C1931 C1932 1.400 . S
C1931 C1936 1.490 . S
C1932 H1922 0.930 . S
C1932 C1931 1.400 . S
C1932 C1935 1.386 . S
H1933 C1949 0.930 . S
H1934 C1950 0.931 . S
C1935 H1923 0.929 . S
C1935 C1929 1.390 . S
C1935 C1932 1.386 . S
C1936 C1931 1.490 . S
C1936 C1938 1.395 . S
C1936 C1939 1.403 . S
H1937 C1943 0.930 . S
C1938 H1924 0.930 . S
C1938 C1936 1.395 . S
C1938 C1941 1.403 . S
C1939 C1936 1.403 . S
C1939 C1940 1.524 . S
C1939 C1943 1.400 . S
C1940 H1925 0.960 . S
C1940 H1926 0.960 . S
C1940 H1927 0.960 . S
C1940 C1939 1.524 . S
C1941 C1938 1.403 . S
C1941 C1942 1.392 . S
C1941 C1945 1.495 . S
C1942 C1941 1.392 . S
C1942 C1943 1.385 . S
C1942 C1944 1.478 . S
C1943 H1937 0.930 . S
C1943 C1939 1.400 . S
C1943 C1942 1.385 . S
C1944 C1942 1.478 . S
C1944 C1946 1.381 . S
C1944 C1950 1.383 . S
C1945 C1941 1.495 . S
C1945 H1951 0.959 . S
C1945 H1952 0.961 . S
C1945 H1953 0.960 . S
C1946 C1944 1.381 . S
C1946 C1947 1.394 . S
C1946 H1954 0.930 . S
C1947 C1946 1.394 . S
C1947 C1948 1.383 . S
C1947 H1955 0.929 . S
C1948 C1947 1.383 . S
C1948 C1949 1.377 . S
C1949 H1933 0.930 . S
C1949 C1948 1.377 . S
C1949 C1950 1.379 . S
C1950 H1934 0.931 . S
C1950 C1944 1.383 . S
C1950 C1949 1.379 . S
H1951 C1945 0.959 . S
H1952 C1945 0.961 . S
H1953 C1945 0.960 . S
H1954 C1946 0.930 . S
H1955 C1947 0.929 . S
H1956 C1964 0.929 . S
H1957 C1966 0.930 . S
H1958 C1968 0.930 . S
H1959 C1971 0.929 . S
H1960 C1974 0.930 . S
H1961 C1976 0.960 . S
H1962 C1976 0.960 . S
H1963 C1976 0.960 . S
C1964 H1956 0.929 . S
C1964 C1965 1.377 . S
C1964 C1966 1.384 . S
C1965 C1964 1.377 . S
C1965 C1971 1.390 . S
C1966 H1957 0.930 . S
C1966 C1964 1.384 . S
C1966 C1967 1.372 . S
C1967 C1966 1.372 . S
C1967 C1968 1.400 . S
C1967 C1972 1.490 . S
C1968 H1958 0.930 . S
C1968 C1967 1.400 . S
C1968 C1971 1.386 . S
H1969 C1985 0.930 . S
H1970 C1986 0.931 . S
C1971 H1959 0.929 . S
C1971 C1965 1.390 . S
C1971 C1968 1.386 . S
C1972 C1967 1.490 . S
C1972 C1974 1.395 . S
C1972 C1975 1.403 . S
H1973 C1979 0.930 . S
C1974 H1960 0.930 . S
C1974 C1972 1.395 . S
C1974 C1977 1.403 . S
C1975 C1972 1.403 . S
C1975 C1976 1.524 . S
C1975 C1979 1.400 . S
C1976 H1961 0.960 . S
C1976 H1962 0.960 . S
C1976 H1963 0.960 . S
C1976 C1975 1.524 . S
C1977 C1974 1.403 . S
C1977 C1978 1.392 . S
C1977 C1981 1.495 . S
C1978 C1977 1.392 . S
C1978 C1979 1.385 . S
C1978 C1980 1.478 . S
C1979 H1973 0.930 . S
C1979 C1975 1.400 . S
C1979 C1978 1.385 . S
C1980 C1978 1.478 . S
C1980 C1982 1.381 . S
C1980 C1986 1.383 . S
C1981 C1977 1.495 . S
C1981 H1987 0.959 . S
C1981 H1988 0.961 . S
C1981 H1989 0.960 . S
C1982 C1980 1.381 . S
C1982 C1983 1.394 . S
C1982 H1990 0.930 . S
C1983 C1982 1.394 . S
C1983 C1984 1.383 . S
C1983 H1991 0.929 . S
C1984 C1983 1.383 . S
C1984 C1985 1.377 . S
C1985 H1969 0.930 . S
C1985 C1984 1.377 . S
C1985 C1986 1.379 . S
C1986 H1970 0.931 . S
C1986 C1980 1.383 . S
C1986 C1985 1.379 . S
H1987 C1981 0.959 . S
H1988 C1981 0.961 . S
H1989 C1981 0.960 . S
H1990 C1982 0.930 . S
H1991 C1983 0.929 . S
H1992 C2000 0.929 . S
H1993 C2002 0.930 . S
H1994 C2004 0.930 . S
H1995 C2007 0.929 . S
H1996 C2010 0.930 . S
H1997 C2012 0.960 . S
H1998 C2012 0.960 . S
H1999 C2012 0.960 . S
C2000 H1992 0.929 . S
C2000 C2001 1.377 . S
C2000 C2002 1.384 . S
C2001 C2000 1.377 . S
C2001 C2007 1.390 . S
C2002 H1993 0.930 . S
C2002 C2000 1.384 . S
C2002 C2003 1.372 . S
C2003 C2002 1.372 . S
C2003 C2004 1.400 . S
C2003 C2008 1.490 . S
C2004 H1994 0.930 . S
C2004 C2003 1.400 . S
C2004 C2007 1.386 . S
H2005 C2021 0.930 . S
H2006 C2022 0.931 . S
C2007 H1995 0.929 . S
C2007 C2001 1.390 . S
C2007 C2004 1.386 . S
C2008 C2003 1.490 . S
C2008 C2010 1.395 . S
C2008 C2011 1.403 . S
H2009 C2015 0.930 . S
C2010 H1996 0.930 . S
C2010 C2008 1.395 . S
C2010 C2013 1.403 . S
C2011 C2008 1.403 . S
C2011 C2012 1.524 . S
C2011 C2015 1.400 . S
C2012 H1997 0.960 . S
C2012 H1998 0.960 . S
C2012 H1999 0.960 . S
C2012 C2011 1.524 . S
C2013 C2010 1.403 . S
C2013 C2014 1.392 . S
C2013 C2017 1.495 . S
C2014 C2013 1.392 . S
C2014 C2015 1.385 . S
C2014 C2016 1.478 . S
C2015 H2009 0.930 . S
C2015 C2011 1.400 . S
C2015 C2014 1.385 . S
C2016 C2014 1.478 . S
C2016 C2018 1.381 . S
C2016 C2022 1.383 . S
C2017 C2013 1.495 . S
C2017 H2023 0.959 . S
C2017 H2024 0.961 . S
C2017 H2025 0.960 . S
C2018 C2016 1.381 . S
C2018 C2019 1.394 . S
C2018 H2026 0.930 . S
C2019 C2018 1.394 . S
C2019 C2020 1.383 . S
C2019 H2027 0.929 . S
C2020 C2019 1.383 . S
C2020 C2021 1.377 . S
C2021 H2005 0.930 . S
C2021 C2020 1.377 . S
C2021 C2022 1.379 . S
C2022 H2006 0.931 . S
C2022 C2016 1.383 . S
C2022 C2021 1.379 . S
H2023 C2017 0.959 . S
H2024 C2017 0.961 . S
H2025 C2017 0.960 . S
H2026 C2018 0.930 . S
H2027 C2019 0.929 . S
H2028 C2036 0.929 . S
H2029 C2038 0.930 . S
H2030 C2040 0.930 . S
H2031 C2043 0.929 . S
H2032 C2046 0.930 . S
H2033 C2048 0.960 . S
H2034 C2048 0.960 . S
H2035 C2048 0.960 . S
C2036 H2028 0.929 . S
C2036 C2037 1.377 . S
C2036 C2038 1.384 . S
C2037 C2036 1.377 . S
C2037 C2043 1.390 . S
C2038 H2029 0.930 . S
C2038 C2036 1.384 . S
C2038 C2039 1.372 . S
C2039 C2038 1.372 . S
C2039 C2040 1.400 . S
C2039 C2044 1.490 . S
C2040 H2030 0.930 . S
C2040 C2039 1.400 . S
C2040 C2043 1.386 . S
H2041 C2057 0.930 . S
H2042 C2058 0.931 . S
C2043 H2031 0.929 . S
C2043 C2037 1.390 . S
C2043 C2040 1.386 . S
C2044 C2039 1.490 . S
C2044 C2046 1.395 . S
C2044 C2047 1.403 . S
H2045 C2051 0.930 . S
C2046 H2032 0.930 . S
C2046 C2044 1.395 . S
C2046 C2049 1.403 . S
C2047 C2044 1.403 . S
C2047 C2048 1.524 . S
C2047 C2051 1.400 . S
C2048 H2033 0.960 . S
C2048 H2034 0.960 . S
C2048 H2035 0.960 . S
C2048 C2047 1.524 . S
C2049 C2046 1.403 . S
C2049 C2050 1.392 . S
C2049 C2053 1.495 . S
C2050 C2049 1.392 . S
C2050 C2051 1.385 . S
C2050 C2052 1.478 . S
C2051 H2045 0.930 . S
C2051 C2047 1.400 . S
C2051 C2050 1.385 . S
C2052 C2050 1.478 . S
C2052 C2054 1.381 . S
C2052 C2058 1.383 . S
C2053 C2049 1.495 . S
C2053 H2059 0.959 . S
C2053 H2060 0.961 . S
C2053 H2061 0.960 . S
C2054 C2052 1.381 . S
C2054 C2055 1.394 . S
C2054 H2062 0.930 . S
C2055 C2054 1.394 . S
C2055 C2056 1.383 . S
C2055 H2063 0.929 . S
C2056 C2055 1.383 . S
C2056 C2057 1.377 . S
C2057 H2041 0.930 . S
C2057 C2056 1.377 . S
C2057 C2058 1.379 . S
C2058 H2042 0.931 . S
C2058 C2052 1.383 . S
C2058 C2057 1.379 . S
H2059 C2053 0.959 . S
H2060 C2053 0.961 . S
H2061 C2053 0.960 . S
H2062 C2054 0.930 . S
H2063 C2055 0.929 . S
H2064 C2072 0.929 . S
H2065 C2074 0.930 . S
H2066 C2076 0.930 . S
H2067 C2079 0.929 . S
H2068 C2082 0.930 . S
H2069 C2084 0.960 . S
H2070 C2084 0.960 . S
H2071 C2084 0.960 . S
C2072 H2064 0.929 . S
C2072 C2073 1.377 . S
C2072 C2074 1.384 . S
C2073 C2072 1.377 . S
C2073 C2079 1.390 . S
C2074 H2065 0.930 . S
C2074 C2072 1.384 . S
C2074 C2075 1.372 . S
C2075 C2074 1.372 . S
C2075 C2076 1.400 . S
C2075 C2080 1.490 . S
C2076 H2066 0.930 . S
C2076 C2075 1.400 . S
C2076 C2079 1.386 . S
H2077 C2093 0.930 . S
H2078 C2094 0.931 . S
C2079 H2067 0.929 . S
C2079 C2073 1.390 . S
C2079 C2076 1.386 . S
C2080 C2075 1.490 . S
C2080 C2082 1.395 . S
C2080 C2083 1.403 . S
H2081 C2087 0.930 . S
C2082 H2068 0.930 . S
C2082 C2080 1.395 . S
C2082 C2085 1.403 . S
C2083 C2080 1.403 . S
C2083 C2084 1.524 . S
C2083 C2087 1.400 . S
C2084 H2069 0.960 . S
C2084 H2070 0.960 . S
C2084 H2071 0.960 . S
C2084 C2083 1.524 . S
C2085 C2082 1.403 . S
C2085 C2086 1.392 . S
C2085 C2089 1.495 . S
C2086 C2085 1.392 . S
C2086 C2087 1.385 . S
C2086 C2088 1.478 . S
C2087 H2081 0.930 . S
C2087 C2083 1.400 . S
C2087 C2086 1.385 . S
C2088 C2086 1.478 . S
C2088 C2090 1.381 . S
C2088 C2094 1.383 . S
C2089 C2085 1.495 . S
C2089 H2095 0.959 . S
C2089 H2096 0.961 . S
C2089 H2097 0.960 . S
C2090 C2088 1.381 . S
C2090 C2091 1.394 . S
C2090 H2098 0.930 . S
C2091 C2090 1.394 . S
C2091 C2092 1.383 . S
C2091 H2099 0.929 . S
C2092 C2091 1.383 . S
C2092 C2093 1.377 . S
C2093 H2077 0.930 . S
C2093 C2092 1.377 . S
C2093 C2094 1.379 . S
C2094 H2078 0.931 . S
C2094 C2088 1.383 . S
C2094 C2093 1.379 . S
H2095 C2089 0.959 . S
H2096 C2089 0.961 . S
H2097 C2089 0.960 . S
H2098 C2090 0.930 . S
H2099 C2091 0.929 . S
H2100 C2108 0.929 . S
H2101 C2110 0.930 . S
H2102 C2112 0.930 . S
H2103 C2115 0.929 . S
H2104 C2118 0.930 . S
H2105 C2120 0.960 . S
H2106 C2120 0.960 . S
H2107 C2120 0.960 . S
C2108 H2100 0.929 . S
C2108 C2109 1.377 . S
C2108 C2110 1.384 . S
C2109 C2108 1.377 . S
C2109 C2115 1.390 . S
C2110 H2101 0.930 . S
C2110 C2108 1.384 . S
C2110 C2111 1.372 . S
C2111 C2110 1.372 . S
C2111 C2112 1.400 . S
C2111 C2116 1.490 . S
C2112 H2102 0.930 . S
C2112 C2111 1.400 . S
C2112 C2115 1.386 . S
H2113 C2129 0.930 . S
H2114 C2130 0.931 . S
C2115 H2103 0.929 . S
C2115 C2109 1.390 . S
C2115 C2112 1.386 . S
C2116 C2111 1.490 . S
C2116 C2118 1.395 . S
C2116 C2119 1.403 . S
H2117 C2123 0.930 . S
C2118 H2104 0.930 . S
C2118 C2116 1.395 . S
C2118 C2121 1.403 . S
C2119 C2116 1.403 . S
C2119 C2120 1.524 . S
C2119 C2123 1.400 . S
C2120 H2105 0.960 . S
C2120 H2106 0.960 . S
C2120 H2107 0.960 . S
C2120 C2119 1.524 . S
C2121 C2118 1.403 . S
C2121 C2122 1.392 . S
C2121 C2125 1.495 . S
C2122 C2121 1.392 . S
C2122 C2123 1.385 . S
C2122 C2124 1.478 . S
C2123 H2117 0.930 . S
C2123 C2119 1.400 . S
C2123 C2122 1.385 . S
C2124 C2122 1.478 . S
C2124 C2126 1.381 . S
C2124 C2130 1.383 . S
C2125 C2121 1.495 . S
C2125 H2131 0.959 . S
C2125 H2132 0.961 . S
C2125 H2133 0.960 . S
C2126 C2124 1.381 . S
C2126 C2127 1.394 . S
C2126 H2134 0.930 . S
C2127 C2126 1.394 . S
C2127 C2128 1.383 . S
C2127 H2135 0.929 . S
C2128 C2127 1.383 . S
C2128 C2129 1.377 . S
C2129 H2113 0.930 . S
C2129 C2128 1.377 . S
C2129 C2130 1.379 . S
C2130 H2114 0.931 . S
C2130 C2124 1.383 . S
C2130 C2129 1.379 . S
H2131 C2125 0.959 . S
H2132 C2125 0.961 . S
H2133 C2125 0.960 . S
H2134 C2126 0.930 . S
H2135 C2127 0.929 . S
H2136 C2144 0.929 . S
H2137 C2146 0.930 . S
H2138 C2148 0.930 . S
H2139 C2151 0.929 . S
H2140 C2154 0.930 . S
H2141 C2156 0.960 . S
H2142 C2156 0.960 . S
H2143 C2156 0.960 . S
C2144 H2136 0.929 . S
C2144 C2145 1.377 . S
C2144 C2146 1.384 . S
C2145 C2144 1.377 . S
C2145 C2151 1.390 . S
C2146 H2137 0.930 . S
C2146 C2144 1.384 . S
C2146 C2147 1.372 . S
C2147 C2146 1.372 . S
C2147 C2148 1.400 . S
C2147 C2152 1.490 . S
C2148 H2138 0.930 . S
C2148 C2147 1.400 . S
C2148 C2151 1.386 . S
H2149 C2165 0.930 . S
H2150 C2166 0.931 . S
C2151 H2139 0.929 . S
C2151 C2145 1.390 . S
C2151 C2148 1.386 . S
C2152 C2147 1.490 . S
C2152 C2154 1.395 . S
C2152 C2155 1.403 . S
H2153 C2159 0.930 . S
C2154 H2140 0.930 . S
C2154 C2152 1.395 . S
C2154 C2157 1.403 . S
C2155 C2152 1.403 . S
C2155 C2156 1.524 . S
C2155 C2159 1.400 . S
C2156 H2141 0.960 . S
C2156 H2142 0.960 . S
C2156 H2143 0.960 . S
C2156 C2155 1.524 . S
C2157 C2154 1.403 . S
C2157 C2158 1.392 . S
C2157 C2161 1.495 . S
C2158 C2157 1.392 . S
C2158 C2159 1.385 . S
C2158 C2160 1.478 . S
C2159 H2153 0.930 . S
C2159 C2155 1.400 . S
C2159 C2158 1.385 . S
C2160 C2158 1.478 . S
C2160 C2162 1.381 . S
C2160 C2166 1.383 . S
C2161 C2157 1.495 . S
C2161 H2167 0.959 . S
C2161 H2168 0.961 . S
C2161 H2169 0.960 . S
C2162 C2160 1.381 . S
C2162 C2163 1.394 . S
C2162 H2170 0.930 . S
C2163 C2162 1.394 . S
C2163 C2164 1.383 . S
C2163 H2171 0.929 . S
C2164 C2163 1.383 . S
C2164 C2165 1.377 . S
C2165 H2149 0.930 . S
C2165 C2164 1.377 . S
C2165 C2166 1.379 . S
C2166 H2150 0.931 . S
C2166 C2160 1.383 . S
C2166 C2165 1.379 . S
H2167 C2161 0.959 . S
H2168 C2161 0.961 . S
H2169 C2161 0.960 . S
H2170 C2162 0.930 . S
H2171 C2163 0.929 . S
H2172 C2180 0.929 . S
H2173 C2182 0.930 . S
H2174 C2184 0.930 . S
H2175 C2187 0.929 . S
H2176 C2190 0.930 . S
H2177 C2192 0.960 . S
H2178 C2192 0.960 . S
H2179 C2192 0.960 . S
C2180 H2172 0.929 . S
C2180 C2181 1.377 . S
C2180 C2182 1.384 . S
C2181 C2180 1.377 . S
C2181 C2187 1.390 . S
C2182 H2173 0.930 . S
C2182 C2180 1.384 . S
C2182 C2183 1.372 . S
C2183 C2182 1.372 . S
C2183 C2184 1.400 . S
C2183 C2188 1.490 . S
C2184 H2174 0.930 . S
C2184 C2183 1.400 . S
C2184 C2187 1.386 . S
H2185 C2201 0.930 . S
H2186 C2202 0.931 . S
C2187 H2175 0.929 . S
C2187 C2181 1.390 . S
C2187 C2184 1.386 . S
C2188 C2183 1.490 . S
C2188 C2190 1.395 . S
C2188 C2191 1.403 . S
H2189 C2195 0.930 . S
C2190 H2176 0.930 . S
C2190 C2188 1.395 . S
C2190 C2193 1.403 . S
C2191 C2188 1.403 . S
C2191 C2192 1.524 . S
C2191 C2195 1.400 . S
C2192 H2177 0.960 . S
C2192 H2178 0.960 . S
C2192 H2179 0.960 . S
C2192 C2191 1.524 . S
C2193 C2190 1.403 . S
C2193 C2194 1.392 . S
C2193 C2197 1.495 . S
C2194 C2193 1.392 . S
C2194 C2195 1.385 . S
C2194 C2196 1.478 . S
C2195 H2189 0.930 . S
C2195 C2191 1.400 . S
C2195 C2194 1.385 . S
C2196 C2194 1.478 . S
C2196 C2198 1.381 . S
C2196 C2202 1.383 . S
C2197 C2193 1.495 . S
C2197 H2203 0.959 . S
C2197 H2204 0.961 . S
C2197 H2205 0.960 . S
C2198 C2196 1.381 . S
C2198 C2199 1.394 . S
C2198 H2206 0.930 . S
C2199 C2198 1.394 . S
C2199 C2200 1.383 . S
C2199 H2207 0.929 . S
C2200 C2199 1.383 . S
C2200 C2201 1.377 . S
C2201 H2185 0.930 . S
C2201 C2200 1.377 . S
C2201 C2202 1.379 . S
C2202 H2186 0.931 . S
C2202 C2196 1.383 . S
C2202 C2201 1.379 . S
H2203 C2197 0.959 . S
H2204 C2197 0.961 . S
H2205 C2197 0.960 . S
H2206 C2198 0.930 . S
H2207 C2199 0.929 . S
H2208 C2216 0.929 . S
H2209 C2218 0.930 . S
H2210 C2220 0.930 . S
H2211 C2223 0.929 . S
H2212 C2226 0.930 . S
H2213 C2228 0.960 . S
H2214 C2228 0.960 . S
H2215 C2228 0.960 . S
C2216 H2208 0.929 . S
C2216 C2217 1.377 . S
C2216 C2218 1.384 . S
C2217 C2216 1.377 . S
C2217 C2223 1.390 . S
C2218 H2209 0.930 . S
C2218 C2216 1.384 . S
C2218 C2219 1.372 . S
C2219 C2218 1.372 . S
C2219 C2220 1.400 . S
C2219 C2224 1.490 . S
C2220 H2210 0.930 . S
C2220 C2219 1.400 . S
C2220 C2223 1.386 . S
H2221 C2237 0.930 . S
H2222 C2238 0.931 . S
C2223 H2211 0.929 . S
C2223 C2217 1.390 . S
C2223 C2220 1.386 . S
C2224 C2219 1.490 . S
C2224 C2226 1.395 . S
C2224 C2227 1.403 . S
H2225 C2231 0.930 . S
C2226 H2212 0.930 . S
C2226 C2224 1.395 . S
C2226 C2229 1.403 . S
C2227 C2224 1.403 . S
C2227 C2228 1.524 . S
C2227 C2231 1.400 . S
C2228 H2213 0.960 . S
C2228 H2214 0.960 . S
C2228 H2215 0.960 . S
C2228 C2227 1.524 . S
C2229 C2226 1.403 . S
C2229 C2230 1.392 . S
C2229 C2233 1.495 . S
C2230 C2229 1.392 . S
C2230 C2231 1.385 . S
C2230 C2232 1.478 . S
C2231 H2225 0.930 . S
C2231 C2227 1.400 . S
C2231 C2230 1.385 . S
C2232 C2230 1.478 . S
C2232 C2234 1.381 . S
C2232 C2238 1.383 . S
C2233 C2229 1.495 . S
C2233 H2239 0.959 . S
C2233 H2240 0.961 . S
C2233 H2241 0.960 . S
C2234 C2232 1.381 . S
C2234 C2235 1.394 . S
C2234 H2242 0.930 . S
C2235 C2234 1.394 . S
C2235 C2236 1.383 . S
C2235 H2243 0.929 . S
C2236 C2235 1.383 . S
C2236 C2237 1.377 . S
C2237 H2221 0.930 . S
C2237 C2236 1.377 . S
C2237 C2238 1.379 . S
C2238 H2222 0.931 . S
C2238 C2232 1.383 . S
C2238 C2237 1.379 . S
H2239 C2233 0.959 . S
H2240 C2233 0.961 . S
H2241 C2233 0.960 . S
H2242 C2234 0.930 . S
H2243 C2235 0.929 . S
H2244 C2252 0.929 . S
H2245 C2254 0.930 . S
H2246 C2256 0.930 . S
H2247 C2259 0.929 . S
H2248 C2262 0.930 . S
H2249 C2264 0.960 . S
H2250 C2264 0.960 . S
H2251 C2264 0.960 . S
C2252 H2244 0.929 . S
C2252 C2253 1.377 . S
C2252 C2254 1.384 . S
C2253 C2252 1.377 . S
C2253 C2259 1.390 . S
C2254 H2245 0.930 . S
C2254 C2252 1.384 . S
C2254 C2255 1.372 . S
C2255 C2254 1.372 . S
C2255 C2256 1.400 . S
C2255 C2260 1.490 . S
C2256 H2246 0.930 . S
C2256 C2255 1.400 . S
C2256 C2259 1.386 . S
H2257 C2273 0.930 . S
H2258 C2274 0.931 . S
C2259 H2247 0.929 . S
C2259 C2253 1.390 . S
C2259 C2256 1.386 . S
C2260 C2255 1.490 . S
C2260 C2262 1.395 . S
C2260 C2263 1.403 . S
H2261 C2267 0.930 . S
C2262 H2248 0.930 . S
C2262 C2260 1.395 . S
C2262 C2265 1.403 . S
C2263 C2260 1.403 . S
C2263 C2264 1.524 . S
C2263 C2267 1.400 . S
C2264 H2249 0.960 . S
C2264 H2250 0.960 . S
C2264 H2251 0.960 . S
C2264 C2263 1.524 . S
C2265 C2262 1.403 . S
C2265 C2266 1.392 . S
C2265 C2269 1.495 . S
C2266 C2265 1.392 . S
C2266 C2267 1.385 . S
C2266 C2268 1.478 . S
C2267 H2261 0.930 . S
C2267 C2263 1.400 . S
C2267 C2266 1.385 . S
C2268 C2266 1.478 . S
C2268 C2270 1.381 . S
C2268 C2274 1.383 . S
C2269 C2265 1.495 . S
C2269 H2275 0.959 . S
C2269 H2276 0.961 . S
C2269 H2277 0.960 . S
C2270 C2268 1.381 . S
C2270 C2271 1.394 . S
C2270 H2278 0.930 . S
C2271 C2270 1.394 . S
C2271 C2272 1.383 . S
C2271 H2279 0.929 . S
C2272 C2271 1.383 . S
C2272 C2273 1.377 . S
C2273 H2257 0.930 . S
C2273 C2272 1.377 . S
C2273 C2274 1.379 . S
C2274 H2258 0.931 . S
C2274 C2268 1.383 . S
C2274 C2273 1.379 . S
H2275 C2269 0.959 . S
H2276 C2269 0.961 . S
H2277 C2269 0.960 . S
H2278 C2270 0.930 . S
H2279 C2271 0.929 . S
H2280 C2288 0.929 . S
H2281 C2290 0.930 . S
H2282 C2292 0.930 . S
H2283 C2295 0.929 . S
H2284 C2298 0.930 . S
H2285 C2300 0.960 . S
H2286 C2300 0.960 . S
H2287 C2300 0.960 . S
C2288 H2280 0.929 . S
C2288 C2289 1.377 . S
C2288 C2290 1.384 . S
C2289 C2288 1.377 . S
C2289 C2295 1.390 . S
C2290 H2281 0.930 . S
C2290 C2288 1.384 . S
C2290 C2291 1.372 . S
C2291 C2290 1.372 . S
C2291 C2292 1.400 . S
C2291 C2296 1.490 . S
C2292 H2282 0.930 . S
C2292 C2291 1.400 . S
C2292 C2295 1.386 . S
H2293 C2309 0.930 . S
H2294 C2310 0.931 . S
C2295 H2283 0.929 . S
C2295 C2289 1.390 . S
C2295 C2292 1.386 . S
C2296 C2291 1.490 . S
C2296 C2298 1.395 . S
C2296 C2299 1.403 . S
H2297 C2303 0.930 . S
C2298 H2284 0.930 . S
C2298 C2296 1.395 . S
C2298 C2301 1.403 . S
C2299 C2296 1.403 . S
C2299 C2300 1.524 . S
C2299 C2303 1.400 . S
C2300 H2285 0.960 . S
C2300 H2286 0.960 . S
C2300 H2287 0.960 . S
C2300 C2299 1.524 . S
C2301 C2298 1.403 . S
C2301 C2302 1.392 . S
C2301 C2305 1.495 . S
C2302 C2301 1.392 . S
C2302 C2303 1.385 . S
C2302 C2304 1.478 . S
C2303 H2297 0.930 . S
C2303 C2299 1.400 . S
C2303 C2302 1.385 . S
C2304 C2302 1.478 . S
C2304 C2306 1.381 . S
C2304 C2310 1.383 . S
C2305 C2301 1.495 . S
C2305 H2311 0.959 . S
C2305 H2312 0.961 . S
C2305 H2313 0.960 . S
C2306 C2304 1.381 . S
C2306 C2307 1.394 . S
C2306 H2314 0.930 . S
C2307 C2306 1.394 . S
C2307 C2308 1.383 . S
C2307 H2315 0.929 . S
C2308 C2307 1.383 . S
C2308 C2309 1.377 . S
C2309 H2293 0.930 . S
C2309 C2308 1.377 . S
C2309 C2310 1.379 . S
C2310 H2294 0.931 . S
C2310 C2304 1.383 . S
C2310 C2309 1.379 . S
H2311 C2305 0.959 . S
H2312 C2305 0.961 . S
H2313 C2305 0.960 . S
H2314 C2306 0.930 . S
H2315 C2307 0.929 . S
H2316 C2324 0.929 . S
H2317 C2326 0.930 . S
H2318 C2328 0.930 . S
H2319 C2331 0.929 . S
H2320 C2334 0.930 . S
H2321 C2336 0.960 . S
H2322 C2336 0.960 . S
H2323 C2336 0.960 . S
C2324 H2316 0.929 . S
C2324 C2325 1.377 . S
C2324 C2326 1.384 . S
C2325 C2324 1.377 . S
C2325 C2331 1.390 . S
C2326 H2317 0.930 . S
C2326 C2324 1.384 . S
C2326 C2327 1.372 . S
C2327 C2326 1.372 . S
C2327 C2328 1.400 . S
C2327 C2332 1.490 . S
C2328 H2318 0.930 . S
C2328 C2327 1.400 . S
C2328 C2331 1.386 . S
H2329 C2345 0.930 . S
H2330 C2346 0.931 . S
C2331 H2319 0.929 . S
C2331 C2325 1.390 . S
C2331 C2328 1.386 . S
C2332 C2327 1.490 . S
C2332 C2334 1.395 . S
C2332 C2335 1.403 . S
H2333 C2339 0.930 . S
C2334 H2320 0.930 . S
C2334 C2332 1.395 . S
C2334 C2337 1.403 . S
C2335 C2332 1.403 . S
C2335 C2336 1.524 . S
C2335 C2339 1.400 . S
C2336 H2321 0.960 . S
C2336 H2322 0.960 . S
C2336 H2323 0.960 . S
C2336 C2335 1.524 . S
C2337 C2334 1.403 . S
C2337 C2338 1.392 . S
C2337 C2341 1.495 . S
C2338 C2337 1.392 . S
C2338 C2339 1.385 . S
C2338 C2340 1.478 . S
C2339 H2333 0.930 . S
C2339 C2335 1.400 . S
C2339 C2338 1.385 . S
C2340 C2338 1.478 . S
C2340 C2342 1.381 . S
C2340 C2346 1.383 . S
C2341 C2337 1.495 . S
C2341 H2347 0.959 . S
C2341 H2348 0.961 . S
C2341 H2349 0.960 . S
C2342 C2340 1.381 . S
C2342 C2343 1.394 . S
C2342 H2350 0.930 . S
C2343 C2342 1.394 . S
C2343 C2344 1.383 . S
C2343 H2351 0.929 . S
C2344 C2343 1.383 . S
C2344 C2345 1.377 . S
C2345 H2329 0.930 . S
C2345 C2344 1.377 . S
C2345 C2346 1.379 . S
C2346 H2330 0.931 . S
C2346 C2340 1.383 . S
C2346 C2345 1.379 . S
H2347 C2341 0.959 . S
H2348 C2341 0.961 . S
H2349 C2341 0.960 . S
H2350 C2342 0.930 . S
H2351 C2343 0.929 . S
H2352 C2360 0.929 . S
H2353 C2362 0.930 . S
H2354 C2364 0.930 . S
H2355 C2367 0.929 . S
H2356 C2370 0.930 . S
H2357 C2372 0.960 . S
H2358 C2372 0.960 . S
H2359 C2372 0.960 . S
C2360 H2352 0.929 . S
C2360 C2361 1.377 . S
C2360 C2362 1.384 . S
C2361 C2360 1.377 . S
C2361 C2367 1.390 . S
C2362 H2353 0.930 . S
C2362 C2360 1.384 . S
C2362 C2363 1.372 . S
C2363 C2362 1.372 . S
C2363 C2364 1.400 . S
C2363 C2368 1.490 . S
C2364 H2354 0.930 . S
C2364 C2363 1.400 . S
C2364 C2367 1.386 . S
H2365 C2381 0.930 . S
H2366 C2382 0.931 . S
C2367 H2355 0.929 . S
C2367 C2361 1.390 . S
C2367 C2364 1.386 . S
C2368 C2363 1.490 . S
C2368 C2370 1.395 . S
C2368 C2371 1.403 . S
H2369 C2375 0.930 . S
C2370 H2356 0.930 . S
C2370 C2368 1.395 . S
C2370 C2373 1.403 . S
C2371 C2368 1.403 . S
C2371 C2372 1.524 . S
C2371 C2375 1.400 . S
C2372 H2357 0.960 . S
C2372 H2358 0.960 . S
C2372 H2359 0.960 . S
C2372 C2371 1.524 . S
C2373 C2370 1.403 . S
C2373 C2374 1.392 . S
C2373 C2377 1.495 . S
C2374 C2373 1.392 . S
C2374 C2375 1.385 . S
C2374 C2376 1.478 . S
C2375 H2369 0.930 . S
C2375 C2371 1.400 . S
C2375 C2374 1.385 . S
C2376 C2374 1.478 . S
C2376 C2378 1.381 . S
C2376 C2382 1.383 . S
C2377 C2373 1.495 . S
C2377 H2383 0.959 . S
C2377 H2384 0.961 . S
C2377 H2385 0.960 . S
C2378 C2376 1.381 . S
C2378 C2379 1.394 . S
C2378 H2386 0.930 . S
C2379 C2378 1.394 . S
C2379 C2380 1.383 . S
C2379 H2387 0.929 . S
C2380 C2379 1.383 . S
C2380 C2381 1.377 . S
C2381 H2365 0.930 . S
C2381 C2380 1.377 . S
C2381 C2382 1.379 . S
C2382 H2366 0.931 . S
C2382 C2376 1.383 . S
C2382 C2381 1.379 . S
H2383 C2377 0.959 . S
H2384 C2377 0.961 . S
H2385 C2377 0.960 . S
H2386 C2378 0.930 . S
H2387 C2379 0.929 . S
H2388 C2396 0.929 . S
H2389 C2398 0.930 . S
H2390 C2400 0.930 . S
H2391 C2403 0.929 . S
H2392 C2406 0.930 . S
H2393 C2408 0.960 . S
H2394 C2408 0.960 . S
H2395 C2408 0.960 . S
C2396 H2388 0.929 . S
C2396 C2397 1.377 . S
C2396 C2398 1.384 . S
C2397 C2396 1.377 . S
C2397 C2403 1.390 . S
C2398 H2389 0.930 . S
C2398 C2396 1.384 . S
C2398 C2399 1.372 . S
C2399 C2398 1.372 . S
C2399 C2400 1.400 . S
C2399 C2404 1.490 . S
C2400 H2390 0.930 . S
C2400 C2399 1.400 . S
C2400 C2403 1.386 . S
H2401 C2417 0.930 . S
H2402 C2418 0.931 . S
C2403 H2391 0.929 . S
C2403 C2397 1.390 . S
C2403 C2400 1.386 . S
C2404 C2399 1.490 . S
C2404 C2406 1.395 . S
C2404 C2407 1.403 . S
H2405 C2411 0.930 . S
C2406 H2392 0.930 . S
C2406 C2404 1.395 . S
C2406 C2409 1.403 . S
C2407 C2404 1.403 . S
C2407 C2408 1.524 . S
C2407 C2411 1.400 . S
C2408 H2393 0.960 . S
C2408 H2394 0.960 . S
C2408 H2395 0.960 . S
C2408 C2407 1.524 . S
C2409 C2406 1.403 . S
C2409 C2410 1.392 . S
C2409 C2413 1.495 . S
C2410 C2409 1.392 . S
C2410 C2411 1.385 . S
C2410 C2412 1.478 . S
C2411 H2405 0.930 . S
C2411 C2407 1.400 . S
C2411 C2410 1.385 . S
C2412 C2410 1.478 . S
C2412 C2414 1.381 . S
C2412 C2418 1.383 . S
C2413 C2409 1.495 . S
C2413 H2419 0.959 . S
C2413 H2420 0.961 . S
C2413 H2421 0.960 . S
C2414 C2412 1.381 . S
C2414 C2415 1.394 . S
C2414 H2422 0.930 . S
C2415 C2414 1.394 . S
C2415 C2416 1.383 . S
C2415 H2423 0.929 . S
C2416 C2415 1.383 . S
C2416 C2417 1.377 . S
C2417 H2401 0.930 . S
C2417 C2416 1.377 . S
C2417 C2418 1.379 . S
C2418 H2402 0.931 . S
C2418 C2412 1.383 . S
C2418 C2417 1.379 . S
H2419 C2413 0.959 . S
H2420 C2413 0.961 . S
H2421 C2413 0.960 . S
H2422 C2414 0.930 . S
H2423 C2415 0.929 . S
H2424 C2432 0.929 . S
H2425 C2434 0.930 . S
H2426 C2436 0.930 . S
H2427 C2439 0.929 . S
H2428 C2442 0.930 . S
H2429 C2444 0.960 . S
H2430 C2444 0.960 . S
H2431 C2444 0.960 . S
C2432 H2424 0.929 . S
C2432 C2433 1.377 . S
C2432 C2434 1.384 . S
C2433 C2432 1.377 . S
C2433 C2439 1.390 . S
C2434 H2425 0.930 . S
C2434 C2432 1.384 . S
C2434 C2435 1.372 . S
C2435 C2434 1.372 . S
C2435 C2436 1.400 . S
C2435 C2440 1.490 . S
C2436 H2426 0.930 . S
C2436 C2435 1.400 . S
C2436 C2439 1.386 . S
H2437 C2453 0.930 . S
H2438 C2454 0.931 . S
C2439 H2427 0.929 . S
C2439 C2433 1.390 . S
C2439 C2436 1.386 . S
C2440 C2435 1.490 . S
C2440 C2442 1.395 . S
C2440 C2443 1.403 . S
H2441 C2447 0.930 . S
C2442 H2428 0.930 . S
C2442 C2440 1.395 . S
C2442 C2445 1.403 . S
C2443 C2440 1.403 . S
C2443 C2444 1.524 . S
C2443 C2447 1.400 . S
C2444 H2429 0.960 . S
C2444 H2430 0.960 . S
C2444 H2431 0.960 . S
C2444 C2443 1.524 . S
C2445 C2442 1.403 . S
C2445 C2446 1.392 . S
C2445 C2449 1.495 . S
C2446 C2445 1.392 . S
C2446 C2447 1.385 . S
C2446 C2448 1.478 . S
C2447 H2441 0.930 . S
C2447 C2443 1.400 . S
C2447 C2446 1.385 . S
C2448 C2446 1.478 . S
C2448 C2450 1.381 . S
C2448 C2454 1.383 . S
C2449 C2445 1.495 . S
C2449 H2455 0.959 . S
C2449 H2456 0.961 . S
C2449 H2457 0.960 . S
C2450 C2448 1.381 . S
C2450 C2451 1.394 . S
C2450 H2458 0.930 . S
C2451 C2450 1.394 . S
C2451 C2452 1.383 . S
C2451 H2459 0.929 . S
C2452 C2451 1.383 . S
C2452 C2453 1.377 . S
C2453 H2437 0.930 . S
C2453 C2452 1.377 . S
C2453 C2454 1.379 . S
C2454 H2438 0.931 . S
C2454 C2448 1.383 . S
C2454 C2453 1.379 . S
H2455 C2449 0.959 . S
H2456 C2449 0.961 . S
H2457 C2449 0.960 . S
H2458 C2450 0.930 . S
H2459 C2451 0.929 . S
H2460 C2468 0.929 . S
H2461 C2470 0.930 . S
H2462 C2472 0.930 . S
H2463 C2475 0.929 . S
H2464 C2478 0.930 . S
H2465 C2480 0.960 . S
H2466 C2480 0.960 . S
H2467 C2480 0.960 . S
C2468 H2460 0.929 . S
C2468 C2469 1.377 . S
C2468 C2470 1.384 . S
C2469 C2468 1.377 . S
C2469 C2475 1.390 . S
C2470 H2461 0.930 . S
C2470 C2468 1.384 . S
C2470 C2471 1.372 . S
C2471 C2470 1.372 . S
C2471 C2472 1.400 . S
C2471 C2476 1.490 . S
C2472 H2462 0.930 . S
C2472 C2471 1.400 . S
C2472 C2475 1.386 . S
H2473 C2489 0.930 . S
H2474 C2490 0.931 . S
C2475 H2463 0.929 . S
C2475 C2469 1.390 . S
C2475 C2472 1.386 . S
C2476 C2471 1.490 . S
C2476 C2478 1.395 . S
C2476 C2479 1.403 . S
H2477 C2483 0.930 . S
C2478 H2464 0.930 . S
C2478 C2476 1.395 . S
C2478 C2481 1.403 . S
C2479 C2476 1.403 . S
C2479 C2480 1.524 . S
C2479 C2483 1.400 . S
C2480 H2465 0.960 . S
C2480 H2466 0.960 . S
C2480 H2467 0.960 . S
C2480 C2479 1.524 . S
C2481 C2478 1.403 . S
C2481 C2482 1.392 . S
C2481 C2485 1.495 . S
C2482 C2481 1.392 . S
C2482 C2483 1.385 . S
C2482 C2484 1.478 . S
C2483 H2477 0.930 . S
C2483 C2479 1.400 . S
C2483 C2482 1.385 . S
C2484 C2482 1.478 . S
C2484 C2486 1.381 . S
C2484 C2490 1.383 . S
C2485 C2481 1.495 . S
C2485 H2491 0.959 . S
C2485 H2492 0.961 . S
C2485 H2493 0.960 . S
C2486 C2484 1.381 . S
C2486 C2487 1.394 . S
C2486 H2494 0.930 . S
C2487 C2486 1.394 . S
C2487 C2488 1.383 . S
C2487 H2495 0.929 . S
C2488 C2487 1.383 . S
C2488 C2489 1.377 . S
C2489 H2473 0.930 . S
C2489 C2488 1.377 . S
C2489 C2490 1.379 . S
C2490 H2474 0.931 . S
C2490 C2484 1.383 . S
C2490 C2489 1.379 . S
H2491 C2485 0.959 . S
H2492 C2485 0.961 . S
H2493 C2485 0.960 . S
H2494 C2486 0.930 . S
H2495 C2487 0.929 . S
H2496 C2504 0.929 . S
H2497 C2506 0.930 . S
H2498 C2508 0.930 . S
H2499 C2511 0.929 . S
H2500 C2514 0.930 . S
H2501 C2516 0.960 . S
H2502 C2516 0.960 . S
H2503 C2516 0.960 . S
C2504 H2496 0.929 . S
C2504 C2505 1.377 . S
C2504 C2506 1.384 . S
C2505 C2504 1.377 . S
C2505 C2511 1.390 . S
C2506 H2497 0.930 . S
C2506 C2504 1.384 . S
C2506 C2507 1.372 . S
C2507 C2506 1.372 . S
C2507 C2508 1.400 . S
C2507 C2512 1.490 . S
C2508 H2498 0.930 . S
C2508 C2507 1.400 . S
C2508 C2511 1.386 . S
H2509 C2525 0.930 . S
H2510 C2526 0.931 . S
C2511 H2499 0.929 . S
C2511 C2505 1.390 . S
C2511 C2508 1.386 . S
C2512 C2507 1.490 . S
C2512 C2514 1.395 . S
C2512 C2515 1.403 . S
H2513 C2519 0.930 . S
C2514 H2500 0.930 . S
C2514 C2512 1.395 . S
C2514 C2517 1.403 . S
C2515 C2512 1.403 . S
C2515 C2516 1.524 . S
C2515 C2519 1.400 . S
C2516 H2501 0.960 . S
C2516 H2502 0.960 . S
C2516 H2503 0.960 . S
C2516 C2515 1.524 . S
C2517 C2514 1.403 . S
C2517 C2518 1.392 . S
C2517 C2521 1.495 . S
C2518 C2517 1.392 . S
C2518 C2519 1.385 . S
C2518 C2520 1.478 . S
C2519 H2513 0.930 . S
C2519 C2515 1.400 . S
C2519 C2518 1.385 . S
C2520 C2518 1.478 . S
C2520 C2522 1.381 . S
C2520 C2526 1.383 . S
C2521 C2517 1.495 . S
C2521 H2527 0.959 . S
C2521 H2528 0.961 . S
C2521 H2529 0.960 . S
C2522 C2520 1.381 . S
C2522 C2523 1.394 . S
C2522 H2530 0.930 . S
C2523 C2522 1.394 . S
C2523 C2524 1.383 . S
C2523 H2531 0.929 . S
C2524 C2523 1.383 . S
C2524 C2525 1.377 . S
C2525 H2509 0.930 . S
C2525 C2524 1.377 . S
C2525 C2526 1.379 . S
C2526 H2510 0.931 . S
C2526 C2520 1.383 . S
C2526 C2525 1.379 . S
H2527 C2521 0.959 . S
H2528 C2521 0.961 . S
H2529 C2521 0.960 . S
H2530 C2522 0.930 . S
H2531 C2523 0.929 . S
H2532 C2540 0.929 . S
H2533 C2542 0.930 . S
H2534 C2544 0.930 . S
H2535 C2547 0.929 . S
H2536 C2550 0.930 . S
H2537 C2552 0.960 . S
H2538 C2552 0.960 . S
H2539 C2552 0.960 . S
C2540 H2532 0.929 . S
C2540 C2541 1.377 . S
C2540 C2542 1.384 . S
C2541 C2540 1.377 . S
C2541 C2547 1.390 . S
C2542 H2533 0.930 . S
C2542 C2540 1.384 . S
C2542 C2543 1.372 . S
C2543 C2542 1.372 . S
C2543 C2544 1.400 . S
C2543 C2548 1.490 . S
C2544 H2534 0.930 . S
C2544 C2543 1.400 . S
C2544 C2547 1.386 . S
H2545 C2561 0.930 . S
H2546 C2562 0.931 . S
C2547 H2535 0.929 . S
C2547 C2541 1.390 . S
C2547 C2544 1.386 . S
C2548 C2543 1.490 . S
C2548 C2550 1.395 . S
C2548 C2551 1.403 . S
H2549 C2555 0.930 . S
C2550 H2536 0.930 . S
C2550 C2548 1.395 . S
C2550 C2553 1.403 . S
C2551 C2548 1.403 . S
C2551 C2552 1.524 . S
C2551 C2555 1.400 . S
C2552 H2537 0.960 . S
C2552 H2538 0.960 . S
C2552 H2539 0.960 . S
C2552 C2551 1.524 . S
C2553 C2550 1.403 . S
C2553 C2554 1.392 . S
C2553 C2557 1.495 . S
C2554 C2553 1.392 . S
C2554 C2555 1.385 . S
C2554 C2556 1.478 . S
C2555 H2549 0.930 . S
C2555 C2551 1.400 . S
C2555 C2554 1.385 . S
C2556 C2554 1.478 . S
C2556 C2558 1.381 . S
C2556 C2562 1.383 . S
C2557 C2553 1.495 . S
C2557 H2563 0.959 . S
C2557 H2564 0.961 . S
C2557 H2565 0.960 . S
C2558 C2556 1.381 . S
C2558 C2559 1.394 . S
C2558 H2566 0.930 . S
C2559 C2558 1.394 . S
C2559 C2560 1.383 . S
C2559 H2567 0.929 . S
C2560 C2559 1.383 . S
C2560 C2561 1.377 . S
C2561 H2545 0.930 . S
C2561 C2560 1.377 . S
C2561 C2562 1.379 . S
C2562 H2546 0.931 . S
C2562 C2556 1.383 . S
C2562 C2561 1.379 . S
H2563 C2557 0.959 . S
H2564 C2557 0.961 . S
H2565 C2557 0.960 . S
H2566 C2558 0.930 . S
H2567 C2559 0.929 . S
H2568 C2576 0.929 . S
H2569 C2578 0.930 . S
H2570 C2580 0.930 . S
H2571 C2583 0.929 . S
H2572 C2586 0.930 . S
H2573 C2588 0.960 . S
H2574 C2588 0.960 . S
H2575 C2588 0.960 . S
C2576 H2568 0.929 . S
C2576 C2577 1.377 . S
C2576 C2578 1.384 . S
C2577 C2576 1.377 . S
C2577 C2583 1.390 . S
C2578 H2569 0.930 . S
C2578 C2576 1.384 . S
C2578 C2579 1.372 . S
C2579 C2578 1.372 . S
C2579 C2580 1.400 . S
C2579 C2584 1.490 . S
C2580 H2570 0.930 . S
C2580 C2579 1.400 . S
C2580 C2583 1.386 . S
H2581 C2597 0.930 . S
H2582 C2598 0.931 . S
C2583 H2571 0.929 . S
C2583 C2577 1.390 . S
C2583 C2580 1.386 . S
C2584 C2579 1.490 . S
C2584 C2586 1.395 . S
C2584 C2587 1.403 . S
H2585 C2591 0.930 . S
C2586 H2572 0.930 . S
C2586 C2584 1.395 . S
C2586 C2589 1.403 . S
C2587 C2584 1.403 . S
C2587 C2588 1.524 . S
C2587 C2591 1.400 . S
C2588 H2573 0.960 . S
C2588 H2574 0.960 . S
C2588 H2575 0.960 . S
C2588 C2587 1.524 . S
C2589 C2586 1.403 . S
C2589 C2590 1.392 . S
C2589 C2593 1.495 . S
C2590 C2589 1.392 . S
C2590 C2591 1.385 . S
C2590 C2592 1.478 . S
C2591 H2585 0.930 . S
C2591 C2587 1.400 . S
C2591 C2590 1.385 . S
C2592 C2590 1.478 . S
C2592 C2594 1.381 . S
C2592 C2598 1.383 . S
C2593 C2589 1.495 . S
C2593 H2599 0.959 . S
C2593 H2600 0.961 . S
C2593 H2601 0.960 . S
C2594 C2592 1.381 . S
C2594 C2595 1.394 . S
C2594 H2602 0.930 . S
C2595 C2594 1.394 . S
C2595 C2596 1.383 . S
C2595 H2603 0.929 . S
C2596 C2595 1.383 . S
C2596 C2597 1.377 . S
C2597 H2581 0.930 . S
C2597 C2596 1.377 . S
C2597 C2598 1.379 . S
C2598 H2582 0.931 . S
C2598 C2592 1.383 . S
C2598 C2597 1.379 . S
H2599 C2593 0.959 . S
H2600 C2593 0.961 . S
H2601 C2593 0.960 . S
H2602 C2594 0.930 . S
H2603 C2595 0.929 . S
H2604 C2612 0.929 . S
H2605 C2614 0.930 . S
H2606 C2616 0.930 . S
H2607 C2619 0.929 . S
H2608 C2622 0.930 . S
H2609 C2624 0.960 . S
H2610 C2624 0.960 . S
H2611 C2624 0.960 . S
C2612 H2604 0.929 . S
C2612 C2613 1.377 . S
C2612 C2614 1.384 . S
C2613 C2612 1.377 . S
C2613 C2619 1.390 . S
C2614 H2605 0.930 . S
C2614 C2612 1.384 . S
C2614 C2615 1.372 . S
C2615 C2614 1.372 . S
C2615 C2616 1.400 . S
C2615 C2620 1.490 . S
C2616 H2606 0.930 . S
C2616 C2615 1.400 . S
C2616 C2619 1.386 . S
H2617 C2633 0.930 . S
H2618 C2634 0.931 . S
C2619 H2607 0.929 . S
C2619 C2613 1.390 . S
C2619 C2616 1.386 . S
C2620 C2615 1.490 . S
C2620 C2622 1.395 . S
C2620 C2623 1.403 . S
H2621 C2627 0.930 . S
C2622 H2608 0.930 . S
C2622 C2620 1.395 . S
C2622 C2625 1.403 . S
C2623 C2620 1.403 . S
C2623 C2624 1.524 . S
C2623 C2627 1.400 . S
C2624 H2609 0.960 . S
C2624 H2610 0.960 . S
C2624 H2611 0.960 . S
C2624 C2623 1.524 . S
C2625 C2622 1.403 . S
C2625 C2626 1.392 . S
C2625 C2629 1.495 . S
C2626 C2625 1.392 . S
C2626 C2627 1.385 . S
C2626 C2628 1.478 . S
C2627 H2621 0.930 . S
C2627 C2623 1.400 . S
C2627 C2626 1.385 . S
C2628 C2626 1.478 . S
C2628 C2630 1.381 . S
C2628 C2634 1.383 . S
C2629 C2625 1.495 . S
C2629 H2635 0.959 . S
C2629 H2636 0.961 . S
C2629 H2637 0.960 . S
C2630 C2628 1.381 . S
C2630 C2631 1.394 . S
C2630 H2638 0.930 . S
C2631 C2630 1.394 . S
C2631 C2632 1.383 . S
C2631 H2639 0.929 . S
C2632 C2631 1.383 . S
C2632 C2633 1.377 . S
C2633 H2617 0.930 . S
C2633 C2632 1.377 . S
C2633 C2634 1.379 . S
C2634 H2618 0.931 . S
C2634 C2628 1.383 . S
C2634 C2633 1.379 . S
H2635 C2629 0.959 . S
H2636 C2629 0.961 . S
H2637 C2629 0.960 . S
H2638 C2630 0.930 . S
H2639 C2631 0.929 . S
H2640 C2648 0.929 . S
H2641 C2650 0.930 . S
H2642 C2652 0.930 . S
H2643 C2655 0.929 . S
H2644 C2658 0.930 . S
H2645 C2660 0.960 . S
H2646 C2660 0.960 . S
H2647 C2660 0.960 . S
C2648 H2640 0.929 . S
C2648 C2649 1.377 . S
C2648 C2650 1.384 . S
C2649 C2648 1.377 . S
C2649 C2655 1.390 . S
C2650 H2641 0.930 . S
C2650 C2648 1.384 . S
C2650 C2651 1.372 . S
C2651 C2650 1.372 . S
C2651 C2652 1.400 . S
C2651 C2656 1.490 . S
C2652 H2642 0.930 . S
C2652 C2651 1.400 . S
C2652 C2655 1.386 . S
H2653 C2669 0.930 . S
H2654 C2670 0.931 . S
C2655 H2643 0.929 . S
C2655 C2649 1.390 . S
C2655 C2652 1.386 . S
C2656 C2651 1.490 . S
C2656 C2658 1.395 . S
C2656 C2659 1.403 . S
H2657 C2663 0.930 . S
C2658 H2644 0.930 . S
C2658 C2656 1.395 . S
C2658 C2661 1.403 . S
C2659 C2656 1.403 . S
C2659 C2660 1.524 . S
C2659 C2663 1.400 . S
C2660 H2645 0.960 . S
C2660 H2646 0.960 . S
C2660 H2647 0.960 . S
C2660 C2659 1.524 . S
C2661 C2658 1.403 . S
C2661 C2662 1.392 . S
C2661 C2665 1.495 . S
C2662 C2661 1.392 . S
C2662 C2663 1.385 . S
C2662 C2664 1.478 . S
C2663 H2657 0.930 . S
C2663 C2659 1.400 . S
C2663 C2662 1.385 . S
C2664 C2662 1.478 . S
C2664 C2666 1.381 . S
C2664 C2670 1.383 . S
C2665 C2661 1.495 . S
C2665 H2671 0.959 . S
C2665 H2672 0.961 . S
C2665 H2673 0.960 . S
C2666 C2664 1.381 . S
C2666 C2667 1.394 . S
C2666 H2674 0.930 . S
C2667 C2666 1.394 . S
C2667 C2668 1.383 . S
C2667 H2675 0.929 . S
C2668 C2667 1.383 . S
C2668 C2669 1.377 . S
C2669 H2653 0.930 . S
C2669 C2668 1.377 . S
C2669 C2670 1.379 . S
C2670 H2654 0.931 . S
C2670 C2664 1.383 . S
C2670 C2669 1.379 . S
H2671 C2665 0.959 . S
H2672 C2665 0.961 . S
H2673 C2665 0.960 . S
H2674 C2666 0.930 . S
H2675 C2667 0.929 . S
H2676 C2684 0.929 . S
H2677 C2686 0.930 . S
H2678 C2688 0.930 . S
H2679 C2691 0.929 . S
H2680 C2694 0.930 . S
H2681 C2696 0.960 . S
H2682 C2696 0.960 . S
H2683 C2696 0.960 . S
C2684 H2676 0.929 . S
C2684 C2685 1.377 . S
C2684 C2686 1.384 . S
C2685 C2684 1.377 . S
C2685 C2691 1.390 . S
C2686 H2677 0.930 . S
C2686 C2684 1.384 . S
C2686 C2687 1.372 . S
C2687 C2686 1.372 . S
C2687 C2688 1.400 . S
C2687 C2692 1.490 . S
C2688 H2678 0.930 . S
C2688 C2687 1.400 . S
C2688 C2691 1.386 . S
H2689 C2705 0.930 . S
H2690 C2706 0.931 . S
C2691 H2679 0.929 . S
C2691 C2685 1.390 . S
C2691 C2688 1.386 . S
C2692 C2687 1.490 . S
C2692 C2694 1.395 . S
C2692 C2695 1.403 . S
H2693 C2699 0.930 . S
C2694 H2680 0.930 . S
C2694 C2692 1.395 . S
C2694 C2697 1.403 . S
C2695 C2692 1.403 . S
C2695 C2696 1.524 . S
C2695 C2699 1.400 . S
C2696 H2681 0.960 . S
C2696 H2682 0.960 . S
C2696 H2683 0.960 . S
C2696 C2695 1.524 . S
C2697 C2694 1.403 . S
C2697 C2698 1.392 . S
C2697 C2701 1.495 . S
C2698 C2697 1.392 . S
C2698 C2699 1.385 . S
C2698 C2700 1.478 . S
C2699 H2693 0.930 . S
C2699 C2695 1.400 . S
C2699 C2698 1.385 . S
C2700 C2698 1.478 . S
C2700 C2702 1.381 . S
C2700 C2706 1.383 . S
C2701 C2697 1.495 . S
C2701 H2707 0.959 . S
C2701 H2708 0.961 . S
C2701 H2709 0.960 . S
C2702 C2700 1.381 . S
C2702 C2703 1.394 . S
C2702 H2710 0.930 . S
C2703 C2702 1.394 . S
C2703 C2704 1.383 . S
C2703 H2711 0.929 . S
C2704 C2703 1.383 . S
C2704 C2705 1.377 . S
C2705 H2689 0.930 . S
C2705 C2704 1.377 . S
C2705 C2706 1.379 . S
C2706 H2690 0.931 . S
C2706 C2700 1.383 . S
C2706 C2705 1.379 . S
H2707 C2701 0.959 . S
H2708 C2701 0.961 . S
H2709 C2701 0.960 . S
H2710 C2702 0.930 . S
H2711 C2703 0.929 . S
H2712 C2720 0.929 . S
H2713 C2722 0.930 . S
H2714 C2724 0.930 . S
H2715 C2727 0.929 . S
H2716 C2730 0.930 . S
H2717 C2732 0.960 . S
H2718 C2732 0.960 . S
H2719 C2732 0.960 . S
C2720 H2712 0.929 . S
C2720 C2721 1.377 . S
C2720 C2722 1.384 . S
C2721 C2720 1.377 . S
C2721 C2727 1.390 . S
C2722 H2713 0.930 . S
C2722 C2720 1.384 . S
C2722 C2723 1.372 . S
C2723 C2722 1.372 . S
C2723 C2724 1.400 . S
C2723 C2728 1.490 . S
C2724 H2714 0.930 . S
C2724 C2723 1.400 . S
C2724 C2727 1.386 . S
H2725 C2741 0.930 . S
H2726 C2742 0.931 . S
C2727 H2715 0.929 . S
C2727 C2721 1.390 . S
C2727 C2724 1.386 . S
C2728 C2723 1.490 . S
C2728 C2730 1.395 . S
C2728 C2731 1.403 . S
H2729 C2735 0.930 . S
C2730 H2716 0.930 . S
C2730 C2728 1.395 . S
C2730 C2733 1.403 . S
C2731 C2728 1.403 . S
C2731 C2732 1.524 . S
C2731 C2735 1.400 . S
C2732 H2717 0.960 . S
C2732 H2718 0.960 . S
C2732 H2719 0.960 . S
C2732 C2731 1.524 . S
C2733 C2730 1.403 . S
C2733 C2734 1.392 . S
C2733 C2737 1.495 . S
C2734 C2733 1.392 . S
C2734 C2735 1.385 . S
C2734 C2736 1.478 . S
C2735 H2729 0.930 . S
C2735 C2731 1.400 . S
C2735 C2734 1.385 . S
C2736 C2734 1.478 . S
C2736 C2738 1.381 . S
C2736 C2742 1.383 . S
C2737 C2733 1.495 . S
C2737 H2743 0.959 . S
C2737 H2744 0.961 . S
C2737 H2745 0.960 . S
C2738 C2736 1.381 . S
C2738 C2739 1.394 . S
C2738 H2746 0.930 . S
C2739 C2738 1.394 . S
C2739 C2740 1.383 . S
C2739 H2747 0.929 . S
C2740 C2739 1.383 . S
C2740 C2741 1.377 . S
C2741 H2725 0.930 . S
C2741 C2740 1.377 . S
C2741 C2742 1.379 . S
C2742 H2726 0.931 . S
C2742 C2736 1.383 . S
C2742 C2741 1.379 . S
H2743 C2737 0.959 . S
H2744 C2737 0.961 . S
H2745 C2737 0.960 . S
H2746 C2738 0.930 . S
H2747 C2739 0.929 . S
H2748 C2756 0.929 . S
H2749 C2758 0.930 . S
H2750 C2760 0.930 . S
H2751 C2763 0.929 . S
H2752 C2766 0.930 . S
H2753 C2768 0.960 . S
H2754 C2768 0.960 . S
H2755 C2768 0.960 . S
C2756 H2748 0.929 . S
C2756 C2757 1.377 . S
C2756 C2758 1.384 . S
C2757 C2756 1.377 . S
C2757 C2763 1.390 . S
C2758 H2749 0.930 . S
C2758 C2756 1.384 . S
C2758 C2759 1.372 . S
C2759 C2758 1.372 . S
C2759 C2760 1.400 . S
C2759 C2764 1.490 . S
C2760 H2750 0.930 . S
C2760 C2759 1.400 . S
C2760 C2763 1.386 . S
H2761 C2777 0.930 . S
H2762 C2778 0.931 . S
C2763 H2751 0.929 . S
C2763 C2757 1.390 . S
C2763 C2760 1.386 . S
C2764 C2759 1.490 . S
C2764 C2766 1.395 . S
C2764 C2767 1.403 . S
H2765 C2771 0.930 . S
C2766 H2752 0.930 . S
C2766 C2764 1.395 . S
C2766 C2769 1.403 . S
C2767 C2764 1.403 . S
C2767 C2768 1.524 . S
C2767 C2771 1.400 . S
C2768 H2753 0.960 . S
C2768 H2754 0.960 . S
C2768 H2755 0.960 . S
C2768 C2767 1.524 . S
C2769 C2766 1.403 . S
C2769 C2770 1.392 . S
C2769 C2773 1.495 . S
C2770 C2769 1.392 . S
C2770 C2771 1.385 . S
C2770 C2772 1.478 . S
C2771 H2765 0.930 . S
C2771 C2767 1.400 . S
C2771 C2770 1.385 . S
C2772 C2770 1.478 . S
C2772 C2774 1.381 . S
C2772 C2778 1.383 . S
C2773 C2769 1.495 . S
C2773 H2779 0.959 . S
C2773 H2780 0.961 . S
C2773 H2781 0.960 . S
C2774 C2772 1.381 . S
C2774 C2775 1.394 . S
C2774 H2782 0.930 . S
C2775 C2774 1.394 . S
C2775 C2776 1.383 . S
C2775 H2783 0.929 . S
C2776 C2775 1.383 . S
C2776 C2777 1.377 . S
C2777 H2761 0.930 . S
C2777 C2776 1.377 . S
C2777 C2778 1.379 . S
C2778 H2762 0.931 . S
C2778 C2772 1.383 . S
C2778 C2777 1.379 . S
H2779 C2773 0.959 . S
H2780 C2773 0.961 . S
H2781 C2773 0.960 . S
H2782 C2774 0.930 . S
H2783 C2775 0.929 . S
H2784 C2792 0.929 . S
H2785 C2794 0.930 1_455 S
H2786 C2796 0.930 . S
H2787 C2799 0.929 . S
H2788 C2802 0.930 . S
H2789 C2804 0.960 . S
H2790 C2804 0.960 . S
H2791 C2804 0.960 . S
C2792 H2784 0.929 . S
C2792 C2793 1.377 . S
C2792 C2794 1.384 . S
C2793 C2792 1.377 . S
C2793 C2799 1.390 . S
C2794 H2785 0.930 1_655 S
C2794 C2792 1.384 . S
C2794 C2795 1.372 . S
C2795 C2794 1.372 . S
C2795 C2796 1.400 . S
C2795 C2800 1.490 . S
C2796 H2786 0.930 . S
C2796 C2795 1.400 . S
C2796 C2799 1.386 . S
H2797 C2813 0.930 . S
H2798 C2814 0.931 1_655 S
C2799 H2787 0.929 . S
C2799 C2793 1.390 . S
C2799 C2796 1.386 . S
C2800 C2795 1.490 . S
C2800 C2802 1.395 1_655 S
C2800 C2803 1.403 . S
H2801 C2807 0.930 . S
C2802 H2788 0.930 . S
C2802 C2800 1.395 1_455 S
C2802 C2805 1.403 . S
C2803 C2800 1.403 . S
C2803 C2804 1.524 . S
C2803 C2807 1.400 . S
C2804 H2789 0.960 . S
C2804 H2790 0.960 . S
C2804 H2791 0.960 . S
C2804 C2803 1.524 . S
C2805 C2802 1.403 . S
C2805 C2806 1.392 . S
C2805 C2809 1.495 . S
C2806 C2805 1.392 . S
C2806 C2807 1.385 1_455 S
C2806 C2808 1.478 . S
C2807 H2801 0.930 . S
C2807 C2803 1.400 . S
C2807 C2806 1.385 1_655 S
C2808 C2806 1.478 . S
C2808 C2810 1.381 . S
C2808 C2814 1.383 . S
C2809 C2805 1.495 . S
C2809 H2815 0.959 . S
C2809 H2816 0.961 . S
C2809 H2817 0.960 . S
C2810 C2808 1.381 . S
C2810 C2811 1.394 . S
C2810 H2818 0.930 . S
C2811 C2810 1.394 . S
C2811 C2812 1.383 . S
C2811 H2819 0.929 . S
C2812 C2811 1.383 . S
C2812 C2813 1.377 . S
C2813 H2797 0.930 . S
C2813 C2812 1.377 . S
C2813 C2814 1.379 . S
C2814 H2798 0.931 1_455 S
C2814 C2808 1.383 . S
C2814 C2813 1.379 . S
H2815 C2809 0.959 . S
H2816 C2809 0.961 . S
H2817 C2809 0.960 . S
H2818 C2810 0.930 . S
H2819 C2811 0.929 . S
H2820 C2828 0.929 . S
H2821 C2830 0.930 . S
H2822 C2832 0.930 . S
H2823 C2835 0.929 . S
H2824 C2838 0.930 . S
H2825 C2840 0.959 . S
H2826 C2840 0.961 1_565 S
H2827 C2840 0.955 1_565 S
C2828 H2820 0.929 . S
C2828 C2829 1.377 . S
C2828 C2830 1.384 . S
C2829 C2828 1.377 . S
C2829 C2835 1.390 . S
C2830 H2821 0.930 . S
C2830 C2828 1.384 . S
C2830 C2831 1.372 . S
C2831 C2830 1.372 . S
C2831 C2832 1.400 . S
C2831 C2836 1.490 . S
C2832 H2822 0.930 . S
C2832 C2831 1.400 . S
C2832 C2835 1.386 . S
H2833 C2849 0.930 . S
H2834 C2850 0.931 . S
C2835 H2823 0.929 . S
C2835 C2829 1.390 . S
C2835 C2832 1.386 . S
C2836 C2831 1.490 . S
C2836 C2838 1.395 . S
C2836 C2839 1.436 . S
H2837 C2843 0.930 . S
C2838 H2824 0.930 . S
C2838 C2836 1.395 . S
C2838 C2841 1.475 . S
C2839 C2836 1.436 . S
C2839 C2840 1.522 1_565 S
C2839 C2843 1.368 1_565 S
C2840 H2825 0.959 . S
C2840 H2826 0.961 1_545 S
C2840 H2827 0.955 1_545 S
C2840 C2839 1.522 1_545 S
C2841 C2838 1.475 . S
C2841 C2842 1.320 1_565 S
C2841 C2845 1.502 . S
C2842 C2841 1.320 1_545 S
C2842 C2843 1.385 . S
C2842 C2844 1.478 . S
C2843 H2837 0.930 . S
C2843 C2839 1.368 1_545 S
C2843 C2842 1.385 . S
C2844 C2842 1.478 . S
C2844 C2846 1.381 . S
C2844 C2850 1.383 . S
C2845 C2841 1.502 . S
C2845 H2851 0.959 . S
C2845 H2852 0.961 1_565 S
C2845 H2853 0.968 . S
C2846 C2844 1.381 . S
C2846 C2847 1.394 . S
C2846 H2854 0.930 . S
C2847 C2846 1.394 . S
C2847 C2848 1.383 . S
C2847 H2855 0.929 . S
C2848 C2847 1.383 . S
C2848 C2849 1.377 . S
C2849 H2833 0.930 . S
C2849 C2848 1.377 . S
C2849 C2850 1.379 . S
C2850 H2834 0.931 . S
C2850 C2844 1.383 . S
C2850 C2849 1.379 . S
H2851 C2845 0.959 . S
H2852 C2845 0.961 1_545 S
H2853 C2845 0.968 . S
H2854 C2846 0.930 . S
H2855 C2847 0.929 . S
H2856 C2864 0.929 . S
H2857 C2866 0.930 . S
H2858 C2868 0.930 1_554 S
H2859 C2871 0.929 . S
H2860 C2874 0.930 . S
H2861 C2876 0.960 . S
H2862 C2876 0.960 1_556 S
H2863 C2876 0.960 . S
C2864 H2856 0.929 . S
C2864 C2865 1.377 . S
C2864 C2866 1.384 . S
C2865 C2864 1.377 . S
C2865 C2871 1.390 . S
C2866 H2857 0.930 . S
C2866 C2864 1.384 . S
C2866 C2867 1.372 . S
C2867 C2866 1.372 . S
C2867 C2868 1.400 . S
C2867 C2872 1.490 . S
C2868 H2858 0.930 1_556 S
C2868 C2867 1.400 . S
C2868 C2871 1.386 . S
H2869 C2885 0.930 . S
H2870 C2886 0.931 . S
C2871 H2859 0.929 . S
C2871 C2865 1.390 . S
C2871 C2868 1.386 . S
C2872 C2867 1.490 . S
C2872 C2874 1.284 1_545 S
C2872 C2875 1.403 1_456 S
H2873 C2879 0.930 . S
C2874 H2860 0.930 . S
C2874 C2872 1.284 1_565 S
C2874 C2877 1.516 . S
C2875 C2872 1.403 1_654 S
C2875 C2876 1.524 . S
C2875 C2879 1.330 1_545 S
C2876 H2861 0.960 . S
C2876 H2862 0.960 1_554 S
C2876 H2863 0.960 . S
C2876 C2875 1.524 . S
C2877 C2874 1.516 . S
C2877 C2878 1.392 1_456 S
C2877 C2881 1.495 . S
C2878 C2877 1.392 1_654 S
C2878 C2879 1.457 . S
C2878 C2880 1.478 . S
C2879 H2873 0.930 . S
C2879 C2875 1.330 1_565 S
C2879 C2878 1.457 . S
C2880 C2878 1.478 . S
C2880 C2882 1.381 . S
C2880 C2886 1.383 . S
C2881 C2877 1.495 . S
C2881 H2887 0.959 . S
C2881 H2888 0.961 1_556 S
C2881 H2889 0.960 . S
C2882 C2880 1.381 . S
C2882 C2883 1.394 . S
C2882 H2890 0.930 1_554 S
C2883 C2882 1.394 . S
C2883 C2884 1.383 . S
C2883 H2891 0.929 . S
C2884 C2883 1.383 . S
C2884 C2885 1.377 . S
C2885 H2869 0.930 . S
C2885 C2884 1.377 . S
C2885 C2886 1.379 . S
C2886 H2870 0.931 . S
C2886 C2880 1.383 . S
C2886 C2885 1.379 . S
H2887 C2881 0.959 . S
H2888 C2881 0.961 1_554 S
H2889 C2881 0.960 . S
H2890 C2882 0.930 1_556 S
H2891 C2883 0.929 . S
H2892 C2900 0.929 . S
H2893 C2902 0.930 . S
H2894 C2904 0.930 . S
H2895 C2907 0.929 . S
H2896 C2910 0.930 . S
H2897 C2912 0.960 . S
H2898 C2912 0.960 . S
H2899 C2912 0.960 1_554 S
C2900 H2892 0.929 . S
C2900 C2901 1.377 . S
C2900 C2902 1.384 . S
C2901 C2900 1.377 . S
C2901 C2907 1.390 . S
C2902 H2893 0.930 . S
C2902 C2900 1.384 . S
C2902 C2903 1.372 . S
C2903 C2902 1.372 . S
C2903 C2904 1.400 . S
C2903 C2908 1.490 . S
C2904 H2894 0.930 . S
C2904 C2903 1.400 . S
C2904 C2907 1.386 . S
H2905 C2921 0.930 . S
H2906 C2922 0.931 . S
C2907 H2895 0.929 . S
C2907 C2901 1.390 . S
C2907 C2904 1.386 . S
C2908 C2903 1.490 . S
C2908 C2910 1.395 . S
C2908 C2911 1.403 1_554 S
H2909 C2915 0.930 . S
C2910 H2896 0.930 . S
C2910 C2908 1.395 . S
C2910 C2913 1.403 . S
C2911 C2908 1.403 1_556 S
C2911 C2912 1.524 . S
C2911 C2915 1.400 . S
C2912 H2897 0.960 . S
C2912 H2898 0.960 . S
C2912 H2899 0.960 1_556 S
C2912 C2911 1.524 . S
C2913 C2910 1.403 . S
C2913 C2914 1.392 1_554 S
C2913 C2917 1.495 . S
C2914 C2913 1.392 1_556 S
C2914 C2915 1.385 . S
C2914 C2916 1.478 . S
C2915 H2909 0.930 . S
C2915 C2911 1.400 . S
C2915 C2914 1.385 . S
C2916 C2914 1.478 . S
C2916 C2918 1.381 . S
C2916 C2922 1.383 . S
C2917 C2913 1.495 . S
C2917 H2923 0.959 . S
C2917 H2924 0.961 . S
C2917 H2925 0.960 1_554 S
C2918 C2916 1.381 . S
C2918 C2919 1.394 . S
C2918 H2926 0.930 . S
C2919 C2918 1.394 . S
C2919 C2920 1.383 . S
C2919 H2927 0.929 . S
C2920 C2919 1.383 . S
C2920 C2921 1.377 . S
C2921 H2905 0.930 . S
C2921 C2920 1.377 . S
C2921 C2922 1.379 . S
C2922 H2906 0.931 . S
C2922 C2916 1.383 . S
C2922 C2921 1.379 . S
H2923 C2917 0.959 . S
H2924 C2917 0.961 . S
H2925 C2917 0.960 1_556 S
H2926 C2918 0.930 . S
H2927 C2919 0.929 . S
H2928 C2936 0.929 . S
H2929 C2938 0.930 . S
H2930 C2940 0.930 1_655 S
H2931 C2943 0.929 . S
H2932 C2946 0.930 . S
H2933 C2948 0.960 . S
H2934 C2948 0.960 . S
H2935 C2948 0.960 . S
C2936 H2928 0.929 . S
C2936 C2937 1.377 . S
C2936 C2938 1.384 . S
C2937 C2936 1.377 . S
C2937 C2943 1.390 . S
C2938 H2929 0.930 . S
C2938 C2936 1.384 . S
C2938 C2939 1.372 . S
C2939 C2938 1.372 . S
C2939 C2940 1.400 . S
C2939 C2944 1.490 . S
C2940 H2930 0.930 1_455 S
C2940 C2939 1.400 . S
C2940 C2943 1.386 . S
H2941 C2957 0.930 . S
H2942 C2958 0.931 . S
C2943 H2931 0.929 . S
C2943 C2937 1.390 . S
C2943 C2940 1.386 . S
C2944 C2939 1.490 . S
C2944 C2946 1.402 . S
C2944 C2947 1.403 . S
H2945 C2951 0.930 . S
C2946 H2932 0.930 . S
C2946 C2944 1.402 . S
C2946 C2949 1.395 1_455 S
C2947 C2944 1.403 . S
C2947 C2948 1.524 . S
C2947 C2951 1.397 1_455 S
C2948 H2933 0.960 . S
C2948 H2934 0.960 . S
C2948 H2935 0.960 . S
C2948 C2947 1.524 . S
C2949 C2946 1.395 1_655 S
C2949 C2950 1.392 . S
C2949 C2953 1.495 . S
C2950 C2949 1.392 . S
C2950 C2951 1.388 . S
C2950 C2952 1.478 . S
C2951 H2945 0.930 . S
C2951 C2947 1.397 1_655 S
C2951 C2950 1.388 . S
C2952 C2950 1.478 . S
C2952 C2954 1.381 . S
C2952 C2958 1.383 . S
C2953 C2949 1.495 . S
C2953 H2959 0.959 . S
C2953 H2960 0.961 . S
C2953 H2961 0.960 . S
C2954 C2952 1.381 . S
C2954 C2955 1.394 . S
C2954 H2962 0.930 1_655 S
C2955 C2954 1.394 . S
C2955 C2956 1.383 . S
C2955 H2963 0.929 . S
C2956 C2955 1.383 . S
C2956 C2957 1.377 . S
C2957 H2941 0.930 . S
C2957 C2956 1.377 . S
C2957 C2958 1.379 . S
C2958 H2942 0.931 . S
C2958 C2952 1.383 . S
C2958 C2957 1.379 . S
H2959 C2953 0.959 . S
H2960 C2953 0.961 . S
H2961 C2953 0.960 . S
H2962 C2954 0.930 1_455 S
H2963 C2955 0.929 . S
H2964 C2972 0.929 . S
H2965 C2974 0.930 . S
H2966 C2976 0.930 . S
H2967 C2979 0.929 . S
H2968 C2982 0.930 . S
H2969 C2984 0.960 . S
H2970 C2984 0.960 . S
H2971 C2984 0.960 . S
C2972 H2964 0.929 . S
C2972 C2973 1.377 . S
C2972 C2974 1.384 . S
C2973 C2972 1.377 . S
C2973 C2979 1.390 . S
C2974 H2965 0.930 . S
C2974 C2972 1.384 . S
C2974 C2975 1.372 . S
C2975 C2974 1.372 . S
C2975 C2976 1.400 . S
C2975 C2980 1.490 . S
C2976 H2966 0.930 . S
C2976 C2975 1.400 . S
C2976 C2979 1.386 . S
H2977 C2993 0.930 . S
H2978 C2994 0.931 . S
C2979 H2967 0.929 . S
C2979 C2973 1.390 . S
C2979 C2976 1.386 . S
C2980 C2975 1.490 . S
C2980 C2982 1.336 1_545 S
C2980 C2983 1.403 . S
H2981 C2987 0.944 . S
C2982 H2968 0.930 . S
C2982 C2980 1.336 1_565 S
C2982 C2985 1.465 . S
C2983 C2980 1.403 . S
C2983 C2984 1.524 . S
C2983 C2987 1.286 1_545 S
C2984 H2969 0.960 . S
C2984 H2970 0.960 . S
C2984 H2971 0.960 . S
C2984 C2983 1.524 . S
C2985 C2982 1.465 . S
C2985 C2986 1.392 . S
C2985 C2989 1.495 . S
C2986 C2985 1.392 . S
C2986 C2987 1.499 . S
C2986 C2988 1.478 . S
C2987 H2981 0.944 . S
C2987 C2983 1.286 1_565 S
C2987 C2986 1.499 . S
C2988 C2986 1.478 . S
C2988 C2990 1.381 . S
C2988 C2994 1.383 . S
C2989 C2985 1.495 . S
C2989 H2995 0.959 . S
C2989 H2996 0.961 . S
C2989 H2997 0.960 . S
C2990 C2988 1.381 . S
C2990 C2991 1.394 . S
C2990 H2998 0.930 . S
C2991 C2990 1.394 . S
C2991 C2992 1.383 . S
C2991 H2999 0.929 . S
C2992 C2991 1.383 . S
C2992 C2993 1.377 . S
C2993 H2977 0.930 . S
C2993 C2992 1.377 . S
C2993 C2994 1.379 . S
C2994 H2978 0.931 . S
C2994 C2988 1.383 . S
C2994 C2993 1.379 . S
H2995 C2989 0.959 . S
H2996 C2989 0.961 . S
H2997 C2989 0.960 . S
H2998 C2990 0.930 . S
H2999 C2991 0.929 . S
H3000 C3008 0.929 . S
H3001 C3010 0.930 . S
H3002 C3012 0.930 . S
H3003 C3015 0.929 . S
H3004 C3018 0.930 . S
H3005 C3020 0.960 . S
H3006 C3020 0.960 . S
H3007 C3020 0.960 . S
C3008 H3000 0.929 . S
C3008 C3009 1.377 . S
C3008 C3010 1.384 . S
C3009 C3008 1.377 . S
C3009 C3015 1.390 . S
C3010 H3001 0.930 . S
C3010 C3008 1.384 . S
C3010 C3011 1.372 . S
C3011 C3010 1.372 . S
C3011 C3012 1.400 . S
C3011 C3016 1.490 . S
C3012 H3002 0.930 . S
C3012 C3011 1.400 . S
C3012 C3015 1.386 . S
H3013 C3029 0.930 . S
H3014 C3030 0.931 . S
C3015 H3003 0.929 . S
C3015 C3009 1.390 . S
C3015 C3012 1.386 . S
C3016 C3011 1.490 . S
C3016 C3018 1.395 . S
C3016 C3019 1.403 1_556 S
H3017 C3023 0.930 . S
C3018 H3004 0.930 . S
C3018 C3016 1.395 . S
C3018 C3021 1.403 . S
C3019 C3016 1.403 1_554 S
C3019 C3020 1.524 . S
C3019 C3023 1.400 . S
C3020 H3005 0.960 . S
C3020 H3006 0.960 . S
C3020 H3007 0.960 . S
C3020 C3019 1.524 . S
C3021 C3018 1.403 . S
C3021 C3022 1.392 1_556 S
C3021 C3025 1.495 . S
C3022 C3021 1.392 1_554 S
C3022 C3023 1.385 . S
C3022 C3024 1.478 . S
C3023 H3017 0.930 . S
C3023 C3019 1.400 . S
C3023 C3022 1.385 . S
C3024 C3022 1.478 . S
C3024 C3026 1.381 . S
C3024 C3030 1.383 . S
C3025 C3021 1.495 . S
C3025 H3031 0.959 . S
C3025 H3032 0.961 . S
C3025 H3033 0.960 . S
C3026 C3024 1.381 . S
C3026 C3027 1.394 . S
C3026 H3034 0.930 . S
C3027 C3026 1.394 . S
C3027 C3028 1.383 . S
C3027 H3035 0.929 . S
C3028 C3027 1.383 . S
C3028 C3029 1.377 . S
C3029 H3013 0.930 . S
C3029 C3028 1.377 . S
C3029 C3030 1.379 . S
C3030 H3014 0.931 . S
C3030 C3024 1.383 . S
C3030 C3029 1.379 . S
H3031 C3025 0.959 . S
H3032 C3025 0.961 . S
H3033 C3025 0.960 . S
H3034 C3026 0.930 . S
H3035 C3027 0.929 . S
H3036 C3044 0.929 . S
H3037 C3046 0.930 . S
H3038 C3048 0.930 . S
H3039 C3051 0.929 . S
H3040 C3054 0.930 . S
H3041 C3056 0.960 . S
H3042 C3056 0.960 . S
H3043 C3056 0.960 . S
C3044 H3036 0.929 . S
C3044 C3045 1.377 . S
C3044 C3046 1.384 . S
C3045 C3044 1.377 . S
C3045 C3051 1.390 . S
C3046 H3037 0.930 . S
C3046 C3044 1.384 . S
C3046 C3047 1.372 . S
C3047 C3046 1.372 . S
C3047 C3048 1.400 . S
C3047 C3052 1.490 . S
C3048 H3038 0.930 . S
C3048 C3047 1.400 . S
C3048 C3051 1.386 . S
H3049 C3065 0.930 . S
H3050 C3066 0.931 . S
C3051 H3039 0.929 . S
C3051 C3045 1.390 . S
C3051 C3048 1.386 . S
C3052 C3047 1.490 . S
C3052 C3054 1.395 . S
C3052 C3055 1.403 . S
H3053 C3059 0.930 . S
C3054 H3040 0.930 . S
C3054 C3052 1.395 . S
C3054 C3057 1.403 . S
C3055 C3052 1.403 . S
C3055 C3056 1.524 . S
C3055 C3059 1.400 . S
C3056 H3041 0.960 . S
C3056 H3042 0.960 . S
C3056 H3043 0.960 . S
C3056 C3055 1.524 . S
C3057 C3054 1.403 . S
C3057 C3058 1.392 . S
C3057 C3061 1.495 . S
C3058 C3057 1.392 . S
C3058 C3059 1.385 . S
C3058 C3060 1.478 . S
C3059 H3053 0.930 . S
C3059 C3055 1.400 . S
C3059 C3058 1.385 . S
C3060 C3058 1.478 . S
C3060 C3062 1.381 . S
C3060 C3066 1.383 . S
C3061 C3057 1.495 . S
C3061 H3067 0.959 . S
C3061 H3068 0.961 . S
C3061 H3069 0.960 . S
C3062 C3060 1.381 . S
C3062 C3063 1.394 . S
C3062 H3070 0.930 . S
C3063 C3062 1.394 . S
C3063 C3064 1.383 . S
C3063 H3071 0.929 . S
C3064 C3063 1.383 . S
C3064 C3065 1.377 . S
C3065 H3049 0.930 . S
C3065 C3064 1.377 . S
C3065 C3066 1.379 . S
C3066 H3050 0.931 . S
C3066 C3060 1.383 . S
C3066 C3065 1.379 . S
H3067 C3061 0.959 . S
H3068 C3061 0.961 . S
H3069 C3061 0.960 . S
H3070 C3062 0.930 . S
H3071 C3063 0.929 . S
H3072 C3080 0.929 . S
H3073 C3082 0.930 . S
H3074 C3084 0.930 1_455 S
H3075 C3087 0.929 . S
H3076 C3090 0.930 . S
H3077 C3092 0.960 . S
H3078 C3092 0.960 . S
H3079 C3092 0.960 1_455 S
C3080 H3072 0.929 . S
C3080 C3081 1.377 . S
C3080 C3082 1.384 . S
C3081 C3080 1.377 . S
C3081 C3087 1.390 . S
C3082 H3073 0.930 . S
C3082 C3080 1.384 . S
C3082 C3083 1.372 . S
C3083 C3082 1.372 . S
C3083 C3084 1.400 . S
C3083 C3088 1.490 . S
C3084 H3074 0.930 1_655 S
C3084 C3083 1.400 . S
C3084 C3087 1.386 . S
H3085 C3101 0.930 . S
H3086 C3102 0.931 . S
C3087 H3075 0.929 . S
C3087 C3081 1.390 . S
C3087 C3084 1.386 . S
C3088 C3083 1.490 . S
C3088 C3090 1.395 . S
C3088 C3091 1.403 . S
H3089 C3095 0.930 . S
C3090 H3076 0.930 . S
C3090 C3088 1.395 . S
C3090 C3093 1.403 1_655 S
C3091 C3088 1.403 . S
C3091 C3092 1.524 . S
C3091 C3095 1.400 1_655 S
C3092 H3077 0.960 . S
C3092 H3078 0.960 . S
C3092 H3079 0.960 1_655 S
C3092 C3091 1.524 . S
C3093 C3090 1.403 1_455 S
C3093 C3094 1.392 . S
C3093 C3097 1.495 . S
C3094 C3093 1.392 . S
C3094 C3095 1.385 . S
C3094 C3096 1.478 . S
C3095 H3089 0.930 . S
C3095 C3091 1.400 1_455 S
C3095 C3094 1.385 . S
C3096 C3094 1.478 . S
C3096 C3098 1.381 . S
C3096 C3102 1.383 . S
C3097 C3093 1.495 . S
C3097 H3103 0.959 1_455 S
C3097 H3104 0.961 . S
C3097 H3105 0.960 1_455 S
C3098 C3096 1.381 . S
C3098 C3099 1.394 . S
C3098 H3106 0.930 1_455 S
C3099 C3098 1.394 . S
C3099 C3100 1.383 . S
C3099 H3107 0.929 . S
C3100 C3099 1.383 . S
C3100 C3101 1.377 . S
C3101 H3085 0.930 . S
C3101 C3100 1.377 . S
C3101 C3102 1.379 . S
C3102 H3086 0.931 . S
C3102 C3096 1.383 . S
C3102 C3101 1.379 . S
H3103 C3097 0.959 1_655 S
H3104 C3097 0.961 . S
H3105 C3097 0.960 1_655 S
H3106 C3098 0.930 1_655 S
H3107 C3099 0.929 . S
H3108 C3116 0.929 . S
H3109 C3118 0.930 . S
H3110 C3120 0.930 . S
H3111 C3123 0.929 . S
H3112 C3126 0.930 . S
H3113 C3128 0.960 . S
H3114 C3128 0.960 . S
H3115 C3128 0.960 . S
C3116 H3108 0.929 . S
C3116 C3117 1.377 . S
C3116 C3118 1.384 . S
C3117 C3116 1.377 . S
C3117 C3123 1.390 . S
C3118 H3109 0.930 . S
C3118 C3116 1.384 . S
C3118 C3119 1.372 . S
C3119 C3118 1.372 . S
C3119 C3120 1.400 . S
C3119 C3124 1.490 . S
C3120 H3110 0.930 . S
C3120 C3119 1.400 . S
C3120 C3123 1.386 . S
H3121 C3137 0.930 . S
H3122 C3138 0.931 . S
C3123 H3111 0.929 . S
C3123 C3117 1.390 . S
C3123 C3120 1.386 . S
C3124 C3119 1.490 . S
C3124 C3126 1.395 . S
C3124 C3127 1.403 . S
H3125 C3131 0.930 . S
C3126 H3112 0.930 . S
C3126 C3124 1.395 . S
C3126 C3129 1.403 . S
C3127 C3124 1.403 . S
C3127 C3128 1.524 . S
C3127 C3131 1.400 . S
C3128 H3113 0.960 . S
C3128 H3114 0.960 . S
C3128 H3115 0.960 . S
C3128 C3127 1.524 . S
C3129 C3126 1.403 . S
C3129 C3130 1.392 . S
C3129 C3133 1.495 . S
C3130 C3129 1.392 . S
C3130 C3131 1.385 . S
C3130 C3132 1.478 . S
C3131 H3125 0.930 . S
C3131 C3127 1.400 . S
C3131 C3130 1.385 . S
C3132 C3130 1.478 . S
C3132 C3134 1.381 . S
C3132 C3138 1.383 . S
C3133 C3129 1.495 . S
C3133 H3139 0.959 . S
C3133 H3140 0.961 . S
C3133 H3141 0.960 . S
C3134 C3132 1.381 . S
C3134 C3135 1.394 . S
C3134 H3142 0.930 . S
C3135 C3134 1.394 . S
C3135 C3136 1.383 . S
C3135 H3143 0.929 . S
C3136 C3135 1.383 . S
C3136 C3137 1.377 . S
C3137 H3121 0.930 . S
C3137 C3136 1.377 . S
C3137 C3138 1.379 . S
C3138 H3122 0.931 . S
C3138 C3132 1.383 . S
C3138 C3137 1.379 . S
H3139 C3133 0.959 . S
H3140 C3133 0.961 . S
H3141 C3133 0.960 . S
H3142 C3134 0.930 . S
H3143 C3135 0.929 . S
H3144 C3152 0.929 . S
H3145 C3154 0.930 . S
H3146 C3156 0.930 . S
H3147 C3159 0.929 . S
H3148 C3162 0.930 . S
H3149 C3164 0.960 . S
H3150 C3164 0.960 . S
H3151 C3164 0.960 . S
C3152 H3144 0.929 . S
C3152 C3153 1.377 . S
C3152 C3154 1.384 . S
C3153 C3152 1.377 . S
C3153 C3159 1.390 . S
C3154 H3145 0.930 . S
C3154 C3152 1.384 . S
C3154 C3155 1.372 . S
C3155 C3154 1.372 . S
C3155 C3156 1.400 . S
C3155 C3160 1.490 . S
C3156 H3146 0.930 . S
C3156 C3155 1.400 . S
C3156 C3159 1.386 . S
H3157 C3173 0.930 . S
H3158 C3174 0.931 . S
C3159 H3147 0.929 . S
C3159 C3153 1.390 . S
C3159 C3156 1.386 . S
C3160 C3155 1.490 . S
C3160 C3162 1.395 . S
C3160 C3163 1.403 . S
H3161 C3167 0.930 . S
C3162 H3148 0.930 . S
C3162 C3160 1.395 . S
C3162 C3165 1.403 . S
C3163 C3160 1.403 . S
C3163 C3164 1.524 . S
C3163 C3167 1.400 . S
C3164 H3149 0.960 . S
C3164 H3150 0.960 . S
C3164 H3151 0.960 . S
C3164 C3163 1.524 . S
C3165 C3162 1.403 . S
C3165 C3166 1.392 . S
C3165 C3169 1.495 . S
C3166 C3165 1.392 . S
C3166 C3167 1.385 . S
C3166 C3168 1.478 . S
C3167 H3161 0.930 . S
C3167 C3163 1.400 . S
C3167 C3166 1.385 . S
C3168 C3166 1.478 . S
C3168 C3170 1.381 . S
C3168 C3174 1.383 . S
C3169 C3165 1.495 . S
C3169 H3175 0.959 . S
C3169 H3176 0.961 . S
C3169 H3177 0.960 . S
C3170 C3168 1.381 . S
C3170 C3171 1.394 . S
C3170 H3178 0.930 . S
C3171 C3170 1.394 . S
C3171 C3172 1.383 . S
C3171 H3179 0.929 . S
C3172 C3171 1.383 . S
C3172 C3173 1.377 . S
C3173 H3157 0.930 . S
C3173 C3172 1.377 . S
C3173 C3174 1.379 . S
C3174 H3158 0.931 . S
C3174 C3168 1.383 . S
C3174 C3173 1.379 . S
H3175 C3169 0.959 . S
H3176 C3169 0.961 . S
H3177 C3169 0.960 . S
H3178 C3170 0.930 . S
H3179 C3171 0.929 . S
H3180 C3188 0.929 . S
H3181 C3190 0.930 . S
H3182 C3192 0.930 . S
H3183 C3195 0.929 . S
H3184 C3198 0.930 . S
H3185 C3200 0.960 . S
H3186 C3200 0.960 . S
H3187 C3200 0.960 . S
C3188 H3180 0.929 . S
C3188 C3189 1.377 . S
C3188 C3190 1.384 . S
C3189 C3188 1.377 . S
C3189 C3195 1.390 . S
C3190 H3181 0.930 . S
C3190 C3188 1.384 . S
C3190 C3191 1.372 . S
C3191 C3190 1.372 . S
C3191 C3192 1.400 . S
C3191 C3196 1.490 . S
C3192 H3182 0.930 . S
C3192 C3191 1.400 . S
C3192 C3195 1.386 . S
H3193 C3209 0.930 . S
H3194 C3210 0.931 . S
C3195 H3183 0.929 . S
C3195 C3189 1.390 . S
C3195 C3192 1.386 . S
C3196 C3191 1.490 . S
C3196 C3198 1.395 . S
C3196 C3199 1.403 . S
H3197 C3203 0.930 . S
C3198 H3184 0.930 . S
C3198 C3196 1.395 . S
C3198 C3201 1.403 . S
C3199 C3196 1.403 . S
C3199 C3200 1.524 . S
C3199 C3203 1.400 . S
C3200 H3185 0.960 . S
C3200 H3186 0.960 . S
C3200 H3187 0.960 . S
C3200 C3199 1.524 . S
C3201 C3198 1.403 . S
C3201 C3202 1.392 . S
C3201 C3205 1.495 . S
C3202 C3201 1.392 . S
C3202 C3203 1.385 . S
C3202 C3204 1.478 . S
C3203 H3197 0.930 . S
C3203 C3199 1.400 . S
C3203 C3202 1.385 . S
C3204 C3202 1.478 . S
C3204 C3206 1.381 . S
C3204 C3210 1.383 . S
C3205 C3201 1.495 . S
C3205 H3211 0.959 . S
C3205 H3212 0.961 . S
C3205 H3213 0.960 . S
C3206 C3204 1.381 . S
C3206 C3207 1.394 . S
C3206 H3214 0.930 . S
C3207 C3206 1.394 . S
C3207 C3208 1.383 . S
C3207 H3215 0.929 . S
C3208 C3207 1.383 . S
C3208 C3209 1.377 . S
C3209 H3193 0.930 . S
C3209 C3208 1.377 . S
C3209 C3210 1.379 . S
C3210 H3194 0.931 . S
C3210 C3204 1.383 . S
C3210 C3209 1.379 . S
H3211 C3205 0.959 . S
H3212 C3205 0.961 . S
H3213 C3205 0.960 . S
H3214 C3206 0.930 . S
H3215 C3207 0.929 . S
H3216 C3224 0.929 . S
H3217 C3226 0.930 . S
H3218 C3228 0.930 . S
H3219 C3231 0.929 . S
H3220 C3234 0.930 . S
H3221 C3236 0.960 . S
H3222 C3236 0.960 . S
H3223 C3236 0.960 . S
C3224 H3216 0.929 . S
C3224 C3225 1.377 . S
C3224 C3226 1.384 . S
C3225 C3224 1.377 . S
C3225 C3231 1.390 . S
C3226 H3217 0.930 . S
C3226 C3224 1.384 . S
C3226 C3227 1.372 . S
C3227 C3226 1.372 . S
C3227 C3228 1.400 . S
C3227 C3232 1.490 . S
C3228 H3218 0.930 . S
C3228 C3227 1.400 . S
C3228 C3231 1.386 . S
H3229 C3245 0.930 . S
H3230 C3246 0.931 . S
C3231 H3219 0.929 . S
C3231 C3225 1.390 . S
C3231 C3228 1.386 . S
C3232 C3227 1.490 . S
C3232 C3234 1.395 . S
C3232 C3235 1.403 . S
H3233 C3239 0.930 . S
C3234 H3220 0.930 . S
C3234 C3232 1.395 . S
C3234 C3237 1.403 . S
C3235 C3232 1.403 . S
C3235 C3236 1.524 . S
C3235 C3239 1.400 . S
C3236 H3221 0.960 . S
C3236 H3222 0.960 . S
C3236 H3223 0.960 . S
C3236 C3235 1.524 . S
C3237 C3234 1.403 . S
C3237 C3238 1.392 . S
C3237 C3241 1.495 . S
C3238 C3237 1.392 . S
C3238 C3239 1.385 . S
C3238 C3240 1.478 . S
C3239 H3233 0.930 . S
C3239 C3235 1.400 . S
C3239 C3238 1.385 . S
C3240 C3238 1.478 . S
C3240 C3242 1.381 . S
C3240 C3246 1.383 . S
C3241 C3237 1.495 . S
C3241 H3247 0.959 . S
C3241 H3248 0.961 . S
C3241 H3249 0.960 . S
C3242 C3240 1.381 . S
C3242 C3243 1.394 . S
C3242 H3250 0.930 . S
C3243 C3242 1.394 . S
C3243 C3244 1.383 . S
C3243 H3251 0.929 . S
C3244 C3243 1.383 . S
C3244 C3245 1.377 . S
C3245 H3229 0.930 . S
C3245 C3244 1.377 . S
C3245 C3246 1.379 . S
C3246 H3230 0.931 . S
C3246 C3240 1.383 . S
C3246 C3245 1.379 . S
H3247 C3241 0.959 . S
H3248 C3241 0.961 . S
H3249 C3241 0.960 . S
H3250 C3242 0.930 . S
H3251 C3243 0.929 . S
H3252 C3260 0.929 . S
H3253 C3262 0.930 . S
H3254 C3264 0.930 . S
H3255 C3267 0.929 . S
H3256 C3270 0.930 . S
H3257 C3272 0.960 . S
H3258 C3272 0.960 . S
H3259 C3272 0.941 1_545 S
C3260 H3252 0.929 . S
C3260 C3261 1.377 . S
C3260 C3262 1.384 . S
C3261 C3260 1.377 . S
C3261 C3267 1.390 . S
C3262 H3253 0.930 . S
C3262 C3260 1.384 . S
C3262 C3263 1.372 . S
C3263 C3262 1.372 . S
C3263 C3264 1.400 . S
C3263 C3268 1.490 . S
C3264 H3254 0.930 . S
C3264 C3263 1.400 . S
C3264 C3267 1.386 . S
H3265 C3281 0.930 . S
H3266 C3282 0.931 . S
C3267 H3255 0.929 . S
C3267 C3261 1.390 . S
C3267 C3264 1.386 . S
C3268 C3263 1.490 . S
C3268 C3270 1.395 . S
C3268 C3271 1.289 1_545 S
H3269 C3275 0.930 . S
C3270 H3256 0.930 . S
C3270 C3268 1.395 . S
C3270 C3273 1.403 . S
C3271 C3268 1.289 1_565 S
C3271 C3272 1.554 . S
C3271 C3275 1.495 . S
C3272 H3257 0.960 . S
C3272 H3258 0.960 . S
C3272 H3259 0.941 1_565 S
C3272 C3271 1.554 . S
C3273 C3270 1.403 . S
C3273 C3274 1.392 1_545 S
C3273 C3277 1.495 . S
C3274 C3273 1.392 1_565 S
C3274 C3275 1.385 . S
C3274 C3276 1.478 . S
C3275 H3269 0.930 . S
C3275 C3271 1.495 . S
C3275 C3274 1.385 . S
C3276 C3274 1.478 . S
C3276 C3278 1.381 . S
C3276 C3282 1.383 . S
C3277 C3273 1.495 . S
C3277 H3283 0.959 . S
C3277 H3284 0.961 . S
C3277 H3285 0.975 . S
C3278 C3276 1.381 . S
C3278 C3279 1.394 . S
C3278 H3286 0.930 . S
C3279 C3278 1.394 . S
C3279 C3280 1.383 . S
C3279 H3287 0.929 . S
C3280 C3279 1.383 . S
C3280 C3281 1.377 . S
C3281 H3265 0.930 . S
C3281 C3280 1.377 . S
C3281 C3282 1.379 . S
C3282 H3266 0.931 . S
C3282 C3276 1.383 . S
C3282 C3281 1.379 . S
H3283 C3277 0.959 . S
H3284 C3277 0.961 . S
H3285 C3277 0.975 . S
H3286 C3278 0.930 . S
H3287 C3279 0.929 . S
H3288 C3296 0.929 . S
H3289 C3298 0.930 . S
H3290 C3300 0.930 . S
H3291 C3303 0.929 . S
H3292 C3306 0.930 . S
H3293 C3308 0.960 . S
H3294 C3308 0.960 . S
H3295 C3308 0.960 . S
C3296 H3288 0.929 . S
C3296 C3297 1.377 . S
C3296 C3298 1.384 . S
C3297 C3296 1.377 . S
C3297 C3303 1.390 . S
C3298 H3289 0.930 . S
C3298 C3296 1.384 . S
C3298 C3299 1.372 . S
C3299 C3298 1.372 . S
C3299 C3300 1.400 . S
C3299 C3304 1.490 . S
C3300 H3290 0.930 . S
C3300 C3299 1.400 . S
C3300 C3303 1.386 . S
H3301 C3317 0.930 . S
H3302 C3318 0.931 . S
C3303 H3291 0.929 . S
C3303 C3297 1.390 . S
C3303 C3300 1.386 . S
C3304 C3299 1.490 . S
C3304 C3306 1.395 . S
C3304 C3307 1.403 . S
H3305 C3311 0.930 . S
C3306 H3292 0.930 . S
C3306 C3304 1.395 . S
C3306 C3309 1.403 . S
C3307 C3304 1.403 . S
C3307 C3308 1.524 . S
C3307 C3311 1.400 . S
C3308 H3293 0.960 . S
C3308 H3294 0.960 . S
C3308 H3295 0.960 . S
C3308 C3307 1.524 . S
C3309 C3306 1.403 . S
C3309 C3310 1.392 . S
C3309 C3313 1.495 . S
C3310 C3309 1.392 . S
C3310 C3311 1.385 . S
C3310 C3312 1.478 . S
C3311 H3305 0.930 . S
C3311 C3307 1.400 . S
C3311 C3310 1.385 . S
C3312 C3310 1.478 . S
C3312 C3314 1.381 . S
C3312 C3318 1.383 . S
C3313 C3309 1.495 . S
C3313 H3319 0.959 . S
C3313 H3320 0.961 . S
C3313 H3321 0.960 . S
C3314 C3312 1.381 . S
C3314 C3315 1.394 . S
C3314 H3322 0.930 . S
C3315 C3314 1.394 . S
C3315 C3316 1.383 . S
C3315 H3323 0.929 . S
C3316 C3315 1.383 . S
C3316 C3317 1.377 . S
C3317 H3301 0.930 . S
C3317 C3316 1.377 . S
C3317 C3318 1.379 . S
C3318 H3302 0.931 . S
C3318 C3312 1.383 . S
C3318 C3317 1.379 . S
H3319 C3313 0.959 . S
H3320 C3313 0.961 . S
H3321 C3313 0.960 . S
H3322 C3314 0.930 . S
H3323 C3315 0.929 . S
H3324 C3332 0.929 . S
H3325 C3334 0.930 . S
H3326 C3336 0.930 1_556 S
H3327 C3339 0.929 . S
H3328 C3342 0.930 . S
H3329 C3344 0.960 . S
H3330 C3344 0.960 1_554 S
H3331 C3344 0.960 . S
C3332 H3324 0.929 . S
C3332 C3333 1.377 . S
C3332 C3334 1.384 . S
C3333 C3332 1.377 . S
C3333 C3339 1.390 . S
C3334 H3325 0.930 . S
C3334 C3332 1.384 . S
C3334 C3335 1.372 . S
C3335 C3334 1.372 . S
C3335 C3336 1.400 . S
C3335 C3340 1.490 . S
C3336 H3326 0.930 1_554 S
C3336 C3335 1.400 . S
C3336 C3339 1.386 . S
H3337 C3353 0.930 . S
H3338 C3354 0.931 . S
C3339 H3327 0.929 . S
C3339 C3333 1.390 . S
C3339 C3336 1.386 . S
C3340 C3335 1.490 . S
C3340 C3342 1.395 . S
C3340 C3343 1.403 1_554 S
H3341 C3347 0.930 . S
C3342 H3328 0.930 . S
C3342 C3340 1.395 . S
C3342 C3345 1.403 . S
C3343 C3340 1.403 1_556 S
C3343 C3344 1.524 . S
C3343 C3347 1.400 . S
C3344 H3329 0.960 . S
C3344 H3330 0.960 1_556 S
C3344 H3331 0.960 . S
C3344 C3343 1.524 . S
C3345 C3342 1.403 . S
C3345 C3346 1.392 1_554 S
C3345 C3349 1.495 . S
C3346 C3345 1.392 1_556 S
C3346 C3347 1.385 . S
C3346 C3348 1.478 . S
C3347 H3341 0.930 . S
C3347 C3343 1.400 . S
C3347 C3346 1.385 . S
C3348 C3346 1.478 . S
C3348 C3350 1.381 . S
C3348 C3354 1.383 . S
C3349 C3345 1.495 . S
C3349 H3355 0.959 . S
C3349 H3356 0.961 1_554 S
C3349 H3357 0.960 . S
C3350 C3348 1.381 . S
C3350 C3351 1.394 . S
C3350 H3358 0.930 1_556 S
C3351 C3350 1.394 . S
C3351 C3352 1.383 . S
C3351 H3359 0.929 . S
C3352 C3351 1.383 . S
C3352 C3353 1.377 . S
C3353 H3337 0.930 . S
C3353 C3352 1.377 . S
C3353 C3354 1.379 . S
C3354 H3338 0.931 . S
C3354 C3348 1.383 . S
C3354 C3353 1.379 . S
H3355 C3349 0.959 . S
H3356 C3349 0.961 1_556 S
H3357 C3349 0.960 . S
H3358 C3350 0.930 1_554 S
H3359 C3351 0.929 . S
H3360 C3368 0.929 . S
H3361 C3370 0.930 . S
H3362 C3372 0.930 . S
H3363 C3375 0.929 . S
H3364 C3378 0.930 . S
H3365 C3380 0.960 . S
H3366 C3380 0.960 . S
H3367 C3380 0.960 . S
C3368 H3360 0.929 . S
C3368 C3369 1.377 . S
C3368 C3370 1.384 . S
C3369 C3368 1.377 . S
C3369 C3375 1.390 . S
C3370 H3361 0.930 . S
C3370 C3368 1.384 . S
C3370 C3371 1.372 . S
C3371 C3370 1.372 . S
C3371 C3372 1.400 . S
C3371 C3376 1.490 . S
C3372 H3362 0.930 . S
C3372 C3371 1.400 . S
C3372 C3375 1.386 . S
H3373 C3389 0.930 . S
H3374 C3390 0.931 . S
C3375 H3363 0.929 . S
C3375 C3369 1.390 . S
C3375 C3372 1.386 . S
C3376 C3371 1.490 . S
C3376 C3378 1.395 . S
C3376 C3379 1.403 . S
H3377 C3383 0.930 . S
C3378 H3364 0.930 . S
C3378 C3376 1.395 . S
C3378 C3381 1.403 . S
C3379 C3376 1.403 . S
C3379 C3380 1.524 . S
C3379 C3383 1.400 . S
C3380 H3365 0.960 . S
C3380 H3366 0.960 . S
C3380 H3367 0.960 . S
C3380 C3379 1.524 . S
C3381 C3378 1.403 . S
C3381 C3382 1.392 . S
C3381 C3385 1.495 . S
C3382 C3381 1.392 . S
C3382 C3383 1.385 . S
C3382 C3384 1.478 . S
C3383 H3377 0.930 . S
C3383 C3379 1.400 . S
C3383 C3382 1.385 . S
C3384 C3382 1.478 . S
C3384 C3386 1.381 . S
C3384 C3390 1.383 . S
C3385 C3381 1.495 . S
C3385 H3391 0.959 . S
C3385 H3392 0.961 . S
C3385 H3393 0.960 . S
C3386 C3384 1.381 . S
C3386 C3387 1.394 . S
C3386 H3394 0.930 . S
C3387 C3386 1.394 . S
C3387 C3388 1.383 . S
C3387 H3395 0.929 . S
C3388 C3387 1.383 . S
C3388 C3389 1.377 . S
C3389 H3373 0.930 . S
C3389 C3388 1.377 . S
C3389 C3390 1.379 . S
C3390 H3374 0.931 . S
C3390 C3384 1.383 . S
C3390 C3389 1.379 . S
H3391 C3385 0.959 . S
H3392 C3385 0.961 . S
H3393 C3385 0.960 . S
H3394 C3386 0.930 . S
H3395 C3387 0.929 . S
H3396 C3404 0.929 . S
H3397 C3406 0.930 . S
H3398 C3408 0.930 . S
H3399 C3411 0.929 . S
H3400 C3414 0.930 . S
H3401 C3416 0.960 . S
H3402 C3416 0.960 . S
H3403 C3416 0.960 . S
C3404 H3396 0.929 . S
C3404 C3405 1.377 . S
C3404 C3406 1.384 . S
C3405 C3404 1.377 . S
C3405 C3411 1.390 . S
C3406 H3397 0.930 . S
C3406 C3404 1.384 . S
C3406 C3407 1.372 . S
C3407 C3406 1.372 . S
C3407 C3408 1.400 . S
C3407 C3412 1.490 . S
C3408 H3398 0.930 . S
C3408 C3407 1.400 . S
C3408 C3411 1.386 . S
H3409 C3425 0.930 . S
H3410 C3426 0.931 . S
C3411 H3399 0.929 . S
C3411 C3405 1.390 . S
C3411 C3408 1.386 . S
C3412 C3407 1.490 . S
C3412 C3414 1.395 . S
C3412 C3415 1.403 . S
H3413 C3419 0.930 . S
C3414 H3400 0.930 . S
C3414 C3412 1.395 . S
C3414 C3417 1.403 . S
C3415 C3412 1.403 . S
C3415 C3416 1.524 . S
C3415 C3419 1.400 . S
C3416 H3401 0.960 . S
C3416 H3402 0.960 . S
C3416 H3403 0.960 . S
C3416 C3415 1.524 . S
C3417 C3414 1.403 . S
C3417 C3418 1.392 . S
C3417 C3421 1.495 . S
C3418 C3417 1.392 . S
C3418 C3419 1.385 . S
C3418 C3420 1.478 . S
C3419 H3413 0.930 . S
C3419 C3415 1.400 . S
C3419 C3418 1.385 . S
C3420 C3418 1.478 . S
C3420 C3422 1.381 . S
C3420 C3426 1.383 . S
C3421 C3417 1.495 . S
C3421 H3427 0.959 . S
C3421 H3428 0.961 . S
C3421 H3429 0.960 . S
C3422 C3420 1.381 . S
C3422 C3423 1.394 . S
C3422 H3430 0.930 . S
C3423 C3422 1.394 . S
C3423 C3424 1.383 . S
C3423 H3431 0.929 . S
C3424 C3423 1.383 . S
C3424 C3425 1.377 . S
C3425 H3409 0.930 . S
C3425 C3424 1.377 . S
C3425 C3426 1.379 . S
C3426 H3410 0.931 . S
C3426 C3420 1.383 . S
C3426 C3425 1.379 . S
H3427 C3421 0.959 . S
H3428 C3421 0.961 . S
H3429 C3421 0.960 . S
H3430 C3422 0.930 . S
H3431 C3423 0.929 . S
H3432 C3440 0.929 . S
H3433 C3442 0.930 . S
H3434 C3444 0.930 . S
H3435 C3447 0.929 . S
H3436 C3450 0.930 . S
H3437 C3452 0.960 . S
H3438 C3452 0.960 . S
H3439 C3452 0.960 . S
C3440 H3432 0.929 . S
C3440 C3441 1.377 . S
C3440 C3442 1.384 . S
C3441 C3440 1.377 . S
C3441 C3447 1.390 . S
C3442 H3433 0.930 . S
C3442 C3440 1.384 . S
C3442 C3443 1.372 . S
C3443 C3442 1.372 . S
C3443 C3444 1.400 . S
C3443 C3448 1.490 . S
C3444 H3434 0.930 . S
C3444 C3443 1.400 . S
C3444 C3447 1.386 . S
H3445 C3461 0.930 . S
H3446 C3462 0.931 . S
C3447 H3435 0.929 . S
C3447 C3441 1.390 . S
C3447 C3444 1.386 . S
C3448 C3443 1.490 . S
C3448 C3450 1.395 . S
C3448 C3451 1.403 . S
H3449 C3455 0.930 . S
C3450 H3436 0.930 . S
C3450 C3448 1.395 . S
C3450 C3453 1.403 . S
C3451 C3448 1.403 . S
C3451 C3452 1.524 . S
C3451 C3455 1.400 . S
C3452 H3437 0.960 . S
C3452 H3438 0.960 . S
C3452 H3439 0.960 . S
C3452 C3451 1.524 . S
C3453 C3450 1.403 . S
C3453 C3454 1.392 . S
C3453 C3457 1.495 . S
C3454 C3453 1.392 . S
C3454 C3455 1.385 . S
C3454 C3456 1.478 . S
C3455 H3449 0.930 . S
C3455 C3451 1.400 . S
C3455 C3454 1.385 . S
C3456 C3454 1.478 . S
C3456 C3458 1.381 . S
C3456 C3462 1.383 . S
C3457 C3453 1.495 . S
C3457 H3463 0.959 . S
C3457 H3464 0.961 . S
C3457 H3465 0.960 . S
C3458 C3456 1.381 . S
C3458 C3459 1.394 . S
C3458 H3466 0.930 . S
C3459 C3458 1.394 . S
C3459 C3460 1.383 . S
C3459 H3467 0.929 . S
C3460 C3459 1.383 . S
C3460 C3461 1.377 . S
C3461 H3445 0.930 . S
C3461 C3460 1.377 . S
C3461 C3462 1.379 . S
C3462 H3446 0.931 . S
C3462 C3456 1.383 . S
C3462 C3461 1.379 . S
H3463 C3457 0.959 . S
H3464 C3457 0.961 . S
H3465 C3457 0.960 . S
H3466 C3458 0.930 . S
H3467 C3459 0.929 . S
H3468 C3476 0.929 . S
H3469 C3478 0.930 . S
H3470 C3480 0.930 . S
H3471 C3483 0.929 . S
H3472 C3486 0.930 . S
H3473 C3488 0.960 . S
H3474 C3488 0.960 . S
H3475 C3488 0.960 . S
C3476 H3468 0.929 . S
C3476 C3477 1.377 . S
C3476 C3478 1.384 . S
C3477 C3476 1.377 . S
C3477 C3483 1.390 . S
C3478 H3469 0.930 . S
C3478 C3476 1.384 . S
C3478 C3479 1.372 . S
C3479 C3478 1.372 . S
C3479 C3480 1.400 . S
C3479 C3484 1.490 . S
C3480 H3470 0.930 . S
C3480 C3479 1.400 . S
C3480 C3483 1.386 . S
H3481 C3497 0.930 . S
H3482 C3498 0.931 . S
C3483 H3471 0.929 . S
C3483 C3477 1.390 . S
C3483 C3480 1.386 . S
C3484 C3479 1.490 . S
C3484 C3486 1.395 . S
C3484 C3487 1.403 . S
H3485 C3491 0.930 . S
C3486 H3472 0.930 . S
C3486 C3484 1.395 . S
C3486 C3489 1.403 . S
C3487 C3484 1.403 . S
C3487 C3488 1.524 . S
C3487 C3491 1.400 . S
C3488 H3473 0.960 . S
C3488 H3474 0.960 . S
C3488 H3475 0.960 . S
C3488 C3487 1.524 . S
C3489 C3486 1.403 . S
C3489 C3490 1.392 . S
C3489 C3493 1.495 . S
C3490 C3489 1.392 . S
C3490 C3491 1.385 . S
C3490 C3492 1.478 . S
C3491 H3485 0.930 . S
C3491 C3487 1.400 . S
C3491 C3490 1.385 . S
C3492 C3490 1.478 . S
C3492 C3494 1.381 . S
C3492 C3498 1.383 . S
C3493 C3489 1.495 . S
C3493 H3499 0.959 . S
C3493 H3500 0.961 . S
C3493 H3501 0.960 . S
C3494 C3492 1.381 . S
C3494 C3495 1.394 . S
C3494 H3502 0.930 . S
C3495 C3494 1.394 . S
C3495 C3496 1.383 . S
C3495 H3503 0.929 . S
C3496 C3495 1.383 . S
C3496 C3497 1.377 . S
C3497 H3481 0.930 . S
C3497 C3496 1.377 . S
C3497 C3498 1.379 . S
C3498 H3482 0.931 . S
C3498 C3492 1.383 . S
C3498 C3497 1.379 . S
H3499 C3493 0.959 . S
H3500 C3493 0.961 . S
H3501 C3493 0.960 . S
H3502 C3494 0.930 . S
H3503 C3495 0.929 . S
H3504 C3512 0.929 . S
H3505 C3514 0.930 . S
H3506 C3516 0.930 . S
H3507 C3519 0.921 1_556 S
H3508 C3522 0.930 . S
H3509 C3524 0.960 . S
H3510 C3524 0.960 . S
H3511 C3524 0.960 . S
C3512 H3504 0.929 . S
C3512 C3513 1.377 . S
C3512 C3514 1.384 1_556 S
C3513 C3512 1.377 . S
C3513 C3519 1.371 1_556 S
C3514 H3505 0.930 . S
C3514 C3512 1.384 1_554 S
C3514 C3515 1.372 . S
C3515 C3514 1.372 . S
C3515 C3516 1.400 . S
C3515 C3520 1.490 . S
C3516 H3506 0.930 . S
C3516 C3515 1.400 . S
C3516 C3519 1.413 . S
H3517 C3533 0.930 . S
H3518 C3534 0.931 . S
C3519 H3507 0.921 1_554 S
C3519 C3513 1.371 1_554 S
C3519 C3516 1.413 . S
C3520 C3515 1.490 . S
C3520 C3522 1.395 . S
C3520 C3523 1.403 . S
H3521 C3527 0.930 . S
C3522 H3508 0.930 . S
C3522 C3520 1.395 . S
C3522 C3525 1.403 . S
C3523 C3520 1.403 . S
C3523 C3524 1.524 . S
C3523 C3527 1.400 . S
C3524 H3509 0.960 . S
C3524 H3510 0.960 . S
C3524 H3511 0.960 . S
C3524 C3523 1.524 . S
C3525 C3522 1.403 . S
C3525 C3526 1.392 . S
C3525 C3529 1.495 . S
C3526 C3525 1.392 . S
C3526 C3527 1.385 . S
C3526 C3528 1.478 . S
C3527 H3521 0.930 . S
C3527 C3523 1.400 . S
C3527 C3526 1.385 . S
C3528 C3526 1.478 . S
C3528 C3530 1.381 . S
C3528 C3534 1.383 . S
C3529 C3525 1.495 . S
C3529 H3535 0.959 . S
C3529 H3536 0.961 . S
C3529 H3537 0.960 . S
C3530 C3528 1.381 . S
C3530 C3531 1.394 . S
C3530 H3538 0.930 . S
C3531 C3530 1.394 . S
C3531 C3532 1.383 . S
C3531 H3539 0.929 . S
C3532 C3531 1.383 . S
C3532 C3533 1.377 . S
C3533 H3517 0.930 . S
C3533 C3532 1.377 . S
C3533 C3534 1.379 . S
C3534 H3518 0.931 . S
C3534 C3528 1.383 . S
C3534 C3533 1.379 . S
H3535 C3529 0.959 . S
H3536 C3529 0.961 . S
H3537 C3529 0.960 . S
H3538 C3530 0.930 . S
H3539 C3531 0.929 . S
H3540 C3548 0.929 . S
H3541 C3550 0.930 . S
H3542 C3552 0.930 . S
H3543 C3555 0.929 . S
H3544 C3558 0.930 . S
H3545 C3560 0.960 . S
H3546 C3560 0.960 . S
H3547 C3560 0.960 . S
C3548 H3540 0.929 . S
C3548 C3549 1.377 . S
C3548 C3550 1.384 . S
C3549 C3548 1.377 . S
C3549 C3555 1.390 . S
C3550 H3541 0.930 . S
C3550 C3548 1.384 . S
C3550 C3551 1.372 . S
C3551 C3550 1.372 . S
C3551 C3552 1.400 . S
C3551 C3556 1.490 . S
C3552 H3542 0.930 . S
C3552 C3551 1.400 . S
C3552 C3555 1.386 . S
H3553 C3569 0.930 . S
H3554 C3570 0.931 . S
C3555 H3543 0.929 . S
C3555 C3549 1.390 . S
C3555 C3552 1.386 . S
C3556 C3551 1.490 . S
C3556 C3558 1.395 . S
C3556 C3559 1.403 . S
H3557 C3563 0.930 . S
C3558 H3544 0.930 . S
C3558 C3556 1.395 . S
C3558 C3561 1.403 . S
C3559 C3556 1.403 . S
C3559 C3560 1.524 . S
C3559 C3563 1.400 . S
C3560 H3545 0.960 . S
C3560 H3546 0.960 . S
C3560 H3547 0.960 . S
C3560 C3559 1.524 . S
C3561 C3558 1.403 . S
C3561 C3562 1.392 . S
C3561 C3565 1.495 . S
C3562 C3561 1.392 . S
C3562 C3563 1.385 . S
C3562 C3564 1.478 . S
C3563 H3557 0.930 . S
C3563 C3559 1.400 . S
C3563 C3562 1.385 . S
C3564 C3562 1.478 . S
C3564 C3566 1.381 . S
C3564 C3570 1.383 . S
C3565 C3561 1.495 . S
C3565 H3571 0.959 . S
C3565 H3572 0.961 . S
C3565 H3573 0.960 . S
C3566 C3564 1.381 . S
C3566 C3567 1.394 1_554 S
C3566 H3574 0.930 . S
C3567 C3566 1.394 1_556 S
C3567 C3568 1.383 . S
C3567 H3575 0.929 . S
C3568 C3567 1.383 . S
C3568 C3569 1.377 1_556 S
C3569 H3553 0.930 . S
C3569 C3568 1.377 1_554 S
C3569 C3570 1.379 . S
C3570 H3554 0.931 . S
C3570 C3564 1.383 . S
C3570 C3569 1.379 . S
H3571 C3565 0.959 . S
H3572 C3565 0.961 . S
H3573 C3565 0.960 . S
H3574 C3566 0.930 . S
H3575 C3567 0.929 . S
H3576 C3584 0.929 . S
H3577 C3586 0.930 . S
H3578 C3588 0.930 . S
H3579 C3591 0.929 . S
H3580 C3594 0.930 . S
H3581 C3596 0.960 . S
H3582 C3596 0.960 . S
H3583 C3596 0.960 . S
C3584 H3576 0.929 . S
C3584 C3585 1.377 . S
C3584 C3586 1.384 1_554 S
C3585 C3584 1.377 . S
C3585 C3591 1.390 . S
C3586 H3577 0.930 . S
C3586 C3584 1.384 1_556 S
C3586 C3587 1.372 . S
C3587 C3586 1.372 . S
C3587 C3588 1.400 . S
C3587 C3592 1.490 . S
C3588 H3578 0.930 . S
C3588 C3587 1.400 . S
C3588 C3591 1.386 1_556 S
H3589 C3605 0.930 . S
H3590 C3606 0.931 . S
C3591 H3579 0.929 . S
C3591 C3585 1.390 . S
C3591 C3588 1.386 1_554 S
C3592 C3587 1.490 . S
C3592 C3594 1.395 . S
C3592 C3595 1.403 . S
H3593 C3599 0.930 . S
C3594 H3580 0.930 . S
C3594 C3592 1.395 . S
C3594 C3597 1.403 . S
C3595 C3592 1.403 . S
C3595 C3596 1.524 . S
C3595 C3599 1.400 . S
C3596 H3581 0.960 . S
C3596 H3582 0.960 . S
C3596 H3583 0.960 . S
C3596 C3595 1.524 . S
C3597 C3594 1.403 . S
C3597 C3598 1.392 . S
C3597 C3601 1.495 . S
C3598 C3597 1.392 . S
C3598 C3599 1.385 . S
C3598 C3600 1.478 . S
C3599 H3593 0.930 . S
C3599 C3595 1.400 . S
C3599 C3598 1.385 . S
C3600 C3598 1.478 . S
C3600 C3602 1.381 . S
C3600 C3606 1.383 . S
C3601 C3597 1.495 . S
C3601 H3607 0.959 . S
C3601 H3608 0.961 . S
C3601 H3609 0.960 . S
C3602 C3600 1.381 . S
C3602 C3603 1.394 . S
C3602 H3610 0.930 . S
C3603 C3602 1.394 . S
C3603 C3604 1.383 . S
C3603 H3611 0.929 . S
C3604 C3603 1.383 . S
C3604 C3605 1.377 . S
C3605 H3589 0.930 . S
C3605 C3604 1.377 . S
C3605 C3606 1.379 . S
C3606 H3590 0.931 . S
C3606 C3600 1.383 . S
C3606 C3605 1.379 . S
H3607 C3601 0.959 . S
H3608 C3601 0.961 . S
H3609 C3601 0.960 . S
H3610 C3602 0.930 . S
H3611 C3603 0.929 . S
H3612 C3620 0.925 1_554 S
H3613 C3622 0.930 . S
H3614 C3624 0.930 . S
H3615 C3627 0.929 . S
H3616 C3630 0.930 . S
H3617 C3632 0.960 . S
H3618 C3632 0.960 . S
H3619 C3632 0.960 . S
C3620 H3612 0.925 1_556 S
C3620 C3621 1.377 1_556 S
C3620 C3622 1.384 . S
C3621 C3620 1.377 1_554 S
C3621 C3627 1.390 . S
C3622 H3613 0.930 . S
C3622 C3620 1.384 . S
C3622 C3623 1.372 . S
C3623 C3622 1.372 . S
C3623 C3624 1.400 . S
C3623 C3628 1.490 . S
C3624 H3614 0.930 . S
C3624 C3623 1.400 . S
C3624 C3627 1.386 1_556 S
H3625 C3641 0.930 . S
H3626 C3642 0.931 . S
C3627 H3615 0.929 . S
C3627 C3621 1.390 . S
C3627 C3624 1.386 1_554 S
C3628 C3623 1.490 . S
C3628 C3630 1.395 . S
C3628 C3631 1.403 . S
H3629 C3635 0.930 . S
C3630 H3616 0.930 . S
C3630 C3628 1.395 . S
C3630 C3633 1.403 . S
C3631 C3628 1.403 . S
C3631 C3632 1.524 . S
C3631 C3635 1.400 . S
C3632 H3617 0.960 . S
C3632 H3618 0.960 . S
C3632 H3619 0.960 . S
C3632 C3631 1.524 . S
C3633 C3630 1.403 . S
C3633 C3634 1.392 . S
C3633 C3637 1.495 . S
C3634 C3633 1.392 . S
C3634 C3635 1.385 . S
C3634 C3636 1.478 . S
C3635 H3629 0.930 . S
C3635 C3631 1.400 . S
C3635 C3634 1.385 . S
C3636 C3634 1.478 . S
C3636 C3638 1.381 . S
C3636 C3642 1.383 . S
C3637 C3633 1.495 . S
C3637 H3643 0.959 . S
C3637 H3644 0.961 . S
C3637 H3645 0.960 . S
C3638 C3636 1.381 . S
C3638 C3639 1.394 . S
C3638 H3646 0.930 . S
C3639 C3638 1.394 . S
C3639 C3640 1.383 . S
C3639 H3647 0.929 . S
C3640 C3639 1.383 . S
C3640 C3641 1.377 . S
C3641 H3625 0.930 . S
C3641 C3640 1.377 . S
C3641 C3642 1.379 . S
C3642 H3626 0.931 . S
C3642 C3636 1.383 . S
C3642 C3641 1.379 . S
H3643 C3637 0.959 . S
H3644 C3637 0.961 . S
H3645 C3637 0.960 . S
H3646 C3638 0.930 . S
H3647 C3639 0.929 . S
H3648 C3656 0.929 1_556 S
H3649 C3658 0.930 . S
H3650 C3660 0.930 . S
H3651 C3663 0.929 . S
H3652 C3666 0.930 . S
H3653 C3668 0.960 . S
H3654 C3668 0.960 . S
H3655 C3668 0.960 . S
C3656 H3648 0.929 1_554 S
C3656 C3657 1.377 1_554 S
C3656 C3658 1.384 . S
C3657 C3656 1.377 1_556 S
C3657 C3663 1.390 . S
C3658 H3649 0.930 . S
C3658 C3656 1.384 . S
C3658 C3659 1.372 . S
C3659 C3658 1.372 . S
C3659 C3660 1.400 . S
C3659 C3664 1.490 . S
C3660 H3650 0.930 . S
C3660 C3659 1.400 . S
C3660 C3663 1.386 1_554 S
H3661 C3677 0.930 . S
H3662 C3678 0.931 . S
C3663 H3651 0.929 . S
C3663 C3657 1.390 . S
C3663 C3660 1.386 1_556 S
C3664 C3659 1.490 . S
C3664 C3666 1.395 . S
C3664 C3667 1.403 . S
H3665 C3671 0.930 . S
C3666 H3652 0.930 . S
C3666 C3664 1.395 . S
C3666 C3669 1.403 . S
C3667 C3664 1.403 . S
C3667 C3668 1.524 . S
C3667 C3671 1.400 . S
C3668 H3653 0.960 . S
C3668 H3654 0.960 . S
C3668 H3655 0.960 . S
C3668 C3667 1.524 . S
C3669 C3666 1.403 . S
C3669 C3670 1.392 . S
C3669 C3673 1.495 . S
C3670 C3669 1.392 . S
C3670 C3671 1.385 . S
C3670 C3672 1.478 . S
C3671 H3665 0.930 . S
C3671 C3667 1.400 . S
C3671 C3670 1.385 . S
C3672 C3670 1.478 . S
C3672 C3674 1.381 . S
C3672 C3678 1.383 . S
C3673 C3669 1.495 . S
C3673 H3679 0.959 . S
C3673 H3680 0.961 . S
C3673 H3681 0.960 . S
C3674 C3672 1.381 . S
C3674 C3675 1.394 . S
C3674 H3682 0.930 . S
C3675 C3674 1.394 . S
C3675 C3676 1.383 . S
C3675 H3683 0.929 . S
C3676 C3675 1.383 . S
C3676 C3677 1.377 . S
C3677 H3661 0.930 . S
C3677 C3676 1.377 . S
C3677 C3678 1.379 . S
C3678 H3662 0.931 . S
C3678 C3672 1.383 . S
C3678 C3677 1.379 . S
H3679 C3673 0.959 . S
H3680 C3673 0.961 . S
H3681 C3673 0.960 . S
H3682 C3674 0.930 . S
H3683 C3675 0.929 . S
H3684 C3692 0.929 . S
H3685 C3694 0.930 . S
H3686 C3696 0.930 . S
H3687 C3699 0.929 . S
H3688 C3702 0.930 . S
H3689 C3704 0.960 . S
H3690 C3704 0.960 . S
H3691 C3704 0.960 . S
C3692 H3684 0.929 . S
C3692 C3693 1.377 . S
C3692 C3694 1.384 1_556 S
C3693 C3692 1.377 . S
C3693 C3699 1.390 . S
C3694 H3685 0.930 . S
C3694 C3692 1.384 1_554 S
C3694 C3695 1.372 . S
C3695 C3694 1.372 . S
C3695 C3696 1.400 . S
C3695 C3700 1.490 . S
C3696 H3686 0.930 . S
C3696 C3695 1.400 . S
C3696 C3699 1.386 1_554 S
H3697 C3713 0.930 . S
H3698 C3714 0.931 . S
C3699 H3687 0.929 . S
C3699 C3693 1.390 . S
C3699 C3696 1.386 1_556 S
C3700 C3695 1.490 . S
C3700 C3702 1.395 . S
C3700 C3703 1.403 . S
H3701 C3707 0.930 . S
C3702 H3688 0.930 . S
C3702 C3700 1.395 . S
C3702 C3705 1.403 . S
C3703 C3700 1.403 . S
C3703 C3704 1.524 . S
C3703 C3707 1.400 . S
C3704 H3689 0.960 . S
C3704 H3690 0.960 . S
C3704 H3691 0.960 . S
C3704 C3703 1.524 . S
C3705 C3702 1.403 . S
C3705 C3706 1.392 . S
C3705 C3709 1.495 . S
C3706 C3705 1.392 . S
C3706 C3707 1.385 . S
C3706 C3708 1.478 . S
C3707 H3701 0.930 . S
C3707 C3703 1.400 . S
C3707 C3706 1.385 . S
C3708 C3706 1.478 . S
C3708 C3710 1.381 . S
C3708 C3714 1.383 . S
C3709 C3705 1.495 . S
C3709 H3715 0.959 . S
C3709 H3716 0.961 . S
C3709 H3717 0.960 . S
C3710 C3708 1.381 . S
C3710 C3711 1.394 . S
C3710 H3718 0.930 . S
C3711 C3710 1.394 . S
C3711 C3712 1.383 . S
C3711 H3719 0.929 . S
C3712 C3711 1.383 . S
C3712 C3713 1.377 . S
C3713 H3697 0.930 . S
C3713 C3712 1.377 . S
C3713 C3714 1.379 . S
C3714 H3698 0.931 . S
C3714 C3708 1.383 . S
C3714 C3713 1.379 . S
H3715 C3709 0.959 . S
H3716 C3709 0.961 . S
H3717 C3709 0.960 . S
H3718 C3710 0.930 . S
H3719 C3711 0.929 . S
H3720 C3728 0.929 . S
H3721 C3730 0.930 . S
H3722 C3732 0.930 . S
H3723 C3735 0.929 . S
H3724 C3738 0.930 . S
H3725 C3740 0.960 . S
H3726 C3740 0.960 . S
H3727 C3740 0.960 . S
C3728 H3720 0.929 . S
C3728 C3729 1.377 . S
C3728 C3730 1.384 1_554 S
C3729 C3728 1.377 . S
C3729 C3735 1.390 . S
C3730 H3721 0.930 . S
C3730 C3728 1.384 1_556 S
C3730 C3731 1.372 . S
C3731 C3730 1.372 . S
C3731 C3732 1.400 . S
C3731 C3736 1.490 . S
C3732 H3722 0.930 . S
C3732 C3731 1.400 . S
C3732 C3735 1.386 1_556 S
H3733 C3749 0.930 . S
H3734 C3750 0.931 . S
C3735 H3723 0.929 . S
C3735 C3729 1.390 . S
C3735 C3732 1.386 1_554 S
C3736 C3731 1.490 . S
C3736 C3738 1.395 . S
C3736 C3739 1.403 . S
H3737 C3743 0.930 . S
C3738 H3724 0.930 . S
C3738 C3736 1.395 . S
C3738 C3741 1.403 . S
C3739 C3736 1.403 . S
C3739 C3740 1.524 . S
C3739 C3743 1.400 . S
C3740 H3725 0.960 . S
C3740 H3726 0.960 . S
C3740 H3727 0.960 . S
C3740 C3739 1.524 . S
C3741 C3738 1.403 . S
C3741 C3742 1.392 . S
C3741 C3745 1.495 . S
C3742 C3741 1.392 . S
C3742 C3743 1.385 . S
C3742 C3744 1.478 . S
C3743 H3737 0.930 . S
C3743 C3739 1.400 . S
C3743 C3742 1.385 . S
C3744 C3742 1.478 . S
C3744 C3746 1.381 . S
C3744 C3750 1.383 . S
C3745 C3741 1.495 . S
C3745 H3751 0.959 . S
C3745 H3752 0.961 . S
C3745 H3753 0.960 . S
C3746 C3744 1.381 . S
C3746 C3747 1.394 . S
C3746 H3754 0.930 . S
C3747 C3746 1.394 . S
C3747 C3748 1.383 . S
C3747 H3755 0.929 . S
C3748 C3747 1.383 . S
C3748 C3749 1.377 . S
C3749 H3733 0.930 . S
C3749 C3748 1.377 . S
C3749 C3750 1.379 . S
C3750 H3734 0.931 . S
C3750 C3744 1.383 . S
C3750 C3749 1.379 . S
H3751 C3745 0.959 . S
H3752 C3745 0.961 . S
H3753 C3745 0.960 . S
H3754 C3746 0.930 . S
H3755 C3747 0.929 . S
H3756 C3764 0.929 . S
H3757 C3766 0.930 . S
H3758 C3768 0.930 . S
H3759 C3771 0.929 1_554 S
H3760 C3774 0.930 . S
H3761 C3776 0.960 . S
H3762 C3776 0.960 . S
H3763 C3776 0.960 . S
C3764 H3756 0.929 . S
C3764 C3765 1.377 . S
C3764 C3766 1.384 1_554 S
C3765 C3764 1.377 . S
C3765 C3771 1.390 1_554 S
C3766 H3757 0.930 . S
C3766 C3764 1.384 1_556 S
C3766 C3767 1.372 . S
C3767 C3766 1.372 . S
C3767 C3768 1.400 . S
C3767 C3772 1.490 . S
C3768 H3758 0.930 . S
C3768 C3767 1.400 . S
C3768 C3771 1.386 . S
H3769 C3785 0.930 . S
H3770 C3786 0.931 . S
C3771 H3759 0.929 1_556 S
C3771 C3765 1.390 1_556 S
C3771 C3768 1.386 . S
C3772 C3767 1.490 . S
C3772 C3774 1.395 . S
C3772 C3775 1.403 . S
H3773 C3779 0.930 . S
C3774 H3760 0.930 . S
C3774 C3772 1.395 . S
C3774 C3777 1.403 . S
C3775 C3772 1.403 . S
C3775 C3776 1.524 . S
C3775 C3779 1.400 . S
C3776 H3761 0.960 . S
C3776 H3762 0.960 . S
C3776 H3763 0.960 . S
C3776 C3775 1.524 . S
C3777 C3774 1.403 . S
C3777 C3778 1.392 . S
C3777 C3781 1.495 . S
C3778 C3777 1.392 . S
C3778 C3779 1.385 . S
C3778 C3780 1.478 . S
C3779 H3773 0.930 . S
C3779 C3775 1.400 . S
C3779 C3778 1.385 . S
C3780 C3778 1.478 . S
C3780 C3782 1.381 . S
C3780 C3786 1.383 . S
C3781 C3777 1.495 . S
C3781 H3787 0.959 . S
C3781 H3788 0.961 . S
C3781 H3789 0.960 . S
C3782 C3780 1.381 . S
C3782 C3783 1.394 . S
C3782 H3790 0.930 . S
C3783 C3782 1.394 . S
C3783 C3784 1.383 . S
C3783 H3791 0.929 . S
C3784 C3783 1.383 . S
C3784 C3785 1.377 . S
C3785 H3769 0.930 . S
C3785 C3784 1.377 . S
C3785 C3786 1.379 . S
C3786 H3770 0.931 . S
C3786 C3780 1.383 . S
C3786 C3785 1.379 . S
H3787 C3781 0.959 . S
H3788 C3781 0.961 . S
H3789 C3781 0.960 . S
H3790 C3782 0.930 . S
H3791 C3783 0.929 . S
H3792 C3800 0.929 . S
H3793 C3802 0.930 . S
H3794 C3804 0.930 . S
H3795 C3807 0.929 . S
H3796 C3810 0.930 . S
H3797 C3812 0.960 . S
H3798 C3812 0.960 . S
H3799 C3812 0.960 . S
C3800 H3792 0.929 . S
C3800 C3801 1.377 . S
C3800 C3802 1.384 . S
C3801 C3800 1.377 . S
C3801 C3807 1.390 . S
C3802 H3793 0.930 . S
C3802 C3800 1.384 . S
C3802 C3803 1.372 . S
C3803 C3802 1.372 . S
C3803 C3804 1.400 . S
C3803 C3808 1.490 . S
C3804 H3794 0.930 . S
C3804 C3803 1.400 . S
C3804 C3807 1.386 . S
H3805 C3821 0.930 . S
H3806 C3822 0.931 . S
C3807 H3795 0.929 . S
C3807 C3801 1.390 . S
C3807 C3804 1.386 . S
C3808 C3803 1.490 . S
C3808 C3810 1.395 . S
C3808 C3811 1.403 . S
H3809 C3815 0.930 . S
C3810 H3796 0.930 . S
C3810 C3808 1.395 . S
C3810 C3813 1.403 . S
C3811 C3808 1.403 . S
C3811 C3812 1.524 . S
C3811 C3815 1.400 . S
C3812 H3797 0.960 . S
C3812 H3798 0.960 . S
C3812 H3799 0.960 . S
C3812 C3811 1.524 . S
C3813 C3810 1.403 . S
C3813 C3814 1.392 . S
C3813 C3817 1.495 . S
C3814 C3813 1.392 . S
C3814 C3815 1.385 . S
C3814 C3816 1.478 . S
C3815 H3809 0.930 . S
C3815 C3811 1.400 . S
C3815 C3814 1.385 . S
C3816 C3814 1.478 . S
C3816 C3818 1.381 . S
C3816 C3822 1.383 . S
C3817 C3813 1.495 . S
C3817 H3823 0.959 . S
C3817 H3824 0.961 . S
C3817 H3825 0.960 . S
C3818 C3816 1.381 . S
C3818 C3819 1.394 . S
C3818 H3826 0.930 . S
C3819 C3818 1.394 . S
C3819 C3820 1.383 . S
C3819 H3827 0.929 . S
C3820 C3819 1.383 . S
C3820 C3821 1.377 . S
C3821 H3805 0.930 . S
C3821 C3820 1.377 . S
C3821 C3822 1.379 . S
C3822 H3806 0.931 . S
C3822 C3816 1.383 . S
C3822 C3821 1.379 . S
H3823 C3817 0.959 . S
H3824 C3817 0.961 . S
H3825 C3817 0.960 . S
H3826 C3818 0.930 . S
H3827 C3819 0.929 . S
H3828 C3836 0.929 . S
H3829 C3838 0.930 . S
H3830 C3840 0.930 . S
H3831 C3843 0.929 . S
H3832 C3846 0.930 . S
H3833 C3848 0.960 . S
H3834 C3848 0.960 . S
H3835 C3848 0.960 . S
C3836 H3828 0.929 . S
C3836 C3837 1.377 . S
C3836 C3838 1.384 . S
C3837 C3836 1.377 . S
C3837 C3843 1.390 . S
C3838 H3829 0.930 . S
C3838 C3836 1.384 . S
C3838 C3839 1.372 . S
C3839 C3838 1.372 . S
C3839 C3840 1.400 . S
C3839 C3844 1.490 . S
C3840 H3830 0.930 . S
C3840 C3839 1.400 . S
C3840 C3843 1.386 . S
H3841 C3857 0.930 . S
H3842 C3858 0.931 . S
C3843 H3831 0.929 . S
C3843 C3837 1.390 . S
C3843 C3840 1.386 . S
C3844 C3839 1.490 . S
C3844 C3846 1.395 . S
C3844 C3847 1.403 . S
H3845 C3851 0.930 . S
C3846 H3832 0.930 . S
C3846 C3844 1.395 . S
C3846 C3849 1.403 . S
C3847 C3844 1.403 . S
C3847 C3848 1.524 . S
C3847 C3851 1.400 . S
C3848 H3833 0.960 . S
C3848 H3834 0.960 . S
C3848 H3835 0.960 . S
C3848 C3847 1.524 . S
C3849 C3846 1.403 . S
C3849 C3850 1.392 . S
C3849 C3853 1.495 . S
C3850 C3849 1.392 . S
C3850 C3851 1.385 . S
C3850 C3852 1.478 . S
C3851 H3845 0.930 . S
C3851 C3847 1.400 . S
C3851 C3850 1.385 . S
C3852 C3850 1.478 . S
C3852 C3854 1.381 . S
C3852 C3858 1.383 . S
C3853 C3849 1.495 . S
C3853 H3859 0.959 . S
C3853 H3860 0.961 . S
C3853 H3861 0.960 . S
C3854 C3852 1.381 . S
C3854 C3855 1.394 . S
C3854 H3862 0.930 . S
C3855 C3854 1.394 . S
C3855 C3856 1.383 . S
C3855 H3863 0.929 . S
C3856 C3855 1.383 . S
C3856 C3857 1.377 . S
C3857 H3841 0.930 . S
C3857 C3856 1.377 . S
C3857 C3858 1.379 . S
C3858 H3842 0.931 . S
C3858 C3852 1.383 . S
C3858 C3857 1.379 . S
H3859 C3853 0.959 . S
H3860 C3853 0.961 . S
H3861 C3853 0.960 . S
H3862 C3854 0.930 . S
H3863 C3855 0.929 . S
H3864 C3872 0.929 . S
H3865 C3874 0.930 . S
H3866 C3876 0.930 . S
H3867 C3879 0.929 . S
H3868 C3882 0.930 . S
H3869 C3884 0.960 . S
H3870 C3884 0.960 . S
H3871 C3884 0.960 . S
C3872 H3864 0.929 . S
C3872 C3873 1.377 . S
C3872 C3874 1.384 . S
C3873 C3872 1.377 . S
C3873 C3879 1.390 . S
C3874 H3865 0.930 . S
C3874 C3872 1.384 . S
C3874 C3875 1.372 . S
C3875 C3874 1.372 . S
C3875 C3876 1.400 . S
C3875 C3880 1.490 . S
C3876 H3866 0.930 . S
C3876 C3875 1.400 . S
C3876 C3879 1.386 . S
H3877 C3893 0.930 . S
H3878 C3894 0.931 . S
C3879 H3867 0.929 . S
C3879 C3873 1.390 . S
C3879 C3876 1.386 . S
C3880 C3875 1.490 . S
C3880 C3882 1.395 . S
C3880 C3883 1.403 . S
H3881 C3887 0.930 . S
C3882 H3868 0.930 . S
C3882 C3880 1.395 . S
C3882 C3885 1.403 . S
C3883 C3880 1.403 . S
C3883 C3884 1.524 . S
C3883 C3887 1.400 . S
C3884 H3869 0.960 . S
C3884 H3870 0.960 . S
C3884 H3871 0.960 . S
C3884 C3883 1.524 . S
C3885 C3882 1.403 . S
C3885 C3886 1.392 . S
C3885 C3889 1.495 . S
C3886 C3885 1.392 . S
C3886 C3887 1.385 . S
C3886 C3888 1.478 . S
C3887 H3881 0.930 . S
C3887 C3883 1.400 . S
C3887 C3886 1.385 . S
C3888 C3886 1.478 . S
C3888 C3890 1.381 . S
C3888 C3894 1.383 . S
C3889 C3885 1.495 . S
C3889 H3895 0.959 . S
C3889 H3896 0.961 . S
C3889 H3897 0.960 . S
C3890 C3888 1.381 . S
C3890 C3891 1.394 . S
C3890 H3898 0.930 . S
C3891 C3890 1.394 . S
C3891 C3892 1.383 . S
C3891 H3899 0.929 . S
C3892 C3891 1.383 . S
C3892 C3893 1.377 . S
C3893 H3877 0.930 . S
C3893 C3892 1.377 . S
C3893 C3894 1.379 . S
C3894 H3878 0.931 . S
C3894 C3888 1.383 . S
C3894 C3893 1.379 . S
H3895 C3889 0.959 . S
H3896 C3889 0.961 . S
H3897 C3889 0.960 . S
H3898 C3890 0.930 . S
H3899 C3891 0.929 . S
H3900 C3908 0.929 . S
H3901 C3910 0.930 . S
H3902 C3912 0.930 . S
H3903 C3915 0.929 . S
H3904 C3918 0.930 . S
H3905 C3920 0.960 . S
H3906 C3920 0.960 . S
H3907 C3920 0.960 . S
C3908 H3900 0.929 . S
C3908 C3909 1.377 . S
C3908 C3910 1.384 . S
C3909 C3908 1.377 . S
C3909 C3915 1.390 . S
C3910 H3901 0.930 . S
C3910 C3908 1.384 . S
C3910 C3911 1.372 . S
C3911 C3910 1.372 . S
C3911 C3912 1.400 . S
C3911 C3916 1.490 . S
C3912 H3902 0.930 . S
C3912 C3911 1.400 . S
C3912 C3915 1.386 . S
H3913 C3929 0.930 . S
H3914 C3930 0.931 . S
C3915 H3903 0.929 . S
C3915 C3909 1.390 . S
C3915 C3912 1.386 . S
C3916 C3911 1.490 . S
C3916 C3918 1.395 . S
C3916 C3919 1.403 . S
H3917 C3923 0.930 . S
C3918 H3904 0.930 . S
C3918 C3916 1.395 . S
C3918 C3921 1.403 . S
C3919 C3916 1.403 . S
C3919 C3920 1.524 . S
C3919 C3923 1.400 . S
C3920 H3905 0.960 . S
C3920 H3906 0.960 . S
C3920 H3907 0.960 . S
C3920 C3919 1.524 . S
C3921 C3918 1.403 . S
C3921 C3922 1.392 . S
C3921 C3925 1.495 . S
C3922 C3921 1.392 . S
C3922 C3923 1.385 . S
C3922 C3924 1.478 . S
C3923 H3917 0.930 . S
C3923 C3919 1.400 . S
C3923 C3922 1.385 . S
C3924 C3922 1.478 . S
C3924 C3926 1.381 . S
C3924 C3930 1.383 . S
C3925 C3921 1.495 . S
C3925 H3931 0.959 . S
C3925 H3932 0.961 . S
C3925 H3933 0.960 . S
C3926 C3924 1.381 . S
C3926 C3927 1.394 . S
C3926 H3934 0.930 . S
C3927 C3926 1.394 . S
C3927 C3928 1.383 . S
C3927 H3935 0.929 . S
C3928 C3927 1.383 . S
C3928 C3929 1.377 . S
C3929 H3913 0.930 . S
C3929 C3928 1.377 . S
C3929 C3930 1.379 . S
C3930 H3914 0.931 . S
C3930 C3924 1.383 . S
C3930 C3929 1.379 . S
H3931 C3925 0.959 . S
H3932 C3925 0.961 . S
H3933 C3925 0.960 . S
H3934 C3926 0.930 . S
H3935 C3927 0.929 . S
C1065 C106 0.825 . S
C1084 C7 0.818 . S
C1101 C40 0.823 . S
C1120 C73 0.820 . S
C1137 C139 0.825 . S
C1156 C238 0.827 . S
C1173 C172 0.824 . S
C1192 C205 0.824 . S
C1209 C370 0.824 . S
C1228 C271 0.819 . S
C1245 C304 0.826 . S
C1264 C337 0.823 . S
C1281 C502 0.826 . S
C1300 C403 0.819 . S
C1317 C436 0.823 . S
C1336 C469 0.828 . S
C1353 C535 0.825 . S
C1372 C634 0.830 . S
C1389 C601 0.826 . S
C1408 C568 0.828 . S
C1425 C766 0.824 . S
C1444 C667 0.829 . S
C1461 C733 0.823 . S
C1480 C700 0.831 . S
C1497 C898 0.823 . S
C1516 C799 0.824 . S
C1533 C865 0.825 . S
C1552 C832 0.817 . S
C1569 C1030 0.825 . S
C1588 C931 0.826 . S
C1605 C997 0.825 . S
C1624 C964 0.819 . S
C1641 C648 0.561 . S
C1660 C21 0.558 . S
C1677 C615 0.572 . S
C1696 C54 0.581 . S
C1713 C582 0.562 . S
C1732 C87 0.550 . S
C1749 C549 0.563 . S
C1768 C120 0.584 . S
C1785 C780 0.572 . S
C1804 C153 0.542 . S
C1821 C747 0.563 . S
C1840 C186 0.582 . S
C1857 C219 0.570 . S
C1876 C714 0.555 . S
C1893 C681 0.570 . S
C1912 C252 0.557 . S
C1929 C912 0.561 . S
C1948 C285 0.553 . S
C1965 C879 0.563 . S
C1984 C318 0.580 . S
C2001 C351 0.571 . S
C2020 C846 0.589 . S
C2037 C384 0.561 . S
C2056 C813 0.557 . S
C2073 C1044 0.571 . S
C2092 C417 0.551 . S
C2109 C1011 0.571 . S
C2128 C450 0.550 . S
C2145 C483 0.570 . S
C2164 C978 0.549 . S
C2181 C945 0.570 . S
C2200 C516 0.560 . S
C2217 N13 1.605 . S
C2236 N46 1.572 . S
C2253 N79 1.598 . S
C2272 N112 1.585 . S
C2289 N145 1.596 . S
C2308 N178 1.620 . S
C2325 N211 1.603 . S
C2344 N244 1.611 . S
C2361 N277 1.596 . S
C2380 N310 1.619 . S
C2397 N376 1.597 . S
C2416 N343 1.619 . S
C2433 N442 1.600 . S
C2452 N409 1.622 . S
C2469 N475 1.593 . S
C2488 N508 1.604 . S
C2505 N574 1.604 . S
C2524 N541 1.577 . S
C2541 N640 1.604 . S
C2560 N607 1.585 . S
C2577 N673 1.605 . S
C2596 N706 1.593 . S
C2613 N772 1.603 . S
C2632 N739 1.612 . S
C2649 N805 1.593 . S
C2668 N838 1.620 . S
C2685 N904 1.600 . S
C2704 N871 1.576 . S
C2721 N937 1.605 . S
C2740 N970 1.597 . S
C2757 N1003 1.605 . S
C2776 N1036 1.593 . S
C2793 N398 1.855 . S
C2812 N2 1.852 . S
C2829 N695 1.855 . S
C2848 N35 1.847 . S
C2865 N68 1.855 . S
C2884 N200 1.851 . S
C2901 N1025 1.858 . S
C2920 N101 1.852 . S
C2937 N266 1.857 . S
C2956 N134 1.850 . S
C2973 N563 1.855 . S
C2992 N167 1.849 . S
C3009 N893 1.858 . S
C3028 N233 1.860 . S
C3045 N299 1.856 . S
C3064 N959 1.857 . S
C3081 N464 1.858 . S
C3100 N332 1.857 . S
C3117 N761 1.858 . S
C3136 N365 1.856 . S
C3153 N431 1.855 . S
C3172 N827 1.853 . S
C3189 N497 1.856 . S
C3208 N629 1.853 . S
C3225 N926 1.855 . S
C3244 N530 1.846 . S
C3261 N596 1.858 . S
C3280 N728 1.851 . S
C3297 N662 1.857 . S
C3316 N794 1.859 . S
C3333 N992 1.857 . S
C3352 N860 1.858 . S
C3369 C18 1.402 . S
C3388 C117 1.400 . S
C3405 C51 1.399 . S
C3424 C84 1.400 . S
C3441 C249 1.400 . S
C3460 C150 1.392 . S
C3477 C183 1.399 . S
C3496 C216 1.400 . S
C3513 C282 1.398 . S
C3532 C381 1.391 . S
C3549 C348 1.401 . S
C3568 C315 1.396 . S
C3585 C414 1.400 . S
C3604 C513 1.397 . S
C3621 C447 1.398 . S
C3640 C480 1.402 . S
C3657 C546 1.399 . S
C3676 C645 1.387 . S
C3693 C579 1.401 . S
C3712 C612 1.406 . S
C3729 C678 1.399 . S
C3748 C777 1.396 . S
C3765 C711 1.401 . S
C3784 C744 1.389 . S
C3801 C810 1.399 . S
C3820 C909 1.389 . S
C3837 C876 1.398 . S
C3856 C843 1.388 . S
C3873 C942 1.399 . S
C3892 C1041 1.399 . S
C3909 C975 1.402 . S
C3928 C1008 1.387 . S
