# Generated by pormake.
# Topology uoz, (4)-cn, num edge types: 1
# Building blocks:
#     Node 0, Type 0, BuildingBlock: CEKHIL_clean_sbu_0, # of connection points: 4
#     Node 1, Type 0, BuildingBlock: CEKHIL_clean_sbu_0, # of connection points: 4
#     Node 2, Type 0, BuildingBlock: CEKHIL_clean_sbu_0, # of connection points: 4
#     Node 3, Type 0, BuildingBlock: CEKHIL_clean_sbu_0, # of connection points: 4
#     Node 4, Type 0, BuildingBlock: CEKHIL_clean_sbu_0, # of connection points: 4
#     Node 5, Type 0, BuildingBlock: CEKHIL_clean_sbu_0, # of connection points: 4
#     Node 6, Type 0, BuildingBlock: CEKHIL_clean_sbu_0, # of connection points: 4
#     Node 7, Type 0, BuildingBlock: CEKHIL_clean_sbu_0, # of connection points: 4
#     Node 8, Type 0, BuildingBlock: CEKHIL_clean_sbu_0, # of connection points: 4
#     Node 9, Type 0, BuildingBlock: CEKHIL_clean_sbu_0, # of connection points: 4
#     Node 10, Type 0, BuildingBlock: CEKHIL_clean_sbu_0, # of connection points: 4
#     Node 11, Type 0, BuildingBlock: CEKHIL_clean_sbu_0, # of connection points: 4
#     Node 12, Type 0, BuildingBlock: CEKHIL_clean_sbu_0, # of connection points: 4
#     Node 13, Type 0, BuildingBlock: CEKHIL_clean_sbu_0, # of connection points: 4
#     Node 14, Type 0, BuildingBlock: CEKHIL_clean_sbu_0, # of connection points: 4
#     Node 15, Type 0, BuildingBlock: CEKHIL_clean_sbu_0, # of connection points: 4
#     Edge 16, Type (0, 0), BuildingBlock: MIFKUJ_clean_linker_0, # of connection points: 2
#     Edge 17, Type (0, 0), BuildingBlock: MIFKUJ_clean_linker_0, # of connection points: 2
#     Edge 18, Type (0, 0), BuildingBlock: MIFKUJ_clean_linker_0, # of connection points: 2
#     Edge 19, Type (0, 0), BuildingBlock: MIFKUJ_clean_linker_0, # of connection points: 2
#     Edge 20, Type (0, 0), BuildingBlock: MIFKUJ_clean_linker_0, # of connection points: 2
#     Edge 21, Type (0, 0), BuildingBlock: MIFKUJ_clean_linker_0, # of connection points: 2
#     Edge 22, Type (0, 0), BuildingBlock: MIFKUJ_clean_linker_0, # of connection points: 2
#     Edge 23, Type (0, 0), BuildingBlock: MIFKUJ_clean_linker_0, # of connection points: 2
#     Edge 24, Type (0, 0), BuildingBlock: MIFKUJ_clean_linker_0, # of connection points: 2
#     Edge 25, Type (0, 0), BuildingBlock: MIFKUJ_clean_linker_0, # of connection points: 2
#     Edge 26, Type (0, 0), BuildingBlock: MIFKUJ_clean_linker_0, # of connection points: 2
#     Edge 27, Type (0, 0), BuildingBlock: MIFKUJ_clean_linker_0, # of connection points: 2
#     Edge 28, Type (0, 0), BuildingBlock: MIFKUJ_clean_linker_0, # of connection points: 2
#     Edge 29, Type (0, 0), BuildingBlock: MIFKUJ_clean_linker_0, # of connection points: 2
#     Edge 30, Type (0, 0), BuildingBlock: MIFKUJ_clean_linker_0, # of connection points: 2
#     Edge 31, Type (0, 0), BuildingBlock: MIFKUJ_clean_linker_0, # of connection points: 2
#     Edge 32, Type (0, 0), BuildingBlock: MIFKUJ_clean_linker_0, # of connection points: 2
#     Edge 33, Type (0, 0), BuildingBlock: MIFKUJ_clean_linker_0, # of connection points: 2
#     Edge 34, Type (0, 0), BuildingBlock: MIFKUJ_clean_linker_0, # of connection points: 2
#     Edge 35, Type (0, 0), BuildingBlock: MIFKUJ_clean_linker_0, # of connection points: 2
#     Edge 36, Type (0, 0), BuildingBlock: MIFKUJ_clean_linker_0, # of connection points: 2
#     Edge 37, Type (0, 0), BuildingBlock: MIFKUJ_clean_linker_0, # of connection points: 2
#     Edge 38, Type (0, 0), BuildingBlock: MIFKUJ_clean_linker_0, # of connection points: 2
#     Edge 39, Type (0, 0), BuildingBlock: MIFKUJ_clean_linker_0, # of connection points: 2
#     Edge 40, Type (0, 0), BuildingBlock: MIFKUJ_clean_linker_0, # of connection points: 2
#     Edge 41, Type (0, 0), BuildingBlock: MIFKUJ_clean_linker_0, # of connection points: 2
#     Edge 42, Type (0, 0), BuildingBlock: MIFKUJ_clean_linker_0, # of connection points: 2
#     Edge 43, Type (0, 0), BuildingBlock: MIFKUJ_clean_linker_0, # of connection points: 2
#     Edge 44, Type (0, 0), BuildingBlock: MIFKUJ_clean_linker_0, # of connection points: 2
#     Edge 45, Type (0, 0), BuildingBlock: MIFKUJ_clean_linker_0, # of connection points: 2
#     Edge 46, Type (0, 0), BuildingBlock: MIFKUJ_clean_linker_0, # of connection points: 2
#     Edge 47, Type (0, 0), BuildingBlock: MIFKUJ_clean_linker_0, # of connection points: 2
# Relax obj value: 0.191
# Max RMSD: 0.171
# Mean RMSD: 0.171
data_MOF--net-uoz--node1-CEKHIL_clean_sbu_0--edge1-MIFKUJ_clean_linker_0
_symmetry_space_group_name_H-M    P1
_symmetry_Int_Tables_number       1
_symmetry_cell_setting            triclinic
loop_
_symmetry_equiv_pos_as_xyz
'x, y, z'
_cell_length_a     78.130244
_cell_length_b     78.135014
_cell_length_c     27.112848
_cell_angle_alpha  89.996043
_cell_angle_beta   89.93694
_cell_angle_gamma 90.011501
loop_
_atom_site_label
_atom_site_type_symbol
_atom_site_fract_x
_atom_site_fract_y
_atom_site_fract_z
_atom_type_partial_charge
Co0 Co 0.02247 0.587 0.31079 0.0
O1 O 0.01036 0.57088 0.3522 0.0
O2 O 0.03655 0.58011 0.36691 0.0
C3 C 1.00053 0.60556 0.29845 0.0
O4 O 0.03862 0.60413 0.27654 0.0
Co5 Co 0.00995 0.59262 0.20221 0.0
O6 O 0.02689 0.61147 0.20355 0.0
C7 C 0.02672 0.56056 0.2307 0.0
C8 C 0.02391 0.57014 0.37967 0.0
C9 C 0.03836 0.61324 0.23663 0.0
O10 O 0.03215 0.56739 0.27092 0.0
O11 O 0.01606 0.56782 0.20169 0.0
O12 O 0.00948 0.60648 0.33889 0.0
O13 O 0.00394 0.5926 0.27106 0.0
Co14 Co 0.69392 0.74477 0.56617 0.0
O15 O 0.71267 0.73285 0.59826 0.0
O16 O 0.70234 0.7577 0.6227 0.0
C17 C 0.67684 0.72146 0.5564 0.0
O18 O 0.67456 0.76085 0.54413 0.0
Co19 Co 0.6809 0.73552 0.46044 0.0
O20 O 0.66049 0.74881 0.48061 0.0
C21 C 0.71177 0.75734 0.47356 0.0
C22 C 0.71349 0.74553 0.62913 0.0
C23 C 0.66179 0.76019 0.514 0.0
O24 O 0.71052 0.75698 0.52097 0.0
O25 O 0.70177 0.74922 0.4444 0.0
O26 O 0.67696 0.72961 0.59831 0.0
O27 O 0.68757 0.7269 0.52411 0.0
Co28 Co 0.53929 0.4183 0.81327 0.0
O29 O 0.55094 0.43372 0.85805 0.0
O30 O 0.52406 0.42541 0.86652 0.0
C31 C 0.56079 0.39896 0.80385 0.0
O32 O 0.52331 0.40208 0.77542 0.0
Co33 Co 0.55403 0.4125 0.70709 0.0
O34 O 0.5363 0.39432 0.70459 0.0
C35 C 0.53674 0.44476 0.73187 0.0
C36 C 0.53669 0.43478 0.88243 0.0
C37 C 0.52402 0.39306 0.73547 0.0
O38 O 0.53112 0.43835 0.7725 0.0
O39 O 0.54761 0.43722 0.70402 0.0
O40 O 0.55083 0.39806 0.84238 0.0
O41 O 0.55852 0.41224 0.77682 0.0
Co42 Co 0.86623 0.25932 0.06854 0.0
O43 O 0.84957 0.272 0.10687 0.0
O44 O 0.85781 0.24569 0.12398 0.0
C45 C 0.88571 0.28065 0.05986 0.0
O46 O 0.88339 0.24241 0.03799 0.0
Co47 Co 0.87528 0.2715 0.96117 0.0
O48 O 0.89178 0.25233 0.96349 0.0
C49 C 0.8436 0.25194 0.97966 0.0
C50 C 0.84799 0.25862 0.13486 0.0
C51 C 0.89238 0.24129 0.99806 0.0
O52 O 0.84739 0.24982 0.02542 0.0
O53 O 0.85237 0.26098 0.94954 0.0
O54 O 0.88548 0.2715 0.09994 0.0
O55 O 0.87339 0.27782 0.02962 0.0
Co56 Co 0.02089 0.41557 0.80841 0.0
O57 O 0.00898 0.43206 0.7678 0.0
O58 O 0.03537 0.4233 0.75393 0.0
C59 C 0.99889 0.39673 0.81664 0.0
O60 O 0.03703 0.39843 0.84205 0.0
Co61 Co 0.00718 0.40781 0.91482 0.0
O62 O 0.02504 0.38975 0.91347 0.0
C63 C 0.02479 0.44026 0.89333 0.0
C64 C 0.02274 0.43326 0.74124 0.0
C65 C 0.0369 0.38894 0.88114 0.0
O66 O 0.03003 0.43462 0.85138 0.0
O67 O 0.014 0.43238 0.92064 0.0
O68 O 0.00852 0.39618 0.77744 0.0
O69 O 1.00188 0.4093 0.84578 0.0
Co70 Co 0.86524 0.74903 0.06754 0.0
O71 O 0.84765 0.73634 0.03268 0.0
O72 O 0.85861 0.76078 0.007 0.0
C73 C 0.88254 0.7265 0.08644 0.0
O74 O 0.884 0.76545 0.0927 0.0
Co75 Co 0.87237 0.74175 0.17917 0.0
O76 O 0.89298 0.75567 0.16642 0.0
C77 C 0.84259 0.76247 0.15083 0.0
C78 C 0.84764 0.74847 0.99998 0.0
C79 C 0.89445 0.76574 0.12972 0.0
O80 O 0.84695 0.76211 0.10503 0.0
O81 O 0.8504 0.75438 0.18497 0.0
O82 O 0.88324 0.73339 0.04274 0.0
O83 O 0.87037 0.7321 0.11404 0.0
Co84 Co 0.53386 0.58936 0.31373 0.0
O85 O 0.54738 0.57214 0.28004 0.0
O86 O 0.52234 0.5815 0.25404 0.0
C87 C 0.55526 0.60823 0.33026 0.0
O88 O 0.51635 0.60703 0.33872 0.0
Co89 Co 0.54172 0.59703 0.4253 0.0
O90 O 0.52151 0.61217 0.41944 0.0
C91 C 0.52538 0.56482 0.39639 0.0
C92 C 0.53514 0.57104 0.24787 0.0
C93 C 0.51281 0.61441 0.3802 0.0
O94 O 0.52221 0.57071 0.35309 0.0
O95 O 0.53479 0.57245 0.42805 0.0
O96 O 0.54819 0.60808 0.28682 0.0
O97 O 0.5506 0.59603 0.35905 0.0
Co98 Co 0.69115 0.259 0.56074 0.0
O99 O 0.70685 0.27221 0.52023 0.0
O100 O 0.7017 0.24467 0.5103 0.0
C101 C 0.6694 0.27823 0.5628 0.0
O102 O 0.67546 0.24119 0.59351 0.0
Co103 Co 0.67946 0.27265 0.66414 0.0
O104 O 0.66632 0.25099 0.66731 0.0
C105 C 0.71442 0.25971 0.65014 0.0
C106 C 0.71018 0.25819 0.49641 0.0
C107 C 0.66677 0.23955 0.63382 0.0
O108 O 0.71036 0.25327 0.60799 0.0
O109 O 0.70453 0.26963 0.67457 0.0
O110 O 0.67111 0.26821 0.52476 0.0
O111 O 0.6815 0.27744 0.59464 0.0
Co112 Co 0.36765 0.24712 0.56136 0.0
O113 O 0.34981 0.23407 0.52891 0.0
O114 O 0.3602 0.25842 0.50069 0.0
C115 C 0.38531 0.22475 0.57891 0.0
O116 O 0.3861 0.26413 0.58462 0.0
Co117 Co 0.37661 0.23971 0.67239 0.0
O118 O 0.39444 0.25727 0.66193 0.0
C119 C 0.3457 0.25963 0.64655 0.0
C120 C 0.34921 0.24601 0.4957 0.0
C121 C 0.39547 0.2665 0.62332 0.0
O122 O 0.34958 0.25984 0.6004 0.0
O123 O 0.35406 0.25139 0.67939 0.0
O124 O 0.38579 0.23186 0.53549 0.0
O125 O 0.37343 0.23028 0.6075 0.0
Co126 Co 0.19268 0.75982 0.061 0.0
O127 O 0.20958 0.77262 0.02382 0.0
O128 O 0.20047 0.7469 1.00339 0.0
C129 C 0.174 0.78172 0.07367 0.0
O130 O 0.17512 0.7429 0.08997 0.0
Co131 Co 0.18406 0.77038 0.17009 0.0
O132 O 0.16631 0.75252 0.16433 0.0
C133 C 0.21521 0.75025 0.14825 0.0
C134 C 0.21072 0.75966 0.99409 0.0
C135 C 0.16567 0.74176 0.12905 0.0
O136 O 0.21153 0.74924 0.10207 0.0
O137 O 0.20651 0.75876 0.17977 0.0
O138 O 0.17362 0.77324 0.03235 0.0
O139 O 0.18636 0.7778 0.10271 0.0
Co140 Co 0.19414 0.2467 0.06401 0.0
O141 O 0.21044 0.23277 0.10021 0.0
O142 O 0.20335 0.25918 0.12031 0.0
C143 C 0.17344 0.22658 0.05302 0.0
O144 O 0.1777 0.26493 0.03639 0.0
Co145 Co 0.18459 0.23692 0.95518 0.0
O146 O 0.17102 0.25831 0.95761 0.0
C147 C 0.2189 0.24915 0.97948 0.0
C148 C 0.21273 0.24578 0.1293 0.0
C149 C 0.16997 0.26804 0.9952 0.0
O150 O 0.21344 0.2553 0.02068 0.0
O151 O 0.20995 0.23931 0.95208 0.0
O152 O 0.17445 0.2347 0.09488 0.0
O153 O 0.18577 0.22952 0.02287 0.0
Co154 Co 0.36815 0.76538 0.57193 0.0
O155 O 0.35195 0.77692 0.61474 0.0
O156 O 0.35757 0.7493 0.61806 0.0
C157 C 0.38922 0.78532 0.57673 0.0
O158 O 0.3845 0.74912 0.53528 0.0
Co159 Co 0.38099 0.78278 0.4746 0.0
O160 O 0.39746 0.76351 0.47368 0.0
C161 C 0.34638 0.76763 0.47953 0.0
C162 C 0.34878 0.7622 0.63493 0.0
C163 C 0.39566 0.75013 0.50012 0.0
O164 O 0.34947 0.76081 0.52193 0.0
O165 O 0.35664 0.77796 0.45792 0.0
O166 O 0.38784 0.77379 0.61121 0.0
O167 O 0.37732 0.78518 0.54428 0.0
Co168 Co 0.52028 0.08977 0.82374 0.0
O169 O 0.50831 0.07368 0.86586 0.0
O170 O 0.53567 0.08014 0.87322 0.0
C171 C 0.50012 0.11069 0.82414 0.0
O172 O 0.53694 0.10599 0.78814 0.0
Co173 Co 0.50436 0.10082 0.72267 0.0
O174 O 0.52417 0.11662 0.72025 0.0
C175 C 0.51876 0.06623 0.73517 0.0
C176 C 0.5227 0.07112 0.88859 0.0
C177 C 0.53678 0.11593 0.75002 0.0
O178 O 0.52591 0.07055 0.77616 0.0
O179 O 0.5082 0.07584 0.71208 0.0
O180 O 0.51098 0.10961 0.86037 0.0
O181 O 0.50085 0.09849 0.79255 0.0
Co182 Co 0.04112 0.91527 0.318 0.0
O183 O 0.05313 0.93162 0.35922 0.0
O184 O 0.02559 0.92587 0.36554 0.0
C185 C 0.06083 0.89397 0.32127 0.0
O186 O 0.02447 0.89892 0.28334 0.0
Co187 Co 0.05757 0.90285 0.21864 0.0
O188 O 0.03673 0.88849 0.21409 0.0
C189 C 0.04107 0.93674 0.22403 0.0
C190 C 0.03866 0.93473 0.38096 0.0
C191 C 0.02427 0.88942 0.24436 0.0
O192 O 0.03563 0.93375 0.26813 0.0
O193 O 0.05135 0.92681 0.20098 0.0
O194 O 0.04983 0.89577 0.357 0.0
O195 O 0.06061 0.90583 0.28852 0.0
Co196 Co 0.52189 0.91456 0.31029 0.0
O197 O 0.50992 0.93167 0.27198 0.0
O198 O 0.53618 0.92294 0.25615 0.0
C199 C 0.49993 0.89572 0.31669 0.0
O200 O 0.5381 0.89684 0.34146 0.0
Co201 Co 0.50889 0.90495 0.41604 0.0
O202 O 0.52446 0.8852 0.40665 0.0
C203 C 0.52808 0.93702 0.39984 0.0
C204 C 0.52358 0.93318 0.24511 0.0
C205 C 0.5368 0.88545 0.37587 0.0
O206 O 0.53118 0.93307 0.35469 0.0
O207 O 0.51863 0.9282 0.42882 0.0
O208 O 0.50952 0.89573 0.27737 0.0
O209 O 0.50293 0.90781 0.3476 0.0
Co210 Co 0.03682 0.08662 0.81963 0.0
O211 O 0.04851 0.06871 0.78345 0.0
O212 O 0.02394 0.08006 0.76072 0.0
C213 C 0.06013 0.10328 0.83441 0.0
O214 O 0.02128 0.1057 0.84731 0.0
Co215 Co 0.04688 0.0943 0.92956 0.0
O216 O 0.03284 0.11496 0.9186 0.0
C217 C 0.02375 0.06546 0.90615 0.0
C218 C 0.03596 0.06889 0.7522 0.0
C219 C 0.0218 0.11622 0.8842 0.0
O220 O 0.024 0.06888 0.85969 0.0
O221 O 0.0325 0.07348 0.93857 0.0
O222 O 0.05229 0.10426 0.79216 0.0
O223 O 0.05478 0.09131 0.86298 0.0
H224 H 0.14633 0.72446 0.06001 0.0
H225 H 0.12542 0.70146 0.07627 0.0
H226 H 0.13858 0.70254 0.23063 0.0
H227 H 0.15897 0.72556 0.215 0.0
H228 H 0.13532 0.66864 0.18952 0.0
H229 H 0.10534 0.72261 0.20095 0.0
H230 H 0.09587 0.75066 0.16944 0.0
H231 H 0.07023 0.72595 0.04885 0.0
H232 H 0.07982 0.69776 0.07921 0.0
H233 H 0.06497 0.62356 0.2971 0.0
H234 H 0.08732 0.64465 0.27827 0.0
H235 H 0.06522 0.6527 0.13435 0.0
H236 H 0.04276 0.63234 0.15325 0.0
H237 H 0.07366 0.68181 0.16843 0.0
H238 H 0.10273 0.62784 0.15577 0.0
H239 H 0.11283 0.59959 0.18402 0.0
H240 H 0.14053 0.62344 0.30221 0.0
H241 H 0.13041 0.65182 0.27503 0.0
C242 C 0.14484 0.71962 0.09721 0.0
C243 C 0.15416 0.72688 0.13626 0.0
C244 C 0.13291 0.70655 0.10651 0.0
C245 C 0.13044 0.70034 0.15475 0.0
C246 C 0.14029 0.7071 0.19321 0.0
C247 C 0.15187 0.72033 0.18418 0.0
C248 C 0.11697 0.6875 0.16621 0.0
C249 C 0.12182 0.6715 0.18518 0.0
C250 C 0.0994 0.69119 0.15998 0.0
C251 C 0.09348 0.7081 0.14199 0.0
C252 C 0.09782 0.72317 0.16745 0.0
C253 C 0.09241 0.73909 0.14985 0.0
C254 C 0.0825 0.74009 0.10708 0.0
C255 C 0.07794 0.72516 0.08191 0.0
C256 C 0.08336 0.70921 0.0993 0.0
C257 C 0.06487 0.62985 0.26151 0.0
C258 C 0.05205 0.6261 0.22676 0.0
C259 C 0.07773 0.64185 0.25061 0.0
C260 C 0.07818 0.65015 0.20447 0.0
C261 C 0.06526 0.64654 0.17016 0.0
C262 C 0.05239 0.63476 0.18112 0.0
C263 C 0.09191 0.6627 0.19149 0.0
C264 C 0.08713 0.67876 0.17247 0.0
C265 C 0.10957 0.65897 0.19724 0.0
C266 C 0.11566 0.64193 0.21367 0.0
C267 C 0.11087 0.62704 0.18801 0.0
C268 C 0.11662 0.61101 0.20379 0.0
C269 C 0.12728 0.60971 0.24497 0.0
C270 C 0.13225 0.62446 0.27038 0.0
C271 C 0.12652 0.64052 0.25478 0.0
H272 H 0.13172 0.59729 0.25712 0.0
H273 H 0.07832 0.75243 0.09351 0.0
H274 H 0.53312 0.85251 0.40512 0.0
H275 H 0.55543 0.83285 0.43265 0.0
H276 H 0.59401 0.87002 0.39373 0.0
H277 H 0.57153 0.88973 0.36548 0.0
H278 H 0.60538 0.83963 0.37189 0.0
H279 H 0.58165 0.86374 0.51686 0.0
H280 H 0.56022 0.8728 0.57839 0.0
H281 H 0.54384 0.8207 0.59609 0.0
H282 H 0.56512 0.81133 0.53445 0.0
H283 H 0.66815 0.79451 0.51567 0.0
H284 H 0.64786 0.81751 0.49532 0.0
H285 H 0.60695 0.78058 0.48726 0.0
H286 H 0.62727 0.75756 0.50641 0.0
H287 H 0.59884 0.81317 0.53729 0.0
H288 H 0.62384 0.79056 0.38602 0.0
H289 H 0.64833 0.78318 0.33267 0.0
H290 H 0.66486 0.83559 0.33403 0.0
H291 H 0.64059 0.84323 0.38807 0.0
C292 C 0.54638 0.85644 0.40214 0.0
C293 C 0.55058 0.87272 0.38373 0.0
C294 C 0.55914 0.84523 0.41817 0.0
C295 C 0.57644 0.8501 0.41676 0.0
C296 C 0.58076 0.866 0.39571 0.0
C297 C 0.56793 0.87722 0.37925 0.0
C298 C 0.58986 0.83856 0.43763 0.0
C299 C 0.60403 0.83409 0.40839 0.0
C300 C 0.58825 0.83123 0.48532 0.0
C301 C 0.5749 0.83686 0.52077 0.0
C302 C 0.57337 0.85423 0.53353 0.0
C303 C 0.56133 0.85941 0.56866 0.0
C304 C 0.55073 0.84732 0.5913 0.0
C305 C 0.55211 0.83004 0.5787 0.0
C306 C 0.56417 0.82479 0.54371 0.0
C307 C 0.65474 0.7914 0.51079 0.0
C308 C 0.64921 0.77429 0.5126 0.0
C309 C 0.64321 0.8045 0.49877 0.0
C310 C 0.62594 0.8007 0.48928 0.0
C311 C 0.62023 0.78376 0.49423 0.0
C312 C 0.6318 0.77065 0.50516 0.0
C313 C 0.61399 0.81409 0.4712 0.0
C314 C 0.60013 0.81886 0.50098 0.0
C315 C 0.6161 0.82197 0.42458 0.0
C316 C 0.63052 0.81742 0.39151 0.0
C317 C 0.63277 0.80048 0.37527 0.0
C318 C 0.6466 0.79626 0.34485 0.0
C319 C 0.65817 0.8089 0.33009 0.0
C320 C 0.6559 0.82581 0.34556 0.0
C321 C 0.64211 0.83009 0.37606 0.0
H322 H 0.66888 0.8056 0.30655 0.0
H323 H 0.54138 0.85136 0.61838 0.0
H324 H 0.49398 0.38693 0.7865 0.0
H325 H 0.47109 0.36687 0.7646 0.0
H326 H 0.49963 0.35115 0.63607 0.0
H327 H 0.52199 0.37158 0.65624 0.0
H328 H 0.46794 0.35406 0.61143 0.0
H329 H 0.4972 0.3267 0.74657 0.0
H330 H 0.5088 0.32455 0.83093 0.0
H331 H 0.45841 0.3318 0.8909 0.0
H332 H 0.44657 0.33417 0.80685 0.0
H333 H 0.42213 0.27578 0.56238 0.0
H334 H 0.44338 0.29839 0.57826 0.0
H335 H 0.41528 0.31361 0.70828 0.0
H336 H 0.39473 0.29067 0.69364 0.0
H337 H 0.44668 0.31122 0.73161 0.0
H338 H 0.4173 0.33802 0.5954 0.0
H339 H 0.40599 0.3398 0.51065 0.0
H340 H 0.45668 0.33329 0.45228 0.0
H341 H 0.46827 0.33126 0.5367 0.0
C342 C 0.49538 0.3792 0.75359 0.0
C343 C 0.50998 0.3808 0.72353 0.0
C344 C 0.4823 0.36765 0.74117 0.0
C345 C 0.48367 0.35724 0.69892 0.0
C346 C 0.49817 0.35897 0.66878 0.0
C347 C 0.51107 0.37063 0.68072 0.0
C348 C 0.47014 0.34452 0.68575 0.0
C349 C 0.46341 0.34459 0.63764 0.0
C350 C 0.46394 0.33229 0.71993 0.0
C351 C 0.47104 0.33077 0.77045 0.0
C352 C 0.48862 0.32793 0.77777 0.0
C353 C 0.49523 0.32666 0.82552 0.0
C354 C 0.48435 0.32808 0.86626 0.0
C355 C 0.46683 0.33072 0.85932 0.0
C356 C 0.46016 0.33201 0.81163 0.0
C357 C 0.42041 0.28421 0.5937 0.0
C358 C 0.40683 0.28157 0.62674 0.0
C359 C 0.43253 0.29714 0.60284 0.0
C360 C 0.43098 0.30785 0.64452 0.0
C361 C 0.41693 0.30553 0.67616 0.0
C362 C 0.40511 0.29248 0.6676 0.0
C363 C 0.44434 0.32081 0.65734 0.0
C364 C 0.45111 0.32074 0.70541 0.0
C365 C 0.45057 0.333 0.62307 0.0
C366 C 0.44362 0.33433 0.57235 0.0
C367 C 0.42602 0.33686 0.56448 0.0
C368 C 0.41956 0.33793 0.51651 0.0
C369 C 0.4306 0.33662 0.47611 0.0
C370 C 0.44814 0.33428 0.4836 0.0
C371 C 0.45466 0.33319 0.5315 0.0
H372 H 0.42558 0.33744 0.439 0.0
H373 H 0.48949 0.3271 0.90321 0.0
H374 H 0.91449 0.22563 0.06277 0.0
H375 H 0.93561 0.20323 0.04275 0.0
H376 H 0.91631 0.20093 0.89397 0.0
H377 H 0.89564 0.22344 0.91332 0.0
H378 H 0.92397 0.16778 0.93864 0.0
H379 H 0.94874 0.22372 0.90868 0.0
H380 H 0.95674 0.25302 0.93342 0.0
H381 H 0.98864 0.23287 0.0485 0.0
H382 H 0.98055 0.20344 0.025 0.0
H383 H 0.9938 0.12352 0.82491 0.0
H384 H 0.97093 0.14431 0.84158 0.0
H385 H 0.9963 0.15929 0.9761 0.0
H386 H 0.01923 0.13939 0.95897 0.0
H387 H 0.98474 0.18619 0.9369 0.0
H388 H 0.96061 0.13083 0.97115 0.0
H389 H 0.952 0.10114 0.95265 0.0
H390 H 0.91887 0.11911 0.83748 0.0
H391 H 0.92747 0.1489 0.85488 0.0
C392 C 0.91461 0.2201 0.02615 0.0
C393 C 0.90354 0.2263 0.98951 0.0
C394 C 0.92667 0.20737 0.01468 0.0
C395 C 0.92754 0.20048 0.96677 0.0
C396 C 0.91584 0.20603 0.9311 0.0
C397 C 0.9041 0.21894 0.94218 0.0
C398 C 0.94145 0.18852 0.95232 0.0
C399 C 0.93726 0.17178 0.93788 0.0
C400 C 0.95877 0.19372 0.95192 0.0
C401 C 0.96389 0.21139 0.96544 0.0
C402 C 0.95735 0.22554 0.93952 0.0
C403 C 0.96191 0.24217 0.95328 0.0
C404 C 0.97315 0.2448 0.99259 0.0
C405 C 0.9799 0.23081 0.01811 0.0
C406 C 0.97534 0.21415 1.00458 0.0
C407 C 0.99459 0.1314 0.85768 0.0
C408 C 0.00839 0.12963 0.89058 0.0
C409 C 0.98141 0.1432 0.86746 0.0
C410 C 0.98167 0.15324 0.91066 0.0
C411 C 0.9957 0.15177 0.94256 0.0
C412 C 0.00886 0.14024 0.93263 0.0
C413 C 0.96742 0.16516 0.92374 0.0
C414 C 0.97149 0.18202 0.93769 0.0
C415 C 0.95002 0.15995 0.92444 0.0
C416 C 0.94483 0.14207 0.91393 0.0
C417 C 0.95159 0.12843 0.94163 0.0
C418 C 0.9467 0.11159 0.93139 0.0
C419 C 0.93494 0.10824 0.89381 0.0
C420 C 0.92801 0.12173 0.8665 0.0
C421 C 0.93288 0.13859 0.87655 0.0
H422 H 0.93116 0.09519 0.88595 0.0
H423 H 0.97667 0.25769 1.00321 0.0
H424 H 0.06617 0.38352 0.82592 0.0
H425 H 0.09037 0.36477 0.84614 0.0
H426 H 0.06475 0.34888 0.97941 0.0
H427 H 0.04073 0.36745 0.95994 0.0
H428 H 0.09807 0.35621 0.99708 0.0
H429 H 0.06582 0.32312 0.8783 0.0
H430 H 0.05197 0.31803 0.79791 0.0
H431 H 0.10015 0.32508 0.72427 0.0
H432 H 0.11424 0.33043 0.80422 0.0
H433 H 0.14598 0.28095 0.05939 0.0
H434 H 0.12474 0.30327 0.04146 0.0
H435 H 0.1486 0.31217 0.90003 0.0
H436 H 0.16912 0.28941 0.91697 0.0
H437 H 0.11691 0.30965 0.8854 0.0
H438 H 0.14986 0.34169 1.00216 0.0
H439 H 0.16423 0.34753 0.08133 0.0
H440 H 0.11612 0.34371 0.15726 0.0
H441 H 0.10149 0.33761 0.0786 0.0
C442 C 0.06564 0.37597 0.85938 0.0
C443 C 0.05141 0.37705 0.89114 0.0
C444 C 0.0795 0.36525 0.87092 0.0
C445 C 0.07939 0.35537 0.91434 0.0
C446 C 0.06521 0.35642 0.94589 0.0
C447 C 0.0514 0.36703 0.93442 0.0
C448 C 0.09389 0.34382 0.92719 0.0
C449 C 0.10213 0.34594 0.97286 0.0
C450 C 0.09949 0.33067 0.89517 0.0
C451 C 0.09104 0.32735 0.84717 0.0
C452 C 0.07343 0.32371 0.84493 0.0
C453 C 0.06554 0.32076 0.79945 0.0
C454 C 0.07516 0.32128 0.756 0.0
C455 C 0.09271 0.3247 0.75795 0.0
C456 C 0.10065 0.32769 0.80333 0.0
C457 C 0.14685 0.28797 0.02503 0.0
C458 C 0.15917 0.28348 0.98958 0.0
C459 C 0.13472 0.30075 0.01471 0.0
C460 C 0.135 0.30955 0.96927 0.0
C461 C 0.14792 0.30556 0.9351 0.0
C462 C 0.15974 0.2926 0.94494 0.0
C463 C 0.12126 0.32199 0.95549 0.0
C464 C 0.11306 0.32 0.90964 0.0
C465 C 0.11585 0.33536 0.98718 0.0
C466 C 0.12461 0.33903 0.03453 0.0
C467 C 0.14236 0.34196 0.03579 0.0
C468 C 0.15055 0.34534 0.08057 0.0
C469 C 0.1411 0.34595 0.12431 0.0
C470 C 0.12343 0.34321 0.12335 0.0
C471 C 0.11518 0.33981 0.07868 0.0
H472 H 0.14746 0.34857 0.15894 0.0
H473 H 0.06904 0.31899 0.72083 0.0
H474 H 0.00565 0.86861 0.30555 0.0
H475 H 0.98243 0.84897 0.28132 0.0
H476 H 0.98498 0.86805 0.13232 0.0
H477 H 0.00856 0.88708 0.15577 0.0
H478 H 0.9483 0.86137 0.19035 0.0
H479 H 1.0026 0.83754 0.12711 0.0
H480 H 0.03276 0.82939 0.13996 0.0
H481 H 0.01795 0.7961 0.25849 0.0
H482 H 0.98769 0.80427 0.24682 0.0
H483 H 0.89908 0.79523 0.07432 0.0
H484 H 0.92064 0.81769 0.08785 0.0
H485 H 0.94214 0.78829 0.20742 0.0
H486 H 0.92134 0.76587 0.19326 0.0
H487 H 0.96688 0.80156 0.15984 0.0
H488 H 0.91391 0.82273 0.22542 0.0
H489 H 0.88351 0.83119 0.22354 0.0
H490 H 0.89467 0.86921 0.11374 0.0
H491 H 0.92512 0.8608 0.11448 0.0
C492 C 1.00102 0.86877 0.26791 0.0
C493 C 0.00886 0.87928 0.23246 0.0
C494 C 0.98781 0.85759 0.25411 0.0
C495 C 0.98201 0.85714 0.20506 0.0
C496 C 0.98923 0.86828 0.17034 0.0
C497 C 1.00272 0.87907 0.18374 0.0
C498 C 0.96959 0.84395 0.18886 0.0
C499 C 0.95231 0.84833 0.18299 0.0
C500 C 0.97485 0.82692 0.18034 0.0
C501 C 0.99294 0.82166 0.18648 0.0
C502 C 0.0058 0.8286 0.15619 0.0
C503 C 0.02291 0.82397 0.16322 0.0
C504 C 0.02729 0.81231 0.20016 0.0
C505 C 0.01455 0.80517 0.22997 0.0
C506 C 0.99741 0.80978 0.22315 0.0
C507 C 0.90858 0.79347 0.10293 0.0
C508 C 0.90832 0.77877 0.1329 0.0
C509 C 0.92081 0.80639 0.11098 0.0
C510 C 0.93291 0.80486 0.14928 0.0
C511 C 0.933 0.78988 0.17773 0.0
C512 C 0.92095 0.77704 0.16963 0.0
C513 C 0.94529 0.81881 0.16123 0.0
C514 C 0.9627 0.8146 0.16651 0.0
C515 C 0.94003 0.83591 0.17014 0.0
C516 C 0.92174 0.84098 0.16954 0.0
C517 C 0.90985 0.83279 0.20056 0.0
C518 C 0.89262 0.83759 0.19976 0.0
C519 C 0.88715 0.85068 0.16841 0.0
C520 C 0.89892 0.85904 0.13791 0.0
C521 C 0.91617 0.85426 0.13851 0.0
H522 H 0.87381 0.85439 0.16786 0.0
H523 H 0.04055 0.80877 0.20557 0.0
H524 H 0.39747 0.71877 0.54703 0.0
H525 H 0.4154 0.69419 0.52437 0.0
H526 H 0.43645 0.72287 0.40275 0.0
H527 H 0.41873 0.74729 0.4247 0.0
H528 H 0.42821 0.69043 0.37485 0.0
H529 H 0.4589 0.71773 0.50836 0.0
H530 H 0.4622 0.72904 0.59274 0.0
H531 H 0.45121 0.67935 0.65256 0.0
H532 H 0.44761 0.66779 0.5685 0.0
H533 H 0.50312 0.64079 0.31917 0.0
H534 H 0.48129 0.6626 0.33679 0.0
H535 H 0.46701 0.63539 0.46923 0.0
H536 H 0.48925 0.61424 0.45284 0.0
H537 H 0.47055 0.66644 0.49202 0.0
H538 H 0.44078 0.63833 0.36071 0.0
H539 H 0.43683 0.62644 0.27725 0.0
H540 H 0.44485 0.67623 0.21425 0.0
H541 H 0.44908 0.68838 0.29733 0.0
C542 C 0.40593 0.71985 0.51552 0.0
C543 C 0.40662 0.73509 0.4879 0.0
C544 C 0.41619 0.70579 0.50261 0.0
C545 C 0.42733 0.70668 0.46186 0.0
C546 C 0.42793 0.72181 0.43416 0.0
C547 C 0.41779 0.73584 0.44707 0.0
C548 C 0.43863 0.69207 0.44819 0.0
C549 C 0.43756 0.68524 0.40032 0.0
C550 C 0.45057 0.68501 0.48168 0.0
C551 C 0.4528 0.69195 0.53218 0.0
C552 C 0.45705 0.70925 0.53952 0.0
C553 C 0.459 0.7157 0.58728 0.0
C554 C 0.45687 0.70493 0.62799 0.0
C555 C 0.45283 0.68768 0.621 0.0
C556 C 0.45084 0.68117 0.57332 0.0
C557 C 0.49503 0.63935 0.35138 0.0
C558 C 0.49783 0.62587 0.38463 0.0
C559 C 0.48254 0.6518 0.36152 0.0
C560 C 0.47237 0.65071 0.40445 0.0
C561 C 0.4747 0.6367 0.43617 0.0
C562 C 0.48736 0.62454 0.42661 0.0
C563 C 0.46015 0.66462 0.4185 0.0
C564 C 0.4611 0.67142 0.46648 0.0
C565 C 0.44798 0.6715 0.38522 0.0
C566 C 0.4454 0.66424 0.33523 0.0
C567 C 0.44183 0.64672 0.32904 0.0
C568 C 0.43952 0.63994 0.2818 0.0
C569 C 0.44063 0.65056 0.24047 0.0
C570 C 0.44401 0.66801 0.24629 0.0
C571 C 0.44635 0.67486 0.29345 0.0
H572 H 0.43884 0.64528 0.20393 0.0
H573 H 0.45839 0.70995 0.66493 0.0
H574 H 0.66315 0.22199 0.71953 0.0
H575 H 0.64316 0.19863 0.73745 0.0
H576 H 0.62597 0.19937 0.58646 0.0
H577 H 0.64645 0.22246 0.56784 0.0
H578 H 0.59969 0.20346 0.66928 0.0
H579 H 0.64514 0.1672 0.6105 0.0
H580 H 0.6747 0.15624 0.6076 0.0
H581 H 0.67131 0.14155 0.7599 0.0
H582 H 0.64178 0.15267 0.76393 0.0
H583 H 0.54208 0.13531 0.6677 0.0
H584 H 0.56584 0.15424 0.64912 0.0
H585 H 0.58948 0.14141 0.78791 0.0
H586 H 0.56562 0.12193 0.80676 0.0
H587 H 0.61324 0.14339 0.71412 0.0
H588 H 0.56844 0.17889 0.77494 0.0
H589 H 0.53897 0.19 0.78106 0.0
H590 H 0.54143 0.20713 0.63076 0.0
H591 H 0.57081 0.19587 0.62343 0.0
C592 C 0.65534 0.21694 0.68991 0.0
C593 C 0.65635 0.22399 0.64226 0.0
C594 C 0.64395 0.2036 0.70021 0.0
C595 C 0.63309 0.1973 0.66332 0.0
C596 C 0.63431 0.20404 0.61537 0.0
C597 C 0.64605 0.21713 0.60471 0.0
C598 C 0.61961 0.18463 0.67608 0.0
C599 C 0.60259 0.19025 0.6783 0.0
C600 C 0.62355 0.16762 0.68992 0.0
C601 C 0.64132 0.16097 0.68768 0.0
C602 C 0.65076 0.16182 0.64354 0.0
C603 C 0.66749 0.15553 0.64165 0.0
C604 C 0.6749 0.14826 0.68358 0.0
C605 C 0.66556 0.14722 0.72747 0.0
C606 C 0.64882 0.1535 0.72957 0.0
C607 C 0.55227 0.13642 0.69455 0.0
C608 C 0.55177 0.12714 0.73911 0.0
C609 C 0.5659 0.14733 0.68377 0.0
C610 C 0.57934 0.14953 0.71742 0.0
C611 C 0.57921 0.13999 0.76143 0.0
C612 C 0.56553 0.12891 0.77224 0.0
C613 C 0.59319 0.16212 0.70648 0.0
C614 C 0.61029 0.15658 0.70503 0.0
C615 C 0.58938 0.17933 0.69399 0.0
C616 C 0.57179 0.18639 0.69849 0.0
C617 C 0.56266 0.18493 0.74307 0.0
C618 C 0.54597 0.19126 0.74677 0.0
C619 C 0.53832 0.19921 0.70626 0.0
C620 C 0.54737 0.20094 0.66207 0.0
C621 C 0.56405 0.19459 0.65813 0.0
H622 H 0.52539 0.20406 0.70908 0.0
H623 H 0.68786 0.14338 0.68203 0.0
H624 H 1.00103 0.36188 0.80018 0.0
H625 H 0.98398 0.33955 0.84156 0.0
H626 H 0.95332 0.37864 0.91127 0.0
H627 H 0.97049 0.40068 0.87151 0.0
H628 H 0.96307 0.35723 0.97777 0.0
H629 H 0.93835 0.35196 0.81569 0.0
H630 H 0.93855 0.34716 0.7258 0.0
H631 H 0.96 0.29713 0.74753 0.0
H632 H 0.96012 0.30173 0.8376 0.0
H633 H 0.88587 0.31495 0.04763 0.0
H634 H 0.90806 0.33227 0.00738 0.0
H635 H 0.93971 0.28739 0.99137 0.0
H636 H 0.91767 0.27013 0.0334 0.0
H637 H 0.9331 0.3082 0.90025 0.0
H638 H 0.95426 0.31338 0.06526 0.0
H639 H 0.95218 0.31891 0.15459 0.0
H640 H 0.93542 0.37028 0.12586 0.0
H641 H 0.93715 0.36498 0.03629 0.0
C642 C 0.99038 0.36561 0.82341 0.0
C643 C 0.98704 0.38299 0.83255 0.0
C644 C 0.98067 0.35286 0.84725 0.0
C645 C 0.96735 0.35736 0.87993 0.0
C646 C 0.96361 0.37476 0.88686 0.0
C647 C 0.97336 0.38738 0.86374 0.0
C648 C 0.95774 0.34429 0.90921 0.0
C649 C 0.95645 0.34659 0.96056 0.0
C650 C 0.94946 0.33004 0.88738 0.0
C651 C 0.94946 0.32728 0.83331 0.0
C652 C 0.94326 0.34 0.80126 0.0
C653 C 0.94328 0.3373 0.7503 0.0
C654 C 0.94935 0.32187 0.73095 0.0
C655 C 0.95535 0.30909 0.76256 0.0
C656 C 0.95537 0.31173 0.81357 0.0
C657 C 0.8978 0.30893 0.03689 0.0
C658 C 0.9003 0.29136 0.0446 0.0
C659 C 0.91039 0.31877 0.01358 0.0
C660 C 0.92553 0.31112 0.99633 0.0
C661 C 0.92815 0.29355 1.00451 0.0
C662 C 0.91568 0.28376 0.02895 0.0
C663 C 0.93813 0.32153 0.96817 0.0
C664 C 0.93996 0.31872 0.91726 0.0
C665 C 0.94674 0.33547 0.99019 0.0
C666 C 0.9457 0.33873 0.04403 0.0
C667 C 0.94998 0.32581 0.07797 0.0
C668 C 0.9489 0.32891 0.12866 0.0
C669 C 0.94364 0.34492 0.14589 0.0
C670 C 0.93948 0.35788 0.11246 0.0
C671 C 0.94053 0.35484 0.06172 0.0
H672 H 0.94281 0.3473 0.18515 0.0
H673 H 0.94935 0.3198 0.69148 0.0
H674 H 0.51096 0.14102 0.78589 0.0
H675 H 0.49307 0.16191 0.7427 0.0
H676 H 0.4478 0.13522 0.7923 0.0
H677 H 0.46583 0.11373 0.83232 0.0
H678 H 0.44461 0.13975 0.70171 0.0
H679 H 0.46151 0.17764 0.83165 0.0
H680 H 0.48135 0.1933 0.886 0.0
H681 H 0.50304 0.21891 0.76058 0.0
H682 H 0.48363 0.20307 0.70523 0.0
H683 H 0.38092 0.20152 0.6514 0.0
H684 H 0.4024 0.18347 0.69078 0.0
H685 H 0.44097 0.20313 0.59207 0.0
H686 H 0.41921 0.22122 0.5515 0.0
H687 H 0.4495 0.20301 0.69974 0.0
H688 H 0.43006 0.16514 0.5716 0.0
H689 H 0.4083 0.15016 0.52192 0.0
H690 H 0.38912 0.12536 0.65207 0.0
H691 H 0.41061 0.1404 0.70266 0.0
C692 C 0.49718 0.13998 0.78878 0.0
C693 C 0.48973 0.12595 0.81308 0.0
C694 C 0.4869 0.15193 0.764 0.0
C695 C 0.46895 0.15029 0.76403 0.0
C696 C 0.46157 0.13681 0.79121 0.0
C697 C 0.47185 0.12466 0.81483 0.0
C698 C 0.45787 0.16149 0.73249 0.0
C699 C 0.44562 0.15359 0.70202 0.0
C700 C 0.45942 0.17959 0.73111 0.0
C701 C 0.47125 0.189 0.76422 0.0
C702 C 0.47065 0.18646 0.81556 0.0
C703 C 0.48182 0.19537 0.84655 0.0
C704 C 0.49353 0.20701 0.8267 0.0
C705 C 0.49405 0.2098 0.77583 0.0
C706 C 0.48297 0.20085 0.74463 0.0
C707 C 0.39393 0.20188 0.63756 0.0
C708 C 0.39836 0.21271 0.59813 0.0
C709 C 0.4062 0.19157 0.66021 0.0
C710 C 0.42329 0.19195 0.64447 0.0
C711 C 0.42784 0.20266 0.60481 0.0
C712 C 0.4154 0.21284 0.58139 0.0
C713 C 0.43618 0.18119 0.6704 0.0
C714 C 0.44872 0.18915 0.69954 0.0
C715 C 0.43474 0.16316 0.67139 0.0
C716 C 0.42188 0.154 0.64097 0.0
C717 C 0.42112 0.1566 0.58969 0.0
C718 C 0.40885 0.14807 0.56135 0.0
C719 C 0.39732 0.13684 0.58383 0.0
C720 C 0.39806 0.13407 0.6347 0.0
C721 C 0.4103 0.14258 0.66321 0.0
H722 H 0.38782 0.13026 0.56183 0.0
H723 H 0.50214 0.21393 0.85076 0.0
H724 H 0.58697 0.61764 0.29738 0.0
H725 H 0.60689 0.63765 0.3379 0.0
H726 H 0.56812 0.65 0.44545 0.0
H727 H 0.54852 0.62985 0.40589 0.0
H728 H 0.58746 0.67913 0.41048 0.0
H729 H 0.59548 0.62275 0.47856 0.0
H730 H 0.60098 0.59171 0.47444 0.0
H731 H 0.64967 0.60116 0.40599 0.0
H732 H 0.64432 0.63227 0.40896 0.0
H733 H 0.64347 0.71783 0.58907 0.0
H734 H 0.62137 0.69908 0.55301 0.0
H735 H 0.65888 0.67822 0.45281 0.0
H736 H 0.68071 0.6967 0.48838 0.0
H737 H 0.63898 0.65337 0.4873 0.0
H738 H 0.63142 0.7091 0.41616 0.0
H739 H 0.62599 0.74018 0.41445 0.0
H740 H 0.57718 0.73239 0.48385 0.0
H741 H 0.58243 0.70126 0.48662 0.0
C742 C 0.58265 0.62493 0.32902 0.0
C743 C 0.56622 0.62227 0.34852 0.0
C744 C 0.59402 0.63626 0.35229 0.0
C745 C 0.589 0.64525 0.39491 0.0
C746 C 0.57227 0.64324 0.41268 0.0
C747 C 0.56108 0.63168 0.39009 0.0
C748 C 0.60146 0.65583 0.42306 0.0
C749 C 0.59863 0.6735 0.42781 0.0
C750 C 0.61613 0.64851 0.44513 0.0
C751 C 0.61941 0.62982 0.44345 0.0
C752 C 0.60729 0.6182 0.46219 0.0
C753 C 0.61039 0.6006 0.46014 0.0
C754 C 0.62564 0.59446 0.43983 0.0
C755 C 0.63784 0.60593 0.42162 0.0
C756 C 0.63478 0.62355 0.42349 0.0
C757 C 0.64699 0.70896 0.5601 0.0
C758 C 0.6638 0.70868 0.54162 0.0
C759 C 0.63436 0.69839 0.53914 0.0
C760 C 0.63842 0.68733 0.49975 0.0
C761 C 0.65538 0.68659 0.48303 0.0
C762 C 0.66787 0.69719 0.50346 0.0
C763 C 0.62514 0.6768 0.47446 0.0
C764 C 0.62779 0.65906 0.47028 0.0
C765 C 0.61039 0.68412 0.45255 0.0
C766 C 0.60741 0.70286 0.45216 0.0
C767 C 0.61962 0.71402 0.4316 0.0
C768 C 0.61654 0.73164 0.43025 0.0
C769 C 0.60125 0.73824 0.44902 0.0
C770 C 0.58902 0.72725 0.46935 0.0
C771 C 0.59204 0.70962 0.47081 0.0
H772 H 0.59885 0.75187 0.44771 0.0
H773 H 0.62803 0.58083 0.43831 0.0
H774 H 0.17736 0.80794 0.13722 0.0
H775 H 0.15487 0.82373 0.17953 0.0
H776 H 0.11658 0.79644 0.09628 0.0
H777 H 0.13939 0.78071 0.05245 0.0
H778 H 0.10718 0.83007 0.11163 0.0
H779 H 0.12483 0.78383 0.21125 0.0
H780 H 0.14515 0.76429 0.25197 0.0
H781 H 0.16472 0.80595 0.33848 0.0
H782 H 0.14471 0.82581 0.29767 0.0
H783 H 0.04786 0.86348 0.29046 0.0
H784 H 0.06407 0.84054 0.24942 0.0
H785 H 0.11128 0.86633 0.28495 0.0
H786 H 0.09507 0.88952 0.32413 0.0
H787 H 0.11167 0.82846 0.2943 0.0
H788 H 0.09579 0.87469 0.18116 0.0
H789 H 0.07437 0.89316 0.14092 0.0
H790 H 0.04934 0.84888 0.08112 0.0
H791 H 0.07043 0.83009 0.12198 0.0
C792 C 0.16416 0.80549 0.12717 0.0
C793 C 0.16013 0.79305 0.09164 0.0
C794 C 0.15129 0.81446 0.15167 0.0
C795 C 0.13398 0.81098 0.14213 0.0
C796 C 0.12984 0.79926 0.10455 0.0
C797 C 0.14285 0.79034 0.07937 0.0
C798 C 0.12058 0.81916 0.17354 0.0
C799 C 0.10793 0.8294 0.15153 0.0
C800 C 0.12141 0.81827 0.22577 0.0
C801 C 0.13331 0.80634 0.25117 0.0
C802 C 0.13353 0.78885 0.23876 0.0
C803 C 0.145 0.77771 0.26186 0.0
C804 C 0.15624 0.78388 0.29774 0.0
C805 C 0.156 0.80119 0.31068 0.0
C806 C 0.14458 0.8124 0.28762 0.0
C807 C 0.06172 0.86388 0.29101 0.0
C808 C 0.07029 0.87805 0.3112 0.0
C809 C 0.07095 0.85087 0.26724 0.0
C810 C 0.08889 0.85176 0.26401 0.0
C811 C 0.09747 0.86533 0.28728 0.0
C812 C 0.08823 0.8785 0.30995 0.0
C813 C 0.09873 0.83972 0.23235 0.0
C814 C 0.11071 0.82879 0.2544 0.0
C815 C 0.09703 0.83971 0.18032 0.0
C816 C 0.08456 0.85099 0.15506 0.0
C817 C 0.08563 0.86888 0.1598 0.0
C818 C 0.07355 0.87941 0.1369 0.0
C819 C 0.06044 0.87219 0.10873 0.0
C820 C 0.05945 0.85443 0.10317 0.0
C821 C 0.07146 0.84384 0.12619 0.0
H822 H 0.05108 0.88035 0.09108 0.0
H823 H 0.16512 0.77524 0.31556 0.0
H824 H 0.98518 0.60721 0.20886 0.0
H825 H 0.96728 0.62977 0.17545 0.0
H826 H 0.97093 0.65748 0.31243 0.0
H827 H 0.98972 0.63495 0.34618 0.0
H828 H 0.93529 0.65035 0.26411 0.0
H829 H 0.99128 0.67432 0.23315 0.0
H830 H 0.021 0.67237 0.20299 0.0
H831 H 1.00278 0.66173 0.05684 0.0
H832 H 0.97294 0.66325 0.08634 0.0
H833 H 0.8897 0.72074 0.18317 0.0
H834 H 0.91143 0.7027 0.21872 0.0
H835 H 0.92724 0.68682 0.07322 0.0
H836 H 0.90612 0.7065 0.03669 0.0
H837 H 0.95417 0.68829 0.12759 0.0
H838 H 0.90003 0.66162 0.15249 0.0
H839 H 0.86974 0.65942 0.1774 0.0
H840 H 0.88341 0.67068 0.32727 0.0
H841 H 0.91377 0.67316 0.30315 0.0
C842 C 0.98241 0.61812 0.23207 0.0
C843 C 0.98906 0.61931 0.28021 0.0
C844 C 0.97212 0.63103 0.21272 0.0
C845 C 0.96793 0.64533 0.24124 0.0
C846 C 0.97416 0.64653 0.28977 0.0
C847 C 0.98484 0.63368 0.309 0.0
C848 C 0.95658 0.65861 0.21995 0.0
C849 C 0.93946 0.65897 0.23508 0.0
C850 C 0.96191 0.6691 0.18025 0.0
C851 C 0.97985 0.66876 0.16208 0.0
C852 C 0.9936 0.67144 0.19465 0.0
C853 C 0.01048 0.67043 0.17767 0.0
C854 C 0.01378 0.6669 0.12806 0.0
C855 C 1.00021 0.66446 0.09528 0.0
C856 C 0.9833 0.6654 0.11211 0.0
C857 C 0.89784 0.71367 0.15829 0.0
C858 C 0.89605 0.71512 0.10685 0.0
C859 C 0.91025 0.70309 0.17894 0.0
C860 C 0.9207 0.69285 0.14898 0.0
C861 C 0.91926 0.69446 0.09735 0.0
C862 C 0.90713 0.70563 0.07644 0.0
C863 C 0.93272 0.68034 0.17223 0.0
C864 C 0.94994 0.67992 0.15709 0.0
C865 C 0.92739 0.66936 0.21115 0.0
C866 C 0.90916 0.66771 0.22591 0.0
C867 C 0.89657 0.66372 0.19071 0.0
C868 C 0.87939 0.66241 0.20469 0.0
C869 C 0.87465 0.66495 0.25386 0.0
C870 C 0.8871 0.66873 0.28919 0.0
C871 C 0.90429 0.67007 0.2754 0.0
H872 H 0.86134 0.66395 0.26461 0.0
H873 H 0.02686 0.66608 0.11502 0.0
H874 H 0.06907 0.1344 0.7931 0.0
H875 H 0.08684 0.15686 0.83092 0.0
H876 H 0.09521 0.12456 0.95759 0.0
H877 H 0.07774 0.10228 0.92037 0.0
H878 H 0.08649 0.15688 0.98527 0.0
H879 H 0.12623 0.12993 0.87239 0.0
H880 H 0.13617 0.12003 0.79087 0.0
H881 H 0.13371 0.17147 0.73557 0.0
H882 H 0.12354 0.18164 0.81664 0.0
H883 H 0.15731 0.20013 0.10132 0.0
H884 H 0.13632 0.18019 0.06555 0.0
H885 H 0.135 0.21054 0.93256 0.0
H886 H 0.15629 0.22968 0.96712 0.0
H887 H 0.1391 0.17978 0.90716 0.0
H888 H 0.10039 0.20748 0.01868 0.0
H889 H 0.08981 0.218 0.09887 0.0
H890 H 0.08925 0.16664 0.15519 0.0
H891 H 0.10004 0.15583 0.07551 0.0
C892 C 0.07487 0.13206 0.82872 0.0
C893 C 0.07196 0.11656 0.85368 0.0
C894 C 0.08497 0.1449 0.8504 0.0
C895 C 0.09232 0.14242 0.89729 0.0
C896 C 0.08958 0.12686 0.92169 0.0
C897 C 0.07962 0.11408 0.90012 0.0
C898 C 0.1029 0.15588 0.92144 0.0
C899 C 0.09808 0.16183 0.96839 0.0
C900 C 0.11779 0.16261 0.89906 0.0
C901 C 0.12395 0.15651 0.85039 0.0
C902 C 0.12768 0.13911 0.84273 0.0
C903 C 0.13338 0.13345 0.79663 0.0
C904 C 0.13552 0.14511 0.75802 0.0
C905 C 0.13202 0.16245 0.76548 0.0
C906 C 0.12629 0.16817 0.81149 0.0
C907 C 0.1522 0.20267 0.06493 0.0
C908 C 0.15845 0.21644 0.03696 0.0
C909 C 0.14021 0.19129 0.04441 0.0
C910 C 0.13401 0.19378 0.99606 0.0
C911 C 0.13964 0.20814 0.96956 0.0
C912 C 0.1518 0.21919 0.98954 0.0
C913 C 0.12271 0.18098 0.97121 0.0
C914 C 0.12745 0.17504 0.9241 0.0
C915 C 0.10764 0.17441 0.9933 0.0
C916 C 0.10119 0.18087 0.04128 0.0
C917 C 0.09814 0.19844 0.04829 0.0
C918 C 0.09208 0.20445 0.09363 0.0
C919 C 0.08891 0.193 0.13214 0.0
C920 C 0.09174 0.1755 0.12535 0.0
C921 C 0.09781 0.16942 0.0801 0.0
H922 H 0.08421 0.19768 0.16721 0.0
H923 H 0.13994 0.14071 0.72237 0.0
H924 H 0.66201 0.31098 0.53722 0.0
H925 H 0.6412 0.32964 0.57835 0.0
H926 H 0.62239 0.28653 0.66186 0.0
H927 H 0.6425 0.26779 0.61851 0.0
H928 H 0.59701 0.30771 0.64809 0.0
H929 H 0.65424 0.31358 0.70717 0.0
H930 H 0.68536 0.31841 0.70085 0.0
H931 H 0.67643 0.36889 0.64376 0.0
H932 H 0.64525 0.36426 0.64904 0.0
H933 H 0.56192 0.36492 0.83319 0.0
H934 H 0.57887 0.34184 0.7948 0.0
H935 H 0.60095 0.3784 0.69382 0.0
H936 H 0.58466 0.40118 0.73229 0.0
H937 H 0.62484 0.35798 0.7258 0.0
H938 H 0.56671 0.34968 0.66045 0.0
H939 H 0.53586 0.34358 0.66866 0.0
H940 H 0.54711 0.2969 0.74539 0.0
H941 H 0.57807 0.30262 0.7372 0.0
C942 C 0.6529 0.30541 0.56273 0.0
C943 C 0.65377 0.28797 0.57454 0.0
C944 C 0.64119 0.31611 0.58691 0.0
C945 C 0.63056 0.30963 0.62455 0.0
C946 C 0.63052 0.29192 0.63343 0.0
C947 C 0.64202 0.28119 0.60861 0.0
C948 C 0.62071 0.32145 0.65737 0.0
C949 C 0.60316 0.3186 0.66543 0.0
C950 C 0.62865 0.3356 0.68079 0.0
C951 C 0.64741 0.33852 0.67814 0.0
C952 C 0.65891 0.32568 0.69303 0.0
C953 C 0.67656 0.32838 0.68964 0.0
C954 C 0.68287 0.34394 0.67183 0.0
C955 C 0.67153 0.35684 0.6575 0.0
C956 C 0.65387 0.35419 0.66072 0.0
C957 C 0.5706 0.36799 0.80331 0.0
C958 C 0.57193 0.38488 0.78582 0.0
C959 C 0.58014 0.35478 0.781 0.0
C960 C 0.59107 0.3583 0.74083 0.0
C961 C 0.59266 0.37526 0.72459 0.0
C962 C 0.58326 0.38833 0.74671 0.0
C963 C 0.60101 0.34467 0.71483 0.0
C964 C 0.6187 0.34707 0.70851 0.0
C965 C 0.59322 0.33003 0.6937 0.0
C966 C 0.57466 0.32665 0.69865 0.0
C967 C 0.56259 0.33817 0.67931 0.0
C968 C 0.54509 0.33478 0.68392 0.0
C969 C 0.53952 0.31995 0.70786 0.0
C970 C 0.55144 0.3084 0.72697 0.0
C971 C 0.56896 0.31167 0.7222 0.0
H972 H 0.52596 0.31737 0.71138 0.0
H973 H 0.69654 0.34601 0.66922 0.0
H974 H 0.39003 0.81913 0.56086 0.0
H975 H 0.41207 0.83477 0.51573 0.0
H976 H 0.44456 0.79019 0.51832 0.0
H977 H 0.42236 0.77445 0.56452 0.0
H978 H 0.46286 0.82318 0.52475 0.0
H979 H 0.42328 0.79418 0.41896 0.0
H980 H 0.39494 0.78471 0.38963 0.0
H981 H 0.37949 0.83702 0.37078 0.0
H982 H 0.40779 0.84682 0.39969 0.0
H983 H 0.50741 0.86148 0.31807 0.0
H984 H 0.491 0.83905 0.3612 0.0
H985 H 0.4513 0.87569 0.39385 0.0
H986 H 0.46786 0.89809 0.35244 0.0
H987 H 0.4393 0.84173 0.36322 0.0
H988 H 0.4773 0.87003 0.48062 0.0
H989 H 0.50607 0.88 0.50454 0.0
H990 H 0.5249 0.82843 0.49758 0.0
H991 H 0.49618 0.81817 0.47341 0.0
C992 C 0.40219 0.81291 0.55386 0.0
C993 C 0.40461 0.7957 0.56686 0.0
C994 C 0.41471 0.82179 0.52753 0.0
C995 C 0.42984 0.81357 0.51282 0.0
C996 C 0.43297 0.79678 0.5293 0.0
C997 C 0.42039 0.78786 0.55616 0.0
C998 C 0.44114 0.82207 0.47592 0.0
C999 C 0.45785 0.82687 0.489 0.0
C1000 C 0.43464 0.82702 0.42923 0.0
C1001 C 0.41761 0.82122 0.41178 0.0
C1002 C 0.41381 0.80366 0.4088 0.0
C1003 C 0.39777 0.79823 0.39214 0.0
C1004 C 0.38539 0.81025 0.37864 0.0
C1005 C 0.38908 0.82773 0.38134 0.0
C1006 C 0.40514 0.83322 0.39763 0.0
C1007 C 0.49492 0.86454 0.33309 0.0
C1008 C 0.48871 0.8814 0.33133 0.0
C1009 C 0.48565 0.85179 0.3581 0.0
C1010 C 0.46993 0.85573 0.38077 0.0
C1011 C 0.46334 0.87235 0.37642 0.0
C1012 C 0.47276 0.88511 0.35261 0.0
C1013 C 0.46083 0.8431 0.41241 0.0
C1014 C 0.44446 0.83763 0.39841 0.0
C1015 C 0.4677 0.83745 0.45788 0.0
C1016 C 0.48468 0.84337 0.47493 0.0
C1017 C 0.48758 0.86083 0.48429 0.0
C1018 C 0.50385 0.86652 0.49795 0.0
C1019 C 0.51729 0.85485 0.50256 0.0
C1020 C 0.51445 0.83743 0.49415 0.0
C1021 C 0.49817 0.83166 0.48054 0.0
H1022 H 0.52992 0.85936 0.51212 0.0
H1023 H 0.37296 0.80601 0.36596 0.0
H1024 H 0.00852 0.5343 0.19466 0.0
H1025 H 0.01942 0.51022 0.14763 0.0
H1026 H 0.07126 0.52579 0.17967 0.0
H1027 H 0.06016 0.55023 0.22744 0.0
H1028 H 0.06555 0.52299 0.08119 0.0
H1029 H 0.05867 0.48583 0.21597 0.0
H1030 H 0.04524 0.47358 0.29034 0.0
H1031 H 1.00166 0.45807 0.20502 0.0
H1032 H 0.01465 0.47044 0.1303 0.0
H1033 H 0.05877 0.4462 0.90739 0.0
H1034 H 0.07057 0.46538 0.97094 0.0
H1035 H 0.02026 0.48649 0.99499 0.0
H1036 H 0.0085 0.46735 0.9325 0.0
H1037 H 0.03951 0.46515 0.07661 0.0
H1038 H 0.04348 0.51228 0.95346 0.0
H1039 H 0.05653 0.52527 0.8795 0.0
H1040 H 0.10632 0.5212 0.94542 0.0
H1041 H 0.09355 0.50796 0.01953 0.0
C1042 C 0.02223 0.53223 0.19316 0.0
C1043 C 0.03352 0.54401 0.21447 0.0
C1044 C 0.02848 0.51841 0.16649 0.0
C1045 C 0.04618 0.5161 0.16045 0.0
C1046 C 0.05757 0.52728 0.18429 0.0
C1047 C 0.05124 0.54112 0.21172 0.0
C1048 C 0.05209 0.50367 0.12298 0.0
C1049 C 0.06041 0.51009 0.08083 0.0
C1050 C 0.04559 0.48678 0.1226 0.0
C1051 C 0.03773 0.47901 0.16734 0.0
C1052 C 0.0462 0.47984 0.21303 0.0
C1053 C 0.03865 0.47288 0.2553 0.0
C1054 C 0.02262 0.46503 0.25239 0.0
C1055 C 0.01411 0.4641 0.20719 0.0
C1056 C 0.02159 0.47104 0.16481 0.0
C1057 C 0.05047 0.45557 0.92459 0.0
C1058 C 0.03276 0.45541 0.91536 0.0
C1059 C 0.05718 0.46637 0.96104 0.0
C1060 C 0.04621 0.47714 0.9877 0.0
C1061 C 0.02888 0.4782 0.97468 0.0
C1062 C 0.02219 0.46738 0.93885 0.0
C1063 C 0.05155 0.48512 0.03441 0.0
C1064 C 0.04542 0.4777 0.07808 0.0
C1065 C 0.06005 0.50101 0.03618 0.0
C1066 C 0.06761 0.50889 0.9916 0.0
C1067 C 0.05723 0.51396 0.9519 0.0
C1068 C 0.06456 0.52142 0.91004 0.0
C1069 C 0.08225 0.52399 0.90766 0.0
C1070 C 0.09263 0.51916 0.94723 0.0
C1071 C 0.08535 0.51168 0.98916 0.0
H1072 H 0.0879 0.52978 0.87524 0.0
H1073 H 0.01679 0.45967 0.28516 0.0
H1074 H 0.84248 0.79016 0.20971 0.0
H1075 H 0.81879 0.79819 0.26397 0.0
H1076 H 0.78561 0.76336 0.18606 0.0
H1077 H 0.80934 0.75542 0.13142 0.0
H1078 H 0.78253 0.80762 0.26567 0.0
H1079 H 0.77315 0.73508 0.27452 0.0
H1080 H 0.78869 0.70857 0.25334 0.0
H1081 H 0.83666 0.73396 0.27835 0.0
H1082 H 0.82138 0.7605 0.30051 0.0
H1083 H 0.7093 0.77659 0.39134 0.0
H1084 H 0.7328 0.78656 0.3397 0.0
H1085 H 0.76905 0.76952 0.44919 0.0
H1086 H 0.74534 0.7595 0.50143 0.0
H1087 H 0.77347 0.75407 0.3608 0.0
H1088 H 0.76797 0.81121 0.41771 0.0
H1089 H 0.75307 0.83789 0.44034 0.0
H1090 H 0.73616 0.84405 0.29077 0.0
H1091 H 0.75075 0.81727 0.26733 0.0
C1092 C 0.82985 0.78502 0.20242 0.0
C1093 C 0.82759 0.77224 0.16662 0.0
C1094 C 0.81635 0.78958 0.23345 0.0
C1095 C 0.8006 0.78114 0.22942 0.0
C1096 C 0.79774 0.76996 0.18965 0.0
C1097 C 0.81123 0.76551 0.15829 0.0
C1098 C 0.78894 0.78094 0.27232 0.0
C1099 C 0.78042 0.79595 0.28647 0.0
C1100 C 0.78681 0.76584 0.30043 0.0
C1101 C 0.79612 0.74981 0.2886 0.0
C1102 C 0.78701 0.73496 0.27572 0.0
C1103 C 0.79577 0.71994 0.26354 0.0
C1104 C 0.81365 0.7196 0.26433 0.0
C1105 C 0.82281 0.73426 0.27759 0.0
C1106 C 0.81411 0.74929 0.28994 0.0
C1107 C 0.72227 0.77548 0.4051 0.0
C1108 C 0.7256 0.76713 0.44997 0.0
C1109 C 0.73568 0.78129 0.37572 0.0
C1110 C 0.75266 0.77876 0.39057 0.0
C1111 C 0.75599 0.77163 0.43723 0.0
C1112 C 0.74249 0.76598 0.46707 0.0
C1113 C 0.76651 0.78065 0.35373 0.0
C1114 C 0.77556 0.76586 0.34051 0.0
C1115 C 0.76916 0.796 0.32699 0.0
C1116 C 0.76039 0.81216 0.34083 0.0
C1117 C 0.76097 0.81818 0.3897 0.0
C1118 C 0.7526 0.83334 0.40266 0.0
C1119 C 0.74365 0.84264 0.36703 0.0
C1120 C 0.74309 0.83683 0.31833 0.0
C1121 C 0.75144 0.82167 0.30517 0.0
H1122 H 0.73718 0.85438 0.37714 0.0
H1123 H 0.82041 0.70797 0.25478 0.0
H1124 H 0.49259 0.56149 0.4266 0.0
H1125 H 0.48227 0.53931 0.48353 0.0
H1126 H 0.52974 0.51181 0.46495 0.0
H1127 H 0.54 0.53395 0.40862 0.0
H1128 H 0.50252 0.49001 0.48462 0.0
H1129 H 0.52818 0.54341 0.54671 0.0
H1130 H 0.5287 0.57485 0.55508 0.0
H1131 H 0.47829 0.5739 0.61831 0.0
H1132 H 0.4774 0.54243 0.6096 0.0
H1133 H 0.55255 0.4691 0.67774 0.0
H1134 H 0.53868 0.49008 0.62466 0.0
H1135 H 0.48952 0.47656 0.68562 0.0
H1136 H 0.50343 0.45534 0.73939 0.0
H1137 H 0.50465 0.51777 0.64929 0.0
H1138 H 0.48412 0.46053 0.6017 0.0
H1139 H 0.48879 0.42937 0.59508 0.0
H1140 H 0.53328 0.43807 0.50539 0.0
H1141 H 0.529 0.46929 0.51214 0.0
C1142 C 0.50036 0.55021 0.43278 0.0
C1143 C 0.51698 0.5492 0.41331 0.0
C1144 C 0.49452 0.53764 0.46544 0.0
C1145 C 0.50534 0.52407 0.47884 0.0
C1146 C 0.52117 0.52214 0.45491 0.0
C1147 C 0.52703 0.53474 0.4227 0.0
C1148 C 0.50213 0.51394 0.52398 0.0
C1149 C 0.5024 0.49605 0.52065 0.0
C1150 C 0.50201 0.52183 0.57107 0.0
C1151 C 0.50263 0.54066 0.57695 0.0
C1152 C 0.51718 0.54993 0.56214 0.0
C1153 C 0.51754 0.56774 0.56694 0.0
C1154 C 0.50351 0.57637 0.58708 0.0
C1155 C 0.48912 0.5672 0.6026 0.0
C1156 C 0.48867 0.54939 0.59771 0.0
C1157 C 0.53886 0.47099 0.68112 0.0
C1158 C 0.52902 0.46051 0.71215 0.0
C1159 C 0.53097 0.48298 0.65087 0.0
C1160 C 0.51312 0.48463 0.65099 0.0
C1161 C 0.50333 0.47539 0.68523 0.0
C1162 C 0.51129 0.46336 0.71596 0.0
C1163 C 0.50517 0.49393 0.60971 0.0
C1164 C 0.50332 0.51168 0.61352 0.0
C1165 C 0.50396 0.48594 0.56305 0.0
C1166 C 0.50626 0.4672 0.55756 0.0
C1167 C 0.49493 0.45578 0.58074 0.0
C1168 C 0.49751 0.43812 0.57696 0.0
C1169 C 0.51133 0.43175 0.54986 0.0
C1170 C 0.52257 0.44302 0.52634 0.0
C1171 C 0.52006 0.4607 0.53006 0.0
H1172 H 0.51332 0.41807 0.54705 0.0
H1173 H 0.50381 0.59016 0.59077 0.0
H1174 H 0.84525 0.22428 0.92121 0.0
H1175 H 0.82302 0.21499 0.8635 0.0
H1176 H 0.78773 0.2509 0.92905 0.0
H1177 H 0.80992 0.25993 0.9874 0.0
H1178 H 0.77112 0.22239 0.89074 0.0
H1179 H 0.81405 0.26434 0.84123 0.0
H1180 H 0.84374 0.27398 0.82738 0.0
H1181 H 0.85172 0.23267 0.72544 0.0
H1182 H 0.82212 0.22264 0.73936 0.0
H1183 H 0.72944 0.27493 0.72889 0.0
H1184 H 0.75218 0.26357 0.78021 0.0
H1185 H 0.75865 0.22108 0.68055 0.0
H1186 H 0.73532 0.23223 0.6286 0.0
H1187 H 0.79066 0.24281 0.72654 0.0
H1188 H 0.74286 0.20658 0.76361 0.0
H1189 H 0.71227 0.20066 0.77818 0.0
H1190 H 0.71267 0.2341 0.90383 0.0
H1191 H 0.74319 0.24047 0.88949 0.0
C1192 C 0.83247 0.22954 0.92469 0.0
C1193 C 0.82912 0.24273 0.95845 0.0
C1194 C 0.81984 0.2243 0.89167 0.0
C1195 C 0.80388 0.23249 0.89148 0.0
C1196 C 0.79998 0.24441 0.92869 0.0
C1197 C 0.8126 0.24956 0.96201 0.0
C1198 C 0.79258 0.23123 0.84792 0.0
C1199 C 0.77542 0.22657 0.85464 0.0
C1200 C 0.7983 0.2365 0.80062 0.0
C1201 C 0.81599 0.24261 0.79183 0.0
C1202 C 0.82219 0.25725 0.81614 0.0
C1203 C 0.83898 0.26279 0.80826 0.0
C1204 C 0.84963 0.25391 0.77568 0.0
C1205 C 0.84348 0.2395 0.75078 0.0
C1206 C 0.8267 0.23388 0.75867 0.0
C1207 C 0.73573 0.26325 0.71729 0.0
C1208 C 0.73036 0.25433 0.67498 0.0
C1209 C 0.74873 0.25679 0.74678 0.0
C1210 C 0.75676 0.24138 0.73448 0.0
C1211 C 0.75239 0.23294 0.69061 0.0
C1212 C 0.73916 0.23937 0.66097 0.0
C1213 C 0.76919 0.23423 0.76965 0.0
C1214 C 0.78655 0.23765 0.76179 0.0
C1215 C 0.76361 0.22802 0.81595 0.0
C1216 C 0.74531 0.22406 0.82531 0.0
C1217 C 0.73639 0.21277 0.79414 0.0
C1218 C 0.71907 0.20932 0.80238 0.0
C1219 C 0.71053 0.21701 0.84188 0.0
C1220 C 0.71931 0.22815 0.87327 0.0
C1221 C 0.73663 0.23166 0.86513 0.0
H1222 H 0.69711 0.21433 0.84819 0.0
H1223 H 0.86263 0.25821 0.76961 0.0
H1224 H 0.24005 0.22983 0.92447 0.0
H1225 H 0.26384 0.23959 0.87443 0.0
H1226 H 0.2593 0.29019 0.9371 0.0
H1227 H 0.23485 0.28039 0.98718 0.0
H1228 H 0.25983 0.29138 0.8376 0.0
H1229 H 0.29546 0.26637 0.95875 0.0
H1230 H 0.30507 0.24472 0.01881 0.0
H1231 H 0.31181 0.20823 0.90203 0.0
H1232 H 0.30201 0.22954 0.84132 0.0
H1233 H 0.34595 0.28856 0.70028 0.0
H1234 H 0.32384 0.29615 0.76051 0.0
H1235 H 0.29061 0.25766 0.699 0.0
H1236 H 0.31258 0.25029 0.63818 0.0
H1237 H 0.31291 0.25794 0.80966 0.0
H1238 H 0.26948 0.28242 0.69507 0.0
H1239 H 0.26029 0.30475 0.63651 0.0
H1240 H 0.27016 0.3435 0.74514 0.0
H1241 H 0.27967 0.32137 0.80407 0.0
C1242 C 0.24436 0.24294 0.92859 0.0
C1243 C 0.23561 0.25439 0.95947 0.0
C1244 C 0.25805 0.2485 0.90012 0.0
C1245 C 0.26345 0.2656 0.90225 0.0
C1246 C 0.25535 0.27692 0.93511 0.0
C1247 C 0.24154 0.27129 0.96396 0.0
C1248 C 0.27636 0.27157 0.86614 0.0
C1249 C 0.27166 0.28436 0.83222 0.0
C1250 C 0.29182 0.26246 0.8591 0.0
C1251 C 0.29799 0.2496 0.89542 0.0
C1252 C 0.29893 0.25371 0.94587 0.0
C1253 C 0.30441 0.24149 0.98004 0.0
C1254 C 0.30905 0.22512 0.96424 0.0
C1255 C 0.30825 0.22093 0.91421 0.0
C1256 C 0.30277 0.2331 0.87987 0.0
C1257 C 0.33347 0.28257 0.6976 0.0
C1258 C 0.33077 0.26901 0.66454 0.0
C1259 C 0.3209 0.28687 0.73207 0.0
C1260 C 0.30561 0.27755 0.73384 0.0
C1261 C 0.30221 0.26524 0.69738 0.0
C1262 C 0.31472 0.26107 0.66257 0.0
C1263 C 0.29581 0.27694 0.78022 0.0
C1264 C 0.30129 0.26524 0.81602 0.0
C1265 C 0.28123 0.28709 0.78905 0.0
C1266 C 0.27556 0.30029 0.7536 0.0
C1267 C 0.26993 0.29572 0.7062 0.0
C1268 C 0.26459 0.30833 0.67302 0.0
C1269 C 0.26472 0.32554 0.68701 0.0
C1270 C 0.27012 0.33017 0.73429 0.0
C1271 C 0.27548 0.3176 0.76758 0.0
H1272 H 0.26057 0.33529 0.66129 0.0
H1273 H 0.31327 0.21567 0.99077 0.0
H1274 H 0.33357 0.78346 0.39869 0.0
H1275 H 0.3107 0.77396 0.34552 0.0
H1276 H 0.30076 0.73122 0.44216 0.0
H1277 H 0.32443 0.74046 0.49586 0.0
H1278 H 0.30106 0.72158 0.34417 0.0
H1279 H 0.27255 0.76331 0.43975 0.0
H1280 H 0.26836 0.79071 0.48318 0.0
H1281 H 0.27151 0.81778 0.34566 0.0
H1282 H 0.27597 0.79057 0.30143 0.0
H1283 H 0.21627 0.72523 0.21644 0.0
H1284 H 0.24026 0.72023 0.27261 0.0
H1285 H 0.27209 0.75305 0.18353 0.0
H1286 H 0.24819 0.75777 0.12663 0.0
H1287 H 0.25776 0.76369 0.28789 0.0
H1288 H 0.28839 0.71996 0.19511 0.0
H1289 H 0.29094 0.69166 0.15561 0.0
H1290 H 0.28064 0.66712 0.29421 0.0
H1291 H 0.27778 0.6953 0.33442 0.0
C1292 C 0.32653 0.77209 0.40923 0.0
C1293 C 0.33088 0.76271 0.45166 0.0
C1294 C 0.31336 0.76671 0.3787 0.0
C1295 C 0.30391 0.75199 0.39013 0.0
C1296 C 0.30791 0.74265 0.43285 0.0
C1297 C 0.3213 0.74803 0.46365 0.0
C1298 C 0.29017 0.74662 0.35601 0.0
C1299 C 0.29134 0.73062 0.33252 0.0
C1300 C 0.27749 0.75842 0.34093 0.0
C1301 C 0.27465 0.77487 0.36727 0.0
C1302 C 0.27244 0.77511 0.41877 0.0
C1303 C 0.27001 0.79061 0.44354 0.0
C1304 C 0.26968 0.80597 0.4172 0.0
C1305 C 0.27175 0.80587 0.36601 0.0
C1306 C 0.2742 0.7904 0.34106 0.0
C1307 C 0.22871 0.7305 0.20732 0.0
C1308 C 0.23054 0.74184 0.16746 0.0
C1309 C 0.24237 0.72765 0.23938 0.0
C1310 C 0.25784 0.73631 0.23211 0.0
C1311 C 0.26024 0.74612 0.18923 0.0
C1312 C 0.24665 0.74876 0.1567 0.0
C1313 C 0.26924 0.73908 0.27456 0.0
C1314 C 0.26737 0.75458 0.29996 0.0
C1315 C 0.28089 0.72666 0.29185 0.0
C1316 C 0.28265 0.70975 0.26764 0.0
C1317 C 0.28647 0.70854 0.21706 0.0
C1318 C 0.28803 0.69252 0.19457 0.0
C1319 C 0.2859 0.6776 0.22234 0.0
C1320 C 0.28226 0.67868 0.27271 0.0
C1321 C 0.28068 0.69468 0.29538 0.0
H1322 H 0.28711 0.66521 0.20486 0.0
H1323 H 0.26781 0.81796 0.43645 0.0
H1324 H 0.51478 0.96881 0.39975 0.0
H1325 H 0.52289 0.99201 0.45536 0.0
H1326 H 0.56625 0.96247 0.50541 0.0
H1327 H 0.55775 0.93904 0.45033 0.0
H1328 H 0.54666 0.97067 0.57946 0.0
H1329 H 0.57176 1.00255 0.44969 0.0
H1330 H 0.57404 0.01487 0.36622 0.0
H1331 H 0.52921 0.04529 0.3925 0.0
H1332 H 0.52647 0.03298 0.47582 0.0
H1333 H 0.54834 0.04728 0.7462 0.0
H1334 H 0.55844 0.02449 0.69039 0.0
H1335 H 0.51083 0.02703 0.61053 0.0
H1336 H 0.50057 0.04921 0.66586 0.0
H1337 H 0.5435 0.03343 0.55468 0.0
H1338 H 0.51405 0.99522 0.6691 0.0
H1339 H 0.50857 0.97982 0.7469 0.0
H1340 H 0.5599 0.96021 0.74547 0.0
H1341 H 0.56578 0.97576 0.668 0.0
C1342 C 0.52644 0.96765 0.42111 0.0
C1343 C 0.5358 0.9524 0.42075 0.0
C1344 C 0.53113 0.9809 0.45281 0.0
C1345 C 0.54528 0.97905 0.48438 0.0
C1346 C 0.55536 0.96421 0.48121 0.0
C1347 C 0.55059 0.95091 0.44966 0.0
C1348 C 0.54749 0.99112 0.52602 0.0
C1349 C 0.54661 0.98444 0.57409 0.0
C1350 C 0.54715 0.00905 0.519 0.0
C1351 C 0.54893 0.01682 0.46918 0.0
C1352 C 0.56235 0.01183 0.43766 0.0
C1353 C 0.56372 0.01882 0.39034 0.0
C1354 C 0.5518 0.03088 0.37412 0.0
C1355 C 0.53848 0.036 0.4052 0.0
C1356 C 0.53703 0.02904 0.45254 0.0
C1357 C 0.53988 0.04261 0.71757 0.0
C1358 C 0.52378 0.05023 0.70989 0.0
C1359 C 0.5457 0.0297 0.68566 0.0
C1360 C 0.53544 0.0244 0.64602 0.0
C1361 C 0.51898 0.03116 0.64058 0.0
C1362 C 0.51315 0.04383 0.67233 0.0
C1363 C 0.54192 0.01284 0.60728 0.0
C1364 C 0.54441 0.01969 0.55993 0.0
C1365 C 0.54356 0.99507 0.61479 0.0
C1366 C 0.54046 0.98693 0.66331 0.0
C1367 C 0.52429 0.98795 0.68593 0.0
C1368 C 0.52107 0.97908 0.72975 0.0
C1369 C 0.53386 0.969 0.75098 0.0
C1370 C 0.54999 0.96799 0.7289 0.0
C1371 C 0.55329 0.97687 0.68513 0.0
H1372 H 0.53128 0.96198 0.78458 0.0
H1373 H 0.55285 0.03624 0.33743 0.0
H1374 H 0.02701 0.03162 0.88618 0.0
H1375 H 0.01775 0.00873 0.9415 0.0
H1376 H 0.98813 0.0451 0.02582 0.0
H1377 H 0.99791 0.06803 0.97134 0.0
H1378 H 0.01139 0.03182 0.08087 0.0
H1379 H 0.9692 0.00825 0.97768 0.0
H1380 H 0.95577 0.99807 0.90088 0.0
H1381 H 0.99367 0.95853 0.88821 0.0
H1382 H 0.00751 0.96861 0.9645 0.0
H1383 H 0.01694 0.96052 0.25328 0.0
H1384 H 0.00324 0.98233 0.20119 0.0
H1385 H 0.03485 0.96694 0.0785 0.0
H1386 H 0.04864 0.94558 0.12943 0.0
H1387 H 0.99974 0.97016 0.05417 0.0
H1388 H 0.04576 1.00077 0.14034 0.0
H1389 H 0.06016 0.01143 0.21524 0.0
H1390 H 0.01439 0.03806 0.2578 0.0
H1391 H 0.99967 0.02735 0.18335 0.0
C1392 C 0.01781 0.0345 0.91495 0.0
C1393 C 0.01316 0.05145 0.92487 0.0
C1394 C 0.01249 0.02143 0.94665 0.0
C1395 C 1.0023 0.02521 0.98813 0.0
C1396 C 0.99602 0.04189 0.99425 0.0
C1397 C 1.00152 0.05495 0.96302 0.0
C1398 C 1.00163 0.01296 0.02984 0.0
C1399 C 0.00822 0.01843 0.07545 0.0
C1400 C 0.9977 0.99546 0.02286 0.0
C1401 C 0.98942 0.98923 0.97692 0.0
C1402 C 0.97475 0.99744 0.9584 0.0
C1403 C 0.96705 0.99168 0.91494 0.0
C1404 C 0.97387 0.97767 0.88968 0.0
C1405 C 0.98839 0.96937 0.90786 0.0
C1406 C 0.99614 0.97508 0.9513 0.0
C1407 C 0.02107 0.96192 0.21535 0.0
C1408 C 0.0339 0.95126 0.19566 0.0
C1409 C 0.01314 0.97426 0.18562 0.0
C1410 C 0.01786 0.97597 0.13587 0.0
C1411 C 0.03082 0.96559 0.11658 0.0
C1412 C 0.03882 0.95347 0.14609 0.0
C1413 C 0.01018 0.98906 0.10349 0.0
C1414 C 1.0021 0.9837 0.0599 0.0
C1415 C 0.01273 0.00667 0.11211 0.0
C1416 C 0.02155 0.01306 0.15679 0.0
C1417 C 0.03873 0.00876 0.16594 0.0
C1418 C 0.04695 0.01484 0.20823 0.0
C1419 C 0.03817 0.02535 0.24137 0.0
C1420 C 0.02115 0.02986 0.23218 0.0
C1421 C 0.01287 0.0238 0.18997 0.0
H1422 H 0.04456 0.03006 0.27408 0.0
H1423 H 0.96789 0.97323 0.85603 0.0
H1424 H 0.99706 0.45282 0.70294 0.0
H1425 H 0.999 0.47552 0.64136 0.0
H1426 H 0.0532 0.46646 0.62692 0.0
H1427 H 0.05133 0.44358 0.68908 0.0
H1428 H 0.04562 0.50111 0.63395 0.0
H1429 H 0.02612 0.45354 0.53686 0.0
H1430 H 0.00734 0.42918 0.51639 0.0
H1431 H 0.964 0.46289 0.50993 0.0
H1432 H 0.98248 0.48741 0.53102 0.0
H1433 H 0.05277 0.55668 0.42319 0.0
H1434 H 0.05426 0.53326 0.48326 0.0
H1435 H 0.99908 0.53161 0.48924 0.0
H1436 H 0.99763 0.55436 0.42771 0.0
H1437 H 0.00917 0.50115 0.48437 0.0
H1438 H 0.02694 0.5482 0.58629 0.0
H1439 H 0.04452 0.57307 0.61014 0.0
H1440 H 0.08949 0.54147 0.61144 0.0
H1441 H 0.07219 0.51645 0.58701 0.0
C1442 C 0.0094 0.4555 0.68646 0.0
C1443 C 0.02403 0.44624 0.70092 0.0
C1444 C 0.01049 0.46853 0.65105 0.0
C1445 C 0.02622 0.47271 0.62897 0.0
C1446 C 0.04089 0.4635 0.64326 0.0
C1447 C 0.03979 0.45033 0.67859 0.0
C1448 C 0.02723 0.48684 0.59162 0.0
C1449 C 0.03786 0.501 0.60079 0.0
C1450 C 0.01679 0.48701 0.54891 0.0
C1451 C 0.00567 0.47229 0.53589 0.0
C1452 C 0.01257 0.45574 0.53141 0.0
C1453 C 1.00198 0.4419 0.51964 0.0
C1454 C 0.98448 0.44448 0.51196 0.0
C1455 C 0.97755 0.46091 0.51591 0.0
C1456 C 0.98808 0.47478 0.52771 0.0
C1457 C 0.04098 0.55147 0.43788 0.0
C1458 C 0.02508 0.55746 0.42069 0.0
C1459 C 0.04182 0.53805 0.47245 0.0
C1460 C 0.02678 0.53057 0.49159 0.0
C1461 C 0.01092 0.53694 0.4752 0.0
C1462 C 0.01009 0.55008 0.4401 0.0
C1463 C 0.02735 0.51572 0.52695 0.0
C1464 C 0.01701 0.50134 0.51736 0.0
C1465 C 0.03788 0.51548 0.5696 0.0
C1466 C 0.0483 0.5305 0.5843 0.0
C1467 C 0.0406 0.54658 0.59131 0.0
C1468 C 0.05051 0.5607 0.60499 0.0
C1469 C 0.06812 0.55886 0.61215 0.0
C1470 C 0.07585 0.54288 0.60579 0.0
C1471 C 0.066 0.52873 0.59207 0.0
H1472 H 0.07577 0.56981 0.62275 0.0
H1473 H 0.97631 0.43375 0.50287 0.0
H1474 H 0.82996 0.72134 0.96163 0.0
H1475 H 0.80786 0.72166 0.89744 0.0
H1476 H 0.81373 0.77624 0.88252 0.0
H1477 H 0.83626 0.77594 0.94582 0.0
H1478 H 0.77777 0.76273 0.89434 0.0
H1479 H 0.82879 0.75549 0.79562 0.0
H1480 H 0.8559 0.74148 0.77235 0.0
H1481 H 0.82931 0.69407 0.749 0.0
H1482 H 0.80207 0.70775 0.77285 0.0
H1483 H 0.72374 0.77317 0.68454 0.0
H1484 H 0.74671 0.77439 0.7458 0.0
H1485 H 0.75621 0.72046 0.72511 0.0
H1486 H 0.73384 0.71943 0.66226 0.0
H1487 H 0.78501 0.7344 0.73197 0.0
H1488 H 0.73493 0.73906 0.83169 0.0
H1489 H 0.70719 0.75059 0.85971 0.0
H1490 H 0.73054 0.79941 0.88734 0.0
H1491 H 0.75838 0.78822 0.85886 0.0
C1492 C 0.82668 0.7334 0.94439 0.0
C1493 C 0.83497 0.74861 0.95878 0.0
C1494 C 0.81401 0.73356 0.90769 0.0
C1495 C 0.80907 0.74897 0.88511 0.0
C1496 C 0.81729 0.76419 0.8994 0.0
C1497 C 0.83025 0.76399 0.93538 0.0
C1498 C 0.79519 0.74913 0.84707 0.0
C1499 C 0.77941 0.75678 0.85849 0.0
C1500 C 0.79707 0.74082 0.801 0.0
C1501 C 0.81342 0.7326 0.78653 0.0
C1502 C 0.82875 0.74204 0.78599 0.0
C1503 C 0.84414 0.73417 0.77259 0.0
C1504 C 0.84434 0.71689 0.75934 0.0
C1505 C 0.82914 0.70745 0.75934 0.0
C1506 C 0.81372 0.71526 0.77275 0.0
C1507 C 0.73067 0.76155 0.69325 0.0
C1508 C 0.72686 0.74619 0.66848 0.0
C1509 C 0.7438 0.76223 0.72864 0.0
C1510 C 0.75322 0.74746 0.74116 0.0
C1511 C 0.7493 0.7321 0.71647 0.0
C1512 C 0.73639 0.73149 0.68053 0.0
C1513 C 0.76735 0.74802 0.77894 0.0
C1514 C 0.78324 0.74044 0.76763 0.0
C1515 C 0.76542 0.75605 0.82564 0.0
C1516 C 0.7487 0.76285 0.84261 0.0
C1517 C 0.73412 0.75229 0.84335 0.0
C1518 C 0.71838 0.75876 0.85939 0.0
C1519 C 0.71709 0.77573 0.87515 0.0
C1520 C 0.73155 0.78627 0.87503 0.0
C1521 C 0.74731 0.77987 0.85897 0.0
H1522 H 0.7049 0.78071 0.88757 0.0
H1523 H 0.85626 0.71082 0.74896 0.0
H1524 H 0.55454 0.54201 0.24483 0.0
H1525 H 0.5539 0.51898 0.18419 0.0
H1526 H 0.51576 0.54642 0.10074 0.0
H1527 H 0.5157 0.56915 0.16324 0.0
H1528 H 0.50742 0.51478 0.10027 0.0
H1529 H 0.56136 0.54277 0.0672 0.0
H1530 H 0.58983 0.55424 0.08862 0.0
H1531 H 0.60591 0.50437 0.1363 0.0
H1532 H 0.57749 0.49264 0.11568 0.0
H1533 H 0.51372 0.46089 0.88805 0.0
H1534 H 0.51308 0.48435 0.94776 0.0
H1535 H 0.55435 0.46056 0.02848 0.0
H1536 H 0.55595 0.43802 0.9658 0.0
H1537 H 0.56086 0.49113 0.02906 0.0
H1538 H 0.507 0.46302 0.065 0.0
H1539 H 0.47853 0.45129 0.04481 0.0
H1540 H 0.46225 0.5007 0.99378 0.0
H1541 H 0.49067 0.51267 0.0132 0.0
C1542 C 0.54609 0.54324 0.21337 0.0
C1543 C 0.53529 0.55756 0.20877 0.0
C1544 C 0.54581 0.53003 0.17835 0.0
C1545 C 0.53508 0.53095 0.13674 0.0
C1546 C 0.52424 0.54529 0.13214 0.0
C1547 C 0.52426 0.55837 0.16784 0.0
C1548 C 0.5349 0.51684 0.09886 0.0
C1549 C 0.51913 0.50978 0.08428 0.0
C1550 C 0.5501 0.50984 0.07846 0.0
C1551 C 0.56726 0.51686 0.09022 0.0
C1552 C 0.57095 0.53427 0.08245 0.0
C1553 C 0.58708 0.54082 0.09443 0.0
C1554 C 0.59966 0.53005 0.11389 0.0
C1555 C 0.59616 0.5127 0.12125 0.0
C1556 C 0.58005 0.50609 0.10935 0.0
C1557 C 0.52245 0.46058 0.91907 0.0
C1558 C 0.53469 0.44748 0.9228 0.0
C1559 C 0.52204 0.47399 0.95358 0.0
C1560 C 0.53338 0.47428 0.99405 0.0
C1561 C 0.5454 0.46087 0.99803 0.0
C1562 C 0.54623 0.44783 0.96243 0.0
C1563 C 0.53337 0.4888 0.03084 0.0
C1564 C 0.54912 0.49602 0.04511 0.0
C1565 C 0.51814 0.49586 0.05119 0.0
C1566 C 0.501 0.4887 0.0402 0.0
C1567 C 0.49736 0.47136 0.04931 0.0
C1568 C 0.48123 0.46467 0.038 0.0
C1569 C 0.4686 0.47524 0.01793 0.0
C1570 C 0.47204 0.49253 0.0093 0.0
C1571 C 0.48815 0.49927 0.02051 0.0
H1572 H 0.45613 0.47003 0.00914 0.0
H1573 H 0.61212 0.53515 0.1232 0.0
H1574 H 0.83908 0.23157 0.19524 0.0
H1575 H 0.81627 0.23066 0.2576 0.0
H1576 H 0.80403 0.28339 0.22682 0.0
H1577 H 0.82682 0.28442 0.16518 0.0
H1578 H 0.80343 0.278 0.32373 0.0
H1579 H 0.77964 0.24944 0.18149 0.0
H1580 H 0.77893 0.22756 0.11595 0.0
H1581 H 0.77842 0.18777 0.22519 0.0
H1582 H 0.77935 0.20942 0.29139 0.0
H1583 H 0.72313 0.28477 0.44224 0.0
H1584 H 0.74628 0.28415 0.38158 0.0
H1585 H 0.75196 0.22977 0.40412 0.0
H1586 H 0.72806 0.23025 0.46276 0.0
H1587 H 0.75682 0.23508 0.31339 0.0
H1588 H 0.78018 0.26291 0.45598 0.0
H1589 H 0.78161 0.28433 0.52268 0.0
H1590 H 0.78403 0.32475 0.41559 0.0
H1591 H 0.78241 0.30359 0.34824 0.0
C1592 C 0.83161 0.243 0.20199 0.0
C1593 C 0.83483 0.25805 0.17499 0.0
C1594 C 0.81846 0.24244 0.23751 0.0
C1595 C 0.80817 0.25691 0.24678 0.0
C1596 C 0.81168 0.27203 0.22058 0.0
C1597 C 0.82476 0.27258 0.18514 0.0
C1598 C 0.79369 0.25641 0.28331 0.0
C1599 C 0.79316 0.26871 0.32113 0.0
C1600 C 0.78042 0.24404 0.28111 0.0
C1601 C 0.77973 0.23104 0.24136 0.0
C1602 C 0.77949 0.23602 0.19151 0.0
C1603 C 0.77903 0.22366 0.15425 0.0
C1604 C 0.77867 0.20628 0.1664 0.0
C1605 C 0.77872 0.20123 0.21584 0.0
C1606 C 0.7792 0.21354 0.25324 0.0
C1607 C 0.72924 0.27265 0.43404 0.0
C1608 C 0.72373 0.25756 0.45755 0.0
C1609 C 0.74266 0.27232 0.39957 0.0
C1610 C 0.7514 0.25699 0.38881 0.0
C1611 C 0.74562 0.24183 0.41157 0.0
C1612 C 0.73191 0.2421 0.44524 0.0
C1613 C 0.76646 0.25676 0.35396 0.0
C1614 C 0.76711 0.24433 0.31636 0.0
C1615 C 0.77995 0.26893 0.35665 0.0
C1616 C 0.78103 0.28167 0.39709 0.0
C1617 C 0.78092 0.27638 0.44667 0.0
C1618 C 0.78178 0.28847 0.48459 0.0
C1619 C 0.78287 0.30589 0.47338 0.0
C1620 C 0.78317 0.31126 0.42422 0.0
C1621 C 0.7823 0.29922 0.38616 0.0
H1622 H 0.78352 0.31524 0.50278 0.0
H1623 H 0.77832 0.19673 0.1375 0.0
H1624 H 0.34938 0.26184 0.40466 0.0
H1625 H 0.32671 0.26158 0.3421 0.0
H1626 H 0.29517 0.23088 0.43851 0.0
H1627 H 0.31821 0.23013 0.499 0.0
H1628 H 0.28943 0.21975 0.35655 0.0
H1629 H 0.29025 0.27763 0.41408 0.0
H1630 H 0.3028 0.30582 0.43336 0.0
H1631 H 0.3161 0.31279 0.28096 0.0
H1632 H 0.30381 0.28454 0.26088 0.0
H1633 H 0.21719 0.26834 0.20626 0.0
H1634 H 0.23983 0.26828 0.26885 0.0
H1635 H 0.26222 0.22363 0.20093 0.0
H1636 H 0.23921 0.22319 0.14015 0.0
H1637 H 0.27168 0.27282 0.27048 0.0
H1638 H 0.28439 0.19949 0.27948 0.0
H1639 H 0.26834 0.17242 0.27169 0.0
H1640 H 0.22183 0.19828 0.31128 0.0
H1641 H 0.23763 0.22544 0.31991 0.0
C1642 C 0.33762 0.25497 0.41226 0.0
C1643 C 0.33566 0.24598 0.45684 0.0
C1644 C 0.32452 0.25495 0.37659 0.0
C1645 C 0.30884 0.24648 0.38536 0.0
C1646 C 0.307 0.23748 0.43006 0.0
C1647 C 0.32024 0.23709 0.46495 0.0
C1648 C 0.2944 0.24675 0.34837 0.0
C1649 C 0.28563 0.23142 0.3379 0.0
C1650 C 0.2889 0.26192 0.32418 0.0
C1651 C 0.29627 0.27891 0.33609 0.0
C1652 C 0.29595 0.28513 0.38475 0.0
C1653 C 0.303 0.30112 0.39581 0.0
C1654 C 0.31028 0.31107 0.35843 0.0
C1655 C 0.31048 0.30506 0.30989 0.0
C1656 C 0.30346 0.28907 0.29864 0.0
C1657 C 0.22684 0.2584 0.20505 0.0
C1658 C 0.22621 0.24565 0.16843 0.0
C1659 C 0.23989 0.25842 0.24078 0.0
C1660 C 0.25279 0.2458 0.24059 0.0
C1661 C 0.25229 0.23326 0.20329 0.0
C1662 C 0.23909 0.23306 0.16819 0.0
C1663 C 0.26679 0.24584 0.27882 0.0
C1664 C 0.2755 0.26118 0.2893 0.0
C1665 C 0.27176 0.23084 0.30465 0.0
C1666 C 0.26218 0.21453 0.2998 0.0
C1667 C 0.27075 0.19938 0.28666 0.0
C1668 C 0.2617 0.18403 0.28207 0.0
C1669 C 0.24407 0.18364 0.29081 0.0
C1670 C 0.23547 0.1986 0.30432 0.0
C1671 C 0.24446 0.21399 0.30901 0.0
H1672 H 0.23708 0.17175 0.28722 0.0
H1673 H 0.31574 0.32344 0.36707 0.0
H1674 H 0.33528 0.78729 0.6933 0.0
H1675 H 0.31211 0.785 0.75384 0.0
H1676 H 0.3077 0.73105 0.72343 0.0
H1677 H 0.33128 0.73319 0.6634 0.0
H1678 H 0.2751 0.75043 0.72458 0.0
H1679 H 0.32454 0.74016 0.82526 0.0
H1680 H 0.3533 0.74625 0.85822 0.0
H1681 H 0.33556 0.79435 0.91525 0.0
H1682 H 0.30673 0.78867 0.88197 0.0
H1683 H 0.21772 0.73386 0.9273 0.0
H1684 H 0.24087 0.73284 0.86602 0.0
H1685 H 0.25708 0.78335 0.90979 0.0
H1686 H 0.23419 0.78436 0.97106 0.0
H1687 H 0.28414 0.76372 0.90154 0.0
H1688 H 0.23586 0.77574 0.79953 0.0
H1689 H 0.20707 0.77155 0.76437 0.0
H1690 H 0.22223 0.72252 0.70774 0.0
H1691 H 0.25106 0.72631 0.74319 0.0
C1692 C 0.32949 0.77489 0.69968 0.0
C1693 C 0.33524 0.7604 0.67356 0.0
C1694 C 0.31621 0.7736 0.73436 0.0
C1695 C 0.30809 0.75786 0.74333 0.0
C1696 C 0.31372 0.74335 0.71718 0.0
C1697 C 0.32728 0.74457 0.6831 0.0
C1698 C 0.29375 0.75673 0.77999 0.0
C1699 C 0.27711 0.75302 0.76346 0.0
C1700 C 0.29621 0.76061 0.83051 0.0
C1701 C 0.31351 0.76406 0.85069 0.0
C1702 C 0.3268 0.75211 0.84443 0.0
C1703 C 0.34311 0.75547 0.86326 0.0
C1704 C 0.34626 0.7707 0.8887 0.0
C1705 C 0.3331 0.78257 0.89548 0.0
C1706 C 0.31677 0.77928 0.87668 0.0
C1707 C 0.22612 0.74481 0.92357 0.0
C1708 C 0.22398 0.75921 0.95419 0.0
C1709 C 0.23938 0.74423 0.88836 0.0
C1710 C 0.25082 0.75806 0.88279 0.0
C1711 C 0.24857 0.77247 0.91317 0.0
C1712 C 0.23535 0.77306 0.94818 0.0
C1713 C 0.26533 0.7575 0.84629 0.0
C1714 C 0.28205 0.76096 0.8628 0.0
C1715 C 0.26289 0.75361 0.79564 0.0
C1716 C 0.24555 0.75121 0.77456 0.0
C1717 C 0.233 0.76399 0.78 0.0
C1718 C 0.21669 0.7617 0.75994 0.0
C1719 C 0.21281 0.74675 0.73399 0.0
C1720 C 0.22525 0.73407 0.72796 0.0
C1721 C 0.24158 0.73629 0.74801 0.0
H1722 H 0.20017 0.74501 0.71844 0.0
H1723 H 0.3589 0.77327 0.90326 0.0
H1724 H 0.55043 0.94031 0.18187 0.0
H1725 H 0.55271 0.96415 0.12292 0.0
H1726 H 0.502 0.98088 0.16297 0.0
H1727 H 0.49965 0.95728 0.22152 0.0
H1728 H 0.53463 0.97373 0.04138 0.0
H1729 H 0.5005 0.02447 0.16373 0.0
H1730 H 0.49669 0.03103 0.25207 0.0
H1731 H 0.54348 0.00472 0.28583 0.0
H1732 H 0.54771 0.99824 0.19765 0.0
H1733 H 0.50102 0.0445 0.90697 0.0
H1734 H 0.50385 0.02179 0.9686 0.0
H1735 H 0.55039 0.04482 0.02188 0.0
H1736 H 0.54792 0.06744 0.95897 0.0
H1737 H 0.52421 0.03315 0.09895 0.0
H1738 H 0.55872 0.01348 0.9654 0.0
H1739 H 0.5649 0.00819 0.87755 0.0
H1740 H 0.52232 0.97356 0.86938 0.0
H1741 H 0.51577 0.97881 0.9572 0.0
C1742 C 0.53973 0.94901 0.17786 0.0
C1743 C 0.52488 0.94684 0.20665 0.0
C1744 C 0.54104 0.96265 0.14409 0.0
C1745 C 0.52763 0.97454 0.1388 0.0
C1746 C 0.51266 0.97212 0.16675 0.0
C1747 C 0.51131 0.9585 0.20016 0.0
C1748 C 0.52915 0.98955 0.10456 0.0
C1749 C 0.5324 0.98668 0.05421 0.0
C1750 C 0.52662 0.00664 0.12098 0.0
C1751 C 0.52433 0.01073 0.17406 0.0
C1752 C 0.51002 0.02016 0.18996 0.0
C1753 C 0.50778 0.02385 0.24002 0.0
C1754 C 0.5198 0.01825 0.27455 0.0
C1755 C 0.53414 0.00901 0.25907 0.0
C1756 C 0.53645 0.0053 0.20905 0.0
C1757 C 0.51184 0.04483 0.93191 0.0
C1758 C 0.52424 0.05784 0.92794 0.0
C1759 C 0.51344 0.0318 0.96715 0.0
C1760 C 0.52731 0.03158 1.00004 0.0
C1761 C 0.53954 0.04475 0.99707 0.0
C1762 C 0.53814 0.05763 0.96097 0.0
C1763 C 0.52918 0.01717 0.03599 0.0
C1764 C 0.52651 0.02017 0.08646 0.0
C1765 C 0.53259 1.00027 0.01999 0.0
C1766 C 0.53668 0.99664 0.96768 0.0
C1767 C 0.55062 0.00481 0.94478 0.0
C1768 C 0.55421 1.00181 0.89505 0.0
C1769 C 0.544 0.99058 0.86789 0.0
C1770 C 0.53022 0.98225 0.89048 0.0
C1771 C 0.52658 0.98521 0.94028 0.0
H1772 H 0.54681 0.98837 0.8294 0.0
H1773 H 0.51802 0.02109 0.31329 0.0
H1774 H 0.06185 0.04864 0.71792 0.0
H1775 H 0.06083 0.02689 0.65322 0.0
H1776 H 0.00756 0.03824 0.62814 0.0
H1777 H 0.00856 0.06028 0.69293 0.0
H1778 H 0.01442 1.00269 0.63455 0.0
H1779 H 0.03609 0.05132 0.54589 0.0
H1780 H 0.05548 0.07568 0.53097 0.0
H1781 H 0.09848 0.0415 0.52629 0.0
H1782 H 0.07937 0.01695 0.54187 0.0
H1783 H 0.00956 0.94974 0.41895 0.0
H1784 H 0.0077 0.97306 0.47921 0.0
H1785 H 0.06274 0.97335 0.4921 0.0
H1786 H 0.06463 0.95062 0.43056 0.0
H1787 H 0.0533 0.00425 0.48991 0.0
H1788 H 0.03352 0.95614 0.58374 0.0
H1789 H 0.01546 0.93111 0.60282 0.0
H1790 H 0.97071 0.96301 0.60273 0.0
H1791 H 0.9885 0.98821 0.58303 0.0
C1792 C 0.04992 0.04665 0.69848 0.0
C1793 C 0.0353 0.05632 0.71064 0.0
C1794 C 0.04936 0.03417 0.66131 0.0
C1795 C 0.03414 0.03089 0.6354 0.0
C1796 C 0.01947 0.0405 0.64747 0.0
C1797 C 0.02008 0.05318 0.68436 0.0
C1798 C 0.03364 0.0173 0.59634 0.0
C1799 C 0.02271 0.00316 0.60245 0.0
C1800 C 0.04479 0.01758 0.5551 0.0
C1801 C 0.0563 0.03231 0.54546 0.0
C1802 C 0.0497 0.04901 0.54206 0.0
C1803 C 0.06064 0.06285 0.53341 0.0
C1804 C 0.07821 0.06015 0.52779 0.0
C1805 C 0.08487 0.04358 0.53069 0.0
C1806 C 0.07398 0.0297 0.53937 0.0
C1807 C 0.02125 0.95471 0.43489 0.0
C1808 C 0.03724 0.94821 0.41991 0.0
C1809 C 0.02019 0.96805 0.46966 0.0
C1810 C 0.03507 0.97501 0.49118 0.0
C1811 C 0.05102 0.96839 0.47633 0.0
C1812 C 0.05209 0.95526 0.44114 0.0
C1813 C 0.03421 0.98938 0.52821 0.0
C1814 C 0.04491 0.00372 0.52177 0.0
C1815 C 0.02304 0.98914 0.56958 0.0
C1816 C 0.01232 0.97402 0.58135 0.0
C1817 C 0.01981 0.95779 0.58741 0.0
C1818 C 0.00963 0.94358 0.5984 0.0
C1819 C 0.99194 0.94546 0.60383 0.0
C1820 C 0.98441 0.96157 0.59842 0.0
C1821 C 0.99454 0.97582 0.58737 0.0
H1822 H 0.98408 0.93444 0.61236 0.0
H1823 H 0.08666 0.07088 0.5211 0.0
loop_
_geom_bond_atom_site_label_1
_geom_bond_atom_site_label_2
_geom_bond_distance
_geom_bond_site_symmetry_2
_ccdc_geom_bond_type
Co0 O1 2.216 . S
Co0 O2 2.091 . S
Co0 O4 2.004 . S
Co0 O10 2.021 . S
Co0 O12 2.137 . S
Co0 O13 2.244 . S
O1 Co0 2.216 . S
O1 C8 1.247 . S
O2 Co0 2.091 . S
O2 C8 1.261 . S
C3 O12 1.276 . S
C3 O13 1.290 . S
O4 Co0 2.004 . S
O4 C9 1.259 . S
Co5 O6 2.061 . S
Co5 O11 2.052 . S
Co5 O13 2.135 . S
O6 Co5 2.061 . S
O6 C9 1.235 . S
C7 O10 1.238 . S
C7 O11 1.241 . S
C8 O1 1.247 . S
C8 O2 1.261 . S
C9 O4 1.259 . S
C9 O6 1.235 . S
O10 Co0 2.021 . S
O10 C7 1.238 . S
O11 Co5 2.052 . S
O11 C7 1.241 . S
O12 Co0 2.137 . S
O12 C3 1.276 . S
O13 Co0 2.244 . S
O13 C3 1.290 . S
O13 Co5 2.135 . S
Co14 O15 2.216 . S
Co14 O16 2.091 . S
Co14 O18 2.004 . S
Co14 O24 2.021 . S
Co14 O26 2.137 . S
Co14 O27 2.244 . S
O15 Co14 2.216 . S
O15 C22 1.247 . S
O16 Co14 2.091 . S
O16 C22 1.261 . S
C17 O26 1.247 . S
C17 O27 1.272 . S
O18 Co14 2.004 . S
O18 C23 1.259 . S
Co19 O20 2.061 . S
Co19 O25 2.052 . S
Co19 O27 2.135 . S
O20 Co19 2.061 . S
O20 C23 1.235 . S
C21 O24 1.238 . S
C21 O25 1.241 . S
C22 O15 1.247 . S
C22 O16 1.261 . S
C23 O18 1.259 . S
C23 O20 1.235 . S
O24 Co14 2.021 . S
O24 C21 1.238 . S
O25 Co19 2.052 . S
O25 C21 1.241 . S
O26 Co14 2.137 . S
O26 C17 1.247 . S
O27 Co14 2.244 . S
O27 C17 1.272 . S
O27 Co19 2.135 . S
Co28 O29 2.216 . S
Co28 O30 2.091 . S
Co28 O32 2.004 . S
Co28 O38 2.021 . S
Co28 O40 2.137 . S
Co28 O41 2.244 . S
O29 Co28 2.216 . S
O29 C36 1.247 . S
O30 Co28 2.091 . S
O30 C36 1.261 . S
C31 O40 1.247 . S
C31 O41 1.272 . S
O32 Co28 2.004 . S
O32 C37 1.259 . S
Co33 O34 2.061 . S
Co33 O39 2.052 . S
Co33 O41 2.135 . S
O34 Co33 2.061 . S
O34 C37 1.235 . S
C35 O38 1.238 . S
C35 O39 1.241 . S
C36 O29 1.247 . S
C36 O30 1.261 . S
C37 O32 1.259 . S
C37 O34 1.235 . S
O38 Co28 2.021 . S
O38 C35 1.238 . S
O39 Co33 2.052 . S
O39 C35 1.241 . S
O40 Co28 2.137 . S
O40 C31 1.247 . S
O41 Co28 2.244 . S
O41 C31 1.272 . S
O41 Co33 2.135 . S
Co42 O43 2.216 . S
Co42 O44 2.091 . S
Co42 O46 2.004 . S
Co42 O52 2.021 1_554 S
Co42 O54 2.137 . S
Co42 O55 2.244 1_554 S
O43 Co42 2.216 . S
O43 C50 1.247 . S
O44 Co42 2.091 . S
O44 C50 1.261 . S
C45 O54 1.247 . S
C45 O55 1.272 1_554 S
O46 Co42 2.004 . S
O46 C51 1.259 1_554 S
Co47 O48 2.061 . S
Co47 O53 2.052 . S
Co47 O55 2.135 . S
O48 Co47 2.061 . S
O48 C51 1.235 . S
C49 O52 1.238 . S
C49 O53 1.241 . S
C50 O43 1.247 . S
C50 O44 1.261 . S
C51 O46 1.259 1_556 S
C51 O48 1.235 . S
O52 Co42 2.021 1_556 S
O52 C49 1.238 . S
O53 Co47 2.052 . S
O53 C49 1.241 . S
O54 Co42 2.137 . S
O54 C45 1.247 . S
O55 Co42 2.244 1_556 S
O55 C45 1.272 1_556 S
O55 Co47 2.135 . S
Co56 O57 2.216 . S
Co56 O58 2.091 . S
Co56 O60 2.004 . S
Co56 O66 2.021 . S
Co56 O68 2.137 . S
Co56 O69 2.244 . S
O57 Co56 2.216 . S
O57 C64 1.247 . S
O58 Co56 2.091 . S
O58 C64 1.261 . S
C59 O68 1.275 . S
C59 O69 1.289 . S
O60 Co56 2.004 . S
O60 C65 1.259 . S
Co61 O62 2.061 . S
Co61 O67 2.052 . S
Co61 O69 2.135 . S
O62 Co61 2.061 . S
O62 C65 1.235 . S
C63 O66 1.238 . S
C63 O67 1.241 . S
C64 O57 1.247 . S
C64 O58 1.261 . S
C65 O60 1.259 . S
C65 O62 1.235 . S
O66 Co56 2.021 . S
O66 C63 1.238 . S
O67 Co61 2.052 . S
O67 C63 1.241 . S
O68 Co56 2.137 . S
O68 C59 1.275 . S
O69 Co56 2.244 . S
O69 C59 1.289 . S
O69 Co61 2.135 . S
Co70 O71 2.216 . S
Co70 O72 2.091 . S
Co70 O74 2.004 . S
Co70 O80 2.021 . S
Co70 O82 2.137 . S
Co70 O83 2.244 . S
O71 Co70 2.216 . S
O71 C78 1.247 . S
O72 Co70 2.091 . S
O72 C78 1.261 . S
C73 O82 1.247 . S
C73 O83 1.272 . S
O74 Co70 2.004 . S
O74 C79 1.259 . S
Co75 O76 2.061 . S
Co75 O81 2.052 . S
Co75 O83 2.135 . S
O76 Co75 2.061 . S
O76 C79 1.235 . S
C77 O80 1.238 . S
C77 O81 1.241 . S
C78 O71 1.247 . S
C78 O72 1.261 . S
C79 O74 1.259 . S
C79 O76 1.235 . S
O80 Co70 2.021 . S
O80 C77 1.238 . S
O81 Co75 2.052 . S
O81 C77 1.241 . S
O82 Co70 2.137 . S
O82 C73 1.247 . S
O83 Co70 2.244 . S
O83 C73 1.272 . S
O83 Co75 2.135 . S
Co84 O85 2.216 . S
Co84 O86 2.091 . S
Co84 O88 2.004 . S
Co84 O94 2.021 . S
Co84 O96 2.137 . S
Co84 O97 2.244 . S
O85 Co84 2.216 . S
O85 C92 1.247 . S
O86 Co84 2.091 . S
O86 C92 1.261 . S
C87 O96 1.247 . S
C87 O97 1.272 . S
O88 Co84 2.004 . S
O88 C93 1.259 . S
Co89 O90 2.061 . S
Co89 O95 2.052 . S
Co89 O97 2.135 . S
O90 Co89 2.061 . S
O90 C93 1.235 . S
C91 O94 1.238 . S
C91 O95 1.241 . S
C92 O85 1.247 . S
C92 O86 1.261 . S
C93 O88 1.259 . S
C93 O90 1.235 . S
O94 Co84 2.021 . S
O94 C91 1.238 . S
O95 Co89 2.052 . S
O95 C91 1.241 . S
O96 Co84 2.137 . S
O96 C87 1.247 . S
O97 Co84 2.244 . S
O97 C87 1.272 . S
O97 Co89 2.135 . S
Co98 O99 2.216 . S
Co98 O100 2.091 . S
Co98 O102 2.004 . S
Co98 O108 2.021 . S
Co98 O110 2.137 . S
Co98 O111 2.244 . S
O99 Co98 2.216 . S
O99 C106 1.247 . S
O100 Co98 2.091 . S
O100 C106 1.261 . S
C101 O110 1.247 . S
C101 O111 1.272 . S
O102 Co98 2.004 . S
O102 C107 1.259 . S
Co103 O104 2.061 . S
Co103 O109 2.052 . S
Co103 O111 2.135 . S
O104 Co103 2.061 . S
O104 C107 1.235 . S
C105 O108 1.238 . S
C105 O109 1.241 . S
C106 O99 1.247 . S
C106 O100 1.261 . S
C107 O102 1.259 . S
C107 O104 1.235 . S
O108 Co98 2.021 . S
O108 C105 1.238 . S
O109 Co103 2.052 . S
O109 C105 1.241 . S
O110 Co98 2.137 . S
O110 C101 1.247 . S
O111 Co98 2.244 . S
O111 C101 1.272 . S
O111 Co103 2.135 . S
Co112 O113 2.216 . S
Co112 O114 2.091 . S
Co112 O116 2.004 . S
Co112 O122 2.021 . S
Co112 O124 2.137 . S
Co112 O125 2.244 . S
O113 Co112 2.216 . S
O113 C120 1.247 . S
O114 Co112 2.091 . S
O114 C120 1.261 . S
C115 O124 1.247 . S
C115 O125 1.272 . S
O116 Co112 2.004 . S
O116 C121 1.259 . S
Co117 O118 2.061 . S
Co117 O123 2.052 . S
Co117 O125 2.135 . S
O118 Co117 2.061 . S
O118 C121 1.235 . S
C119 O122 1.238 . S
C119 O123 1.241 . S
C120 O113 1.247 . S
C120 O114 1.261 . S
C121 O116 1.259 . S
C121 O118 1.235 . S
O122 Co112 2.021 . S
O122 C119 1.238 . S
O123 Co117 2.052 . S
O123 C119 1.241 . S
O124 Co112 2.137 . S
O124 C115 1.247 . S
O125 Co112 2.244 . S
O125 C115 1.272 . S
O125 Co117 2.135 . S
Co126 O127 2.216 . S
Co126 O128 2.091 . S
Co126 O130 2.004 . S
Co126 O136 2.021 . S
Co126 O138 2.137 . S
Co126 O139 2.244 . S
O127 Co126 2.216 . S
O127 C134 1.247 . S
O128 Co126 2.091 . S
O128 C134 1.261 . S
C129 O138 1.247 . S
C129 O139 1.272 . S
O130 Co126 2.004 . S
O130 C135 1.259 . S
Co131 O132 2.061 . S
Co131 O137 2.052 . S
Co131 O139 2.135 . S
O132 Co131 2.061 . S
O132 C135 1.235 . S
C133 O136 1.238 . S
C133 O137 1.241 . S
C134 O127 1.247 . S
C134 O128 1.261 . S
C135 O130 1.259 . S
C135 O132 1.235 . S
O136 Co126 2.021 . S
O136 C133 1.238 . S
O137 Co131 2.052 . S
O137 C133 1.241 . S
O138 Co126 2.137 . S
O138 C129 1.247 . S
O139 Co126 2.244 . S
O139 C129 1.272 . S
O139 Co131 2.135 . S
Co140 O141 2.216 . S
Co140 O142 2.091 . S
Co140 O144 2.004 . S
Co140 O150 2.021 1_554 S
Co140 O152 2.137 . S
Co140 O153 2.244 1_554 S
O141 Co140 2.216 . S
O141 C148 1.247 . S
O142 Co140 2.091 . S
O142 C148 1.261 . S
C143 O152 1.247 . S
C143 O153 1.272 1_554 S
O144 Co140 2.004 . S
O144 C149 1.259 1_554 S
Co145 O146 2.061 . S
Co145 O151 2.052 . S
Co145 O153 2.135 . S
O146 Co145 2.061 . S
O146 C149 1.235 . S
C147 O150 1.238 . S
C147 O151 1.241 . S
C148 O141 1.247 . S
C148 O142 1.261 . S
C149 O144 1.259 1_556 S
C149 O146 1.235 . S
O150 Co140 2.021 1_556 S
O150 C147 1.238 . S
O151 Co145 2.052 . S
O151 C147 1.241 . S
O152 Co140 2.137 . S
O152 C143 1.247 . S
O153 Co140 2.244 1_556 S
O153 C143 1.272 1_556 S
O153 Co145 2.135 . S
Co154 O155 2.216 . S
Co154 O156 2.091 . S
Co154 O158 2.004 . S
Co154 O164 2.021 . S
Co154 O166 2.137 . S
Co154 O167 2.244 . S
O155 Co154 2.216 . S
O155 C162 1.247 . S
O156 Co154 2.091 . S
O156 C162 1.261 . S
C157 O166 1.247 . S
C157 O167 1.272 . S
O158 Co154 2.004 . S
O158 C163 1.259 . S
Co159 O160 2.061 . S
Co159 O165 2.052 . S
Co159 O167 2.135 . S
O160 Co159 2.061 . S
O160 C163 1.235 . S
C161 O164 1.238 . S
C161 O165 1.241 . S
C162 O155 1.247 . S
C162 O156 1.261 . S
C163 O158 1.259 . S
C163 O160 1.235 . S
O164 Co154 2.021 . S
O164 C161 1.238 . S
O165 Co159 2.052 . S
O165 C161 1.241 . S
O166 Co154 2.137 . S
O166 C157 1.247 . S
O167 Co154 2.244 . S
O167 C157 1.272 . S
O167 Co159 2.135 . S
Co168 O169 2.216 . S
Co168 O170 2.091 . S
Co168 O172 2.004 . S
Co168 O178 2.021 . S
Co168 O180 2.137 . S
Co168 O181 2.244 . S
O169 Co168 2.216 . S
O169 C176 1.247 . S
O170 Co168 2.091 . S
O170 C176 1.261 . S
C171 O180 1.247 . S
C171 O181 1.272 . S
O172 Co168 2.004 . S
O172 C177 1.259 . S
Co173 O174 2.061 . S
Co173 O179 2.052 . S
Co173 O181 2.135 . S
O174 Co173 2.061 . S
O174 C177 1.235 . S
C175 O178 1.238 . S
C175 O179 1.241 . S
C176 O169 1.247 . S
C176 O170 1.261 . S
C177 O172 1.259 . S
C177 O174 1.235 . S
O178 Co168 2.021 . S
O178 C175 1.238 . S
O179 Co173 2.052 . S
O179 C175 1.241 . S
O180 Co168 2.137 . S
O180 C171 1.247 . S
O181 Co168 2.244 . S
O181 C171 1.272 . S
O181 Co173 2.135 . S
Co182 O183 2.216 . S
Co182 O184 2.091 . S
Co182 O186 2.004 . S
Co182 O192 2.021 . S
Co182 O194 2.137 . S
Co182 O195 2.244 . S
O183 Co182 2.216 . S
O183 C190 1.247 . S
O184 Co182 2.091 . S
O184 C190 1.261 . S
C185 O194 1.247 . S
C185 O195 1.272 . S
O186 Co182 2.004 . S
O186 C191 1.259 . S
Co187 O188 2.061 . S
Co187 O193 2.052 . S
Co187 O195 2.135 . S
O188 Co187 2.061 . S
O188 C191 1.235 . S
C189 O192 1.238 . S
C189 O193 1.241 . S
C190 O183 1.247 . S
C190 O184 1.261 . S
C191 O186 1.259 . S
C191 O188 1.235 . S
O192 Co182 2.021 . S
O192 C189 1.238 . S
O193 Co187 2.052 . S
O193 C189 1.241 . S
O194 Co182 2.137 . S
O194 C185 1.247 . S
O195 Co182 2.244 . S
O195 C185 1.272 . S
O195 Co187 2.135 . S
Co196 O197 2.216 . S
Co196 O198 2.091 . S
Co196 O200 2.004 . S
Co196 O206 2.021 . S
Co196 O208 2.137 . S
Co196 O209 2.244 . S
O197 Co196 2.216 . S
O197 C204 1.247 . S
O198 Co196 2.091 . S
O198 C204 1.261 . S
C199 O208 1.247 . S
C199 O209 1.272 . S
O200 Co196 2.004 . S
O200 C205 1.259 . S
Co201 O202 2.061 . S
Co201 O207 2.052 . S
Co201 O209 2.135 . S
O202 Co201 2.061 . S
O202 C205 1.235 . S
C203 O206 1.238 . S
C203 O207 1.241 . S
C204 O197 1.247 . S
C204 O198 1.261 . S
C205 O200 1.259 . S
C205 O202 1.235 . S
O206 Co196 2.021 . S
O206 C203 1.238 . S
O207 Co201 2.052 . S
O207 C203 1.241 . S
O208 Co196 2.137 . S
O208 C199 1.247 . S
O209 Co196 2.244 . S
O209 C199 1.272 . S
O209 Co201 2.135 . S
Co210 O211 2.216 . S
Co210 O212 2.091 . S
Co210 O214 2.004 . S
Co210 O220 2.021 . S
Co210 O222 2.137 . S
Co210 O223 2.244 . S
O211 Co210 2.216 . S
O211 C218 1.247 . S
O212 Co210 2.091 . S
O212 C218 1.261 . S
C213 O222 1.247 . S
C213 O223 1.272 . S
O214 Co210 2.004 . S
O214 C219 1.259 . S
Co215 O216 2.061 . S
Co215 O221 2.052 . S
Co215 O223 2.135 . S
O216 Co215 2.061 . S
O216 C219 1.235 . S
C217 O220 1.238 . S
C217 O221 1.241 . S
C218 O211 1.247 . S
C218 O212 1.261 . S
C219 O214 1.259 . S
C219 O216 1.235 . S
O220 Co210 2.021 . S
O220 C217 1.238 . S
O221 Co215 2.052 . S
O221 C217 1.241 . S
O222 Co210 2.137 . S
O222 C213 1.247 . S
O223 Co210 2.244 . S
O223 C213 1.272 . S
O223 Co215 2.135 . S
H224 C242 0.951 . S
H225 C244 0.951 . S
H226 C246 0.950 . S
H227 C247 0.950 . S
H228 C249 0.950 . S
H229 C252 0.950 . S
H230 C253 0.950 . S
H231 C255 0.950 . S
H232 C256 0.950 . S
H233 C257 0.951 . S
H234 C259 0.951 . S
H235 C261 0.950 . S
H236 C262 0.950 . S
H237 C264 0.950 . S
H238 C267 0.950 . S
H239 C268 0.950 . S
H240 C270 0.950 . S
H241 C271 0.950 . S
C242 H224 0.951 . S
C242 C243 1.366 . S
C242 C244 1.388 . S
C243 C242 1.366 . S
C243 C247 1.385 . S
C244 H225 0.951 . S
C244 C242 1.388 . S
C244 C245 1.366 . S
C245 C244 1.366 . S
C245 C246 1.414 . S
C245 C248 1.499 . S
C246 H226 0.950 . S
C246 C245 1.414 . S
C246 C247 1.374 . S
C247 H227 0.950 . S
C247 C243 1.385 . S
C247 C246 1.374 . S
C248 C245 1.499 . S
C248 C249 1.373 . S
C248 C250 1.389 . S
C249 H228 0.950 . S
C249 C248 1.373 . S
C249 C265 1.377 . S
C250 C248 1.389 . S
C250 C251 1.524 . S
C250 C264 1.377 . S
C251 C250 1.524 . S
C251 C252 1.397 . S
C251 C256 1.363 . S
C252 H229 0.950 . S
C252 C251 1.397 . S
C252 C253 1.334 . S
C253 H230 0.950 . S
C253 C252 1.334 . S
C253 C254 1.287 . S
C254 C253 1.287 . S
C254 C255 1.524 . S
C254 H273 0.913 . S
C255 H231 0.950 . S
C255 C254 1.524 . S
C255 C256 1.415 . S
C256 H232 0.950 . S
C256 C251 1.363 . S
C256 C255 1.415 . S
C257 H233 0.951 . S
C257 C258 1.366 . S
C257 C259 1.388 . S
C258 C257 1.366 . S
C258 C262 1.385 . S
C259 H234 0.951 . S
C259 C257 1.388 . S
C259 C260 1.366 . S
C260 C259 1.366 . S
C260 C261 1.414 . S
C260 C263 1.499 . S
C261 H235 0.950 . S
C261 C260 1.414 . S
C261 C262 1.374 . S
C262 H236 0.950 . S
C262 C258 1.385 . S
C262 C261 1.374 . S
C263 C260 1.499 . S
C263 C264 1.373 . S
C263 C265 1.389 . S
C264 H237 0.950 . S
C264 C250 1.377 . S
C264 C263 1.373 . S
C265 C249 1.377 . S
C265 C263 1.389 . S
C265 C266 1.524 . S
C266 C265 1.524 . S
C266 C267 1.397 . S
C266 C271 1.363 . S
C267 H238 0.950 . S
C267 C266 1.397 . S
C267 C268 1.334 . S
C268 H239 0.950 . S
C268 C267 1.334 . S
C268 C269 1.287 . S
C269 C268 1.287 . S
C269 C270 1.524 . S
C269 H272 0.999 . S
C270 H240 0.950 . S
C270 C269 1.524 . S
C270 C271 1.415 . S
C271 H241 0.950 . S
C271 C266 1.363 . S
C271 C270 1.415 . S
H272 C269 0.999 . S
H273 C254 0.913 . S
H274 C292 0.951 . S
H275 C294 0.951 . S
H276 C296 0.950 . S
H277 C297 0.950 . S
H278 C299 0.950 . S
H279 C302 0.950 . S
H280 C303 0.950 . S
H281 C305 0.950 . S
H282 C306 0.950 . S
H283 C307 0.951 . S
H284 C309 0.951 . S
H285 C311 0.950 . S
H286 C312 0.950 . S
H287 C314 0.950 . S
H288 C317 0.950 . S
H289 C318 0.950 . S
H290 C320 0.950 . S
H291 C321 0.950 . S
C292 H274 0.951 . S
C292 C293 1.366 . S
C292 C294 1.388 . S
C293 C292 1.366 . S
C293 C297 1.385 . S
C294 H275 0.951 . S
C294 C292 1.388 . S
C294 C295 1.366 . S
C295 C294 1.366 . S
C295 C296 1.414 . S
C295 C298 1.499 . S
C296 H276 0.950 . S
C296 C295 1.414 . S
C296 C297 1.374 . S
C297 H277 0.950 . S
C297 C293 1.385 . S
C297 C296 1.374 . S
C298 C295 1.499 . S
C298 C299 1.373 . S
C298 C300 1.389 . S
C299 H278 0.950 . S
C299 C298 1.373 . S
C299 C315 1.377 . S
C300 C298 1.389 . S
C300 C301 1.524 . S
C300 C314 1.377 . S
C301 C300 1.524 . S
C301 C302 1.397 . S
C301 C306 1.363 . S
C302 H279 0.950 . S
C302 C301 1.397 . S
C302 C303 1.334 . S
C303 H280 0.950 . S
C303 C302 1.334 . S
C303 C304 1.287 . S
C304 C303 1.287 . S
C304 C305 1.524 . S
C304 H323 0.913 . S
C305 H281 0.950 . S
C305 C304 1.524 . S
C305 C306 1.415 . S
C306 H282 0.950 . S
C306 C301 1.363 . S
C306 C305 1.415 . S
C307 H283 0.951 . S
C307 C308 1.366 . S
C307 C309 1.388 . S
C308 C307 1.366 . S
C308 C312 1.385 . S
C309 H284 0.951 . S
C309 C307 1.388 . S
C309 C310 1.366 . S
C310 C309 1.366 . S
C310 C311 1.414 . S
C310 C313 1.499 . S
C311 H285 0.950 . S
C311 C310 1.414 . S
C311 C312 1.374 . S
C312 H286 0.950 . S
C312 C308 1.385 . S
C312 C311 1.374 . S
C313 C310 1.499 . S
C313 C314 1.373 . S
C313 C315 1.389 . S
C314 H287 0.950 . S
C314 C300 1.377 . S
C314 C313 1.373 . S
C315 C299 1.377 . S
C315 C313 1.389 . S
C315 C316 1.524 . S
C316 C315 1.524 . S
C316 C317 1.397 . S
C316 C321 1.363 . S
C317 H288 0.950 . S
C317 C316 1.397 . S
C317 C318 1.334 . S
C318 H289 0.950 . S
C318 C317 1.334 . S
C318 C319 1.287 . S
C319 C318 1.287 . S
C319 C320 1.524 . S
C319 H322 0.999 . S
C320 H290 0.950 . S
C320 C319 1.524 . S
C320 C321 1.415 . S
C321 H291 0.950 . S
C321 C316 1.363 . S
C321 C320 1.415 . S
H322 C319 0.999 . S
H323 C304 0.913 . S
H324 C342 0.951 . S
H325 C344 0.951 . S
H326 C346 0.950 . S
H327 C347 0.950 . S
H328 C349 0.950 . S
H329 C352 0.950 . S
H330 C353 0.950 . S
H331 C355 0.950 . S
H332 C356 0.950 . S
H333 C357 0.951 . S
H334 C359 0.951 . S
H335 C361 0.950 . S
H336 C362 0.950 . S
H337 C364 0.950 . S
H338 C367 0.950 . S
H339 C368 0.950 . S
H340 C370 0.950 . S
H341 C371 0.950 . S
C342 H324 0.951 . S
C342 C343 1.366 . S
C342 C344 1.388 . S
C343 C342 1.366 . S
C343 C347 1.385 . S
C344 H325 0.951 . S
C344 C342 1.388 . S
C344 C345 1.366 . S
C345 C344 1.366 . S
C345 C346 1.414 . S
C345 C348 1.499 . S
C346 H326 0.950 . S
C346 C345 1.414 . S
C346 C347 1.374 . S
C347 H327 0.950 . S
C347 C343 1.385 . S
C347 C346 1.374 . S
C348 C345 1.499 . S
C348 C349 1.373 . S
C348 C350 1.389 . S
C349 H328 0.950 . S
C349 C348 1.373 . S
C349 C365 1.377 . S
C350 C348 1.389 . S
C350 C351 1.524 . S
C350 C364 1.377 . S
C351 C350 1.524 . S
C351 C352 1.397 . S
C351 C356 1.363 . S
C352 H329 0.950 . S
C352 C351 1.397 . S
C352 C353 1.334 . S
C353 H330 0.950 . S
C353 C352 1.334 . S
C353 C354 1.287 . S
C354 C353 1.287 . S
C354 C355 1.524 . S
C354 H373 0.913 . S
C355 H331 0.950 . S
C355 C354 1.524 . S
C355 C356 1.415 . S
C356 H332 0.950 . S
C356 C351 1.363 . S
C356 C355 1.415 . S
C357 H333 0.951 . S
C357 C358 1.366 . S
C357 C359 1.388 . S
C358 C357 1.366 . S
C358 C362 1.385 . S
C359 H334 0.951 . S
C359 C357 1.388 . S
C359 C360 1.366 . S
C360 C359 1.366 . S
C360 C361 1.414 . S
C360 C363 1.499 . S
C361 H335 0.950 . S
C361 C360 1.414 . S
C361 C362 1.374 . S
C362 H336 0.950 . S
C362 C358 1.385 . S
C362 C361 1.374 . S
C363 C360 1.499 . S
C363 C364 1.373 . S
C363 C365 1.389 . S
C364 H337 0.950 . S
C364 C350 1.377 . S
C364 C363 1.373 . S
C365 C349 1.377 . S
C365 C363 1.389 . S
C365 C366 1.524 . S
C366 C365 1.524 . S
C366 C367 1.397 . S
C366 C371 1.363 . S
C367 H338 0.950 . S
C367 C366 1.397 . S
C367 C368 1.334 . S
C368 H339 0.950 . S
C368 C367 1.334 . S
C368 C369 1.287 . S
C369 C368 1.287 . S
C369 C370 1.524 . S
C369 H372 0.999 . S
C370 H340 0.950 . S
C370 C369 1.524 . S
C370 C371 1.415 . S
C371 H341 0.950 . S
C371 C366 1.363 . S
C371 C370 1.415 . S
H372 C369 0.999 . S
H373 C354 0.913 . S
H374 C392 0.951 . S
H375 C394 0.951 1_554 S
H376 C396 0.950 . S
H377 C397 0.950 . S
H378 C399 0.950 . S
H379 C402 0.950 . S
H380 C403 0.950 . S
H381 C405 0.950 . S
H382 C406 0.950 1_554 S
H383 C407 0.951 . S
H384 C409 0.951 . S
H385 C411 0.950 . S
H386 C412 0.951 . S
H387 C414 0.950 . S
H388 C417 0.950 . S
H389 C418 0.950 . S
H390 C420 0.950 . S
H391 C421 0.950 . S
C392 H374 0.951 . S
C392 C393 1.366 1_554 S
C392 C394 1.388 1_554 S
C393 C392 1.366 1_556 S
C393 C397 1.385 . S
C394 H375 0.951 1_556 S
C394 C392 1.388 1_556 S
C394 C395 1.366 . S
C395 C394 1.366 . S
C395 C396 1.414 . S
C395 C398 1.499 . S
C396 H376 0.950 . S
C396 C395 1.414 . S
C396 C397 1.374 . S
C397 H377 0.950 . S
C397 C393 1.385 . S
C397 C396 1.374 . S
C398 C395 1.499 . S
C398 C399 1.373 . S
C398 C400 1.389 . S
C399 H378 0.950 . S
C399 C398 1.373 . S
C399 C415 1.377 . S
C400 C398 1.389 . S
C400 C401 1.524 . S
C400 C414 1.377 . S
C401 C400 1.524 . S
C401 C402 1.397 . S
C401 C406 1.363 . S
C402 H379 0.950 . S
C402 C401 1.397 . S
C402 C403 1.334 . S
C403 H380 0.950 . S
C403 C402 1.334 . S
C403 C404 1.287 . S
C404 C403 1.287 . S
C404 C405 1.524 1_556 S
C404 H423 0.913 . S
C405 H381 0.950 . S
C405 C404 1.524 1_554 S
C405 C406 1.415 1_554 S
C406 H382 0.950 1_556 S
C406 C401 1.363 . S
C406 C405 1.415 1_556 S
C407 H383 0.951 . S
C407 C408 1.366 . S
C407 C409 1.388 . S
C408 C407 1.366 . S
C408 C412 1.385 . S
C409 H384 0.951 . S
C409 C407 1.388 . S
C409 C410 1.366 . S
C410 C409 1.366 . S
C410 C411 1.414 . S
C410 C413 1.499 . S
C411 H385 0.950 . S
C411 C410 1.414 . S
C411 C412 1.374 . S
C412 H386 0.951 . S
C412 C408 1.385 . S
C412 C411 1.374 . S
C413 C410 1.499 . S
C413 C414 1.373 . S
C413 C415 1.389 . S
C414 H387 0.950 . S
C414 C400 1.377 . S
C414 C413 1.373 . S
C415 C399 1.377 . S
C415 C413 1.389 . S
C415 C416 1.524 . S
C416 C415 1.524 . S
C416 C417 1.397 . S
C416 C421 1.363 . S
C417 H388 0.950 . S
C417 C416 1.397 . S
C417 C418 1.334 . S
C418 H389 0.950 . S
C418 C417 1.334 . S
C418 C419 1.287 . S
C419 C418 1.287 . S
C419 C420 1.524 . S
C419 H422 0.999 . S
C420 H390 0.950 . S
C420 C419 1.524 . S
C420 C421 1.415 . S
C421 H391 0.950 . S
C421 C416 1.363 . S
C421 C420 1.415 . S
H422 C419 0.999 . S
H423 C404 0.913 . S
H424 C442 0.951 . S
H425 C444 0.951 . S
H426 C446 0.950 . S
H427 C447 0.950 . S
H428 C449 0.950 . S
H429 C452 0.950 . S
H430 C453 0.950 . S
H431 C455 0.950 . S
H432 C456 0.950 . S
H433 C457 0.951 . S
H434 C459 0.951 1_554 S
H435 C461 0.950 . S
H436 C462 0.950 . S
H437 C464 0.950 . S
H438 C467 0.950 . S
H439 C468 0.950 . S
H440 C470 0.950 . S
H441 C471 0.950 . S
C442 H424 0.951 . S
C442 C443 1.366 . S
C442 C444 1.388 . S
C443 C442 1.366 . S
C443 C447 1.385 . S
C444 H425 0.951 . S
C444 C442 1.388 . S
C444 C445 1.366 . S
C445 C444 1.366 . S
C445 C446 1.414 . S
C445 C448 1.499 . S
C446 H426 0.950 . S
C446 C445 1.414 . S
C446 C447 1.374 . S
C447 H427 0.950 . S
C447 C443 1.385 . S
C447 C446 1.374 . S
C448 C445 1.499 . S
C448 C449 1.373 . S
C448 C450 1.389 . S
C449 H428 0.950 . S
C449 C448 1.373 . S
C449 C465 1.377 . S
C450 C448 1.389 . S
C450 C451 1.524 . S
C450 C464 1.377 . S
C451 C450 1.524 . S
C451 C452 1.397 . S
C451 C456 1.363 . S
C452 H429 0.950 . S
C452 C451 1.397 . S
C452 C453 1.334 . S
C453 H430 0.950 . S
C453 C452 1.334 . S
C453 C454 1.287 . S
C454 C453 1.287 . S
C454 C455 1.524 . S
C454 H473 0.913 . S
C455 H431 0.950 . S
C455 C454 1.524 . S
C455 C456 1.415 . S
C456 H432 0.950 . S
C456 C451 1.363 . S
C456 C455 1.415 . S
C457 H433 0.951 . S
C457 C458 1.366 1_554 S
C457 C459 1.388 1_554 S
C458 C457 1.366 1_556 S
C458 C462 1.385 . S
C459 H434 0.951 1_556 S
C459 C457 1.388 1_556 S
C459 C460 1.366 . S
C460 C459 1.366 . S
C460 C461 1.414 . S
C460 C463 1.499 . S
C461 H435 0.950 . S
C461 C460 1.414 . S
C461 C462 1.374 . S
C462 H436 0.950 . S
C462 C458 1.385 . S
C462 C461 1.374 . S
C463 C460 1.499 . S
C463 C464 1.373 . S
C463 C465 1.389 . S
C464 H437 0.950 . S
C464 C450 1.377 . S
C464 C463 1.373 . S
C465 C449 1.377 . S
C465 C463 1.389 . S
C465 C466 1.524 1_556 S
C466 C465 1.524 1_554 S
C466 C467 1.397 . S
C466 C471 1.363 . S
C467 H438 0.950 . S
C467 C466 1.397 . S
C467 C468 1.334 . S
C468 H439 0.950 . S
C468 C467 1.334 . S
C468 C469 1.287 . S
C469 C468 1.287 . S
C469 C470 1.524 . S
C469 H472 0.999 . S
C470 H440 0.950 . S
C470 C469 1.524 . S
C470 C471 1.415 . S
C471 H441 0.950 . S
C471 C466 1.363 . S
C471 C470 1.415 . S
H472 C469 0.999 . S
H473 C454 0.913 . S
H474 C492 0.979 . S
H475 C494 0.951 . S
H476 C496 0.950 . S
H477 C497 0.950 . S
H478 C499 0.950 . S
H479 C502 0.950 . S
H480 C503 0.950 . S
H481 C505 0.950 1_455 S
H482 C506 0.950 . S
H483 C507 0.951 . S
H484 C509 0.951 . S
H485 C511 0.950 . S
H486 C512 0.950 . S
H487 C514 0.950 . S
H488 C517 0.950 . S
H489 C518 0.950 . S
H490 C520 0.950 . S
H491 C521 0.950 . S
C492 H474 0.979 . S
C492 C493 1.366 . S
C492 C494 1.388 . S
C493 C492 1.366 . S
C493 C497 1.385 . S
C494 H475 0.951 . S
C494 C492 1.388 . S
C494 C495 1.366 . S
C495 C494 1.366 . S
C495 C496 1.414 . S
C495 C498 1.499 . S
C496 H476 0.950 . S
C496 C495 1.414 . S
C496 C497 1.374 . S
C497 H477 0.950 . S
C497 C493 1.385 . S
C497 C496 1.374 . S
C498 C495 1.499 . S
C498 C499 1.373 . S
C498 C500 1.389 . S
C499 H478 0.950 . S
C499 C498 1.373 . S
C499 C515 1.377 . S
C500 C498 1.389 . S
C500 C501 1.524 . S
C500 C514 1.377 . S
C501 C500 1.524 . S
C501 C502 1.397 . S
C501 C506 1.363 . S
C502 H479 0.950 . S
C502 C501 1.397 . S
C502 C503 1.334 1_655 S
C503 H480 0.950 . S
C503 C502 1.334 1_455 S
C503 C504 1.287 . S
C504 C503 1.287 . S
C504 C505 1.524 1_455 S
C504 H523 0.913 . S
C505 H481 0.950 1_655 S
C505 C504 1.524 1_655 S
C505 C506 1.415 . S
C506 H482 0.950 . S
C506 C501 1.363 . S
C506 C505 1.415 . S
C507 H483 0.951 . S
C507 C508 1.366 . S
C507 C509 1.388 . S
C508 C507 1.366 . S
C508 C512 1.385 . S
C509 H484 0.951 . S
C509 C507 1.388 . S
C509 C510 1.366 . S
C510 C509 1.366 . S
C510 C511 1.414 . S
C510 C513 1.499 . S
C511 H485 0.950 . S
C511 C510 1.414 . S
C511 C512 1.374 . S
C512 H486 0.950 . S
C512 C508 1.385 . S
C512 C511 1.374 . S
C513 C510 1.499 . S
C513 C514 1.373 . S
C513 C515 1.389 . S
C514 H487 0.950 . S
C514 C500 1.377 . S
C514 C513 1.373 . S
C515 C499 1.377 . S
C515 C513 1.389 . S
C515 C516 1.524 . S
C516 C515 1.524 . S
C516 C517 1.397 . S
C516 C521 1.363 . S
C517 H488 0.950 . S
C517 C516 1.397 . S
C517 C518 1.334 . S
C518 H489 0.950 . S
C518 C517 1.334 . S
C518 C519 1.287 . S
C519 C518 1.287 . S
C519 C520 1.524 . S
C519 H522 0.999 . S
C520 H490 0.950 . S
C520 C519 1.524 . S
C520 C521 1.415 . S
C521 H491 0.950 . S
C521 C516 1.363 . S
C521 C520 1.415 . S
H522 C519 0.999 . S
H523 C504 0.913 . S
H524 C542 0.951 . S
H525 C544 0.951 . S
H526 C546 0.950 . S
H527 C547 0.950 . S
H528 C549 0.950 . S
H529 C552 0.950 . S
H530 C553 0.950 . S
H531 C555 0.950 . S
H532 C556 0.950 . S
H533 C557 0.951 . S
H534 C559 0.951 . S
H535 C561 0.950 . S
H536 C562 0.950 . S
H537 C564 0.950 . S
H538 C567 0.950 . S
H539 C568 0.950 . S
H540 C570 0.950 . S
H541 C571 0.950 . S
C542 H524 0.951 . S
C542 C543 1.366 . S
C542 C544 1.388 . S
C543 C542 1.366 . S
C543 C547 1.385 . S
C544 H525 0.951 . S
C544 C542 1.388 . S
C544 C545 1.366 . S
C545 C544 1.366 . S
C545 C546 1.414 . S
C545 C548 1.499 . S
C546 H526 0.950 . S
C546 C545 1.414 . S
C546 C547 1.374 . S
C547 H527 0.950 . S
C547 C543 1.385 . S
C547 C546 1.374 . S
C548 C545 1.499 . S
C548 C549 1.373 . S
C548 C550 1.389 . S
C549 H528 0.950 . S
C549 C548 1.373 . S
C549 C565 1.377 . S
C550 C548 1.389 . S
C550 C551 1.524 . S
C550 C564 1.377 . S
C551 C550 1.524 . S
C551 C552 1.397 . S
C551 C556 1.363 . S
C552 H529 0.950 . S
C552 C551 1.397 . S
C552 C553 1.334 . S
C553 H530 0.950 . S
C553 C552 1.334 . S
C553 C554 1.287 . S
C554 C553 1.287 . S
C554 C555 1.524 . S
C554 H573 0.913 . S
C555 H531 0.950 . S
C555 C554 1.524 . S
C555 C556 1.415 . S
C556 H532 0.950 . S
C556 C551 1.363 . S
C556 C555 1.415 . S
C557 H533 0.951 . S
C557 C558 1.366 . S
C557 C559 1.388 . S
C558 C557 1.366 . S
C558 C562 1.385 . S
C559 H534 0.951 . S
C559 C557 1.388 . S
C559 C560 1.366 . S
C560 C559 1.366 . S
C560 C561 1.414 . S
C560 C563 1.499 . S
C561 H535 0.950 . S
C561 C560 1.414 . S
C561 C562 1.374 . S
C562 H536 0.950 . S
C562 C558 1.385 . S
C562 C561 1.374 . S
C563 C560 1.499 . S
C563 C564 1.373 . S
C563 C565 1.389 . S
C564 H537 0.950 . S
C564 C550 1.377 . S
C564 C563 1.373 . S
C565 C549 1.377 . S
C565 C563 1.389 . S
C565 C566 1.524 . S
C566 C565 1.524 . S
C566 C567 1.397 . S
C566 C571 1.363 . S
C567 H538 0.950 . S
C567 C566 1.397 . S
C567 C568 1.334 . S
C568 H539 0.950 . S
C568 C567 1.334 . S
C568 C569 1.287 . S
C569 C568 1.287 . S
C569 C570 1.524 . S
C569 H572 0.999 . S
C570 H540 0.950 . S
C570 C569 1.524 . S
C570 C571 1.415 . S
C571 H541 0.950 . S
C571 C566 1.363 . S
C571 C570 1.415 . S
H572 C569 0.999 . S
H573 C554 0.913 . S
H574 C592 0.951 . S
H575 C594 0.951 . S
H576 C596 0.950 . S
H577 C597 0.950 . S
H578 C599 0.950 . S
H579 C602 0.950 . S
H580 C603 0.950 . S
H581 C605 0.950 . S
H582 C606 0.950 . S
H583 C607 0.951 . S
H584 C609 0.951 . S
H585 C611 0.950 . S
H586 C612 0.950 . S
H587 C614 0.950 . S
H588 C617 0.950 . S
H589 C618 0.950 . S
H590 C620 0.950 . S
H591 C621 0.950 . S
C592 H574 0.951 . S
C592 C593 1.366 . S
C592 C594 1.388 . S
C593 C592 1.366 . S
C593 C597 1.385 . S
C594 H575 0.951 . S
C594 C592 1.388 . S
C594 C595 1.366 . S
C595 C594 1.366 . S
C595 C596 1.414 . S
C595 C598 1.499 . S
C596 H576 0.950 . S
C596 C595 1.414 . S
C596 C597 1.374 . S
C597 H577 0.950 . S
C597 C593 1.385 . S
C597 C596 1.374 . S
C598 C595 1.499 . S
C598 C599 1.373 . S
C598 C600 1.389 . S
C599 H578 0.950 . S
C599 C598 1.373 . S
C599 C615 1.377 . S
C600 C598 1.389 . S
C600 C601 1.524 . S
C600 C614 1.377 . S
C601 C600 1.524 . S
C601 C602 1.397 . S
C601 C606 1.363 . S
C602 H579 0.950 . S
C602 C601 1.397 . S
C602 C603 1.334 . S
C603 H580 0.950 . S
C603 C602 1.334 . S
C603 C604 1.287 . S
C604 C603 1.287 . S
C604 C605 1.524 . S
C604 H623 0.913 . S
C605 H581 0.950 . S
C605 C604 1.524 . S
C605 C606 1.415 . S
C606 H582 0.950 . S
C606 C601 1.363 . S
C606 C605 1.415 . S
C607 H583 0.951 . S
C607 C608 1.366 . S
C607 C609 1.388 . S
C608 C607 1.366 . S
C608 C612 1.385 . S
C609 H584 0.951 . S
C609 C607 1.388 . S
C609 C610 1.366 . S
C610 C609 1.366 . S
C610 C611 1.414 . S
C610 C613 1.499 . S
C611 H585 0.950 . S
C611 C610 1.414 . S
C611 C612 1.374 . S
C612 H586 0.950 . S
C612 C608 1.385 . S
C612 C611 1.374 . S
C613 C610 1.499 . S
C613 C614 1.373 . S
C613 C615 1.389 . S
C614 H587 0.950 . S
C614 C600 1.377 . S
C614 C613 1.373 . S
C615 C599 1.377 . S
C615 C613 1.389 . S
C615 C616 1.524 . S
C616 C615 1.524 . S
C616 C617 1.397 . S
C616 C621 1.363 . S
C617 H588 0.950 . S
C617 C616 1.397 . S
C617 C618 1.334 . S
C618 H589 0.950 . S
C618 C617 1.334 . S
C618 C619 1.287 . S
C619 C618 1.287 . S
C619 C620 1.524 . S
C619 H622 0.999 . S
C620 H590 0.950 . S
C620 C619 1.524 . S
C620 C621 1.415 . S
C621 H591 0.950 . S
C621 C616 1.363 . S
C621 C620 1.415 . S
H622 C619 0.999 . S
H623 C604 0.913 . S
H624 C642 0.951 . S
H625 C644 0.951 . S
H626 C646 0.950 . S
H627 C647 0.950 . S
H628 C649 0.950 . S
H629 C652 0.950 . S
H630 C653 0.950 . S
H631 C655 0.950 . S
H632 C656 0.950 . S
H633 C657 0.951 . S
H634 C659 0.952 . S
H635 C661 0.950 . S
H636 C662 0.950 . S
H637 C664 0.950 . S
H638 C667 0.950 . S
H639 C668 0.950 . S
H640 C670 0.950 . S
H641 C671 0.950 . S
C642 H624 0.951 . S
C642 C643 1.366 . S
C642 C644 1.388 . S
C643 C642 1.366 . S
C643 C647 1.385 . S
C644 H625 0.951 . S
C644 C642 1.388 . S
C644 C645 1.366 . S
C645 C644 1.366 . S
C645 C646 1.414 . S
C645 C648 1.499 . S
C646 H626 0.950 . S
C646 C645 1.414 . S
C646 C647 1.374 . S
C647 H627 0.950 . S
C647 C643 1.385 . S
C647 C646 1.374 . S
C648 C645 1.499 . S
C648 C649 1.373 . S
C648 C650 1.389 . S
C649 H628 0.950 . S
C649 C648 1.373 . S
C649 C665 1.377 . S
C650 C648 1.389 . S
C650 C651 1.524 . S
C650 C664 1.377 . S
C651 C650 1.524 . S
C651 C652 1.397 . S
C651 C656 1.363 . S
C652 H629 0.950 . S
C652 C651 1.397 . S
C652 C653 1.334 . S
C653 H630 0.950 . S
C653 C652 1.334 . S
C653 C654 1.287 . S
C654 C653 1.287 . S
C654 C655 1.524 . S
C654 H673 0.913 . S
C655 H631 0.950 . S
C655 C654 1.524 . S
C655 C656 1.415 . S
C656 H632 0.950 . S
C656 C651 1.363 . S
C656 C655 1.415 . S
C657 H633 0.951 . S
C657 C658 1.366 . S
C657 C659 1.389 . S
C658 C657 1.366 . S
C658 C662 1.385 1_554 S
C659 H634 0.952 . S
C659 C657 1.389 . S
C659 C660 1.363 1_554 S
C660 C659 1.363 1_556 S
C660 C661 1.414 . S
C660 C663 1.499 . S
C661 H635 0.950 . S
C661 C660 1.414 . S
C661 C662 1.374 . S
C662 H636 0.950 . S
C662 C658 1.385 1_556 S
C662 C661 1.374 . S
C663 C660 1.499 . S
C663 C664 1.373 . S
C663 C665 1.389 . S
C664 H637 0.950 . S
C664 C650 1.377 . S
C664 C663 1.373 . S
C665 C649 1.377 . S
C665 C663 1.389 . S
C665 C666 1.524 1_556 S
C666 C665 1.524 1_554 S
C666 C667 1.397 . S
C666 C671 1.363 . S
C667 H638 0.950 . S
C667 C666 1.397 . S
C667 C668 1.334 . S
C668 H639 0.950 . S
C668 C667 1.334 . S
C668 C669 1.287 . S
C669 C668 1.287 . S
C669 C670 1.524 . S
C669 H672 0.999 . S
C670 H640 0.950 . S
C670 C669 1.524 . S
C670 C671 1.415 . S
C671 H641 0.950 . S
C671 C666 1.363 . S
C671 C670 1.415 . S
H672 C669 0.999 . S
H673 C654 0.913 . S
H674 C692 0.951 . S
H675 C694 0.951 . S
H676 C696 0.950 . S
H677 C697 0.950 . S
H678 C699 0.950 . S
H679 C702 0.950 . S
H680 C703 0.950 . S
H681 C705 0.950 . S
H682 C706 0.950 . S
H683 C707 0.951 . S
H684 C709 0.951 . S
H685 C711 0.950 . S
H686 C712 0.950 . S
H687 C714 0.950 . S
H688 C717 0.950 . S
H689 C718 0.950 . S
H690 C720 0.950 . S
H691 C721 0.950 . S
C692 H674 0.951 . S
C692 C693 1.366 . S
C692 C694 1.388 . S
C693 C692 1.366 . S
C693 C697 1.385 . S
C694 H675 0.951 . S
C694 C692 1.388 . S
C694 C695 1.366 . S
C695 C694 1.366 . S
C695 C696 1.414 . S
C695 C698 1.499 . S
C696 H676 0.950 . S
C696 C695 1.414 . S
C696 C697 1.374 . S
C697 H677 0.950 . S
C697 C693 1.385 . S
C697 C696 1.374 . S
C698 C695 1.499 . S
C698 C699 1.373 . S
C698 C700 1.389 . S
C699 H678 0.950 . S
C699 C698 1.373 . S
C699 C715 1.377 . S
C700 C698 1.389 . S
C700 C701 1.524 . S
C700 C714 1.377 . S
C701 C700 1.524 . S
C701 C702 1.397 . S
C701 C706 1.363 . S
C702 H679 0.950 . S
C702 C701 1.397 . S
C702 C703 1.334 . S
C703 H680 0.950 . S
C703 C702 1.334 . S
C703 C704 1.287 . S
C704 C703 1.287 . S
C704 C705 1.524 . S
C704 H723 0.913 . S
C705 H681 0.950 . S
C705 C704 1.524 . S
C705 C706 1.415 . S
C706 H682 0.950 . S
C706 C701 1.363 . S
C706 C705 1.415 . S
C707 H683 0.951 . S
C707 C708 1.366 . S
C707 C709 1.388 . S
C708 C707 1.366 . S
C708 C712 1.385 . S
C709 H684 0.951 . S
C709 C707 1.388 . S
C709 C710 1.366 . S
C710 C709 1.366 . S
C710 C711 1.414 . S
C710 C713 1.499 . S
C711 H685 0.950 . S
C711 C710 1.414 . S
C711 C712 1.374 . S
C712 H686 0.950 . S
C712 C708 1.385 . S
C712 C711 1.374 . S
C713 C710 1.499 . S
C713 C714 1.373 . S
C713 C715 1.389 . S
C714 H687 0.950 . S
C714 C700 1.377 . S
C714 C713 1.373 . S
C715 C699 1.377 . S
C715 C713 1.389 . S
C715 C716 1.524 . S
C716 C715 1.524 . S
C716 C717 1.397 . S
C716 C721 1.363 . S
C717 H688 0.950 . S
C717 C716 1.397 . S
C717 C718 1.334 . S
C718 H689 0.950 . S
C718 C717 1.334 . S
C718 C719 1.287 . S
C719 C718 1.287 . S
C719 C720 1.524 . S
C719 H722 0.999 . S
C720 H690 0.950 . S
C720 C719 1.524 . S
C720 C721 1.415 . S
C721 H691 0.950 . S
C721 C716 1.363 . S
C721 C720 1.415 . S
H722 C719 0.999 . S
H723 C704 0.913 . S
H724 C742 0.951 . S
H725 C744 0.951 . S
H726 C746 0.950 . S
H727 C747 0.950 . S
H728 C749 0.950 . S
H729 C752 0.950 . S
H730 C753 0.950 . S
H731 C755 0.950 . S
H732 C756 0.950 . S
H733 C757 0.951 . S
H734 C759 0.951 . S
H735 C761 0.950 . S
H736 C762 0.950 . S
H737 C764 0.950 . S
H738 C767 0.950 . S
H739 C768 0.950 . S
H740 C770 0.950 . S
H741 C771 0.950 . S
C742 H724 0.951 . S
C742 C743 1.366 . S
C742 C744 1.388 . S
C743 C742 1.366 . S
C743 C747 1.385 . S
C744 H725 0.951 . S
C744 C742 1.388 . S
C744 C745 1.366 . S
C745 C744 1.366 . S
C745 C746 1.414 . S
C745 C748 1.499 . S
C746 H726 0.950 . S
C746 C745 1.414 . S
C746 C747 1.374 . S
C747 H727 0.950 . S
C747 C743 1.385 . S
C747 C746 1.374 . S
C748 C745 1.499 . S
C748 C749 1.373 . S
C748 C750 1.389 . S
C749 H728 0.950 . S
C749 C748 1.373 . S
C749 C765 1.377 . S
C750 C748 1.389 . S
C750 C751 1.524 . S
C750 C764 1.377 . S
C751 C750 1.524 . S
C751 C752 1.397 . S
C751 C756 1.363 . S
C752 H729 0.950 . S
C752 C751 1.397 . S
C752 C753 1.334 . S
C753 H730 0.950 . S
C753 C752 1.334 . S
C753 C754 1.287 . S
C754 C753 1.287 . S
C754 C755 1.524 . S
C754 H773 0.913 . S
C755 H731 0.950 . S
C755 C754 1.524 . S
C755 C756 1.415 . S
C756 H732 0.950 . S
C756 C751 1.363 . S
C756 C755 1.415 . S
C757 H733 0.951 . S
C757 C758 1.366 . S
C757 C759 1.388 . S
C758 C757 1.366 . S
C758 C762 1.385 . S
C759 H734 0.951 . S
C759 C757 1.388 . S
C759 C760 1.366 . S
C760 C759 1.366 . S
C760 C761 1.414 . S
C760 C763 1.499 . S
C761 H735 0.950 . S
C761 C760 1.414 . S
C761 C762 1.374 . S
C762 H736 0.950 . S
C762 C758 1.385 . S
C762 C761 1.374 . S
C763 C760 1.499 . S
C763 C764 1.373 . S
C763 C765 1.389 . S
C764 H737 0.950 . S
C764 C750 1.377 . S
C764 C763 1.373 . S
C765 C749 1.377 . S
C765 C763 1.389 . S
C765 C766 1.524 . S
C766 C765 1.524 . S
C766 C767 1.397 . S
C766 C771 1.363 . S
C767 H738 0.950 . S
C767 C766 1.397 . S
C767 C768 1.334 . S
C768 H739 0.950 . S
C768 C767 1.334 . S
C768 C769 1.287 . S
C769 C768 1.287 . S
C769 C770 1.524 . S
C769 H772 0.999 . S
C770 H740 0.950 . S
C770 C769 1.524 . S
C770 C771 1.415 . S
C771 H741 0.950 . S
C771 C766 1.363 . S
C771 C770 1.415 . S
H772 C769 0.999 . S
H773 C754 0.913 . S
H774 C792 0.951 . S
H775 C794 0.951 . S
H776 C796 0.950 . S
H777 C797 0.950 . S
H778 C799 0.950 . S
H779 C802 0.950 . S
H780 C803 0.950 . S
H781 C805 0.950 . S
H782 C806 0.950 . S
H783 C807 0.951 . S
H784 C809 0.951 . S
H785 C811 0.950 . S
H786 C812 0.950 . S
H787 C814 0.950 . S
H788 C817 0.950 . S
H789 C818 0.950 . S
H790 C820 0.950 . S
H791 C821 0.950 . S
C792 H774 0.951 . S
C792 C793 1.366 . S
C792 C794 1.388 . S
C793 C792 1.366 . S
C793 C797 1.385 . S
C794 H775 0.951 . S
C794 C792 1.388 . S
C794 C795 1.366 . S
C795 C794 1.366 . S
C795 C796 1.414 . S
C795 C798 1.499 . S
C796 H776 0.950 . S
C796 C795 1.414 . S
C796 C797 1.374 . S
C797 H777 0.950 . S
C797 C793 1.385 . S
C797 C796 1.374 . S
C798 C795 1.499 . S
C798 C799 1.373 . S
C798 C800 1.389 . S
C799 H778 0.950 . S
C799 C798 1.373 . S
C799 C815 1.377 . S
C800 C798 1.389 . S
C800 C801 1.524 . S
C800 C814 1.377 . S
C801 C800 1.524 . S
C801 C802 1.397 . S
C801 C806 1.363 . S
C802 H779 0.950 . S
C802 C801 1.397 . S
C802 C803 1.334 . S
C803 H780 0.950 . S
C803 C802 1.334 . S
C803 C804 1.287 . S
C804 C803 1.287 . S
C804 C805 1.524 . S
C804 H823 0.913 . S
C805 H781 0.950 . S
C805 C804 1.524 . S
C805 C806 1.415 . S
C806 H782 0.950 . S
C806 C801 1.363 . S
C806 C805 1.415 . S
C807 H783 0.951 . S
C807 C808 1.366 . S
C807 C809 1.388 . S
C808 C807 1.366 . S
C808 C812 1.385 . S
C809 H784 0.951 . S
C809 C807 1.388 . S
C809 C810 1.366 . S
C810 C809 1.366 . S
C810 C811 1.414 . S
C810 C813 1.499 . S
C811 H785 0.950 . S
C811 C810 1.414 . S
C811 C812 1.374 . S
C812 H786 0.950 . S
C812 C808 1.385 . S
C812 C811 1.374 . S
C813 C810 1.499 . S
C813 C814 1.373 . S
C813 C815 1.389 . S
C814 H787 0.950 . S
C814 C800 1.377 . S
C814 C813 1.373 . S
C815 C799 1.377 . S
C815 C813 1.389 . S
C815 C816 1.524 . S
C816 C815 1.524 . S
C816 C817 1.397 . S
C816 C821 1.363 . S
C817 H788 0.950 . S
C817 C816 1.397 . S
C817 C818 1.334 . S
C818 H789 0.950 . S
C818 C817 1.334 . S
C818 C819 1.287 . S
C819 C818 1.287 . S
C819 C820 1.524 . S
C819 H822 0.999 . S
C820 H790 0.950 . S
C820 C819 1.524 . S
C820 C821 1.415 . S
C821 H791 0.950 . S
C821 C816 1.363 . S
C821 C820 1.415 . S
H822 C819 0.999 . S
H823 C804 0.913 . S
H824 C842 0.951 . S
H825 C844 0.951 . S
H826 C846 0.950 . S
H827 C847 0.950 . S
H828 C849 0.950 . S
H829 C852 0.950 . S
H830 C853 0.950 . S
H831 C855 0.950 . S
H832 C856 0.950 . S
H833 C857 0.951 . S
H834 C859 0.951 . S
H835 C861 0.950 . S
H836 C862 0.950 . S
H837 C864 0.950 . S
H838 C867 0.950 . S
H839 C868 0.950 . S
H840 C870 0.950 . S
H841 C871 0.950 . S
C842 H824 0.951 . S
C842 C843 1.366 . S
C842 C844 1.388 . S
C843 C842 1.366 . S
C843 C847 1.385 . S
C844 H825 0.951 . S
C844 C842 1.388 . S
C844 C845 1.366 . S
C845 C844 1.366 . S
C845 C846 1.414 . S
C845 C848 1.499 . S
C846 H826 0.950 . S
C846 C845 1.414 . S
C846 C847 1.374 . S
C847 H827 0.950 . S
C847 C843 1.385 . S
C847 C846 1.374 . S
C848 C845 1.499 . S
C848 C849 1.373 . S
C848 C850 1.389 . S
C849 H828 0.950 . S
C849 C848 1.373 . S
C849 C865 1.377 . S
C850 C848 1.389 . S
C850 C851 1.524 . S
C850 C864 1.377 . S
C851 C850 1.524 . S
C851 C852 1.397 . S
C851 C856 1.363 . S
C852 H829 0.950 . S
C852 C851 1.397 . S
C852 C853 1.334 1_655 S
C853 H830 0.950 . S
C853 C852 1.334 1_455 S
C853 C854 1.287 . S
C854 C853 1.287 . S
C854 C855 1.524 1_455 S
C854 H873 0.913 . S
C855 H831 0.950 . S
C855 C854 1.524 1_655 S
C855 C856 1.415 . S
C856 H832 0.950 . S
C856 C851 1.363 . S
C856 C855 1.415 . S
C857 H833 0.951 . S
C857 C858 1.366 . S
C857 C859 1.388 . S
C858 C857 1.366 . S
C858 C862 1.385 . S
C859 H834 0.951 . S
C859 C857 1.388 . S
C859 C860 1.366 . S
C860 C859 1.366 . S
C860 C861 1.414 . S
C860 C863 1.499 . S
C861 H835 0.950 . S
C861 C860 1.414 . S
C861 C862 1.374 . S
C862 H836 0.950 . S
C862 C858 1.385 . S
C862 C861 1.374 . S
C863 C860 1.499 . S
C863 C864 1.373 . S
C863 C865 1.389 . S
C864 H837 0.950 . S
C864 C850 1.377 . S
C864 C863 1.373 . S
C865 C849 1.377 . S
C865 C863 1.389 . S
C865 C866 1.524 . S
C866 C865 1.524 . S
C866 C867 1.397 . S
C866 C871 1.363 . S
C867 H838 0.950 . S
C867 C866 1.397 . S
C867 C868 1.334 . S
C868 H839 0.950 . S
C868 C867 1.334 . S
C868 C869 1.287 . S
C869 C868 1.287 . S
C869 C870 1.524 . S
C869 H872 0.999 . S
C870 H840 0.950 . S
C870 C869 1.524 . S
C870 C871 1.415 . S
C871 H841 0.950 . S
C871 C866 1.363 . S
C871 C870 1.415 . S
H872 C869 0.999 . S
H873 C854 0.913 . S
H874 C892 0.951 . S
H875 C894 0.951 . S
H876 C896 0.950 . S
H877 C897 0.950 . S
H878 C899 0.950 . S
H879 C902 0.950 . S
H880 C903 0.950 . S
H881 C905 0.950 . S
H882 C906 0.950 . S
H883 C907 0.951 . S
H884 C909 0.951 . S
H885 C911 0.950 . S
H886 C912 0.950 . S
H887 C914 0.950 . S
H888 C917 0.950 . S
H889 C918 0.950 . S
H890 C920 0.950 . S
H891 C921 0.950 . S
C892 H874 0.951 . S
C892 C893 1.366 . S
C892 C894 1.388 . S
C893 C892 1.366 . S
C893 C897 1.385 . S
C894 H875 0.951 . S
C894 C892 1.388 . S
C894 C895 1.366 . S
C895 C894 1.366 . S
C895 C896 1.414 . S
C895 C898 1.499 . S
C896 H876 0.950 . S
C896 C895 1.414 . S
C896 C897 1.374 . S
C897 H877 0.950 . S
C897 C893 1.385 . S
C897 C896 1.374 . S
C898 C895 1.499 . S
C898 C899 1.373 . S
C898 C900 1.389 . S
C899 H878 0.950 . S
C899 C898 1.373 . S
C899 C915 1.377 . S
C900 C898 1.389 . S
C900 C901 1.524 . S
C900 C914 1.377 . S
C901 C900 1.524 . S
C901 C902 1.397 . S
C901 C906 1.363 . S
C902 H879 0.950 . S
C902 C901 1.397 . S
C902 C903 1.334 . S
C903 H880 0.950 . S
C903 C902 1.334 . S
C903 C904 1.287 . S
C904 C903 1.287 . S
C904 C905 1.524 . S
C904 H923 0.913 . S
C905 H881 0.950 . S
C905 C904 1.524 . S
C905 C906 1.415 . S
C906 H882 0.950 . S
C906 C901 1.363 . S
C906 C905 1.415 . S
C907 H883 0.951 . S
C907 C908 1.366 . S
C907 C909 1.388 . S
C908 C907 1.366 . S
C908 C912 1.385 1_554 S
C909 H884 0.951 . S
C909 C907 1.388 . S
C909 C910 1.366 1_554 S
C910 C909 1.366 1_556 S
C910 C911 1.414 . S
C910 C913 1.499 . S
C911 H885 0.950 . S
C911 C910 1.414 . S
C911 C912 1.374 . S
C912 H886 0.950 . S
C912 C908 1.385 1_556 S
C912 C911 1.374 . S
C913 C910 1.499 . S
C913 C914 1.373 . S
C913 C915 1.389 . S
C914 H887 0.950 . S
C914 C900 1.377 . S
C914 C913 1.373 . S
C915 C899 1.377 . S
C915 C913 1.389 . S
C915 C916 1.524 1_556 S
C916 C915 1.524 1_554 S
C916 C917 1.397 . S
C916 C921 1.363 . S
C917 H888 0.950 . S
C917 C916 1.397 . S
C917 C918 1.334 . S
C918 H889 0.950 . S
C918 C917 1.334 . S
C918 C919 1.287 . S
C919 C918 1.287 . S
C919 C920 1.524 . S
C919 H922 0.999 . S
C920 H890 0.950 . S
C920 C919 1.524 . S
C920 C921 1.415 . S
C921 H891 0.950 . S
C921 C916 1.363 . S
C921 C920 1.415 . S
H922 C919 0.999 . S
H923 C904 0.913 . S
H924 C942 0.951 . S
H925 C944 0.951 . S
H926 C946 0.950 . S
H927 C947 0.950 . S
H928 C949 0.950 . S
H929 C952 0.950 . S
H930 C953 0.950 . S
H931 C955 0.950 . S
H932 C956 0.950 . S
H933 C957 0.951 . S
H934 C959 0.951 . S
H935 C961 0.950 . S
H936 C962 0.950 . S
H937 C964 0.950 . S
H938 C967 0.950 . S
H939 C968 0.950 . S
H940 C970 0.950 . S
H941 C971 0.950 . S
C942 H924 0.951 . S
C942 C943 1.366 . S
C942 C944 1.388 . S
C943 C942 1.366 . S
C943 C947 1.385 . S
C944 H925 0.951 . S
C944 C942 1.388 . S
C944 C945 1.366 . S
C945 C944 1.366 . S
C945 C946 1.414 . S
C945 C948 1.499 . S
C946 H926 0.950 . S
C946 C945 1.414 . S
C946 C947 1.374 . S
C947 H927 0.950 . S
C947 C943 1.385 . S
C947 C946 1.374 . S
C948 C945 1.499 . S
C948 C949 1.373 . S
C948 C950 1.389 . S
C949 H928 0.950 . S
C949 C948 1.373 . S
C949 C965 1.377 . S
C950 C948 1.389 . S
C950 C951 1.524 . S
C950 C964 1.377 . S
C951 C950 1.524 . S
C951 C952 1.397 . S
C951 C956 1.363 . S
C952 H929 0.950 . S
C952 C951 1.397 . S
C952 C953 1.334 . S
C953 H930 0.950 . S
C953 C952 1.334 . S
C953 C954 1.287 . S
C954 C953 1.287 . S
C954 C955 1.524 . S
C954 H973 0.913 . S
C955 H931 0.950 . S
C955 C954 1.524 . S
C955 C956 1.415 . S
C956 H932 0.950 . S
C956 C951 1.363 . S
C956 C955 1.415 . S
C957 H933 0.951 . S
C957 C958 1.366 . S
C957 C959 1.388 . S
C958 C957 1.366 . S
C958 C962 1.385 . S
C959 H934 0.951 . S
C959 C957 1.388 . S
C959 C960 1.366 . S
C960 C959 1.366 . S
C960 C961 1.414 . S
C960 C963 1.499 . S
C961 H935 0.950 . S
C961 C960 1.414 . S
C961 C962 1.374 . S
C962 H936 0.950 . S
C962 C958 1.385 . S
C962 C961 1.374 . S
C963 C960 1.499 . S
C963 C964 1.373 . S
C963 C965 1.389 . S
C964 H937 0.950 . S
C964 C950 1.377 . S
C964 C963 1.373 . S
C965 C949 1.377 . S
C965 C963 1.389 . S
C965 C966 1.524 . S
C966 C965 1.524 . S
C966 C967 1.397 . S
C966 C971 1.363 . S
C967 H938 0.950 . S
C967 C966 1.397 . S
C967 C968 1.334 . S
C968 H939 0.950 . S
C968 C967 1.334 . S
C968 C969 1.287 . S
C969 C968 1.287 . S
C969 C970 1.524 . S
C969 H972 0.999 . S
C970 H940 0.950 . S
C970 C969 1.524 . S
C970 C971 1.415 . S
C971 H941 0.950 . S
C971 C966 1.363 . S
C971 C970 1.415 . S
H972 C969 0.999 . S
H973 C954 0.913 . S
H974 C992 0.951 . S
H975 C994 0.951 . S
H976 C996 0.950 . S
H977 C997 0.950 . S
H978 C999 0.950 . S
H979 C1002 0.950 . S
H980 C1003 0.950 . S
H981 C1005 0.950 . S
H982 C1006 0.950 . S
H983 C1007 0.951 . S
H984 C1009 0.951 . S
H985 C1011 0.950 . S
H986 C1012 0.950 . S
H987 C1014 0.950 . S
H988 C1017 0.950 . S
H989 C1018 0.950 . S
H990 C1020 0.950 . S
H991 C1021 0.950 . S
C992 H974 0.951 . S
C992 C993 1.366 . S
C992 C994 1.388 . S
C993 C992 1.366 . S
C993 C997 1.385 . S
C994 H975 0.951 . S
C994 C992 1.388 . S
C994 C995 1.366 . S
C995 C994 1.366 . S
C995 C996 1.414 . S
C995 C998 1.499 . S
C996 H976 0.950 . S
C996 C995 1.414 . S
C996 C997 1.374 . S
C997 H977 0.950 . S
C997 C993 1.385 . S
C997 C996 1.374 . S
C998 C995 1.499 . S
C998 C999 1.373 . S
C998 C1000 1.389 . S
C999 H978 0.950 . S
C999 C998 1.373 . S
C999 C1015 1.377 . S
C1000 C998 1.389 . S
C1000 C1001 1.524 . S
C1000 C1014 1.377 . S
C1001 C1000 1.524 . S
C1001 C1002 1.397 . S
C1001 C1006 1.363 . S
C1002 H979 0.950 . S
C1002 C1001 1.397 . S
C1002 C1003 1.334 . S
C1003 H980 0.950 . S
C1003 C1002 1.334 . S
C1003 C1004 1.287 . S
C1004 C1003 1.287 . S
C1004 C1005 1.524 . S
C1004 H1023 0.913 . S
C1005 H981 0.950 . S
C1005 C1004 1.524 . S
C1005 C1006 1.415 . S
C1006 H982 0.950 . S
C1006 C1001 1.363 . S
C1006 C1005 1.415 . S
C1007 H983 0.951 . S
C1007 C1008 1.366 . S
C1007 C1009 1.388 . S
C1008 C1007 1.366 . S
C1008 C1012 1.385 . S
C1009 H984 0.951 . S
C1009 C1007 1.388 . S
C1009 C1010 1.366 . S
C1010 C1009 1.366 . S
C1010 C1011 1.414 . S
C1010 C1013 1.499 . S
C1011 H985 0.950 . S
C1011 C1010 1.414 . S
C1011 C1012 1.374 . S
C1012 H986 0.950 . S
C1012 C1008 1.385 . S
C1012 C1011 1.374 . S
C1013 C1010 1.499 . S
C1013 C1014 1.373 . S
C1013 C1015 1.389 . S
C1014 H987 0.950 . S
C1014 C1000 1.377 . S
C1014 C1013 1.373 . S
C1015 C999 1.377 . S
C1015 C1013 1.389 . S
C1015 C1016 1.524 . S
C1016 C1015 1.524 . S
C1016 C1017 1.397 . S
C1016 C1021 1.363 . S
C1017 H988 0.950 . S
C1017 C1016 1.397 . S
C1017 C1018 1.334 . S
C1018 H989 0.950 . S
C1018 C1017 1.334 . S
C1018 C1019 1.287 . S
C1019 C1018 1.287 . S
C1019 C1020 1.524 . S
C1019 H1022 0.999 . S
C1020 H990 0.950 . S
C1020 C1019 1.524 . S
C1020 C1021 1.415 . S
C1021 H991 0.950 . S
C1021 C1016 1.363 . S
C1021 C1020 1.415 . S
H1022 C1019 0.999 . S
H1023 C1004 0.913 . S
H1024 C1042 0.951 . S
H1025 C1044 0.951 . S
H1026 C1046 0.950 . S
H1027 C1047 0.950 . S
H1028 C1049 0.950 . S
H1029 C1052 0.950 . S
H1030 C1053 0.950 . S
H1031 C1055 0.950 . S
H1032 C1056 0.950 . S
H1033 C1057 0.951 . S
H1034 C1059 0.951 . S
H1035 C1061 0.950 . S
H1036 C1062 0.950 . S
H1037 C1064 0.950 . S
H1038 C1067 0.950 . S
H1039 C1068 0.950 . S
H1040 C1070 0.950 . S
H1041 C1071 0.950 1_554 S
C1042 H1024 0.951 . S
C1042 C1043 1.366 . S
C1042 C1044 1.388 . S
C1043 C1042 1.366 . S
C1043 C1047 1.385 . S
C1044 H1025 0.951 . S
C1044 C1042 1.388 . S
C1044 C1045 1.366 . S
C1045 C1044 1.366 . S
C1045 C1046 1.414 . S
C1045 C1048 1.499 . S
C1046 H1026 0.950 . S
C1046 C1045 1.414 . S
C1046 C1047 1.374 . S
C1047 H1027 0.950 . S
C1047 C1043 1.385 . S
C1047 C1046 1.374 . S
C1048 C1045 1.499 . S
C1048 C1049 1.373 . S
C1048 C1050 1.389 . S
C1049 H1028 0.950 . S
C1049 C1048 1.373 . S
C1049 C1065 1.377 . S
C1050 C1048 1.389 . S
C1050 C1051 1.524 . S
C1050 C1064 1.377 . S
C1051 C1050 1.524 . S
C1051 C1052 1.397 . S
C1051 C1056 1.363 1_455 S
C1052 H1029 0.950 . S
C1052 C1051 1.397 . S
C1052 C1053 1.334 . S
C1053 H1030 0.950 . S
C1053 C1052 1.334 . S
C1053 C1054 1.287 1_455 S
C1054 C1053 1.287 1_655 S
C1054 C1055 1.524 . S
C1054 H1073 0.913 . S
C1055 H1031 0.950 . S
C1055 C1054 1.524 . S
C1055 C1056 1.415 . S
C1056 H1032 0.950 . S
C1056 C1051 1.363 1_655 S
C1056 C1055 1.415 . S
C1057 H1033 0.951 . S
C1057 C1058 1.366 . S
C1057 C1059 1.388 . S
C1058 C1057 1.366 . S
C1058 C1062 1.385 . S
C1059 H1034 0.951 . S
C1059 C1057 1.388 . S
C1059 C1060 1.366 . S
C1060 C1059 1.366 . S
C1060 C1061 1.414 . S
C1060 C1063 1.499 1_556 S
C1061 H1035 0.950 . S
C1061 C1060 1.414 . S
C1061 C1062 1.374 . S
C1062 H1036 0.950 . S
C1062 C1058 1.385 . S
C1062 C1061 1.374 . S
C1063 C1060 1.499 1_554 S
C1063 C1064 1.373 . S
C1063 C1065 1.389 . S
C1064 H1037 0.950 . S
C1064 C1050 1.377 . S
C1064 C1063 1.373 . S
C1065 C1049 1.377 . S
C1065 C1063 1.389 . S
C1065 C1066 1.524 1_554 S
C1066 C1065 1.524 1_556 S
C1066 C1067 1.397 . S
C1066 C1071 1.363 . S
C1067 H1038 0.950 . S
C1067 C1066 1.397 . S
C1067 C1068 1.334 . S
C1068 H1039 0.950 . S
C1068 C1067 1.334 . S
C1068 C1069 1.287 . S
C1069 C1068 1.287 . S
C1069 C1070 1.524 . S
C1069 H1072 0.999 . S
C1070 H1040 0.950 . S
C1070 C1069 1.524 . S
C1070 C1071 1.415 . S
C1071 H1041 0.950 1_556 S
C1071 C1066 1.363 . S
C1071 C1070 1.415 . S
H1072 C1069 0.999 . S
H1073 C1054 0.913 . S
H1074 C1092 0.951 . S
H1075 C1094 0.951 . S
H1076 C1096 0.950 . S
H1077 C1097 0.950 . S
H1078 C1099 0.950 . S
H1079 C1102 0.950 . S
H1080 C1103 0.950 . S
H1081 C1105 0.950 . S
H1082 C1106 0.950 . S
H1083 C1107 0.951 . S
H1084 C1109 0.951 . S
H1085 C1111 0.950 . S
H1086 C1112 0.950 . S
H1087 C1114 0.950 . S
H1088 C1117 0.950 . S
H1089 C1118 0.950 . S
H1090 C1120 0.950 . S
H1091 C1121 0.950 . S
C1092 H1074 0.951 . S
C1092 C1093 1.366 . S
C1092 C1094 1.388 . S
C1093 C1092 1.366 . S
C1093 C1097 1.385 . S
C1094 H1075 0.951 . S
C1094 C1092 1.388 . S
C1094 C1095 1.366 . S
C1095 C1094 1.366 . S
C1095 C1096 1.414 . S
C1095 C1098 1.499 . S
C1096 H1076 0.950 . S
C1096 C1095 1.414 . S
C1096 C1097 1.374 . S
C1097 H1077 0.950 . S
C1097 C1093 1.385 . S
C1097 C1096 1.374 . S
C1098 C1095 1.499 . S
C1098 C1099 1.373 . S
C1098 C1100 1.389 . S
C1099 H1078 0.950 . S
C1099 C1098 1.373 . S
C1099 C1115 1.377 . S
C1100 C1098 1.389 . S
C1100 C1101 1.524 . S
C1100 C1114 1.377 . S
C1101 C1100 1.524 . S
C1101 C1102 1.397 . S
C1101 C1106 1.363 . S
C1102 H1079 0.950 . S
C1102 C1101 1.397 . S
C1102 C1103 1.334 . S
C1103 H1080 0.950 . S
C1103 C1102 1.334 . S
C1103 C1104 1.287 . S
C1104 C1103 1.287 . S
C1104 C1105 1.524 . S
C1104 H1123 0.913 . S
C1105 H1081 0.950 . S
C1105 C1104 1.524 . S
C1105 C1106 1.415 . S
C1106 H1082 0.950 . S
C1106 C1101 1.363 . S
C1106 C1105 1.415 . S
C1107 H1083 0.951 . S
C1107 C1108 1.366 . S
C1107 C1109 1.388 . S
C1108 C1107 1.366 . S
C1108 C1112 1.385 . S
C1109 H1084 0.951 . S
C1109 C1107 1.388 . S
C1109 C1110 1.366 . S
C1110 C1109 1.366 . S
C1110 C1111 1.414 . S
C1110 C1113 1.499 . S
C1111 H1085 0.950 . S
C1111 C1110 1.414 . S
C1111 C1112 1.374 . S
C1112 H1086 0.950 . S
C1112 C1108 1.385 . S
C1112 C1111 1.374 . S
C1113 C1110 1.499 . S
C1113 C1114 1.373 . S
C1113 C1115 1.389 . S
C1114 H1087 0.950 . S
C1114 C1100 1.377 . S
C1114 C1113 1.373 . S
C1115 C1099 1.377 . S
C1115 C1113 1.389 . S
C1115 C1116 1.524 . S
C1116 C1115 1.524 . S
C1116 C1117 1.397 . S
C1116 C1121 1.363 . S
C1117 H1088 0.950 . S
C1117 C1116 1.397 . S
C1117 C1118 1.334 . S
C1118 H1089 0.950 . S
C1118 C1117 1.334 . S
C1118 C1119 1.287 . S
C1119 C1118 1.287 . S
C1119 C1120 1.524 . S
C1119 H1122 0.999 . S
C1120 H1090 0.950 . S
C1120 C1119 1.524 . S
C1120 C1121 1.415 . S
C1121 H1091 0.950 . S
C1121 C1116 1.363 . S
C1121 C1120 1.415 . S
H1122 C1119 0.999 . S
H1123 C1104 0.913 . S
H1124 C1142 0.951 . S
H1125 C1144 0.951 . S
H1126 C1146 0.950 . S
H1127 C1147 0.950 . S
H1128 C1149 0.950 . S
H1129 C1152 0.950 . S
H1130 C1153 0.950 . S
H1131 C1155 0.950 . S
H1132 C1156 0.950 . S
H1133 C1157 0.951 . S
H1134 C1159 0.951 . S
H1135 C1161 0.950 . S
H1136 C1162 0.950 . S
H1137 C1164 0.950 . S
H1138 C1167 0.950 . S
H1139 C1168 0.950 . S
H1140 C1170 0.950 . S
H1141 C1171 0.950 . S
C1142 H1124 0.951 . S
C1142 C1143 1.366 . S
C1142 C1144 1.388 . S
C1143 C1142 1.366 . S
C1143 C1147 1.385 . S
C1144 H1125 0.951 . S
C1144 C1142 1.388 . S
C1144 C1145 1.366 . S
C1145 C1144 1.366 . S
C1145 C1146 1.414 . S
C1145 C1148 1.499 . S
C1146 H1126 0.950 . S
C1146 C1145 1.414 . S
C1146 C1147 1.374 . S
C1147 H1127 0.950 . S
C1147 C1143 1.385 . S
C1147 C1146 1.374 . S
C1148 C1145 1.499 . S
C1148 C1149 1.373 . S
C1148 C1150 1.389 . S
C1149 H1128 0.950 . S
C1149 C1148 1.373 . S
C1149 C1165 1.377 . S
C1150 C1148 1.389 . S
C1150 C1151 1.524 . S
C1150 C1164 1.377 . S
C1151 C1150 1.524 . S
C1151 C1152 1.397 . S
C1151 C1156 1.363 . S
C1152 H1129 0.950 . S
C1152 C1151 1.397 . S
C1152 C1153 1.334 . S
C1153 H1130 0.950 . S
C1153 C1152 1.334 . S
C1153 C1154 1.287 . S
C1154 C1153 1.287 . S
C1154 C1155 1.524 . S
C1154 H1173 0.913 . S
C1155 H1131 0.950 . S
C1155 C1154 1.524 . S
C1155 C1156 1.415 . S
C1156 H1132 0.950 . S
C1156 C1151 1.363 . S
C1156 C1155 1.415 . S
C1157 H1133 0.951 . S
C1157 C1158 1.366 . S
C1157 C1159 1.388 . S
C1158 C1157 1.366 . S
C1158 C1162 1.385 . S
C1159 H1134 0.951 . S
C1159 C1157 1.388 . S
C1159 C1160 1.366 . S
C1160 C1159 1.366 . S
C1160 C1161 1.414 . S
C1160 C1163 1.499 . S
C1161 H1135 0.950 . S
C1161 C1160 1.414 . S
C1161 C1162 1.374 . S
C1162 H1136 0.950 . S
C1162 C1158 1.385 . S
C1162 C1161 1.374 . S
C1163 C1160 1.499 . S
C1163 C1164 1.373 . S
C1163 C1165 1.389 . S
C1164 H1137 0.950 . S
C1164 C1150 1.377 . S
C1164 C1163 1.373 . S
C1165 C1149 1.377 . S
C1165 C1163 1.389 . S
C1165 C1166 1.524 . S
C1166 C1165 1.524 . S
C1166 C1167 1.397 . S
C1166 C1171 1.363 . S
C1167 H1138 0.950 . S
C1167 C1166 1.397 . S
C1167 C1168 1.334 . S
C1168 H1139 0.950 . S
C1168 C1167 1.334 . S
C1168 C1169 1.287 . S
C1169 C1168 1.287 . S
C1169 C1170 1.524 . S
C1169 H1172 0.999 . S
C1170 H1140 0.950 . S
C1170 C1169 1.524 . S
C1170 C1171 1.415 . S
C1171 H1141 0.950 . S
C1171 C1166 1.363 . S
C1171 C1170 1.415 . S
H1172 C1169 0.999 . S
H1173 C1154 0.913 . S
H1174 C1192 0.951 . S
H1175 C1194 0.951 . S
H1176 C1196 0.950 . S
H1177 C1197 0.950 . S
H1178 C1199 0.950 . S
H1179 C1202 0.950 . S
H1180 C1203 0.950 . S
H1181 C1205 0.950 . S
H1182 C1206 0.950 . S
H1183 C1207 0.951 . S
H1184 C1209 0.951 . S
H1185 C1211 0.950 . S
H1186 C1212 0.950 . S
H1187 C1214 0.950 . S
H1188 C1217 0.950 . S
H1189 C1218 0.950 . S
H1190 C1220 0.950 . S
H1191 C1221 0.950 . S
C1192 H1174 0.951 . S
C1192 C1193 1.366 . S
C1192 C1194 1.388 . S
C1193 C1192 1.366 . S
C1193 C1197 1.385 . S
C1194 H1175 0.951 . S
C1194 C1192 1.388 . S
C1194 C1195 1.366 . S
C1195 C1194 1.366 . S
C1195 C1196 1.414 . S
C1195 C1198 1.499 . S
C1196 H1176 0.950 . S
C1196 C1195 1.414 . S
C1196 C1197 1.374 . S
C1197 H1177 0.950 . S
C1197 C1193 1.385 . S
C1197 C1196 1.374 . S
C1198 C1195 1.499 . S
C1198 C1199 1.373 . S
C1198 C1200 1.389 . S
C1199 H1178 0.950 . S
C1199 C1198 1.373 . S
C1199 C1215 1.377 . S
C1200 C1198 1.389 . S
C1200 C1201 1.524 . S
C1200 C1214 1.377 . S
C1201 C1200 1.524 . S
C1201 C1202 1.397 . S
C1201 C1206 1.363 . S
C1202 H1179 0.950 . S
C1202 C1201 1.397 . S
C1202 C1203 1.334 . S
C1203 H1180 0.950 . S
C1203 C1202 1.334 . S
C1203 C1204 1.287 . S
C1204 C1203 1.287 . S
C1204 C1205 1.524 . S
C1204 H1223 0.913 . S
C1205 H1181 0.950 . S
C1205 C1204 1.524 . S
C1205 C1206 1.415 . S
C1206 H1182 0.950 . S
C1206 C1201 1.363 . S
C1206 C1205 1.415 . S
C1207 H1183 0.951 . S
C1207 C1208 1.366 . S
C1207 C1209 1.388 . S
C1208 C1207 1.366 . S
C1208 C1212 1.385 . S
C1209 H1184 0.951 . S
C1209 C1207 1.388 . S
C1209 C1210 1.366 . S
C1210 C1209 1.366 . S
C1210 C1211 1.414 . S
C1210 C1213 1.499 . S
C1211 H1185 0.950 . S
C1211 C1210 1.414 . S
C1211 C1212 1.374 . S
C1212 H1186 0.950 . S
C1212 C1208 1.385 . S
C1212 C1211 1.374 . S
C1213 C1210 1.499 . S
C1213 C1214 1.373 . S
C1213 C1215 1.389 . S
C1214 H1187 0.950 . S
C1214 C1200 1.377 . S
C1214 C1213 1.373 . S
C1215 C1199 1.377 . S
C1215 C1213 1.389 . S
C1215 C1216 1.524 . S
C1216 C1215 1.524 . S
C1216 C1217 1.397 . S
C1216 C1221 1.363 . S
C1217 H1188 0.950 . S
C1217 C1216 1.397 . S
C1217 C1218 1.334 . S
C1218 H1189 0.950 . S
C1218 C1217 1.334 . S
C1218 C1219 1.287 . S
C1219 C1218 1.287 . S
C1219 C1220 1.524 . S
C1219 H1222 0.999 . S
C1220 H1190 0.950 . S
C1220 C1219 1.524 . S
C1220 C1221 1.415 . S
C1221 H1191 0.950 . S
C1221 C1216 1.363 . S
C1221 C1220 1.415 . S
H1222 C1219 0.999 . S
H1223 C1204 0.913 . S
H1224 C1242 0.951 . S
H1225 C1244 0.951 . S
H1226 C1246 0.950 . S
H1227 C1247 0.950 . S
H1228 C1249 0.950 . S
H1229 C1252 0.950 . S
H1230 C1253 0.950 . S
H1231 C1255 0.950 . S
H1232 C1256 0.950 . S
H1233 C1257 0.951 . S
H1234 C1259 0.951 . S
H1235 C1261 0.950 . S
H1236 C1262 0.950 . S
H1237 C1264 0.950 . S
H1238 C1267 0.950 . S
H1239 C1268 0.950 . S
H1240 C1270 0.950 . S
H1241 C1271 0.950 . S
C1242 H1224 0.951 . S
C1242 C1243 1.366 . S
C1242 C1244 1.388 . S
C1243 C1242 1.366 . S
C1243 C1247 1.385 . S
C1244 H1225 0.951 . S
C1244 C1242 1.388 . S
C1244 C1245 1.366 . S
C1245 C1244 1.366 . S
C1245 C1246 1.414 . S
C1245 C1248 1.499 . S
C1246 H1226 0.950 . S
C1246 C1245 1.414 . S
C1246 C1247 1.374 . S
C1247 H1227 0.950 . S
C1247 C1243 1.385 . S
C1247 C1246 1.374 . S
C1248 C1245 1.499 . S
C1248 C1249 1.373 . S
C1248 C1250 1.389 . S
C1249 H1228 0.950 . S
C1249 C1248 1.373 . S
C1249 C1265 1.377 . S
C1250 C1248 1.389 . S
C1250 C1251 1.524 . S
C1250 C1264 1.377 . S
C1251 C1250 1.524 . S
C1251 C1252 1.397 . S
C1251 C1256 1.363 . S
C1252 H1229 0.950 . S
C1252 C1251 1.397 . S
C1252 C1253 1.334 . S
C1253 H1230 0.950 . S
C1253 C1252 1.334 . S
C1253 C1254 1.287 . S
C1254 C1253 1.287 . S
C1254 C1255 1.524 . S
C1254 H1273 0.913 . S
C1255 H1231 0.950 . S
C1255 C1254 1.524 . S
C1255 C1256 1.415 . S
C1256 H1232 0.950 . S
C1256 C1251 1.363 . S
C1256 C1255 1.415 . S
C1257 H1233 0.951 . S
C1257 C1258 1.366 . S
C1257 C1259 1.388 . S
C1258 C1257 1.366 . S
C1258 C1262 1.385 . S
C1259 H1234 0.951 . S
C1259 C1257 1.388 . S
C1259 C1260 1.366 . S
C1260 C1259 1.366 . S
C1260 C1261 1.414 . S
C1260 C1263 1.499 . S
C1261 H1235 0.950 . S
C1261 C1260 1.414 . S
C1261 C1262 1.374 . S
C1262 H1236 0.950 . S
C1262 C1258 1.385 . S
C1262 C1261 1.374 . S
C1263 C1260 1.499 . S
C1263 C1264 1.373 . S
C1263 C1265 1.389 . S
C1264 H1237 0.950 . S
C1264 C1250 1.377 . S
C1264 C1263 1.373 . S
C1265 C1249 1.377 . S
C1265 C1263 1.389 . S
C1265 C1266 1.524 . S
C1266 C1265 1.524 . S
C1266 C1267 1.397 . S
C1266 C1271 1.363 . S
C1267 H1238 0.950 . S
C1267 C1266 1.397 . S
C1267 C1268 1.334 . S
C1268 H1239 0.950 . S
C1268 C1267 1.334 . S
C1268 C1269 1.287 . S
C1269 C1268 1.287 . S
C1269 C1270 1.524 . S
C1269 H1272 0.999 . S
C1270 H1240 0.950 . S
C1270 C1269 1.524 . S
C1270 C1271 1.415 . S
C1271 H1241 0.950 . S
C1271 C1266 1.363 . S
C1271 C1270 1.415 . S
H1272 C1269 0.999 . S
H1273 C1254 0.913 . S
H1274 C1292 0.951 . S
H1275 C1294 0.951 . S
H1276 C1296 0.950 . S
H1277 C1297 0.950 . S
H1278 C1299 0.950 . S
H1279 C1302 0.950 . S
H1280 C1303 0.950 . S
H1281 C1305 0.950 . S
H1282 C1306 0.950 . S
H1283 C1307 0.951 . S
H1284 C1309 0.951 . S
H1285 C1311 0.950 . S
H1286 C1312 0.950 . S
H1287 C1314 0.950 . S
H1288 C1317 0.950 . S
H1289 C1318 0.950 . S
H1290 C1320 0.950 . S
H1291 C1321 0.950 . S
C1292 H1274 0.951 . S
C1292 C1293 1.366 . S
C1292 C1294 1.388 . S
C1293 C1292 1.366 . S
C1293 C1297 1.385 . S
C1294 H1275 0.951 . S
C1294 C1292 1.388 . S
C1294 C1295 1.366 . S
C1295 C1294 1.366 . S
C1295 C1296 1.414 . S
C1295 C1298 1.499 . S
C1296 H1276 0.950 . S
C1296 C1295 1.414 . S
C1296 C1297 1.374 . S
C1297 H1277 0.950 . S
C1297 C1293 1.385 . S
C1297 C1296 1.374 . S
C1298 C1295 1.499 . S
C1298 C1299 1.373 . S
C1298 C1300 1.389 . S
C1299 H1278 0.950 . S
C1299 C1298 1.373 . S
C1299 C1315 1.377 . S
C1300 C1298 1.389 . S
C1300 C1301 1.524 . S
C1300 C1314 1.377 . S
C1301 C1300 1.524 . S
C1301 C1302 1.397 . S
C1301 C1306 1.363 . S
C1302 H1279 0.950 . S
C1302 C1301 1.397 . S
C1302 C1303 1.334 . S
C1303 H1280 0.950 . S
C1303 C1302 1.334 . S
C1303 C1304 1.287 . S
C1304 C1303 1.287 . S
C1304 C1305 1.524 . S
C1304 H1323 0.913 . S
C1305 H1281 0.950 . S
C1305 C1304 1.524 . S
C1305 C1306 1.415 . S
C1306 H1282 0.950 . S
C1306 C1301 1.363 . S
C1306 C1305 1.415 . S
C1307 H1283 0.951 . S
C1307 C1308 1.366 . S
C1307 C1309 1.388 . S
C1308 C1307 1.366 . S
C1308 C1312 1.385 . S
C1309 H1284 0.951 . S
C1309 C1307 1.388 . S
C1309 C1310 1.366 . S
C1310 C1309 1.366 . S
C1310 C1311 1.414 . S
C1310 C1313 1.499 . S
C1311 H1285 0.950 . S
C1311 C1310 1.414 . S
C1311 C1312 1.374 . S
C1312 H1286 0.950 . S
C1312 C1308 1.385 . S
C1312 C1311 1.374 . S
C1313 C1310 1.499 . S
C1313 C1314 1.373 . S
C1313 C1315 1.389 . S
C1314 H1287 0.950 . S
C1314 C1300 1.377 . S
C1314 C1313 1.373 . S
C1315 C1299 1.377 . S
C1315 C1313 1.389 . S
C1315 C1316 1.524 . S
C1316 C1315 1.524 . S
C1316 C1317 1.397 . S
C1316 C1321 1.363 . S
C1317 H1288 0.950 . S
C1317 C1316 1.397 . S
C1317 C1318 1.334 . S
C1318 H1289 0.950 . S
C1318 C1317 1.334 . S
C1318 C1319 1.287 . S
C1319 C1318 1.287 . S
C1319 C1320 1.524 . S
C1319 H1322 0.999 . S
C1320 H1290 0.950 . S
C1320 C1319 1.524 . S
C1320 C1321 1.415 . S
C1321 H1291 0.950 . S
C1321 C1316 1.363 . S
C1321 C1320 1.415 . S
H1322 C1319 0.999 . S
H1323 C1304 0.913 . S
H1324 C1342 0.951 . S
H1325 C1344 0.951 . S
H1326 C1346 0.950 . S
H1327 C1347 0.950 . S
H1328 C1349 0.950 . S
H1329 C1352 0.950 1_565 S
H1330 C1353 0.950 . S
H1331 C1355 0.950 . S
H1332 C1356 0.950 . S
H1333 C1357 0.951 . S
H1334 C1359 0.951 . S
H1335 C1361 0.950 . S
H1336 C1362 0.950 . S
H1337 C1364 0.950 . S
H1338 C1367 0.950 1_545 S
H1339 C1368 0.950 . S
H1340 C1370 0.950 . S
H1341 C1371 0.950 . S
C1342 H1324 0.951 . S
C1342 C1343 1.366 . S
C1342 C1344 1.388 . S
C1343 C1342 1.366 . S
C1343 C1347 1.385 . S
C1344 H1325 0.951 . S
C1344 C1342 1.388 . S
C1344 C1345 1.366 . S
C1345 C1344 1.366 . S
C1345 C1346 1.414 . S
C1345 C1348 1.499 . S
C1346 H1326 0.950 . S
C1346 C1345 1.414 . S
C1346 C1347 1.374 . S
C1347 H1327 0.950 . S
C1347 C1343 1.385 . S
C1347 C1346 1.374 . S
C1348 C1345 1.499 . S
C1348 C1349 1.373 . S
C1348 C1350 1.389 1_565 S
C1349 H1328 0.950 . S
C1349 C1348 1.373 . S
C1349 C1365 1.377 . S
C1350 C1348 1.389 1_545 S
C1350 C1351 1.524 . S
C1350 C1364 1.377 . S
C1351 C1350 1.524 . S
C1351 C1352 1.397 . S
C1351 C1356 1.363 . S
C1352 H1329 0.950 1_545 S
C1352 C1351 1.397 . S
C1352 C1353 1.334 . S
C1353 H1330 0.950 . S
C1353 C1352 1.334 . S
C1353 C1354 1.287 . S
C1354 C1353 1.287 . S
C1354 C1355 1.524 . S
C1354 H1373 0.913 . S
C1355 H1331 0.950 . S
C1355 C1354 1.524 . S
C1355 C1356 1.415 . S
C1356 H1332 0.950 . S
C1356 C1351 1.363 . S
C1356 C1355 1.415 . S
C1357 H1333 0.951 . S
C1357 C1358 1.366 . S
C1357 C1359 1.388 . S
C1358 C1357 1.366 . S
C1358 C1362 1.385 . S
C1359 H1334 0.951 . S
C1359 C1357 1.388 . S
C1359 C1360 1.366 . S
C1360 C1359 1.366 . S
C1360 C1361 1.414 . S
C1360 C1363 1.499 . S
C1361 H1335 0.950 . S
C1361 C1360 1.414 . S
C1361 C1362 1.374 . S
C1362 H1336 0.950 . S
C1362 C1358 1.385 . S
C1362 C1361 1.374 . S
C1363 C1360 1.499 . S
C1363 C1364 1.373 . S
C1363 C1365 1.389 1_545 S
C1364 H1337 0.950 . S
C1364 C1350 1.377 . S
C1364 C1363 1.373 . S
C1365 C1349 1.377 . S
C1365 C1363 1.389 1_565 S
C1365 C1366 1.524 . S
C1366 C1365 1.524 . S
C1366 C1367 1.397 . S
C1366 C1371 1.363 . S
C1367 H1338 0.950 1_565 S
C1367 C1366 1.397 . S
C1367 C1368 1.334 . S
C1368 H1339 0.950 . S
C1368 C1367 1.334 . S
C1368 C1369 1.287 . S
C1369 C1368 1.287 . S
C1369 C1370 1.524 . S
C1369 H1372 0.999 . S
C1370 H1340 0.950 . S
C1370 C1369 1.524 . S
C1370 C1371 1.415 . S
C1371 H1341 0.950 . S
C1371 C1366 1.363 . S
C1371 C1370 1.415 . S
H1372 C1369 0.999 . S
H1373 C1354 0.913 . S
H1374 C1392 0.951 . S
H1375 C1394 0.951 . S
H1376 C1396 0.950 . S
H1377 C1397 0.950 . S
H1378 C1399 0.950 . S
H1379 C1402 0.950 . S
H1380 C1403 0.950 . S
H1381 C1405 0.957 . S
H1382 C1406 0.950 . S
H1383 C1407 0.951 . S
H1384 C1409 0.951 . S
H1385 C1411 0.950 . S
H1386 C1412 0.950 . S
H1387 C1414 0.950 . S
H1388 C1417 0.950 . S
H1389 C1418 0.950 . S
H1390 C1420 0.950 . S
H1391 C1421 0.950 . S
C1392 H1374 0.951 . S
C1392 C1393 1.366 . S
C1392 C1394 1.388 . S
C1393 C1392 1.366 . S
C1393 C1397 1.385 . S
C1394 H1375 0.951 . S
C1394 C1392 1.388 . S
C1394 C1395 1.366 . S
C1395 C1394 1.366 . S
C1395 C1396 1.414 1_556 S
C1395 C1398 1.499 1_556 S
C1396 H1376 0.950 . S
C1396 C1395 1.414 1_554 S
C1396 C1397 1.374 1_554 S
C1397 H1377 0.950 . S
C1397 C1393 1.385 . S
C1397 C1396 1.374 1_556 S
C1398 C1395 1.499 1_554 S
C1398 C1399 1.373 . S
C1398 C1400 1.389 1_545 S
C1399 H1378 0.950 . S
C1399 C1398 1.373 . S
C1399 C1415 1.377 . S
C1400 C1398 1.389 1_565 S
C1400 C1401 1.524 1_554 S
C1400 C1414 1.377 . S
C1401 C1400 1.524 1_556 S
C1401 C1402 1.397 1_465 S
C1401 C1406 1.363 . S
C1402 H1379 0.950 . S
C1402 C1401 1.397 1_645 S
C1402 C1403 1.334 . S
C1403 H1380 0.950 . S
C1403 C1402 1.334 . S
C1403 C1404 1.287 1_545 S
C1404 C1403 1.287 1_565 S
C1404 C1405 1.524 . S
C1404 H1423 0.913 . S
C1405 H1381 0.957 . S
C1405 C1404 1.524 . S
C1405 C1406 1.415 1_655 S
C1406 H1382 0.950 . S
C1406 C1401 1.363 . S
C1406 C1405 1.415 1_455 S
C1407 H1383 0.951 . S
C1407 C1408 1.366 . S
C1407 C1409 1.388 . S
C1408 C1407 1.366 . S
C1408 C1412 1.385 . S
C1409 H1384 0.951 . S
C1409 C1407 1.388 . S
C1409 C1410 1.366 . S
C1410 C1409 1.366 . S
C1410 C1411 1.414 . S
C1410 C1413 1.499 . S
C1411 H1385 0.950 . S
C1411 C1410 1.414 . S
C1411 C1412 1.374 . S
C1412 H1386 0.950 . S
C1412 C1408 1.385 . S
C1412 C1411 1.374 . S
C1413 C1410 1.499 . S
C1413 C1414 1.373 . S
C1413 C1415 1.389 1_565 S
C1414 H1387 0.950 . S
C1414 C1400 1.377 . S
C1414 C1413 1.373 . S
C1415 C1399 1.377 . S
C1415 C1413 1.389 1_545 S
C1415 C1416 1.524 . S
C1416 C1415 1.524 . S
C1416 C1417 1.397 1_545 S
C1416 C1421 1.363 . S
C1417 H1388 0.950 . S
C1417 C1416 1.397 1_565 S
C1417 C1418 1.334 . S
C1418 H1389 0.950 . S
C1418 C1417 1.334 . S
C1418 C1419 1.287 1_565 S
C1419 C1418 1.287 1_545 S
C1419 C1420 1.524 . S
C1419 H1422 0.999 . S
C1420 H1390 0.950 . S
C1420 C1419 1.524 . S
C1420 C1421 1.415 . S
C1421 H1391 0.950 . S
C1421 C1416 1.363 . S
C1421 C1420 1.415 . S
H1422 C1419 0.999 . S
H1423 C1404 0.913 . S
H1424 C1442 0.951 1_655 S
H1425 C1444 0.951 1_655 S
H1426 C1446 0.950 . S
H1427 C1447 0.950 . S
H1428 C1449 0.950 . S
H1429 C1452 0.950 1_455 S
H1430 C1453 0.950 . S
H1431 C1455 0.950 . S
H1432 C1456 0.950 . S
H1433 C1457 0.951 . S
H1434 C1459 0.951 . S
H1435 C1461 0.950 1_655 S
H1436 C1462 0.950 1_655 S
H1437 C1464 0.950 1_655 S
H1438 C1467 0.950 . S
H1439 C1468 0.950 . S
H1440 C1470 0.950 . S
H1441 C1471 0.950 . S
C1442 H1424 0.951 1_455 S
C1442 C1443 1.366 . S
C1442 C1444 1.388 . S
C1443 C1442 1.366 . S
C1443 C1447 1.385 . S
C1444 H1425 0.951 1_455 S
C1444 C1442 1.388 . S
C1444 C1445 1.366 . S
C1445 C1444 1.366 . S
C1445 C1446 1.414 . S
C1445 C1448 1.499 . S
C1446 H1426 0.950 . S
C1446 C1445 1.414 . S
C1446 C1447 1.374 . S
C1447 H1427 0.950 . S
C1447 C1443 1.385 . S
C1447 C1446 1.374 . S
C1448 C1445 1.499 . S
C1448 C1449 1.373 . S
C1448 C1450 1.389 . S
C1449 H1428 0.950 . S
C1449 C1448 1.373 . S
C1449 C1465 1.377 . S
C1450 C1448 1.389 . S
C1450 C1451 1.524 1_455 S
C1450 C1464 1.377 . S
C1451 C1450 1.524 1_655 S
C1451 C1452 1.397 . S
C1451 C1456 1.363 . S
C1452 H1429 0.950 1_655 S
C1452 C1451 1.397 . S
C1452 C1453 1.334 . S
C1453 H1430 0.950 . S
C1453 C1452 1.334 . S
C1453 C1454 1.287 . S
C1454 C1453 1.287 . S
C1454 C1455 1.524 . S
C1454 H1473 0.913 . S
C1455 H1431 0.950 . S
C1455 C1454 1.524 . S
C1455 C1456 1.415 . S
C1456 H1432 0.950 . S
C1456 C1451 1.363 . S
C1456 C1455 1.415 . S
C1457 H1433 0.951 . S
C1457 C1458 1.366 . S
C1457 C1459 1.388 . S
C1458 C1457 1.366 . S
C1458 C1462 1.385 . S
C1459 H1434 0.951 . S
C1459 C1457 1.388 . S
C1459 C1460 1.366 . S
C1460 C1459 1.366 . S
C1460 C1461 1.414 . S
C1460 C1463 1.499 . S
C1461 H1435 0.950 1_455 S
C1461 C1460 1.414 . S
C1461 C1462 1.374 . S
C1462 H1436 0.950 1_455 S
C1462 C1458 1.385 . S
C1462 C1461 1.374 . S
C1463 C1460 1.499 . S
C1463 C1464 1.373 . S
C1463 C1465 1.389 . S
C1464 H1437 0.950 1_455 S
C1464 C1450 1.377 . S
C1464 C1463 1.373 . S
C1465 C1449 1.377 . S
C1465 C1463 1.389 . S
C1465 C1466 1.524 . S
C1466 C1465 1.524 . S
C1466 C1467 1.397 . S
C1466 C1471 1.363 . S
C1467 H1438 0.950 . S
C1467 C1466 1.397 . S
C1467 C1468 1.334 . S
C1468 H1439 0.950 . S
C1468 C1467 1.334 . S
C1468 C1469 1.287 . S
C1469 C1468 1.287 . S
C1469 C1470 1.524 . S
C1469 H1472 0.999 . S
C1470 H1440 0.950 . S
C1470 C1469 1.524 . S
C1470 C1471 1.415 . S
C1471 H1441 0.950 . S
C1471 C1466 1.363 . S
C1471 C1470 1.415 . S
H1472 C1469 0.999 . S
H1473 C1454 0.913 . S
H1474 C1492 0.951 . S
H1475 C1494 0.951 . S
H1476 C1496 0.950 . S
H1477 C1497 0.950 . S
H1478 C1499 0.950 . S
H1479 C1502 0.950 . S
H1480 C1503 0.950 . S
H1481 C1505 0.950 . S
H1482 C1506 0.950 . S
H1483 C1507 0.951 . S
H1484 C1509 0.951 . S
H1485 C1511 0.950 . S
H1486 C1512 0.950 . S
H1487 C1514 0.950 . S
H1488 C1517 0.950 . S
H1489 C1518 0.950 . S
H1490 C1520 0.950 . S
H1491 C1521 0.950 . S
C1492 H1474 0.951 . S
C1492 C1493 1.366 . S
C1492 C1494 1.388 . S
C1493 C1492 1.366 . S
C1493 C1497 1.385 . S
C1494 H1475 0.951 . S
C1494 C1492 1.388 . S
C1494 C1495 1.366 . S
C1495 C1494 1.366 . S
C1495 C1496 1.414 . S
C1495 C1498 1.499 . S
C1496 H1476 0.950 . S
C1496 C1495 1.414 . S
C1496 C1497 1.374 . S
C1497 H1477 0.950 . S
C1497 C1493 1.385 . S
C1497 C1496 1.374 . S
C1498 C1495 1.499 . S
C1498 C1499 1.373 . S
C1498 C1500 1.389 . S
C1499 H1478 0.950 . S
C1499 C1498 1.373 . S
C1499 C1515 1.377 . S
C1500 C1498 1.389 . S
C1500 C1501 1.524 . S
C1500 C1514 1.377 . S
C1501 C1500 1.524 . S
C1501 C1502 1.397 . S
C1501 C1506 1.363 . S
C1502 H1479 0.950 . S
C1502 C1501 1.397 . S
C1502 C1503 1.334 . S
C1503 H1480 0.950 . S
C1503 C1502 1.334 . S
C1503 C1504 1.287 . S
C1504 C1503 1.287 . S
C1504 C1505 1.524 . S
C1504 H1523 0.913 . S
C1505 H1481 0.950 . S
C1505 C1504 1.524 . S
C1505 C1506 1.415 . S
C1506 H1482 0.950 . S
C1506 C1501 1.363 . S
C1506 C1505 1.415 . S
C1507 H1483 0.951 . S
C1507 C1508 1.366 . S
C1507 C1509 1.388 . S
C1508 C1507 1.366 . S
C1508 C1512 1.385 . S
C1509 H1484 0.951 . S
C1509 C1507 1.388 . S
C1509 C1510 1.366 . S
C1510 C1509 1.366 . S
C1510 C1511 1.414 . S
C1510 C1513 1.499 . S
C1511 H1485 0.950 . S
C1511 C1510 1.414 . S
C1511 C1512 1.374 . S
C1512 H1486 0.950 . S
C1512 C1508 1.385 . S
C1512 C1511 1.374 . S
C1513 C1510 1.499 . S
C1513 C1514 1.373 . S
C1513 C1515 1.389 . S
C1514 H1487 0.950 . S
C1514 C1500 1.377 . S
C1514 C1513 1.373 . S
C1515 C1499 1.377 . S
C1515 C1513 1.389 . S
C1515 C1516 1.524 . S
C1516 C1515 1.524 . S
C1516 C1517 1.397 . S
C1516 C1521 1.363 . S
C1517 H1488 0.950 . S
C1517 C1516 1.397 . S
C1517 C1518 1.334 . S
C1518 H1489 0.950 . S
C1518 C1517 1.334 . S
C1518 C1519 1.287 . S
C1519 C1518 1.287 . S
C1519 C1520 1.524 . S
C1519 H1522 0.999 . S
C1520 H1490 0.950 . S
C1520 C1519 1.524 . S
C1520 C1521 1.415 . S
C1521 H1491 0.950 . S
C1521 C1516 1.363 . S
C1521 C1520 1.415 . S
H1522 C1519 0.999 . S
H1523 C1504 0.913 . S
H1524 C1542 0.951 . S
H1525 C1544 0.951 . S
H1526 C1546 0.950 . S
H1527 C1547 0.950 . S
H1528 C1549 0.950 . S
H1529 C1552 0.950 . S
H1530 C1553 0.950 . S
H1531 C1555 0.950 . S
H1532 C1556 0.950 . S
H1533 C1557 0.951 . S
H1534 C1559 0.951 . S
H1535 C1561 0.950 1_554 S
H1536 C1562 0.950 . S
H1537 C1564 0.950 . S
H1538 C1567 0.950 . S
H1539 C1568 0.950 . S
H1540 C1570 0.950 . S
H1541 C1571 0.950 . S
C1542 H1524 0.951 . S
C1542 C1543 1.366 . S
C1542 C1544 1.388 . S
C1543 C1542 1.366 . S
C1543 C1547 1.385 . S
C1544 H1525 0.951 . S
C1544 C1542 1.388 . S
C1544 C1545 1.366 . S
C1545 C1544 1.366 . S
C1545 C1546 1.414 . S
C1545 C1548 1.499 . S
C1546 H1526 0.950 . S
C1546 C1545 1.414 . S
C1546 C1547 1.374 . S
C1547 H1527 0.950 . S
C1547 C1543 1.385 . S
C1547 C1546 1.374 . S
C1548 C1545 1.499 . S
C1548 C1549 1.373 . S
C1548 C1550 1.389 . S
C1549 H1528 0.950 . S
C1549 C1548 1.373 . S
C1549 C1565 1.377 . S
C1550 C1548 1.389 . S
C1550 C1551 1.524 . S
C1550 C1564 1.377 . S
C1551 C1550 1.524 . S
C1551 C1552 1.397 . S
C1551 C1556 1.363 . S
C1552 H1529 0.950 . S
C1552 C1551 1.397 . S
C1552 C1553 1.334 . S
C1553 H1530 0.950 . S
C1553 C1552 1.334 . S
C1553 C1554 1.287 . S
C1554 C1553 1.287 . S
C1554 C1555 1.524 . S
C1554 H1573 0.913 . S
C1555 H1531 0.950 . S
C1555 C1554 1.524 . S
C1555 C1556 1.415 . S
C1556 H1532 0.950 . S
C1556 C1551 1.363 . S
C1556 C1555 1.415 . S
C1557 H1533 0.951 . S
C1557 C1558 1.366 . S
C1557 C1559 1.388 . S
C1558 C1557 1.366 . S
C1558 C1562 1.385 . S
C1559 H1534 0.951 . S
C1559 C1557 1.388 . S
C1559 C1560 1.366 . S
C1560 C1559 1.366 . S
C1560 C1561 1.414 . S
C1560 C1563 1.499 1_556 S
C1561 H1535 0.950 1_556 S
C1561 C1560 1.414 . S
C1561 C1562 1.374 . S
C1562 H1536 0.950 . S
C1562 C1558 1.385 . S
C1562 C1561 1.374 . S
C1563 C1560 1.499 1_554 S
C1563 C1564 1.373 . S
C1563 C1565 1.389 . S
C1564 H1537 0.950 . S
C1564 C1550 1.377 . S
C1564 C1563 1.373 . S
C1565 C1549 1.377 . S
C1565 C1563 1.389 . S
C1565 C1566 1.524 . S
C1566 C1565 1.524 . S
C1566 C1567 1.397 . S
C1566 C1571 1.363 1_554 S
C1567 H1538 0.950 . S
C1567 C1566 1.397 . S
C1567 C1568 1.334 1_554 S
C1568 H1539 0.950 . S
C1568 C1567 1.334 1_556 S
C1568 C1569 1.287 . S
C1569 C1568 1.287 . S
C1569 C1570 1.524 . S
C1569 H1572 0.999 . S
C1570 H1540 0.950 . S
C1570 C1569 1.524 . S
C1570 C1571 1.415 . S
C1571 H1541 0.950 . S
C1571 C1566 1.363 1_556 S
C1571 C1570 1.415 . S
H1572 C1569 0.999 . S
H1573 C1554 0.913 . S
H1574 C1592 0.951 . S
H1575 C1594 0.951 . S
H1576 C1596 0.950 . S
H1577 C1597 0.950 . S
H1578 C1599 0.950 . S
H1579 C1602 0.950 . S
H1580 C1603 0.950 . S
H1581 C1605 0.950 . S
H1582 C1606 0.950 . S
H1583 C1607 0.951 . S
H1584 C1609 0.951 . S
H1585 C1611 0.950 . S
H1586 C1612 0.950 . S
H1587 C1614 0.950 . S
H1588 C1617 0.950 . S
H1589 C1618 0.950 . S
H1590 C1620 0.950 . S
H1591 C1621 0.950 . S
C1592 H1574 0.951 . S
C1592 C1593 1.366 . S
C1592 C1594 1.388 . S
C1593 C1592 1.366 . S
C1593 C1597 1.385 . S
C1594 H1575 0.951 . S
C1594 C1592 1.388 . S
C1594 C1595 1.366 . S
C1595 C1594 1.366 . S
C1595 C1596 1.414 . S
C1595 C1598 1.499 . S
C1596 H1576 0.950 . S
C1596 C1595 1.414 . S
C1596 C1597 1.374 . S
C1597 H1577 0.950 . S
C1597 C1593 1.385 . S
C1597 C1596 1.374 . S
C1598 C1595 1.499 . S
C1598 C1599 1.373 . S
C1598 C1600 1.389 . S
C1599 H1578 0.950 . S
C1599 C1598 1.373 . S
C1599 C1615 1.377 . S
C1600 C1598 1.389 . S
C1600 C1601 1.524 . S
C1600 C1614 1.377 . S
C1601 C1600 1.524 . S
C1601 C1602 1.397 . S
C1601 C1606 1.363 . S
C1602 H1579 0.950 . S
C1602 C1601 1.397 . S
C1602 C1603 1.334 . S
C1603 H1580 0.950 . S
C1603 C1602 1.334 . S
C1603 C1604 1.287 . S
C1604 C1603 1.287 . S
C1604 C1605 1.524 . S
C1604 H1623 0.913 . S
C1605 H1581 0.950 . S
C1605 C1604 1.524 . S
C1605 C1606 1.415 . S
C1606 H1582 0.950 . S
C1606 C1601 1.363 . S
C1606 C1605 1.415 . S
C1607 H1583 0.951 . S
C1607 C1608 1.366 . S
C1607 C1609 1.388 . S
C1608 C1607 1.366 . S
C1608 C1612 1.385 . S
C1609 H1584 0.951 . S
C1609 C1607 1.388 . S
C1609 C1610 1.366 . S
C1610 C1609 1.366 . S
C1610 C1611 1.414 . S
C1610 C1613 1.499 . S
C1611 H1585 0.950 . S
C1611 C1610 1.414 . S
C1611 C1612 1.374 . S
C1612 H1586 0.950 . S
C1612 C1608 1.385 . S
C1612 C1611 1.374 . S
C1613 C1610 1.499 . S
C1613 C1614 1.373 . S
C1613 C1615 1.389 . S
C1614 H1587 0.950 . S
C1614 C1600 1.377 . S
C1614 C1613 1.373 . S
C1615 C1599 1.377 . S
C1615 C1613 1.389 . S
C1615 C1616 1.524 . S
C1616 C1615 1.524 . S
C1616 C1617 1.397 . S
C1616 C1621 1.363 . S
C1617 H1588 0.950 . S
C1617 C1616 1.397 . S
C1617 C1618 1.334 . S
C1618 H1589 0.950 . S
C1618 C1617 1.334 . S
C1618 C1619 1.287 . S
C1619 C1618 1.287 . S
C1619 C1620 1.524 . S
C1619 H1622 0.999 . S
C1620 H1590 0.950 . S
C1620 C1619 1.524 . S
C1620 C1621 1.415 . S
C1621 H1591 0.950 . S
C1621 C1616 1.363 . S
C1621 C1620 1.415 . S
H1622 C1619 0.999 . S
H1623 C1604 0.913 . S
H1624 C1642 0.951 . S
H1625 C1644 0.951 . S
H1626 C1646 0.950 . S
H1627 C1647 0.950 . S
H1628 C1649 0.950 . S
H1629 C1652 0.950 . S
H1630 C1653 0.950 . S
H1631 C1655 0.950 . S
H1632 C1656 0.950 . S
H1633 C1657 0.951 . S
H1634 C1659 0.951 . S
H1635 C1661 0.950 . S
H1636 C1662 0.950 . S
H1637 C1664 0.950 . S
H1638 C1667 0.950 . S
H1639 C1668 0.950 . S
H1640 C1670 0.950 . S
H1641 C1671 0.950 . S
C1642 H1624 0.951 . S
C1642 C1643 1.366 . S
C1642 C1644 1.388 . S
C1643 C1642 1.366 . S
C1643 C1647 1.385 . S
C1644 H1625 0.951 . S
C1644 C1642 1.388 . S
C1644 C1645 1.366 . S
C1645 C1644 1.366 . S
C1645 C1646 1.414 . S
C1645 C1648 1.499 . S
C1646 H1626 0.950 . S
C1646 C1645 1.414 . S
C1646 C1647 1.374 . S
C1647 H1627 0.950 . S
C1647 C1643 1.385 . S
C1647 C1646 1.374 . S
C1648 C1645 1.499 . S
C1648 C1649 1.373 . S
C1648 C1650 1.389 . S
C1649 H1628 0.950 . S
C1649 C1648 1.373 . S
C1649 C1665 1.377 . S
C1650 C1648 1.389 . S
C1650 C1651 1.524 . S
C1650 C1664 1.377 . S
C1651 C1650 1.524 . S
C1651 C1652 1.397 . S
C1651 C1656 1.363 . S
C1652 H1629 0.950 . S
C1652 C1651 1.397 . S
C1652 C1653 1.334 . S
C1653 H1630 0.950 . S
C1653 C1652 1.334 . S
C1653 C1654 1.287 . S
C1654 C1653 1.287 . S
C1654 C1655 1.524 . S
C1654 H1673 0.913 . S
C1655 H1631 0.950 . S
C1655 C1654 1.524 . S
C1655 C1656 1.415 . S
C1656 H1632 0.950 . S
C1656 C1651 1.363 . S
C1656 C1655 1.415 . S
C1657 H1633 0.951 . S
C1657 C1658 1.366 . S
C1657 C1659 1.388 . S
C1658 C1657 1.366 . S
C1658 C1662 1.385 . S
C1659 H1634 0.951 . S
C1659 C1657 1.388 . S
C1659 C1660 1.366 . S
C1660 C1659 1.366 . S
C1660 C1661 1.414 . S
C1660 C1663 1.499 . S
C1661 H1635 0.950 . S
C1661 C1660 1.414 . S
C1661 C1662 1.374 . S
C1662 H1636 0.950 . S
C1662 C1658 1.385 . S
C1662 C1661 1.374 . S
C1663 C1660 1.499 . S
C1663 C1664 1.373 . S
C1663 C1665 1.389 . S
C1664 H1637 0.950 . S
C1664 C1650 1.377 . S
C1664 C1663 1.373 . S
C1665 C1649 1.377 . S
C1665 C1663 1.389 . S
C1665 C1666 1.524 . S
C1666 C1665 1.524 . S
C1666 C1667 1.397 . S
C1666 C1671 1.363 . S
C1667 H1638 0.950 . S
C1667 C1666 1.397 . S
C1667 C1668 1.334 . S
C1668 H1639 0.950 . S
C1668 C1667 1.334 . S
C1668 C1669 1.287 . S
C1669 C1668 1.287 . S
C1669 C1670 1.524 . S
C1669 H1672 0.999 . S
C1670 H1640 0.950 . S
C1670 C1669 1.524 . S
C1670 C1671 1.415 . S
C1671 H1641 0.950 . S
C1671 C1666 1.363 . S
C1671 C1670 1.415 . S
H1672 C1669 0.999 . S
H1673 C1654 0.913 . S
H1674 C1692 0.951 . S
H1675 C1694 0.951 . S
H1676 C1696 0.950 . S
H1677 C1697 0.950 . S
H1678 C1699 0.950 . S
H1679 C1702 0.950 . S
H1680 C1703 0.950 . S
H1681 C1705 0.950 . S
H1682 C1706 0.950 . S
H1683 C1707 0.951 . S
H1684 C1709 0.951 . S
H1685 C1711 0.950 . S
H1686 C1712 0.950 . S
H1687 C1714 0.950 . S
H1688 C1717 0.950 . S
H1689 C1718 0.950 . S
H1690 C1720 0.950 . S
H1691 C1721 0.950 . S
C1692 H1674 0.951 . S
C1692 C1693 1.366 . S
C1692 C1694 1.388 . S
C1693 C1692 1.366 . S
C1693 C1697 1.385 . S
C1694 H1675 0.951 . S
C1694 C1692 1.388 . S
C1694 C1695 1.366 . S
C1695 C1694 1.366 . S
C1695 C1696 1.414 . S
C1695 C1698 1.499 . S
C1696 H1676 0.950 . S
C1696 C1695 1.414 . S
C1696 C1697 1.374 . S
C1697 H1677 0.950 . S
C1697 C1693 1.385 . S
C1697 C1696 1.374 . S
C1698 C1695 1.499 . S
C1698 C1699 1.373 . S
C1698 C1700 1.389 . S
C1699 H1678 0.950 . S
C1699 C1698 1.373 . S
C1699 C1715 1.377 . S
C1700 C1698 1.389 . S
C1700 C1701 1.524 . S
C1700 C1714 1.377 . S
C1701 C1700 1.524 . S
C1701 C1702 1.397 . S
C1701 C1706 1.363 . S
C1702 H1679 0.950 . S
C1702 C1701 1.397 . S
C1702 C1703 1.334 . S
C1703 H1680 0.950 . S
C1703 C1702 1.334 . S
C1703 C1704 1.287 . S
C1704 C1703 1.287 . S
C1704 C1705 1.524 . S
C1704 H1723 0.913 . S
C1705 H1681 0.950 . S
C1705 C1704 1.524 . S
C1705 C1706 1.415 . S
C1706 H1682 0.950 . S
C1706 C1701 1.363 . S
C1706 C1705 1.415 . S
C1707 H1683 0.951 . S
C1707 C1708 1.366 . S
C1707 C1709 1.388 . S
C1708 C1707 1.366 . S
C1708 C1712 1.385 . S
C1709 H1684 0.951 . S
C1709 C1707 1.388 . S
C1709 C1710 1.366 . S
C1710 C1709 1.366 . S
C1710 C1711 1.414 . S
C1710 C1713 1.499 . S
C1711 H1685 0.950 . S
C1711 C1710 1.414 . S
C1711 C1712 1.374 . S
C1712 H1686 0.950 . S
C1712 C1708 1.385 . S
C1712 C1711 1.374 . S
C1713 C1710 1.499 . S
C1713 C1714 1.373 . S
C1713 C1715 1.389 . S
C1714 H1687 0.950 . S
C1714 C1700 1.377 . S
C1714 C1713 1.373 . S
C1715 C1699 1.377 . S
C1715 C1713 1.389 . S
C1715 C1716 1.524 . S
C1716 C1715 1.524 . S
C1716 C1717 1.397 . S
C1716 C1721 1.363 . S
C1717 H1688 0.950 . S
C1717 C1716 1.397 . S
C1717 C1718 1.334 . S
C1718 H1689 0.950 . S
C1718 C1717 1.334 . S
C1718 C1719 1.287 . S
C1719 C1718 1.287 . S
C1719 C1720 1.524 . S
C1719 H1722 0.999 . S
C1720 H1690 0.950 . S
C1720 C1719 1.524 . S
C1720 C1721 1.415 . S
C1721 H1691 0.950 . S
C1721 C1716 1.363 . S
C1721 C1720 1.415 . S
H1722 C1719 0.999 . S
H1723 C1704 0.913 . S
H1724 C1742 0.951 . S
H1725 C1744 0.951 . S
H1726 C1746 0.950 . S
H1727 C1747 0.950 . S
H1728 C1749 0.950 . S
H1729 C1752 0.950 1_565 S
H1730 C1753 0.950 . S
H1731 C1755 0.950 . S
H1732 C1756 0.950 . S
H1733 C1757 0.951 . S
H1734 C1759 0.951 . S
H1735 C1761 0.950 1_554 S
H1736 C1762 0.950 . S
H1737 C1764 0.950 . S
H1738 C1767 0.950 1_545 S
H1739 C1768 0.950 . S
H1740 C1770 0.950 . S
H1741 C1771 0.950 . S
C1742 H1724 0.951 . S
C1742 C1743 1.366 . S
C1742 C1744 1.388 . S
C1743 C1742 1.366 . S
C1743 C1747 1.385 . S
C1744 H1725 0.951 . S
C1744 C1742 1.388 . S
C1744 C1745 1.366 . S
C1745 C1744 1.366 . S
C1745 C1746 1.414 . S
C1745 C1748 1.499 . S
C1746 H1726 0.950 . S
C1746 C1745 1.414 . S
C1746 C1747 1.374 . S
C1747 H1727 0.950 . S
C1747 C1743 1.385 . S
C1747 C1746 1.374 . S
C1748 C1745 1.499 . S
C1748 C1749 1.373 . S
C1748 C1750 1.389 1_565 S
C1749 H1728 0.950 . S
C1749 C1748 1.373 . S
C1749 C1765 1.377 . S
C1750 C1748 1.389 1_545 S
C1750 C1751 1.524 . S
C1750 C1764 1.377 . S
C1751 C1750 1.524 . S
C1751 C1752 1.397 . S
C1751 C1756 1.363 . S
C1752 H1729 0.950 1_545 S
C1752 C1751 1.397 . S
C1752 C1753 1.334 . S
C1753 H1730 0.950 . S
C1753 C1752 1.334 . S
C1753 C1754 1.287 . S
C1754 C1753 1.287 . S
C1754 C1755 1.524 . S
C1754 H1773 0.913 . S
C1755 H1731 0.950 . S
C1755 C1754 1.524 . S
C1755 C1756 1.415 . S
C1756 H1732 0.950 . S
C1756 C1751 1.363 . S
C1756 C1755 1.415 . S
C1757 H1733 0.951 . S
C1757 C1758 1.366 . S
C1757 C1759 1.388 . S
C1758 C1757 1.366 . S
C1758 C1762 1.385 . S
C1759 H1734 0.951 . S
C1759 C1757 1.388 . S
C1759 C1760 1.366 . S
C1760 C1759 1.366 . S
C1760 C1761 1.414 . S
C1760 C1763 1.499 1_556 S
C1761 H1735 0.950 1_556 S
C1761 C1760 1.414 . S
C1761 C1762 1.374 . S
C1762 H1736 0.950 . S
C1762 C1758 1.385 . S
C1762 C1761 1.374 . S
C1763 C1760 1.499 1_554 S
C1763 C1764 1.373 . S
C1763 C1765 1.389 1_545 S
C1764 H1737 0.950 . S
C1764 C1750 1.377 . S
C1764 C1763 1.373 . S
C1765 C1749 1.377 . S
C1765 C1763 1.389 1_565 S
C1765 C1766 1.524 1_554 S
C1766 C1765 1.524 1_556 S
C1766 C1767 1.397 . S
C1766 C1771 1.363 . S
C1767 H1738 0.950 1_565 S
C1767 C1766 1.397 . S
C1767 C1768 1.334 . S
C1768 H1739 0.950 . S
C1768 C1767 1.334 . S
C1768 C1769 1.287 . S
C1769 C1768 1.287 . S
C1769 C1770 1.524 . S
C1769 H1772 0.999 . S
C1770 H1740 0.950 . S
C1770 C1769 1.524 . S
C1770 C1771 1.415 . S
C1771 H1741 0.950 . S
C1771 C1766 1.363 . S
C1771 C1770 1.415 . S
H1772 C1769 0.999 . S
H1773 C1754 0.913 . S
H1774 C1792 0.951 . S
H1775 C1794 0.951 . S
H1776 C1796 0.950 . S
H1777 C1797 0.950 . S
H1778 C1799 0.955 . S
H1779 C1802 0.950 . S
H1780 C1803 0.950 . S
H1781 C1805 0.950 . S
H1782 C1806 0.950 . S
H1783 C1807 0.951 . S
H1784 C1809 0.951 . S
H1785 C1811 0.950 . S
H1786 C1812 0.950 . S
H1787 C1814 0.955 . S
H1788 C1817 0.950 . S
H1789 C1818 0.950 . S
H1790 C1820 0.950 . S
H1791 C1821 0.950 . S
C1792 H1774 0.951 . S
C1792 C1793 1.366 . S
C1792 C1794 1.388 . S
C1793 C1792 1.366 . S
C1793 C1797 1.385 . S
C1794 H1775 0.951 . S
C1794 C1792 1.388 . S
C1794 C1795 1.366 . S
C1795 C1794 1.366 . S
C1795 C1796 1.414 . S
C1795 C1798 1.499 . S
C1796 H1776 0.950 . S
C1796 C1795 1.414 . S
C1796 C1797 1.374 . S
C1797 H1777 0.950 . S
C1797 C1793 1.385 . S
C1797 C1796 1.374 . S
C1798 C1795 1.499 . S
C1798 C1799 1.334 1_545 S
C1798 C1800 1.389 . S
C1799 H1778 0.955 . S
C1799 C1798 1.334 1_565 S
C1799 C1815 1.414 . S
C1800 C1798 1.389 . S
C1800 C1801 1.524 . S
C1800 C1814 1.414 . S
C1801 C1800 1.524 . S
C1801 C1802 1.397 . S
C1801 C1806 1.363 . S
C1802 H1779 0.950 . S
C1802 C1801 1.397 . S
C1802 C1803 1.334 . S
C1803 H1780 0.950 . S
C1803 C1802 1.334 . S
C1803 C1804 1.287 . S
C1804 C1803 1.287 . S
C1804 C1805 1.524 . S
C1804 H1823 0.913 . S
C1805 H1781 0.950 . S
C1805 C1804 1.524 . S
C1805 C1806 1.415 . S
C1806 H1782 0.950 . S
C1806 C1801 1.363 . S
C1806 C1805 1.415 . S
C1807 H1783 0.951 . S
C1807 C1808 1.366 . S
C1807 C1809 1.388 . S
C1808 C1807 1.366 . S
C1808 C1812 1.385 . S
C1809 H1784 0.951 . S
C1809 C1807 1.388 . S
C1809 C1810 1.366 . S
C1810 C1809 1.366 . S
C1810 C1811 1.414 . S
C1810 C1813 1.499 . S
C1811 H1785 0.950 . S
C1811 C1810 1.414 . S
C1811 C1812 1.374 . S
C1812 H1786 0.950 . S
C1812 C1808 1.385 . S
C1812 C1811 1.374 . S
C1813 C1810 1.499 . S
C1813 C1814 1.334 1_565 S
C1813 C1815 1.389 . S
C1814 H1787 0.955 . S
C1814 C1800 1.414 . S
C1814 C1813 1.334 1_545 S
C1815 C1799 1.414 . S
C1815 C1813 1.389 . S
C1815 C1816 1.524 . S
C1816 C1815 1.524 . S
C1816 C1817 1.397 . S
C1816 C1821 1.363 1_455 S
C1817 H1788 0.950 . S
C1817 C1816 1.397 . S
C1817 C1818 1.334 . S
C1818 H1789 0.950 . S
C1818 C1817 1.334 . S
C1818 C1819 1.287 1_455 S
C1819 C1818 1.287 1_655 S
C1819 C1820 1.524 . S
C1819 H1822 0.999 . S
C1820 H1790 0.950 . S
C1820 C1819 1.524 . S
C1820 C1821 1.415 . S
C1821 H1791 0.950 . S
C1821 C1816 1.363 1_655 S
C1821 C1820 1.415 . S
H1822 C1819 0.999 . S
H1823 C1804 0.913 . S
C243 C135 1.443 . S
C258 C9 1.443 . S
C293 C205 1.443 . S
C308 C23 1.443 . S
C343 C37 1.443 . S
C358 C121 1.443 . S
C393 C51 1.443 . S
C408 C219 1.442 1_655 S
C443 C65 1.443 . S
C458 C149 1.442 . S
C493 C191 1.443 1_655 S
C508 C79 1.443 . S
C543 C163 1.443 . S
C558 C93 1.442 . S
C593 C107 1.443 . S
C608 C177 1.443 . S
C643 C59 1.483 1_655 S
C658 C45 1.525 . S
C693 C171 1.525 . S
C708 C115 1.525 . S
C743 C87 1.525 . S
C758 C17 1.526 . S
C793 C129 1.525 . S
C808 C185 1.525 . S
C843 C3 1.483 1_655 S
C858 C73 1.525 . S
C893 C213 1.525 . S
C908 C143 1.525 . S
C943 C101 1.525 . S
C958 C31 1.525 . S
C993 C157 1.526 . S
C1008 C199 1.526 . S
C1043 C7 0.386 . S
C1058 C63 0.385 . S
C1093 C77 0.388 . S
C1108 C21 0.387 . S
C1143 C91 0.389 . S
C1158 C35 0.389 . S
C1193 C49 0.389 . S
C1208 C105 0.388 . S
C1243 C147 0.387 . S
C1258 C119 0.386 . S
C1293 C161 0.387 . S
C1308 C133 0.386 . S
C1343 C203 0.385 . S
C1358 C175 0.386 . S
C1393 C217 0.386 . S
C1408 C189 0.387 . S
C1443 C64 1.826 . S
C1458 C8 1.826 . S
C1493 C78 1.826 1_556 S
C1508 C22 1.826 . S
C1543 C92 1.826 . S
C1558 C36 1.826 . S
C1593 C50 1.826 . S
C1608 C106 1.826 . S
C1643 C120 1.826 . S
C1658 C148 1.826 . S
C1693 C162 1.826 . S
C1708 C134 1.826 1_556 S
C1743 C204 1.826 . S
C1758 C176 1.826 . S
C1793 C218 1.826 . S
C1808 C190 1.826 . S
