# Generated by pormake.
# Topology smd, (6)-cn, num edge types: 1
# Building blocks:
#     Node 0, Type 0, BuildingBlock: PAMTOO_clean_sbu_0, # of connection points: 6
#     Node 1, Type 0, BuildingBlock: PAMTOO_clean_sbu_0, # of connection points: 6
#     Node 2, Type 0, BuildingBlock: PAMTOO_clean_sbu_0, # of connection points: 6
#     Node 3, Type 0, BuildingBlock: PAMTOO_clean_sbu_0, # of connection points: 6
#     Node 4, Type 0, BuildingBlock: PAMTOO_clean_sbu_0, # of connection points: 6
#     Node 5, Type 0, BuildingBlock: PAMTOO_clean_sbu_0, # of connection points: 6
#     Node 6, Type 0, BuildingBlock: PAMTOO_clean_sbu_0, # of connection points: 6
#     Node 7, Type 0, BuildingBlock: PAMTOO_clean_sbu_0, # of connection points: 6
#     Node 8, Type 0, BuildingBlock: PAMTOO_clean_sbu_0, # of connection points: 6
#     Node 9, Type 0, BuildingBlock: PAMTOO_clean_sbu_0, # of connection points: 6
#     Node 10, Type 0, BuildingBlock: PAMTOO_clean_sbu_0, # of connection points: 6
#     Node 11, Type 0, BuildingBlock: PAMTOO_clean_sbu_0, # of connection points: 6
#     Node 12, Type 0, BuildingBlock: PAMTOO_clean_sbu_0, # of connection points: 6
#     Node 13, Type 0, BuildingBlock: PAMTOO_clean_sbu_0, # of connection points: 6
#     Node 14, Type 0, BuildingBlock: PAMTOO_clean_sbu_0, # of connection points: 6
#     Node 15, Type 0, BuildingBlock: PAMTOO_clean_sbu_0, # of connection points: 6
#     Node 16, Type 0, BuildingBlock: PAMTOO_clean_sbu_0, # of connection points: 6
#     Node 17, Type 0, BuildingBlock: PAMTOO_clean_sbu_0, # of connection points: 6
#     Edge 18, Type (0, 0), BuildingBlock: EZIPEK_clean_linker_0, # of connection points: 2
#     Edge 19, Type (0, 0), BuildingBlock: EZIPEK_clean_linker_0, # of connection points: 2
#     Edge 20, Type (0, 0), BuildingBlock: EZIPEK_clean_linker_0, # of connection points: 2
#     Edge 21, Type (0, 0), BuildingBlock: EZIPEK_clean_linker_0, # of connection points: 2
#     Edge 22, Type (0, 0), BuildingBlock: EZIPEK_clean_linker_0, # of connection points: 2
#     Edge 23, Type (0, 0), BuildingBlock: EZIPEK_clean_linker_0, # of connection points: 2
#     Edge 24, Type (0, 0), BuildingBlock: EZIPEK_clean_linker_0, # of connection points: 2
#     Edge 25, Type (0, 0), BuildingBlock: EZIPEK_clean_linker_0, # of connection points: 2
#     Edge 26, Type (0, 0), BuildingBlock: EZIPEK_clean_linker_0, # of connection points: 2
#     Edge 27, Type (0, 0), BuildingBlock: EZIPEK_clean_linker_0, # of connection points: 2
#     Edge 28, Type (0, 0), BuildingBlock: EZIPEK_clean_linker_0, # of connection points: 2
#     Edge 29, Type (0, 0), BuildingBlock: EZIPEK_clean_linker_0, # of connection points: 2
#     Edge 30, Type (0, 0), BuildingBlock: EZIPEK_clean_linker_0, # of connection points: 2
#     Edge 31, Type (0, 0), BuildingBlock: EZIPEK_clean_linker_0, # of connection points: 2
#     Edge 32, Type (0, 0), BuildingBlock: EZIPEK_clean_linker_0, # of connection points: 2
#     Edge 33, Type (0, 0), BuildingBlock: EZIPEK_clean_linker_0, # of connection points: 2
#     Edge 34, Type (0, 0), BuildingBlock: EZIPEK_clean_linker_0, # of connection points: 2
#     Edge 35, Type (0, 0), BuildingBlock: EZIPEK_clean_linker_0, # of connection points: 2
#     Edge 36, Type (0, 0), BuildingBlock: EZIPEK_clean_linker_0, # of connection points: 2
#     Edge 37, Type (0, 0), BuildingBlock: EZIPEK_clean_linker_0, # of connection points: 2
#     Edge 38, Type (0, 0), BuildingBlock: EZIPEK_clean_linker_0, # of connection points: 2
#     Edge 39, Type (0, 0), BuildingBlock: EZIPEK_clean_linker_0, # of connection points: 2
#     Edge 40, Type (0, 0), BuildingBlock: EZIPEK_clean_linker_0, # of connection points: 2
#     Edge 41, Type (0, 0), BuildingBlock: EZIPEK_clean_linker_0, # of connection points: 2
#     Edge 42, Type (0, 0), BuildingBlock: EZIPEK_clean_linker_0, # of connection points: 2
#     Edge 43, Type (0, 0), BuildingBlock: EZIPEK_clean_linker_0, # of connection points: 2
#     Edge 44, Type (0, 0), BuildingBlock: EZIPEK_clean_linker_0, # of connection points: 2
#     Edge 45, Type (0, 0), BuildingBlock: EZIPEK_clean_linker_0, # of connection points: 2
#     Edge 46, Type (0, 0), BuildingBlock: EZIPEK_clean_linker_0, # of connection points: 2
#     Edge 47, Type (0, 0), BuildingBlock: EZIPEK_clean_linker_0, # of connection points: 2
#     Edge 48, Type (0, 0), BuildingBlock: EZIPEK_clean_linker_0, # of connection points: 2
#     Edge 49, Type (0, 0), BuildingBlock: EZIPEK_clean_linker_0, # of connection points: 2
#     Edge 50, Type (0, 0), BuildingBlock: EZIPEK_clean_linker_0, # of connection points: 2
#     Edge 51, Type (0, 0), BuildingBlock: EZIPEK_clean_linker_0, # of connection points: 2
#     Edge 52, Type (0, 0), BuildingBlock: EZIPEK_clean_linker_0, # of connection points: 2
#     Edge 53, Type (0, 0), BuildingBlock: EZIPEK_clean_linker_0, # of connection points: 2
#     Edge 54, Type (0, 0), BuildingBlock: EZIPEK_clean_linker_0, # of connection points: 2
#     Edge 55, Type (0, 0), BuildingBlock: EZIPEK_clean_linker_0, # of connection points: 2
#     Edge 56, Type (0, 0), BuildingBlock: EZIPEK_clean_linker_0, # of connection points: 2
#     Edge 57, Type (0, 0), BuildingBlock: EZIPEK_clean_linker_0, # of connection points: 2
#     Edge 58, Type (0, 0), BuildingBlock: EZIPEK_clean_linker_0, # of connection points: 2
#     Edge 59, Type (0, 0), BuildingBlock: EZIPEK_clean_linker_0, # of connection points: 2
#     Edge 60, Type (0, 0), BuildingBlock: EZIPEK_clean_linker_0, # of connection points: 2
#     Edge 61, Type (0, 0), BuildingBlock: EZIPEK_clean_linker_0, # of connection points: 2
#     Edge 62, Type (0, 0), BuildingBlock: EZIPEK_clean_linker_0, # of connection points: 2
#     Edge 63, Type (0, 0), BuildingBlock: EZIPEK_clean_linker_0, # of connection points: 2
#     Edge 64, Type (0, 0), BuildingBlock: EZIPEK_clean_linker_0, # of connection points: 2
#     Edge 65, Type (0, 0), BuildingBlock: EZIPEK_clean_linker_0, # of connection points: 2
#     Edge 66, Type (0, 0), BuildingBlock: EZIPEK_clean_linker_0, # of connection points: 2
#     Edge 67, Type (0, 0), BuildingBlock: EZIPEK_clean_linker_0, # of connection points: 2
#     Edge 68, Type (0, 0), BuildingBlock: EZIPEK_clean_linker_0, # of connection points: 2
#     Edge 69, Type (0, 0), BuildingBlock: EZIPEK_clean_linker_0, # of connection points: 2
#     Edge 70, Type (0, 0), BuildingBlock: EZIPEK_clean_linker_0, # of connection points: 2
#     Edge 71, Type (0, 0), BuildingBlock: EZIPEK_clean_linker_0, # of connection points: 2
# Relax obj value: 0.251
# Max RMSD: 0.338
# Mean RMSD: 0.338
data_MOF--net-smd--node1-PAMTOO_clean_sbu_0--edge1-EZIPEK_clean_linker_0
_symmetry_space_group_name_H-M    P1
_symmetry_Int_Tables_number       1
_symmetry_cell_setting            triclinic
loop_
_symmetry_equiv_pos_as_xyz
'x, y, z'
_cell_length_a     47.17048
_cell_length_b     47.360171
_cell_length_c     20.865259
_cell_angle_alpha  90.001936
_cell_angle_beta   89.726133
_cell_angle_gamma 119.72504
loop_
_atom_site_label
_atom_site_type_symbol
_atom_site_fract_x
_atom_site_fract_y
_atom_site_fract_z
_atom_type_partial_charge
Dy0 Dy 0.99897 0.22515 0.47361 0.0
Dy1 Dy 0.04216 0.25167 0.60068 0.0
C2 C 0.06881 0.22479 0.49161 0.0
O3 O 0.96935 0.18487 0.54003 0.0
O4 O 1.00966 0.19596 0.61361 0.0
O5 O 0.97541 0.19079 0.39657 0.0
O6 O 0.97244 0.23488 0.40102 0.0
O7 O 0.99337 0.24071 0.63276 0.0
O8 O 0.98038 0.25319 0.53707 0.0
O9 O 0.0542 0.29467 0.53118 0.0
O10 O 0.04444 0.26669 0.43851 0.0
O11 O 0.06144 0.29027 0.67033 0.0
O12 O 0.07088 0.25002 0.6799 0.0
C13 C 0.98036 0.1761 0.58891 0.0
O14 O 0.03895 0.21043 0.46651 0.0
O15 O 0.0768 0.2457 0.53831 0.0
C16 C 0.97772 0.21729 0.29878 0.0
C17 C 0.99757 0.23313 0.16982 0.0
C18 C 0.02065 0.23877 0.21762 0.0
C19 C 1.01081 0.23098 0.28166 0.0
C20 C 0.95471 0.21196 0.25116 0.0
C21 C 0.96455 0.21982 0.18709 0.0
C22 C 0.96735 0.20993 0.3664 0.0
C23 C 0.97734 0.25156 0.60066 0.0
C24 C 0.05763 0.29435 0.4679 0.0
C25 C 0.06133 0.27123 0.77535 0.0
C26 C 0.04046 0.26115 0.90439 0.0
C27 C 0.02209 0.26603 0.8575 0.0
C28 C 0.03235 0.2709 0.7934 0.0
C29 C 0.07985 0.26678 0.82258 0.0
C30 C 0.06945 0.26169 0.88662 0.0
C31 C 0.07201 0.27532 0.70755 0.0
H32 H 0.04622 0.24907 0.20524 0.0
H33 H 0.02901 0.23563 0.31782 0.0
H34 H 0.92915 0.20179 0.26355 0.0
H35 H 0.94643 0.21539 0.15089 0.0
H36 H 0.99958 0.26556 0.87041 0.0
H37 H 1.01743 0.27408 0.75799 0.0
H38 H 0.10219 0.26687 0.80979 0.0
H39 H 0.08384 0.25786 0.92227 0.0
Dy40 Dy 0.81544 0.7744 0.47633 0.0
Dy41 Dy 0.79314 0.79762 0.6022 0.0
C42 C 0.81942 0.84685 0.48583 0.0
O43 O 0.86318 0.8019 0.52308 0.0
O44 O 0.84189 0.7982 0.62346 0.0
O45 O 0.84609 0.78321 0.39263 0.0
O46 O 0.80547 0.73515 0.41066 0.0
O47 O 0.76675 0.74439 0.60705 0.0
O48 O 0.80625 0.73801 0.56029 0.0
O49 O 0.7546 0.78969 0.52444 0.0
O50 O 0.76321 0.75526 0.46227 0.0
O51 O 0.75639 0.78788 0.67505 0.0
O52 O 0.80526 0.82829 0.68596 0.0
C53 C 0.86679 0.80374 0.58492 0.0
O54 O 0.81707 0.82267 0.44937 0.0
O55 O 0.81534 0.84362 0.54789 0.0
C56 C 0.81717 0.75282 0.30216 0.0
C57 C 0.80068 0.75628 0.17331 0.0
C58 C 0.77898 0.75253 0.22329 0.0
C59 C 0.78723 0.75098 0.28725 0.0
C60 C 0.83833 0.75555 0.25199 0.0
C61 C 0.83018 0.75729 0.18814 0.0
C62 C 0.82765 0.75419 0.36949 0.0
C63 C 0.78243 0.72845 0.60361 0.0
C64 C 0.74556 0.76859 0.47609 0.0
C65 C 0.77816 0.79882 0.7799 0.0
C66 C 0.78103 0.78004 0.90739 0.0
C67 C 0.80355 0.78167 0.86113 0.0
C68 C 0.802 0.79076 0.79785 0.0
C69 C 0.75513 0.79635 0.82573 0.0
C70 C 0.75649 0.78697 0.88892 0.0
C71 C 0.77719 0.80984 0.71385 0.0
H72 H 0.75619 0.75189 0.21289 0.0
H73 H 0.77062 0.74916 0.32509 0.0
H74 H 0.86158 0.75717 0.26231 0.0
H75 H 0.84729 0.76031 0.15034 0.0
H76 H 0.82263 0.7764 0.87432 0.0
H77 H 0.81975 0.79197 0.76319 0.0
H78 H 0.73634 0.8021 0.81285 0.0
H79 H 0.7389 0.78587 0.92383 0.0
Dy80 Dy 0.27327 0.04632 0.47632 0.0
Dy81 Dy 0.24993 1.0002 0.60184 0.0
C82 C 0.19953 0.97958 0.48883 0.0
O83 O 0.24746 0.06713 0.5301 0.0
O84 O 0.24761 0.04614 0.62912 0.0
O85 O 0.2637 0.07026 0.39801 0.0
O86 O 0.31029 0.07227 0.40323 0.0
O87 O 0.30351 0.0305 0.60774 0.0
O88 O 0.30979 0.07544 0.55761 0.0
O89 O 0.25423 0.97046 0.51767 0.0
O90 O 0.2952 0.01435 0.4687 0.0
O91 O 0.26062 0.9726 0.67075 0.0
O92 O 0.2185 0.97869 0.68441 0.0
C93 C 0.2436 0.06671 0.59219 0.0
O94 O 0.22397 1.00043 0.45149 0.0
O95 O 0.20295 0.97953 0.55088 0.0
C96 C 0.28842 0.06937 0.29841 0.0
C97 C 0.28314 0.05076 0.16775 0.0
C98 C 0.2564 0.04945 0.20025 0.0
C99 C 0.25899 0.05869 0.26475 0.0
C100 C 0.31541 0.07142 0.26503 0.0
C101 C 0.31279 0.06216 0.20043 0.0
C102 C 0.29085 0.07788 0.36792 0.0
C103 C 0.31972 0.06207 0.60184 0.0
C104 C 0.27717 0.98281 0.47236 0.0
C105 C 0.24771 0.98075 0.77725 0.0
C106 C 0.2637 1.00475 0.90387 0.0
C107 C 0.28709 0.01828 0.85449 0.0
C108 C 0.27908 1.00655 0.7916 0.0
C109 C 0.22467 0.96682 0.82693 0.0
C110 C 0.23255 0.97873 0.88958 0.0
C111 C 0.23786 0.96973 0.71044 0.0
H112 H 0.23336 0.04088 0.17582 0.0
H113 H 0.23773 0.05702 0.2884 0.0
H114 H 0.33838 0.07949 0.28925 0.0
H115 H 0.33377 0.06347 0.17617 0.0
H116 H 0.31128 0.03831 0.86442 0.0
H117 H 0.29719 0.01802 0.75405 0.0
H118 H 0.2003 0.94711 0.81699 0.0
H119 H 0.21418 0.9679 0.92691 0.0
Dy120 Dy 1.01193 0.7899 0.47782 0.0
Dy121 Dy 0.05813 0.80624 0.60291 0.0
C122 C 0.07102 0.77546 0.47246 0.0
O123 O 0.98265 0.75288 0.5589 0.0
O124 O 0.02633 0.75292 0.60338 0.0
O125 O 0.9792 0.75351 0.41084 0.0
O126 O 0.99297 0.80388 0.39685 0.0
O127 O 1.01143 0.80828 0.63015 0.0
O128 O 0.99676 0.81973 0.53389 0.0
O129 O 0.08285 0.8534 0.55154 0.0
O130 O 0.05997 0.83616 0.45216 0.0
O131 O 0.08283 0.83801 0.68269 0.0
O132 O 0.08072 0.79156 0.67662 0.0
C133 C 0.99482 0.74002 0.5997 0.0
O134 O 0.04071 0.76607 0.45887 0.0
O135 O 0.08521 0.795 0.52234 0.0
C136 C 0.98924 0.77369 0.30419 0.0
C137 C 1.01074 0.77652 0.17629 0.0
C138 C 0.02678 0.77082 0.22701 0.0
C139 C 1.0162 0.76953 0.29042 0.0
C140 C 0.97278 0.7786 0.25334 0.0
C141 C 0.98341 0.77998 0.18991 0.0
C142 C 0.97956 0.77502 0.37131 0.0
C143 C 0.99369 0.81751 0.59604 0.0
C144 C 0.08222 0.85859 0.49018 0.0
C145 C 0.07692 0.80995 0.78129 0.0
C146 C 0.05593 0.79638 0.91097 0.0
C147 C 0.05126 0.81886 0.87529 0.0
C148 C 0.06161 0.82559 0.81127 0.0
C149 C 0.0817 0.78751 0.81733 0.0
C150 C 0.07125 0.78074 0.88149 0.0
C151 C 0.08751 0.81655 0.71279 0.0
H152 H 0.04791 0.76811 0.2176 0.0
H153 H 0.02948 0.76593 0.32876 0.0
H154 H 0.95209 0.78204 0.26279 0.0
H155 H 0.97076 0.78446 0.15152 0.0
H156 H 0.0396 0.83126 0.89714 0.0
H157 H 0.05741 0.84295 0.78527 0.0
H158 H 0.09338 0.77507 0.79574 0.0
H159 H 0.0752 0.76339 0.9082 0.0
Dy160 Dy 0.26175 0.2294 0.47325 0.0
Dy161 Dy 0.24013 0.25367 0.59899 0.0
C162 C 0.26795 0.29818 0.46767 0.0
O163 O 0.29882 0.23773 0.55467 0.0
O164 O 0.29401 0.27754 0.60521 0.0
O165 O 0.29635 0.23842 0.39585 0.0
O166 O 0.25105 0.19294 0.40092 0.0
O167 O 0.24028 0.20648 0.6269 0.0
O168 O 0.23595 0.18363 0.52845 0.0
O169 O 0.19284 0.22448 0.5506 0.0
O170 O 0.21308 0.22778 0.44962 0.0
O171 O 0.20425 0.24551 0.67203 0.0
O172 O 0.25181 0.28826 0.67686 0.0
C173 C 0.30905 0.26089 0.59931 0.0
O174 O 0.28407 0.28267 0.45927 0.0
O175 O 0.24622 0.28906 0.51554 0.0
C176 C 0.27034 0.21439 0.29739 0.0
C177 C 0.25965 0.22235 0.16661 0.0
C178 C 0.23657 0.2184 0.21376 0.0
C179 C 0.24152 0.21378 0.27813 0.0
C180 C 0.29326 0.21783 0.25039 0.0
C181 C 0.28775 0.22128 0.1855 0.0
C182 C 0.27657 0.21158 0.36608 0.0
C183 C 0.23555 0.18148 0.59074 0.0
C184 C 0.1887 0.2227 0.48876 0.0
C185 C 0.22751 0.2616 0.77504 0.0
C186 C 0.23665 0.2476 0.90287 0.0
C187 C 0.22749 0.2239 0.85482 0.0
C188 C 0.2225 0.23065 0.79185 0.0
C189 C 0.23639 0.28522 0.82308 0.0
C190 C 0.24062 0.27821 0.88651 0.0
C191 C 0.22465 0.26962 0.70745 0.0
H192 H 0.21469 0.21904 0.20075 0.0
H193 H 0.22316 0.21068 0.31314 0.0
H194 H 0.31547 0.21797 0.26389 0.0
H195 H 0.30578 0.22389 0.15013 0.0
H196 H 0.22444 0.20021 0.866 0.0
H197 H 0.21579 0.21195 0.75584 0.0
H198 H 0.24033 0.30921 0.81143 0.0
H199 H 0.2476 0.29687 0.9227 0.0
Dy200 Dy 0.81724 0.03603 0.4707 0.0
Dy201 Dy 0.7908 0.99054 0.59518 0.0
C202 C 0.74728 0.97683 0.46428 0.0
O203 O 0.81109 0.06589 0.55295 0.0
O204 O 0.76895 0.02242 0.6006 0.0
O205 O 0.80949 0.06424 0.39806 0.0
O206 O 0.85174 0.0579 0.39293 0.0
O207 O 0.84132 0.03439 0.62213 0.0
O208 O 0.86309 0.05668 0.52414 0.0
O209 O 0.81207 0.96442 0.54496 0.0
O210 O 0.81926 0.98912 0.44693 0.0
O211 O 0.7963 0.96335 0.67233 0.0
O212 O 0.75353 0.96881 0.66934 0.0
C213 C 0.78705 0.05382 0.5962 0.0
O214 O 0.76404 1.00812 0.4565 0.0
O215 O 0.75511 0.96309 0.51167 0.0
C216 C 0.82623 0.05652 0.29426 0.0
C217 C 0.81204 0.03504 0.16587 0.0
C218 C 0.79134 0.04307 0.20017 0.0
C219 C 0.79836 0.05372 0.2638 0.0
C220 C 0.84708 0.04884 0.25914 0.0
C221 C 0.84 0.03814 0.19571 0.0
C222 C 0.83351 0.06692 0.36236 0.0
C223 C 0.8662 0.05545 0.58591 0.0
C224 C 0.81872 0.96597 0.48396 0.0
C225 C 0.7765 0.97115 0.7719 0.0
C226 C 0.78682 0.99293 0.90034 0.0
C227 C 0.81304 0.99664 0.86231 0.0
C228 C 0.80798 0.98589 0.79878 0.0
C229 C 0.75024 0.96744 0.81025 0.0
C230 C 0.75536 0.97824 0.87396 0.0
C231 C 0.77106 0.96035 0.70397 0.0
H232 H 0.76976 0.04105 0.17766 0.0
H233 H 0.78187 0.05961 0.28915 0.0
H234 H 0.86887 0.05095 0.28075 0.0
H235 H 0.85637 0.03229 0.16978 0.0
H236 H 0.83744 1.00781 0.88195 0.0
H237 H 0.82884 0.98935 0.77074 0.0
H238 H 0.7258 0.95631 0.79082 0.0
H239 H 0.7348 0.97508 0.90273 0.0
Dy240 Dy 0.67123 0.56998 0.81073 0.0
Dy241 Dy 0.71659 0.5846 0.93582 0.0
C242 C 0.7356 0.55875 0.81606 0.0
O243 O 0.64386 0.52253 0.86026 0.0
O244 O 0.66987 0.53622 0.95812 0.0
O245 O 0.64745 0.5415 0.72656 0.0
O246 O 0.65307 0.58931 0.73737 0.0
O247 O 0.68256 0.60154 0.96322 0.0
O248 O 0.6414 0.57823 0.88946 0.0
O249 O 0.74479 0.62305 0.85627 0.0
O250 O 0.69972 0.62267 0.82657 0.0
O251 O 0.74936 0.62203 1.00088 0.0
O252 O 0.73712 0.57211 1.01639 0.0
C253 C 0.64591 0.51558 0.92022 0.0
O254 O 0.71814 0.56866 0.78274 0.0
O255 O 0.73249 0.55588 0.87819 0.0
C256 C 0.65827 0.57345 0.6324 0.0
C257 C 0.68119 0.58728 0.50439 0.0
C258 C 0.69836 0.58029 0.55072 0.0
C259 C 0.68714 0.57366 0.61428 0.0
C260 C 0.64153 0.58115 0.58637 0.0
C261 C 0.65297 0.58817 0.52294 0.0
C262 C 0.64532 0.56503 0.6987 0.0
C263 C 0.65325 0.59391 0.94448 0.0
C264 C 0.73125 0.63715 0.82326 0.0
C265 C 0.74181 0.60337 0.10819 0.0
C266 C 0.72342 0.60294 0.23749 0.0
C267 C 0.70415 0.6042 0.1877 0.0
C268 C 0.71326 0.6044 0.12359 0.0
C269 C 0.76148 0.60295 0.15802 0.0
C270 C 0.75238 0.60276 0.2222 0.0
C271 C 0.75036 0.60128 0.04063 0.0
H272 H 0.7202 0.57953 0.5374 0.0
H273 H 0.70073 0.56817 0.64903 0.0
H274 H 0.6193 0.58123 0.59927 0.0
H275 H 0.63936 0.59349 0.48794 0.0
H276 H 0.68169 0.60426 0.19847 0.0
H277 H 0.69764 0.6047 0.08611 0.0
H278 H 0.78355 0.60212 0.14729 0.0
H279 H 0.76748 0.60165 0.25995 0.0
Dy280 Dy 0.47834 0.11557 0.81226 0.0
Dy281 Dy 0.46163 0.1434 0.93808 0.0
C282 C 0.48749 0.19008 0.81948 0.0
O283 O 0.5268 0.13723 0.85764 0.0
O284 O 0.51104 0.14513 0.95749 0.0
O285 O 0.5069 0.12014 0.72762 0.0
O286 O 0.46015 0.07691 0.74167 0.0
O287 O 0.44064 0.09136 0.96115 0.0
O288 O 0.47254 0.08023 0.89476 0.0
O289 O 0.42355 0.13469 0.85825 0.0
O290 O 0.4251 0.09125 0.82323 0.0
O291 O 0.42493 0.13936 1.00585 0.0
O292 O 0.47555 0.17568 1.01986 0.0
C293 C 0.53308 0.14439 0.91819 0.0
O294 O 0.48035 0.16393 0.78434 0.0
O295 O 0.48776 0.18862 0.88188 0.0
C296 C 0.47469 0.09646 0.63544 0.0
C297 C 0.46016 0.10309 0.50695 0.0
C298 C 0.46616 0.12744 0.55202 0.0
C299 C 0.47321 0.1241 0.61577 0.0
C300 C 0.46764 0.07163 0.59091 0.0
C301 C 0.46034 0.07486 0.52717 0.0
C302 C 0.484 0.09358 0.70172 0.0
C303 C 0.45383 0.07368 0.94702 0.0
C304 C 0.41037 0.10819 0.82207 0.0
C305 C 0.44473 0.14985 0.11311 0.0
C306 C 0.44545 0.13118 0.24161 0.0
C307 C 0.42903 0.10751 0.19442 0.0
C308 C 0.4288 0.11673 0.13062 0.0
C309 C 0.46054 0.17342 0.16079 0.0
C310 C 0.461 0.16418 0.22438 0.0
C311 C 0.44645 0.16027 0.04541 0.0
H312 H 0.46595 0.1493 0.53751 0.0
H313 H 0.47808 0.14339 0.64943 0.0
H314 H 0.46828 0.04996 0.60522 0.0
H315 H 0.4556 0.05572 0.49324 0.0
H316 H 0.41699 0.08192 0.20677 0.0
H317 H 0.41663 0.09794 0.09494 0.0
H318 H 0.47306 0.19904 0.14858 0.0
H319 H 0.47387 0.18277 0.2601 0.0
Dy320 Dy 0.93241 0.37996 0.79624 0.0
Dy321 Dy 0.9097 0.33385 0.92146 0.0
C322 C 0.85994 0.31212 0.80658 0.0
O323 O 0.90397 0.39815 0.84923 0.0
O324 O 0.90667 0.37932 0.94866 0.0
O325 O 0.92254 0.40469 0.7201 0.0
O326 O 0.96918 0.40661 0.72298 0.0
O327 O 0.9633 0.36349 0.92009 0.0
O328 O 0.96777 0.409 0.87889 0.0
O329 O 0.91463 0.3041 0.83824 0.0
O330 O 0.95479 0.34824 0.78788 0.0
O331 O 0.92335 0.30942 0.99255 0.0
O332 O 0.87911 0.31175 1.00483 0.0
C333 C 0.90107 0.39869 0.91144 0.0
O334 O 0.8845 0.33325 0.76973 0.0
O335 O 0.86296 0.31187 0.86885 0.0
C336 C 0.94668 0.40475 0.61998 0.0
C337 C 0.94225 0.38871 0.4881 0.0
C338 C 0.91581 0.37071 0.52983 0.0
C339 C 0.91784 0.37884 0.59485 0.0
C340 C 0.973 0.42298 0.57817 0.0
C341 C 0.97075 0.41522 0.51276 0.0
C342 C 0.94962 0.41277 0.68937 0.0
C343 C 0.97848 0.3951 0.92004 0.0
C344 C 0.93742 0.31661 0.79257 0.0
C345 C 0.91029 0.31856 0.09746 0.0
C346 C 0.92565 0.34413 0.22308 0.0
C347 C 0.93687 0.36499 0.16963 0.0
C348 C 0.92929 0.35231 0.10733 0.0
C349 C 0.89982 0.29771 0.15082 0.0
C350 C 0.90748 0.31038 0.21312 0.0
C351 C 0.9001 0.30533 1.03204 0.0
H352 H 0.89358 0.35024 0.51202 0.0
H353 H 0.89711 0.36431 0.62578 0.0
H354 H 0.99534 0.44322 0.5962 0.0
H355 H 0.99138 0.4296 0.48148 0.0
H356 H 0.95097 0.39107 0.1762 0.0
H357 H 0.93771 0.36887 0.06685 0.0
H358 H 0.88517 0.27166 0.14435 0.0
H359 H 0.89861 0.2939 0.25369 0.0
Dy360 Dy 0.67573 0.11715 0.79882 0.0
Dy361 Dy 0.72165 0.13753 0.92382 0.0
C362 C 0.7379 0.10899 0.79141 0.0
O363 O 0.64702 0.082 0.88323 0.0
O364 O 0.69103 0.08424 0.93062 0.0
O365 O 0.6455 0.07942 0.73153 0.0
O366 O 0.65438 0.12847 0.7183 0.0
O367 O 0.67604 0.14257 0.9482 0.0
O368 O 0.65481 0.14318 0.84999 0.0
O369 O 0.74841 0.18365 0.87081 0.0
O370 O 0.72156 0.16656 0.77456 0.0
O371 O 0.74521 0.1701 1.00308 0.0
O372 O 0.74582 0.12492 0.99765 0.0
C373 C 0.65951 0.07082 0.92698 0.0
O374 O 0.70701 0.09575 0.77826 0.0
O375 O 0.75015 0.12846 0.84227 0.0
C376 C 0.65305 0.09997 0.62464 0.0
C377 C 0.67501 0.10574 0.49643 0.0
C378 C 0.68388 0.08986 0.54238 0.0
C379 C 0.67317 0.08717 0.60608 0.0
C380 C 0.64357 0.11505 0.57815 0.0
C381 C 0.6545 0.11798 0.51474 0.0
C382 C 0.6435 0.0999 0.69247 0.0
C383 C 0.65513 0.14662 0.91191 0.0
C384 C 0.74549 0.18881 0.81049 0.0
C385 C 0.74147 0.1433 0.10216 0.0
C386 C 0.72101 0.13001 0.232 0.0
C387 C 0.72084 0.15583 0.19944 0.0
C388 C 0.73094 0.16243 0.13529 0.0
C389 C 0.74229 0.11786 0.13553 0.0
C390 C 0.73211 0.11125 0.19977 0.0
C391 C 0.75149 0.14977 1.03338 0.0
H392 H 0.69951 0.08007 0.52912 0.0
H393 H 0.68112 0.07561 0.64087 0.0
H394 H 0.62822 0.12521 0.59125 0.0
H395 H 0.64731 0.13023 0.48001 0.0
H396 H 0.71259 0.17072 0.22361 0.0
H397 H 0.73024 0.18241 0.1116 0.0
H398 H 0.75053 0.10285 0.11178 0.0
H399 H 0.73264 0.09134 0.22424 0.0
Dy400 Dy 0.93073 0.56541 0.79845 0.0
Dy401 Dy 0.91184 0.59046 0.92735 0.0
C402 C 0.93686 0.63366 0.78856 0.0
O403 O 0.97538 0.59239 0.86609 0.0
O404 O 0.94636 0.57462 0.95677 0.0
O405 O 0.96931 0.57432 0.73156 0.0
O406 O 0.92121 0.53228 0.71914 0.0
O407 O 0.89151 0.53554 0.9443 0.0
O408 O 0.91399 0.52188 0.85939 0.0
O409 O 0.86641 0.5768 0.87631 0.0
O410 O 0.87862 0.55825 0.78321 0.0
O411 O 0.88462 0.59242 1.00934 0.0
O412 O 0.93555 0.62909 0.99641 0.0
C413 C 0.97422 0.58632 0.92844 0.0
O414 O 0.93194 0.60801 0.75767 0.0
O415 O 0.93472 0.63315 0.85265 0.0
C416 C 0.94976 0.56061 0.62509 0.0
C417 C 0.94704 0.57741 0.49609 0.0
C418 C 0.95799 0.60125 0.54408 0.0
C419 C 0.95926 0.59293 0.60804 0.0
C420 C 0.93926 0.53694 0.57677 0.0
C421 C 0.93784 0.54525 0.51284 0.0
C422 C 0.94974 0.55118 0.69295 0.0
C423 C 0.89777 0.51453 0.91349 0.0
C424 C 0.85884 0.56486 0.81853 0.0
C425 C 0.91751 0.61228 0.10218 0.0
C426 C 0.9309 0.60396 0.23042 0.0
C427 C 0.92952 0.58245 0.18259 0.0
C428 C 0.92294 0.58661 0.11893 0.0
C429 C 0.91961 0.63421 0.14968 0.0
C430 C 0.92623 0.63007 0.21337 0.0
C431 C 0.91042 0.6167 0.03522 0.0
H432 H 0.96502 0.62614 0.53214 0.0
H433 H 0.96731 0.61174 0.64416 0.0
H434 H 0.93174 0.51192 0.58864 0.0
H435 H 0.92918 0.52652 0.47647 0.0
H436 H 0.93309 0.56219 0.19474 0.0
H437 H 0.92181 0.56965 0.08287 0.0
H438 H 0.91591 0.65439 0.13758 0.0
H439 H 0.92725 0.64695 0.24956 0.0
Dy440 Dy 0.47604 0.37453 0.80341 0.0
Dy441 Dy 0.45394 0.32909 0.92968 0.0
C442 C 0.40933 0.31109 0.79945 0.0
O443 O 0.46784 0.40349 0.88505 0.0
O444 O 0.42952 0.35826 0.9338 0.0
O445 O 0.46515 0.40155 0.73311 0.0
O446 O 0.50719 0.39544 0.72026 0.0
O447 O 0.5023 0.37549 0.95521 0.0
O448 O 0.52255 0.39785 0.85611 0.0
O449 O 0.47904 0.3067 0.87946 0.0
O450 O 0.48127 0.32912 0.78055 0.0
O451 O 0.46334 0.30906 1.01473 0.0
O452 O 0.41484 0.30123 0.99759 0.0
C453 C 0.44452 0.3898 0.92944 0.0
O454 O 0.42287 0.34241 0.79298 0.0
O455 O 0.41974 0.29918 0.84591 0.0
C456 C 0.47727 0.39248 0.62618 0.0
C457 C 0.45329 0.36321 0.50338 0.0
C458 C 0.43838 0.37814 0.53839 0.0
C459 C 0.44962 0.39164 0.59933 0.0
C460 C 0.49499 0.3822 0.588 0.0
C461 C 0.48365 0.36862 0.52744 0.0
C462 C 0.48762 0.40391 0.69324 0.0
C463 C 0.52625 0.39713 0.918 0.0
C464 C 0.484 0.30767 0.81773 0.0
C465 C 0.4325 0.30782 0.1057 0.0
C466 C 0.43233 0.3236 0.23649 0.0
C467 C 0.45152 0.34793 0.19177 0.0
C468 C 0.45152 0.34013 0.12678 0.0
C469 C 0.41253 0.28379 0.15008 0.0
C470 C 0.4124 0.2916 0.21485 0.0
C471 C 0.43419 0.29858 0.0385 0.0
H472 H 0.41836 0.3804 0.51997 0.0
H473 H 0.43649 0.40136 0.62553 0.0
H474 H 0.51758 0.38426 0.60514 0.0
H475 H 0.49908 0.3622 0.49987 0.0
H476 H 0.46703 0.37275 0.20741 0.0
H477 H 0.46692 0.35915 0.09327 0.0
H478 H 0.39755 0.25879 0.1349 0.0
H479 H 0.39742 0.27247 0.24851 0.0
Dy480 Dy 0.33697 0.90005 0.13623 0.0
Dy481 Dy 0.37953 0.91899 0.26231 0.0
C482 C 0.40332 0.89376 0.14747 0.0
O483 O 0.32515 0.85322 0.18194 0.0
O484 O 0.32922 0.87281 0.28097 0.0
O485 O 0.31545 0.86754 0.0558 0.0
O486 O 0.3084 0.90888 0.06608 0.0
O487 O 0.34974 0.94221 0.27943 0.0
O488 O 0.30697 0.90718 0.21797 0.0
O489 O 0.40988 0.95721 0.18288 0.0
O490 O 0.36679 0.95325 0.12778 0.0
O491 O 0.41082 0.95453 0.33184 0.0
O492 O 0.39597 0.90368 0.34502 0.0
C493 C 0.31427 0.84824 0.2404 0.0
O494 O 0.38539 0.90159 0.11059 0.0
O495 O 0.39891 0.89168 0.2094 0.0
C496 C 0.31422 0.89365 0.95952 0.0
C497 C 0.33232 0.90847 0.82909 0.0
C498 C 0.32645 0.87877 0.85528 0.0
C499 C 0.31739 0.87138 0.91968 0.0
C500 C 0.3195 0.92321 0.93272 0.0
C501 C 0.32849 0.93054 0.86806 0.0
C502 C 0.30543 0.88566 1.02835 0.0
C503 C 0.31872 0.92768 0.2671 0.0
C504 C 0.39805 0.96821 0.13718 0.0
C505 C 0.39909 0.93336 0.43779 0.0
C506 C 0.37643 0.9302 0.56444 0.0
C507 C 0.3655 0.94248 0.51495 0.0
C508 C 0.37652 0.94379 0.45195 0.0
C509 C 0.41049 0.92179 0.48758 0.0
C510 C 0.39923 0.92017 0.55035 0.0
C511 C 0.40936 0.93241 0.3712 0.0
H512 H 0.32911 0.86136 0.82587 0.0
H513 H 0.31309 0.84826 0.93845 0.0
H514 H 0.31708 0.94085 0.96176 0.0
H515 H 0.33272 0.95352 0.84855 0.0
H516 H 0.34804 0.95048 0.52498 0.0
H517 H 0.36705 0.95251 0.41429 0.0
H518 H 0.42769 0.91343 0.47767 0.0
H519 H 0.40798 0.91068 0.58791 0.0
Dy520 Dy 0.12745 0.43851 0.13824 0.0
Dy521 Dy 0.11396 0.46812 0.26526 0.0
C522 C 0.14145 0.51502 0.1461 0.0
O523 O 0.17564 0.45695 0.18305 0.0
O524 O 0.16256 0.46767 0.28313 0.0
O525 O 0.15379 0.44153 0.05092 0.0
O526 O 0.10727 0.39888 0.07021 0.0
O527 O 0.09014 0.41558 0.28654 0.0
O528 O 0.12051 0.4027 0.2202 0.0
O529 O 0.07693 0.4628 0.18594 0.0
O530 O 0.07468 0.41752 0.15141 0.0
O531 O 0.07768 0.46443 0.33402 0.0
O532 O 0.12863 0.50001 0.34735 0.0
C533 C 0.18314 0.4646 0.24321 0.0
O534 O 0.13369 0.48879 0.11065 0.0
O535 O 0.14042 0.51311 0.20862 0.0
C536 C 0.11973 0.41602 0.96237 0.0
C537 C 0.10444 0.4237 0.83528 0.0
C538 C 0.09256 0.43394 0.88701 0.0
C539 C 0.10025 0.43021 0.95016 0.0
C540 C 0.1305 0.40468 0.91086 0.0
C541 C 0.12293 0.4085 0.84777 0.0
C542 C 0.13032 0.41441 1.02806 0.0
C543 C 0.10238 0.39703 0.27277 0.0
C544 C 0.06231 0.43656 0.14944 0.0
C545 C 0.09753 0.47351 0.44016 0.0
C546 C 0.09446 0.45329 0.56862 0.0
C547 C 0.11682 0.45221 0.52547 0.0
C548 C 0.11823 0.46204 0.46167 0.0
C549 C 0.07455 0.47373 0.48292 0.0
C550 C 0.07299 0.46366 0.54668 0.0
C551 C 0.09958 0.48498 0.37338 0.0
H552 H 0.07828 0.44574 0.87837 0.0
H553 H 0.09168 0.43912 0.98932 0.0
H554 H 0.14549 0.39362 0.91934 0.0
H555 H 0.13236 0.40052 0.80854 0.0
H556 H 0.13354 0.44424 0.54149 0.0
H557 H 0.13579 0.46109 0.42937 0.0
H558 H 0.05809 0.48209 0.4672 0.0
H559 H 0.05565 0.46472 0.57936 0.0
Dy560 Dy 0.59953 0.70659 0.14417 0.0
Dy561 Dy 0.57463 0.66554 0.27099 0.0
C562 C 0.52682 0.6422 0.16028 0.0
O563 O 0.57341 0.72933 0.18964 0.0
O564 O 0.5794 0.71594 0.29155 0.0
O565 O 0.5886 0.72645 0.06101 0.0
O566 O 0.63669 0.73207 0.07135 0.0
O567 O 0.62658 0.69415 0.29237 0.0
O568 O 0.63875 0.73574 0.22273 0.0
O569 O 0.58494 0.63517 0.19455 0.0
O570 O 0.624 0.67777 0.13957 0.0
O571 O 0.57666 0.63221 0.3393 0.0
O572 O 0.5418 0.64868 0.3526 0.0
C573 C 0.57378 0.73432 0.251 0.0
O574 O 0.55331 0.65641 0.12324 0.0
O575 O 0.52946 0.65339 0.21802 0.0
C576 C 0.61474 0.72289 0.96663 0.0
C577 C 0.61073 0.70284 0.83813 0.0
C578 C 0.58445 0.68555 0.88035 0.0
C579 C 0.58648 0.69534 0.94416 0.0
C580 C 0.64142 0.73959 0.92478 0.0
C581 C 0.63949 0.72957 0.86097 0.0
C582 C 0.61638 0.73462 1.03296 0.0
C583 C 0.64555 0.72411 0.27527 0.0
C584 C 0.60814 0.64668 0.14978 0.0
C585 C 0.5669 0.64291 0.4449 0.0
C586 C 0.5859 0.66233 0.57242 0.0
C587 C 0.60524 0.68171 0.52135 0.0
C588 C 0.59575 0.67212 0.45801 0.0
C589 C 0.54802 0.62316 0.49592 0.0
C590 C 0.55746 0.63281 0.55933 0.0
C591 C 0.55584 0.63374 0.37836 0.0
H592 H 0.56212 0.66484 0.86351 0.0
H593 H 0.56569 0.68168 0.97556 0.0
H594 H 0.66354 0.76069 0.94119 0.0
H595 H 0.66002 0.74316 0.82895 0.0
H596 H 0.6272 0.70461 0.53058 0.0
H597 H 0.61061 0.68779 0.41932 0.0
H598 H 0.52568 0.60061 0.48671 0.0
H599 H 0.54221 0.61764 0.59822 0.0
Dy600 Dy 0.33736 0.44804 0.13988 0.0
Dy601 Dy 0.37792 0.46979 0.26672 0.0
C602 C 0.39661 0.43694 0.14229 0.0
O603 O 0.3068 0.40834 0.21798 0.0
O604 O 0.3454 0.41906 0.29441 0.0
O605 O 0.30709 0.41185 0.07001 0.0
O606 O 0.32044 0.46211 0.05628 0.0
O607 O 0.32745 0.46584 0.28508 0.0
O608 O 0.32129 0.48007 0.18551 0.0
O609 O 0.39103 0.51529 0.21362 0.0
O610 O 0.38891 0.49222 0.11902 0.0
O611 O 0.39681 0.5037 0.34547 0.0
O612 O 0.40928 0.46564 0.33726 0.0
C613 C 0.31606 0.40081 0.27295 0.0
O614 O 0.36607 0.42386 0.12691 0.0
O615 O 0.40785 0.45784 0.19108 0.0
C616 C 0.31805 0.43247 0.9643 0.0
C617 C 0.33942 0.43664 0.83656 0.0
C618 C 0.3612 0.44309 0.88739 0.0
C619 C 0.35057 0.44098 0.95091 0.0
C620 C 0.29607 0.42499 0.91359 0.0
C621 C 0.30667 0.42701 0.85009 0.0
C622 C 0.30752 0.43335 1.0305 0.0
C623 C 0.31174 0.475 0.24491 0.0
C624 C 0.40307 0.51829 0.15626 0.0
C625 C 0.39944 0.47842 0.44126 0.0
C626 C 0.38093 0.46109 0.57028 0.0
C627 C 0.35824 0.45998 0.52568 0.0
C628 C 0.36734 0.46839 0.46158 0.0
C629 C 0.42192 0.47882 0.48559 0.0
C630 C 0.41272 0.47013 0.54971 0.0
C631 C 0.40937 0.48796 0.37393 0.0
H632 H 0.38658 0.45067 0.87779 0.0
H633 H 0.36791 0.44686 0.98948 0.0
H634 H 0.27093 0.41843 0.92304 0.0
H635 H 0.28961 0.42212 0.81142 0.0
H636 H 0.33361 0.45302 0.54074 0.0
H637 H 0.34943 0.46743 0.42805 0.0
H638 H 0.44666 0.48613 0.47074 0.0
H639 H 0.43053 0.47112 0.58356 0.0
Dy640 Dy 0.59907 0.90225 0.13795 0.0
Dy641 Dy 0.57972 0.92876 0.26483 0.0
C642 C 0.60636 0.97169 0.12996 0.0
O643 O 0.63547 0.90966 0.2203 0.0
O644 O 0.63318 0.95098 0.26999 0.0
O645 O 0.63699 0.90938 0.06967 0.0
O646 O 0.58747 0.87044 0.05623 0.0
O647 O 0.57533 0.87866 0.28822 0.0
O648 O 0.57236 0.85581 0.19004 0.0
O649 O 0.53295 0.90942 0.21406 0.0
O650 O 0.54926 0.89877 0.11701 0.0
O651 O 0.54896 0.91965 0.34822 0.0
O652 O 0.59254 0.96631 0.33674 0.0
C653 C 0.64676 0.93306 0.26449 0.0
O654 O 0.61988 0.9543 0.11651 0.0
O655 O 0.58772 0.96525 0.18242 0.0
C656 C 0.61748 0.89802 0.96263 0.0
C657 C 0.61953 0.91604 0.83251 0.0
C658 C 0.59267 0.9098 0.87142 0.0
C659 C 0.59165 0.90089 0.93588 0.0
C660 C 0.64464 0.90498 0.9239 0.0
C661 C 0.64563 0.91386 0.85942 0.0
C662 C 0.61631 0.88761 1.03028 0.0
C663 C 0.56983 0.85327 0.25221 0.0
C664 C 0.52731 0.90095 0.15395 0.0
C665 C 0.57926 0.94467 0.44298 0.0
C666 C 0.60274 0.93924 0.56644 0.0
C667 C 0.57525 0.91271 0.53772 0.0
C668 C 0.56423 0.91514 0.47685 0.0
C669 C 0.60362 0.97222 0.47423 0.0
C670 C 0.61449 0.96977 0.5355 0.0
C671 C 0.56945 0.94687 0.37602 0.0
H672 H 0.57225 0.91124 0.85156 0.0
H673 H 0.57044 0.89584 0.96453 0.0
H674 H 0.66491 0.90312 0.94331 0.0
H675 H 0.6665 0.91842 0.83012 0.0
H676 H 0.56188 0.88951 0.56185 0.0
H677 H 0.54407 0.89361 0.45616 0.0
H678 H 0.61434 0.99585 0.45125 0.0
H679 H 0.63161 0.99238 0.55742 0.0
Dy680 Dy 0.13822 0.70181 0.1315 0.0
Dy681 Dy 0.11852 0.65938 0.25894 0.0
C682 C 0.06863 0.64071 0.13637 0.0
O683 O 0.13074 0.73137 0.21335 0.0
O684 O 0.09368 0.68784 0.26938 0.0
O685 O 0.12853 0.73086 0.06408 0.0
O686 O 0.1692 0.72291 0.04826 0.0
O687 O 0.16508 0.70953 0.27658 0.0
O688 O 0.18548 0.71499 0.17689 0.0
O689 O 0.14339 0.63783 0.20417 0.0
O690 O 0.13662 0.65367 0.10447 0.0
O691 O 0.1331 0.64402 0.34423 0.0
O692 O 0.08231 0.62927 0.32959 0.0
C693 C 0.10901 0.71911 0.26072 0.0
O694 O 0.08534 0.67152 0.12314 0.0
O695 O 0.07912 0.62885 0.18277 0.0
C696 C 0.13971 0.72297 0.95713 0.0
C697 C 0.12247 0.70407 0.82837 0.0
C698 C 0.11849 0.68098 0.87496 0.0
C699 C 0.12691 0.69031 0.93888 0.0
C700 C 0.14252 0.74582 0.91103 0.0
C701 C 0.13392 0.73645 0.84708 0.0
C702 C 0.15071 0.73329 1.02362 0.0
C703 C 0.18998 0.72476 0.236 0.0
C704 C 0.143 0.63473 0.1418 0.0
C705 C 0.10217 0.64172 0.43539 0.0
C706 C 0.10259 0.66296 0.56202 0.0
C707 C 0.11354 0.68528 0.5109 0.0
C708 C 0.11321 0.67472 0.448 0.0
C709 C 0.09023 0.61929 0.48616 0.0
C710 C 0.09044 0.62983 0.54905 0.0
C711 C 0.10402 0.63082 0.36995 0.0
H712 H 0.10973 0.65591 0.86147 0.0
H713 H 0.12414 0.67216 0.97381 0.0
H714 H 0.15202 0.77105 0.9242 0.0
H715 H 0.1372 0.75461 0.81178 0.0
H716 H 0.12315 0.71095 0.51995 0.0
H717 H 0.12231 0.69241 0.4094 0.0
H718 H 0.08146 0.59374 0.47736 0.0
H719 H 0.08211 0.6123 0.58787 0.0
C720 C 0.11468 0.37192 0.37066 0.0
C721 C 0.09365 0.3691 0.31884 0.0
C722 C 0.04832 0.32404 0.37768 0.0
C723 C 0.07003 0.32382 0.42456 0.0
N724 N 0.1254 0.3452 0.45952 0.0
N725 N 0.04115 0.33816 0.26942 0.0
C726 C 0.1037 0.3471 0.41924 0.0
C727 C 0.06072 0.34366 0.32131 0.0
N728 N 0.14457 0.39907 0.37572 0.0
N729 N 1.0155 0.30638 0.38866 0.0
H730 H 0.04958 0.35189 0.2274 0.0
H731 H 1.01769 0.31825 0.26599 0.0
H732 H 1.00601 0.29438 0.43207 0.0
H733 H 0.99812 0.30681 0.35871 0.0
H734 H 0.1595 0.40412 0.41566 0.0
H735 H 0.15317 0.41782 0.34237 0.0
H736 H 0.15061 0.35911 0.45342 0.0
H737 H 0.11803 0.32811 0.49648 0.0
C738 C 0.70681 0.72981 0.39376 0.0
C739 C 0.71651 0.75853 0.4307 0.0
C740 C 0.67768 0.76672 0.36357 0.0
C741 C 0.67487 0.74252 0.31891 0.0
N742 N 0.69536 0.70718 0.28736 0.0
N743 N 0.71028 0.80598 0.44543 0.0
C744 C 0.69281 0.72664 0.33242 0.0
C745 C 0.70192 0.77776 0.41384 0.0
N746 N 0.70885 0.70425 0.41881 0.0
N747 N 0.65567 0.77735 0.36161 0.0
H748 H 0.72617 0.81416 0.48407 0.0
H749 H 0.70275 0.8222 0.43035 0.0
H750 H 0.63649 0.76784 0.32927 0.0
H751 H 0.65446 0.79262 0.39613 0.0
H752 H 0.70007 0.68218 0.39475 0.0
H753 H 0.71482 0.70361 0.46669 0.0
H754 H 0.70951 0.6961 0.29415 0.0
H755 H 0.68643 0.70564 0.24112 0.0
C756 C 0.28184 0.93421 0.42634 0.0
C757 C 0.28032 0.96322 0.41718 0.0
C758 C 0.29735 0.96444 0.3039 0.0
C759 C 0.29815 0.93526 0.3122 0.0
N760 N 0.28237 0.88778 0.37694 0.0
N761 N 0.27447 0.99739 0.33833 0.0
C762 C 0.28746 0.91865 0.37213 0.0
C763 C 0.28446 0.97572 0.35333 0.0
N764 N 0.2796 0.9223 0.48682 0.0
N765 N 0.31021 0.98245 0.24952 0.0
H766 H 0.26366 1.00556 0.37134 0.0
H767 H 0.27302 1.00372 0.29122 0.0
H768 H 0.31807 0.97428 0.21048 0.0
H769 H 0.31484 1.00629 0.24531 0.0
H770 H 0.28386 0.90325 0.49747 0.0
H771 H 0.27598 0.9331 0.52717 0.0
H772 H 0.27244 0.87318 0.41737 0.0
H773 H 0.28438 0.87557 0.33721 0.0
C774 C 0.35634 0.11055 0.68007 0.0
C775 C 0.34746 0.0799 0.65069 0.0
C776 C 0.37183 0.06711 0.74227 0.0
C777 C 0.38374 0.09834 0.77033 0.0
N778 N 0.37924 0.14684 0.77264 0.0
N779 N 0.36257 0.03824 0.64298 0.0
C780 C 0.37402 0.11954 0.74073 0.0
C781 C 0.36032 0.06129 0.67845 0.0
N782 N 0.34977 0.13184 0.64845 0.0
N783 N 0.36927 0.04178 0.77805 0.0
H784 H 0.35719 0.03516 0.59412 0.0
H785 H 0.37378 0.02552 0.66024 0.0
H786 H 0.37305 0.04352 0.8275 0.0
H787 H 0.35877 0.01811 0.76033 0.0
H788 H 0.35774 0.15558 0.6631 0.0
H789 H 0.33865 0.1268 0.60381 0.0
H790 H 0.37078 0.16224 0.75752 0.0
H791 H 0.38942 0.15263 0.81812 0.0
C792 C 0.93883 0.26552 0.75036 0.0
C793 C 0.94206 0.29665 0.73977 0.0
C794 C 0.965 0.29717 0.63171 0.0
C795 C 0.95993 0.26531 0.64083 0.0
N796 N 0.93058 0.21561 0.70096 0.0
N797 N 0.94509 0.3339 0.65699 0.0
C798 C 0.94319 0.24842 0.69778 0.0
C799 C 0.95126 0.31003 0.67647 0.0
N800 N 0.93326 0.25262 0.81061 0.0
N801 N 0.98392 0.31608 0.58223 0.0
H802 H 0.93143 0.34122 0.68454 0.0
H803 H 0.94924 0.34263 0.61007 0.0
H804 H 0.99485 0.30829 0.54854 0.0
H805 H 0.99106 0.34067 0.57826 0.0
H806 H 0.93388 0.23144 0.82137 0.0
H807 H 0.9314 0.26465 0.85078 0.0
H808 H 0.91588 0.20147 0.7388 0.0
H809 H 0.93147 0.20242 0.66168 0.0
C810 C 0.79451 0.70286 0.70307 0.0
C811 C 0.7728 0.70177 0.65403 0.0
C812 C 0.72774 0.66933 0.72837 0.0
C813 C 0.74794 0.66334 0.77071 0.0
N814 N 0.8035 0.67825 0.79763 0.0
N815 N 0.71695 0.67606 0.6184 0.0
C816 C 0.78223 0.68073 0.75718 0.0
C817 C 0.73894 0.68168 0.6658 0.0
N818 N 0.82619 0.72715 0.70208 0.0
N819 N 0.69949 0.6675 0.7498 0.0
H820 H 0.72413 0.68502 0.57195 0.0
H821 H 0.692 0.65998 0.62446 0.0
H822 H 0.69355 0.66592 0.79837 0.0
H823 H 0.68548 0.67384 0.72101 0.0
H824 H 0.84252 0.73151 0.73925 0.0
H825 H 0.83495 0.74518 0.66733 0.0
H826 H 0.82795 0.68696 0.78584 0.0
H827 H 0.79672 0.66708 0.84232 0.0
C828 C 0.94837 0.68366 0.63465 0.0
C829 C 0.9749 0.71458 0.65047 0.0
C830 C 0.97495 0.69382 0.75993 0.0
C831 C 0.94704 0.66344 0.74608 0.0
N832 N 0.90296 0.63264 0.67144 0.0
N833 N 1.00578 0.75105 0.73635 0.0
C834 C 0.93239 0.65951 0.68391 0.0
C835 C 0.98568 0.72017 0.71555 0.0
N836 N 0.93949 0.6764 0.57198 0.0
N837 N 0.99329 0.69733 0.81288 0.0
H838 H 1.01421 0.77127 0.70671 0.0
H839 H 1.01071 0.75662 0.78476 0.0
H840 H 0.98715 0.67921 0.84694 0.0
H841 H 1.01645 0.71741 0.81946 0.0
H842 H 0.92332 0.65299 0.55608 0.0
H843 H 0.95035 0.69327 0.53499 0.0
H844 H 0.88952 0.6302 0.63027 0.0
H845 H 0.89038 0.61405 0.70449 0.0
C846 C 0.32634 0.26381 0.7172 0.0
C847 C 0.33465 0.26664 0.65026 0.0
C848 C 0.39278 0.29446 0.68211 0.0
C849 C 0.38417 0.29065 0.74894 0.0
N850 N 0.34213 0.26413 0.82827 0.0
N851 N 0.37629 0.2792 0.57089 0.0
C852 C 0.35078 0.27259 0.76564 0.0
C853 C 0.36803 0.2798 0.63353 0.0
N854 N 0.2951 0.2542 0.73547 0.0
N855 N 0.4247 0.31333 0.66452 0.0
H856 H 0.35909 0.2701 0.53429 0.0
H857 H 0.39965 0.28515 0.55572 0.0
H858 H 0.4435 0.32419 0.69747 0.0
H859 H 0.43251 0.31978 0.61743 0.0
H860 H 0.28893 0.25695 0.78208 0.0
H861 H 0.27584 0.24581 0.70357 0.0
H862 H 0.31837 0.24777 0.84292 0.0
H863 H 0.35921 0.27098 0.86495 0.0
C864 C 0.76643 0.07711 0.76076 0.0
C865 C 0.75793 0.10102 0.74463 0.0
C866 C 0.77208 0.09715 0.63017 0.0
C867 C 0.7814 0.07385 0.64704 0.0
N868 N 0.7927 0.04611 0.73161 0.0
N869 N 0.75419 0.13518 0.6632 0.0
C870 C 0.78014 0.06532 0.71329 0.0
C871 C 0.76154 0.11158 0.67908 0.0
N872 N 0.75904 0.0636 0.82066 0.0
N873 N 0.7712 0.10391 0.56674 0.0
H874 H 0.7442 0.14444 0.69578 0.0
H875 H 0.75959 0.14704 0.61916 0.0
H876 H 0.77894 0.09418 0.53035 0.0
H877 H 0.76135 0.11771 0.54924 0.0
H878 H 0.75862 0.042 0.83213 0.0
H879 H 0.75066 0.07247 0.8576 0.0
H880 H 0.79639 0.04236 0.7792 0.0
H881 H 0.80227 0.03626 0.69942 0.0
C882 C 0.66315 0.93283 0.3818 0.0
C883 C 0.67212 0.93796 0.31513 0.0
C884 C 0.7299 0.96164 0.3478 0.0
C885 C 0.72105 0.95832 0.41435 0.0
N886 N 0.67922 0.94246 0.49426 0.0
N887 N 0.71457 0.96005 0.23572 0.0
C888 C 0.68757 0.94371 0.43105 0.0
C889 C 0.70565 0.9526 0.29857 0.0
N890 N 0.63093 0.91752 0.39849 0.0
N891 N 0.76189 0.97355 0.33143 0.0
H892 H 0.69769 0.95281 0.19856 0.0
H893 H 0.73842 0.97521 0.2204 0.0
H894 H 0.78045 0.98186 0.36501 0.0
H895 H 0.77 0.97318 0.28525 0.0
H896 H 0.62211 0.90803 0.44382 0.0
H897 H 0.61258 0.91258 0.36587 0.0
H898 H 0.65606 0.93649 0.51042 0.0
H899 H 0.69608 0.94914 0.53133 0.0
C900 C 0.11799 0.77964 0.39821 0.0
C901 C 0.08646 0.76142 0.42721 0.0
C902 C 0.07001 0.72324 0.33681 0.0
C903 C 0.10206 0.73852 0.31069 0.0
N904 N 0.15869 0.77921 0.32638 0.0
N905 N 0.03867 0.70814 0.43474 0.0
C906 C 0.12677 0.76627 0.34407 0.0
C907 C 0.06467 0.73069 0.39992 0.0
N908 N 0.13948 0.80966 0.42126 0.0
N909 N 0.04413 0.70186 0.30078 0.0
H910 H 0.03511 0.7119 0.48275 0.0
H911 H 0.02332 0.68459 0.41813 0.0
H912 H 0.04664 0.69737 0.2527 0.0
H913 H 0.02002 0.69192 0.3166 0.0
H914 H 0.16123 0.82555 0.39792 0.0
H915 H 0.13479 0.81932 0.4621 0.0
H916 H 0.17795 0.79677 0.35316 0.0
H917 H 0.1661 0.77083 0.28735 0.0
C918 C 0.28676 0.34049 0.30171 0.0
C919 C 0.29395 0.37247 0.31658 0.0
C920 C 0.28087 0.3557 0.43128 0.0
C921 C 0.27288 0.32335 0.41616 0.0
N922 N 0.25898 0.2838 0.33168 0.0
N923 N 0.28794 0.40726 0.3928 0.0
C924 C 0.27304 0.3155 0.34979 0.0
C925 C 0.28784 0.37895 0.38063 0.0
N926 N 0.2945 0.33405 0.24235 0.0
N927 N 0.28364 0.36498 0.49394 0.0
H928 H 0.29042 0.4232 0.35612 0.0
H929 H 0.28142 0.41274 0.43689 0.0
H930 H 0.27892 0.34893 0.53193 0.0
H931 H 0.29318 0.38909 0.50808 0.0
H932 H 0.29411 0.31242 0.23118 0.0
H933 H 0.30328 0.35121 0.20543 0.0
H934 H 0.25446 0.27673 0.28389 0.0
H935 H 0.24839 0.26466 0.36417 0.0
C936 C 1.0141 0.443 1.00099 0.0
C937 C 1.00411 0.4117 0.97325 0.0
C938 C 0.02196 0.39694 0.07157 0.0
C939 C 0.03676 0.4289 0.09673 0.0
N940 N 0.04478 0.48305 0.08457 0.0
N941 N 1.01652 0.36786 0.97446 0.0
C942 C 0.03224 0.4523 0.06115 0.0
C943 C 1.01371 0.39157 1.00615 0.0
N944 N 1.00696 0.46403 0.97001 0.0
N945 N 1.01524 0.37113 0.11029 0.0
H946 H 1.01492 0.3657 0.92462 0.0
H947 H 0.02495 0.35375 0.99699 0.0
H948 H 1.01837 0.37357 0.15986 0.0
H949 H 1.00269 0.34722 0.09367 0.0
H950 H 1.01038 0.48565 0.98961 0.0
H951 H 0.99732 0.45988 0.92409 0.0
H952 H 0.04544 0.50223 0.05917 0.0
H953 H 0.05492 0.48966 0.12997 0.0
C954 C 0.65745 0.63615 1.02127 0.0
C955 C 0.63645 0.6066 0.98928 0.0
C956 C 0.59307 0.59997 0.0665 0.0
C957 C 0.61651 0.62679 0.10378 0.0
N958 N 0.67375 0.66131 0.12474 0.0
N959 N 0.5834 0.55832 0.98679 0.0
C960 C 0.64954 0.64176 0.08364 0.0
C961 C 0.60387 0.5878 1.01334 0.0
N962 N 0.68511 0.6594 0.99167 0.0
N963 N 0.56064 0.58671 0.07997 0.0
H964 H 0.59 0.54943 0.94719 0.0
H965 H 0.56071 0.54203 1.00643 0.0
H966 H 0.55202 0.59399 0.11891 0.0
H967 H 0.54236 0.56976 0.05045 0.0
H968 H 0.6999 0.68221 1.01197 0.0
H969 H 0.69074 0.65717 0.94413 0.0
H970 H 0.69846 0.67133 0.11338 0.0
H971 H 0.66874 0.66361 0.17255 0.0
C972 C 0.42395 0.01357 0.97476 0.0
C973 C 0.44608 0.0459 0.99309 0.0
C974 C 0.44016 0.02719 0.10704 0.0
C975 C 0.41861 0.99458 0.08818 0.0
N976 N 0.39441 0.95639 1.0007 0.0
N977 N 0.47728 0.0835 0.07695 0.0
C978 C 0.41202 0.98781 1.02108 0.0
C979 C 0.45493 0.05255 0.05934 0.0
N980 N 0.41193 1.00764 0.91375 0.0
N981 N 0.44472 0.03436 0.17094 0.0
H982 H 0.48691 0.10294 0.04499 0.0
H983 H 0.48791 0.08982 0.12204 0.0
H984 H 0.43472 0.01662 0.20661 0.0
H985 H 0.45676 0.05783 0.18932 0.0
H986 H 0.39122 0.98619 0.90054 0.0
H987 H 0.42081 0.02514 0.8775 0.0
H988 H 0.39288 0.94961 0.95287 0.0
H989 H 0.3835 0.93659 1.03142 0.0
C990 C 0.61696 0.01363 0.96549 0.0
C991 C 0.63979 0.0465 0.97982 0.0
C992 C 0.63628 0.03114 0.0954 0.0
C993 C 0.61307 0.99845 0.08151 0.0
N994 N 0.5784 0.95925 1.00295 0.0
N995 N 0.66672 0.08735 0.06143 0.0
C996 C 0.60244 0.99009 1.01642 0.0
C997 C 0.64795 0.05536 0.04569 0.0
N998 N 0.61084 1.00432 0.90274 0.0
N999 N 0.64926 0.03877 0.1555 0.0
H1000 H 0.67698 0.10583 1.02756 0.0
H1001 H 0.66974 0.09588 0.10822 0.0
H1002 H 0.64036 0.02248 0.19386 0.0
H1003 H 0.6704 0.06037 0.16609 0.0
H1004 H 0.59806 0.98023 0.88775 0.0
H1005 H 0.62045 0.02076 0.86474 0.0
H1006 H 0.56635 0.95222 0.95924 0.0
H1007 H 0.56872 0.94099 0.03727 0.0
C1008 C 0.03111 0.59049 0.06493 0.0
C1009 C 0.0398 0.62156 0.09125 0.0
C1010 C 1.0122 0.63128 1.00022 0.0
C1011 C 1.00292 0.60042 0.97374 0.0
N1012 N 0.99968 0.54849 0.98532 0.0
N1013 N 0.02439 0.663 0.09719 0.0
C1014 C 1.0113 0.57938 1.00765 0.0
C1015 C 0.02596 0.63929 0.06267 0.0
N1016 N 0.0411 0.57135 0.09485 0.0
N1017 N 1.00757 0.65314 0.96577 0.0
H1018 H 0.03185 0.66772 0.1449 0.0
H1019 H 1.01202 0.67481 0.08146 0.0
H1020 H 0.99787 0.64809 0.91971 0.0
H1021 H 1.01637 0.67712 0.98028 0.0
H1022 H 0.03782 0.54955 0.07651 0.0
H1023 H 0.05282 0.57719 0.13888 0.0
H1024 H 1.0012 0.53029 1.01016 0.0
H1025 H 0.98709 0.54068 0.94209 0.0
C1026 C 0.40067 0.39493 0.07803 0.0
C1027 C 0.41652 0.42775 0.09775 0.0
C1028 C 0.45396 0.43966 1.00341 0.0
C1029 C 0.43438 0.40702 0.98018 0.0
N1030 N 0.37916 0.36159 0.98488 0.0
N1031 N 0.45697 0.48297 0.07242 0.0
C1032 C 0.40488 0.38698 1.01456 0.0
C1033 C 0.44304 0.45067 0.05865 0.0
N1034 N 0.38007 0.37107 0.11913 0.0
N1035 N 0.4825 0.46041 0.97316 0.0
H1036 H 0.4507 0.49142 0.11315 0.0
H1037 H 0.47344 0.50129 0.04207 0.0
H1038 H 0.49023 0.45458 0.93104 0.0
H1039 H 0.49925 0.48307 0.99153 0.0
H1040 H 0.36984 0.34649 0.10781 0.0
H1041 H 0.37647 0.37601 0.16633 0.0
H1042 H 0.35649 0.3482 1.00731 0.0
H1043 H 0.379 0.35748 0.93569 0.0
C1044 C 0.12148 0.24053 0.43226 0.0
C1045 C 0.09507 0.21735 0.4703 0.0
C1046 C 0.12735 0.19038 0.49287 0.0
C1047 C 0.1558 0.21712 0.46628 0.0
N1048 N 0.17976 0.26821 0.40955 0.0
N1049 N 0.07366 0.17078 0.5402 0.0
C1050 C 0.15265 0.24201 0.43428 0.0
C1051 C 0.09801 0.19202 0.50048 0.0
N1052 N 0.11676 0.26146 0.39478 0.0
N1053 N 0.12868 0.16343 0.51153 0.0
H1054 H 0.05211 0.17143 0.5471 0.0
H1055 H 0.07576 0.15414 0.56957 0.0
H1056 H 0.14971 0.16165 0.50532 0.0
H1057 H 0.10832 0.14193 0.52655 0.0
H1058 H 0.13386 0.27732 0.36175 0.0
H1059 H 0.09426 0.26061 0.39246 0.0
H1060 H 0.18018 0.28919 0.39329 0.0
H1061 H 0.20244 0.26957 0.40802 0.0
C1062 C 0.85285 0.93859 0.47714 0.0
C1063 C 0.82418 0.93904 0.45858 0.0
C1064 C 0.80003 0.88118 0.42716 0.0
C1065 C 0.82542 0.87912 0.45924 0.0
N1066 N 0.87799 0.90665 0.5096 0.0
N1067 N 0.77015 0.91041 0.41419 0.0
C1068 C 0.8527 0.90828 0.48169 0.0
C1069 C 0.79797 0.91038 0.43163 0.0
N1070 N 0.88021 0.96739 0.49053 0.0
N1071 N 0.7777 0.85511 0.39299 0.0
H1072 H 0.7683 0.9314 0.4154 0.0
H1073 H 0.7486 0.88953 0.40179 0.0
H1074 H 0.77866 0.83365 0.38933 0.0
H1075 H 0.76035 0.85588 0.36348 0.0
H1076 H 0.90286 0.96966 0.50029 0.0
H1077 H 0.88071 0.98956 0.48545 0.0
H1078 H 0.89687 0.92585 0.53411 0.0
H1079 H 0.87941 0.88534 0.50965 0.0
C1080 C 0.10905 0.91993 0.4923 0.0
C1081 C 0.10794 0.89167 0.46614 0.0
C1082 C 0.16545 0.92522 0.43145 0.0
C1083 C 0.16739 0.95275 0.46318 0.0
N1084 N 0.1386 0.97896 0.50259 0.0
N1085 N 0.13138 0.86988 0.39247 0.0
C1086 C 0.1382 0.95084 0.48653 0.0
C1087 C 0.13492 0.89521 0.42929 0.0
N1088 N 0.08239 0.91694 0.52447 0.0
N1089 N 0.19315 0.92717 0.40657 0.0
H1090 H 0.10944 0.84794 0.39017 0.0
H1091 H 0.14895 0.87158 0.3599 0.0
H1092 H 0.21496 0.9491 0.40343 0.0
H1093 H 0.19475 0.90715 0.39079 0.0
H1094 H 0.08254 0.93547 0.55155 0.0
H1095 H 0.06013 0.89522 0.52551 0.0
H1096 H 0.11799 0.9802 0.51611 0.0
H1097 H 0.15941 1.00157 0.49541 0.0
C1098 C 0.20461 0.12043 0.59821 0.0
C1099 C 0.23201 0.15017 0.61749 0.0
C1100 C 0.25906 0.11925 0.65153 0.0
C1101 C 0.23527 0.0915 0.61835 0.0
N1102 N 0.18241 0.0634 0.56995 0.0
N1103 N 0.28495 0.17763 0.66712 0.0
C1104 C 0.20687 0.09138 0.59557 0.0
C1105 C 0.25877 0.14935 0.64711 0.0
N1106 N 0.17647 0.12028 0.58241 0.0
N1107 N 0.2819 0.1168 0.68719 0.0
H1108 H 0.2848 0.19948 0.66755 0.0
H1109 H 0.30707 0.17966 0.68089 0.0
H1110 H 0.28242 0.09513 0.69118 0.0
H1111 H 0.29806 0.13507 0.71767 0.0
H1112 H 0.15466 0.09943 0.57132 0.0
H1113 H 0.17436 0.14116 0.58591 0.0
H1114 H 0.16254 0.06183 0.5454 0.0
H1115 H 0.18251 0.04146 0.57322 0.0
C1116 C 0.90363 0.10539 0.65478 0.0
C1117 C 0.89937 0.08031 0.61149 0.0
C1118 C 0.95525 0.11571 0.5706 0.0
C1119 C 0.95877 0.14147 0.61069 0.0
N1120 N 0.94178 0.1562 0.70725 0.0
N1121 N 0.92605 0.05769 0.549 0.0
C1122 C 0.93478 0.1346 0.65859 0.0
C1123 C 0.92712 0.08422 0.57696 0.0
N1124 N 0.87763 0.10253 0.68884 0.0
N1125 N 0.97775 0.1218 0.52349 0.0
H1126 H 0.90588 0.03449 0.55482 0.0
H1127 H 0.94612 0.05818 0.52678 0.0
H1128 H 0.99862 0.14445 0.51789 0.0
H1129 H 0.97465 0.10509 0.48792 0.0
H1130 H 0.87824 0.12156 0.71502 0.0
H1131 H 0.85499 0.08148 0.68832 0.0
H1132 H 0.92651 0.15159 0.74681 0.0
H1133 H 0.96447 0.17737 0.71039 0.0
C1134 C 0.95907 0.84442 0.61388 0.0
C1135 C 0.96352 0.81704 0.62228 0.0
C1136 C 0.90449 0.78141 0.61402 0.0
C1137 C 0.89909 0.8084 0.60899 0.0
N1138 N 0.92186 0.86636 0.61592 0.0
N1139 N 0.93857 0.76162 0.65841 0.0
C1140 C 0.92664 0.84022 0.61366 0.0
C1141 C 0.93554 0.78642 0.63282 0.0
N1142 N 0.98584 0.87422 0.60379 0.0
N1143 N 0.88146 0.75128 0.59417 0.0
H1144 H 0.96075 0.7654 0.67616 0.0
H1145 H 0.91848 0.73907 0.66971 0.0
H1146 H 0.85999 0.747 0.57238 0.0
H1147 H 0.88565 0.73164 0.59204 0.0
H1148 H 0.98453 0.89469 0.59013 0.0
H1149 H 1.00952 0.87789 0.60703 0.0
H1150 H 0.94056 0.89004 0.6239 0.0
H1151 H 0.89857 0.8638 0.61502 0.0
C1152 C 0.82414 0.5894 0.78333 0.0
C1153 C 0.82712 0.56118 0.7935 0.0
C1154 C 0.76685 0.52847 0.79753 0.0
C1155 C 0.76433 0.55694 0.78822 0.0
N1156 N 0.79041 0.6112 0.7452 0.0
N1157 N 0.80081 0.50287 0.79396 0.0
C1158 C 0.7929 0.58618 0.77149 0.0
C1159 C 0.79821 0.5303 0.79445 0.0
N1160 N 0.8507 0.61968 0.7898 0.0
N1161 N 0.73924 0.49987 0.81141 0.0
H1162 H 0.82338 0.50388 0.79122 0.0
H1163 H 0.78089 0.47949 0.79029 0.0
H1164 H 0.71611 0.49766 0.80977 0.0
H1165 H 0.73933 0.47892 0.82626 0.0
H1166 H 0.8491 0.64086 0.78979 0.0
H1167 H 0.87385 0.62353 0.80074 0.0
H1168 H 0.81049 0.63185 0.72631 0.0
H1169 H 0.76801 0.60942 0.73481 0.0
C1170 C 0.46471 0.2526 0.76367 0.0
C1171 C 0.49031 0.28136 0.79166 0.0
C1172 C 0.51991 0.25158 0.814 0.0
C1173 C 0.49284 0.22207 0.79203 0.0
N1174 N 0.44578 0.19785 0.72363 0.0
N1175 N 0.54625 0.31062 0.82388 0.0
C1176 C 0.46738 0.22373 0.75919 0.0
C1177 C 0.5193 0.28153 0.81018 0.0
N1178 N 0.43689 0.25221 0.7449 0.0
N1179 N 0.54589 0.2506 0.84022 0.0
H1180 H 0.54621 0.33252 0.81873 0.0
H1181 H 0.56908 0.31346 0.83404 0.0
H1182 H 0.54802 0.2297 0.8386 0.0
H1183 H 0.56479 0.26994 0.86438 0.0
H1184 H 0.41553 0.23116 0.7323 0.0
H1185 H 0.43496 0.27312 0.74471 0.0
H1186 H 0.42858 0.19858 0.6936 0.0
H1187 H 0.44733 0.17678 0.71871 0.0
C1188 C 0.76928 0.24933 0.79453 0.0
C1189 C 0.77184 0.22102 0.7842 0.0
C1190 C 0.83009 0.25656 0.75586 0.0
C1191 C 0.82907 0.28405 0.77977 0.0
N1192 N 0.79713 0.30768 0.81551 0.0
N1193 N 0.806 0.19799 0.75829 0.0
C1194 C 0.79827 0.28073 0.79625 0.0
C1195 C 0.8025 0.22477 0.76446 0.0
N1196 N 0.73907 0.24596 0.80381 0.0
N1197 N 0.85765 0.26084 0.72565 0.0
H1198 H 0.7866 0.17455 0.76444 0.0
H1199 H 0.82843 0.19909 0.75174 0.0
H1200 H 0.87739 0.28389 0.71675 0.0
H1201 H 0.85938 0.24217 0.70289 0.0
H1202 H 0.73474 0.2654 0.80767 0.0
H1203 H 0.71783 0.2233 0.80237 0.0
H1204 H 0.77662 0.30713 0.83549 0.0
H1205 H 0.81752 0.33088 0.81211 0.0
C1206 C 0.86459 0.45376 0.90483 0.0
C1207 C 0.8881 0.48122 0.939 0.0
C1208 C 0.91265 0.44893 0.97819 0.0
C1209 C 0.89176 0.42293 0.93701 0.0
N1210 N 0.8404 0.39594 0.88253 0.0
N1211 N 0.92636 0.50146 1.02524 0.0
C1212 C 0.86515 0.4239 0.90759 0.0
C1213 C 0.90929 0.47746 0.98183 0.0
N1214 N 0.84267 0.45689 0.86734 0.0
N1215 N 0.93665 0.44715 1.01109 0.0
H1216 H 0.92353 0.5219 1.02863 0.0
H1217 H 0.94066 0.49989 0.06133 0.0
H1218 H 0.93901 0.42644 1.01137 0.0
H1219 H 0.95466 0.46632 0.03716 0.0
H1220 H 0.82731 0.43939 0.83474 0.0
H1221 H 0.84067 0.47787 0.86821 0.0
H1222 H 0.81905 0.39395 0.86394 0.0
H1223 H 0.84005 0.37381 0.88667 0.0
C1224 C 0.5874 0.42409 0.91469 0.0
C1225 C 0.55926 0.42246 0.94322 0.0
C1226 C 0.59406 0.47853 0.98357 0.0
C1227 C 0.61989 0.48226 0.94254 0.0
N1228 N 0.64302 0.45753 0.87546 0.0
N1229 N 0.53663 0.44594 1.01477 0.0
C1230 C 0.61722 0.45445 0.91096 0.0
C1231 C 0.56303 0.44885 0.98191 0.0
N1232 N 0.58534 0.39613 0.89174 0.0
N1233 N 0.59918 0.50359 1.02305 0.0
H1234 H 0.51435 0.42432 1.01601 0.0
H1235 H 0.53646 0.46467 0.0404 0.0
H1236 H 0.62145 0.52523 1.02454 0.0
H1237 H 0.58256 0.50242 0.05732 0.0
H1238 H 0.6051 0.39446 0.87399 0.0
H1239 H 0.56402 0.37372 0.89676 0.0
H1240 H 0.64182 0.43971 0.84462 0.0
H1241 H 0.66575 0.47872 0.87581 0.0
C1242 C 0.62538 0.1789 0.92006 0.0
C1243 C 0.62771 0.1512 0.9388 0.0
C1244 C 0.56848 0.12216 0.96283 0.0
C1245 C 0.56573 0.1492 0.94088 0.0
N1246 N 0.59269 0.20584 0.91383 0.0
N1247 N 0.60318 0.10024 0.99531 0.0
C1248 C 0.59472 0.17848 0.92488 0.0
C1249 C 0.59983 0.12426 0.96651 0.0
N1250 N 0.65243 0.20523 0.89533 0.0
N1251 N 0.54081 0.09354 0.97601 0.0
H1252 H 0.62557 0.10112 0.99818 0.0
H1253 H 0.58478 0.08134 1.02173 0.0
H1254 H 0.51786 0.09146 0.97542 0.0
H1255 H 0.54031 0.07159 0.98384 0.0
H1256 H 0.65216 0.22485 0.87349 0.0
H1257 H 0.67534 0.20688 0.89527 0.0
H1258 H 0.61282 0.22878 0.90625 0.0
H1259 H 0.57066 0.20591 0.9179 0.0
C1260 C 0.46646 0.86544 0.13796 0.0
C1261 C 0.49521 0.8959 0.12843 0.0
C1262 C 0.46055 0.9198 0.10086 0.0
C1263 C 0.43238 0.89141 0.12325 0.0
N1264 N 0.40775 0.83583 0.15821 0.0
N1265 N 0.5193 0.95304 0.10451 0.0
C1266 C 0.43514 0.86364 0.13936 0.0
C1267 C 0.4921 0.92316 0.10962 0.0
N1268 N 0.46934 0.83839 0.14679 0.0
N1269 N 0.45738 0.94392 0.07207 0.0
H1270 H 0.54262 0.95646 0.10966 0.0
H1271 H 0.51871 0.97463 0.09972 0.0
H1272 H 0.43483 0.94208 0.06432 0.0
H1273 H 0.47656 0.96389 0.04936 0.0
H1274 H 0.44958 0.81488 0.14955 0.0
H1275 H 0.49195 0.83937 0.14614 0.0
H1276 H 0.40799 0.81577 0.1779 0.0
H1277 H 0.3845 0.83331 0.15553 0.0
C1278 C 0.12851 0.58267 0.07673 0.0
C1279 C 0.15026 0.6087 0.11708 0.0
C1280 C 0.17583 0.57627 0.1492 0.0
C1281 C 0.15034 0.5483 0.11894 0.0
N1282 N 0.11205 0.52896 1.03202 0.0
N1283 N 0.20244 0.63464 0.16862 0.0
C1284 C 0.12978 0.55281 0.07529 0.0
C1285 C 0.17655 0.6068 0.14565 0.0
N1286 N 0.10615 0.58607 0.04134 0.0
N1287 N 0.19896 0.57318 0.18278 0.0
H1288 H 0.2038 0.65725 0.16417 0.0
H1289 H 0.22368 0.6361 0.18643 0.0
H1290 H 0.20078 0.55209 0.18079 0.0
H1291 H 0.2159 0.59094 0.21301 0.0
H1292 H 0.08781 0.56747 1.01476 0.0
H1293 H 0.10572 0.60779 0.03887 0.0
H1294 H 0.09853 0.53129 0.99529 0.0
H1295 H 0.11337 0.50772 1.02875 0.0
C1296 C 0.49179 0.58294 0.19288 0.0
C1297 C 0.49796 0.60823 0.14833 0.0
C1298 C 0.44523 0.57008 0.09543 0.0
C1299 C 0.43751 0.54682 0.14552 0.0
N1300 N 0.45492 0.53182 0.24225 0.0
N1301 N 0.48078 0.62548 0.05529 0.0
C1302 C 0.46151 0.55337 0.19329 0.0
C1303 C 0.47494 0.60142 0.09825 0.0
N1304 N 0.51532 0.58655 0.23523 0.0
N1305 N 0.42389 0.56234 0.04582 0.0
H1306 H 0.50224 0.64794 0.05578 0.0
H1307 H 0.4642 0.62391 1.02086 0.0
H1308 H 0.40215 0.54018 0.04366 0.0
H1309 H 0.42842 0.57664 1.0051 0.0
H1310 H 0.5156 0.56719 0.25832 0.0
H1311 H 0.53555 0.60857 0.24558 0.0
H1312 H 0.46756 0.53775 0.28544 0.0
H1313 H 0.43582 0.50817 0.24141 0.0
C1314 C 0.54169 0.76296 0.28094 0.0
C1315 C 0.5723 0.76436 0.27088 0.0
C1316 C 0.59895 0.8237 0.28362 0.0
C1317 C 0.56888 0.82322 0.27938 0.0
N1318 N 0.51053 0.79147 0.27282 0.0
N1319 N 0.62886 0.79949 0.24019 0.0
C1320 C 0.53979 0.79245 0.27849 0.0
C1321 C 0.60073 0.79564 0.26677 0.0
N1322 N 0.51443 0.73351 0.29087 0.0
N1323 N 0.62627 0.85142 0.3013 0.0
H1324 H 0.63044 0.78038 0.21985 0.0
H1325 H 0.64918 0.82227 0.23147 0.0
H1326 H 0.62484 0.87145 0.31726 0.0
H1327 H 0.64872 0.85259 0.30822 0.0
H1328 H 0.49182 0.73088 0.3031 0.0
H1329 H 0.51526 0.71189 0.29185 0.0
H1330 H 0.48857 0.77014 0.26489 0.0
H1331 H 0.50875 0.81259 0.27353 0.0
C1332 C 0.2732 0.79506 0.29866 0.0
C1333 C 0.28007 0.81931 0.25111 0.0
C1334 C 0.22468 0.7844 0.20699 0.0
C1335 C 0.21934 0.75823 0.24835 0.0
N1336 N 0.23869 0.73872 0.33448 0.0
N1337 N 0.26088 0.83593 0.15874 0.0
C1338 C 0.24346 0.76383 0.29533 0.0
C1339 C 0.25518 0.81371 0.20591 0.0
N1340 N 0.29534 0.80171 0.34634 0.0
N1341 N 0.20016 0.78196 0.16864 0.0
H1342 H 0.27995 0.85957 0.15957 0.0
H1343 H 0.24735 0.83049 0.11668 0.0
H1344 H 0.17909 0.76045 0.159 0.0
H1345 H 0.19985 0.80197 0.14864 0.0
H1346 H 0.29123 0.78666 0.3857 0.0
H1347 H 0.31726 0.82367 0.3487 0.0
H1348 H 0.25621 0.73947 0.36557 0.0
H1349 H 0.2173 0.71621 0.33361 0.0
C1350 C 0.2733 0.49411 0.29209 0.0
C1351 C 0.27798 0.47039 0.25864 0.0
C1352 C 0.21846 0.43866 0.24416 0.0
C1353 C 0.21423 0.46493 0.26451 0.0
N1354 N 0.23905 0.51902 0.30772 0.0
N1355 N 0.25328 0.42399 0.18688 0.0
C1356 C 0.24203 0.49296 0.28951 0.0
C1357 C 0.2501 0.44369 0.23061 0.0
N1358 N 0.29885 0.51808 0.32485 0.0
N1359 N 0.19205 0.40845 0.2371 0.0
H1360 H 0.27553 0.42804 0.1692 0.0
H1361 H 0.23359 0.40623 0.16117 0.0
H1362 H 0.16875 0.40341 0.24965 0.0
H1363 H 0.19404 0.38787 0.22755 0.0
H1364 H 0.29662 0.5346 0.35444 0.0
H1365 H 0.32173 0.5197 0.32613 0.0
H1366 H 0.25884 0.54146 0.31989 0.0
H1367 H 0.21667 0.51848 0.30744 0.0
C1368 C 1.00108 0.21459 0.05847 0.0
C1369 C 1.00793 0.24048 0.10133 0.0
C1370 C 0.03744 0.28019 1.01562 0.0
C1371 C 0.02871 0.2542 0.97197 0.0
N1372 N 0.99799 0.19692 0.94832 0.0
N1373 N 0.02826 0.29757 0.11941 0.0
C1374 C 1.00923 0.22146 0.9924 0.0
C1375 C 0.02495 0.27324 0.07951 0.0
N1376 N 0.98798 0.18353 0.08145 0.0
N1377 N 0.0581 0.31145 0.99615 0.0
H1378 H 1.01895 0.29317 0.16598 0.0
H1379 H 0.03794 0.32169 0.10527 0.0
H1380 H 0.06681 0.31747 0.94922 0.0
H1381 H 0.06835 0.33125 1.02706 0.0
H1382 H 0.9858 0.16415 0.0542 0.0
H1383 H 0.98165 0.17746 0.12947 0.0
H1384 H 0.98061 0.17295 0.95879 0.0
H1385 H 1.00408 0.20089 0.89976 0.0
C1386 C 0.80239 0.79362 0.08566 0.0
C1387 C 0.79391 0.76171 0.10577 0.0
C1388 C 0.77517 0.74116 0.99656 0.0
C1389 C 0.78458 0.77333 0.97615 0.0
N1390 N 0.81131 0.83084 0.99789 0.0
N1391 N 0.76901 0.70441 0.08427 0.0
C1392 C 0.79904 0.79969 1.01999 0.0
C1393 C 0.77949 0.73526 0.06212 0.0
N1394 N 0.81308 0.81808 0.1299 0.0
N1395 N 0.76286 0.71653 0.95259 0.0
H1396 H 0.7719 0.69944 0.13174 0.0
H1397 H 0.75598 0.68342 0.05729 0.0
H1398 H 0.75783 0.71972 0.90535 0.0
H1399 H 0.75847 0.6931 0.9615 0.0
H1400 H 0.8157 0.84085 0.12072 0.0
H1401 H 0.81735 0.8151 0.17774 0.0
H1402 H 0.82562 0.85147 1.02507 0.0
H1403 H 0.80935 0.83643 0.95037 0.0
C1404 C 0.27317 1.00765 0.08559 0.0
C1405 C 0.27979 0.03969 0.09963 0.0
C1406 C 0.27534 0.04896 0.98505 0.0
C1407 C 0.27134 0.01783 0.9707 0.0
N1408 N 0.27384 0.97066 1.00606 0.0
N1409 N 0.29271 0.09287 0.06205 0.0
C1410 C 0.27254 0.99813 1.02068 0.0
C1411 C 0.28265 0.061 0.04904 0.0
N1412 N 0.266 0.98577 0.13415 0.0
N1413 N 0.27062 0.06641 0.93828 0.0
H1414 H 0.29766 0.10234 0.10839 0.0
H1415 H 0.2987 0.11045 1.02662 0.0
H1416 H 0.26494 0.0584 0.89108 0.0
H1417 H 0.26963 0.08753 0.9473 0.0
H1418 H 0.25786 0.96118 0.12661 0.0
H1419 H 0.26508 0.99154 0.18197 0.0
H1420 H 0.27815 0.95714 0.04007 0.0
H1421 H 0.27384 0.96316 0.95903 0.0
C1422 C 1.01621 0.76138 0.9977 0.0
C1423 C 0.0454 0.79006 0.97978 0.0
C1424 C 0.05155 0.8101 0.09045 0.0
C1425 C 0.02348 0.78056 0.10915 0.0
N1426 N 0.98279 0.72555 0.08369 0.0
N1427 N 0.09426 0.83877 1.01121 0.0
C1428 C 1.00694 0.75539 0.06363 0.0
C1429 C 0.0641 0.81353 1.0269 0.0
N1430 N 0.9966 0.74053 0.95141 0.0
N1431 N 0.06552 0.8354 0.1327 0.0
H1432 H 0.10419 0.84213 0.96519 0.0
H1433 H 0.11061 0.85471 0.04482 0.0
H1434 H 0.05726 0.83388 0.17971 0.0
H1435 H 0.08361 0.85873 0.1198 0.0
H1436 H 0.97343 0.72092 0.96054 0.0
H1437 H 1.00235 0.74448 0.90279 0.0
H1438 H 0.97216 0.70516 0.05422 0.0
H1439 H 0.97531 0.72043 0.13147 0.0
C1440 C 0.22518 0.20582 0.06596 0.0
C1441 C 0.2544 0.22805 0.09791 0.0
C1442 C 0.27391 0.25971 0.99819 0.0
C1443 C 0.24276 0.24057 0.96993 0.0
N1444 N 0.18638 0.19885 0.9834 0.0
N1445 N 0.30339 0.28074 0.09689 0.0
C1446 C 0.21768 0.21454 1.00564 0.0
C1447 C 0.27796 0.25626 0.0647 0.0
N1448 N 0.20509 0.17586 0.0919 0.0
N1449 N 0.30007 0.28035 0.96132 0.0
H1450 H 0.30666 0.28027 0.14616 0.0
H1451 H 0.31903 0.30305 0.07551 0.0
H1452 H 0.29848 0.28305 0.91208 0.0
H1453 H 0.3239 0.29179 0.97853 0.0
H1454 H 0.18506 0.15771 0.06766 0.0
H1455 H 0.21048 0.16793 0.13436 0.0
H1456 H 0.1667 0.18183 1.01059 0.0
H1457 H 0.17956 0.20525 0.94073 0.0
C1458 C 0.79053 0.99052 0.08305 0.0
C1459 C 0.805 0.02413 0.0979 0.0
C1460 C 0.8056 0.03708 0.9837 0.0
C1461 C 0.79244 1.00364 0.96857 0.0
N1462 N 0.77608 0.94891 1.00179 0.0
N1463 N 0.83049 0.07996 0.06308 0.0
C1464 C 0.78574 0.98042 1.01778 0.0
C1465 C 0.81353 0.04757 0.04838 0.0
N1466 N 0.78102 0.96823 0.1316 0.0
N1467 N 0.81007 0.05876 0.93612 0.0
H1468 H 0.83641 0.08858 0.10988 0.0
H1469 H 0.84081 0.09843 1.02899 0.0
H1470 H 0.80649 0.05235 0.88795 0.0
H1471 H 0.8155 0.08259 0.94429 0.0
H1472 H 0.76651 0.94327 0.12514 0.0
H1473 H 0.78619 0.97483 0.17952 0.0
H1474 H 0.7743 0.93146 1.03434 0.0
H1475 H 0.77186 0.94048 0.95469 0.0
C1476 C 0.72471 0.62689 0.34639 0.0
C1477 C 0.71208 0.59935 0.30553 0.0
C1478 C 0.6772 0.5647 0.39339 0.0
C1479 C 0.69171 0.5917 0.43563 0.0
N1480 N 0.73197 0.64759 0.45521 0.0
N1481 N 0.67954 0.54136 0.29126 0.0
C1482 C 0.71625 0.62259 0.41287 0.0
C1483 C 0.68911 0.56807 0.32933 0.0
N1484 N 0.74416 0.65722 0.32118 0.0
N1485 N 0.65169 0.53584 0.41437 0.0
H1486 H 0.68718 0.5428 0.24379 0.0
H1487 H 0.66595 0.51754 0.30778 0.0
H1488 H 0.64325 0.53185 0.46161 0.0
H1489 H 0.63739 0.51646 0.38421 0.0
H1490 H 0.75148 0.67864 0.34655 0.0
H1491 H 0.75107 0.66115 0.27298 0.0
H1492 H 0.75234 0.66975 0.44342 0.0
H1493 H 0.72596 0.64538 0.50377 0.0
C1494 C 0.48025 0.11455 0.39241 0.0
C1495 C 0.45522 0.10802 0.43799 0.0
C1496 C 0.42375 0.11709 0.35493 0.0
C1497 C 0.44784 0.12162 0.30869 0.0
N1498 N 0.49598 0.11882 0.2804 0.0
N1499 N 0.40049 0.09699 0.4605 0.0
C1500 C 0.47511 0.11844 0.32656 0.0
C1501 C 0.42614 0.1075 0.41857 0.0
N1502 N 0.50963 0.11867 0.41246 0.0
N1503 N 0.39909 0.12289 0.33847 0.0
H1504 H 0.40136 0.08963 0.50725 0.0
H1505 H 0.37746 0.09284 0.44747 0.0
H1506 H 0.39614 0.12917 0.29203 0.0
H1507 H 0.38288 0.12365 0.37155 0.0
H1508 H 0.53005 0.12709 0.38276 0.0
H1509 H 0.51461 0.11638 0.4602 0.0
H1510 H 0.5141 0.11288 0.28937 0.0
H1511 H 0.49352 0.12245 0.2319 0.0
C1512 C 0.91007 0.3676 0.31658 0.0
C1513 C 0.93136 0.35758 0.28965 0.0
C1514 C 0.95988 0.36777 0.39274 0.0
C1515 C 0.93977 0.37954 0.41868 0.0
N1516 N 0.90087 0.39765 0.4005 0.0
N1517 N 0.98077 0.35474 0.29754 0.0
C1518 C 0.91633 0.38147 0.37913 0.0
C1519 C 0.9576 0.35975 0.32637 0.0
N1520 N 0.88334 0.36312 0.283 0.0
N1521 N 0.97998 0.36261 0.43207 0.0
H1522 H 0.97933 0.34773 0.24974 0.0
H1523 H 1.00276 0.3605 0.31946 0.0
H1524 H 0.98186 0.36735 0.4811 0.0
H1525 H 0.99275 0.35105 0.41727 0.0
H1526 H 0.86484 0.36633 0.30287 0.0
H1527 H 0.87832 0.35378 0.23658 0.0
H1528 H 0.88602 0.40278 0.37167 0.0
H1529 H 0.90539 0.40881 0.44529 0.0
C1530 C 0.73231 0.13671 0.35075 0.0
C1531 C 0.70956 0.12274 0.30003 0.0
C1532 C 0.66554 0.09338 0.37861 0.0
C1533 C 0.6875 0.11025 0.42912 0.0
N1534 N 0.74089 0.1519 0.46297 0.0
N1535 N 0.65348 0.09243 0.26576 0.0
C1536 C 0.72075 0.13287 0.41519 0.0
C1537 C 0.67586 0.10232 0.31397 0.0
N1538 N 0.765 0.15361 0.33738 0.0
N1539 N 0.63503 0.06824 0.39239 0.0
H1540 H 0.65999 0.09912 0.21811 0.0
H1541 H 0.62836 0.08024 0.2737 0.0
H1542 H 0.62676 0.06083 0.43918 0.0
H1543 H 0.61915 0.0528 0.35759 0.0
H1544 H 0.78292 0.1612 0.37249 0.0
H1545 H 0.77433 0.15796 0.29076 0.0
H1546 H 0.76434 0.17122 0.45479 0.0
H1547 H 0.73327 0.15021 0.5105 0.0
C1548 C 0.90822 0.58423 0.34112 0.0
C1549 C 0.93557 0.59815 0.29897 0.0
C1550 C 0.97067 0.59795 0.38579 0.0
C1551 C 0.9436 0.58569 0.4286 0.0
N1552 N 0.88817 0.5725 0.45068 0.0
N1553 N 0.99354 0.62209 0.28188 0.0
C1554 C 0.91283 0.58043 0.40727 0.0
C1555 C 0.96706 0.60611 0.32156 0.0
N1556 N 0.87756 0.57341 0.31734 0.0
N1557 N 0.99959 0.60113 0.40634 0.0
H1558 H 0.99168 0.62822 0.23468 0.0
H1559 H 1.01757 0.63133 0.29656 0.0
H1560 H 1.00332 0.59631 0.45341 0.0
H1561 H 0.01932 0.6066 0.37629 0.0
H1562 H 0.85629 0.55966 0.34387 0.0
H1563 H 0.87309 0.57583 0.26932 0.0
H1564 H 0.86643 0.57202 0.43967 0.0
H1565 H 0.8904 0.56894 0.49933 0.0
C1566 C 0.45335 0.32186 0.34639 0.0
C1567 C 0.43464 0.33075 0.30674 0.0
C1568 C 0.41535 0.34603 0.40328 0.0
C1569 C 0.44002 0.34473 0.44007 0.0
N1570 N 0.46081 0.30788 0.45394 0.0
N1571 N 0.39681 0.35094 0.29795 0.0
C1572 C 0.45296 0.32574 0.41392 0.0
C1573 C 0.41543 0.34287 0.3353 0.0
N1574 N 0.4723 0.31055 0.31971 0.0
N1575 N 0.38822 0.34301 0.43308 0.0
H1576 H 0.3952 0.34776 0.24837 0.0
H1577 H 0.38485 0.36277 0.31614 0.0
H1578 H 0.38306 0.33548 0.48081 0.0
H1579 H 0.36834 0.34151 0.40844 0.0
H1580 H 0.48902 0.30707 0.34614 0.0
H1581 H 0.47329 0.30721 0.2705 0.0
H1582 H 0.46738 0.2911 0.43767 0.0
H1583 H 0.45638 0.30678 0.50321 0.0
C1584 C 0.38523 0.94686 0.68017 0.0
C1585 C 0.36381 0.92715 0.63121 0.0
C1586 C 0.31998 0.90007 0.71108 0.0
C1587 C 0.3428 0.91632 0.76075 0.0
N1588 N 0.39867 0.9512 0.79275 0.0
N1589 N 0.31172 0.88183 0.60076 0.0
C1590 C 0.37583 0.93885 0.74538 0.0
C1591 C 0.33129 0.90302 0.64671 0.0
N1592 N 0.41438 0.97351 0.66431 0.0
N1593 N 0.28745 0.88215 0.72535 0.0
H1594 H 0.31916 0.88282 0.55329 0.0
H1595 H 0.2891 0.86159 0.61077 0.0
H1596 H 0.27836 0.87946 0.77198 0.0
H1597 H 0.26934 0.8725 0.69054 0.0
H1598 H 0.42951 0.99062 0.6978 0.0
H1599 H 0.42186 0.98023 0.61691 0.0
H1600 H 0.42363 0.9653 0.78382 0.0
H1601 H 0.39298 0.94462 0.84067 0.0
C1602 C 0.11979 0.46357 0.74418 0.0
C1603 C 0.1001 0.43141 0.76787 0.0
C1604 C 0.07689 0.41319 0.66045 0.0
C1605 C 0.0952 0.44571 0.63781 0.0
N1606 N 0.13001 0.50276 0.65979 0.0
N1607 N 0.05621 0.37664 0.75211 0.0
C1608 C 0.11533 0.47117 0.68033 0.0
C1609 C 0.07755 0.40647 0.72695 0.0
N1610 N 0.14385 0.48655 0.78178 0.0
N1611 N 0.05952 0.38863 0.61805 0.0
H1612 H 0.05617 0.37096 0.80045 0.0
H1613 H 0.03691 0.35839 0.72654 0.0
H1614 H 0.05746 0.39277 0.56962 0.0
H1615 H 0.049 0.3641 0.62981 0.0
H1616 H 0.16153 0.50926 0.76493 0.0
H1617 H 0.14794 0.48213 0.82885 0.0
H1618 H 0.14172 0.52262 0.69033 0.0
H1619 H 0.12839 0.50933 0.61281 0.0
C1620 C 0.5956 0.70961 0.72645 0.0
C1621 C 0.60698 0.69407 0.76899 0.0
C1622 C 0.60852 0.66053 0.68059 0.0
C1623 C 0.59423 0.67395 0.63968 0.0
N1624 N 0.5702 0.7081 0.6248 0.0
N1625 N 0.62216 0.65325 0.78935 0.0
C1626 C 0.58689 0.69781 0.66281 0.0
C1627 C 0.61293 0.66911 0.74679 0.0
N1628 N 0.59336 0.7359 0.74683 0.0
N1629 N 0.61848 0.64017 0.65559 0.0
H1630 H 0.62699 0.6599 0.83744 0.0
H1631 H 0.62341 0.63248 0.77821 0.0
H1632 H 0.61574 0.63364 0.60732 0.0
H1633 H 0.63145 0.63147 0.68115 0.0
H1634 H 0.58902 0.75071 0.71628 0.0
H1635 H 0.59828 0.74456 0.79373 0.0
H1636 H 0.56067 0.72246 0.64118 0.0
H1637 H 0.56352 0.70025 0.57776 0.0
C1638 C 0.36528 0.47483 0.74373 0.0
C1639 C 0.35147 0.44284 0.76907 0.0
C1640 C 0.35662 0.42247 0.66376 0.0
C1641 C 0.37183 0.45473 0.63935 0.0
N1642 N 0.39517 0.51231 0.65728 0.0
N1643 N 0.33794 0.38696 0.75719 0.0
C1644 C 0.37755 0.48112 0.67981 0.0
C1645 C 0.34829 0.41683 0.73016 0.0
N1646 N 0.36557 0.499 0.78017 0.0
N1647 N 0.34953 0.39721 0.62303 0.0
H1648 H 0.33119 0.38199 0.80535 0.0
H1649 H 0.33816 0.36774 0.73348 0.0
H1650 H 0.35631 0.40059 0.57475 0.0
H1651 H 0.33528 0.37284 0.63577 0.0
H1652 H 0.37156 0.52182 0.76227 0.0
H1653 H 0.35757 0.49566 0.82769 0.0
H1654 H 0.40358 0.53277 0.68625 0.0
H1655 H 0.40356 0.51792 0.61012 0.0
C1656 C 0.6061 0.8962 0.71866 0.0
C1657 C 0.61942 0.92256 0.76244 0.0
C1658 C 0.63683 0.96041 0.67126 0.0
C1659 C 0.61622 0.9344 0.62997 0.0
N1660 N 0.605 0.87988 0.60849 0.0
N1661 N 0.64856 0.98055 0.7801 0.0
C1662 C 0.60755 0.90264 0.65174 0.0
C1663 C 0.6351 0.95493 0.73868 0.0
N1664 N 0.59142 0.86493 0.74079 0.0
N1665 N 0.66256 0.98775 0.64633 0.0
H1666 H 0.64871 0.97757 0.82963 0.0
H1667 H 0.65748 1.00451 0.7651 0.0
H1668 H 0.67016 0.98835 0.59904 0.0
H1669 H 0.67972 1.00663 0.67452 0.0
H1670 H 0.57806 0.84487 0.71137 0.0
H1671 H 0.59067 0.85909 0.78921 0.0
H1672 H 0.60187 0.85728 0.62159 0.0
H1673 H 0.61042 0.88547 0.56001 0.0
C1674 C 0.13857 0.68736 0.65667 0.0
C1675 C 0.10718 0.67468 0.62972 0.0
C1676 C 0.08582 0.68118 0.73299 0.0
C1677 C 0.1175 0.69484 0.7592 0.0
N1678 N 0.17512 0.71475 0.74593 0.0
N1679 N 0.05127 0.66222 0.63784 0.0
C1680 C 0.14432 0.69913 0.7209 0.0
C1681 C 0.08071 0.6723 0.66669 0.0
N1682 N 0.162 0.68644 0.61967 0.0
N1683 N 0.0612 0.67657 0.77372 0.0
H1684 H 0.04719 0.65542 0.58972 0.0
H1685 H 0.03145 0.66229 0.65965 0.0
H1686 H 0.03657 0.66536 0.76166 0.0
H1687 H 0.03657 0.66536 0.76166 0.0
H1688 H 0.18543 0.69288 0.63493 0.0
H1689 H 0.18543 0.69288 0.63493 0.0
H1690 H 0.1963 0.72215 0.71917 0.0
H1691 H 0.17986 0.72236 0.79351 0.0
loop_
_geom_bond_atom_site_label_1
_geom_bond_atom_site_label_2
_geom_bond_distance
_geom_bond_site_symmetry_2
_ccdc_geom_bond_type
Dy0 O3 2.307 . S
Dy0 O5 2.395 1_655 S
Dy0 O6 2.379 . S
Dy0 O8 2.339 . S
Dy0 O10 2.298 1_655 S
Dy0 O14 2.275 1_655 S
Dy0 C22 2.738 . S
Dy1 O4 2.298 1_455 S
Dy1 O7 2.275 1_455 S
Dy1 O9 2.307 . S
Dy1 O11 2.383 1_455 S
Dy1 O12 2.379 . S
Dy1 O15 2.339 . S
Dy1 C31 2.738 . S
C2 O14 1.254 . S
C2 O15 1.257 . S
O3 Dy0 2.307 . S
O3 C13 1.266 . S
O4 Dy1 2.298 1_655 S
O4 C13 1.236 . S
O5 Dy0 2.395 1_455 S
O5 C22 1.255 1_455 S
O6 Dy0 2.379 . S
O6 C22 1.249 . S
O7 Dy1 2.275 1_655 S
O7 C23 1.254 . S
O8 Dy0 2.339 . S
O8 C23 1.257 . S
O9 Dy1 2.307 . S
O9 C24 1.266 . S
O10 Dy0 2.298 1_455 S
O10 C24 1.236 . S
O11 Dy1 2.383 1_655 S
O11 C31 1.235 1_655 S
O12 Dy1 2.379 . S
O12 C31 1.249 . S
C13 O3 1.266 . S
C13 O4 1.236 . S
O14 Dy0 2.275 1_455 S
O14 C2 1.254 . S
O15 Dy1 2.339 . S
O15 C2 1.257 . S
C16 C19 1.344 1_655 S
C16 C20 1.328 . S
C16 C22 1.516 . S
C17 C18 1.304 . S
C17 C21 1.323 1_455 S
C18 C17 1.304 . S
C18 C19 1.371 . S
C18 H32 0.930 . S
C19 C16 1.344 1_455 S
C19 C18 1.371 . S
C19 H33 0.931 . S
C20 C16 1.328 . S
C20 C21 1.433 . S
C20 H34 0.931 . S
C21 C17 1.323 1_655 S
C21 C20 1.433 . S
C21 H35 0.933 . S
C22 Dy0 2.738 . S
C22 O5 1.255 1_655 S
C22 O6 1.249 . S
C22 C16 1.516 . S
C23 O7 1.254 . S
C23 O8 1.257 . S
C24 O9 1.266 . S
C24 O10 1.236 . S
C25 C28 1.344 1_455 S
C25 C29 1.328 . S
C25 C31 1.516 . S
C26 C27 1.304 1_455 S
C26 C30 1.323 . S
C27 C26 1.304 1_655 S
C27 C28 1.371 . S
C27 H36 0.930 . S
C28 C25 1.344 1_655 S
C28 C27 1.371 . S
C28 H37 0.931 . S
C29 C25 1.328 . S
C29 C30 1.433 . S
C29 H38 0.931 . S
C30 C26 1.323 . S
C30 C29 1.433 . S
C30 H39 0.933 . S
C31 Dy1 2.738 . S
C31 O11 1.235 1_455 S
C31 O12 1.249 . S
C31 C25 1.516 . S
H32 C18 0.930 . S
H33 C19 0.931 . S
H34 C20 0.931 . S
H35 C21 0.933 . S
H36 C27 0.930 . S
H37 C28 0.931 . S
H38 C29 0.931 . S
H39 C30 0.933 . S
Dy40 O43 2.307 . S
Dy40 O45 2.395 . S
Dy40 O46 2.379 . S
Dy40 O48 2.339 . S
Dy40 O50 2.298 . S
Dy40 O54 2.275 . S
Dy40 C62 2.738 . S
Dy41 O44 2.298 . S
Dy41 O47 2.275 . S
Dy41 O49 2.307 . S
Dy41 O51 2.395 . S
Dy41 O52 2.379 . S
Dy41 O55 2.339 . S
Dy41 C71 2.738 . S
C42 O54 1.254 . S
C42 O55 1.257 . S
O43 Dy40 2.307 . S
O43 C53 1.266 . S
O44 Dy41 2.298 . S
O44 C53 1.236 . S
O45 Dy40 2.395 . S
O45 C62 1.255 . S
O46 Dy40 2.379 . S
O46 C62 1.249 . S
O47 Dy41 2.275 . S
O47 C63 1.254 . S
O48 Dy40 2.339 . S
O48 C63 1.257 . S
O49 Dy41 2.307 . S
O49 C64 1.266 . S
O50 Dy40 2.298 . S
O50 C64 1.236 . S
O51 Dy41 2.395 . S
O51 C71 1.255 . S
O52 Dy41 2.379 . S
O52 C71 1.249 . S
C53 O43 1.266 . S
C53 O44 1.236 . S
O54 Dy40 2.275 . S
O54 C42 1.254 . S
O55 Dy41 2.339 . S
O55 C42 1.257 . S
C56 C59 1.344 . S
C56 C60 1.328 . S
C56 C62 1.516 . S
C57 C58 1.304 . S
C57 C61 1.323 . S
C58 C57 1.304 . S
C58 C59 1.371 . S
C58 H72 0.930 . S
C59 C56 1.344 . S
C59 C58 1.371 . S
C59 H73 0.931 . S
C60 C56 1.328 . S
C60 C61 1.433 . S
C60 H74 0.931 . S
C61 C57 1.323 . S
C61 C60 1.433 . S
C61 H75 0.933 . S
C62 Dy40 2.738 . S
C62 O45 1.255 . S
C62 O46 1.249 . S
C62 C56 1.516 . S
C63 O47 1.254 . S
C63 O48 1.257 . S
C64 O49 1.266 . S
C64 O50 1.236 . S
C65 C68 1.344 . S
C65 C69 1.328 . S
C65 C71 1.516 . S
C66 C67 1.304 . S
C66 C70 1.323 . S
C67 C66 1.304 . S
C67 C68 1.371 . S
C67 H76 0.930 . S
C68 C65 1.344 . S
C68 C67 1.371 . S
C68 H77 0.931 . S
C69 C65 1.328 . S
C69 C70 1.433 . S
C69 H78 0.931 . S
C70 C66 1.323 . S
C70 C69 1.433 . S
C70 H79 0.933 . S
C71 Dy41 2.738 . S
C71 O51 1.255 . S
C71 O52 1.249 . S
C71 C65 1.516 . S
H72 C58 0.930 . S
H73 C59 0.931 . S
H74 C60 0.931 . S
H75 C61 0.933 . S
H76 C67 0.930 . S
H77 C68 0.931 . S
H78 C69 0.931 . S
H79 C70 0.933 . S
Dy80 O83 2.307 . S
Dy80 O85 2.395 . S
Dy80 O86 2.379 . S
Dy80 O88 2.339 . S
Dy80 O90 2.298 1_545 S
Dy80 O94 2.275 1_545 S
Dy80 C102 2.738 . S
Dy81 O84 2.298 1_565 S
Dy81 O87 2.275 1_565 S
Dy81 O89 2.307 . S
Dy81 O91 2.395 1_565 S
Dy81 O92 2.379 . S
Dy81 O95 2.339 . S
Dy81 C111 2.738 . S
C82 O94 1.254 . S
C82 O95 1.257 . S
O83 Dy80 2.307 . S
O83 C93 1.266 . S
O84 Dy81 2.298 1_545 S
O84 C93 1.236 . S
O85 Dy80 2.395 . S
O85 C102 1.255 . S
O86 Dy80 2.379 . S
O86 C102 1.249 . S
O87 Dy81 2.275 1_545 S
O87 C103 1.254 . S
O88 Dy80 2.339 . S
O88 C103 1.257 . S
O89 Dy81 2.307 . S
O89 C104 1.266 . S
O90 Dy80 2.298 1_565 S
O90 C104 1.236 . S
O91 Dy81 2.395 1_545 S
O91 C111 1.255 1_545 S
O92 Dy81 2.379 . S
O92 C111 1.249 . S
C93 O83 1.266 . S
C93 O84 1.236 . S
O94 Dy80 2.275 1_565 S
O94 C82 1.254 . S
O95 Dy81 2.339 . S
O95 C82 1.257 . S
C96 C99 1.344 1_545 S
C96 C100 1.328 . S
C96 C102 1.516 . S
C97 C98 1.304 1_545 S
C97 C101 1.323 . S
C98 C97 1.304 1_565 S
C98 C99 1.371 . S
C98 H112 0.930 . S
C99 C96 1.344 1_565 S
C99 C98 1.371 . S
C99 H113 0.931 . S
C100 C96 1.328 . S
C100 C101 1.433 . S
C100 H114 0.931 . S
C101 C97 1.323 . S
C101 C100 1.433 . S
C101 H115 0.933 . S
C102 Dy80 2.738 . S
C102 O85 1.255 . S
C102 O86 1.249 . S
C102 C96 1.516 . S
C103 O87 1.254 . S
C103 O88 1.257 . S
C104 O89 1.266 . S
C104 O90 1.236 . S
C105 C108 1.363 . S
C105 C109 1.316 1_545 S
C105 C111 1.510 1_545 S
C106 C107 1.304 . S
C106 C110 1.323 1_545 S
C107 C106 1.304 . S
C107 C108 1.371 . S
C107 H116 0.930 . S
C108 C105 1.363 . S
C108 C107 1.371 . S
C108 H117 0.931 . S
C109 C105 1.316 1_565 S
C109 C110 1.433 . S
C109 H118 0.931 . S
C110 C106 1.323 1_565 S
C110 C109 1.433 . S
C110 H119 0.933 . S
C111 Dy81 2.738 . S
C111 O91 1.255 1_565 S
C111 O92 1.249 . S
C111 C105 1.510 1_565 S
H112 C98 0.930 . S
H113 C99 0.931 . S
H114 C100 0.931 . S
H115 C101 0.933 . S
H116 C107 0.930 . S
H117 C108 0.931 . S
H118 C109 0.931 . S
H119 C110 0.933 . S
Dy120 O123 2.307 . S
Dy120 O125 2.395 1_655 S
Dy120 O126 2.379 . S
Dy120 O128 2.339 . S
Dy120 O130 2.298 1_655 S
Dy120 O134 2.275 1_655 S
Dy120 C142 2.738 . S
Dy121 O124 2.298 1_455 S
Dy121 O127 2.275 1_455 S
Dy121 O129 2.307 . S
Dy121 O131 2.395 . S
Dy121 O132 2.379 . S
Dy121 O135 2.339 . S
Dy121 C151 2.738 . S
C122 O134 1.254 . S
C122 O135 1.257 . S
O123 Dy120 2.307 . S
O123 C133 1.266 . S
O124 Dy121 2.298 1_655 S
O124 C133 1.236 . S
O125 Dy120 2.395 1_455 S
O125 C142 1.255 1_455 S
O126 Dy120 2.379 . S
O126 C142 1.249 . S
O127 Dy121 2.275 1_655 S
O127 C143 1.254 . S
O128 Dy120 2.339 . S
O128 C143 1.257 . S
O129 Dy121 2.307 . S
O129 C144 1.266 . S
O130 Dy120 2.298 1_455 S
O130 C144 1.236 . S
O131 Dy121 2.395 . S
O131 C151 1.255 . S
O132 Dy121 2.379 . S
O132 C151 1.249 . S
C133 O123 1.266 . S
C133 O124 1.236 . S
O134 Dy120 2.275 1_455 S
O134 C122 1.254 . S
O135 Dy121 2.339 . S
O135 C122 1.257 . S
C136 C139 1.344 . S
C136 C140 1.328 1_455 S
C136 C142 1.516 1_455 S
C137 C138 1.304 . S
C137 C141 1.323 1_455 S
C138 C137 1.304 . S
C138 C139 1.371 . S
C138 H152 0.930 . S
C139 C136 1.344 . S
C139 C138 1.371 . S
C139 H153 0.931 . S
C140 C136 1.328 1_655 S
C140 C141 1.433 . S
C140 H154 0.931 . S
C141 C137 1.323 1_655 S
C141 C140 1.433 . S
C141 H155 0.933 . S
C142 Dy120 2.738 . S
C142 O125 1.255 1_655 S
C142 O126 1.249 . S
C142 C136 1.516 1_655 S
C143 O127 1.254 . S
C143 O128 1.257 . S
C144 O129 1.266 . S
C144 O130 1.236 . S
C145 C148 1.344 1_455 S
C145 C149 1.328 . S
C145 C151 1.516 . S
C146 C147 1.304 1_455 S
C146 C150 1.323 . S
C147 C146 1.304 1_655 S
C147 C148 1.371 . S
C147 H156 0.930 . S
C148 C145 1.344 1_655 S
C148 C147 1.371 . S
C148 H157 0.931 . S
C149 C145 1.328 . S
C149 C150 1.433 . S
C149 H158 0.931 . S
C150 C146 1.323 . S
C150 C149 1.433 . S
C150 H159 0.933 . S
C151 Dy121 2.738 . S
C151 O131 1.255 . S
C151 O132 1.249 . S
C151 C145 1.516 . S
H152 C138 0.930 . S
H153 C139 0.931 . S
H154 C140 0.931 . S
H155 C141 0.933 . S
H156 C147 0.930 . S
H157 C148 0.931 . S
H158 C149 0.931 . S
H159 C150 0.933 . S
Dy160 O163 2.307 . S
Dy160 O165 2.395 . S
Dy160 O166 2.379 . S
Dy160 O168 2.339 . S
Dy160 O170 2.298 . S
Dy160 O174 2.275 . S
Dy160 C182 2.738 . S
Dy161 O164 2.298 . S
Dy161 O167 2.275 . S
Dy161 O169 2.307 . S
Dy161 O171 2.395 . S
Dy161 O172 2.379 . S
Dy161 O175 2.339 . S
Dy161 C191 2.738 . S
C162 O174 1.254 . S
C162 O175 1.257 . S
O163 Dy160 2.307 . S
O163 C173 1.266 . S
O164 Dy161 2.298 . S
O164 C173 1.236 . S
O165 Dy160 2.395 . S
O165 C182 1.255 . S
O166 Dy160 2.379 . S
O166 C182 1.249 . S
O167 Dy161 2.275 . S
O167 C183 1.254 . S
O168 Dy160 2.339 . S
O168 C183 1.257 . S
O169 Dy161 2.307 . S
O169 C184 1.266 . S
O170 Dy160 2.298 . S
O170 C184 1.236 . S
O171 Dy161 2.395 . S
O171 C191 1.255 . S
O172 Dy161 2.379 . S
O172 C191 1.249 . S
C173 O163 1.266 . S
C173 O164 1.236 . S
O174 Dy160 2.275 . S
O174 C162 1.254 . S
O175 Dy161 2.339 . S
O175 C162 1.257 . S
C176 C179 1.344 . S
C176 C180 1.328 . S
C176 C182 1.516 . S
C177 C178 1.304 . S
C177 C181 1.323 . S
C178 C177 1.304 . S
C178 C179 1.371 . S
C178 H192 0.930 . S
C179 C176 1.344 . S
C179 C178 1.371 . S
C179 H193 0.931 . S
C180 C176 1.328 . S
C180 C181 1.433 . S
C180 H194 0.931 . S
C181 C177 1.323 . S
C181 C180 1.433 . S
C181 H195 0.933 . S
C182 Dy160 2.738 . S
C182 O165 1.255 . S
C182 O166 1.249 . S
C182 C176 1.516 . S
C183 O167 1.254 . S
C183 O168 1.257 . S
C184 O169 1.266 . S
C184 O170 1.236 . S
C185 C188 1.344 . S
C185 C189 1.328 . S
C185 C191 1.516 . S
C186 C187 1.304 . S
C186 C190 1.323 . S
C187 C186 1.304 . S
C187 C188 1.371 . S
C187 H196 0.930 . S
C188 C185 1.344 . S
C188 C187 1.371 . S
C188 H197 0.931 . S
C189 C185 1.328 . S
C189 C190 1.433 . S
C189 H198 0.931 . S
C190 C186 1.323 . S
C190 C189 1.433 . S
C190 H199 0.933 . S
C191 Dy161 2.738 . S
C191 O171 1.255 . S
C191 O172 1.249 . S
C191 C185 1.516 . S
H192 C178 0.930 . S
H193 C179 0.931 . S
H194 C180 0.931 . S
H195 C181 0.933 . S
H196 C187 0.930 . S
H197 C188 0.931 . S
H198 C189 0.931 . S
H199 C190 0.933 . S
Dy200 O203 2.307 . S
Dy200 O205 2.395 1_545 S
Dy200 O206 2.379 . S
Dy200 O208 2.339 . S
Dy200 O210 2.298 1_545 S
Dy200 O214 2.275 1_545 S
Dy200 C222 2.738 . S
Dy201 O204 2.298 1_565 S
Dy201 O207 2.275 1_565 S
Dy201 O209 2.307 . S
Dy201 O211 2.395 1_565 S
Dy201 O212 2.379 . S
Dy201 O215 2.339 . S
Dy201 C231 2.738 . S
C202 O214 1.254 . S
C202 O215 1.257 . S
O203 Dy200 2.307 . S
O203 C213 1.266 . S
O204 Dy201 2.298 1_545 S
O204 C213 1.236 . S
O205 Dy200 2.395 1_565 S
O205 C222 1.255 1_565 S
O206 Dy200 2.379 . S
O206 C222 1.249 . S
O207 Dy201 2.275 1_545 S
O207 C223 1.254 . S
O208 Dy200 2.339 . S
O208 C223 1.257 . S
O209 Dy201 2.307 . S
O209 C224 1.266 . S
O210 Dy200 2.298 1_565 S
O210 C224 1.236 . S
O211 Dy201 2.395 1_545 S
O211 C231 1.255 1_545 S
O212 Dy201 2.379 . S
O212 C231 1.249 . S
C213 O203 1.266 . S
C213 O204 1.236 . S
O214 Dy200 2.275 1_565 S
O214 C202 1.254 . S
O215 Dy201 2.339 . S
O215 C202 1.257 . S
C216 C219 1.344 1_545 S
C216 C220 1.328 . S
C216 C222 1.516 . S
C217 C218 1.304 1_545 S
C217 C221 1.323 . S
C218 C217 1.304 1_565 S
C218 C219 1.371 . S
C218 H232 0.930 . S
C219 C216 1.344 1_565 S
C219 C218 1.371 . S
C219 H233 0.931 . S
C220 C216 1.328 . S
C220 C221 1.433 . S
C220 H234 0.931 . S
C221 C217 1.323 . S
C221 C220 1.433 . S
C221 H235 0.933 . S
C222 Dy200 2.738 . S
C222 O205 1.255 1_545 S
C222 O206 1.249 . S
C222 C216 1.516 . S
C223 O207 1.254 . S
C223 O208 1.257 . S
C224 O209 1.266 . S
C224 O210 1.236 . S
C225 C228 1.344 1_565 S
C225 C229 1.328 . S
C225 C231 1.516 . S
C226 C227 1.322 . S
C226 C230 1.301 1_545 S
C227 C226 1.322 . S
C227 C228 1.371 . S
C227 H236 0.930 . S
C228 C225 1.344 1_545 S
C228 C227 1.371 . S
C228 H237 0.931 . S
C229 C225 1.328 . S
C229 C230 1.433 . S
C229 H238 0.931 . S
C230 C226 1.301 1_565 S
C230 C229 1.433 . S
C230 H239 0.933 . S
C231 Dy201 2.738 . S
C231 O211 1.255 1_565 S
C231 O212 1.249 . S
C231 C225 1.516 . S
H232 C218 0.930 . S
H233 C219 0.931 . S
H234 C220 0.931 . S
H235 C221 0.933 . S
H236 C227 0.930 . S
H237 C228 0.931 . S
H238 C229 0.931 . S
H239 C230 0.933 . S
Dy240 O243 2.307 . S
Dy240 O245 2.395 . S
Dy240 O246 2.379 . S
Dy240 O248 2.339 . S
Dy240 O250 2.298 . S
Dy240 O254 2.275 . S
Dy240 C262 2.738 . S
Dy241 O244 2.298 . S
Dy241 O247 2.275 . S
Dy241 O249 2.307 . S
Dy241 O251 2.395 . S
Dy241 O252 2.379 . S
Dy241 O255 2.339 . S
Dy241 C271 2.738 . S
C242 O254 1.254 . S
C242 O255 1.257 . S
O243 Dy240 2.307 . S
O243 C253 1.266 . S
O244 Dy241 2.298 . S
O244 C253 1.236 . S
O245 Dy240 2.395 . S
O245 C262 1.255 . S
O246 Dy240 2.379 . S
O246 C262 1.249 . S
O247 Dy241 2.275 . S
O247 C263 1.254 . S
O248 Dy240 2.339 . S
O248 C263 1.257 . S
O249 Dy241 2.307 . S
O249 C264 1.266 . S
O250 Dy240 2.298 . S
O250 C264 1.236 . S
O251 Dy241 2.395 . S
O251 C271 1.255 . S
O252 Dy241 2.379 . S
O252 C271 1.249 . S
C253 O243 1.266 . S
C253 O244 1.236 . S
O254 Dy240 2.275 . S
O254 C242 1.254 . S
O255 Dy241 2.339 . S
O255 C242 1.257 . S
C256 C259 1.344 . S
C256 C260 1.328 . S
C256 C262 1.516 . S
C257 C258 1.304 . S
C257 C261 1.323 . S
C258 C257 1.304 . S
C258 C259 1.371 . S
C258 H272 0.930 . S
C259 C256 1.344 . S
C259 C258 1.371 . S
C259 H273 0.931 . S
C260 C256 1.328 . S
C260 C261 1.433 . S
C260 H274 0.931 . S
C261 C257 1.323 . S
C261 C260 1.433 . S
C261 H275 0.933 . S
C262 Dy240 2.738 . S
C262 O245 1.255 . S
C262 O246 1.249 . S
C262 C256 1.516 . S
C263 O247 1.254 . S
C263 O248 1.257 . S
C264 O249 1.266 . S
C264 O250 1.236 . S
C265 C268 1.344 . S
C265 C269 1.328 . S
C265 C271 1.516 1_554 S
C266 C267 1.304 . S
C266 C270 1.323 . S
C267 C266 1.304 . S
C267 C268 1.371 . S
C267 H276 0.930 . S
C268 C265 1.344 . S
C268 C267 1.371 . S
C268 H277 0.931 . S
C269 C265 1.328 . S
C269 C270 1.433 . S
C269 H278 0.931 . S
C270 C266 1.323 . S
C270 C269 1.433 . S
C270 H279 0.933 . S
C271 Dy241 2.738 . S
C271 O251 1.255 . S
C271 O252 1.249 . S
C271 C265 1.516 1_556 S
H272 C258 0.930 . S
H273 C259 0.931 . S
H274 C260 0.931 . S
H275 C261 0.933 . S
H276 C267 0.930 . S
H277 C268 0.931 . S
H278 C269 0.931 . S
H279 C270 0.933 . S
Dy280 O283 2.307 . S
Dy280 O285 2.395 . S
Dy280 O286 2.379 . S
Dy280 O288 2.339 . S
Dy280 O290 2.298 . S
Dy280 O294 2.275 . S
Dy280 C302 2.738 . S
Dy281 O284 2.298 . S
Dy281 O287 2.275 . S
Dy281 O289 2.307 . S
Dy281 O291 2.395 . S
Dy281 O292 2.379 . S
Dy281 O295 2.339 . S
Dy281 C311 2.738 . S
C282 O294 1.254 . S
C282 O295 1.257 . S
O283 Dy280 2.307 . S
O283 C293 1.266 . S
O284 Dy281 2.298 . S
O284 C293 1.236 . S
O285 Dy280 2.395 . S
O285 C302 1.255 . S
O286 Dy280 2.379 . S
O286 C302 1.249 . S
O287 Dy281 2.275 . S
O287 C303 1.254 . S
O288 Dy280 2.339 . S
O288 C303 1.257 . S
O289 Dy281 2.307 . S
O289 C304 1.266 . S
O290 Dy280 2.298 . S
O290 C304 1.236 . S
O291 Dy281 2.395 . S
O291 C311 1.255 . S
O292 Dy281 2.379 . S
O292 C311 1.249 . S
C293 O283 1.266 . S
C293 O284 1.236 . S
O294 Dy280 2.275 . S
O294 C282 1.254 . S
O295 Dy281 2.339 . S
O295 C282 1.257 . S
C296 C299 1.344 . S
C296 C300 1.328 . S
C296 C302 1.516 . S
C297 C298 1.304 . S
C297 C301 1.323 . S
C298 C297 1.304 . S
C298 C299 1.371 . S
C298 H312 0.930 . S
C299 C296 1.344 . S
C299 C298 1.371 . S
C299 H313 0.931 . S
C300 C296 1.328 . S
C300 C301 1.433 . S
C300 H314 0.931 . S
C301 C297 1.323 . S
C301 C300 1.433 . S
C301 H315 0.933 . S
C302 Dy280 2.738 . S
C302 O285 1.255 . S
C302 O286 1.249 . S
C302 C296 1.516 . S
C303 O287 1.254 . S
C303 O288 1.257 . S
C304 O289 1.266 . S
C304 O290 1.236 . S
C305 C308 1.344 . S
C305 C309 1.328 . S
C305 C311 1.516 1_554 S
C306 C307 1.304 . S
C306 C310 1.323 . S
C307 C306 1.304 . S
C307 C308 1.371 . S
C307 H316 0.930 . S
C308 C305 1.344 . S
C308 C307 1.371 . S
C308 H317 0.931 . S
C309 C305 1.328 . S
C309 C310 1.433 . S
C309 H318 0.931 . S
C310 C306 1.323 . S
C310 C309 1.433 . S
C310 H319 0.933 . S
C311 Dy281 2.738 . S
C311 O291 1.255 . S
C311 O292 1.249 . S
C311 C305 1.516 1_556 S
H312 C298 0.930 . S
H313 C299 0.931 . S
H314 C300 0.931 . S
H315 C301 0.933 . S
H316 C307 0.930 . S
H317 C308 0.931 . S
H318 C309 0.931 . S
H319 C310 0.933 . S
Dy320 O323 2.307 . S
Dy320 O325 2.395 . S
Dy320 O326 2.379 . S
Dy320 O328 2.339 . S
Dy320 O330 2.298 . S
Dy320 O334 2.275 . S
Dy320 C342 2.738 . S
Dy321 O324 2.298 . S
Dy321 O327 2.275 . S
Dy321 O329 2.307 . S
Dy321 O331 2.395 . S
Dy321 O332 2.379 . S
Dy321 O335 2.339 . S
Dy321 C351 2.738 . S
C322 O334 1.254 . S
C322 O335 1.257 . S
O323 Dy320 2.307 . S
O323 C333 1.266 . S
O324 Dy321 2.298 . S
O324 C333 1.236 . S
O325 Dy320 2.395 . S
O325 C342 1.255 . S
O326 Dy320 2.379 . S
O326 C342 1.249 . S
O327 Dy321 2.275 . S
O327 C343 1.254 . S
O328 Dy320 2.339 . S
O328 C343 1.257 . S
O329 Dy321 2.307 . S
O329 C344 1.266 . S
O330 Dy320 2.298 . S
O330 C344 1.236 . S
O331 Dy321 2.395 . S
O331 C351 1.255 . S
O332 Dy321 2.379 . S
O332 C351 1.249 . S
C333 O323 1.266 . S
C333 O324 1.236 . S
O334 Dy320 2.275 . S
O334 C322 1.254 . S
O335 Dy321 2.339 . S
O335 C322 1.257 . S
C336 C339 1.344 . S
C336 C340 1.328 . S
C336 C342 1.516 . S
C337 C338 1.304 . S
C337 C341 1.323 . S
C338 C337 1.304 . S
C338 C339 1.371 . S
C338 H352 0.930 . S
C339 C336 1.344 . S
C339 C338 1.371 . S
C339 H353 0.931 . S
C340 C336 1.328 . S
C340 C341 1.433 . S
C340 H354 0.931 . S
C341 C337 1.323 . S
C341 C340 1.433 . S
C341 H355 0.933 . S
C342 Dy320 2.738 . S
C342 O325 1.255 . S
C342 O326 1.249 . S
C342 C336 1.516 . S
C343 O327 1.254 . S
C343 O328 1.257 . S
C344 O329 1.266 . S
C344 O330 1.236 . S
C345 C348 1.344 . S
C345 C349 1.328 . S
C345 C351 1.516 1_554 S
C346 C347 1.304 . S
C346 C350 1.323 . S
C347 C346 1.304 . S
C347 C348 1.371 . S
C347 H356 0.930 . S
C348 C345 1.344 . S
C348 C347 1.371 . S
C348 H357 0.931 . S
C349 C345 1.328 . S
C349 C350 1.433 . S
C349 H358 0.931 . S
C350 C346 1.323 . S
C350 C349 1.433 . S
C350 H359 0.933 . S
C351 Dy321 2.738 . S
C351 O331 1.255 . S
C351 O332 1.249 . S
C351 C345 1.516 1_556 S
H352 C338 0.930 . S
H353 C339 0.931 . S
H354 C340 0.931 . S
H355 C341 0.933 . S
H356 C347 0.930 . S
H357 C348 0.931 . S
H358 C349 0.931 . S
H359 C350 0.933 . S
Dy360 O363 2.307 . S
Dy360 O365 2.395 . S
Dy360 O366 2.379 . S
Dy360 O368 2.339 . S
Dy360 O370 2.298 . S
Dy360 O374 2.275 . S
Dy360 C382 2.738 . S
Dy361 O364 2.298 . S
Dy361 O367 2.275 . S
Dy361 O369 2.307 . S
Dy361 O371 2.395 1_556 S
Dy361 O372 2.379 1_556 S
Dy361 O375 2.339 . S
Dy361 C391 2.738 1_556 S
C362 O374 1.254 . S
C362 O375 1.257 . S
O363 Dy360 2.307 . S
O363 C373 1.266 . S
O364 Dy361 2.298 . S
O364 C373 1.236 . S
O365 Dy360 2.395 . S
O365 C382 1.255 . S
O366 Dy360 2.379 . S
O366 C382 1.249 . S
O367 Dy361 2.275 . S
O367 C383 1.254 . S
O368 Dy360 2.339 . S
O368 C383 1.257 . S
O369 Dy361 2.307 . S
O369 C384 1.266 . S
O370 Dy360 2.298 . S
O370 C384 1.236 . S
O371 Dy361 2.395 1_554 S
O371 C391 1.255 . S
O372 Dy361 2.379 1_554 S
O372 C391 1.249 . S
C373 O363 1.266 . S
C373 O364 1.236 . S
O374 Dy360 2.275 . S
O374 C362 1.254 . S
O375 Dy361 2.339 . S
O375 C362 1.257 . S
C376 C379 1.344 . S
C376 C380 1.328 . S
C376 C382 1.516 . S
C377 C378 1.304 . S
C377 C381 1.323 . S
C378 C377 1.304 . S
C378 C379 1.371 . S
C378 H392 0.930 . S
C379 C376 1.344 . S
C379 C378 1.371 . S
C379 H393 0.931 . S
C380 C376 1.328 . S
C380 C381 1.433 . S
C380 H394 0.931 . S
C381 C377 1.323 . S
C381 C380 1.433 . S
C381 H395 0.933 . S
C382 Dy360 2.738 . S
C382 O365 1.255 . S
C382 O366 1.249 . S
C382 C376 1.516 . S
C383 O367 1.254 . S
C383 O368 1.257 . S
C384 O369 1.266 . S
C384 O370 1.236 . S
C385 C388 1.344 . S
C385 C389 1.328 . S
C385 C391 1.516 . S
C386 C387 1.304 . S
C386 C390 1.323 . S
C387 C386 1.304 . S
C387 C388 1.371 . S
C387 H396 0.930 . S
C388 C385 1.344 . S
C388 C387 1.371 . S
C388 H397 0.931 . S
C389 C385 1.328 . S
C389 C390 1.433 . S
C389 H398 0.931 . S
C390 C386 1.323 . S
C390 C389 1.433 . S
C390 H399 0.933 . S
C391 Dy361 2.738 1_554 S
C391 O371 1.255 . S
C391 O372 1.249 . S
C391 C385 1.516 . S
H392 C378 0.930 . S
H393 C379 0.931 . S
H394 C380 0.931 . S
H395 C381 0.933 . S
H396 C387 0.930 . S
H397 C388 0.931 . S
H398 C389 0.931 . S
H399 C390 0.933 . S
Dy400 O403 2.307 . S
Dy400 O405 2.395 . S
Dy400 O406 2.379 . S
Dy400 O408 2.339 . S
Dy400 O410 2.298 . S
Dy400 O414 2.275 . S
Dy400 C422 2.738 . S
Dy401 O404 2.298 . S
Dy401 O407 2.275 . S
Dy401 O409 2.307 . S
Dy401 O411 2.395 1_556 S
Dy401 O412 2.379 1_556 S
Dy401 O415 2.339 . S
Dy401 C431 2.738 1_556 S
C402 O414 1.254 . S
C402 O415 1.257 . S
O403 Dy400 2.307 . S
O403 C413 1.266 . S
O404 Dy401 2.298 . S
O404 C413 1.236 . S
O405 Dy400 2.395 . S
O405 C422 1.255 . S
O406 Dy400 2.379 . S
O406 C422 1.249 . S
O407 Dy401 2.275 . S
O407 C423 1.254 . S
O408 Dy400 2.339 . S
O408 C423 1.257 . S
O409 Dy401 2.307 . S
O409 C424 1.266 . S
O410 Dy400 2.298 . S
O410 C424 1.236 . S
O411 Dy401 2.395 1_554 S
O411 C431 1.255 . S
O412 Dy401 2.379 1_554 S
O412 C431 1.249 . S
C413 O403 1.266 . S
C413 O404 1.236 . S
O414 Dy400 2.275 . S
O414 C402 1.254 . S
O415 Dy401 2.339 . S
O415 C402 1.257 . S
C416 C419 1.344 . S
C416 C420 1.328 . S
C416 C422 1.516 . S
C417 C418 1.304 . S
C417 C421 1.323 . S
C418 C417 1.304 . S
C418 C419 1.371 . S
C418 H432 0.930 . S
C419 C416 1.344 . S
C419 C418 1.371 . S
C419 H433 0.931 . S
C420 C416 1.328 . S
C420 C421 1.433 . S
C420 H434 0.931 . S
C421 C417 1.323 . S
C421 C420 1.433 . S
C421 H435 0.933 . S
C422 Dy400 2.738 . S
C422 O405 1.255 . S
C422 O406 1.249 . S
C422 C416 1.516 . S
C423 O407 1.254 . S
C423 O408 1.257 . S
C424 O409 1.266 . S
C424 O410 1.236 . S
C425 C428 1.344 . S
C425 C429 1.328 . S
C425 C431 1.516 . S
C426 C427 1.304 . S
C426 C430 1.323 . S
C427 C426 1.304 . S
C427 C428 1.371 . S
C427 H436 0.930 . S
C428 C425 1.344 . S
C428 C427 1.371 . S
C428 H437 0.931 . S
C429 C425 1.328 . S
C429 C430 1.433 . S
C429 H438 0.931 . S
C430 C426 1.323 . S
C430 C429 1.433 . S
C430 H439 0.933 . S
C431 Dy401 2.738 1_554 S
C431 O411 1.255 . S
C431 O412 1.249 . S
C431 C425 1.516 . S
H432 C418 0.930 . S
H433 C419 0.931 . S
H434 C420 0.931 . S
H435 C421 0.933 . S
H436 C427 0.930 . S
H437 C428 0.931 . S
H438 C429 0.931 . S
H439 C430 0.933 . S
Dy440 O443 2.307 . S
Dy440 O445 2.395 . S
Dy440 O446 2.379 . S
Dy440 O448 2.339 . S
Dy440 O450 2.298 . S
Dy440 O454 2.275 . S
Dy440 C462 2.738 . S
Dy441 O444 2.298 . S
Dy441 O447 2.275 . S
Dy441 O449 2.307 . S
Dy441 O451 2.395 1_556 S
Dy441 O452 2.379 1_556 S
Dy441 O455 2.339 . S
Dy441 C471 2.738 1_556 S
C442 O454 1.254 . S
C442 O455 1.257 . S
O443 Dy440 2.307 . S
O443 C453 1.266 . S
O444 Dy441 2.298 . S
O444 C453 1.236 . S
O445 Dy440 2.395 . S
O445 C462 1.255 . S
O446 Dy440 2.379 . S
O446 C462 1.249 . S
O447 Dy441 2.275 . S
O447 C463 1.254 . S
O448 Dy440 2.339 . S
O448 C463 1.257 . S
O449 Dy441 2.307 . S
O449 C464 1.266 . S
O450 Dy440 2.298 . S
O450 C464 1.236 . S
O451 Dy441 2.395 1_554 S
O451 C471 1.255 . S
O452 Dy441 2.379 1_554 S
O452 C471 1.249 . S
C453 O443 1.266 . S
C453 O444 1.236 . S
O454 Dy440 2.275 . S
O454 C442 1.254 . S
O455 Dy441 2.339 . S
O455 C442 1.257 . S
C456 C459 1.344 . S
C456 C460 1.328 . S
C456 C462 1.516 . S
C457 C458 1.304 . S
C457 C461 1.323 . S
C458 C457 1.304 . S
C458 C459 1.371 . S
C458 H472 0.930 . S
C459 C456 1.344 . S
C459 C458 1.371 . S
C459 H473 0.931 . S
C460 C456 1.328 . S
C460 C461 1.433 . S
C460 H474 0.931 . S
C461 C457 1.323 . S
C461 C460 1.433 . S
C461 H475 0.933 . S
C462 Dy440 2.738 . S
C462 O445 1.255 . S
C462 O446 1.249 . S
C462 C456 1.516 . S
C463 O447 1.254 . S
C463 O448 1.257 . S
C464 O449 1.266 . S
C464 O450 1.236 . S
C465 C468 1.344 . S
C465 C469 1.328 . S
C465 C471 1.516 . S
C466 C467 1.304 . S
C466 C470 1.323 . S
C467 C466 1.304 . S
C467 C468 1.371 . S
C467 H476 0.930 . S
C468 C465 1.344 . S
C468 C467 1.371 . S
C468 H477 0.931 . S
C469 C465 1.328 . S
C469 C470 1.433 . S
C469 H478 0.931 . S
C470 C466 1.323 . S
C470 C469 1.433 . S
C470 H479 0.933 . S
C471 Dy441 2.738 1_554 S
C471 O451 1.255 . S
C471 O452 1.249 . S
C471 C465 1.516 . S
H472 C458 0.930 . S
H473 C459 0.931 . S
H474 C460 0.931 . S
H475 C461 0.933 . S
H476 C467 0.930 . S
H477 C468 0.931 . S
H478 C469 0.931 . S
H479 C470 0.933 . S
Dy480 O483 2.307 . S
Dy480 O485 2.395 1_554 S
Dy480 O486 2.379 1_554 S
Dy480 O488 2.339 . S
Dy480 O490 2.298 . S
Dy480 O494 2.275 . S
Dy480 C502 2.738 1_554 S
Dy481 O484 2.298 . S
Dy481 O487 2.275 . S
Dy481 O489 2.307 . S
Dy481 O491 2.395 . S
Dy481 O492 2.379 . S
Dy481 O495 2.339 . S
Dy481 C511 2.738 . S
C482 O494 1.254 . S
C482 O495 1.257 . S
O483 Dy480 2.307 . S
O483 C493 1.266 . S
O484 Dy481 2.298 . S
O484 C493 1.236 . S
O485 Dy480 2.395 1_556 S
O485 C502 1.255 . S
O486 Dy480 2.379 1_556 S
O486 C502 1.249 . S
O487 Dy481 2.275 . S
O487 C503 1.254 . S
O488 Dy480 2.339 . S
O488 C503 1.257 . S
O489 Dy481 2.307 . S
O489 C504 1.266 . S
O490 Dy480 2.298 . S
O490 C504 1.236 . S
O491 Dy481 2.395 . S
O491 C511 1.255 . S
O492 Dy481 2.379 . S
O492 C511 1.249 . S
C493 O483 1.266 . S
C493 O484 1.236 . S
O494 Dy480 2.275 . S
O494 C482 1.254 . S
O495 Dy481 2.339 . S
O495 C482 1.257 . S
C496 C499 1.344 . S
C496 C500 1.328 . S
C496 C502 1.516 . S
C497 C498 1.304 . S
C497 C501 1.323 . S
C498 C497 1.304 . S
C498 C499 1.371 . S
C498 H512 0.930 . S
C499 C496 1.344 . S
C499 C498 1.371 . S
C499 H513 0.931 . S
C500 C496 1.328 . S
C500 C501 1.433 . S
C500 H514 0.931 . S
C501 C497 1.323 . S
C501 C500 1.433 . S
C501 H515 0.933 . S
C502 Dy480 2.738 1_556 S
C502 O485 1.255 . S
C502 O486 1.249 . S
C502 C496 1.516 . S
C503 O487 1.254 . S
C503 O488 1.257 . S
C504 O489 1.266 . S
C504 O490 1.236 . S
C505 C508 1.344 . S
C505 C509 1.328 . S
C505 C511 1.516 . S
C506 C507 1.304 . S
C506 C510 1.323 . S
C507 C506 1.304 . S
C507 C508 1.371 . S
C507 H516 0.930 . S
C508 C505 1.344 . S
C508 C507 1.371 . S
C508 H517 0.931 . S
C509 C505 1.328 . S
C509 C510 1.433 . S
C509 H518 0.931 . S
C510 C506 1.323 . S
C510 C509 1.433 . S
C510 H519 0.933 . S
C511 Dy481 2.738 . S
C511 O491 1.255 . S
C511 O492 1.249 . S
C511 C505 1.516 . S
H512 C498 0.930 . S
H513 C499 0.931 . S
H514 C500 0.931 . S
H515 C501 0.933 . S
H516 C507 0.930 . S
H517 C508 0.931 . S
H518 C509 0.931 . S
H519 C510 0.933 . S
Dy520 O523 2.307 . S
Dy520 O525 2.395 1_554 S
Dy520 O526 2.379 1_554 S
Dy520 O528 2.339 . S
Dy520 O530 2.298 . S
Dy520 O534 2.275 . S
Dy520 C542 2.738 1_554 S
Dy521 O524 2.298 . S
Dy521 O527 2.275 . S
Dy521 O529 2.307 . S
Dy521 O531 2.395 . S
Dy521 O532 2.379 . S
Dy521 O535 2.339 . S
Dy521 C551 2.738 . S
C522 O534 1.254 . S
C522 O535 1.257 . S
O523 Dy520 2.307 . S
O523 C533 1.266 . S
O524 Dy521 2.298 . S
O524 C533 1.236 . S
O525 Dy520 2.395 1_556 S
O525 C542 1.255 . S
O526 Dy520 2.379 1_556 S
O526 C542 1.249 . S
O527 Dy521 2.275 . S
O527 C543 1.254 . S
O528 Dy520 2.339 . S
O528 C543 1.257 . S
O529 Dy521 2.307 . S
O529 C544 1.266 . S
O530 Dy520 2.298 . S
O530 C544 1.236 . S
O531 Dy521 2.395 . S
O531 C551 1.255 . S
O532 Dy521 2.379 . S
O532 C551 1.249 . S
C533 O523 1.266 . S
C533 O524 1.236 . S
O534 Dy520 2.275 . S
O534 C522 1.254 . S
O535 Dy521 2.339 . S
O535 C522 1.257 . S
C536 C539 1.344 . S
C536 C540 1.328 . S
C536 C542 1.516 . S
C537 C538 1.304 . S
C537 C541 1.323 . S
C538 C537 1.304 . S
C538 C539 1.371 . S
C538 H552 0.930 . S
C539 C536 1.344 . S
C539 C538 1.371 . S
C539 H553 0.931 . S
C540 C536 1.328 . S
C540 C541 1.433 . S
C540 H554 0.931 . S
C541 C537 1.323 . S
C541 C540 1.433 . S
C541 H555 0.933 . S
C542 Dy520 2.738 1_556 S
C542 O525 1.255 . S
C542 O526 1.249 . S
C542 C536 1.516 . S
C543 O527 1.254 . S
C543 O528 1.257 . S
C544 O529 1.266 . S
C544 O530 1.236 . S
C545 C548 1.344 . S
C545 C549 1.328 . S
C545 C551 1.516 . S
C546 C547 1.304 . S
C546 C550 1.323 . S
C547 C546 1.304 . S
C547 C548 1.371 . S
C547 H556 0.930 . S
C548 C545 1.344 . S
C548 C547 1.371 . S
C548 H557 0.931 . S
C549 C545 1.328 . S
C549 C550 1.433 . S
C549 H558 0.931 . S
C550 C546 1.323 . S
C550 C549 1.433 . S
C550 H559 0.933 . S
C551 Dy521 2.738 . S
C551 O531 1.255 . S
C551 O532 1.249 . S
C551 C545 1.516 . S
H552 C538 0.930 . S
H553 C539 0.931 . S
H554 C540 0.931 . S
H555 C541 0.933 . S
H556 C547 0.930 . S
H557 C548 0.931 . S
H558 C549 0.931 . S
H559 C550 0.933 . S
Dy560 O563 2.307 . S
Dy560 O565 2.395 1_554 S
Dy560 O566 2.379 1_554 S
Dy560 O568 2.339 . S
Dy560 O570 2.298 . S
Dy560 O574 2.275 . S
Dy560 C582 2.738 1_554 S
Dy561 O564 2.298 . S
Dy561 O567 2.275 . S
Dy561 O569 2.307 . S
Dy561 O571 2.395 . S
Dy561 O572 2.379 . S
Dy561 O575 2.339 . S
Dy561 C591 2.738 . S
C562 O574 1.254 . S
C562 O575 1.257 . S
O563 Dy560 2.307 . S
O563 C573 1.266 . S
O564 Dy561 2.298 . S
O564 C573 1.236 . S
O565 Dy560 2.395 1_556 S
O565 C582 1.255 . S
O566 Dy560 2.379 1_556 S
O566 C582 1.249 . S
O567 Dy561 2.275 . S
O567 C583 1.254 . S
O568 Dy560 2.339 . S
O568 C583 1.257 . S
O569 Dy561 2.307 . S
O569 C584 1.266 . S
O570 Dy560 2.298 . S
O570 C584 1.236 . S
O571 Dy561 2.395 . S
O571 C591 1.255 . S
O572 Dy561 2.379 . S
O572 C591 1.249 . S
C573 O563 1.266 . S
C573 O564 1.236 . S
O574 Dy560 2.275 . S
O574 C562 1.254 . S
O575 Dy561 2.339 . S
O575 C562 1.257 . S
C576 C579 1.344 . S
C576 C580 1.328 . S
C576 C582 1.516 . S
C577 C578 1.304 . S
C577 C581 1.323 . S
C578 C577 1.304 . S
C578 C579 1.371 . S
C578 H592 0.930 . S
C579 C576 1.344 . S
C579 C578 1.371 . S
C579 H593 0.931 . S
C580 C576 1.328 . S
C580 C581 1.433 . S
C580 H594 0.931 . S
C581 C577 1.323 . S
C581 C580 1.433 . S
C581 H595 0.933 . S
C582 Dy560 2.738 1_556 S
C582 O565 1.255 . S
C582 O566 1.249 . S
C582 C576 1.516 . S
C583 O567 1.254 . S
C583 O568 1.257 . S
C584 O569 1.266 . S
C584 O570 1.236 . S
C585 C588 1.344 . S
C585 C589 1.328 . S
C585 C591 1.516 . S
C586 C587 1.304 . S
C586 C590 1.323 . S
C587 C586 1.304 . S
C587 C588 1.371 . S
C587 H596 0.930 . S
C588 C585 1.344 . S
C588 C587 1.371 . S
C588 H597 0.931 . S
C589 C585 1.328 . S
C589 C590 1.433 . S
C589 H598 0.931 . S
C590 C586 1.323 . S
C590 C589 1.433 . S
C590 H599 0.933 . S
C591 Dy561 2.738 . S
C591 O571 1.255 . S
C591 O572 1.249 . S
C591 C585 1.516 . S
H592 C578 0.930 . S
H593 C579 0.931 . S
H594 C580 0.931 . S
H595 C581 0.933 . S
H596 C587 0.930 . S
H597 C588 0.931 . S
H598 C589 0.931 . S
H599 C590 0.933 . S
Dy600 O603 2.307 . S
Dy600 O605 2.395 . S
Dy600 O606 2.379 . S
Dy600 O608 2.339 . S
Dy600 O610 2.298 . S
Dy600 O614 2.275 . S
Dy600 C622 2.738 . S
Dy601 O604 2.298 . S
Dy601 O607 2.275 . S
Dy601 O609 2.307 . S
Dy601 O611 2.395 . S
Dy601 O612 2.379 . S
Dy601 O615 2.339 . S
Dy601 C631 2.738 . S
C602 O614 1.254 . S
C602 O615 1.257 . S
O603 Dy600 2.307 . S
O603 C613 1.266 . S
O604 Dy601 2.298 . S
O604 C613 1.236 . S
O605 Dy600 2.395 . S
O605 C622 1.255 . S
O606 Dy600 2.379 . S
O606 C622 1.249 . S
O607 Dy601 2.275 . S
O607 C623 1.254 . S
O608 Dy600 2.339 . S
O608 C623 1.257 . S
O609 Dy601 2.307 . S
O609 C624 1.266 . S
O610 Dy600 2.298 . S
O610 C624 1.236 . S
O611 Dy601 2.395 . S
O611 C631 1.255 . S
O612 Dy601 2.379 . S
O612 C631 1.249 . S
C613 O603 1.266 . S
C613 O604 1.236 . S
O614 Dy600 2.275 . S
O614 C602 1.254 . S
O615 Dy601 2.339 . S
O615 C602 1.257 . S
C616 C619 1.344 . S
C616 C620 1.328 . S
C616 C622 1.516 1_556 S
C617 C618 1.304 . S
C617 C621 1.323 . S
C618 C617 1.304 . S
C618 C619 1.371 . S
C618 H632 0.930 . S
C619 C616 1.344 . S
C619 C618 1.371 . S
C619 H633 0.931 . S
C620 C616 1.328 . S
C620 C621 1.433 . S
C620 H634 0.931 . S
C621 C617 1.323 . S
C621 C620 1.433 . S
C621 H635 0.933 . S
C622 Dy600 2.738 . S
C622 O605 1.255 . S
C622 O606 1.249 . S
C622 C616 1.516 1_554 S
C623 O607 1.254 . S
C623 O608 1.257 . S
C624 O609 1.266 . S
C624 O610 1.236 . S
C625 C628 1.344 . S
C625 C629 1.328 . S
C625 C631 1.516 . S
C626 C627 1.304 . S
C626 C630 1.323 . S
C627 C626 1.304 . S
C627 C628 1.371 . S
C627 H636 0.930 . S
C628 C625 1.344 . S
C628 C627 1.371 . S
C628 H637 0.931 . S
C629 C625 1.328 . S
C629 C630 1.433 . S
C629 H638 0.931 . S
C630 C626 1.323 . S
C630 C629 1.433 . S
C630 H639 0.933 . S
C631 Dy601 2.738 . S
C631 O611 1.255 . S
C631 O612 1.249 . S
C631 C625 1.516 . S
H632 C618 0.930 . S
H633 C619 0.931 . S
H634 C620 0.931 . S
H635 C621 0.933 . S
H636 C627 0.930 . S
H637 C628 0.931 . S
H638 C629 0.931 . S
H639 C630 0.933 . S
Dy640 O643 2.307 . S
Dy640 O645 2.395 . S
Dy640 O646 2.379 . S
Dy640 O648 2.339 . S
Dy640 O650 2.298 . S
Dy640 O654 2.275 . S
Dy640 C662 2.738 . S
Dy641 O644 2.298 . S
Dy641 O647 2.275 . S
Dy641 O649 2.307 . S
Dy641 O651 2.395 . S
Dy641 O652 2.379 . S
Dy641 O655 2.339 . S
Dy641 C671 2.738 . S
C642 O654 1.254 . S
C642 O655 1.257 . S
O643 Dy640 2.307 . S
O643 C653 1.266 . S
O644 Dy641 2.298 . S
O644 C653 1.236 . S
O645 Dy640 2.395 . S
O645 C662 1.255 . S
O646 Dy640 2.379 . S
O646 C662 1.249 . S
O647 Dy641 2.275 . S
O647 C663 1.254 . S
O648 Dy640 2.339 . S
O648 C663 1.257 . S
O649 Dy641 2.307 . S
O649 C664 1.266 . S
O650 Dy640 2.298 . S
O650 C664 1.236 . S
O651 Dy641 2.395 . S
O651 C671 1.255 . S
O652 Dy641 2.379 . S
O652 C671 1.249 . S
C653 O643 1.266 . S
C653 O644 1.236 . S
O654 Dy640 2.275 . S
O654 C642 1.254 . S
O655 Dy641 2.339 . S
O655 C642 1.257 . S
C656 C659 1.344 . S
C656 C660 1.328 . S
C656 C662 1.516 1_556 S
C657 C658 1.304 . S
C657 C661 1.323 . S
C658 C657 1.304 . S
C658 C659 1.371 . S
C658 H672 0.930 . S
C659 C656 1.344 . S
C659 C658 1.371 . S
C659 H673 0.931 . S
C660 C656 1.328 . S
C660 C661 1.433 . S
C660 H674 0.931 . S
C661 C657 1.323 . S
C661 C660 1.433 . S
C661 H675 0.933 . S
C662 Dy640 2.738 . S
C662 O645 1.255 . S
C662 O646 1.249 . S
C662 C656 1.516 1_554 S
C663 O647 1.254 . S
C663 O648 1.257 . S
C664 O649 1.266 . S
C664 O650 1.236 . S
C665 C668 1.344 . S
C665 C669 1.328 . S
C665 C671 1.516 . S
C666 C667 1.304 . S
C666 C670 1.323 . S
C667 C666 1.304 . S
C667 C668 1.371 . S
C667 H676 0.930 . S
C668 C665 1.344 . S
C668 C667 1.371 . S
C668 H677 0.931 . S
C669 C665 1.328 . S
C669 C670 1.433 . S
C669 H678 0.931 . S
C670 C666 1.323 . S
C670 C669 1.433 . S
C670 H679 0.933 . S
C671 Dy641 2.738 . S
C671 O651 1.255 . S
C671 O652 1.249 . S
C671 C665 1.516 . S
H672 C658 0.930 . S
H673 C659 0.931 . S
H674 C660 0.931 . S
H675 C661 0.933 . S
H676 C667 0.930 . S
H677 C668 0.931 . S
H678 C669 0.931 . S
H679 C670 0.933 . S
Dy680 O683 2.307 . S
Dy680 O685 2.395 . S
Dy680 O686 2.379 . S
Dy680 O688 2.339 . S
Dy680 O690 2.298 . S
Dy680 O694 2.275 . S
Dy680 C702 2.738 . S
Dy681 O684 2.298 . S
Dy681 O687 2.275 . S
Dy681 O689 2.307 . S
Dy681 O691 2.395 . S
Dy681 O692 2.379 . S
Dy681 O695 2.339 . S
Dy681 C711 2.738 . S
C682 O694 1.254 . S
C682 O695 1.257 . S
O683 Dy680 2.307 . S
O683 C693 1.266 . S
O684 Dy681 2.298 . S
O684 C693 1.236 . S
O685 Dy680 2.395 . S
O685 C702 1.255 . S
O686 Dy680 2.379 . S
O686 C702 1.249 . S
O687 Dy681 2.275 . S
O687 C703 1.254 . S
O688 Dy680 2.339 . S
O688 C703 1.257 . S
O689 Dy681 2.307 . S
O689 C704 1.266 . S
O690 Dy680 2.298 . S
O690 C704 1.236 . S
O691 Dy681 2.395 . S
O691 C711 1.255 . S
O692 Dy681 2.379 . S
O692 C711 1.249 . S
C693 O683 1.266 . S
C693 O684 1.236 . S
O694 Dy680 2.275 . S
O694 C682 1.254 . S
O695 Dy681 2.339 . S
O695 C682 1.257 . S
C696 C699 1.344 . S
C696 C700 1.328 . S
C696 C702 1.516 1_556 S
C697 C698 1.304 . S
C697 C701 1.323 . S
C698 C697 1.304 . S
C698 C699 1.371 . S
C698 H712 0.930 . S
C699 C696 1.344 . S
C699 C698 1.371 . S
C699 H713 0.931 . S
C700 C696 1.328 . S
C700 C701 1.433 . S
C700 H714 0.931 . S
C701 C697 1.323 . S
C701 C700 1.433 . S
C701 H715 0.933 . S
C702 Dy680 2.738 . S
C702 O685 1.255 . S
C702 O686 1.249 . S
C702 C696 1.516 1_554 S
C703 O687 1.254 . S
C703 O688 1.257 . S
C704 O689 1.266 . S
C704 O690 1.236 . S
C705 C708 1.344 . S
C705 C709 1.328 . S
C705 C711 1.516 . S
C706 C707 1.304 . S
C706 C710 1.323 . S
C707 C706 1.304 . S
C707 C708 1.371 . S
C707 H716 0.930 . S
C708 C705 1.344 . S
C708 C707 1.371 . S
C708 H717 0.931 . S
C709 C705 1.328 . S
C709 C710 1.433 . S
C709 H718 0.931 . S
C710 C706 1.323 . S
C710 C709 1.433 . S
C710 H719 0.933 . S
C711 Dy681 2.738 . S
C711 O691 1.255 . S
C711 O692 1.249 . S
C711 C705 1.516 . S
H712 C698 0.930 . S
H713 C699 0.931 . S
H714 C700 0.931 . S
H715 C701 0.933 . S
H716 C707 0.930 . S
H717 C708 0.931 . S
H718 C709 0.931 . S
H719 C710 0.933 . S
C720 C721 1.363 . S
C720 C726 1.379 . S
C720 N728 1.356 . S
C721 C720 1.363 . S
C721 C727 1.363 . S
C722 C723 1.363 . S
C722 C727 1.379 . S
C722 N729 1.356 . S
C723 C722 1.363 . S
C723 C726 1.363 . S
N724 C726 1.356 . S
N724 H736 0.984 . S
N724 H737 0.985 . S
N725 C727 1.356 . S
N725 H730 0.984 . S
N725 H731 0.985 . S
C726 C720 1.379 . S
C726 C723 1.363 . S
C726 N724 1.356 . S
C727 C721 1.363 . S
C727 C722 1.379 . S
C727 N725 1.356 . S
N728 C720 1.356 . S
N728 H734 0.984 . S
N728 H735 0.984 . S
N729 C722 1.356 . S
N729 H732 0.984 . S
N729 H733 0.985 1_455 S
H730 N725 0.984 . S
H731 N725 0.985 . S
H732 N729 0.984 . S
H733 N729 0.985 1_655 S
H734 N728 0.984 . S
H735 N728 0.984 . S
H736 N724 0.984 . S
H737 N724 0.985 . S
C738 C739 1.363 . S
C738 C744 1.379 . S
C738 N746 1.356 . S
C739 C738 1.363 . S
C739 C745 1.363 . S
C740 C741 1.363 . S
C740 C745 1.379 . S
C740 N747 1.356 . S
C741 C740 1.363 . S
C741 C744 1.363 . S
N742 C744 1.356 . S
N742 H754 0.984 . S
N742 H755 0.985 . S
N743 C745 1.356 . S
N743 H748 0.984 . S
N743 H749 0.985 . S
C744 C738 1.379 . S
C744 C741 1.363 . S
C744 N742 1.356 . S
C745 C739 1.363 . S
C745 C740 1.379 . S
C745 N743 1.356 . S
N746 C738 1.356 . S
N746 H752 0.984 . S
N746 H753 0.984 . S
N747 C740 1.356 . S
N747 H750 0.984 . S
N747 H751 0.985 . S
H748 N743 0.984 . S
H749 N743 0.985 . S
H750 N747 0.984 . S
H751 N747 0.985 . S
H752 N746 0.984 . S
H753 N746 0.984 . S
H754 N742 0.984 . S
H755 N742 0.985 . S
C756 C757 1.363 . S
C756 C762 1.379 . S
C756 N764 1.356 . S
C757 C756 1.363 . S
C757 C763 1.363 . S
C758 C759 1.363 . S
C758 C763 1.379 . S
C758 N765 1.356 . S
C759 C758 1.363 . S
C759 C762 1.363 . S
N760 C762 1.356 . S
N760 H772 0.984 . S
N760 H773 0.985 . S
N761 C763 1.356 . S
N761 H766 0.984 . S
N761 H767 0.985 . S
C762 C756 1.379 . S
C762 C759 1.363 . S
C762 N760 1.356 . S
C763 C757 1.363 . S
C763 C758 1.379 . S
C763 N761 1.356 . S
N764 C756 1.356 . S
N764 H770 0.984 . S
N764 H771 0.984 . S
N765 C758 1.356 . S
N765 H768 0.984 . S
N765 H769 0.985 . S
H766 N761 0.984 . S
H767 N761 0.985 . S
H768 N765 0.984 . S
H769 N765 0.985 . S
H770 N764 0.984 . S
H771 N764 0.984 . S
H772 N760 0.984 . S
H773 N760 0.985 . S
C774 C775 1.363 . S
C774 C780 1.379 . S
C774 N782 1.356 . S
C775 C774 1.363 . S
C775 C781 1.363 . S
C776 C777 1.363 . S
C776 C781 1.379 . S
C776 N783 1.356 . S
C777 C776 1.363 . S
C777 C780 1.363 . S
N778 C780 1.356 . S
N778 H790 0.984 . S
N778 H791 0.985 . S
N779 C781 1.356 . S
N779 H784 0.984 . S
N779 H785 0.985 . S
C780 C774 1.379 . S
C780 C777 1.363 . S
C780 N778 1.356 . S
C781 C775 1.363 . S
C781 C776 1.379 . S
C781 N779 1.356 . S
N782 C774 1.356 . S
N782 H788 0.984 . S
N782 H789 0.984 . S
N783 C776 1.356 . S
N783 H786 0.984 . S
N783 H787 0.985 . S
H784 N779 0.984 . S
H785 N779 0.985 . S
H786 N783 0.984 . S
H787 N783 0.985 . S
H788 N782 0.984 . S
H789 N782 0.984 . S
H790 N778 0.984 . S
H791 N778 0.985 . S
C792 C793 1.363 . S
C792 C798 1.379 . S
C792 N800 1.356 . S
C793 C792 1.363 . S
C793 C799 1.363 . S
C794 C795 1.363 . S
C794 C799 1.379 . S
C794 N801 1.356 . S
C795 C794 1.363 . S
C795 C798 1.363 . S
N796 C798 1.356 . S
N796 H808 0.984 . S
N796 H809 0.985 . S
N797 C799 1.356 . S
N797 H802 0.984 . S
N797 H803 0.985 . S
C798 C792 1.379 . S
C798 C795 1.363 . S
C798 N796 1.356 . S
C799 C793 1.363 . S
C799 C794 1.379 . S
C799 N797 1.356 . S
N800 C792 1.356 . S
N800 H806 0.984 . S
N800 H807 0.984 . S
N801 C794 1.356 . S
N801 H804 0.984 . S
N801 H805 0.985 . S
H802 N797 0.984 . S
H803 N797 0.985 . S
H804 N801 0.984 . S
H805 N801 0.985 . S
H806 N800 0.984 . S
H807 N800 0.984 . S
H808 N796 0.984 . S
H809 N796 0.985 . S
C810 C811 1.363 . S
C810 C816 1.379 . S
C810 N818 1.356 . S
C811 C810 1.363 . S
C811 C817 1.363 . S
C812 C813 1.363 . S
C812 C817 1.379 . S
C812 N819 1.356 . S
C813 C812 1.363 . S
C813 C816 1.363 . S
N814 C816 1.356 . S
N814 H826 0.984 . S
N814 H827 0.985 . S
N815 C817 1.356 . S
N815 H820 0.984 . S
N815 H821 0.985 . S
C816 C810 1.379 . S
C816 C813 1.363 . S
C816 N814 1.356 . S
C817 C811 1.363 . S
C817 C812 1.379 . S
C817 N815 1.356 . S
N818 C810 1.356 . S
N818 H824 0.984 . S
N818 H825 0.984 . S
N819 C812 1.356 . S
N819 H822 0.984 . S
N819 H823 0.985 . S
H820 N815 0.984 . S
H821 N815 0.985 . S
H822 N819 0.984 . S
H823 N819 0.985 . S
H824 N818 0.984 . S
H825 N818 0.984 . S
H826 N814 0.984 . S
H827 N814 0.985 . S
C828 C829 1.363 . S
C828 C834 1.379 . S
C828 N836 1.356 . S
C829 C828 1.363 . S
C829 C835 1.363 . S
C830 C831 1.363 . S
C830 C835 1.379 . S
C830 N837 1.356 . S
C831 C830 1.363 . S
C831 C834 1.363 . S
N832 C834 1.356 . S
N832 H844 0.984 . S
N832 H845 0.985 . S
N833 C835 1.356 . S
N833 H838 0.984 . S
N833 H839 0.985 . S
C834 C828 1.379 . S
C834 C831 1.363 . S
C834 N832 1.356 . S
C835 C829 1.363 . S
C835 C830 1.379 . S
C835 N833 1.356 . S
N836 C828 1.356 . S
N836 H842 0.984 . S
N836 H843 0.984 . S
N837 C830 1.356 . S
N837 H840 0.984 . S
N837 H841 0.985 . S
H838 N833 0.984 . S
H839 N833 0.985 . S
H840 N837 0.984 . S
H841 N837 0.985 . S
H842 N836 0.984 . S
H843 N836 0.984 . S
H844 N832 0.984 . S
H845 N832 0.985 . S
C846 C847 1.363 . S
C846 C852 1.379 . S
C846 N854 1.356 . S
C847 C846 1.363 . S
C847 C853 1.363 . S
C848 C849 1.363 . S
C848 C853 1.379 . S
C848 N855 1.356 . S
C849 C848 1.363 . S
C849 C852 1.363 . S
N850 C852 1.356 . S
N850 H862 0.984 . S
N850 H863 0.985 . S
N851 C853 1.356 . S
N851 H856 0.984 . S
N851 H857 0.985 . S
C852 C846 1.379 . S
C852 C849 1.363 . S
C852 N850 1.356 . S
C853 C847 1.363 . S
C853 C848 1.379 . S
C853 N851 1.356 . S
N854 C846 1.356 . S
N854 H860 0.984 . S
N854 H861 0.984 . S
N855 C848 1.356 . S
N855 H858 0.984 . S
N855 H859 0.985 . S
H856 N851 0.984 . S
H857 N851 0.985 . S
H858 N855 0.984 . S
H859 N855 0.985 . S
H860 N854 0.984 . S
H861 N854 0.984 . S
H862 N850 0.984 . S
H863 N850 0.985 . S
C864 C865 1.363 . S
C864 C870 1.379 . S
C864 N872 1.356 . S
C865 C864 1.363 . S
C865 C871 1.363 . S
C866 C867 1.363 . S
C866 C871 1.379 . S
C866 N873 1.356 . S
C867 C866 1.363 . S
C867 C870 1.363 . S
N868 C870 1.356 . S
N868 H880 0.984 . S
N868 H881 0.985 . S
N869 C871 1.356 . S
N869 H874 0.984 . S
N869 H875 0.985 . S
C870 C864 1.379 . S
C870 C867 1.363 . S
C870 N868 1.356 . S
C871 C865 1.363 . S
C871 C866 1.379 . S
C871 N869 1.356 . S
N872 C864 1.356 . S
N872 H878 0.984 . S
N872 H879 0.984 . S
N873 C866 1.356 . S
N873 H876 0.984 . S
N873 H877 0.985 . S
H874 N869 0.984 . S
H875 N869 0.985 . S
H876 N873 0.984 . S
H877 N873 0.985 . S
H878 N872 0.984 . S
H879 N872 0.984 . S
H880 N868 0.984 . S
H881 N868 0.985 . S
C882 C883 1.363 . S
C882 C888 1.379 . S
C882 N890 1.356 . S
C883 C882 1.363 . S
C883 C889 1.363 . S
C884 C885 1.363 . S
C884 C889 1.379 . S
C884 N891 1.356 . S
C885 C884 1.363 . S
C885 C888 1.363 . S
N886 C888 1.356 . S
N886 H898 0.984 . S
N886 H899 0.985 . S
N887 C889 1.356 . S
N887 H892 0.984 . S
N887 H893 0.985 . S
C888 C882 1.379 . S
C888 C885 1.363 . S
C888 N886 1.356 . S
C889 C883 1.363 . S
C889 C884 1.379 . S
C889 N887 1.356 . S
N890 C882 1.356 . S
N890 H896 0.984 . S
N890 H897 0.984 . S
N891 C884 1.356 . S
N891 H894 0.984 . S
N891 H895 0.985 . S
H892 N887 0.984 . S
H893 N887 0.985 . S
H894 N891 0.984 . S
H895 N891 0.985 . S
H896 N890 0.984 . S
H897 N890 0.984 . S
H898 N886 0.984 . S
H899 N886 0.985 . S
C900 C901 1.363 . S
C900 C906 1.379 . S
C900 N908 1.356 . S
C901 C900 1.363 . S
C901 C907 1.363 . S
C902 C903 1.363 . S
C902 C907 1.379 . S
C902 N909 1.356 . S
C903 C902 1.363 . S
C903 C906 1.363 . S
N904 C906 1.356 . S
N904 H916 0.984 . S
N904 H917 0.985 . S
N905 C907 1.356 . S
N905 H910 0.984 . S
N905 H911 0.985 . S
C906 C900 1.379 . S
C906 C903 1.363 . S
C906 N904 1.356 . S
C907 C901 1.363 . S
C907 C902 1.379 . S
C907 N905 1.356 . S
N908 C900 1.356 . S
N908 H914 0.984 . S
N908 H915 0.984 . S
N909 C902 1.356 . S
N909 H912 0.984 . S
N909 H913 0.985 . S
H910 N905 0.984 . S
H911 N905 0.985 . S
H912 N909 0.984 . S
H913 N909 0.985 . S
H914 N908 0.984 . S
H915 N908 0.984 . S
H916 N904 0.984 . S
H917 N904 0.985 . S
C918 C919 1.363 . S
C918 C924 1.379 . S
C918 N926 1.356 . S
C919 C918 1.363 . S
C919 C925 1.363 . S
C920 C921 1.363 . S
C920 C925 1.379 . S
C920 N927 1.356 . S
C921 C920 1.363 . S
C921 C924 1.363 . S
N922 C924 1.356 . S
N922 H934 0.984 . S
N922 H935 0.985 . S
N923 C925 1.356 . S
N923 H928 0.984 . S
N923 H929 0.985 . S
C924 C918 1.379 . S
C924 C921 1.363 . S
C924 N922 1.356 . S
C925 C919 1.363 . S
C925 C920 1.379 . S
C925 N923 1.356 . S
N926 C918 1.356 . S
N926 H932 0.984 . S
N926 H933 0.984 . S
N927 C920 1.356 . S
N927 H930 0.984 . S
N927 H931 0.985 . S
H928 N923 0.984 . S
H929 N923 0.985 . S
H930 N927 0.984 . S
H931 N927 0.985 . S
H932 N926 0.984 . S
H933 N926 0.984 . S
H934 N922 0.984 . S
H935 N922 0.985 . S
C936 C937 1.363 1_455 S
C936 C942 1.379 . S
C936 N944 1.356 . S
C937 C936 1.363 1_655 S
C937 C943 1.363 . S
C938 C939 1.363 1_655 S
C938 C943 1.379 . S
C938 N945 1.356 1_556 S
C939 C938 1.363 1_455 S
C939 C942 1.363 . S
N940 C942 1.356 . S
N940 H952 0.984 . S
N940 H953 0.985 1_556 S
N941 C943 1.356 . S
N941 H946 0.984 . S
N941 H947 0.985 . S
C942 C936 1.379 . S
C942 C939 1.363 . S
C942 N940 1.356 . S
C943 C937 1.363 . S
C943 C938 1.379 . S
C943 N941 1.356 . S
N944 C936 1.356 . S
N944 H950 0.984 . S
N944 H951 0.984 . S
N945 C938 1.356 1_554 S
N945 H948 0.984 1_655 S
N945 H949 0.985 . S
H946 N941 0.984 . S
H947 N941 0.985 . S
H948 N945 0.984 1_455 S
H949 N945 0.985 . S
H950 N944 0.984 . S
H951 N944 0.984 . S
H952 N940 0.984 . S
H953 N940 0.985 1_554 S
C954 C955 1.363 . S
C954 C960 1.379 . S
C954 N962 1.356 . S
C955 C954 1.363 . S
C955 C961 1.363 . S
C956 C957 1.363 . S
C956 C961 1.379 . S
C956 N963 1.356 1_556 S
C957 C956 1.363 . S
C957 C960 1.363 . S
N958 C960 1.356 . S
N958 H970 0.984 . S
N958 H971 0.985 1_556 S
N959 C961 1.356 . S
N959 H964 0.984 . S
N959 H965 0.985 . S
C960 C954 1.379 . S
C960 C957 1.363 . S
C960 N958 1.356 . S
C961 C955 1.363 . S
C961 C956 1.379 . S
C961 N959 1.356 . S
N962 C954 1.356 . S
N962 H968 0.984 . S
N962 H969 0.984 . S
N963 C956 1.356 1_554 S
N963 H966 0.984 . S
N963 H967 0.985 . S
H964 N959 0.984 . S
H965 N959 0.985 . S
H966 N963 0.984 . S
H967 N963 0.985 . S
H968 N962 0.984 . S
H969 N962 0.984 . S
H970 N958 0.984 . S
H971 N958 0.985 1_554 S
C972 C973 1.363 1_565 S
C972 C978 1.379 . S
C972 N980 1.356 . S
C973 C972 1.363 1_545 S
C973 C979 1.363 . S
C974 C975 1.363 1_545 S
C974 C979 1.379 . S
C974 N981 1.356 1_556 S
C975 C974 1.363 1_565 S
C975 C978 1.363 . S
N976 C978 1.356 . S
N976 H988 0.984 . S
N976 H989 0.985 1_556 S
N977 C979 1.356 . S
N977 H982 0.984 . S
N977 H983 0.985 . S
C978 C972 1.379 . S
C978 C975 1.363 . S
C978 N976 1.356 . S
C979 C973 1.363 . S
C979 C974 1.379 . S
C979 N977 1.356 . S
N980 C972 1.356 . S
N980 H986 0.984 . S
N980 H987 0.984 1_565 S
N981 C974 1.356 1_554 S
N981 H984 0.984 1_545 S
N981 H985 0.985 . S
H982 N977 0.984 . S
H983 N977 0.985 . S
H984 N981 0.984 1_565 S
H985 N981 0.985 . S
H986 N980 0.984 . S
H987 N980 0.984 1_545 S
H988 N976 0.984 . S
H989 N976 0.985 1_554 S
C990 C991 1.363 1_565 S
C990 C996 1.379 . S
C990 N998 1.356 1_554 S
C991 C990 1.363 1_545 S
C991 C997 1.363 . S
C992 C993 1.363 1_545 S
C992 C997 1.379 . S
C992 N999 1.356 . S
C993 C992 1.363 1_565 S
C993 C996 1.363 . S
N994 C996 1.356 . S
N994 H1006 0.984 . S
N994 H1007 0.985 . S
N995 C997 1.356 . S
N995 H1000 0.984 1_554 S
N995 H1001 0.985 . S
C996 C990 1.379 . S
C996 C993 1.363 . S
C996 N994 1.356 . S
C997 C991 1.363 . S
C997 C992 1.379 . S
C997 N995 1.356 . S
N998 C990 1.356 1_556 S
N998 H1004 0.984 . S
N998 H1005 0.984 1_565 S
N999 C992 1.356 . S
N999 H1002 0.984 . S
N999 H1003 0.985 . S
H1000 N995 0.984 1_556 S
H1001 N995 0.985 . S
H1002 N999 0.984 . S
H1003 N999 0.985 . S
H1004 N998 0.984 . S
H1005 N998 0.984 1_545 S
H1006 N994 0.984 . S
H1007 N994 0.985 . S
C1008 C1009 1.363 . S
C1008 C1014 1.379 . S
C1008 N1016 1.356 . S
C1009 C1008 1.363 . S
C1009 C1015 1.363 . S
C1010 C1011 1.363 . S
C1010 C1015 1.379 1_655 S
C1010 N1017 1.356 . S
C1011 C1010 1.363 . S
C1011 C1014 1.363 1_655 S
N1012 C1014 1.356 1_656 S
N1012 H1024 0.984 1_655 S
N1012 H1025 0.985 . S
N1013 C1015 1.356 . S
N1013 H1018 0.984 . S
N1013 H1019 0.985 . S
C1014 C1008 1.379 . S
C1014 C1011 1.363 1_455 S
C1014 N1012 1.356 1_454 S
C1015 C1009 1.363 . S
C1015 C1010 1.379 1_455 S
C1015 N1013 1.356 . S
N1016 C1008 1.356 . S
N1016 H1022 0.984 . S
N1016 H1023 0.984 . S
N1017 C1010 1.356 . S
N1017 H1020 0.984 1_554 S
N1017 H1021 0.985 . S
H1018 N1013 0.984 . S
H1019 N1013 0.985 . S
H1020 N1017 0.984 1_556 S
H1021 N1017 0.985 . S
H1022 N1016 0.984 . S
H1023 N1016 0.984 . S
H1024 N1012 0.984 1_455 S
H1025 N1012 0.985 . S
C1026 C1027 1.363 . S
C1026 C1032 1.379 . S
C1026 N1034 1.356 . S
C1027 C1026 1.363 . S
C1027 C1033 1.363 . S
C1028 C1029 1.363 . S
C1028 C1033 1.379 . S
C1028 N1035 1.356 1_554 S
C1029 C1028 1.363 . S
C1029 C1032 1.363 . S
N1030 C1032 1.356 . S
N1030 H1042 0.984 . S
N1030 H1043 0.985 1_554 S
N1031 C1033 1.356 . S
N1031 H1036 0.984 . S
N1031 H1037 0.985 . S
C1032 C1026 1.379 . S
C1032 C1029 1.363 . S
C1032 N1030 1.356 . S
C1033 C1027 1.363 . S
C1033 C1028 1.379 . S
C1033 N1031 1.356 . S
N1034 C1026 1.356 . S
N1034 H1040 0.984 . S
N1034 H1041 0.984 . S
N1035 C1028 1.356 1_556 S
N1035 H1038 0.984 . S
N1035 H1039 0.985 . S
H1036 N1031 0.984 . S
H1037 N1031 0.985 . S
H1038 N1035 0.984 . S
H1039 N1035 0.985 . S
H1040 N1034 0.984 . S
H1041 N1034 0.984 . S
H1042 N1030 0.984 . S
H1043 N1030 0.985 1_556 S
C1044 C1045 1.363 . S
C1044 C1050 1.379 . S
C1044 N1052 1.356 . S
C1045 C1044 1.363 . S
C1045 C1051 1.363 . S
C1046 C1047 1.363 . S
C1046 C1051 1.379 . S
C1046 N1053 1.356 . S
C1047 C1046 1.363 . S
C1047 C1050 1.363 . S
N1048 C1050 1.356 . S
N1048 H1060 0.984 . S
N1048 H1061 0.985 . S
N1049 C1051 1.356 . S
N1049 H1054 0.984 . S
N1049 H1055 0.985 . S
C1050 C1044 1.379 . S
C1050 C1047 1.363 . S
C1050 N1048 1.356 . S
C1051 C1045 1.363 . S
C1051 C1046 1.379 . S
C1051 N1049 1.356 . S
N1052 C1044 1.356 . S
N1052 H1058 0.984 . S
N1052 H1059 0.984 . S
N1053 C1046 1.356 . S
N1053 H1056 0.984 . S
N1053 H1057 0.985 . S
H1054 N1049 0.984 . S
H1055 N1049 0.985 . S
H1056 N1053 0.984 . S
H1057 N1053 0.985 . S
H1058 N1052 0.984 . S
H1059 N1052 0.984 . S
H1060 N1048 0.984 . S
H1061 N1048 0.985 . S
C1062 C1063 1.363 . S
C1062 C1068 1.379 . S
C1062 N1070 1.356 . S
C1063 C1062 1.363 . S
C1063 C1069 1.363 . S
C1064 C1065 1.363 . S
C1064 C1069 1.379 . S
C1064 N1071 1.356 . S
C1065 C1064 1.363 . S
C1065 C1068 1.363 . S
N1066 C1068 1.356 . S
N1066 H1078 0.984 . S
N1066 H1079 0.985 . S
N1067 C1069 1.356 . S
N1067 H1072 0.984 . S
N1067 H1073 0.985 . S
C1068 C1062 1.379 . S
C1068 C1065 1.363 . S
C1068 N1066 1.356 . S
C1069 C1063 1.363 . S
C1069 C1064 1.379 . S
C1069 N1067 1.356 . S
N1070 C1062 1.356 . S
N1070 H1076 0.984 . S
N1070 H1077 0.984 . S
N1071 C1064 1.356 . S
N1071 H1074 0.984 . S
N1071 H1075 0.985 . S
H1072 N1067 0.984 . S
H1073 N1067 0.985 . S
H1074 N1071 0.984 . S
H1075 N1071 0.985 . S
H1076 N1070 0.984 . S
H1077 N1070 0.984 . S
H1078 N1066 0.984 . S
H1079 N1066 0.985 . S
C1080 C1081 1.363 . S
C1080 C1086 1.379 . S
C1080 N1088 1.356 . S
C1081 C1080 1.363 . S
C1081 C1087 1.363 . S
C1082 C1083 1.363 . S
C1082 C1087 1.379 . S
C1082 N1089 1.356 . S
C1083 C1082 1.363 . S
C1083 C1086 1.363 . S
N1084 C1086 1.356 . S
N1084 H1096 0.984 . S
N1084 H1097 0.985 . S
N1085 C1087 1.356 . S
N1085 H1090 0.984 . S
N1085 H1091 0.985 . S
C1086 C1080 1.379 . S
C1086 C1083 1.363 . S
C1086 N1084 1.356 . S
C1087 C1081 1.363 . S
C1087 C1082 1.379 . S
C1087 N1085 1.356 . S
N1088 C1080 1.356 . S
N1088 H1094 0.984 . S
N1088 H1095 0.984 . S
N1089 C1082 1.356 . S
N1089 H1092 0.984 . S
N1089 H1093 0.985 . S
H1090 N1085 0.984 . S
H1091 N1085 0.985 . S
H1092 N1089 0.984 . S
H1093 N1089 0.985 . S
H1094 N1088 0.984 . S
H1095 N1088 0.984 . S
H1096 N1084 0.984 . S
H1097 N1084 0.985 . S
C1098 C1099 1.363 . S
C1098 C1104 1.379 . S
C1098 N1106 1.356 . S
C1099 C1098 1.363 . S
C1099 C1105 1.363 . S
C1100 C1101 1.363 . S
C1100 C1105 1.379 . S
C1100 N1107 1.356 . S
C1101 C1100 1.363 . S
C1101 C1104 1.363 . S
N1102 C1104 1.356 . S
N1102 H1114 0.984 . S
N1102 H1115 0.985 . S
N1103 C1105 1.356 . S
N1103 H1108 0.984 . S
N1103 H1109 0.985 . S
C1104 C1098 1.379 . S
C1104 C1101 1.363 . S
C1104 N1102 1.356 . S
C1105 C1099 1.363 . S
C1105 C1100 1.379 . S
C1105 N1103 1.356 . S
N1106 C1098 1.356 . S
N1106 H1112 0.984 . S
N1106 H1113 0.984 . S
N1107 C1100 1.356 . S
N1107 H1110 0.984 . S
N1107 H1111 0.985 . S
H1108 N1103 0.984 . S
H1109 N1103 0.985 . S
H1110 N1107 0.984 . S
H1111 N1107 0.985 . S
H1112 N1106 0.984 . S
H1113 N1106 0.984 . S
H1114 N1102 0.984 . S
H1115 N1102 0.985 . S
C1116 C1117 1.363 . S
C1116 C1122 1.379 . S
C1116 N1124 1.356 . S
C1117 C1116 1.363 . S
C1117 C1123 1.363 . S
C1118 C1119 1.363 . S
C1118 C1123 1.379 . S
C1118 N1125 1.356 . S
C1119 C1118 1.363 . S
C1119 C1122 1.363 . S
N1120 C1122 1.356 . S
N1120 H1132 0.984 . S
N1120 H1133 0.985 . S
N1121 C1123 1.356 . S
N1121 H1126 0.984 . S
N1121 H1127 0.985 . S
C1122 C1116 1.379 . S
C1122 C1119 1.363 . S
C1122 N1120 1.356 . S
C1123 C1117 1.363 . S
C1123 C1118 1.379 . S
C1123 N1121 1.356 . S
N1124 C1116 1.356 . S
N1124 H1130 0.984 . S
N1124 H1131 0.984 . S
N1125 C1118 1.356 . S
N1125 H1128 0.984 . S
N1125 H1129 0.985 . S
H1126 N1121 0.984 . S
H1127 N1121 0.985 . S
H1128 N1125 0.984 . S
H1129 N1125 0.985 . S
H1130 N1124 0.984 . S
H1131 N1124 0.984 . S
H1132 N1120 0.984 . S
H1133 N1120 0.985 . S
C1134 C1135 1.363 . S
C1134 C1140 1.379 . S
C1134 N1142 1.356 . S
C1135 C1134 1.363 . S
C1135 C1141 1.363 . S
C1136 C1137 1.363 . S
C1136 C1141 1.379 . S
C1136 N1143 1.356 . S
C1137 C1136 1.363 . S
C1137 C1140 1.363 . S
N1138 C1140 1.356 . S
N1138 H1150 0.984 . S
N1138 H1151 0.985 . S
N1139 C1141 1.356 . S
N1139 H1144 0.984 . S
N1139 H1145 0.985 . S
C1140 C1134 1.379 . S
C1140 C1137 1.363 . S
C1140 N1138 1.356 . S
C1141 C1135 1.363 . S
C1141 C1136 1.379 . S
C1141 N1139 1.356 . S
N1142 C1134 1.356 . S
N1142 H1148 0.984 . S
N1142 H1149 0.984 . S
N1143 C1136 1.356 . S
N1143 H1146 0.984 . S
N1143 H1147 0.985 . S
H1144 N1139 0.984 . S
H1145 N1139 0.985 . S
H1146 N1143 0.984 . S
H1147 N1143 0.985 . S
H1148 N1142 0.984 . S
H1149 N1142 0.984 . S
H1150 N1138 0.984 . S
H1151 N1138 0.985 . S
C1152 C1153 1.363 . S
C1152 C1158 1.379 . S
C1152 N1160 1.356 . S
C1153 C1152 1.363 . S
C1153 C1159 1.363 . S
C1154 C1155 1.363 . S
C1154 C1159 1.379 . S
C1154 N1161 1.356 . S
C1155 C1154 1.363 . S
C1155 C1158 1.363 . S
N1156 C1158 1.356 . S
N1156 H1168 0.984 . S
N1156 H1169 0.985 . S
N1157 C1159 1.356 . S
N1157 H1162 0.984 . S
N1157 H1163 0.985 . S
C1158 C1152 1.379 . S
C1158 C1155 1.363 . S
C1158 N1156 1.356 . S
C1159 C1153 1.363 . S
C1159 C1154 1.379 . S
C1159 N1157 1.356 . S
N1160 C1152 1.356 . S
N1160 H1166 0.984 . S
N1160 H1167 0.984 . S
N1161 C1154 1.356 . S
N1161 H1164 0.984 . S
N1161 H1165 0.985 . S
H1162 N1157 0.984 . S
H1163 N1157 0.985 . S
H1164 N1161 0.984 . S
H1165 N1161 0.985 . S
H1166 N1160 0.984 . S
H1167 N1160 0.984 . S
H1168 N1156 0.984 . S
H1169 N1156 0.985 . S
C1170 C1171 1.363 . S
C1170 C1176 1.379 . S
C1170 N1178 1.356 . S
C1171 C1170 1.363 . S
C1171 C1177 1.363 . S
C1172 C1173 1.363 . S
C1172 C1177 1.379 . S
C1172 N1179 1.356 . S
C1173 C1172 1.363 . S
C1173 C1176 1.363 . S
N1174 C1176 1.356 . S
N1174 H1186 0.984 . S
N1174 H1187 0.985 . S
N1175 C1177 1.356 . S
N1175 H1180 0.984 . S
N1175 H1181 0.985 . S
C1176 C1170 1.379 . S
C1176 C1173 1.363 . S
C1176 N1174 1.356 . S
C1177 C1171 1.363 . S
C1177 C1172 1.379 . S
C1177 N1175 1.356 . S
N1178 C1170 1.356 . S
N1178 H1184 0.984 . S
N1178 H1185 0.984 . S
N1179 C1172 1.356 . S
N1179 H1182 0.984 . S
N1179 H1183 0.985 . S
H1180 N1175 0.984 . S
H1181 N1175 0.985 . S
H1182 N1179 0.984 . S
H1183 N1179 0.985 . S
H1184 N1178 0.984 . S
H1185 N1178 0.984 . S
H1186 N1174 0.984 . S
H1187 N1174 0.985 . S
C1188 C1189 1.363 . S
C1188 C1194 1.379 . S
C1188 N1196 1.356 . S
C1189 C1188 1.363 . S
C1189 C1195 1.363 . S
C1190 C1191 1.363 . S
C1190 C1195 1.379 . S
C1190 N1197 1.356 . S
C1191 C1190 1.363 . S
C1191 C1194 1.363 . S
N1192 C1194 1.356 . S
N1192 H1204 0.984 . S
N1192 H1205 0.985 . S
N1193 C1195 1.356 . S
N1193 H1198 0.984 . S
N1193 H1199 0.985 . S
C1194 C1188 1.379 . S
C1194 C1191 1.363 . S
C1194 N1192 1.356 . S
C1195 C1189 1.363 . S
C1195 C1190 1.379 . S
C1195 N1193 1.356 . S
N1196 C1188 1.356 . S
N1196 H1202 0.984 . S
N1196 H1203 0.984 . S
N1197 C1190 1.356 . S
N1197 H1200 0.984 . S
N1197 H1201 0.985 . S
H1198 N1193 0.984 . S
H1199 N1193 0.985 . S
H1200 N1197 0.984 . S
H1201 N1197 0.985 . S
H1202 N1196 0.984 . S
H1203 N1196 0.984 . S
H1204 N1192 0.984 . S
H1205 N1192 0.985 . S
C1206 C1207 1.363 . S
C1206 C1212 1.379 . S
C1206 N1214 1.356 . S
C1207 C1206 1.363 . S
C1207 C1213 1.363 . S
C1208 C1209 1.363 . S
C1208 C1213 1.379 . S
C1208 N1215 1.356 . S
C1209 C1208 1.363 . S
C1209 C1212 1.363 . S
N1210 C1212 1.356 . S
N1210 H1222 0.984 . S
N1210 H1223 0.985 . S
N1211 C1213 1.356 . S
N1211 H1216 0.984 . S
N1211 H1217 0.985 1_556 S
C1212 C1206 1.379 . S
C1212 C1209 1.363 . S
C1212 N1210 1.356 . S
C1213 C1207 1.363 . S
C1213 C1208 1.379 . S
C1213 N1211 1.356 . S
N1214 C1206 1.356 . S
N1214 H1220 0.984 . S
N1214 H1221 0.984 . S
N1215 C1208 1.356 . S
N1215 H1218 0.984 . S
N1215 H1219 0.985 . S
H1216 N1211 0.984 . S
H1217 N1211 0.985 1_554 S
H1218 N1215 0.984 . S
H1219 N1215 0.985 . S
H1220 N1214 0.984 . S
H1221 N1214 0.984 . S
H1222 N1210 0.984 . S
H1223 N1210 0.985 . S
C1224 C1225 1.363 . S
C1224 C1230 1.379 . S
C1224 N1232 1.356 . S
C1225 C1224 1.363 . S
C1225 C1231 1.363 . S
C1226 C1227 1.363 . S
C1226 C1231 1.379 . S
C1226 N1233 1.356 . S
C1227 C1226 1.363 . S
C1227 C1230 1.363 . S
N1228 C1230 1.356 . S
N1228 H1240 0.984 . S
N1228 H1241 0.985 . S
N1229 C1231 1.356 . S
N1229 H1234 0.984 . S
N1229 H1235 0.985 1_556 S
C1230 C1224 1.379 . S
C1230 C1227 1.363 . S
C1230 N1228 1.356 . S
C1231 C1225 1.363 . S
C1231 C1226 1.379 . S
C1231 N1229 1.356 . S
N1232 C1224 1.356 . S
N1232 H1238 0.984 . S
N1232 H1239 0.984 . S
N1233 C1226 1.356 . S
N1233 H1236 0.984 . S
N1233 H1237 0.985 . S
H1234 N1229 0.984 . S
H1235 N1229 0.985 1_554 S
H1236 N1233 0.984 . S
H1237 N1233 0.985 . S
H1238 N1232 0.984 . S
H1239 N1232 0.984 . S
H1240 N1228 0.984 . S
H1241 N1228 0.985 . S
C1242 C1243 1.363 . S
C1242 C1248 1.379 . S
C1242 N1250 1.356 . S
C1243 C1242 1.363 . S
C1243 C1249 1.363 . S
C1244 C1245 1.363 . S
C1244 C1249 1.379 . S
C1244 N1251 1.356 . S
C1245 C1244 1.363 . S
C1245 C1248 1.363 . S
N1246 C1248 1.356 . S
N1246 H1258 0.984 . S
N1246 H1259 0.985 . S
N1247 C1249 1.356 . S
N1247 H1252 0.984 . S
N1247 H1253 0.985 . S
C1248 C1242 1.379 . S
C1248 C1245 1.363 . S
C1248 N1246 1.356 . S
C1249 C1243 1.363 . S
C1249 C1244 1.379 . S
C1249 N1247 1.356 . S
N1250 C1242 1.356 . S
N1250 H1256 0.984 . S
N1250 H1257 0.984 . S
N1251 C1244 1.356 . S
N1251 H1254 0.984 . S
N1251 H1255 0.985 . S
H1252 N1247 0.984 . S
H1253 N1247 0.985 . S
H1254 N1251 0.984 . S
H1255 N1251 0.985 . S
H1256 N1250 0.984 . S
H1257 N1250 0.984 . S
H1258 N1246 0.984 . S
H1259 N1246 0.985 . S
C1260 C1261 1.363 . S
C1260 C1266 1.379 . S
C1260 N1268 1.356 . S
C1261 C1260 1.363 . S
C1261 C1267 1.363 . S
C1262 C1263 1.363 . S
C1262 C1267 1.379 . S
C1262 N1269 1.356 . S
C1263 C1262 1.363 . S
C1263 C1266 1.363 . S
N1264 C1266 1.356 . S
N1264 H1276 0.984 . S
N1264 H1277 0.985 . S
N1265 C1267 1.356 . S
N1265 H1270 0.984 . S
N1265 H1271 0.985 . S
C1266 C1260 1.379 . S
C1266 C1263 1.363 . S
C1266 N1264 1.356 . S
C1267 C1261 1.363 . S
C1267 C1262 1.379 . S
C1267 N1265 1.356 . S
N1268 C1260 1.356 . S
N1268 H1274 0.984 . S
N1268 H1275 0.984 . S
N1269 C1262 1.356 . S
N1269 H1272 0.984 . S
N1269 H1273 0.985 . S
H1270 N1265 0.984 . S
H1271 N1265 0.985 . S
H1272 N1269 0.984 . S
H1273 N1269 0.985 . S
H1274 N1268 0.984 . S
H1275 N1268 0.984 . S
H1276 N1264 0.984 . S
H1277 N1264 0.985 . S
C1278 C1279 1.363 . S
C1278 C1284 1.379 . S
C1278 N1286 1.356 . S
C1279 C1278 1.363 . S
C1279 C1285 1.363 . S
C1280 C1281 1.363 . S
C1280 C1285 1.379 . S
C1280 N1287 1.356 . S
C1281 C1280 1.363 . S
C1281 C1284 1.363 . S
N1282 C1284 1.356 . S
N1282 H1294 0.984 1_554 S
N1282 H1295 0.985 . S
N1283 C1285 1.356 . S
N1283 H1288 0.984 . S
N1283 H1289 0.985 . S
C1284 C1278 1.379 . S
C1284 C1281 1.363 . S
C1284 N1282 1.356 . S
C1285 C1279 1.363 . S
C1285 C1280 1.379 . S
C1285 N1283 1.356 . S
N1286 C1278 1.356 . S
N1286 H1292 0.984 . S
N1286 H1293 0.984 . S
N1287 C1280 1.356 . S
N1287 H1290 0.984 . S
N1287 H1291 0.985 . S
H1288 N1283 0.984 . S
H1289 N1283 0.985 . S
H1290 N1287 0.984 . S
H1291 N1287 0.985 . S
H1292 N1286 0.984 . S
H1293 N1286 0.984 . S
H1294 N1282 0.984 1_556 S
H1295 N1282 0.985 . S
C1296 C1297 1.363 . S
C1296 C1302 1.379 . S
C1296 N1304 1.356 . S
C1297 C1296 1.363 . S
C1297 C1303 1.363 . S
C1298 C1299 1.363 . S
C1298 C1303 1.379 . S
C1298 N1305 1.356 . S
C1299 C1298 1.363 . S
C1299 C1302 1.363 . S
N1300 C1302 1.356 . S
N1300 H1312 0.984 . S
N1300 H1313 0.985 . S
N1301 C1303 1.356 . S
N1301 H1306 0.984 . S
N1301 H1307 0.985 1_554 S
C1302 C1296 1.379 . S
C1302 C1299 1.363 . S
C1302 N1300 1.356 . S
C1303 C1297 1.363 . S
C1303 C1298 1.379 . S
C1303 N1301 1.356 . S
N1304 C1296 1.356 . S
N1304 H1310 0.984 . S
N1304 H1311 0.984 . S
N1305 C1298 1.356 . S
N1305 H1308 0.984 . S
N1305 H1309 0.985 . S
H1306 N1301 0.984 . S
H1307 N1301 0.985 1_556 S
H1308 N1305 0.984 . S
H1309 N1305 0.985 . S
H1310 N1304 0.984 . S
H1311 N1304 0.984 . S
H1312 N1300 0.984 . S
H1313 N1300 0.985 . S
C1314 C1315 1.363 . S
C1314 C1320 1.379 . S
C1314 N1322 1.356 . S
C1315 C1314 1.363 . S
C1315 C1321 1.363 . S
C1316 C1317 1.363 . S
C1316 C1321 1.379 . S
C1316 N1323 1.356 . S
C1317 C1316 1.363 . S
C1317 C1320 1.363 . S
N1318 C1320 1.356 . S
N1318 H1330 0.984 . S
N1318 H1331 0.985 . S
N1319 C1321 1.356 . S
N1319 H1324 0.984 . S
N1319 H1325 0.985 . S
C1320 C1314 1.379 . S
C1320 C1317 1.363 . S
C1320 N1318 1.356 . S
C1321 C1315 1.363 . S
C1321 C1316 1.379 . S
C1321 N1319 1.356 . S
N1322 C1314 1.356 . S
N1322 H1328 0.984 . S
N1322 H1329 0.984 . S
N1323 C1316 1.356 . S
N1323 H1326 0.984 . S
N1323 H1327 0.985 . S
H1324 N1319 0.984 . S
H1325 N1319 0.985 . S
H1326 N1323 0.984 . S
H1327 N1323 0.985 . S
H1328 N1322 0.984 . S
H1329 N1322 0.984 . S
H1330 N1318 0.984 . S
H1331 N1318 0.985 . S
C1332 C1333 1.363 . S
C1332 C1338 1.379 . S
C1332 N1340 1.356 . S
C1333 C1332 1.363 . S
C1333 C1339 1.363 . S
C1334 C1335 1.363 . S
C1334 C1339 1.379 . S
C1334 N1341 1.356 . S
C1335 C1334 1.363 . S
C1335 C1338 1.363 . S
N1336 C1338 1.356 . S
N1336 H1348 0.984 . S
N1336 H1349 0.985 . S
N1337 C1339 1.356 . S
N1337 H1342 0.984 . S
N1337 H1343 0.985 . S
C1338 C1332 1.379 . S
C1338 C1335 1.363 . S
C1338 N1336 1.356 . S
C1339 C1333 1.363 . S
C1339 C1334 1.379 . S
C1339 N1337 1.356 . S
N1340 C1332 1.356 . S
N1340 H1346 0.984 . S
N1340 H1347 0.984 . S
N1341 C1334 1.356 . S
N1341 H1344 0.984 . S
N1341 H1345 0.985 . S
H1342 N1337 0.984 . S
H1343 N1337 0.985 . S
H1344 N1341 0.984 . S
H1345 N1341 0.985 . S
H1346 N1340 0.984 . S
H1347 N1340 0.984 . S
H1348 N1336 0.984 . S
H1349 N1336 0.985 . S
C1350 C1351 1.363 . S
C1350 C1356 1.379 . S
C1350 N1358 1.356 . S
C1351 C1350 1.363 . S
C1351 C1357 1.363 . S
C1352 C1353 1.363 . S
C1352 C1357 1.379 . S
C1352 N1359 1.356 . S
C1353 C1352 1.363 . S
C1353 C1356 1.363 . S
N1354 C1356 1.356 . S
N1354 H1366 0.984 . S
N1354 H1367 0.985 . S
N1355 C1357 1.356 . S
N1355 H1360 0.984 . S
N1355 H1361 0.985 . S
C1356 C1350 1.379 . S
C1356 C1353 1.363 . S
C1356 N1354 1.356 . S
C1357 C1351 1.363 . S
C1357 C1352 1.379 . S
C1357 N1355 1.356 . S
N1358 C1350 1.356 . S
N1358 H1364 0.984 . S
N1358 H1365 0.984 . S
N1359 C1352 1.356 . S
N1359 H1362 0.984 . S
N1359 H1363 0.985 . S
H1360 N1355 0.984 . S
H1361 N1355 0.985 . S
H1362 N1359 0.984 . S
H1363 N1359 0.985 . S
H1364 N1358 0.984 . S
H1365 N1358 0.984 . S
H1366 N1354 0.984 . S
H1367 N1354 0.985 . S
C1368 C1369 1.372 . S
C1368 C1374 1.379 1_554 S
C1368 N1376 1.356 1_455 S
C1369 C1368 1.372 . S
C1369 C1375 1.359 1_554 S
C1370 C1371 1.363 . S
C1370 C1375 1.379 . S
C1370 N1377 1.356 . S
C1371 C1370 1.363 . S
C1371 C1374 1.363 . S
N1372 C1374 1.356 . S
N1372 H1384 0.984 . S
N1372 H1385 0.985 . S
N1373 C1375 1.380 . S
N1373 H1378 0.973 1_456 S
N1373 H1379 0.974 . S
C1374 C1368 1.379 1_556 S
C1374 C1371 1.363 . S
C1374 N1372 1.356 . S
C1375 C1369 1.359 1_556 S
C1375 C1370 1.379 . S
C1375 N1373 1.380 . S
N1376 C1368 1.356 1_655 S
N1376 H1382 0.984 . S
N1376 H1383 0.984 . S
N1377 C1370 1.356 . S
N1377 H1380 0.984 . S
N1377 H1381 0.985 . S
H1378 N1373 0.973 1_654 S
H1379 N1373 0.974 . S
H1380 N1377 0.984 . S
H1381 N1377 0.985 . S
H1382 N1376 0.984 . S
H1383 N1376 0.984 . S
H1384 N1372 0.984 . S
H1385 N1372 0.985 . S
C1386 C1387 1.363 . S
C1386 C1392 1.379 1_554 S
C1386 N1394 1.356 . S
C1387 C1386 1.363 . S
C1387 C1393 1.363 1_554 S
C1388 C1389 1.363 . S
C1388 C1393 1.379 . S
C1388 N1395 1.356 . S
C1389 C1388 1.363 . S
C1389 C1392 1.363 . S
N1390 C1392 1.356 . S
N1390 H1402 0.984 . S
N1390 H1403 0.985 . S
N1391 C1393 1.356 1_554 S
N1391 H1396 0.984 . S
N1391 H1397 0.985 1_554 S
C1392 C1386 1.379 1_556 S
C1392 C1389 1.363 . S
C1392 N1390 1.356 . S
C1393 C1387 1.363 1_556 S
C1393 C1388 1.379 . S
C1393 N1391 1.356 1_556 S
N1394 C1386 1.356 . S
N1394 H1400 0.984 . S
N1394 H1401 0.984 . S
N1395 C1388 1.356 . S
N1395 H1398 0.984 . S
N1395 H1399 0.985 . S
H1396 N1391 0.984 . S
H1397 N1391 0.985 1_556 S
H1398 N1395 0.984 . S
H1399 N1395 0.985 . S
H1400 N1394 0.984 . S
H1401 N1394 0.984 . S
H1402 N1390 0.984 . S
H1403 N1390 0.985 . S
C1404 C1405 1.363 1_566 S
C1404 C1410 1.379 . S
C1404 N1412 1.356 1_556 S
C1405 C1404 1.363 1_544 S
C1405 C1411 1.363 . S
C1406 C1407 1.363 . S
C1406 C1411 1.379 1_556 S
C1406 N1413 1.356 . S
C1407 C1406 1.363 . S
C1407 C1410 1.363 1_545 S
N1408 C1410 1.356 . S
N1408 H1420 0.984 . S
N1408 H1421 0.985 . S
N1409 C1411 1.356 . S
N1409 H1414 0.984 . S
N1409 H1415 0.985 . S
C1410 C1404 1.379 . S
C1410 C1407 1.363 1_565 S
C1410 N1408 1.356 . S
C1411 C1405 1.363 . S
C1411 C1406 1.379 1_554 S
C1411 N1409 1.356 . S
N1412 C1404 1.356 1_554 S
N1412 H1418 0.984 1_554 S
N1412 H1419 0.984 . S
N1413 C1406 1.356 . S
N1413 H1416 0.984 . S
N1413 H1417 0.985 . S
H1414 N1409 0.984 . S
H1415 N1409 0.985 . S
H1416 N1413 0.984 . S
H1417 N1413 0.985 . S
H1418 N1412 0.984 1_556 S
H1419 N1412 0.984 . S
H1420 N1408 0.984 . S
H1421 N1408 0.985 . S
C1422 C1423 1.363 1_654 S
C1422 C1428 1.379 . S
C1422 N1430 1.356 1_554 S
C1423 C1422 1.363 1_456 S
C1423 C1429 1.363 . S
C1424 C1425 1.363 . S
C1424 C1429 1.379 1_554 S
C1424 N1431 1.356 . S
C1425 C1424 1.363 . S
C1425 C1428 1.363 1_455 S
N1426 C1428 1.356 . S
N1426 H1438 0.984 . S
N1426 H1439 0.985 . S
N1427 C1429 1.356 . S
N1427 H1432 0.984 . S
N1427 H1433 0.985 . S
C1428 C1422 1.379 . S
C1428 C1425 1.363 1_655 S
C1428 N1426 1.356 . S
C1429 C1423 1.363 . S
C1429 C1424 1.379 1_556 S
C1429 N1427 1.356 . S
N1430 C1422 1.356 1_556 S
N1430 H1436 0.984 1_556 S
N1430 H1437 0.984 . S
N1431 C1424 1.356 . S
N1431 H1434 0.984 . S
N1431 H1435 0.985 . S
H1432 N1427 0.984 . S
H1433 N1427 0.985 . S
H1434 N1431 0.984 . S
H1435 N1431 0.985 . S
H1436 N1430 0.984 1_554 S
H1437 N1430 0.984 . S
H1438 N1426 0.984 . S
H1439 N1426 0.985 . S
C1440 C1441 1.363 . S
C1440 C1446 1.379 1_554 S
C1440 N1448 1.356 . S
C1441 C1440 1.363 . S
C1441 C1447 1.363 . S
C1442 C1443 1.363 1_554 S
C1442 C1447 1.379 . S
C1442 N1449 1.356 1_554 S
C1443 C1442 1.363 1_556 S
C1443 C1446 1.363 . S
N1444 C1446 1.356 . S
N1444 H1456 0.984 . S
N1444 H1457 0.985 . S
N1445 C1447 1.356 . S
N1445 H1450 0.984 . S
N1445 H1451 0.985 . S
C1446 C1440 1.379 1_556 S
C1446 C1443 1.363 . S
C1446 N1444 1.356 . S
C1447 C1441 1.363 . S
C1447 C1442 1.379 . S
C1447 N1445 1.356 . S
N1448 C1440 1.356 . S
N1448 H1454 0.984 . S
N1448 H1455 0.984 . S
N1449 C1442 1.356 1_556 S
N1449 H1452 0.984 . S
N1449 H1453 0.985 1_556 S
H1450 N1445 0.984 . S
H1451 N1445 0.985 . S
H1452 N1449 0.984 . S
H1453 N1449 0.985 1_554 S
H1454 N1448 0.984 . S
H1455 N1448 0.984 . S
H1456 N1444 0.984 . S
H1457 N1444 0.985 . S
C1458 C1459 1.363 1_565 S
C1458 C1464 1.379 . S
C1458 N1466 1.356 . S
C1459 C1458 1.363 1_545 S
C1459 C1465 1.363 . S
C1460 C1461 1.361 1_554 S
C1460 C1465 1.379 . S
C1460 N1467 1.356 1_554 S
C1461 C1460 1.361 1_556 S
C1461 C1464 1.365 1_546 S
N1462 C1464 1.356 1_556 S
N1462 H1474 0.984 . S
N1462 H1475 0.985 . S
N1463 C1465 1.356 . S
N1463 H1468 0.984 . S
N1463 H1469 0.985 . S
C1464 C1458 1.379 . S
C1464 C1461 1.365 1_564 S
C1464 N1462 1.356 1_554 S
C1465 C1459 1.363 . S
C1465 C1460 1.379 . S
C1465 N1463 1.356 . S
N1466 C1458 1.356 . S
N1466 H1472 0.984 . S
N1466 H1473 0.984 . S
N1467 C1460 1.356 1_556 S
N1467 H1470 0.984 . S
N1467 H1471 0.985 . S
H1468 N1463 0.984 . S
H1469 N1463 0.985 . S
H1470 N1467 0.984 . S
H1471 N1467 0.985 . S
H1472 N1466 0.984 . S
H1473 N1466 0.984 . S
H1474 N1462 0.984 . S
H1475 N1462 0.985 . S
C1476 C1477 1.363 . S
C1476 C1482 1.379 . S
C1476 N1484 1.356 . S
C1477 C1476 1.363 . S
C1477 C1483 1.363 . S
C1478 C1479 1.363 . S
C1478 C1483 1.379 . S
C1478 N1485 1.356 . S
C1479 C1478 1.363 . S
C1479 C1482 1.363 . S
N1480 C1482 1.356 . S
N1480 H1492 0.984 . S
N1480 H1493 0.985 . S
N1481 C1483 1.356 . S
N1481 H1486 0.984 . S
N1481 H1487 0.985 . S
C1482 C1476 1.379 . S
C1482 C1479 1.363 . S
C1482 N1480 1.356 . S
C1483 C1477 1.363 . S
C1483 C1478 1.379 . S
C1483 N1481 1.356 . S
N1484 C1476 1.356 . S
N1484 H1490 0.984 . S
N1484 H1491 0.984 . S
N1485 C1478 1.356 . S
N1485 H1488 0.984 . S
N1485 H1489 0.985 . S
H1486 N1481 0.984 . S
H1487 N1481 0.985 . S
H1488 N1485 0.984 . S
H1489 N1485 0.985 . S
H1490 N1484 0.984 . S
H1491 N1484 0.984 . S
H1492 N1480 0.984 . S
H1493 N1480 0.985 . S
C1494 C1495 1.363 . S
C1494 C1500 1.379 . S
C1494 N1502 1.356 . S
C1495 C1494 1.363 . S
C1495 C1501 1.363 . S
C1496 C1497 1.363 . S
C1496 C1501 1.379 . S
C1496 N1503 1.356 . S
C1497 C1496 1.363 . S
C1497 C1500 1.363 . S
N1498 C1500 1.356 . S
N1498 H1510 0.984 . S
N1498 H1511 0.985 . S
N1499 C1501 1.356 . S
N1499 H1504 0.984 . S
N1499 H1505 0.985 . S
C1500 C1494 1.379 . S
C1500 C1497 1.363 . S
C1500 N1498 1.356 . S
C1501 C1495 1.363 . S
C1501 C1496 1.379 . S
C1501 N1499 1.356 . S
N1502 C1494 1.356 . S
N1502 H1508 0.984 . S
N1502 H1509 0.984 . S
N1503 C1496 1.356 . S
N1503 H1506 0.984 . S
N1503 H1507 0.985 . S
H1504 N1499 0.984 . S
H1505 N1499 0.985 . S
H1506 N1503 0.984 . S
H1507 N1503 0.985 . S
H1508 N1502 0.984 . S
H1509 N1502 0.984 . S
H1510 N1498 0.984 . S
H1511 N1498 0.985 . S
C1512 C1513 1.363 . S
C1512 C1518 1.379 . S
C1512 N1520 1.356 . S
C1513 C1512 1.363 . S
C1513 C1519 1.363 . S
C1514 C1515 1.363 . S
C1514 C1519 1.379 . S
C1514 N1521 1.356 . S
C1515 C1514 1.363 . S
C1515 C1518 1.363 . S
N1516 C1518 1.356 . S
N1516 H1528 0.984 . S
N1516 H1529 0.985 . S
N1517 C1519 1.356 . S
N1517 H1522 0.984 . S
N1517 H1523 0.985 . S
C1518 C1512 1.379 . S
C1518 C1515 1.363 . S
C1518 N1516 1.356 . S
C1519 C1513 1.363 . S
C1519 C1514 1.379 . S
C1519 N1517 1.356 . S
N1520 C1512 1.356 . S
N1520 H1526 0.984 . S
N1520 H1527 0.984 . S
N1521 C1514 1.356 . S
N1521 H1524 0.984 . S
N1521 H1525 0.985 . S
H1522 N1517 0.984 . S
H1523 N1517 0.985 . S
H1524 N1521 0.984 . S
H1525 N1521 0.985 . S
H1526 N1520 0.984 . S
H1527 N1520 0.984 . S
H1528 N1516 0.984 . S
H1529 N1516 0.985 . S
C1530 C1531 1.363 . S
C1530 C1536 1.379 . S
C1530 N1538 1.356 . S
C1531 C1530 1.363 . S
C1531 C1537 1.363 . S
C1532 C1533 1.363 . S
C1532 C1537 1.379 . S
C1532 N1539 1.356 . S
C1533 C1532 1.363 . S
C1533 C1536 1.363 . S
N1534 C1536 1.356 . S
N1534 H1546 0.984 . S
N1534 H1547 0.985 . S
N1535 C1537 1.356 . S
N1535 H1540 0.984 . S
N1535 H1541 0.985 . S
C1536 C1530 1.379 . S
C1536 C1533 1.363 . S
C1536 N1534 1.356 . S
C1537 C1531 1.363 . S
C1537 C1532 1.379 . S
C1537 N1535 1.356 . S
N1538 C1530 1.356 . S
N1538 H1544 0.984 . S
N1538 H1545 0.984 . S
N1539 C1532 1.356 . S
N1539 H1542 0.984 . S
N1539 H1543 0.985 . S
H1540 N1535 0.984 . S
H1541 N1535 0.985 . S
H1542 N1539 0.984 . S
H1543 N1539 0.985 . S
H1544 N1538 0.984 . S
H1545 N1538 0.984 . S
H1546 N1534 0.984 . S
H1547 N1534 0.985 . S
C1548 C1549 1.363 . S
C1548 C1554 1.379 . S
C1548 N1556 1.356 . S
C1549 C1548 1.363 . S
C1549 C1555 1.363 . S
C1550 C1551 1.363 . S
C1550 C1555 1.379 . S
C1550 N1557 1.356 . S
C1551 C1550 1.363 . S
C1551 C1554 1.363 . S
N1552 C1554 1.356 . S
N1552 H1564 0.984 . S
N1552 H1565 0.985 . S
N1553 C1555 1.356 . S
N1553 H1558 0.984 . S
N1553 H1559 0.985 . S
C1554 C1548 1.379 . S
C1554 C1551 1.363 . S
C1554 N1552 1.356 . S
C1555 C1549 1.363 . S
C1555 C1550 1.379 . S
C1555 N1553 1.356 . S
N1556 C1548 1.356 . S
N1556 H1562 0.984 . S
N1556 H1563 0.984 . S
N1557 C1550 1.356 . S
N1557 H1560 0.984 . S
N1557 H1561 0.985 . S
H1558 N1553 0.984 . S
H1559 N1553 0.985 . S
H1560 N1557 0.984 . S
H1561 N1557 0.985 . S
H1562 N1556 0.984 . S
H1563 N1556 0.984 . S
H1564 N1552 0.984 . S
H1565 N1552 0.985 . S
C1566 C1567 1.363 . S
C1566 C1572 1.379 . S
C1566 N1574 1.356 . S
C1567 C1566 1.363 . S
C1567 C1573 1.363 . S
C1568 C1569 1.363 . S
C1568 C1573 1.379 . S
C1568 N1575 1.356 . S
C1569 C1568 1.363 . S
C1569 C1572 1.363 . S
N1570 C1572 1.356 . S
N1570 H1582 0.984 . S
N1570 H1583 0.985 . S
N1571 C1573 1.356 . S
N1571 H1576 0.984 . S
N1571 H1577 0.985 . S
C1572 C1566 1.379 . S
C1572 C1569 1.363 . S
C1572 N1570 1.356 . S
C1573 C1567 1.363 . S
C1573 C1568 1.379 . S
C1573 N1571 1.356 . S
N1574 C1566 1.356 . S
N1574 H1580 0.984 . S
N1574 H1581 0.984 . S
N1575 C1568 1.356 . S
N1575 H1578 0.984 . S
N1575 H1579 0.985 . S
H1576 N1571 0.984 . S
H1577 N1571 0.985 . S
H1578 N1575 0.984 . S
H1579 N1575 0.985 . S
H1580 N1574 0.984 . S
H1581 N1574 0.984 . S
H1582 N1570 0.984 . S
H1583 N1570 0.985 . S
C1584 C1585 1.363 . S
C1584 C1590 1.379 . S
C1584 N1592 1.356 . S
C1585 C1584 1.363 . S
C1585 C1591 1.363 . S
C1586 C1587 1.363 . S
C1586 C1591 1.379 . S
C1586 N1593 1.356 . S
C1587 C1586 1.363 . S
C1587 C1590 1.363 . S
N1588 C1590 1.356 . S
N1588 H1600 0.984 . S
N1588 H1601 0.985 . S
N1589 C1591 1.356 . S
N1589 H1594 0.984 . S
N1589 H1595 0.985 . S
C1590 C1584 1.379 . S
C1590 C1587 1.363 . S
C1590 N1588 1.356 . S
C1591 C1585 1.363 . S
C1591 C1586 1.379 . S
C1591 N1589 1.356 . S
N1592 C1584 1.356 . S
N1592 H1598 0.984 . S
N1592 H1599 0.984 . S
N1593 C1586 1.356 . S
N1593 H1596 0.984 . S
N1593 H1597 0.985 . S
H1594 N1589 0.984 . S
H1595 N1589 0.985 . S
H1596 N1593 0.984 . S
H1597 N1593 0.985 . S
H1598 N1592 0.984 . S
H1599 N1592 0.984 . S
H1600 N1588 0.984 . S
H1601 N1588 0.985 . S
C1602 C1603 1.363 . S
C1602 C1608 1.379 . S
C1602 N1610 1.356 . S
C1603 C1602 1.363 . S
C1603 C1609 1.363 . S
C1604 C1605 1.363 . S
C1604 C1609 1.379 . S
C1604 N1611 1.356 . S
C1605 C1604 1.363 . S
C1605 C1608 1.363 . S
N1606 C1608 1.356 . S
N1606 H1618 0.984 . S
N1606 H1619 0.985 . S
N1607 C1609 1.356 . S
N1607 H1612 0.984 . S
N1607 H1613 0.985 . S
C1608 C1602 1.379 . S
C1608 C1605 1.363 . S
C1608 N1606 1.356 . S
C1609 C1603 1.363 . S
C1609 C1604 1.379 . S
C1609 N1607 1.356 . S
N1610 C1602 1.356 . S
N1610 H1616 0.984 . S
N1610 H1617 0.984 . S
N1611 C1604 1.356 . S
N1611 H1614 0.984 . S
N1611 H1615 0.985 . S
H1612 N1607 0.984 . S
H1613 N1607 0.985 . S
H1614 N1611 0.984 . S
H1615 N1611 0.985 . S
H1616 N1610 0.984 . S
H1617 N1610 0.984 . S
H1618 N1606 0.984 . S
H1619 N1606 0.985 . S
C1620 C1621 1.363 . S
C1620 C1626 1.379 . S
C1620 N1628 1.356 . S
C1621 C1620 1.363 . S
C1621 C1627 1.363 . S
C1622 C1623 1.363 . S
C1622 C1627 1.379 . S
C1622 N1629 1.356 . S
C1623 C1622 1.363 . S
C1623 C1626 1.363 . S
N1624 C1626 1.356 . S
N1624 H1636 0.984 . S
N1624 H1637 0.985 . S
N1625 C1627 1.356 . S
N1625 H1630 0.984 . S
N1625 H1631 0.985 . S
C1626 C1620 1.379 . S
C1626 C1623 1.363 . S
C1626 N1624 1.356 . S
C1627 C1621 1.363 . S
C1627 C1622 1.379 . S
C1627 N1625 1.356 . S
N1628 C1620 1.356 . S
N1628 H1634 0.984 . S
N1628 H1635 0.984 . S
N1629 C1622 1.356 . S
N1629 H1632 0.984 . S
N1629 H1633 0.985 . S
H1630 N1625 0.984 . S
H1631 N1625 0.985 . S
H1632 N1629 0.984 . S
H1633 N1629 0.985 . S
H1634 N1628 0.984 . S
H1635 N1628 0.984 . S
H1636 N1624 0.984 . S
H1637 N1624 0.985 . S
C1638 C1639 1.363 . S
C1638 C1644 1.379 . S
C1638 N1646 1.356 . S
C1639 C1638 1.363 . S
C1639 C1645 1.363 . S
C1640 C1641 1.363 . S
C1640 C1645 1.379 . S
C1640 N1647 1.356 . S
C1641 C1640 1.363 . S
C1641 C1644 1.363 . S
N1642 C1644 1.356 . S
N1642 H1654 0.984 . S
N1642 H1655 0.985 . S
N1643 C1645 1.356 . S
N1643 H1648 0.984 . S
N1643 H1649 0.985 . S
C1644 C1638 1.379 . S
C1644 C1641 1.363 . S
C1644 N1642 1.356 . S
C1645 C1639 1.363 . S
C1645 C1640 1.379 . S
C1645 N1643 1.356 . S
N1646 C1638 1.356 . S
N1646 H1652 0.984 . S
N1646 H1653 0.984 . S
N1647 C1640 1.356 . S
N1647 H1650 0.984 . S
N1647 H1651 0.985 . S
H1648 N1643 0.984 . S
H1649 N1643 0.985 . S
H1650 N1647 0.984 . S
H1651 N1647 0.985 . S
H1652 N1646 0.984 . S
H1653 N1646 0.984 . S
H1654 N1642 0.984 . S
H1655 N1642 0.985 . S
C1656 C1657 1.363 . S
C1656 C1662 1.379 . S
C1656 N1664 1.356 . S
C1657 C1656 1.363 . S
C1657 C1663 1.363 . S
C1658 C1659 1.363 . S
C1658 C1663 1.379 . S
C1658 N1665 1.356 . S
C1659 C1658 1.363 . S
C1659 C1662 1.363 . S
N1660 C1662 1.356 . S
N1660 H1672 0.984 . S
N1660 H1673 0.985 . S
N1661 C1663 1.356 . S
N1661 H1666 0.984 . S
N1661 H1667 0.985 . S
C1662 C1656 1.379 . S
C1662 C1659 1.363 . S
C1662 N1660 1.356 . S
C1663 C1657 1.363 . S
C1663 C1658 1.379 . S
C1663 N1661 1.356 . S
N1664 C1656 1.356 . S
N1664 H1670 0.984 . S
N1664 H1671 0.984 . S
N1665 C1658 1.356 . S
N1665 H1668 0.984 . S
N1665 H1669 0.985 . S
H1666 N1661 0.984 . S
H1667 N1661 0.985 . S
H1668 N1665 0.984 . S
H1669 N1665 0.985 . S
H1670 N1664 0.984 . S
H1671 N1664 0.984 . S
H1672 N1660 0.984 . S
H1673 N1660 0.985 . S
C1674 C1675 1.363 . S
C1674 C1680 1.379 . S
C1674 N1682 1.356 . S
C1675 C1674 1.363 . S
C1675 C1681 1.363 . S
C1676 C1677 1.363 . S
C1676 C1681 1.379 . S
C1676 N1683 1.356 . S
C1677 C1676 1.363 . S
C1677 C1680 1.363 . S
N1678 C1680 1.356 . S
N1678 H1690 0.984 . S
N1678 H1691 0.985 . S
N1679 C1681 1.356 . S
N1679 H1684 0.984 . S
N1679 H1685 0.985 . S
C1680 C1674 1.379 . S
C1680 C1677 1.363 . S
C1680 N1678 1.356 . S
C1681 C1675 1.363 . S
C1681 C1676 1.379 . S
C1681 N1679 1.356 . S
N1682 C1674 1.356 . S
N1682 H1688 0.984 . S
N1682 H1689 0.984 . S
N1683 C1676 1.356 . S
N1683 H1686 0.984 . S
N1683 H1687 0.985 . S
H1684 N1679 0.984 . S
H1685 N1679 0.985 . S
H1686 N1683 0.984 . S
H1687 N1683 0.985 . S
H1688 N1682 0.984 . S
H1689 N1682 0.984 . S
H1690 N1678 0.984 . S
H1691 N1678 0.985 . S
C721 C543 2.313 . S
C723 C24 2.277 . S
C739 C64 2.277 . S
C741 C583 2.313 . S
C757 C104 2.277 . S
C759 C503 2.313 . S
C775 C103 2.313 . S
C777 C304 2.277 . S
C793 C344 2.277 . S
C795 C23 2.312 . S
C811 C63 2.313 . S
C813 C264 2.277 . S
C829 C133 2.277 . S
C831 C402 2.312 . S
C847 C173 2.277 . S
C849 C442 2.313 . S
C865 C362 2.313 . S
C867 C213 2.277 . S
C883 C653 2.277 . S
C885 C202 2.313 . S
C901 C122 2.313 . S
C903 C693 2.277 . S
C919 C613 2.277 . S
C921 C162 2.313 . S
C937 C343 2.313 . S
C939 C544 2.277 1_556 S
C955 C263 2.312 . S
C957 C584 2.277 1_556 S
C973 C303 2.312 . S
C975 C504 2.277 1_556 S
C991 C373 2.277 1_554 S
C993 C642 2.312 . S
C1009 C682 2.313 . S
C1011 C413 2.277 1_554 S
C1027 C602 2.312 . S
C1029 C453 2.277 1_554 S
C1045 C2 1.672 . S
C1047 C184 1.823 . S
C1063 C224 1.823 . S
C1065 C42 1.672 . S
C1081 C144 1.823 . S
C1083 C82 1.672 . S
C1099 C183 1.672 . S
C1101 C93 1.823 . S
C1117 C223 1.672 . S
C1119 C13 1.823 . S
C1135 C143 1.672 . S
C1137 C53 1.823 . S
C1153 C424 1.823 . S
C1155 C242 1.672 . S
C1171 C464 1.823 . S
C1173 C282 1.672 . S
C1189 C384 1.823 . S
C1191 C322 1.672 . S
C1207 C423 1.672 . S
C1209 C333 1.823 . S
C1225 C463 1.672 . S
C1227 C253 1.823 . S
C1243 C383 1.672 . S
C1245 C293 1.823 . S
C1261 C664 1.823 . S
C1263 C482 1.672 . S
C1279 C704 1.822 . S
C1281 C522 1.671 . S
C1297 C562 1.672 . S
C1299 C624 1.823 . S
C1315 C573 1.823 . S
C1317 C663 1.672 . S
C1333 C493 1.823 . S
C1335 C703 1.672 . S
C1351 C623 1.672 . S
C1353 C533 1.823 . S
C1369 C17 1.191 . S
C1371 C26 1.191 . S
C1387 C57 1.191 . S
C1389 C66 1.191 . S
C1405 C97 1.191 . S
C1407 C106 1.191 . S
C1423 C146 1.191 . S
C1425 C137 1.191 . S
C1441 C177 1.191 . S
C1443 C186 1.191 . S
C1459 C217 1.191 . S
C1461 C226 1.189 . S
C1477 C266 1.191 . S
C1479 C257 1.191 . S
C1495 C297 1.191 . S
C1497 C306 1.191 . S
C1513 C346 1.191 . S
C1515 C337 1.191 . S
C1531 C386 1.191 . S
C1533 C377 1.191 . S
C1549 C426 1.191 . S
C1551 C417 1.191 . S
C1567 C466 1.191 . S
C1569 C457 1.191 . S
C1585 C506 1.191 . S
C1587 C497 1.191 . S
C1603 C537 1.191 . S
C1605 C546 1.191 . S
C1621 C577 1.191 . S
C1623 C586 1.191 . S
C1639 C617 1.191 . S
C1641 C626 1.191 . S
C1657 C657 1.191 . S
C1659 C666 1.191 . S
C1675 C706 1.191 . S
C1677 C697 1.191 . S
