# Generated by pormake.
# Topology dia, (4)-cn, num edge types: 1
# Building blocks:
#     Node 0, Type 0, BuildingBlock: QUQFOY_clean_sbu_1, # of connection points: 4
#     Node 1, Type 0, BuildingBlock: QUQFOY_clean_sbu_1, # of connection points: 4
#     Node 2, Type 0, BuildingBlock: QUQFOY_clean_sbu_1, # of connection points: 4
#     Node 3, Type 0, BuildingBlock: QUQFOY_clean_sbu_1, # of connection points: 4
#     Node 4, Type 0, BuildingBlock: QUQFOY_clean_sbu_1, # of connection points: 4
#     Node 5, Type 0, BuildingBlock: QUQFOY_clean_sbu_1, # of connection points: 4
#     Node 6, Type 0, BuildingBlock: QUQFOY_clean_sbu_1, # of connection points: 4
#     Node 7, Type 0, BuildingBlock: QUQFOY_clean_sbu_1, # of connection points: 4
#     Edge 8, Type (0, 0), BuildingBlock: UVAHIK_clean_linker_0, # of connection points: 2
#     Edge 9, Type (0, 0), BuildingBlock: UVAHIK_clean_linker_0, # of connection points: 2
#     Edge 10, Type (0, 0), BuildingBlock: UVAHIK_clean_linker_0, # of connection points: 2
#     Edge 11, Type (0, 0), BuildingBlock: UVAHIK_clean_linker_0, # of connection points: 2
#     Edge 12, Type (0, 0), BuildingBlock: UVAHIK_clean_linker_0, # of connection points: 2
#     Edge 13, Type (0, 0), BuildingBlock: UVAHIK_clean_linker_0, # of connection points: 2
#     Edge 14, Type (0, 0), BuildingBlock: UVAHIK_clean_linker_0, # of connection points: 2
#     Edge 15, Type (0, 0), BuildingBlock: UVAHIK_clean_linker_0, # of connection points: 2
#     Edge 16, Type (0, 0), BuildingBlock: UVAHIK_clean_linker_0, # of connection points: 2
#     Edge 17, Type (0, 0), BuildingBlock: UVAHIK_clean_linker_0, # of connection points: 2
#     Edge 18, Type (0, 0), BuildingBlock: UVAHIK_clean_linker_0, # of connection points: 2
#     Edge 19, Type (0, 0), BuildingBlock: UVAHIK_clean_linker_0, # of connection points: 2
#     Edge 20, Type (0, 0), BuildingBlock: UVAHIK_clean_linker_0, # of connection points: 2
#     Edge 21, Type (0, 0), BuildingBlock: UVAHIK_clean_linker_0, # of connection points: 2
#     Edge 22, Type (0, 0), BuildingBlock: UVAHIK_clean_linker_0, # of connection points: 2
#     Edge 23, Type (0, 0), BuildingBlock: UVAHIK_clean_linker_0, # of connection points: 2
# Relax obj value: 0.202
# Max RMSD: 0.232
# Mean RMSD: 0.232
data_MOF--net-dia--node1-QUQFOY_clean_sbu_1--edge1-UVAHIK_clean_linker_0
_symmetry_space_group_name_H-M    P1
_symmetry_Int_Tables_number       1
_symmetry_cell_setting            triclinic
loop_
_symmetry_equiv_pos_as_xyz
'x, y, z'
_cell_length_a     44.086231
_cell_length_b     44.129281
_cell_length_c     51.767567
_cell_angle_alpha  90.00385
_cell_angle_beta   90.004476
_cell_angle_gamma 105.37589
loop_
_atom_site_label
_atom_site_type_symbol
_atom_site_fract_x
_atom_site_fract_y
_atom_site_fract_z
_atom_type_partial_charge
O0 O 0.12638 0.16054 0.60484 0.0
Cd1 Cd 0.09426 0.12896 0.62729 0.0
Cd2 Cd 0.1447 0.10251 0.63186 0.0
O3 O 0.1677 0.14263 0.61253 0.0
O4 O 0.05991 0.14986 0.6326 0.0
O5 O 0.08806 0.13846 0.6647 0.0
C6 C 0.06607 0.1507 0.65696 0.0
C7 C 0.17325 0.0827 0.66272 0.0
C8 C 0.15541 0.16238 0.60178 0.0
C9 C 0.08651 0.06584 0.60349 0.0
O10 O 0.11495 0.06862 0.6098 0.0
O11 O 0.07275 0.08653 0.61015 0.0
O12 O 0.17933 0.08239 0.63844 0.0
O13 O 0.1511 0.09504 0.6698 0.0
O14 O 0.82161 0.35123 0.87691 0.0
Cd15 Cd 0.84913 0.38869 0.85668 0.0
Cd16 Cd 0.89101 0.35047 0.85691 0.0
O17 O 0.85525 0.3221 0.87829 0.0
O18 O 0.81996 0.41568 0.85128 0.0
O19 O 0.84215 0.39685 0.819 0.0
C20 C 0.82387 0.41352 0.82679 0.0
C21 C 0.9158 0.32468 0.82738 0.0
C22 C 0.82895 0.32672 0.88448 0.0
C23 C 0.91164 0.41328 0.8834 0.0
O24 O 0.91885 0.38854 0.87626 0.0
O25 O 0.88524 0.4177 0.8773 0.0
O26 O 0.92005 0.32326 0.85189 0.0
O27 O 0.89744 0.34116 0.81936 0.0
O28 O 0.64402 0.16641 0.11074 0.0
Cd29 Cd 0.60696 0.13817 0.13093 0.0
Cd30 Cd 0.64691 0.09776 0.13059 0.0
O31 O 0.67452 0.13405 0.10927 0.0
O32 O 0.57872 0.16627 0.13546 0.0
O33 O 0.59815 0.14578 0.16839 0.0
C34 C 0.5808 0.16312 0.16004 0.0
C35 C 0.67326 0.07376 0.16022 0.0
C36 C 0.66901 0.15997 0.10317 0.0
C37 C 0.58408 0.07541 0.10431 0.0
O38 O 0.60932 0.06907 0.11131 0.0
O39 O 0.5788 0.1014 0.11047 0.0
O40 O 0.6749 0.06953 0.13572 0.0
O41 O 0.65634 0.09174 0.16816 0.0
O42 O 0.82822 0.87298 0.39065 0.0
Cd43 Cd 0.86274 0.89746 0.36596 0.0
Cd44 Cd 0.87673 0.84163 0.36618 0.0
O45 O 0.83295 0.82542 0.38262 0.0
O46 O 0.84863 0.93558 0.35781 0.0
O47 O 0.8531 0.90092 0.3282 0.0
C48 C 0.84535 0.92632 0.33413 0.0
C49 C 0.89372 0.81168 0.33494 0.0
C50 C 0.81869 0.84341 0.39361 0.0
C51 C 0.9211 0.89627 0.39307 0.0
O52 O 0.91156 0.86665 0.39038 0.0
O53 O 0.90668 0.91407 0.38202 0.0
O54 O 0.89063 0.80318 0.35881 0.0
O55 O 0.88604 0.83694 0.32848 0.0
O56 O 0.13043 0.66908 0.11357 0.0
Cd57 Cd 0.09222 0.63987 0.13173 0.0
Cd58 Cd 0.13198 0.59938 0.13233 0.0
O59 O 0.16091 0.6367 0.11298 0.0
O60 O 0.06406 0.66791 0.13705 0.0
O61 O 0.08179 0.6446 0.16927 0.0
C62 C 0.06506 0.66283 0.16147 0.0
C63 C 0.15704 0.57351 0.16158 0.0
C64 C 0.1559 0.66287 0.10703 0.0
C65 C 0.07096 0.57853 0.10297 0.0
O66 O 0.09563 0.5718 0.11097 0.0
O67 O 0.06529 0.60429 0.10933 0.0
O68 O 0.15996 0.57106 0.13701 0.0
O69 O 0.13947 0.59067 0.16983 0.0
O70 O 0.32124 0.35471 0.38038 0.0
Cd71 Cd 0.35106 0.38985 0.35942 0.0
Cd72 Cd 0.38745 0.34558 0.35911 0.0
O73 O 0.34946 0.32021 0.38005 0.0
O74 O 0.3255 0.4205 0.35502 0.0
O75 O 0.3422 0.39761 0.32204 0.0
C76 C 0.32672 0.41668 0.33044 0.0
C77 C 0.41008 0.31776 0.32965 0.0
C78 C 0.3251 0.32829 0.38703 0.0
C79 C 0.41503 0.40812 0.38479 0.0
O80 O 0.41848 0.38143 0.37844 0.0
O81 O 0.39027 0.41596 0.37856 0.0
O82 O 0.41267 0.31471 0.35421 0.0
O83 O 0.39416 0.3366 0.32157 0.0
O84 O 0.32197 0.85012 0.8841 0.0
Cd85 Cd 0.35056 0.88666 0.86367 0.0
Cd86 Cd 0.39025 0.84587 0.86424 0.0
O87 O 0.35366 0.81896 0.88568 0.0
O88 O 0.32269 0.91509 0.85902 0.0
O89 O 0.34295 0.89523 0.82618 0.0
C90 C 0.32571 0.91271 0.83445 0.0
C91 C 0.414 0.81867 0.83514 0.0
C92 C 0.32796 0.82498 0.89177 0.0
C93 C 0.41359 0.90894 0.89001 0.0
O94 O 0.41941 0.88339 0.88323 0.0
O95 O 0.38776 0.91462 0.88385 0.0
O96 O 0.4179 0.81721 0.85969 0.0
O97 O 0.39648 0.83587 0.82684 0.0
O98 O 0.62524 0.66884 0.60889 0.0
Cd99 Cd 0.59553 0.63357 0.62973 0.0
Cd100 Cd 0.64649 0.60838 0.62496 0.0
O101 O 0.66784 0.6516 0.60904 0.0
O102 O 0.56028 0.65261 0.63696 0.0
O103 O 0.5885 0.639 0.66788 0.0
C104 C 0.56611 0.65122 0.66121 0.0
C105 C 0.67403 0.5862 0.6548 0.0
C106 C 0.65386 0.6723 0.60285 0.0
C107 C 0.58643 0.57518 0.5979 0.0
O108 O 0.61544 0.57728 0.60137 0.0
O109 O 0.57352 0.59422 0.60901 0.0
O110 O 0.68108 0.5879 0.6306 0.0
O111 O 0.65151 0.59783 0.6623 0.0
C112 C 0.27561 0.31669 0.41332 0.0
C113 C 0.30292 0.30844 0.40554 0.0
C114 C 0.25715 0.30068 0.43354 0.0
C115 C 0.24372 0.22899 0.4744 0.0
H116 H 0.21502 0.28028 0.52485 0.0
C117 C 0.20391 0.18247 0.57525 0.0
C118 C 0.17396 0.18479 0.58275 0.0
C119 C 0.21911 0.19931 0.55403 0.0
C120 C 0.22274 0.2657 0.51082 0.0
H121 H 0.33147 0.27599 0.41218 0.0
H122 H 0.29979 0.24858 0.44761 0.0
H123 H 0.2407 0.30441 0.48529 0.0
H124 H 0.13755 0.20843 0.57501 0.0
H125 H 0.1645 0.23826 0.53806 0.0
H126 H 0.22654 0.19051 0.50032 0.0
C127 C 0.29225 0.26708 0.43792 0.0
C128 C 0.23724 0.2794 0.48808 0.0
C129 C 0.31055 0.28291 0.4176 0.0
C130 C 0.16054 0.20601 0.56966 0.0
C131 C 0.17594 0.2231 0.54853 0.0
C132 C 0.22957 0.21542 0.49721 0.0
C133 C 0.26571 0.27619 0.44649 0.0
C134 C 0.24818 0.26125 0.46972 0.0
C135 C 0.20485 0.21906 0.54004 0.0
C136 C 0.21927 0.2337 0.51574 0.0
H137 H 0.26895 0.33614 0.4043 0.0
H138 H 0.23649 0.30787 0.43931 0.0
H139 H 0.25124 0.21417 0.46047 0.0
H140 H 0.21504 0.1665 0.58496 0.0
H141 H 0.24167 0.19623 0.54811 0.0
C142 C 0.68287 0.56766 0.69936 0.0
C143 C 0.69069 0.57032 0.673 0.0
C144 C 0.69773 0.55122 0.71611 0.0
C145 C 0.76794 0.52017 0.72201 0.0
H146 H 0.71734 0.46533 0.77333 0.0
C147 C 0.81498 0.43143 0.78199 0.0
C148 C 0.8081 0.43021 0.80853 0.0
C149 C 0.80064 0.44828 0.76515 0.0
C150 C 0.73184 0.48073 0.75923 0.0
H151 H 0.72055 0.55812 0.64362 0.0
H152 H 0.74604 0.52923 0.67263 0.0
H153 H 0.69291 0.49627 0.7451 0.0
H154 H 0.78051 0.4454 0.83816 0.0
H155 H 0.75563 0.47461 0.80889 0.0
H156 H 0.80683 0.50438 0.73608 0.0
C157 C 0.72879 0.54017 0.68052 0.0
C158 C 0.71787 0.49856 0.74311 0.0
C159 C 0.71401 0.55662 0.66384 0.0
C160 C 0.78633 0.44582 0.81781 0.0
C161 C 0.77191 0.46245 0.80101 0.0
C162 C 0.78189 0.50223 0.73808 0.0
C163 C 0.72071 0.53706 0.70683 0.0
C164 C 0.73575 0.51854 0.72431 0.0
C165 C 0.77898 0.46401 0.77452 0.0
C166 C 0.76401 0.48238 0.75691 0.0
H167 H 0.66507 0.57803 0.70704 0.0
H168 H 0.69127 0.54967 0.73634 0.0
H169 H 0.78252 0.53563 0.70799 0.0
H170 H 0.83165 0.41965 0.77426 0.0
H171 H 0.80633 0.44882 0.74478 0.0
C172 C 0.57066 0.02787 0.07582 0.0
C173 C 0.56279 0.0544 0.08589 0.0
C174 C 0.55387 0.01135 0.05505 0.0
C175 C 0.48073 -0.00057 0.01691 0.0
H176 H 0.53213 0.9808 0.9614 0.0
C177 C 0.4615 0.92198 0.91811 0.0
C178 C 0.43505 0.93016 0.90818 0.0
C179 C 0.47844 0.93873 0.93872 0.0
C180 C 0.51745 0.98565 0.97679 0.0
H181 H 0.52978 0.08306 0.08313 0.0
H182 H 0.50061 0.05427 0.0469 0.0
H183 H 0.55704 0.00415 0.00136 0.0
H184 H 0.40709 0.96381 0.91089 0.0
H185 H 0.43698 0.99327 0.94658 0.0
H186 H 0.44115 0.98091 0.99237 0.0
C187 C 0.51974 0.04624 0.05506 0.0
C188 C 0.53168 -0.00112 -0.00027 0.0
C189 C 0.53653 0.06279 0.07581 0.0
C190 C 0.42718 0.95671 0.91819 0.0
C191 C 0.44413 0.97344 0.9388 0.0
C192 C 0.46651 0.9862 0.99399 0.0
C193 C 0.52883 0.02094 0.04397 0.0
C194 C 0.51347 0.00588 0.02004 0.0
C195 C 0.46932 0.96402 0.94978 0.0
C196 C 0.48472 0.97919 0.97368 0.0
H197 H 0.59063 0.02064 0.08322 0.0
H198 H 0.56099 0.99152 0.04724 0.0
H199 H 0.46606 0.00428 0.03231 0.0
H200 H 0.46826 0.90169 0.91083 0.0
H201 H 0.49768 0.93083 0.9468 0.0
C202 C 0.91216 0.80338 0.29021 0.0
C203 C 0.90747 0.79382 0.31613 0.0
C204 C 0.92761 0.78781 0.27319 0.0
C205 C 0.9847 0.74048 0.27319 0.0
H206 H 0.95601 0.7193 0.20307 0.0
C207 C 0.04403 0.66857 0.20578 0.0
C208 C 0.04717 0.67738 0.17965 0.0
C209 C 0.02625 0.68193 0.22255 0.0
C210 C 0.96458 0.72539 0.2225 0.0
H211 H 0.91444 0.75982 0.34429 0.0
H212 H 0.94125 0.73281 0.31464 0.0
H213 H 0.92576 0.74419 0.23166 0.0
H214 H 0.03465 0.70754 0.15071 0.0
H215 H 0.00446 0.73128 0.17993 0.0
H216 H 0.02379 0.72228 0.26402 0.0
C217 C 0.93333 0.7525 0.30754 0.0
C218 C 0.94717 0.73959 0.23887 0.0
C219 C 0.91778 0.76789 0.32447 0.0
C220 C 0.03252 0.70005 0.1707 0.0
C221 C 0.01497 0.71353 0.18744 0.0
C222 C 0.00222 0.72649 0.25678 0.0
C223 C 0.93882 0.76255 0.28183 0.0
C224 C 0.95705 0.74727 0.26439 0.0
C225 C 0.01142 0.70452 0.21354 0.0
C226 C 0.99242 0.71882 0.23121 0.0
H227 H 0.90453 0.82328 0.28321 0.0
H228 H 0.93165 0.79617 0.25349 0.0
H229 H 0.99315 0.74656 0.29266 0.0
H230 H 0.05493 0.65107 0.21322 0.0
H231 H 0.02372 0.67418 0.24246 0.0
C232 C 0.31601 0.93091 0.78996 0.0
C233 C 0.30998 0.92993 0.81663 0.0
C234 C 0.30158 0.94809 0.77351 0.0
C235 C 0.23354 0.98166 0.76903 0.0
H236 H 0.28331 0.0355 0.71673 0.0
C237 C 0.18323 0.06667 0.70786 0.0
C238 C 0.19051 0.06811 0.68139 0.0
C239 C 0.19857 0.05112 0.72498 0.0
C240 C 0.269 0.02036 0.73107 0.0
H241 H 0.28385 0.94591 0.84693 0.0
H242 H 0.2588 0.9757 0.8183 0.0
H243 H 0.308 0.00444 0.74468 0.0
H244 H 0.21995 0.05479 0.65222 0.0
H245 H 0.2462 0.02748 0.68186 0.0
H246 H 0.19444 -0.00277 0.75528 0.0
C247 C 0.27449 0.96311 0.81004 0.0
C248 C 0.28316 0.00254 0.74705 0.0
C249 C 0.28901 0.94616 0.82646 0.0
C250 C 0.2138 0.05421 0.67251 0.0
C251 C 0.22904 0.03868 0.68956 0.0
C252 C 0.21934 -0.00063 0.75298 0.0
C253 C 0.28069 0.96439 0.78341 0.0
C254 C 0.26557 0.98297 0.76617 0.0
C255 C 0.22148 0.03671 0.71597 0.0
C256 C 0.23687 0.01887 0.73375 0.0
H257 H 0.33204 0.91864 0.78182 0.0
H258 H 0.30658 0.94842 0.75301 0.0
H259 H 0.21929 0.96652 0.78341 0.0
H260 H 0.16544 0.07721 0.71529 0.0
H261 H 0.19248 0.05038 0.74528 0.0
C262 C 0.95861 0.42741 0.91254 0.0
C263 C 0.93211 0.43487 0.90197 0.0
C264 C 0.97452 0.44437 0.93349 0.0
C265 C 0.95945 0.49123 0.98823 0.0
H266 H 0.04969 0.51013 -0.00184 0.0
C267 C 0.02532 0.56695 0.07239 0.0
C268 C 0.05093 0.55824 0.08339 0.0
C269 C 0.00972 0.55094 0.05092 0.0
C270 C 0.0244 0.50462 -0.00421 0.0
H271 H 0.90301 0.46752 0.9039 0.0
H272 H 0.93113 0.49742 0.94015 0.0
H273 H 0.02666 0.48688 0.95756 0.0
H274 H 0.07892 0.52456 0.08143 0.0
H275 H 0.05141 0.49643 0.04416 0.0
H276 H 0.95722 0.509 0.02647 0.0
C277 C 0.9391 0.47794 0.93263 0.0
C278 C 0.01124 0.49143 0.9725 0.0
C279 C 0.92316 0.46096 0.91171 0.0
C280 C 0.05942 0.53202 0.07336 0.0
C281 C 0.04385 0.51607 0.05186 0.0
C282 C 0.97262 0.50447 0.0115 0.0
C283 C 0.96432 0.4692 0.94426 0.0
C284 C 0.97861 0.48454 0.96848 0.0
C285 C 0.01941 0.5259 0.04 0.0
C286 C 0.00522 0.5112 0.01556 0.0
H287 H 0.96617 0.40746 0.90551 0.0
H288 H 0.99379 0.43696 0.94206 0.0
H289 H 0.93415 0.48562 0.98594 0.0
H290 H 0.01813 0.58701 0.07965 0.0
H291 H 0.99103 0.55913 0.04217 0.0
C292 C 0.4246 0.30488 0.2848 0.0
C293 C 0.42561 0.30057 0.31164 0.0
C294 C 0.44047 0.28933 0.26812 0.0
C295 C 0.4759 0.222 0.26489 0.0
H296 H 0.52368 0.26864 0.20807 0.0
C297 C 0.56396 0.17437 0.20463 0.0
C298 C 0.56342 0.17881 0.17777 0.0
C299 C 0.5469 0.18899 0.22105 0.0
C300 C 0.51021 0.25519 0.2237 0.0
H301 H 0.44374 0.27625 0.342 0.0
H302 H 0.47148 0.24951 0.31304 0.0
H303 H 0.49325 0.29402 0.236 0.0
H304 H 0.54461 0.20208 0.14711 0.0
H305 H 0.51489 0.22726 0.17563 0.0
H306 H 0.493 0.18321 0.25263 0.0
C307 C 0.45819 0.26456 0.30479 0.0
C308 C 0.4927 0.26971 0.23966 0.0
C309 C 0.44242 0.28008 0.32141 0.0
C310 C 0.54563 0.19822 0.16772 0.0
C311 C 0.5287 0.21284 0.18408 0.0
C312 C 0.49344 0.20748 0.24894 0.0
C313 C 0.45758 0.26911 0.27796 0.0
C314 C 0.47538 0.25332 0.26048 0.0
C315 C 0.52909 0.2084 0.21093 0.0
C316 C 0.51081 0.22391 0.22816 0.0
H317 H 0.4118 0.32046 0.27669 0.0
H318 H 0.43924 0.29305 0.24751 0.0
H319 H 0.46247 0.20857 0.28055 0.0
H320 H 0.57746 0.15957 0.21296 0.0
H321 H 0.54792 0.18535 0.24169 0.0
C322 C 0.78007 0.79775 0.41414 0.0
C323 C 0.79379 0.83031 0.41272 0.0
C324 C 0.76048 0.78499 0.43481 0.0
C325 C 0.75245 0.79863 0.50252 0.0
H326 H 0.6734 0.73422 0.49751 0.0
C327 C 0.70187 0.70472 0.58031 0.0
C328 C 0.66954 0.69847 0.58561 0.0
C329 C 0.71548 0.72602 0.56091 0.0
C330 C 0.69528 0.75244 0.49918 0.0
H331 H 0.79643 0.87515 0.43116 0.0
H332 H 0.76269 0.85264 0.4675 0.0
H333 H 0.69791 0.76105 0.45837 0.0
H334 H 0.62649 0.71091 0.57564 0.0
H335 H 0.65027 0.74757 0.54149 0.0
H336 H 0.75054 0.78899 0.54319 0.0
C337 C 0.76707 0.83714 0.45254 0.0
C338 C 0.70932 0.7676 0.47684 0.0
C339 C 0.78622 0.84997 0.43166 0.0
C340 C 0.65147 0.71515 0.57205 0.0
C341 C 0.66497 0.73602 0.55241 0.0
C342 C 0.73869 0.78307 0.52481 0.0
C343 C 0.75467 0.80451 0.45458 0.0
C344 C 0.73816 0.79058 0.47831 0.0
C345 C 0.6969 0.74105 0.54629 0.0
C346 C 0.71017 0.75964 0.52327 0.0
H347 H 0.7854 0.78203 0.3998 0.0
H348 H 0.75124 0.7597 0.43606 0.0
H349 H 0.77488 0.81609 0.50408 0.0
H350 H 0.71642 0.69232 0.59047 0.0
H351 H 0.74017 0.72947 0.55644 0.0
C352 C 0.17274 0.56133 0.20629 0.0
C353 C 0.17383 0.55733 0.17942 0.0
C354 C 0.1894 0.54641 0.22281 0.0
C355 C 0.25582 0.5096 0.22323 0.0
H356 H 0.21815 0.47178 0.28714 0.0
C357 C 0.31082 0.42917 0.28589 0.0
C358 C 0.31029 0.43342 0.31277 0.0
C359 C 0.29449 0.44461 0.26952 0.0
C360 C 0.22913 0.48251 0.26948 0.0
H361 H 0.19292 0.53418 0.14883 0.0
H362 H 0.22144 0.50796 0.17753 0.0
H363 H 0.18888 0.49836 0.25913 0.0
H364 H 0.29256 0.4575 0.34351 0.0
H365 H 0.26443 0.48447 0.31503 0.0
H366 H 0.29601 0.49362 0.23354 0.0
C367 C 0.20824 0.52302 0.18589 0.0
C368 C 0.21237 0.49778 0.25345 0.0
C369 C 0.19168 0.53792 0.16944 0.0
C370 C 0.29336 0.45359 0.32289 0.0
C371 C 0.27704 0.46892 0.30658 0.0
C372 C 0.27256 0.49428 0.23923 0.0
C373 C 0.20747 0.52719 0.21276 0.0
C374 C 0.22549 0.51146 0.2301 0.0
C375 C 0.27726 0.46451 0.27973 0.0
C376 C 0.25941 0.48056 0.26255 0.0
H377 H 0.15927 0.5762 0.21455 0.0
H378 H 0.18855 0.55034 0.24341 0.0
H379 H 0.26683 0.52034 0.20558 0.0
H380 H 0.3236 0.41374 0.27751 0.0
H381 H 0.29489 0.44052 0.24891 0.0
C382 C 0.81794 0.27994 0.91377 0.0
C383 C 0.80875 0.30565 0.90351 0.0
C384 C 0.80214 0.26342 0.93496 0.0
C385 C 0.7559 0.27572 0.99089 0.0
H386 H 0.73863 0.18544 -0.00086 0.0
C387 C 0.68134 0.20715 0.0743 0.0
C388 C 0.68967 0.18083 0.08428 0.0
C389 C 0.69751 0.22359 0.05324 0.0
C390 C 0.74375 0.21074 -0.00271 0.0
H391 H 0.77441 0.33282 0.9064 0.0
H392 H 0.74667 0.30371 0.94317 0.0
H393 H 0.76103 0.20979 0.95873 0.0
H394 H 0.72298 0.15254 0.08111 0.0
H395 H 0.75149 0.18162 0.04465 0.0
H396 H 0.73871 0.2767 0.02946 0.0
C397 C 0.7665 0.29678 0.93513 0.0
C398 C 0.75642 0.22464 0.97408 0.0
C399 C 0.78224 0.31326 0.91391 0.0
C400 C 0.71577 0.17255 0.07377 0.0
C401 C 0.73196 0.18903 0.05273 0.0
C402 C 0.74329 0.26183 0.01411 0.0
C403 C 0.77685 0.27229 0.94632 0.0
C404 C 0.76255 0.25727 0.97062 0.0
C405 C 0.7224 0.21413 0.04176 0.0
C406 C 0.73704 0.22918 0.01756 0.0
H407 H 0.83822 0.2734 0.90622 0.0
H408 H 0.81073 0.24471 0.94319 0.0
H409 H 0.76096 0.30101 0.98899 0.0
H410 H 0.66137 0.2142 0.08193 0.0
H411 H 0.68947 0.24275 0.04519 0.0
C412 C 0.82069 0.96939 0.32278 0.0
C413 C 0.83135 0.9435 0.31495 0.0
C414 C 0.80501 0.98421 0.30548 0.0
C415 C 0.75947 0.96979 0.24475 0.0
H416 H 0.76991 0.05983 0.24722 0.0
C417 C 0.70511 0.03584 0.16915 0.0
C418 C 0.69067 0.05859 0.17831 0.0
C419 C 0.72234 0.02188 0.18578 0.0
C420 C 0.76654 0.03462 0.2465 0.0
H421 H 0.83483 0.91348 0.28255 0.0
H422 H 0.80799 0.93983 0.25208 0.0
H423 H 0.80173 0.0361 0.27526 0.0
H424 H 0.68286 0.08444 0.21217 0.0
H425 H 0.71325 0.06005 0.24134 0.0
H426 H 0.72451 0.96845 0.21576 0.0
C427 C 0.8112 0.94826 0.2718 0.0
C428 C 0.78477 0.021 0.26255 0.0
C429 C 0.8268 0.9333 0.28919 0.0
C430 C 0.6937 0.06697 0.20455 0.0
C431 C 0.71124 0.05316 0.22119 0.0
C432 C 0.74142 0.98345 0.22859 0.0
C433 C 0.79973 0.97363 0.27984 0.0
C434 C 0.78137 0.98838 0.26196 0.0
C435 C 0.72575 0.03049 0.21194 0.0
C436 C 0.74468 0.01599 0.22935 0.0
H437 H 0.8237 0.97781 0.34251 0.0
H438 H 0.79616 0.00336 0.31248 0.0
H439 H 0.75577 0.94454 0.24412 0.0
H440 H 0.70322 0.02883 0.14903 0.0
H441 H 0.7335 0.00472 0.17804 0.0
C442 C 0.95956 0.94226 0.41334 0.0
C443 C 0.94616 0.90965 0.41199 0.0
C444 C 0.97921 0.95525 0.43394 0.0
C445 C 0.98777 0.94168 0.50161 0.0
H446 H 0.0664 0.00668 0.49654 0.0
C447 C 0.03851 0.03451 0.58025 0.0
C448 C 0.07082 0.04046 0.58555 0.0
C449 C 0.02484 0.0138 0.56049 0.0
C450 C 0.04461 0.98832 0.49822 0.0
H451 H 0.94421 0.86494 0.43039 0.0
H452 H 0.97805 0.88782 0.46657 0.0
H453 H 0.04181 0.97995 0.45736 0.0
H454 H 0.11382 0.02824 0.57504 0.0
H455 H 0.08993 0.99261 0.54025 0.0
H456 H 0.98986 0.95103 0.54232 0.0
C457 C 0.97336 0.9032 0.45165 0.0
C458 C 0.03054 0.97321 0.47586 0.0
C459 C 0.95416 0.89016 0.43086 0.0
C460 C 0.08885 0.02419 0.57148 0.0
C461 C 0.07529 0.00392 0.55147 0.0
C462 C 0.00155 0.95719 0.52391 0.0
C463 C 0.9854 0.93588 0.45367 0.0
C464 C 0.00188 0.94997 0.47737 0.0
C465 C 0.04335 -0.00091 0.54547 0.0
C466 C 0.02993 0.98082 0.52235 0.0
H467 H 0.95391 0.95785 0.39906 0.0
H468 H 0.98817 0.98056 0.43516 0.0
H469 H 0.96547 0.92403 0.50319 0.0
H470 H 0.02401 0.04663 0.59079 0.0
H471 H 0.00015 0.01049 0.55611 0.0
C472 C 0.95275 0.29161 0.81892 0.0
C473 C 0.9313 0.30744 0.80937 0.0
C474 C 0.96703 0.2746 0.80235 0.0
C475 C 0.95738 0.23458 0.73942 0.0
H476 H 0.0461 0.23974 0.74733 0.0
C477 C 0.0563 0.16852 0.70155 0.0
C478 C 0.04906 0.16633 0.67507 0.0
C479 C 0.04123 0.18485 0.71821 0.0
C480 C 0.02121 0.23767 0.74509 0.0
H481 H 0.90813 0.31794 0.77487 0.0
H482 H 0.93323 0.28815 0.74578 0.0
H483 H 0.02161 0.2709 0.77529 0.0
H484 H 0.01995 0.17916 0.6454 0.0
H485 H 0.99407 0.20783 0.67429 0.0
H486 H 0.95692 0.20124 0.70931 0.0
C487 C 0.93877 0.28879 0.76619 0.0
C488 C 0.0072 0.25562 0.76106 0.0
C489 C 0.92455 0.306 0.7828 0.0
C490 C 0.02606 0.18032 0.66571 0.0
C491 C 0.01105 0.19664 0.68232 0.0
C492 C 0.97137 0.21654 0.72349 0.0
C493 C 0.96016 0.27289 0.77582 0.0
C494 C 0.97513 0.25429 0.75842 0.0
C495 C 0.01861 0.19935 0.70874 0.0
C496 C 0.00347 0.21789 0.72612 0.0
H497 H 0.95845 0.29217 0.8393 0.0
H498 H 0.98307 0.2623 0.81043 0.0
H499 H 0.93252 0.23267 0.73717 0.0
H500 H 0.07385 0.15792 0.70937 0.0
H501 H 0.04728 0.18611 0.73853 0.0
C502 C 0.52454 0.67808 0.67196 0.0
C503 C 0.54836 0.66461 0.68035 0.0
C504 C 0.509 0.69277 0.68945 0.0
C505 C 0.51898 0.7311 0.7532 0.0
H506 H 0.43007 0.72531 0.7457 0.0
C507 C 0.45016 0.78465 0.82715 0.0
C508 C 0.42913 0.80084 0.81737 0.0
C509 C 0.46431 0.76735 0.81074 0.0
C510 C 0.45497 0.72738 0.74787 0.0
H511 H 0.574 0.65526 0.71383 0.0
H512 H 0.54647 0.68064 0.74458 0.0
H513 H 0.45475 0.69465 0.71735 0.0
H514 H 0.40649 0.8116 0.78267 0.0
H515 H 0.43132 0.78126 0.75389 0.0
H516 H 0.51914 0.7638 0.78377 0.0
C517 C 0.54018 0.68021 0.72433 0.0
C518 C 0.46912 0.70979 0.73166 0.0
C519 C 0.5558 0.66549 0.70677 0.0
C520 C 0.42258 0.79938 0.79078 0.0
C521 C 0.43665 0.78186 0.77434 0.0
C522 C 0.50479 0.74858 0.76948 0.0
C523 C 0.51682 0.69431 0.71581 0.0
C524 C 0.50136 0.71161 0.73401 0.0
C525 C 0.45768 0.76569 0.78418 0.0
C526 C 0.47268 0.74704 0.7669 0.0
H527 H 0.51824 0.67788 0.65172 0.0
H528 H 0.49148 0.70374 0.68213 0.0
H529 H 0.54395 0.73348 0.75525 0.0
H530 H 0.4557 0.78525 0.84756 0.0
H531 H 0.48012 0.75486 0.81895 0.0
C532 C 0.20442 0.67607 0.07968 0.0
C533 C 0.17777 0.68422 0.0892 0.0
C534 C 0.2217 0.69275 0.05921 0.0
C535 C 0.21024 0.73928 0.0033 0.0
H536 H 0.30087 0.75742 -0.00337 0.0
C537 C 0.28044 0.81333 0.92029 0.0
C538 C 0.30685 0.80475 0.91074 0.0
C539 C 0.26367 0.79755 0.94136 0.0
C540 C 0.27549 0.7521 -0.00192 0.0
H541 H 0.14982 0.71782 0.08595 0.0
H542 H 0.18027 0.74715 0.05044 0.0
H543 H 0.27563 0.73491 0.03673 0.0
H544 H 0.33502 0.77145 0.91474 0.0
H545 H 0.30541 0.74362 0.95125 0.0
H546 H 0.21006 0.75634 0.96462 0.0
C547 C 0.18733 0.7274 0.05847 0.0
C548 C 0.26108 0.73937 0.02109 0.0
C549 C 0.17007 0.71075 0.07897 0.0
C550 C 0.31494 0.77882 0.92172 0.0
C551 C 0.29816 0.76305 0.94279 0.0
C552 C 0.22464 0.75199 0.98029 0.0
C553 C 0.21269 0.71794 0.04785 0.0
C554 C 0.2283 0.73281 0.02394 0.0
C555 C 0.27292 0.77282 0.95329 0.0
C556 C 0.25741 0.75848 0.97741 0.0
H557 H 0.21108 0.65581 0.08716 0.0
H558 H 0.24107 0.68483 0.05141 0.0
H559 H 0.18486 0.7339 0.00472 0.0
H560 H 0.27352 0.83318 0.91227 0.0
H561 H 0.2444 0.80572 0.94905 0.0
C562 C 0.43142 0.45472 0.41397 0.0
C563 C 0.43824 0.4286 0.40222 0.0
C564 C 0.45065 0.4711 0.43357 0.0
C565 C 0.50659 0.45916 0.48297 0.0
H566 H 0.51789 0.54826 0.49458 0.0
C567 C 0.58251 0.53248 0.56509 0.0
C568 C 0.56861 0.55334 0.57817 0.0
C569 C 0.56772 0.51573 0.54358 0.0
C570 C 0.51475 0.52331 0.49162 0.0
H571 H 0.47183 0.40049 0.40062 0.0
H572 H 0.50589 0.42967 0.43439 0.0
H573 H 0.49282 0.52425 0.45493 0.0
H574 H 0.52743 0.57151 0.57982 0.0
H575 H 0.50186 0.54239 0.54231 0.0
H576 H 0.52891 0.45854 0.51972 0.0
C577 C 0.48515 0.43692 0.42895 0.0
C578 C 0.5004 0.50955 0.46893 0.0
C579 C 0.46576 0.42037 0.40944 0.0
C580 C 0.53889 0.55578 0.57015 0.0
C581 C 0.52432 0.53931 0.54855 0.0
C582 C 0.52129 0.47305 0.50557 0.0
C583 C 0.47734 0.46194 0.44173 0.0
C584 C 0.49559 0.47719 0.46454 0.0
C585 C 0.53897 0.5198 0.53468 0.0
C586 C 0.52493 0.50512 0.51029 0.0
H587 H 0.41038 0.46167 0.40894 0.0
H588 H 0.44368 0.49001 0.44314 0.0
H589 H 0.50289 0.43409 0.4804 0.0
H590 H 0.60535 0.53 0.57082 0.0
H591 H 0.57944 0.50074 0.53321 0.0
loop_
_geom_bond_atom_site_label_1
_geom_bond_atom_site_label_2
_geom_bond_distance
_geom_bond_site_symmetry_2
_ccdc_geom_bond_type
O0 Cd1 2.223 . S
O0 C8 1.315 . S
Cd1 O0 2.223 . S
Cd1 O4 2.297 . S
Cd1 O5 2.439 . S
Cd1 O11 2.240 . S
Cd2 O3 2.240 . S
Cd2 O10 2.223 . S
Cd2 O12 2.297 . S
Cd2 O13 2.439 . S
O3 Cd2 2.240 . S
O3 C8 1.279 . S
O4 Cd1 2.297 . S
O4 C6 1.247 . S
O5 Cd1 2.439 . S
O5 C6 1.208 . S
C6 O4 1.247 . S
C6 O5 1.208 . S
C7 O12 1.247 . S
C7 O13 1.208 . S
C8 O0 1.315 . S
C8 O3 1.279 . S
C9 O10 1.315 . S
C9 O11 1.279 . S
O10 Cd2 2.223 . S
O10 C9 1.315 . S
O11 Cd1 2.240 . S
O11 C9 1.279 . S
O12 Cd2 2.297 . S
O12 C7 1.247 . S
O13 Cd2 2.439 . S
O13 C7 1.208 . S
O14 Cd15 2.223 . S
O14 C22 1.315 . S
Cd15 O14 2.223 . S
Cd15 O18 2.297 . S
Cd15 O19 2.439 . S
Cd15 O25 2.240 . S
Cd16 O17 2.240 . S
Cd16 O24 2.223 . S
Cd16 O26 2.297 . S
Cd16 O27 2.439 . S
O17 Cd16 2.240 . S
O17 C22 1.279 . S
O18 Cd15 2.297 . S
O18 C20 1.247 . S
O19 Cd15 2.439 . S
O19 C20 1.208 . S
C20 O18 1.247 . S
C20 O19 1.208 . S
C21 O26 1.247 . S
C21 O27 1.208 . S
C22 O14 1.315 . S
C22 O17 1.279 . S
C23 O24 1.315 . S
C23 O25 1.279 . S
O24 Cd16 2.223 . S
O24 C23 1.315 . S
O25 Cd15 2.240 . S
O25 C23 1.279 . S
O26 Cd16 2.297 . S
O26 C21 1.247 . S
O27 Cd16 2.439 . S
O27 C21 1.208 . S
O28 Cd29 2.223 . S
O28 C36 1.315 . S
Cd29 O28 2.223 . S
Cd29 O32 2.297 . S
Cd29 O33 2.439 . S
Cd29 O39 2.240 . S
Cd30 O31 2.240 . S
Cd30 O38 2.223 . S
Cd30 O40 2.297 . S
Cd30 O41 2.439 . S
O31 Cd30 2.240 . S
O31 C36 1.279 . S
O32 Cd29 2.297 . S
O32 C34 1.247 . S
O33 Cd29 2.439 . S
O33 C34 1.208 . S
C34 O32 1.247 . S
C34 O33 1.208 . S
C35 O40 1.247 . S
C35 O41 1.208 . S
C36 O28 1.315 . S
C36 O31 1.279 . S
C37 O38 1.315 . S
C37 O39 1.279 . S
O38 Cd30 2.223 . S
O38 C37 1.315 . S
O39 Cd29 2.240 . S
O39 C37 1.279 . S
O40 Cd30 2.297 . S
O40 C35 1.247 . S
O41 Cd30 2.439 . S
O41 C35 1.208 . S
O42 Cd43 2.223 . S
O42 C50 1.315 . S
Cd43 O42 2.223 . S
Cd43 O46 2.297 . S
Cd43 O47 2.439 . S
Cd43 O53 2.240 . S
Cd44 O45 2.240 . S
Cd44 O52 2.223 . S
Cd44 O54 2.297 . S
Cd44 O55 2.439 . S
O45 Cd44 2.240 . S
O45 C50 1.279 . S
O46 Cd43 2.297 . S
O46 C48 1.247 . S
O47 Cd43 2.439 . S
O47 C48 1.208 . S
C48 O46 1.247 . S
C48 O47 1.208 . S
C49 O54 1.247 . S
C49 O55 1.208 . S
C50 O42 1.315 . S
C50 O45 1.279 . S
C51 O52 1.315 . S
C51 O53 1.279 . S
O52 Cd44 2.223 . S
O52 C51 1.315 . S
O53 Cd43 2.240 . S
O53 C51 1.279 . S
O54 Cd44 2.297 . S
O54 C49 1.247 . S
O55 Cd44 2.439 . S
O55 C49 1.208 . S
O56 Cd57 2.223 . S
O56 C64 1.315 . S
Cd57 O56 2.223 . S
Cd57 O60 2.297 . S
Cd57 O61 2.439 . S
Cd57 O67 2.240 . S
Cd58 O59 2.240 . S
Cd58 O66 2.223 . S
Cd58 O68 2.297 . S
Cd58 O69 2.439 . S
O59 Cd58 2.240 . S
O59 C64 1.279 . S
O60 Cd57 2.297 . S
O60 C62 1.247 . S
O61 Cd57 2.439 . S
O61 C62 1.208 . S
C62 O60 1.247 . S
C62 O61 1.208 . S
C63 O68 1.247 . S
C63 O69 1.208 . S
C64 O56 1.315 . S
C64 O59 1.279 . S
C65 O66 1.315 . S
C65 O67 1.279 . S
O66 Cd58 2.223 . S
O66 C65 1.315 . S
O67 Cd57 2.240 . S
O67 C65 1.279 . S
O68 Cd58 2.297 . S
O68 C63 1.247 . S
O69 Cd58 2.439 . S
O69 C63 1.208 . S
O70 Cd71 2.223 . S
O70 C78 1.315 . S
Cd71 O70 2.223 . S
Cd71 O74 2.297 . S
Cd71 O75 2.439 . S
Cd71 O81 2.240 . S
Cd72 O73 2.240 . S
Cd72 O80 2.223 . S
Cd72 O82 2.297 . S
Cd72 O83 2.439 . S
O73 Cd72 2.240 . S
O73 C78 1.279 . S
O74 Cd71 2.297 . S
O74 C76 1.247 . S
O75 Cd71 2.439 . S
O75 C76 1.208 . S
C76 O74 1.247 . S
C76 O75 1.208 . S
C77 O82 1.247 . S
C77 O83 1.208 . S
C78 O70 1.315 . S
C78 O73 1.279 . S
C79 O80 1.315 . S
C79 O81 1.279 . S
O80 Cd72 2.223 . S
O80 C79 1.315 . S
O81 Cd71 2.240 . S
O81 C79 1.279 . S
O82 Cd72 2.297 . S
O82 C77 1.247 . S
O83 Cd72 2.439 . S
O83 C77 1.208 . S
O84 Cd85 2.223 . S
O84 C92 1.315 . S
Cd85 O84 2.223 . S
Cd85 O88 2.297 . S
Cd85 O89 2.439 . S
Cd85 O95 2.240 . S
Cd86 O87 2.240 . S
Cd86 O94 2.223 . S
Cd86 O96 2.297 . S
Cd86 O97 2.439 . S
O87 Cd86 2.240 . S
O87 C92 1.279 . S
O88 Cd85 2.297 . S
O88 C90 1.247 . S
O89 Cd85 2.439 . S
O89 C90 1.208 . S
C90 O88 1.247 . S
C90 O89 1.208 . S
C91 O96 1.247 . S
C91 O97 1.208 . S
C92 O84 1.315 . S
C92 O87 1.279 . S
C93 O94 1.315 . S
C93 O95 1.279 . S
O94 Cd86 2.223 . S
O94 C93 1.315 . S
O95 Cd85 2.240 . S
O95 C93 1.279 . S
O96 Cd86 2.297 . S
O96 C91 1.247 . S
O97 Cd86 2.439 . S
O97 C91 1.208 . S
O98 Cd99 2.223 . S
O98 C106 1.315 . S
Cd99 O98 2.223 . S
Cd99 O102 2.297 . S
Cd99 O103 2.439 . S
Cd99 O109 2.240 . S
Cd100 O101 2.240 . S
Cd100 O108 2.223 . S
Cd100 O110 2.297 . S
Cd100 O111 2.439 . S
O101 Cd100 2.240 . S
O101 C106 1.279 . S
O102 Cd99 2.297 . S
O102 C104 1.247 . S
O103 Cd99 2.439 . S
O103 C104 1.208 . S
C104 O102 1.247 . S
C104 O103 1.208 . S
C105 O110 1.247 . S
C105 O111 1.208 . S
C106 O98 1.315 . S
C106 O101 1.279 . S
C107 O108 1.315 . S
C107 O109 1.279 . S
O108 Cd100 2.223 . S
O108 C107 1.315 . S
O109 Cd99 2.240 . S
O109 C107 1.279 . S
O110 Cd100 2.297 . S
O110 C105 1.247 . S
O111 Cd100 2.439 . S
O111 C105 1.208 . S
C112 C113 1.349 . S
C112 C114 1.327 . S
C112 H137 0.950 . S
C113 C112 1.349 . S
C113 C129 1.349 . S
C114 C112 1.327 . S
C114 C133 1.429 . S
C114 H138 0.950 . S
C115 C132 1.574 . S
C115 C134 1.368 . S
C115 H139 0.949 . S
H116 C120 0.949 . S
C117 C118 1.349 . S
C117 C119 1.327 . S
C117 H140 0.950 . S
C118 C117 1.349 . S
C118 C130 1.349 . S
C119 C117 1.327 . S
C119 C135 1.429 . S
C119 H141 0.950 . S
C120 H116 0.949 . S
C120 C128 1.574 . S
C120 C136 1.368 . S
H121 C129 0.950 . S
H122 C127 0.950 . S
H123 C128 0.949 . S
H124 C130 0.950 . S
H125 C131 0.950 . S
H126 C132 0.949 . S
C127 H122 0.950 . S
C127 C129 1.327 . S
C127 C133 1.429 . S
C128 C120 1.574 . S
C128 H123 0.949 . S
C128 C134 1.368 . S
C129 C113 1.349 . S
C129 H121 0.950 . S
C129 C127 1.327 . S
C130 C118 1.349 . S
C130 H124 0.950 . S
C130 C131 1.327 . S
C131 H125 0.950 . S
C131 C130 1.327 . S
C131 C135 1.429 . S
C132 C115 1.574 . S
C132 H126 0.949 . S
C132 C136 1.368 . S
C133 C114 1.429 . S
C133 C127 1.429 . S
C133 C134 1.523 . S
C134 C115 1.368 . S
C134 C128 1.368 . S
C134 C133 1.523 . S
C135 C119 1.429 . S
C135 C131 1.429 . S
C135 C136 1.523 . S
C136 C120 1.368 . S
C136 C132 1.368 . S
C136 C135 1.523 . S
H137 C112 0.950 . S
H138 C114 0.950 . S
H139 C115 0.949 . S
H140 C117 0.950 . S
H141 C119 0.950 . S
C142 C143 1.349 . S
C142 C144 1.327 . S
C142 H167 0.950 . S
C143 C142 1.349 . S
C143 C159 1.349 . S
C144 C142 1.327 . S
C144 C163 1.429 . S
C144 H168 0.950 . S
C145 C162 1.574 . S
C145 C164 1.368 . S
C145 H169 0.949 . S
H146 C150 0.949 . S
C147 C148 1.349 . S
C147 C149 1.327 . S
C147 H170 0.950 . S
C148 C147 1.349 . S
C148 C160 1.349 . S
C149 C147 1.327 . S
C149 C165 1.429 . S
C149 H171 0.950 . S
C150 H146 0.949 . S
C150 C158 1.574 . S
C150 C166 1.368 . S
H151 C159 0.950 . S
H152 C157 0.950 . S
H153 C158 0.949 . S
H154 C160 0.950 . S
H155 C161 0.950 . S
H156 C162 0.949 . S
C157 H152 0.950 . S
C157 C159 1.327 . S
C157 C163 1.429 . S
C158 C150 1.574 . S
C158 H153 0.949 . S
C158 C164 1.368 . S
C159 C143 1.349 . S
C159 H151 0.950 . S
C159 C157 1.327 . S
C160 C148 1.349 . S
C160 H154 0.950 . S
C160 C161 1.327 . S
C161 H155 0.950 . S
C161 C160 1.327 . S
C161 C165 1.429 . S
C162 C145 1.574 . S
C162 H156 0.949 . S
C162 C166 1.368 . S
C163 C144 1.429 . S
C163 C157 1.429 . S
C163 C164 1.523 . S
C164 C145 1.368 . S
C164 C158 1.368 . S
C164 C163 1.523 . S
C165 C149 1.429 . S
C165 C161 1.429 . S
C165 C166 1.523 . S
C166 C150 1.368 . S
C166 C162 1.368 . S
C166 C165 1.523 . S
H167 C142 0.950 . S
H168 C144 0.950 . S
H169 C145 0.949 . S
H170 C147 0.950 . S
H171 C149 0.950 . S
C172 C173 1.349 . S
C172 C174 1.327 . S
C172 H197 0.950 . S
C173 C172 1.349 . S
C173 C189 1.349 . S
C174 C172 1.327 . S
C174 C193 1.429 . S
C174 H198 0.950 . S
C175 C192 1.574 . S
C175 C194 1.368 1_565 S
C175 H199 0.949 . S
H176 C180 0.949 . S
C177 C178 1.349 . S
C177 C179 1.327 . S
C177 H200 0.950 . S
C178 C177 1.349 . S
C178 C190 1.349 . S
C179 C177 1.327 . S
C179 C195 1.429 . S
C179 H201 0.950 . S
C180 H176 0.949 . S
C180 C188 1.574 1_565 S
C180 C196 1.368 . S
H181 C189 0.950 . S
H182 C187 0.950 . S
H183 C188 0.949 . S
H184 C190 0.950 . S
H185 C191 0.950 . S
H186 C192 0.949 . S
C187 H182 0.950 . S
C187 C189 1.327 . S
C187 C193 1.429 . S
C188 C180 1.574 1_545 S
C188 H183 0.949 . S
C188 C194 1.368 1_556 S
C189 C173 1.349 . S
C189 H181 0.950 . S
C189 C187 1.327 . S
C190 C178 1.349 . S
C190 H184 0.950 . S
C190 C191 1.327 . S
C191 H185 0.950 . S
C191 C190 1.327 . S
C191 C195 1.429 . S
C192 C175 1.574 . S
C192 H186 0.949 . S
C192 C196 1.368 1_554 S
C193 C174 1.429 . S
C193 C187 1.429 . S
C193 C194 1.523 . S
C194 C175 1.368 1_545 S
C194 C188 1.368 1_554 S
C194 C193 1.523 . S
C195 C179 1.429 . S
C195 C191 1.429 . S
C195 C196 1.523 . S
C196 C180 1.368 . S
C196 C192 1.368 1_556 S
C196 C195 1.523 . S
H197 C172 0.950 . S
H198 C174 0.950 . S
H199 C175 0.949 . S
H200 C177 0.950 . S
H201 C179 0.950 . S
C202 C203 1.349 . S
C202 C204 1.327 . S
C202 H227 0.950 . S
C203 C202 1.349 . S
C203 C219 1.349 . S
C204 C202 1.327 . S
C204 C223 1.429 . S
C204 H228 0.950 . S
C205 C222 1.574 . S
C205 C224 1.368 . S
C205 H229 0.949 . S
H206 C210 0.949 . S
C207 C208 1.349 . S
C207 C209 1.327 . S
C207 H230 0.950 . S
C208 C207 1.349 . S
C208 C220 1.349 . S
C209 C207 1.327 . S
C209 C225 1.429 . S
C209 H231 0.950 . S
C210 H206 0.949 . S
C210 C218 1.574 1_455 S
C210 C226 1.368 . S
H211 C219 0.950 . S
H212 C217 0.950 . S
H213 C218 0.949 . S
H214 C220 0.950 . S
H215 C221 0.950 . S
H216 C222 0.949 . S
C217 H212 0.950 . S
C217 C219 1.327 . S
C217 C223 1.429 . S
C218 C210 1.574 1_655 S
C218 H213 0.949 . S
C218 C224 1.368 1_655 S
C219 C203 1.349 . S
C219 H211 0.950 . S
C219 C217 1.327 . S
C220 C208 1.349 . S
C220 H214 0.950 . S
C220 C221 1.327 . S
C221 H215 0.950 . S
C221 C220 1.327 . S
C221 C225 1.429 . S
C222 C205 1.574 . S
C222 H216 0.949 . S
C222 C226 1.368 . S
C223 C204 1.429 . S
C223 C217 1.429 . S
C223 C224 1.523 1_655 S
C224 C205 1.368 . S
C224 C218 1.368 1_455 S
C224 C223 1.523 1_455 S
C225 C209 1.429 . S
C225 C221 1.429 . S
C225 C226 1.523 . S
C226 C210 1.368 . S
C226 C222 1.368 . S
C226 C225 1.523 . S
H227 C202 0.950 . S
H228 C204 0.950 . S
H229 C205 0.949 . S
H230 C207 0.950 . S
H231 C209 0.950 . S
C232 C233 1.349 . S
C232 C234 1.327 . S
C232 H257 0.950 . S
C233 C232 1.349 . S
C233 C249 1.349 . S
C234 C232 1.327 . S
C234 C253 1.429 . S
C234 H258 0.950 . S
C235 C252 1.574 . S
C235 C254 1.368 . S
C235 H259 0.949 . S
H236 C240 0.949 . S
C237 C238 1.349 . S
C237 C239 1.327 . S
C237 H260 0.950 . S
C238 C237 1.349 . S
C238 C250 1.349 . S
C239 C237 1.327 . S
C239 C255 1.429 . S
C239 H261 0.950 . S
C240 H236 0.949 . S
C240 C248 1.574 . S
C240 C256 1.368 . S
H241 C249 0.950 . S
H242 C247 0.950 . S
H243 C248 0.949 . S
H244 C250 0.950 . S
H245 C251 0.950 . S
H246 C252 0.950 . S
C247 H242 0.950 . S
C247 C249 1.327 . S
C247 C253 1.429 . S
C248 C240 1.574 . S
C248 H243 0.949 . S
C248 C254 1.368 . S
C249 C233 1.349 . S
C249 H241 0.950 . S
C249 C247 1.327 . S
C250 C238 1.349 . S
C250 H244 0.950 . S
C250 C251 1.327 . S
C251 H245 0.950 . S
C251 C250 1.327 . S
C251 C255 1.429 . S
C252 C235 1.574 . S
C252 H246 0.950 . S
C252 C256 1.368 . S
C253 C234 1.429 . S
C253 C247 1.429 . S
C253 C254 1.523 . S
C254 C235 1.368 . S
C254 C248 1.368 . S
C254 C253 1.523 . S
C255 C239 1.429 . S
C255 C251 1.429 . S
C255 C256 1.523 1_545 S
C256 C240 1.368 . S
C256 C252 1.368 . S
C256 C255 1.523 1_565 S
H257 C232 0.950 . S
H258 C234 0.950 . S
H259 C235 0.949 . S
H260 C237 0.950 . S
H261 C239 0.950 . S
C262 C263 1.349 . S
C262 C264 1.327 . S
C262 H287 0.950 . S
C263 C262 1.349 . S
C263 C279 1.349 . S
C264 C262 1.327 . S
C264 C283 1.429 . S
C264 H288 0.950 . S
C265 C282 1.574 1_656 S
C265 C284 1.368 . S
C265 H289 0.949 . S
H266 C270 0.949 . S
C267 C268 1.349 . S
C267 C269 1.327 . S
C267 H290 0.950 . S
C268 C267 1.349 . S
C268 C280 1.349 . S
C269 C267 1.327 . S
C269 C285 1.429 . S
C269 H291 0.950 . S
C270 H266 0.949 . S
C270 C278 1.574 1_554 S
C270 C286 1.368 . S
H271 C279 0.950 . S
H272 C277 0.950 . S
H273 C278 0.949 . S
H274 C280 0.950 . S
H275 C281 0.950 . S
H276 C282 0.949 1_655 S
C277 H272 0.950 . S
C277 C279 1.327 . S
C277 C283 1.429 . S
C278 C270 1.574 1_556 S
C278 H273 0.949 . S
C278 C284 1.368 1_455 S
C279 C263 1.349 . S
C279 H271 0.950 . S
C279 C277 1.327 . S
C280 C268 1.349 . S
C280 H274 0.950 . S
C280 C281 1.327 . S
C281 H275 0.950 . S
C281 C280 1.327 . S
C281 C285 1.429 . S
C282 C265 1.574 1_454 S
C282 H276 0.949 1_455 S
C282 C286 1.368 . S
C283 C264 1.429 . S
C283 C277 1.429 . S
C283 C284 1.523 . S
C284 C265 1.368 . S
C284 C278 1.368 1_655 S
C284 C283 1.523 . S
C285 C269 1.429 . S
C285 C281 1.429 . S
C285 C286 1.523 . S
C286 C270 1.368 . S
C286 C282 1.368 . S
C286 C285 1.523 . S
H287 C262 0.950 . S
H288 C264 0.950 . S
H289 C265 0.949 . S
H290 C267 0.950 . S
H291 C269 0.950 . S
C292 C293 1.349 . S
C292 C294 1.327 . S
C292 H317 0.950 . S
C293 C292 1.349 . S
C293 C309 1.349 . S
C294 C292 1.327 . S
C294 C313 1.429 . S
C294 H318 0.950 . S
C295 C312 1.574 . S
C295 C314 1.368 . S
C295 H319 0.949 . S
H296 C300 0.949 . S
C297 C298 1.349 . S
C297 C299 1.327 . S
C297 H320 0.950 . S
C298 C297 1.349 . S
C298 C310 1.349 . S
C299 C297 1.327 . S
C299 C315 1.429 . S
C299 H321 0.950 . S
C300 H296 0.949 . S
C300 C308 1.574 . S
C300 C316 1.368 . S
H301 C309 0.950 . S
H302 C307 0.950 . S
H303 C308 0.949 . S
H304 C310 0.950 . S
H305 C311 0.950 . S
H306 C312 0.949 . S
C307 H302 0.950 . S
C307 C309 1.327 . S
C307 C313 1.429 . S
C308 C300 1.574 . S
C308 H303 0.949 . S
C308 C314 1.368 . S
C309 C293 1.349 . S
C309 H301 0.950 . S
C309 C307 1.327 . S
C310 C298 1.349 . S
C310 H304 0.950 . S
C310 C311 1.327 . S
C311 H305 0.950 . S
C311 C310 1.327 . S
C311 C315 1.429 . S
C312 C295 1.574 . S
C312 H306 0.949 . S
C312 C316 1.368 . S
C313 C294 1.429 . S
C313 C307 1.429 . S
C313 C314 1.523 . S
C314 C295 1.368 . S
C314 C308 1.368 . S
C314 C313 1.523 . S
C315 C299 1.429 . S
C315 C311 1.429 . S
C315 C316 1.523 . S
C316 C300 1.368 . S
C316 C312 1.368 . S
C316 C315 1.523 . S
H317 C292 0.950 . S
H318 C294 0.950 . S
H319 C295 0.949 . S
H320 C297 0.950 . S
H321 C299 0.950 . S
C322 C323 1.349 . S
C322 C324 1.327 . S
C322 H347 0.950 . S
C323 C322 1.349 . S
C323 C339 1.349 . S
C324 C322 1.327 . S
C324 C343 1.429 . S
C324 H348 0.950 . S
C325 C342 1.574 . S
C325 C344 1.368 . S
C325 H349 0.949 . S
H326 C330 0.949 . S
C327 C328 1.349 . S
C327 C329 1.327 . S
C327 H350 0.950 . S
C328 C327 1.349 . S
C328 C340 1.349 . S
C329 C327 1.327 . S
C329 C345 1.429 . S
C329 H351 0.950 . S
C330 H326 0.949 . S
C330 C338 1.574 . S
C330 C346 1.368 . S
H331 C339 0.950 . S
H332 C337 0.950 . S
H333 C338 0.949 . S
H334 C340 0.950 . S
H335 C341 0.950 . S
H336 C342 0.949 . S
C337 H332 0.950 . S
C337 C339 1.327 . S
C337 C343 1.429 . S
C338 C330 1.574 . S
C338 H333 0.949 . S
C338 C344 1.368 . S
C339 C323 1.349 . S
C339 H331 0.950 . S
C339 C337 1.327 . S
C340 C328 1.349 . S
C340 H334 0.950 . S
C340 C341 1.327 . S
C341 H335 0.950 . S
C341 C340 1.327 . S
C341 C345 1.429 . S
C342 C325 1.574 . S
C342 H336 0.949 . S
C342 C346 1.368 . S
C343 C324 1.429 . S
C343 C337 1.429 . S
C343 C344 1.523 . S
C344 C325 1.368 . S
C344 C338 1.368 . S
C344 C343 1.523 . S
C345 C329 1.429 . S
C345 C341 1.429 . S
C345 C346 1.523 . S
C346 C330 1.368 . S
C346 C342 1.368 . S
C346 C345 1.523 . S
H347 C322 0.950 . S
H348 C324 0.950 . S
H349 C325 0.949 . S
H350 C327 0.950 . S
H351 C329 0.950 . S
C352 C353 1.349 . S
C352 C354 1.327 . S
C352 H377 0.950 . S
C353 C352 1.349 . S
C353 C369 1.349 . S
C354 C352 1.327 . S
C354 C373 1.429 . S
C354 H378 0.950 . S
C355 C372 1.574 . S
C355 C374 1.368 . S
C355 H379 0.949 . S
H356 C360 0.949 . S
C357 C358 1.349 . S
C357 C359 1.327 . S
C357 H380 0.950 . S
C358 C357 1.349 . S
C358 C370 1.349 . S
C359 C357 1.327 . S
C359 C375 1.429 . S
C359 H381 0.950 . S
C360 H356 0.949 . S
C360 C368 1.574 . S
C360 C376 1.368 . S
H361 C369 0.950 . S
H362 C367 0.950 . S
H363 C368 0.949 . S
H364 C370 0.950 . S
H365 C371 0.950 . S
H366 C372 0.949 . S
C367 H362 0.950 . S
C367 C369 1.327 . S
C367 C373 1.429 . S
C368 C360 1.574 . S
C368 H363 0.949 . S
C368 C374 1.368 . S
C369 C353 1.349 . S
C369 H361 0.950 . S
C369 C367 1.327 . S
C370 C358 1.349 . S
C370 H364 0.950 . S
C370 C371 1.327 . S
C371 H365 0.950 . S
C371 C370 1.327 . S
C371 C375 1.429 . S
C372 C355 1.574 . S
C372 H366 0.949 . S
C372 C376 1.368 . S
C373 C354 1.429 . S
C373 C367 1.429 . S
C373 C374 1.523 . S
C374 C355 1.368 . S
C374 C368 1.368 . S
C374 C373 1.523 . S
C375 C359 1.429 . S
C375 C371 1.429 . S
C375 C376 1.523 . S
C376 C360 1.368 . S
C376 C372 1.368 . S
C376 C375 1.523 . S
H377 C352 0.950 . S
H378 C354 0.950 . S
H379 C355 0.949 . S
H380 C357 0.950 . S
H381 C359 0.950 . S
C382 C383 1.349 . S
C382 C384 1.327 . S
C382 H407 0.950 . S
C383 C382 1.349 . S
C383 C399 1.349 . S
C384 C382 1.327 . S
C384 C403 1.429 . S
C384 H408 0.950 . S
C385 C402 1.574 1_556 S
C385 C404 1.368 . S
C385 H409 0.949 . S
H386 C390 0.949 . S
C387 C388 1.349 . S
C387 C389 1.327 . S
C387 H410 0.950 . S
C388 C387 1.349 . S
C388 C400 1.349 . S
C389 C387 1.327 . S
C389 C405 1.429 . S
C389 H411 0.950 . S
C390 H386 0.949 . S
C390 C398 1.574 1_554 S
C390 C406 1.368 . S
H391 C399 0.950 . S
H392 C397 0.950 . S
H393 C398 0.949 . S
H394 C400 0.950 . S
H395 C401 0.950 . S
H396 C402 0.949 . S
C397 H392 0.950 . S
C397 C399 1.327 . S
C397 C403 1.429 . S
C398 C390 1.574 1_556 S
C398 H393 0.949 . S
C398 C404 1.368 . S
C399 C383 1.349 . S
C399 H391 0.950 . S
C399 C397 1.327 . S
C400 C388 1.349 . S
C400 H394 0.950 . S
C400 C401 1.327 . S
C401 H395 0.950 . S
C401 C400 1.327 . S
C401 C405 1.429 . S
C402 C385 1.574 1_554 S
C402 H396 0.949 . S
C402 C406 1.368 . S
C403 C384 1.429 . S
C403 C397 1.429 . S
C403 C404 1.523 . S
C404 C385 1.368 . S
C404 C398 1.368 . S
C404 C403 1.523 . S
C405 C389 1.429 . S
C405 C401 1.429 . S
C405 C406 1.523 . S
C406 C390 1.368 . S
C406 C402 1.368 . S
C406 C405 1.523 . S
H407 C382 0.950 . S
H408 C384 0.950 . S
H409 C385 0.949 . S
H410 C387 0.950 . S
H411 C389 0.950 . S
C412 C413 1.349 . S
C412 C414 1.327 . S
C412 H437 0.950 . S
C413 C412 1.349 . S
C413 C429 1.349 . S
C414 C412 1.327 . S
C414 C433 1.429 . S
C414 H438 0.950 . S
C415 C432 1.574 . S
C415 C434 1.368 . S
C415 H439 0.949 . S
H416 C420 0.949 . S
C417 C418 1.349 . S
C417 C419 1.327 . S
C417 H440 0.950 . S
C418 C417 1.349 . S
C418 C430 1.349 . S
C419 C417 1.327 . S
C419 C435 1.429 . S
C419 H441 0.950 1_545 S
C420 H416 0.949 . S
C420 C428 1.559 1_545 S
C420 C436 1.368 1_545 S
H421 C429 0.950 . S
H422 C427 0.950 . S
H423 C428 0.945 1_545 S
H424 C430 0.950 . S
H425 C431 0.950 . S
H426 C432 0.949 . S
C427 H422 0.950 . S
C427 C429 1.327 . S
C427 C433 1.429 . S
C428 C420 1.559 1_565 S
C428 H423 0.945 1_565 S
C428 C434 1.388 . S
C429 C413 1.349 . S
C429 H421 0.950 . S
C429 C427 1.327 . S
C430 C418 1.349 . S
C430 H424 0.950 . S
C430 C431 1.327 . S
C431 H425 0.950 . S
C431 C430 1.327 . S
C431 C435 1.429 . S
C432 C415 1.574 . S
C432 H426 0.949 . S
C432 C436 1.368 . S
C433 C414 1.429 . S
C433 C427 1.429 . S
C433 C434 1.523 . S
C434 C415 1.368 . S
C434 C428 1.388 . S
C434 C433 1.523 . S
C435 C419 1.429 . S
C435 C431 1.429 . S
C435 C436 1.523 1_545 S
C436 C420 1.368 1_565 S
C436 C432 1.368 . S
C436 C435 1.523 1_565 S
H437 C412 0.950 . S
H438 C414 0.950 . S
H439 C415 0.949 . S
H440 C417 0.950 . S
H441 C419 0.950 1_565 S
C442 C443 1.349 . S
C442 C444 1.327 . S
C442 H467 0.950 . S
C443 C442 1.349 . S
C443 C459 1.349 . S
C444 C442 1.327 . S
C444 C463 1.429 . S
C444 H468 0.950 . S
C445 C462 1.574 1_655 S
C445 C464 1.368 . S
C445 H469 0.949 . S
H446 C450 0.949 . S
C447 C448 1.349 . S
C447 C449 1.327 . S
C447 H470 0.950 . S
C448 C447 1.349 . S
C448 C460 1.349 . S
C449 C447 1.327 . S
C449 C465 1.429 . S
C449 H471 0.950 1_545 S
C450 H446 0.949 . S
C450 C458 1.559 1_545 S
C450 C466 1.368 . S
H451 C459 0.950 . S
H452 C457 0.950 . S
H453 C458 0.941 1_545 S
H454 C460 0.950 . S
H455 C461 0.950 . S
H456 C462 0.949 . S
C457 H452 0.950 . S
C457 C459 1.327 . S
C457 C463 1.429 . S
C458 C450 1.559 1_565 S
C458 H453 0.941 1_565 S
C458 C464 1.393 1_455 S
C459 C443 1.349 . S
C459 H451 0.950 . S
C459 C457 1.327 . S
C460 C448 1.349 . S
C460 H454 0.950 . S
C460 C461 1.327 . S
C461 H455 0.950 . S
C461 C460 1.327 . S
C461 C465 1.429 . S
C462 C445 1.574 1_455 S
C462 H456 0.949 . S
C462 C466 1.368 1_565 S
C463 C444 1.429 . S
C463 C457 1.429 . S
C463 C464 1.523 . S
C464 C445 1.368 . S
C464 C458 1.393 1_655 S
C464 C463 1.523 . S
C465 C449 1.429 . S
C465 C461 1.429 . S
C465 C466 1.523 . S
C466 C450 1.368 . S
C466 C462 1.368 1_545 S
C466 C465 1.523 . S
H467 C442 0.950 . S
H468 C444 0.950 . S
H469 C445 0.949 . S
H470 C447 0.950 . S
H471 C449 0.950 1_565 S
C472 C473 1.349 . S
C472 C474 1.327 . S
C472 H497 0.950 . S
C473 C472 1.349 . S
C473 C489 1.349 . S
C474 C472 1.327 . S
C474 C493 1.429 . S
C474 H498 0.950 1_655 S
C475 C492 1.550 1_655 S
C475 C494 1.368 1_655 S
C475 H499 0.949 . S
H476 C480 0.949 . S
C477 C478 1.349 . S
C477 C479 1.327 . S
C477 H500 0.950 . S
C478 C477 1.349 . S
C478 C490 1.349 . S
C479 C477 1.327 . S
C479 C495 1.429 . S
C479 H501 0.950 . S
C480 H476 0.949 . S
C480 C488 1.574 . S
C480 C496 1.368 . S
H481 C489 0.950 . S
H482 C487 0.950 . S
H483 C488 0.949 . S
H484 C490 0.950 . S
H485 C491 0.950 . S
H486 C492 0.943 1_655 S
C487 H482 0.950 . S
C487 C489 1.327 . S
C487 C493 1.429 . S
C488 C480 1.574 . S
C488 H483 0.949 . S
C488 C494 1.368 . S
C489 C473 1.349 . S
C489 H481 0.950 . S
C489 C487 1.327 . S
C490 C478 1.349 . S
C490 H484 0.950 . S
C490 C491 1.327 . S
C491 H485 0.950 . S
C491 C490 1.327 . S
C491 C495 1.429 . S
C492 C475 1.550 1_455 S
C492 H486 0.943 1_455 S
C492 C496 1.399 . S
C493 C474 1.429 . S
C493 C487 1.429 . S
C493 C494 1.523 1_655 S
C494 C475 1.368 1_455 S
C494 C488 1.368 . S
C494 C493 1.523 1_455 S
C495 C479 1.429 . S
C495 C491 1.429 . S
C495 C496 1.523 . S
C496 C480 1.368 . S
C496 C492 1.399 . S
C496 C495 1.523 . S
H497 C472 0.950 . S
H498 C474 0.950 1_455 S
H499 C475 0.949 . S
H500 C477 0.950 . S
H501 C479 0.950 . S
C502 C503 1.349 . S
C502 C504 1.327 . S
C502 H527 0.950 . S
C503 C502 1.349 . S
C503 C519 1.349 . S
C504 C502 1.327 . S
C504 C523 1.429 . S
C504 H528 0.950 . S
C505 C522 1.574 . S
C505 C524 1.368 . S
C505 H529 0.949 . S
H506 C510 0.949 . S
C507 C508 1.349 . S
C507 C509 1.327 . S
C507 H530 0.950 . S
C508 C507 1.349 . S
C508 C520 1.349 . S
C509 C507 1.327 . S
C509 C525 1.429 . S
C509 H531 0.950 . S
C510 H506 0.949 . S
C510 C518 1.574 . S
C510 C526 1.368 . S
H511 C519 0.950 . S
H512 C517 0.950 . S
H513 C518 0.949 . S
H514 C520 0.950 . S
H515 C521 0.950 . S
H516 C522 0.949 . S
C517 H512 0.950 . S
C517 C519 1.327 . S
C517 C523 1.429 . S
C518 C510 1.574 . S
C518 H513 0.949 . S
C518 C524 1.368 . S
C519 C503 1.349 . S
C519 H511 0.950 . S
C519 C517 1.327 . S
C520 C508 1.349 . S
C520 H514 0.950 . S
C520 C521 1.327 . S
C521 H515 0.950 . S
C521 C520 1.327 . S
C521 C525 1.429 . S
C522 C505 1.574 . S
C522 H516 0.949 . S
C522 C526 1.368 . S
C523 C504 1.429 . S
C523 C517 1.429 . S
C523 C524 1.523 . S
C524 C505 1.368 . S
C524 C518 1.368 . S
C524 C523 1.523 . S
C525 C509 1.429 . S
C525 C521 1.429 . S
C525 C526 1.523 . S
C526 C510 1.368 . S
C526 C522 1.368 . S
C526 C525 1.523 . S
H527 C502 0.950 . S
H528 C504 0.950 . S
H529 C505 0.949 . S
H530 C507 0.950 . S
H531 C509 0.950 . S
C532 C533 1.349 . S
C532 C534 1.327 . S
C532 H557 0.950 . S
C533 C532 1.349 . S
C533 C549 1.349 . S
C534 C532 1.327 . S
C534 C553 1.429 . S
C534 H558 0.950 . S
C535 C552 1.574 . S
C535 C554 1.368 1_556 S
C535 H559 0.949 . S
H536 C540 0.949 . S
C537 C538 1.349 . S
C537 C539 1.327 . S
C537 H560 0.950 . S
C538 C537 1.349 . S
C538 C550 1.349 . S
C539 C537 1.327 . S
C539 C555 1.429 . S
C539 H561 0.950 . S
C540 H536 0.949 . S
C540 C548 1.574 . S
C540 C556 1.368 1_554 S
H541 C549 0.950 . S
H542 C547 0.950 . S
H543 C548 0.949 . S
H544 C550 0.950 . S
H545 C551 0.950 . S
H546 C552 0.949 . S
C547 H542 0.950 . S
C547 C549 1.327 . S
C547 C553 1.429 . S
C548 C540 1.574 . S
C548 H543 0.949 . S
C548 C554 1.368 . S
C549 C533 1.349 . S
C549 H541 0.950 . S
C549 C547 1.327 . S
C550 C538 1.349 . S
C550 H544 0.950 . S
C550 C551 1.327 . S
C551 H545 0.950 . S
C551 C550 1.327 . S
C551 C555 1.429 . S
C552 C535 1.574 . S
C552 H546 0.949 . S
C552 C556 1.368 . S
C553 C534 1.429 . S
C553 C547 1.429 . S
C553 C554 1.523 . S
C554 C535 1.368 1_554 S
C554 C548 1.368 . S
C554 C553 1.523 . S
C555 C539 1.429 . S
C555 C551 1.429 . S
C555 C556 1.523 . S
C556 C540 1.368 1_556 S
C556 C552 1.368 . S
C556 C555 1.523 . S
H557 C532 0.950 . S
H558 C534 0.950 . S
H559 C535 0.949 . S
H560 C537 0.950 . S
H561 C539 0.950 . S
C562 C563 1.349 . S
C562 C564 1.327 . S
C562 H587 0.950 . S
C563 C562 1.349 . S
C563 C579 1.349 . S
C564 C562 1.327 . S
C564 C583 1.429 . S
C564 H588 0.950 . S
C565 C582 1.574 . S
C565 C584 1.368 . S
C565 H589 0.949 . S
H566 C570 0.949 . S
C567 C568 1.349 . S
C567 C569 1.327 . S
C567 H590 0.950 . S
C568 C567 1.349 . S
C568 C580 1.349 . S
C569 C567 1.327 . S
C569 C585 1.429 . S
C569 H591 0.950 . S
C570 H566 0.949 . S
C570 C578 1.574 . S
C570 C586 1.368 . S
H571 C579 0.950 . S
H572 C577 0.950 . S
H573 C578 0.949 . S
H574 C580 0.950 . S
H575 C581 0.950 . S
H576 C582 0.949 . S
C577 H572 0.950 . S
C577 C579 1.327 . S
C577 C583 1.429 . S
C578 C570 1.574 . S
C578 H573 0.949 . S
C578 C584 1.368 . S
C579 C563 1.349 . S
C579 H571 0.950 . S
C579 C577 1.327 . S
C580 C568 1.349 . S
C580 H574 0.950 . S
C580 C581 1.327 . S
C581 H575 0.950 . S
C581 C580 1.327 . S
C581 C585 1.429 . S
C582 C565 1.574 . S
C582 H576 0.949 . S
C582 C586 1.368 . S
C583 C564 1.429 . S
C583 C577 1.429 . S
C583 C584 1.523 . S
C584 C565 1.368 . S
C584 C578 1.368 . S
C584 C583 1.523 . S
C585 C569 1.429 . S
C585 C581 1.429 . S
C585 C586 1.523 . S
C586 C570 1.368 . S
C586 C582 1.368 . S
C586 C585 1.523 . S
H587 C562 0.950 . S
H588 C564 0.950 . S
H589 C565 0.949 . S
H590 C567 0.950 . S
H591 C569 0.950 . S
C113 C78 1.591 . S
C118 C8 1.591 . S
C143 C105 1.538 . S
C148 C20 1.538 . S
C173 C37 1.591 . S
C178 C93 1.591 . S
C203 C49 1.538 . S
C208 C62 1.538 . S
C233 C90 1.538 . S
C238 C7 1.538 . S
C263 C23 1.591 . S
C268 C65 1.591 . S
C293 C77 1.538 . S
C298 C34 1.538 . S
C323 C50 1.591 . S
C328 C106 1.591 . S
C353 C63 1.538 . S
C358 C76 1.538 . S
C383 C22 1.591 . S
C388 C36 1.591 . S
C413 C48 1.538 . S
C418 C35 1.538 . S
C443 C51 1.591 . S
C448 C9 1.591 . S
C473 C21 1.538 . S
C478 C6 1.538 . S
C503 C104 1.538 . S
C508 C91 1.538 . S
C533 C64 1.591 . S
C538 C92 1.591 . S
C563 C79 1.591 . S
C568 C107 1.591 . S
