# Generated by pormake.
# Topology rkf, (6)-cn, num edge types: 1
# Building blocks:
#     Node 0, Type 0, BuildingBlock: MIFKUJ_clean_sbu_0, # of connection points: 6
#     Node 1, Type 0, BuildingBlock: MIFKUJ_clean_sbu_0, # of connection points: 6
#     Node 2, Type 0, BuildingBlock: MIFKUJ_clean_sbu_0, # of connection points: 6
#     Node 3, Type 0, BuildingBlock: MIFKUJ_clean_sbu_0, # of connection points: 6
#     Node 4, Type 0, BuildingBlock: MIFKUJ_clean_sbu_0, # of connection points: 6
#     Node 5, Type 0, BuildingBlock: MIFKUJ_clean_sbu_0, # of connection points: 6
#     Edge 6, Type (0, 0), BuildingBlock: UVAHIK_clean_linker_0, # of connection points: 2
#     Edge 7, Type (0, 0), BuildingBlock: UVAHIK_clean_linker_0, # of connection points: 2
#     Edge 8, Type (0, 0), BuildingBlock: UVAHIK_clean_linker_0, # of connection points: 2
#     Edge 9, Type (0, 0), BuildingBlock: UVAHIK_clean_linker_0, # of connection points: 2
#     Edge 10, Type (0, 0), BuildingBlock: UVAHIK_clean_linker_0, # of connection points: 2
#     Edge 11, Type (0, 0), BuildingBlock: UVAHIK_clean_linker_0, # of connection points: 2
#     Edge 12, Type (0, 0), BuildingBlock: UVAHIK_clean_linker_0, # of connection points: 2
#     Edge 13, Type (0, 0), BuildingBlock: UVAHIK_clean_linker_0, # of connection points: 2
#     Edge 14, Type (0, 0), BuildingBlock: UVAHIK_clean_linker_0, # of connection points: 2
#     Edge 15, Type (0, 0), BuildingBlock: UVAHIK_clean_linker_0, # of connection points: 2
#     Edge 16, Type (0, 0), BuildingBlock: UVAHIK_clean_linker_0, # of connection points: 2
#     Edge 17, Type (0, 0), BuildingBlock: UVAHIK_clean_linker_0, # of connection points: 2
#     Edge 18, Type (0, 0), BuildingBlock: UVAHIK_clean_linker_0, # of connection points: 2
#     Edge 19, Type (0, 0), BuildingBlock: UVAHIK_clean_linker_0, # of connection points: 2
#     Edge 20, Type (0, 0), BuildingBlock: UVAHIK_clean_linker_0, # of connection points: 2
#     Edge 21, Type (0, 0), BuildingBlock: UVAHIK_clean_linker_0, # of connection points: 2
#     Edge 22, Type (0, 0), BuildingBlock: UVAHIK_clean_linker_0, # of connection points: 2
#     Edge 23, Type (0, 0), BuildingBlock: UVAHIK_clean_linker_0, # of connection points: 2
# Relax obj value: 0.356
# Max RMSD: 0.298
# Mean RMSD: 0.298
data_MOF--net-rkf--node1-MIFKUJ_clean_sbu_0--edge1-UVAHIK_clean_linker_0
_symmetry_space_group_name_H-M    P1
_symmetry_Int_Tables_number       1
_symmetry_cell_setting            triclinic
loop_
_symmetry_equiv_pos_as_xyz
'x, y, z'
_cell_length_a     29.572882
_cell_length_b     29.593132
_cell_length_c     57.861559
_cell_angle_alpha  90.157362
_cell_angle_beta   89.984257
_cell_angle_gamma 120.12603
loop_
_atom_site_label
_atom_site_type_symbol
_atom_site_fract_x
_atom_site_fract_y
_atom_site_fract_z
_atom_type_partial_charge
Zn0 Zn 0.26659 0.07777 0.95647 0.0
Zn1 Zn 0.27597 0.07753 0.03083 0.0
C2 C 0.20922 0.96609 0.9504 0.0
O3 O 0.24255 0.96741 0.96573 0.0
C4 C 0.32301 0.15562 0.06611 0.0
O5 O 0.2775 0.15335 0.06539 0.0
O6 O 0.28316 0.12592 0.92891 0.0
O7 O 0.25038 0.10731 0.98479 0.0
O8 O 0.22294 0.09715 0.02018 0.0
C9 C 0.26177 0.15383 0.92702 0.0
O10 O 0.23273 0.15435 0.9441 0.0
O11 O 0.20861 0.00782 0.94588 0.0
C12 C 0.25831 0.99169 0.06191 0.0
O13 O 0.30953 0.01392 0.06164 0.0
O14 O 0.23648 0.01078 0.04956 0.0
O15 O 0.30628 0.07074 0.0009 0.0
O16 O 0.32771 0.06763 0.96508 0.0
O17 O 0.33258 0.12964 0.05142 0.0
C18 C 0.21285 0.08452 0.99897 0.0
C19 C 0.33504 0.06465 0.98657 0.0
Zn20 Zn 0.258 0.1352 0.3903 0.0
Zn21 Zn 0.26288 0.16819 0.31984 0.0
C22 C 0.23984 0.21896 0.40396 0.0
O23 O 0.28619 0.24832 0.39484 0.0
C24 C 0.30872 0.12439 0.28932 0.0
O25 O 0.26275 0.08182 0.29104 0.0
O26 O 0.25823 0.08739 0.41507 0.0
O27 O 0.23026 0.09651 0.35998 0.0
O28 O 0.19893 0.09779 0.3262 0.0
C29 C 0.27294 0.10556 0.43536 0.0
O30 O 0.29027 0.15543 0.43912 0.0
O31 O 0.21837 0.16944 0.40264 0.0
C32 C 0.25804 0.23357 0.28345 0.0
O33 O 0.30389 0.23983 0.27784 0.0
O34 O 0.23571 0.20844 0.30174 0.0
O35 O 0.28757 0.19278 0.3521 0.0
O36 O 0.33137 0.19238 0.38207 0.0
O37 O 0.31795 0.16419 0.30122 0.0
C38 C 0.19204 0.09125 0.34793 0.0
C39 C 0.33151 0.20893 0.36177 0.0
Zn40 Zn 0.92307 0.14093 0.62486 0.0
Zn41 Zn 0.97882 0.17113 0.69148 0.0
C42 C 0.01315 0.23032 0.60526 0.0
O43 O 0.98746 0.25399 0.61131 0.0
C44 C 0.89636 0.12367 0.72598 0.0
O45 O 0.89829 0.0809 0.72211 0.0
O46 O 0.87255 0.09279 0.6006 0.0
O47 O 0.92257 0.09981 0.65266 0.0
O48 O 0.97019 0.10176 0.6815 0.0
C49 C 0.87738 0.10903 0.57991 0.0
O50 O 0.91116 0.15826 0.57552 0.0
O51 O -0.00585 0.18226 0.61013 0.0
C52 C 0.05657 0.23715 0.72527 0.0
O53 O 0.01946 0.24666 0.73155 0.0
O54 O 0.05005 0.21026 0.70708 0.0
O55 O 0.96822 0.19965 0.66167 0.0
O56 O 0.90455 0.19118 0.63951 0.0
O57 O 0.9251 0.16421 0.71422 0.0
C58 C 0.96109 0.0963 0.65991 0.0
C59 C 0.93095 0.20852 0.65809 0.0
Zn60 Zn 0.89248 0.08752 0.05201 0.0
Zn61 Zn 0.85108 0.03755 0.98429 0.0
C62 C 0.81238 0.99359 0.0735 0.0
O63 O 0.78234 0.01175 0.06654 0.0
C64 C 0.89229 0.12752 0.95414 0.0
O65 O 0.93759 0.13144 0.95884 0.0
O66 O 0.94127 0.14215 0.07482 0.0
O67 O 0.9277 0.09073 0.02217 0.0
O68 O 0.92366 0.05003 0.99051 0.0
C69 C 0.92379 0.14193 0.09494 0.0
O70 O 0.87407 0.10967 0.09921 0.0
O71 O 0.86053 0.01769 0.06795 0.0
C72 C 0.78887 0.96212 0.94838 0.0
O73 O 0.77793 -0.00167 0.94235 0.0
O74 O 0.81478 0.96838 0.96686 0.0
O75 O 0.82323 0.03846 0.01618 0.0
O76 O 0.83441 0.09853 0.04133 0.0
O77 O 0.85153 0.09264 0.96419 0.0
C78 C 0.93169 0.0548 0.01215 0.0
C79 C 0.81158 0.0721 0.02328 0.0
Zn80 Zn 0.89208 0.75742 0.29342 0.0
Zn81 Zn 0.87285 0.74207 0.36723 0.0
C82 C 0.83246 0.81 0.28729 0.0
O83 O 0.79668 0.77097 0.29942 0.0
C84 C 0.90021 0.72894 0.40973 0.0
O85 O 0.93087 0.77846 0.40456 0.0
O86 O 0.92674 0.74774 0.26512 0.0
O87 O 0.93344 0.77005 0.32204 0.0
O88 O 0.94594 0.79628 0.35745 0.0
C89 C 0.97274 0.75459 0.26437 0.0
O90 O -0.0003 0.76447 0.28361 0.0
O91 O 0.87721 0.81436 0.28479 0.0
C92 C 0.80489 0.75995 0.39759 0.0
O93 O 0.78201 0.70915 0.4005 0.0
O94 O 0.84182 0.78174 0.383 0.0
O95 O 0.83119 0.70282 0.33836 0.0
O96 O 0.82376 0.6933 0.30027 0.0
O97 O 0.87343 0.69765 0.39357 0.0
C98 C 0.9458 0.80692 0.33629 0.0
C99 C 0.80503 0.6782 0.32048 0.0
Zn100 Zn 0.95774 0.75212 0.71237 0.0
Zn101 Zn 0.03345 0.7615 0.67388 0.0
C102 C 0.00817 0.72484 0.74713 0.0
O103 O 0.96308 0.68098 0.74651 0.0
C104 C 0.97227 0.77538 0.6382 0.0
O105 O 0.01587 0.81959 0.63471 0.0
O106 O 0.90193 0.74726 0.73479 0.0
O107 O 0.98409 0.81784 0.69245 0.0
O108 O 0.05825 0.82071 0.69593 0.0
C109 C 0.91993 0.77844 0.75195 0.0
O110 O 0.97022 0.81229 0.75294 0.0
O111 O 0.01591 0.76153 0.73344 0.0
C112 C 0.08464 0.76621 0.63045 0.0
O113 O 0.04144 0.72196 0.62619 0.0
O114 O 0.09181 0.78615 0.65054 0.0
O115 O 0.01381 0.69473 0.68944 0.0
O116 O 0.9345 0.68149 0.69706 0.0
O117 O 0.96969 0.74662 0.65499 0.0
C118 C 0.03372 0.84427 0.69156 0.0
C119 C 0.96605 0.66409 0.69467 0.0
C120 C 0.88007 0.95859 0.0184 0.0
C121 C 0.92136 0.00782 0.02503 0.0
C122 C 0.88098 0.91332 0.0243 0.0
C123 C 0.98388 0.88116 0.04302 0.0
H124 H 0.98533 0.87044 0.97643 0.0
C125 C 0.12422 0.02259 0.98441 0.0
C126 C 0.17114 0.03091 0.99397 0.0
C127 C 0.0794 0.9734 0.98589 0.0
C128 C 0.98486 0.87119 0.99515 0.0
H129 H 0.98992 0.04829 0.04659 0.0
H130 H -0.0065 0.97064 0.05605 0.0
H131 H 0.90875 0.86129 0.99534 0.0
H132 H 0.21082 0.99338 0.00888 0.0
H133 H 0.13172 0.90798 0.01307 0.0
H134 H 0.06313 0.89853 0.04229 0.0
C135 C 0.95996 0.96557 0.04637 0.0
C136 C 0.94057 0.86599 0.00624 0.0
C137 C 0.95846 0.0107 0.04081 0.0
C138 C 0.17426 0.98818 0.00248 0.0
C139 C 0.1293 0.93908 0.00439 0.0
C140 C 0.02846 0.88684 0.03193 0.0
C141 C 0.9246 0.91718 0.0359 0.0
C142 C 0.94384 0.88065 0.02969 0.0
C143 C 0.08076 0.93207 0.9974 0.0
C144 C 0.03156 0.89013 0.00766 0.0
H145 H 0.84968 0.95541 0.00696 0.0
H146 H 0.8515 0.87645 0.01697 0.0
H147 H 0.98576 0.88812 0.06148 0.0
H148 H 0.12111 0.05503 0.97763 0.0
H149 H 0.04267 0.96974 0.98043 0.0
C150 C 0.88559 0.84276 0.33768 0.0
C151 C 0.93355 0.84797 0.33087 0.0
C152 C 0.8795 0.88658 0.33909 0.0
C153 C 0.92434 0.98994 0.36606 0.0
H154 H 0.01348 0.10701 0.32717 0.0
C155 C 0.11904 0.06666 0.37541 0.0
C156 C 0.1524 0.10077 0.35854 0.0
C157 C 0.0718 0.06474 0.38015 0.0
C158 C 0.98779 0.07592 0.3387 0.0
H159 H 0.01027 0.90071 0.31723 0.0
H160 H -0.00027 0.97705 0.31878 0.0
H161 H 0.94774 0.02693 0.30978 0.0
H162 H 0.16935 0.16754 0.3373 0.0
H163 H 0.08786 0.1656 0.34609 0.0
H164 H 0.96815 0.03715 0.39478 0.0
C165 C 0.96659 0.9395 0.32337 0.0
C166 C 0.94948 0.02962 0.32848 0.0
C167 C 0.97302 0.89596 0.3226 0.0
C168 C 0.14274 0.13919 0.34961 0.0
C169 C 0.0961 0.13818 0.35478 0.0
C170 C 0.96238 0.03658 0.37627 0.0
C171 C 0.92097 0.93587 0.33295 0.0
C172 C 0.92406 0.98424 0.34191 0.0
C173 C 0.05729 0.09687 0.36788 0.0
C174 C 0.00078 0.07578 0.36218 0.0
H175 H 0.85365 0.80517 0.34276 0.0
H176 H 0.84394 0.88259 0.34639 0.0
H177 H 0.9029 0.95614 0.37704 0.0
H178 H 0.12663 0.0377 0.38303 0.0
H179 H 0.04429 0.03321 0.39103 0.0
C180 C 0.11681 0.92158 0.67827 0.0
C181 C 0.06167 0.89362 0.6785 0.0
C182 C 0.14418 0.96434 0.66364 0.0
C183 C 0.12989 0.02718 0.61177 0.0
H184 H 0.18125 0.15135 0.64932 0.0
C185 C -0.00056 0.08152 0.62467 0.0
C186 C 0.00555 0.11151 0.64433 0.0
C187 C 0.04341 0.08786 0.6129 0.0
C188 C 0.16828 0.11801 0.63797 0.0
H189 H -0.00786 0.88948 0.66399 0.0
H190 H 0.03997 0.96428 0.63842 0.0
H191 H 0.18429 0.0772 0.6642 0.0
H192 H 0.06025 0.17939 0.66408 0.0
H193 H 0.13698 0.19224 0.64304 0.0
H194 H 0.11153 0.06728 0.58619 0.0
C195 C 0.06186 0.95215 0.64924 0.0
C196 C 0.17036 0.0752 0.6467 0.0
C197 C 0.03449 0.91013 0.66422 0.0
C198 C 0.05511 0.15376 0.6497 0.0
C199 C 0.09905 0.16111 0.63752 0.0
C200 C 0.12927 0.07079 0.60295 0.0
C201 C 0.11687 0.97919 0.64865 0.0
C202 C 0.14424 0.02741 0.63491 0.0
C203 C 0.09435 0.12409 0.62087 0.0
C204 C 0.13718 0.11123 0.61828 0.0
H205 H 0.1389 0.91001 0.68925 0.0
H206 H 0.18653 0.9857 0.66397 0.0
H207 H 0.11219 0.99129 0.60179 0.0
H208 H 0.9611 0.05009 0.61966 0.0
H209 H 0.03669 0.05973 0.59946 0.0
C210 C 0.24002 0.21073 0.90301 0.0
C211 C 0.26293 0.17918 0.90474 0.0
C212 C 0.23417 0.22868 0.88151 0.0
C213 C 0.21638 0.18947 0.82072 0.0
H214 H 0.22194 0.32189 0.81154 0.0
C215 C 0.13275 0.22736 0.73781 0.0
C216 C 0.09935 0.24763 0.74173 0.0
C217 C 0.16634 0.2289 0.75529 0.0
C218 C 0.22008 0.28469 0.81381 0.0
H219 H 0.3005 0.14436 0.88528 0.0
H220 H 0.29014 0.17565 0.84771 0.0
H221 H 0.25673 0.30673 0.8471 0.0
H222 H 0.07789 0.28863 0.76657 0.0
H223 H 0.13561 0.29081 0.79691 0.0
H224 H 0.17768 0.16637 0.788 0.0
C225 C 0.27624 0.18604 0.86301 0.0
C226 C 0.24012 0.27605 0.83419 0.0
C227 C 0.28242 0.16835 0.88457 0.0
C228 C 0.1029 0.2725 0.76294 0.0
C229 C 0.13638 0.27401 0.78037 0.0
C230 C 0.19615 0.198 0.8004 0.0
C231 C 0.25086 0.21533 0.86117 0.0
C232 C 0.23722 0.22781 0.83816 0.0
C233 C 0.16738 0.25081 0.77705 0.0
C234 C 0.19639 0.24518 0.79694 0.0
H235 H 0.22479 0.22005 0.91818 0.0
H236 H 0.21407 0.25077 0.88074 0.0
H237 H 0.21295 0.15164 0.8233 0.0
H238 H 0.13128 0.20814 0.72164 0.0
H239 H 0.19035 0.21149 0.75196 0.0
C240 C 0.17463 0.22688 0.26916 0.0
C241 C 0.22852 0.24612 0.26638 0.0
C242 C 0.14496 0.2303 0.2511 0.0
C243 C 0.14739 0.23582 0.18768 0.0
H244 H 0.02411 0.24883 0.19501 0.0
C245 C 0.01377 0.20418 0.11007 0.0
C246 C 0.96008 0.17122 0.11416 0.0
C247 C 0.04887 0.22564 0.12854 0.0
C248 C 0.05837 0.245 0.19268 0.0
H249 H 0.29416 0.2879 0.24313 0.0
H250 H 0.24268 0.29463 0.21188 0.0
H251 H 0.08184 0.26488 0.22806 0.0
H252 H 0.90084 0.13765 0.1409 0.0
H253 H 0.96194 0.1741 0.17299 0.0
H254 H 0.12334 0.21418 0.15267 0.0
C255 C 0.22305 0.2757 0.22778 0.0
C256 C 0.09146 0.25422 0.21163 0.0
C257 C 0.25265 0.27213 0.24578 0.0
C258 C 0.94197 0.16272 0.1371 0.0
C259 C 0.97708 0.18395 0.15556 0.0
C260 C 0.11437 0.22653 0.16882 0.0
C261 C 0.16855 0.25318 0.2299 0.0
C262 C 0.13599 0.24896 0.20944 0.0
C263 C 0.03116 0.21443 0.15154 0.0
C264 C 0.06896 0.23016 0.17112 0.0
H265 H 0.15475 0.20663 0.28481 0.0
H266 H 0.10308 0.21229 0.25333 0.0
H267 H 0.18069 0.23036 0.18541 0.0
H268 H 0.02897 0.21201 0.0926 0.0
H269 H 0.09014 0.24988 0.12479 0.0
C270 C 0.86567 0.08816 0.53761 0.0
C271 C 0.85209 0.07156 0.5606 0.0
C272 C 0.84815 0.05195 0.51949 0.0
C273 C 0.80523 0.91333 0.50905 0.0
H274 H 0.77985 0.94443 0.44694 0.0
C275 C 0.76477 0.77003 0.43395 0.0
C276 C 0.79492 0.79246 0.41401 0.0
C277 C 0.76159 0.80156 0.45117 0.0
C278 C 0.78692 0.93524 0.4642 0.0
H279 H 0.80653 0.00411 0.58239 0.0
H280 H 0.77502 0.94099 0.55071 0.0
H281 H 0.79107 0.00397 0.47861 0.0
H282 H 0.8432 0.86541 0.39599 0.0
H283 H 0.8376 0.9204 0.42601 0.0
H284 H 0.80209 0.84521 0.49462 0.0
C285 C 0.80033 0.98194 0.54675 0.0
C286 C 0.7934 0.96937 0.48235 0.0
C287 C 0.8181 0.01818 0.56491 0.0
C288 C 0.81966 0.84691 0.41115 0.0
C289 C 0.81625 0.87842 0.42832 0.0
C290 C 0.79852 0.87916 0.49095 0.0
C291 C 0.81633 -0.00179 0.52387 0.0
C292 C 0.80358 0.95932 0.50495 0.0
C293 C 0.78823 0.85621 0.44879 0.0
C294 C 0.79016 0.89013 0.46824 0.0
H295 H 0.89178 0.12898 0.53364 0.0
H296 H 0.86173 0.06598 0.50217 0.0
H297 H 0.81394 0.90471 0.52611 0.0
H298 H 0.74524 0.72824 0.43674 0.0
H299 H 0.73914 0.7832 0.4666 0.0
C300 C 0.75864 0.91808 0.90977 0.0
C301 C 0.78162 0.92112 0.93144 0.0
C302 C 0.76094 0.88694 0.89207 0.0
C303 C 0.84784 0.8396 0.87321 0.0
H304 H 0.74484 0.76943 0.82487 0.0
C305 C 0.90243 0.76258 0.79381 0.0
C306 C 0.88761 0.77278 0.77232 0.0
C307 C 0.87927 0.76667 0.81413 0.0
C308 C 0.77413 0.78908 0.83816 0.0
H309 H 0.82125 0.89023 0.95201 0.0
H310 H 0.82491 0.83572 0.92121 0.0
H311 H 0.72164 0.80132 0.85942 0.0
H312 H 0.83564 0.79306 0.75488 0.0
H313 H 0.7961 0.80229 0.79054 0.0
H314 H 0.90113 0.82998 0.85187 0.0
C315 C 0.80592 0.85819 0.91778 0.0
C316 C 0.76075 0.80721 0.858 0.0
C317 C 0.80351 0.88923 0.9355 0.0
C318 C 0.84727 0.78457 0.77131 0.0
C319 C 0.82465 0.78972 0.79177 0.0
C320 C 0.86127 0.8219 0.85342 0.0
C321 C 0.78637 0.85815 0.89559 0.0
C322 C 0.79773 0.83332 0.87564 0.0
C323 C 0.84173 0.78262 0.81353 0.0
C324 C 0.82492 0.79693 0.83544 0.0
H325 H 0.74122 0.94189 0.90604 0.0
H326 H 0.74565 0.88805 0.8752 0.0
H327 H 0.87771 0.86047 0.88616 0.0
H328 H 0.93337 0.75316 0.79493 0.0
H329 H 0.89236 0.75926 0.83042 0.0
C330 C 0.04918 0.76727 0.24048 0.0
C331 C -0.00172 0.75945 0.24168 0.0
C332 C 0.07598 0.7792 0.2194 0.0
C333 C 0.06071 0.78693 0.15545 0.0
H334 H 0.20373 0.9011 0.15996 0.0
C335 C 0.17248 0.92873 0.08038 0.0
C336 C 0.22692 0.94982 0.07883 0.0
C337 C 0.14397 0.89489 0.09842 0.0
C338 C 0.1642 0.86854 0.15831 0.0
H339 H 0.93454 0.75508 0.22135 0.0
H340 H 0.98147 0.77698 0.18486 0.0
H341 H 0.15509 0.86065 0.19493 0.0
H342 H 0.29332 0.94873 0.09411 0.0
H343 H 0.24359 0.8895 0.12542 0.0
H344 H 0.06963 0.79658 0.11868 0.0
C345 C 0.00067 0.77328 0.20007 0.0
C346 C 0.13619 0.84517 0.17845 0.0
C347 C 0.97376 0.76098 0.2211 0.0
C348 C 0.25158 0.93372 0.09491 0.0
C349 C 0.22309 0.89995 0.11295 0.0
C350 C 0.08876 0.81055 0.13525 0.0
C351 C 0.05268 0.78401 0.19904 0.0
C352 C 0.08378 0.8046 0.17736 0.0
C353 C 0.16923 0.88137 0.11534 0.0
C354 C 0.14064 0.85221 0.13645 0.0
H355 H 0.06902 0.76578 0.25594 0.0
H356 H 0.11552 0.78598 0.2192 0.0
H357 H 0.0207 0.75526 0.1539 0.0
H358 H 0.15211 0.93998 0.06819 0.0
H359 H 0.10261 0.88154 0.09975 0.0
C360 C 0.1114 0.77671 0.58883 0.0
C361 C 0.11744 0.79857 0.61098 0.0
C362 C 0.13589 0.80857 0.56972 0.0
C363 C 0.23701 0.94321 0.55198 0.0
H364 H 0.14979 0.90955 0.49738 0.0
C365 C 0.27709 0.08973 0.47767 0.0
C366 C 0.26557 0.07024 0.45493 0.0
C367 C 0.26529 0.05583 0.4964 0.0
C368 C 0.17509 0.91913 0.51232 0.0
H369 H 0.15534 0.87114 0.6305 0.0
H370 H 0.19725 0.92663 0.59719 0.0
H371 H 0.11826 0.85179 0.53059 0.0
H372 H 0.23498 -1e-05 0.43401 0.0
H373 H 0.21485 0.94095 0.46666 0.0
H374 H 0.2933 0.01146 0.53373 0.0
C375 C 0.17444 0.88477 0.59458 0.0
C376 C 0.157 0.8859 0.53141 0.0
C377 C 0.1503 0.85285 0.61373 0.0
C378 C 0.24397 0.01629 0.4513 0.0
C379 C 0.23216 0.98239 0.47003 0.0
C380 C 0.25507 0.97663 0.53285 0.0
C381 C 0.16662 0.86316 0.57224 0.0
C382 C 0.18756 0.89755 0.55155 0.0
C383 C 0.24168 0.00162 0.49284 0.0
C384 C 0.22418 0.96508 0.51283 0.0
H385 H 0.08646 0.73508 0.58614 0.0
H386 H 0.12982 0.79045 0.55286 0.0
H387 H 0.26186 0.95315 0.56709 0.0
H388 H 0.29381 0.13109 0.48111 0.0
H389 H 0.2728 0.07195 0.51373 0.0
C390 C 0.41767 0.09344 0.00784 0.0
C391 C 0.37664 0.05565 0.99446 0.0
C392 C 0.46051 0.08765 0.01306 0.0
C393 C 0.52843 0.02257 0.98939 0.0
H394 H 0.6158 0.08285 0.04353 0.0
C395 C 0.72359 0.02512 0.00483 0.0
C396 C 0.76391 0.07072 0.01506 0.0
C397 C 0.67383 0.01887 0.00224 0.0
C398 C 0.59189 0.06617 0.02824 0.0
H399 H 0.34477 0.9804 0.97765 0.0
H400 H 0.41851 0.96865 0.98775 0.0
H401 H 0.52991 0.0752 0.04215 0.0
H402 H 0.78559 0.14736 0.02855 0.0
H403 H 0.69922 0.13723 0.02325 0.0
H404 H 0.59071 0.01396 0.97545 0.0
C405 C 0.41903 0.00384 0.99336 0.0
C406 C 0.54267 0.06166 0.02748 0.0
C407 C 0.37685 0.01035 0.98766 0.0
C408 C 0.75494 0.11159 0.02087 0.0
C409 C 0.70543 0.10553 0.0181 0.0
C410 C 0.57754 0.02681 0.99022 0.0
C411 C 0.46223 0.04333 0.00537 0.0
C412 C 0.51095 0.04108 0.00779 0.0
C413 C 0.66393 0.05835 0.00962 0.0
C414 C 0.61028 0.04997 0.00937 0.0
H415 H 0.41781 0.12863 0.01321 0.0
H416 H 0.49332 0.11915 0.02208 0.0
H417 H 0.50533 0.00706 0.97383 0.0
H418 H 0.72945 0.99288 0.00027 0.0
H419 H 0.64257 0.98214 0.99559 0.0
C420 C 0.37844 0.27612 0.33133 0.0
C421 C 0.38017 0.24946 0.3511 0.0
C422 C 0.42275 0.32231 0.32442 0.0
C423 C 0.52811 0.43243 0.35134 0.0
H424 H 0.60548 0.4674 0.29383 0.0
C425 C 0.73535 0.60659 0.34401 0.0
C426 C 0.75198 0.63312 0.32292 0.0
C427 C 0.68588 0.56235 0.34584 0.0
C428 C 0.58364 0.45866 0.30981 0.0
H429 H 0.43043 0.24747 0.3779 0.0
H430 H 0.50748 0.32851 0.36598 0.0
H431 H 0.52715 0.38146 0.29829 0.0
H432 H 0.72902 0.63643 0.28761 0.0
H433 H 0.64218 0.5599 0.29099 0.0
H434 H 0.5836 0.50917 0.36297 0.0
C435 C 0.4718 0.31372 0.35598 0.0
C436 C 0.53916 0.40944 0.31234 0.0
C437 C 0.42784 0.26739 0.36272 0.0
C438 C 0.71755 0.61601 0.30397 0.0
C439 C 0.66786 0.57217 0.30588 0.0
C440 C 0.57196 0.48173 0.34872 0.0
C441 C 0.4689 0.34241 0.33738 0.0
C442 C 0.51225 0.39564 0.33339 0.0
C443 C 0.65185 0.54427 0.3267 0.0
C444 C 0.60122 0.49482 0.32822 0.0
H445 H 0.34211 0.26339 0.32217 0.0
H446 H 0.41996 0.34405 0.30999 0.0
H447 H 0.50698 0.42262 0.36756 0.0
H448 H 0.76107 0.61909 0.3589 0.0
H449 H 0.67508 0.54137 0.36206 0.0
C450 C 0.95627 0.2749 0.68911 0.0
C451 C 0.91701 0.23574 0.67543 0.0
C452 C 0.94602 0.30892 0.70177 0.0
C453 C 0.86032 0.36324 0.69406 0.0
H454 H 0.95175 0.45883 0.74113 0.0
C455 C 0.89493 0.57187 0.70198 0.0
C456 C 0.94839 0.60896 0.7 0.0
C457 C 0.8789 0.51974 0.70697 0.0
C458 C 0.92538 0.43207 0.72819 0.0
H459 H 0.83472 0.19617 0.66667 0.0
H460 H 0.81601 0.25417 0.6896 0.0
H461 H 0.94181 0.37198 0.73777 0.0
H462 H 0.02695 0.62106 0.70271 0.0
H463 H -0.00102 0.53043 0.71122 0.0
H464 H 0.84564 0.42402 0.68388 0.0
C465 C 0.85533 0.26036 0.68977 0.0
C466 C 0.9198 0.38245 0.72618 0.0
C467 C 0.86593 0.22709 0.67667 0.0
C468 C 0.98544 0.59333 0.70384 0.0
C469 C 0.96947 0.54155 0.70909 0.0
C470 C 0.86537 0.41245 0.69628 0.0
C471 C 0.89604 0.3038 0.70119 0.0
C472 C 0.88959 0.34862 0.7082 0.0
C473 C 0.91609 0.50411 0.71041 0.0
C474 C 0.90011 0.44829 0.71251 0.0
H475 H -0.00405 0.28201 0.68853 0.0
H476 H 0.97857 0.34181 0.71025 0.0
H477 H 0.83705 0.3388 0.67984 0.0
H478 H 0.86551 0.58288 0.69928 0.0
H479 H 0.83749 0.4915 0.70782 0.0
C480 C 0.39704 0.16569 0.09083 0.0
C481 C 0.35653 0.1766 0.08685 0.0
C482 C 0.42014 0.17393 0.11267 0.0
C483 C 0.42367 0.2283 0.1714 0.0
H484 H 0.40871 0.09709 0.19232 0.0
C485 C 0.39032 0.17861 0.26653 0.0
C486 C 0.34387 0.13074 0.26987 0.0
C487 C 0.41644 0.18983 0.24536 0.0
C488 C 0.41373 0.13426 0.18677 0.0
H489 H 0.3126 0.20998 0.10184 0.0
H490 H 0.35237 0.22398 0.13979 0.0
H491 H 0.41032 0.1139 0.15111 0.0
H492 H 0.29204 0.05481 0.2547 0.0
H493 H 0.33665 0.07455 0.21779 0.0
H494 H 0.42214 0.24666 0.20694 0.0
C495 C 0.36652 0.20911 0.12617 0.0
C496 C 0.41526 0.14422 0.16311 0.0
C497 C 0.34333 0.20072 0.1044 0.0
C498 C 0.32738 0.09226 0.2526 0.0
C499 C 0.35334 0.10355 0.23141 0.0
C500 C 0.42187 0.21824 0.19504 0.0
C501 C 0.40343 0.19356 0.13085 0.0
C502 C 0.41733 0.19014 0.15519 0.0
C503 C 0.39653 0.15346 0.22713 0.0
C504 C 0.41396 0.16986 0.20295 0.0
H505 H 0.40853 0.14751 0.07758 0.0
H506 H 0.44905 0.16233 0.11564 0.0
H507 H 0.42634 0.26447 0.16583 0.0
H508 H 0.40459 0.20883 0.27968 0.0
H509 H 0.4503 0.22819 0.24279 0.0
C510 C 0.25314 0.29256 0.42945 0.0
C511 C 0.21933 0.24259 0.42027 0.0
C512 C 0.23818 0.31065 0.44859 0.0
C513 C 0.20933 0.29994 0.50019 0.0
H514 H 0.07614 0.29279 0.50976 0.0
C515 C 0.08442 0.23049 0.58203 0.0
C516 C 0.05664 0.25542 0.58864 0.0
C517 C 0.1172 0.24788 0.56279 0.0
C518 C 0.114 0.29609 0.50728 0.0
H519 H 0.14162 0.17469 0.42235 0.0
H520 H 0.11496 0.20708 0.45557 0.0
H521 H 0.10394 0.28743 0.47052 0.0
H522 H 0.04531 0.32116 0.5817 0.0
H523 H 0.10157 0.35052 0.54767 0.0
H524 H 0.21741 0.30429 0.53709 0.0
C525 C 0.15325 0.23175 0.4481 0.0
C526 C 0.12962 0.29271 0.4849 0.0
C527 C 0.16854 0.21315 0.4292 0.0
C528 C 0.06582 0.30081 0.57691 0.0
C529 C 0.09795 0.31769 0.55745 0.0
C530 C 0.19322 0.30228 0.52262 0.0
C531 C 0.18878 0.27962 0.45848 0.0
C532 C 0.17671 0.29319 0.48128 0.0
C533 C 0.12217 0.29007 0.54974 0.0
C534 C 0.14478 0.29894 0.52634 0.0
H535 H 0.29253 0.3163 0.4229 0.0
H536 H 0.26602 0.34776 0.45633 0.0
H537 H 0.24564 0.29989 0.49777 0.0
H538 H 0.07837 0.19565 0.59081 0.0
H539 H 0.13529 0.22577 0.55709 0.0
C540 C 0.85005 0.08903 0.7635 0.0
C541 C 0.8708 0.12891 0.74692 0.0
C542 C 0.83715 0.09856 0.78547 0.0
C543 C 0.88455 0.20801 0.82506 0.0
H544 H 0.7828 0.10187 0.86573 0.0
C545 C 0.83678 0.14591 0.92768 0.0
C546 C 0.88623 0.15338 0.93354 0.0
C547 C 0.82741 0.15802 0.90554 0.0
C548 C 0.81078 0.13269 0.85465 0.0
H549 H 0.88876 0.20815 0.73943 0.0
H550 H 0.86615 0.22458 0.77782 0.0
H551 H 0.77246 0.0894 0.82411 0.0
H552 H 0.96612 0.18509 0.92176 0.0
H553 H 0.94969 0.2054 0.88314 0.0
H554 H 0.92411 0.25025 0.85564 0.0
C555 C 0.86084 0.18636 0.77398 0.0
C556 C 0.80508 0.12519 0.83078 0.0
C557 C 0.87364 0.17682 0.75199 0.0
C558 C 0.92748 0.17844 0.91773 0.0
C559 C 0.91806 0.19038 0.89556 0.0
C560 C 0.89024 0.21555 0.84895 0.0
C561 C 0.84466 0.1481 0.79123 0.0
C562 C 0.84316 0.16163 0.81579 0.0
C563 C 0.86729 0.17777 0.88888 0.0
C564 C 0.85469 0.17685 0.86401 0.0
H565 H 0.84708 0.05163 0.76008 0.0
H566 H 0.82507 0.06831 0.79842 0.0
H567 H 0.91476 0.23678 0.81398 0.0
H568 H 0.80435 0.12746 0.93965 0.0
H569 H 0.78817 0.14892 0.90104 0.0
C570 C 0.82725 0.93839 0.10149 0.0
C571 C 0.79399 0.95476 0.09223 0.0
C572 C 0.81554 0.91256 0.12266 0.0
C573 C 0.754 0.91472 0.17625 0.0
H574 H 0.79322 0.81338 0.195 0.0
C575 C 0.76369 0.81889 0.26625 0.0
C576 C 0.81693 0.83833 0.27118 0.0
C577 C 0.74896 0.83349 0.24592 0.0
C578 C 0.78153 0.84125 0.18988 0.0
H579 H 0.71952 0.95177 0.09652 0.0
H580 H 0.6994 0.90685 0.13356 0.0
H581 H 0.78496 0.82674 0.15387 0.0
H582 H 0.89624 0.89404 0.26066 0.0
H583 H 0.8702 0.91932 0.22519 0.0
H584 H 0.75293 0.93054 0.21248 0.0
C585 C 0.73483 0.91477 0.12462 0.0
C586 C 0.77691 0.84893 0.16647 0.0
C587 C 0.74633 0.94026 0.10336 0.0
C588 C 0.85495 0.87778 0.25713 0.0
C589 C 0.84018 0.89235 0.23689 0.0
C590 C 0.75869 0.907 0.19974 0.0
C591 C 0.77045 0.90279 0.13491 0.0
C592 C 0.76476 0.88692 0.15941 0.0
C593 C 0.78732 0.86816 0.23064 0.0
C594 C 0.77391 0.87127 0.20655 0.0
H595 H 0.86398 0.94853 0.09317 0.0
H596 H 0.84381 0.90384 0.1302 0.0
H597 H 0.74517 0.94472 0.17127 0.0
H598 H 0.73346 0.78876 0.27686 0.0
H599 H 0.70797 0.81454 0.24124 0.0
C600 C 0.89113 0.75418 0.4495 0.0
C601 C 0.88582 0.71492 0.43418 0.0
C602 C 0.8765 0.74284 0.4725 0.0
C603 C 0.86999 0.65919 0.51871 0.0
H604 H 0.81397 0.73544 0.55106 0.0
C605 C 0.90338 0.69939 0.61594 0.0
C606 C 0.93269 0.75371 0.61963 0.0
C607 C 0.87557 0.67933 0.59533 0.0
C608 C 0.82885 0.71316 0.54231 0.0
H609 H 0.85966 0.63249 0.43079 0.0
H610 H 0.83581 0.61275 0.4719 0.0
H611 H 0.80497 0.72536 0.50912 0.0
H612 H 0.95189 0.82919 0.6058 0.0
H613 H 0.90244 0.79423 0.57013 0.0
H614 H 0.89673 0.64981 0.55176 0.0
C615 C 0.85086 0.65227 0.46574 0.0
C616 C 0.82376 0.7074 0.51834 0.0
C617 C 0.86468 0.66354 0.44234 0.0
C618 C 0.9298 0.78722 0.60336 0.0
C619 C 0.90123 0.76712 0.58299 0.0
C620 C 0.87477 0.66466 0.54275 0.0
C621 C 0.85661 0.69199 0.481 0.0
C622 C 0.84709 0.68314 0.50619 0.0
C623 C 0.87571 0.71318 0.57834 0.0
C624 C 0.85683 0.69424 0.55458 0.0
H625 H 0.90624 0.794 0.44371 0.0
H626 H 0.88235 0.77455 0.48384 0.0
H627 H 0.88845 0.64042 0.50983 0.0
H628 H 0.90501 0.67258 0.62816 0.0
H629 H 0.85609 0.63762 0.59219 0.0
C630 C 0.08556 0.78601 0.77075 0.0
C631 C 0.045 0.7349 0.76623 0.0
C632 C 0.11299 0.79784 0.79155 0.0
C633 C 0.08275 0.75254 0.85051 0.0
H634 H 0.22054 0.87167 0.86186 0.0
C635 C 0.1972 0.88223 0.93435 0.0
C636 C 0.18353 0.92148 0.93428 0.0
C637 C 0.1828 0.84699 0.91592 0.0
C638 C 0.18241 0.8376 0.85894 0.0
H639 H 0.00575 0.65492 0.77852 0.0
H640 H 0.05422 0.67559 0.81482 0.0
H641 H 0.19847 0.83201 0.82329 0.0
H642 H 0.14044 0.95176 0.91586 0.0
H643 H 0.11464 0.88944 0.88395 0.0
H644 H 0.06591 0.76066 0.88583 0.0
C645 C 0.06381 0.70669 0.80255 0.0
C646 C 0.16967 0.81513 0.83694 0.0
C647 C 0.03612 0.69488 0.78177 0.0
C648 C 0.15169 0.92213 0.91641 0.0
C649 C 0.13703 0.88669 0.89815 0.0
C650 C 0.09549 0.77518 0.87244 0.0
C651 C 0.10059 0.7587 0.80815 0.0
C652 C 0.11896 0.77374 0.83226 0.0
C653 C 0.15388 0.85011 0.8975 0.0
C654 C 0.1447 0.81884 0.87651 0.0
H655 H 0.09365 0.81765 0.75901 0.0
H656 H 0.14084 0.83839 0.79534 0.0
H657 H 0.04315 0.72116 0.84745 0.0
H658 H 0.22166 0.88064 0.94788 0.0
H659 H 0.1959 0.81875 0.91561 0.0
loop_
_geom_bond_atom_site_label_1
_geom_bond_atom_site_label_2
_geom_bond_distance
_geom_bond_site_symmetry_2
_ccdc_geom_bond_type
Zn0 O6 1.969 . S
Zn0 O7 1.965 . S
Zn0 O11 2.024 1_545 S
Zn0 O16 1.969 . S
Zn1 O8 1.969 . S
Zn1 O14 1.969 1_545 S
Zn1 O15 1.965 . S
Zn1 O17 2.024 . S
C2 O3 1.229 . S
C2 O11 1.058 . S
O3 C2 1.229 . S
C4 O5 1.229 . S
C4 O17 1.058 . S
O5 C4 1.229 . S
O6 Zn0 1.969 . S
O6 C9 1.267 . S
O7 Zn0 1.965 . S
O7 C18 1.260 1_556 S
O8 Zn1 1.969 . S
O8 C18 1.258 . S
C9 O6 1.267 . S
C9 O10 1.228 . S
O10 C9 1.228 . S
O11 Zn0 2.024 1_565 S
O11 C2 1.058 . S
C12 O13 1.228 . S
C12 O14 1.267 . S
O13 C12 1.228 . S
O14 Zn1 1.969 1_565 S
O14 C12 1.267 . S
O15 Zn1 1.965 . S
O15 C19 1.260 . S
O16 Zn0 1.969 . S
O16 C19 1.258 1_556 S
O17 Zn1 2.024 . S
O17 C4 1.058 . S
C18 O7 1.260 1_554 S
C18 O8 1.258 . S
C19 O15 1.260 . S
C19 O16 1.258 1_554 S
Zn20 O26 1.969 . S
Zn20 O27 1.965 . S
Zn20 O31 2.024 . S
Zn20 O36 1.969 . S
Zn21 O28 1.969 . S
Zn21 O34 1.969 . S
Zn21 O35 1.965 . S
Zn21 O37 2.024 . S
C22 O23 1.229 . S
C22 O31 1.058 . S
O23 C22 1.229 . S
C24 O25 1.229 . S
C24 O37 1.058 . S
O25 C24 1.229 . S
O26 Zn20 1.969 . S
O26 C29 1.267 . S
O27 Zn20 1.965 . S
O27 C38 1.260 . S
O28 Zn21 1.969 . S
O28 C38 1.258 . S
C29 O26 1.267 . S
C29 O30 1.228 . S
O30 C29 1.228 . S
O31 Zn20 2.024 . S
O31 C22 1.058 . S
C32 O33 1.228 . S
C32 O34 1.267 . S
O33 C32 1.228 . S
O34 Zn21 1.969 . S
O34 C32 1.267 . S
O35 Zn21 1.965 . S
O35 C39 1.260 . S
O36 Zn20 1.969 . S
O36 C39 1.258 . S
O37 Zn21 2.024 . S
O37 C24 1.058 . S
C38 O27 1.260 . S
C38 O28 1.258 . S
C39 O35 1.260 . S
C39 O36 1.258 . S
Zn40 O46 1.969 . S
Zn40 O47 1.965 . S
Zn40 O51 2.024 1_655 S
Zn40 O56 1.969 1_655 S
Zn41 O48 1.969 . S
Zn41 O54 1.969 . S
Zn41 O55 1.965 . S
Zn41 O57 2.024 1_455 S
C42 O43 1.229 . S
C42 O51 1.058 . S
O43 C42 1.229 . S
C44 O45 1.229 . S
C44 O57 1.058 . S
O45 C44 1.229 . S
O46 Zn40 1.969 . S
O46 C49 1.267 . S
O47 Zn40 1.965 . S
O47 C58 1.260 . S
O48 Zn41 1.969 . S
O48 C58 1.258 1_455 S
C49 O46 1.267 . S
C49 O50 1.228 . S
O50 C49 1.228 . S
O51 Zn40 2.024 1_455 S
O51 C42 1.058 . S
C52 O53 1.228 . S
C52 O54 1.267 . S
O53 C52 1.228 . S
O54 Zn41 1.969 . S
O54 C52 1.267 . S
O55 Zn41 1.965 . S
O55 C59 1.260 . S
O56 Zn40 1.969 1_455 S
O56 C59 1.258 . S
O57 Zn41 2.024 1_655 S
O57 C44 1.058 . S
C58 O47 1.260 . S
C58 O48 1.258 1_655 S
C59 O55 1.260 . S
C59 O56 1.258 . S
Zn60 O66 1.969 . S
Zn60 O67 1.965 . S
Zn60 O71 2.024 1_545 S
Zn60 O76 1.969 . S
Zn61 O68 1.969 . S
Zn61 O74 1.969 1_545 S
Zn61 O75 1.996 . S
Zn61 O77 2.024 . S
C62 O63 1.229 . S
C62 O71 1.058 . S
O63 C62 1.229 . S
C64 O65 1.229 . S
C64 O77 1.058 . S
O65 C64 1.229 . S
O66 Zn60 1.969 . S
O66 C69 1.267 . S
O67 Zn60 1.965 . S
O67 C78 1.260 . S
O68 Zn61 1.969 . S
O68 C78 1.258 1_556 S
C69 O66 1.267 . S
C69 O70 1.228 . S
O70 C69 1.228 . S
O71 Zn60 2.024 1_565 S
O71 C62 1.058 . S
C72 O73 1.228 . S
C72 O74 1.267 . S
O73 C72 1.228 . S
O74 Zn61 1.969 1_565 S
O74 C72 1.267 . S
O75 Zn61 1.996 . S
O75 C79 1.233 1_556 S
O76 Zn60 1.969 . S
O76 C79 1.258 . S
O77 Zn61 2.024 . S
O77 C64 1.058 . S
C78 O67 1.260 . S
C78 O68 1.258 1_554 S
C79 O75 1.233 1_554 S
C79 O76 1.258 . S
Zn80 O86 1.969 . S
Zn80 O87 1.965 . S
Zn80 O91 2.024 . S
Zn80 O96 1.969 . S
Zn81 O88 1.969 . S
Zn81 O94 1.969 . S
Zn81 O95 1.965 . S
Zn81 O97 2.024 . S
C82 O83 1.229 . S
C82 O91 1.058 . S
O83 C82 1.229 . S
C84 O85 1.229 . S
C84 O97 1.058 . S
O85 C84 1.229 . S
O86 Zn80 1.969 . S
O86 C89 1.267 . S
O87 Zn80 1.965 . S
O87 C98 1.260 . S
O88 Zn81 1.969 . S
O88 C98 1.258 . S
C89 O86 1.267 . S
C89 O90 1.228 . S
O90 C89 1.228 . S
O91 Zn80 2.024 . S
O91 C82 1.058 . S
C92 O93 1.228 . S
C92 O94 1.267 . S
O93 C92 1.228 . S
O94 Zn81 1.969 . S
O94 C92 1.267 . S
O95 Zn81 1.965 . S
O95 C99 1.260 . S
O96 Zn80 1.969 . S
O96 C99 1.258 . S
O97 Zn81 2.024 . S
O97 C84 1.058 . S
C98 O87 1.260 . S
C98 O88 1.258 . S
C99 O95 1.260 . S
C99 O96 1.258 . S
Zn100 O106 1.969 . S
Zn100 O107 1.965 . S
Zn100 O111 2.024 1_655 S
Zn100 O116 1.969 1_655 S
Zn101 O108 1.969 . S
Zn101 O114 1.969 . S
Zn101 O115 1.965 . S
Zn101 O117 2.024 1_455 S
C102 O103 1.229 . S
C102 O111 1.058 . S
O103 C102 1.229 . S
C104 O105 1.229 . S
C104 O117 1.058 . S
O105 C104 1.229 . S
O106 Zn100 1.969 . S
O106 C109 1.267 . S
O107 Zn100 1.965 . S
O107 C118 1.260 . S
O108 Zn101 1.969 . S
O108 C118 1.258 1_455 S
C109 O106 1.267 . S
C109 O110 1.228 . S
O110 C109 1.228 . S
O111 Zn100 2.024 1_455 S
O111 C102 1.058 . S
C112 O113 1.228 . S
C112 O114 1.267 . S
O113 C112 1.228 . S
O114 Zn101 1.969 . S
O114 C112 1.267 . S
O115 Zn101 1.965 . S
O115 C119 1.260 . S
O116 Zn100 1.969 1_455 S
O116 C119 1.258 . S
O117 Zn101 2.024 1_655 S
O117 C104 1.058 . S
C118 O107 1.260 . S
C118 O108 1.258 1_655 S
C119 O115 1.260 . S
C119 O116 1.258 . S
C120 C121 1.349 . S
C120 C122 1.331 . S
C120 H145 0.950 1_544 S
C121 C120 1.349 . S
C121 C137 1.349 . S
C122 C120 1.331 . S
C122 C141 1.451 . S
C122 H146 0.925 1_544 S
C123 C140 1.574 . S
C123 C142 1.368 . S
C123 H147 0.949 . S
H124 C128 0.949 1_565 S
C125 C126 1.349 . S
C125 C127 1.327 . S
C125 H148 0.950 . S
C126 C125 1.349 . S
C126 C138 1.349 1_554 S
C127 C125 1.327 . S
C127 C143 1.429 . S
C127 H149 0.950 . S
C128 H124 0.949 1_545 S
C128 C136 1.574 . S
C128 C144 1.368 1_556 S
H129 C137 0.950 . S
H130 C135 0.950 . S
H131 C136 0.949 1_665 S
H132 C138 0.950 1_565 S
H133 C139 0.950 1_565 S
H134 C140 0.949 . S
C135 H130 0.950 . S
C135 C137 1.327 . S
C135 C141 1.429 . S
C136 C128 1.574 . S
C136 H131 0.949 1_445 S
C136 C142 1.368 1_556 S
C137 C121 1.349 . S
C137 H129 0.950 . S
C137 C135 1.327 . S
C138 C126 1.349 1_556 S
C138 H132 0.950 1_545 S
C138 C139 1.327 . S
C139 H133 0.950 1_545 S
C139 C138 1.327 . S
C139 C143 1.429 1_556 S
C140 C123 1.574 . S
C140 H134 0.949 . S
C140 C144 1.368 . S
C141 C122 1.451 . S
C141 C135 1.429 . S
C141 C142 1.523 1_655 S
C142 C123 1.368 . S
C142 C136 1.368 1_554 S
C142 C141 1.523 1_455 S
C143 C127 1.429 . S
C143 C139 1.429 1_554 S
C143 C144 1.523 . S
C144 C128 1.368 1_554 S
C144 C140 1.368 . S
C144 C143 1.523 . S
H145 C120 0.950 1_566 S
H146 C122 0.925 1_566 S
H147 C123 0.949 . S
H148 C125 0.950 . S
H149 C127 0.950 . S
C150 C151 1.349 . S
C150 C152 1.327 . S
C150 H175 0.950 . S
C151 C150 1.349 . S
C151 C167 1.349 . S
C152 C150 1.327 . S
C152 C171 1.429 . S
C152 H176 0.950 . S
C153 C170 1.574 . S
C153 C172 1.368 . S
C153 H177 0.949 . S
H154 C158 0.949 . S
C155 C156 1.349 . S
C155 C157 1.327 . S
C155 H178 0.950 . S
C156 C155 1.349 . S
C156 C168 1.349 . S
C157 C155 1.327 . S
C157 C173 1.429 . S
C157 H179 0.950 . S
C158 H154 0.949 . S
C158 C166 1.574 1_545 S
C158 C174 1.368 . S
H159 C167 0.950 . S
H160 C165 0.950 . S
H161 C166 0.949 1_655 S
H162 C168 0.950 . S
H163 C169 0.950 . S
H164 C170 0.949 . S
C165 H160 0.950 . S
C165 C167 1.327 . S
C165 C171 1.429 . S
C166 C158 1.574 1_565 S
C166 H161 0.949 1_455 S
C166 C172 1.368 . S
C167 C151 1.349 . S
C167 H159 0.950 . S
C167 C165 1.327 . S
C168 C156 1.349 . S
C168 H162 0.950 . S
C168 C169 1.327 . S
C169 H163 0.950 . S
C169 C168 1.327 . S
C169 C173 1.429 . S
C170 C153 1.574 . S
C170 H164 0.949 . S
C170 C174 1.368 1_565 S
C171 C152 1.429 . S
C171 C165 1.429 . S
C171 C172 1.523 1_655 S
C172 C153 1.368 . S
C172 C166 1.368 . S
C172 C171 1.523 1_455 S
C173 C157 1.429 . S
C173 C169 1.429 . S
C173 C174 1.523 . S
C174 C158 1.368 . S
C174 C170 1.368 1_545 S
C174 C173 1.523 . S
H175 C150 0.950 . S
H176 C152 0.950 . S
H177 C153 0.949 . S
H178 C155 0.950 . S
H179 C157 0.950 . S
C180 C181 1.351 . S
C180 C182 1.327 . S
C180 H205 0.950 . S
C181 C180 1.351 . S
C181 C197 1.342 1_455 S
C182 C180 1.327 . S
C182 C201 1.435 . S
C182 H206 0.950 . S
C183 C200 1.574 . S
C183 C202 1.362 1_655 S
C183 H207 0.949 . S
H184 C188 0.949 . S
C185 C186 1.347 1_655 S
C185 C187 1.327 . S
C185 H208 0.950 . S
C186 C185 1.347 1_455 S
C186 C198 1.354 . S
C187 C185 1.327 . S
C187 C203 1.423 1_655 S
C187 H209 0.950 . S
C188 H184 0.949 . S
C188 C196 1.574 1_545 S
C188 C204 1.374 . S
H189 C197 0.950 . S
H190 C195 0.950 . S
H191 C196 0.949 . S
H192 C198 0.950 . S
H193 C199 0.950 . S
H194 C200 0.949 . S
C195 H190 0.950 . S
C195 C197 1.327 . S
C195 C201 1.427 1_655 S
C196 C188 1.574 1_565 S
C196 H191 0.949 . S
C196 C202 1.371 . S
C197 C181 1.342 1_655 S
C197 H189 0.950 . S
C197 C195 1.327 . S
C198 C186 1.354 . S
C198 H192 0.950 . S
C198 C199 1.327 . S
C199 H193 0.950 . S
C199 C198 1.327 . S
C199 C203 1.430 . S
C200 C183 1.574 . S
C200 H194 0.949 . S
C200 C204 1.366 1_665 S
C201 C182 1.435 . S
C201 C195 1.427 1_455 S
C201 C202 1.523 . S
C202 C183 1.362 1_455 S
C202 C196 1.371 . S
C202 C201 1.523 . S
C203 C187 1.423 1_455 S
C203 C199 1.430 . S
C203 C204 1.523 . S
C204 C188 1.374 . S
C204 C200 1.366 1_445 S
C204 C203 1.523 . S
H205 C180 0.950 . S
H206 C182 0.950 . S
H207 C183 0.949 . S
H208 C185 0.950 . S
H209 C187 0.950 . S
C210 C211 1.349 . S
C210 C212 1.327 . S
C210 H235 0.950 . S
C211 C210 1.349 . S
C211 C227 1.349 . S
C212 C210 1.327 . S
C212 C231 1.429 . S
C212 H236 0.950 . S
C213 C230 1.574 . S
C213 C232 1.368 . S
C213 H237 0.949 . S
H214 C218 0.949 . S
C215 C216 1.349 . S
C215 C217 1.327 . S
C215 H238 0.950 . S
C216 C215 1.349 . S
C216 C228 1.349 . S
C217 C215 1.327 . S
C217 C233 1.429 . S
C217 H239 0.950 . S
C218 H214 0.949 . S
C218 C226 1.574 . S
C218 C234 1.368 . S
H219 C227 0.950 . S
H220 C225 0.950 . S
H221 C226 0.949 . S
H222 C228 0.950 . S
H223 C229 0.950 . S
H224 C230 0.949 . S
C225 H220 0.950 . S
C225 C227 1.327 . S
C225 C231 1.429 . S
C226 C218 1.574 . S
C226 H221 0.949 . S
C226 C232 1.368 . S
C227 C211 1.349 . S
C227 H219 0.950 . S
C227 C225 1.327 . S
C228 C216 1.349 . S
C228 H222 0.950 . S
C228 C229 1.327 . S
C229 H223 0.950 . S
C229 C228 1.327 . S
C229 C233 1.429 . S
C230 C213 1.574 . S
C230 H224 0.949 . S
C230 C234 1.368 . S
C231 C212 1.429 . S
C231 C225 1.429 . S
C231 C232 1.523 . S
C232 C213 1.368 . S
C232 C226 1.368 . S
C232 C231 1.523 . S
C233 C217 1.429 . S
C233 C229 1.429 . S
C233 C234 1.523 . S
C234 C218 1.368 . S
C234 C230 1.368 . S
C234 C233 1.523 . S
H235 C210 0.950 . S
H236 C212 0.950 . S
H237 C213 0.949 . S
H238 C215 0.950 . S
H239 C217 0.950 . S
C240 C241 1.349 . S
C240 C242 1.327 . S
C240 H265 0.950 . S
C241 C240 1.349 . S
C241 C257 1.349 . S
C242 C240 1.327 . S
C242 C261 1.429 . S
C242 H266 0.950 . S
C243 C260 1.574 . S
C243 C262 1.368 . S
C243 H267 0.949 . S
H244 C248 0.949 1_655 S
C245 C246 1.349 . S
C245 C247 1.327 1_655 S
C245 H268 0.950 1_655 S
C246 C245 1.349 . S
C246 C258 1.349 . S
C247 C245 1.327 1_455 S
C247 C263 1.429 . S
C247 H269 0.950 . S
C248 H244 0.949 1_455 S
C248 C256 1.574 . S
C248 C264 1.368 . S
H249 C257 0.950 . S
H250 C255 0.950 . S
H251 C256 0.949 . S
H252 C258 0.950 . S
H253 C259 0.950 . S
H254 C260 0.949 . S
C255 H250 0.950 . S
C255 C257 1.327 . S
C255 C261 1.429 . S
C256 C248 1.574 . S
C256 H251 0.949 . S
C256 C262 1.368 . S
C257 C241 1.349 . S
C257 H249 0.950 . S
C257 C255 1.327 . S
C258 C246 1.349 . S
C258 H252 0.950 . S
C258 C259 1.327 . S
C259 H253 0.950 . S
C259 C258 1.327 . S
C259 C263 1.429 1_655 S
C260 C243 1.574 . S
C260 H254 0.949 . S
C260 C264 1.368 . S
C261 C242 1.429 . S
C261 C255 1.429 . S
C261 C262 1.523 . S
C262 C243 1.368 . S
C262 C256 1.368 . S
C262 C261 1.523 . S
C263 C247 1.429 . S
C263 C259 1.429 1_455 S
C263 C264 1.523 . S
C264 C248 1.368 . S
C264 C260 1.368 . S
C264 C263 1.523 . S
H265 C240 0.950 . S
H266 C242 0.950 . S
H267 C243 0.949 . S
H268 C245 0.950 1_455 S
H269 C247 0.950 . S
C270 C271 1.349 . S
C270 C272 1.327 . S
C270 H295 0.950 . S
C271 C270 1.349 . S
C271 C287 1.349 . S
C272 C270 1.327 . S
C272 C291 1.429 . S
C272 H296 0.950 . S
C273 C290 1.574 . S
C273 C292 1.368 . S
C273 H297 0.949 . S
H274 C278 0.949 . S
C275 C276 1.349 . S
C275 C277 1.327 . S
C275 H298 0.950 . S
C276 C275 1.349 . S
C276 C288 1.349 . S
C277 C275 1.327 . S
C277 C293 1.429 . S
C277 H299 0.950 . S
C278 H274 0.949 . S
C278 C286 1.574 . S
C278 C294 1.368 . S
H279 C287 0.950 . S
H280 C285 0.950 . S
H281 C286 0.949 1_545 S
H282 C288 0.950 . S
H283 C289 0.950 . S
H284 C290 0.949 . S
C285 H280 0.950 . S
C285 C287 1.327 . S
C285 C291 1.429 . S
C286 C278 1.574 . S
C286 H281 0.949 1_565 S
C286 C292 1.368 . S
C287 C271 1.349 . S
C287 H279 0.950 . S
C287 C285 1.327 . S
C288 C276 1.349 . S
C288 H282 0.950 . S
C288 C289 1.327 . S
C289 H283 0.950 . S
C289 C288 1.327 . S
C289 C293 1.429 . S
C290 C273 1.574 . S
C290 H284 0.949 . S
C290 C294 1.368 . S
C291 C272 1.429 . S
C291 C285 1.429 . S
C291 C292 1.523 1_545 S
C292 C273 1.368 . S
C292 C286 1.368 . S
C292 C291 1.523 1_565 S
C293 C277 1.429 . S
C293 C289 1.429 . S
C293 C294 1.523 . S
C294 C278 1.368 . S
C294 C290 1.368 . S
C294 C293 1.523 . S
H295 C270 0.950 . S
H296 C272 0.950 . S
H297 C273 0.949 . S
H298 C275 0.950 . S
H299 C277 0.950 . S
C300 C301 1.349 . S
C300 C302 1.327 . S
C300 H325 0.950 . S
C301 C300 1.349 . S
C301 C317 1.349 . S
C302 C300 1.327 . S
C302 C321 1.429 . S
C302 H326 0.950 . S
C303 C320 1.574 . S
C303 C322 1.368 . S
C303 H327 0.949 . S
H304 C308 0.949 . S
C305 C306 1.349 . S
C305 C307 1.327 . S
C305 H328 0.950 . S
C306 C305 1.349 . S
C306 C318 1.349 . S
C307 C305 1.327 . S
C307 C323 1.429 . S
C307 H329 0.950 . S
C308 H304 0.949 . S
C308 C316 1.574 . S
C308 C324 1.368 . S
H309 C317 0.950 . S
H310 C315 0.950 . S
H311 C316 0.949 . S
H312 C318 0.950 . S
H313 C319 0.950 . S
H314 C320 0.949 . S
C315 H310 0.950 . S
C315 C317 1.327 . S
C315 C321 1.429 . S
C316 C308 1.574 . S
C316 H311 0.949 . S
C316 C322 1.368 . S
C317 C301 1.349 . S
C317 H309 0.950 . S
C317 C315 1.327 . S
C318 C306 1.349 . S
C318 H312 0.950 . S
C318 C319 1.327 . S
C319 H313 0.950 . S
C319 C318 1.327 . S
C319 C323 1.429 . S
C320 C303 1.574 . S
C320 H314 0.949 . S
C320 C324 1.368 . S
C321 C302 1.429 . S
C321 C315 1.429 . S
C321 C322 1.523 . S
C322 C303 1.368 . S
C322 C316 1.368 . S
C322 C321 1.523 . S
C323 C307 1.429 . S
C323 C319 1.429 . S
C323 C324 1.523 . S
C324 C308 1.368 . S
C324 C320 1.368 . S
C324 C323 1.523 . S
H325 C300 0.950 . S
H326 C302 0.950 . S
H327 C303 0.949 . S
H328 C305 0.950 . S
H329 C307 0.950 . S
C330 C331 1.349 . S
C330 C332 1.327 1_655 S
C330 H355 0.950 1_655 S
C331 C330 1.349 . S
C331 C347 1.349 . S
C332 C330 1.327 1_455 S
C332 C351 1.429 . S
C332 H356 0.950 . S
C333 C350 1.574 . S
C333 C352 1.368 . S
C333 H357 0.949 1_455 S
H334 C338 0.949 . S
C335 C336 1.349 . S
C335 C337 1.327 . S
C335 H358 0.950 . S
C336 C335 1.349 . S
C336 C348 1.349 . S
C337 C335 1.327 . S
C337 C353 1.429 . S
C337 H359 0.950 . S
C338 H334 0.949 . S
C338 C346 1.574 . S
C338 C354 1.368 . S
H339 C347 0.950 . S
H340 C345 0.950 . S
H341 C346 0.949 . S
H342 C348 0.950 . S
H343 C349 0.950 . S
H344 C350 0.949 . S
C345 H340 0.950 . S
C345 C347 1.327 . S
C345 C351 1.429 1_655 S
C346 C338 1.574 . S
C346 H341 0.949 . S
C346 C352 1.368 . S
C347 C331 1.349 . S
C347 H339 0.950 . S
C347 C345 1.327 . S
C348 C336 1.349 . S
C348 H342 0.950 . S
C348 C349 1.327 . S
C349 H343 0.950 . S
C349 C348 1.327 . S
C349 C353 1.429 . S
C350 C333 1.574 . S
C350 H344 0.949 . S
C350 C354 1.368 . S
C351 C332 1.429 . S
C351 C345 1.429 1_455 S
C351 C352 1.523 . S
C352 C333 1.368 . S
C352 C346 1.368 . S
C352 C351 1.523 . S
C353 C337 1.429 . S
C353 C349 1.429 . S
C353 C354 1.523 . S
C354 C338 1.368 . S
C354 C350 1.368 . S
C354 C353 1.523 . S
H355 C330 0.950 1_455 S
H356 C332 0.950 . S
H357 C333 0.949 1_655 S
H358 C335 0.950 . S
H359 C337 0.950 . S
C360 C361 1.349 . S
C360 C362 1.327 . S
C360 H385 0.950 . S
C361 C360 1.349 . S
C361 C377 1.349 . S
C362 C360 1.327 . S
C362 C381 1.429 . S
C362 H386 0.950 . S
C363 C380 1.574 1_565 S
C363 C382 1.368 . S
C363 H387 0.949 . S
H364 C368 0.949 . S
C365 C366 1.349 . S
C365 C367 1.327 . S
C365 H388 0.950 . S
C366 C365 1.349 . S
C366 C378 1.349 . S
C367 C365 1.327 . S
C367 C383 1.429 . S
C367 H389 0.950 . S
C368 H364 0.949 . S
C368 C376 1.574 . S
C368 C384 1.368 . S
H369 C377 0.950 . S
H370 C375 0.950 . S
H371 C376 0.949 . S
H372 C378 0.950 . S
H373 C379 0.950 1_565 S
H374 C380 0.949 . S
C375 H370 0.950 . S
C375 C377 1.327 . S
C375 C381 1.429 . S
C376 C368 1.574 . S
C376 H371 0.949 . S
C376 C382 1.368 . S
C377 C361 1.349 . S
C377 H369 0.950 . S
C377 C375 1.327 . S
C378 C366 1.349 . S
C378 H372 0.950 . S
C378 C379 1.327 . S
C379 H373 0.950 1_545 S
C379 C378 1.327 . S
C379 C383 1.429 . S
C380 C363 1.574 1_545 S
C380 H374 0.949 . S
C380 C384 1.368 1_545 S
C381 C362 1.429 . S
C381 C375 1.429 . S
C381 C382 1.523 . S
C382 C363 1.368 . S
C382 C376 1.368 . S
C382 C381 1.523 . S
C383 C367 1.429 . S
C383 C379 1.429 . S
C383 C384 1.523 1_545 S
C384 C368 1.368 . S
C384 C380 1.368 1_565 S
C384 C383 1.523 1_565 S
H385 C360 0.950 . S
H386 C362 0.950 . S
H387 C363 0.949 . S
H388 C365 0.950 . S
H389 C367 0.950 . S
C390 C391 1.349 . S
C390 C392 1.327 . S
C390 H415 0.950 . S
C391 C390 1.349 . S
C391 C407 1.362 1_545 S
C392 C390 1.327 . S
C392 C411 1.429 . S
C392 H416 0.950 . S
C393 C410 1.575 . S
C393 C412 1.349 1_566 S
C393 H417 0.967 . S
H394 C398 0.949 . S
C395 C396 1.331 1_566 S
C395 C397 1.327 . S
C395 H418 0.970 . S
C396 C395 1.331 1_544 S
C396 C408 1.349 . S
C397 C395 1.327 . S
C397 C413 1.409 1_566 S
C397 H419 0.972 . S
C398 H394 0.949 . S
C398 C406 1.574 . S
C398 C414 1.368 . S
H399 C407 0.938 1_556 S
H400 C405 0.949 1_556 S
H401 C406 0.949 . S
H402 C408 0.950 . S
H403 C409 0.950 . S
H404 C410 0.949 . S
C405 H400 0.949 1_554 S
C405 C407 1.327 . S
C405 C411 1.429 1_565 S
C406 C398 1.574 . S
C406 H401 0.949 . S
C406 C412 1.368 . S
C407 C391 1.362 1_565 S
C407 H399 0.938 1_554 S
C407 C405 1.327 . S
C408 C396 1.349 . S
C408 H402 0.950 . S
C408 C409 1.327 . S
C409 H403 0.950 . S
C409 C408 1.327 . S
C409 C413 1.429 . S
C410 C393 1.575 . S
C410 H404 0.949 . S
C410 C414 1.368 1_566 S
C411 C392 1.429 . S
C411 C405 1.429 1_545 S
C411 C412 1.523 . S
C412 C393 1.349 1_544 S
C412 C406 1.368 . S
C412 C411 1.523 . S
C413 C397 1.409 1_544 S
C413 C409 1.429 . S
C413 C414 1.523 . S
C414 C398 1.368 . S
C414 C410 1.368 1_544 S
C414 C413 1.523 . S
H415 C390 0.950 . S
H416 C392 0.950 . S
H417 C393 0.967 . S
H418 C395 0.970 . S
H419 C397 0.972 . S
C420 C421 1.349 . S
C420 C422 1.327 . S
C420 H445 0.950 . S
C421 C420 1.349 . S
C421 C437 1.349 . S
C422 C420 1.327 . S
C422 C441 1.429 . S
C422 H446 0.950 . S
C423 C440 1.574 . S
C423 C442 1.368 . S
C423 H447 0.949 . S
H424 C428 0.949 . S
C425 C426 1.349 . S
C425 C427 1.327 . S
C425 H448 0.950 . S
C426 C425 1.349 . S
C426 C438 1.349 . S
C427 C425 1.327 . S
C427 C443 1.429 . S
C427 H449 0.950 . S
C428 H424 0.949 . S
C428 C436 1.574 . S
C428 C444 1.368 . S
H429 C437 0.950 . S
H430 C435 0.950 . S
H431 C436 0.949 . S
H432 C438 0.950 . S
H433 C439 0.950 . S
H434 C440 0.949 . S
C435 H430 0.950 . S
C435 C437 1.327 . S
C435 C441 1.429 . S
C436 C428 1.574 . S
C436 H431 0.949 . S
C436 C442 1.368 . S
C437 C421 1.349 . S
C437 H429 0.950 . S
C437 C435 1.327 . S
C438 C426 1.349 . S
C438 H432 0.950 . S
C438 C439 1.327 . S
C439 H433 0.950 . S
C439 C438 1.327 . S
C439 C443 1.429 . S
C440 C423 1.574 . S
C440 H434 0.949 . S
C440 C444 1.368 . S
C441 C422 1.429 . S
C441 C435 1.429 . S
C441 C442 1.523 . S
C442 C423 1.368 . S
C442 C436 1.368 . S
C442 C441 1.523 . S
C443 C427 1.429 . S
C443 C439 1.429 . S
C443 C444 1.523 . S
C444 C428 1.368 . S
C444 C440 1.368 . S
C444 C443 1.523 . S
H445 C420 0.950 . S
H446 C422 0.950 . S
H447 C423 0.949 . S
H448 C425 0.950 . S
H449 C427 0.950 . S
C450 C451 1.349 . S
C450 C452 1.327 . S
C450 H475 0.950 . S
C451 C450 1.349 . S
C451 C467 1.349 1_455 S
C452 C450 1.327 . S
C452 C471 1.429 . S
C452 H476 0.950 . S
C453 C470 1.574 . S
C453 C472 1.368 1_655 S
C453 H477 0.949 . S
H454 C458 0.949 . S
C455 C456 1.349 1_655 S
C455 C457 1.327 . S
C455 H478 0.950 . S
C456 C455 1.349 1_455 S
C456 C468 1.349 . S
C457 C455 1.327 . S
C457 C473 1.429 1_655 S
C457 H479 0.950 . S
C458 H454 0.949 . S
C458 C466 1.574 . S
C458 C474 1.368 . S
H459 C467 0.950 . S
H460 C465 0.950 . S
H461 C466 0.949 . S
H462 C468 0.950 . S
H463 C469 0.950 . S
H464 C470 0.949 . S
C465 H460 0.950 . S
C465 C467 1.327 . S
C465 C471 1.429 1_655 S
C466 C458 1.574 . S
C466 H461 0.949 . S
C466 C472 1.368 . S
C467 C451 1.349 1_655 S
C467 H459 0.950 . S
C467 C465 1.327 . S
C468 C456 1.349 . S
C468 H462 0.950 . S
C468 C469 1.327 . S
C469 H463 0.950 . S
C469 C468 1.327 . S
C469 C473 1.429 . S
C470 C453 1.574 . S
C470 H464 0.949 . S
C470 C474 1.368 1_655 S
C471 C452 1.429 . S
C471 C465 1.429 1_455 S
C471 C472 1.523 . S
C472 C453 1.368 1_455 S
C472 C466 1.368 . S
C472 C471 1.523 . S
C473 C457 1.429 1_455 S
C473 C469 1.429 . S
C473 C474 1.523 . S
C474 C458 1.368 . S
C474 C470 1.368 1_455 S
C474 C473 1.523 . S
H475 C450 0.950 . S
H476 C452 0.950 . S
H477 C453 0.949 . S
H478 C455 0.950 . S
H479 C457 0.950 . S
C480 C481 1.349 . S
C480 C482 1.327 . S
C480 H505 0.950 . S
C481 C480 1.349 . S
C481 C497 1.349 . S
C482 C480 1.327 . S
C482 C501 1.429 . S
C482 H506 0.950 . S
C483 C500 1.574 . S
C483 C502 1.368 . S
C483 H507 0.949 . S
H484 C488 0.949 . S
C485 C486 1.349 . S
C485 C487 1.327 . S
C485 H508 0.950 . S
C486 C485 1.349 . S
C486 C498 1.349 . S
C487 C485 1.327 . S
C487 C503 1.429 . S
C487 H509 0.950 . S
C488 H484 0.949 . S
C488 C496 1.574 . S
C488 C504 1.368 . S
H489 C497 0.950 . S
H490 C495 0.950 . S
H491 C496 0.949 . S
H492 C498 0.950 . S
H493 C499 0.950 . S
H494 C500 0.949 . S
C495 H490 0.950 . S
C495 C497 1.327 . S
C495 C501 1.429 . S
C496 C488 1.574 . S
C496 H491 0.949 . S
C496 C502 1.368 . S
C497 C481 1.349 . S
C497 H489 0.950 . S
C497 C495 1.327 . S
C498 C486 1.349 . S
C498 H492 0.950 . S
C498 C499 1.327 . S
C499 H493 0.950 . S
C499 C498 1.327 . S
C499 C503 1.429 . S
C500 C483 1.574 . S
C500 H494 0.949 . S
C500 C504 1.368 . S
C501 C482 1.429 . S
C501 C495 1.429 . S
C501 C502 1.523 . S
C502 C483 1.368 . S
C502 C496 1.368 . S
C502 C501 1.523 . S
C503 C487 1.429 . S
C503 C499 1.429 . S
C503 C504 1.523 . S
C504 C488 1.368 . S
C504 C500 1.368 . S
C504 C503 1.523 . S
H505 C480 0.950 . S
H506 C482 0.950 . S
H507 C483 0.949 . S
H508 C485 0.950 . S
H509 C487 0.950 . S
C510 C511 1.349 . S
C510 C512 1.327 . S
C510 H535 0.950 . S
C511 C510 1.349 . S
C511 C527 1.349 . S
C512 C510 1.327 . S
C512 C531 1.429 . S
C512 H536 0.950 . S
C513 C530 1.574 . S
C513 C532 1.368 . S
C513 H537 0.949 . S
H514 C518 0.949 . S
C515 C516 1.349 . S
C515 C517 1.327 . S
C515 H538 0.950 . S
C516 C515 1.349 . S
C516 C528 1.349 . S
C517 C515 1.327 . S
C517 C533 1.429 . S
C517 H539 0.950 . S
C518 H514 0.949 . S
C518 C526 1.574 . S
C518 C534 1.368 . S
H519 C527 0.950 . S
H520 C525 0.950 . S
H521 C526 0.949 . S
H522 C528 0.950 . S
H523 C529 0.950 . S
H524 C530 0.949 . S
C525 H520 0.950 . S
C525 C527 1.327 . S
C525 C531 1.429 . S
C526 C518 1.574 . S
C526 H521 0.949 . S
C526 C532 1.368 . S
C527 C511 1.349 . S
C527 H519 0.950 . S
C527 C525 1.327 . S
C528 C516 1.349 . S
C528 H522 0.950 . S
C528 C529 1.327 . S
C529 H523 0.950 . S
C529 C528 1.327 . S
C529 C533 1.429 . S
C530 C513 1.574 . S
C530 H524 0.949 . S
C530 C534 1.368 . S
C531 C512 1.429 . S
C531 C525 1.429 . S
C531 C532 1.523 . S
C532 C513 1.368 . S
C532 C526 1.368 . S
C532 C531 1.523 . S
C533 C517 1.429 . S
C533 C529 1.429 . S
C533 C534 1.523 . S
C534 C518 1.368 . S
C534 C530 1.368 . S
C534 C533 1.523 . S
H535 C510 0.950 . S
H536 C512 0.950 . S
H537 C513 0.949 . S
H538 C515 0.950 . S
H539 C517 0.950 . S
C540 C541 1.349 . S
C540 C542 1.327 . S
C540 H565 0.950 . S
C541 C540 1.349 . S
C541 C557 1.349 . S
C542 C540 1.327 . S
C542 C561 1.429 . S
C542 H566 0.950 . S
C543 C560 1.574 . S
C543 C562 1.368 . S
C543 H567 0.949 . S
H544 C548 0.949 . S
C545 C546 1.349 . S
C545 C547 1.327 . S
C545 H568 0.950 . S
C546 C545 1.349 . S
C546 C558 1.349 . S
C547 C545 1.327 . S
C547 C563 1.429 . S
C547 H569 0.950 . S
C548 H544 0.949 . S
C548 C556 1.574 . S
C548 C564 1.368 . S
H549 C557 0.950 . S
H550 C555 0.950 . S
H551 C556 0.949 . S
H552 C558 0.950 . S
H553 C559 0.950 . S
H554 C560 0.949 . S
C555 H550 0.950 . S
C555 C557 1.327 . S
C555 C561 1.429 . S
C556 C548 1.574 . S
C556 H551 0.949 . S
C556 C562 1.368 . S
C557 C541 1.349 . S
C557 H549 0.950 . S
C557 C555 1.327 . S
C558 C546 1.349 . S
C558 H552 0.950 . S
C558 C559 1.327 . S
C559 H553 0.950 . S
C559 C558 1.327 . S
C559 C563 1.429 . S
C560 C543 1.574 . S
C560 H554 0.949 . S
C560 C564 1.368 . S
C561 C542 1.429 . S
C561 C555 1.429 . S
C561 C562 1.523 . S
C562 C543 1.368 . S
C562 C556 1.368 . S
C562 C561 1.523 . S
C563 C547 1.429 . S
C563 C559 1.429 . S
C563 C564 1.523 . S
C564 C548 1.368 . S
C564 C560 1.368 . S
C564 C563 1.523 . S
H565 C540 0.950 . S
H566 C542 0.950 . S
H567 C543 0.949 . S
H568 C545 0.950 . S
H569 C547 0.950 . S
C570 C571 1.349 . S
C570 C572 1.327 . S
C570 H595 0.950 . S
C571 C570 1.349 . S
C571 C587 1.349 . S
C572 C570 1.327 . S
C572 C591 1.429 . S
C572 H596 0.950 . S
C573 C590 1.574 . S
C573 C592 1.368 . S
C573 H597 0.949 . S
H574 C578 0.949 . S
C575 C576 1.349 . S
C575 C577 1.327 . S
C575 H598 0.950 . S
C576 C575 1.349 . S
C576 C588 1.349 . S
C577 C575 1.327 . S
C577 C593 1.429 . S
C577 H599 0.950 . S
C578 H574 0.949 . S
C578 C586 1.574 . S
C578 C594 1.368 . S
H579 C587 0.950 . S
H580 C585 0.950 . S
H581 C586 0.949 . S
H582 C588 0.950 . S
H583 C589 0.950 . S
H584 C590 0.949 . S
C585 H580 0.950 . S
C585 C587 1.327 . S
C585 C591 1.429 . S
C586 C578 1.574 . S
C586 H581 0.949 . S
C586 C592 1.368 . S
C587 C571 1.349 . S
C587 H579 0.950 . S
C587 C585 1.327 . S
C588 C576 1.349 . S
C588 H582 0.950 . S
C588 C589 1.327 . S
C589 H583 0.950 . S
C589 C588 1.327 . S
C589 C593 1.429 . S
C590 C573 1.574 . S
C590 H584 0.949 . S
C590 C594 1.368 . S
C591 C572 1.429 . S
C591 C585 1.429 . S
C591 C592 1.523 . S
C592 C573 1.368 . S
C592 C586 1.368 . S
C592 C591 1.523 . S
C593 C577 1.429 . S
C593 C589 1.429 . S
C593 C594 1.523 . S
C594 C578 1.368 . S
C594 C590 1.368 . S
C594 C593 1.523 . S
H595 C570 0.950 . S
H596 C572 0.950 . S
H597 C573 0.949 . S
H598 C575 0.950 . S
H599 C577 0.950 . S
C600 C601 1.349 . S
C600 C602 1.327 . S
C600 H625 0.950 . S
C601 C600 1.349 . S
C601 C617 1.349 . S
C602 C600 1.327 . S
C602 C621 1.429 . S
C602 H626 0.950 . S
C603 C620 1.574 . S
C603 C622 1.368 . S
C603 H627 0.949 . S
H604 C608 0.949 . S
C605 C606 1.349 . S
C605 C607 1.327 . S
C605 H628 0.950 . S
C606 C605 1.349 . S
C606 C618 1.349 . S
C607 C605 1.327 . S
C607 C623 1.429 . S
C607 H629 0.950 . S
C608 H604 0.949 . S
C608 C616 1.574 . S
C608 C624 1.368 . S
H609 C617 0.950 . S
H610 C615 0.950 . S
H611 C616 0.949 . S
H612 C618 0.950 . S
H613 C619 0.950 . S
H614 C620 0.949 . S
C615 H610 0.950 . S
C615 C617 1.327 . S
C615 C621 1.429 . S
C616 C608 1.574 . S
C616 H611 0.949 . S
C616 C622 1.368 . S
C617 C601 1.349 . S
C617 H609 0.950 . S
C617 C615 1.327 . S
C618 C606 1.349 . S
C618 H612 0.950 . S
C618 C619 1.327 . S
C619 H613 0.950 . S
C619 C618 1.327 . S
C619 C623 1.429 . S
C620 C603 1.574 . S
C620 H614 0.949 . S
C620 C624 1.368 . S
C621 C602 1.429 . S
C621 C615 1.429 . S
C621 C622 1.523 . S
C622 C603 1.368 . S
C622 C616 1.368 . S
C622 C621 1.523 . S
C623 C607 1.429 . S
C623 C619 1.429 . S
C623 C624 1.523 . S
C624 C608 1.368 . S
C624 C620 1.368 . S
C624 C623 1.523 . S
H625 C600 0.950 . S
H626 C602 0.950 . S
H627 C603 0.949 . S
H628 C605 0.950 . S
H629 C607 0.950 . S
C630 C631 1.349 . S
C630 C632 1.327 . S
C630 H655 0.950 . S
C631 C630 1.349 . S
C631 C647 1.349 . S
C632 C630 1.327 . S
C632 C651 1.429 . S
C632 H656 0.950 . S
C633 C650 1.574 . S
C633 C652 1.368 . S
C633 H657 0.949 . S
H634 C638 0.949 . S
C635 C636 1.349 . S
C635 C637 1.327 . S
C635 H658 0.950 . S
C636 C635 1.349 . S
C636 C648 1.349 . S
C637 C635 1.327 . S
C637 C653 1.429 . S
C637 H659 0.950 . S
C638 H634 0.949 . S
C638 C646 1.574 . S
C638 C654 1.368 . S
H639 C647 0.950 . S
H640 C645 0.950 . S
H641 C646 0.949 . S
H642 C648 0.950 . S
H643 C649 0.950 . S
H644 C650 0.949 . S
C645 H640 0.950 . S
C645 C647 1.327 . S
C645 C651 1.429 . S
C646 C638 1.574 . S
C646 H641 0.949 . S
C646 C652 1.368 . S
C647 C631 1.349 . S
C647 H639 0.950 . S
C647 C645 1.327 . S
C648 C636 1.349 . S
C648 H642 0.950 . S
C648 C649 1.327 . S
C649 H643 0.950 . S
C649 C648 1.327 . S
C649 C653 1.429 . S
C650 C633 1.574 . S
C650 H644 0.949 . S
C650 C654 1.368 . S
C651 C632 1.429 . S
C651 C645 1.429 . S
C651 C652 1.523 . S
C652 C633 1.368 . S
C652 C646 1.368 . S
C652 C651 1.523 . S
C653 C637 1.429 . S
C653 C649 1.429 . S
C653 C654 1.523 . S
C654 C638 1.368 . S
C654 C650 1.368 . S
C654 C653 1.523 . S
H655 C630 0.950 . S
H656 C632 0.950 . S
H657 C633 0.949 . S
H658 C635 0.950 . S
H659 C637 0.950 . S
C121 C78 1.539 . S
C126 C18 1.539 . S
C151 C98 1.539 . S
C156 C38 1.539 . S
C181 C118 1.533 1_455 S
C186 C58 1.542 1_455 S
C211 C9 1.618 . S
C216 C52 1.698 . S
C241 C32 1.698 . S
C246 C69 1.618 . S
C271 C49 1.618 . S
C276 C92 1.699 . S
C301 C72 1.698 . S
C306 C109 1.618 . S
C331 C89 1.618 . S
C336 C12 1.699 . S
C361 C112 1.698 . S
C366 C29 1.618 . S
C391 C19 0.831 . S
C396 C79 0.831 . S
C421 C39 0.830 . S
C426 C99 0.830 . S
C451 C59 0.830 . S
C456 C119 0.830 . S
C481 C4 0.836 . S
C486 C24 0.836 . S
C511 C22 0.977 . S
C516 C42 0.977 . S
C541 C44 0.836 . S
C546 C64 0.836 . S
C571 C62 0.977 . S
C576 C82 0.977 . S
C601 C84 0.836 . S
C606 C104 0.836 . S
C631 C102 0.978 . S
C636 C2 0.978 . S
