# Generated by pormake.
# Topology rho, (4)-cn, num edge types: 1
# Building blocks:
#     Node 0, Type 0, BuildingBlock: QUQFOY_clean_sbu_3, # of connection points: 4
#     Node 1, Type 0, BuildingBlock: QUQFOY_clean_sbu_3, # of connection points: 4
#     Node 2, Type 0, BuildingBlock: QUQFOY_clean_sbu_3, # of connection points: 4
#     Node 3, Type 0, BuildingBlock: QUQFOY_clean_sbu_3, # of connection points: 4
#     Node 4, Type 0, BuildingBlock: QUQFOY_clean_sbu_3, # of connection points: 4
#     Node 5, Type 0, BuildingBlock: QUQFOY_clean_sbu_3, # of connection points: 4
#     Node 6, Type 0, BuildingBlock: QUQFOY_clean_sbu_3, # of connection points: 4
#     Node 7, Type 0, BuildingBlock: QUQFOY_clean_sbu_3, # of connection points: 4
#     Node 8, Type 0, BuildingBlock: QUQFOY_clean_sbu_3, # of connection points: 4
#     Node 9, Type 0, BuildingBlock: QUQFOY_clean_sbu_3, # of connection points: 4
#     Node 10, Type 0, BuildingBlock: QUQFOY_clean_sbu_3, # of connection points: 4
#     Node 11, Type 0, BuildingBlock: QUQFOY_clean_sbu_3, # of connection points: 4
#     Node 12, Type 0, BuildingBlock: QUQFOY_clean_sbu_3, # of connection points: 4
#     Node 13, Type 0, BuildingBlock: QUQFOY_clean_sbu_3, # of connection points: 4
#     Node 14, Type 0, BuildingBlock: QUQFOY_clean_sbu_3, # of connection points: 4
#     Node 15, Type 0, BuildingBlock: QUQFOY_clean_sbu_3, # of connection points: 4
#     Node 16, Type 0, BuildingBlock: QUQFOY_clean_sbu_3, # of connection points: 4
#     Node 17, Type 0, BuildingBlock: QUQFOY_clean_sbu_3, # of connection points: 4
#     Node 18, Type 0, BuildingBlock: QUQFOY_clean_sbu_3, # of connection points: 4
#     Node 19, Type 0, BuildingBlock: QUQFOY_clean_sbu_3, # of connection points: 4
#     Node 20, Type 0, BuildingBlock: QUQFOY_clean_sbu_3, # of connection points: 4
#     Node 21, Type 0, BuildingBlock: QUQFOY_clean_sbu_3, # of connection points: 4
#     Node 22, Type 0, BuildingBlock: QUQFOY_clean_sbu_3, # of connection points: 4
#     Node 23, Type 0, BuildingBlock: QUQFOY_clean_sbu_3, # of connection points: 4
#     Node 24, Type 0, BuildingBlock: QUQFOY_clean_sbu_3, # of connection points: 4
#     Node 25, Type 0, BuildingBlock: QUQFOY_clean_sbu_3, # of connection points: 4
#     Node 26, Type 0, BuildingBlock: QUQFOY_clean_sbu_3, # of connection points: 4
#     Node 27, Type 0, BuildingBlock: QUQFOY_clean_sbu_3, # of connection points: 4
#     Node 28, Type 0, BuildingBlock: QUQFOY_clean_sbu_3, # of connection points: 4
#     Node 29, Type 0, BuildingBlock: QUQFOY_clean_sbu_3, # of connection points: 4
#     Node 30, Type 0, BuildingBlock: QUQFOY_clean_sbu_3, # of connection points: 4
#     Node 31, Type 0, BuildingBlock: QUQFOY_clean_sbu_3, # of connection points: 4
#     Node 32, Type 0, BuildingBlock: QUQFOY_clean_sbu_3, # of connection points: 4
#     Node 33, Type 0, BuildingBlock: QUQFOY_clean_sbu_3, # of connection points: 4
#     Node 34, Type 0, BuildingBlock: QUQFOY_clean_sbu_3, # of connection points: 4
#     Node 35, Type 0, BuildingBlock: QUQFOY_clean_sbu_3, # of connection points: 4
#     Node 36, Type 0, BuildingBlock: QUQFOY_clean_sbu_3, # of connection points: 4
#     Node 37, Type 0, BuildingBlock: QUQFOY_clean_sbu_3, # of connection points: 4
#     Node 38, Type 0, BuildingBlock: QUQFOY_clean_sbu_3, # of connection points: 4
#     Node 39, Type 0, BuildingBlock: QUQFOY_clean_sbu_3, # of connection points: 4
#     Node 40, Type 0, BuildingBlock: QUQFOY_clean_sbu_3, # of connection points: 4
#     Node 41, Type 0, BuildingBlock: QUQFOY_clean_sbu_3, # of connection points: 4
#     Node 42, Type 0, BuildingBlock: QUQFOY_clean_sbu_3, # of connection points: 4
#     Node 43, Type 0, BuildingBlock: QUQFOY_clean_sbu_3, # of connection points: 4
#     Node 44, Type 0, BuildingBlock: QUQFOY_clean_sbu_3, # of connection points: 4
#     Node 45, Type 0, BuildingBlock: QUQFOY_clean_sbu_3, # of connection points: 4
#     Node 46, Type 0, BuildingBlock: QUQFOY_clean_sbu_3, # of connection points: 4
#     Node 47, Type 0, BuildingBlock: QUQFOY_clean_sbu_3, # of connection points: 4
#     Edge 48, Type (0, 0), BuildingBlock: XUDNAN_clean_linker_2, # of connection points: 2
#     Edge 49, Type (0, 0), BuildingBlock: XUDNAN_clean_linker_2, # of connection points: 2
#     Edge 50, Type (0, 0), BuildingBlock: XUDNAN_clean_linker_2, # of connection points: 2
#     Edge 51, Type (0, 0), BuildingBlock: XUDNAN_clean_linker_2, # of connection points: 2
#     Edge 52, Type (0, 0), BuildingBlock: XUDNAN_clean_linker_2, # of connection points: 2
#     Edge 53, Type (0, 0), BuildingBlock: XUDNAN_clean_linker_2, # of connection points: 2
#     Edge 54, Type (0, 0), BuildingBlock: XUDNAN_clean_linker_2, # of connection points: 2
#     Edge 55, Type (0, 0), BuildingBlock: XUDNAN_clean_linker_2, # of connection points: 2
#     Edge 56, Type (0, 0), BuildingBlock: XUDNAN_clean_linker_2, # of connection points: 2
#     Edge 57, Type (0, 0), BuildingBlock: XUDNAN_clean_linker_2, # of connection points: 2
#     Edge 58, Type (0, 0), BuildingBlock: XUDNAN_clean_linker_2, # of connection points: 2
#     Edge 59, Type (0, 0), BuildingBlock: XUDNAN_clean_linker_2, # of connection points: 2
#     Edge 60, Type (0, 0), BuildingBlock: XUDNAN_clean_linker_2, # of connection points: 2
#     Edge 61, Type (0, 0), BuildingBlock: XUDNAN_clean_linker_2, # of connection points: 2
#     Edge 62, Type (0, 0), BuildingBlock: XUDNAN_clean_linker_2, # of connection points: 2
#     Edge 63, Type (0, 0), BuildingBlock: XUDNAN_clean_linker_2, # of connection points: 2
#     Edge 64, Type (0, 0), BuildingBlock: XUDNAN_clean_linker_2, # of connection points: 2
#     Edge 65, Type (0, 0), BuildingBlock: XUDNAN_clean_linker_2, # of connection points: 2
#     Edge 66, Type (0, 0), BuildingBlock: XUDNAN_clean_linker_2, # of connection points: 2
#     Edge 67, Type (0, 0), BuildingBlock: XUDNAN_clean_linker_2, # of connection points: 2
#     Edge 68, Type (0, 0), BuildingBlock: XUDNAN_clean_linker_2, # of connection points: 2
#     Edge 69, Type (0, 0), BuildingBlock: XUDNAN_clean_linker_2, # of connection points: 2
#     Edge 70, Type (0, 0), BuildingBlock: XUDNAN_clean_linker_2, # of connection points: 2
#     Edge 71, Type (0, 0), BuildingBlock: XUDNAN_clean_linker_2, # of connection points: 2
#     Edge 72, Type (0, 0), BuildingBlock: XUDNAN_clean_linker_2, # of connection points: 2
#     Edge 73, Type (0, 0), BuildingBlock: XUDNAN_clean_linker_2, # of connection points: 2
#     Edge 74, Type (0, 0), BuildingBlock: XUDNAN_clean_linker_2, # of connection points: 2
#     Edge 75, Type (0, 0), BuildingBlock: XUDNAN_clean_linker_2, # of connection points: 2
#     Edge 76, Type (0, 0), BuildingBlock: XUDNAN_clean_linker_2, # of connection points: 2
#     Edge 77, Type (0, 0), BuildingBlock: XUDNAN_clean_linker_2, # of connection points: 2
#     Edge 78, Type (0, 0), BuildingBlock: XUDNAN_clean_linker_2, # of connection points: 2
#     Edge 79, Type (0, 0), BuildingBlock: XUDNAN_clean_linker_2, # of connection points: 2
#     Edge 80, Type (0, 0), BuildingBlock: XUDNAN_clean_linker_2, # of connection points: 2
#     Edge 81, Type (0, 0), BuildingBlock: XUDNAN_clean_linker_2, # of connection points: 2
#     Edge 82, Type (0, 0), BuildingBlock: XUDNAN_clean_linker_2, # of connection points: 2
#     Edge 83, Type (0, 0), BuildingBlock: XUDNAN_clean_linker_2, # of connection points: 2
#     Edge 84, Type (0, 0), BuildingBlock: XUDNAN_clean_linker_2, # of connection points: 2
#     Edge 85, Type (0, 0), BuildingBlock: XUDNAN_clean_linker_2, # of connection points: 2
#     Edge 86, Type (0, 0), BuildingBlock: XUDNAN_clean_linker_2, # of connection points: 2
#     Edge 87, Type (0, 0), BuildingBlock: XUDNAN_clean_linker_2, # of connection points: 2
#     Edge 88, Type (0, 0), BuildingBlock: XUDNAN_clean_linker_2, # of connection points: 2
#     Edge 89, Type (0, 0), BuildingBlock: XUDNAN_clean_linker_2, # of connection points: 2
#     Edge 90, Type (0, 0), BuildingBlock: XUDNAN_clean_linker_2, # of connection points: 2
#     Edge 91, Type (0, 0), BuildingBlock: XUDNAN_clean_linker_2, # of connection points: 2
#     Edge 92, Type (0, 0), BuildingBlock: XUDNAN_clean_linker_2, # of connection points: 2
#     Edge 93, Type (0, 0), BuildingBlock: XUDNAN_clean_linker_2, # of connection points: 2
#     Edge 94, Type (0, 0), BuildingBlock: XUDNAN_clean_linker_2, # of connection points: 2
#     Edge 95, Type (0, 0), BuildingBlock: XUDNAN_clean_linker_2, # of connection points: 2
#     Edge 96, Type (0, 0), BuildingBlock: XUDNAN_clean_linker_2, # of connection points: 2
#     Edge 97, Type (0, 0), BuildingBlock: XUDNAN_clean_linker_2, # of connection points: 2
#     Edge 98, Type (0, 0), BuildingBlock: XUDNAN_clean_linker_2, # of connection points: 2
#     Edge 99, Type (0, 0), BuildingBlock: XUDNAN_clean_linker_2, # of connection points: 2
#     Edge 100, Type (0, 0), BuildingBlock: XUDNAN_clean_linker_2, # of connection points: 2
#     Edge 101, Type (0, 0), BuildingBlock: XUDNAN_clean_linker_2, # of connection points: 2
#     Edge 102, Type (0, 0), BuildingBlock: XUDNAN_clean_linker_2, # of connection points: 2
#     Edge 103, Type (0, 0), BuildingBlock: XUDNAN_clean_linker_2, # of connection points: 2
#     Edge 104, Type (0, 0), BuildingBlock: XUDNAN_clean_linker_2, # of connection points: 2
#     Edge 105, Type (0, 0), BuildingBlock: XUDNAN_clean_linker_2, # of connection points: 2
#     Edge 106, Type (0, 0), BuildingBlock: XUDNAN_clean_linker_2, # of connection points: 2
#     Edge 107, Type (0, 0), BuildingBlock: XUDNAN_clean_linker_2, # of connection points: 2
#     Edge 108, Type (0, 0), BuildingBlock: XUDNAN_clean_linker_2, # of connection points: 2
#     Edge 109, Type (0, 0), BuildingBlock: XUDNAN_clean_linker_2, # of connection points: 2
#     Edge 110, Type (0, 0), BuildingBlock: XUDNAN_clean_linker_2, # of connection points: 2
#     Edge 111, Type (0, 0), BuildingBlock: XUDNAN_clean_linker_2, # of connection points: 2
#     Edge 112, Type (0, 0), BuildingBlock: XUDNAN_clean_linker_2, # of connection points: 2
#     Edge 113, Type (0, 0), BuildingBlock: XUDNAN_clean_linker_2, # of connection points: 2
#     Edge 114, Type (0, 0), BuildingBlock: XUDNAN_clean_linker_2, # of connection points: 2
#     Edge 115, Type (0, 0), BuildingBlock: XUDNAN_clean_linker_2, # of connection points: 2
#     Edge 116, Type (0, 0), BuildingBlock: XUDNAN_clean_linker_2, # of connection points: 2
#     Edge 117, Type (0, 0), BuildingBlock: XUDNAN_clean_linker_2, # of connection points: 2
#     Edge 118, Type (0, 0), BuildingBlock: XUDNAN_clean_linker_2, # of connection points: 2
#     Edge 119, Type (0, 0), BuildingBlock: XUDNAN_clean_linker_2, # of connection points: 2
#     Edge 120, Type (0, 0), BuildingBlock: XUDNAN_clean_linker_2, # of connection points: 2
#     Edge 121, Type (0, 0), BuildingBlock: XUDNAN_clean_linker_2, # of connection points: 2
#     Edge 122, Type (0, 0), BuildingBlock: XUDNAN_clean_linker_2, # of connection points: 2
#     Edge 123, Type (0, 0), BuildingBlock: XUDNAN_clean_linker_2, # of connection points: 2
#     Edge 124, Type (0, 0), BuildingBlock: XUDNAN_clean_linker_2, # of connection points: 2
#     Edge 125, Type (0, 0), BuildingBlock: XUDNAN_clean_linker_2, # of connection points: 2
#     Edge 126, Type (0, 0), BuildingBlock: XUDNAN_clean_linker_2, # of connection points: 2
#     Edge 127, Type (0, 0), BuildingBlock: XUDNAN_clean_linker_2, # of connection points: 2
#     Edge 128, Type (0, 0), BuildingBlock: XUDNAN_clean_linker_2, # of connection points: 2
#     Edge 129, Type (0, 0), BuildingBlock: XUDNAN_clean_linker_2, # of connection points: 2
#     Edge 130, Type (0, 0), BuildingBlock: XUDNAN_clean_linker_2, # of connection points: 2
#     Edge 131, Type (0, 0), BuildingBlock: XUDNAN_clean_linker_2, # of connection points: 2
#     Edge 132, Type (0, 0), BuildingBlock: XUDNAN_clean_linker_2, # of connection points: 2
#     Edge 133, Type (0, 0), BuildingBlock: XUDNAN_clean_linker_2, # of connection points: 2
#     Edge 134, Type (0, 0), BuildingBlock: XUDNAN_clean_linker_2, # of connection points: 2
#     Edge 135, Type (0, 0), BuildingBlock: XUDNAN_clean_linker_2, # of connection points: 2
#     Edge 136, Type (0, 0), BuildingBlock: XUDNAN_clean_linker_2, # of connection points: 2
#     Edge 137, Type (0, 0), BuildingBlock: XUDNAN_clean_linker_2, # of connection points: 2
#     Edge 138, Type (0, 0), BuildingBlock: XUDNAN_clean_linker_2, # of connection points: 2
#     Edge 139, Type (0, 0), BuildingBlock: XUDNAN_clean_linker_2, # of connection points: 2
#     Edge 140, Type (0, 0), BuildingBlock: XUDNAN_clean_linker_2, # of connection points: 2
#     Edge 141, Type (0, 0), BuildingBlock: XUDNAN_clean_linker_2, # of connection points: 2
#     Edge 142, Type (0, 0), BuildingBlock: XUDNAN_clean_linker_2, # of connection points: 2
#     Edge 143, Type (0, 0), BuildingBlock: XUDNAN_clean_linker_2, # of connection points: 2
# Relax obj value: 0.073
# Max RMSD: 0.094
# Mean RMSD: 0.088
data_MOF--net-rho--node1-QUQFOY_clean_sbu_3--edge1-XUDNAN_clean_linker_2
_symmetry_space_group_name_H-M    P1
_symmetry_Int_Tables_number       1
_symmetry_cell_setting            triclinic
loop_
_symmetry_equiv_pos_as_xyz
'x, y, z'
_cell_length_a     73.309076
_cell_length_b     73.549223
_cell_length_c     73.542327
_cell_angle_alpha  90.17225
_cell_angle_beta   90.220974
_cell_angle_gamma 90.933111
loop_
_atom_site_label
_atom_site_type_symbol
_atom_site_fract_x
_atom_site_fract_y
_atom_site_fract_z
_atom_type_partial_charge
C0 C 0.10073 0.19742 0.37583 0.0
O1 O 0.08573 0.19258 0.38309 0.0
Cd2 Cd 0.06534 0.21302 0.3979 0.0
O3 O 0.10563 0.21413 0.37558 0.0
Cd4 Cd 0.09298 0.24337 0.38611 0.0
C5 C 0.09386 0.23076 0.43029 0.0
O6 O 0.06087 0.23826 0.37778 0.0
O7 O 0.06681 0.26139 0.39499 0.0
O8 O 0.10477 0.26051 0.36008 0.0
C9 C 0.05529 0.2526 0.38541 0.0
O10 O 0.07946 0.22131 0.42719 0.0
C11 C 0.11284 0.27256 0.36975 0.0
O12 O 0.10199 0.23899 0.41741 0.0
O13 O 0.11246 0.27032 0.38684 0.0
C14 C 0.79274 0.0982 0.38854 0.0
O15 O 0.79744 0.08254 0.39382 0.0
Cd16 Cd 0.77675 0.06058 0.40585 0.0
O17 O 0.776 0.10268 0.38835 0.0
Cd18 Cd 0.74563 0.08756 0.39377 0.0
C19 C 0.75431 0.08595 0.43859 0.0
O20 O 0.75403 0.05768 0.38286 0.0
O21 O 0.72897 0.05837 0.39796 0.0
O22 O 0.73766 0.10175 0.36513 0.0
C23 C 0.73987 0.04932 0.3883 0.0
O24 O 0.76513 0.07326 0.43428 0.0
C25 C 0.72162 0.10607 0.36962 0.0
O26 O 0.7457 0.0946 0.42636 0.0
O27 O 0.7168 0.10246 0.38581 0.0
C28 C 0.87023 0.7908 0.361 0.0
O29 O 0.88585 0.79849 0.36159 0.0
Cd30 Cd 0.91193 0.78381 0.37389 0.0
O31 O 0.86823 0.77415 0.36548 0.0
Cd32 Cd 0.88692 0.74767 0.37438 0.0
C33 C 0.894 0.76818 0.41476 0.0
O34 O 0.91451 0.75581 0.35797 0.0
O35 O 0.91741 0.73479 0.37806 0.0
O36 O 0.87116 0.73117 0.3505 0.0
C37 C 0.92463 0.74424 0.36553 0.0
O38 O 0.90442 0.77901 0.40596 0.0
C39 C 0.86684 0.71738 0.35998 0.0
O40 O 0.88513 0.7555 0.40664 0.0
O41 O 0.87139 0.71781 0.37668 0.0
C42 C 0.20547 0.88778 0.37762 0.0
O43 O 0.19927 0.90309 0.38236 0.0
Cd44 Cd 0.21988 0.92688 0.39292 0.0
O45 O 0.22258 0.8854 0.37682 0.0
Cd46 Cd 0.25218 0.90097 0.38004 0.0
C47 C 0.24393 0.90179 0.42478 0.0
O48 O 0.24433 0.93245 0.37207 0.0
O49 O 0.27043 0.92787 0.38499 0.0
O50 O 0.25644 0.88816 0.35031 0.0
C51 C 0.25942 0.93898 0.37797 0.0
O52 O 0.23262 0.91406 0.42052 0.0
C53 C 0.27231 0.88215 0.35313 0.0
O54 O 0.25288 0.89345 0.41255 0.0
O55 O 0.27909 0.8846 0.36892 0.0
C56 C 0.11424 0.78697 0.61498 0.0
O57 O 0.09931 0.7944 0.61072 0.0
Cd58 Cd 0.0723 0.77809 0.60133 0.0
O59 O 0.11546 0.76971 0.61527 0.0
Cd60 Cd 0.09584 0.74245 0.61036 0.0
C61 C 0.09071 0.75329 0.56605 0.0
O62 O 0.06738 0.75407 0.62247 0.0
O63 O 0.06534 0.72913 0.60708 0.0
O64 O 0.10867 0.72948 0.63769 0.0
C65 C 0.05743 0.7411 0.6165 0.0
O66 O 0.07992 0.76554 0.57157 0.0
C67 C 0.11341 0.71462 0.63043 0.0
O68 O 0.09937 0.74348 0.57733 0.0
O69 O 0.11037 0.71278 0.61349 0.0
C70 C 0.30144 0.11888 0.61456 0.0
O71 O 0.30837 0.1136 0.5997 0.0
Cd72 Cd 0.29079 0.10182 0.57481 0.0
O73 O 0.28416 0.11897 0.6166 0.0
Cd74 Cd 0.25667 0.11209 0.59748 0.0
C75 C 0.26716 0.06757 0.59616 0.0
O76 O 0.26814 0.12429 0.56888 0.0
O77 O 0.2438 0.10764 0.5667 0.0
O78 O 0.24124 0.13842 0.61007 0.0
C79 C 0.25504 0.11844 0.55912 0.0
O80 O 0.27925 0.07175 0.58444 0.0
C81 C 0.22664 0.12984 0.61413 0.0
O82 O 0.25774 0.07984 0.60365 0.0
O83 O 0.22627 0.11286 0.61099 0.0
C84 C 0.88364 0.1992 0.62301 0.0
O85 O 0.899 0.19173 0.62106 0.0
Cd86 Cd 0.92391 0.20734 0.60604 0.0
O87 O 0.88144 0.21554 0.61799 0.0
Cd88 Cd 0.89879 0.2411 0.60486 0.0
C89 C 0.9032 0.21806 0.56553 0.0
O90 O 0.92955 0.23726 0.61844 0.0
O91 O 0.92644 0.25689 0.59676 0.0
O92 O 0.88541 0.25999 0.62806 0.0
C93 C 0.93658 0.24976 0.60867 0.0
O94 O 0.91469 0.20863 0.57428 0.0
C95 C 0.87835 0.27127 0.61718 0.0
O96 O 0.89449 0.23066 0.57341 0.0
O97 O 0.88049 0.26833 0.60029 0.0
C98 C 0.69124 0.8751 0.61946 0.0
O99 O 0.68393 0.88148 0.60521 0.0
Cd100 Cd 0.70179 0.89183 0.58014 0.0
O101 O 0.7085 0.87356 0.62055 0.0
Cd102 Cd 0.73603 0.87864 0.60167 0.0
C103 C 0.72889 0.92373 0.60198 0.0
O104 O 0.7221 0.8673 0.57392 0.0
O105 O 0.74814 0.88088 0.57047 0.0
O106 O 0.74538 0.85066 0.61595 0.0
C107 C 0.73534 0.87127 0.56361 0.0
O108 O 0.71608 0.92035 0.59066 0.0
C109 C 0.76198 0.85531 0.61808 0.0
O110 O 0.738 0.91087 0.60888 0.0
O111 O 0.76657 0.87125 0.61303 0.0
C112 C 0.37127 0.1234 0.27152 0.0
O113 O 0.38603 0.12184 0.28044 0.0
Cd114 Cd 0.41404 0.11098 0.26873 0.0
O115 O 0.3707 0.11989 0.25452 0.0
Cd116 Cd 0.39286 0.11083 0.23054 0.0
C117 C 0.3984 0.07016 0.25091 0.0
O118 O 0.41908 0.12825 0.24185 0.0
O119 O 0.425 0.10878 0.22097 0.0
O120 O 0.3788 0.13221 0.20979 0.0
C121 C 0.43074 0.12144 0.23131 0.0
O122 O 0.40806 0.07867 0.2627 0.0
C123 C 0.37689 0.121 0.19673 0.0
O124 O 0.39053 0.07867 0.23812 0.0
O125 O 0.38194 0.10482 0.19958 0.0
C126 C 0.86893 0.36979 0.21702 0.0
O127 O 0.88395 0.37393 0.20943 0.0
Cd128 Cd 0.90998 0.38399 0.22681 0.0
O129 O 0.86755 0.37007 0.23428 0.0
Cd130 Cd 0.88554 0.37551 0.2623 0.0
C131 C 0.89014 0.41953 0.2502 0.0
O132 O 0.91379 0.36272 0.25097 0.0
O133 O 0.91592 0.37763 0.27618 0.0
O134 O 0.86787 0.3494 0.27255 0.0
C135 C 0.9237 0.36819 0.26412 0.0
O136 O 0.90134 0.41389 0.23832 0.0
C137 C 0.86505 0.35529 0.28851 0.0
O138 O 0.88149 0.40837 0.26036 0.0
O139 O 0.87171 0.37087 0.29247 0.0
C140 C 0.59463 0.87887 0.28584 0.0
O141 O 0.5789 0.88474 0.28962 0.0
Cd142 Cd 0.55808 0.89737 0.26852 0.0
O143 O 0.60055 0.87907 0.26955 0.0
Cd144 Cd 0.58787 0.88743 0.23922 0.0
C145 C 0.58402 0.932 0.25008 0.0
O146 O 0.55763 0.87504 0.24492 0.0
O147 O 0.55989 0.8912 0.22071 0.0
O148 O 0.60225 0.86101 0.22561 0.0
C149 C 0.55026 0.88065 0.23048 0.0
O150 O 0.57026 0.92734 0.25962 0.0
C151 C 0.60976 0.86978 0.21274 0.0
O152 O 0.59344 0.92004 0.24206 0.0
O153 O 0.60765 0.88687 0.21263 0.0
C154 C 0.10992 0.61971 0.20757 0.0
O155 O 0.09472 0.61615 0.19995 0.0
Cd156 Cd 0.07054 0.60162 0.21705 0.0
O157 O 0.11217 0.6166 0.22443 0.0
Cd158 Cd 0.09588 0.60562 0.25149 0.0
C159 C 0.0936 0.5641 0.23253 0.0
O160 O 0.06475 0.61655 0.24562 0.0
O161 O 0.06851 0.59703 0.26727 0.0
O162 O 0.1084 0.63247 0.26595 0.0
C163 C 0.05796 0.60755 0.25878 0.0
O164 O 0.08178 0.57115 0.22208 0.0
C165 C 0.11479 0.62456 0.27984 0.0
O166 O 0.10192 0.57364 0.24456 0.0
O167 O 0.11295 0.60734 0.28042 0.0
C168 C 0.38103 0.87157 0.71 0.0
O169 O 0.3971 0.87746 0.70694 0.0
Cd170 Cd 0.4164 0.8905 0.72996 0.0
O171 O 0.37473 0.87119 0.72614 0.0
Cd172 Cd 0.38485 0.87773 0.7578 0.0
C173 C 0.38675 0.92225 0.74725 0.0
O174 O 0.41649 0.86882 0.75403 0.0
O175 O 0.41037 0.88313 0.77879 0.0
O176 O 0.36801 0.85019 0.7661 0.0
C177 C 0.42201 0.87492 0.76925 0.0
O178 O 0.40133 0.91884 0.73857 0.0
C179 C 0.36157 0.85666 0.78071 0.0
O180 O 0.37756 0.90956 0.75481 0.0
O181 O 0.36554 0.87312 0.78444 0.0
C182 C 0.08318 0.37778 0.78658 0.0
O183 O 0.06673 0.38262 0.78832 0.0
Cd184 Cd 0.04945 0.39627 0.76436 0.0
O185 O 0.0911 0.37878 0.77122 0.0
Cd186 Cd 0.08432 0.38663 0.73926 0.0
C187 C 0.08005 0.43044 0.75189 0.0
O188 O 0.05226 0.37704 0.73847 0.0
O189 O 0.06202 0.39243 0.71548 0.0
O190 O 0.10039 0.35898 0.73214 0.0
C191 C 0.04893 0.384 0.72307 0.0
O192 O 0.06491 0.42545 0.7589 0.0
C193 C 0.10955 0.3657 0.71911 0.0
O194 O 0.09053 0.41892 0.74451 0.0
O195 O 0.10744 0.38247 0.71575 0.0
C196 C 0.60284 0.11366 0.71151 0.0
O197 O 0.58658 0.11111 0.706 0.0
Cd198 Cd 0.56567 0.09377 0.72425 0.0
O199 O 0.60718 0.10978 0.72783 0.0
Cd200 Cd 0.59217 0.09995 0.75662 0.0
C201 C 0.59345 0.05863 0.73833 0.0
O202 O 0.55968 0.10821 0.75277 0.0
O203 O 0.56626 0.0881 0.77306 0.0
O204 O 0.60315 0.12805 0.77028 0.0
C205 C 0.55439 0.09812 0.7658 0.0
O206 O 0.58086 0.06473 0.72816 0.0
C207 C 0.61014 0.12089 0.7843 0.0
O208 O 0.60095 0.06859 0.75052 0.0
O209 O 0.60948 0.10363 0.78523 0.0
C210 C 0.86519 0.62021 0.77542 0.0
O211 O 0.8792 0.61422 0.7835 0.0
Cd212 Cd 0.90591 0.6028 0.76956 0.0
O213 O 0.86448 0.62085 0.75809 0.0
Cd214 Cd 0.88593 0.613 0.7331 0.0
C215 C 0.88584 0.56851 0.74525 0.0
O216 O 0.9131 0.62563 0.74747 0.0
O217 O 0.91818 0.60936 0.72376 0.0
O218 O 0.87504 0.63773 0.71387 0.0
C219 C 0.92439 0.62015 0.73583 0.0
O220 O 0.89716 0.5725 0.75787 0.0
C221 C 0.87226 0.62764 0.70003 0.0
O222 O 0.87918 0.58088 0.73535 0.0
O223 O 0.87532 0.61082 0.70189 0.0
C224 C 0.19981 0.3758 0.12408 0.0
O225 O 0.19071 0.38169 0.11068 0.0
Cd226 Cd 0.2058 0.39162 0.08362 0.0
O227 O 0.21706 0.37427 0.12299 0.0
Cd228 Cd 0.24244 0.3779 0.10122 0.0
C229 C 0.23623 0.4231 0.10204 0.0
O230 O 0.22508 0.36693 0.07526 0.0
O231 O 0.25126 0.3791 0.06892 0.0
O232 O 0.25091 0.34955 0.11501 0.0
C233 C 0.23722 0.37035 0.06349 0.0
O234 O 0.22195 0.41969 0.09262 0.0
C235 C 0.26788 0.35302 0.11595 0.0
O236 O 0.24616 0.41026 0.10774 0.0
O237 O 0.27326 0.3685 0.11026 0.0
C238 C 0.29082 0.60277 0.88196 0.0
O239 O 0.29835 0.58857 0.88799 0.0
Cd240 Cd 0.28145 0.56372 0.90122 0.0
O241 O 0.27354 0.60421 0.88239 0.0
Cd242 Cd 0.24672 0.58599 0.89208 0.0
C243 C 0.26001 0.58566 0.93605 0.0
O244 O 0.25617 0.55598 0.88161 0.0
O245 O 0.23301 0.55655 0.89961 0.0
O246 O 0.22944 0.59588 0.86556 0.0
C247 C 0.24319 0.5474 0.88928 0.0
O248 O 0.27162 0.57387 0.93129 0.0
C249 C 0.21636 0.60235 0.87466 0.0
O250 O 0.24999 0.59326 0.92424 0.0
O251 O 0.21764 0.60154 0.89185 0.0
C252 C 0.3629 0.29782 0.86134 0.0
O253 O 0.37757 0.30712 0.86282 0.0
Cd254 Cd 0.40501 0.29502 0.87552 0.0
O255 O 0.36257 0.28099 0.86536 0.0
Cd256 Cd 0.38431 0.25743 0.8749 0.0
C257 C 0.38948 0.27721 0.91596 0.0
O258 O 0.41204 0.26776 0.85925 0.0
O259 O 0.41544 0.24743 0.88004 0.0
O260 O 0.37251 0.23655 0.85191 0.0
C261 C 0.4225 0.25688 0.86743 0.0
O262 O 0.39906 0.28927 0.90783 0.0
C263 C 0.36804 0.22407 0.863 0.0
O264 O 0.38165 0.26441 0.90707 0.0
O265 O 0.37074 0.22731 0.87978 0.0
C266 C 0.7153 0.38065 0.87698 0.0
O267 O 0.70885 0.39601 0.88121 0.0
Cd268 Cd 0.72718 0.41958 0.89518 0.0
O269 O 0.73235 0.37789 0.87824 0.0
Cd270 Cd 0.76116 0.39428 0.88552 0.0
C271 C 0.74753 0.39363 0.92895 0.0
O272 O 0.75363 0.42573 0.87744 0.0
O273 O 0.77763 0.42176 0.89402 0.0
O274 O 0.77174 0.38399 0.85635 0.0
C275 C 0.76741 0.43265 0.88559 0.0
O276 O 0.73657 0.40586 0.92375 0.0
C277 C 0.78664 0.37744 0.86197 0.0
O278 O 0.7581 0.38593 0.91766 0.0
O279 O 0.78967 0.3782 0.879 0.0
C280 C 0.60039 0.69021 0.87664 0.0
O281 O 0.58527 0.6863 0.88414 0.0
Cd282 Cd 0.56611 0.70829 0.89826 0.0
O283 O 0.60605 0.70668 0.8758 0.0
Cd284 Cd 0.59522 0.73715 0.88496 0.0
C285 C 0.59581 0.72618 0.92972 0.0
O286 O 0.56308 0.73257 0.87673 0.0
O287 O 0.56967 0.7569 0.89197 0.0
O288 O 0.60797 0.75091 0.85752 0.0
C289 C 0.55792 0.74765 0.8831 0.0
O290 O 0.58119 0.71699 0.92694 0.0
C291 C 0.61639 0.76371 0.86583 0.0
O292 O 0.60406 0.7339 0.9166 0.0
O293 O 0.61569 0.76356 0.88307 0.0
C294 C 0.79305 0.61816 0.10884 0.0
O295 O 0.79737 0.6177 0.09216 0.0
Cd296 Cd 0.77695 0.60723 0.06934 0.0
O297 O 0.77665 0.61489 0.11379 0.0
Cd298 Cd 0.74597 0.60937 0.09928 0.0
C299 C 0.7608 0.56773 0.09066 0.0
O300 O 0.75145 0.62649 0.07166 0.0
O301 O 0.72902 0.60741 0.07011 0.0
O302 O 0.73695 0.63358 0.11949 0.0
C303 C 0.73806 0.62016 0.06265 0.0
O304 O 0.77051 0.57595 0.07881 0.0
C305 C 0.72103 0.6274 0.12264 0.0
O306 O 0.75013 0.5765 0.10098 0.0
O307 O 0.7168 0.61209 0.1156 0.0
C308 C 0.38099 0.71023 0.11452 0.0
O309 O 0.39664 0.70308 0.11432 0.0
Cd310 Cd 0.42326 0.71818 0.10315 0.0
O311 O 0.37898 0.72674 0.10975 0.0
Cd312 Cd 0.39753 0.75369 0.09987 0.0
C313 C 0.40569 0.73107 0.06108 0.0
O314 O 0.42445 0.74696 0.11783 0.0
O315 O 0.42825 0.7675 0.09744 0.0
O316 O 0.37774 0.76961 0.12067 0.0
C317 C 0.43507 0.75836 0.11029 0.0
O318 O 0.41609 0.72139 0.07089 0.0
C319 C 0.37623 0.78381 0.11107 0.0
O320 O 0.39641 0.74381 0.06805 0.0
O321 O 0.38441 0.78401 0.09587 0.0
C322 C 0.60611 0.28808 0.11273 0.0
O323 O 0.59007 0.29427 0.11175 0.0
Cd324 Cd 0.56517 0.27615 0.10057 0.0
O325 O 0.60922 0.2715 0.10886 0.0
Cd326 Cd 0.59397 0.24233 0.09986 0.0
C327 C 0.58557 0.26227 0.05979 0.0
O328 O 0.56595 0.24801 0.11622 0.0
O329 O 0.56481 0.22584 0.0971 0.0
O330 O 0.61405 0.23192 0.12362 0.0
C331 C 0.5567 0.2352 0.10899 0.0
O332 O 0.5745 0.27157 0.0692 0.0
C333 C 0.61666 0.21622 0.11709 0.0
O334 O 0.59548 0.25022 0.06719 0.0
O335 O 0.60929 0.21259 0.10179 0.0
C336 C 0.87656 0.70131 0.59167 0.0
O337 O 0.88304 0.69668 0.57639 0.0
Cd338 Cd 0.89759 0.71921 0.55744 0.0
O339 O 0.8761 0.718 0.59621 0.0
Cd340 Cd 0.88242 0.74884 0.5848 0.0
C341 C 0.92683 0.7393 0.58904 0.0
O342 O 0.87658 0.74343 0.55231 0.0
O343 O 0.88989 0.76882 0.5597 0.0
O344 O 0.85265 0.75451 0.59752 0.0
C345 C 0.88305 0.75874 0.54735 0.0
O346 O 0.92444 0.72919 0.57509 0.0
C347 C 0.85699 0.76964 0.60482 0.0
O348 O 0.91355 0.74775 0.59605 0.0
O349 O 0.87333 0.77527 0.60284 0.0
C350 C 0.21102 0.87917 0.60903 0.0
O351 O 0.20383 0.8939 0.60393 0.0
Cd352 Cd 0.22062 0.91965 0.59292 0.0
O353 O 0.2283 0.87752 0.6091 0.0
Cd354 Cd 0.25575 0.89645 0.6022 0.0
C355 C 0.24403 0.89916 0.55799 0.0
O356 O 0.24473 0.92512 0.61419 0.0
O357 O 0.26906 0.92702 0.59794 0.0
O358 O 0.27044 0.8842 0.62909 0.0
C359 C 0.25763 0.93492 0.608 0.0
O360 O 0.2321 0.91043 0.56319 0.0
C361 C 0.28484 0.87936 0.621 0.0
O362 O 0.25399 0.89103 0.56951 0.0
O363 O 0.28555 0.88211 0.60397 0.0
C364 C 0.12443 0.28817 0.61775 0.0
O365 O 0.12171 0.29671 0.60304 0.0
Cd366 Cd 0.1066 0.28208 0.57791 0.0
O367 O 0.12057 0.27126 0.61884 0.0
Cd368 Cd 0.10984 0.24517 0.60015 0.0
C369 C 0.06859 0.26407 0.60029 0.0
O370 O 0.12199 0.2546 0.57077 0.0
O371 O 0.10157 0.23308 0.57034 0.0
O372 O 0.137 0.23102 0.6112 0.0
C373 C 0.11296 0.24284 0.56166 0.0
O374 O 0.07606 0.27554 0.58957 0.0
C375 C 0.12959 0.21607 0.61589 0.0
O376 O 0.07777 0.2512 0.60718 0.0
O377 O 0.11239 0.21459 0.61378 0.0
C378 C 0.7846 0.11072 0.62443 0.0
O379 O 0.79137 0.09578 0.61931 0.0
Cd380 Cd 0.7746 0.07022 0.6078 0.0
O381 O 0.76736 0.11293 0.62419 0.0
Cd382 Cd 0.73959 0.09429 0.61626 0.0
C383 C 0.75222 0.09055 0.57208 0.0
O384 O 0.74998 0.06537 0.62818 0.0
O385 O 0.72628 0.06379 0.61088 0.0
O386 O 0.723 0.10509 0.64288 0.0
C387 C 0.73734 0.05567 0.62121 0.0
O388 O 0.76384 0.07913 0.5777 0.0
C389 C 0.70934 0.11078 0.63403 0.0
O390 O 0.74225 0.09908 0.58329 0.0
O391 O 0.71005 0.10943 0.61683 0.0
C392 C 0.88281 0.19593 0.37935 0.0
O393 O 0.89991 0.19344 0.37929 0.0
Cd394 Cd 0.92138 0.21434 0.39223 0.0
O395 O 0.87632 0.2111 0.38447 0.0
Cd396 Cd 0.88694 0.2423 0.39371 0.0
C397 C 0.89821 0.22258 0.43302 0.0
O398 O 0.91583 0.24232 0.37783 0.0
O399 O 0.91282 0.26361 0.39762 0.0
O400 O 0.86596 0.25136 0.37015 0.0
C401 C 0.92264 0.25623 0.38564 0.0
O402 O 0.91087 0.2155 0.42365 0.0
C403 C 0.86085 0.26582 0.37793 0.0
O404 O 0.8867 0.23322 0.42579 0.0
O405 O 0.86705 0.26897 0.39381 0.0
C406 C 0.6836 0.86728 0.38181 0.0
O407 O 0.67888 0.87301 0.39737 0.0
Cd408 Cd 0.69887 0.88356 0.42071 0.0
O409 O 0.7004 0.86631 0.37747 0.0
Cd410 Cd 0.7299 0.87233 0.39357 0.0
C411 C 0.7214 0.9174 0.39807 0.0
O412 O 0.72055 0.85961 0.42221 0.0
O413 O 0.74582 0.87473 0.42356 0.0
O414 O 0.74534 0.84646 0.37968 0.0
C415 C 0.73444 0.86426 0.4314 0.0
O416 O 0.71046 0.91356 0.41096 0.0
C417 C 0.75821 0.85606 0.37299 0.0
O418 O 0.72925 0.90484 0.38934 0.0
O419 O 0.75749 0.87311 0.37547 0.0
C420 C 0.11232 0.79142 0.38456 0.0
O421 O 0.09743 0.79819 0.38987 0.0
Cd422 Cd 0.07109 0.78041 0.39755 0.0
O423 O 0.11396 0.77423 0.38312 0.0
Cd424 Cd 0.09468 0.74647 0.38789 0.0
C425 C 0.08855 0.75541 0.43255 0.0
O426 O 0.06784 0.75872 0.37328 0.0
O427 O 0.06333 0.73354 0.38755 0.0
O428 O 0.10979 0.73258 0.36203 0.0
C429 C 0.05722 0.74551 0.37689 0.0
O430 O 0.0774 0.76752 0.42751 0.0
C431 C 0.11321 0.7177 0.36995 0.0
O432 O 0.09751 0.74647 0.42087 0.0
O433 O 0.10851 0.71639 0.38649 0.0
C434 C 0.28069 0.12524 0.36612 0.0
O435 O 0.29001 0.12501 0.38069 0.0
Cd436 Cd 0.27902 0.11315 0.40869 0.0
O437 O 0.26389 0.12044 0.36617 0.0
Cd438 Cd 0.24031 0.11104 0.38883 0.0
C439 C 0.26239 0.07157 0.3929 0.0
O440 O 0.25143 0.12848 0.41479 0.0
O441 O 0.23178 0.10744 0.42112 0.0
O442 O 0.22061 0.13355 0.37554 0.0
C443 C 0.2416 0.1207 0.42665 0.0
O444 O 0.27415 0.0809 0.40189 0.0
C445 C 0.20686 0.12303 0.37347 0.0
O446 O 0.24852 0.07908 0.38587 0.0
O447 O 0.20879 0.10652 0.37808 0.0
C448 C 0.60133 0.8737 0.71575 0.0
O449 O 0.58538 0.87681 0.70987 0.0
Cd450 Cd 0.56391 0.89178 0.72891 0.0
O451 O 0.6055 0.87685 0.7323 0.0
Cd452 Cd 0.59286 0.88652 0.76178 0.0
C453 C 0.59219 0.92789 0.74291 0.0
O454 O 0.56188 0.87538 0.75684 0.0
O455 O 0.56591 0.8932 0.77992 0.0
O456 O 0.60588 0.85849 0.77152 0.0
C457 C 0.55517 0.88317 0.77061 0.0
O458 O 0.57942 0.92103 0.73316 0.0
C459 C 0.61362 0.8646 0.78577 0.0
O460 O 0.60021 0.91854 0.75503 0.0
O461 O 0.61222 0.88156 0.78891 0.0
C462 C 0.1088 0.6124 0.79854 0.0
O463 O 0.09298 0.60835 0.80437 0.0
Cd464 Cd 0.06822 0.59884 0.78531 0.0
O465 O 0.11215 0.61244 0.78153 0.0
Cd466 Cd 0.09462 0.60764 0.75278 0.0
C467 C 0.08796 0.56336 0.76243 0.0
O468 O 0.06649 0.62169 0.76242 0.0
O469 O 0.06434 0.6056 0.73798 0.0
O470 O 0.10991 0.63393 0.73943 0.0
C471 C 0.05699 0.61667 0.74886 0.0
O472 O 0.07588 0.56863 0.77361 0.0
C473 C 0.11441 0.62597 0.72481 0.0
O474 O 0.09767 0.57485 0.75374 0.0
O475 O 0.1104 0.60915 0.72354 0.0
C476 C 0.36604 0.1078 0.8021 0.0
O477 O 0.36796 0.09241 0.80957 0.0
Cd478 Cd 0.38109 0.06701 0.79448 0.0
O479 O 0.37015 0.11012 0.78542 0.0
Cd480 Cd 0.38086 0.09218 0.75899 0.0
C481 C 0.42166 0.08661 0.77945 0.0
O482 O 0.36538 0.06362 0.76621 0.0
O483 O 0.38633 0.06221 0.7458 0.0
O484 O 0.35735 0.10536 0.73992 0.0
C485 C 0.37373 0.05418 0.75456 0.0
O486 O 0.41315 0.07559 0.78989 0.0
C487 C 0.36812 0.11079 0.72753 0.0
O488 O 0.41316 0.0954 0.76724 0.0
O489 O 0.38502 0.10815 0.73007 0.0
C490 C 0.86313 0.38322 0.68203 0.0
O491 O 0.8653 0.39875 0.67481 0.0
Cd492 Cd 0.87937 0.42381 0.69048 0.0
O493 O 0.86698 0.38079 0.69877 0.0
Cd494 Cd 0.87729 0.39847 0.72588 0.0
C495 C 0.91838 0.40269 0.7059 0.0
O496 O 0.86344 0.4273 0.71845 0.0
O497 O 0.88402 0.42826 0.73947 0.0
O498 O 0.85292 0.38465 0.74355 0.0
C499 C 0.87201 0.43653 0.7304 0.0
O500 O 0.91084 0.41404 0.6953 0.0
C501 C 0.86294 0.37972 0.75671 0.0
O502 O 0.90916 0.39438 0.71804 0.0
O503 O 0.87996 0.38291 0.75525 0.0
C504 C 0.62102 0.11391 0.28383 0.0
O505 O 0.60614 0.1099 0.29175 0.0
Cd506 Cd 0.57886 0.10172 0.2754 0.0
O507 O 0.62184 0.11419 0.26652 0.0
Cd508 Cd 0.60151 0.10951 0.23966 0.0
C509 C 0.59472 0.06541 0.25066 0.0
O510 O 0.57455 0.12415 0.25228 0.0
O511 O 0.57034 0.10858 0.22771 0.0
O512 O 0.61908 0.13489 0.22721 0.0
C513 C 0.56388 0.11924 0.2395 0.0
O514 O 0.58423 0.07138 0.26301 0.0
C515 C 0.61982 0.12874 0.21109 0.0
O516 O 0.60387 0.07635 0.2407 0.0
O517 O 0.61246 0.11324 0.20821 0.0
C518 C 0.88148 0.60419 0.20652 0.0
O519 O 0.89748 0.59874 0.2032 0.0
Cd520 Cd 0.91819 0.5868 0.22493 0.0
O521 O 0.87528 0.60428 0.2227 0.0
Cd522 Cd 0.88738 0.59764 0.25374 0.0
C523 C 0.89182 0.5529 0.24469 0.0
O524 O 0.91828 0.60915 0.24834 0.0
O525 O 0.91438 0.59496 0.27355 0.0
O526 O 0.87228 0.62496 0.26392 0.0
C527 C 0.92495 0.60405 0.26332 0.0
O528 O 0.90554 0.55762 0.23511 0.0
C529 C 0.86547 0.61802 0.2782 0.0
O530 O 0.88198 0.56481 0.2523 0.0
O531 O 0.86809 0.60118 0.28071 0.0
C532 C 0.3662 0.89165 0.18007 0.0
O533 O 0.37448 0.90572 0.17421 0.0
Cd534 Cd 0.39015 0.92629 0.19497 0.0
O535 O 0.36566 0.88838 0.19703 0.0
Cd536 Cd 0.37594 0.90106 0.22625 0.0
C537 C 0.41976 0.89609 0.21386 0.0
O538 O 0.37188 0.93397 0.22109 0.0
O539 O 0.38731 0.9257 0.2447 0.0
O540 O 0.34639 0.89057 0.2371 0.0
C541 C 0.38018 0.93842 0.23571 0.0
O542 O 0.41748 0.91013 0.20406 0.0
C543 C 0.35236 0.88337 0.25157 0.0
O544 O 0.40646 0.88897 0.22255 0.0
O545 O 0.36948 0.88415 0.25426 0.0
C546 C 0.10929 0.38327 0.30161 0.0
O547 O 0.10343 0.3981 0.308 0.0
Cd548 Cd 0.08734 0.41828 0.28798 0.0
O549 O 0.10829 0.38006 0.28465 0.0
Cd550 Cd 0.09953 0.39492 0.25625 0.0
C551 C 0.0557 0.38953 0.26789 0.0
O552 O 0.10648 0.42737 0.26285 0.0
O553 O 0.09012 0.42087 0.23907 0.0
O554 O 0.12895 0.38473 0.2458 0.0
C555 C 0.0989 0.43269 0.24827 0.0
O556 O 0.05889 0.40263 0.27889 0.0
C557 C 0.12316 0.37846 0.23072 0.0
O558 O 0.06847 0.3831 0.25826 0.0
O559 O 0.10614 0.37942 0.22763 0.0
C560 C 0.77718 0.61943 0.87269 0.0
O561 O 0.78594 0.61976 0.88762 0.0
Cd562 Cd 0.77379 0.6082 0.91538 0.0
O563 O 0.76066 0.6138 0.87213 0.0
Cd564 Cd 0.73658 0.60303 0.89341 0.0
C565 C 0.76081 0.56518 0.90027 0.0
O566 O 0.74496 0.62215 0.91925 0.0
O567 O 0.726 0.60021 0.92496 0.0
O568 O 0.7174 0.62415 0.87764 0.0
C569 C 0.73445 0.61435 0.93053 0.0
O570 O 0.77125 0.5755 0.90977 0.0
C571 C 0.70382 0.61341 0.87562 0.0
O572 O 0.7471 0.5716 0.8919 0.0
O573 O 0.70565 0.59723 0.88132 0.0
C574 C 0.69982 0.38319 0.11136 0.0
O575 O 0.69338 0.39791 0.10532 0.0
Cd576 Cd 0.71359 0.42047 0.09208 0.0
O577 O 0.71697 0.38094 0.1118 0.0
Cd578 Cd 0.74584 0.397 0.10565 0.0
C579 C 0.73685 0.39407 0.06115 0.0
O580 O 0.73836 0.42923 0.11198 0.0
O581 O 0.7632 0.4235 0.09742 0.0
O582 O 0.75422 0.38661 0.13566 0.0
C583 C 0.75307 0.43515 0.10483 0.0
O584 O 0.72543 0.4065 0.06452 0.0
C585 C 0.76956 0.38033 0.13108 0.0
O586 O 0.74594 0.38684 0.07395 0.0
O587 O 0.77395 0.3816 0.11443 0.0
C588 C 0.62022 0.79063 0.10974 0.0
O589 O 0.61568 0.79616 0.09406 0.0
Cd590 Cd 0.60225 0.77626 0.07195 0.0
O591 O 0.61914 0.77378 0.11372 0.0
Cd592 Cd 0.61189 0.74399 0.09896 0.0
C593 C 0.56801 0.75648 0.09807 0.0
O594 O 0.62331 0.752 0.06902 0.0
O595 O 0.60639 0.72783 0.07001 0.0
O596 O 0.63877 0.73422 0.11543 0.0
C597 C 0.61662 0.7383 0.06077 0.0
O598 O 0.57269 0.76701 0.08509 0.0
C599 C 0.63256 0.71853 0.11939 0.0
O600 O 0.5798 0.74693 0.10624 0.0
O601 O 0.61646 0.71461 0.11407 0.0
C602 C 0.28905 0.61338 0.11868 0.0
O603 O 0.29718 0.59868 0.11511 0.0
Cd604 Cd 0.28188 0.5714 0.10508 0.0
O605 O 0.27169 0.61398 0.11827 0.0
Cd606 Cd 0.24489 0.59356 0.11331 0.0
C607 C 0.25734 0.58971 0.06937 0.0
O608 O 0.25752 0.56563 0.12569 0.0
O609 O 0.23245 0.56273 0.11048 0.0
O610 O 0.23239 0.60851 0.1398 0.0
C611 C 0.24485 0.55526 0.11974 0.0
O612 O 0.26985 0.57934 0.07514 0.0
C613 C 0.2167 0.61108 0.133 0.0
O614 O 0.24671 0.59766 0.08041 0.0
O615 O 0.21405 0.60565 0.11677 0.0
C616 C 0.37427 0.19212 0.08792 0.0
O617 O 0.38073 0.18815 0.07245 0.0
Cd618 Cd 0.39556 0.21165 0.05482 0.0
O619 O 0.37416 0.20859 0.09324 0.0
Cd620 Cd 0.38164 0.23963 0.08316 0.0
C621 C 0.42561 0.22873 0.08703 0.0
O622 O 0.37563 0.23704 0.05023 0.0
O623 O 0.39093 0.26061 0.0597 0.0
O624 O 0.3522 0.2468 0.09602 0.0
C625 C 0.38304 0.25236 0.04666 0.0
O626 O 0.42305 0.21978 0.07235 0.0
C627 C 0.35755 0.26137 0.10381 0.0
O628 O 0.41247 0.23681 0.09468 0.0
O629 O 0.37428 0.26581 0.10222 0.0
C630 C 0.17213 0.36947 0.88407 0.0
O631 O 0.16871 0.37611 0.89963 0.0
Cd632 Cd 0.19032 0.38491 0.92231 0.0
O633 O 0.18853 0.36676 0.87907 0.0
Cd634 Cd 0.21916 0.37111 0.8937 0.0
C635 C 0.21504 0.41686 0.89933 0.0
O636 O 0.21023 0.35938 0.92299 0.0
O637 O 0.23662 0.37243 0.92286 0.0
O638 O 0.23449 0.34492 0.87981 0.0
C639 C 0.22484 0.36308 0.93145 0.0
O640 O 0.20431 0.41391 0.91261 0.0
C641 C 0.2465 0.35468 0.87188 0.0
O642 O 0.22116 0.40371 0.89009 0.0
O643 O 0.24521 0.37176 0.87362 0.0
C644 C 0.61442 0.29291 0.87532 0.0
O645 O 0.59958 0.30151 0.87619 0.0
Cd646 Cd 0.57149 0.28793 0.88539 0.0
O647 O 0.61471 0.27585 0.87839 0.0
Cd648 Cd 0.59283 0.25041 0.88537 0.0
C649 C 0.58566 0.26922 0.92638 0.0
O650 O 0.56744 0.26134 0.86731 0.0
O651 O 0.56058 0.24013 0.88627 0.0
O652 O 0.60766 0.23363 0.86144 0.0
C653 C 0.55551 0.25039 0.87344 0.0
O654 O 0.5768 0.28088 0.91727 0.0
C655 C 0.60974 0.21904 0.87031 0.0
O656 O 0.59384 0.2563 0.91839 0.0
O657 O 0.60456 0.21911 0.88679 0.0
C658 C 0.38088 0.70045 0.87507 0.0
O659 O 0.39727 0.69519 0.8761 0.0
Cd660 Cd 0.42126 0.71502 0.88716 0.0
O661 O 0.37683 0.71678 0.87895 0.0
Cd662 Cd 0.38927 0.74686 0.88793 0.0
C663 C 0.40038 0.72781 0.92795 0.0
O664 O 0.41796 0.74341 0.87228 0.0
O665 O 0.41595 0.7672 0.88925 0.0
O666 O 0.36844 0.7547 0.86403 0.0
C667 C 0.42559 0.75761 0.87878 0.0
O668 O 0.41206 0.7192 0.91862 0.0
C669 C 0.36314 0.7695 0.87097 0.0
O670 O 0.38945 0.7389 0.92046 0.0
O671 O 0.3696 0.7738 0.88651 0.0
H672 H 0.11199 0.34723 0.29398 0.0
H673 H 0.12087 0.38685 0.33706 0.0
H674 H 0.12883 0.36204 0.35815 0.0
H675 H 0.08869 0.31675 0.31985 0.0
H676 H 0.0974 0.2966 0.30916 0.0
H677 H 0.09649 0.31748 0.29664 0.0
H678 H 0.13113 0.31563 0.29006 0.0
H679 H 0.13215 0.29466 0.30264 0.0
H680 H 0.14699 0.31351 0.3087 0.0
H681 H 0.13172 0.33295 0.37533 0.0
H682 H 0.12648 0.3023 0.38791 0.0
H683 H 0.11434 0.28173 0.33376 0.0
C684 C 0.11619 0.35077 0.30769 0.0
C685 C 0.11603 0.36897 0.31385 0.0
C686 C 0.12103 0.37299 0.33205 0.0
C687 C 0.1257 0.35901 0.34406 0.0
C688 C 0.12528 0.34113 0.33764 0.0
C689 C 0.12059 0.337 0.31986 0.0
C690 C 0.1185 0.31669 0.31696 0.0
C691 C 0.09912 0.3116 0.31027 0.0
C692 C 0.13307 0.30971 0.30381 0.0
C693 C 0.12187 0.31004 0.33609 0.0
C694 C 0.1263 0.32428 0.3477 0.0
C695 C 0.12856 0.32166 0.36632 0.0
C696 C 0.12555 0.30418 0.37333 0.0
C697 C 0.12001 0.28963 0.36179 0.0
C698 C 0.11879 0.29253 0.34288 0.0
H699 H 0.68431 0.1062 0.37133 0.0
H700 H 0.72994 0.12096 0.33669 0.0
H701 H 0.70855 0.1281 0.31183 0.0
H702 H 0.65984 0.08299 0.33866 0.0
H703 H 0.63754 0.08994 0.3459 0.0
H704 H 0.65598 0.08917 0.36206 0.0
H705 H 0.65107 0.12299 0.37039 0.0
H706 H 0.63244 0.12383 0.35435 0.0
H707 H 0.65119 0.13989 0.35268 0.0
H708 H 0.68281 0.12957 0.28959 0.0
H709 H 0.65445 0.12582 0.27172 0.0
H710 H 0.62548 0.10977 0.32066 0.0
C711 C 0.68975 0.11153 0.35872 0.0
C712 C 0.70876 0.11319 0.35598 0.0
C713 C 0.71541 0.1197 0.33911 0.0
C714 C 0.70337 0.12383 0.32492 0.0
C715 C 0.68472 0.12143 0.32783 0.0
C716 C 0.67791 0.11557 0.34436 0.0
C717 C 0.65747 0.11234 0.34336 0.0
C718 C 0.65243 0.09243 0.34775 0.0
C719 C 0.64745 0.12556 0.35594 0.0
C720 C 0.65397 0.11666 0.32354 0.0
C721 C 0.66982 0.12211 0.31489 0.0
C722 C 0.67025 0.12562 0.29628 0.0
C723 C 0.65407 0.12337 0.28622 0.0
C724 C 0.6377 0.11757 0.29477 0.0
C725 C 0.63769 0.11444 0.31374 0.0
H726 H 0.85832 0.71283 0.32425 0.0
H727 H 0.85824 0.6846 0.37592 0.0
H728 H 0.85067 0.65578 0.36003 0.0
H729 H 0.82249 0.68294 0.30038 0.0
H730 H 0.83499 0.68447 0.27936 0.0
H731 H 0.83531 0.70335 0.29507 0.0
H732 H 0.87066 0.70293 0.2956 0.0
H733 H 0.87045 0.6841 0.28006 0.0
H734 H 0.88202 0.68222 0.30163 0.0
H735 H 0.84954 0.62953 0.33828 0.0
H736 H 0.85607 0.60849 0.31299 0.0
H737 H 0.85744 0.65392 0.27556 0.0
C738 C 0.85601 0.70072 0.33232 0.0
C739 C 0.85878 0.70095 0.35132 0.0
C740 C 0.85603 0.68475 0.36136 0.0
C741 C 0.85165 0.66833 0.35244 0.0
C742 C 0.84988 0.66842 0.33353 0.0
C743 C 0.8518 0.68428 0.32362 0.0
C744 C 0.85213 0.68049 0.30339 0.0
C745 C 0.83522 0.68827 0.294 0.0
C746 C 0.86987 0.68786 0.29468 0.0
C747 C 0.8514 0.65995 0.30347 0.0
C748 C 0.84952 0.6532 0.32092 0.0
C749 C 0.85056 0.63464 0.32453 0.0
C750 C 0.85429 0.62278 0.31007 0.0
C751 C 0.85723 0.6296 0.29231 0.0
C752 C 0.85503 0.6483 0.28894 0.0
H753 H 0.35707 0.8823 0.28837 0.0
H754 H 0.31877 0.86837 0.2453 0.0
H755 H 0.29559 0.86007 0.26818 0.0
H756 H 0.33963 0.84812 0.32347 0.0
H757 H 0.3429 0.86441 0.3416 0.0
H758 H 0.35795 0.86471 0.32226 0.0
H759 H 0.35055 0.89859 0.31676 0.0
H760 H 0.33551 0.89837 0.33597 0.0
H761 H 0.32711 0.90512 0.31397 0.0
H762 H 0.2752 0.85893 0.29457 0.0
H763 H 0.25852 0.86622 0.32259 0.0
H764 H 0.30943 0.8815 0.34915 0.0
C765 C 0.34404 0.87677 0.28384 0.0
C766 C 0.33972 0.87569 0.26514 0.0
C767 C 0.32233 0.86912 0.2596 0.0
C768 C 0.30915 0.86426 0.27249 0.0
C769 C 0.31356 0.86611 0.29087 0.0
C770 C 0.33061 0.87216 0.29658 0.0
C771 C 0.3309 0.87572 0.3169 0.0
C772 C 0.3436 0.86244 0.32663 0.0
C773 C 0.33632 0.89563 0.32113 0.0
C774 C 0.31111 0.87177 0.32151 0.0
C775 C 0.30149 0.86575 0.30637 0.0
C776 C 0.28264 0.86319 0.30663 0.0
C777 C 0.27327 0.86744 0.32258 0.0
C778 C 0.28274 0.87426 0.33802 0.0
C779 C 0.30195 0.87584 0.33767 0.0
H780 H 0.12039 0.66256 0.72283 0.0
H781 H 0.124 0.61282 0.69131 0.0
H782 H 0.13007 0.63088 0.66368 0.0
H783 H 0.09515 0.68524 0.69295 0.0
H784 H 0.10542 0.70743 0.69643 0.0
H785 H 0.10607 0.69089 0.71429 0.0
H786 H 0.14133 0.6938 0.71573 0.0
H787 H 0.14079 0.71057 0.6979 0.0
H788 H 0.1545 0.69061 0.69535 0.0
H789 H 0.12949 0.65409 0.63886 0.0
H790 H 0.12264 0.68034 0.61924 0.0
H791 H 0.11931 0.71484 0.66702 0.0
C792 C 0.12317 0.65544 0.71026 0.0
C793 C 0.12181 0.6363 0.70922 0.0
C794 C 0.12511 0.62748 0.69244 0.0
C795 C 0.12863 0.63763 0.67668 0.0
C796 C 0.12899 0.65656 0.67799 0.0
C797 C 0.12659 0.66536 0.69444 0.0
C798 C 0.12509 0.68569 0.69192 0.0
C799 C 0.10685 0.6927 0.69932 0.0
C800 C 0.14141 0.69576 0.70075 0.0
C801 C 0.12589 0.68685 0.67142 0.0
C802 C 0.12857 0.66998 0.66362 0.0
C803 C 0.12785 0.66743 0.64482 0.0
C804 C 0.12389 0.68241 0.63378 0.0
C805 C 0.12052 0.69963 0.64161 0.0
C806 C 0.12208 0.7019 0.66062 0.0
H807 H 0.29315 0.11906 0.65082 0.0
H808 H 0.33753 0.1286 0.613 0.0
H809 H 0.35894 0.13246 0.63873 0.0
H810 H 0.31057 0.14989 0.68823 0.0
H811 H 0.30305 0.13417 0.70551 0.0
H812 H 0.29063 0.13571 0.68438 0.0
H813 H 0.2943 0.10108 0.67928 0.0
H814 H 0.30675 0.09944 0.70028 0.0
H815 H 0.31683 0.09161 0.67942 0.0
H816 H 0.37616 0.13087 0.66797 0.0
H817 H 0.38792 0.12315 0.69844 0.0
H818 H 0.33247 0.11426 0.71727 0.0
C819 C 0.30725 0.12257 0.64798 0.0
C820 C 0.31366 0.12368 0.62993 0.0
C821 C 0.33232 0.12775 0.62673 0.0
C822 C 0.34457 0.13007 0.64126 0.0
C823 C 0.33794 0.12832 0.65891 0.0
C824 C 0.31969 0.12474 0.66233 0.0
C825 C 0.31645 0.12132 0.68236 0.0
C826 C 0.30447 0.13616 0.6906 0.0
C827 C 0.3081 0.10223 0.68551 0.0
C828 C 0.33581 0.12274 0.68952 0.0
C829 C 0.34796 0.12716 0.67585 0.0
C830 C 0.36675 0.12774 0.67887 0.0
C831 C 0.37331 0.1233 0.69621 0.0
C832 C 0.36111 0.11819 0.71024 0.0
C833 C 0.34212 0.11837 0.7069 0.0
H834 H 0.87413 0.28144 0.65255 0.0
H835 H 0.86315 0.29867 0.59727 0.0
H836 H 0.85251 0.32821 0.60886 0.0
H837 H 0.83605 0.30702 0.67505 0.0
H838 H 0.85028 0.31229 0.69447 0.0
H839 H 0.85328 0.29131 0.68216 0.0
H840 H 0.88744 0.29957 0.67745 0.0
H841 H 0.88455 0.32051 0.68962 0.0
H842 H 0.89355 0.32088 0.66685 0.0
H843 H 0.84833 0.35732 0.62584 0.0
H844 H 0.85116 0.38358 0.64666 0.0
H845 H 0.86476 0.34722 0.69089 0.0
C846 C 0.86894 0.2912 0.64291 0.0
C847 C 0.86939 0.28776 0.62402 0.0
C848 C 0.86281 0.30099 0.61181 0.0
C849 C 0.85668 0.31778 0.61828 0.0
C850 C 0.85702 0.32098 0.63698 0.0
C851 C 0.86283 0.30797 0.64913 0.0
C852 C 0.86404 0.31547 0.66829 0.0
C853 C 0.85007 0.30595 0.68072 0.0
C854 C 0.88355 0.31403 0.67599 0.0
C855 C 0.85898 0.33501 0.66489 0.0
C856 C 0.8546 0.33785 0.64682 0.0
C857 C 0.85132 0.35519 0.64009 0.0
C858 C 0.85303 0.37004 0.65202 0.0
C859 C 0.85811 0.36745 0.67043 0.0
C860 C 0.86053 0.34963 0.67699 0.0
H861 H 0.65421 0.87835 0.62254 0.0
H862 H 0.70221 0.86056 0.65191 0.0
H863 H 0.68322 0.85428 0.67886 0.0
H864 H 0.63506 0.90195 0.65805 0.0
H865 H 0.61171 0.89595 0.65267 0.0
H866 H 0.62854 0.89656 0.63496 0.0
H867 H 0.62038 0.86318 0.62639 0.0
H868 H 0.60349 0.86246 0.64414 0.0
H869 H 0.62123 0.84579 0.64358 0.0
H870 H 0.65998 0.85363 0.70356 0.0
H871 H 0.6342 0.85885 0.7243 0.0
H872 H 0.60125 0.87651 0.67869 0.0
C873 C 0.66069 0.87277 0.6345 0.0
C874 C 0.67969 0.86992 0.6351 0.0
C875 C 0.68767 0.86283 0.65111 0.0
C876 C 0.67698 0.85914 0.66646 0.0
C877 C 0.65835 0.86243 0.66552 0.0
C878 C 0.65024 0.869 0.64991 0.0
C879 C 0.63026 0.87284 0.6529 0.0
C880 C 0.62617 0.89302 0.64945 0.0
C881 C 0.61812 0.86032 0.64105 0.0
C882 C 0.62856 0.86809 0.67282 0.0
C883 C 0.64484 0.86188 0.67978 0.0
C884 C 0.64706 0.85814 0.69821 0.0
C885 C 0.63236 0.8612 0.70988 0.0
C886 C 0.61569 0.86796 0.70307 0.0
C887 C 0.61369 0.87098 0.68423 0.0
H888 H 0.36886 0.13545 0.30646 0.0
H889 H 0.33572 0.12132 0.25932 0.0
H890 H 0.30784 0.12491 0.27776 0.0
H891 H 0.34486 0.11052 0.3371 0.0
H892 H 0.34724 0.12633 0.35577 0.0
H893 H 0.36411 0.12607 0.33815 0.0
H894 H 0.35913 0.16037 0.33221 0.0
H895 H 0.34223 0.16076 0.34994 0.0
H896 H 0.3365 0.16832 0.32737 0.0
H897 H 0.28404 0.12537 0.30263 0.0
H898 H 0.26677 0.12274 0.33134 0.0
H899 H 0.31593 0.13673 0.36171 0.0
C900 C 0.35574 0.13356 0.29984 0.0
C901 C 0.35447 0.1281 0.28145 0.0
C902 C 0.33703 0.12562 0.27337 0.0
C903 C 0.32112 0.12766 0.28373 0.0
C904 C 0.32292 0.13244 0.30204 0.0
C905 C 0.33983 0.13556 0.30993 0.0
C906 C 0.33836 0.13872 0.33018 0.0
C907 C 0.34928 0.12456 0.34092 0.0
C908 C 0.34441 0.1582 0.33522 0.0
C909 C 0.31807 0.13601 0.33265 0.0
C910 C 0.30928 0.13273 0.31628 0.0
C911 C 0.29072 0.12829 0.31548 0.0
C912 C 0.28102 0.1268 0.33187 0.0
C913 C 0.28998 0.12955 0.34879 0.0
C914 C 0.30862 0.1347 0.34903 0.0
H915 H 0.86544 0.30245 0.38004 0.0
H916 H 0.83593 0.2599 0.35099 0.0
H917 H 0.82725 0.2819 0.32742 0.0
H918 H 0.83593 0.34302 0.36379 0.0
H919 H 0.8562 0.35706 0.3619 0.0
H920 H 0.8546 0.34006 0.37947 0.0
H921 H 0.88473 0.32618 0.36814 0.0
H922 H 0.8863 0.34281 0.35043 0.0
H923 H 0.88646 0.31894 0.34477 0.0
H924 H 0.82919 0.305 0.30361 0.0
H925 H 0.8406 0.32785 0.28183 0.0
H926 H 0.86925 0.35608 0.32545 0.0
C927 C 0.8562 0.2981 0.36929 0.0
C928 C 0.85103 0.27963 0.36744 0.0
C929 C 0.83975 0.27409 0.35274 0.0
C930 C 0.83474 0.28652 0.33931 0.0
C931 C 0.84114 0.30443 0.34078 0.0
C932 C 0.85141 0.31034 0.35556 0.0
C933 C 0.8595 0.32915 0.35225 0.0
C934 C 0.85105 0.34315 0.36512 0.0
C935 C 0.88048 0.32925 0.35399 0.0
C936 C 0.85345 0.33223 0.33279 0.0
C937 C 0.84242 0.31804 0.32664 0.0
C938 C 0.83729 0.31648 0.30842 0.0
C939 C 0.84394 0.32945 0.29611 0.0
C940 C 0.85562 0.34379 0.30204 0.0
C941 C 0.85991 0.34552 0.3207 0.0
H942 H 0.68489 0.87067 0.34473 0.0
H943 H 0.64961 0.8543 0.3892 0.0
H944 H 0.62378 0.85102 0.36789 0.0
H945 H 0.65444 0.89852 0.32433 0.0
H946 H 0.66021 0.89341 0.30109 0.0
H947 H 0.67694 0.89074 0.31876 0.0
H948 H 0.68124 0.85712 0.30936 0.0
H949 H 0.6646 0.85973 0.29147 0.0
H950 H 0.66168 0.84198 0.30812 0.0
H951 H 0.6011 0.85455 0.34369 0.0
H952 H 0.58265 0.864 0.31743 0.0
H953 H 0.63204 0.87813 0.28796 0.0
C954 C 0.67187 0.86573 0.34979 0.0
C955 C 0.66921 0.86258 0.36853 0.0
C956 C 0.65189 0.85673 0.37485 0.0
C957 C 0.63718 0.85473 0.36285 0.0
C958 C 0.64002 0.85861 0.34456 0.0
C959 C 0.65694 0.86385 0.33796 0.0
C960 C 0.65571 0.86936 0.31814 0.0
C961 C 0.6622 0.88918 0.31544 0.0
C962 C 0.66644 0.85626 0.30606 0.0
C963 C 0.63535 0.86722 0.31495 0.0
C964 C 0.62665 0.86071 0.33032 0.0
C965 C 0.60775 0.85926 0.33142 0.0
C966 C 0.59739 0.86479 0.3165 0.0
C967 C 0.60596 0.87169 0.30068 0.0
C968 C 0.62519 0.87256 0.29977 0.0
H969 H 0.12198 0.6609 0.28055 0.0
H970 H 0.12301 0.61264 0.31423 0.0
H971 H 0.12884 0.6319 0.34132 0.0
H972 H 0.15621 0.68915 0.30811 0.0
H973 H 0.14332 0.70941 0.30408 0.0
H974 H 0.14384 0.69172 0.28707 0.0
H975 H 0.1085 0.69007 0.28711 0.0
H976 H 0.10785 0.70754 0.30415 0.0
H977 H 0.09669 0.68591 0.3082 0.0
H978 H 0.128 0.65644 0.36505 0.0
H979 H 0.12115 0.68385 0.38311 0.0
H980 H 0.12081 0.71598 0.33375 0.0
C981 C 0.12411 0.65432 0.29352 0.0
C982 C 0.12209 0.6353 0.29531 0.0
C983 C 0.12467 0.6272 0.31254 0.0
C984 C 0.12801 0.63804 0.32799 0.0
C985 C 0.12902 0.65688 0.32588 0.0
C986 C 0.12742 0.66492 0.30899 0.0
C987 C 0.12656 0.68541 0.3105 0.0
C988 C 0.1435 0.69445 0.30194 0.0
C989 C 0.10885 0.69263 0.302 0.0
C990 C 0.12672 0.68761 0.33093 0.0
C991 C 0.12857 0.67107 0.3396 0.0
C992 C 0.12703 0.66951 0.35843 0.0
C993 C 0.12308 0.68515 0.36858 0.0
C994 C 0.12054 0.70206 0.35983 0.0
C995 C 0.12297 0.70332 0.34085 0.0
H996 H 0.34384 0.86875 0.70995 0.0
H997 H 0.39105 0.86433 0.6749 0.0
H998 H 0.37071 0.86076 0.64827 0.0
H999 H 0.31235 0.8376 0.68325 0.0
H1000 H 0.29316 0.85199 0.68758 0.0
H1001 H 0.31121 0.85034 0.70419 0.0
H1002 H 0.31558 0.88537 0.70362 0.0
H1003 H 0.2977 0.88713 0.68699 0.0
H1004 H 0.32002 0.89657 0.68228 0.0
H1005 H 0.34572 0.86239 0.6252 0.0
H1006 H 0.31813 0.86979 0.60752 0.0
H1007 H 0.28731 0.87374 0.65761 0.0
C1008 C 0.3499 0.86639 0.69676 0.0
C1009 C 0.36901 0.86667 0.69451 0.0
C1010 C 0.37643 0.86408 0.67695 0.0
C1011 C 0.36498 0.86195 0.66175 0.0
C1012 C 0.34618 0.86238 0.66436 0.0
C1013 C 0.33868 0.86444 0.68146 0.0
C1014 C 0.31823 0.86679 0.68039 0.0
C1015 C 0.30814 0.85072 0.68938 0.0
C1016 C 0.31257 0.88505 0.68881 0.0
C1017 C 0.31552 0.86659 0.65999 0.0
C1018 C 0.33172 0.86363 0.65099 0.0
C1019 C 0.33288 0.86437 0.63209 0.0
C1020 C 0.31715 0.86863 0.62216 0.0
C1021 C 0.30058 0.87229 0.6312 0.0
C1022 C 0.29972 0.87079 0.65031 0.0
H1023 H 0.11766 0.37143 0.68351 0.0
H1024 H 0.12413 0.33286 0.7274 0.0
H1025 H 0.13572 0.31026 0.70566 0.0
H1026 H 0.09828 0.34239 0.65467 0.0
H1027 H 0.10837 0.3508 0.63396 0.0
H1028 H 0.10609 0.36571 0.65313 0.0
H1029 H 0.14081 0.37283 0.65267 0.0
H1030 H 0.14321 0.35801 0.63327 0.0
H1031 H 0.15676 0.35445 0.65341 0.0
H1032 H 0.13975 0.29008 0.6792 0.0
H1033 H 0.13554 0.27379 0.65014 0.0
H1034 H 0.12577 0.32503 0.62296 0.0
C1035 C 0.12239 0.35853 0.68863 0.0
C1036 C 0.12026 0.35392 0.70711 0.0
C1037 C 0.12584 0.33668 0.71329 0.0
C1038 C 0.13252 0.3238 0.70104 0.0
C1039 C 0.13355 0.32839 0.6827 0.0
C1040 C 0.12879 0.34543 0.6765 0.0
C1041 C 0.12807 0.34593 0.65592 0.0
C1042 C 0.10908 0.35152 0.64904 0.0
C1043 C 0.14311 0.35855 0.64837 0.0
C1044 C 0.13188 0.32623 0.65157 0.0
C1045 C 0.13556 0.31647 0.66716 0.0
C1046 C 0.13737 0.29765 0.66684 0.0
C1047 C 0.13485 0.28849 0.65027 0.0
C1048 C 0.13038 0.29815 0.63427 0.0
C1049 C 0.12952 0.31731 0.63488 0.0
H1050 H 0.70232 0.11026 0.67055 0.0
H1051 H 0.6786 0.12485 0.61856 0.0
H1052 H 0.64945 0.13141 0.63378 0.0
H1053 H 0.66516 0.08647 0.68648 0.0
H1054 H 0.66744 0.09348 0.70989 0.0
H1055 H 0.68721 0.09299 0.69554 0.0
H1056 H 0.69408 0.12692 0.70284 0.0
H1057 H 0.6743 0.1275 0.71732 0.0
H1058 H 0.6767 0.14356 0.69898 0.0
H1059 H 0.62188 0.13215 0.65383 0.0
H1060 H 0.59815 0.12706 0.67707 0.0
H1061 H 0.63989 0.11219 0.71604 0.0
C1062 C 0.69116 0.11535 0.66243 0.0
C1063 C 0.69277 0.11716 0.64338 0.0
C1064 C 0.67772 0.12347 0.63319 0.0
C1065 C 0.66112 0.12728 0.64173 0.0
C1066 C 0.65983 0.12485 0.66047 0.0
C1067 C 0.67451 0.11917 0.67073 0.0
C1068 C 0.6691 0.11588 0.69032 0.0
C1069 C 0.67242 0.09603 0.69587 0.0
C1070 C 0.67914 0.12927 0.70312 0.0
C1071 C 0.64893 0.1199 0.68933 0.0
C1072 C 0.64389 0.12531 0.67207 0.0
C1073 C 0.62572 0.12827 0.66748 0.0
C1074 C 0.61232 0.1253 0.68077 0.0
C1075 C 0.61715 0.11935 0.69843 0.0
C1076 C 0.63576 0.11706 0.7028 0.0
H1077 H 0.86954 0.70639 0.62769 0.0
H1078 H 0.87151 0.66461 0.58596 0.0
H1079 H 0.86567 0.64112 0.60928 0.0
H1080 H 0.89438 0.68357 0.65925 0.0
H1081 H 0.88203 0.69134 0.67887 0.0
H1082 H 0.88273 0.70497 0.65866 0.0
H1083 H 0.84738 0.70502 0.65751 0.0
H1084 H 0.84656 0.6914 0.67784 0.0
H1085 H 0.83486 0.68372 0.65756 0.0
H1086 H 0.86369 0.62214 0.63744 0.0
H1087 H 0.86704 0.6091 0.6681 0.0
H1088 H 0.8672 0.66338 0.6914 0.0
C1089 C 0.86821 0.69235 0.62332 0.0
C1090 C 0.87084 0.68733 0.60497 0.0
C1091 C 0.86944 0.66877 0.59993 0.0
C1092 C 0.86604 0.65535 0.61307 0.0
C1093 C 0.86402 0.66075 0.63114 0.0
C1094 C 0.86501 0.67883 0.63625 0.0
C1095 C 0.86459 0.68098 0.65672 0.0
C1096 C 0.88197 0.69078 0.66378 0.0
C1097 C 0.84732 0.69086 0.66276 0.0
C1098 C 0.86399 0.66124 0.66238 0.0
C1099 C 0.86326 0.64978 0.64744 0.0
C1100 C 0.86396 0.63096 0.64924 0.0
C1101 C 0.8659 0.62369 0.66672 0.0
C1102 C 0.86734 0.63524 0.68214 0.0
C1103 C 0.86591 0.65421 0.67991 0.0
H1104 H 0.30505 0.35297 0.11197 0.0
H1105 H 0.25941 0.32085 0.13237 0.0
H1106 H 0.27965 0.29488 0.13693 0.0
H1107 H 0.32299 0.32038 0.08598 0.0
H1108 H 0.34675 0.32573 0.09001 0.0
H1109 H 0.33002 0.34313 0.09239 0.0
H1110 H 0.34089 0.34943 0.1254 0.0
H1111 H 0.35783 0.33208 0.12309 0.0
H1112 H 0.34167 0.331 0.14148 0.0
H1113 H 0.30233 0.27093 0.13276 0.0
H1114 H 0.32672 0.251 0.12171 0.0
H1115 H 0.35846 0.29835 0.10529 0.0
C1116 C 0.29951 0.3407 0.11808 0.0
C1117 C 0.2807 0.33892 0.12186 0.0
C1118 C 0.2738 0.32252 0.1294 0.0
C1119 C 0.28521 0.30771 0.13214 0.0
C1120 C 0.30354 0.30958 0.12749 0.0
C1121 C 0.31075 0.32575 0.12089 0.0
C1122 C 0.33031 0.32348 0.11481 0.0
C1123 C 0.33263 0.32846 0.09461 0.0
C1124 C 0.34345 0.33466 0.12693 0.0
C1125 C 0.33253 0.30328 0.11792 0.0
C1126 C 0.31701 0.29559 0.12553 0.0
C1127 C 0.31479 0.27683 0.12737 0.0
C1128 C 0.32864 0.26561 0.12098 0.0
C1129 C 0.3445 0.27322 0.11298 0.0
C1130 C 0.34668 0.29228 0.11191 0.0
H1131 H 0.38112 0.6634 0.87843 0.0
H1132 H 0.34697 0.70819 0.86211 0.0
H1133 H 0.32091 0.68689 0.85809 0.0
H1134 H 0.3592 0.62767 0.84876 0.0
H1135 H 0.36125 0.61061 0.86616 0.0
H1136 H 0.37799 0.62877 0.86463 0.0
H1137 H 0.37198 0.63731 0.89827 0.0
H1138 H 0.3552 0.61931 0.89988 0.0
H1139 H 0.34908 0.64232 0.90533 0.0
H1140 H 0.29784 0.66175 0.85957 0.0
H1141 H 0.27918 0.63462 0.86699 0.0
H1142 H 0.32814 0.60618 0.88295 0.0
C1143 C 0.36831 0.66862 0.87345 0.0
C1144 C 0.36608 0.6874 0.87043 0.0
C1145 C 0.34897 0.69382 0.86445 0.0
C1146 C 0.33412 0.68182 0.86204 0.0
C1147 C 0.33662 0.66345 0.86565 0.0
C1148 C 0.35329 0.65684 0.87117 0.0
C1149 C 0.35184 0.6369 0.87611 0.0
C1150 C 0.36324 0.6253 0.86313 0.0
C1151 C 0.35734 0.63379 0.89608 0.0
C1152 C 0.33162 0.63352 0.87315 0.0
C1153 C 0.32316 0.64892 0.8668 0.0
C1154 C 0.30434 0.64951 0.86426 0.0
C1155 C 0.29385 0.63404 0.86858 0.0
C1156 C 0.30219 0.61824 0.87552 0.0
C1157 C 0.32137 0.61794 0.87747 0.0
H1158 H 0.25892 0.31988 0.87461 0.0
H1159 H 0.27072 0.3721 0.84966 0.0
H1160 H 0.30062 0.36104 0.83972 0.0
H1161 H 0.30037 0.31437 0.89346 0.0
H1162 H 0.302 0.29018 0.89003 0.0
H1163 H 0.27999 0.30042 0.89157 0.0
H1164 H 0.27086 0.28686 0.86021 0.0
H1165 H 0.29286 0.27635 0.85864 0.0
H1166 H 0.28518 0.29113 0.84076 0.0
H1167 H 0.33102 0.3469 0.83794 0.0
H1168 H 0.35934 0.32996 0.84316 0.0
H1169 H 0.32801 0.28657 0.86871 0.0
C1170 C 0.26749 0.3287 0.8664 0.0
C1171 C 0.26248 0.34679 0.8628 0.0
C1172 C 0.27427 0.35815 0.8525 0.0
C1173 C 0.29127 0.35197 0.84673 0.0
C1174 C 0.2962 0.33434 0.85123 0.0
C1175 C 0.28457 0.32274 0.86061 0.0
C1176 C 0.29401 0.30528 0.86565 0.0
C1177 C 0.2941 0.30242 0.8864 0.0
C1178 C 0.2852 0.28894 0.85572 0.0
C1179 C 0.313 0.30931 0.85854 0.0
C1180 C 0.3139 0.32602 0.85001 0.0
C1181 C 0.33041 0.33358 0.84414 0.0
C1182 C 0.34644 0.32392 0.84726 0.0
C1183 C 0.34583 0.30688 0.85616 0.0
C1184 C 0.32883 0.29936 0.86147 0.0
H1185 H 0.61931 0.32979 0.87403 0.0
H1186 H 0.64842 0.27911 0.86879 0.0
H1187 H 0.67732 0.29646 0.86501 0.0
H1188 H 0.64735 0.35681 0.84204 0.0
H1189 H 0.6461 0.37694 0.856 0.0
H1190 H 0.62752 0.36059 0.85588 0.0
H1191 H 0.63003 0.35769 0.89093 0.0
H1192 H 0.64859 0.37398 0.89115 0.0
H1193 H 0.6516 0.35182 0.90102 0.0
H1194 H 0.70328 0.31929 0.86458 0.0
H1195 H 0.7243 0.34552 0.86875 0.0
H1196 H 0.67796 0.38107 0.87476 0.0
C1197 C 0.63168 0.32229 0.8717 0.0
C1198 C 0.63158 0.30308 0.87159 0.0
C1199 C 0.64815 0.29383 0.86886 0.0
C1200 C 0.66462 0.30356 0.86662 0.0
C1201 C 0.66424 0.32251 0.86711 0.0
C1202 C 0.64818 0.33176 0.86957 0.0
C1203 C 0.65159 0.35204 0.87117 0.0
C1204 C 0.64261 0.36219 0.85532 0.0
C1205 C 0.64507 0.3593 0.88966 0.0
C1206 C 0.67215 0.35276 0.86975 0.0
C1207 C 0.67919 0.33563 0.86713 0.0
C1208 C 0.69791 0.33279 0.86642 0.0
C1209 C 0.70974 0.3478 0.86882 0.0
C1210 C 0.7028 0.36539 0.87207 0.0
C1211 C 0.68373 0.36786 0.87215 0.0
H1212 H 0.69669 0.64761 0.86391 0.0
H1213 H 0.67097 0.59501 0.87356 0.0
H1214 H 0.64071 0.60856 0.86883 0.0
H1215 H 0.66824 0.67174 0.88914 0.0
H1216 H 0.66759 0.69171 0.87502 0.0
H1217 H 0.68706 0.67727 0.87432 0.0
H1218 H 0.68307 0.67317 0.83951 0.0
H1219 H 0.6636 0.68783 0.84005 0.0
H1220 H 0.66145 0.66531 0.83046 0.0
H1221 H 0.61366 0.62879 0.86944 0.0
H1222 H 0.59223 0.6537 0.87493 0.0
H1223 H 0.63571 0.69315 0.86506 0.0
C1224 C 0.68474 0.63877 0.86434 0.0
C1225 C 0.68616 0.62025 0.86904 0.0
C1226 C 0.6702 0.60921 0.86982 0.0
C1227 C 0.65295 0.61679 0.86711 0.0
C1228 C 0.65198 0.63535 0.8634 0.0
C1229 C 0.6675 0.64614 0.86176 0.0
C1230 C 0.66287 0.66606 0.86025 0.0
C1231 C 0.67197 0.67734 0.8756 0.0
C1232 C 0.66805 0.67353 0.84145 0.0
C1233 C 0.64239 0.66493 0.86248 0.0
C1234 C 0.6363 0.64709 0.86385 0.0
C1235 C 0.6182 0.64278 0.86794 0.0
C1236 C 0.60614 0.65704 0.87113 0.0
C1237 C 0.61228 0.67539 0.87038 0.0
C1238 C 0.63051 0.67929 0.86545 0.0
H1239 H 0.63121 0.68167 0.11534 0.0
H1240 H 0.66094 0.72537 0.14248 0.0
H1241 H 0.68392 0.7036 0.15296 0.0
H1242 H 0.64463 0.64326 0.14786 0.0
H1243 H 0.64685 0.62769 0.12906 0.0
H1244 H 0.63008 0.64534 0.12819 0.0
H1245 H 0.64373 0.65678 0.09777 0.0
H1246 H 0.66045 0.63926 0.09856 0.0
H1247 H 0.66766 0.66274 0.09672 0.0
H1248 H 0.70654 0.67942 0.15472 0.0
H1249 H 0.72775 0.65517 0.14639 0.0
H1250 H 0.68411 0.6266 0.11778 0.0
C1251 C 0.64212 0.68643 0.12419 0.0
C1252 C 0.64423 0.70509 0.12836 0.0
C1253 C 0.65905 0.71107 0.13931 0.0
C1254 C 0.67208 0.69877 0.14542 0.0
C1255 C 0.67011 0.68054 0.14045 0.0
C1256 C 0.65544 0.67433 0.13013 0.0
C1257 C 0.65816 0.65489 0.12392 0.0
C1258 C 0.64409 0.64203 0.13279 0.0
C1259 C 0.65747 0.65335 0.10302 0.0
C1260 C 0.67716 0.65158 0.13127 0.0
C1261 C 0.68355 0.66635 0.14126 0.0
C1262 C 0.70154 0.66757 0.14739 0.0
C1263 C 0.71352 0.65374 0.14256 0.0
C1264 C 0.70748 0.63895 0.13164 0.0
C1265 C 0.68891 0.63749 0.12661 0.0
H1266 H 0.3797 0.67339 0.11909 0.0
H1267 H 0.34571 0.72117 0.1197 0.0
H1268 H 0.31847 0.70151 0.12434 0.0
H1269 H 0.35046 0.64651 0.09328 0.0
H1270 H 0.35523 0.62556 0.10488 0.0
H1271 H 0.3722 0.64346 0.10432 0.0
H1272 H 0.37393 0.64344 0.13953 0.0
H1273 H 0.35697 0.62544 0.14022 0.0
H1274 H 0.35339 0.64627 0.15257 0.0
H1275 H 0.29472 0.67638 0.12593 0.0
H1276 H 0.27641 0.648 0.12349 0.0
H1277 H 0.32621 0.61691 0.12123 0.0
C1278 C 0.36661 0.67981 0.12063 0.0
C1279 C 0.36486 0.69884 0.11914 0.0
C1280 C 0.34739 0.70662 0.12086 0.0
C1281 C 0.33185 0.69557 0.12357 0.0
C1282 C 0.33404 0.6768 0.12456 0.0
C1283 C 0.35101 0.669 0.12319 0.0
C1284 C 0.34959 0.64846 0.12306 0.0
C1285 C 0.35732 0.64055 0.10533 0.0
C1286 C 0.35903 0.64043 0.13985 0.0
C1287 C 0.32912 0.64589 0.12403 0.0
C1288 C 0.32038 0.66236 0.12518 0.0
C1289 C 0.30142 0.6634 0.12526 0.0
C1290 C 0.29114 0.64719 0.12385 0.0
C1291 C 0.29986 0.63021 0.12218 0.0
C1292 C 0.31911 0.62963 0.1226 0.0
H1293 H 0.66243 0.38095 0.10823 0.0
H1294 H 0.70958 0.35074 0.12621 0.0
H1295 H 0.6899 0.32391 0.13169 0.0
H1296 H 0.62908 0.35937 0.14022 0.0
H1297 H 0.61113 0.3593 0.12339 0.0
H1298 H 0.62849 0.37694 0.1232 0.0
H1299 H 0.63594 0.36902 0.08971 0.0
H1300 H 0.61872 0.35133 0.08982 0.0
H1301 H 0.64187 0.34604 0.08387 0.0
H1302 H 0.66622 0.29926 0.13114 0.0
H1303 H 0.6396 0.27886 0.12595 0.0
H1304 H 0.60756 0.32509 0.10933 0.0
C1305 C 0.66855 0.36884 0.11375 0.0
C1306 C 0.68756 0.36798 0.11679 0.0
C1307 C 0.69506 0.35177 0.12377 0.0
C1308 C 0.68398 0.33644 0.12699 0.0
C1309 C 0.6654 0.33757 0.12336 0.0
C1310 C 0.65767 0.3534 0.1171 0.0
C1311 C 0.63755 0.35059 0.11304 0.0
C1312 C 0.62587 0.36224 0.12572 0.0
C1313 C 0.63328 0.35447 0.09292 0.0
C1314 C 0.63537 0.33055 0.11736 0.0
C1315 C 0.65156 0.32333 0.12342 0.0
C1316 C 0.65335 0.30481 0.12677 0.0
C1317 C 0.6382 0.29332 0.12371 0.0
C1318 C 0.6215 0.30043 0.11743 0.0
C1319 C 0.62004 0.31933 0.11452 0.0
H1320 H 0.61697 0.8281 0.78186 0.0
H1321 H 0.62841 0.87245 0.81941 0.0
H1322 H 0.63699 0.85022 0.84299 0.0
H1323 H 0.59417 0.80195 0.81114 0.0
H1324 H 0.60203 0.7803 0.80304 0.0
H1325 H 0.60163 0.79939 0.78795 0.0
H1326 H 0.63607 0.79564 0.78135 0.0
H1327 H 0.63657 0.77636 0.79643 0.0
H1328 H 0.65213 0.79528 0.79997 0.0
H1329 H 0.63838 0.82339 0.86386 0.0
H1330 H 0.6315 0.79489 0.88026 0.0
H1331 H 0.61842 0.7682 0.82907 0.0
C1332 C 0.62192 0.83321 0.79483 0.0
C1333 C 0.62211 0.852 0.79879 0.0
C1334 C 0.62832 0.85811 0.81603 0.0
C1335 C 0.63327 0.84557 0.82948 0.0
C1336 C 0.63211 0.82703 0.82537 0.0
C1337 C 0.62674 0.8209 0.80835 0.0
C1338 C 0.6239 0.80048 0.80803 0.0
C1339 C 0.60427 0.79525 0.80221 0.0
C1340 C 0.63802 0.79141 0.79572 0.0
C1341 C 0.62736 0.79615 0.82781 0.0
C1342 C 0.63262 0.81153 0.8375 0.0
C1343 C 0.6347 0.8112 0.85634 0.0
C1344 C 0.63073 0.79493 0.86555 0.0
C1345 C 0.62445 0.77932 0.85591 0.0
C1346 C 0.62343 0.77983 0.83677 0.0
H1347 H 0.2087 0.60287 0.8382 0.0
H1348 H 0.18643 0.61686 0.89093 0.0
H1349 H 0.1573 0.62478 0.87631 0.0
H1350 H 0.18386 0.63807 0.81146 0.0
H1351 H 0.18055 0.62279 0.79247 0.0
H1352 H 0.20053 0.62096 0.80669 0.0
H1353 H 0.19253 0.58704 0.81257 0.0
H1354 H 0.17253 0.58878 0.7985 0.0
H1355 H 0.17044 0.58098 0.82162 0.0
H1356 H 0.12955 0.62675 0.85689 0.0
H1357 H 0.10525 0.6236 0.83374 0.0
H1358 H 0.14556 0.60901 0.79342 0.0
C1359 C 0.19786 0.60807 0.84661 0.0
C1360 C 0.19983 0.60931 0.86569 0.0
C1361 C 0.18524 0.61587 0.87628 0.0
C1362 C 0.16866 0.62045 0.86809 0.0
C1363 C 0.16697 0.61857 0.8493 0.0
C1364 C 0.18123 0.61272 0.83865 0.0
C1365 C 0.17539 0.61037 0.819 0.0
C1366 C 0.18569 0.62385 0.80668 0.0
C1367 C 0.17786 0.59062 0.81256 0.0
C1368 C 0.15542 0.61507 0.82041 0.0
C1369 C 0.1509 0.61997 0.83797 0.0
C1370 C 0.13297 0.62332 0.843 0.0
C1371 C 0.11926 0.6214 0.82979 0.0
C1372 C 0.12356 0.61621 0.81177 0.0
C1373 C 0.14193 0.61337 0.80699 0.0
H1374 H 0.36559 0.14362 0.79215 0.0
H1375 H 0.3542 0.10746 0.83741 0.0
H1376 H 0.3487 0.13398 0.85712 0.0
H1377 H 0.39103 0.17453 0.81605 0.0
H1378 H 0.38315 0.19447 0.80438 0.0
H1379 H 0.38271 0.17283 0.79299 0.0
H1380 H 0.3481 0.17601 0.78666 0.0
H1381 H 0.34845 0.19778 0.798 0.0
H1382 H 0.33279 0.18014 0.8053 0.0
H1383 H 0.34926 0.16406 0.87294 0.0
H1384 H 0.35575 0.19541 0.88353 0.0
H1385 H 0.36655 0.2119 0.82794 0.0
C1386 C 0.3614 0.14123 0.80606 0.0
C1387 C 0.36028 0.12346 0.81322 0.0
C1388 C 0.35511 0.12096 0.8316 0.0
C1389 C 0.35187 0.13594 0.84289 0.0
C1390 C 0.35368 0.1533 0.83555 0.0
C1391 C 0.35817 0.15602 0.81751 0.0
C1392 C 0.36124 0.17599 0.81344 0.0
C1393 C 0.38068 0.17966 0.80631 0.0
C1394 C 0.34678 0.18288 0.80006 0.0
C1395 C 0.35864 0.18399 0.8322 0.0
C1396 C 0.35397 0.17074 0.84471 0.0
C1397 C 0.35252 0.17463 0.86321 0.0
C1398 C 0.35629 0.19245 0.86911 0.0
C1399 C 0.36154 0.20609 0.85654 0.0
C1400 C 0.36226 0.20184 0.83783 0.0
H1401 H 0.82691 0.3736 0.7636 0.0
H1402 H 0.88058 0.37049 0.7883 0.0
H1403 H 0.86633 0.36388 0.81802 0.0
H1404 H 0.8077 0.39795 0.79688 0.0
H1405 H 0.78542 0.38726 0.7959 0.0
H1406 H 0.79965 0.38743 0.77611 0.0
H1407 H 0.79728 0.35228 0.7741 0.0
H1408 H 0.78286 0.35199 0.79391 0.0
H1409 H 0.80335 0.33876 0.79355 0.0
H1410 H 0.84624 0.36314 0.84576 0.0
H1411 H 0.82233 0.36862 0.8687 0.0
H1412 H 0.78205 0.37241 0.82558 0.0
C1413 C 0.8357 0.37089 0.77511 0.0
C1414 C 0.85484 0.37247 0.77363 0.0
C1415 C 0.86587 0.36921 0.7891 0.0
C1416 C 0.85789 0.36539 0.80603 0.0
C1417 C 0.8389 0.3647 0.80718 0.0
C1418 C 0.82796 0.36716 0.79204 0.0
C1419 C 0.80804 0.36809 0.79713 0.0
C1420 C 0.79974 0.38626 0.79116 0.0
C1421 C 0.79725 0.3518 0.7892 0.0
C1422 C 0.80952 0.36681 0.81759 0.0
C1423 C 0.82735 0.36442 0.82316 0.0
C1424 C 0.83219 0.3646 0.84154 0.0
C1425 C 0.81853 0.36773 0.85448 0.0
C1426 C 0.80035 0.37089 0.84891 0.0
C1427 C 0.7958 0.36986 0.83027 0.0
H1428 H 0.60892 0.17982 0.1184 0.0
H1429 H 0.64372 0.22195 0.14185 0.0
H1430 H 0.6535 0.20074 0.16573 0.0
H1431 H 0.59146 0.16544 0.15748 0.0
H1432 H 0.59 0.14146 0.15245 0.0
H1433 H 0.58979 0.15766 0.13425 0.0
H1434 H 0.61755 0.14221 0.11943 0.0
H1435 H 0.61773 0.12573 0.13755 0.0
H1436 H 0.63802 0.13895 0.13259 0.0
H1437 H 0.65381 0.17836 0.19048 0.0
H1438 H 0.6453 0.15595 0.21397 0.0
H1439 H 0.61034 0.12769 0.17512 0.0
C1440 C 0.61934 0.1842 0.12801 0.0
C1441 C 0.62584 0.20237 0.12815 0.0
C1442 C 0.63879 0.20799 0.14141 0.0
C1443 C 0.64445 0.19601 0.15499 0.0
C1444 C 0.63704 0.17844 0.15513 0.0
C1445 C 0.62492 0.17243 0.14186 0.0
C1446 C 0.61674 0.15401 0.14676 0.0
C1447 C 0.59577 0.15471 0.1478 0.0
C1448 C 0.62288 0.13935 0.13328 0.0
C1449 C 0.62522 0.15121 0.16536 0.0
C1450 C 0.63721 0.16527 0.16973 0.0
C1451 C 0.64491 0.16698 0.18702 0.0
C1452 C 0.63993 0.15424 0.20031 0.0
C1453 C 0.62738 0.13998 0.19625 0.0
C1454 C 0.62038 0.13815 0.1784 0.0
H1455 H 0.84412 0.60291 0.20316 0.0
H1456 H 0.89365 0.61973 0.17533 0.0
H1457 H 0.87549 0.62892 0.14874 0.0
H1458 H 0.8235 0.58262 0.16531 0.0
H1459 H 0.80055 0.58925 0.1706 0.0
H1460 H 0.81698 0.58659 0.18858 0.0
H1461 H 0.81119 0.61954 0.19945 0.0
H1462 H 0.79472 0.6223 0.18144 0.0
H1463 H 0.81368 0.63808 0.18362 0.0
H1464 H 0.85292 0.6335 0.12438 0.0
H1465 H 0.82726 0.63179 0.10278 0.0
H1466 H 0.79194 0.61128 0.14562 0.0
C1467 C 0.85104 0.60894 0.19162 0.0
C1468 C 0.87025 0.61075 0.1913 0.0
C1469 C 0.87893 0.61823 0.17581 0.0
C1470 C 0.86874 0.62361 0.16071 0.0
C1471 C 0.84986 0.62135 0.16127 0.0
C1472 C 0.84105 0.61415 0.17626 0.0
C1473 C 0.82082 0.61143 0.17252 0.0
C1474 C 0.81514 0.59128 0.17435 0.0
C1475 C 0.80943 0.62356 0.185 0.0
C1476 C 0.81981 0.61771 0.15292 0.0
C1477 C 0.83669 0.62368 0.14687 0.0
C1478 C 0.83957 0.62908 0.12899 0.0
C1479 C 0.82491 0.62799 0.1168 0.0
C1480 C 0.80758 0.62143 0.12251 0.0
C1481 C 0.80494 0.61661 0.14092 0.0
H1482 H 0.38438 0.81949 0.10453 0.0
H1483 H 0.34781 0.78402 0.1347 0.0
H1484 H 0.33587 0.81053 0.15117 0.0
H1485 H 0.39824 0.84406 0.14035 0.0
H1486 H 0.40026 0.86583 0.12927 0.0
H1487 H 0.40214 0.84533 0.11619 0.0
H1488 H 0.376 0.8557 0.095 0.0
H1489 H 0.37407 0.87638 0.10806 0.0
H1490 H 0.35435 0.8618 0.10462 0.0
H1491 H 0.3327 0.83882 0.16858 0.0
H1492 H 0.33931 0.86655 0.18645 0.0
H1493 H 0.37831 0.88426 0.14576 0.0
C1494 C 0.37326 0.81749 0.114 0.0
C1495 C 0.36677 0.79983 0.11819 0.0
C1496 C 0.35279 0.79751 0.13121 0.0
C1497 C 0.34586 0.8125 0.14054 0.0
C1498 C 0.35309 0.82971 0.13671 0.0
C1499 C 0.36644 0.83232 0.12368 0.0
C1500 C 0.37414 0.85158 0.1244 0.0
C1501 C 0.39491 0.85169 0.12776 0.0
C1502 C 0.36934 0.86198 0.10698 0.0
C1503 C 0.36391 0.85898 0.14061 0.0
C1504 C 0.35144 0.84631 0.14715 0.0
C1505 C 0.34203 0.84905 0.16332 0.0
C1506 C 0.34592 0.86482 0.17342 0.0
C1507 C 0.35917 0.87761 0.16736 0.0
C1508 C 0.36773 0.87496 0.15041 0.0
H1509 H 0.16322 0.37739 0.13147 0.0
H1510 H 0.21542 0.36413 0.15575 0.0
H1511 H 0.20032 0.35905 0.18521 0.0
H1512 H 0.14717 0.40258 0.16726 0.0
H1513 H 0.12373 0.39501 0.16539 0.0
H1514 H 0.13811 0.39498 0.14566 0.0
H1515 H 0.13098 0.36067 0.14071 0.0
H1516 H 0.11653 0.3606 0.1605 0.0
H1517 H 0.13505 0.34486 0.1589 0.0
H1518 H 0.18066 0.35982 0.21267 0.0
H1519 H 0.15756 0.36599 0.23616 0.0
H1520 H 0.1179 0.37756 0.19401 0.0
C1521 C 0.17143 0.37304 0.14287 0.0
C1522 C 0.1905 0.37117 0.14129 0.0
C1523 C 0.20078 0.36564 0.15661 0.0
C1524 C 0.19232 0.36262 0.1734 0.0
C1525 C 0.17355 0.36496 0.17458 0.0
C1526 C 0.16319 0.36988 0.1597 0.0
C1527 C 0.14354 0.37298 0.16494 0.0
C1528 C 0.13782 0.39254 0.16056 0.0
C1529 C 0.13077 0.35894 0.15571 0.0
C1530 C 0.14465 0.36981 0.18524 0.0
C1531 C 0.16204 0.36498 0.19049 0.0
C1532 C 0.16689 0.36317 0.20872 0.0
C1533 C 0.15372 0.36675 0.22195 0.0
C1534 C 0.13595 0.37201 0.21684 0.0
C1535 C 0.13126 0.37309 0.19826 0.0
H1536 H 0.81345 0.6271 0.86854 0.0
H1537 H 0.76267 0.62212 0.83827 0.0
H1538 H 0.77959 0.62652 0.80957 0.0
H1539 H 0.83678 0.66046 0.83787 0.0
H1540 H 0.85841 0.64955 0.84095 0.0
H1541 H 0.84193 0.64941 0.85908 0.0
H1542 H 0.84316 0.61422 0.86032 0.0
H1543 H 0.85953 0.61424 0.84222 0.0
H1544 H 0.83861 0.6012 0.83994 0.0
H1545 H 0.80261 0.62748 0.78405 0.0
H1546 H 0.82955 0.62372 0.76429 0.0
H1547 H 0.86484 0.62746 0.8117 0.0
C1548 C 0.80577 0.62744 0.85595 0.0
C1549 C 0.78673 0.62435 0.85567 0.0
C1550 C 0.77727 0.62454 0.83883 0.0
C1551 C 0.78675 0.62711 0.82246 0.0
C1552 C 0.80564 0.62959 0.8232 0.0
C1553 C 0.81501 0.62986 0.83956 0.0
C1554 C 0.8354 0.63065 0.83672 0.0
C1555 C 0.84361 0.64859 0.84409 0.0
C1556 C 0.84471 0.61409 0.8453 0.0
C1557 C 0.83611 0.63 0.81621 0.0
C1558 C 0.81885 0.6298 0.80858 0.0
C1559 C 0.81619 0.62794 0.78986 0.0
C1560 C 0.83156 0.62581 0.77874 0.0
C1561 C 0.84927 0.62528 0.78647 0.0
C1562 C 0.85149 0.62787 0.80538 0.0
H1563 H 0.36256 0.85924 0.81749 0.0
H1564 H 0.34034 0.8268 0.7732 0.0
H1565 H 0.32999 0.80349 0.79507 0.0
H1566 H 0.38317 0.82571 0.8377 0.0
H1567 H 0.3798 0.83249 0.86101 0.0
H1568 H 0.37955 0.84924 0.84339 0.0
H1569 H 0.34742 0.85927 0.85349 0.0
H1570 H 0.34759 0.84246 0.8713 0.0
H1571 H 0.32914 0.84267 0.85503 0.0
H1572 H 0.32916 0.78105 0.81944 0.0
H1573 H 0.33973 0.76058 0.84354 0.0
H1574 H 0.36343 0.80653 0.87265 0.0
C1575 C 0.35465 0.84765 0.81258 0.0
C1576 C 0.35192 0.84487 0.79378 0.0
C1577 C 0.34233 0.82921 0.78762 0.0
C1578 C 0.3363 0.81599 0.79997 0.0
C1579 C 0.34005 0.8186 0.81842 0.0
C1580 C 0.34897 0.83412 0.82475 0.0
C1581 C 0.35478 0.83201 0.84443 0.0
C1582 C 0.37554 0.83502 0.84674 0.0
C1583 C 0.34409 0.84487 0.8568 0.0
C1584 C 0.34918 0.81237 0.84769 0.0
C1585 C 0.34002 0.80515 0.83275 0.0
C1586 C 0.33581 0.78665 0.83141 0.0
C1587 C 0.34192 0.7751 0.84515 0.0
C1588 C 0.35223 0.78206 0.85998 0.0
C1589 C 0.35508 0.801 0.86171 0.0
H1590 H 0.1726 0.3682 0.84675 0.0
H1591 H 0.13674 0.36291 0.89331 0.0
H1592 H 0.11017 0.36045 0.87281 0.0
H1593 H 0.14512 0.39685 0.82246 0.0
H1594 H 0.14988 0.38761 0.80028 0.0
H1595 H 0.16644 0.38573 0.81825 0.0
H1596 H 0.16664 0.35074 0.81402 0.0
H1597 H 0.15011 0.35252 0.79592 0.0
H1598 H 0.14547 0.33796 0.81509 0.0
H1599 H 0.08737 0.36269 0.848 0.0
H1600 H 0.06976 0.36943 0.82027 0.0
H1601 H 0.12015 0.37343 0.78957 0.0
C1602 C 0.15921 0.36595 0.85257 0.0
C1603 C 0.15672 0.36564 0.87159 0.0
C1604 C 0.13894 0.36318 0.87876 0.0
C1605 C 0.12377 0.36167 0.86723 0.0
C1606 C 0.12659 0.36259 0.84856 0.0
C1607 C 0.14385 0.36458 0.84122 0.0
C1608 C 0.14291 0.36709 0.8208 0.0
C1609 C 0.1516 0.38541 0.81513 0.0
C1610 C 0.15181 0.35112 0.81088 0.0
C1611 C 0.12243 0.3669 0.81796 0.0
C1612 C 0.11329 0.36401 0.83411 0.0
C1613 C 0.09434 0.36464 0.83519 0.0
C1614 C 0.08446 0.36856 0.81939 0.0
C1615 C 0.09356 0.37188 0.80274 0.0
C1616 C 0.11277 0.37069 0.80202 0.0
H1617 H 0.61729 0.15729 0.78369 0.0
H1618 H 0.61706 0.11053 0.81945 0.0
H1619 H 0.62215 0.1309 0.84588 0.0
H1620 H 0.65145 0.18578 0.81057 0.0
H1621 H 0.63925 0.20623 0.80542 0.0
H1622 H 0.63944 0.18775 0.78925 0.0
H1623 H 0.60408 0.18713 0.78886 0.0
H1624 H 0.60376 0.20542 0.80507 0.0
H1625 H 0.59189 0.18434 0.80995 0.0
H1626 H 0.62114 0.1567 0.86862 0.0
H1627 H 0.61546 0.18534 0.88528 0.0
H1628 H 0.61727 0.21492 0.83437 0.0
C1629 C 0.61893 0.15128 0.79701 0.0
C1630 C 0.61683 0.13235 0.79954 0.0
C1631 C 0.61881 0.125 0.8172 0.0
C1632 C 0.6217 0.13647 0.83228 0.0
C1633 C 0.62292 0.1552 0.8294 0.0
C1634 C 0.62192 0.1625 0.81212 0.0
C1635 C 0.62169 0.18305 0.81269 0.0
C1636 C 0.63899 0.19118 0.80397 0.0
C1637 C 0.60432 0.1904 0.80362 0.0
C1638 C 0.62164 0.18618 0.83301 0.0
C1639 C 0.62265 0.17002 0.84248 0.0
C1640 C 0.62083 0.16947 0.86136 0.0
C1641 C 0.61757 0.18579 0.87072 0.0
C1642 C 0.61607 0.20238 0.86114 0.0
C1643 C 0.61866 0.20253 0.84213 0.0
H1644 H 0.86521 0.37285 0.18 0.0
H1645 H 0.83543 0.3581 0.22887 0.0
H1646 H 0.80716 0.35496 0.21087 0.0
H1647 H 0.83268 0.40046 0.16204 0.0
H1648 H 0.83598 0.3942 0.13858 0.0
H1649 H 0.85446 0.39228 0.15455 0.0
H1650 H 0.8577 0.35822 0.14625 0.0
H1651 H 0.83922 0.36004 0.13014 0.0
H1652 H 0.83812 0.34315 0.14783 0.0
H1653 H 0.78162 0.3581 0.18896 0.0
H1654 H 0.76057 0.3666 0.16425 0.0
H1655 H 0.80672 0.37849 0.12927 0.0
C1656 C 0.85285 0.36847 0.18684 0.0
C1657 C 0.85256 0.36569 0.20584 0.0
C1658 C 0.83602 0.36029 0.21432 0.0
C1659 C 0.81988 0.35838 0.2042 0.0
C1660 C 0.82054 0.36173 0.18559 0.0
C1661 C 0.83661 0.36649 0.17693 0.0
C1662 C 0.83327 0.37102 0.15713 0.0
C1663 C 0.83946 0.39065 0.15284 0.0
C1664 C 0.84263 0.35728 0.1446 0.0
C1665 C 0.81272 0.36886 0.15624 0.0
C1666 C 0.80568 0.36326 0.17275 0.0
C1667 C 0.78696 0.36207 0.17584 0.0
C1668 C 0.77513 0.36699 0.16177 0.0
C1669 C 0.78206 0.37299 0.14485 0.0
C1670 C 0.80108 0.37352 0.14194 0.0
H1671 H 0.6124 0.83313 0.2075 0.0
H1672 H 0.62632 0.88516 0.18313 0.0
H1673 H 0.63573 0.86946 0.1551 0.0
H1674 H 0.64883 0.80571 0.18369 0.0
H1675 H 0.63341 0.78651 0.18132 0.0
H1676 H 0.6317 0.8014 0.20074 0.0
H1677 H 0.59766 0.80662 0.19308 0.0
H1678 H 0.59928 0.79195 0.17361 0.0
H1679 H 0.59155 0.81492 0.17086 0.0
H1680 H 0.63753 0.84911 0.12815 0.0
H1681 H 0.63291 0.82541 0.10468 0.0
H1682 H 0.61847 0.78641 0.14657 0.0
C1683 C 0.61807 0.84117 0.19652 0.0
C1684 C 0.61869 0.86035 0.1975 0.0
C1685 C 0.62582 0.87044 0.18271 0.0
C1686 C 0.63125 0.86163 0.16674 0.0
C1687 C 0.62969 0.84274 0.1659 0.0
C1688 C 0.62353 0.83258 0.1805 0.0
C1689 C 0.62105 0.81273 0.17542 0.0
C1690 C 0.63456 0.80089 0.18591 0.0
C1691 C 0.60121 0.80619 0.17841 0.0
C1692 C 0.62574 0.81349 0.15541 0.0
C1693 C 0.63099 0.83086 0.15025 0.0
C1694 C 0.63394 0.83536 0.13209 0.0
C1695 C 0.63117 0.82184 0.11885 0.0
C1696 C 0.6255 0.80405 0.12384 0.0
C1697 C 0.62323 0.79977 0.1424 0.0
H1698 H 0.11636 0.61339 0.17147 0.0
H1699 H 0.13972 0.63875 0.21971 0.0
H1700 H 0.16866 0.64394 0.20345 0.0
H1701 H 0.15326 0.58864 0.16086 0.0
H1702 H 0.15166 0.59054 0.13648 0.0
H1703 H 0.13153 0.59257 0.15013 0.0
H1704 H 0.1252 0.62409 0.13604 0.0
H1705 H 0.14529 0.62209 0.12214 0.0
H1706 H 0.14269 0.6416 0.13674 0.0
H1707 H 0.19621 0.64127 0.18453 0.0
H1708 H 0.22054 0.63144 0.16381 0.0
H1709 H 0.17981 0.6078 0.12748 0.0
C1710 C 0.12733 0.62072 0.17832 0.0
C1711 C 0.12578 0.62585 0.19677 0.0
C1712 C 0.14062 0.63481 0.20554 0.0
C1713 C 0.15708 0.63789 0.19639 0.0
C1714 C 0.15848 0.63198 0.17845 0.0
C1715 C 0.14396 0.62373 0.16941 0.0
C1716 C 0.14978 0.61653 0.15101 0.0
C1717 C 0.14636 0.59585 0.14955 0.0
C1718 C 0.14016 0.62669 0.13557 0.0
C1719 C 0.16998 0.62117 0.15156 0.0
C1720 C 0.17463 0.63039 0.16737 0.0
C1721 C 0.19271 0.63447 0.17189 0.0
C1722 C 0.20644 0.62874 0.16009 0.0
C1723 C 0.20202 0.61902 0.14399 0.0
C1724 C 0.18353 0.61559 0.13949 0.0
H1725 H 0.36331 0.19637 0.12301 0.0
H1726 H 0.37376 0.15509 0.08225 0.0
H1727 H 0.36991 0.13126 0.1056 0.0
H1728 H 0.38952 0.1785 0.15569 0.0
H1729 H 0.37528 0.1843 0.17471 0.0
H1730 H 0.37443 0.19758 0.1543 0.0
H1731 H 0.33956 0.19168 0.15181 0.0
H1732 H 0.34026 0.17844 0.17239 0.0
H1733 H 0.33074 0.16866 0.15187 0.0
H1734 H 0.3703 0.11263 0.13415 0.0
H1735 H 0.37543 0.10102 0.16521 0.0
H1736 H 0.36537 0.15474 0.18715 0.0
C1737 C 0.36417 0.1823 0.1188 0.0
C1738 C 0.36876 0.1776 0.10077 0.0
C1739 C 0.37013 0.15902 0.09595 0.0
C1740 C 0.3679 0.14538 0.10912 0.0
C1741 C 0.36416 0.15056 0.12697 0.0
C1742 C 0.36214 0.1686 0.13176 0.0
C1743 C 0.36061 0.17092 0.15214 0.0
C1744 C 0.37587 0.18356 0.15963 0.0
C1745 C 0.34166 0.17783 0.15736 0.0
C1746 C 0.36309 0.15149 0.15818 0.0
C1747 C 0.36467 0.13986 0.14348 0.0
C1748 C 0.3687 0.12154 0.14575 0.0
C1749 C 0.37162 0.11508 0.16344 0.0
C1750 C 0.37075 0.12698 0.17858 0.0
C1751 C 0.36592 0.14527 0.17587 0.0
H1752 H 0.85568 0.80661 0.60709 0.0
H1753 H 0.82675 0.75716 0.62239 0.0
H1754 H 0.8012 0.77532 0.63382 0.0
H1755 H 0.8368 0.8373 0.64421 0.0
H1756 H 0.83513 0.85601 0.62855 0.0
H1757 H 0.85304 0.83969 0.626 0.0
H1758 H 0.8427 0.8336 0.59277 0.0
H1759 H 0.82481 0.84979 0.59522 0.0
H1760 H 0.81937 0.8268 0.58829 0.0
H1761 H 0.777 0.79769 0.63825 0.0
H1762 H 0.75521 0.82245 0.63392 0.0
H1763 H 0.79912 0.85773 0.61497 0.0
C1764 C 0.84427 0.79971 0.61355 0.0
C1765 C 0.8432 0.78056 0.61413 0.0
C1766 C 0.82781 0.77186 0.62198 0.0
C1767 C 0.81332 0.78207 0.62862 0.0
C1768 C 0.81442 0.80095 0.62725 0.0
C1769 C 0.82952 0.80973 0.61994 0.0
C1770 C 0.82607 0.82981 0.61729 0.0
C1771 C 0.8385 0.84138 0.62976 0.0
C1772 C 0.82836 0.8353 0.59721 0.0
C1773 C 0.80635 0.83071 0.62323 0.0
C1774 C 0.80008 0.81402 0.62944 0.0
C1775 C 0.78183 0.81093 0.63383 0.0
C1776 C 0.76953 0.82506 0.63125 0.0
C1777 C 0.77552 0.84201 0.6242 0.0
C1778 C 0.79426 0.84503 0.62075 0.0
H1779 H 0.84584 0.19311 0.38521 0.0
H1780 H 0.89196 0.16347 0.36407 0.0
H1781 H 0.87255 0.13604 0.36086 0.0
H1782 H 0.82886 0.15889 0.41215 0.0
H1783 H 0.80502 0.16312 0.40822 0.0
H1784 H 0.82149 0.18136 0.40612 0.0
H1785 H 0.81046 0.18752 0.37324 0.0
H1786 H 0.79377 0.16937 0.37529 0.0
H1787 H 0.80992 0.16922 0.35687 0.0
H1788 H 0.85009 0.11096 0.36445 0.0
H1789 H 0.82506 0.08989 0.37289 0.0
H1790 H 0.79281 0.13548 0.39083 0.0
C1791 C 0.85171 0.18101 0.37939 0.0
C1792 C 0.87043 0.18046 0.37487 0.0
C1793 C 0.87768 0.16424 0.36763 0.0
C1794 C 0.86674 0.14859 0.36569 0.0
C1795 C 0.84853 0.1494 0.37088 0.0
C1796 C 0.84096 0.16522 0.37735 0.0
C1797 C 0.82142 0.16195 0.38339 0.0
C1798 C 0.81908 0.1666 0.40367 0.0
C1799 C 0.80811 0.17265 0.37148 0.0
C1800 C 0.8195 0.14168 0.38 0.0
C1801 C 0.83528 0.13478 0.37263 0.0
C1802 C 0.83751 0.11622 0.36983 0.0
C1803 C 0.82327 0.10437 0.37478 0.0
C1804 C 0.80699 0.11111 0.38235 0.0
C1805 C 0.80498 0.13003 0.38471 0.0
H1806 H 0.76814 0.82041 0.37389 0.0
H1807 H 0.78483 0.87335 0.35341 0.0
H1808 H 0.81411 0.86069 0.3435 0.0
H1809 H 0.80859 0.81029 0.39342 0.0
H1810 H 0.80826 0.78632 0.38824 0.0
H1811 H 0.78718 0.79829 0.39013 0.0
H1812 H 0.7778 0.78776 0.35771 0.0
H1813 H 0.79886 0.77558 0.35576 0.0
H1814 H 0.7929 0.79223 0.33889 0.0
H1815 H 0.84314 0.84401 0.34078 0.0
H1816 H 0.86973 0.82432 0.34496 0.0
H1817 H 0.83436 0.78207 0.36715 0.0
C1818 C 0.77769 0.82916 0.36671 0.0
C1819 C 0.77419 0.84781 0.3643 0.0
C1820 C 0.78721 0.85899 0.35532 0.0
C1821 C 0.80385 0.8519 0.34957 0.0
C1822 C 0.8072 0.8336 0.3528 0.0
C1823 C 0.79442 0.82231 0.361 0.0
C1824 C 0.80221 0.80378 0.36492 0.0
C1825 C 0.80152 0.79943 0.38539 0.0
C1826 C 0.79236 0.78896 0.35364 0.0
C1827 C 0.82162 0.80672 0.35847 0.0
C1828 C 0.82412 0.8239 0.35123 0.0
C1829 C 0.84128 0.83038 0.34602 0.0
C1830 C 0.85631 0.81913 0.34854 0.0
C1831 C 0.8541 0.80162 0.35628 0.0
C1832 C 0.83644 0.79524 0.36088 0.0
H1833 H 0.11493 0.82823 0.3901 0.0
H1834 H 0.14499 0.78229 0.36923 0.0
H1835 H 0.17118 0.80272 0.36263 0.0
H1836 H 0.13247 0.86212 0.35799 0.0
H1837 H 0.13356 0.87987 0.37493 0.0
H1838 H 0.11664 0.86191 0.37669 0.0
H1839 H 0.12821 0.85438 0.40911 0.0
H1840 H 0.14509 0.87232 0.40749 0.0
H1841 H 0.15198 0.84947 0.41257 0.0
H1842 H 0.19459 0.82764 0.35999 0.0
H1843 H 0.21417 0.85507 0.36257 0.0
H1844 H 0.16886 0.88481 0.38529 0.0
C1845 C 0.12692 0.82247 0.38394 0.0
C1846 C 0.12788 0.80365 0.38012 0.0
C1847 C 0.14393 0.79665 0.37226 0.0
C1848 C 0.15884 0.80815 0.36838 0.0
C1849 C 0.15745 0.8266 0.37241 0.0
C1850 C 0.14192 0.83372 0.38004 0.0
C1851 C 0.14432 0.85383 0.38405 0.0
C1852 C 0.13095 0.86509 0.37274 0.0
C1853 C 0.14229 0.85772 0.40452 0.0
C1854 C 0.16378 0.85685 0.37783 0.0
C1855 C 0.17102 0.84101 0.37098 0.0
C1856 C 0.18903 0.84016 0.36517 0.0
C1857 C 0.20004 0.85583 0.36673 0.0
C1858 C 0.19304 0.87212 0.3741 0.0
C1859 C 0.17455 0.87266 0.37939 0.0
H1860 H 0.19903 0.15812 0.36514 0.0
H1861 H 0.17436 0.10432 0.3697 0.0
H1862 H 0.1439 0.1175 0.36521 0.0
H1863 H 0.16848 0.17981 0.39104 0.0
H1864 H 0.16804 0.20067 0.37826 0.0
H1865 H 0.18792 0.18675 0.37765 0.0
H1866 H 0.18584 0.18503 0.34249 0.0
H1867 H 0.16593 0.1991 0.34297 0.0
H1868 H 0.16494 0.17725 0.33182 0.0
H1869 H 0.11624 0.13695 0.36588 0.0
H1870 H 0.09377 0.1609 0.37154 0.0
H1871 H 0.13657 0.20202 0.36647 0.0
C1872 C 0.18728 0.14901 0.36457 0.0
C1873 C 0.18905 0.13019 0.36769 0.0
C1874 C 0.17332 0.11877 0.36722 0.0
C1875 C 0.15597 0.12614 0.36462 0.0
C1876 C 0.15464 0.14489 0.36231 0.0
C1877 C 0.16992 0.15615 0.36205 0.0
C1878 C 0.16479 0.17599 0.36162 0.0
C1879 C 0.17277 0.1864 0.37812 0.0
C1880 C 0.17072 0.18486 0.34365 0.0
C1881 C 0.14425 0.17419 0.36271 0.0
C1882 C 0.13862 0.15615 0.36271 0.0
C1883 C 0.12044 0.15112 0.36548 0.0
C1884 C 0.10778 0.16483 0.36875 0.0
C1885 C 0.11339 0.18335 0.36937 0.0
C1886 C 0.13177 0.18803 0.36576 0.0
H1887 H 0.22334 0.16624 0.62027 0.0
H1888 H 0.19285 0.11522 0.62158 0.0
H1889 H 0.16451 0.13198 0.62733 0.0
H1890 H 0.19502 0.19107 0.65477 0.0
H1891 H 0.19719 0.21199 0.6422 0.0
H1892 H 0.2154 0.19581 0.64187 0.0
H1893 H 0.21404 0.19509 0.60664 0.0
H1894 H 0.19583 0.21113 0.60685 0.0
H1895 H 0.19272 0.18956 0.59546 0.0
H1896 H 0.13895 0.15451 0.62769 0.0
H1897 H 0.11879 0.18074 0.62278 0.0
H1898 H 0.16625 0.21672 0.62156 0.0
C1899 C 0.21081 0.15854 0.62235 0.0
C1900 C 0.21031 0.13944 0.62055 0.0
C1901 C 0.19357 0.12987 0.62302 0.0
C1902 C 0.1774 0.13927 0.62634 0.0
C1903 C 0.17825 0.1582 0.62737 0.0
C1904 C 0.1946 0.1677 0.62566 0.0
C1905 C 0.19169 0.18799 0.62525 0.0
C1906 C 0.20033 0.19726 0.64202 0.0
C1907 C 0.19899 0.19642 0.6075 0.0
C1908 C 0.1711 0.18842 0.62605 0.0
C1909 C 0.16355 0.17116 0.62762 0.0
C1910 C 0.14471 0.16813 0.62688 0.0
C1911 C 0.13336 0.18309 0.62407 0.0
C1912 C 0.14094 0.20076 0.62186 0.0
C1913 C 0.16 0.20341 0.6234 0.0
H1914 H 0.82188 0.11054 0.62534 0.0
H1915 H 0.77561 0.14544 0.63468 0.0
H1916 H 0.79674 0.17146 0.63991 0.0
H1917 H 0.85382 0.13319 0.65826 0.0
H1918 H 0.87299 0.13011 0.64334 0.0
H1919 H 0.8544 0.11376 0.64329 0.0
H1920 H 0.85027 0.11825 0.60858 0.0
H1921 H 0.86876 0.13459 0.60852 0.0
H1922 H 0.8467 0.1408 0.59984 0.0
H1923 H 0.82253 0.19428 0.63983 0.0
H1924 H 0.85073 0.2121 0.63421 0.0
H1925 H 0.88011 0.16215 0.62516 0.0
C1926 C 0.81614 0.12354 0.62892 0.0
C1927 C 0.79706 0.12592 0.62964 0.0
C1928 C 0.79017 0.14324 0.63412 0.0
C1929 C 0.80207 0.15809 0.63718 0.0
C1930 C 0.82081 0.15534 0.63589 0.0
C1931 C 0.82779 0.13844 0.63199 0.0
C1932 C 0.84829 0.13936 0.62962 0.0
C1933 C 0.85794 0.12846 0.64452 0.0
C1934 C 0.85381 0.13288 0.61051 0.0
C1935 C 0.85169 0.15956 0.63203 0.0
C1936 C 0.83571 0.16851 0.63592 0.0
C1937 C 0.83517 0.18739 0.63714 0.0
C1938 C 0.85126 0.1974 0.63387 0.0
C1939 C 0.86765 0.1885 0.62936 0.0
C1940 C 0.8679 0.16932 0.62893 0.0
H1941 H 0.17372 0.87757 0.6085 0.0
H1942 H 0.22136 0.84534 0.62056 0.0
H1943 H 0.20134 0.81868 0.62646 0.0
H1944 H 0.14288 0.85603 0.64195 0.0
H1945 H 0.12354 0.85725 0.62683 0.0
H1946 H 0.1415 0.87423 0.62566 0.0
H1947 H 0.14566 0.86723 0.59136 0.0
H1948 H 0.12779 0.85024 0.59243 0.0
H1949 H 0.15005 0.84424 0.58424 0.0
H1950 H 0.1763 0.79489 0.62811 0.0
H1951 H 0.14835 0.7759 0.62525 0.0
H1952 H 0.11735 0.82398 0.61213 0.0
C1953 C 0.17998 0.86502 0.61271 0.0
C1954 C 0.19912 0.86357 0.6141 0.0
C1955 C 0.20673 0.8468 0.61945 0.0
C1956 C 0.19546 0.8316 0.62288 0.0
C1957 C 0.17666 0.83344 0.62103 0.0
C1958 C 0.16898 0.84976 0.61616 0.0
C1959 C 0.14853 0.8479 0.61383 0.0
C1960 C 0.13853 0.85954 0.62791 0.0
C1961 C 0.14268 0.85268 0.59431 0.0
C1962 C 0.14594 0.82785 0.61763 0.0
C1963 C 0.16227 0.81976 0.62196 0.0
C1964 C 0.16339 0.80112 0.62498 0.0
C1965 C 0.14744 0.79044 0.62328 0.0
C1966 C 0.13063 0.79845 0.61851 0.0
C1967 C 0.12992 0.81745 0.61597 0.0
H1968 H 0.07942 0.21656 0.46176 0.0
H1969 H 0.1241 0.25015 0.44137 0.0
H1970 H 0.13482 0.25552 0.47274 0.0
H1971 H 0.06971 0.24355 0.5 0.0
H1972 H 0.06456 0.22472 0.51484 0.0
H1973 H 0.0611 0.22237 0.4907 0.0
H1974 H 0.08198 0.19427 0.49029 0.0
H1975 H 0.08546 0.19649 0.51447 0.0
H1976 H 0.1048 0.19619 0.49941 0.0
H1977 H 0.13945 0.25908 0.50629 0.0
H1978 H 0.13803 0.25988 0.53985 0.0
H1979 H 0.09073 0.2236 0.53833 0.0
C1980 C 0.0916 0.22485 0.46385 0.0
C1981 C 0.1009 0.23292 0.44907 0.0
C1982 C 0.11672 0.2438 0.45244 0.0
C1983 C 0.12295 0.24692 0.47022 0.0
C1984 C 0.1133 0.23899 0.48448 0.0
C1985 C 0.09804 0.22808 0.48151 0.0
C1986 C 0.08977 0.22174 0.49927 0.0
C1987 C 0.07013 0.22851 0.50132 0.0
C1988 C 0.09056 0.20094 0.50095 0.0
C1989 C 0.10258 0.23107 0.51267 0.0
C1990 C 0.1161 0.24089 0.50387 0.0
C1991 C 0.12905 0.25128 0.51337 0.0
C1992 C 0.12811 0.25169 0.5324 0.0
C1993 C 0.11433 0.24175 0.54168 0.0
C1994 C 0.10153 0.2312 0.53163 0.0
H1995 H 0.77057 0.07358 0.54472 0.0
H1996 H 0.72929 0.11411 0.55444 0.0
H1997 H 0.72574 0.11819 0.52122 0.0
H1998 H 0.79143 0.09525 0.5059 0.0
H1999 H 0.79545 0.074 0.49444 0.0
H2000 H 0.79502 0.07487 0.51891 0.0
H2001 H 0.76992 0.04962 0.51924 0.0
H2002 H 0.77025 0.04869 0.49479 0.0
H2003 H 0.74915 0.05278 0.5065 0.0
H2004 H 0.72639 0.11711 0.4865 0.0
H2005 H 0.731 0.1108 0.45376 0.0
H2006 H 0.77172 0.07088 0.46768 0.0
C2007 C 0.76084 0.08342 0.53995 0.0
C2008 C 0.75023 0.09355 0.55224 0.0
C2009 C 0.7376 0.1062 0.54531 0.0
C2010 C 0.73549 0.10862 0.52646 0.0
C2011 C 0.74613 0.0983 0.51475 0.0
C2012 C 0.75855 0.08597 0.52129 0.0
C2013 C 0.76808 0.07621 0.506 0.0
C2014 C 0.78872 0.08034 0.50633 0.0
C2015 C 0.7641 0.05561 0.50668 0.0
C2016 C 0.75901 0.08486 0.48978 0.0
C2017 C 0.74643 0.09762 0.49502 0.0
C2018 C 0.73625 0.10718 0.48226 0.0
C2019 C 0.73896 0.1035 0.4637 0.0
C2020 C 0.75171 0.09034 0.4581 0.0
C2021 C 0.76186 0.08103 0.47142 0.0
H2022 H 0.87953 0.74405 0.43964 0.0
H2023 H 0.90489 0.79762 0.43495 0.0
H2024 H 0.90313 0.80152 0.46816 0.0
H2025 H 0.8487 0.75498 0.47694 0.0
H2026 H 0.85148 0.73332 0.48793 0.0
H2027 H 0.85362 0.73507 0.46359 0.0
H2028 H 0.88578 0.72105 0.46539 0.0
H2029 H 0.88374 0.71926 0.48971 0.0
H2030 H 0.90286 0.73141 0.47995 0.0
H2031 H 0.89982 0.79936 0.50165 0.0
H2032 H 0.89593 0.79088 0.53379 0.0
H2033 H 0.87311 0.73851 0.51722 0.0
C2034 C 0.88452 0.75668 0.44558 0.0
C2035 C 0.8923 0.77055 0.43467 0.0
C2036 C 0.8989 0.78678 0.44301 0.0
C2037 C 0.8979 0.78917 0.46186 0.0
C2038 C 0.8903 0.7752 0.47222 0.0
C2039 C 0.88375 0.75925 0.46445 0.0
C2040 C 0.87705 0.74606 0.47885 0.0
C2041 C 0.85649 0.74213 0.47669 0.0
C2042 C 0.88802 0.72841 0.47845 0.0
C2043 C 0.88107 0.75704 0.49592 0.0
C2044 C 0.88857 0.77385 0.49173 0.0
C2045 C 0.89387 0.78627 0.50513 0.0
C2046 C 0.89162 0.78131 0.52335 0.0
C2047 C 0.8842 0.76404 0.52802 0.0
C2048 C 0.87871 0.75184 0.51408 0.0
H2049 H 0.22498 0.91562 0.45326 0.0
H2050 H 0.26858 0.87846 0.44051 0.0
H2051 H 0.27291 0.87268 0.47343 0.0
H2052 H 0.24551 0.93558 0.49201 0.0
H2053 H 0.22436 0.93763 0.50422 0.0
H2054 H 0.22434 0.93799 0.47976 0.0
H2055 H 0.20097 0.91114 0.4791 0.0
H2056 H 0.20089 0.9107 0.50358 0.0
H2057 H 0.20613 0.89042 0.49095 0.0
H2058 H 0.27294 0.87211 0.50825 0.0
H2059 H 0.26863 0.87665 0.54131 0.0
H2060 H 0.22494 0.91421 0.53004 0.0
C2061 C 0.23541 0.90616 0.45727 0.0
C2062 C 0.24646 0.8975 0.44427 0.0
C2063 C 0.25993 0.88524 0.45022 0.0
C2064 C 0.26248 0.88187 0.46888 0.0
C2065 C 0.25139 0.89082 0.48131 0.0
C2066 C 0.2381 0.90266 0.47567 0.0
C2067 C 0.22818 0.91095 0.49154 0.0
C2068 C 0.23076 0.93177 0.4919 0.0
C2069 C 0.20784 0.90547 0.49127 0.0
C2070 C 0.23808 0.90211 0.50711 0.0
C2071 C 0.25139 0.89048 0.50104 0.0
C2072 C 0.26249 0.88112 0.51312 0.0
C2073 C 0.25995 0.8838 0.53187 0.0
C2074 C 0.24643 0.89578 0.5383 0.0
C2075 C 0.23536 0.90492 0.52565 0.0
H2076 H 0.07371 0.7714 0.53849 0.0
H2077 H 0.11291 0.72894 0.54874 0.0
H2078 H 0.1165 0.72455 0.51561 0.0
H2079 H 0.05196 0.75022 0.49995 0.0
H2080 H 0.04882 0.77137 0.48812 0.0
H2081 H 0.04939 0.77106 0.51259 0.0
H2082 H 0.0756 0.79516 0.51256 0.0
H2083 H 0.0751 0.79556 0.48809 0.0
H2084 H 0.09608 0.79079 0.49988 0.0
H2085 H 0.11583 0.72506 0.48118 0.0
H2086 H 0.11107 0.73044 0.44837 0.0
H2087 H 0.07223 0.77252 0.46121 0.0
C2088 C 0.08308 0.76116 0.53384 0.0
C2089 C 0.09304 0.75052 0.54625 0.0
C2090 C 0.10512 0.73727 0.53951 0.0
C2091 C 0.10725 0.73467 0.52072 0.0
C2092 C 0.09718 0.74541 0.50889 0.0
C2093 C 0.08534 0.75838 0.51521 0.0
C2094 C 0.07613 0.76822 0.49975 0.0
C2095 C 0.05535 0.76502 0.50013 0.0
C2096 C 0.08103 0.78864 0.5001 0.0
C2097 C 0.08468 0.7588 0.48369 0.0
C2098 C 0.09677 0.74568 0.4892 0.0
C2099 C 0.10638 0.73529 0.47671 0.0
C2100 C 0.10357 0.73846 0.45811 0.0
C2101 C 0.09126 0.75191 0.45218 0.0
C2102 C 0.08171 0.76213 0.46524 0.0
H2103 H 0.22547 0.10337 0.45561 0.0
H2104 H 0.26339 0.14711 0.44186 0.0
H2105 H 0.26951 0.15244 0.47446 0.0
H2106 H 0.20741 0.12453 0.49719 0.0
H2107 H 0.2058 0.10315 0.50904 0.0
H2108 H 0.20323 0.10376 0.48467 0.0
H2109 H 0.22915 0.08045 0.48137 0.0
H2110 H 0.23187 0.07985 0.50569 0.0
H2111 H 0.25113 0.08539 0.49148 0.0
H2112 H 0.27354 0.15134 0.50813 0.0
H2113 H 0.27437 0.14461 0.54097 0.0
H2114 H 0.23346 0.10195 0.53308 0.0
C2115 C 0.23483 0.11426 0.45947 0.0
C2116 C 0.24394 0.12484 0.4462 0.0
C2117 C 0.25623 0.13886 0.45179 0.0
C2118 C 0.25979 0.142 0.47027 0.0
C2119 C 0.25086 0.1311 0.48299 0.0
C2120 C 0.23852 0.11761 0.47788 0.0
C2121 C 0.23139 0.10732 0.49427 0.0
C2122 C 0.21073 0.10985 0.49642 0.0
C2123 C 0.23618 0.08706 0.49313 0.0
C2124 C 0.24195 0.11689 0.50934 0.0
C2125 C 0.25304 0.13061 0.50253 0.0
C2126 C 0.26475 0.14079 0.51367 0.0
C2127 C 0.26518 0.13681 0.53229 0.0
C2128 C 0.25393 0.12282 0.53957 0.0
C2129 C 0.24207 0.11286 0.52793 0.0
H2130 H 0.88831 0.24048 0.5396 0.0
H2131 H 0.9124 0.18745 0.5471 0.0
H2132 H 0.91062 0.18193 0.51415 0.0
H2133 H 0.85762 0.22729 0.50104 0.0
H2134 H 0.86128 0.24863 0.48953 0.0
H2135 H 0.86226 0.2477 0.514 0.0
H2136 H 0.89465 0.26228 0.51344 0.0
H2137 H 0.89382 0.26318 0.489 0.0
H2138 H 0.91224 0.25171 0.50021 0.0
H2139 H 0.90958 0.18321 0.48083 0.0
H2140 H 0.90895 0.19109 0.44836 0.0
H2141 H 0.88516 0.24317 0.46146 0.0
C2142 C 0.89281 0.22755 0.53432 0.0
C2143 C 0.90045 0.21437 0.54593 0.0
C2144 C 0.90653 0.19776 0.53849 0.0
C2145 C 0.9055 0.19445 0.51979 0.0
C2146 C 0.89829 0.20784 0.50868 0.0
C2147 C 0.89196 0.22404 0.51559 0.0
C2148 C 0.88617 0.23664 0.50038 0.0
C2149 C 0.86561 0.24028 0.5013 0.0
C2150 C 0.8974 0.2545 0.50079 0.0
C2151 C 0.89078 0.22517 0.48389 0.0
C2152 C 0.89759 0.20855 0.4891 0.0
C2153 C 0.90402 0.19605 0.47654 0.0
C2154 C 0.90369 0.2007 0.45814 0.0
C2155 C 0.89694 0.2177 0.45242 0.0
C2156 C 0.8901 0.22997 0.46545 0.0
H2157 H 0.75543 0.88128 0.4577 0.0
H2158 H 0.71485 0.83842 0.44931 0.0
H2159 H 0.71307 0.83368 0.48238 0.0
H2160 H 0.77798 0.86055 0.49821 0.0
H2161 H 0.78132 0.88232 0.50915 0.0
H2162 H 0.78139 0.88072 0.48469 0.0
H2163 H 0.75591 0.90465 0.48304 0.0
H2164 H 0.75564 0.90623 0.50746 0.0
H2165 H 0.73492 0.9007 0.49522 0.0
H2166 H 0.71259 0.83604 0.51579 0.0
H2167 H 0.71439 0.84459 0.54817 0.0
H2168 H 0.75559 0.88567 0.53558 0.0
C2169 C 0.74657 0.8706 0.46283 0.0
C2170 C 0.73533 0.86018 0.45099 0.0
C2171 C 0.72358 0.84656 0.45819 0.0
C2172 C 0.72251 0.84371 0.47693 0.0
C2173 C 0.73335 0.85454 0.4883 0.0
C2174 C 0.74528 0.86761 0.48159 0.0
C2175 C 0.75428 0.87832 0.49692 0.0
C2176 C 0.77497 0.87529 0.49726 0.0
C2177 C 0.74992 0.89868 0.49557 0.0
C2178 C 0.74506 0.86961 0.5132 0.0
C2179 C 0.73317 0.85581 0.50787 0.0
C2180 C 0.72209 0.84658 0.52021 0.0
C2181 C 0.72313 0.85161 0.53854 0.0
C2182 C 0.73519 0.86571 0.54435 0.0
C2183 C 0.74645 0.87466 0.53153 0.0
H2184 H 0.45916 0.1064 0.21277 0.0
H2185 H 0.44674 0.1459 0.25472 0.0
H2186 H 0.47967 0.15117 0.26007 0.0
H2187 H 0.49591 0.08647 0.23531 0.0
H2188 H 0.50941 0.08305 0.21519 0.0
H2189 H 0.48493 0.08361 0.21348 0.0
H2190 H 0.48736 0.10948 0.18971 0.0
H2191 H 0.51189 0.10894 0.19128 0.0
H2192 H 0.50014 0.12993 0.1952 0.0
H2193 H 0.51383 0.15016 0.26267 0.0
H2194 H 0.54678 0.14358 0.26164 0.0
H2195 H 0.53682 0.10513 0.21768 0.0
C2196 C 0.46337 0.11638 0.22288 0.0
C2197 C 0.4504 0.12576 0.23332 0.0
C2198 C 0.45644 0.13859 0.24653 0.0
C2199 C 0.47511 0.14168 0.24965 0.0
C2200 C 0.48755 0.13194 0.23937 0.0
C2201 C 0.48194 0.11965 0.22615 0.0
C2202 C 0.49804 0.11034 0.21756 0.0
C2203 C 0.497 0.08965 0.22058 0.0
C2204 C 0.49944 0.11496 0.19723 0.0
C2205 C 0.51356 0.11901 0.22829 0.0
C2206 C 0.50724 0.1315 0.24075 0.0
C2207 C 0.51897 0.14058 0.25281 0.0
C2208 C 0.53764 0.13672 0.25216 0.0
C2209 C 0.54436 0.12392 0.23953 0.0
C2210 C 0.53213 0.11513 0.22736 0.0
H2211 H 0.90884 0.5241 0.22883 0.0
H2212 H 0.86576 0.5373 0.26679 0.0
H2213 H 0.86022 0.50451 0.27222 0.0
H2214 H 0.88682 0.4842 0.20939 0.0
H2215 H 0.9079 0.47211 0.20722 0.0
H2216 H 0.90797 0.49657 0.20606 0.0
H2217 H 0.93175 0.49821 0.23223 0.0
H2218 H 0.93169 0.47377 0.23353 0.0
H2219 H 0.92678 0.48707 0.25349 0.0
H2220 H 0.86029 0.47003 0.27423 0.0
H2221 H 0.86529 0.43692 0.27187 0.0
H2222 H 0.90817 0.44698 0.23239 0.0
C2223 C 0.89815 0.52016 0.23822 0.0
C2224 C 0.88774 0.53331 0.24739 0.0
C2225 C 0.87389 0.52749 0.25956 0.0
C2226 C 0.87066 0.5089 0.26276 0.0
C2227 C 0.88134 0.49633 0.25361 0.0
C2228 C 0.89472 0.50174 0.24152 0.0
C2229 C 0.90447 0.48563 0.23354 0.0
C2230 C 0.90161 0.48457 0.21282 0.0
C2231 C 0.92488 0.48621 0.2385 0.0
C2232 C 0.89458 0.47026 0.24313 0.0
C2233 C 0.88129 0.47665 0.25467 0.0
C2234 C 0.87061 0.46488 0.26517 0.0
C2235 C 0.87358 0.44611 0.26377 0.0
C2236 C 0.88709 0.43932 0.25192 0.0
C2237 C 0.89767 0.45166 0.24153 0.0
H2238 H 0.52786 0.89972 0.20782 0.0
H2239 H 0.52827 0.85505 0.24622 0.0
H2240 H 0.49481 0.85191 0.24346 0.0
H2241 H 0.48949 0.92023 0.22503 0.0
H2242 H 0.48047 0.92748 0.20344 0.0
H2243 H 0.50461 0.92444 0.20616 0.0
H2244 H 0.50456 0.90191 0.17898 0.0
H2245 H 0.48037 0.90497 0.1761 0.0
H2246 H 0.48926 0.88247 0.17913 0.0
H2247 H 0.46129 0.85574 0.23918 0.0
H2248 H 0.43001 0.8665 0.23388 0.0
H2249 H 0.45144 0.90898 0.19862 0.0
C2250 C 0.52095 0.88897 0.21526 0.0
C2251 C 0.53062 0.87755 0.22714 0.0
C2252 C 0.52108 0.86391 0.237 0.0
C2253 C 0.5021 0.86197 0.23547 0.0
C2254 C 0.49289 0.87376 0.22401 0.0
C2255 C 0.50198 0.88695 0.21401 0.0
C2256 C 0.48873 0.89896 0.20402 0.0
C2257 C 0.49096 0.91895 0.21003 0.0
C2258 C 0.49086 0.89695 0.18333 0.0
C2259 C 0.47079 0.89081 0.21042 0.0
C2260 C 0.47348 0.87613 0.22172 0.0
C2261 C 0.45898 0.86707 0.23014 0.0
C2262 C 0.44127 0.87331 0.22708 0.0
C2263 C 0.43825 0.88856 0.21581 0.0
C2264 C 0.45324 0.89719 0.20719 0.0
H2265 H 0.10647 0.54063 0.25853 0.0
H2266 H 0.08798 0.54322 0.20246 0.0
H2267 H 0.09032 0.50999 0.19982 0.0
H2268 H 0.13816 0.50181 0.25241 0.0
H2269 H 0.13219 0.49203 0.27407 0.0
H2270 H 0.13154 0.51632 0.27097 0.0
H2271 H 0.09785 0.51623 0.28148 0.0
H2272 H 0.09834 0.49198 0.28449 0.0
H2273 H 0.08136 0.50183 0.26991 0.0
H2274 H 0.09117 0.47686 0.20394 0.0
H2275 H 0.09107 0.44514 0.21447 0.0
H2276 H 0.10902 0.46317 0.268 0.0
C2277 C 0.1034 0.53421 0.24558 0.0
C2278 C 0.09712 0.54449 0.23067 0.0
C2279 C 0.0928 0.5356 0.21406 0.0
C2280 C 0.09415 0.51674 0.21239 0.0
C2281 C 0.09988 0.50694 0.22745 0.0
C2282 C 0.10454 0.51529 0.24372 0.0
C2283 C 0.10883 0.50132 0.2582 0.0
C2284 C 0.12887 0.50297 0.26426 0.0
C2285 C 0.09581 0.50294 0.27447 0.0
C2286 C 0.1053 0.48386 0.24763 0.0
C2287 C 0.10035 0.4875 0.22988 0.0
C2288 C 0.09529 0.47378 0.21772 0.0
C2289 C 0.09519 0.45582 0.22387 0.0
C2290 C 0.1001 0.45171 0.24203 0.0
C2291 C 0.10544 0.46592 0.25399 0.0
H2292 H 0.45051 0.86243 0.74906 0.0
H2293 H 0.43769 0.88864 0.80031 0.0
H2294 H 0.47058 0.8918 0.80723 0.0
H2295 H 0.49077 0.83787 0.76534 0.0
H2296 H 0.50289 0.84131 0.74432 0.0
H2297 H 0.47834 0.83963 0.74423 0.0
H2298 H 0.4767 0.87078 0.72798 0.0
H2299 H 0.5012 0.87262 0.72811 0.0
H2300 H 0.48784 0.89039 0.73811 0.0
H2301 H 0.50476 0.8945 0.8073 0.0
H2302 H 0.53782 0.89576 0.80088 0.0
H2303 H 0.5282 0.86752 0.74974 0.0
C2304 C 0.4546 0.86854 0.76189 0.0
C2305 C 0.44156 0.87527 0.77417 0.0
C2306 C 0.44746 0.88336 0.79072 0.0
C2307 C 0.4661 0.8852 0.79478 0.0
C2308 C 0.47862 0.87876 0.7822 0.0
C2309 C 0.47313 0.87048 0.76615 0.0
C2310 C 0.48931 0.86557 0.75451 0.0
C2311 C 0.49039 0.84486 0.75196 0.0
C2312 C 0.48872 0.87543 0.73609 0.0
C2313 C 0.50476 0.87275 0.76634 0.0
C2314 C 0.49833 0.88022 0.7823 0.0
C2315 C 0.50999 0.88849 0.79496 0.0
C2316 C 0.52871 0.8892 0.79118 0.0
C2317 C 0.53555 0.88167 0.77487 0.0
C2318 C 0.52339 0.87322 0.76242 0.0
H2319 H 0.06234 0.45806 0.76903 0.0
H2320 H 0.10939 0.44708 0.73524 0.0
H2321 H 0.1171 0.47992 0.73486 0.0
H2322 H 0.04953 0.49893 0.74746 0.0
H2323 H 0.04266 0.50995 0.7682 0.0
H2324 H 0.04132 0.48556 0.76633 0.0
H2325 H 0.06151 0.48254 0.79515 0.0
H2326 H 0.06289 0.50694 0.79714 0.0
H2327 H 0.08347 0.49392 0.79601 0.0
H2328 H 0.1188 0.51421 0.73718 0.0
H2329 H 0.11485 0.54707 0.74262 0.0
H2330 H 0.06689 0.5351 0.77524 0.0
C2331 C 0.07434 0.46249 0.7616 0.0
C2332 C 0.08525 0.44997 0.75214 0.0
C2333 C 0.10083 0.4564 0.74262 0.0
C2334 C 0.10532 0.47503 0.74232 0.0
C2335 C 0.09414 0.48699 0.75168 0.0
C2336 C 0.07904 0.48095 0.76122 0.0
C2337 C 0.06909 0.49654 0.76996 0.0
C2338 C 0.04949 0.49782 0.76253 0.0
C2339 C 0.06926 0.49488 0.7908 0.0
C2340 C 0.08084 0.51237 0.76369 0.0
C2341 C 0.09523 0.50661 0.75317 0.0
C2342 C 0.10765 0.51887 0.74549 0.0
C2343 C 0.10526 0.5375 0.74863 0.0
C2344 C 0.09059 0.54368 0.75941 0.0
C2345 C 0.07832 0.53086 0.76705 0.0
H2346 H 0.44589 0.1035 0.75605 0.0
H2347 H 0.44284 0.07433 0.80727 0.0
H2348 H 0.47627 0.07618 0.81011 0.0
H2349 H 0.4852 0.08184 0.73972 0.0
H2350 H 0.49498 0.10176 0.7291 0.0
H2351 H 0.47063 0.09964 0.73167 0.0
H2352 H 0.4702 0.13041 0.74889 0.0
H2353 H 0.49457 0.13265 0.74634 0.0
H2354 H 0.48452 0.1337 0.76864 0.0
H2355 H 0.50972 0.07911 0.80664 0.0
H2356 H 0.54165 0.08302 0.79702 0.0
H2357 H 0.52373 0.11046 0.74806 0.0
C2358 C 0.45223 0.09775 0.768 0.0
C2359 C 0.44169 0.0888 0.78146 0.0
C2360 C 0.45057 0.08124 0.79676 0.0
C2361 C 0.46957 0.08226 0.79854 0.0
C2362 C 0.47955 0.09093 0.78494 0.0
C2363 C 0.47126 0.09859 0.76998 0.0
C2364 C 0.48536 0.10628 0.7569 0.0
C2365 C 0.48396 0.09681 0.73825 0.0
C2366 C 0.48355 0.12699 0.75509 0.0
C2367 C 0.50283 0.10141 0.76672 0.0
C2368 C 0.49909 0.09268 0.78293 0.0
C2369 C 0.51285 0.0861 0.79407 0.0
C2370 C 0.53095 0.08834 0.78845 0.0
C2371 C 0.53518 0.0971 0.77183 0.0
C2372 C 0.52092 0.10392 0.76094 0.0
H2373 H 0.90027 0.53752 0.7601 0.0
H2374 H 0.85869 0.55623 0.72262 0.0
H2375 H 0.84952 0.52452 0.71622 0.0
H2376 H 0.91376 0.49966 0.73369 0.0
H2377 H 0.91747 0.48496 0.75287 0.0
H2378 H 0.92009 0.5092 0.75547 0.0
H2379 H 0.89663 0.50867 0.78175 0.0
H2380 H 0.89392 0.4844 0.77921 0.0
H2381 H 0.87428 0.49876 0.77794 0.0
H2382 H 0.84563 0.49101 0.71277 0.0
H2383 H 0.84776 0.45757 0.71206 0.0
H2384 H 0.89186 0.46043 0.75163 0.0
C2385 C 0.88913 0.53496 0.75068 0.0
C2386 C 0.8802 0.54939 0.74189 0.0
C2387 C 0.86578 0.54543 0.72952 0.0
C2388 C 0.86041 0.52745 0.72582 0.0
C2389 C 0.86956 0.51356 0.73461 0.0
C2390 C 0.88361 0.51706 0.74677 0.0
C2391 C 0.89168 0.49956 0.75375 0.0
C2392 C 0.91195 0.49828 0.74863 0.0
C2393 C 0.88896 0.49775 0.77439 0.0
C2394 C 0.88011 0.48574 0.7434 0.0
C2395 C 0.86735 0.49412 0.73255 0.0
C2396 C 0.85548 0.48425 0.72129 0.0
C2397 C 0.85681 0.46528 0.72097 0.0
C2398 C 0.86995 0.45641 0.7318 0.0
C2399 C 0.88159 0.46681 0.74329 0.0
H2400 H 0.22149 0.5301 0.1046 0.0
H2401 H 0.27125 0.5352 0.13653 0.0
H2402 H 0.27441 0.50177 0.1359 0.0
H2403 H 0.20458 0.4883 0.12514 0.0
H2404 H 0.1956 0.47955 0.10395 0.0
H2405 H 0.19692 0.50373 0.10782 0.0
H2406 H 0.2158 0.50761 0.07831 0.0
H2407 H 0.21467 0.48344 0.07443 0.0
H2408 H 0.23651 0.49502 0.07558 0.0
H2409 H 0.27261 0.46771 0.13067 0.0
H2410 H 0.2656 0.43585 0.12198 0.0
H2411 H 0.21721 0.45361 0.09323 0.0
C2412 C 0.23296 0.5242 0.11165 0.0
C2413 C 0.24611 0.53524 0.12066 0.0
C2414 C 0.26097 0.52699 0.12959 0.0
C2415 C 0.2629 0.50802 0.12929 0.0
C2416 C 0.24983 0.49756 0.12 0.0
C2417 C 0.2351 0.50537 0.11143 0.0
C2418 C 0.2232 0.49123 0.102 0.0
C2419 C 0.20394 0.49067 0.11023 0.0
C2420 C 0.22252 0.49453 0.08136 0.0
C2421 C 0.23357 0.47421 0.10649 0.0
C2422 C 0.24887 0.4781 0.11691 0.0
C2423 C 0.26063 0.46451 0.12256 0.0
C2424 C 0.25655 0.44646 0.11752 0.0
C2425 C 0.24086 0.44219 0.1069 0.0
C2426 C 0.22932 0.45635 0.10133 0.0
H2427 H 0.2201 0.52507 0.90848 0.0
H2428 H 0.26126 0.52478 0.86618 0.0
H2429 H 0.25785 0.4914 0.86362 0.0
H2430 H 0.23416 0.48438 0.93036 0.0
H2431 H 0.21132 0.47681 0.93578 0.0
H2432 H 0.21644 0.50075 0.93376 0.0
H2433 H 0.19089 0.50373 0.90954 0.0
H2434 H 0.18567 0.4798 0.9115 0.0
H2435 H 0.19112 0.48939 0.88962 0.0
H2436 H 0.2503 0.45821 0.86597 0.0
H2437 H 0.23972 0.42719 0.87342 0.0
H2438 H 0.20381 0.449 0.9147 0.0
C2439 C 0.22832 0.51801 0.89859 0.0
C2440 C 0.24091 0.5275 0.88747 0.0
C2441 C 0.25152 0.51776 0.87481 0.0
C2442 C 0.24966 0.49882 0.87325 0.0
C2443 C 0.23718 0.48987 0.88448 0.0
C2444 C 0.22672 0.49911 0.89693 0.0
C2445 C 0.21469 0.48619 0.90773 0.0
C2446 C 0.21945 0.48709 0.92811 0.0
C2447 C 0.19439 0.49001 0.90439 0.0
C2448 C 0.22008 0.46821 0.89946 0.0
C2449 C 0.233 0.47067 0.88601 0.0
C2450 C 0.24017 0.4561 0.87645 0.0
C2451 C 0.23405 0.43852 0.88081 0.0
C2452 C 0.22092 0.43562 0.89467 0.0
C2453 C 0.21385 0.45073 0.90404 0.0
H2454 H 0.44832 0.23726 0.88537 0.0
H2455 H 0.44145 0.27602 0.84157 0.0
H2456 H 0.47481 0.27677 0.8368 0.0
H2457 H 0.48786 0.2574 0.90408 0.0
H2458 H 0.49844 0.23626 0.90999 0.0
H2459 H 0.47398 0.23753 0.90885 0.0
H2460 H 0.47303 0.21087 0.88571 0.0
H2461 H 0.49753 0.2095 0.88679 0.0
H2462 H 0.48631 0.21247 0.86518 0.0
H2463 H 0.50894 0.27494 0.83827 0.0
H2464 H 0.54142 0.27083 0.84598 0.0
H2465 H 0.5259 0.23319 0.88879 0.0
C2466 C 0.45379 0.24572 0.8746 0.0
C2467 C 0.4423 0.25656 0.8638 0.0
C2468 C 0.45001 0.26758 0.84997 0.0
C2469 C 0.46892 0.26806 0.84713 0.0
C2470 C 0.47988 0.25738 0.85819 0.0
C2471 C 0.4726 0.24638 0.87161 0.0
C2472 C 0.48741 0.23697 0.88226 0.0
C2473 C 0.48689 0.24237 0.90249 0.0
C2474 C 0.48598 0.21622 0.87983 0.0
C2475 C 0.5042 0.24469 0.87299 0.0
C2476 C 0.49956 0.25632 0.85904 0.0
C2477 C 0.51274 0.26572 0.84904 0.0
C2478 C 0.53114 0.26332 0.85354 0.0
C2479 C 0.53618 0.25165 0.86795 0.0
C2480 C 0.52249 0.24206 0.8776 0.0
H2481 H 0.73998 0.53752 0.88477 0.0
H2482 H 0.79159 0.54857 0.91225 0.0
H2483 H 0.79932 0.51626 0.90982 0.0
H2484 H 0.73101 0.49477 0.90623 0.0
H2485 H 0.72106 0.4842 0.88631 0.0
H2486 H 0.71977 0.50844 0.88939 0.0
H2487 H 0.73505 0.51343 0.85805 0.0
H2488 H 0.73645 0.48919 0.8549 0.0
H2489 H 0.75676 0.50324 0.85348 0.0
H2490 H 0.80138 0.48301 0.90533 0.0
H2491 H 0.79711 0.45016 0.89996 0.0
H2492 H 0.74416 0.46 0.87552 0.0
C2493 C 0.75295 0.53316 0.89018 0.0
C2494 C 0.76518 0.54565 0.89868 0.0
C2495 C 0.78196 0.53933 0.90571 0.0
C2496 C 0.78653 0.52099 0.90434 0.0
C2497 C 0.77421 0.50907 0.89593 0.0
C2498 C 0.75773 0.51482 0.88901 0.0
C2499 C 0.74672 0.49896 0.88122 0.0
C2500 C 0.72857 0.49645 0.8914 0.0
C2501 C 0.74357 0.50135 0.86069 0.0
C2502 C 0.75955 0.48343 0.88501 0.0
C2503 C 0.77536 0.48965 0.89339 0.0
C2504 C 0.7891 0.47795 0.8987 0.0
C2505 C 0.78653 0.45931 0.8956 0.0
C2506 C 0.77032 0.45252 0.8873 0.0
C2507 C 0.75676 0.4648 0.88174 0.0
H2508 H 0.45138 0.73443 0.8658 0.0
H2509 H 0.44454 0.78822 0.88897 0.0
H2510 H 0.47798 0.79256 0.89008 0.0
H2511 H 0.48773 0.72225 0.89311 0.0
H2512 H 0.49977 0.70981 0.87588 0.0
H2513 H 0.47538 0.71183 0.87445 0.0
H2514 H 0.47832 0.72564 0.84219 0.0
H2515 H 0.50275 0.72352 0.84345 0.0
H2516 H 0.49289 0.7453 0.83872 0.0
H2517 H 0.51183 0.78977 0.89184 0.0
H2518 H 0.54396 0.78032 0.8934 0.0
H2519 H 0.5288 0.72829 0.86919 0.0
C2520 C 0.45692 0.7473 0.87065 0.0
C2521 C 0.4454 0.76103 0.87721 0.0
C2522 C 0.45314 0.77755 0.88383 0.0
C2523 C 0.4721 0.78015 0.88448 0.0
C2524 C 0.4831 0.76614 0.8784 0.0
C2525 C 0.47582 0.75009 0.87148 0.0
C2526 C 0.49063 0.73665 0.86716 0.0
C2527 C 0.48823 0.71911 0.87832 0.0
C2528 C 0.49118 0.73254 0.84666 0.0
C2529 C 0.50732 0.74747 0.87321 0.0
C2530 C 0.5027 0.7645 0.87948 0.0
C2531 C 0.51567 0.77657 0.88673 0.0
C2532 C 0.53385 0.77105 0.88763 0.0
C2533 C 0.53886 0.7536 0.88137 0.0
C2534 C 0.52541 0.74178 0.87392 0.0
H2535 H 0.73667 0.54275 0.10575 0.0
H2536 H 0.78991 0.54792 0.08038 0.0
H2537 H 0.79416 0.515 0.08336 0.0
H2538 H 0.74834 0.50655 0.1377 0.0
H2539 H 0.72675 0.49475 0.13511 0.0
H2540 H 0.72811 0.51906 0.13224 0.0
H2541 H 0.71371 0.51583 0.10014 0.0
H2542 H 0.71226 0.49154 0.10294 0.0
H2543 H 0.72409 0.50108 0.08367 0.0
H2544 H 0.7927 0.48203 0.08801 0.0
H2545 H 0.78487 0.44979 0.09254 0.0
H2546 H 0.73212 0.46474 0.11423 0.0
C2547 C 0.74927 0.53693 0.10101 0.0
C2548 C 0.76298 0.54792 0.09286 0.0
C2549 C 0.77918 0.53979 0.08658 0.0
C2550 C 0.78179 0.52111 0.08831 0.0
C2551 C 0.76803 0.51066 0.09626 0.0
C2552 C 0.75203 0.51815 0.10242 0.0
C2553 C 0.73908 0.50347 0.10946 0.0
C2554 C 0.73535 0.50612 0.12984 0.0
C2555 C 0.72123 0.50295 0.09839 0.0
C2556 C 0.75029 0.48662 0.10607 0.0
C2557 C 0.76701 0.49122 0.09864 0.0
C2558 C 0.77968 0.47821 0.09387 0.0
C2559 C 0.77506 0.45991 0.09649 0.0
C2560 C 0.75787 0.45472 0.10372 0.0
C2561 C 0.7454 0.4683 0.10879 0.0
H2562 H 0.53895 0.77424 0.08312 0.0
H2563 H 0.55323 0.73639 0.12591 0.0
H2564 H 0.52093 0.73452 0.13517 0.0
H2565 H 0.50389 0.7981 0.10824 0.0
H2566 H 0.48943 0.80053 0.08855 0.0
H2567 H 0.51382 0.79966 0.0859 0.0
H2568 H 0.51 0.77262 0.06343 0.0
H2569 H 0.48562 0.77347 0.06595 0.0
H2570 H 0.49738 0.7526 0.07042 0.0
H2571 H 0.48687 0.73562 0.13882 0.0
H2572 H 0.4535 0.73897 0.13598 0.0
H2573 H 0.46167 0.77629 0.09101 0.0
C2574 C 0.53535 0.76565 0.09453 0.0
C2575 C 0.54867 0.75548 0.10379 0.0
C2576 C 0.5433 0.74432 0.11859 0.0
C2577 C 0.52499 0.74321 0.124 0.0
C2578 C 0.51223 0.75338 0.11454 0.0
C2579 C 0.51717 0.76438 0.10011 0.0
C2580 C 0.50072 0.77335 0.09174 0.0
C2581 C 0.50205 0.79415 0.09373 0.0
C2582 C 0.49829 0.76766 0.0717 0.0
C2583 C 0.48571 0.76544 0.10351 0.0
C2584 C 0.49263 0.75406 0.11668 0.0
C2585 C 0.4813 0.74461 0.12867 0.0
C2586 C 0.46238 0.74661 0.12696 0.0
C2587 C 0.455 0.75793 0.11332 0.0
C2588 C 0.46689 0.76768 0.10169 0.0
H2589 H 0.53269 0.21459 0.08893 0.0
H2590 H 0.53561 0.25333 0.13352 0.0
H2591 H 0.50192 0.25375 0.13466 0.0
H2592 H 0.49726 0.235 0.06607 0.0
H2593 H 0.4864 0.21419 0.05837 0.0
H2594 H 0.51054 0.21484 0.06281 0.0
H2595 H 0.50696 0.18805 0.08541 0.0
H2596 H 0.48277 0.18721 0.08093 0.0
H2597 H 0.49103 0.18976 0.10393 0.0
H2598 H 0.46808 0.25217 0.12889 0.0
H2599 H 0.43678 0.24883 0.11667 0.0
H2600 H 0.45638 0.21166 0.0754 0.0
C2601 C 0.52627 0.22283 0.09924 0.0
C2602 C 0.53673 0.23385 0.11121 0.0
C2603 C 0.52781 0.24471 0.12428 0.0
C2604 C 0.5087 0.24501 0.12504 0.0
C2605 C 0.49878 0.23434 0.11269 0.0
C2606 C 0.50726 0.22338 0.10009 0.0
C2607 C 0.4936 0.2144 0.08734 0.0
C2608 C 0.49717 0.21995 0.06748 0.0
C2609 C 0.49359 0.19362 0.08954 0.0
C2610 C 0.47612 0.22241 0.09439 0.0
C2611 C 0.47934 0.23368 0.10917 0.0
C2612 C 0.46536 0.24322 0.11746 0.0
C2613 C 0.44764 0.24126 0.11039 0.0
C2614 C 0.44411 0.22999 0.09506 0.0
C2615 C 0.45858 0.22034 0.08715 0.0
H2616 H 0.59499 0.71777 0.03786 0.0
H2617 H 0.64126 0.75533 0.03869 0.0
H2618 H 0.64231 0.7545 0.00514 0.0
H2619 H 0.60902 0.69089 -0.00193 0.0
H2620 H 0.586 0.68856 0.98959 0.0
H2621 H 0.59013 0.69056 0.01369 0.0
H2622 H 0.56862 0.71815 0.0151 0.0
H2623 H 0.56451 0.7163 0.99103 0.0
H2624 H 0.57295 0.73743 0.00057 0.0
H2625 H 0.63713 0.75122 0.9717 0.0
H2626 H 0.62578 0.74619 0.94049 0.0
H2627 H 0.58227 0.71137 0.96134 0.0
C2628 C 0.60557 0.72552 0.03099 0.0
C2629 C 0.61814 0.73652 0.04084 0.0
C2630 C 0.63154 0.74678 0.03137 0.0
C2631 C 0.63228 0.74636 0.01234 0.0
C2632 C 0.61947 0.73565 0.003 0.0
C2633 C 0.60637 0.72541 0.01198 0.0
C2634 C 0.59342 0.71608 -0.00131 0.0
C2635 C 0.59473 0.69529 0.0001 0.0
C2636 C 0.57371 0.72237 0.00152 0.0
C2637 C 0.60111 0.72294 0.98086 0.0
C2638 C 0.61625 0.73404 0.98366 0.0
C2639 C 0.62537 0.74244 0.96931 0.0
C2640 C 0.61878 0.73951 0.95162 0.0
C2641 C 0.60311 0.72838 0.94842 0.0
C2642 C 0.5943 0.7199 0.96329 0.0
H2643 H 0.27871 0.57161 0.96496 0.0
H2644 H 0.23582 0.60933 0.95134 0.0
H2645 H 0.2309 0.61523 0.98402 0.0
H2646 H 0.25703 0.55211 0.00325 0.0
H2647 H 0.27777 0.54988 0.01624 0.0
H2648 H 0.27851 0.54937 0.99179 0.0
H2649 H 0.30219 0.57595 0.99196 0.0
H2650 H 0.30158 0.57649 0.01644 0.0
H2651 H 0.29695 0.59679 0.00366 0.0
H2652 H 0.22984 0.61594 0.01841 0.0
H2653 H 0.23319 0.61183 0.05161 0.0
H2654 H 0.27681 0.57369 0.04218 0.0
C2655 C 0.26838 0.58124 0.96879 0.0
C2656 C 0.25767 0.59001 0.95555 0.0
C2657 C 0.24424 0.60246 0.96121 0.0
C2658 C 0.24133 0.6059 0.97975 0.0
C2659 C 0.252 0.59684 0.99243 0.0
C2660 C 0.26531 0.58483 0.98717 0.0
C2661 C 0.27466 0.57651 0.00343 0.0
C2662 C 0.27181 0.55574 0.00369 0.0
C2663 C 0.29505 0.58176 0.0039 0.0
C2664 C 0.2644 0.58557 0.01868 0.0
C2665 C 0.25142 0.59728 0.01211 0.0
C2666 C 0.24004 0.60688 0.02371 0.0
C2667 C 0.24202 0.60443 0.04254 0.0
C2668 C 0.25528 0.59246 0.04954 0.0
C2669 C 0.26658 0.583 0.03734 0.0
H2670 H 0.37171 0.23601 0.01474 0.0
H2671 H 0.39578 0.28582 0.03662 0.0
H2672 H 0.39828 0.29827 0.00566 0.0
H2673 H 0.39985 0.23347 0.97596 0.0
H2674 H 0.3822 0.22489 0.96095 0.0
H2675 H 0.38099 0.22032 0.98494 0.0
H2676 H 0.34889 0.23452 0.98616 0.0
H2677 H 0.35 0.23912 0.96213 0.0
H2678 H 0.34578 0.25734 0.97794 0.0
H2679 H 0.4 0.30465 0.97246 0.0
H2680 H 0.4007 0.30457 0.93894 0.0
H2681 H 0.37536 0.25076 0.93841 0.0
C2682 C 0.37728 0.24962 0.01302 0.0
C2683 C 0.38352 0.25995 0.02809 0.0
C2684 C 0.39091 0.27764 0.02527 0.0
C2685 C 0.39235 0.28487 0.00774 0.0
C2686 C 0.38629 0.27426 0.99316 0.0
C2687 C 0.37885 0.25705 -0.00443 0.0
C2688 C 0.37412 0.24823 0.97748 0.0
C2689 C 0.38494 0.2307 0.97467 0.0
C2690 C 0.35347 0.24459 0.97583 0.0
C2691 C 0.38036 0.26307 0.96456 0.0
C2692 C 0.38724 0.278 0.97391 0.0
C2693 C 0.3945 0.29311 0.96496 0.0
C2694 C 0.39488 0.29291 0.94592 0.0
C2695 C 0.38803 0.2777 0.93602 0.0
C2696 C 0.38052 0.26268 0.94555 0.0
H2697 H 0.71764 0.40488 0.03144 0.0
H2698 H 0.76345 0.37178 0.04742 0.0
H2699 H 0.77007 0.36579 0.01496 0.0
H2700 H 0.70357 0.37793 0.99159 0.0
H2701 H 0.69766 0.39794 0.97892 0.0
H2702 H 0.69561 0.39783 0.00332 0.0
H2703 H 0.71646 0.42661 0.0053 0.0
H2704 H 0.71865 0.42676 0.98096 0.0
H2705 H 0.73878 0.42628 0.9951 0.0
H2706 H 0.77304 0.36582 0.98024 0.0
H2707 H 0.77186 0.37174 0.94708 0.0
H2708 H 0.72407 0.40487 0.95509 0.0
C2709 C 0.72891 0.39612 0.02821 0.0
C2710 C 0.74002 0.3888 0.04199 0.0
C2711 C 0.75469 0.37748 0.03709 0.0
C2712 C 0.75855 0.374 0.01869 0.0
C2713 C 0.74752 0.38182 0.00544 0.0
C2714 C 0.73291 0.39253 0.01006 0.0
C2715 C 0.72371 0.40027 0.99347 0.0
C2716 C 0.70397 0.39306 0.99173 0.0
C2717 C 0.72446 0.42121 0.99373 0.0
C2718 C 0.73566 0.39265 0.97874 0.0
C2719 C 0.74924 0.38188 0.98578 0.0
C2720 C 0.76233 0.37407 0.9746 0.0
C2721 C 0.76157 0.37751 0.9558 0.0
C2722 C 0.74789 0.38879 0.94847 0.0
C2723 C 0.73471 0.39618 0.96018 0.0
H2724 H 0.59565 0.24397 0.95249 0.0
H2725 H 0.57778 0.2996 0.9456 0.0
H2726 H 0.57809 0.30391 0.97866 0.0
H2727 H 0.56857 0.23447 0.99147 0.0
H2728 H 0.58534 0.22091 0.0029 0.0
H2729 H 0.58519 0.22223 0.97845 0.0
H2730 H 0.61894 0.23318 0.97888 0.0
H2731 H 0.6192 0.2319 0.00336 0.0
H2732 H 0.62543 0.25288 0.99221 0.0
H2733 H 0.5784 0.30225 0.01172 0.0
H2734 H 0.57831 0.29452 0.04412 0.0
H2735 H 0.59606 0.23992 0.03122 0.0
C2736 C 0.59203 0.2571 0.95797 0.0
C2737 C 0.58668 0.27145 0.94639 0.0
C2738 C 0.58183 0.28836 0.95411 0.0
C2739 C 0.58205 0.29101 0.97291 0.0
C2740 C 0.58716 0.27663 0.98392 0.0
C2741 C 0.59207 0.25999 0.97688 0.0
C2742 C 0.59608 0.24664 0.99209 0.0
C2743 C 0.58302 0.23009 0.99117 0.0
C2744 C 0.61611 0.24081 0.9916 0.0
C2745 C 0.59233 0.25837 0.00868 0.0
C2746 C 0.58734 0.27564 0.00349 0.0
C2747 C 0.58241 0.28883 0.01601 0.0
C2748 C 0.58233 0.28425 0.03441 0.0
C2749 C 0.58717 0.26661 0.04022 0.0
C2750 C 0.59251 0.25356 0.02718 0.0
H2751 H 0.71942 0.60056 0.0366 0.0
H2752 H 0.75248 0.64938 0.0448 0.0
H2753 H 0.75223 0.65497 0.01173 0.0
H2754 H 0.74203 0.58562 -0.00158 0.0
H2755 H 0.72221 0.57661 0.98671 0.0
H2756 H 0.72242 0.5779 0.01114 0.0
H2757 H 0.69294 0.59685 0.01053 0.0
H2758 H 0.69255 0.59551 0.98605 0.0
H2759 H 0.69227 0.61736 -0.0028 0.0
H2760 H 0.75151 0.65338 0.97792 0.0
H2761 H 0.75023 0.6448 0.94548 0.0
H2762 H 0.71789 0.5968 0.95907 0.0
C2763 C 0.72615 0.61269 0.03147 0.0
C2764 C 0.73586 0.62462 0.04323 0.0
C2765 C 0.74491 0.64012 0.03599 0.0
C2766 C 0.74479 0.64344 0.01725 0.0
C2767 C 0.73554 0.63114 0.00596 0.0
C2768 C 0.7263 0.61612 0.01277 0.0
C2769 C 0.71887 0.60415 -0.00243 0.0
C2770 C 0.72687 0.58494 -0.00148 0.0
C2771 C 0.69791 0.60344 -0.00214 0.0
C2772 C 0.7259 0.61447 0.98118 0.0
C2773 C 0.73527 0.63013 0.98632 0.0
C2774 C 0.74398 0.64131 0.97369 0.0
C2775 C 0.74323 0.63628 0.95531 0.0
C2776 C 0.73392 0.62017 0.94976 0.0
C2777 C 0.72494 0.6093 0.96288 0.0
H2778 H 0.38791 0.75033 0.95528 0.0
H2779 H 0.41188 0.69762 0.94528 0.0
H2780 H 0.41374 0.69222 0.97816 0.0
H2781 H 0.41574 0.76191 0.9928 0.0
H2782 H 0.39828 0.77306 0.00569 0.0
H2783 H 0.39685 0.77231 0.98126 0.0
H2784 H 0.36471 0.7573 0.9832 0.0
H2785 H 0.36599 0.7581 0.00768 0.0
H2786 H 0.36156 0.73677 -0.00377 0.0
H2787 H 0.41559 0.69322 0.0114 0.0
H2788 H 0.41675 0.70032 0.04403 0.0
H2789 H 0.39162 0.75241 0.03364 0.0
C2790 C 0.39319 0.73752 0.96006 0.0
C2791 C 0.39974 0.72439 0.94772 0.0
C2792 C 0.40686 0.70792 0.95447 0.0
C2793 C 0.40791 0.70467 0.97313 0.0
C2794 C 0.40177 0.718 0.98494 0.0
C2795 C 0.39447 0.73407 0.97878 0.0
C2796 C 0.38994 0.7465 0.99461 0.0
C2797 C 0.40086 0.76451 0.99352 0.0
C2798 C 0.36932 0.74986 -0.00452 0.0
C2799 C 0.39622 0.73501 0.01049 0.0
C2800 C 0.40287 0.71859 0.0045 0.0
C2801 C 0.41025 0.70594 0.01633 0.0
C2802 C 0.41093 0.71017 0.03485 0.0
C2803 C 0.40426 0.72691 0.04143 0.0
C2804 C 0.39666 0.73943 0.02905 0.0
H2805 H 0.25624 0.38256 0.03364 0.0
H2806 H 0.21181 0.34651 0.05 0.0
H2807 H 0.20602 0.33854 0.01791 0.0
H2808 H 0.23413 0.40019 0.99524 0.0
H2809 H 0.25424 0.40166 0.98126 0.0
H2810 H 0.25631 0.4031 0.00561 0.0
H2811 H 0.2788 0.37628 0.00537 0.0
H2812 H 0.27678 0.37475 0.98097 0.0
H2813 H 0.27203 0.35506 0.99481 0.0
H2814 H 0.2034 0.33614 0.98448 0.0
H2815 H 0.20341 0.3402 0.95126 0.0
H2816 H 0.24933 0.37799 0.956 0.0
C2817 C 0.2455 0.37276 0.03046 0.0
C2818 C 0.23451 0.36508 0.04429 0.0
C2819 C 0.22039 0.35256 0.0396 0.0
C2820 C 0.21705 0.34786 0.02143 0.0
C2821 C 0.22796 0.35582 0.00811 0.0
C2822 C 0.24188 0.36802 0.01233 0.0
C2823 C 0.25066 0.37558 0.99525 0.0
C2824 C 0.24871 0.39636 0.99429 0.0
C2825 C 0.27076 0.37008 0.99403 0.0
C2826 C 0.23919 0.36604 0.98081 0.0
C2827 C 0.22634 0.35454 0.98858 0.0
C2828 C 0.21352 0.34494 0.97819 0.0
C2829 C 0.21361 0.34737 0.95934 0.0
C2830 C 0.22638 0.35936 0.95108 0.0
C2831 C 0.23955 0.36855 0.96195 0.0
H2832 H 0.0308 0.60167 0.72629 0.0
H2833 H 0.03939 0.64258 0.76827 0.0
H2834 H 0.00664 0.64963 0.76747 0.0
H2835 H -0.00498 0.62581 0.70091 0.0
H2836 H 0.98228 0.60517 0.69608 0.0
H2837 H 0.00673 0.60457 0.69857 0.0
H2838 H 0.00327 0.58007 0.72363 0.0
H2839 H 0.97885 0.58063 0.72126 0.0
H2840 H 0.98928 0.58462 0.74317 0.0
H2841 H 0.97299 0.65058 0.76406 0.0
H2842 H 0.94019 0.64528 0.75836 0.0
H2843 H 0.95303 0.60371 0.71858 0.0
C2844 C 0.02583 0.61233 0.73507 0.0
C2845 C 0.03762 0.62163 0.74731 0.0
C2846 C 0.03058 0.6353 0.75879 0.0
C2847 C 0.01202 0.63945 0.75839 0.0
C2848 C 0.00069 0.62983 0.7464 0.0
C2849 C 0.00728 0.61659 0.73491 0.0
C2850 C -0.00805 0.60748 0.72421 0.0
C2851 C -0.00587 0.61097 0.70372 0.0
C2852 C 0.99077 0.58699 0.72832 0.0
C2853 C 0.97569 0.6174 0.7318 0.0
C2854 C 0.9811 0.63035 0.74445 0.0
C2855 C 0.96857 0.64063 0.75403 0.0
C2856 C 0.94998 0.63748 0.75073 0.0
C2857 C 0.94408 0.62413 0.738 0.0
C2858 C 0.95715 0.61415 0.72824 0.0
H2859 H 0.40276 0.95288 0.73273 0.0
H2860 H 0.35679 0.93462 0.76541 0.0
H2861 H 0.34717 0.9664 0.76901 0.0
H2862 H 0.41351 0.99198 0.75847 0.0
H2863 H 0.41963 0.00585 0.73919 0.0
H2864 H 0.42212 0.98157 0.73807 0.0
H2865 H 0.40179 0.98034 0.70915 0.0
H2866 H 0.39922 0.00465 0.7102 0.0
H2867 H 0.37932 0.98994 0.70977 0.0
H2868 H 0.34377 0.00023 0.77083 0.0
H2869 H 0.34686 0.03373 0.77065 0.0
H2870 H 0.39474 0.02972 0.7364 0.0
C2871 C 0.39056 0.9555 0.7405 0.0
C2872 C 0.38054 0.94123 0.74878 0.0
C2873 C 0.3647 0.94531 0.75891 0.0
C2874 C 0.35909 0.96332 0.761 0.0
C2875 C 0.36939 0.97706 0.75279 0.0
C2876 C 0.38474 0.97337 0.74268 0.0
C2877 C 0.39385 0.99066 0.7359 0.0
C2878 C 0.41343 0.99263 0.74336 0.0
C2879 C 0.39352 0.99144 0.71501 0.0
C2880 C 0.38142 0.00467 0.74411 0.0
C2881 C 0.36733 -0.00344 0.7537 0.0
C2882 C 0.35463 0.00675 0.7632 0.0
C2883 C 0.35651 0.02574 0.76304 0.0
C2884 C 0.37099 0.0343 0.75346 0.0
C2885 C 0.38342 0.02358 0.74369 0.0
H2886 H 0.01704 0.37383 0.7399 0.0
H2887 H 0.03847 0.39735 0.69014 0.0
H2888 H 0.0071 0.4026 0.67934 0.0
H2889 H 0.97596 0.35194 0.71927 0.0
H2890 H 0.96202 0.35705 0.73871 0.0
H2891 H 0.98609 0.35327 0.74163 0.0
H2892 H 0.98961 0.3846 0.75758 0.0
H2893 H 0.96563 0.38854 0.7546 0.0
H2894 H 0.98214 0.40475 0.746 0.0
H2895 H 0.97388 0.40818 0.67533 0.0
H2896 H 0.94073 0.4127 0.67783 0.0
H2897 H 0.94074 0.3853 0.73007 0.0
C2898 C 0.01512 0.37971 0.72656 0.0
C2899 C 0.03018 0.38515 0.71583 0.0
C2900 C 0.02712 0.39306 0.69857 0.0
C2901 C 0.00936 0.39606 0.6923 0.0
C2902 C -0.00518 0.39098 0.70341 0.0
C2903 C -0.00252 0.38282 0.7201 0.0
C2904 C 0.97954 0.3797 0.72985 0.0
C2905 C 0.97568 0.35927 0.73251 0.0
C2906 C 0.97922 0.39002 0.74808 0.0
C2907 C 0.96646 0.3878 0.71623 0.0
C2908 C 0.97555 0.39412 0.70103 0.0
C2909 C 0.96655 0.40306 0.68704 0.0
C2910 C 0.94773 0.40563 0.68864 0.0
C2911 C 0.93812 0.39929 0.70411 0.0
C2912 C 0.94765 0.39011 0.71797 0.0
H2913 H 0.60023 0.95531 0.76738 0.0
H2914 H 0.59622 0.94296 0.70981 0.0
H2915 H 0.60156 0.97525 0.70254 0.0
H2916 H 0.57505 0.99401 0.76563 0.0
H2917 H 0.58787 0.00704 0.78224 0.0
H2918 H 0.58775 0.98262 0.78315 0.0
H2919 H 0.62306 0.98278 0.78172 0.0
H2920 H 0.62329 0.00729 0.78089 0.0
H2921 H 0.63452 0.99445 0.76341 0.0
H2922 H 0.60184 0.0084 0.70131 0.0
H2923 H 0.59712 0.04114 0.70625 0.0
H2924 H 0.60112 0.03331 0.76453 0.0
C2925 C 0.60117 0.95942 0.75328 0.0
C2926 C 0.59803 0.94673 0.73911 0.0
C2927 C 0.59868 0.95254 0.72081 0.0
C2928 C 0.60181 0.97081 0.71655 0.0
C2929 C 0.60425 0.98315 0.73076 0.0
C2930 C 0.60406 0.97778 0.74878 0.0
C2931 C 0.60467 0.99419 0.76137 0.0
C2932 C 0.58783 0.99447 0.77382 0.0
C2933 C 0.62245 0.99471 0.77251 0.0
C2934 C 0.60432 0.00952 0.7476 0.0
C2935 C 0.60443 0.00276 0.73003 0.0
C2936 C 0.60221 0.01394 0.71496 0.0
C2937 C 0.59946 0.03247 0.71789 0.0
C2938 C 0.59902 0.03967 0.73572 0.0
C2939 C 0.60194 0.02815 0.75075 0.0
H2940 H 0.94875 0.38582 0.28576 0.0
H2941 H 0.94396 0.34744 0.24099 0.0
H2942 H 0.97758 0.34697 0.23851 0.0
H2943 H 0.98414 0.41198 0.26709 0.0
H2944 H -0.00437 0.41648 0.28838 0.0
H2945 H 0.9714 0.41221 0.288 0.0
H2946 H 0.9752 0.38589 0.311 0.0
H2947 H -0.00052 0.39015 0.31154 0.0
H2948 H 0.99069 0.36779 0.30592 0.0
H2949 H 0.01159 0.35238 0.23959 0.0
H2950 H 0.04329 0.3635 0.24382 0.0
H2951 H 0.02548 0.39889 0.28744 0.0
C2952 C 0.95475 0.37704 0.27568 0.0
C2953 C 0.94375 0.36657 0.26365 0.0
C2954 C 0.95215 0.35552 0.25041 0.0
C2955 C 0.97122 0.35513 0.24891 0.0
C2956 C 0.98165 0.3659 0.26076 0.0
C2957 C 0.97371 0.37662 0.2739 0.0
C2958 C 0.98786 0.38787 0.28414 0.0
C2959 C 0.98455 0.40834 0.28175 0.0
C2960 C 0.98833 0.3826 0.30435 0.0
C2961 C 0.005 0.38207 0.27447 0.0
C2962 C 0.00117 0.36925 0.26116 0.0
C2963 C 0.01477 0.3623 0.25007 0.0
C2964 C 0.03273 0.36873 0.25257 0.0
C2965 C 0.0369 0.38208 0.26596 0.0
C2966 C 0.0228 0.38866 0.27712 0.0
H2967 H 0.57466 0.03849 0.26726 0.0
H2968 H 0.6181 0.04723 0.22809 0.0
H2969 H 0.6205 0.01397 0.22401 0.0
H2970 H 0.59303 -0.00134 0.28819 0.0
H2971 H 0.57103 0.98776 0.29104 0.0
H2972 H 0.57294 0.0122 0.29099 0.0
H2973 H 0.5492 0.01361 0.26483 0.0
H2974 H 0.5472 0.98918 0.26482 0.0
H2975 H 0.55305 0.00101 0.24417 0.0
H2976 H 0.61811 0.97964 0.22435 0.0
H2977 H 0.61058 0.94706 0.22837 0.0
H2978 H 0.56843 0.96116 0.26704 0.0
C2979 C 0.58473 0.03347 0.25784 0.0
C2980 C 0.59623 0.04551 0.24803 0.0
C2981 C 0.60914 0.0383 0.23577 0.0
C2982 C 0.61062 0.01943 0.23338 0.0
C2983 C 0.59907 0.00798 0.24331 0.0
C2984 C 0.58634 0.01474 0.25524 0.0
C2985 C 0.57535 -0.0004 0.26408 0.0
C2986 C 0.57827 -0.00044 0.2848 0.0
C2987 C 0.555 0.00093 0.25918 0.0
C2988 C 0.58386 0.98322 0.25523 0.0
C2989 C 0.59757 0.98831 0.24335 0.0
C2990 C 0.6074 0.97551 0.23361 0.0
C2991 C 0.60302 0.95702 0.23601 0.0
C2992 C 0.58889 0.95151 0.24801 0.0
C2993 C 0.57928 0.96487 0.25775 0.0
H2994 H 0.02949 0.62047 0.23836 0.0
H2995 H 0.0426 0.59641 0.29052 0.0
H2996 H 0.00999 0.59564 0.2985 0.0
H2997 H 0.99063 0.64793 0.25417 0.0
H2998 H 0.97761 0.64362 0.23372 0.0
H2999 H 0.00218 0.64432 0.23289 0.0
H3000 H 0.00206 0.6121 0.21851 0.0
H3001 H 0.97753 0.61129 0.21933 0.0
H3002 H 0.99051 0.59366 0.23004 0.0
H3003 H 0.97608 0.59498 0.29989 0.0
H3004 H 0.94285 0.59403 0.29429 0.0
H3005 H 0.95152 0.61818 0.24115 0.0
C3006 C 0.0255 0.61541 0.2516 0.0
C3007 C 0.03855 0.60859 0.26386 0.0
C3008 C 0.03281 0.60172 0.28092 0.0
C3009 C 0.01433 0.60129 0.28562 0.0
C3010 C 0.00175 0.60779 0.27311 0.0
C3011 C 0.00704 0.61475 0.25646 0.0
C3012 C 0.99062 0.61954 0.24497 0.0
C3013 C 0.99024 0.64008 0.24122 0.0
C3014 C 0.99016 0.60848 0.22717 0.0
C3015 C 0.97533 0.61376 0.2576 0.0
C3016 C 0.98205 0.60723 0.27385 0.0
C3017 C 0.97062 0.60025 0.28731 0.0
C3018 C 0.95178 0.59974 0.28399 0.0
C3019 C 0.94462 0.60607 0.26731 0.0
C3020 C 0.95657 0.6134 0.25409 0.0
H3021 H 0.38244 0.0467 0.22607 0.0
H3022 H 0.40958 0.04834 0.2787 0.0
H3023 H 0.4064 0.01503 0.28093 0.0
H3024 H 0.35014 0.01018 0.2366 0.0
H3025 H 0.35152 -0.0 0.21434 0.0
H3026 H 0.35516 0.02414 0.21709 0.0
H3027 H 0.38666 0.02175 0.20147 0.0
H3028 H 0.3831 -0.00237 0.19864 0.0
H3029 H 0.40317 0.00613 0.21031 0.0
H3030 H 0.40121 0.98183 0.27727 0.0
H3031 H 0.39503 0.95028 0.26762 0.0
H3032 H 0.37136 0.96968 0.21717 0.0
C3033 C 0.3876 0.04008 0.23813 0.0
C3034 C 0.39623 0.05017 0.25223 0.0
C3035 C 0.40294 0.04094 0.2677 0.0
C3036 C 0.40115 0.02202 0.26913 0.0
C3037 C 0.39264 0.01251 0.25499 0.0
C3038 C 0.386 0.02116 0.23976 0.0
C3039 C 0.37799 0.00758 0.22623 0.0
C3040 C 0.35749 0.01066 0.22341 0.0
C3041 C 0.38836 0.00832 0.20809 0.0
C3042 C 0.38136 0.98994 0.2362 0.0
C3043 C 0.38971 0.99317 0.2528 0.0
C3044 C 0.39461 0.97911 0.26434 0.0
C3045 C 0.39104 0.96123 0.2587 0.0
C3046 C 0.3827 0.95751 0.24164 0.0
C3047 C 0.37764 0.97211 0.23033 0.0
H3048 H 0.71568 0.03115 0.60262 0.0
H3049 H 0.76024 0.03489 0.64159 0.0
H3050 H 0.76261 0.00144 0.64137 0.0
H3051 H 0.69491 0.98951 0.62034 0.0
H3052 H 0.68903 0.98096 0.59804 0.0
H3053 H 0.69023 0.00512 0.60212 0.0
H3054 H 0.7134 0.00869 0.57578 0.0
H3055 H 0.71238 0.98454 0.57172 0.0
H3056 H 0.73404 -0.00431 0.57612 0.0
H3057 H 0.76101 0.96771 0.63585 0.0
H3058 H 0.75498 0.93603 0.6261 0.0
H3059 H 0.71164 0.95451 0.59054 0.0
C3060 C 0.72579 0.02493 0.6113 0.0
C3061 C 0.73776 0.03562 0.62217 0.0
C3062 C 0.75091 0.02697 0.63319 0.0
C3063 C 0.75237 0.00798 0.63314 0.0
C3064 C 0.74057 -0.00213 0.62202 0.0
C3065 C 0.72748 0.00603 0.61138 0.0
C3066 C 0.71684 0.99211 0.60025 0.0
C3067 C 0.69655 0.99192 0.60551 0.0
C3068 C 0.71932 -0.00454 0.57975 0.0
C3069 C 0.72609 0.97487 0.60619 0.0
C3070 C 0.73971 0.97847 0.61878 0.0
C3071 C 0.75031 0.96471 0.62606 0.0
C3072 C 0.74681 0.94676 0.6204 0.0
C3073 C 0.73283 0.94275 0.60755 0.0
C3074 C 0.72241 0.95708 0.60038 0.0
H3075 H 0.71739 0.02567 0.40691 0.0
H3076 H 0.75807 0.02823 0.3642 0.0
H3077 H 0.75647 0.99484 0.36111 0.0
H3078 H 0.73435 0.98638 0.42813 0.0
H3079 H 0.7123 0.97691 0.43391 0.0
H3080 H 0.71531 0.00114 0.43175 0.0
H3081 H 0.68926 0.0019 0.40786 0.0
H3082 H 0.6861 0.97765 0.41001 0.0
H3083 H 0.69039 0.98753 0.38801 0.0
H3084 H 0.75181 0.96146 0.36362 0.0
H3085 H 0.74453 0.92975 0.37167 0.0
H3086 H 0.70725 0.94845 0.41329 0.0
C3087 C 0.72572 0.01921 0.3967 0.0
C3088 C 0.73779 0.02951 0.38572 0.0
C3089 C 0.74872 0.02057 0.37274 0.0
C3090 C 0.74788 0.00164 0.37085 0.0
C3091 C 0.73609 0.99185 0.38208 0.0
C3092 C 0.72518 0.00027 0.39475 0.0
C3093 C 0.71444 0.98643 0.40578 0.0
C3094 C 0.71941 0.9878 0.42609 0.0
C3095 C 0.69382 0.98851 0.40273 0.0
C3096 C 0.72122 0.96893 0.39748 0.0
C3097 C 0.73358 0.97242 0.38374 0.0
C3098 C 0.74207 0.95853 0.37428 0.0
C3099 C 0.73784 0.94054 0.379 0.0
C3100 C 0.7253 0.93656 0.39313 0.0
C3101 C 0.71685 0.95101 0.40241 0.0
H3102 H 0.95063 0.72472 0.38358 0.0
H3103 H 0.9435 0.76387 0.34016 0.0
H3104 H 0.97688 0.76623 0.33652 0.0
H3105 H 0.98792 0.74628 0.40403 0.0
H3106 H -0.00028 0.72582 0.41001 0.0
H3107 H 0.97528 0.7254 0.40776 0.0
H3108 H 0.97721 0.69938 0.38404 0.0
H3109 H 0.00171 0.69965 0.38629 0.0
H3110 H 0.99134 0.70236 0.36422 0.0
H3111 H 0.01067 0.76704 0.33988 0.0
H3112 H 0.04292 0.76553 0.34939 0.0
H3113 H 0.02838 0.72546 0.39028 0.0
C3114 C 0.95609 0.73349 0.37304 0.0
C3115 C 0.94448 0.74409 0.36212 0.0
C3116 C 0.95214 0.7556 0.34865 0.0
C3117 C 0.97108 0.757 0.34645 0.0
C3118 C 0.98215 0.7467 0.35772 0.0
C3119 C 0.97497 0.73504 0.37065 0.0
C3120 C 0.98993 0.72643 0.38182 0.0
C3121 C 0.9881 0.73128 0.4021 0.0
C3122 C 0.99005 0.70573 0.37891 0.0
C3123 C 0.0066 0.73549 0.37351 0.0
C3124 C 0.00179 0.74702 0.35954 0.0
C3125 C 0.01465 0.75784 0.35059 0.0
C3126 C 0.0329 0.75695 0.35614 0.0
C3127 C 0.03812 0.74531 0.37049 0.0
C3128 C 0.02481 0.73427 0.37909 0.0
H3129 H 0.23775 0.04523 0.38115 0.0
H3130 H 0.29396 0.05342 0.39871 0.0
H3131 H 0.2995 0.02079 0.39458 0.0
H3132 H 0.23087 0.00294 0.40384 0.0
H3133 H 0.2168 0.99292 0.38619 0.0
H3134 H 0.21737 0.01721 0.38933 0.0
H3135 H 0.22666 0.02144 0.35564 0.0
H3136 H 0.22619 -0.00286 0.35241 0.0
H3137 H 0.24653 0.01013 0.34711 0.0
H3138 H 0.29902 0.98763 0.38972 0.0
H3139 H 0.29212 0.95502 0.38581 0.0
H3140 H 0.23609 0.96744 0.37174 0.0
C3141 C 0.25126 0.04016 0.38397 0.0
C3142 C 0.26543 0.05191 0.39022 0.0
C3143 C 0.28286 0.04472 0.39396 0.0
C3144 C 0.28619 0.0262 0.39157 0.0
C3145 C 0.27196 0.01501 0.38546 0.0
C3146 C 0.25481 0.02161 0.38179 0.0
C3147 C 0.24173 0.00634 0.37628 0.0
C3148 C 0.22575 0.00476 0.38972 0.0
C3149 C 0.23488 0.00892 0.35669 0.0
C3150 C 0.25421 0.99014 0.37767 0.0
C3151 C 0.27162 -0.00443 0.38282 0.0
C3152 C 0.28548 0.98318 0.3856 0.0
C3153 C 0.2814 0.96469 0.38336 0.0
C3154 C 0.26358 0.95869 0.37845 0.0
C3155 C 0.24988 0.97164 0.37531 0.0
H3156 H 0.02675 0.2339 0.36956 0.0
H3157 H 0.0402 0.28318 0.39972 0.0
H3158 H 0.00765 0.29121 0.40008 0.0
H3159 H 0.9891 0.2529 0.34232 0.0
H3160 H 0.97571 0.23217 0.34362 0.0
H3161 H 0.00027 0.23131 0.34395 0.0
H3162 H -0.0009 0.21346 0.37428 0.0
H3163 H 0.9746 0.21425 0.37403 0.0
H3164 H 0.98715 0.22291 0.39341 0.0
H3165 H 0.97358 0.29237 0.39981 0.0
H3166 H 0.94034 0.28633 0.39924 0.0
H3167 H 0.94913 0.2365 0.36897 0.0
C3168 C 0.02289 0.24654 0.37596 0.0
C3169 C 0.03599 0.25794 0.38458 0.0
C3170 C 0.03037 0.27425 0.39302 0.0
C3171 C 0.01193 0.27897 0.39323 0.0
C3172 C -0.00068 0.26729 0.38484 0.0
C3173 C 0.00455 0.25145 0.3763 0.0
C3174 C 0.98817 0.24062 0.36945 0.0
C3175 C 0.98833 0.23918 0.34859 0.0
C3176 C 0.98721 0.2217 0.37833 0.0
C3177 C 0.9729 0.25259 0.37594 0.0
C3178 C 0.97962 0.26801 0.38461 0.0
C3179 C 0.96814 0.28048 0.39283 0.0
C3180 C 0.9493 0.27693 0.39246 0.0
C3181 C 0.94218 0.26101 0.38398 0.0
C3182 C 0.95415 0.24893 0.37531 0.0
H3183 H 0.28438 0.03731 0.58294 0.0
H3184 H 0.24247 0.0542 0.62074 0.0
H3185 H 0.23657 0.02219 0.6289 0.0
H3186 H 0.2611 -0.00238 0.56677 0.0
H3187 H 0.28138 0.9842 0.56499 0.0
H3188 H 0.28288 0.00853 0.56264 0.0
H3189 H 0.30697 0.01008 0.58851 0.0
H3190 H 0.30551 0.98573 0.59097 0.0
H3191 H 0.30166 0.00024 0.61032 0.0
H3192 H 0.23428 0.98842 0.63211 0.0
H3193 H 0.23571 0.95497 0.62999 0.0
H3194 H 0.27931 0.95999 0.59044 0.0
C3195 C 0.27403 0.03431 0.59301 0.0
C3196 C 0.2639 0.04831 0.60119 0.0
C3197 C 0.25043 0.04375 0.61426 0.0
C3198 C 0.24698 0.0256 0.61903 0.0
C3199 C 0.25716 0.01215 0.61067 0.0
C3200 C 0.27042 0.01625 0.59796 0.0
C3201 C 0.27908 -0.00083 0.59066 0.0
C3202 C 0.27591 -0.00273 0.57004 0.0
C3203 C 0.29952 -0.00121 0.59541 0.0
C3204 C 0.26845 0.98483 0.60111 0.0
C3205 C 0.25593 0.99262 0.61263 0.0
C3206 C 0.24412 0.98214 0.62325 0.0
C3207 C 0.24503 0.96317 0.62194 0.0
C3208 C 0.25765 0.95489 0.6101 0.0
C3209 C 0.26963 0.96592 0.59973 0.0
H3210 H 0.96636 0.2297 0.61868 0.0
H3211 H 0.94987 0.28363 0.60232 0.0
H3212 H 0.98202 0.29385 0.60208 0.0
H3213 H 0.00687 0.24418 0.64679 0.0
H3214 H 0.02029 0.22538 0.63901 0.0
H3215 H -0.00415 0.22289 0.6408 0.0
H3216 H -0.00592 0.21302 0.60699 0.0
H3217 H 0.01845 0.21557 0.60507 0.0
H3218 H 0.00372 0.2277 0.58981 0.0
H3219 H 0.01529 0.29751 0.60017 0.0
H3220 H 0.04837 0.29443 0.59623 0.0
H3221 H 0.04437 0.23797 0.61315 0.0
C3222 C 0.96957 0.24378 0.61559 0.0
C3223 C 0.95569 0.25597 0.61071 0.0
C3224 C 0.96034 0.27413 0.60616 0.0
C3225 C 0.97854 0.28008 0.60607 0.0
C3226 C -0.00803 0.26767 0.61047 0.0
C3227 C 0.9878 0.2499 0.61517 0.0
C3228 C 0.00505 0.23895 0.61746 0.0
C3229 C 0.00713 0.23247 0.63719 0.0
C3230 C 0.00533 0.22287 0.60403 0.0
C3231 C 0.01945 0.25323 0.61277 0.0
C3232 C 0.01153 0.26974 0.60906 0.0
C3233 C 0.02171 0.28474 0.60328 0.0
C3234 C 0.0405 0.28281 0.60099 0.0
C3235 C 0.04898 0.26597 0.60441 0.0
C3236 C 0.03831 0.25108 0.61069 0.0
H3237 H 0.03295 0.7202 0.5973 0.0
H3238 H 0.0366 0.76409 0.6368 0.0
H3239 H 0.00306 0.76716 0.63563 0.0
H3240 H -5e-05 0.74009 0.56981 0.0
H3241 H 0.98814 0.71911 0.56424 0.0
H3242 H 0.01206 0.71895 0.56977 0.0
H3243 H 0.00586 0.69546 0.59533 0.0
H3244 H 0.9819 0.69544 0.58978 0.0
H3245 H 0.98934 0.70043 0.61267 0.0
H3246 H 0.96933 0.76668 0.62854 0.0
H3247 H 0.93821 0.76297 0.61589 0.0
H3248 H 0.95723 0.72 0.5804 0.0
C3249 C 0.02669 0.73022 0.606 0.0
C3250 C 0.03734 0.74184 0.61724 0.0
C3251 C 0.02865 0.755 0.62815 0.0
C3252 C 0.00963 0.75682 0.62759 0.0
C3253 C -0.00044 0.74539 0.61604 0.0
C3254 C 0.0078 0.73233 0.60548 0.0
C3255 C -0.00587 0.72259 0.59328 0.0
C3256 C -0.00114 0.72536 0.57309 0.0
C3257 C -0.00727 0.70228 0.59806 0.0
C3258 C 0.97695 0.73243 0.59839 0.0
C3259 C 0.98029 0.74539 0.61168 0.0
C3260 C 0.96653 0.75648 0.61822 0.0
C3261 C 0.94891 0.75428 0.61093 0.0
C3262 C 0.94527 0.74122 0.59712 0.0
C3263 C 0.95953 0.73013 0.59091 0.0
loop_
_geom_bond_atom_site_label_1
_geom_bond_atom_site_label_2
_geom_bond_distance
_geom_bond_site_symmetry_2
_ccdc_geom_bond_type
C0 O1 1.306 . S
C0 O3 1.160 . S
O1 C0 1.306 . S
O1 Cd2 2.228 . S
Cd2 O1 2.228 . S
Cd2 O6 2.273 . S
Cd2 O10 2.277 . S
O3 C0 1.160 . S
O3 Cd4 2.203 . S
Cd4 O3 2.203 . S
Cd4 O6 2.411 . S
Cd4 O7 2.333 . S
Cd4 O8 2.352 . S
Cd4 O12 2.277 . S
Cd4 O13 2.356 . S
C5 O10 1.209 . S
C5 O12 1.226 . S
O6 Cd2 2.273 . S
O6 Cd4 2.411 . S
O6 C9 1.320 . S
O7 Cd4 2.333 . S
O7 C9 1.214 . S
O8 Cd4 2.352 . S
O8 C11 1.258 . S
C9 O6 1.320 . S
C9 O7 1.214 . S
O10 Cd2 2.277 . S
O10 C5 1.209 . S
C11 O8 1.258 . S
C11 O13 1.282 . S
O12 Cd4 2.277 . S
O12 C5 1.226 . S
O13 Cd4 2.356 . S
O13 C11 1.282 . S
C14 O15 1.306 . S
C14 O17 1.160 . S
O15 C14 1.306 . S
O15 Cd16 2.228 . S
Cd16 O15 2.228 . S
Cd16 O20 2.273 . S
Cd16 O24 2.277 . S
O17 C14 1.160 . S
O17 Cd18 2.203 . S
Cd18 O17 2.203 . S
Cd18 O20 2.411 . S
Cd18 O21 2.333 . S
Cd18 O22 2.352 . S
Cd18 O26 2.277 . S
Cd18 O27 2.356 . S
C19 O24 1.209 . S
C19 O26 1.226 . S
O20 Cd16 2.273 . S
O20 Cd18 2.411 . S
O20 C23 1.320 . S
O21 Cd18 2.333 . S
O21 C23 1.214 . S
O22 Cd18 2.352 . S
O22 C25 1.258 . S
C23 O20 1.320 . S
C23 O21 1.214 . S
O24 Cd16 2.277 . S
O24 C19 1.209 . S
C25 O22 1.258 . S
C25 O27 1.282 . S
O26 Cd18 2.277 . S
O26 C19 1.226 . S
O27 Cd18 2.356 . S
O27 C25 1.282 . S
C28 O29 1.306 . S
C28 O31 1.160 . S
O29 C28 1.306 . S
O29 Cd30 2.228 . S
Cd30 O29 2.228 . S
Cd30 O34 2.273 . S
Cd30 O38 2.277 . S
O31 C28 1.160 . S
O31 Cd32 2.203 . S
Cd32 O31 2.203 . S
Cd32 O34 2.411 . S
Cd32 O35 2.333 . S
Cd32 O36 2.352 . S
Cd32 O40 2.277 . S
Cd32 O41 2.356 . S
C33 O38 1.209 . S
C33 O40 1.226 . S
O34 Cd30 2.273 . S
O34 Cd32 2.411 . S
O34 C37 1.320 . S
O35 Cd32 2.333 . S
O35 C37 1.214 . S
O36 Cd32 2.352 . S
O36 C39 1.258 . S
C37 O34 1.320 . S
C37 O35 1.214 . S
O38 Cd30 2.277 . S
O38 C33 1.209 . S
C39 O36 1.258 . S
C39 O41 1.282 . S
O40 Cd32 2.277 . S
O40 C33 1.226 . S
O41 Cd32 2.356 . S
O41 C39 1.282 . S
C42 O43 1.306 . S
C42 O45 1.160 . S
O43 C42 1.306 . S
O43 Cd44 2.228 . S
Cd44 O43 2.228 . S
Cd44 O48 2.273 . S
Cd44 O52 2.277 . S
O45 C42 1.160 . S
O45 Cd46 2.203 . S
Cd46 O45 2.203 . S
Cd46 O48 2.411 . S
Cd46 O49 2.333 . S
Cd46 O50 2.352 . S
Cd46 O54 2.277 . S
Cd46 O55 2.356 . S
C47 O52 1.209 . S
C47 O54 1.226 . S
O48 Cd44 2.273 . S
O48 Cd46 2.411 . S
O48 C51 1.320 . S
O49 Cd46 2.333 . S
O49 C51 1.214 . S
O50 Cd46 2.352 . S
O50 C53 1.258 . S
C51 O48 1.320 . S
C51 O49 1.214 . S
O52 Cd44 2.277 . S
O52 C47 1.209 . S
C53 O50 1.258 . S
C53 O55 1.282 . S
O54 Cd46 2.277 . S
O54 C47 1.226 . S
O55 Cd46 2.356 . S
O55 C53 1.282 . S
C56 O57 1.306 . S
C56 O59 1.160 . S
O57 C56 1.306 . S
O57 Cd58 2.228 . S
Cd58 O57 2.228 . S
Cd58 O62 2.273 . S
Cd58 O66 2.277 . S
O59 C56 1.160 . S
O59 Cd60 2.203 . S
Cd60 O59 2.203 . S
Cd60 O62 2.411 . S
Cd60 O63 2.333 . S
Cd60 O64 2.352 . S
Cd60 O68 2.277 . S
Cd60 O69 2.356 . S
C61 O66 1.209 . S
C61 O68 1.226 . S
O62 Cd58 2.273 . S
O62 Cd60 2.411 . S
O62 C65 1.320 . S
O63 Cd60 2.333 . S
O63 C65 1.214 . S
O64 Cd60 2.352 . S
O64 C67 1.258 . S
C65 O62 1.320 . S
C65 O63 1.214 . S
O66 Cd58 2.277 . S
O66 C61 1.209 . S
C67 O64 1.258 . S
C67 O69 1.282 . S
O68 Cd60 2.277 . S
O68 C61 1.226 . S
O69 Cd60 2.356 . S
O69 C67 1.282 . S
C70 O71 1.306 . S
C70 O73 1.160 . S
O71 C70 1.306 . S
O71 Cd72 2.228 . S
Cd72 O71 2.228 . S
Cd72 O76 2.273 . S
Cd72 O80 2.277 . S
O73 C70 1.160 . S
O73 Cd74 2.203 . S
Cd74 O73 2.203 . S
Cd74 O76 2.411 . S
Cd74 O77 2.333 . S
Cd74 O78 2.352 . S
Cd74 O82 2.277 . S
Cd74 O83 2.356 . S
C75 O80 1.209 . S
C75 O82 1.226 . S
O76 Cd72 2.273 . S
O76 Cd74 2.411 . S
O76 C79 1.320 . S
O77 Cd74 2.333 . S
O77 C79 1.214 . S
O78 Cd74 2.352 . S
O78 C81 1.258 . S
C79 O76 1.320 . S
C79 O77 1.214 . S
O80 Cd72 2.277 . S
O80 C75 1.209 . S
C81 O78 1.258 . S
C81 O83 1.282 . S
O82 Cd74 2.277 . S
O82 C75 1.226 . S
O83 Cd74 2.356 . S
O83 C81 1.282 . S
C84 O85 1.306 . S
C84 O87 1.160 . S
O85 C84 1.306 . S
O85 Cd86 2.228 . S
Cd86 O85 2.228 . S
Cd86 O90 2.273 . S
Cd86 O94 2.277 . S
O87 C84 1.160 . S
O87 Cd88 2.203 . S
Cd88 O87 2.203 . S
Cd88 O90 2.411 . S
Cd88 O91 2.333 . S
Cd88 O92 2.352 . S
Cd88 O96 2.277 . S
Cd88 O97 2.356 . S
C89 O94 1.209 . S
C89 O96 1.226 . S
O90 Cd86 2.273 . S
O90 Cd88 2.411 . S
O90 C93 1.320 . S
O91 Cd88 2.333 . S
O91 C93 1.214 . S
O92 Cd88 2.352 . S
O92 C95 1.258 . S
C93 O90 1.320 . S
C93 O91 1.214 . S
O94 Cd86 2.277 . S
O94 C89 1.209 . S
C95 O92 1.258 . S
C95 O97 1.282 . S
O96 Cd88 2.277 . S
O96 C89 1.226 . S
O97 Cd88 2.356 . S
O97 C95 1.282 . S
C98 O99 1.306 . S
C98 O101 1.160 . S
O99 C98 1.306 . S
O99 Cd100 2.228 . S
Cd100 O99 2.228 . S
Cd100 O104 2.273 . S
Cd100 O108 2.277 . S
O101 C98 1.160 . S
O101 Cd102 2.203 . S
Cd102 O101 2.203 . S
Cd102 O104 2.411 . S
Cd102 O105 2.333 . S
Cd102 O106 2.352 . S
Cd102 O110 2.277 . S
Cd102 O111 2.356 . S
C103 O108 1.209 . S
C103 O110 1.226 . S
O104 Cd100 2.273 . S
O104 Cd102 2.411 . S
O104 C107 1.320 . S
O105 Cd102 2.333 . S
O105 C107 1.214 . S
O106 Cd102 2.352 . S
O106 C109 1.258 . S
C107 O104 1.320 . S
C107 O105 1.214 . S
O108 Cd100 2.277 . S
O108 C103 1.209 . S
C109 O106 1.258 . S
C109 O111 1.282 . S
O110 Cd102 2.277 . S
O110 C103 1.226 . S
O111 Cd102 2.356 . S
O111 C109 1.282 . S
C112 O113 1.306 . S
C112 O115 1.160 . S
O113 C112 1.306 . S
O113 Cd114 2.228 . S
Cd114 O113 2.228 . S
Cd114 O118 2.273 . S
Cd114 O122 2.277 . S
O115 C112 1.160 . S
O115 Cd116 2.203 . S
Cd116 O115 2.203 . S
Cd116 O118 2.411 . S
Cd116 O119 2.333 . S
Cd116 O120 2.352 . S
Cd116 O124 2.277 . S
Cd116 O125 2.356 . S
C117 O122 1.209 . S
C117 O124 1.226 . S
O118 Cd114 2.273 . S
O118 Cd116 2.411 . S
O118 C121 1.320 . S
O119 Cd116 2.333 . S
O119 C121 1.214 . S
O120 Cd116 2.352 . S
O120 C123 1.258 . S
C121 O118 1.320 . S
C121 O119 1.214 . S
O122 Cd114 2.277 . S
O122 C117 1.209 . S
C123 O120 1.258 . S
C123 O125 1.282 . S
O124 Cd116 2.277 . S
O124 C117 1.226 . S
O125 Cd116 2.356 . S
O125 C123 1.282 . S
C126 O127 1.306 . S
C126 O129 1.160 . S
O127 C126 1.306 . S
O127 Cd128 2.228 . S
Cd128 O127 2.228 . S
Cd128 O132 2.273 . S
Cd128 O136 2.277 . S
O129 C126 1.160 . S
O129 Cd130 2.203 . S
Cd130 O129 2.203 . S
Cd130 O132 2.411 . S
Cd130 O133 2.333 . S
Cd130 O134 2.352 . S
Cd130 O138 2.277 . S
Cd130 O139 2.356 . S
C131 O136 1.209 . S
C131 O138 1.226 . S
O132 Cd128 2.273 . S
O132 Cd130 2.411 . S
O132 C135 1.320 . S
O133 Cd130 2.333 . S
O133 C135 1.214 . S
O134 Cd130 2.352 . S
O134 C137 1.258 . S
C135 O132 1.320 . S
C135 O133 1.214 . S
O136 Cd128 2.277 . S
O136 C131 1.209 . S
C137 O134 1.258 . S
C137 O139 1.282 . S
O138 Cd130 2.277 . S
O138 C131 1.226 . S
O139 Cd130 2.356 . S
O139 C137 1.282 . S
C140 O141 1.306 . S
C140 O143 1.160 . S
O141 C140 1.306 . S
O141 Cd142 2.228 . S
Cd142 O141 2.228 . S
Cd142 O146 2.273 . S
Cd142 O150 2.277 . S
O143 C140 1.160 . S
O143 Cd144 2.203 . S
Cd144 O143 2.203 . S
Cd144 O146 2.411 . S
Cd144 O147 2.333 . S
Cd144 O148 2.352 . S
Cd144 O152 2.277 . S
Cd144 O153 2.356 . S
C145 O150 1.209 . S
C145 O152 1.226 . S
O146 Cd142 2.273 . S
O146 Cd144 2.411 . S
O146 C149 1.320 . S
O147 Cd144 2.333 . S
O147 C149 1.214 . S
O148 Cd144 2.352 . S
O148 C151 1.258 . S
C149 O146 1.320 . S
C149 O147 1.214 . S
O150 Cd142 2.277 . S
O150 C145 1.209 . S
C151 O148 1.258 . S
C151 O153 1.282 . S
O152 Cd144 2.277 . S
O152 C145 1.226 . S
O153 Cd144 2.356 . S
O153 C151 1.282 . S
C154 O155 1.306 . S
C154 O157 1.160 . S
O155 C154 1.306 . S
O155 Cd156 2.228 . S
Cd156 O155 2.228 . S
Cd156 O160 2.273 . S
Cd156 O164 2.277 . S
O157 C154 1.160 . S
O157 Cd158 2.203 . S
Cd158 O157 2.203 . S
Cd158 O160 2.411 . S
Cd158 O161 2.333 . S
Cd158 O162 2.352 . S
Cd158 O166 2.277 . S
Cd158 O167 2.356 . S
C159 O164 1.209 . S
C159 O166 1.226 . S
O160 Cd156 2.273 . S
O160 Cd158 2.411 . S
O160 C163 1.320 . S
O161 Cd158 2.333 . S
O161 C163 1.214 . S
O162 Cd158 2.352 . S
O162 C165 1.258 . S
C163 O160 1.320 . S
C163 O161 1.214 . S
O164 Cd156 2.277 . S
O164 C159 1.209 . S
C165 O162 1.258 . S
C165 O167 1.282 . S
O166 Cd158 2.277 . S
O166 C159 1.226 . S
O167 Cd158 2.356 . S
O167 C165 1.282 . S
C168 O169 1.306 . S
C168 O171 1.160 . S
O169 C168 1.306 . S
O169 Cd170 2.228 . S
Cd170 O169 2.228 . S
Cd170 O174 2.273 . S
Cd170 O178 2.277 . S
O171 C168 1.160 . S
O171 Cd172 2.203 . S
Cd172 O171 2.203 . S
Cd172 O174 2.411 . S
Cd172 O175 2.333 . S
Cd172 O176 2.352 . S
Cd172 O180 2.277 . S
Cd172 O181 2.356 . S
C173 O178 1.209 . S
C173 O180 1.226 . S
O174 Cd170 2.273 . S
O174 Cd172 2.411 . S
O174 C177 1.320 . S
O175 Cd172 2.333 . S
O175 C177 1.214 . S
O176 Cd172 2.352 . S
O176 C179 1.258 . S
C177 O174 1.320 . S
C177 O175 1.214 . S
O178 Cd170 2.277 . S
O178 C173 1.209 . S
C179 O176 1.258 . S
C179 O181 1.282 . S
O180 Cd172 2.277 . S
O180 C173 1.226 . S
O181 Cd172 2.356 . S
O181 C179 1.282 . S
C182 O183 1.306 . S
C182 O185 1.160 . S
O183 C182 1.306 . S
O183 Cd184 2.228 . S
Cd184 O183 2.228 . S
Cd184 O188 2.273 . S
Cd184 O192 2.277 . S
O185 C182 1.160 . S
O185 Cd186 2.203 . S
Cd186 O185 2.203 . S
Cd186 O188 2.411 . S
Cd186 O189 2.333 . S
Cd186 O190 2.352 . S
Cd186 O194 2.277 . S
Cd186 O195 2.356 . S
C187 O192 1.209 . S
C187 O194 1.226 . S
O188 Cd184 2.273 . S
O188 Cd186 2.411 . S
O188 C191 1.320 . S
O189 Cd186 2.333 . S
O189 C191 1.214 . S
O190 Cd186 2.352 . S
O190 C193 1.258 . S
C191 O188 1.320 . S
C191 O189 1.214 . S
O192 Cd184 2.277 . S
O192 C187 1.209 . S
C193 O190 1.258 . S
C193 O195 1.282 . S
O194 Cd186 2.277 . S
O194 C187 1.226 . S
O195 Cd186 2.356 . S
O195 C193 1.282 . S
C196 O197 1.306 . S
C196 O199 1.160 . S
O197 C196 1.306 . S
O197 Cd198 2.228 . S
Cd198 O197 2.228 . S
Cd198 O202 2.273 . S
Cd198 O206 2.277 . S
O199 C196 1.160 . S
O199 Cd200 2.203 . S
Cd200 O199 2.203 . S
Cd200 O202 2.411 . S
Cd200 O203 2.333 . S
Cd200 O204 2.352 . S
Cd200 O208 2.277 . S
Cd200 O209 2.356 . S
C201 O206 1.209 . S
C201 O208 1.226 . S
O202 Cd198 2.273 . S
O202 Cd200 2.411 . S
O202 C205 1.320 . S
O203 Cd200 2.333 . S
O203 C205 1.214 . S
O204 Cd200 2.352 . S
O204 C207 1.258 . S
C205 O202 1.320 . S
C205 O203 1.214 . S
O206 Cd198 2.277 . S
O206 C201 1.209 . S
C207 O204 1.258 . S
C207 O209 1.282 . S
O208 Cd200 2.277 . S
O208 C201 1.226 . S
O209 Cd200 2.356 . S
O209 C207 1.282 . S
C210 O211 1.306 . S
C210 O213 1.160 . S
O211 C210 1.306 . S
O211 Cd212 2.228 . S
Cd212 O211 2.228 . S
Cd212 O216 2.273 . S
Cd212 O220 2.277 . S
O213 C210 1.160 . S
O213 Cd214 2.203 . S
Cd214 O213 2.203 . S
Cd214 O216 2.411 . S
Cd214 O217 2.333 . S
Cd214 O218 2.352 . S
Cd214 O222 2.277 . S
Cd214 O223 2.356 . S
C215 O220 1.209 . S
C215 O222 1.226 . S
O216 Cd212 2.273 . S
O216 Cd214 2.411 . S
O216 C219 1.320 . S
O217 Cd214 2.333 . S
O217 C219 1.214 . S
O218 Cd214 2.352 . S
O218 C221 1.258 . S
C219 O216 1.320 . S
C219 O217 1.214 . S
O220 Cd212 2.277 . S
O220 C215 1.209 . S
C221 O218 1.258 . S
C221 O223 1.282 . S
O222 Cd214 2.277 . S
O222 C215 1.226 . S
O223 Cd214 2.356 . S
O223 C221 1.282 . S
C224 O225 1.306 . S
C224 O227 1.160 . S
O225 C224 1.306 . S
O225 Cd226 2.228 . S
Cd226 O225 2.228 . S
Cd226 O230 2.273 . S
Cd226 O234 2.277 . S
O227 C224 1.160 . S
O227 Cd228 2.203 . S
Cd228 O227 2.203 . S
Cd228 O230 2.411 . S
Cd228 O231 2.333 . S
Cd228 O232 2.352 . S
Cd228 O236 2.277 . S
Cd228 O237 2.356 . S
C229 O234 1.209 . S
C229 O236 1.226 . S
O230 Cd226 2.273 . S
O230 Cd228 2.411 . S
O230 C233 1.320 . S
O231 Cd228 2.333 . S
O231 C233 1.214 . S
O232 Cd228 2.352 . S
O232 C235 1.258 . S
C233 O230 1.320 . S
C233 O231 1.214 . S
O234 Cd226 2.277 . S
O234 C229 1.209 . S
C235 O232 1.258 . S
C235 O237 1.282 . S
O236 Cd228 2.277 . S
O236 C229 1.226 . S
O237 Cd228 2.356 . S
O237 C235 1.282 . S
C238 O239 1.306 . S
C238 O241 1.160 . S
O239 C238 1.306 . S
O239 Cd240 2.228 . S
Cd240 O239 2.228 . S
Cd240 O244 2.273 . S
Cd240 O248 2.277 . S
O241 C238 1.160 . S
O241 Cd242 2.203 . S
Cd242 O241 2.203 . S
Cd242 O244 2.411 . S
Cd242 O245 2.333 . S
Cd242 O246 2.352 . S
Cd242 O250 2.277 . S
Cd242 O251 2.356 . S
C243 O248 1.209 . S
C243 O250 1.226 . S
O244 Cd240 2.273 . S
O244 Cd242 2.411 . S
O244 C247 1.320 . S
O245 Cd242 2.333 . S
O245 C247 1.214 . S
O246 Cd242 2.352 . S
O246 C249 1.258 . S
C247 O244 1.320 . S
C247 O245 1.214 . S
O248 Cd240 2.277 . S
O248 C243 1.209 . S
C249 O246 1.258 . S
C249 O251 1.282 . S
O250 Cd242 2.277 . S
O250 C243 1.226 . S
O251 Cd242 2.356 . S
O251 C249 1.282 . S
C252 O253 1.306 . S
C252 O255 1.160 . S
O253 C252 1.306 . S
O253 Cd254 2.228 . S
Cd254 O253 2.228 . S
Cd254 O258 2.273 . S
Cd254 O262 2.277 . S
O255 C252 1.160 . S
O255 Cd256 2.203 . S
Cd256 O255 2.203 . S
Cd256 O258 2.411 . S
Cd256 O259 2.333 . S
Cd256 O260 2.352 . S
Cd256 O264 2.277 . S
Cd256 O265 2.356 . S
C257 O262 1.209 . S
C257 O264 1.226 . S
O258 Cd254 2.273 . S
O258 Cd256 2.411 . S
O258 C261 1.320 . S
O259 Cd256 2.333 . S
O259 C261 1.214 . S
O260 Cd256 2.352 . S
O260 C263 1.258 . S
C261 O258 1.320 . S
C261 O259 1.214 . S
O262 Cd254 2.277 . S
O262 C257 1.209 . S
C263 O260 1.258 . S
C263 O265 1.282 . S
O264 Cd256 2.277 . S
O264 C257 1.226 . S
O265 Cd256 2.356 . S
O265 C263 1.282 . S
C266 O267 1.306 . S
C266 O269 1.160 . S
O267 C266 1.306 . S
O267 Cd268 2.228 . S
Cd268 O267 2.228 . S
Cd268 O272 2.273 . S
Cd268 O276 2.277 . S
O269 C266 1.160 . S
O269 Cd270 2.203 . S
Cd270 O269 2.203 . S
Cd270 O272 2.411 . S
Cd270 O273 2.333 . S
Cd270 O274 2.352 . S
Cd270 O278 2.277 . S
Cd270 O279 2.356 . S
C271 O276 1.209 . S
C271 O278 1.226 . S
O272 Cd268 2.273 . S
O272 Cd270 2.411 . S
O272 C275 1.320 . S
O273 Cd270 2.333 . S
O273 C275 1.214 . S
O274 Cd270 2.352 . S
O274 C277 1.258 . S
C275 O272 1.320 . S
C275 O273 1.214 . S
O276 Cd268 2.277 . S
O276 C271 1.209 . S
C277 O274 1.258 . S
C277 O279 1.282 . S
O278 Cd270 2.277 . S
O278 C271 1.226 . S
O279 Cd270 2.356 . S
O279 C277 1.282 . S
C280 O281 1.306 . S
C280 O283 1.160 . S
O281 C280 1.306 . S
O281 Cd282 2.228 . S
Cd282 O281 2.228 . S
Cd282 O286 2.273 . S
Cd282 O290 2.277 . S
O283 C280 1.160 . S
O283 Cd284 2.203 . S
Cd284 O283 2.203 . S
Cd284 O286 2.411 . S
Cd284 O287 2.333 . S
Cd284 O288 2.352 . S
Cd284 O292 2.277 . S
Cd284 O293 2.356 . S
C285 O290 1.209 . S
C285 O292 1.226 . S
O286 Cd282 2.273 . S
O286 Cd284 2.411 . S
O286 C289 1.320 . S
O287 Cd284 2.333 . S
O287 C289 1.214 . S
O288 Cd284 2.352 . S
O288 C291 1.258 . S
C289 O286 1.320 . S
C289 O287 1.214 . S
O290 Cd282 2.277 . S
O290 C285 1.209 . S
C291 O288 1.258 . S
C291 O293 1.282 . S
O292 Cd284 2.277 . S
O292 C285 1.226 . S
O293 Cd284 2.356 . S
O293 C291 1.282 . S
C294 O295 1.306 . S
C294 O297 1.160 . S
O295 C294 1.306 . S
O295 Cd296 2.228 . S
Cd296 O295 2.228 . S
Cd296 O300 2.273 . S
Cd296 O304 2.277 . S
O297 C294 1.160 . S
O297 Cd298 2.203 . S
Cd298 O297 2.203 . S
Cd298 O300 2.411 . S
Cd298 O301 2.333 . S
Cd298 O302 2.352 . S
Cd298 O306 2.277 . S
Cd298 O307 2.356 . S
C299 O304 1.209 . S
C299 O306 1.226 . S
O300 Cd296 2.273 . S
O300 Cd298 2.411 . S
O300 C303 1.320 . S
O301 Cd298 2.333 . S
O301 C303 1.214 . S
O302 Cd298 2.352 . S
O302 C305 1.258 . S
C303 O300 1.320 . S
C303 O301 1.214 . S
O304 Cd296 2.277 . S
O304 C299 1.209 . S
C305 O302 1.258 . S
C305 O307 1.282 . S
O306 Cd298 2.277 . S
O306 C299 1.226 . S
O307 Cd298 2.356 . S
O307 C305 1.282 . S
C308 O309 1.306 . S
C308 O311 1.160 . S
O309 C308 1.306 . S
O309 Cd310 2.228 . S
Cd310 O309 2.228 . S
Cd310 O314 2.273 . S
Cd310 O318 2.277 . S
O311 C308 1.160 . S
O311 Cd312 2.203 . S
Cd312 O311 2.203 . S
Cd312 O314 2.411 . S
Cd312 O315 2.333 . S
Cd312 O316 2.352 . S
Cd312 O320 2.277 . S
Cd312 O321 2.356 . S
C313 O318 1.209 . S
C313 O320 1.226 . S
O314 Cd310 2.273 . S
O314 Cd312 2.411 . S
O314 C317 1.320 . S
O315 Cd312 2.333 . S
O315 C317 1.214 . S
O316 Cd312 2.352 . S
O316 C319 1.258 . S
C317 O314 1.320 . S
C317 O315 1.214 . S
O318 Cd310 2.277 . S
O318 C313 1.209 . S
C319 O316 1.258 . S
C319 O321 1.282 . S
O320 Cd312 2.277 . S
O320 C313 1.226 . S
O321 Cd312 2.356 . S
O321 C319 1.282 . S
C322 O323 1.306 . S
C322 O325 1.160 . S
O323 C322 1.306 . S
O323 Cd324 2.228 . S
Cd324 O323 2.228 . S
Cd324 O328 2.273 . S
Cd324 O332 2.277 . S
O325 C322 1.160 . S
O325 Cd326 2.203 . S
Cd326 O325 2.203 . S
Cd326 O328 2.411 . S
Cd326 O329 2.333 . S
Cd326 O330 2.352 . S
Cd326 O334 2.277 . S
Cd326 O335 2.356 . S
C327 O332 1.209 . S
C327 O334 1.226 . S
O328 Cd324 2.273 . S
O328 Cd326 2.411 . S
O328 C331 1.320 . S
O329 Cd326 2.333 . S
O329 C331 1.214 . S
O330 Cd326 2.352 . S
O330 C333 1.258 . S
C331 O328 1.320 . S
C331 O329 1.214 . S
O332 Cd324 2.277 . S
O332 C327 1.209 . S
C333 O330 1.258 . S
C333 O335 1.282 . S
O334 Cd326 2.277 . S
O334 C327 1.226 . S
O335 Cd326 2.356 . S
O335 C333 1.282 . S
C336 O337 1.306 . S
C336 O339 1.160 . S
O337 C336 1.306 . S
O337 Cd338 2.228 . S
Cd338 O337 2.228 . S
Cd338 O342 2.273 . S
Cd338 O346 2.277 . S
O339 C336 1.160 . S
O339 Cd340 2.203 . S
Cd340 O339 2.203 . S
Cd340 O342 2.411 . S
Cd340 O343 2.333 . S
Cd340 O344 2.352 . S
Cd340 O348 2.277 . S
Cd340 O349 2.356 . S
C341 O346 1.209 . S
C341 O348 1.226 . S
O342 Cd338 2.273 . S
O342 Cd340 2.411 . S
O342 C345 1.320 . S
O343 Cd340 2.333 . S
O343 C345 1.214 . S
O344 Cd340 2.352 . S
O344 C347 1.258 . S
C345 O342 1.320 . S
C345 O343 1.214 . S
O346 Cd338 2.277 . S
O346 C341 1.209 . S
C347 O344 1.258 . S
C347 O349 1.282 . S
O348 Cd340 2.277 . S
O348 C341 1.226 . S
O349 Cd340 2.356 . S
O349 C347 1.282 . S
C350 O351 1.306 . S
C350 O353 1.160 . S
O351 C350 1.306 . S
O351 Cd352 2.228 . S
Cd352 O351 2.228 . S
Cd352 O356 2.273 . S
Cd352 O360 2.277 . S
O353 C350 1.160 . S
O353 Cd354 2.203 . S
Cd354 O353 2.203 . S
Cd354 O356 2.411 . S
Cd354 O357 2.333 . S
Cd354 O358 2.352 . S
Cd354 O362 2.277 . S
Cd354 O363 2.356 . S
C355 O360 1.209 . S
C355 O362 1.226 . S
O356 Cd352 2.273 . S
O356 Cd354 2.411 . S
O356 C359 1.320 . S
O357 Cd354 2.333 . S
O357 C359 1.214 . S
O358 Cd354 2.352 . S
O358 C361 1.258 . S
C359 O356 1.320 . S
C359 O357 1.214 . S
O360 Cd352 2.277 . S
O360 C355 1.209 . S
C361 O358 1.258 . S
C361 O363 1.282 . S
O362 Cd354 2.277 . S
O362 C355 1.226 . S
O363 Cd354 2.356 . S
O363 C361 1.282 . S
C364 O365 1.306 . S
C364 O367 1.160 . S
O365 C364 1.306 . S
O365 Cd366 2.228 . S
Cd366 O365 2.228 . S
Cd366 O370 2.273 . S
Cd366 O374 2.277 . S
O367 C364 1.160 . S
O367 Cd368 2.203 . S
Cd368 O367 2.203 . S
Cd368 O370 2.411 . S
Cd368 O371 2.333 . S
Cd368 O372 2.352 . S
Cd368 O376 2.277 . S
Cd368 O377 2.356 . S
C369 O374 1.209 . S
C369 O376 1.226 . S
O370 Cd366 2.273 . S
O370 Cd368 2.411 . S
O370 C373 1.320 . S
O371 Cd368 2.333 . S
O371 C373 1.214 . S
O372 Cd368 2.352 . S
O372 C375 1.258 . S
C373 O370 1.320 . S
C373 O371 1.214 . S
O374 Cd366 2.277 . S
O374 C369 1.209 . S
C375 O372 1.258 . S
C375 O377 1.282 . S
O376 Cd368 2.277 . S
O376 C369 1.226 . S
O377 Cd368 2.356 . S
O377 C375 1.282 . S
C378 O379 1.306 . S
C378 O381 1.160 . S
O379 C378 1.306 . S
O379 Cd380 2.228 . S
Cd380 O379 2.228 . S
Cd380 O384 2.273 . S
Cd380 O388 2.277 . S
O381 C378 1.160 . S
O381 Cd382 2.203 . S
Cd382 O381 2.203 . S
Cd382 O384 2.411 . S
Cd382 O385 2.333 . S
Cd382 O386 2.352 . S
Cd382 O390 2.277 . S
Cd382 O391 2.356 . S
C383 O388 1.209 . S
C383 O390 1.226 . S
O384 Cd380 2.273 . S
O384 Cd382 2.411 . S
O384 C387 1.320 . S
O385 Cd382 2.333 . S
O385 C387 1.214 . S
O386 Cd382 2.352 . S
O386 C389 1.258 . S
C387 O384 1.320 . S
C387 O385 1.214 . S
O388 Cd380 2.277 . S
O388 C383 1.209 . S
C389 O386 1.258 . S
C389 O391 1.282 . S
O390 Cd382 2.277 . S
O390 C383 1.226 . S
O391 Cd382 2.356 . S
O391 C389 1.282 . S
C392 O393 1.306 . S
C392 O395 1.160 . S
O393 C392 1.306 . S
O393 Cd394 2.228 . S
Cd394 O393 2.228 . S
Cd394 O398 2.273 . S
Cd394 O402 2.277 . S
O395 C392 1.160 . S
O395 Cd396 2.203 . S
Cd396 O395 2.203 . S
Cd396 O398 2.411 . S
Cd396 O399 2.333 . S
Cd396 O400 2.352 . S
Cd396 O404 2.277 . S
Cd396 O405 2.356 . S
C397 O402 1.209 . S
C397 O404 1.226 . S
O398 Cd394 2.273 . S
O398 Cd396 2.411 . S
O398 C401 1.320 . S
O399 Cd396 2.333 . S
O399 C401 1.214 . S
O400 Cd396 2.352 . S
O400 C403 1.258 . S
C401 O398 1.320 . S
C401 O399 1.214 . S
O402 Cd394 2.277 . S
O402 C397 1.209 . S
C403 O400 1.258 . S
C403 O405 1.282 . S
O404 Cd396 2.277 . S
O404 C397 1.226 . S
O405 Cd396 2.356 . S
O405 C403 1.282 . S
C406 O407 1.306 . S
C406 O409 1.160 . S
O407 C406 1.306 . S
O407 Cd408 2.228 . S
Cd408 O407 2.228 . S
Cd408 O412 2.273 . S
Cd408 O416 2.277 . S
O409 C406 1.160 . S
O409 Cd410 2.203 . S
Cd410 O409 2.203 . S
Cd410 O412 2.411 . S
Cd410 O413 2.333 . S
Cd410 O414 2.352 . S
Cd410 O418 2.277 . S
Cd410 O419 2.356 . S
C411 O416 1.209 . S
C411 O418 1.226 . S
O412 Cd408 2.273 . S
O412 Cd410 2.411 . S
O412 C415 1.320 . S
O413 Cd410 2.333 . S
O413 C415 1.214 . S
O414 Cd410 2.352 . S
O414 C417 1.258 . S
C415 O412 1.320 . S
C415 O413 1.214 . S
O416 Cd408 2.277 . S
O416 C411 1.209 . S
C417 O414 1.258 . S
C417 O419 1.282 . S
O418 Cd410 2.277 . S
O418 C411 1.226 . S
O419 Cd410 2.356 . S
O419 C417 1.282 . S
C420 O421 1.306 . S
C420 O423 1.160 . S
O421 C420 1.306 . S
O421 Cd422 2.228 . S
Cd422 O421 2.228 . S
Cd422 O426 2.273 . S
Cd422 O430 2.277 . S
O423 C420 1.160 . S
O423 Cd424 2.203 . S
Cd424 O423 2.203 . S
Cd424 O426 2.411 . S
Cd424 O427 2.333 . S
Cd424 O428 2.352 . S
Cd424 O432 2.277 . S
Cd424 O433 2.356 . S
C425 O430 1.209 . S
C425 O432 1.226 . S
O426 Cd422 2.273 . S
O426 Cd424 2.411 . S
O426 C429 1.320 . S
O427 Cd424 2.333 . S
O427 C429 1.214 . S
O428 Cd424 2.352 . S
O428 C431 1.258 . S
C429 O426 1.320 . S
C429 O427 1.214 . S
O430 Cd422 2.277 . S
O430 C425 1.209 . S
C431 O428 1.258 . S
C431 O433 1.282 . S
O432 Cd424 2.277 . S
O432 C425 1.226 . S
O433 Cd424 2.356 . S
O433 C431 1.282 . S
C434 O435 1.306 . S
C434 O437 1.160 . S
O435 C434 1.306 . S
O435 Cd436 2.228 . S
Cd436 O435 2.228 . S
Cd436 O440 2.273 . S
Cd436 O444 2.277 . S
O437 C434 1.160 . S
O437 Cd438 2.203 . S
Cd438 O437 2.203 . S
Cd438 O440 2.411 . S
Cd438 O441 2.333 . S
Cd438 O442 2.352 . S
Cd438 O446 2.277 . S
Cd438 O447 2.356 . S
C439 O444 1.209 . S
C439 O446 1.226 . S
O440 Cd436 2.273 . S
O440 Cd438 2.411 . S
O440 C443 1.320 . S
O441 Cd438 2.333 . S
O441 C443 1.214 . S
O442 Cd438 2.352 . S
O442 C445 1.258 . S
C443 O440 1.320 . S
C443 O441 1.214 . S
O444 Cd436 2.277 . S
O444 C439 1.209 . S
C445 O442 1.258 . S
C445 O447 1.282 . S
O446 Cd438 2.277 . S
O446 C439 1.226 . S
O447 Cd438 2.356 . S
O447 C445 1.282 . S
C448 O449 1.306 . S
C448 O451 1.160 . S
O449 C448 1.306 . S
O449 Cd450 2.228 . S
Cd450 O449 2.228 . S
Cd450 O454 2.273 . S
Cd450 O458 2.277 . S
O451 C448 1.160 . S
O451 Cd452 2.203 . S
Cd452 O451 2.203 . S
Cd452 O454 2.411 . S
Cd452 O455 2.333 . S
Cd452 O456 2.352 . S
Cd452 O460 2.277 . S
Cd452 O461 2.356 . S
C453 O458 1.209 . S
C453 O460 1.226 . S
O454 Cd450 2.273 . S
O454 Cd452 2.411 . S
O454 C457 1.320 . S
O455 Cd452 2.333 . S
O455 C457 1.214 . S
O456 Cd452 2.352 . S
O456 C459 1.258 . S
C457 O454 1.320 . S
C457 O455 1.214 . S
O458 Cd450 2.277 . S
O458 C453 1.209 . S
C459 O456 1.258 . S
C459 O461 1.282 . S
O460 Cd452 2.277 . S
O460 C453 1.226 . S
O461 Cd452 2.356 . S
O461 C459 1.282 . S
C462 O463 1.306 . S
C462 O465 1.160 . S
O463 C462 1.306 . S
O463 Cd464 2.228 . S
Cd464 O463 2.228 . S
Cd464 O468 2.273 . S
Cd464 O472 2.277 . S
O465 C462 1.160 . S
O465 Cd466 2.203 . S
Cd466 O465 2.203 . S
Cd466 O468 2.411 . S
Cd466 O469 2.333 . S
Cd466 O470 2.352 . S
Cd466 O474 2.277 . S
Cd466 O475 2.356 . S
C467 O472 1.209 . S
C467 O474 1.226 . S
O468 Cd464 2.273 . S
O468 Cd466 2.411 . S
O468 C471 1.320 . S
O469 Cd466 2.333 . S
O469 C471 1.214 . S
O470 Cd466 2.352 . S
O470 C473 1.258 . S
C471 O468 1.320 . S
C471 O469 1.214 . S
O472 Cd464 2.277 . S
O472 C467 1.209 . S
C473 O470 1.258 . S
C473 O475 1.282 . S
O474 Cd466 2.277 . S
O474 C467 1.226 . S
O475 Cd466 2.356 . S
O475 C473 1.282 . S
C476 O477 1.306 . S
C476 O479 1.160 . S
O477 C476 1.306 . S
O477 Cd478 2.228 . S
Cd478 O477 2.228 . S
Cd478 O482 2.273 . S
Cd478 O486 2.277 . S
O479 C476 1.160 . S
O479 Cd480 2.203 . S
Cd480 O479 2.203 . S
Cd480 O482 2.411 . S
Cd480 O483 2.333 . S
Cd480 O484 2.352 . S
Cd480 O488 2.277 . S
Cd480 O489 2.356 . S
C481 O486 1.209 . S
C481 O488 1.226 . S
O482 Cd478 2.273 . S
O482 Cd480 2.411 . S
O482 C485 1.320 . S
O483 Cd480 2.333 . S
O483 C485 1.214 . S
O484 Cd480 2.352 . S
O484 C487 1.258 . S
C485 O482 1.320 . S
C485 O483 1.214 . S
O486 Cd478 2.277 . S
O486 C481 1.209 . S
C487 O484 1.258 . S
C487 O489 1.282 . S
O488 Cd480 2.277 . S
O488 C481 1.226 . S
O489 Cd480 2.356 . S
O489 C487 1.282 . S
C490 O491 1.306 . S
C490 O493 1.160 . S
O491 C490 1.306 . S
O491 Cd492 2.228 . S
Cd492 O491 2.228 . S
Cd492 O496 2.273 . S
Cd492 O500 2.277 . S
O493 C490 1.160 . S
O493 Cd494 2.203 . S
Cd494 O493 2.203 . S
Cd494 O496 2.411 . S
Cd494 O497 2.333 . S
Cd494 O498 2.352 . S
Cd494 O502 2.277 . S
Cd494 O503 2.356 . S
C495 O500 1.209 . S
C495 O502 1.226 . S
O496 Cd492 2.273 . S
O496 Cd494 2.411 . S
O496 C499 1.320 . S
O497 Cd494 2.333 . S
O497 C499 1.214 . S
O498 Cd494 2.352 . S
O498 C501 1.258 . S
C499 O496 1.320 . S
C499 O497 1.214 . S
O500 Cd492 2.277 . S
O500 C495 1.209 . S
C501 O498 1.258 . S
C501 O503 1.282 . S
O502 Cd494 2.277 . S
O502 C495 1.226 . S
O503 Cd494 2.356 . S
O503 C501 1.282 . S
C504 O505 1.306 . S
C504 O507 1.160 . S
O505 C504 1.306 . S
O505 Cd506 2.228 . S
Cd506 O505 2.228 . S
Cd506 O510 2.273 . S
Cd506 O514 2.277 . S
O507 C504 1.160 . S
O507 Cd508 2.203 . S
Cd508 O507 2.203 . S
Cd508 O510 2.411 . S
Cd508 O511 2.333 . S
Cd508 O512 2.352 . S
Cd508 O516 2.277 . S
Cd508 O517 2.356 . S
C509 O514 1.209 . S
C509 O516 1.226 . S
O510 Cd506 2.273 . S
O510 Cd508 2.411 . S
O510 C513 1.320 . S
O511 Cd508 2.333 . S
O511 C513 1.214 . S
O512 Cd508 2.352 . S
O512 C515 1.258 . S
C513 O510 1.320 . S
C513 O511 1.214 . S
O514 Cd506 2.277 . S
O514 C509 1.209 . S
C515 O512 1.258 . S
C515 O517 1.282 . S
O516 Cd508 2.277 . S
O516 C509 1.226 . S
O517 Cd508 2.356 . S
O517 C515 1.282 . S
C518 O519 1.306 . S
C518 O521 1.160 . S
O519 C518 1.306 . S
O519 Cd520 2.228 . S
Cd520 O519 2.228 . S
Cd520 O524 2.273 . S
Cd520 O528 2.277 . S
O521 C518 1.160 . S
O521 Cd522 2.203 . S
Cd522 O521 2.203 . S
Cd522 O524 2.411 . S
Cd522 O525 2.333 . S
Cd522 O526 2.352 . S
Cd522 O530 2.277 . S
Cd522 O531 2.356 . S
C523 O528 1.209 . S
C523 O530 1.226 . S
O524 Cd520 2.273 . S
O524 Cd522 2.411 . S
O524 C527 1.320 . S
O525 Cd522 2.333 . S
O525 C527 1.214 . S
O526 Cd522 2.352 . S
O526 C529 1.258 . S
C527 O524 1.320 . S
C527 O525 1.214 . S
O528 Cd520 2.277 . S
O528 C523 1.209 . S
C529 O526 1.258 . S
C529 O531 1.282 . S
O530 Cd522 2.277 . S
O530 C523 1.226 . S
O531 Cd522 2.356 . S
O531 C529 1.282 . S
C532 O533 1.306 . S
C532 O535 1.160 . S
O533 C532 1.306 . S
O533 Cd534 2.228 . S
Cd534 O533 2.228 . S
Cd534 O538 2.273 . S
Cd534 O542 2.277 . S
O535 C532 1.160 . S
O535 Cd536 2.203 . S
Cd536 O535 2.203 . S
Cd536 O538 2.411 . S
Cd536 O539 2.333 . S
Cd536 O540 2.352 . S
Cd536 O544 2.277 . S
Cd536 O545 2.356 . S
C537 O542 1.209 . S
C537 O544 1.226 . S
O538 Cd534 2.273 . S
O538 Cd536 2.411 . S
O538 C541 1.320 . S
O539 Cd536 2.333 . S
O539 C541 1.214 . S
O540 Cd536 2.352 . S
O540 C543 1.258 . S
C541 O538 1.320 . S
C541 O539 1.214 . S
O542 Cd534 2.277 . S
O542 C537 1.209 . S
C543 O540 1.258 . S
C543 O545 1.282 . S
O544 Cd536 2.277 . S
O544 C537 1.226 . S
O545 Cd536 2.356 . S
O545 C543 1.282 . S
C546 O547 1.306 . S
C546 O549 1.160 . S
O547 C546 1.306 . S
O547 Cd548 2.228 . S
Cd548 O547 2.228 . S
Cd548 O552 2.273 . S
Cd548 O556 2.277 . S
O549 C546 1.160 . S
O549 Cd550 2.203 . S
Cd550 O549 2.203 . S
Cd550 O552 2.411 . S
Cd550 O553 2.333 . S
Cd550 O554 2.352 . S
Cd550 O558 2.277 . S
Cd550 O559 2.356 . S
C551 O556 1.209 . S
C551 O558 1.226 . S
O552 Cd548 2.273 . S
O552 Cd550 2.411 . S
O552 C555 1.320 . S
O553 Cd550 2.333 . S
O553 C555 1.214 . S
O554 Cd550 2.352 . S
O554 C557 1.258 . S
C555 O552 1.320 . S
C555 O553 1.214 . S
O556 Cd548 2.277 . S
O556 C551 1.209 . S
C557 O554 1.258 . S
C557 O559 1.282 . S
O558 Cd550 2.277 . S
O558 C551 1.226 . S
O559 Cd550 2.356 . S
O559 C557 1.282 . S
C560 O561 1.306 . S
C560 O563 1.160 . S
O561 C560 1.306 . S
O561 Cd562 2.228 . S
Cd562 O561 2.228 . S
Cd562 O566 2.273 . S
Cd562 O570 2.277 . S
O563 C560 1.160 . S
O563 Cd564 2.203 . S
Cd564 O563 2.203 . S
Cd564 O566 2.411 . S
Cd564 O567 2.333 . S
Cd564 O568 2.352 . S
Cd564 O572 2.277 . S
Cd564 O573 2.356 . S
C565 O570 1.209 . S
C565 O572 1.226 . S
O566 Cd562 2.273 . S
O566 Cd564 2.411 . S
O566 C569 1.320 . S
O567 Cd564 2.333 . S
O567 C569 1.214 . S
O568 Cd564 2.352 . S
O568 C571 1.258 . S
C569 O566 1.320 . S
C569 O567 1.214 . S
O570 Cd562 2.277 . S
O570 C565 1.209 . S
C571 O568 1.258 . S
C571 O573 1.282 . S
O572 Cd564 2.277 . S
O572 C565 1.226 . S
O573 Cd564 2.356 . S
O573 C571 1.282 . S
C574 O575 1.306 . S
C574 O577 1.160 . S
O575 C574 1.306 . S
O575 Cd576 2.228 . S
Cd576 O575 2.228 . S
Cd576 O580 2.273 . S
Cd576 O584 2.277 . S
O577 C574 1.160 . S
O577 Cd578 2.203 . S
Cd578 O577 2.203 . S
Cd578 O580 2.411 . S
Cd578 O581 2.333 . S
Cd578 O582 2.352 . S
Cd578 O586 2.277 . S
Cd578 O587 2.356 . S
C579 O584 1.209 . S
C579 O586 1.226 . S
O580 Cd576 2.273 . S
O580 Cd578 2.411 . S
O580 C583 1.320 . S
O581 Cd578 2.333 . S
O581 C583 1.214 . S
O582 Cd578 2.352 . S
O582 C585 1.258 . S
C583 O580 1.320 . S
C583 O581 1.214 . S
O584 Cd576 2.277 . S
O584 C579 1.209 . S
C585 O582 1.258 . S
C585 O587 1.282 . S
O586 Cd578 2.277 . S
O586 C579 1.226 . S
O587 Cd578 2.356 . S
O587 C585 1.282 . S
C588 O589 1.306 . S
C588 O591 1.160 . S
O589 C588 1.306 . S
O589 Cd590 2.228 . S
Cd590 O589 2.228 . S
Cd590 O594 2.273 . S
Cd590 O598 2.277 . S
O591 C588 1.160 . S
O591 Cd592 2.203 . S
Cd592 O591 2.203 . S
Cd592 O594 2.411 . S
Cd592 O595 2.333 . S
Cd592 O596 2.352 . S
Cd592 O600 2.277 . S
Cd592 O601 2.356 . S
C593 O598 1.209 . S
C593 O600 1.226 . S
O594 Cd590 2.273 . S
O594 Cd592 2.411 . S
O594 C597 1.320 . S
O595 Cd592 2.333 . S
O595 C597 1.214 . S
O596 Cd592 2.352 . S
O596 C599 1.258 . S
C597 O594 1.320 . S
C597 O595 1.214 . S
O598 Cd590 2.277 . S
O598 C593 1.209 . S
C599 O596 1.258 . S
C599 O601 1.282 . S
O600 Cd592 2.277 . S
O600 C593 1.226 . S
O601 Cd592 2.356 . S
O601 C599 1.282 . S
C602 O603 1.306 . S
C602 O605 1.160 . S
O603 C602 1.306 . S
O603 Cd604 2.228 . S
Cd604 O603 2.228 . S
Cd604 O608 2.273 . S
Cd604 O612 2.277 . S
O605 C602 1.160 . S
O605 Cd606 2.203 . S
Cd606 O605 2.203 . S
Cd606 O608 2.411 . S
Cd606 O609 2.333 . S
Cd606 O610 2.352 . S
Cd606 O614 2.277 . S
Cd606 O615 2.356 . S
C607 O612 1.209 . S
C607 O614 1.226 . S
O608 Cd604 2.273 . S
O608 Cd606 2.411 . S
O608 C611 1.320 . S
O609 Cd606 2.333 . S
O609 C611 1.214 . S
O610 Cd606 2.352 . S
O610 C613 1.258 . S
C611 O608 1.320 . S
C611 O609 1.214 . S
O612 Cd604 2.277 . S
O612 C607 1.209 . S
C613 O610 1.258 . S
C613 O615 1.282 . S
O614 Cd606 2.277 . S
O614 C607 1.226 . S
O615 Cd606 2.356 . S
O615 C613 1.282 . S
C616 O617 1.306 . S
C616 O619 1.160 . S
O617 C616 1.306 . S
O617 Cd618 2.228 . S
Cd618 O617 2.228 . S
Cd618 O622 2.273 . S
Cd618 O626 2.277 . S
O619 C616 1.160 . S
O619 Cd620 2.203 . S
Cd620 O619 2.203 . S
Cd620 O622 2.411 . S
Cd620 O623 2.333 . S
Cd620 O624 2.352 . S
Cd620 O628 2.277 . S
Cd620 O629 2.356 . S
C621 O626 1.209 . S
C621 O628 1.226 . S
O622 Cd618 2.273 . S
O622 Cd620 2.411 . S
O622 C625 1.320 . S
O623 Cd620 2.333 . S
O623 C625 1.214 . S
O624 Cd620 2.352 . S
O624 C627 1.258 . S
C625 O622 1.320 . S
C625 O623 1.214 . S
O626 Cd618 2.277 . S
O626 C621 1.209 . S
C627 O624 1.258 . S
C627 O629 1.282 . S
O628 Cd620 2.277 . S
O628 C621 1.226 . S
O629 Cd620 2.356 . S
O629 C627 1.282 . S
C630 O631 1.306 . S
C630 O633 1.160 . S
O631 C630 1.306 . S
O631 Cd632 2.228 . S
Cd632 O631 2.228 . S
Cd632 O636 2.273 . S
Cd632 O640 2.277 . S
O633 C630 1.160 . S
O633 Cd634 2.203 . S
Cd634 O633 2.203 . S
Cd634 O636 2.411 . S
Cd634 O637 2.333 . S
Cd634 O638 2.352 . S
Cd634 O642 2.277 . S
Cd634 O643 2.356 . S
C635 O640 1.209 . S
C635 O642 1.226 . S
O636 Cd632 2.273 . S
O636 Cd634 2.411 . S
O636 C639 1.320 . S
O637 Cd634 2.333 . S
O637 C639 1.214 . S
O638 Cd634 2.352 . S
O638 C641 1.258 . S
C639 O636 1.320 . S
C639 O637 1.214 . S
O640 Cd632 2.277 . S
O640 C635 1.209 . S
C641 O638 1.258 . S
C641 O643 1.282 . S
O642 Cd634 2.277 . S
O642 C635 1.226 . S
O643 Cd634 2.356 . S
O643 C641 1.282 . S
C644 O645 1.306 . S
C644 O647 1.160 . S
O645 C644 1.306 . S
O645 Cd646 2.228 . S
Cd646 O645 2.228 . S
Cd646 O650 2.273 . S
Cd646 O654 2.277 . S
O647 C644 1.160 . S
O647 Cd648 2.203 . S
Cd648 O647 2.203 . S
Cd648 O650 2.411 . S
Cd648 O651 2.333 . S
Cd648 O652 2.352 . S
Cd648 O656 2.277 . S
Cd648 O657 2.356 . S
C649 O654 1.209 . S
C649 O656 1.226 . S
O650 Cd646 2.273 . S
O650 Cd648 2.411 . S
O650 C653 1.320 . S
O651 Cd648 2.333 . S
O651 C653 1.214 . S
O652 Cd648 2.352 . S
O652 C655 1.258 . S
C653 O650 1.320 . S
C653 O651 1.214 . S
O654 Cd646 2.277 . S
O654 C649 1.209 . S
C655 O652 1.258 . S
C655 O657 1.282 . S
O656 Cd648 2.277 . S
O656 C649 1.226 . S
O657 Cd648 2.356 . S
O657 C655 1.282 . S
C658 O659 1.306 . S
C658 O661 1.160 . S
O659 C658 1.306 . S
O659 Cd660 2.228 . S
Cd660 O659 2.228 . S
Cd660 O664 2.273 . S
Cd660 O668 2.277 . S
O661 C658 1.160 . S
O661 Cd662 2.203 . S
Cd662 O661 2.203 . S
Cd662 O664 2.411 . S
Cd662 O665 2.333 . S
Cd662 O666 2.352 . S
Cd662 O670 2.277 . S
Cd662 O671 2.356 . S
C663 O668 1.209 . S
C663 O670 1.226 . S
O664 Cd660 2.273 . S
O664 Cd662 2.411 . S
O664 C667 1.320 . S
O665 Cd662 2.333 . S
O665 C667 1.214 . S
O666 Cd662 2.352 . S
O666 C669 1.258 . S
C667 O664 1.320 . S
C667 O665 1.214 . S
O668 Cd660 2.277 . S
O668 C663 1.209 . S
C669 O666 1.258 . S
C669 O671 1.282 . S
O670 Cd662 2.277 . S
O670 C663 1.226 . S
O671 Cd662 2.356 . S
O671 C669 1.282 . S
H672 C684 0.930 . S
H673 C686 0.930 . S
H674 C687 0.930 . S
H675 C691 0.959 . S
H676 C691 0.959 . S
H677 C691 0.961 . S
H678 C692 0.960 . S
H679 C692 0.961 . S
H680 C692 0.959 . S
H681 C695 0.929 . S
H682 C696 0.931 . S
H683 C698 0.930 . S
C684 H672 0.930 . S
C684 C685 1.399 . S
C684 C689 1.399 . S
C685 C684 1.399 . S
C685 C686 1.376 . S
C686 H673 0.930 . S
C686 C685 1.376 . S
C686 C687 1.388 . S
C687 H674 0.930 . S
C687 C686 1.388 . S
C687 C688 1.390 . S
C688 C687 1.390 . S
C688 C689 1.394 . S
C688 C694 1.465 . S
C689 C684 1.399 . S
C689 C688 1.394 . S
C689 C690 1.516 . S
C690 C689 1.516 . S
C690 C691 1.502 . S
C690 C692 1.561 . S
C690 C693 1.526 . S
C691 H675 0.959 . S
C691 H676 0.959 . S
C691 H677 0.961 . S
C691 C690 1.502 . S
C692 H678 0.960 . S
C692 H679 0.961 . S
C692 H680 0.959 . S
C692 C690 1.561 . S
C693 C690 1.526 . S
C693 C694 1.396 . S
C693 C698 1.390 . S
C694 C688 1.465 . S
C694 C693 1.396 . S
C694 C695 1.399 . S
C695 H681 0.929 . S
C695 C694 1.399 . S
C695 C696 1.385 . S
C696 H682 0.931 . S
C696 C695 1.385 . S
C696 C697 1.389 . S
C697 C696 1.389 . S
C697 C698 1.387 . S
C698 H683 0.930 . S
C698 C693 1.390 . S
C698 C697 1.387 . S
H699 C711 0.930 . S
H700 C713 0.930 . S
H701 C714 0.930 . S
H702 C718 0.959 . S
H703 C718 0.959 . S
H704 C718 0.961 . S
H705 C719 0.960 . S
H706 C719 0.961 . S
H707 C719 0.959 . S
H708 C722 0.929 . S
H709 C723 0.931 . S
H710 C725 0.930 . S
C711 H699 0.930 . S
C711 C712 1.399 . S
C711 C716 1.399 . S
C712 C711 1.399 . S
C712 C713 1.376 . S
C713 H700 0.930 . S
C713 C712 1.376 . S
C713 C714 1.388 . S
C714 H701 0.930 . S
C714 C713 1.388 . S
C714 C715 1.390 . S
C715 C714 1.390 . S
C715 C716 1.394 . S
C715 C721 1.465 . S
C716 C711 1.399 . S
C716 C715 1.394 . S
C716 C717 1.516 . S
C717 C716 1.516 . S
C717 C718 1.502 . S
C717 C719 1.561 . S
C717 C720 1.526 . S
C718 H702 0.959 . S
C718 H703 0.959 . S
C718 H704 0.961 . S
C718 C717 1.502 . S
C719 H705 0.960 . S
C719 H706 0.961 . S
C719 H707 0.959 . S
C719 C717 1.561 . S
C720 C717 1.526 . S
C720 C721 1.396 . S
C720 C725 1.390 . S
C721 C715 1.465 . S
C721 C720 1.396 . S
C721 C722 1.399 . S
C722 H708 0.929 . S
C722 C721 1.399 . S
C722 C723 1.385 . S
C723 H709 0.931 . S
C723 C722 1.385 . S
C723 C724 1.389 . S
C724 C723 1.389 . S
C724 C725 1.387 . S
C725 H710 0.930 . S
C725 C720 1.390 . S
C725 C724 1.387 . S
H726 C738 0.930 . S
H727 C740 0.930 . S
H728 C741 0.930 . S
H729 C745 0.959 . S
H730 C745 0.959 . S
H731 C745 0.961 . S
H732 C746 0.960 . S
H733 C746 0.961 . S
H734 C746 0.959 . S
H735 C749 0.929 . S
H736 C750 0.931 . S
H737 C752 0.930 . S
C738 H726 0.930 . S
C738 C739 1.399 . S
C738 C743 1.399 . S
C739 C738 1.399 . S
C739 C740 1.376 . S
C740 H727 0.930 . S
C740 C739 1.376 . S
C740 C741 1.388 . S
C741 H728 0.930 . S
C741 C740 1.388 . S
C741 C742 1.390 . S
C742 C741 1.390 . S
C742 C743 1.394 . S
C742 C748 1.465 . S
C743 C738 1.399 . S
C743 C742 1.394 . S
C743 C744 1.516 . S
C744 C743 1.516 . S
C744 C745 1.502 . S
C744 C746 1.561 . S
C744 C747 1.526 . S
C745 H729 0.959 . S
C745 H730 0.959 . S
C745 H731 0.961 . S
C745 C744 1.502 . S
C746 H732 0.960 . S
C746 H733 0.961 . S
C746 H734 0.959 . S
C746 C744 1.561 . S
C747 C744 1.526 . S
C747 C748 1.396 . S
C747 C752 1.390 . S
C748 C742 1.465 . S
C748 C747 1.396 . S
C748 C749 1.399 . S
C749 H735 0.929 . S
C749 C748 1.399 . S
C749 C750 1.385 . S
C750 H736 0.931 . S
C750 C749 1.385 . S
C750 C751 1.389 . S
C751 C750 1.389 . S
C751 C752 1.387 . S
C752 H737 0.930 . S
C752 C747 1.390 . S
C752 C751 1.387 . S
H753 C765 0.930 . S
H754 C767 0.930 . S
H755 C768 0.930 . S
H756 C772 0.959 . S
H757 C772 0.959 . S
H758 C772 0.961 . S
H759 C773 0.960 . S
H760 C773 0.961 . S
H761 C773 0.959 . S
H762 C776 0.929 . S
H763 C777 0.931 . S
H764 C779 0.930 . S
C765 H753 0.930 . S
C765 C766 1.399 . S
C765 C770 1.399 . S
C766 C765 1.399 . S
C766 C767 1.376 . S
C767 H754 0.930 . S
C767 C766 1.376 . S
C767 C768 1.388 . S
C768 H755 0.930 . S
C768 C767 1.388 . S
C768 C769 1.390 . S
C769 C768 1.390 . S
C769 C770 1.394 . S
C769 C775 1.465 . S
C770 C765 1.399 . S
C770 C769 1.394 . S
C770 C771 1.516 . S
C771 C770 1.516 . S
C771 C772 1.502 . S
C771 C773 1.561 . S
C771 C774 1.526 . S
C772 H756 0.959 . S
C772 H757 0.959 . S
C772 H758 0.961 . S
C772 C771 1.502 . S
C773 H759 0.960 . S
C773 H760 0.961 . S
C773 H761 0.959 . S
C773 C771 1.561 . S
C774 C771 1.526 . S
C774 C775 1.396 . S
C774 C779 1.390 . S
C775 C769 1.465 . S
C775 C774 1.396 . S
C775 C776 1.399 . S
C776 H762 0.929 . S
C776 C775 1.399 . S
C776 C777 1.385 . S
C777 H763 0.931 . S
C777 C776 1.385 . S
C777 C778 1.389 . S
C778 C777 1.389 . S
C778 C779 1.387 . S
C779 H764 0.930 . S
C779 C774 1.390 . S
C779 C778 1.387 . S
H780 C792 0.930 . S
H781 C794 0.930 . S
H782 C795 0.930 . S
H783 C799 0.959 . S
H784 C799 0.959 . S
H785 C799 0.961 . S
H786 C800 0.960 . S
H787 C800 0.961 . S
H788 C800 0.959 . S
H789 C803 0.929 . S
H790 C804 0.931 . S
H791 C806 0.930 . S
C792 H780 0.930 . S
C792 C793 1.399 . S
C792 C797 1.399 . S
C793 C792 1.399 . S
C793 C794 1.376 . S
C794 H781 0.930 . S
C794 C793 1.376 . S
C794 C795 1.388 . S
C795 H782 0.930 . S
C795 C794 1.388 . S
C795 C796 1.390 . S
C796 C795 1.390 . S
C796 C797 1.394 . S
C796 C802 1.465 . S
C797 C792 1.399 . S
C797 C796 1.394 . S
C797 C798 1.516 . S
C798 C797 1.516 . S
C798 C799 1.502 . S
C798 C800 1.561 . S
C798 C801 1.526 . S
C799 H783 0.959 . S
C799 H784 0.959 . S
C799 H785 0.961 . S
C799 C798 1.502 . S
C800 H786 0.960 . S
C800 H787 0.961 . S
C800 H788 0.959 . S
C800 C798 1.561 . S
C801 C798 1.526 . S
C801 C802 1.396 . S
C801 C806 1.390 . S
C802 C796 1.465 . S
C802 C801 1.396 . S
C802 C803 1.399 . S
C803 H789 0.929 . S
C803 C802 1.399 . S
C803 C804 1.385 . S
C804 H790 0.931 . S
C804 C803 1.385 . S
C804 C805 1.389 . S
C805 C804 1.389 . S
C805 C806 1.387 . S
C806 H791 0.930 . S
C806 C801 1.390 . S
C806 C805 1.387 . S
H807 C819 0.930 . S
H808 C821 0.930 . S
H809 C822 0.930 . S
H810 C826 0.959 . S
H811 C826 0.959 . S
H812 C826 0.961 . S
H813 C827 0.960 . S
H814 C827 0.961 . S
H815 C827 0.959 . S
H816 C830 0.929 . S
H817 C831 0.931 . S
H818 C833 0.930 . S
C819 H807 0.930 . S
C819 C820 1.399 . S
C819 C824 1.399 . S
C820 C819 1.399 . S
C820 C821 1.376 . S
C821 H808 0.930 . S
C821 C820 1.376 . S
C821 C822 1.388 . S
C822 H809 0.930 . S
C822 C821 1.388 . S
C822 C823 1.390 . S
C823 C822 1.390 . S
C823 C824 1.394 . S
C823 C829 1.465 . S
C824 C819 1.399 . S
C824 C823 1.394 . S
C824 C825 1.516 . S
C825 C824 1.516 . S
C825 C826 1.502 . S
C825 C827 1.561 . S
C825 C828 1.526 . S
C826 H810 0.959 . S
C826 H811 0.959 . S
C826 H812 0.961 . S
C826 C825 1.502 . S
C827 H813 0.960 . S
C827 H814 0.961 . S
C827 H815 0.959 . S
C827 C825 1.561 . S
C828 C825 1.526 . S
C828 C829 1.396 . S
C828 C833 1.390 . S
C829 C823 1.465 . S
C829 C828 1.396 . S
C829 C830 1.399 . S
C830 H816 0.929 . S
C830 C829 1.399 . S
C830 C831 1.385 . S
C831 H817 0.931 . S
C831 C830 1.385 . S
C831 C832 1.389 . S
C832 C831 1.389 . S
C832 C833 1.387 . S
C833 H818 0.930 . S
C833 C828 1.390 . S
C833 C832 1.387 . S
H834 C846 0.930 . S
H835 C848 0.930 . S
H836 C849 0.930 . S
H837 C853 0.959 . S
H838 C853 0.959 . S
H839 C853 0.961 . S
H840 C854 0.960 . S
H841 C854 0.961 . S
H842 C854 0.959 . S
H843 C857 0.929 . S
H844 C858 0.931 . S
H845 C860 0.930 . S
C846 H834 0.930 . S
C846 C847 1.399 . S
C846 C851 1.399 . S
C847 C846 1.399 . S
C847 C848 1.376 . S
C848 H835 0.930 . S
C848 C847 1.376 . S
C848 C849 1.388 . S
C849 H836 0.930 . S
C849 C848 1.388 . S
C849 C850 1.390 . S
C850 C849 1.390 . S
C850 C851 1.394 . S
C850 C856 1.465 . S
C851 C846 1.399 . S
C851 C850 1.394 . S
C851 C852 1.516 . S
C852 C851 1.516 . S
C852 C853 1.502 . S
C852 C854 1.561 . S
C852 C855 1.526 . S
C853 H837 0.959 . S
C853 H838 0.959 . S
C853 H839 0.961 . S
C853 C852 1.502 . S
C854 H840 0.960 . S
C854 H841 0.961 . S
C854 H842 0.959 . S
C854 C852 1.561 . S
C855 C852 1.526 . S
C855 C856 1.396 . S
C855 C860 1.390 . S
C856 C850 1.465 . S
C856 C855 1.396 . S
C856 C857 1.399 . S
C857 H843 0.929 . S
C857 C856 1.399 . S
C857 C858 1.385 . S
C858 H844 0.931 . S
C858 C857 1.385 . S
C858 C859 1.389 . S
C859 C858 1.389 . S
C859 C860 1.387 . S
C860 H845 0.930 . S
C860 C855 1.390 . S
C860 C859 1.387 . S
H861 C873 0.930 . S
H862 C875 0.930 . S
H863 C876 0.930 . S
H864 C880 0.959 . S
H865 C880 0.959 . S
H866 C880 0.961 . S
H867 C881 0.960 . S
H868 C881 0.961 . S
H869 C881 0.959 . S
H870 C884 0.929 . S
H871 C885 0.931 . S
H872 C887 0.930 . S
C873 H861 0.930 . S
C873 C874 1.399 . S
C873 C878 1.399 . S
C874 C873 1.399 . S
C874 C875 1.376 . S
C875 H862 0.930 . S
C875 C874 1.376 . S
C875 C876 1.388 . S
C876 H863 0.930 . S
C876 C875 1.388 . S
C876 C877 1.390 . S
C877 C876 1.390 . S
C877 C878 1.394 . S
C877 C883 1.465 . S
C878 C873 1.399 . S
C878 C877 1.394 . S
C878 C879 1.516 . S
C879 C878 1.516 . S
C879 C880 1.502 . S
C879 C881 1.561 . S
C879 C882 1.526 . S
C880 H864 0.959 . S
C880 H865 0.959 . S
C880 H866 0.961 . S
C880 C879 1.502 . S
C881 H867 0.960 . S
C881 H868 0.961 . S
C881 H869 0.959 . S
C881 C879 1.561 . S
C882 C879 1.526 . S
C882 C883 1.396 . S
C882 C887 1.390 . S
C883 C877 1.465 . S
C883 C882 1.396 . S
C883 C884 1.399 . S
C884 H870 0.929 . S
C884 C883 1.399 . S
C884 C885 1.385 . S
C885 H871 0.931 . S
C885 C884 1.385 . S
C885 C886 1.389 . S
C886 C885 1.389 . S
C886 C887 1.387 . S
C887 H872 0.930 . S
C887 C882 1.390 . S
C887 C886 1.387 . S
H888 C900 0.930 . S
H889 C902 0.930 . S
H890 C903 0.930 . S
H891 C907 0.959 . S
H892 C907 0.959 . S
H893 C907 0.961 . S
H894 C908 0.960 . S
H895 C908 0.961 . S
H896 C908 0.959 . S
H897 C911 0.929 . S
H898 C912 0.931 . S
H899 C914 0.930 . S
C900 H888 0.930 . S
C900 C901 1.399 . S
C900 C905 1.399 . S
C901 C900 1.399 . S
C901 C902 1.376 . S
C902 H889 0.930 . S
C902 C901 1.376 . S
C902 C903 1.388 . S
C903 H890 0.930 . S
C903 C902 1.388 . S
C903 C904 1.390 . S
C904 C903 1.390 . S
C904 C905 1.394 . S
C904 C910 1.465 . S
C905 C900 1.399 . S
C905 C904 1.394 . S
C905 C906 1.516 . S
C906 C905 1.516 . S
C906 C907 1.502 . S
C906 C908 1.561 . S
C906 C909 1.526 . S
C907 H891 0.959 . S
C907 H892 0.959 . S
C907 H893 0.961 . S
C907 C906 1.502 . S
C908 H894 0.960 . S
C908 H895 0.961 . S
C908 H896 0.959 . S
C908 C906 1.561 . S
C909 C906 1.526 . S
C909 C910 1.396 . S
C909 C914 1.390 . S
C910 C904 1.465 . S
C910 C909 1.396 . S
C910 C911 1.399 . S
C911 H897 0.929 . S
C911 C910 1.399 . S
C911 C912 1.385 . S
C912 H898 0.931 . S
C912 C911 1.385 . S
C912 C913 1.389 . S
C913 C912 1.389 . S
C913 C914 1.387 . S
C914 H899 0.930 . S
C914 C909 1.390 . S
C914 C913 1.387 . S
H915 C927 0.930 . S
H916 C929 0.930 . S
H917 C930 0.930 . S
H918 C934 0.959 . S
H919 C934 0.959 . S
H920 C934 0.961 . S
H921 C935 0.960 . S
H922 C935 0.961 . S
H923 C935 0.959 . S
H924 C938 0.929 . S
H925 C939 0.931 . S
H926 C941 0.930 . S
C927 H915 0.930 . S
C927 C928 1.399 . S
C927 C932 1.399 . S
C928 C927 1.399 . S
C928 C929 1.376 . S
C929 H916 0.930 . S
C929 C928 1.376 . S
C929 C930 1.388 . S
C930 H917 0.930 . S
C930 C929 1.388 . S
C930 C931 1.390 . S
C931 C930 1.390 . S
C931 C932 1.394 . S
C931 C937 1.465 . S
C932 C927 1.399 . S
C932 C931 1.394 . S
C932 C933 1.516 . S
C933 C932 1.516 . S
C933 C934 1.502 . S
C933 C935 1.561 . S
C933 C936 1.526 . S
C934 H918 0.959 . S
C934 H919 0.959 . S
C934 H920 0.961 . S
C934 C933 1.502 . S
C935 H921 0.960 . S
C935 H922 0.961 . S
C935 H923 0.959 . S
C935 C933 1.561 . S
C936 C933 1.526 . S
C936 C937 1.396 . S
C936 C941 1.390 . S
C937 C931 1.465 . S
C937 C936 1.396 . S
C937 C938 1.399 . S
C938 H924 0.929 . S
C938 C937 1.399 . S
C938 C939 1.385 . S
C939 H925 0.931 . S
C939 C938 1.385 . S
C939 C940 1.389 . S
C940 C939 1.389 . S
C940 C941 1.387 . S
C941 H926 0.930 . S
C941 C936 1.390 . S
C941 C940 1.387 . S
H942 C954 0.930 . S
H943 C956 0.930 . S
H944 C957 0.930 . S
H945 C961 0.959 . S
H946 C961 0.959 . S
H947 C961 0.961 . S
H948 C962 0.960 . S
H949 C962 0.961 . S
H950 C962 0.959 . S
H951 C965 0.929 . S
H952 C966 0.931 . S
H953 C968 0.930 . S
C954 H942 0.930 . S
C954 C955 1.399 . S
C954 C959 1.399 . S
C955 C954 1.399 . S
C955 C956 1.376 . S
C956 H943 0.930 . S
C956 C955 1.376 . S
C956 C957 1.388 . S
C957 H944 0.930 . S
C957 C956 1.388 . S
C957 C958 1.390 . S
C958 C957 1.390 . S
C958 C959 1.394 . S
C958 C964 1.465 . S
C959 C954 1.399 . S
C959 C958 1.394 . S
C959 C960 1.516 . S
C960 C959 1.516 . S
C960 C961 1.502 . S
C960 C962 1.561 . S
C960 C963 1.526 . S
C961 H945 0.959 . S
C961 H946 0.959 . S
C961 H947 0.961 . S
C961 C960 1.502 . S
C962 H948 0.960 . S
C962 H949 0.961 . S
C962 H950 0.959 . S
C962 C960 1.561 . S
C963 C960 1.526 . S
C963 C964 1.396 . S
C963 C968 1.390 . S
C964 C958 1.465 . S
C964 C963 1.396 . S
C964 C965 1.399 . S
C965 H951 0.929 . S
C965 C964 1.399 . S
C965 C966 1.385 . S
C966 H952 0.931 . S
C966 C965 1.385 . S
C966 C967 1.389 . S
C967 C966 1.389 . S
C967 C968 1.387 . S
C968 H953 0.930 . S
C968 C963 1.390 . S
C968 C967 1.387 . S
H969 C981 0.930 . S
H970 C983 0.930 . S
H971 C984 0.930 . S
H972 C988 0.959 . S
H973 C988 0.959 . S
H974 C988 0.961 . S
H975 C989 0.960 . S
H976 C989 0.961 . S
H977 C989 0.959 . S
H978 C992 0.929 . S
H979 C993 0.931 . S
H980 C995 0.930 . S
C981 H969 0.930 . S
C981 C982 1.399 . S
C981 C986 1.399 . S
C982 C981 1.399 . S
C982 C983 1.376 . S
C983 H970 0.930 . S
C983 C982 1.376 . S
C983 C984 1.388 . S
C984 H971 0.930 . S
C984 C983 1.388 . S
C984 C985 1.390 . S
C985 C984 1.390 . S
C985 C986 1.394 . S
C985 C991 1.465 . S
C986 C981 1.399 . S
C986 C985 1.394 . S
C986 C987 1.516 . S
C987 C986 1.516 . S
C987 C988 1.502 . S
C987 C989 1.561 . S
C987 C990 1.526 . S
C988 H972 0.959 . S
C988 H973 0.959 . S
C988 H974 0.961 . S
C988 C987 1.502 . S
C989 H975 0.960 . S
C989 H976 0.961 . S
C989 H977 0.959 . S
C989 C987 1.561 . S
C990 C987 1.526 . S
C990 C991 1.396 . S
C990 C995 1.390 . S
C991 C985 1.465 . S
C991 C990 1.396 . S
C991 C992 1.399 . S
C992 H978 0.929 . S
C992 C991 1.399 . S
C992 C993 1.385 . S
C993 H979 0.931 . S
C993 C992 1.385 . S
C993 C994 1.389 . S
C994 C993 1.389 . S
C994 C995 1.387 . S
C995 H980 0.930 . S
C995 C990 1.390 . S
C995 C994 1.387 . S
H996 C1008 0.930 . S
H997 C1010 0.930 . S
H998 C1011 0.930 . S
H999 C1015 0.959 . S
H1000 C1015 0.959 . S
H1001 C1015 0.961 . S
H1002 C1016 0.960 . S
H1003 C1016 0.961 . S
H1004 C1016 0.959 . S
H1005 C1019 0.929 . S
H1006 C1020 0.931 . S
H1007 C1022 0.930 . S
C1008 H996 0.930 . S
C1008 C1009 1.399 . S
C1008 C1013 1.399 . S
C1009 C1008 1.399 . S
C1009 C1010 1.376 . S
C1010 H997 0.930 . S
C1010 C1009 1.376 . S
C1010 C1011 1.388 . S
C1011 H998 0.930 . S
C1011 C1010 1.388 . S
C1011 C1012 1.390 . S
C1012 C1011 1.390 . S
C1012 C1013 1.394 . S
C1012 C1018 1.465 . S
C1013 C1008 1.399 . S
C1013 C1012 1.394 . S
C1013 C1014 1.516 . S
C1014 C1013 1.516 . S
C1014 C1015 1.502 . S
C1014 C1016 1.561 . S
C1014 C1017 1.526 . S
C1015 H999 0.959 . S
C1015 H1000 0.959 . S
C1015 H1001 0.961 . S
C1015 C1014 1.502 . S
C1016 H1002 0.960 . S
C1016 H1003 0.961 . S
C1016 H1004 0.959 . S
C1016 C1014 1.561 . S
C1017 C1014 1.526 . S
C1017 C1018 1.396 . S
C1017 C1022 1.390 . S
C1018 C1012 1.465 . S
C1018 C1017 1.396 . S
C1018 C1019 1.399 . S
C1019 H1005 0.929 . S
C1019 C1018 1.399 . S
C1019 C1020 1.385 . S
C1020 H1006 0.931 . S
C1020 C1019 1.385 . S
C1020 C1021 1.389 . S
C1021 C1020 1.389 . S
C1021 C1022 1.387 . S
C1022 H1007 0.930 . S
C1022 C1017 1.390 . S
C1022 C1021 1.387 . S
H1023 C1035 0.930 . S
H1024 C1037 0.930 . S
H1025 C1038 0.930 . S
H1026 C1042 0.959 . S
H1027 C1042 0.959 . S
H1028 C1042 0.961 . S
H1029 C1043 0.960 . S
H1030 C1043 0.961 . S
H1031 C1043 0.959 . S
H1032 C1046 0.929 . S
H1033 C1047 0.931 . S
H1034 C1049 0.930 . S
C1035 H1023 0.930 . S
C1035 C1036 1.399 . S
C1035 C1040 1.399 . S
C1036 C1035 1.399 . S
C1036 C1037 1.376 . S
C1037 H1024 0.930 . S
C1037 C1036 1.376 . S
C1037 C1038 1.388 . S
C1038 H1025 0.930 . S
C1038 C1037 1.388 . S
C1038 C1039 1.390 . S
C1039 C1038 1.390 . S
C1039 C1040 1.394 . S
C1039 C1045 1.465 . S
C1040 C1035 1.399 . S
C1040 C1039 1.394 . S
C1040 C1041 1.516 . S
C1041 C1040 1.516 . S
C1041 C1042 1.502 . S
C1041 C1043 1.561 . S
C1041 C1044 1.526 . S
C1042 H1026 0.959 . S
C1042 H1027 0.959 . S
C1042 H1028 0.961 . S
C1042 C1041 1.502 . S
C1043 H1029 0.960 . S
C1043 H1030 0.961 . S
C1043 H1031 0.959 . S
C1043 C1041 1.561 . S
C1044 C1041 1.526 . S
C1044 C1045 1.396 . S
C1044 C1049 1.390 . S
C1045 C1039 1.465 . S
C1045 C1044 1.396 . S
C1045 C1046 1.399 . S
C1046 H1032 0.929 . S
C1046 C1045 1.399 . S
C1046 C1047 1.385 . S
C1047 H1033 0.931 . S
C1047 C1046 1.385 . S
C1047 C1048 1.389 . S
C1048 C1047 1.389 . S
C1048 C1049 1.387 . S
C1049 H1034 0.930 . S
C1049 C1044 1.390 . S
C1049 C1048 1.387 . S
H1050 C1062 0.930 . S
H1051 C1064 0.930 . S
H1052 C1065 0.930 . S
H1053 C1069 0.959 . S
H1054 C1069 0.959 . S
H1055 C1069 0.961 . S
H1056 C1070 0.960 . S
H1057 C1070 0.961 . S
H1058 C1070 0.959 . S
H1059 C1073 0.929 . S
H1060 C1074 0.931 . S
H1061 C1076 0.930 . S
C1062 H1050 0.930 . S
C1062 C1063 1.399 . S
C1062 C1067 1.399 . S
C1063 C1062 1.399 . S
C1063 C1064 1.376 . S
C1064 H1051 0.930 . S
C1064 C1063 1.376 . S
C1064 C1065 1.388 . S
C1065 H1052 0.930 . S
C1065 C1064 1.388 . S
C1065 C1066 1.390 . S
C1066 C1065 1.390 . S
C1066 C1067 1.394 . S
C1066 C1072 1.465 . S
C1067 C1062 1.399 . S
C1067 C1066 1.394 . S
C1067 C1068 1.516 . S
C1068 C1067 1.516 . S
C1068 C1069 1.502 . S
C1068 C1070 1.561 . S
C1068 C1071 1.526 . S
C1069 H1053 0.959 . S
C1069 H1054 0.959 . S
C1069 H1055 0.961 . S
C1069 C1068 1.502 . S
C1070 H1056 0.960 . S
C1070 H1057 0.961 . S
C1070 H1058 0.959 . S
C1070 C1068 1.561 . S
C1071 C1068 1.526 . S
C1071 C1072 1.396 . S
C1071 C1076 1.390 . S
C1072 C1066 1.465 . S
C1072 C1071 1.396 . S
C1072 C1073 1.399 . S
C1073 H1059 0.929 . S
C1073 C1072 1.399 . S
C1073 C1074 1.385 . S
C1074 H1060 0.931 . S
C1074 C1073 1.385 . S
C1074 C1075 1.389 . S
C1075 C1074 1.389 . S
C1075 C1076 1.387 . S
C1076 H1061 0.930 . S
C1076 C1071 1.390 . S
C1076 C1075 1.387 . S
H1077 C1089 0.930 . S
H1078 C1091 0.930 . S
H1079 C1092 0.930 . S
H1080 C1096 0.959 . S
H1081 C1096 0.959 . S
H1082 C1096 0.961 . S
H1083 C1097 0.960 . S
H1084 C1097 0.961 . S
H1085 C1097 0.959 . S
H1086 C1100 0.929 . S
H1087 C1101 0.931 . S
H1088 C1103 0.930 . S
C1089 H1077 0.930 . S
C1089 C1090 1.399 . S
C1089 C1094 1.399 . S
C1090 C1089 1.399 . S
C1090 C1091 1.376 . S
C1091 H1078 0.930 . S
C1091 C1090 1.376 . S
C1091 C1092 1.388 . S
C1092 H1079 0.930 . S
C1092 C1091 1.388 . S
C1092 C1093 1.390 . S
C1093 C1092 1.390 . S
C1093 C1094 1.394 . S
C1093 C1099 1.465 . S
C1094 C1089 1.399 . S
C1094 C1093 1.394 . S
C1094 C1095 1.516 . S
C1095 C1094 1.516 . S
C1095 C1096 1.502 . S
C1095 C1097 1.561 . S
C1095 C1098 1.526 . S
C1096 H1080 0.959 . S
C1096 H1081 0.959 . S
C1096 H1082 0.961 . S
C1096 C1095 1.502 . S
C1097 H1083 0.960 . S
C1097 H1084 0.961 . S
C1097 H1085 0.959 . S
C1097 C1095 1.561 . S
C1098 C1095 1.526 . S
C1098 C1099 1.396 . S
C1098 C1103 1.390 . S
C1099 C1093 1.465 . S
C1099 C1098 1.396 . S
C1099 C1100 1.399 . S
C1100 H1086 0.929 . S
C1100 C1099 1.399 . S
C1100 C1101 1.385 . S
C1101 H1087 0.931 . S
C1101 C1100 1.385 . S
C1101 C1102 1.389 . S
C1102 C1101 1.389 . S
C1102 C1103 1.387 . S
C1103 H1088 0.930 . S
C1103 C1098 1.390 . S
C1103 C1102 1.387 . S
H1104 C1116 0.930 . S
H1105 C1118 0.930 . S
H1106 C1119 0.930 . S
H1107 C1123 0.959 . S
H1108 C1123 0.959 . S
H1109 C1123 0.961 . S
H1110 C1124 0.960 . S
H1111 C1124 0.961 . S
H1112 C1124 0.959 . S
H1113 C1127 0.929 . S
H1114 C1128 0.931 . S
H1115 C1130 0.930 . S
C1116 H1104 0.930 . S
C1116 C1117 1.399 . S
C1116 C1121 1.399 . S
C1117 C1116 1.399 . S
C1117 C1118 1.376 . S
C1118 H1105 0.930 . S
C1118 C1117 1.376 . S
C1118 C1119 1.388 . S
C1119 H1106 0.930 . S
C1119 C1118 1.388 . S
C1119 C1120 1.390 . S
C1120 C1119 1.390 . S
C1120 C1121 1.394 . S
C1120 C1126 1.465 . S
C1121 C1116 1.399 . S
C1121 C1120 1.394 . S
C1121 C1122 1.516 . S
C1122 C1121 1.516 . S
C1122 C1123 1.502 . S
C1122 C1124 1.561 . S
C1122 C1125 1.526 . S
C1123 H1107 0.959 . S
C1123 H1108 0.959 . S
C1123 H1109 0.961 . S
C1123 C1122 1.502 . S
C1124 H1110 0.960 . S
C1124 H1111 0.961 . S
C1124 H1112 0.959 . S
C1124 C1122 1.561 . S
C1125 C1122 1.526 . S
C1125 C1126 1.396 . S
C1125 C1130 1.390 . S
C1126 C1120 1.465 . S
C1126 C1125 1.396 . S
C1126 C1127 1.399 . S
C1127 H1113 0.929 . S
C1127 C1126 1.399 . S
C1127 C1128 1.385 . S
C1128 H1114 0.931 . S
C1128 C1127 1.385 . S
C1128 C1129 1.389 . S
C1129 C1128 1.389 . S
C1129 C1130 1.387 . S
C1130 H1115 0.930 . S
C1130 C1125 1.390 . S
C1130 C1129 1.387 . S
H1131 C1143 0.930 . S
H1132 C1145 0.930 . S
H1133 C1146 0.930 . S
H1134 C1150 0.959 . S
H1135 C1150 0.959 . S
H1136 C1150 0.961 . S
H1137 C1151 0.960 . S
H1138 C1151 0.961 . S
H1139 C1151 0.959 . S
H1140 C1154 0.929 . S
H1141 C1155 0.931 . S
H1142 C1157 0.930 . S
C1143 H1131 0.930 . S
C1143 C1144 1.399 . S
C1143 C1148 1.399 . S
C1144 C1143 1.399 . S
C1144 C1145 1.376 . S
C1145 H1132 0.930 . S
C1145 C1144 1.376 . S
C1145 C1146 1.388 . S
C1146 H1133 0.930 . S
C1146 C1145 1.388 . S
C1146 C1147 1.390 . S
C1147 C1146 1.390 . S
C1147 C1148 1.394 . S
C1147 C1153 1.465 . S
C1148 C1143 1.399 . S
C1148 C1147 1.394 . S
C1148 C1149 1.516 . S
C1149 C1148 1.516 . S
C1149 C1150 1.502 . S
C1149 C1151 1.561 . S
C1149 C1152 1.526 . S
C1150 H1134 0.959 . S
C1150 H1135 0.959 . S
C1150 H1136 0.961 . S
C1150 C1149 1.502 . S
C1151 H1137 0.960 . S
C1151 H1138 0.961 . S
C1151 H1139 0.959 . S
C1151 C1149 1.561 . S
C1152 C1149 1.526 . S
C1152 C1153 1.396 . S
C1152 C1157 1.390 . S
C1153 C1147 1.465 . S
C1153 C1152 1.396 . S
C1153 C1154 1.399 . S
C1154 H1140 0.929 . S
C1154 C1153 1.399 . S
C1154 C1155 1.385 . S
C1155 H1141 0.931 . S
C1155 C1154 1.385 . S
C1155 C1156 1.389 . S
C1156 C1155 1.389 . S
C1156 C1157 1.387 . S
C1157 H1142 0.930 . S
C1157 C1152 1.390 . S
C1157 C1156 1.387 . S
H1158 C1170 0.930 . S
H1159 C1172 0.930 . S
H1160 C1173 0.930 . S
H1161 C1177 0.959 . S
H1162 C1177 0.959 . S
H1163 C1177 0.961 . S
H1164 C1178 0.960 . S
H1165 C1178 0.961 . S
H1166 C1178 0.959 . S
H1167 C1181 0.929 . S
H1168 C1182 0.931 . S
H1169 C1184 0.930 . S
C1170 H1158 0.930 . S
C1170 C1171 1.399 . S
C1170 C1175 1.399 . S
C1171 C1170 1.399 . S
C1171 C1172 1.376 . S
C1172 H1159 0.930 . S
C1172 C1171 1.376 . S
C1172 C1173 1.388 . S
C1173 H1160 0.930 . S
C1173 C1172 1.388 . S
C1173 C1174 1.390 . S
C1174 C1173 1.390 . S
C1174 C1175 1.394 . S
C1174 C1180 1.465 . S
C1175 C1170 1.399 . S
C1175 C1174 1.394 . S
C1175 C1176 1.516 . S
C1176 C1175 1.516 . S
C1176 C1177 1.502 . S
C1176 C1178 1.561 . S
C1176 C1179 1.526 . S
C1177 H1161 0.959 . S
C1177 H1162 0.959 . S
C1177 H1163 0.961 . S
C1177 C1176 1.502 . S
C1178 H1164 0.960 . S
C1178 H1165 0.961 . S
C1178 H1166 0.959 . S
C1178 C1176 1.561 . S
C1179 C1176 1.526 . S
C1179 C1180 1.396 . S
C1179 C1184 1.390 . S
C1180 C1174 1.465 . S
C1180 C1179 1.396 . S
C1180 C1181 1.399 . S
C1181 H1167 0.929 . S
C1181 C1180 1.399 . S
C1181 C1182 1.385 . S
C1182 H1168 0.931 . S
C1182 C1181 1.385 . S
C1182 C1183 1.389 . S
C1183 C1182 1.389 . S
C1183 C1184 1.387 . S
C1184 H1169 0.930 . S
C1184 C1179 1.390 . S
C1184 C1183 1.387 . S
H1185 C1197 0.930 . S
H1186 C1199 0.930 . S
H1187 C1200 0.930 . S
H1188 C1204 0.959 . S
H1189 C1204 0.959 . S
H1190 C1204 0.961 . S
H1191 C1205 0.960 . S
H1192 C1205 0.961 . S
H1193 C1205 0.959 . S
H1194 C1208 0.929 . S
H1195 C1209 0.931 . S
H1196 C1211 0.930 . S
C1197 H1185 0.930 . S
C1197 C1198 1.399 . S
C1197 C1202 1.399 . S
C1198 C1197 1.399 . S
C1198 C1199 1.376 . S
C1199 H1186 0.930 . S
C1199 C1198 1.376 . S
C1199 C1200 1.388 . S
C1200 H1187 0.930 . S
C1200 C1199 1.388 . S
C1200 C1201 1.390 . S
C1201 C1200 1.390 . S
C1201 C1202 1.394 . S
C1201 C1207 1.465 . S
C1202 C1197 1.399 . S
C1202 C1201 1.394 . S
C1202 C1203 1.516 . S
C1203 C1202 1.516 . S
C1203 C1204 1.502 . S
C1203 C1205 1.561 . S
C1203 C1206 1.526 . S
C1204 H1188 0.959 . S
C1204 H1189 0.959 . S
C1204 H1190 0.961 . S
C1204 C1203 1.502 . S
C1205 H1191 0.960 . S
C1205 H1192 0.961 . S
C1205 H1193 0.959 . S
C1205 C1203 1.561 . S
C1206 C1203 1.526 . S
C1206 C1207 1.396 . S
C1206 C1211 1.390 . S
C1207 C1201 1.465 . S
C1207 C1206 1.396 . S
C1207 C1208 1.399 . S
C1208 H1194 0.929 . S
C1208 C1207 1.399 . S
C1208 C1209 1.385 . S
C1209 H1195 0.931 . S
C1209 C1208 1.385 . S
C1209 C1210 1.389 . S
C1210 C1209 1.389 . S
C1210 C1211 1.387 . S
C1211 H1196 0.930 . S
C1211 C1206 1.390 . S
C1211 C1210 1.387 . S
H1212 C1224 0.930 . S
H1213 C1226 0.930 . S
H1214 C1227 0.930 . S
H1215 C1231 0.959 . S
H1216 C1231 0.959 . S
H1217 C1231 0.961 . S
H1218 C1232 0.960 . S
H1219 C1232 0.961 . S
H1220 C1232 0.959 . S
H1221 C1235 0.929 . S
H1222 C1236 0.931 . S
H1223 C1238 0.930 . S
C1224 H1212 0.930 . S
C1224 C1225 1.399 . S
C1224 C1229 1.399 . S
C1225 C1224 1.399 . S
C1225 C1226 1.376 . S
C1226 H1213 0.930 . S
C1226 C1225 1.376 . S
C1226 C1227 1.388 . S
C1227 H1214 0.930 . S
C1227 C1226 1.388 . S
C1227 C1228 1.390 . S
C1228 C1227 1.390 . S
C1228 C1229 1.394 . S
C1228 C1234 1.465 . S
C1229 C1224 1.399 . S
C1229 C1228 1.394 . S
C1229 C1230 1.516 . S
C1230 C1229 1.516 . S
C1230 C1231 1.502 . S
C1230 C1232 1.561 . S
C1230 C1233 1.526 . S
C1231 H1215 0.959 . S
C1231 H1216 0.959 . S
C1231 H1217 0.961 . S
C1231 C1230 1.502 . S
C1232 H1218 0.960 . S
C1232 H1219 0.961 . S
C1232 H1220 0.959 . S
C1232 C1230 1.561 . S
C1233 C1230 1.526 . S
C1233 C1234 1.396 . S
C1233 C1238 1.390 . S
C1234 C1228 1.465 . S
C1234 C1233 1.396 . S
C1234 C1235 1.399 . S
C1235 H1221 0.929 . S
C1235 C1234 1.399 . S
C1235 C1236 1.385 . S
C1236 H1222 0.931 . S
C1236 C1235 1.385 . S
C1236 C1237 1.389 . S
C1237 C1236 1.389 . S
C1237 C1238 1.387 . S
C1238 H1223 0.930 . S
C1238 C1233 1.390 . S
C1238 C1237 1.387 . S
H1239 C1251 0.930 . S
H1240 C1253 0.930 . S
H1241 C1254 0.930 . S
H1242 C1258 0.959 . S
H1243 C1258 0.959 . S
H1244 C1258 0.961 . S
H1245 C1259 0.960 . S
H1246 C1259 0.961 . S
H1247 C1259 0.959 . S
H1248 C1262 0.929 . S
H1249 C1263 0.931 . S
H1250 C1265 0.930 . S
C1251 H1239 0.930 . S
C1251 C1252 1.399 . S
C1251 C1256 1.399 . S
C1252 C1251 1.399 . S
C1252 C1253 1.376 . S
C1253 H1240 0.930 . S
C1253 C1252 1.376 . S
C1253 C1254 1.388 . S
C1254 H1241 0.930 . S
C1254 C1253 1.388 . S
C1254 C1255 1.390 . S
C1255 C1254 1.390 . S
C1255 C1256 1.394 . S
C1255 C1261 1.465 . S
C1256 C1251 1.399 . S
C1256 C1255 1.394 . S
C1256 C1257 1.516 . S
C1257 C1256 1.516 . S
C1257 C1258 1.502 . S
C1257 C1259 1.561 . S
C1257 C1260 1.526 . S
C1258 H1242 0.959 . S
C1258 H1243 0.959 . S
C1258 H1244 0.961 . S
C1258 C1257 1.502 . S
C1259 H1245 0.960 . S
C1259 H1246 0.961 . S
C1259 H1247 0.959 . S
C1259 C1257 1.561 . S
C1260 C1257 1.526 . S
C1260 C1261 1.396 . S
C1260 C1265 1.390 . S
C1261 C1255 1.465 . S
C1261 C1260 1.396 . S
C1261 C1262 1.399 . S
C1262 H1248 0.929 . S
C1262 C1261 1.399 . S
C1262 C1263 1.385 . S
C1263 H1249 0.931 . S
C1263 C1262 1.385 . S
C1263 C1264 1.389 . S
C1264 C1263 1.389 . S
C1264 C1265 1.387 . S
C1265 H1250 0.930 . S
C1265 C1260 1.390 . S
C1265 C1264 1.387 . S
H1266 C1278 0.930 . S
H1267 C1280 0.930 . S
H1268 C1281 0.930 . S
H1269 C1285 0.959 . S
H1270 C1285 0.959 . S
H1271 C1285 0.961 . S
H1272 C1286 0.960 . S
H1273 C1286 0.961 . S
H1274 C1286 0.959 . S
H1275 C1289 0.929 . S
H1276 C1290 0.931 . S
H1277 C1292 0.930 . S
C1278 H1266 0.930 . S
C1278 C1279 1.399 . S
C1278 C1283 1.399 . S
C1279 C1278 1.399 . S
C1279 C1280 1.376 . S
C1280 H1267 0.930 . S
C1280 C1279 1.376 . S
C1280 C1281 1.388 . S
C1281 H1268 0.930 . S
C1281 C1280 1.388 . S
C1281 C1282 1.390 . S
C1282 C1281 1.390 . S
C1282 C1283 1.394 . S
C1282 C1288 1.465 . S
C1283 C1278 1.399 . S
C1283 C1282 1.394 . S
C1283 C1284 1.516 . S
C1284 C1283 1.516 . S
C1284 C1285 1.502 . S
C1284 C1286 1.561 . S
C1284 C1287 1.526 . S
C1285 H1269 0.959 . S
C1285 H1270 0.959 . S
C1285 H1271 0.961 . S
C1285 C1284 1.502 . S
C1286 H1272 0.960 . S
C1286 H1273 0.961 . S
C1286 H1274 0.959 . S
C1286 C1284 1.561 . S
C1287 C1284 1.526 . S
C1287 C1288 1.396 . S
C1287 C1292 1.390 . S
C1288 C1282 1.465 . S
C1288 C1287 1.396 . S
C1288 C1289 1.399 . S
C1289 H1275 0.929 . S
C1289 C1288 1.399 . S
C1289 C1290 1.385 . S
C1290 H1276 0.931 . S
C1290 C1289 1.385 . S
C1290 C1291 1.389 . S
C1291 C1290 1.389 . S
C1291 C1292 1.387 . S
C1292 H1277 0.930 . S
C1292 C1287 1.390 . S
C1292 C1291 1.387 . S
H1293 C1305 0.930 . S
H1294 C1307 0.930 . S
H1295 C1308 0.930 . S
H1296 C1312 0.959 . S
H1297 C1312 0.959 . S
H1298 C1312 0.961 . S
H1299 C1313 0.960 . S
H1300 C1313 0.961 . S
H1301 C1313 0.959 . S
H1302 C1316 0.929 . S
H1303 C1317 0.931 . S
H1304 C1319 0.930 . S
C1305 H1293 0.930 . S
C1305 C1306 1.399 . S
C1305 C1310 1.399 . S
C1306 C1305 1.399 . S
C1306 C1307 1.376 . S
C1307 H1294 0.930 . S
C1307 C1306 1.376 . S
C1307 C1308 1.388 . S
C1308 H1295 0.930 . S
C1308 C1307 1.388 . S
C1308 C1309 1.390 . S
C1309 C1308 1.390 . S
C1309 C1310 1.394 . S
C1309 C1315 1.465 . S
C1310 C1305 1.399 . S
C1310 C1309 1.394 . S
C1310 C1311 1.516 . S
C1311 C1310 1.516 . S
C1311 C1312 1.502 . S
C1311 C1313 1.561 . S
C1311 C1314 1.526 . S
C1312 H1296 0.959 . S
C1312 H1297 0.959 . S
C1312 H1298 0.961 . S
C1312 C1311 1.502 . S
C1313 H1299 0.960 . S
C1313 H1300 0.961 . S
C1313 H1301 0.959 . S
C1313 C1311 1.561 . S
C1314 C1311 1.526 . S
C1314 C1315 1.396 . S
C1314 C1319 1.390 . S
C1315 C1309 1.465 . S
C1315 C1314 1.396 . S
C1315 C1316 1.399 . S
C1316 H1302 0.929 . S
C1316 C1315 1.399 . S
C1316 C1317 1.385 . S
C1317 H1303 0.931 . S
C1317 C1316 1.385 . S
C1317 C1318 1.389 . S
C1318 C1317 1.389 . S
C1318 C1319 1.387 . S
C1319 H1304 0.930 . S
C1319 C1314 1.390 . S
C1319 C1318 1.387 . S
H1320 C1332 0.930 . S
H1321 C1334 0.930 . S
H1322 C1335 0.930 . S
H1323 C1339 0.959 . S
H1324 C1339 0.959 . S
H1325 C1339 0.961 . S
H1326 C1340 0.960 . S
H1327 C1340 0.961 . S
H1328 C1340 0.959 . S
H1329 C1343 0.929 . S
H1330 C1344 0.931 . S
H1331 C1346 0.930 . S
C1332 H1320 0.930 . S
C1332 C1333 1.399 . S
C1332 C1337 1.399 . S
C1333 C1332 1.399 . S
C1333 C1334 1.376 . S
C1334 H1321 0.930 . S
C1334 C1333 1.376 . S
C1334 C1335 1.388 . S
C1335 H1322 0.930 . S
C1335 C1334 1.388 . S
C1335 C1336 1.390 . S
C1336 C1335 1.390 . S
C1336 C1337 1.394 . S
C1336 C1342 1.465 . S
C1337 C1332 1.399 . S
C1337 C1336 1.394 . S
C1337 C1338 1.516 . S
C1338 C1337 1.516 . S
C1338 C1339 1.502 . S
C1338 C1340 1.561 . S
C1338 C1341 1.526 . S
C1339 H1323 0.959 . S
C1339 H1324 0.959 . S
C1339 H1325 0.961 . S
C1339 C1338 1.502 . S
C1340 H1326 0.960 . S
C1340 H1327 0.961 . S
C1340 H1328 0.959 . S
C1340 C1338 1.561 . S
C1341 C1338 1.526 . S
C1341 C1342 1.396 . S
C1341 C1346 1.390 . S
C1342 C1336 1.465 . S
C1342 C1341 1.396 . S
C1342 C1343 1.399 . S
C1343 H1329 0.929 . S
C1343 C1342 1.399 . S
C1343 C1344 1.385 . S
C1344 H1330 0.931 . S
C1344 C1343 1.385 . S
C1344 C1345 1.389 . S
C1345 C1344 1.389 . S
C1345 C1346 1.387 . S
C1346 H1331 0.930 . S
C1346 C1341 1.390 . S
C1346 C1345 1.387 . S
H1347 C1359 0.930 . S
H1348 C1361 0.930 . S
H1349 C1362 0.930 . S
H1350 C1366 0.959 . S
H1351 C1366 0.959 . S
H1352 C1366 0.961 . S
H1353 C1367 0.960 . S
H1354 C1367 0.961 . S
H1355 C1367 0.959 . S
H1356 C1370 0.929 . S
H1357 C1371 0.931 . S
H1358 C1373 0.930 . S
C1359 H1347 0.930 . S
C1359 C1360 1.399 . S
C1359 C1364 1.399 . S
C1360 C1359 1.399 . S
C1360 C1361 1.376 . S
C1361 H1348 0.930 . S
C1361 C1360 1.376 . S
C1361 C1362 1.388 . S
C1362 H1349 0.930 . S
C1362 C1361 1.388 . S
C1362 C1363 1.390 . S
C1363 C1362 1.390 . S
C1363 C1364 1.394 . S
C1363 C1369 1.465 . S
C1364 C1359 1.399 . S
C1364 C1363 1.394 . S
C1364 C1365 1.516 . S
C1365 C1364 1.516 . S
C1365 C1366 1.502 . S
C1365 C1367 1.561 . S
C1365 C1368 1.526 . S
C1366 H1350 0.959 . S
C1366 H1351 0.959 . S
C1366 H1352 0.961 . S
C1366 C1365 1.502 . S
C1367 H1353 0.960 . S
C1367 H1354 0.961 . S
C1367 H1355 0.959 . S
C1367 C1365 1.561 . S
C1368 C1365 1.526 . S
C1368 C1369 1.396 . S
C1368 C1373 1.390 . S
C1369 C1363 1.465 . S
C1369 C1368 1.396 . S
C1369 C1370 1.399 . S
C1370 H1356 0.929 . S
C1370 C1369 1.399 . S
C1370 C1371 1.385 . S
C1371 H1357 0.931 . S
C1371 C1370 1.385 . S
C1371 C1372 1.389 . S
C1372 C1371 1.389 . S
C1372 C1373 1.387 . S
C1373 H1358 0.930 . S
C1373 C1368 1.390 . S
C1373 C1372 1.387 . S
H1374 C1386 0.930 . S
H1375 C1388 0.930 . S
H1376 C1389 0.930 . S
H1377 C1393 0.959 . S
H1378 C1393 0.959 . S
H1379 C1393 0.961 . S
H1380 C1394 0.960 . S
H1381 C1394 0.961 . S
H1382 C1394 0.959 . S
H1383 C1397 0.929 . S
H1384 C1398 0.931 . S
H1385 C1400 0.930 . S
C1386 H1374 0.930 . S
C1386 C1387 1.399 . S
C1386 C1391 1.399 . S
C1387 C1386 1.399 . S
C1387 C1388 1.376 . S
C1388 H1375 0.930 . S
C1388 C1387 1.376 . S
C1388 C1389 1.388 . S
C1389 H1376 0.930 . S
C1389 C1388 1.388 . S
C1389 C1390 1.390 . S
C1390 C1389 1.390 . S
C1390 C1391 1.394 . S
C1390 C1396 1.465 . S
C1391 C1386 1.399 . S
C1391 C1390 1.394 . S
C1391 C1392 1.516 . S
C1392 C1391 1.516 . S
C1392 C1393 1.502 . S
C1392 C1394 1.561 . S
C1392 C1395 1.526 . S
C1393 H1377 0.959 . S
C1393 H1378 0.959 . S
C1393 H1379 0.961 . S
C1393 C1392 1.502 . S
C1394 H1380 0.960 . S
C1394 H1381 0.961 . S
C1394 H1382 0.959 . S
C1394 C1392 1.561 . S
C1395 C1392 1.526 . S
C1395 C1396 1.396 . S
C1395 C1400 1.390 . S
C1396 C1390 1.465 . S
C1396 C1395 1.396 . S
C1396 C1397 1.399 . S
C1397 H1383 0.929 . S
C1397 C1396 1.399 . S
C1397 C1398 1.385 . S
C1398 H1384 0.931 . S
C1398 C1397 1.385 . S
C1398 C1399 1.389 . S
C1399 C1398 1.389 . S
C1399 C1400 1.387 . S
C1400 H1385 0.930 . S
C1400 C1395 1.390 . S
C1400 C1399 1.387 . S
H1401 C1413 0.930 . S
H1402 C1415 0.930 . S
H1403 C1416 0.930 . S
H1404 C1420 0.959 . S
H1405 C1420 0.959 . S
H1406 C1420 0.961 . S
H1407 C1421 0.960 . S
H1408 C1421 0.961 . S
H1409 C1421 0.959 . S
H1410 C1424 0.929 . S
H1411 C1425 0.931 . S
H1412 C1427 0.930 . S
C1413 H1401 0.930 . S
C1413 C1414 1.399 . S
C1413 C1418 1.399 . S
C1414 C1413 1.399 . S
C1414 C1415 1.376 . S
C1415 H1402 0.930 . S
C1415 C1414 1.376 . S
C1415 C1416 1.388 . S
C1416 H1403 0.930 . S
C1416 C1415 1.388 . S
C1416 C1417 1.390 . S
C1417 C1416 1.390 . S
C1417 C1418 1.394 . S
C1417 C1423 1.465 . S
C1418 C1413 1.399 . S
C1418 C1417 1.394 . S
C1418 C1419 1.516 . S
C1419 C1418 1.516 . S
C1419 C1420 1.502 . S
C1419 C1421 1.561 . S
C1419 C1422 1.526 . S
C1420 H1404 0.959 . S
C1420 H1405 0.959 . S
C1420 H1406 0.961 . S
C1420 C1419 1.502 . S
C1421 H1407 0.960 . S
C1421 H1408 0.961 . S
C1421 H1409 0.959 . S
C1421 C1419 1.561 . S
C1422 C1419 1.526 . S
C1422 C1423 1.396 . S
C1422 C1427 1.390 . S
C1423 C1417 1.465 . S
C1423 C1422 1.396 . S
C1423 C1424 1.399 . S
C1424 H1410 0.929 . S
C1424 C1423 1.399 . S
C1424 C1425 1.385 . S
C1425 H1411 0.931 . S
C1425 C1424 1.385 . S
C1425 C1426 1.389 . S
C1426 C1425 1.389 . S
C1426 C1427 1.387 . S
C1427 H1412 0.930 . S
C1427 C1422 1.390 . S
C1427 C1426 1.387 . S
H1428 C1440 0.930 . S
H1429 C1442 0.930 . S
H1430 C1443 0.930 . S
H1431 C1447 0.959 . S
H1432 C1447 0.959 . S
H1433 C1447 0.961 . S
H1434 C1448 0.960 . S
H1435 C1448 0.961 . S
H1436 C1448 0.959 . S
H1437 C1451 0.929 . S
H1438 C1452 0.931 . S
H1439 C1454 0.930 . S
C1440 H1428 0.930 . S
C1440 C1441 1.399 . S
C1440 C1445 1.399 . S
C1441 C1440 1.399 . S
C1441 C1442 1.376 . S
C1442 H1429 0.930 . S
C1442 C1441 1.376 . S
C1442 C1443 1.388 . S
C1443 H1430 0.930 . S
C1443 C1442 1.388 . S
C1443 C1444 1.390 . S
C1444 C1443 1.390 . S
C1444 C1445 1.394 . S
C1444 C1450 1.465 . S
C1445 C1440 1.399 . S
C1445 C1444 1.394 . S
C1445 C1446 1.516 . S
C1446 C1445 1.516 . S
C1446 C1447 1.502 . S
C1446 C1448 1.561 . S
C1446 C1449 1.526 . S
C1447 H1431 0.959 . S
C1447 H1432 0.959 . S
C1447 H1433 0.961 . S
C1447 C1446 1.502 . S
C1448 H1434 0.960 . S
C1448 H1435 0.961 . S
C1448 H1436 0.959 . S
C1448 C1446 1.561 . S
C1449 C1446 1.526 . S
C1449 C1450 1.396 . S
C1449 C1454 1.390 . S
C1450 C1444 1.465 . S
C1450 C1449 1.396 . S
C1450 C1451 1.399 . S
C1451 H1437 0.929 . S
C1451 C1450 1.399 . S
C1451 C1452 1.385 . S
C1452 H1438 0.931 . S
C1452 C1451 1.385 . S
C1452 C1453 1.389 . S
C1453 C1452 1.389 . S
C1453 C1454 1.387 . S
C1454 H1439 0.930 . S
C1454 C1449 1.390 . S
C1454 C1453 1.387 . S
H1455 C1467 0.930 . S
H1456 C1469 0.930 . S
H1457 C1470 0.930 . S
H1458 C1474 0.959 . S
H1459 C1474 0.959 . S
H1460 C1474 0.961 . S
H1461 C1475 0.960 . S
H1462 C1475 0.961 . S
H1463 C1475 0.959 . S
H1464 C1478 0.929 . S
H1465 C1479 0.931 . S
H1466 C1481 0.930 . S
C1467 H1455 0.930 . S
C1467 C1468 1.399 . S
C1467 C1472 1.399 . S
C1468 C1467 1.399 . S
C1468 C1469 1.376 . S
C1469 H1456 0.930 . S
C1469 C1468 1.376 . S
C1469 C1470 1.388 . S
C1470 H1457 0.930 . S
C1470 C1469 1.388 . S
C1470 C1471 1.390 . S
C1471 C1470 1.390 . S
C1471 C1472 1.394 . S
C1471 C1477 1.465 . S
C1472 C1467 1.399 . S
C1472 C1471 1.394 . S
C1472 C1473 1.516 . S
C1473 C1472 1.516 . S
C1473 C1474 1.502 . S
C1473 C1475 1.561 . S
C1473 C1476 1.526 . S
C1474 H1458 0.959 . S
C1474 H1459 0.959 . S
C1474 H1460 0.961 . S
C1474 C1473 1.502 . S
C1475 H1461 0.960 . S
C1475 H1462 0.961 . S
C1475 H1463 0.959 . S
C1475 C1473 1.561 . S
C1476 C1473 1.526 . S
C1476 C1477 1.396 . S
C1476 C1481 1.390 . S
C1477 C1471 1.465 . S
C1477 C1476 1.396 . S
C1477 C1478 1.399 . S
C1478 H1464 0.929 . S
C1478 C1477 1.399 . S
C1478 C1479 1.385 . S
C1479 H1465 0.931 . S
C1479 C1478 1.385 . S
C1479 C1480 1.389 . S
C1480 C1479 1.389 . S
C1480 C1481 1.387 . S
C1481 H1466 0.930 . S
C1481 C1476 1.390 . S
C1481 C1480 1.387 . S
H1482 C1494 0.930 . S
H1483 C1496 0.930 . S
H1484 C1497 0.930 . S
H1485 C1501 0.959 . S
H1486 C1501 0.959 . S
H1487 C1501 0.961 . S
H1488 C1502 0.960 . S
H1489 C1502 0.961 . S
H1490 C1502 0.959 . S
H1491 C1505 0.929 . S
H1492 C1506 0.931 . S
H1493 C1508 0.930 . S
C1494 H1482 0.930 . S
C1494 C1495 1.399 . S
C1494 C1499 1.399 . S
C1495 C1494 1.399 . S
C1495 C1496 1.376 . S
C1496 H1483 0.930 . S
C1496 C1495 1.376 . S
C1496 C1497 1.388 . S
C1497 H1484 0.930 . S
C1497 C1496 1.388 . S
C1497 C1498 1.390 . S
C1498 C1497 1.390 . S
C1498 C1499 1.394 . S
C1498 C1504 1.465 . S
C1499 C1494 1.399 . S
C1499 C1498 1.394 . S
C1499 C1500 1.516 . S
C1500 C1499 1.516 . S
C1500 C1501 1.502 . S
C1500 C1502 1.561 . S
C1500 C1503 1.526 . S
C1501 H1485 0.959 . S
C1501 H1486 0.959 . S
C1501 H1487 0.961 . S
C1501 C1500 1.502 . S
C1502 H1488 0.960 . S
C1502 H1489 0.961 . S
C1502 H1490 0.959 . S
C1502 C1500 1.561 . S
C1503 C1500 1.526 . S
C1503 C1504 1.396 . S
C1503 C1508 1.390 . S
C1504 C1498 1.465 . S
C1504 C1503 1.396 . S
C1504 C1505 1.399 . S
C1505 H1491 0.929 . S
C1505 C1504 1.399 . S
C1505 C1506 1.385 . S
C1506 H1492 0.931 . S
C1506 C1505 1.385 . S
C1506 C1507 1.389 . S
C1507 C1506 1.389 . S
C1507 C1508 1.387 . S
C1508 H1493 0.930 . S
C1508 C1503 1.390 . S
C1508 C1507 1.387 . S
H1509 C1521 0.930 . S
H1510 C1523 0.930 . S
H1511 C1524 0.930 . S
H1512 C1528 0.959 . S
H1513 C1528 0.959 . S
H1514 C1528 0.961 . S
H1515 C1529 0.960 . S
H1516 C1529 0.961 . S
H1517 C1529 0.959 . S
H1518 C1532 0.929 . S
H1519 C1533 0.931 . S
H1520 C1535 0.930 . S
C1521 H1509 0.930 . S
C1521 C1522 1.399 . S
C1521 C1526 1.399 . S
C1522 C1521 1.399 . S
C1522 C1523 1.376 . S
C1523 H1510 0.930 . S
C1523 C1522 1.376 . S
C1523 C1524 1.388 . S
C1524 H1511 0.930 . S
C1524 C1523 1.388 . S
C1524 C1525 1.390 . S
C1525 C1524 1.390 . S
C1525 C1526 1.394 . S
C1525 C1531 1.465 . S
C1526 C1521 1.399 . S
C1526 C1525 1.394 . S
C1526 C1527 1.516 . S
C1527 C1526 1.516 . S
C1527 C1528 1.502 . S
C1527 C1529 1.561 . S
C1527 C1530 1.526 . S
C1528 H1512 0.959 . S
C1528 H1513 0.959 . S
C1528 H1514 0.961 . S
C1528 C1527 1.502 . S
C1529 H1515 0.960 . S
C1529 H1516 0.961 . S
C1529 H1517 0.959 . S
C1529 C1527 1.561 . S
C1530 C1527 1.526 . S
C1530 C1531 1.396 . S
C1530 C1535 1.390 . S
C1531 C1525 1.465 . S
C1531 C1530 1.396 . S
C1531 C1532 1.399 . S
C1532 H1518 0.929 . S
C1532 C1531 1.399 . S
C1532 C1533 1.385 . S
C1533 H1519 0.931 . S
C1533 C1532 1.385 . S
C1533 C1534 1.389 . S
C1534 C1533 1.389 . S
C1534 C1535 1.387 . S
C1535 H1520 0.930 . S
C1535 C1530 1.390 . S
C1535 C1534 1.387 . S
H1536 C1548 0.930 . S
H1537 C1550 0.930 . S
H1538 C1551 0.930 . S
H1539 C1555 0.959 . S
H1540 C1555 0.959 . S
H1541 C1555 0.961 . S
H1542 C1556 0.960 . S
H1543 C1556 0.961 . S
H1544 C1556 0.959 . S
H1545 C1559 0.929 . S
H1546 C1560 0.931 . S
H1547 C1562 0.930 . S
C1548 H1536 0.930 . S
C1548 C1549 1.399 . S
C1548 C1553 1.399 . S
C1549 C1548 1.399 . S
C1549 C1550 1.376 . S
C1550 H1537 0.930 . S
C1550 C1549 1.376 . S
C1550 C1551 1.388 . S
C1551 H1538 0.930 . S
C1551 C1550 1.388 . S
C1551 C1552 1.390 . S
C1552 C1551 1.390 . S
C1552 C1553 1.394 . S
C1552 C1558 1.465 . S
C1553 C1548 1.399 . S
C1553 C1552 1.394 . S
C1553 C1554 1.516 . S
C1554 C1553 1.516 . S
C1554 C1555 1.502 . S
C1554 C1556 1.561 . S
C1554 C1557 1.526 . S
C1555 H1539 0.959 . S
C1555 H1540 0.959 . S
C1555 H1541 0.961 . S
C1555 C1554 1.502 . S
C1556 H1542 0.960 . S
C1556 H1543 0.961 . S
C1556 H1544 0.959 . S
C1556 C1554 1.561 . S
C1557 C1554 1.526 . S
C1557 C1558 1.396 . S
C1557 C1562 1.390 . S
C1558 C1552 1.465 . S
C1558 C1557 1.396 . S
C1558 C1559 1.399 . S
C1559 H1545 0.929 . S
C1559 C1558 1.399 . S
C1559 C1560 1.385 . S
C1560 H1546 0.931 . S
C1560 C1559 1.385 . S
C1560 C1561 1.389 . S
C1561 C1560 1.389 . S
C1561 C1562 1.387 . S
C1562 H1547 0.930 . S
C1562 C1557 1.390 . S
C1562 C1561 1.387 . S
H1563 C1575 0.930 . S
H1564 C1577 0.930 . S
H1565 C1578 0.930 . S
H1566 C1582 0.959 . S
H1567 C1582 0.959 . S
H1568 C1582 0.961 . S
H1569 C1583 0.960 . S
H1570 C1583 0.961 . S
H1571 C1583 0.959 . S
H1572 C1586 0.929 . S
H1573 C1587 0.931 . S
H1574 C1589 0.930 . S
C1575 H1563 0.930 . S
C1575 C1576 1.399 . S
C1575 C1580 1.399 . S
C1576 C1575 1.399 . S
C1576 C1577 1.376 . S
C1577 H1564 0.930 . S
C1577 C1576 1.376 . S
C1577 C1578 1.388 . S
C1578 H1565 0.930 . S
C1578 C1577 1.388 . S
C1578 C1579 1.390 . S
C1579 C1578 1.390 . S
C1579 C1580 1.394 . S
C1579 C1585 1.465 . S
C1580 C1575 1.399 . S
C1580 C1579 1.394 . S
C1580 C1581 1.516 . S
C1581 C1580 1.516 . S
C1581 C1582 1.502 . S
C1581 C1583 1.561 . S
C1581 C1584 1.526 . S
C1582 H1566 0.959 . S
C1582 H1567 0.959 . S
C1582 H1568 0.961 . S
C1582 C1581 1.502 . S
C1583 H1569 0.960 . S
C1583 H1570 0.961 . S
C1583 H1571 0.959 . S
C1583 C1581 1.561 . S
C1584 C1581 1.526 . S
C1584 C1585 1.396 . S
C1584 C1589 1.390 . S
C1585 C1579 1.465 . S
C1585 C1584 1.396 . S
C1585 C1586 1.399 . S
C1586 H1572 0.929 . S
C1586 C1585 1.399 . S
C1586 C1587 1.385 . S
C1587 H1573 0.931 . S
C1587 C1586 1.385 . S
C1587 C1588 1.389 . S
C1588 C1587 1.389 . S
C1588 C1589 1.387 . S
C1589 H1574 0.930 . S
C1589 C1584 1.390 . S
C1589 C1588 1.387 . S
H1590 C1602 0.930 . S
H1591 C1604 0.930 . S
H1592 C1605 0.930 . S
H1593 C1609 0.959 . S
H1594 C1609 0.959 . S
H1595 C1609 0.961 . S
H1596 C1610 0.960 . S
H1597 C1610 0.961 . S
H1598 C1610 0.959 . S
H1599 C1613 0.929 . S
H1600 C1614 0.931 . S
H1601 C1616 0.930 . S
C1602 H1590 0.930 . S
C1602 C1603 1.399 . S
C1602 C1607 1.399 . S
C1603 C1602 1.399 . S
C1603 C1604 1.376 . S
C1604 H1591 0.930 . S
C1604 C1603 1.376 . S
C1604 C1605 1.388 . S
C1605 H1592 0.930 . S
C1605 C1604 1.388 . S
C1605 C1606 1.390 . S
C1606 C1605 1.390 . S
C1606 C1607 1.394 . S
C1606 C1612 1.465 . S
C1607 C1602 1.399 . S
C1607 C1606 1.394 . S
C1607 C1608 1.516 . S
C1608 C1607 1.516 . S
C1608 C1609 1.502 . S
C1608 C1610 1.561 . S
C1608 C1611 1.526 . S
C1609 H1593 0.959 . S
C1609 H1594 0.959 . S
C1609 H1595 0.961 . S
C1609 C1608 1.502 . S
C1610 H1596 0.960 . S
C1610 H1597 0.961 . S
C1610 H1598 0.959 . S
C1610 C1608 1.561 . S
C1611 C1608 1.526 . S
C1611 C1612 1.396 . S
C1611 C1616 1.390 . S
C1612 C1606 1.465 . S
C1612 C1611 1.396 . S
C1612 C1613 1.399 . S
C1613 H1599 0.929 . S
C1613 C1612 1.399 . S
C1613 C1614 1.385 . S
C1614 H1600 0.931 . S
C1614 C1613 1.385 . S
C1614 C1615 1.389 . S
C1615 C1614 1.389 . S
C1615 C1616 1.387 . S
C1616 H1601 0.930 . S
C1616 C1611 1.390 . S
C1616 C1615 1.387 . S
H1617 C1629 0.930 . S
H1618 C1631 0.930 . S
H1619 C1632 0.930 . S
H1620 C1636 0.959 . S
H1621 C1636 0.959 . S
H1622 C1636 0.961 . S
H1623 C1637 0.960 . S
H1624 C1637 0.961 . S
H1625 C1637 0.959 . S
H1626 C1640 0.929 . S
H1627 C1641 0.931 . S
H1628 C1643 0.930 . S
C1629 H1617 0.930 . S
C1629 C1630 1.399 . S
C1629 C1634 1.399 . S
C1630 C1629 1.399 . S
C1630 C1631 1.376 . S
C1631 H1618 0.930 . S
C1631 C1630 1.376 . S
C1631 C1632 1.388 . S
C1632 H1619 0.930 . S
C1632 C1631 1.388 . S
C1632 C1633 1.390 . S
C1633 C1632 1.390 . S
C1633 C1634 1.394 . S
C1633 C1639 1.465 . S
C1634 C1629 1.399 . S
C1634 C1633 1.394 . S
C1634 C1635 1.516 . S
C1635 C1634 1.516 . S
C1635 C1636 1.502 . S
C1635 C1637 1.561 . S
C1635 C1638 1.526 . S
C1636 H1620 0.959 . S
C1636 H1621 0.959 . S
C1636 H1622 0.961 . S
C1636 C1635 1.502 . S
C1637 H1623 0.960 . S
C1637 H1624 0.961 . S
C1637 H1625 0.959 . S
C1637 C1635 1.561 . S
C1638 C1635 1.526 . S
C1638 C1639 1.396 . S
C1638 C1643 1.390 . S
C1639 C1633 1.465 . S
C1639 C1638 1.396 . S
C1639 C1640 1.399 . S
C1640 H1626 0.929 . S
C1640 C1639 1.399 . S
C1640 C1641 1.385 . S
C1641 H1627 0.931 . S
C1641 C1640 1.385 . S
C1641 C1642 1.389 . S
C1642 C1641 1.389 . S
C1642 C1643 1.387 . S
C1643 H1628 0.930 . S
C1643 C1638 1.390 . S
C1643 C1642 1.387 . S
H1644 C1656 0.930 . S
H1645 C1658 0.930 . S
H1646 C1659 0.930 . S
H1647 C1663 0.959 . S
H1648 C1663 0.959 . S
H1649 C1663 0.961 . S
H1650 C1664 0.960 . S
H1651 C1664 0.961 . S
H1652 C1664 0.959 . S
H1653 C1667 0.929 . S
H1654 C1668 0.931 . S
H1655 C1670 0.930 . S
C1656 H1644 0.930 . S
C1656 C1657 1.399 . S
C1656 C1661 1.399 . S
C1657 C1656 1.399 . S
C1657 C1658 1.376 . S
C1658 H1645 0.930 . S
C1658 C1657 1.376 . S
C1658 C1659 1.388 . S
C1659 H1646 0.930 . S
C1659 C1658 1.388 . S
C1659 C1660 1.390 . S
C1660 C1659 1.390 . S
C1660 C1661 1.394 . S
C1660 C1666 1.465 . S
C1661 C1656 1.399 . S
C1661 C1660 1.394 . S
C1661 C1662 1.516 . S
C1662 C1661 1.516 . S
C1662 C1663 1.502 . S
C1662 C1664 1.561 . S
C1662 C1665 1.526 . S
C1663 H1647 0.959 . S
C1663 H1648 0.959 . S
C1663 H1649 0.961 . S
C1663 C1662 1.502 . S
C1664 H1650 0.960 . S
C1664 H1651 0.961 . S
C1664 H1652 0.959 . S
C1664 C1662 1.561 . S
C1665 C1662 1.526 . S
C1665 C1666 1.396 . S
C1665 C1670 1.390 . S
C1666 C1660 1.465 . S
C1666 C1665 1.396 . S
C1666 C1667 1.399 . S
C1667 H1653 0.929 . S
C1667 C1666 1.399 . S
C1667 C1668 1.385 . S
C1668 H1654 0.931 . S
C1668 C1667 1.385 . S
C1668 C1669 1.389 . S
C1669 C1668 1.389 . S
C1669 C1670 1.387 . S
C1670 H1655 0.930 . S
C1670 C1665 1.390 . S
C1670 C1669 1.387 . S
H1671 C1683 0.930 . S
H1672 C1685 0.930 . S
H1673 C1686 0.930 . S
H1674 C1690 0.959 . S
H1675 C1690 0.959 . S
H1676 C1690 0.961 . S
H1677 C1691 0.960 . S
H1678 C1691 0.961 . S
H1679 C1691 0.959 . S
H1680 C1694 0.929 . S
H1681 C1695 0.931 . S
H1682 C1697 0.930 . S
C1683 H1671 0.930 . S
C1683 C1684 1.399 . S
C1683 C1688 1.399 . S
C1684 C1683 1.399 . S
C1684 C1685 1.376 . S
C1685 H1672 0.930 . S
C1685 C1684 1.376 . S
C1685 C1686 1.388 . S
C1686 H1673 0.930 . S
C1686 C1685 1.388 . S
C1686 C1687 1.390 . S
C1687 C1686 1.390 . S
C1687 C1688 1.394 . S
C1687 C1693 1.465 . S
C1688 C1683 1.399 . S
C1688 C1687 1.394 . S
C1688 C1689 1.516 . S
C1689 C1688 1.516 . S
C1689 C1690 1.502 . S
C1689 C1691 1.561 . S
C1689 C1692 1.526 . S
C1690 H1674 0.959 . S
C1690 H1675 0.959 . S
C1690 H1676 0.961 . S
C1690 C1689 1.502 . S
C1691 H1677 0.960 . S
C1691 H1678 0.961 . S
C1691 H1679 0.959 . S
C1691 C1689 1.561 . S
C1692 C1689 1.526 . S
C1692 C1693 1.396 . S
C1692 C1697 1.390 . S
C1693 C1687 1.465 . S
C1693 C1692 1.396 . S
C1693 C1694 1.399 . S
C1694 H1680 0.929 . S
C1694 C1693 1.399 . S
C1694 C1695 1.385 . S
C1695 H1681 0.931 . S
C1695 C1694 1.385 . S
C1695 C1696 1.389 . S
C1696 C1695 1.389 . S
C1696 C1697 1.387 . S
C1697 H1682 0.930 . S
C1697 C1692 1.390 . S
C1697 C1696 1.387 . S
H1698 C1710 0.930 . S
H1699 C1712 0.930 . S
H1700 C1713 0.930 . S
H1701 C1717 0.959 . S
H1702 C1717 0.959 . S
H1703 C1717 0.961 . S
H1704 C1718 0.960 . S
H1705 C1718 0.961 . S
H1706 C1718 0.959 . S
H1707 C1721 0.929 . S
H1708 C1722 0.931 . S
H1709 C1724 0.930 . S
C1710 H1698 0.930 . S
C1710 C1711 1.399 . S
C1710 C1715 1.399 . S
C1711 C1710 1.399 . S
C1711 C1712 1.376 . S
C1712 H1699 0.930 . S
C1712 C1711 1.376 . S
C1712 C1713 1.388 . S
C1713 H1700 0.930 . S
C1713 C1712 1.388 . S
C1713 C1714 1.390 . S
C1714 C1713 1.390 . S
C1714 C1715 1.394 . S
C1714 C1720 1.465 . S
C1715 C1710 1.399 . S
C1715 C1714 1.394 . S
C1715 C1716 1.516 . S
C1716 C1715 1.516 . S
C1716 C1717 1.502 . S
C1716 C1718 1.561 . S
C1716 C1719 1.526 . S
C1717 H1701 0.959 . S
C1717 H1702 0.959 . S
C1717 H1703 0.961 . S
C1717 C1716 1.502 . S
C1718 H1704 0.960 . S
C1718 H1705 0.961 . S
C1718 H1706 0.959 . S
C1718 C1716 1.561 . S
C1719 C1716 1.526 . S
C1719 C1720 1.396 . S
C1719 C1724 1.390 . S
C1720 C1714 1.465 . S
C1720 C1719 1.396 . S
C1720 C1721 1.399 . S
C1721 H1707 0.929 . S
C1721 C1720 1.399 . S
C1721 C1722 1.385 . S
C1722 H1708 0.931 . S
C1722 C1721 1.385 . S
C1722 C1723 1.389 . S
C1723 C1722 1.389 . S
C1723 C1724 1.387 . S
C1724 H1709 0.930 . S
C1724 C1719 1.390 . S
C1724 C1723 1.387 . S
H1725 C1737 0.930 . S
H1726 C1739 0.930 . S
H1727 C1740 0.930 . S
H1728 C1744 0.959 . S
H1729 C1744 0.959 . S
H1730 C1744 0.961 . S
H1731 C1745 0.960 . S
H1732 C1745 0.961 . S
H1733 C1745 0.959 . S
H1734 C1748 0.929 . S
H1735 C1749 0.931 . S
H1736 C1751 0.930 . S
C1737 H1725 0.930 . S
C1737 C1738 1.399 . S
C1737 C1742 1.399 . S
C1738 C1737 1.399 . S
C1738 C1739 1.376 . S
C1739 H1726 0.930 . S
C1739 C1738 1.376 . S
C1739 C1740 1.388 . S
C1740 H1727 0.930 . S
C1740 C1739 1.388 . S
C1740 C1741 1.390 . S
C1741 C1740 1.390 . S
C1741 C1742 1.394 . S
C1741 C1747 1.465 . S
C1742 C1737 1.399 . S
C1742 C1741 1.394 . S
C1742 C1743 1.516 . S
C1743 C1742 1.516 . S
C1743 C1744 1.502 . S
C1743 C1745 1.561 . S
C1743 C1746 1.526 . S
C1744 H1728 0.959 . S
C1744 H1729 0.959 . S
C1744 H1730 0.961 . S
C1744 C1743 1.502 . S
C1745 H1731 0.960 . S
C1745 H1732 0.961 . S
C1745 H1733 0.959 . S
C1745 C1743 1.561 . S
C1746 C1743 1.526 . S
C1746 C1747 1.396 . S
C1746 C1751 1.390 . S
C1747 C1741 1.465 . S
C1747 C1746 1.396 . S
C1747 C1748 1.399 . S
C1748 H1734 0.929 . S
C1748 C1747 1.399 . S
C1748 C1749 1.385 . S
C1749 H1735 0.931 . S
C1749 C1748 1.385 . S
C1749 C1750 1.389 . S
C1750 C1749 1.389 . S
C1750 C1751 1.387 . S
C1751 H1736 0.930 . S
C1751 C1746 1.390 . S
C1751 C1750 1.387 . S
H1752 C1764 0.930 . S
H1753 C1766 0.930 . S
H1754 C1767 0.930 . S
H1755 C1771 0.959 . S
H1756 C1771 0.959 . S
H1757 C1771 0.961 . S
H1758 C1772 0.960 . S
H1759 C1772 0.961 . S
H1760 C1772 0.959 . S
H1761 C1775 0.929 . S
H1762 C1776 0.931 . S
H1763 C1778 0.930 . S
C1764 H1752 0.930 . S
C1764 C1765 1.399 . S
C1764 C1769 1.399 . S
C1765 C1764 1.399 . S
C1765 C1766 1.376 . S
C1766 H1753 0.930 . S
C1766 C1765 1.376 . S
C1766 C1767 1.388 . S
C1767 H1754 0.930 . S
C1767 C1766 1.388 . S
C1767 C1768 1.390 . S
C1768 C1767 1.390 . S
C1768 C1769 1.394 . S
C1768 C1774 1.465 . S
C1769 C1764 1.399 . S
C1769 C1768 1.394 . S
C1769 C1770 1.516 . S
C1770 C1769 1.516 . S
C1770 C1771 1.502 . S
C1770 C1772 1.561 . S
C1770 C1773 1.526 . S
C1771 H1755 0.959 . S
C1771 H1756 0.959 . S
C1771 H1757 0.961 . S
C1771 C1770 1.502 . S
C1772 H1758 0.960 . S
C1772 H1759 0.961 . S
C1772 H1760 0.959 . S
C1772 C1770 1.561 . S
C1773 C1770 1.526 . S
C1773 C1774 1.396 . S
C1773 C1778 1.390 . S
C1774 C1768 1.465 . S
C1774 C1773 1.396 . S
C1774 C1775 1.399 . S
C1775 H1761 0.929 . S
C1775 C1774 1.399 . S
C1775 C1776 1.385 . S
C1776 H1762 0.931 . S
C1776 C1775 1.385 . S
C1776 C1777 1.389 . S
C1777 C1776 1.389 . S
C1777 C1778 1.387 . S
C1778 H1763 0.930 . S
C1778 C1773 1.390 . S
C1778 C1777 1.387 . S
H1779 C1791 0.930 . S
H1780 C1793 0.930 . S
H1781 C1794 0.930 . S
H1782 C1798 0.959 . S
H1783 C1798 0.959 . S
H1784 C1798 0.961 . S
H1785 C1799 0.960 . S
H1786 C1799 0.961 . S
H1787 C1799 0.959 . S
H1788 C1802 0.929 . S
H1789 C1803 0.931 . S
H1790 C1805 0.930 . S
C1791 H1779 0.930 . S
C1791 C1792 1.399 . S
C1791 C1796 1.399 . S
C1792 C1791 1.399 . S
C1792 C1793 1.376 . S
C1793 H1780 0.930 . S
C1793 C1792 1.376 . S
C1793 C1794 1.388 . S
C1794 H1781 0.930 . S
C1794 C1793 1.388 . S
C1794 C1795 1.390 . S
C1795 C1794 1.390 . S
C1795 C1796 1.394 . S
C1795 C1801 1.465 . S
C1796 C1791 1.399 . S
C1796 C1795 1.394 . S
C1796 C1797 1.516 . S
C1797 C1796 1.516 . S
C1797 C1798 1.502 . S
C1797 C1799 1.561 . S
C1797 C1800 1.526 . S
C1798 H1782 0.959 . S
C1798 H1783 0.959 . S
C1798 H1784 0.961 . S
C1798 C1797 1.502 . S
C1799 H1785 0.960 . S
C1799 H1786 0.961 . S
C1799 H1787 0.959 . S
C1799 C1797 1.561 . S
C1800 C1797 1.526 . S
C1800 C1801 1.396 . S
C1800 C1805 1.390 . S
C1801 C1795 1.465 . S
C1801 C1800 1.396 . S
C1801 C1802 1.399 . S
C1802 H1788 0.929 . S
C1802 C1801 1.399 . S
C1802 C1803 1.385 . S
C1803 H1789 0.931 . S
C1803 C1802 1.385 . S
C1803 C1804 1.389 . S
C1804 C1803 1.389 . S
C1804 C1805 1.387 . S
C1805 H1790 0.930 . S
C1805 C1800 1.390 . S
C1805 C1804 1.387 . S
H1806 C1818 0.930 . S
H1807 C1820 0.930 . S
H1808 C1821 0.930 . S
H1809 C1825 0.959 . S
H1810 C1825 0.959 . S
H1811 C1825 0.961 . S
H1812 C1826 0.960 . S
H1813 C1826 0.961 . S
H1814 C1826 0.959 . S
H1815 C1829 0.929 . S
H1816 C1830 0.931 . S
H1817 C1832 0.930 . S
C1818 H1806 0.930 . S
C1818 C1819 1.399 . S
C1818 C1823 1.399 . S
C1819 C1818 1.399 . S
C1819 C1820 1.376 . S
C1820 H1807 0.930 . S
C1820 C1819 1.376 . S
C1820 C1821 1.388 . S
C1821 H1808 0.930 . S
C1821 C1820 1.388 . S
C1821 C1822 1.390 . S
C1822 C1821 1.390 . S
C1822 C1823 1.394 . S
C1822 C1828 1.465 . S
C1823 C1818 1.399 . S
C1823 C1822 1.394 . S
C1823 C1824 1.516 . S
C1824 C1823 1.516 . S
C1824 C1825 1.502 . S
C1824 C1826 1.561 . S
C1824 C1827 1.526 . S
C1825 H1809 0.959 . S
C1825 H1810 0.959 . S
C1825 H1811 0.961 . S
C1825 C1824 1.502 . S
C1826 H1812 0.960 . S
C1826 H1813 0.961 . S
C1826 H1814 0.959 . S
C1826 C1824 1.561 . S
C1827 C1824 1.526 . S
C1827 C1828 1.396 . S
C1827 C1832 1.390 . S
C1828 C1822 1.465 . S
C1828 C1827 1.396 . S
C1828 C1829 1.399 . S
C1829 H1815 0.929 . S
C1829 C1828 1.399 . S
C1829 C1830 1.385 . S
C1830 H1816 0.931 . S
C1830 C1829 1.385 . S
C1830 C1831 1.389 . S
C1831 C1830 1.389 . S
C1831 C1832 1.387 . S
C1832 H1817 0.930 . S
C1832 C1827 1.390 . S
C1832 C1831 1.387 . S
H1833 C1845 0.930 . S
H1834 C1847 0.930 . S
H1835 C1848 0.930 . S
H1836 C1852 0.959 . S
H1837 C1852 0.959 . S
H1838 C1852 0.961 . S
H1839 C1853 0.960 . S
H1840 C1853 0.961 . S
H1841 C1853 0.959 . S
H1842 C1856 0.929 . S
H1843 C1857 0.931 . S
H1844 C1859 0.930 . S
C1845 H1833 0.930 . S
C1845 C1846 1.399 . S
C1845 C1850 1.399 . S
C1846 C1845 1.399 . S
C1846 C1847 1.376 . S
C1847 H1834 0.930 . S
C1847 C1846 1.376 . S
C1847 C1848 1.388 . S
C1848 H1835 0.930 . S
C1848 C1847 1.388 . S
C1848 C1849 1.390 . S
C1849 C1848 1.390 . S
C1849 C1850 1.394 . S
C1849 C1855 1.465 . S
C1850 C1845 1.399 . S
C1850 C1849 1.394 . S
C1850 C1851 1.516 . S
C1851 C1850 1.516 . S
C1851 C1852 1.502 . S
C1851 C1853 1.561 . S
C1851 C1854 1.526 . S
C1852 H1836 0.959 . S
C1852 H1837 0.959 . S
C1852 H1838 0.961 . S
C1852 C1851 1.502 . S
C1853 H1839 0.960 . S
C1853 H1840 0.961 . S
C1853 H1841 0.959 . S
C1853 C1851 1.561 . S
C1854 C1851 1.526 . S
C1854 C1855 1.396 . S
C1854 C1859 1.390 . S
C1855 C1849 1.465 . S
C1855 C1854 1.396 . S
C1855 C1856 1.399 . S
C1856 H1842 0.929 . S
C1856 C1855 1.399 . S
C1856 C1857 1.385 . S
C1857 H1843 0.931 . S
C1857 C1856 1.385 . S
C1857 C1858 1.389 . S
C1858 C1857 1.389 . S
C1858 C1859 1.387 . S
C1859 H1844 0.930 . S
C1859 C1854 1.390 . S
C1859 C1858 1.387 . S
H1860 C1872 0.930 . S
H1861 C1874 0.930 . S
H1862 C1875 0.930 . S
H1863 C1879 0.959 . S
H1864 C1879 0.959 . S
H1865 C1879 0.961 . S
H1866 C1880 0.960 . S
H1867 C1880 0.961 . S
H1868 C1880 0.959 . S
H1869 C1883 0.929 . S
H1870 C1884 0.931 . S
H1871 C1886 0.930 . S
C1872 H1860 0.930 . S
C1872 C1873 1.399 . S
C1872 C1877 1.399 . S
C1873 C1872 1.399 . S
C1873 C1874 1.376 . S
C1874 H1861 0.930 . S
C1874 C1873 1.376 . S
C1874 C1875 1.388 . S
C1875 H1862 0.930 . S
C1875 C1874 1.388 . S
C1875 C1876 1.390 . S
C1876 C1875 1.390 . S
C1876 C1877 1.394 . S
C1876 C1882 1.465 . S
C1877 C1872 1.399 . S
C1877 C1876 1.394 . S
C1877 C1878 1.516 . S
C1878 C1877 1.516 . S
C1878 C1879 1.502 . S
C1878 C1880 1.561 . S
C1878 C1881 1.526 . S
C1879 H1863 0.959 . S
C1879 H1864 0.959 . S
C1879 H1865 0.961 . S
C1879 C1878 1.502 . S
C1880 H1866 0.960 . S
C1880 H1867 0.961 . S
C1880 H1868 0.959 . S
C1880 C1878 1.561 . S
C1881 C1878 1.526 . S
C1881 C1882 1.396 . S
C1881 C1886 1.390 . S
C1882 C1876 1.465 . S
C1882 C1881 1.396 . S
C1882 C1883 1.399 . S
C1883 H1869 0.929 . S
C1883 C1882 1.399 . S
C1883 C1884 1.385 . S
C1884 H1870 0.931 . S
C1884 C1883 1.385 . S
C1884 C1885 1.389 . S
C1885 C1884 1.389 . S
C1885 C1886 1.387 . S
C1886 H1871 0.930 . S
C1886 C1881 1.390 . S
C1886 C1885 1.387 . S
H1887 C1899 0.930 . S
H1888 C1901 0.930 . S
H1889 C1902 0.930 . S
H1890 C1906 0.959 . S
H1891 C1906 0.959 . S
H1892 C1906 0.961 . S
H1893 C1907 0.960 . S
H1894 C1907 0.961 . S
H1895 C1907 0.959 . S
H1896 C1910 0.929 . S
H1897 C1911 0.931 . S
H1898 C1913 0.930 . S
C1899 H1887 0.930 . S
C1899 C1900 1.399 . S
C1899 C1904 1.399 . S
C1900 C1899 1.399 . S
C1900 C1901 1.376 . S
C1901 H1888 0.930 . S
C1901 C1900 1.376 . S
C1901 C1902 1.388 . S
C1902 H1889 0.930 . S
C1902 C1901 1.388 . S
C1902 C1903 1.390 . S
C1903 C1902 1.390 . S
C1903 C1904 1.394 . S
C1903 C1909 1.465 . S
C1904 C1899 1.399 . S
C1904 C1903 1.394 . S
C1904 C1905 1.516 . S
C1905 C1904 1.516 . S
C1905 C1906 1.502 . S
C1905 C1907 1.561 . S
C1905 C1908 1.526 . S
C1906 H1890 0.959 . S
C1906 H1891 0.959 . S
C1906 H1892 0.961 . S
C1906 C1905 1.502 . S
C1907 H1893 0.960 . S
C1907 H1894 0.961 . S
C1907 H1895 0.959 . S
C1907 C1905 1.561 . S
C1908 C1905 1.526 . S
C1908 C1909 1.396 . S
C1908 C1913 1.390 . S
C1909 C1903 1.465 . S
C1909 C1908 1.396 . S
C1909 C1910 1.399 . S
C1910 H1896 0.929 . S
C1910 C1909 1.399 . S
C1910 C1911 1.385 . S
C1911 H1897 0.931 . S
C1911 C1910 1.385 . S
C1911 C1912 1.389 . S
C1912 C1911 1.389 . S
C1912 C1913 1.387 . S
C1913 H1898 0.930 . S
C1913 C1908 1.390 . S
C1913 C1912 1.387 . S
H1914 C1926 0.930 . S
H1915 C1928 0.930 . S
H1916 C1929 0.930 . S
H1917 C1933 0.959 . S
H1918 C1933 0.959 . S
H1919 C1933 0.961 . S
H1920 C1934 0.960 . S
H1921 C1934 0.961 . S
H1922 C1934 0.959 . S
H1923 C1937 0.929 . S
H1924 C1938 0.931 . S
H1925 C1940 0.930 . S
C1926 H1914 0.930 . S
C1926 C1927 1.399 . S
C1926 C1931 1.399 . S
C1927 C1926 1.399 . S
C1927 C1928 1.376 . S
C1928 H1915 0.930 . S
C1928 C1927 1.376 . S
C1928 C1929 1.388 . S
C1929 H1916 0.930 . S
C1929 C1928 1.388 . S
C1929 C1930 1.390 . S
C1930 C1929 1.390 . S
C1930 C1931 1.394 . S
C1930 C1936 1.465 . S
C1931 C1926 1.399 . S
C1931 C1930 1.394 . S
C1931 C1932 1.516 . S
C1932 C1931 1.516 . S
C1932 C1933 1.502 . S
C1932 C1934 1.561 . S
C1932 C1935 1.526 . S
C1933 H1917 0.959 . S
C1933 H1918 0.959 . S
C1933 H1919 0.961 . S
C1933 C1932 1.502 . S
C1934 H1920 0.960 . S
C1934 H1921 0.961 . S
C1934 H1922 0.959 . S
C1934 C1932 1.561 . S
C1935 C1932 1.526 . S
C1935 C1936 1.396 . S
C1935 C1940 1.390 . S
C1936 C1930 1.465 . S
C1936 C1935 1.396 . S
C1936 C1937 1.399 . S
C1937 H1923 0.929 . S
C1937 C1936 1.399 . S
C1937 C1938 1.385 . S
C1938 H1924 0.931 . S
C1938 C1937 1.385 . S
C1938 C1939 1.389 . S
C1939 C1938 1.389 . S
C1939 C1940 1.387 . S
C1940 H1925 0.930 . S
C1940 C1935 1.390 . S
C1940 C1939 1.387 . S
H1941 C1953 0.930 . S
H1942 C1955 0.930 . S
H1943 C1956 0.930 . S
H1944 C1960 0.959 . S
H1945 C1960 0.959 . S
H1946 C1960 0.961 . S
H1947 C1961 0.960 . S
H1948 C1961 0.961 . S
H1949 C1961 0.959 . S
H1950 C1964 0.929 . S
H1951 C1965 0.931 . S
H1952 C1967 0.930 . S
C1953 H1941 0.930 . S
C1953 C1954 1.399 . S
C1953 C1958 1.399 . S
C1954 C1953 1.399 . S
C1954 C1955 1.376 . S
C1955 H1942 0.930 . S
C1955 C1954 1.376 . S
C1955 C1956 1.388 . S
C1956 H1943 0.930 . S
C1956 C1955 1.388 . S
C1956 C1957 1.390 . S
C1957 C1956 1.390 . S
C1957 C1958 1.394 . S
C1957 C1963 1.465 . S
C1958 C1953 1.399 . S
C1958 C1957 1.394 . S
C1958 C1959 1.516 . S
C1959 C1958 1.516 . S
C1959 C1960 1.502 . S
C1959 C1961 1.561 . S
C1959 C1962 1.526 . S
C1960 H1944 0.959 . S
C1960 H1945 0.959 . S
C1960 H1946 0.961 . S
C1960 C1959 1.502 . S
C1961 H1947 0.960 . S
C1961 H1948 0.961 . S
C1961 H1949 0.959 . S
C1961 C1959 1.561 . S
C1962 C1959 1.526 . S
C1962 C1963 1.396 . S
C1962 C1967 1.390 . S
C1963 C1957 1.465 . S
C1963 C1962 1.396 . S
C1963 C1964 1.399 . S
C1964 H1950 0.929 . S
C1964 C1963 1.399 . S
C1964 C1965 1.385 . S
C1965 H1951 0.931 . S
C1965 C1964 1.385 . S
C1965 C1966 1.389 . S
C1966 C1965 1.389 . S
C1966 C1967 1.387 . S
C1967 H1952 0.930 . S
C1967 C1962 1.390 . S
C1967 C1966 1.387 . S
H1968 C1980 0.930 . S
H1969 C1982 0.930 . S
H1970 C1983 0.930 . S
H1971 C1987 0.959 . S
H1972 C1987 0.959 . S
H1973 C1987 0.961 . S
H1974 C1988 0.960 . S
H1975 C1988 0.961 . S
H1976 C1988 0.959 . S
H1977 C1991 0.929 . S
H1978 C1992 0.931 . S
H1979 C1994 0.930 . S
C1980 H1968 0.930 . S
C1980 C1981 1.399 . S
C1980 C1985 1.399 . S
C1981 C1980 1.399 . S
C1981 C1982 1.376 . S
C1982 H1969 0.930 . S
C1982 C1981 1.376 . S
C1982 C1983 1.388 . S
C1983 H1970 0.930 . S
C1983 C1982 1.388 . S
C1983 C1984 1.390 . S
C1984 C1983 1.390 . S
C1984 C1985 1.394 . S
C1984 C1990 1.465 . S
C1985 C1980 1.399 . S
C1985 C1984 1.394 . S
C1985 C1986 1.516 . S
C1986 C1985 1.516 . S
C1986 C1987 1.502 . S
C1986 C1988 1.561 . S
C1986 C1989 1.526 . S
C1987 H1971 0.959 . S
C1987 H1972 0.959 . S
C1987 H1973 0.961 . S
C1987 C1986 1.502 . S
C1988 H1974 0.960 . S
C1988 H1975 0.961 . S
C1988 H1976 0.959 . S
C1988 C1986 1.561 . S
C1989 C1986 1.526 . S
C1989 C1990 1.396 . S
C1989 C1994 1.390 . S
C1990 C1984 1.465 . S
C1990 C1989 1.396 . S
C1990 C1991 1.399 . S
C1991 H1977 0.929 . S
C1991 C1990 1.399 . S
C1991 C1992 1.385 . S
C1992 H1978 0.931 . S
C1992 C1991 1.385 . S
C1992 C1993 1.389 . S
C1993 C1992 1.389 . S
C1993 C1994 1.387 . S
C1994 H1979 0.930 . S
C1994 C1989 1.390 . S
C1994 C1993 1.387 . S
H1995 C2007 0.930 . S
H1996 C2009 0.930 . S
H1997 C2010 0.930 . S
H1998 C2014 0.959 . S
H1999 C2014 0.959 . S
H2000 C2014 0.961 . S
H2001 C2015 0.960 . S
H2002 C2015 0.961 . S
H2003 C2015 0.959 . S
H2004 C2018 0.929 . S
H2005 C2019 0.931 . S
H2006 C2021 0.930 . S
C2007 H1995 0.930 . S
C2007 C2008 1.399 . S
C2007 C2012 1.399 . S
C2008 C2007 1.399 . S
C2008 C2009 1.376 . S
C2009 H1996 0.930 . S
C2009 C2008 1.376 . S
C2009 C2010 1.388 . S
C2010 H1997 0.930 . S
C2010 C2009 1.388 . S
C2010 C2011 1.390 . S
C2011 C2010 1.390 . S
C2011 C2012 1.394 . S
C2011 C2017 1.465 . S
C2012 C2007 1.399 . S
C2012 C2011 1.394 . S
C2012 C2013 1.516 . S
C2013 C2012 1.516 . S
C2013 C2014 1.502 . S
C2013 C2015 1.561 . S
C2013 C2016 1.526 . S
C2014 H1998 0.959 . S
C2014 H1999 0.959 . S
C2014 H2000 0.961 . S
C2014 C2013 1.502 . S
C2015 H2001 0.960 . S
C2015 H2002 0.961 . S
C2015 H2003 0.959 . S
C2015 C2013 1.561 . S
C2016 C2013 1.526 . S
C2016 C2017 1.396 . S
C2016 C2021 1.390 . S
C2017 C2011 1.465 . S
C2017 C2016 1.396 . S
C2017 C2018 1.399 . S
C2018 H2004 0.929 . S
C2018 C2017 1.399 . S
C2018 C2019 1.385 . S
C2019 H2005 0.931 . S
C2019 C2018 1.385 . S
C2019 C2020 1.389 . S
C2020 C2019 1.389 . S
C2020 C2021 1.387 . S
C2021 H2006 0.930 . S
C2021 C2016 1.390 . S
C2021 C2020 1.387 . S
H2022 C2034 0.930 . S
H2023 C2036 0.930 . S
H2024 C2037 0.930 . S
H2025 C2041 0.959 . S
H2026 C2041 0.959 . S
H2027 C2041 0.961 . S
H2028 C2042 0.960 . S
H2029 C2042 0.961 . S
H2030 C2042 0.959 . S
H2031 C2045 0.929 . S
H2032 C2046 0.931 . S
H2033 C2048 0.930 . S
C2034 H2022 0.930 . S
C2034 C2035 1.399 . S
C2034 C2039 1.399 . S
C2035 C2034 1.399 . S
C2035 C2036 1.376 . S
C2036 H2023 0.930 . S
C2036 C2035 1.376 . S
C2036 C2037 1.388 . S
C2037 H2024 0.930 . S
C2037 C2036 1.388 . S
C2037 C2038 1.390 . S
C2038 C2037 1.390 . S
C2038 C2039 1.394 . S
C2038 C2044 1.465 . S
C2039 C2034 1.399 . S
C2039 C2038 1.394 . S
C2039 C2040 1.516 . S
C2040 C2039 1.516 . S
C2040 C2041 1.502 . S
C2040 C2042 1.561 . S
C2040 C2043 1.526 . S
C2041 H2025 0.959 . S
C2041 H2026 0.959 . S
C2041 H2027 0.961 . S
C2041 C2040 1.502 . S
C2042 H2028 0.960 . S
C2042 H2029 0.961 . S
C2042 H2030 0.959 . S
C2042 C2040 1.561 . S
C2043 C2040 1.526 . S
C2043 C2044 1.396 . S
C2043 C2048 1.390 . S
C2044 C2038 1.465 . S
C2044 C2043 1.396 . S
C2044 C2045 1.399 . S
C2045 H2031 0.929 . S
C2045 C2044 1.399 . S
C2045 C2046 1.385 . S
C2046 H2032 0.931 . S
C2046 C2045 1.385 . S
C2046 C2047 1.389 . S
C2047 C2046 1.389 . S
C2047 C2048 1.387 . S
C2048 H2033 0.930 . S
C2048 C2043 1.390 . S
C2048 C2047 1.387 . S
H2049 C2061 0.930 . S
H2050 C2063 0.930 . S
H2051 C2064 0.930 . S
H2052 C2068 0.959 . S
H2053 C2068 0.959 . S
H2054 C2068 0.961 . S
H2055 C2069 0.960 . S
H2056 C2069 0.961 . S
H2057 C2069 0.959 . S
H2058 C2072 0.929 . S
H2059 C2073 0.931 . S
H2060 C2075 0.930 . S
C2061 H2049 0.930 . S
C2061 C2062 1.399 . S
C2061 C2066 1.399 . S
C2062 C2061 1.399 . S
C2062 C2063 1.376 . S
C2063 H2050 0.930 . S
C2063 C2062 1.376 . S
C2063 C2064 1.388 . S
C2064 H2051 0.930 . S
C2064 C2063 1.388 . S
C2064 C2065 1.390 . S
C2065 C2064 1.390 . S
C2065 C2066 1.394 . S
C2065 C2071 1.465 . S
C2066 C2061 1.399 . S
C2066 C2065 1.394 . S
C2066 C2067 1.516 . S
C2067 C2066 1.516 . S
C2067 C2068 1.502 . S
C2067 C2069 1.561 . S
C2067 C2070 1.526 . S
C2068 H2052 0.959 . S
C2068 H2053 0.959 . S
C2068 H2054 0.961 . S
C2068 C2067 1.502 . S
C2069 H2055 0.960 . S
C2069 H2056 0.961 . S
C2069 H2057 0.959 . S
C2069 C2067 1.561 . S
C2070 C2067 1.526 . S
C2070 C2071 1.396 . S
C2070 C2075 1.390 . S
C2071 C2065 1.465 . S
C2071 C2070 1.396 . S
C2071 C2072 1.399 . S
C2072 H2058 0.929 . S
C2072 C2071 1.399 . S
C2072 C2073 1.385 . S
C2073 H2059 0.931 . S
C2073 C2072 1.385 . S
C2073 C2074 1.389 . S
C2074 C2073 1.389 . S
C2074 C2075 1.387 . S
C2075 H2060 0.930 . S
C2075 C2070 1.390 . S
C2075 C2074 1.387 . S
H2076 C2088 0.930 . S
H2077 C2090 0.930 . S
H2078 C2091 0.930 . S
H2079 C2095 0.959 . S
H2080 C2095 0.959 . S
H2081 C2095 0.961 . S
H2082 C2096 0.960 . S
H2083 C2096 0.961 . S
H2084 C2096 0.959 . S
H2085 C2099 0.929 . S
H2086 C2100 0.931 . S
H2087 C2102 0.930 . S
C2088 H2076 0.930 . S
C2088 C2089 1.399 . S
C2088 C2093 1.399 . S
C2089 C2088 1.399 . S
C2089 C2090 1.376 . S
C2090 H2077 0.930 . S
C2090 C2089 1.376 . S
C2090 C2091 1.388 . S
C2091 H2078 0.930 . S
C2091 C2090 1.388 . S
C2091 C2092 1.390 . S
C2092 C2091 1.390 . S
C2092 C2093 1.394 . S
C2092 C2098 1.465 . S
C2093 C2088 1.399 . S
C2093 C2092 1.394 . S
C2093 C2094 1.516 . S
C2094 C2093 1.516 . S
C2094 C2095 1.502 . S
C2094 C2096 1.561 . S
C2094 C2097 1.526 . S
C2095 H2079 0.959 . S
C2095 H2080 0.959 . S
C2095 H2081 0.961 . S
C2095 C2094 1.502 . S
C2096 H2082 0.960 . S
C2096 H2083 0.961 . S
C2096 H2084 0.959 . S
C2096 C2094 1.561 . S
C2097 C2094 1.526 . S
C2097 C2098 1.396 . S
C2097 C2102 1.390 . S
C2098 C2092 1.465 . S
C2098 C2097 1.396 . S
C2098 C2099 1.399 . S
C2099 H2085 0.929 . S
C2099 C2098 1.399 . S
C2099 C2100 1.385 . S
C2100 H2086 0.931 . S
C2100 C2099 1.385 . S
C2100 C2101 1.389 . S
C2101 C2100 1.389 . S
C2101 C2102 1.387 . S
C2102 H2087 0.930 . S
C2102 C2097 1.390 . S
C2102 C2101 1.387 . S
H2103 C2115 0.930 . S
H2104 C2117 0.930 . S
H2105 C2118 0.930 . S
H2106 C2122 0.959 . S
H2107 C2122 0.959 . S
H2108 C2122 0.961 . S
H2109 C2123 0.960 . S
H2110 C2123 0.961 . S
H2111 C2123 0.959 . S
H2112 C2126 0.929 . S
H2113 C2127 0.931 . S
H2114 C2129 0.930 . S
C2115 H2103 0.930 . S
C2115 C2116 1.399 . S
C2115 C2120 1.399 . S
C2116 C2115 1.399 . S
C2116 C2117 1.376 . S
C2117 H2104 0.930 . S
C2117 C2116 1.376 . S
C2117 C2118 1.388 . S
C2118 H2105 0.930 . S
C2118 C2117 1.388 . S
C2118 C2119 1.390 . S
C2119 C2118 1.390 . S
C2119 C2120 1.394 . S
C2119 C2125 1.465 . S
C2120 C2115 1.399 . S
C2120 C2119 1.394 . S
C2120 C2121 1.516 . S
C2121 C2120 1.516 . S
C2121 C2122 1.502 . S
C2121 C2123 1.561 . S
C2121 C2124 1.526 . S
C2122 H2106 0.959 . S
C2122 H2107 0.959 . S
C2122 H2108 0.961 . S
C2122 C2121 1.502 . S
C2123 H2109 0.960 . S
C2123 H2110 0.961 . S
C2123 H2111 0.959 . S
C2123 C2121 1.561 . S
C2124 C2121 1.526 . S
C2124 C2125 1.396 . S
C2124 C2129 1.390 . S
C2125 C2119 1.465 . S
C2125 C2124 1.396 . S
C2125 C2126 1.399 . S
C2126 H2112 0.929 . S
C2126 C2125 1.399 . S
C2126 C2127 1.385 . S
C2127 H2113 0.931 . S
C2127 C2126 1.385 . S
C2127 C2128 1.389 . S
C2128 C2127 1.389 . S
C2128 C2129 1.387 . S
C2129 H2114 0.930 . S
C2129 C2124 1.390 . S
C2129 C2128 1.387 . S
H2130 C2142 0.930 . S
H2131 C2144 0.930 . S
H2132 C2145 0.930 . S
H2133 C2149 0.959 . S
H2134 C2149 0.959 . S
H2135 C2149 0.961 . S
H2136 C2150 0.960 . S
H2137 C2150 0.961 . S
H2138 C2150 0.959 . S
H2139 C2153 0.929 . S
H2140 C2154 0.931 . S
H2141 C2156 0.930 . S
C2142 H2130 0.930 . S
C2142 C2143 1.399 . S
C2142 C2147 1.399 . S
C2143 C2142 1.399 . S
C2143 C2144 1.376 . S
C2144 H2131 0.930 . S
C2144 C2143 1.376 . S
C2144 C2145 1.388 . S
C2145 H2132 0.930 . S
C2145 C2144 1.388 . S
C2145 C2146 1.390 . S
C2146 C2145 1.390 . S
C2146 C2147 1.394 . S
C2146 C2152 1.465 . S
C2147 C2142 1.399 . S
C2147 C2146 1.394 . S
C2147 C2148 1.516 . S
C2148 C2147 1.516 . S
C2148 C2149 1.502 . S
C2148 C2150 1.561 . S
C2148 C2151 1.526 . S
C2149 H2133 0.959 . S
C2149 H2134 0.959 . S
C2149 H2135 0.961 . S
C2149 C2148 1.502 . S
C2150 H2136 0.960 . S
C2150 H2137 0.961 . S
C2150 H2138 0.959 . S
C2150 C2148 1.561 . S
C2151 C2148 1.526 . S
C2151 C2152 1.396 . S
C2151 C2156 1.390 . S
C2152 C2146 1.465 . S
C2152 C2151 1.396 . S
C2152 C2153 1.399 . S
C2153 H2139 0.929 . S
C2153 C2152 1.399 . S
C2153 C2154 1.385 . S
C2154 H2140 0.931 . S
C2154 C2153 1.385 . S
C2154 C2155 1.389 . S
C2155 C2154 1.389 . S
C2155 C2156 1.387 . S
C2156 H2141 0.930 . S
C2156 C2151 1.390 . S
C2156 C2155 1.387 . S
H2157 C2169 0.930 . S
H2158 C2171 0.930 . S
H2159 C2172 0.930 . S
H2160 C2176 0.959 . S
H2161 C2176 0.959 . S
H2162 C2176 0.961 . S
H2163 C2177 0.960 . S
H2164 C2177 0.961 . S
H2165 C2177 0.959 . S
H2166 C2180 0.929 . S
H2167 C2181 0.931 . S
H2168 C2183 0.930 . S
C2169 H2157 0.930 . S
C2169 C2170 1.399 . S
C2169 C2174 1.399 . S
C2170 C2169 1.399 . S
C2170 C2171 1.376 . S
C2171 H2158 0.930 . S
C2171 C2170 1.376 . S
C2171 C2172 1.388 . S
C2172 H2159 0.930 . S
C2172 C2171 1.388 . S
C2172 C2173 1.390 . S
C2173 C2172 1.390 . S
C2173 C2174 1.394 . S
C2173 C2179 1.465 . S
C2174 C2169 1.399 . S
C2174 C2173 1.394 . S
C2174 C2175 1.516 . S
C2175 C2174 1.516 . S
C2175 C2176 1.502 . S
C2175 C2177 1.561 . S
C2175 C2178 1.526 . S
C2176 H2160 0.959 . S
C2176 H2161 0.959 . S
C2176 H2162 0.961 . S
C2176 C2175 1.502 . S
C2177 H2163 0.960 . S
C2177 H2164 0.961 . S
C2177 H2165 0.959 . S
C2177 C2175 1.561 . S
C2178 C2175 1.526 . S
C2178 C2179 1.396 . S
C2178 C2183 1.390 . S
C2179 C2173 1.465 . S
C2179 C2178 1.396 . S
C2179 C2180 1.399 . S
C2180 H2166 0.929 . S
C2180 C2179 1.399 . S
C2180 C2181 1.385 . S
C2181 H2167 0.931 . S
C2181 C2180 1.385 . S
C2181 C2182 1.389 . S
C2182 C2181 1.389 . S
C2182 C2183 1.387 . S
C2183 H2168 0.930 . S
C2183 C2178 1.390 . S
C2183 C2182 1.387 . S
H2184 C2196 0.930 . S
H2185 C2198 0.930 . S
H2186 C2199 0.930 . S
H2187 C2203 0.959 . S
H2188 C2203 0.959 . S
H2189 C2203 0.961 . S
H2190 C2204 0.960 . S
H2191 C2204 0.961 . S
H2192 C2204 0.959 . S
H2193 C2207 0.929 . S
H2194 C2208 0.931 . S
H2195 C2210 0.930 . S
C2196 H2184 0.930 . S
C2196 C2197 1.399 . S
C2196 C2201 1.399 . S
C2197 C2196 1.399 . S
C2197 C2198 1.376 . S
C2198 H2185 0.930 . S
C2198 C2197 1.376 . S
C2198 C2199 1.388 . S
C2199 H2186 0.930 . S
C2199 C2198 1.388 . S
C2199 C2200 1.390 . S
C2200 C2199 1.390 . S
C2200 C2201 1.394 . S
C2200 C2206 1.465 . S
C2201 C2196 1.399 . S
C2201 C2200 1.394 . S
C2201 C2202 1.516 . S
C2202 C2201 1.516 . S
C2202 C2203 1.502 . S
C2202 C2204 1.561 . S
C2202 C2205 1.526 . S
C2203 H2187 0.959 . S
C2203 H2188 0.959 . S
C2203 H2189 0.961 . S
C2203 C2202 1.502 . S
C2204 H2190 0.960 . S
C2204 H2191 0.961 . S
C2204 H2192 0.959 . S
C2204 C2202 1.561 . S
C2205 C2202 1.526 . S
C2205 C2206 1.396 . S
C2205 C2210 1.390 . S
C2206 C2200 1.465 . S
C2206 C2205 1.396 . S
C2206 C2207 1.399 . S
C2207 H2193 0.929 . S
C2207 C2206 1.399 . S
C2207 C2208 1.385 . S
C2208 H2194 0.931 . S
C2208 C2207 1.385 . S
C2208 C2209 1.389 . S
C2209 C2208 1.389 . S
C2209 C2210 1.387 . S
C2210 H2195 0.930 . S
C2210 C2205 1.390 . S
C2210 C2209 1.387 . S
H2211 C2223 0.930 . S
H2212 C2225 0.930 . S
H2213 C2226 0.930 . S
H2214 C2230 0.959 . S
H2215 C2230 0.959 . S
H2216 C2230 0.961 . S
H2217 C2231 0.960 . S
H2218 C2231 0.961 . S
H2219 C2231 0.959 . S
H2220 C2234 0.929 . S
H2221 C2235 0.931 . S
H2222 C2237 0.930 . S
C2223 H2211 0.930 . S
C2223 C2224 1.399 . S
C2223 C2228 1.399 . S
C2224 C2223 1.399 . S
C2224 C2225 1.376 . S
C2225 H2212 0.930 . S
C2225 C2224 1.376 . S
C2225 C2226 1.388 . S
C2226 H2213 0.930 . S
C2226 C2225 1.388 . S
C2226 C2227 1.390 . S
C2227 C2226 1.390 . S
C2227 C2228 1.394 . S
C2227 C2233 1.465 . S
C2228 C2223 1.399 . S
C2228 C2227 1.394 . S
C2228 C2229 1.516 . S
C2229 C2228 1.516 . S
C2229 C2230 1.502 . S
C2229 C2231 1.561 . S
C2229 C2232 1.526 . S
C2230 H2214 0.959 . S
C2230 H2215 0.959 . S
C2230 H2216 0.961 . S
C2230 C2229 1.502 . S
C2231 H2217 0.960 . S
C2231 H2218 0.961 . S
C2231 H2219 0.959 . S
C2231 C2229 1.561 . S
C2232 C2229 1.526 . S
C2232 C2233 1.396 . S
C2232 C2237 1.390 . S
C2233 C2227 1.465 . S
C2233 C2232 1.396 . S
C2233 C2234 1.399 . S
C2234 H2220 0.929 . S
C2234 C2233 1.399 . S
C2234 C2235 1.385 . S
C2235 H2221 0.931 . S
C2235 C2234 1.385 . S
C2235 C2236 1.389 . S
C2236 C2235 1.389 . S
C2236 C2237 1.387 . S
C2237 H2222 0.930 . S
C2237 C2232 1.390 . S
C2237 C2236 1.387 . S
H2238 C2250 0.930 . S
H2239 C2252 0.930 . S
H2240 C2253 0.930 . S
H2241 C2257 0.959 . S
H2242 C2257 0.959 . S
H2243 C2257 0.961 . S
H2244 C2258 0.960 . S
H2245 C2258 0.961 . S
H2246 C2258 0.959 . S
H2247 C2261 0.929 . S
H2248 C2262 0.931 . S
H2249 C2264 0.930 . S
C2250 H2238 0.930 . S
C2250 C2251 1.399 . S
C2250 C2255 1.399 . S
C2251 C2250 1.399 . S
C2251 C2252 1.376 . S
C2252 H2239 0.930 . S
C2252 C2251 1.376 . S
C2252 C2253 1.388 . S
C2253 H2240 0.930 . S
C2253 C2252 1.388 . S
C2253 C2254 1.390 . S
C2254 C2253 1.390 . S
C2254 C2255 1.394 . S
C2254 C2260 1.465 . S
C2255 C2250 1.399 . S
C2255 C2254 1.394 . S
C2255 C2256 1.516 . S
C2256 C2255 1.516 . S
C2256 C2257 1.502 . S
C2256 C2258 1.561 . S
C2256 C2259 1.526 . S
C2257 H2241 0.959 . S
C2257 H2242 0.959 . S
C2257 H2243 0.961 . S
C2257 C2256 1.502 . S
C2258 H2244 0.960 . S
C2258 H2245 0.961 . S
C2258 H2246 0.959 . S
C2258 C2256 1.561 . S
C2259 C2256 1.526 . S
C2259 C2260 1.396 . S
C2259 C2264 1.390 . S
C2260 C2254 1.465 . S
C2260 C2259 1.396 . S
C2260 C2261 1.399 . S
C2261 H2247 0.929 . S
C2261 C2260 1.399 . S
C2261 C2262 1.385 . S
C2262 H2248 0.931 . S
C2262 C2261 1.385 . S
C2262 C2263 1.389 . S
C2263 C2262 1.389 . S
C2263 C2264 1.387 . S
C2264 H2249 0.930 . S
C2264 C2259 1.390 . S
C2264 C2263 1.387 . S
H2265 C2277 0.930 . S
H2266 C2279 0.930 . S
H2267 C2280 0.930 . S
H2268 C2284 0.959 . S
H2269 C2284 0.959 . S
H2270 C2284 0.961 . S
H2271 C2285 0.960 . S
H2272 C2285 0.961 . S
H2273 C2285 0.959 . S
H2274 C2288 0.929 . S
H2275 C2289 0.931 . S
H2276 C2291 0.930 . S
C2277 H2265 0.930 . S
C2277 C2278 1.399 . S
C2277 C2282 1.399 . S
C2278 C2277 1.399 . S
C2278 C2279 1.376 . S
C2279 H2266 0.930 . S
C2279 C2278 1.376 . S
C2279 C2280 1.388 . S
C2280 H2267 0.930 . S
C2280 C2279 1.388 . S
C2280 C2281 1.390 . S
C2281 C2280 1.390 . S
C2281 C2282 1.394 . S
C2281 C2287 1.465 . S
C2282 C2277 1.399 . S
C2282 C2281 1.394 . S
C2282 C2283 1.516 . S
C2283 C2282 1.516 . S
C2283 C2284 1.502 . S
C2283 C2285 1.561 . S
C2283 C2286 1.526 . S
C2284 H2268 0.959 . S
C2284 H2269 0.959 . S
C2284 H2270 0.961 . S
C2284 C2283 1.502 . S
C2285 H2271 0.960 . S
C2285 H2272 0.961 . S
C2285 H2273 0.959 . S
C2285 C2283 1.561 . S
C2286 C2283 1.526 . S
C2286 C2287 1.396 . S
C2286 C2291 1.390 . S
C2287 C2281 1.465 . S
C2287 C2286 1.396 . S
C2287 C2288 1.399 . S
C2288 H2274 0.929 . S
C2288 C2287 1.399 . S
C2288 C2289 1.385 . S
C2289 H2275 0.931 . S
C2289 C2288 1.385 . S
C2289 C2290 1.389 . S
C2290 C2289 1.389 . S
C2290 C2291 1.387 . S
C2291 H2276 0.930 . S
C2291 C2286 1.390 . S
C2291 C2290 1.387 . S
H2292 C2304 0.930 . S
H2293 C2306 0.930 . S
H2294 C2307 0.930 . S
H2295 C2311 0.959 . S
H2296 C2311 0.959 . S
H2297 C2311 0.961 . S
H2298 C2312 0.960 . S
H2299 C2312 0.961 . S
H2300 C2312 0.959 . S
H2301 C2315 0.929 . S
H2302 C2316 0.931 . S
H2303 C2318 0.930 . S
C2304 H2292 0.930 . S
C2304 C2305 1.399 . S
C2304 C2309 1.399 . S
C2305 C2304 1.399 . S
C2305 C2306 1.376 . S
C2306 H2293 0.930 . S
C2306 C2305 1.376 . S
C2306 C2307 1.388 . S
C2307 H2294 0.930 . S
C2307 C2306 1.388 . S
C2307 C2308 1.390 . S
C2308 C2307 1.390 . S
C2308 C2309 1.394 . S
C2308 C2314 1.465 . S
C2309 C2304 1.399 . S
C2309 C2308 1.394 . S
C2309 C2310 1.516 . S
C2310 C2309 1.516 . S
C2310 C2311 1.502 . S
C2310 C2312 1.561 . S
C2310 C2313 1.526 . S
C2311 H2295 0.959 . S
C2311 H2296 0.959 . S
C2311 H2297 0.961 . S
C2311 C2310 1.502 . S
C2312 H2298 0.960 . S
C2312 H2299 0.961 . S
C2312 H2300 0.959 . S
C2312 C2310 1.561 . S
C2313 C2310 1.526 . S
C2313 C2314 1.396 . S
C2313 C2318 1.390 . S
C2314 C2308 1.465 . S
C2314 C2313 1.396 . S
C2314 C2315 1.399 . S
C2315 H2301 0.929 . S
C2315 C2314 1.399 . S
C2315 C2316 1.385 . S
C2316 H2302 0.931 . S
C2316 C2315 1.385 . S
C2316 C2317 1.389 . S
C2317 C2316 1.389 . S
C2317 C2318 1.387 . S
C2318 H2303 0.930 . S
C2318 C2313 1.390 . S
C2318 C2317 1.387 . S
H2319 C2331 0.930 . S
H2320 C2333 0.930 . S
H2321 C2334 0.930 . S
H2322 C2338 0.959 . S
H2323 C2338 0.959 . S
H2324 C2338 0.961 . S
H2325 C2339 0.960 . S
H2326 C2339 0.961 . S
H2327 C2339 0.959 . S
H2328 C2342 0.929 . S
H2329 C2343 0.931 . S
H2330 C2345 0.930 . S
C2331 H2319 0.930 . S
C2331 C2332 1.399 . S
C2331 C2336 1.399 . S
C2332 C2331 1.399 . S
C2332 C2333 1.376 . S
C2333 H2320 0.930 . S
C2333 C2332 1.376 . S
C2333 C2334 1.388 . S
C2334 H2321 0.930 . S
C2334 C2333 1.388 . S
C2334 C2335 1.390 . S
C2335 C2334 1.390 . S
C2335 C2336 1.394 . S
C2335 C2341 1.465 . S
C2336 C2331 1.399 . S
C2336 C2335 1.394 . S
C2336 C2337 1.516 . S
C2337 C2336 1.516 . S
C2337 C2338 1.502 . S
C2337 C2339 1.561 . S
C2337 C2340 1.526 . S
C2338 H2322 0.959 . S
C2338 H2323 0.959 . S
C2338 H2324 0.961 . S
C2338 C2337 1.502 . S
C2339 H2325 0.960 . S
C2339 H2326 0.961 . S
C2339 H2327 0.959 . S
C2339 C2337 1.561 . S
C2340 C2337 1.526 . S
C2340 C2341 1.396 . S
C2340 C2345 1.390 . S
C2341 C2335 1.465 . S
C2341 C2340 1.396 . S
C2341 C2342 1.399 . S
C2342 H2328 0.929 . S
C2342 C2341 1.399 . S
C2342 C2343 1.385 . S
C2343 H2329 0.931 . S
C2343 C2342 1.385 . S
C2343 C2344 1.389 . S
C2344 C2343 1.389 . S
C2344 C2345 1.387 . S
C2345 H2330 0.930 . S
C2345 C2340 1.390 . S
C2345 C2344 1.387 . S
H2346 C2358 0.930 . S
H2347 C2360 0.930 . S
H2348 C2361 0.930 . S
H2349 C2365 0.959 . S
H2350 C2365 0.959 . S
H2351 C2365 0.961 . S
H2352 C2366 0.960 . S
H2353 C2366 0.961 . S
H2354 C2366 0.959 . S
H2355 C2369 0.929 . S
H2356 C2370 0.931 . S
H2357 C2372 0.930 . S
C2358 H2346 0.930 . S
C2358 C2359 1.399 . S
C2358 C2363 1.399 . S
C2359 C2358 1.399 . S
C2359 C2360 1.376 . S
C2360 H2347 0.930 . S
C2360 C2359 1.376 . S
C2360 C2361 1.388 . S
C2361 H2348 0.930 . S
C2361 C2360 1.388 . S
C2361 C2362 1.390 . S
C2362 C2361 1.390 . S
C2362 C2363 1.394 . S
C2362 C2368 1.465 . S
C2363 C2358 1.399 . S
C2363 C2362 1.394 . S
C2363 C2364 1.516 . S
C2364 C2363 1.516 . S
C2364 C2365 1.502 . S
C2364 C2366 1.561 . S
C2364 C2367 1.526 . S
C2365 H2349 0.959 . S
C2365 H2350 0.959 . S
C2365 H2351 0.961 . S
C2365 C2364 1.502 . S
C2366 H2352 0.960 . S
C2366 H2353 0.961 . S
C2366 H2354 0.959 . S
C2366 C2364 1.561 . S
C2367 C2364 1.526 . S
C2367 C2368 1.396 . S
C2367 C2372 1.390 . S
C2368 C2362 1.465 . S
C2368 C2367 1.396 . S
C2368 C2369 1.399 . S
C2369 H2355 0.929 . S
C2369 C2368 1.399 . S
C2369 C2370 1.385 . S
C2370 H2356 0.931 . S
C2370 C2369 1.385 . S
C2370 C2371 1.389 . S
C2371 C2370 1.389 . S
C2371 C2372 1.387 . S
C2372 H2357 0.930 . S
C2372 C2367 1.390 . S
C2372 C2371 1.387 . S
H2373 C2385 0.930 . S
H2374 C2387 0.930 . S
H2375 C2388 0.930 . S
H2376 C2392 0.959 . S
H2377 C2392 0.959 . S
H2378 C2392 0.961 . S
H2379 C2393 0.960 . S
H2380 C2393 0.961 . S
H2381 C2393 0.959 . S
H2382 C2396 0.929 . S
H2383 C2397 0.931 . S
H2384 C2399 0.930 . S
C2385 H2373 0.930 . S
C2385 C2386 1.399 . S
C2385 C2390 1.399 . S
C2386 C2385 1.399 . S
C2386 C2387 1.376 . S
C2387 H2374 0.930 . S
C2387 C2386 1.376 . S
C2387 C2388 1.388 . S
C2388 H2375 0.930 . S
C2388 C2387 1.388 . S
C2388 C2389 1.390 . S
C2389 C2388 1.390 . S
C2389 C2390 1.394 . S
C2389 C2395 1.465 . S
C2390 C2385 1.399 . S
C2390 C2389 1.394 . S
C2390 C2391 1.516 . S
C2391 C2390 1.516 . S
C2391 C2392 1.502 . S
C2391 C2393 1.561 . S
C2391 C2394 1.526 . S
C2392 H2376 0.959 . S
C2392 H2377 0.959 . S
C2392 H2378 0.961 . S
C2392 C2391 1.502 . S
C2393 H2379 0.960 . S
C2393 H2380 0.961 . S
C2393 H2381 0.959 . S
C2393 C2391 1.561 . S
C2394 C2391 1.526 . S
C2394 C2395 1.396 . S
C2394 C2399 1.390 . S
C2395 C2389 1.465 . S
C2395 C2394 1.396 . S
C2395 C2396 1.399 . S
C2396 H2382 0.929 . S
C2396 C2395 1.399 . S
C2396 C2397 1.385 . S
C2397 H2383 0.931 . S
C2397 C2396 1.385 . S
C2397 C2398 1.389 . S
C2398 C2397 1.389 . S
C2398 C2399 1.387 . S
C2399 H2384 0.930 . S
C2399 C2394 1.390 . S
C2399 C2398 1.387 . S
H2400 C2412 0.930 . S
H2401 C2414 0.930 . S
H2402 C2415 0.930 . S
H2403 C2419 0.959 . S
H2404 C2419 0.959 . S
H2405 C2419 0.961 . S
H2406 C2420 0.960 . S
H2407 C2420 0.961 . S
H2408 C2420 0.959 . S
H2409 C2423 0.929 . S
H2410 C2424 0.931 . S
H2411 C2426 0.930 . S
C2412 H2400 0.930 . S
C2412 C2413 1.399 . S
C2412 C2417 1.399 . S
C2413 C2412 1.399 . S
C2413 C2414 1.376 . S
C2414 H2401 0.930 . S
C2414 C2413 1.376 . S
C2414 C2415 1.388 . S
C2415 H2402 0.930 . S
C2415 C2414 1.388 . S
C2415 C2416 1.390 . S
C2416 C2415 1.390 . S
C2416 C2417 1.394 . S
C2416 C2422 1.465 . S
C2417 C2412 1.399 . S
C2417 C2416 1.394 . S
C2417 C2418 1.516 . S
C2418 C2417 1.516 . S
C2418 C2419 1.502 . S
C2418 C2420 1.561 . S
C2418 C2421 1.526 . S
C2419 H2403 0.959 . S
C2419 H2404 0.959 . S
C2419 H2405 0.961 . S
C2419 C2418 1.502 . S
C2420 H2406 0.960 . S
C2420 H2407 0.961 . S
C2420 H2408 0.959 . S
C2420 C2418 1.561 . S
C2421 C2418 1.526 . S
C2421 C2422 1.396 . S
C2421 C2426 1.390 . S
C2422 C2416 1.465 . S
C2422 C2421 1.396 . S
C2422 C2423 1.399 . S
C2423 H2409 0.929 . S
C2423 C2422 1.399 . S
C2423 C2424 1.385 . S
C2424 H2410 0.931 . S
C2424 C2423 1.385 . S
C2424 C2425 1.389 . S
C2425 C2424 1.389 . S
C2425 C2426 1.387 . S
C2426 H2411 0.930 . S
C2426 C2421 1.390 . S
C2426 C2425 1.387 . S
H2427 C2439 0.930 . S
H2428 C2441 0.930 . S
H2429 C2442 0.930 . S
H2430 C2446 0.959 . S
H2431 C2446 0.959 . S
H2432 C2446 0.961 . S
H2433 C2447 0.960 . S
H2434 C2447 0.961 . S
H2435 C2447 0.959 . S
H2436 C2450 0.929 . S
H2437 C2451 0.931 . S
H2438 C2453 0.930 . S
C2439 H2427 0.930 . S
C2439 C2440 1.399 . S
C2439 C2444 1.399 . S
C2440 C2439 1.399 . S
C2440 C2441 1.376 . S
C2441 H2428 0.930 . S
C2441 C2440 1.376 . S
C2441 C2442 1.388 . S
C2442 H2429 0.930 . S
C2442 C2441 1.388 . S
C2442 C2443 1.390 . S
C2443 C2442 1.390 . S
C2443 C2444 1.394 . S
C2443 C2449 1.465 . S
C2444 C2439 1.399 . S
C2444 C2443 1.394 . S
C2444 C2445 1.516 . S
C2445 C2444 1.516 . S
C2445 C2446 1.502 . S
C2445 C2447 1.561 . S
C2445 C2448 1.526 . S
C2446 H2430 0.959 . S
C2446 H2431 0.959 . S
C2446 H2432 0.961 . S
C2446 C2445 1.502 . S
C2447 H2433 0.960 . S
C2447 H2434 0.961 . S
C2447 H2435 0.959 . S
C2447 C2445 1.561 . S
C2448 C2445 1.526 . S
C2448 C2449 1.396 . S
C2448 C2453 1.390 . S
C2449 C2443 1.465 . S
C2449 C2448 1.396 . S
C2449 C2450 1.399 . S
C2450 H2436 0.929 . S
C2450 C2449 1.399 . S
C2450 C2451 1.385 . S
C2451 H2437 0.931 . S
C2451 C2450 1.385 . S
C2451 C2452 1.389 . S
C2452 C2451 1.389 . S
C2452 C2453 1.387 . S
C2453 H2438 0.930 . S
C2453 C2448 1.390 . S
C2453 C2452 1.387 . S
H2454 C2466 0.930 . S
H2455 C2468 0.930 . S
H2456 C2469 0.930 . S
H2457 C2473 0.959 . S
H2458 C2473 0.959 . S
H2459 C2473 0.961 . S
H2460 C2474 0.960 . S
H2461 C2474 0.961 . S
H2462 C2474 0.959 . S
H2463 C2477 0.929 . S
H2464 C2478 0.931 . S
H2465 C2480 0.930 . S
C2466 H2454 0.930 . S
C2466 C2467 1.399 . S
C2466 C2471 1.399 . S
C2467 C2466 1.399 . S
C2467 C2468 1.376 . S
C2468 H2455 0.930 . S
C2468 C2467 1.376 . S
C2468 C2469 1.388 . S
C2469 H2456 0.930 . S
C2469 C2468 1.388 . S
C2469 C2470 1.390 . S
C2470 C2469 1.390 . S
C2470 C2471 1.394 . S
C2470 C2476 1.465 . S
C2471 C2466 1.399 . S
C2471 C2470 1.394 . S
C2471 C2472 1.516 . S
C2472 C2471 1.516 . S
C2472 C2473 1.502 . S
C2472 C2474 1.561 . S
C2472 C2475 1.526 . S
C2473 H2457 0.959 . S
C2473 H2458 0.959 . S
C2473 H2459 0.961 . S
C2473 C2472 1.502 . S
C2474 H2460 0.960 . S
C2474 H2461 0.961 . S
C2474 H2462 0.959 . S
C2474 C2472 1.561 . S
C2475 C2472 1.526 . S
C2475 C2476 1.396 . S
C2475 C2480 1.390 . S
C2476 C2470 1.465 . S
C2476 C2475 1.396 . S
C2476 C2477 1.399 . S
C2477 H2463 0.929 . S
C2477 C2476 1.399 . S
C2477 C2478 1.385 . S
C2478 H2464 0.931 . S
C2478 C2477 1.385 . S
C2478 C2479 1.389 . S
C2479 C2478 1.389 . S
C2479 C2480 1.387 . S
C2480 H2465 0.930 . S
C2480 C2475 1.390 . S
C2480 C2479 1.387 . S
H2481 C2493 0.930 . S
H2482 C2495 0.930 . S
H2483 C2496 0.930 . S
H2484 C2500 0.959 . S
H2485 C2500 0.959 . S
H2486 C2500 0.961 . S
H2487 C2501 0.960 . S
H2488 C2501 0.961 . S
H2489 C2501 0.959 . S
H2490 C2504 0.929 . S
H2491 C2505 0.931 . S
H2492 C2507 0.930 . S
C2493 H2481 0.930 . S
C2493 C2494 1.399 . S
C2493 C2498 1.399 . S
C2494 C2493 1.399 . S
C2494 C2495 1.376 . S
C2495 H2482 0.930 . S
C2495 C2494 1.376 . S
C2495 C2496 1.388 . S
C2496 H2483 0.930 . S
C2496 C2495 1.388 . S
C2496 C2497 1.390 . S
C2497 C2496 1.390 . S
C2497 C2498 1.394 . S
C2497 C2503 1.465 . S
C2498 C2493 1.399 . S
C2498 C2497 1.394 . S
C2498 C2499 1.516 . S
C2499 C2498 1.516 . S
C2499 C2500 1.502 . S
C2499 C2501 1.561 . S
C2499 C2502 1.526 . S
C2500 H2484 0.959 . S
C2500 H2485 0.959 . S
C2500 H2486 0.961 . S
C2500 C2499 1.502 . S
C2501 H2487 0.960 . S
C2501 H2488 0.961 . S
C2501 H2489 0.959 . S
C2501 C2499 1.561 . S
C2502 C2499 1.526 . S
C2502 C2503 1.396 . S
C2502 C2507 1.390 . S
C2503 C2497 1.465 . S
C2503 C2502 1.396 . S
C2503 C2504 1.399 . S
C2504 H2490 0.929 . S
C2504 C2503 1.399 . S
C2504 C2505 1.385 . S
C2505 H2491 0.931 . S
C2505 C2504 1.385 . S
C2505 C2506 1.389 . S
C2506 C2505 1.389 . S
C2506 C2507 1.387 . S
C2507 H2492 0.930 . S
C2507 C2502 1.390 . S
C2507 C2506 1.387 . S
H2508 C2520 0.930 . S
H2509 C2522 0.930 . S
H2510 C2523 0.930 . S
H2511 C2527 0.959 . S
H2512 C2527 0.959 . S
H2513 C2527 0.961 . S
H2514 C2528 0.960 . S
H2515 C2528 0.961 . S
H2516 C2528 0.959 . S
H2517 C2531 0.929 . S
H2518 C2532 0.931 . S
H2519 C2534 0.930 . S
C2520 H2508 0.930 . S
C2520 C2521 1.399 . S
C2520 C2525 1.399 . S
C2521 C2520 1.399 . S
C2521 C2522 1.376 . S
C2522 H2509 0.930 . S
C2522 C2521 1.376 . S
C2522 C2523 1.388 . S
C2523 H2510 0.930 . S
C2523 C2522 1.388 . S
C2523 C2524 1.390 . S
C2524 C2523 1.390 . S
C2524 C2525 1.394 . S
C2524 C2530 1.465 . S
C2525 C2520 1.399 . S
C2525 C2524 1.394 . S
C2525 C2526 1.516 . S
C2526 C2525 1.516 . S
C2526 C2527 1.502 . S
C2526 C2528 1.561 . S
C2526 C2529 1.526 . S
C2527 H2511 0.959 . S
C2527 H2512 0.959 . S
C2527 H2513 0.961 . S
C2527 C2526 1.502 . S
C2528 H2514 0.960 . S
C2528 H2515 0.961 . S
C2528 H2516 0.959 . S
C2528 C2526 1.561 . S
C2529 C2526 1.526 . S
C2529 C2530 1.396 . S
C2529 C2534 1.390 . S
C2530 C2524 1.465 . S
C2530 C2529 1.396 . S
C2530 C2531 1.399 . S
C2531 H2517 0.929 . S
C2531 C2530 1.399 . S
C2531 C2532 1.385 . S
C2532 H2518 0.931 . S
C2532 C2531 1.385 . S
C2532 C2533 1.389 . S
C2533 C2532 1.389 . S
C2533 C2534 1.387 . S
C2534 H2519 0.930 . S
C2534 C2529 1.390 . S
C2534 C2533 1.387 . S
H2535 C2547 0.930 . S
H2536 C2549 0.930 . S
H2537 C2550 0.930 . S
H2538 C2554 0.959 . S
H2539 C2554 0.959 . S
H2540 C2554 0.961 . S
H2541 C2555 0.960 . S
H2542 C2555 0.961 . S
H2543 C2555 0.959 . S
H2544 C2558 0.929 . S
H2545 C2559 0.931 . S
H2546 C2561 0.930 . S
C2547 H2535 0.930 . S
C2547 C2548 1.399 . S
C2547 C2552 1.399 . S
C2548 C2547 1.399 . S
C2548 C2549 1.376 . S
C2549 H2536 0.930 . S
C2549 C2548 1.376 . S
C2549 C2550 1.388 . S
C2550 H2537 0.930 . S
C2550 C2549 1.388 . S
C2550 C2551 1.390 . S
C2551 C2550 1.390 . S
C2551 C2552 1.394 . S
C2551 C2557 1.465 . S
C2552 C2547 1.399 . S
C2552 C2551 1.394 . S
C2552 C2553 1.516 . S
C2553 C2552 1.516 . S
C2553 C2554 1.502 . S
C2553 C2555 1.561 . S
C2553 C2556 1.526 . S
C2554 H2538 0.959 . S
C2554 H2539 0.959 . S
C2554 H2540 0.961 . S
C2554 C2553 1.502 . S
C2555 H2541 0.960 . S
C2555 H2542 0.961 . S
C2555 H2543 0.959 . S
C2555 C2553 1.561 . S
C2556 C2553 1.526 . S
C2556 C2557 1.396 . S
C2556 C2561 1.390 . S
C2557 C2551 1.465 . S
C2557 C2556 1.396 . S
C2557 C2558 1.399 . S
C2558 H2544 0.929 . S
C2558 C2557 1.399 . S
C2558 C2559 1.385 . S
C2559 H2545 0.931 . S
C2559 C2558 1.385 . S
C2559 C2560 1.389 . S
C2560 C2559 1.389 . S
C2560 C2561 1.387 . S
C2561 H2546 0.930 . S
C2561 C2556 1.390 . S
C2561 C2560 1.387 . S
H2562 C2574 0.930 . S
H2563 C2576 0.930 . S
H2564 C2577 0.930 . S
H2565 C2581 0.959 . S
H2566 C2581 0.959 . S
H2567 C2581 0.961 . S
H2568 C2582 0.960 . S
H2569 C2582 0.961 . S
H2570 C2582 0.959 . S
H2571 C2585 0.929 . S
H2572 C2586 0.931 . S
H2573 C2588 0.930 . S
C2574 H2562 0.930 . S
C2574 C2575 1.399 . S
C2574 C2579 1.399 . S
C2575 C2574 1.399 . S
C2575 C2576 1.376 . S
C2576 H2563 0.930 . S
C2576 C2575 1.376 . S
C2576 C2577 1.388 . S
C2577 H2564 0.930 . S
C2577 C2576 1.388 . S
C2577 C2578 1.390 . S
C2578 C2577 1.390 . S
C2578 C2579 1.394 . S
C2578 C2584 1.465 . S
C2579 C2574 1.399 . S
C2579 C2578 1.394 . S
C2579 C2580 1.516 . S
C2580 C2579 1.516 . S
C2580 C2581 1.502 . S
C2580 C2582 1.561 . S
C2580 C2583 1.526 . S
C2581 H2565 0.959 . S
C2581 H2566 0.959 . S
C2581 H2567 0.961 . S
C2581 C2580 1.502 . S
C2582 H2568 0.960 . S
C2582 H2569 0.961 . S
C2582 H2570 0.959 . S
C2582 C2580 1.561 . S
C2583 C2580 1.526 . S
C2583 C2584 1.396 . S
C2583 C2588 1.390 . S
C2584 C2578 1.465 . S
C2584 C2583 1.396 . S
C2584 C2585 1.399 . S
C2585 H2571 0.929 . S
C2585 C2584 1.399 . S
C2585 C2586 1.385 . S
C2586 H2572 0.931 . S
C2586 C2585 1.385 . S
C2586 C2587 1.389 . S
C2587 C2586 1.389 . S
C2587 C2588 1.387 . S
C2588 H2573 0.930 . S
C2588 C2583 1.390 . S
C2588 C2587 1.387 . S
H2589 C2601 0.930 . S
H2590 C2603 0.930 . S
H2591 C2604 0.930 . S
H2592 C2608 0.959 . S
H2593 C2608 0.959 . S
H2594 C2608 0.961 . S
H2595 C2609 0.960 . S
H2596 C2609 0.961 . S
H2597 C2609 0.959 . S
H2598 C2612 0.929 . S
H2599 C2613 0.931 . S
H2600 C2615 0.930 . S
C2601 H2589 0.930 . S
C2601 C2602 1.399 . S
C2601 C2606 1.399 . S
C2602 C2601 1.399 . S
C2602 C2603 1.376 . S
C2603 H2590 0.930 . S
C2603 C2602 1.376 . S
C2603 C2604 1.388 . S
C2604 H2591 0.930 . S
C2604 C2603 1.388 . S
C2604 C2605 1.390 . S
C2605 C2604 1.390 . S
C2605 C2606 1.394 . S
C2605 C2611 1.465 . S
C2606 C2601 1.399 . S
C2606 C2605 1.394 . S
C2606 C2607 1.516 . S
C2607 C2606 1.516 . S
C2607 C2608 1.502 . S
C2607 C2609 1.561 . S
C2607 C2610 1.526 . S
C2608 H2592 0.959 . S
C2608 H2593 0.959 . S
C2608 H2594 0.961 . S
C2608 C2607 1.502 . S
C2609 H2595 0.960 . S
C2609 H2596 0.961 . S
C2609 H2597 0.959 . S
C2609 C2607 1.561 . S
C2610 C2607 1.526 . S
C2610 C2611 1.396 . S
C2610 C2615 1.390 . S
C2611 C2605 1.465 . S
C2611 C2610 1.396 . S
C2611 C2612 1.399 . S
C2612 H2598 0.929 . S
C2612 C2611 1.399 . S
C2612 C2613 1.385 . S
C2613 H2599 0.931 . S
C2613 C2612 1.385 . S
C2613 C2614 1.389 . S
C2614 C2613 1.389 . S
C2614 C2615 1.387 . S
C2615 H2600 0.930 . S
C2615 C2610 1.390 . S
C2615 C2614 1.387 . S
H2616 C2628 0.930 . S
H2617 C2630 0.930 . S
H2618 C2631 0.930 . S
H2619 C2635 0.959 . S
H2620 C2635 0.959 1_556 S
H2621 C2635 0.961 . S
H2622 C2636 0.960 . S
H2623 C2636 0.961 1_556 S
H2624 C2636 0.959 . S
H2625 C2639 0.929 . S
H2626 C2640 0.931 . S
H2627 C2642 0.930 . S
C2628 H2616 0.930 . S
C2628 C2629 1.399 . S
C2628 C2633 1.399 . S
C2629 C2628 1.399 . S
C2629 C2630 1.376 . S
C2630 H2617 0.930 . S
C2630 C2629 1.376 . S
C2630 C2631 1.388 . S
C2631 H2618 0.930 . S
C2631 C2630 1.388 . S
C2631 C2632 1.390 . S
C2632 C2631 1.390 . S
C2632 C2633 1.394 . S
C2632 C2638 1.465 1_554 S
C2633 C2628 1.399 . S
C2633 C2632 1.394 . S
C2633 C2634 1.516 . S
C2634 C2633 1.516 . S
C2634 C2635 1.502 . S
C2634 C2636 1.561 . S
C2634 C2637 1.526 1_554 S
C2635 H2619 0.959 . S
C2635 H2620 0.959 1_554 S
C2635 H2621 0.961 . S
C2635 C2634 1.502 . S
C2636 H2622 0.960 . S
C2636 H2623 0.961 1_554 S
C2636 H2624 0.959 . S
C2636 C2634 1.561 . S
C2637 C2634 1.526 1_556 S
C2637 C2638 1.396 . S
C2637 C2642 1.390 . S
C2638 C2632 1.465 1_556 S
C2638 C2637 1.396 . S
C2638 C2639 1.399 . S
C2639 H2625 0.929 . S
C2639 C2638 1.399 . S
C2639 C2640 1.385 . S
C2640 H2626 0.931 . S
C2640 C2639 1.385 . S
C2640 C2641 1.389 . S
C2641 C2640 1.389 . S
C2641 C2642 1.387 . S
C2642 H2627 0.930 . S
C2642 C2637 1.390 . S
C2642 C2641 1.387 . S
H2643 C2655 0.930 . S
H2644 C2657 0.930 . S
H2645 C2658 0.930 . S
H2646 C2662 0.965 . S
H2647 C2662 0.992 . S
H2648 C2662 0.925 1_556 S
H2649 C2663 0.968 . S
H2650 C2663 0.954 1_554 S
H2651 C2663 0.956 1_554 S
H2652 C2666 0.929 . S
H2653 C2667 0.931 . S
H2654 C2669 0.930 . S
C2655 H2643 0.930 . S
C2655 C2656 1.399 . S
C2655 C2660 1.399 . S
C2656 C2655 1.399 . S
C2656 C2657 1.376 . S
C2657 H2644 0.930 . S
C2657 C2656 1.376 . S
C2657 C2658 1.388 . S
C2658 H2645 0.930 . S
C2658 C2657 1.388 . S
C2658 C2659 1.390 . S
C2659 C2658 1.390 . S
C2659 C2660 1.394 . S
C2659 C2665 1.465 1_556 S
C2660 C2655 1.399 . S
C2660 C2659 1.394 . S
C2660 C2661 1.518 1_556 S
C2661 C2660 1.518 1_554 S
C2661 C2662 1.501 . S
C2661 C2663 1.561 1_554 S
C2661 C2664 1.524 . S
C2662 H2646 0.965 . S
C2662 H2647 0.992 . S
C2662 H2648 0.925 1_554 S
C2662 C2661 1.501 . S
C2663 H2649 0.968 . S
C2663 H2650 0.954 1_556 S
C2663 H2651 0.956 1_556 S
C2663 C2661 1.561 1_556 S
C2664 C2661 1.524 . S
C2664 C2665 1.396 . S
C2664 C2669 1.390 . S
C2665 C2659 1.465 1_554 S
C2665 C2664 1.396 . S
C2665 C2666 1.399 . S
C2666 H2652 0.929 . S
C2666 C2665 1.399 . S
C2666 C2667 1.385 . S
C2667 H2653 0.931 . S
C2667 C2666 1.385 . S
C2667 C2668 1.389 . S
C2668 C2667 1.389 . S
C2668 C2669 1.387 . S
C2669 H2654 0.930 . S
C2669 C2664 1.390 . S
C2669 C2668 1.387 . S
H2670 C2682 0.930 . S
H2671 C2684 0.930 . S
H2672 C2685 0.930 . S
H2673 C2689 0.960 . S
H2674 C2689 0.961 . S
H2675 C2689 0.958 1_554 S
H2676 C2690 0.970 . S
H2677 C2690 0.952 1_556 S
H2678 C2690 0.956 1_556 S
H2679 C2693 0.929 . S
H2680 C2694 0.931 . S
H2681 C2696 0.930 . S
C2682 H2670 0.930 . S
C2682 C2683 1.399 . S
C2682 C2687 1.399 . S
C2683 C2682 1.399 . S
C2683 C2684 1.376 . S
C2684 H2671 0.930 . S
C2684 C2683 1.376 . S
C2684 C2685 1.388 . S
C2685 H2672 0.930 . S
C2685 C2684 1.388 . S
C2685 C2686 1.390 . S
C2686 C2685 1.390 . S
C2686 C2687 1.394 . S
C2686 C2692 1.465 1_554 S
C2687 C2682 1.399 . S
C2687 C2686 1.394 . S
C2687 C2688 1.526 . S
C2688 C2687 1.526 . S
C2688 C2689 1.501 1_554 S
C2688 C2690 1.561 . S
C2688 C2691 1.516 1_554 S
C2689 H2673 0.960 . S
C2689 H2674 0.961 . S
C2689 H2675 0.958 1_556 S
C2689 C2688 1.501 1_556 S
C2690 H2676 0.970 . S
C2690 H2677 0.952 1_554 S
C2690 H2678 0.956 1_554 S
C2690 C2688 1.561 . S
C2691 C2688 1.516 1_556 S
C2691 C2692 1.396 . S
C2691 C2696 1.390 . S
C2692 C2686 1.465 1_556 S
C2692 C2691 1.396 . S
C2692 C2693 1.399 . S
C2693 H2679 0.929 . S
C2693 C2692 1.399 . S
C2693 C2694 1.385 . S
C2694 H2680 0.931 . S
C2694 C2693 1.385 . S
C2694 C2695 1.389 . S
C2695 C2694 1.389 . S
C2695 C2696 1.387 . S
C2696 H2681 0.930 . S
C2696 C2691 1.390 . S
C2696 C2695 1.387 . S
H2697 C2709 0.930 . S
H2698 C2711 0.930 . S
H2699 C2712 0.930 . S
H2700 C2716 0.959 . S
H2701 C2716 0.959 1_556 S
H2702 C2716 0.961 . S
H2703 C2717 0.960 . S
H2704 C2717 0.961 1_556 S
H2705 C2717 0.959 1_556 S
H2706 C2720 0.929 . S
H2707 C2721 0.931 . S
H2708 C2723 0.930 . S
C2709 H2697 0.930 . S
C2709 C2710 1.399 . S
C2709 C2714 1.399 . S
C2710 C2709 1.399 . S
C2710 C2711 1.376 . S
C2711 H2698 0.930 . S
C2711 C2710 1.376 . S
C2711 C2712 1.388 . S
C2712 H2699 0.930 . S
C2712 C2711 1.388 . S
C2712 C2713 1.390 . S
C2713 C2712 1.390 . S
C2713 C2714 1.394 . S
C2713 C2719 1.465 1_554 S
C2714 C2709 1.399 . S
C2714 C2713 1.394 . S
C2714 C2715 1.516 . S
C2715 C2714 1.516 . S
C2715 C2716 1.502 . S
C2715 C2717 1.561 . S
C2715 C2718 1.526 1_554 S
C2716 H2700 0.959 . S
C2716 H2701 0.959 1_554 S
C2716 H2702 0.961 . S
C2716 C2715 1.502 . S
C2717 H2703 0.960 . S
C2717 H2704 0.961 1_554 S
C2717 H2705 0.959 1_554 S
C2717 C2715 1.561 . S
C2718 C2715 1.526 1_556 S
C2718 C2719 1.396 . S
C2718 C2723 1.390 . S
C2719 C2713 1.465 1_556 S
C2719 C2718 1.396 . S
C2719 C2720 1.399 . S
C2720 H2706 0.929 . S
C2720 C2719 1.399 . S
C2720 C2721 1.385 . S
C2721 H2707 0.931 . S
C2721 C2720 1.385 . S
C2721 C2722 1.389 . S
C2722 C2721 1.389 . S
C2722 C2723 1.387 . S
C2723 H2708 0.930 . S
C2723 C2718 1.390 . S
C2723 C2722 1.387 . S
H2724 C2736 0.930 . S
H2725 C2738 0.930 . S
H2726 C2739 0.930 . S
H2727 C2743 0.966 . S
H2728 C2743 0.997 . S
H2729 C2743 0.920 1_556 S
H2730 C2744 0.966 1_556 S
H2731 C2744 0.955 . S
H2732 C2744 0.958 . S
H2733 C2747 0.929 . S
H2734 C2748 0.931 . S
H2735 C2750 0.930 . S
C2736 H2724 0.930 . S
C2736 C2737 1.399 . S
C2736 C2741 1.399 . S
C2737 C2736 1.399 . S
C2737 C2738 1.376 . S
C2738 H2725 0.930 . S
C2738 C2737 1.376 . S
C2738 C2739 1.388 . S
C2739 H2726 0.930 . S
C2739 C2738 1.388 . S
C2739 C2740 1.390 . S
C2740 C2739 1.390 . S
C2740 C2741 1.394 . S
C2740 C2746 1.465 1_556 S
C2741 C2736 1.399 . S
C2741 C2740 1.394 . S
C2741 C2742 1.502 1_556 S
C2742 C2741 1.502 1_554 S
C2742 C2743 1.501 . S
C2742 C2744 1.561 . S
C2742 C2745 1.540 . S
C2743 H2727 0.966 . S
C2743 H2728 0.997 . S
C2743 H2729 0.920 1_554 S
C2743 C2742 1.501 . S
C2744 H2730 0.966 1_554 S
C2744 H2731 0.955 . S
C2744 H2732 0.958 . S
C2744 C2742 1.561 . S
C2745 C2742 1.540 . S
C2745 C2746 1.396 . S
C2745 C2750 1.390 . S
C2746 C2740 1.465 1_554 S
C2746 C2745 1.396 . S
C2746 C2747 1.399 . S
C2747 H2733 0.929 . S
C2747 C2746 1.399 . S
C2747 C2748 1.385 . S
C2748 H2734 0.931 . S
C2748 C2747 1.385 . S
C2748 C2749 1.389 . S
C2749 C2748 1.389 . S
C2749 C2750 1.387 . S
C2750 H2735 0.930 . S
C2750 C2745 1.390 . S
C2750 C2749 1.387 . S
H2751 C2763 0.930 . S
H2752 C2765 0.930 . S
H2753 C2766 0.930 . S
H2754 C2770 0.965 . S
H2755 C2770 1.000 . S
H2756 C2770 0.918 1_554 S
H2757 C2771 0.956 1_554 S
H2758 C2771 0.965 . S
H2759 C2771 0.959 . S
H2760 C2774 0.929 . S
H2761 C2775 0.931 . S
H2762 C2777 0.930 . S
C2763 H2751 0.930 . S
C2763 C2764 1.399 . S
C2763 C2768 1.399 . S
C2764 C2763 1.399 . S
C2764 C2765 1.376 . S
C2765 H2752 0.930 . S
C2765 C2764 1.376 . S
C2765 C2766 1.388 . S
C2766 H2753 0.930 . S
C2766 C2765 1.388 . S
C2766 C2767 1.390 . S
C2767 C2766 1.390 . S
C2767 C2768 1.394 . S
C2767 C2773 1.465 1_554 S
C2768 C2763 1.399 . S
C2768 C2767 1.394 . S
C2768 C2769 1.517 1_554 S
C2769 C2768 1.517 1_556 S
C2769 C2770 1.501 . S
C2769 C2771 1.561 . S
C2769 C2772 1.525 . S
C2770 H2754 0.965 . S
C2770 H2755 1.000 . S
C2770 H2756 0.918 1_556 S
C2770 C2769 1.501 . S
C2771 H2757 0.956 1_556 S
C2771 H2758 0.965 . S
C2771 H2759 0.959 . S
C2771 C2769 1.561 . S
C2772 C2769 1.525 . S
C2772 C2773 1.396 . S
C2772 C2777 1.390 . S
C2773 C2767 1.465 1_556 S
C2773 C2772 1.396 . S
C2773 C2774 1.399 . S
C2774 H2760 0.929 . S
C2774 C2773 1.399 . S
C2774 C2775 1.385 . S
C2775 H2761 0.931 . S
C2775 C2774 1.385 . S
C2775 C2776 1.389 . S
C2776 C2775 1.389 . S
C2776 C2777 1.387 . S
C2777 H2762 0.930 . S
C2777 C2772 1.390 . S
C2777 C2776 1.387 . S
H2778 C2790 0.930 . S
H2779 C2792 0.930 . S
H2780 C2793 0.930 . S
H2781 C2797 0.959 . S
H2782 C2797 0.959 . S
H2783 C2797 0.961 1_556 S
H2784 C2798 0.960 1_556 S
H2785 C2798 0.961 . S
H2786 C2798 0.959 . S
H2787 C2801 0.929 . S
H2788 C2802 0.931 . S
H2789 C2804 0.930 . S
C2790 H2778 0.930 . S
C2790 C2791 1.399 . S
C2790 C2795 1.399 . S
C2791 C2790 1.399 . S
C2791 C2792 1.376 . S
C2792 H2779 0.930 . S
C2792 C2791 1.376 . S
C2792 C2793 1.388 . S
C2793 H2780 0.930 . S
C2793 C2792 1.388 . S
C2793 C2794 1.390 . S
C2794 C2793 1.390 . S
C2794 C2795 1.394 . S
C2794 C2800 1.465 1_556 S
C2795 C2790 1.399 . S
C2795 C2794 1.394 . S
C2795 C2796 1.516 1_556 S
C2796 C2795 1.516 1_554 S
C2796 C2797 1.502 . S
C2796 C2798 1.561 . S
C2796 C2799 1.526 . S
C2797 H2781 0.959 . S
C2797 H2782 0.959 . S
C2797 H2783 0.961 1_554 S
C2797 C2796 1.502 . S
C2798 H2784 0.960 1_554 S
C2798 H2785 0.961 . S
C2798 H2786 0.959 . S
C2798 C2796 1.561 . S
C2799 C2796 1.526 . S
C2799 C2800 1.396 . S
C2799 C2804 1.390 . S
C2800 C2794 1.465 1_554 S
C2800 C2799 1.396 . S
C2800 C2801 1.399 . S
C2801 H2787 0.929 . S
C2801 C2800 1.399 . S
C2801 C2802 1.385 . S
C2802 H2788 0.931 . S
C2802 C2801 1.385 . S
C2802 C2803 1.389 . S
C2803 C2802 1.389 . S
C2803 C2804 1.387 . S
C2804 H2789 0.930 . S
C2804 C2799 1.390 . S
C2804 C2803 1.387 . S
H2805 C2817 0.930 . S
H2806 C2819 0.930 . S
H2807 C2820 0.930 . S
H2808 C2824 0.959 . S
H2809 C2824 0.959 . S
H2810 C2824 0.961 1_554 S
H2811 C2825 0.960 1_554 S
H2812 C2825 0.961 . S
H2813 C2825 0.959 . S
H2814 C2828 0.929 . S
H2815 C2829 0.931 . S
H2816 C2831 0.930 . S
C2817 H2805 0.930 . S
C2817 C2818 1.399 . S
C2817 C2822 1.399 . S
C2818 C2817 1.399 . S
C2818 C2819 1.376 . S
C2819 H2806 0.930 . S
C2819 C2818 1.376 . S
C2819 C2820 1.388 . S
C2820 H2807 0.930 . S
C2820 C2819 1.388 . S
C2820 C2821 1.390 . S
C2821 C2820 1.390 . S
C2821 C2822 1.394 . S
C2821 C2827 1.465 1_554 S
C2822 C2817 1.399 . S
C2822 C2821 1.394 . S
C2822 C2823 1.516 1_554 S
C2823 C2822 1.516 1_556 S
C2823 C2824 1.502 . S
C2823 C2825 1.561 . S
C2823 C2826 1.526 . S
C2824 H2808 0.959 . S
C2824 H2809 0.959 . S
C2824 H2810 0.961 1_556 S
C2824 C2823 1.502 . S
C2825 H2811 0.960 1_556 S
C2825 H2812 0.961 . S
C2825 H2813 0.959 . S
C2825 C2823 1.561 . S
C2826 C2823 1.526 . S
C2826 C2827 1.396 . S
C2826 C2831 1.390 . S
C2827 C2821 1.465 1_556 S
C2827 C2826 1.396 . S
C2827 C2828 1.399 . S
C2828 H2814 0.929 . S
C2828 C2827 1.399 . S
C2828 C2829 1.385 . S
C2829 H2815 0.931 . S
C2829 C2828 1.385 . S
C2829 C2830 1.389 . S
C2830 C2829 1.389 . S
C2830 C2831 1.387 . S
C2831 H2816 0.930 . S
C2831 C2826 1.390 . S
C2831 C2830 1.387 . S
H2832 C2844 0.930 . S
H2833 C2846 0.930 . S
H2834 C2847 0.930 . S
H2835 C2851 0.961 . S
H2836 C2851 0.973 . S
H2837 C2851 0.946 1_455 S
H2838 C2852 0.946 1_455 S
H2839 C2852 0.973 . S
H2840 C2852 0.960 . S
H2841 C2855 0.929 . S
H2842 C2856 0.931 . S
H2843 C2858 0.930 . S
C2844 H2832 0.930 . S
C2844 C2845 1.399 . S
C2844 C2849 1.399 . S
C2845 C2844 1.399 . S
C2845 C2846 1.376 . S
C2846 H2833 0.930 . S
C2846 C2845 1.376 . S
C2846 C2847 1.388 . S
C2847 H2834 0.930 . S
C2847 C2846 1.388 . S
C2847 C2848 1.390 . S
C2848 C2847 1.390 . S
C2848 C2849 1.394 . S
C2848 C2854 1.465 1_455 S
C2849 C2844 1.399 . S
C2849 C2848 1.394 . S
C2849 C2850 1.514 . S
C2850 C2849 1.514 . S
C2850 C2851 1.502 1_455 S
C2850 C2852 1.561 1_455 S
C2850 C2853 1.528 1_455 S
C2851 H2835 0.961 . S
C2851 H2836 0.973 . S
C2851 H2837 0.946 1_655 S
C2851 C2850 1.502 1_655 S
C2852 H2838 0.946 1_655 S
C2852 H2839 0.973 . S
C2852 H2840 0.960 . S
C2852 C2850 1.561 1_655 S
C2853 C2850 1.528 1_655 S
C2853 C2854 1.396 . S
C2853 C2858 1.390 . S
C2854 C2848 1.465 1_655 S
C2854 C2853 1.396 . S
C2854 C2855 1.399 . S
C2855 H2841 0.929 . S
C2855 C2854 1.399 . S
C2855 C2856 1.385 . S
C2856 H2842 0.931 . S
C2856 C2855 1.385 . S
C2856 C2857 1.389 . S
C2857 C2856 1.389 . S
C2857 C2858 1.387 . S
C2858 H2843 0.930 . S
C2858 C2853 1.390 . S
C2858 C2857 1.387 . S
H2859 C2871 0.930 . S
H2860 C2873 0.930 . S
H2861 C2874 0.930 . S
H2862 C2878 0.959 . S
H2863 C2878 0.959 . S
H2864 C2878 0.961 1_565 S
H2865 C2879 0.933 1_565 S
H2866 C2879 0.985 . S
H2867 C2879 0.962 . S
H2868 C2882 0.929 . S
H2869 C2883 0.931 . S
H2870 C2885 0.930 . S
C2871 H2859 0.930 . S
C2871 C2872 1.399 . S
C2871 C2876 1.399 . S
C2872 C2871 1.399 . S
C2872 C2873 1.376 . S
C2873 H2860 0.930 . S
C2873 C2872 1.376 . S
C2873 C2874 1.388 . S
C2874 H2861 0.930 . S
C2874 C2873 1.388 . S
C2874 C2875 1.390 . S
C2875 C2874 1.390 . S
C2875 C2876 1.394 . S
C2875 C2881 1.465 1_565 S
C2876 C2871 1.399 . S
C2876 C2875 1.394 . S
C2876 C2877 1.516 1_565 S
C2877 C2876 1.516 1_545 S
C2877 C2878 1.502 . S
C2877 C2879 1.562 . S
C2877 C2880 1.526 . S
C2878 H2862 0.959 . S
C2878 H2863 0.959 . S
C2878 H2864 0.961 1_545 S
C2878 C2877 1.502 . S
C2879 H2865 0.933 1_545 S
C2879 H2866 0.985 . S
C2879 H2867 0.962 . S
C2879 C2877 1.562 . S
C2880 C2877 1.526 . S
C2880 C2881 1.396 . S
C2880 C2885 1.390 . S
C2881 C2875 1.465 1_545 S
C2881 C2880 1.396 . S
C2881 C2882 1.399 . S
C2882 H2868 0.929 . S
C2882 C2881 1.399 . S
C2882 C2883 1.385 . S
C2883 H2869 0.931 . S
C2883 C2882 1.385 . S
C2883 C2884 1.389 . S
C2884 C2883 1.389 . S
C2884 C2885 1.387 . S
C2885 H2870 0.930 . S
C2885 C2880 1.390 . S
C2885 C2884 1.387 . S
H2886 C2898 0.930 . S
H2887 C2900 0.930 . S
H2888 C2901 0.930 . S
H2889 C2905 0.963 . S
H2890 C2905 0.959 1_655 S
H2891 C2905 0.961 . S
H2892 C2906 0.960 . S
H2893 C2906 0.961 1_655 S
H2894 C2906 0.959 . S
H2895 C2909 0.929 . S
H2896 C2910 0.931 . S
H2897 C2912 0.930 . S
C2898 H2886 0.930 . S
C2898 C2899 1.399 . S
C2898 C2903 1.399 . S
C2899 C2898 1.399 . S
C2899 C2900 1.376 . S
C2900 H2887 0.930 . S
C2900 C2899 1.376 . S
C2900 C2901 1.388 . S
C2901 H2888 0.930 . S
C2901 C2900 1.388 . S
C2901 C2902 1.390 . S
C2902 C2901 1.390 . S
C2902 C2903 1.394 . S
C2902 C2908 1.465 1_455 S
C2903 C2898 1.399 . S
C2903 C2902 1.394 . S
C2903 C2904 1.516 . S
C2904 C2903 1.516 . S
C2904 C2905 1.502 . S
C2904 C2906 1.561 . S
C2904 C2907 1.526 1_455 S
C2905 H2889 0.963 . S
C2905 H2890 0.959 1_455 S
C2905 H2891 0.961 . S
C2905 C2904 1.502 . S
C2906 H2892 0.960 . S
C2906 H2893 0.961 1_455 S
C2906 H2894 0.959 . S
C2906 C2904 1.561 . S
C2907 C2904 1.526 1_655 S
C2907 C2908 1.396 . S
C2907 C2912 1.390 . S
C2908 C2902 1.465 1_655 S
C2908 C2907 1.396 . S
C2908 C2909 1.399 . S
C2909 H2895 0.929 . S
C2909 C2908 1.399 . S
C2909 C2910 1.385 . S
C2910 H2896 0.931 . S
C2910 C2909 1.385 . S
C2910 C2911 1.389 . S
C2911 C2910 1.389 . S
C2911 C2912 1.387 . S
C2912 H2897 0.930 . S
C2912 C2907 1.390 . S
C2912 C2911 1.387 . S
H2913 C2925 0.930 . S
H2914 C2927 0.930 . S
H2915 C2928 0.930 . S
H2916 C2932 0.959 . S
H2917 C2932 0.959 . S
H2918 C2932 0.961 1_565 S
H2919 C2933 0.960 1_565 S
H2920 C2933 0.961 . S
H2921 C2933 0.959 . S
H2922 C2936 0.929 . S
H2923 C2937 0.931 . S
H2924 C2939 0.930 . S
C2925 H2913 0.930 . S
C2925 C2926 1.399 . S
C2925 C2930 1.399 . S
C2926 C2925 1.399 . S
C2926 C2927 1.376 . S
C2927 H2914 0.930 . S
C2927 C2926 1.376 . S
C2927 C2928 1.388 . S
C2928 H2915 0.930 . S
C2928 C2927 1.388 . S
C2928 C2929 1.390 . S
C2929 C2928 1.390 . S
C2929 C2930 1.394 . S
C2929 C2935 1.465 1_565 S
C2930 C2925 1.399 . S
C2930 C2929 1.394 . S
C2930 C2931 1.516 1_565 S
C2931 C2930 1.516 1_545 S
C2931 C2932 1.502 . S
C2931 C2933 1.561 . S
C2931 C2934 1.526 . S
C2932 H2916 0.959 . S
C2932 H2917 0.959 . S
C2932 H2918 0.961 1_545 S
C2932 C2931 1.502 . S
C2933 H2919 0.960 1_545 S
C2933 H2920 0.961 . S
C2933 H2921 0.959 . S
C2933 C2931 1.561 . S
C2934 C2931 1.526 . S
C2934 C2935 1.396 . S
C2934 C2939 1.390 . S
C2935 C2929 1.465 1_545 S
C2935 C2934 1.396 . S
C2935 C2936 1.399 . S
C2936 H2922 0.929 . S
C2936 C2935 1.399 . S
C2936 C2937 1.385 . S
C2937 H2923 0.931 . S
C2937 C2936 1.385 . S
C2937 C2938 1.389 . S
C2938 C2937 1.389 . S
C2938 C2939 1.387 . S
C2939 H2924 0.930 . S
C2939 C2934 1.390 . S
C2939 C2938 1.387 . S
H2940 C2952 0.930 . S
H2941 C2954 0.930 . S
H2942 C2955 0.930 . S
H2943 C2959 0.963 . S
H2944 C2959 0.959 1_455 S
H2945 C2959 0.961 . S
H2946 C2960 0.960 . S
H2947 C2960 0.961 1_455 S
H2948 C2960 0.959 . S
H2949 C2963 0.929 . S
H2950 C2964 0.931 . S
H2951 C2966 0.930 . S
C2952 H2940 0.930 . S
C2952 C2953 1.399 . S
C2952 C2957 1.399 . S
C2953 C2952 1.399 . S
C2953 C2954 1.376 . S
C2954 H2941 0.930 . S
C2954 C2953 1.376 . S
C2954 C2955 1.388 . S
C2955 H2942 0.930 . S
C2955 C2954 1.388 . S
C2955 C2956 1.390 . S
C2956 C2955 1.390 . S
C2956 C2957 1.394 . S
C2956 C2962 1.465 1_655 S
C2957 C2952 1.399 . S
C2957 C2956 1.394 . S
C2957 C2958 1.516 . S
C2958 C2957 1.516 . S
C2958 C2959 1.502 . S
C2958 C2960 1.561 . S
C2958 C2961 1.526 1_655 S
C2959 H2943 0.963 . S
C2959 H2944 0.959 1_655 S
C2959 H2945 0.961 . S
C2959 C2958 1.502 . S
C2960 H2946 0.960 . S
C2960 H2947 0.961 1_655 S
C2960 H2948 0.959 . S
C2960 C2958 1.561 . S
C2961 C2958 1.526 1_455 S
C2961 C2962 1.396 . S
C2961 C2966 1.390 . S
C2962 C2956 1.465 1_455 S
C2962 C2961 1.396 . S
C2962 C2963 1.399 . S
C2963 H2949 0.929 . S
C2963 C2962 1.399 . S
C2963 C2964 1.385 . S
C2964 H2950 0.931 . S
C2964 C2963 1.385 . S
C2964 C2965 1.389 . S
C2965 C2964 1.389 . S
C2965 C2966 1.387 . S
C2966 H2951 0.930 . S
C2966 C2961 1.390 . S
C2966 C2965 1.387 . S
H2967 C2979 0.930 . S
H2968 C2981 0.930 . S
H2969 C2982 0.930 . S
H2970 C2986 0.962 . S
H2971 C2986 0.983 . S
H2972 C2986 0.935 1_545 S
H2973 C2987 0.960 1_545 S
H2974 C2987 0.961 . S
H2975 C2987 0.959 . S
H2976 C2990 0.929 . S
H2977 C2991 0.931 . S
H2978 C2993 0.930 . S
C2979 H2967 0.930 . S
C2979 C2980 1.399 . S
C2979 C2984 1.399 . S
C2980 C2979 1.399 . S
C2980 C2981 1.376 . S
C2981 H2968 0.930 . S
C2981 C2980 1.376 . S
C2981 C2982 1.388 . S
C2982 H2969 0.930 . S
C2982 C2981 1.388 . S
C2982 C2983 1.390 . S
C2983 C2982 1.390 . S
C2983 C2984 1.394 . S
C2983 C2989 1.465 1_545 S
C2984 C2979 1.399 . S
C2984 C2983 1.394 . S
C2984 C2985 1.474 1_545 S
C2985 C2984 1.474 1_565 S
C2985 C2986 1.502 . S
C2985 C2987 1.563 . S
C2985 C2988 1.569 . S
C2986 H2970 0.962 . S
C2986 H2971 0.983 . S
C2986 H2972 0.935 1_565 S
C2986 C2985 1.502 . S
C2987 H2973 0.960 1_565 S
C2987 H2974 0.961 . S
C2987 H2975 0.959 . S
C2987 C2985 1.563 . S
C2988 C2985 1.569 . S
C2988 C2989 1.396 . S
C2988 C2993 1.390 . S
C2989 C2983 1.465 1_565 S
C2989 C2988 1.396 . S
C2989 C2990 1.399 . S
C2990 H2976 0.929 . S
C2990 C2989 1.399 . S
C2990 C2991 1.385 . S
C2991 H2977 0.931 . S
C2991 C2990 1.385 . S
C2991 C2992 1.389 . S
C2992 C2991 1.389 . S
C2992 C2993 1.387 . S
C2993 H2978 0.930 . S
C2993 C2988 1.390 . S
C2993 C2992 1.387 . S
H2994 C3006 0.930 . S
H2995 C3008 0.930 . S
H2996 C3009 0.930 . S
H2997 C3013 0.959 . S
H2998 C3013 0.959 . S
H2999 C3013 0.961 1_455 S
H3000 C3014 0.960 1_455 S
H3001 C3014 0.961 . S
H3002 C3014 0.959 . S
H3003 C3017 0.929 . S
H3004 C3018 0.931 . S
H3005 C3020 0.930 . S
C3006 H2994 0.930 . S
C3006 C3007 1.399 . S
C3006 C3011 1.399 . S
C3007 C3006 1.399 . S
C3007 C3008 1.376 . S
C3008 H2995 0.930 . S
C3008 C3007 1.376 . S
C3008 C3009 1.388 . S
C3009 H2996 0.930 . S
C3009 C3008 1.388 . S
C3009 C3010 1.390 . S
C3010 C3009 1.390 . S
C3010 C3011 1.394 . S
C3010 C3016 1.465 1_455 S
C3011 C3006 1.399 . S
C3011 C3010 1.394 . S
C3011 C3012 1.516 1_455 S
C3012 C3011 1.516 1_655 S
C3012 C3013 1.502 . S
C3012 C3014 1.561 . S
C3012 C3015 1.526 . S
C3013 H2997 0.959 . S
C3013 H2998 0.959 . S
C3013 H2999 0.961 1_655 S
C3013 C3012 1.502 . S
C3014 H3000 0.960 1_655 S
C3014 H3001 0.961 . S
C3014 H3002 0.959 . S
C3014 C3012 1.561 . S
C3015 C3012 1.526 . S
C3015 C3016 1.396 . S
C3015 C3020 1.390 . S
C3016 C3010 1.465 1_655 S
C3016 C3015 1.396 . S
C3016 C3017 1.399 . S
C3017 H3003 0.929 . S
C3017 C3016 1.399 . S
C3017 C3018 1.385 . S
C3018 H3004 0.931 . S
C3018 C3017 1.385 . S
C3018 C3019 1.389 . S
C3019 C3018 1.389 . S
C3019 C3020 1.387 . S
C3020 H3005 0.930 . S
C3020 C3015 1.390 . S
C3020 C3019 1.387 . S
H3021 C3033 0.930 . S
H3022 C3035 0.930 . S
H3023 C3036 0.930 . S
H3024 C3040 0.959 . S
H3025 C3040 0.959 . S
H3026 C3040 0.961 1_545 S
H3027 C3041 0.960 1_545 S
H3028 C3041 0.961 . S
H3029 C3041 0.959 . S
H3030 C3044 0.929 . S
H3031 C3045 0.931 . S
H3032 C3047 0.930 . S
C3033 H3021 0.930 . S
C3033 C3034 1.399 . S
C3033 C3038 1.399 . S
C3034 C3033 1.399 . S
C3034 C3035 1.376 . S
C3035 H3022 0.930 . S
C3035 C3034 1.376 . S
C3035 C3036 1.388 . S
C3036 H3023 0.930 . S
C3036 C3035 1.388 . S
C3036 C3037 1.390 . S
C3037 C3036 1.390 . S
C3037 C3038 1.394 . S
C3037 C3043 1.465 1_545 S
C3038 C3033 1.399 . S
C3038 C3037 1.394 . S
C3038 C3039 1.516 1_545 S
C3039 C3038 1.516 1_565 S
C3039 C3040 1.502 . S
C3039 C3041 1.561 . S
C3039 C3042 1.526 . S
C3040 H3024 0.959 . S
C3040 H3025 0.959 . S
C3040 H3026 0.961 1_565 S
C3040 C3039 1.502 . S
C3041 H3027 0.960 1_565 S
C3041 H3028 0.961 . S
C3041 H3029 0.959 . S
C3041 C3039 1.561 . S
C3042 C3039 1.526 . S
C3042 C3043 1.396 . S
C3042 C3047 1.390 . S
C3043 C3037 1.465 1_565 S
C3043 C3042 1.396 . S
C3043 C3044 1.399 . S
C3044 H3030 0.929 . S
C3044 C3043 1.399 . S
C3044 C3045 1.385 . S
C3045 H3031 0.931 . S
C3045 C3044 1.385 . S
C3045 C3046 1.389 . S
C3046 C3045 1.389 . S
C3046 C3047 1.387 . S
C3047 H3032 0.930 . S
C3047 C3042 1.390 . S
C3047 C3046 1.387 . S
H3048 C3060 0.930 . S
H3049 C3062 0.930 . S
H3050 C3063 0.930 . S
H3051 C3067 0.959 . S
H3052 C3067 0.959 1_565 S
H3053 C3067 0.961 . S
H3054 C3068 0.960 . S
H3055 C3068 0.961 1_565 S
H3056 C3068 0.959 . S
H3057 C3071 0.929 . S
H3058 C3072 0.931 . S
H3059 C3074 0.930 . S
C3060 H3048 0.930 . S
C3060 C3061 1.399 . S
C3060 C3065 1.399 . S
C3061 C3060 1.399 . S
C3061 C3062 1.376 . S
C3062 H3049 0.930 . S
C3062 C3061 1.376 . S
C3062 C3063 1.388 . S
C3063 H3050 0.930 . S
C3063 C3062 1.388 . S
C3063 C3064 1.390 . S
C3064 C3063 1.390 . S
C3064 C3065 1.394 . S
C3064 C3070 1.465 1_545 S
C3065 C3060 1.399 . S
C3065 C3064 1.394 . S
C3065 C3066 1.516 . S
C3066 C3065 1.516 . S
C3066 C3067 1.502 . S
C3066 C3068 1.561 . S
C3066 C3069 1.526 1_545 S
C3067 H3051 0.959 . S
C3067 H3052 0.959 1_545 S
C3067 H3053 0.961 . S
C3067 C3066 1.502 . S
C3068 H3054 0.960 . S
C3068 H3055 0.961 1_545 S
C3068 H3056 0.959 . S
C3068 C3066 1.561 . S
C3069 C3066 1.526 1_565 S
C3069 C3070 1.396 . S
C3069 C3074 1.390 . S
C3070 C3064 1.465 1_565 S
C3070 C3069 1.396 . S
C3070 C3071 1.399 . S
C3071 H3057 0.929 . S
C3071 C3070 1.399 . S
C3071 C3072 1.385 . S
C3072 H3058 0.931 . S
C3072 C3071 1.385 . S
C3072 C3073 1.389 . S
C3073 C3072 1.389 . S
C3073 C3074 1.387 . S
C3074 H3059 0.930 . S
C3074 C3069 1.390 . S
C3074 C3073 1.387 . S
H3075 C3087 0.930 . S
H3076 C3089 0.930 . S
H3077 C3090 0.930 . S
H3078 C3094 0.960 . S
H3079 C3094 0.959 1_565 S
H3080 C3094 0.961 . S
H3081 C3095 0.960 . S
H3082 C3095 0.961 1_565 S
H3083 C3095 0.961 . S
H3084 C3098 0.929 . S
H3085 C3099 0.931 . S
H3086 C3101 0.930 . S
C3087 H3075 0.930 . S
C3087 C3088 1.399 . S
C3087 C3092 1.399 . S
C3088 C3087 1.399 . S
C3088 C3089 1.376 . S
C3089 H3076 0.930 . S
C3089 C3088 1.376 . S
C3089 C3090 1.388 . S
C3090 H3077 0.930 . S
C3090 C3089 1.388 . S
C3090 C3091 1.390 . S
C3091 C3090 1.390 . S
C3091 C3092 1.394 . S
C3091 C3097 1.465 1_545 S
C3092 C3087 1.399 . S
C3092 C3091 1.394 . S
C3092 C3093 1.516 . S
C3093 C3092 1.516 . S
C3093 C3094 1.502 . S
C3093 C3095 1.561 . S
C3093 C3096 1.526 1_545 S
C3094 H3078 0.960 . S
C3094 H3079 0.959 1_545 S
C3094 H3080 0.961 . S
C3094 C3093 1.502 . S
C3095 H3081 0.960 . S
C3095 H3082 0.961 1_545 S
C3095 H3083 0.961 . S
C3095 C3093 1.561 . S
C3096 C3093 1.526 1_565 S
C3096 C3097 1.396 . S
C3096 C3101 1.390 . S
C3097 C3091 1.465 1_565 S
C3097 C3096 1.396 . S
C3097 C3098 1.399 . S
C3098 H3084 0.929 . S
C3098 C3097 1.399 . S
C3098 C3099 1.385 . S
C3099 H3085 0.931 . S
C3099 C3098 1.385 . S
C3099 C3100 1.389 . S
C3100 C3099 1.389 . S
C3100 C3101 1.387 . S
C3101 H3086 0.930 . S
C3101 C3096 1.390 . S
C3101 C3100 1.387 . S
H3102 C3114 0.930 . S
H3103 C3116 0.930 . S
H3104 C3117 0.930 . S
H3105 C3121 0.955 1_455 S
H3106 C3121 0.933 1_455 S
H3107 C3121 0.989 . S
H3108 C3122 0.960 . S
H3109 C3122 0.961 1_455 S
H3110 C3122 0.960 . S
H3111 C3125 0.929 . S
H3112 C3126 0.931 . S
H3113 C3128 0.930 . S
C3114 H3102 0.930 . S
C3114 C3115 1.399 . S
C3114 C3119 1.399 . S
C3115 C3114 1.399 . S
C3115 C3116 1.376 . S
C3116 H3103 0.930 . S
C3116 C3115 1.376 . S
C3116 C3117 1.388 . S
C3117 H3104 0.930 . S
C3117 C3116 1.388 . S
C3117 C3118 1.390 . S
C3118 C3117 1.390 . S
C3118 C3119 1.394 . S
C3118 C3124 1.465 1_655 S
C3119 C3114 1.399 . S
C3119 C3118 1.394 . S
C3119 C3120 1.516 . S
C3120 C3119 1.516 . S
C3120 C3121 1.503 . S
C3120 C3122 1.561 . S
C3120 C3123 1.526 1_655 S
C3121 H3105 0.955 1_655 S
C3121 H3106 0.933 1_655 S
C3121 H3107 0.989 . S
C3121 C3120 1.503 . S
C3122 H3108 0.960 . S
C3122 H3109 0.961 1_655 S
C3122 H3110 0.960 . S
C3122 C3120 1.561 . S
C3123 C3120 1.526 1_455 S
C3123 C3124 1.396 . S
C3123 C3128 1.390 . S
C3124 C3118 1.465 1_455 S
C3124 C3123 1.396 . S
C3124 C3125 1.399 . S
C3125 H3111 0.929 . S
C3125 C3124 1.399 . S
C3125 C3126 1.385 . S
C3126 H3112 0.931 . S
C3126 C3125 1.385 . S
C3126 C3127 1.389 . S
C3127 C3126 1.389 . S
C3127 C3128 1.387 . S
C3128 H3113 0.930 . S
C3128 C3123 1.390 . S
C3128 C3127 1.387 . S
H3129 C3141 0.930 . S
H3130 C3143 0.930 . S
H3131 C3144 0.930 . S
H3132 C3148 0.959 . S
H3133 C3148 0.959 . S
H3134 C3148 0.961 1_545 S
H3135 C3149 0.960 1_545 S
H3136 C3149 0.961 . S
H3137 C3149 0.959 . S
H3138 C3152 0.929 . S
H3139 C3153 0.931 . S
H3140 C3155 0.930 . S
C3141 H3129 0.930 . S
C3141 C3142 1.399 . S
C3141 C3146 1.399 . S
C3142 C3141 1.399 . S
C3142 C3143 1.376 . S
C3143 H3130 0.930 . S
C3143 C3142 1.376 . S
C3143 C3144 1.388 . S
C3144 H3131 0.930 . S
C3144 C3143 1.388 . S
C3144 C3145 1.390 . S
C3145 C3144 1.390 . S
C3145 C3146 1.394 . S
C3145 C3151 1.465 1_545 S
C3146 C3141 1.399 . S
C3146 C3145 1.394 . S
C3146 C3147 1.516 1_545 S
C3147 C3146 1.516 1_565 S
C3147 C3148 1.502 . S
C3147 C3149 1.561 . S
C3147 C3150 1.526 . S
C3148 H3132 0.959 . S
C3148 H3133 0.959 . S
C3148 H3134 0.961 1_565 S
C3148 C3147 1.502 . S
C3149 H3135 0.960 1_565 S
C3149 H3136 0.961 . S
C3149 H3137 0.959 . S
C3149 C3147 1.561 . S
C3150 C3147 1.526 . S
C3150 C3151 1.396 . S
C3150 C3155 1.390 . S
C3151 C3145 1.465 1_565 S
C3151 C3150 1.396 . S
C3151 C3152 1.399 . S
C3152 H3138 0.929 . S
C3152 C3151 1.399 . S
C3152 C3153 1.385 . S
C3153 H3139 0.931 . S
C3153 C3152 1.385 . S
C3153 C3154 1.389 . S
C3154 C3153 1.389 . S
C3154 C3155 1.387 . S
C3155 H3140 0.930 . S
C3155 C3150 1.390 . S
C3155 C3154 1.387 . S
H3156 C3168 0.930 . S
H3157 C3170 0.930 . S
H3158 C3171 0.930 . S
H3159 C3175 0.959 . S
H3160 C3175 0.959 . S
H3161 C3175 0.961 1_455 S
H3162 C3176 0.908 1_455 S
H3163 C3176 1.010 . S
H3164 C3176 0.964 . S
H3165 C3179 0.929 . S
H3166 C3180 0.931 . S
H3167 C3182 0.930 . S
C3168 H3156 0.930 . S
C3168 C3169 1.399 . S
C3168 C3173 1.399 . S
C3169 C3168 1.399 . S
C3169 C3170 1.376 . S
C3170 H3157 0.930 . S
C3170 C3169 1.376 . S
C3170 C3171 1.388 . S
C3171 H3158 0.930 . S
C3171 C3170 1.388 . S
C3171 C3172 1.390 . S
C3172 C3171 1.390 . S
C3172 C3173 1.394 . S
C3172 C3178 1.465 1_455 S
C3173 C3168 1.399 . S
C3173 C3172 1.394 . S
C3173 C3174 1.516 1_455 S
C3174 C3173 1.516 1_655 S
C3174 C3175 1.502 . S
C3174 C3176 1.564 . S
C3174 C3177 1.526 . S
C3175 H3159 0.959 . S
C3175 H3160 0.959 . S
C3175 H3161 0.961 1_655 S
C3175 C3174 1.502 . S
C3176 H3162 0.908 1_655 S
C3176 H3163 1.010 . S
C3176 H3164 0.964 . S
C3176 C3174 1.564 . S
C3177 C3174 1.526 . S
C3177 C3178 1.396 . S
C3177 C3182 1.390 . S
C3178 C3172 1.465 1_655 S
C3178 C3177 1.396 . S
C3178 C3179 1.399 . S
C3179 H3165 0.929 . S
C3179 C3178 1.399 . S
C3179 C3180 1.385 . S
C3180 H3166 0.931 . S
C3180 C3179 1.385 . S
C3180 C3181 1.389 . S
C3181 C3180 1.389 . S
C3181 C3182 1.387 . S
C3182 H3167 0.930 . S
C3182 C3177 1.390 . S
C3182 C3181 1.387 . S
H3183 C3195 0.930 . S
H3184 C3197 0.930 . S
H3185 C3198 0.930 . S
H3186 C3202 0.959 . S
H3187 C3202 0.959 . S
H3188 C3202 0.961 1_545 S
H3189 C3203 0.960 1_545 S
H3190 C3203 0.961 . S
H3191 C3203 0.959 . S
H3192 C3206 0.929 . S
H3193 C3207 0.931 . S
H3194 C3209 0.930 . S
C3195 H3183 0.930 . S
C3195 C3196 1.399 . S
C3195 C3200 1.399 . S
C3196 C3195 1.399 . S
C3196 C3197 1.376 . S
C3197 H3184 0.930 . S
C3197 C3196 1.376 . S
C3197 C3198 1.388 . S
C3198 H3185 0.930 . S
C3198 C3197 1.388 . S
C3198 C3199 1.390 . S
C3199 C3198 1.390 . S
C3199 C3200 1.394 . S
C3199 C3205 1.465 1_545 S
C3200 C3195 1.399 . S
C3200 C3199 1.394 . S
C3200 C3201 1.516 1_545 S
C3201 C3200 1.516 1_565 S
C3201 C3202 1.502 . S
C3201 C3203 1.561 . S
C3201 C3204 1.526 . S
C3202 H3186 0.959 . S
C3202 H3187 0.959 . S
C3202 H3188 0.961 1_565 S
C3202 C3201 1.502 . S
C3203 H3189 0.960 1_565 S
C3203 H3190 0.961 . S
C3203 H3191 0.959 . S
C3203 C3201 1.561 . S
C3204 C3201 1.526 . S
C3204 C3205 1.396 . S
C3204 C3209 1.390 . S
C3205 C3199 1.465 1_565 S
C3205 C3204 1.396 . S
C3205 C3206 1.399 . S
C3206 H3192 0.929 . S
C3206 C3205 1.399 . S
C3206 C3207 1.385 . S
C3207 H3193 0.931 . S
C3207 C3206 1.385 . S
C3207 C3208 1.389 . S
C3208 C3207 1.389 . S
C3208 C3209 1.387 . S
C3209 H3194 0.930 . S
C3209 C3204 1.390 . S
C3209 C3208 1.387 . S
H3210 C3222 0.930 . S
H3211 C3224 0.930 . S
H3212 C3225 0.930 . S
H3213 C3229 0.959 1_455 S
H3214 C3229 0.959 1_455 S
H3215 C3229 0.961 . S
H3216 C3230 0.960 . S
H3217 C3230 0.961 1_455 S
H3218 C3230 0.959 . S
H3219 C3233 0.929 . S
H3220 C3234 0.931 . S
H3221 C3236 0.930 . S
C3222 H3210 0.930 . S
C3222 C3223 1.399 . S
C3222 C3227 1.399 . S
C3223 C3222 1.399 . S
C3223 C3224 1.376 . S
C3224 H3211 0.930 . S
C3224 C3223 1.376 . S
C3224 C3225 1.388 . S
C3225 H3212 0.930 . S
C3225 C3224 1.388 . S
C3225 C3226 1.390 . S
C3226 C3225 1.390 . S
C3226 C3227 1.394 . S
C3226 C3232 1.465 1_655 S
C3227 C3222 1.399 . S
C3227 C3226 1.394 . S
C3227 C3228 1.516 . S
C3228 C3227 1.516 . S
C3228 C3229 1.502 . S
C3228 C3230 1.561 . S
C3228 C3231 1.526 1_655 S
C3229 H3213 0.959 1_655 S
C3229 H3214 0.959 1_655 S
C3229 H3215 0.961 . S
C3229 C3228 1.502 . S
C3230 H3216 0.960 . S
C3230 H3217 0.961 1_655 S
C3230 H3218 0.959 . S
C3230 C3228 1.561 . S
C3231 C3228 1.526 1_455 S
C3231 C3232 1.396 . S
C3231 C3236 1.390 . S
C3232 C3226 1.465 1_455 S
C3232 C3231 1.396 . S
C3232 C3233 1.399 . S
C3233 H3219 0.929 . S
C3233 C3232 1.399 . S
C3233 C3234 1.385 . S
C3234 H3220 0.931 . S
C3234 C3233 1.385 . S
C3234 C3235 1.389 . S
C3235 C3234 1.389 . S
C3235 C3236 1.387 . S
C3236 H3221 0.930 . S
C3236 C3231 1.390 . S
C3236 C3235 1.387 . S
H3237 C3249 0.930 . S
H3238 C3251 0.930 . S
H3239 C3252 0.930 . S
H3240 C3256 0.960 1_655 S
H3241 C3256 0.959 1_655 S
H3242 C3256 0.961 . S
H3243 C3257 0.960 . S
H3244 C3257 0.961 1_655 S
H3245 C3257 0.961 . S
H3246 C3260 0.929 . S
H3247 C3261 0.931 . S
H3248 C3263 0.930 . S
C3249 H3237 0.930 . S
C3249 C3250 1.399 . S
C3249 C3254 1.399 . S
C3250 C3249 1.399 . S
C3250 C3251 1.376 . S
C3251 H3238 0.930 . S
C3251 C3250 1.376 . S
C3251 C3252 1.388 . S
C3252 H3239 0.930 . S
C3252 C3251 1.388 . S
C3252 C3253 1.390 . S
C3253 C3252 1.390 . S
C3253 C3254 1.394 . S
C3253 C3259 1.465 1_455 S
C3254 C3249 1.399 . S
C3254 C3253 1.394 . S
C3254 C3255 1.516 . S
C3255 C3254 1.516 . S
C3255 C3256 1.502 . S
C3255 C3257 1.561 . S
C3255 C3258 1.526 1_455 S
C3256 H3240 0.960 1_455 S
C3256 H3241 0.959 1_455 S
C3256 H3242 0.961 . S
C3256 C3255 1.502 . S
C3257 H3243 0.960 . S
C3257 H3244 0.961 1_455 S
C3257 H3245 0.961 . S
C3257 C3255 1.561 . S
C3258 C3255 1.526 1_655 S
C3258 C3259 1.396 . S
C3258 C3263 1.390 . S
C3259 C3253 1.465 1_655 S
C3259 C3258 1.396 . S
C3259 C3260 1.399 . S
C3260 H3246 0.929 . S
C3260 C3259 1.399 . S
C3260 C3261 1.385 . S
C3261 H3247 0.931 . S
C3261 C3260 1.385 . S
C3261 C3262 1.389 . S
C3262 C3261 1.389 . S
C3262 C3263 1.387 . S
C3263 H3248 0.930 . S
C3263 C3258 1.390 . S
C3263 C3262 1.387 . S
C685 C546 1.326 . S
C697 C11 1.326 . S
C712 C25 1.206 . S
C724 C504 1.188 . S
C739 C39 1.282 . S
C751 C529 1.278 . S
C766 C543 1.184 . S
C778 C53 1.190 . S
C793 C473 1.227 . S
C805 C67 1.220 . S
C820 C70 1.220 . S
C832 C487 1.224 . S
C847 C95 1.243 . S
C859 C490 1.237 . S
C874 C98 1.275 . S
C886 C448 1.276 . S
C901 C112 1.382 . S
C913 C434 1.375 . S
C928 C403 1.216 . S
C940 C137 1.221 . S
C955 C406 1.346 . S
C967 C140 1.336 . S
C982 C165 1.250 . S
C994 C431 1.251 . S
C1009 C168 1.237 . S
C1021 C361 1.243 . S
C1036 C193 1.305 . S
C1048 C364 1.297 . S
C1063 C389 1.151 . S
C1075 C196 1.142 . S
C1090 C336 1.335 . S
C1102 C221 1.335 . S
C1117 C235 1.224 . S
C1129 C627 1.217 . S
C1144 C658 1.259 . S
C1156 C238 1.259 . S
C1171 C641 1.369 . S
C1183 C252 1.367 . S
C1198 C644 1.187 . S
C1210 C266 1.189 . S
C1225 C571 1.315 . S
C1237 C280 1.308 . S
C1252 C599 1.248 . S
C1264 C305 1.248 . S
C1279 C308 1.275 . S
C1291 C602 1.281 . S
C1306 C574 1.162 . S
C1318 C322 1.159 . S
C1333 C459 1.300 . S
C1345 C291 1.298 . S
C1360 C249 1.180 . S
C1372 C462 1.174 . S
C1387 C476 1.294 . S
C1399 C263 1.303 . S
C1414 C501 1.151 . S
C1426 C277 1.154 . S
C1441 C333 1.241 . S
C1453 C515 1.236 . S
C1468 C518 1.264 . S
C1480 C294 1.261 . S
C1495 C319 1.281 . S
C1507 C532 1.279 . S
C1522 C224 1.215 . S
C1534 C557 1.216 . S
C1549 C560 1.388 . S
C1561 C210 1.397 . S
C1576 C179 1.295 . S
C1588 C669 1.298 . S
C1603 C630 1.313 . S
C1615 C182 1.311 . S
C1630 C207 1.178 . S
C1642 C655 1.181 . S
C1657 C126 1.149 . S
C1669 C585 1.152 . S
C1684 C151 1.271 . S
C1696 C588 1.271 . S
C1711 C154 1.233 . S
C1723 C613 1.236 . S
C1738 C616 1.338 . S
C1750 C123 1.334 . S
C1765 C347 1.261 . S
C1777 C109 1.261 . S
C1792 C392 1.234 . S
C1804 C14 1.223 . S
C1819 C417 1.300 . S
C1831 C28 1.291 . S
C1846 C420 1.152 . S
C1858 C42 1.160 . S
C1873 C445 1.341 . S
C1885 C0 1.333 . S
C1900 C81 1.203 . S
C1912 C375 1.209 . S
C1927 C378 1.222 . S
C1939 C84 1.222 . S
C1954 C350 1.228 . S
C1966 C56 1.228 . S
C1981 C5 1.502 . S
C1993 C373 1.502 . S
C2008 C383 1.456 . S
C2020 C19 1.456 . S
C2035 C33 1.477 . S
C2047 C345 1.465 . S
C2062 C47 1.442 . S
C2074 C355 1.443 . S
C2089 C61 1.460 . S
C2101 C425 1.459 . S
C2116 C443 1.504 . S
C2128 C79 1.499 . S
C2143 C89 1.441 . S
C2155 C397 1.448 . S
C2170 C415 1.513 . S
C2182 C107 1.508 . S
C2197 C121 1.481 . S
C2209 C513 1.483 . S
C2224 C523 1.456 . S
C2236 C131 1.459 . S
C2251 C149 1.471 . S
C2263 C537 1.467 . S
C2278 C159 1.464 . S
C2290 C555 1.453 . S
C2305 C177 1.429 . S
C2317 C457 1.427 . S
C2332 C187 1.480 . S
C2344 C467 1.480 . S
C2359 C481 1.412 . S
C2371 C205 1.409 . S
C2386 C215 1.500 . S
C2398 C499 1.495 . S
C2413 C611 1.481 . S
C2425 C229 1.484 . S
C2440 C247 1.497 . S
C2452 C635 1.490 . S
C2467 C261 1.440 . S
C2479 C653 1.438 . S
C2494 C565 1.463 . S
C2506 C275 1.444 . S
C2521 C667 1.454 . S
C2533 C289 1.462 . S
C2548 C299 1.457 . S
C2560 C583 1.433 . S
C2575 C593 1.466 . S
C2587 C317 1.454 . S
C2602 C331 1.450 . S
C2614 C621 1.444 . S
C2629 C597 1.492 . S
C2641 C285 1.492 . S
C2656 C243 1.456 . S
C2668 C607 1.451 . S
C2683 C625 1.469 . S
C2695 C257 1.486 . S
C2710 C579 1.442 . S
C2722 C271 1.441 . S
C2737 C649 1.442 . S
C2749 C327 1.437 . S
C2764 C303 1.481 . S
C2776 C569 1.490 . S
C2791 C663 1.465 . S
C2803 C313 1.460 . S
C2818 C233 1.506 . S
C2830 C639 1.501 . S
C2845 C471 1.487 . S
C2857 C219 1.485 . S
C2872 C173 1.480 . S
C2884 C485 1.479 . S
C2899 C191 1.438 . S
C2911 C495 1.451 . S
C2926 C453 1.455 . S
C2938 C201 1.449 . S
C2953 C135 1.429 . S
C2965 C551 1.423 . S
C2980 C509 1.473 . S
C2992 C145 1.473 . S
C3007 C163 1.423 . S
C3019 C527 1.425 . S
C3034 C117 1.478 . S
C3046 C541 1.464 . S
C3061 C387 1.484 . S
C3073 C103 1.487 . S
C3088 C23 1.464 . S
C3100 C411 1.486 . S
C3115 C37 1.461 . S
C3127 C429 1.456 . S
C3142 C439 1.467 . S
C3154 C51 1.455 . S
C3169 C9 1.472 . S
C3181 C401 1.464 . S
C3196 C75 1.456 . S
C3208 C359 1.442 . S
C3223 C93 1.424 . S
C3235 C369 1.443 . S
C3250 C65 1.424 . S
C3262 C341 1.451 . S
