# Generated by pormake.
# Topology whw, (6)-cn, num edge types: 1
# Building blocks:
#     Node 0, Type 0, BuildingBlock: PAMTOO_clean_sbu_0, # of connection points: 6
#     Node 1, Type 0, BuildingBlock: PAMTOO_clean_sbu_0, # of connection points: 6
#     Node 2, Type 0, BuildingBlock: PAMTOO_clean_sbu_0, # of connection points: 6
#     Node 3, Type 0, BuildingBlock: PAMTOO_clean_sbu_0, # of connection points: 6
#     Node 4, Type 0, BuildingBlock: PAMTOO_clean_sbu_0, # of connection points: 6
#     Node 5, Type 0, BuildingBlock: PAMTOO_clean_sbu_0, # of connection points: 6
#     Node 6, Type 0, BuildingBlock: PAMTOO_clean_sbu_0, # of connection points: 6
#     Node 7, Type 0, BuildingBlock: PAMTOO_clean_sbu_0, # of connection points: 6
#     Node 8, Type 0, BuildingBlock: PAMTOO_clean_sbu_0, # of connection points: 6
#     Node 9, Type 0, BuildingBlock: PAMTOO_clean_sbu_0, # of connection points: 6
#     Node 10, Type 0, BuildingBlock: PAMTOO_clean_sbu_0, # of connection points: 6
#     Node 11, Type 0, BuildingBlock: PAMTOO_clean_sbu_0, # of connection points: 6
#     Node 12, Type 0, BuildingBlock: PAMTOO_clean_sbu_0, # of connection points: 6
#     Node 13, Type 0, BuildingBlock: PAMTOO_clean_sbu_0, # of connection points: 6
#     Node 14, Type 0, BuildingBlock: PAMTOO_clean_sbu_0, # of connection points: 6
#     Node 15, Type 0, BuildingBlock: PAMTOO_clean_sbu_0, # of connection points: 6
#     Edge 16, Type (0, 0), BuildingBlock: XIVTED_clean_linker_0, # of connection points: 2
#     Edge 17, Type (0, 0), BuildingBlock: XIVTED_clean_linker_0, # of connection points: 2
#     Edge 18, Type (0, 0), BuildingBlock: XIVTED_clean_linker_0, # of connection points: 2
#     Edge 19, Type (0, 0), BuildingBlock: XIVTED_clean_linker_0, # of connection points: 2
#     Edge 20, Type (0, 0), BuildingBlock: XIVTED_clean_linker_0, # of connection points: 2
#     Edge 21, Type (0, 0), BuildingBlock: XIVTED_clean_linker_0, # of connection points: 2
#     Edge 22, Type (0, 0), BuildingBlock: XIVTED_clean_linker_0, # of connection points: 2
#     Edge 23, Type (0, 0), BuildingBlock: XIVTED_clean_linker_0, # of connection points: 2
#     Edge 24, Type (0, 0), BuildingBlock: XIVTED_clean_linker_0, # of connection points: 2
#     Edge 25, Type (0, 0), BuildingBlock: XIVTED_clean_linker_0, # of connection points: 2
#     Edge 26, Type (0, 0), BuildingBlock: XIVTED_clean_linker_0, # of connection points: 2
#     Edge 27, Type (0, 0), BuildingBlock: XIVTED_clean_linker_0, # of connection points: 2
#     Edge 28, Type (0, 0), BuildingBlock: XIVTED_clean_linker_0, # of connection points: 2
#     Edge 29, Type (0, 0), BuildingBlock: XIVTED_clean_linker_0, # of connection points: 2
#     Edge 30, Type (0, 0), BuildingBlock: XIVTED_clean_linker_0, # of connection points: 2
#     Edge 31, Type (0, 0), BuildingBlock: XIVTED_clean_linker_0, # of connection points: 2
#     Edge 32, Type (0, 0), BuildingBlock: XIVTED_clean_linker_0, # of connection points: 2
#     Edge 33, Type (0, 0), BuildingBlock: XIVTED_clean_linker_0, # of connection points: 2
#     Edge 34, Type (0, 0), BuildingBlock: XIVTED_clean_linker_0, # of connection points: 2
#     Edge 35, Type (0, 0), BuildingBlock: XIVTED_clean_linker_0, # of connection points: 2
#     Edge 36, Type (0, 0), BuildingBlock: XIVTED_clean_linker_0, # of connection points: 2
#     Edge 37, Type (0, 0), BuildingBlock: XIVTED_clean_linker_0, # of connection points: 2
#     Edge 38, Type (0, 0), BuildingBlock: XIVTED_clean_linker_0, # of connection points: 2
#     Edge 39, Type (0, 0), BuildingBlock: XIVTED_clean_linker_0, # of connection points: 2
#     Edge 40, Type (0, 0), BuildingBlock: XIVTED_clean_linker_0, # of connection points: 2
#     Edge 41, Type (0, 0), BuildingBlock: XIVTED_clean_linker_0, # of connection points: 2
#     Edge 42, Type (0, 0), BuildingBlock: XIVTED_clean_linker_0, # of connection points: 2
#     Edge 43, Type (0, 0), BuildingBlock: XIVTED_clean_linker_0, # of connection points: 2
#     Edge 44, Type (0, 0), BuildingBlock: XIVTED_clean_linker_0, # of connection points: 2
#     Edge 45, Type (0, 0), BuildingBlock: XIVTED_clean_linker_0, # of connection points: 2
#     Edge 46, Type (0, 0), BuildingBlock: XIVTED_clean_linker_0, # of connection points: 2
#     Edge 47, Type (0, 0), BuildingBlock: XIVTED_clean_linker_0, # of connection points: 2
#     Edge 48, Type (0, 0), BuildingBlock: XIVTED_clean_linker_0, # of connection points: 2
#     Edge 49, Type (0, 0), BuildingBlock: XIVTED_clean_linker_0, # of connection points: 2
#     Edge 50, Type (0, 0), BuildingBlock: XIVTED_clean_linker_0, # of connection points: 2
#     Edge 51, Type (0, 0), BuildingBlock: XIVTED_clean_linker_0, # of connection points: 2
#     Edge 52, Type (0, 0), BuildingBlock: XIVTED_clean_linker_0, # of connection points: 2
#     Edge 53, Type (0, 0), BuildingBlock: XIVTED_clean_linker_0, # of connection points: 2
#     Edge 54, Type (0, 0), BuildingBlock: XIVTED_clean_linker_0, # of connection points: 2
#     Edge 55, Type (0, 0), BuildingBlock: XIVTED_clean_linker_0, # of connection points: 2
#     Edge 56, Type (0, 0), BuildingBlock: XIVTED_clean_linker_0, # of connection points: 2
#     Edge 57, Type (0, 0), BuildingBlock: XIVTED_clean_linker_0, # of connection points: 2
#     Edge 58, Type (0, 0), BuildingBlock: XIVTED_clean_linker_0, # of connection points: 2
#     Edge 59, Type (0, 0), BuildingBlock: XIVTED_clean_linker_0, # of connection points: 2
#     Edge 60, Type (0, 0), BuildingBlock: XIVTED_clean_linker_0, # of connection points: 2
#     Edge 61, Type (0, 0), BuildingBlock: XIVTED_clean_linker_0, # of connection points: 2
#     Edge 62, Type (0, 0), BuildingBlock: XIVTED_clean_linker_0, # of connection points: 2
#     Edge 63, Type (0, 0), BuildingBlock: XIVTED_clean_linker_0, # of connection points: 2
# Relax obj value: 0.868
# Max RMSD: 0.196
# Mean RMSD: 0.196
data_MOF--net-whw--node1-PAMTOO_clean_sbu_0--edge1-XIVTED_clean_linker_0
_symmetry_space_group_name_H-M    P1
_symmetry_Int_Tables_number       1
_symmetry_cell_setting            triclinic
loop_
_symmetry_equiv_pos_as_xyz
'x, y, z'
_cell_length_a     47.48188
_cell_length_b     47.631334
_cell_length_c     29.634521
_cell_angle_alpha  90.009836
_cell_angle_beta   89.913151
_cell_angle_gamma 89.895441
loop_
_atom_site_label
_atom_site_type_symbol
_atom_site_fract_x
_atom_site_fract_y
_atom_site_fract_z
_atom_type_partial_charge
Dy0 Dy 0.01468 0.14599 0.2488 0.0
Dy1 Dy 0.07943 0.138 0.22371 0.0
C2 C 0.05733 0.19576 0.22448 0.0
O3 O 0.0102 0.15191 0.17394 0.0
O4 O 0.05657 0.14694 0.15319 0.0
O5 O 0.98027 0.17259 0.2719 0.0
O6 O 0.97301 0.12905 0.25349 0.0
O7 O 0.0646 0.09365 0.22752 0.0
O8 O 0.0176 0.10115 0.22062 0.0
O9 O 0.08209 0.15206 0.29949 0.0
O10 O 0.03563 0.14959 0.31987 0.0
O11 O 0.11958 0.11875 0.23731 0.0
O12 O 0.11517 0.14768 0.18112 0.0
C13 C 0.02936 0.15137 0.14185 0.0
O14 O 0.03218 0.18544 0.21656 0.0
O15 O 0.07481 0.18094 0.24755 0.0
C16 C 0.93884 0.15013 0.29971 0.0
C17 C 0.89141 0.13949 0.354 0.0
C18 C 0.91792 0.12821 0.36541 0.0
C19 C 0.94147 0.13343 0.33836 0.0
C20 C 0.91269 0.16194 0.28879 0.0
C21 C 0.88915 0.15671 0.31569 0.0
C22 C 0.96178 0.15257 0.267 0.0
C23 C 0.03968 0.08449 0.21613 0.0
C24 C 0.0623 0.15478 0.3314 0.0
C25 C 0.14478 0.10833 0.17049 0.0
C26 C 0.16341 0.07094 1.10286 0.0
C27 C 0.14822 0.06089 0.14027 0.0
C28 C 0.13895 0.07943 0.17374 0.0
C29 C 0.16191 0.11796 0.13531 0.0
C30 C 0.17114 0.09949 1.10182 0.0
C31 C 0.13109 0.12886 0.20073 0.0
H32 H 0.9205 0.11538 0.3953 0.0
H33 H 0.96152 0.12396 0.347 0.0
H34 H 0.91028 0.17454 0.25858 0.0
H35 H 0.86906 0.1656 0.3059 0.0
H36 H 0.1422 0.03901 0.14243 0.0
H37 H 0.12613 0.0713 0.20097 0.0
H38 H 0.16681 0.14009 0.13228 0.0
H39 H 0.18246 0.10817 1.07333 0.0
Dy40 Dy 0.1383 0.73485 0.49252 0.0
Dy41 Dy 0.11141 0.79496 0.46836 0.0
C42 C 0.07864 0.74709 0.52203 0.0
O43 O 0.12075 0.72624 0.42096 0.0
O44 O 0.09461 0.76639 0.41031 0.0
O45 O 0.1367 0.68987 0.50159 0.0
O46 O 0.17566 0.71248 0.51273 0.0
O47 O 0.15806 0.79945 0.44841 0.0
O48 O 0.16955 0.75307 0.44451 0.0
O49 O 0.11412 0.79904 0.54567 0.0
O50 O 0.13474 0.75708 0.56413 0.0
O51 O 0.10515 0.83805 0.48642 0.0
O52 O 0.0871 0.82255 0.42446 0.0
C53 C 0.10235 0.74083 0.39628 0.0
O54 O 0.09252 0.73021 0.49587 0.0
O55 O 0.08067 0.77419 0.51529 0.0
C56 C 0.1685 0.6713 0.55455 0.0
C57 C 0.17967 0.63806 0.63073 0.0
C58 C 0.16841 0.66526 0.63564 0.0
C59 C 0.1628 0.68175 0.59778 0.0
C60 C 0.17998 0.64438 0.54942 0.0
C61 C 0.18546 0.6278 0.58725 0.0
C62 C 0.16288 0.68828 0.51449 0.0
C63 C 0.1755 0.77926 0.43566 0.0
C64 C 0.12336 0.78163 0.57733 0.0
C65 C 0.10204 0.87048 0.42671 0.0
C66 C 0.12088 0.91967 0.38294 0.0
C67 C 0.13288 0.91129 0.42404 0.0
C68 C 0.12359 0.88699 0.4457 0.0
C69 C 0.08926 0.87942 0.38662 0.0
C70 C 0.09863 0.90368 0.36485 0.0
C71 C 0.09223 0.84461 0.44929 0.0
H72 H 0.16318 0.6735 0.66868 0.0
H73 H 0.15382 0.70251 0.60219 0.0
H74 H 0.18457 0.63614 0.51611 0.0
H75 H 0.19415 0.60696 0.58254 0.0
H76 H 0.14986 0.92321 0.43905 0.0
H77 H 0.13362 0.88102 0.47706 0.0
H78 H 0.07237 0.86734 0.37163 0.0
H79 H 0.08922 0.90918 0.33278 0.0
Dy80 Dy 0.54003 0.86764 0.73272 0.0
Dy81 Dy 0.48657 0.83413 0.70893 0.0
C82 C 0.54356 0.80596 0.75901 0.0
O83 O 0.55314 0.84828 0.66373 0.0
O84 O 0.51476 0.82033 0.65086 0.0
O85 O 0.58285 0.88198 0.73752 0.0
O86 O 0.54805 0.91015 0.75418 0.0
O87 O 0.47706 0.88062 0.69273 0.0
O88 O 0.52141 0.8875 0.67195 0.0
O89 O 0.47751 0.83504 0.78335 0.0
O90 O 0.51688 0.85916 0.80359 0.0
O91 O 0.44724 0.81417 0.72686 0.0
O92 O 0.45988 0.81642 0.6571 0.0
C93 C 0.53959 0.82985 0.63776 0.0
O94 O 0.55875 0.82824 0.7528 0.0
O95 O 0.51686 0.80417 0.74542 0.0
C96 C 0.59261 0.9192 0.78693 0.0
C97 C 0.63006 0.93775 0.85367 0.0
C98 C 0.60484 0.92412 0.86573 0.0
C99 C 0.58627 0.91477 0.83251 0.0
C100 C 0.61693 0.93406 0.77487 0.0
C101 C 0.6356 0.94323 0.808 0.0
C102 C 0.5754 0.907 0.75115 0.0
C103 C 0.49546 0.89566 0.66992 0.0
C104 C 0.49338 0.84507 0.81567 0.0
C105 C 0.41296 0.82744 0.67359 0.0
C106 C 0.37602 0.86701 0.63516 0.0
C107 C 0.38661 0.87117 0.67889 0.0
C108 C 0.40515 0.85167 0.69779 0.0
C109 C 0.39936 0.82138 0.63292 0.0
C110 C 0.38097 0.84095 0.61386 0.0
C111 C 0.43909 0.81239 0.68509 0.0
H112 H 0.60028 0.91915 0.90065 0.0
H113 H 0.56761 0.90318 0.84228 0.0
H114 H 0.62201 0.93764 0.73967 0.0
H115 H 0.65487 0.95364 0.79788 0.0
H116 H 0.38277 0.89069 0.69665 0.0
H117 H 0.41525 0.85687 0.72945 0.0
H118 H 0.40506 0.80284 0.61374 0.0
H119 H 0.37335 0.83685 0.58009 0.0
Dy120 Dy 0.39238 0.27778 0.97918 0.0
Dy121 Dy 0.42324 0.22321 0.9573 0.0
C122 C 0.45331 0.27665 1.01264 0.0
O123 O 0.41639 0.29204 0.914 0.0
O124 O 0.43991 0.25102 0.8997 0.0
O125 O 0.37924 0.32086 0.9891 0.0
O126 O 0.34879 0.28676 0.99195 0.0
O127 O 0.37542 0.21565 0.94713 0.0
O128 O 0.37267 0.2582 0.91875 0.0
O129 O 0.41928 0.21309 1.03147 0.0
O130 O 0.39624 0.25339 1.05024 0.0
O131 O 0.4473 0.18585 0.97262 0.0
O132 O 0.43379 0.19393 0.90429 0.0
C133 C 0.43411 0.27726 0.88799 0.0
O134 O 0.43127 0.29262 1.00869 0.0
O135 O 0.45473 0.25107 0.99469 0.0
C136 C 0.34028 0.3257 1.03792 0.0
C137 C 0.31557 0.34888 1.1157 0.0
C138 C 0.33172 0.32412 0.11833 0.0
C139 C 0.34402 0.3127 1.07983 0.0
C140 C 0.3237 0.34999 1.03469 0.0
C141 C 0.31148 0.36162 1.07341 0.0
C142 C 0.35318 0.31364 0.99748 0.0
C143 C 0.36093 0.2338 0.92302 0.0
C144 C 0.40857 0.22909 1.0633 0.0
C145 C 0.43284 0.14739 0.92873 0.0
C146 C 0.40382 0.09802 0.90564 0.0
C147 C 0.3927 0.11644 0.93824 0.0
C148 C 0.40704 0.14106 0.94949 0.0
C149 C 0.44528 0.12787 0.89961 0.0
C150 C 0.43095 0.10331 0.88823 0.0
C151 C 0.44466 0.17571 0.93209 0.0
H152 H 0.33595 0.31419 0.15051 0.0
H153 H 0.35679 0.29392 1.08287 0.0
H154 H 0.3205 0.36012 1.00236 0.0
H155 H 0.2993 0.38077 1.07046 0.0
H156 H 0.37203 0.11285 0.9526 0.0
H157 H 0.39714 0.15597 0.97215 0.0
H158 H 0.46516 0.13252 0.88324 0.0
H159 H 0.44008 0.08986 0.86261 0.0
Dy160 Dy 0.01897 0.83888 0.99909 0.0
Dy161 Dy 0.08385 0.84753 1.02429 0.0
C162 C 0.06177 0.78966 1.01462 0.0
O163 O 0.01782 0.82028 1.06938 0.0
O164 O 0.06237 0.83225 1.09296 0.0
O165 O 0.98631 0.82359 0.9544 0.0
O166 O 0.97551 0.84763 1.01393 0.0
O167 O 0.06848 0.89163 1.02728 0.0
O168 O 0.0213 0.88341 1.02904 0.0
O169 O 0.08693 0.83819 0.94711 0.0
O170 O 0.04033 0.83892 0.92764 0.0
O171 O 0.12483 0.86208 1.00486 0.0
O172 O 0.11953 0.84084 1.06894 0.0
C173 C 0.03663 0.82161 1.10212 0.0
O174 O 0.03542 0.79648 1.02158 0.0
O175 O 0.07712 0.80707 0.99256 0.0
C176 C 0.9482 0.85515 0.94963 0.0
C177 C 0.9151 0.88935 0.8932 0.0
C178 C 0.90812 0.86091 0.9002 0.0
C179 C 0.92453 0.844 0.92824 0.0
C180 C 0.95463 0.88375 0.94444 0.0
C181 C 0.93812 0.90075 0.91665 0.0
C182 C 0.96647 0.83679 0.97639 0.0
C183 C 0.04297 0.90016 1.03657 0.0
C184 C 0.06725 0.83619 0.91516 0.0
C185 C 0.14993 0.88036 1.06625 0.0
C186 C 0.16978 0.9264 0.11684 0.0
C187 C 0.15495 0.93085 1.07655 0.0
C188 C 0.145 0.90809 1.05162 0.0
C189 C 0.16665 0.87584 1.10437 0.0
C190 C 0.17648 0.89861 0.12948 0.0
C191 C 0.13598 0.85644 1.04392 0.0
H192 H 0.89095 0.85119 0.88202 0.0
H193 H 0.91927 0.822 0.93202 0.0
H194 H 0.97283 0.89276 0.96097 0.0
H195 H 0.94396 0.92255 0.91228 0.0
H196 H 0.14965 0.95191 1.06562 0.0
H197 H 0.13232 0.91237 1.02205 0.0
H198 H 0.17085 0.85469 1.11611 0.0
H199 H 0.18748 0.89423 0.16069 0.0
Dy200 Dy 0.39913 0.73939 0.22432 0.0
Dy201 Dy 0.43259 0.7932 0.25333 0.0
C202 C 0.46212 0.73646 0.21516 0.0
O203 O 0.41045 0.73326 0.30118 0.0
O204 O 0.44563 0.76556 0.31132 0.0
O205 O 0.39504 0.7007 0.18788 0.0
O206 O 0.36243 0.71322 0.23539 0.0
O207 O 0.38865 0.79463 0.28694 0.0
O208 O 0.36546 0.77138 0.23269 0.0
O209 O 0.43458 0.79901 0.17705 0.0
O210 O 0.40984 0.76058 0.15383 0.0
O211 O 0.43313 0.83759 0.24225 0.0
O212 O 0.46323 0.81888 0.28857 0.0
C213 C 0.43137 0.74378 0.32651 0.0
O214 O 0.44184 0.72344 0.23515 0.0
O215 O 0.46169 0.76418 0.21389 0.0
C216 C 0.34945 0.68319 0.17501 0.0
C217 C 0.32098 0.65106 1.11013 0.0
C218 C 0.33291 0.67714 1.09841 0.0
C219 C 0.3471 0.69309 0.13067 0.0
C220 C 0.33479 0.659 0.18798 0.0
C221 C 0.3205 0.64307 0.15579 0.0
C222 C 0.37064 0.69469 0.20573 0.0
C223 C 0.3645 0.7866 0.26917 0.0
C224 C 0.42518 0.78343 0.14354 0.0
C225 C 0.44533 0.86485 0.30533 0.0
C226 C 0.42607 0.9043 0.36932 0.0
C227 C 0.4167 0.90567 0.32455 0.0
C228 C 0.42645 0.88632 0.29276 0.0
C229 C 0.45615 0.86469 0.34937 0.0
C230 C 0.44662 0.88426 0.38105 0.0
C231 C 0.45229 0.84222 0.27292 0.0
H232 H 0.33387 0.68393 1.06357 0.0
H233 H 0.35817 0.71186 0.12016 0.0
H234 H 0.33623 0.65123 0.22227 0.0
H235 H 0.31113 0.62333 0.16595 0.0
H236 H 0.40101 0.92099 0.31459 0.0
H237 H 0.41821 0.88746 0.25874 0.0
H238 H 0.47104 0.84874 0.35992 0.0
H239 H 0.45402 0.88251 0.41551 0.0
Dy240 Dy 0.49918 0.14436 0.47962 0.0
Dy241 Dy 0.43357 0.14227 0.5068 0.0
C242 C 0.46106 0.1975 0.50549 0.0
O243 O 0.50288 0.1473 0.55595 0.0
O244 O 0.45643 0.15229 0.57623 0.0
O245 O 0.53323 0.16512 0.44415 0.0
O246 O 0.54186 0.13035 0.48919 0.0
O247 O 0.4474 0.09813 0.51876 0.0
O248 O 0.4916 0.09716 0.48803 0.0
O249 O 0.43173 0.15252 0.42936 0.0
O250 O 0.47842 0.15207 0.40945 0.0
O251 O 0.39274 0.12494 0.49278 0.0
O252 O 0.39772 0.15555 0.5467 0.0
C253 C 0.48387 0.15171 0.58777 0.0
O254 O 0.48529 0.18497 0.51263 0.0
O255 O 0.4424 0.18439 0.48221 0.0
C256 C 0.57504 0.13853 0.43231 0.0
C257 C 0.61976 0.11848 0.37885 0.0
C258 C 0.59173 0.11674 0.36344 0.0
C259 C 0.5695 0.12663 0.39006 0.0
C260 C 0.6028 0.13989 0.44813 0.0
C261 C 0.625 0.12996 0.42168 0.0
C262 C 0.55242 0.14877 0.46162 0.0
C263 C 0.47056 0.08447 0.50912 0.0
C264 C 0.45161 0.15623 0.39781 0.0
C265 C 0.36674 0.11754 0.55977 0.0
C266 C 0.34739 0.08187 0.62917 0.0
C267 C 0.36018 0.07057 0.59041 0.0
C268 C 0.36987 0.08822 0.55614 0.0
C269 C 0.3518 0.12863 0.59647 0.0
C270 C 0.34226 0.11101 0.63089 0.0
C271 C 0.38131 0.13668 0.52827 0.0
H272 H 0.58702 0.10846 0.33027 0.0
H273 H 0.54811 0.12521 0.37759 0.0
H274 H 0.60732 0.14872 0.48104 0.0
H275 H 0.64625 0.13137 0.43467 0.0
H276 H 0.36411 0.04823 0.58767 0.0
H277 H 0.38106 0.07891 0.52799 0.0
H278 H 0.34899 0.15111 0.59989 0.0
H279 H 0.33281 0.1206 0.66039 0.0
Dy280 Dy 0.12573 0.27624 0.74892 0.0
Dy281 Dy 0.0944 0.22214 0.77104 0.0
C282 C 0.0647 0.27624 0.71638 0.0
O283 O 0.10203 0.29084 0.81421 0.0
O284 O 0.07807 0.2502 0.82866 0.0
O285 O 0.13938 0.31908 0.73825 0.0
O286 O 0.16946 0.2845 0.73653 0.0
O287 O 0.14216 0.2141 0.78133 0.0
O288 O 0.14519 0.25667 0.80958 0.0
O289 O 0.09739 0.21216 0.69659 0.0
O290 O 0.12139 0.25185 0.67797 0.0
O291 O 0.0709 0.18447 0.75585 0.0
O292 O 0.0826 0.19378 0.82462 0.0
C293 C 0.08419 0.27635 0.84032 0.0
O294 O 0.08684 0.29196 0.72059 0.0
O295 O 0.06317 0.25052 0.73379 0.0
C296 C 0.17886 0.32319 0.69015 0.0
C297 C 0.2039 0.34644 0.61275 0.0
C298 C 0.19166 0.31958 0.61125 0.0
C299 C 0.17913 0.30812 0.64954 0.0
C300 C 0.19182 0.34957 0.69234 0.0
C301 C 0.20417 0.36121 0.6538 0.0
C302 C 0.16539 0.31139 0.73035 0.0
C303 C 0.15677 0.23215 0.80541 0.0
C304 C 0.10845 0.22793 0.66481 0.0
C305 C 0.08305 0.14659 0.80304 0.0
C306 C 0.10903 0.09586 0.82874 0.0
C307 C 0.12134 0.11303 0.79548 0.0
C308 C 0.10854 0.13831 0.78296 0.0
C309 C 0.06957 0.12856 0.83332 0.0
C310 C 0.08239 0.10341 0.84607 0.0
C311 C 0.07221 0.17519 0.79707 0.0
H312 H 0.19044 0.30797 0.57988 0.0
H313 H 0.16918 0.28772 0.64718 0.0
H314 H 0.19193 0.36135 0.72362 0.0
H315 H 0.2133 0.382 0.65577 0.0
H316 H 0.14163 0.10774 0.78103 0.0
H317 H 0.11925 0.15206 0.75942 0.0
H318 H 0.04994 0.13472 0.84922 0.0
H319 H 0.07238 0.09111 0.87226 0.0
Dy320 Dy 0.89718 0.21482 0.74585 0.0
Dy321 Dy 0.92423 0.27245 0.77095 0.0
C322 C 0.95918 0.22108 0.72236 0.0
O323 O 0.91506 0.20939 0.81941 0.0
O324 O 0.948 0.24402 0.81947 0.0
O325 O 0.893 0.17635 0.70843 0.0
O326 O 0.86506 0.18482 0.76465 0.0
O327 O 0.87966 0.27277 0.80311 0.0
O328 O 0.85954 0.24243 0.7546 0.0
O329 O 0.91549 0.28121 0.69655 0.0
O330 O 0.90275 0.23701 0.67465 0.0
O331 O 0.93787 0.31384 0.75131 0.0
O332 O 0.94185 0.30081 0.82068 0.0
C333 C 0.93777 0.22113 0.83833 0.0
O334 O 0.94157 0.20326 0.73933 0.0
O335 O 0.95538 0.24839 0.72748 0.0
C336 C 0.84687 0.16011 0.70248 0.0
C337 C 0.81219 0.14114 0.63219 0.0
C338 C 0.81824 0.16997 0.63692 0.0
C339 C 0.83548 0.17934 0.6718 0.0
C340 C 0.83817 0.13206 0.70142 0.0
C341 C 0.82063 0.12266 0.66673 0.0
C342 C 0.87071 0.16833 0.7307 0.0
C343 C 0.85671 0.26033 0.78765 0.0
C344 C 0.91044 0.2633 0.66347 0.0
C345 C 0.92899 0.34784 0.80725 0.0
C346 C 0.8981 0.39275 0.84484 0.0
C347 C 0.8889 0.37966 0.80498 0.0
C348 C 0.90408 0.35728 0.78655 0.0
C349 C 0.93937 0.3622 0.84488 0.0
C350 C 0.92408 0.3844 0.86359 0.0
C351 C 0.94289 0.32176 0.79248 0.0
H352 H 0.81234 0.18496 0.61115 0.0
H353 H 0.84187 0.20118 0.67252 0.0
H354 H 0.84655 0.11704 0.72538 0.0
H355 H 0.81579 0.10048 0.66478 0.0
H356 H 0.86922 0.38575 0.78934 0.0
H357 H 0.89562 0.3466 0.75729 0.0
H358 H 0.95855 0.35527 0.86129 0.0
H359 H 0.93172 0.39358 0.89466 0.0
Dy360 Dy 0.64351 0.76375 0.22258 0.0
Dy361 Dy 0.61314 0.7089 0.24876 0.0
C362 C 0.58098 0.7638 0.19871 0.0
O363 O 0.62311 0.7767 0.29092 0.0
O364 O 0.60326 0.73476 0.31139 0.0
O365 O 0.65549 0.80722 0.21891 0.0
O366 O 0.68498 0.77445 0.19821 0.0
O367 O 0.66067 0.70121 0.25905 0.0
O368 O 0.66633 0.74531 0.28081 0.0
O369 O 0.60641 0.70391 0.17431 0.0
O370 O 0.63556 0.73941 0.15272 0.0
O371 O 0.6039 0.66583 0.23257 0.0
O372 O 0.59058 0.68284 0.29676 0.0
C373 C 0.60893 0.76126 0.32086 0.0
O374 O 0.60322 0.77952 0.20043 0.0
O375 O 0.58034 0.73771 0.21522 0.0
C376 C 0.69133 0.82024 0.16842 0.0
C377 C 0.70756 0.86014 1.10383 0.0
C378 C 0.69572 0.83437 1.09034 0.0
C379 C 0.68751 0.81457 0.12249 0.0
C380 C 0.70435 0.84525 0.18187 0.0
C381 C 0.71235 0.86514 0.14983 0.0
C382 C 0.68057 0.80142 0.20329 0.0
C383 C 0.6761 0.71994 0.28015 0.0
C384 C 0.61848 0.71783 0.14149 0.0
C385 C 0.61001 0.63721 0.29637 0.0
C386 C 0.64306 0.60152 0.35073 0.0
C387 C 0.65358 0.61148 0.30945 0.0
C388 C 0.6373 0.62927 0.28266 0.0
C389 C 0.59858 0.62541 0.33555 0.0
C390 C 0.61493 0.60772 0.36254 0.0
C391 C 0.59502 0.66013 0.2731 0.0
H392 H 0.69129 0.83019 1.05513 0.0
H393 H 0.67735 0.79538 1.11165 0.0
H394 H 0.70746 0.84982 0.21734 0.0
H395 H 0.7214 0.8848 0.16104 0.0
H396 H 0.675 0.60689 0.29915 0.0
H397 H 0.64675 0.63799 0.25248 0.0
H398 H 0.57763 0.63124 0.34675 0.0
H399 H 0.60619 0.60078 0.3944 0.0
Dy400 Dy 0.61914 0.2142 0.9827 0.0
Dy401 Dy 0.5929 0.27263 0.95692 0.0
C402 C 0.55717 0.2215 1.00333 0.0
O403 O 0.60167 0.20855 0.90895 0.0
O404 O 0.56986 0.24442 0.90692 0.0
O405 O 0.62031 0.17611 1.02152 0.0
O406 O 0.65053 0.18245 0.96772 0.0
O407 O 0.63811 0.27384 0.92727 0.0
O408 O 0.65809 0.23875 0.96801 0.0
O409 O 0.60135 0.2816 1.03132 0.0
O410 O 0.61434 0.23745 1.05335 0.0
O411 O 0.57759 0.31356 0.97638 0.0
O412 O 0.57684 0.30134 0.90635 0.0
C413 C 0.57967 0.22101 0.88888 0.0
O414 O 0.57429 0.20393 0.98444 0.0
O415 O 0.56168 0.24877 1.00027 0.0
C416 C 0.66505 0.1565 1.03133 0.0
C417 C 0.69686 0.13242 1.10128 0.0
C418 C 0.68957 0.16114 1.10242 0.0
C419 C 0.67382 0.17306 1.06768 0.0
C420 C 0.67487 0.12888 1.02735 0.0
C421 C 0.69094 0.11696 1.0619 0.0
C422 C 0.64278 0.16658 1.00127 0.0
C423 C 0.6607 0.25913 0.93881 0.0
C424 C 0.60659 0.26377 1.06445 0.0
C425 C 0.58913 0.348 0.92263 0.0
C426 C 0.62231 0.39205 0.88803 0.0
C427 C 0.6307 0.3776 0.92715 0.0
C428 C 0.61438 0.35562 0.94407 0.0
C429 C 0.57954 0.36381 0.88596 0.0
C430 C 0.59595 0.38562 0.86875 0.0
C431 C 0.57443 0.32196 0.93498 0.0
H432 H 0.69347 0.17386 0.13201 0.0
H433 H 0.6666 0.19457 1.07097 0.0
H434 H 0.66855 0.11596 0.99903 0.0
H435 H 0.69681 0.09504 1.05932 0.0
H436 H 0.65064 0.38221 0.94318 0.0
H437 H 0.62225 0.34372 0.97255 0.0
H438 H 0.56015 0.35821 0.86895 0.0
H439 H 0.58889 0.39589 0.83819 0.0
Dy440 Dy 0.91474 0.74599 0.49184 0.0
Dy441 Dy 0.92583 0.68294 0.46469 0.0
C442 C 0.97045 0.71522 0.52673 0.0
O443 O 0.94423 0.75307 0.4319 0.0
O444 O 0.94215 0.70869 0.40262 0.0
O445 O 0.92207 0.79075 0.49697 0.0
O446 O 0.88068 0.77302 0.51152 0.0
O447 O 0.87873 0.68829 0.45706 0.0
O448 O 0.88281 0.73365 0.43878 0.0
O449 O 0.92532 0.67858 0.54211 0.0
O450 O 0.91162 0.72307 0.56215 0.0
O451 O 0.9232 0.63857 0.47896 0.0
O452 O 0.93773 0.65241 0.41376 0.0
C453 C 0.94994 0.73553 0.39849 0.0
O454 O 0.95409 0.73742 0.52875 0.0
O455 O 0.96637 0.6947 0.49768 0.0
C456 C 0.89123 0.81726 0.5439 0.0
C457 C 0.87831 0.85999 0.60613 0.0
C458 C 0.87309 0.83167 0.61677 0.0
C459 C 0.87954 0.81047 0.58596 0.0
C460 C 0.89639 0.84545 0.53309 0.0
C461 C 0.89012 0.86668 0.56404 0.0
C462 C 0.8961 0.79572 0.50937 0.0
C463 C 0.86793 0.71057 0.43806 0.0
C464 C 0.91932 0.69702 0.57437 0.0
C465 C 0.90571 0.61473 0.41518 0.0
C466 C 0.86012 0.59652 0.36192 0.0
C467 C 0.8557 0.6048 0.40686 0.0
C468 C 0.87824 0.614 0.43317 0.0
C469 C 0.91059 0.60335 0.37231 0.0
C470 C 0.88802 0.5943 0.34587 0.0
C471 C 0.92794 0.63144 0.43727 0.0
H472 H 0.86469 0.82581 0.64943 0.0
H473 H 0.87534 0.78884 0.595 0.0
H474 H 0.90511 0.85107 0.5005 0.0
H475 H 0.89448 0.88829 0.55509 0.0
H476 H 0.83457 0.60636 0.42048 0.0
H477 H 0.87374 0.62247 0.46633 0.0
H478 H 0.93155 0.60362 0.35779 0.0
H479 H 0.89232 0.58826 0.31132 0.0
Dy480 Dy 0.50179 0.63167 0.73435 0.0
Dy481 Dy 0.55568 0.66537 0.70935 0.0
C482 C 0.49953 0.69364 0.7613 0.0
O483 O 0.48848 0.65139 0.66572 0.0
O484 O 0.52751 0.67802 0.65086 0.0
O485 O 0.45842 0.61886 0.73492 0.0
O486 O 0.49071 0.59109 0.76195 0.0
O487 O 0.56615 0.61869 0.69741 0.0
O488 O 0.52201 0.60865 0.67761 0.0
O489 O 0.56323 0.66729 0.7837 0.0
O490 O 0.52593 0.64001 0.80446 0.0
O491 O 0.59598 0.68348 0.7261 0.0
O492 O 0.58131 0.68457 0.65732 0.0
C493 C 0.50222 0.66926 0.63898 0.0
O494 O 0.48425 0.67144 0.7554 0.0
O495 O 0.52599 0.69555 0.7466 0.0
C496 C 0.4438 0.58668 0.78987 0.0
C497 C 0.40215 0.57595 0.85504 0.0
C498 C 0.42951 0.58378 0.86825 0.0
C499 C 0.45019 0.58929 0.83583 0.0
C500 C 0.41693 0.57766 0.77675 0.0
C501 C 0.3962 0.57245 0.80905 0.0
C502 C 0.46379 0.59498 0.75461 0.0
C503 C 0.54846 0.60195 0.67644 0.0
C504 C 0.54847 0.65577 0.81608 0.0
C505 C 0.62887 0.67351 0.66895 0.0
C506 C 0.67023 0.64028 0.62645 0.0
C507 C 0.65776 0.63132 0.66697 0.0
C508 C 0.6371 0.64769 0.68785 0.0
C509 C 0.64319 0.68376 0.63114 0.0
C510 C 0.66373 0.66732 0.61005 0.0
C511 C 0.60285 0.68742 0.68411 0.0
H512 H 0.4345 0.58707 0.90351 0.0
H513 H 0.47076 0.59644 0.84658 0.0
H514 H 0.4117 0.57555 0.74132 0.0
H515 H 0.37531 0.56644 0.79807 0.0
H516 H 0.66251 0.6108 0.68079 0.0
H517 H 0.62633 0.63927 0.71711 0.0
H518 H 0.63707 0.70356 0.616 0.0
H519 H 0.67257 0.67487 0.57862 0.0
Dy520 Dy 0.99844 0.36841 0.25463 0.0
Dy521 Dy 0.93969 0.3434 0.22172 0.0
C522 C 0.99184 0.30525 0.23756 0.0
O523 O 0.00545 0.35875 0.17785 0.0
O524 O 0.96443 0.33741 0.15535 0.0
O525 O 0.0432 0.36895 0.24263 0.0
O526 O 0.02478 0.3965 0.29312 0.0
O527 O 0.94025 0.38871 0.19652 0.0
O528 O 0.9736 0.40761 0.24198 0.0
O529 O 0.94042 0.3321 0.29846 0.0
O530 O 0.97926 0.35554 0.32443 0.0
O531 O 0.89619 0.34463 0.24239 0.0
O532 O 0.90785 0.32298 0.18093 0.0
C533 C 0.99061 0.34551 0.14593 0.0
O534 O 0.99615 0.32315 0.26997 0.0
O535 O 0.96758 0.30604 0.21669 0.0
C536 C 0.07395 0.38591 0.29973 0.0
C537 C 0.126 0.38824 0.34512 0.0
C538 C 0.10146 0.39915 0.36525 0.0
C539 C 0.07573 0.39809 0.34274 0.0
C540 C 0.09841 0.37481 0.27968 0.0
C541 C 0.12418 0.37584 0.30225 0.0
C542 C 0.04784 0.38807 0.27317 0.0
C543 C 0.95391 0.41081 0.21165 0.0
C544 C 0.95664 0.33967 0.33311 0.0
C545 C 0.86727 0.35163 0.17888 0.0
C546 C 0.8398 0.38793 0.11799 0.0
C547 C 0.8505 0.39832 0.15883 0.0
C548 C 0.86423 0.3804 0.18888 0.0
C549 C 0.85411 0.34076 0.14044 0.0
C550 C 0.8405 0.35872 1.11023 0.0
C551 C 0.88736 0.33408 0.20437 0.0
H552 H 0.10204 0.40823 0.39874 0.0
H553 H 0.05735 0.40719 0.35882 0.0
H554 H 0.09776 0.36585 0.24609 0.0
H555 H 0.14274 0.36729 0.28593 0.0
H556 H 0.84998 0.4206 0.16614 0.0
H557 H 0.87402 0.3895 0.21844 0.0
H558 H 0.85613 0.3187 0.13208 0.0
H559 H 0.83278 0.34991 1.07893 0.0
Dy560 Dy 0.51943 0.36814 0.47468 0.0
Dy561 Dy 0.57944 0.34554 0.50676 0.0
C562 C 0.52905 0.30528 0.49137 0.0
O563 O 0.51293 0.35859 0.55152 0.0
O564 O 0.55516 0.33932 0.57358 0.0
O565 O 0.47437 0.36639 0.48455 0.0
O566 O 0.49265 0.39692 0.43853 0.0
O567 O 0.57682 0.39043 0.53386 0.0
O568 O 0.54318 0.40785 0.4875 0.0
O569 O 0.5787 0.33441 0.42975 0.0
O570 O 0.53846 0.35584 0.40448 0.0
O571 O 0.62281 0.35022 0.48704 0.0
O572 O 0.61225 0.32474 0.54516 0.0
C573 C 0.52865 0.34632 0.58337 0.0
O574 O 0.52386 0.32302 0.45906 0.0
O575 O 0.55339 0.30698 0.51183 0.0
C576 C 0.44398 0.38572 0.42876 0.0
C577 C 0.39307 0.39087 0.38089 0.0
C578 C 0.41894 0.39695 0.35986 0.0
C579 C 0.44416 0.39445 0.38357 0.0
C580 C 0.41823 0.37913 0.44958 0.0
C581 C 0.39298 0.38154 0.4258 0.0
C582 C 0.46962 0.38688 0.45643 0.0
C583 C 0.56214 0.41191 0.51877 0.0
C584 C 0.56178 0.341 0.39538 0.0
C585 C 0.65208 0.35427 0.55092 0.0
C586 C 0.68048 0.38803 0.61436 0.0
C587 C 0.6704 0.39976 0.57403 0.0
C588 C 0.65623 0.3831 0.54271 0.0
C589 C 0.66452 0.34203 0.58898 0.0
C590 C 0.67855 0.35873 0.62046 0.0
C591 C 0.63221 0.3378 0.52327 0.0
H592 H 0.41974 0.40349 0.32487 0.0
H593 H 0.46367 0.39986 0.36671 0.0
H594 H 0.41757 0.37279 0.48469 0.0
H595 H 0.37338 0.37665 0.44278 0.0
H596 H 0.67189 0.42213 0.56796 0.0
H597 H 0.64714 0.39322 0.51341 0.0
H598 H 0.66176 0.31987 0.59591 0.0
H599 H 0.68576 0.3489 0.6513 0.0
Dy600 Dy 0.00672 0.61714 1.00004 0.0
Dy601 Dy 0.96499 0.66397 1.02137 0.0
C602 C 0.02795 0.67514 0.98121 0.0
O603 O 0.01682 0.63556 1.07431 0.0
O604 O 0.99152 0.67622 1.0803 0.0
O605 O 0.04501 0.59751 1.02308 0.0
O606 O 0.02095 0.57811 0.9699 0.0
O607 O 0.95374 0.62438 1.06342 0.0
O608 O 0.96764 0.59333 1.0117 0.0
O609 O 0.96341 0.66508 0.94395 0.0
O610 O 0.9907 0.62723 0.9267 0.0
O611 O 0.92438 0.67751 0.99792 0.0
O612 O 0.94361 0.69865 1.05449 0.0
C613 C 0.01096 0.65961 1.09699 0.0
O614 O 0.02509 0.65127 0.96128 0.0
O615 O 0.00762 0.6844 1.00795 0.0
C616 C 0.07031 0.57509 0.96553 0.0
C617 C 0.11786 0.56996 0.90944 0.0
C618 C 0.1089 0.59649 0.92463 0.0
C619 C 0.08527 0.59903 0.95215 0.0
C620 C 0.07962 0.54848 0.9518 0.0
C621 C 0.10321 0.54591 0.92373 0.0
C622 C 0.0445 0.57804 0.99234 0.0
C623 C 0.95406 0.59822 1.04868 0.0
C624 C 0.97384 0.6481 0.9129 0.0
C625 C 0.89372 0.69233 1.0557 0.0
C626 C 0.84582 0.67749 1.10662 0.0
C627 C 0.84691 0.67167 1.06026 0.0
C628 C 0.87053 0.67923 1.03494 0.0
C629 C 0.89149 0.70043 1.10111 0.0
C630 C 0.86774 0.6931 0.12632 0.0
C631 C 0.92066 0.69525 1.0309 0.0
H632 H 0.11924 0.61549 0.91332 0.0
H633 H 0.07826 0.6198 0.96195 0.0
H634 H 0.06825 0.52979 0.96186 0.0
H635 H 0.10961 0.52524 0.91234 0.0
H636 H 0.83021 0.65987 1.04418 0.0
H637 H 0.87126 0.67335 0.99964 0.0
H638 H 0.90873 0.711 0.11788 0.0
H639 H 0.86764 0.69771 0.16212 0.0
H640 H 0.20777 0.06882 1.04272 0.0
H641 H 0.09109 0.04509 0.86344 0.0
H642 H 0.12529 0.03396 1.06705 0.0
H643 H 0.16549 0.09622 0.84823 0.0
H644 H 0.11403 0.02022 0.92545 0.0
H645 H 0.20302 0.057 0.96291 0.0
C646 C 0.18903 0.0579 1.03161 0.0
C647 C 0.16628 0.05377 1.06119 0.0
C648 C 0.12568 0.03624 0.90745 0.0
C649 C 0.16069 0.04035 0.97011 0.0
C650 C 0.11254 0.05056 0.87216 0.0
C651 C 0.12579 0.07377 0.85204 0.0
C652 C 0.15211 0.04537 0.92275 0.0
C653 C 0.15403 0.07901 0.86337 0.0
C654 C 0.18637 0.05107 0.98602 0.0
C655 C 0.14308 0.0384 1.04534 0.0
N656 N 0.16593 0.06551 0.89887 0.0
N657 N 0.14048 0.03306 1.00055 0.0
H658 H 0.17697 0.93173 0.37249 0.0
H659 H 0.13273 0.96921 0.13575 0.0
H660 H 0.09451 0.95984 0.33114 0.0
H661 H 0.21393 0.93658 0.17502 0.0
H662 H 0.12798 0.9909 0.20932 0.0
H663 H 0.19756 0.95738 0.30984 0.0
C664 C 0.16318 0.94407 0.35121 0.0
C665 C 0.13378 0.94245 0.35571 0.0
C666 C 0.14731 0.97978 0.2015 0.0
C667 C 0.15727 0.97102 0.28281 0.0
C668 C 0.15018 0.96745 0.15907 0.0
C669 C 0.17301 0.94941 0.15026 0.0
C670 C 0.16691 0.97316 0.23535 0.0
C671 C 0.19514 0.94884 0.18154 0.0
C672 C 0.17502 0.95872 0.31517 0.0
C673 C 0.11718 0.95931 0.32744 0.0
N674 N 0.19109 0.95956 0.22348 0.0
N675 N 0.12907 0.97219 0.29129 0.0
H676 H 0.44916 0.93355 0.43976 0.0
H677 H 0.39604 0.92116 0.63762 0.0
H678 H 0.36945 0.91033 0.38136 0.0
H679 H 0.33562 0.86932 0.56808 0.0
H680 H 0.3989 0.95132 0.57197 0.0
H681 H 0.42545 0.94422 0.51024 0.0
C682 C 0.42645 0.93168 0.44142 0.0
C683 C 0.41138 0.92015 0.40532 0.0
C684 C 0.3847 0.93358 0.57114 0.0
C685 C 0.38376 0.93196 0.48622 0.0
C686 C 0.38261 0.91647 0.60916 0.0
C687 C 0.36702 0.89139 0.60725 0.0
C688 C 0.3717 0.925 0.53093 0.0
C689 C 0.34932 0.88743 0.56995 0.0
C690 C 0.41268 0.938 0.48176 0.0
C691 C 0.38194 0.91869 0.40877 0.0
N692 N 0.35295 0.9034 0.53247 0.0
N693 N 0.3692 0.92357 0.44905 0.0
H694 H 0.41669 0.04494 0.87389 0.0
H695 H 0.38311 0.04118 0.66076 0.0
H696 H 0.34844 0.10462 0.88271 0.0
H697 H 0.30535 0.0836 0.69358 0.0
H698 H 0.38766 0.02682 0.73818 0.0
H699 H 0.39264 0.022 0.81137 0.0
C700 C 0.39636 0.05287 0.86327 0.0
C701 C 0.38532 0.07763 0.88206 0.0
C702 C 0.36899 0.03841 0.72885 0.0
C703 C 0.35832 0.05246 0.80904 0.0
C704 C 0.36629 0.04661 0.68391 0.0
C705 C 0.34442 0.06476 0.67087 0.0
C706 C 0.34993 0.0489 0.76115 0.0
C707 C 0.32329 0.07072 0.70261 0.0
C708 C 0.38271 0.03995 0.82709 0.0
C709 C 0.3583 0.08611 0.86851 0.0
N710 N 0.32702 0.06358 0.74656 0.0
N711 N 0.34616 0.0741 0.83193 0.0
H712 H 0.95413 0.71232 0.31079 0.0
H713 H 0.05248 0.8334 0.19369 0.0
H714 H 0.98067 0.78536 0.38464 0.0
H715 H 0.99909 0.77807 0.11749 0.0
H716 H 0.03315 0.81273 0.26428 0.0
H717 H 0.97631 0.73199 0.24222 0.0
C718 C 0.96469 0.73239 0.31315 0.0
C719 C 0.96493 0.74683 0.35501 0.0
C720 C 0.02574 0.80494 0.2321 0.0
C721 C 0.99156 0.77003 0.27418 0.0
C722 C 0.03706 0.81675 0.19127 0.0
C723 C 0.0278 0.80792 0.14805 0.0
C724 C 0.00511 0.78335 0.23096 0.0
C725 C 0.00726 0.78614 0.14899 0.0
C726 C 0.97746 0.7438 0.27338 0.0
C727 C 0.97938 0.77303 0.35405 0.0
N728 N 0.99706 0.77483 0.18873 0.0
N729 N 0.99194 0.78342 0.31522 0.0
H730 H 0.99066 0.23362 0.87493 0.0
H731 H 0.97573 0.14436 1.1074 0.0
H732 H 0.91923 0.18103 0.90315 0.0
H733 H 0.05606 0.17609 1.06372 0.0
H734 H 0.95488 0.15956 1.03587 0.0
H735 H 0.01382 0.21584 0.94372 0.0
C736 C 0.97959 0.21832 0.89528 0.0
C737 C 0.95242 0.20915 0.88161 0.0
C738 C 0.97711 0.16319 1.04139 0.0
C739 C 0.97968 0.18832 0.96353 0.0
C740 C 0.98936 0.15433 1.08287 0.0
C741 C 0.01828 0.15842 1.09332 0.0
C742 C 0.99322 0.17725 1.00838 0.0
C743 C 0.03393 0.17185 1.05849 0.0
C744 C 0.99312 0.20802 0.93508 0.0
C745 C 0.93997 0.18906 0.9109 0.0
N746 N 0.02131 0.18088 1.01865 0.0
N747 N 0.95336 0.17977 0.94976 0.0
H748 H 0.59787 0.17954 0.8263 0.0
H749 H 0.45796 0.17856 0.66402 0.0
H750 H 0.52752 0.23464 0.84983 0.0
H751 H 0.5378 0.14402 0.62305 0.0
H752 H 0.48018 0.19471 0.73515 0.0
H753 H 0.57443 0.16243 0.75705 0.0
C754 C 0.57748 0.1881 0.81747 0.0
C755 C 0.56521 0.20899 0.84543 0.0
C756 C 0.49289 0.1834 0.71081 0.0
C757 C 0.53715 0.18855 0.76387 0.0
C758 C 0.47997 0.17385 0.66974 0.0
C759 C 0.4955 0.1595 0.63579 0.0
C760 C 0.52184 0.17832 0.71992 0.0
C761 C 0.52434 0.15481 0.64693 0.0
C762 C 0.56393 0.17822 0.77729 0.0
C763 C 0.53841 0.21875 0.83038 0.0
N764 N 0.53614 0.16386 0.68704 0.0
N765 N 0.52556 0.20855 0.79171 0.0
H766 H 0.52215 0.78511 0.58437 0.0
H767 H 0.62318 0.8118 0.36593 0.0
H768 H 0.58392 0.85115 0.58319 0.0
H769 H 0.57222 0.738 0.38404 0.0
H770 H 0.60799 0.82838 0.44142 0.0
H771 H 0.53878 0.76979 0.50993 0.0
C772 C 0.53932 0.79653 0.56885 0.0
C773 C 0.55145 0.81967 0.59169 0.0
C774 C 0.60006 0.80856 0.42894 0.0
C775 C 0.57088 0.80186 0.50321 0.0
C776 C 0.60872 0.79901 0.38528 0.0
C777 C 0.59922 0.77315 0.36717 0.0
C778 C 0.58125 0.79254 0.45569 0.0
C779 C 0.58047 0.75794 0.39538 0.0
C780 C 0.54889 0.78761 0.5257 0.0
C781 C 0.57373 0.83315 0.56813 0.0
N782 N 0.57223 0.76776 0.43717 0.0
N783 N 0.58244 0.82426 0.5258 0.0
H784 H 0.69719 0.61773 0.36914 0.0
H785 H 0.65699 0.58493 0.61278 0.0
H786 H 0.63335 0.55902 0.41193 0.0
H787 H 0.71578 0.64867 0.57007 0.0
H788 H 0.66645 0.55905 0.544 0.0
H789 H 0.7209 0.61166 0.44092 0.0
C790 C 0.68863 0.60268 0.39285 0.0
C791 C 0.66244 0.58982 0.38527 0.0
C792 C 0.67803 0.57824 0.55021 0.0
C793 C 0.6891 0.5837 0.46837 0.0
C794 C 0.6728 0.59305 0.5899 0.0
C795 C 0.68456 0.61983 0.59622 0.0
C796 C 0.69452 0.59066 0.51632 0.0
C797 C 0.70515 0.62879 0.56545 0.0
C798 C 0.7022 0.59937 0.43418 0.0
C799 C 0.65279 0.57037 0.41726 0.0
N800 N 0.70877 0.61473 0.526 0.0
N801 N 0.66563 0.56857 0.45806 0.0
H802 H 0.67914 0.38343 0.87805 0.0
H803 H 0.65503 0.43733 0.63949 0.0
H804 H 0.61259 0.44008 0.83821 0.0
H805 H 0.72127 0.38038 0.67947 0.0
H806 H 0.65358 0.45585 0.71562 0.0
H807 H 0.70739 0.39989 0.81533 0.0
C808 C 0.67073 0.40011 0.85721 0.0
C809 C 0.64277 0.40937 0.86221 0.0
C810 C 0.66908 0.4399 0.70757 0.0
C811 C 0.6748 0.42741 0.78888 0.0
C812 C 0.6701 0.42937 0.66372 0.0
C813 C 0.68741 0.40624 0.65352 0.0
C814 C 0.68491 0.42672 0.74152 0.0
C815 C 0.70661 0.39726 0.68646 0.0
C816 C 0.68694 0.4094 0.82094 0.0
C817 C 0.63348 0.43128 0.83423 0.0
N818 N 0.70421 0.40687 0.72944 0.0
N819 N 0.64907 0.43889 0.79779 0.0
H820 H 0.86773 0.43623 1.09527 0.0
H821 H 0.84084 0.38764 0.8545 0.0
H822 H 0.7986 0.38381 1.0528 0.0
H823 H 0.91071 0.4391 0.89697 0.0
H824 H 0.81353 0.40492 0.91781 0.0
H825 H 0.87028 0.45589 1.01996 0.0
C826 C 0.85227 0.42956 1.0707 0.0
C827 C 0.83375 0.40726 1.07987 0.0
C828 C 0.83456 0.41313 0.91268 0.0
C829 C 0.83746 0.42901 0.9928 0.0
C830 C 0.85023 0.40337 0.87609 0.0
C831 C 0.87872 0.41085 0.87157 0.0
C832 C 0.84772 0.42979 0.94553 0.0
C833 C 0.88931 0.43162 0.90052 0.0
C834 C 0.85392 0.44073 1.02732 0.0
C835 C 0.81412 0.39997 1.04655 0.0
N836 N 0.87414 0.43966 0.9372 0.0
N837 N 0.8171 0.41012 1.00401 0.0
H838 H 0.851 0.56204 0.28846 0.0
H839 H 0.81507 0.69875 0.17754 0.0
H840 H 0.81526 0.63265 0.35947 0.0
H841 H 0.83098 0.6223 1.10377 0.0
H842 H 0.79732 0.67097 0.24057 0.0
H843 H 0.82631 0.57693 0.22051 0.0
C844 C 0.83725 0.58018 0.2902 0.0
C845 C 0.83654 0.59705 0.329 0.0
C846 C 0.80379 0.66019 0.21007 0.0
C847 C 0.80881 0.61465 0.25122 0.0
C848 C 0.81394 0.67613 0.17408 0.0
C849 C 0.82548 0.66275 0.13618 0.0
C850 C 0.80623 0.63074 0.20856 0.0
C851 C 0.82286 0.63347 0.13284 0.0
C852 C 0.82307 0.58873 0.25132 0.0
C853 C 0.81741 0.61959 0.32988 0.0
N854 N 0.81441 0.61836 0.16923 0.0
N855 N 0.80512 0.62839 0.29107 0.0
H856 H 0.54954 0.31101 0.65211 0.0
H857 H 0.42053 0.32538 0.83473 0.0
H858 H 0.47605 0.36077 0.62354 0.0
H859 H 0.48006 0.25727 0.83727 0.0
H860 H 0.44233 0.34216 0.76358 0.0
H861 H 0.52731 0.29528 0.72302 0.0
C862 C 0.52888 0.31911 0.66055 0.0
C863 C 0.51531 0.33784 0.63017 0.0
C864 C 0.45081 0.32358 0.77963 0.0
C865 C 0.48884 0.31935 0.71478 0.0
C866 C 0.43827 0.31388 0.82101 0.0
C867 C 0.44802 0.2895 0.84387 0.0
C868 C 0.47414 0.30948 0.7598 0.0
C869 C 0.47129 0.27606 0.82232 0.0
C870 C 0.51594 0.30981 0.70163 0.0
C871 C 0.48805 0.34666 0.64473 0.0
N872 N 0.48331 0.28613 0.7828 0.0
N873 N 0.47615 0.33769 0.68516 0.0
H874 H 0.52317 0.71031 0.58152 0.0
H875 H 0.40748 0.6996 0.37882 0.0
H876 H 0.45307 0.65334 0.5901 0.0
H877 H 0.4754 0.7593 0.38291 0.0
H878 H 0.42288 0.68148 0.45333 0.0
H879 H 0.50559 0.72701 0.50873 0.0
C880 C 0.50398 0.70115 0.56849 0.0
C881 C 0.48991 0.68006 0.59357 0.0
C882 C 0.43444 0.69857 0.43798 0.0
C883 C 0.46908 0.69973 0.50696 0.0
C884 C 0.42558 0.70904 0.39494 0.0
C885 C 0.43985 0.73139 0.37312 0.0
C886 C 0.45808 0.71016 0.46042 0.0
C887 C 0.46329 0.74224 0.39717 0.0
C888 C 0.49384 0.71089 0.52624 0.0
C889 C 0.46497 0.66958 0.57315 0.0
N890 N 0.47143 0.73168 0.43845 0.0
N891 N 0.45558 0.67933 0.53168 0.0
H892 H 0.11396 0.68915 0.35379 0.0
H893 H 0.05441 0.63428 0.15042 0.0
H894 H 0.06103 0.76152 0.33467 0.0
H895 H 0.00282 0.70859 0.14798 0.0
H896 H 0.07683 0.65168 0.21996 0.0
H897 H 0.09435 0.66837 0.28504 0.0
C898 C 0.09823 0.70096 0.33539 0.0
C899 C 0.08975 0.72769 0.35183 0.0
C900 C 0.06056 0.66441 0.20477 0.0
C901 C 0.066 0.70296 0.26921 0.0
C902 C 0.0475 0.65419 0.1642 0.0
C903 C 0.02597 0.66937 0.14172 0.0
C904 C 0.0526 0.69053 0.22467 0.0
C905 C 0.01891 0.69543 0.16289 0.0
C906 C 0.08678 0.68882 0.29517 0.0
C907 C 0.06886 0.74109 0.3247 0.0
N908 N 0.03184 0.70482 0.20201 0.0
N909 N 0.05804 0.72881 0.28581 0.0
H910 H 0.09724 0.32554 0.89062 0.0
H911 H 0.04332 0.36089 1.10902 0.0
H912 H 0.03956 0.2561 0.89411 0.0
H913 H 0.97159 0.31022 1.07502 0.0
H914 H 0.06604 0.34645 1.038 0.0
H915 H 0.0764 0.34318 0.96148 0.0
C916 C 0.08016 0.31383 0.90581 0.0
C917 C 0.07069 0.28886 0.8846 0.0
C918 C 0.04518 0.33858 1.04529 0.0
C919 C 0.04572 0.30963 0.96919 0.0
C920 C 0.03194 0.34696 1.08669 0.0
C921 C 0.00472 0.33752 1.09948 0.0
C922 C 0.03183 0.31983 1.0148 0.0
C923 C 0.99217 0.31882 1.06774 0.0
C924 C 0.06816 0.32398 0.94726 0.0
C925 C 0.04815 0.27529 0.90787 0.0
N926 N 0.00562 0.3107 1.02811 0.0
N927 N 0.03668 0.28572 0.94766 0.0
H928 H 0.04735 0.31472 0.25654 0.0
H929 H 0.04505 0.20509 0.13506 0.0
H930 H 0.99246 0.28018 0.15467 0.0
H931 H 0.10425 0.22842 0.23819 0.0
H932 H 0.06362 0.24277 1.08812 0.0
H933 H 0.08768 0.30375 0.20928 0.0
C934 C 0.04372 0.30473 0.22425 0.0
C935 C 0.01651 0.29692 0.2107 0.0
C936 C 0.07261 0.23956 0.12133 0.0
C937 C 0.06288 0.28341 0.15708 0.0
C938 C 0.06126 0.21842 0.14852 0.0
C939 C 0.06985 0.21638 0.19377 0.0
C940 C 0.08469 0.26209 0.1449 0.0
C941 C 0.09335 0.23239 0.20676 0.0
C942 C 0.06677 0.29915 0.19669 0.0
C943 C 0.01312 0.28506 0.16787 0.0
N944 N 0.10115 0.2546 0.18067 0.0
N945 N 0.03599 0.27871 0.14265 0.0
H946 H 0.00514 0.67 0.54319 0.0
H947 H 0.05489 0.77645 0.59284 0.0
H948 H 0.96909 0.74278 0.60764 0.0
H949 H 0.09623 0.69809 0.56279 0.0
H950 H 0.04171 0.75705 0.6663 0.0
H951 H 0.03557 0.66362 0.60851 0.0
C952 C 0.0042 0.68515 0.57041 0.0
C953 C 0.98774 0.70948 0.56692 0.0
C954 C 0.05353 0.74394 0.64311 0.0
C955 C 0.02351 0.70329 0.63973 0.0
C956 C 0.06011 0.75485 0.60059 0.0
C957 C 0.07246 0.73718 0.56816 0.0
C958 C 0.05263 0.71444 0.64666 0.0
C959 C 0.08233 0.71084 0.58321 0.0
C960 C 0.02086 0.68104 0.60856 0.0
C961 C 0.98452 0.72607 0.6059 0.0
N962 N 0.07293 0.70039 0.62316 0.0
N963 N 0.00231 0.7226 0.64113 0.0
H964 H 0.48083 0.74898 0.76512 0.0
H965 H 0.54726 0.82238 0.84574 0.0
H966 H 0.49626 0.6766 0.84844 0.0
H967 H 0.56214 0.75036 0.76139 0.0
H968 H 0.53175 0.79151 0.90639 0.0
H969 H 0.48913 0.77836 0.8309 0.0
C970 C 0.48574 0.73927 0.79721 0.0
C971 C 0.49136 0.7106 0.80029 0.0
C972 C 0.54044 0.78233 0.87595 0.0
C973 C 0.50677 0.74415 0.87041 0.0
C974 C 0.54845 0.79993 0.84067 0.0
C975 C 0.5522 0.78861 0.79727 0.0
C976 C 0.53601 0.75401 0.86592 0.0
C977 C 0.55642 0.75978 0.79336 0.0
C978 C 0.49011 0.75586 0.83549 0.0
C979 C 0.49571 0.69906 0.84341 0.0
N980 N 0.54897 0.74309 0.82854 0.0
N981 N 0.50445 0.71607 0.87738 0.0
H982 H 0.50131 0.20631 1.00992 0.0
H983 H 0.43714 0.278 1.09965 0.0
H984 H 0.57704 0.21119 1.08878 0.0
H985 H 0.51039 0.28994 1.01631 0.0
H986 H 0.4663 0.25527 0.15642 0.0
H987 H 0.47458 0.21601 1.07775 0.0
C988 C 0.51233 0.20886 1.04164 0.0
C989 C 0.54154 0.2115 1.0428 0.0
C990 C 0.47641 0.26494 0.12756 0.0
C991 C 0.51139 0.22802 0.11662 0.0
C992 C 0.45969 0.2773 1.09441 0.0
C993 C 0.47126 0.28255 1.05156 0.0
C994 C 0.5042 0.25809 1.11616 0.0
C995 C 0.50047 0.28355 1.04757 0.0
C996 C 0.49714 0.21405 1.08118 0.0
C997 C 0.55456 0.2133 1.08528 0.0
N998 N 0.51636 0.27181 1.08062 0.0
N999 N 0.53935 0.22262 0.12114 0.0
H1000 H 0.11873 0.78546 1.02628 0.0
H1001 H 0.06502 0.71259 0.94236 0.0
H1002 H 0.04082 0.75091 1.07647 0.0
H1003 H 0.0606 0.64662 1.04053 0.0
H1004 H 0.1104 0.72618 0.97459 0.0
H1005 H 0.14309 0.74312 1.0493 0.0
C1006 C 0.10666 0.76909 1.04265 0.0
C1007 C 0.07691 0.76951 1.0432 0.0
C1008 C 0.09931 0.70864 0.98959 0.0
C1009 C 0.10464 0.72178 1.0675 0.0
C1010 C 0.0731 0.70156 0.97158 0.0
C1011 C 0.05704 0.68135 0.99363 0.0
C1012 C 0.1059 0.69915 1.03375 0.0
C1013 C 0.07009 0.66534 1.02757 0.0
C1014 C 0.12096 0.74534 1.05754 0.0
C1015 C 0.06318 0.74955 1.06972 0.0
N1016 N 0.09379 0.6749 1.04769 0.0
N1017 N 0.07764 0.72616 1.0821 0.0
H1018 H 0.59118 0.7632 1.10915 0.0
H1019 H 0.51358 0.70849 0.21176 0.0
H1020 H 0.5263 0.78531 0.20362 0.0
H1021 H 0.44065 0.72492 0.13046 0.0
H1022 H 0.54139 0.707 0.14241 0.0
H1023 H 0.55547 0.74541 1.05701 0.0
C1024 C 0.56923 0.76496 0.11822 0.0
C1025 C 0.56122 0.77105 0.16276 0.0
C1026 C 0.51897 0.71082 0.1395 0.0
C1027 C 0.52108 0.75454 1.10267 0.0
C1028 C 0.5033 0.71191 0.17962 0.0
C1029 C 0.47552 0.72156 0.17738 0.0
C1030 C 0.50825 0.72641 1.10257 0.0
C1031 C 0.46307 0.72325 0.13446 0.0
C1032 C 0.54892 0.75604 1.0876 0.0
C1033 C 0.5331 0.77749 0.17108 0.0
N1034 N 0.47983 0.72664 1.0977 0.0
N1035 N 0.51363 0.76992 0.13987 0.0
H1036 H 0.47901 0.20721 0.59242 0.0
H1037 H 0.47317 0.31265 0.47307 0.0
H1038 H 0.41334 0.23032 0.49926 0.0
H1039 H 0.52995 0.28112 0.57492 0.0
H1040 H 0.43372 0.30286 0.52261 0.0
H1041 H 0.4616 0.24321 0.64356 0.0
C1042 C 0.46142 0.21989 0.58204 0.0
C1043 C 0.45023 0.21798 0.53825 0.0
C1044 C 0.45483 0.29862 0.53468 0.0
C1045 C 0.43788 0.26317 0.59015 0.0
C1046 C 0.47739 0.30358 0.50587 0.0
C1047 C 0.5049 0.29655 0.519 0.0
C1048 C 0.45946 0.28401 0.57522 0.0
C1049 C 0.50904 0.28553 0.56222 0.0
C1050 C 0.451 0.24036 0.61151 0.0
C1051 C 0.42597 0.23406 0.52904 0.0
N1052 N 0.48663 0.27974 0.58876 0.0
N1053 N 0.41952 0.25602 0.55668 0.0
H1054 H 0.08106 0.27811 0.62954 0.0
H1055 H 0.01522 0.20607 0.71704 0.0
H1056 H 0.0077 0.29005 0.71276 0.0
H1057 H 0.94047 0.21239 0.63598 0.0
H1058 H 0.04279 0.21667 0.65047 0.0
H1059 H 0.05184 0.25636 0.57193 0.0
C1060 C 0.05849 0.27762 0.63462 0.0
C1061 C 0.04684 0.28257 0.67753 0.0
C1062 C 0.02027 0.21482 0.64624 0.0
C1063 C 0.01387 0.25924 0.61203 0.0
C1064 C 0.0046 0.20912 0.68508 0.0
C1065 C 0.97541 0.21179 0.68305 0.0
C1066 C 0.00646 0.22927 0.61081 0.0
C1067 C 0.96292 0.21428 0.64025 0.0
C1068 C 0.04175 0.26584 0.60101 0.0
C1069 C 0.01764 0.28387 0.68139 0.0
N1070 N 0.97855 0.22413 0.60528 0.0
N1071 N 0.00172 0.2727 0.6479 0.0
H1072 H 0.082 0.0459 0.20245 0.0
H1073 H 0.99419 0.92917 1.06431 0.0
H1074 H 0.99345 0.05721 0.1762 0.0
H1075 H 0.08474 0.93591 1.06507 0.0
H1076 H 0.99156 0.97309 1.10886 0.0
H1077 H 0.08139 0.00282 0.15825 0.0
C1078 C 0.06222 0.03933 0.18784 0.0
C1079 C 0.03775 0.0558 0.1936 0.0
C1080 C 0.01196 0.96498 1.09897 0.0
C1081 C 0.0369 0.00519 0.14172 0.0
C1082 C 0.0135 0.93985 1.07327 0.0
C1083 C 0.03974 0.92842 1.06014 0.0
C1084 C 0.03684 0.97882 1.11258 0.0
C1085 C 0.06392 0.9435 1.07365 0.0
C1086 C 0.06194 0.0145 0.16217 0.0
C1087 C 0.0129 0.04546 0.17328 0.0
N1088 N 0.06185 0.96741 1.09899 0.0
N1089 N 0.01311 0.02099 0.14846 0.0
H1090 H 0.19749 0.7468 0.36886 0.0
H1091 H 0.35031 0.8174 0.34717 0.0
H1092 H 0.21551 0.82299 0.4415 0.0
H1093 H 0.31354 0.76348 0.24645 0.0
H1094 H 0.30421 0.81885 0.38651 0.0
H1095 H 0.24216 0.75125 0.32884 0.0
C1096 C 0.21077 0.76468 0.37635 0.0
C1097 C 0.20221 0.78459 0.40876 0.0
C1098 C 0.30626 0.80693 0.35557 0.0
C1099 C 0.25485 0.78957 0.36277 0.0
C1100 C 0.33267 0.80608 0.33296 0.0
C1101 C 0.33628 0.79035 0.29293 0.0
C1102 C 0.28318 0.7915 0.33871 0.0
C1103 C 0.31228 0.77603 0.27683 0.0
C1104 C 0.23648 0.7672 0.35326 0.0
C1105 C 0.22081 0.80722 0.41658 0.0
N1106 N 0.28727 0.77676 0.29973 0.0
N1107 N 0.24627 0.80891 0.39425 0.0
H1108 H 0.42916 0.0522 0.54896 0.0
H1109 H 0.53135 0.9235 0.61373 0.0
H1110 H 0.51682 0.04786 0.51134 0.0
H1111 H 0.44584 0.92857 0.66224 0.0
H1112 H 0.52463 0.96695 0.57233 0.0
H1113 H 0.43329 0.00622 0.58515 0.0
C1114 C 0.44933 0.04158 0.54769 0.0
C1115 C 0.4727 0.05447 0.52645 0.0
C1116 C 0.50717 0.95871 0.59175 0.0
C1117 C 0.47754 0.00089 0.56919 0.0
C1118 C 0.51093 0.93359 0.61575 0.0
C1119 C 0.48917 0.92183 0.64226 0.0
C1120 C 0.48132 0.97296 0.5935 0.0
C1121 C 0.46329 0.93644 0.64248 0.0
C1122 C 0.45161 0.01514 0.56879 0.0
C1123 C 0.4981 0.03912 0.52669 0.0
N1124 N 0.46016 0.96115 0.61876 0.0
N1125 N 0.49979 0.01345 0.54769 0.0
H1126 H 0.32617 0.27431 0.88973 0.0
H1127 H 0.19139 0.18332 0.8126 0.0
H1128 H 0.32607 0.18516 0.91489 0.0
H1129 H 0.19175 0.2723 0.83921 0.0
H1130 H 0.24058 0.18078 0.84141 0.0
H1131 H 0.27832 0.27126 0.86214 0.0
C1132 C 0.31627 0.25385 0.88942 0.0
C1133 C 0.33094 0.23 0.90517 0.0
C1134 C 0.22974 0.20079 0.84102 0.0
C1135 C 0.27425 0.22633 0.8723 0.0
C1136 C 0.20154 0.20228 0.8244 0.0
C1137 C 0.18676 0.2281 0.82317 0.0
C1138 C 0.24367 0.22536 0.85589 0.0
C1139 C 0.20159 0.25179 0.83919 0.0
C1140 C 0.28849 0.25218 0.87355 0.0
C1141 C 0.31601 0.20427 0.90342 0.0
N1142 N 0.22871 0.24982 0.85423 0.0
N1143 N 0.2887 0.2031 0.88722 0.0
H1144 H 0.68683 0.30709 0.90025 0.0
H1145 H 0.81428 0.22158 0.78849 0.0
H1146 H 0.70128 0.21914 0.92513 0.0
H1147 H 0.83181 0.30474 0.83813 0.0
H1148 H 0.76799 0.22343 0.82445 0.0
H1149 H 0.73435 0.30992 0.86507 0.0
C1150 C 0.69976 0.28838 0.8984 0.0
C1151 C 0.68955 0.26281 0.91633 0.0
C1152 C 0.78178 0.24142 0.82743 0.0
C1153 C 0.74421 0.26584 0.87473 0.0
C1154 C 0.80846 0.24047 0.80661 0.0
C1155 C 0.82765 0.26301 0.80984 0.0
C1156 C 0.773 0.26542 0.8513 0.0
C1157 C 0.81817 0.28671 0.83451 0.0
C1158 C 0.72707 0.29006 0.87842 0.0
C1159 C 0.7078 0.23943 0.91247 0.0
N1160 N 0.79162 0.28739 0.85377 0.0
N1161 N 0.73359 0.24144 0.89193 0.0
H1162 H 0.84048 0.75411 0.39619 0.0
H1163 H 0.70371 0.66948 0.30625 0.0
H1164 H 0.8303 0.66598 0.42459 0.0
H1165 H 0.71462 0.75934 0.30373 0.0
H1166 H 0.75024 0.66531 0.34416 0.0
H1167 H 0.79532 0.75412 0.35738 0.0
C1168 C 0.82882 0.73462 0.39436 0.0
C1169 C 0.83967 0.71002 0.41412 0.0
C1170 C 0.74231 0.68589 0.33519 0.0
C1171 C 0.78674 0.70984 0.36861 0.0
C1172 C 0.71573 0.68827 0.3133 0.0
C1173 C 0.70472 0.71485 0.30157 0.0
C1174 C 0.75824 0.71022 0.34511 0.0
C1175 C 0.72162 0.73833 0.31205 0.0
C1176 C 0.80275 0.73464 0.37198 0.0
C1177 C 0.82304 0.68553 0.41008 0.0
N1178 N 0.74705 0.73543 0.33277 0.0
N1179 N 0.79757 0.68605 0.38792 0.0
H1180 H 0.59319 0.56347 0.68917 0.0
H1181 H 0.53443 0.46012 0.49406 0.0
H1182 H 0.52115 0.57945 0.60469 0.0
H1183 H 0.59567 0.431 0.59071 0.0
H1184 H 0.53481 0.50605 0.52987 0.0
H1185 H 0.59974 0.51775 0.65011 0.0
C1186 C 0.57904 0.55772 0.66209 0.0
C1187 C 0.5565 0.57567 0.65052 0.0
C1188 C 0.54835 0.4898 0.5434 0.0
C1189 C 0.56383 0.5231 0.60555 0.0
C1190 C 0.54823 0.4633 0.52266 0.0
C1191 C 0.56497 0.44109 0.53905 0.0
C1192 C 0.56536 0.49492 0.5814 0.0
C1193 C 0.58233 0.44721 0.57657 0.0
C1194 C 0.58265 0.53144 0.63999 0.0
C1195 C 0.53876 0.56659 0.61531 0.0
N1196 N 0.582 0.47335 0.59646 0.0
N1197 N 0.54279 0.54135 0.59448 0.0
H1198 H 0.93262 0.54818 1.01941 0.0
H1199 H 0.97282 0.46223 0.24253 0.0
H1200 H 0.95946 0.58941 0.14121 0.0
H1201 H 0.924 0.42611 0.13469 0.0
H1202 H 0.96837 0.50844 0.20664 0.0
H1203 H 0.929 0.50381 1.06092 0.0
C1204 C 0.93714 0.5481 1.05523 0.0
C1205 C 0.94593 0.57299 1.07673 0.0
C1206 C 0.9584 0.4905 0.19095 0.0
C1207 C 0.94289 0.52126 0.12474 0.0
C1208 C 0.96093 0.46391 0.2115 0.0
C1209 C 0.94881 0.43978 0.19192 0.0
C1210 C 0.94399 0.4934 0.14973 0.0
C1211 C 0.93372 0.44381 0.15143 0.0
C1212 C 0.93524 0.52256 1.07894 0.0
C1213 C 0.95203 0.57111 0.12318 0.0
N1214 N 0.93204 0.46981 0.13165 0.0
N1215 N 0.95079 0.54578 0.1453 0.0
H1216 H 0.0333 0.14844 0.41487 0.0
H1217 H 0.12769 0.25036 0.57895 0.0
H1218 H 0.10905 0.18644 0.36431 0.0
H1219 H 0.07847 0.1818 0.6306 0.0
H1220 H 0.11792 0.23334 0.50108 0.0
H1221 H 0.0452 0.16559 0.4913 0.0
C1222 C 0.05252 0.16033 0.41919 0.0
C1223 C 0.07002 0.16519 0.38093 0.0
C1224 C 0.10914 0.22194 0.52937 0.0
C1225 C 0.08389 0.18662 0.47216 0.0
C1226 C 0.11486 0.23179 0.5747 0.0
C1227 C 0.10416 0.21803 0.61385 0.0
C1228 C 0.09175 0.1981 0.52105 0.0
C1229 C 0.08747 0.19389 0.60328 0.0
C1230 C 0.05939 0.17032 0.46373 0.0
C1231 C 0.09457 0.18135 0.39131 0.0
N1232 N 0.08173 0.18531 0.55941 0.0
N1233 N 0.10039 0.19139 0.43459 0.0
H1234 H 0.14248 0.75739 0.66103 0.0
H1235 H 0.03814 0.84439 0.83213 0.0
H1236 H 0.08816 0.82345 0.61392 0.0
H1237 H 0.11615 0.80957 0.8799 0.0
H1238 H 0.05201 0.83177 0.7541 0.0
H1239 H 0.13 0.77029 0.73985 0.0
C1240 C 0.12806 0.77468 0.66657 0.0
C1241 C 0.11704 0.78928 0.62855 0.0
C1242 C 0.06626 0.82679 0.78144 0.0
C1243 C 0.10133 0.8041 0.72224 0.0
C1244 C 0.05822 0.83411 0.82684 0.0
C1245 C 0.07576 0.82866 0.86476 0.0
C1246 C 0.09204 0.81276 0.77185 0.0
C1247 C 0.10155 0.81486 0.85321 0.0
C1248 C 0.12077 0.78212 0.7124 0.0
C1249 C 0.09797 0.81135 0.64051 0.0
N1250 N 0.10851 0.80738 0.8091 0.0
N1251 N 0.09077 0.81761 0.68489 0.0
H1252 H 0.4075 0.76406 1.05598 0.0
H1253 H 0.51758 0.85834 0.90275 0.0
H1254 H 0.46555 0.82262 1.11517 0.0
H1255 H 0.44709 0.81408 0.84611 0.0
H1256 H 0.50157 0.84368 0.97909 0.0
H1257 H 0.42374 0.77921 0.98014 0.0
C1258 C 0.42356 0.7801 1.05368 0.0
C1259 C 0.43446 0.79193 1.09406 0.0
C1260 C 0.48947 0.83715 0.95002 0.0
C1261 C 0.45426 0.80969 1.00403 0.0
C1262 C 0.49871 0.84576 0.90567 0.0
C1263 C 0.48404 0.83798 0.86578 0.0
C1264 C 0.4652 0.82 0.95631 0.0
C1265 C 0.45964 0.82118 0.87431 0.0
C1266 C 0.43301 0.78889 1.00962 0.0
C1267 C 0.45573 0.81265 1.08643 0.0
N1268 N 0.45144 0.8129 0.91725 0.0
N1269 N 0.46468 0.8205 1.04361 0.0
H1270 H 0.4043 0.18719 0.36597 0.0
H1271 H 0.43794 0.18245 1.09622 0.0
H1272 H 0.48069 0.15108 0.3138 0.0
H1273 H 0.3895 0.25106 0.15027 0.0
H1274 H 0.44822 0.16658 0.17313 0.0
H1275 H 0.39347 0.20554 0.28962 0.0
C1276 C 0.41889 0.18268 0.33881 0.0
C1277 C 0.44372 0.16689 0.34851 0.0
C1278 C 0.43525 0.18508 0.16874 0.0
C1279 C 0.43063 0.18842 0.25704 0.0
C1280 C 0.42916 0.19449 0.12385 0.0
C1281 C 0.41275 0.21888 1.11413 0.0
C1282 C 0.42429 0.19902 0.2071 0.0
C1283 C 0.40225 0.23235 0.15392 0.0
C1284 C 0.41261 0.19354 0.29447 0.0
C1285 C 0.46128 0.16276 0.30989 0.0
N1286 N 0.40789 0.22228 0.1974 0.0
N1287 N 0.45434 0.17286 0.26715 0.0
H1288 H 0.83302 0.8672 0.6624 0.0
H1289 H 0.9397 0.92534 0.83272 0.0
H1290 H 0.91409 0.90241 0.6294 0.0
H1291 H 0.85922 0.8895 0.86821 0.0
H1292 H 0.9215 0.9366 0.75852 0.0
H1293 H 0.83327 0.89334 0.73328 0.0
C1294 C 0.85056 0.88099 0.66964 0.0
C1295 C 0.87409 0.8818 0.64101 0.0
C1296 C 0.90748 0.92697 0.78286 0.0
C1297 C 0.87475 0.91135 0.72207 0.0
C1298 C 0.91785 0.92067 0.82563 0.0
C1299 C 0.90137 0.90516 0.85608 0.0
C1300 C 0.88082 0.91699 0.77022 0.0
C1301 C 0.87311 0.90018 0.84487 0.0
C1302 C 0.85065 0.89603 0.70999 0.0
C1303 C 0.8958 0.90069 0.65106 0.0
N1304 N 0.86398 0.90521 0.80226 0.0
N1305 N 0.89599 0.91413 0.69142 0.0
H1306 H 0.77581 0.16384 0.56877 0.0
H1307 H 0.85016 0.17656 0.3794 0.0
H1308 H 0.83141 0.09334 0.59079 0.0
H1309 H 0.87583 0.09013 0.39453 0.0
H1310 H 0.81472 0.16973 0.43719 0.0
H1311 H 0.78158 0.15754 0.48751 0.0
C1312 C 0.7887 0.14664 0.55662 0.0
C1313 C 0.80449 0.13021 0.58684 0.0
C1314 C 0.82724 0.15184 0.42702 0.0
C1315 C 0.81189 0.12345 0.49424 0.0
C1316 C 0.84778 0.15585 0.39399 0.0
C1317 C 0.86654 0.13411 0.38303 0.0
C1318 C 0.82563 0.1259 0.44959 0.0
C1319 C 0.86245 0.10777 0.40314 0.0
C1320 C 0.79225 0.14325 0.51015 0.0
C1321 C 0.81952 0.10726 0.56915 0.0
N1322 N 0.84287 0.10458 0.43615 0.0
N1323 N 0.82355 0.10512 0.52402 0.0
H1324 H 0.67994 0.08012 0.12919 0.0
H1325 H 0.67002 0.14572 0.36677 0.0
H1326 H 0.72922 0.15123 0.1728 0.0
H1327 H 0.62367 0.07293 0.32238 0.0
H1328 H 0.70398 0.13788 0.30643 0.0
H1329 H 0.67405 0.06619 0.20702 0.0
C1330 C 0.6905 0.09237 0.15483 0.0
C1331 C 0.70387 0.11786 0.14428 0.0
C1332 C 0.68678 0.12319 0.31046 0.0
C1333 C 0.69592 0.10251 0.23411 0.0
C1334 C 0.66734 0.12763 0.34507 0.0
C1335 C 0.64344 0.11045 0.34875 0.0
C1336 C 0.68202 0.10172 0.2789 0.0
C1337 C 0.64121 0.08732 0.3197 0.0
C1338 C 0.68679 0.08447 0.19968 0.0
C1339 C 0.71738 0.13228 0.17947 0.0
N1340 N 0.6599 0.08398 0.28541 0.0
N1341 N 0.71217 0.12502 0.22301 0.0
H1342 H 0.68561 0.92386 0.84743 0.0
H1343 H 0.69002 0.9144 1.11194 0.0
H1344 H 0.62466 0.96033 0.93835 0.0
H1345 H 0.73162 0.8577 1.01983 0.0
H1346 H 0.68255 0.94728 1.04991 0.0
H1347 H 0.71768 0.91705 0.91076 0.0
C1348 C 0.67938 0.93142 0.88044 0.0
C1349 C 0.65215 0.94193 0.88805 0.0
C1350 C 0.69412 0.92805 1.04359 0.0
C1351 C 0.68849 0.93377 0.96043 0.0
C1352 C 0.69851 0.90931 1.07899 0.0
C1353 C 0.71075 0.88299 1.07055 0.0
C1354 C 0.7019 0.92024 0.99966 0.0
C1355 C 0.72137 0.87749 1.02731 0.0
C1356 C 0.69766 0.92739 0.91659 0.0
C1357 C 0.6452 0.9514 0.93144 0.0
N1358 N 0.71616 0.89572 0.99315 0.0
N1359 N 0.66304 0.94652 0.9663 0.0
H1360 H 0.52899 0.63761 0.90403 0.0
H1361 H 0.63468 0.73872 1.05366 0.0
H1362 H 0.59032 0.69275 0.84438 0.0
H1363 H 0.58125 0.67599 1.11338 0.0
H1364 H 0.61777 0.72375 0.97812 0.0
H1365 H 0.54592 0.65232 0.97977 0.0
C1366 C 0.546 0.65263 0.90618 0.0
C1367 C 0.55798 0.66331 0.86572 0.0
C1368 C 0.60971 0.71312 1.00771 0.0
C1369 C 0.57792 0.68116 0.95534 0.0
C1370 C 0.61962 0.72175 1.05154 0.0
C1371 C 0.60998 0.7089 1.09196 0.0
C1372 C 0.58949 0.69129 1.00255 0.0
C1373 C 0.5899 0.68701 1.08463 0.0
C1374 C 0.55581 0.66122 0.95012 0.0
C1375 C 0.58004 0.68321 0.87312 0.0
N1376 N 0.58058 0.67926 1.04212 0.0
N1377 N 0.58892 0.69123 0.91572 0.0
H1378 H 0.53845 0.3555 0.30984 0.0
H1379 H 0.62173 0.24018 0.15078 0.0
H1380 H 0.60075 0.29967 0.36493 0.0
H1381 H 0.57796 0.31157 1.09623 0.0
H1382 H 0.61171 0.25811 0.22793 0.0
H1383 H 0.54941 0.33726 0.23359 0.0
C1384 C 0.55446 0.33942 0.30656 0.0
C1385 C 0.56851 0.32976 0.34603 0.0
C1386 C 0.60427 0.27002 0.19921 0.0
C1387 C 0.58133 0.30747 0.25506 0.0
C1388 C 0.61011 0.25963 0.15434 0.0
C1389 C 0.60132 0.2741 1.11473 0.0
C1390 C 0.58869 0.29522 0.20653 0.0
C1391 C 0.5859 0.29926 0.12414 0.0
C1392 C 0.56083 0.32883 0.26215 0.0
C1393 C 0.58906 0.30848 0.337 0.0
N1394 N 0.58017 0.30855 0.1677 0.0
N1395 N 0.5945 0.29828 0.29374 0.0
H1396 H 0.97867 0.35528 0.41897 0.0
H1397 H 0.89624 0.23925 0.57716 0.0
H1398 H 0.91871 0.29748 0.36298 0.0
H1399 H 0.9387 0.31122 0.63194 0.0
H1400 H 0.9067 0.25695 0.50007 0.0
H1401 H 0.96741 0.33719 0.49517 0.0
C1402 C 0.96312 0.33879 0.42205 0.0
C1403 C 0.94982 0.32851 0.38237 0.0
C1404 C 0.91374 0.26904 0.52883 0.0
C1405 C 0.93663 0.30647 0.47321 0.0
C1406 C 0.90765 0.25878 0.57365 0.0
C1407 C 0.91595 0.27349 0.61326 0.0
C1408 C 0.92906 0.29435 0.52163 0.0
C1409 C 0.93114 0.29874 0.60398 0.0
C1410 C 0.95659 0.3283 0.46641 0.0
C1411 C 0.92982 0.30675 0.39111 0.0
N1412 N 0.9371 0.30792 0.56048 0.0
N1413 N 0.92418 0.29669 0.43433 0.0
H1414 H 0.98814 0.61823 0.83261 0.0
H1415 H 0.94245 0.64749 0.60904 0.0
H1416 H 0.94239 0.69196 0.87351 0.0
H1417 H 0.91294 0.72733 0.65777 0.0
H1418 H 0.95597 0.63465 0.68577 0.0
H1419 H 0.97578 0.62839 0.75371 0.0
C1420 C 0.97543 0.63659 0.82552 0.0
C1421 C 0.96655 0.6539 0.86182 0.0
C1422 C 0.9466 0.65507 0.68058 0.0
C1423 C 0.95139 0.66629 0.76753 0.0
C1424 C 0.93841 0.66251 0.63572 0.0
C1425 C 0.92581 0.68873 0.62485 0.0
C1426 C 0.94254 0.67368 0.71742 0.0
C1427 C 0.92207 0.70675 0.66286 0.0
C1428 C 0.96807 0.6425 0.77947 0.0
C1429 C 0.95003 0.67751 0.8481 0.0
N1430 N 0.93013 0.69896 0.70632 0.0
N1431 N 0.94327 0.68282 0.80329 0.0
H1432 H 0.34917 0.35365 0.37902 0.0
H1433 H 0.31989 0.40459 0.13675 0.0
H1434 H 0.3766 0.43274 0.32348 0.0
H1435 H 0.29195 0.32544 0.19134 0.0
H1436 H 0.32272 0.42339 0.21292 0.0
H1437 H 0.31221 0.35153 0.32209 0.0
C1438 C 0.34693 0.37097 0.3556 0.0
C1439 C 0.36664 0.39285 0.35471 0.0
C1440 C 0.31515 0.40214 0.20832 0.0
C1441 C 0.32487 0.39027 0.28893 0.0
C1442 C 0.31332 0.39144 0.16465 0.0
C1443 C 0.3069 0.36302 0.15797 0.0
C1444 C 0.31117 0.38404 0.24524 0.0
C1445 C 0.29822 0.34714 0.19534 0.0
C1446 C 0.32583 0.36974 0.32299 0.0
C1447 C 0.36252 0.41489 0.32402 0.0
N1448 N 0.30148 0.35758 0.23759 0.0
N1449 N 0.34253 0.4127 0.29161 0.0
H1450 H 0.29555 0.65851 1.02737 0.0
H1451 H 0.40193 0.54912 0.9367 0.0
H1452 H 0.33576 0.59566 1.11021 0.0
H1453 H 0.35058 0.601 0.85036 0.0
H1454 H 0.3686 0.55696 0.99827 0.0
H1455 H 0.30444 0.62933 0.96109 0.0
C1456 C 0.30544 0.63819 1.03183 0.0
C1457 C 0.31582 0.63003 1.07416 0.0
C1458 C 0.36416 0.56611 0.96558 0.0
C1459 C 0.32654 0.5968 0.99858 0.0
C1460 C 0.38329 0.56169 0.93055 0.0
C1461 C 0.37927 0.57495 0.88887 0.0
C1462 C 0.34134 0.58455 0.95915 0.0
C1463 C 0.35456 0.59061 0.88222 0.0
C1464 C 0.31055 0.6215 0.99396 0.0
C1465 C 0.32777 0.60314 1.0782 0.0
N1466 N 0.33687 0.59558 0.91737 0.0
N1467 N 0.33357 0.58787 1.0407 0.0
H1468 H 0.16467 0.58298 0.64013 0.0
H1469 H 0.16809 0.59814 0.90522 0.0
H1470 H 0.20249 0.65183 0.71253 0.0
H1471 H 0.11701 0.53876 0.83212 0.0
H1472 H 0.19525 0.60682 0.83653 0.0
H1473 H 0.16174 0.55654 0.71058 0.0
C1474 C 0.17303 0.59225 0.67066 0.0
C1475 C 0.18318 0.6199 0.67081 0.0
C1476 C 0.17858 0.59133 0.83582 0.0
C1477 C 0.17956 0.58995 0.75145 0.0
C1478 C 0.1631 0.58637 0.87499 0.0
C1479 C 0.13973 0.56839 0.8739 0.0
C1480 C 0.17041 0.57838 0.79536 0.0
C1481 C 0.13461 0.5531 0.8343 0.0
C1482 C 0.17126 0.57718 0.71089 0.0
C1483 C 0.19376 0.63087 0.71128 0.0
N1484 N 0.14939 0.55897 0.79622 0.0
N1485 N 0.19122 0.61604 0.75017 0.0
H1486 H 0.16434 0.3456 0.3525 0.0
H1487 H 0.23467 0.32485 0.54215 0.0
H1488 H 0.14866 0.43065 0.39587 0.0
H1489 H 0.1908 0.39951 0.58545 0.0
H1490 H 0.23208 0.34136 0.46431 0.0
H1491 H 0.20068 0.34134 0.40917 0.0
C1492 C 0.16925 0.36376 0.37303 0.0
C1493 C 0.15279 0.38816 0.37061 0.0
C1494 C 0.22319 0.3543 0.49074 0.0
C1495 C 0.19452 0.38354 0.43633 0.0
C1496 C 0.225 0.34502 0.53527 0.0
C1497 C 0.21182 0.36027 0.56991 0.0
C1498 C 0.20739 0.37856 0.48106 0.0
C1499 C 0.20061 0.38672 0.55962 0.0
C1500 C 0.19024 0.36139 0.40563 0.0
C1501 C 0.16017 0.41105 0.39789 0.0
N1502 N 0.19792 0.39466 0.51591 0.0
N1503 N 0.18 0.40793 0.43041 0.0
loop_
_geom_bond_atom_site_label_1
_geom_bond_atom_site_label_2
_geom_bond_distance
_geom_bond_site_symmetry_2
_ccdc_geom_bond_type
Dy0 O3 2.307 . S
Dy0 O5 2.395 . S
Dy0 O6 2.379 . S
Dy0 O8 2.339 . S
Dy0 O10 2.298 1_655 S
Dy0 O14 2.275 1_655 S
Dy0 C22 2.738 . S
Dy1 O4 2.298 . S
Dy1 O7 2.275 . S
Dy1 O9 2.307 . S
Dy1 O11 2.395 . S
Dy1 O12 2.379 . S
Dy1 O15 2.339 . S
Dy1 C31 2.738 . S
C2 O14 1.254 . S
C2 O15 1.257 . S
O3 Dy0 2.307 . S
O3 C13 1.266 . S
O4 Dy1 2.298 . S
O4 C13 1.236 1_455 S
O5 Dy0 2.395 . S
O5 C22 1.255 . S
O6 Dy0 2.379 . S
O6 C22 1.249 . S
O7 Dy1 2.275 . S
O7 C23 1.254 . S
O8 Dy0 2.339 . S
O8 C23 1.257 1_655 S
O9 Dy1 2.307 . S
O9 C24 1.266 . S
O10 Dy0 2.298 1_455 S
O10 C24 1.236 . S
O11 Dy1 2.395 . S
O11 C31 1.255 . S
O12 Dy1 2.379 . S
O12 C31 1.249 . S
C13 O3 1.266 . S
C13 O4 1.236 1_655 S
O14 Dy0 2.275 1_455 S
O14 C2 1.254 . S
O15 Dy1 2.339 . S
O15 C2 1.257 . S
C16 C19 1.344 . S
C16 C20 1.328 . S
C16 C22 1.516 . S
C17 C18 1.304 . S
C17 C21 1.323 . S
C18 C17 1.304 . S
C18 C19 1.371 . S
C18 H32 0.930 . S
C19 C16 1.344 . S
C19 C18 1.371 . S
C19 H33 0.931 . S
C20 C16 1.328 . S
C20 C21 1.433 . S
C20 H34 0.931 . S
C21 C17 1.323 . S
C21 C20 1.433 . S
C21 H35 0.933 . S
C22 Dy0 2.738 . S
C22 O5 1.255 . S
C22 O6 1.249 . S
C22 C16 1.516 . S
C23 O7 1.254 . S
C23 O8 1.257 1_455 S
C24 O9 1.266 . S
C24 O10 1.236 . S
C25 C28 1.344 . S
C25 C29 1.328 . S
C25 C31 1.516 1_556 S
C26 C27 1.304 . S
C26 C30 1.323 . S
C27 C26 1.304 . S
C27 C28 1.371 . S
C27 H36 0.930 . S
C28 C25 1.344 . S
C28 C27 1.371 . S
C28 H37 0.931 . S
C29 C25 1.328 . S
C29 C30 1.433 . S
C29 H38 0.931 . S
C30 C26 1.323 . S
C30 C29 1.433 . S
C30 H39 0.933 . S
C31 Dy1 2.738 . S
C31 O11 1.255 . S
C31 O12 1.249 . S
C31 C25 1.516 1_554 S
H32 C18 0.930 . S
H33 C19 0.931 . S
H34 C20 0.931 . S
H35 C21 0.933 . S
H36 C27 0.930 . S
H37 C28 0.931 . S
H38 C29 0.931 . S
H39 C30 0.933 . S
Dy40 O43 2.307 . S
Dy40 O45 2.395 . S
Dy40 O46 2.379 . S
Dy40 O48 2.339 . S
Dy40 O50 2.298 . S
Dy40 O54 2.275 . S
Dy40 C62 2.738 . S
Dy41 O44 2.298 . S
Dy41 O47 2.275 . S
Dy41 O49 2.307 . S
Dy41 O51 2.395 . S
Dy41 O52 2.379 . S
Dy41 O55 2.339 . S
Dy41 C71 2.738 . S
C42 O54 1.254 . S
C42 O55 1.257 . S
O43 Dy40 2.307 . S
O43 C53 1.266 . S
O44 Dy41 2.298 . S
O44 C53 1.236 . S
O45 Dy40 2.395 . S
O45 C62 1.255 . S
O46 Dy40 2.379 . S
O46 C62 1.249 . S
O47 Dy41 2.275 . S
O47 C63 1.254 . S
O48 Dy40 2.339 . S
O48 C63 1.257 . S
O49 Dy41 2.307 . S
O49 C64 1.266 . S
O50 Dy40 2.298 . S
O50 C64 1.236 . S
O51 Dy41 2.395 . S
O51 C71 1.255 . S
O52 Dy41 2.379 . S
O52 C71 1.249 . S
C53 O43 1.266 . S
C53 O44 1.236 . S
O54 Dy40 2.275 . S
O54 C42 1.254 . S
O55 Dy41 2.339 . S
O55 C42 1.257 . S
C56 C59 1.344 . S
C56 C60 1.328 . S
C56 C62 1.516 . S
C57 C58 1.304 . S
C57 C61 1.323 . S
C58 C57 1.304 . S
C58 C59 1.371 . S
C58 H72 0.930 . S
C59 C56 1.344 . S
C59 C58 1.371 . S
C59 H73 0.931 . S
C60 C56 1.328 . S
C60 C61 1.433 . S
C60 H74 0.931 . S
C61 C57 1.323 . S
C61 C60 1.433 . S
C61 H75 0.933 . S
C62 Dy40 2.738 . S
C62 O45 1.255 . S
C62 O46 1.249 . S
C62 C56 1.516 . S
C63 O47 1.254 . S
C63 O48 1.257 . S
C64 O49 1.266 . S
C64 O50 1.236 . S
C65 C68 1.344 . S
C65 C69 1.328 . S
C65 C71 1.516 . S
C66 C67 1.304 . S
C66 C70 1.323 . S
C67 C66 1.304 . S
C67 C68 1.371 . S
C67 H76 0.930 . S
C68 C65 1.344 . S
C68 C67 1.371 . S
C68 H77 0.931 . S
C69 C65 1.328 . S
C69 C70 1.433 . S
C69 H78 0.931 . S
C70 C66 1.323 . S
C70 C69 1.433 . S
C70 H79 0.933 . S
C71 Dy41 2.738 . S
C71 O51 1.255 . S
C71 O52 1.249 . S
C71 C65 1.516 . S
H72 C58 0.930 . S
H73 C59 0.931 . S
H74 C60 0.931 . S
H75 C61 0.933 . S
H76 C67 0.930 . S
H77 C68 0.931 . S
H78 C69 0.931 . S
H79 C70 0.933 . S
Dy80 O83 2.307 . S
Dy80 O85 2.395 . S
Dy80 O86 2.379 . S
Dy80 O88 2.339 . S
Dy80 O90 2.298 . S
Dy80 O94 2.275 . S
Dy80 C102 2.738 . S
Dy81 O84 2.298 . S
Dy81 O87 2.275 . S
Dy81 O89 2.307 . S
Dy81 O91 2.395 . S
Dy81 O92 2.379 . S
Dy81 O95 2.339 . S
Dy81 C111 2.738 . S
C82 O94 1.254 . S
C82 O95 1.257 . S
O83 Dy80 2.307 . S
O83 C93 1.266 . S
O84 Dy81 2.298 . S
O84 C93 1.236 . S
O85 Dy80 2.395 . S
O85 C102 1.255 . S
O86 Dy80 2.379 . S
O86 C102 1.249 . S
O87 Dy81 2.275 . S
O87 C103 1.254 . S
O88 Dy80 2.339 . S
O88 C103 1.257 . S
O89 Dy81 2.307 . S
O89 C104 1.266 . S
O90 Dy80 2.298 . S
O90 C104 1.236 . S
O91 Dy81 2.395 . S
O91 C111 1.255 . S
O92 Dy81 2.379 . S
O92 C111 1.249 . S
C93 O83 1.266 . S
C93 O84 1.236 . S
O94 Dy80 2.275 . S
O94 C82 1.254 . S
O95 Dy81 2.339 . S
O95 C82 1.257 . S
C96 C99 1.344 . S
C96 C100 1.328 . S
C96 C102 1.516 . S
C97 C98 1.304 . S
C97 C101 1.323 . S
C98 C97 1.304 . S
C98 C99 1.371 . S
C98 H112 0.930 . S
C99 C96 1.344 . S
C99 C98 1.371 . S
C99 H113 0.931 . S
C100 C96 1.328 . S
C100 C101 1.433 . S
C100 H114 0.931 . S
C101 C97 1.323 . S
C101 C100 1.433 . S
C101 H115 0.933 . S
C102 Dy80 2.738 . S
C102 O85 1.255 . S
C102 O86 1.249 . S
C102 C96 1.516 . S
C103 O87 1.254 . S
C103 O88 1.257 . S
C104 O89 1.266 . S
C104 O90 1.236 . S
C105 C108 1.344 . S
C105 C109 1.328 . S
C105 C111 1.516 . S
C106 C107 1.304 . S
C106 C110 1.323 . S
C107 C106 1.304 . S
C107 C108 1.371 . S
C107 H116 0.930 . S
C108 C105 1.344 . S
C108 C107 1.371 . S
C108 H117 0.931 . S
C109 C105 1.328 . S
C109 C110 1.433 . S
C109 H118 0.931 . S
C110 C106 1.323 . S
C110 C109 1.433 . S
C110 H119 0.933 . S
C111 Dy81 2.738 . S
C111 O91 1.255 . S
C111 O92 1.249 . S
C111 C105 1.516 . S
H112 C98 0.930 . S
H113 C99 0.931 . S
H114 C100 0.931 . S
H115 C101 0.933 . S
H116 C107 0.930 . S
H117 C108 0.931 . S
H118 C109 0.931 . S
H119 C110 0.933 . S
Dy120 O123 2.307 . S
Dy120 O125 2.395 . S
Dy120 O126 2.379 . S
Dy120 O128 2.339 . S
Dy120 O130 2.298 . S
Dy120 O134 2.275 . S
Dy120 C142 2.738 . S
Dy121 O124 2.298 . S
Dy121 O127 2.275 . S
Dy121 O129 2.307 . S
Dy121 O131 2.395 . S
Dy121 O132 2.379 . S
Dy121 O135 2.339 . S
Dy121 C151 2.738 . S
C122 O134 1.254 . S
C122 O135 1.257 . S
O123 Dy120 2.307 . S
O123 C133 1.266 . S
O124 Dy121 2.298 . S
O124 C133 1.236 . S
O125 Dy120 2.395 . S
O125 C142 1.255 . S
O126 Dy120 2.379 . S
O126 C142 1.249 . S
O127 Dy121 2.275 . S
O127 C143 1.254 . S
O128 Dy120 2.339 . S
O128 C143 1.257 . S
O129 Dy121 2.307 . S
O129 C144 1.266 . S
O130 Dy120 2.298 . S
O130 C144 1.236 . S
O131 Dy121 2.395 . S
O131 C151 1.255 . S
O132 Dy121 2.379 . S
O132 C151 1.249 . S
C133 O123 1.266 . S
C133 O124 1.236 . S
O134 Dy120 2.275 . S
O134 C122 1.254 . S
O135 Dy121 2.339 . S
O135 C122 1.257 . S
C136 C139 1.344 . S
C136 C140 1.328 . S
C136 C142 1.516 1_554 S
C137 C138 1.304 . S
C137 C141 1.323 . S
C138 C137 1.304 . S
C138 C139 1.371 . S
C138 H152 0.930 . S
C139 C136 1.344 . S
C139 C138 1.371 . S
C139 H153 0.931 . S
C140 C136 1.328 . S
C140 C141 1.433 . S
C140 H154 0.931 . S
C141 C137 1.323 . S
C141 C140 1.433 . S
C141 H155 0.933 . S
C142 Dy120 2.738 . S
C142 O125 1.255 . S
C142 O126 1.249 . S
C142 C136 1.516 1_556 S
C143 O127 1.254 . S
C143 O128 1.257 . S
C144 O129 1.266 . S
C144 O130 1.236 . S
C145 C148 1.344 . S
C145 C149 1.328 . S
C145 C151 1.516 . S
C146 C147 1.304 . S
C146 C150 1.323 . S
C147 C146 1.304 . S
C147 C148 1.371 . S
C147 H156 0.930 . S
C148 C145 1.344 . S
C148 C147 1.371 . S
C148 H157 0.931 . S
C149 C145 1.328 . S
C149 C150 1.433 . S
C149 H158 0.931 . S
C150 C146 1.323 . S
C150 C149 1.433 . S
C150 H159 0.933 . S
C151 Dy121 2.738 . S
C151 O131 1.255 . S
C151 O132 1.249 . S
C151 C145 1.516 . S
H152 C138 0.930 . S
H153 C139 0.931 . S
H154 C140 0.931 . S
H155 C141 0.933 . S
H156 C147 0.930 . S
H157 C148 0.931 . S
H158 C149 0.931 . S
H159 C150 0.933 . S
Dy160 O163 2.307 . S
Dy160 O165 2.395 . S
Dy160 O166 2.379 . S
Dy160 O168 2.339 . S
Dy160 O170 2.298 1_655 S
Dy160 O174 2.275 1_655 S
Dy160 C182 2.738 . S
Dy161 O164 2.298 . S
Dy161 O167 2.275 . S
Dy161 O169 2.307 . S
Dy161 O171 2.395 . S
Dy161 O172 2.379 . S
Dy161 O175 2.339 . S
Dy161 C191 2.738 . S
C162 O174 1.254 . S
C162 O175 1.257 . S
O163 Dy160 2.307 . S
O163 C173 1.266 . S
O164 Dy161 2.298 . S
O164 C173 1.236 1_455 S
O165 Dy160 2.395 . S
O165 C182 1.255 . S
O166 Dy160 2.379 . S
O166 C182 1.249 . S
O167 Dy161 2.275 . S
O167 C183 1.254 . S
O168 Dy160 2.339 . S
O168 C183 1.257 1_655 S
O169 Dy161 2.307 . S
O169 C184 1.266 . S
O170 Dy160 2.298 1_455 S
O170 C184 1.236 . S
O171 Dy161 2.395 . S
O171 C191 1.255 . S
O172 Dy161 2.379 . S
O172 C191 1.249 . S
C173 O163 1.266 . S
C173 O164 1.236 1_655 S
O174 Dy160 2.275 1_455 S
O174 C162 1.254 . S
O175 Dy161 2.339 . S
O175 C162 1.257 . S
C176 C179 1.344 . S
C176 C180 1.328 . S
C176 C182 1.516 . S
C177 C178 1.304 . S
C177 C181 1.323 . S
C178 C177 1.304 . S
C178 C179 1.371 . S
C178 H192 0.930 . S
C179 C176 1.344 . S
C179 C178 1.371 . S
C179 H193 0.931 . S
C180 C176 1.328 . S
C180 C181 1.433 . S
C180 H194 0.931 . S
C181 C177 1.323 . S
C181 C180 1.433 . S
C181 H195 0.933 . S
C182 Dy160 2.738 . S
C182 O165 1.255 . S
C182 O166 1.249 . S
C182 C176 1.516 . S
C183 O167 1.254 . S
C183 O168 1.257 1_455 S
C184 O169 1.266 . S
C184 O170 1.236 . S
C185 C188 1.344 . S
C185 C189 1.328 . S
C185 C191 1.516 1_554 S
C186 C187 1.304 . S
C186 C190 1.323 . S
C187 C186 1.304 . S
C187 C188 1.371 . S
C187 H196 0.930 . S
C188 C185 1.344 . S
C188 C187 1.371 . S
C188 H197 0.931 . S
C189 C185 1.328 . S
C189 C190 1.433 . S
C189 H198 0.931 . S
C190 C186 1.323 . S
C190 C189 1.433 . S
C190 H199 0.933 . S
C191 Dy161 2.738 . S
C191 O171 1.255 . S
C191 O172 1.249 . S
C191 C185 1.516 1_556 S
H192 C178 0.930 . S
H193 C179 0.931 . S
H194 C180 0.931 . S
H195 C181 0.933 . S
H196 C187 0.930 . S
H197 C188 0.931 . S
H198 C189 0.931 . S
H199 C190 0.933 . S
Dy200 O203 2.307 . S
Dy200 O205 2.395 . S
Dy200 O206 2.379 . S
Dy200 O208 2.339 . S
Dy200 O210 2.298 . S
Dy200 O214 2.275 . S
Dy200 C222 2.738 . S
Dy201 O204 2.298 . S
Dy201 O207 2.275 . S
Dy201 O209 2.307 . S
Dy201 O211 2.395 . S
Dy201 O212 2.379 . S
Dy201 O215 2.339 . S
Dy201 C231 2.738 . S
C202 O214 1.254 . S
C202 O215 1.257 . S
O203 Dy200 2.307 . S
O203 C213 1.266 . S
O204 Dy201 2.298 . S
O204 C213 1.236 . S
O205 Dy200 2.395 . S
O205 C222 1.255 . S
O206 Dy200 2.379 . S
O206 C222 1.249 . S
O207 Dy201 2.275 . S
O207 C223 1.254 . S
O208 Dy200 2.339 . S
O208 C223 1.257 . S
O209 Dy201 2.307 . S
O209 C224 1.266 . S
O210 Dy200 2.298 . S
O210 C224 1.236 . S
O211 Dy201 2.395 . S
O211 C231 1.255 . S
O212 Dy201 2.379 . S
O212 C231 1.249 . S
C213 O203 1.266 . S
C213 O204 1.236 . S
O214 Dy200 2.275 . S
O214 C202 1.254 . S
O215 Dy201 2.339 . S
O215 C202 1.257 . S
C216 C219 1.344 . S
C216 C220 1.328 . S
C216 C222 1.516 1_556 S
C217 C218 1.304 . S
C217 C221 1.323 . S
C218 C217 1.304 . S
C218 C219 1.371 . S
C218 H232 0.930 . S
C219 C216 1.344 . S
C219 C218 1.371 . S
C219 H233 0.931 . S
C220 C216 1.328 . S
C220 C221 1.433 . S
C220 H234 0.931 . S
C221 C217 1.323 . S
C221 C220 1.433 . S
C221 H235 0.933 . S
C222 Dy200 2.738 . S
C222 O205 1.255 . S
C222 O206 1.249 . S
C222 C216 1.516 1_554 S
C223 O207 1.254 . S
C223 O208 1.257 . S
C224 O209 1.266 . S
C224 O210 1.236 . S
C225 C228 1.344 . S
C225 C229 1.328 . S
C225 C231 1.516 . S
C226 C227 1.304 . S
C226 C230 1.323 . S
C227 C226 1.304 . S
C227 C228 1.371 . S
C227 H236 0.930 . S
C228 C225 1.344 . S
C228 C227 1.371 . S
C228 H237 0.931 . S
C229 C225 1.328 . S
C229 C230 1.433 . S
C229 H238 0.931 . S
C230 C226 1.323 . S
C230 C229 1.433 . S
C230 H239 0.933 . S
C231 Dy201 2.738 . S
C231 O211 1.255 . S
C231 O212 1.249 . S
C231 C225 1.516 . S
H232 C218 0.930 . S
H233 C219 0.931 . S
H234 C220 0.931 . S
H235 C221 0.933 . S
H236 C227 0.930 . S
H237 C228 0.931 . S
H238 C229 0.931 . S
H239 C230 0.933 . S
Dy240 O243 2.307 . S
Dy240 O245 2.395 . S
Dy240 O246 2.379 . S
Dy240 O248 2.339 . S
Dy240 O250 2.298 . S
Dy240 O254 2.275 . S
Dy240 C262 2.738 . S
Dy241 O244 2.298 . S
Dy241 O247 2.275 . S
Dy241 O249 2.307 . S
Dy241 O251 2.395 . S
Dy241 O252 2.379 . S
Dy241 O255 2.339 . S
Dy241 C271 2.738 . S
C242 O254 1.254 . S
C242 O255 1.257 . S
O243 Dy240 2.307 . S
O243 C253 1.266 . S
O244 Dy241 2.298 . S
O244 C253 1.236 . S
O245 Dy240 2.395 . S
O245 C262 1.255 . S
O246 Dy240 2.379 . S
O246 C262 1.249 . S
O247 Dy241 2.275 . S
O247 C263 1.254 . S
O248 Dy240 2.339 . S
O248 C263 1.257 . S
O249 Dy241 2.307 . S
O249 C264 1.266 . S
O250 Dy240 2.298 . S
O250 C264 1.236 . S
O251 Dy241 2.395 . S
O251 C271 1.255 . S
O252 Dy241 2.379 . S
O252 C271 1.249 . S
C253 O243 1.266 . S
C253 O244 1.236 . S
O254 Dy240 2.275 . S
O254 C242 1.254 . S
O255 Dy241 2.339 . S
O255 C242 1.257 . S
C256 C259 1.344 . S
C256 C260 1.328 . S
C256 C262 1.516 . S
C257 C258 1.304 . S
C257 C261 1.323 . S
C258 C257 1.304 . S
C258 C259 1.371 . S
C258 H272 0.930 . S
C259 C256 1.344 . S
C259 C258 1.371 . S
C259 H273 0.931 . S
C260 C256 1.328 . S
C260 C261 1.433 . S
C260 H274 0.931 . S
C261 C257 1.323 . S
C261 C260 1.433 . S
C261 H275 0.933 . S
C262 Dy240 2.738 . S
C262 O245 1.255 . S
C262 O246 1.249 . S
C262 C256 1.516 . S
C263 O247 1.254 . S
C263 O248 1.257 . S
C264 O249 1.266 . S
C264 O250 1.236 . S
C265 C268 1.344 . S
C265 C269 1.328 . S
C265 C271 1.516 . S
C266 C267 1.304 . S
C266 C270 1.323 . S
C267 C266 1.304 . S
C267 C268 1.371 . S
C267 H276 0.930 . S
C268 C265 1.344 . S
C268 C267 1.371 . S
C268 H277 0.931 . S
C269 C265 1.328 . S
C269 C270 1.433 . S
C269 H278 0.931 . S
C270 C266 1.323 . S
C270 C269 1.433 . S
C270 H279 0.933 . S
C271 Dy241 2.738 . S
C271 O251 1.255 . S
C271 O252 1.249 . S
C271 C265 1.516 . S
H272 C258 0.930 . S
H273 C259 0.931 . S
H274 C260 0.931 . S
H275 C261 0.933 . S
H276 C267 0.930 . S
H277 C268 0.931 . S
H278 C269 0.931 . S
H279 C270 0.933 . S
Dy280 O283 2.307 . S
Dy280 O285 2.395 . S
Dy280 O286 2.379 . S
Dy280 O288 2.339 . S
Dy280 O290 2.298 . S
Dy280 O294 2.275 . S
Dy280 C302 2.738 . S
Dy281 O284 2.298 . S
Dy281 O287 2.275 . S
Dy281 O289 2.307 . S
Dy281 O291 2.395 . S
Dy281 O292 2.379 . S
Dy281 O295 2.339 . S
Dy281 C311 2.738 . S
C282 O294 1.254 . S
C282 O295 1.257 . S
O283 Dy280 2.307 . S
O283 C293 1.266 . S
O284 Dy281 2.298 . S
O284 C293 1.236 . S
O285 Dy280 2.395 . S
O285 C302 1.255 . S
O286 Dy280 2.379 . S
O286 C302 1.249 . S
O287 Dy281 2.275 . S
O287 C303 1.254 . S
O288 Dy280 2.339 . S
O288 C303 1.257 . S
O289 Dy281 2.307 . S
O289 C304 1.266 . S
O290 Dy280 2.298 . S
O290 C304 1.236 . S
O291 Dy281 2.395 . S
O291 C311 1.255 . S
O292 Dy281 2.379 . S
O292 C311 1.249 . S
C293 O283 1.266 . S
C293 O284 1.236 . S
O294 Dy280 2.275 . S
O294 C282 1.254 . S
O295 Dy281 2.339 . S
O295 C282 1.257 . S
C296 C299 1.344 . S
C296 C300 1.328 . S
C296 C302 1.516 . S
C297 C298 1.304 . S
C297 C301 1.323 . S
C298 C297 1.304 . S
C298 C299 1.371 . S
C298 H312 0.930 . S
C299 C296 1.344 . S
C299 C298 1.371 . S
C299 H313 0.931 . S
C300 C296 1.328 . S
C300 C301 1.433 . S
C300 H314 0.931 . S
C301 C297 1.323 . S
C301 C300 1.433 . S
C301 H315 0.933 . S
C302 Dy280 2.738 . S
C302 O285 1.255 . S
C302 O286 1.249 . S
C302 C296 1.516 . S
C303 O287 1.254 . S
C303 O288 1.257 . S
C304 O289 1.266 . S
C304 O290 1.236 . S
C305 C308 1.344 . S
C305 C309 1.328 . S
C305 C311 1.516 . S
C306 C307 1.304 . S
C306 C310 1.323 . S
C307 C306 1.304 . S
C307 C308 1.371 . S
C307 H316 0.930 . S
C308 C305 1.344 . S
C308 C307 1.371 . S
C308 H317 0.931 . S
C309 C305 1.328 . S
C309 C310 1.433 . S
C309 H318 0.931 . S
C310 C306 1.323 . S
C310 C309 1.433 . S
C310 H319 0.933 . S
C311 Dy281 2.738 . S
C311 O291 1.255 . S
C311 O292 1.249 . S
C311 C305 1.516 . S
H312 C298 0.930 . S
H313 C299 0.931 . S
H314 C300 0.931 . S
H315 C301 0.933 . S
H316 C307 0.930 . S
H317 C308 0.931 . S
H318 C309 0.931 . S
H319 C310 0.933 . S
Dy320 O323 2.307 . S
Dy320 O325 2.395 . S
Dy320 O326 2.379 . S
Dy320 O328 2.339 . S
Dy320 O330 2.298 . S
Dy320 O334 2.275 . S
Dy320 C342 2.738 . S
Dy321 O324 2.298 . S
Dy321 O327 2.275 . S
Dy321 O329 2.307 . S
Dy321 O331 2.395 . S
Dy321 O332 2.379 . S
Dy321 O335 2.339 . S
Dy321 C351 2.738 . S
C322 O334 1.254 . S
C322 O335 1.257 . S
O323 Dy320 2.307 . S
O323 C333 1.266 . S
O324 Dy321 2.298 . S
O324 C333 1.236 . S
O325 Dy320 2.395 . S
O325 C342 1.255 . S
O326 Dy320 2.379 . S
O326 C342 1.249 . S
O327 Dy321 2.275 . S
O327 C343 1.254 . S
O328 Dy320 2.339 . S
O328 C343 1.257 . S
O329 Dy321 2.307 . S
O329 C344 1.266 . S
O330 Dy320 2.298 . S
O330 C344 1.236 . S
O331 Dy321 2.395 . S
O331 C351 1.255 . S
O332 Dy321 2.379 . S
O332 C351 1.249 . S
C333 O323 1.266 . S
C333 O324 1.236 . S
O334 Dy320 2.275 . S
O334 C322 1.254 . S
O335 Dy321 2.339 . S
O335 C322 1.257 . S
C336 C339 1.344 . S
C336 C340 1.328 . S
C336 C342 1.516 . S
C337 C338 1.304 . S
C337 C341 1.323 . S
C338 C337 1.304 . S
C338 C339 1.371 . S
C338 H352 0.930 . S
C339 C336 1.344 . S
C339 C338 1.371 . S
C339 H353 0.931 . S
C340 C336 1.328 . S
C340 C341 1.433 . S
C340 H354 0.931 . S
C341 C337 1.323 . S
C341 C340 1.433 . S
C341 H355 0.933 . S
C342 Dy320 2.738 . S
C342 O325 1.255 . S
C342 O326 1.249 . S
C342 C336 1.516 . S
C343 O327 1.254 . S
C343 O328 1.257 . S
C344 O329 1.266 . S
C344 O330 1.236 . S
C345 C348 1.344 . S
C345 C349 1.328 . S
C345 C351 1.516 . S
C346 C347 1.304 . S
C346 C350 1.323 . S
C347 C346 1.304 . S
C347 C348 1.371 . S
C347 H356 0.930 . S
C348 C345 1.344 . S
C348 C347 1.371 . S
C348 H357 0.931 . S
C349 C345 1.328 . S
C349 C350 1.433 . S
C349 H358 0.931 . S
C350 C346 1.323 . S
C350 C349 1.433 . S
C350 H359 0.933 . S
C351 Dy321 2.738 . S
C351 O331 1.255 . S
C351 O332 1.249 . S
C351 C345 1.516 . S
H352 C338 0.930 . S
H353 C339 0.931 . S
H354 C340 0.931 . S
H355 C341 0.933 . S
H356 C347 0.930 . S
H357 C348 0.931 . S
H358 C349 0.931 . S
H359 C350 0.933 . S
Dy360 O363 2.307 . S
Dy360 O365 2.395 . S
Dy360 O366 2.379 . S
Dy360 O368 2.339 . S
Dy360 O370 2.298 . S
Dy360 O374 2.275 . S
Dy360 C382 2.738 . S
Dy361 O364 2.298 . S
Dy361 O367 2.275 . S
Dy361 O369 2.307 . S
Dy361 O371 2.395 . S
Dy361 O372 2.379 . S
Dy361 O375 2.339 . S
Dy361 C391 2.738 . S
C362 O374 1.254 . S
C362 O375 1.257 . S
O363 Dy360 2.307 . S
O363 C373 1.266 . S
O364 Dy361 2.298 . S
O364 C373 1.236 . S
O365 Dy360 2.395 . S
O365 C382 1.255 . S
O366 Dy360 2.379 . S
O366 C382 1.249 . S
O367 Dy361 2.275 . S
O367 C383 1.254 . S
O368 Dy360 2.339 . S
O368 C383 1.257 . S
O369 Dy361 2.307 . S
O369 C384 1.266 . S
O370 Dy360 2.298 . S
O370 C384 1.236 . S
O371 Dy361 2.395 . S
O371 C391 1.255 . S
O372 Dy361 2.379 . S
O372 C391 1.249 . S
C373 O363 1.266 . S
C373 O364 1.236 . S
O374 Dy360 2.275 . S
O374 C362 1.254 . S
O375 Dy361 2.339 . S
O375 C362 1.257 . S
C376 C379 1.344 . S
C376 C380 1.328 . S
C376 C382 1.516 1_556 S
C377 C378 1.304 . S
C377 C381 1.323 . S
C378 C377 1.304 . S
C378 C379 1.371 . S
C378 H392 0.930 . S
C379 C376 1.344 . S
C379 C378 1.371 . S
C379 H393 0.931 . S
C380 C376 1.328 . S
C380 C381 1.433 . S
C380 H394 0.931 . S
C381 C377 1.323 . S
C381 C380 1.433 . S
C381 H395 0.933 . S
C382 Dy360 2.738 . S
C382 O365 1.255 . S
C382 O366 1.249 . S
C382 C376 1.516 1_554 S
C383 O367 1.254 . S
C383 O368 1.257 . S
C384 O369 1.266 . S
C384 O370 1.236 . S
C385 C388 1.344 . S
C385 C389 1.328 . S
C385 C391 1.516 . S
C386 C387 1.304 . S
C386 C390 1.323 . S
C387 C386 1.304 . S
C387 C388 1.371 . S
C387 H396 0.930 . S
C388 C385 1.344 . S
C388 C387 1.371 . S
C388 H397 0.931 . S
C389 C385 1.328 . S
C389 C390 1.433 . S
C389 H398 0.931 . S
C390 C386 1.323 . S
C390 C389 1.433 . S
C390 H399 0.933 . S
C391 Dy361 2.738 . S
C391 O371 1.255 . S
C391 O372 1.249 . S
C391 C385 1.516 . S
H392 C378 0.930 . S
H393 C379 0.931 . S
H394 C380 0.931 . S
H395 C381 0.933 . S
H396 C387 0.930 . S
H397 C388 0.931 . S
H398 C389 0.931 . S
H399 C390 0.933 . S
Dy400 O403 2.307 . S
Dy400 O405 2.395 . S
Dy400 O406 2.379 . S
Dy400 O408 2.339 . S
Dy400 O410 2.298 . S
Dy400 O414 2.275 . S
Dy400 C422 2.738 . S
Dy401 O404 2.298 . S
Dy401 O407 2.275 . S
Dy401 O409 2.307 . S
Dy401 O411 2.395 . S
Dy401 O412 2.379 . S
Dy401 O415 2.339 . S
Dy401 C431 2.738 . S
C402 O414 1.254 . S
C402 O415 1.257 . S
O403 Dy400 2.307 . S
O403 C413 1.266 . S
O404 Dy401 2.298 . S
O404 C413 1.236 . S
O405 Dy400 2.395 . S
O405 C422 1.255 . S
O406 Dy400 2.379 . S
O406 C422 1.249 . S
O407 Dy401 2.275 . S
O407 C423 1.254 . S
O408 Dy400 2.339 . S
O408 C423 1.257 . S
O409 Dy401 2.307 . S
O409 C424 1.266 . S
O410 Dy400 2.298 . S
O410 C424 1.236 . S
O411 Dy401 2.395 . S
O411 C431 1.255 . S
O412 Dy401 2.379 . S
O412 C431 1.249 . S
C413 O403 1.266 . S
C413 O404 1.236 . S
O414 Dy400 2.275 . S
O414 C402 1.254 . S
O415 Dy401 2.339 . S
O415 C402 1.257 . S
C416 C419 1.344 . S
C416 C420 1.328 . S
C416 C422 1.516 1_554 S
C417 C418 1.304 . S
C417 C421 1.323 . S
C418 C417 1.304 . S
C418 C419 1.371 . S
C418 H432 0.930 . S
C419 C416 1.344 . S
C419 C418 1.371 . S
C419 H433 0.931 . S
C420 C416 1.328 . S
C420 C421 1.433 . S
C420 H434 0.931 . S
C421 C417 1.323 . S
C421 C420 1.433 . S
C421 H435 0.933 . S
C422 Dy400 2.738 . S
C422 O405 1.255 . S
C422 O406 1.249 . S
C422 C416 1.516 1_556 S
C423 O407 1.254 . S
C423 O408 1.257 . S
C424 O409 1.266 . S
C424 O410 1.236 . S
C425 C428 1.344 . S
C425 C429 1.328 . S
C425 C431 1.516 . S
C426 C427 1.304 . S
C426 C430 1.323 . S
C427 C426 1.304 . S
C427 C428 1.371 . S
C427 H436 0.930 . S
C428 C425 1.344 . S
C428 C427 1.371 . S
C428 H437 0.931 . S
C429 C425 1.328 . S
C429 C430 1.433 . S
C429 H438 0.931 . S
C430 C426 1.323 . S
C430 C429 1.433 . S
C430 H439 0.933 . S
C431 Dy401 2.738 . S
C431 O411 1.255 . S
C431 O412 1.249 . S
C431 C425 1.516 . S
H432 C418 0.930 . S
H433 C419 0.931 . S
H434 C420 0.931 . S
H435 C421 0.933 . S
H436 C427 0.930 . S
H437 C428 0.931 . S
H438 C429 0.931 . S
H439 C430 0.933 . S
Dy440 O443 2.307 . S
Dy440 O445 2.395 . S
Dy440 O446 2.379 . S
Dy440 O448 2.339 . S
Dy440 O450 2.298 . S
Dy440 O454 2.275 . S
Dy440 C462 2.738 . S
Dy441 O444 2.298 . S
Dy441 O447 2.275 . S
Dy441 O449 2.307 . S
Dy441 O451 2.395 . S
Dy441 O452 2.379 . S
Dy441 O455 2.339 . S
Dy441 C471 2.738 . S
C442 O454 1.254 . S
C442 O455 1.257 . S
O443 Dy440 2.307 . S
O443 C453 1.266 . S
O444 Dy441 2.298 . S
O444 C453 1.236 . S
O445 Dy440 2.395 . S
O445 C462 1.255 . S
O446 Dy440 2.379 . S
O446 C462 1.249 . S
O447 Dy441 2.275 . S
O447 C463 1.254 . S
O448 Dy440 2.339 . S
O448 C463 1.257 . S
O449 Dy441 2.307 . S
O449 C464 1.266 . S
O450 Dy440 2.298 . S
O450 C464 1.236 . S
O451 Dy441 2.395 . S
O451 C471 1.255 . S
O452 Dy441 2.379 . S
O452 C471 1.249 . S
C453 O443 1.266 . S
C453 O444 1.236 . S
O454 Dy440 2.275 . S
O454 C442 1.254 . S
O455 Dy441 2.339 . S
O455 C442 1.257 . S
C456 C459 1.344 . S
C456 C460 1.328 . S
C456 C462 1.516 . S
C457 C458 1.304 . S
C457 C461 1.323 . S
C458 C457 1.304 . S
C458 C459 1.371 . S
C458 H472 0.930 . S
C459 C456 1.344 . S
C459 C458 1.371 . S
C459 H473 0.931 . S
C460 C456 1.328 . S
C460 C461 1.433 . S
C460 H474 0.931 . S
C461 C457 1.323 . S
C461 C460 1.433 . S
C461 H475 0.933 . S
C462 Dy440 2.738 . S
C462 O445 1.255 . S
C462 O446 1.249 . S
C462 C456 1.516 . S
C463 O447 1.254 . S
C463 O448 1.257 . S
C464 O449 1.266 . S
C464 O450 1.236 . S
C465 C468 1.344 . S
C465 C469 1.328 . S
C465 C471 1.516 . S
C466 C467 1.304 . S
C466 C470 1.323 . S
C467 C466 1.304 . S
C467 C468 1.371 . S
C467 H476 0.930 . S
C468 C465 1.344 . S
C468 C467 1.371 . S
C468 H477 0.931 . S
C469 C465 1.328 . S
C469 C470 1.433 . S
C469 H478 0.931 . S
C470 C466 1.323 . S
C470 C469 1.433 . S
C470 H479 0.933 . S
C471 Dy441 2.738 . S
C471 O451 1.255 . S
C471 O452 1.249 . S
C471 C465 1.516 . S
H472 C458 0.930 . S
H473 C459 0.931 . S
H474 C460 0.931 . S
H475 C461 0.933 . S
H476 C467 0.930 . S
H477 C468 0.931 . S
H478 C469 0.931 . S
H479 C470 0.933 . S
Dy480 O483 2.307 . S
Dy480 O485 2.395 . S
Dy480 O486 2.379 . S
Dy480 O488 2.339 . S
Dy480 O490 2.298 . S
Dy480 O494 2.275 . S
Dy480 C502 2.738 . S
Dy481 O484 2.298 . S
Dy481 O487 2.275 . S
Dy481 O489 2.307 . S
Dy481 O491 2.395 . S
Dy481 O492 2.379 . S
Dy481 O495 2.339 . S
Dy481 C511 2.738 . S
C482 O494 1.254 . S
C482 O495 1.257 . S
O483 Dy480 2.307 . S
O483 C493 1.266 . S
O484 Dy481 2.298 . S
O484 C493 1.236 . S
O485 Dy480 2.395 . S
O485 C502 1.255 . S
O486 Dy480 2.379 . S
O486 C502 1.249 . S
O487 Dy481 2.275 . S
O487 C503 1.254 . S
O488 Dy480 2.339 . S
O488 C503 1.257 . S
O489 Dy481 2.307 . S
O489 C504 1.266 . S
O490 Dy480 2.298 . S
O490 C504 1.236 . S
O491 Dy481 2.395 . S
O491 C511 1.255 . S
O492 Dy481 2.379 . S
O492 C511 1.249 . S
C493 O483 1.266 . S
C493 O484 1.236 . S
O494 Dy480 2.275 . S
O494 C482 1.254 . S
O495 Dy481 2.339 . S
O495 C482 1.257 . S
C496 C499 1.344 . S
C496 C500 1.328 . S
C496 C502 1.516 . S
C497 C498 1.304 . S
C497 C501 1.323 . S
C498 C497 1.304 . S
C498 C499 1.371 . S
C498 H512 0.930 . S
C499 C496 1.344 . S
C499 C498 1.371 . S
C499 H513 0.931 . S
C500 C496 1.328 . S
C500 C501 1.433 . S
C500 H514 0.931 . S
C501 C497 1.323 . S
C501 C500 1.433 . S
C501 H515 0.933 . S
C502 Dy480 2.738 . S
C502 O485 1.255 . S
C502 O486 1.249 . S
C502 C496 1.516 . S
C503 O487 1.254 . S
C503 O488 1.257 . S
C504 O489 1.266 . S
C504 O490 1.236 . S
C505 C508 1.344 . S
C505 C509 1.328 . S
C505 C511 1.516 . S
C506 C507 1.304 . S
C506 C510 1.323 . S
C507 C506 1.304 . S
C507 C508 1.371 . S
C507 H516 0.930 . S
C508 C505 1.344 . S
C508 C507 1.371 . S
C508 H517 0.931 . S
C509 C505 1.328 . S
C509 C510 1.433 . S
C509 H518 0.931 . S
C510 C506 1.323 . S
C510 C509 1.433 . S
C510 H519 0.933 . S
C511 Dy481 2.738 . S
C511 O491 1.255 . S
C511 O492 1.249 . S
C511 C505 1.516 . S
H512 C498 0.930 . S
H513 C499 0.931 . S
H514 C500 0.931 . S
H515 C501 0.933 . S
H516 C507 0.930 . S
H517 C508 0.931 . S
H518 C509 0.931 . S
H519 C510 0.933 . S
Dy520 O523 2.307 . S
Dy520 O525 2.395 . S
Dy520 O526 2.379 . S
Dy520 O528 2.339 . S
Dy520 O530 2.298 . S
Dy520 O534 2.275 . S
Dy520 C542 2.738 . S
Dy521 O524 2.298 1_655 S
Dy521 O527 2.275 . S
Dy521 O529 2.307 . S
Dy521 O531 2.395 . S
Dy521 O532 2.379 . S
Dy521 O535 2.339 . S
Dy521 C551 2.738 . S
C522 O534 1.254 . S
C522 O535 1.257 1_455 S
O523 Dy520 2.307 . S
O523 C533 1.266 . S
O524 Dy521 2.298 1_455 S
O524 C533 1.236 . S
O525 Dy520 2.395 . S
O525 C542 1.255 . S
O526 Dy520 2.379 . S
O526 C542 1.249 . S
O527 Dy521 2.275 . S
O527 C543 1.254 1_655 S
O528 Dy520 2.339 . S
O528 C543 1.257 . S
O529 Dy521 2.307 . S
O529 C544 1.266 . S
O530 Dy520 2.298 . S
O530 C544 1.236 1_455 S
O531 Dy521 2.395 . S
O531 C551 1.255 . S
O532 Dy521 2.379 . S
O532 C551 1.249 . S
C533 O523 1.266 . S
C533 O524 1.236 . S
O534 Dy520 2.275 . S
O534 C522 1.254 . S
O535 Dy521 2.339 . S
O535 C522 1.257 1_655 S
C536 C539 1.344 . S
C536 C540 1.328 . S
C536 C542 1.516 . S
C537 C538 1.304 . S
C537 C541 1.323 . S
C538 C537 1.304 . S
C538 C539 1.371 . S
C538 H552 0.930 . S
C539 C536 1.344 . S
C539 C538 1.371 . S
C539 H553 0.931 . S
C540 C536 1.328 . S
C540 C541 1.433 . S
C540 H554 0.931 . S
C541 C537 1.323 . S
C541 C540 1.433 . S
C541 H555 0.933 . S
C542 Dy520 2.738 . S
C542 O525 1.255 . S
C542 O526 1.249 . S
C542 C536 1.516 . S
C543 O527 1.254 1_455 S
C543 O528 1.257 . S
C544 O529 1.266 . S
C544 O530 1.236 1_655 S
C545 C548 1.344 . S
C545 C549 1.328 . S
C545 C551 1.516 1_556 S
C546 C547 1.304 . S
C546 C550 1.323 . S
C547 C546 1.304 . S
C547 C548 1.371 . S
C547 H556 0.930 . S
C548 C545 1.344 . S
C548 C547 1.371 . S
C548 H557 0.931 . S
C549 C545 1.328 . S
C549 C550 1.433 . S
C549 H558 0.931 . S
C550 C546 1.323 . S
C550 C549 1.433 . S
C550 H559 0.933 . S
C551 Dy521 2.738 . S
C551 O531 1.255 . S
C551 O532 1.249 . S
C551 C545 1.516 1_554 S
H552 C538 0.930 . S
H553 C539 0.931 . S
H554 C540 0.931 . S
H555 C541 0.933 . S
H556 C547 0.930 . S
H557 C548 0.931 . S
H558 C549 0.931 . S
H559 C550 0.933 . S
Dy560 O563 2.307 . S
Dy560 O565 2.395 . S
Dy560 O566 2.379 . S
Dy560 O568 2.339 . S
Dy560 O570 2.298 . S
Dy560 O574 2.275 . S
Dy560 C582 2.738 . S
Dy561 O564 2.298 . S
Dy561 O567 2.275 . S
Dy561 O569 2.307 . S
Dy561 O571 2.395 . S
Dy561 O572 2.379 . S
Dy561 O575 2.339 . S
Dy561 C591 2.738 . S
C562 O574 1.254 . S
C562 O575 1.257 . S
O563 Dy560 2.307 . S
O563 C573 1.266 . S
O564 Dy561 2.298 . S
O564 C573 1.236 . S
O565 Dy560 2.395 . S
O565 C582 1.255 . S
O566 Dy560 2.379 . S
O566 C582 1.249 . S
O567 Dy561 2.275 . S
O567 C583 1.254 . S
O568 Dy560 2.339 . S
O568 C583 1.257 . S
O569 Dy561 2.307 . S
O569 C584 1.266 . S
O570 Dy560 2.298 . S
O570 C584 1.236 . S
O571 Dy561 2.395 . S
O571 C591 1.255 . S
O572 Dy561 2.379 . S
O572 C591 1.249 . S
C573 O563 1.266 . S
C573 O564 1.236 . S
O574 Dy560 2.275 . S
O574 C562 1.254 . S
O575 Dy561 2.339 . S
O575 C562 1.257 . S
C576 C579 1.344 . S
C576 C580 1.328 . S
C576 C582 1.516 . S
C577 C578 1.304 . S
C577 C581 1.323 . S
C578 C577 1.304 . S
C578 C579 1.371 . S
C578 H592 0.930 . S
C579 C576 1.344 . S
C579 C578 1.371 . S
C579 H593 0.931 . S
C580 C576 1.328 . S
C580 C581 1.433 . S
C580 H594 0.931 . S
C581 C577 1.323 . S
C581 C580 1.433 . S
C581 H595 0.933 . S
C582 Dy560 2.738 . S
C582 O565 1.255 . S
C582 O566 1.249 . S
C582 C576 1.516 . S
C583 O567 1.254 . S
C583 O568 1.257 . S
C584 O569 1.266 . S
C584 O570 1.236 . S
C585 C588 1.344 . S
C585 C589 1.328 . S
C585 C591 1.516 . S
C586 C587 1.304 . S
C586 C590 1.323 . S
C587 C586 1.304 . S
C587 C588 1.371 . S
C587 H596 0.930 . S
C588 C585 1.344 . S
C588 C587 1.371 . S
C588 H597 0.931 . S
C589 C585 1.328 . S
C589 C590 1.433 . S
C589 H598 0.931 . S
C590 C586 1.323 . S
C590 C589 1.433 . S
C590 H599 0.933 . S
C591 Dy561 2.738 . S
C591 O571 1.255 . S
C591 O572 1.249 . S
C591 C585 1.516 . S
H592 C578 0.930 . S
H593 C579 0.931 . S
H594 C580 0.931 . S
H595 C581 0.933 . S
H596 C587 0.930 . S
H597 C588 0.931 . S
H598 C589 0.931 . S
H599 C590 0.933 . S
Dy600 O603 2.307 . S
Dy600 O605 2.395 . S
Dy600 O606 2.379 . S
Dy600 O608 2.339 . S
Dy600 O610 2.298 . S
Dy600 O614 2.275 . S
Dy600 C622 2.738 . S
Dy601 O604 2.298 1_655 S
Dy601 O607 2.275 . S
Dy601 O609 2.307 . S
Dy601 O611 2.395 . S
Dy601 O612 2.379 . S
Dy601 O615 2.339 . S
Dy601 C631 2.738 . S
C602 O614 1.254 . S
C602 O615 1.257 1_455 S
O603 Dy600 2.307 . S
O603 C613 1.266 . S
O604 Dy601 2.298 1_455 S
O604 C613 1.236 . S
O605 Dy600 2.395 . S
O605 C622 1.255 . S
O606 Dy600 2.379 . S
O606 C622 1.249 . S
O607 Dy601 2.275 . S
O607 C623 1.254 1_655 S
O608 Dy600 2.339 . S
O608 C623 1.257 . S
O609 Dy601 2.307 . S
O609 C624 1.266 . S
O610 Dy600 2.298 . S
O610 C624 1.236 1_455 S
O611 Dy601 2.395 . S
O611 C631 1.255 . S
O612 Dy601 2.379 . S
O612 C631 1.249 . S
C613 O603 1.266 . S
C613 O604 1.236 . S
O614 Dy600 2.275 . S
O614 C602 1.254 . S
O615 Dy601 2.339 . S
O615 C602 1.257 1_655 S
C616 C619 1.344 . S
C616 C620 1.328 . S
C616 C622 1.516 . S
C617 C618 1.304 . S
C617 C621 1.323 . S
C618 C617 1.304 . S
C618 C619 1.371 . S
C618 H632 0.930 . S
C619 C616 1.344 . S
C619 C618 1.371 . S
C619 H633 0.931 . S
C620 C616 1.328 . S
C620 C621 1.433 . S
C620 H634 0.931 . S
C621 C617 1.323 . S
C621 C620 1.433 . S
C621 H635 0.933 . S
C622 Dy600 2.738 . S
C622 O605 1.255 . S
C622 O606 1.249 . S
C622 C616 1.516 . S
C623 O607 1.254 1_455 S
C623 O608 1.257 . S
C624 O609 1.266 . S
C624 O610 1.236 1_655 S
C625 C628 1.344 . S
C625 C629 1.328 . S
C625 C631 1.516 1_554 S
C626 C627 1.304 . S
C626 C630 1.323 . S
C627 C626 1.304 . S
C627 C628 1.371 . S
C627 H636 0.930 . S
C628 C625 1.344 . S
C628 C627 1.371 . S
C628 H637 0.931 . S
C629 C625 1.328 . S
C629 C630 1.433 . S
C629 H638 0.931 . S
C630 C626 1.323 . S
C630 C629 1.433 . S
C630 H639 0.933 . S
C631 Dy601 2.738 . S
C631 O611 1.255 . S
C631 O612 1.249 . S
C631 C625 1.516 1_556 S
H632 C618 0.930 . S
H633 C619 0.931 . S
H634 C620 0.931 . S
H635 C621 0.933 . S
H636 C627 0.930 . S
H637 C628 0.931 . S
H638 C629 0.931 . S
H639 C630 0.933 . S
H640 C646 0.930 . S
H641 C650 0.930 . S
H642 C655 0.929 . S
H643 C653 0.929 . S
H644 C648 0.929 . S
H645 C654 0.929 . S
C646 H640 0.930 . S
C646 C647 1.367 . S
C646 C654 1.378 . S
C647 C646 1.367 . S
C647 C655 1.433 . S
C648 H644 0.929 . S
C648 C650 1.378 . S
C648 C652 1.350 . S
C649 C652 1.463 . S
C649 C654 1.350 . S
C649 N657 1.427 . S
C650 H641 0.930 . S
C650 C648 1.378 . S
C650 C651 1.367 . S
C651 C650 1.367 . S
C651 C653 1.433 . S
C652 C648 1.350 . S
C652 C649 1.463 . S
C652 N656 1.427 . S
C653 H643 0.929 . S
C653 C651 1.433 . S
C653 N656 1.384 . S
C654 H645 0.929 . S
C654 C646 1.378 . S
C654 C649 1.350 . S
C655 H642 0.929 . S
C655 C647 1.433 . S
C655 N657 1.384 . S
N656 C652 1.427 . S
N656 C653 1.384 . S
N657 C649 1.427 . S
N657 C655 1.384 . S
H658 C664 0.930 . S
H659 C668 0.930 . S
H660 C673 0.929 . S
H661 C671 0.929 . S
H662 C666 0.929 . S
H663 C672 0.929 . S
C664 H658 0.930 . S
C664 C665 1.367 . S
C664 C672 1.378 . S
C665 C664 1.367 . S
C665 C673 1.433 . S
C666 H662 0.929 . S
C666 C668 1.378 . S
C666 C670 1.350 . S
C667 C670 1.463 . S
C667 C672 1.350 . S
C667 N675 1.427 . S
C668 H659 0.930 . S
C668 C666 1.378 . S
C668 C669 1.367 . S
C669 C668 1.367 . S
C669 C671 1.433 . S
C670 C666 1.350 . S
C670 C667 1.463 . S
C670 N674 1.427 . S
C671 H661 0.929 . S
C671 C669 1.433 . S
C671 N674 1.384 . S
C672 H663 0.929 . S
C672 C664 1.378 . S
C672 C667 1.350 . S
C673 H660 0.929 . S
C673 C665 1.433 . S
C673 N675 1.384 . S
N674 C670 1.427 . S
N674 C671 1.384 . S
N675 C667 1.427 . S
N675 C673 1.384 . S
H676 C682 0.930 . S
H677 C686 0.930 . S
H678 C691 0.929 . S
H679 C689 0.929 . S
H680 C684 0.929 . S
H681 C690 0.929 . S
C682 H676 0.930 . S
C682 C683 1.367 . S
C682 C690 1.378 . S
C683 C682 1.367 . S
C683 C691 1.433 . S
C684 H680 0.929 . S
C684 C686 1.378 . S
C684 C688 1.350 . S
C685 C688 1.463 . S
C685 C690 1.350 . S
C685 N693 1.427 . S
C686 H677 0.930 . S
C686 C684 1.378 . S
C686 C687 1.367 . S
C687 C686 1.367 . S
C687 C689 1.433 . S
C688 C684 1.350 . S
C688 C685 1.463 . S
C688 N692 1.427 . S
C689 H679 0.929 . S
C689 C687 1.433 . S
C689 N692 1.384 . S
C690 H681 0.929 . S
C690 C682 1.378 . S
C690 C685 1.350 . S
C691 H678 0.929 . S
C691 C683 1.433 . S
C691 N693 1.384 . S
N692 C688 1.427 . S
N692 C689 1.384 . S
N693 C685 1.427 . S
N693 C691 1.384 . S
H694 C700 0.930 . S
H695 C704 0.930 . S
H696 C709 0.929 . S
H697 C707 0.929 . S
H698 C702 0.929 . S
H699 C708 0.929 . S
C700 H694 0.930 . S
C700 C701 1.367 . S
C700 C708 1.378 . S
C701 C700 1.367 . S
C701 C709 1.433 . S
C702 H698 0.929 . S
C702 C704 1.378 . S
C702 C706 1.350 . S
C703 C706 1.463 . S
C703 C708 1.350 . S
C703 N711 1.427 . S
C704 H695 0.930 . S
C704 C702 1.378 . S
C704 C705 1.367 . S
C705 C704 1.367 . S
C705 C707 1.433 . S
C706 C702 1.350 . S
C706 C703 1.463 . S
C706 N710 1.427 . S
C707 H697 0.929 . S
C707 C705 1.433 . S
C707 N710 1.384 . S
C708 H699 0.929 . S
C708 C700 1.378 . S
C708 C703 1.350 . S
C709 H696 0.929 . S
C709 C701 1.433 . S
C709 N711 1.384 . S
N710 C706 1.427 . S
N710 C707 1.384 . S
N711 C703 1.427 . S
N711 C709 1.384 . S
H712 C718 0.930 . S
H713 C722 0.930 . S
H714 C727 0.929 . S
H715 C725 0.929 . S
H716 C720 0.929 . S
H717 C726 0.929 . S
C718 H712 0.930 . S
C718 C719 1.367 . S
C718 C726 1.378 . S
C719 C718 1.367 . S
C719 C727 1.433 . S
C720 H716 0.929 . S
C720 C722 1.378 . S
C720 C724 1.350 . S
C721 C724 1.463 . S
C721 C726 1.350 . S
C721 N729 1.427 . S
C722 H713 0.930 . S
C722 C720 1.378 . S
C722 C723 1.367 . S
C723 C722 1.367 . S
C723 C725 1.433 . S
C724 C720 1.350 . S
C724 C721 1.463 . S
C724 N728 1.427 . S
C725 H715 0.929 . S
C725 C723 1.433 . S
C725 N728 1.384 . S
C726 H717 0.929 . S
C726 C718 1.378 . S
C726 C721 1.350 . S
C727 H714 0.929 . S
C727 C719 1.433 . S
C727 N729 1.384 . S
N728 C724 1.427 . S
N728 C725 1.384 . S
N729 C721 1.427 . S
N729 C727 1.384 . S
H730 C736 0.930 . S
H731 C740 0.930 . S
H732 C745 0.929 . S
H733 C743 0.929 . S
H734 C738 0.929 . S
H735 C744 0.929 . S
C736 H730 0.930 . S
C736 C737 1.367 . S
C736 C744 1.378 . S
C737 C736 1.367 . S
C737 C745 1.433 . S
C738 H734 0.929 . S
C738 C740 1.378 . S
C738 C742 1.350 . S
C739 C742 1.463 . S
C739 C744 1.350 . S
C739 N747 1.427 . S
C740 H731 0.930 . S
C740 C738 1.378 . S
C740 C741 1.367 . S
C741 C740 1.367 . S
C741 C743 1.433 . S
C742 C738 1.350 . S
C742 C739 1.463 . S
C742 N746 1.427 . S
C743 H733 0.929 . S
C743 C741 1.433 . S
C743 N746 1.384 . S
C744 H735 0.929 . S
C744 C736 1.378 . S
C744 C739 1.350 . S
C745 H732 0.929 . S
C745 C737 1.433 . S
C745 N747 1.384 . S
N746 C742 1.427 . S
N746 C743 1.384 . S
N747 C739 1.427 . S
N747 C745 1.384 . S
H748 C754 0.930 . S
H749 C758 0.930 . S
H750 C763 0.929 . S
H751 C761 0.929 . S
H752 C756 0.929 . S
H753 C762 0.929 . S
C754 H748 0.930 . S
C754 C755 1.367 . S
C754 C762 1.378 . S
C755 C754 1.367 . S
C755 C763 1.433 . S
C756 H752 0.929 . S
C756 C758 1.378 . S
C756 C760 1.350 . S
C757 C760 1.463 . S
C757 C762 1.350 . S
C757 N765 1.427 . S
C758 H749 0.930 . S
C758 C756 1.378 . S
C758 C759 1.367 . S
C759 C758 1.367 . S
C759 C761 1.433 . S
C760 C756 1.350 . S
C760 C757 1.463 . S
C760 N764 1.427 . S
C761 H751 0.929 . S
C761 C759 1.433 . S
C761 N764 1.384 . S
C762 H753 0.929 . S
C762 C754 1.378 . S
C762 C757 1.350 . S
C763 H750 0.929 . S
C763 C755 1.433 . S
C763 N765 1.384 . S
N764 C760 1.427 . S
N764 C761 1.384 . S
N765 C757 1.427 . S
N765 C763 1.384 . S
H766 C772 0.930 . S
H767 C776 0.930 . S
H768 C781 0.929 . S
H769 C779 0.929 . S
H770 C774 0.929 . S
H771 C780 0.929 . S
C772 H766 0.930 . S
C772 C773 1.367 . S
C772 C780 1.378 . S
C773 C772 1.367 . S
C773 C781 1.433 . S
C774 H770 0.929 . S
C774 C776 1.378 . S
C774 C778 1.350 . S
C775 C778 1.463 . S
C775 C780 1.350 . S
C775 N783 1.427 . S
C776 H767 0.930 . S
C776 C774 1.378 . S
C776 C777 1.367 . S
C777 C776 1.367 . S
C777 C779 1.433 . S
C778 C774 1.350 . S
C778 C775 1.463 . S
C778 N782 1.427 . S
C779 H769 0.929 . S
C779 C777 1.433 . S
C779 N782 1.384 . S
C780 H771 0.929 . S
C780 C772 1.378 . S
C780 C775 1.350 . S
C781 H768 0.929 . S
C781 C773 1.433 . S
C781 N783 1.384 . S
N782 C778 1.427 . S
N782 C779 1.384 . S
N783 C775 1.427 . S
N783 C781 1.384 . S
H784 C790 0.930 . S
H785 C794 0.930 . S
H786 C799 0.929 . S
H787 C797 0.929 . S
H788 C792 0.929 . S
H789 C798 0.929 . S
C790 H784 0.930 . S
C790 C791 1.367 . S
C790 C798 1.378 . S
C791 C790 1.367 . S
C791 C799 1.433 . S
C792 H788 0.929 . S
C792 C794 1.378 . S
C792 C796 1.350 . S
C793 C796 1.463 . S
C793 C798 1.350 . S
C793 N801 1.427 . S
C794 H785 0.930 . S
C794 C792 1.378 . S
C794 C795 1.367 . S
C795 C794 1.367 . S
C795 C797 1.433 . S
C796 C792 1.350 . S
C796 C793 1.463 . S
C796 N800 1.427 . S
C797 H787 0.929 . S
C797 C795 1.433 . S
C797 N800 1.384 . S
C798 H789 0.929 . S
C798 C790 1.378 . S
C798 C793 1.350 . S
C799 H786 0.929 . S
C799 C791 1.433 . S
C799 N801 1.384 . S
N800 C796 1.427 . S
N800 C797 1.384 . S
N801 C793 1.427 . S
N801 C799 1.384 . S
H802 C808 0.930 . S
H803 C812 0.930 . S
H804 C817 0.929 . S
H805 C815 0.929 . S
H806 C810 0.929 . S
H807 C816 0.929 . S
C808 H802 0.930 . S
C808 C809 1.367 . S
C808 C816 1.378 . S
C809 C808 1.367 . S
C809 C817 1.433 . S
C810 H806 0.929 . S
C810 C812 1.378 . S
C810 C814 1.350 . S
C811 C814 1.463 . S
C811 C816 1.350 . S
C811 N819 1.427 . S
C812 H803 0.930 . S
C812 C810 1.378 . S
C812 C813 1.367 . S
C813 C812 1.367 . S
C813 C815 1.433 . S
C814 C810 1.350 . S
C814 C811 1.463 . S
C814 N818 1.427 . S
C815 H805 0.929 . S
C815 C813 1.433 . S
C815 N818 1.384 . S
C816 H807 0.929 . S
C816 C808 1.378 . S
C816 C811 1.350 . S
C817 H804 0.929 . S
C817 C809 1.433 . S
C817 N819 1.384 . S
N818 C814 1.427 . S
N818 C815 1.384 . S
N819 C811 1.427 . S
N819 C817 1.384 . S
H820 C826 0.930 . S
H821 C830 0.930 . S
H822 C835 0.929 . S
H823 C833 0.929 . S
H824 C828 0.929 . S
H825 C834 0.929 . S
C826 H820 0.930 . S
C826 C827 1.367 . S
C826 C834 1.378 . S
C827 C826 1.367 . S
C827 C835 1.433 . S
C828 H824 0.929 . S
C828 C830 1.378 . S
C828 C832 1.350 . S
C829 C832 1.463 . S
C829 C834 1.350 . S
C829 N837 1.427 . S
C830 H821 0.930 . S
C830 C828 1.378 . S
C830 C831 1.367 . S
C831 C830 1.367 . S
C831 C833 1.433 . S
C832 C828 1.350 . S
C832 C829 1.463 . S
C832 N836 1.427 . S
C833 H823 0.929 . S
C833 C831 1.433 . S
C833 N836 1.384 . S
C834 H825 0.929 . S
C834 C826 1.378 . S
C834 C829 1.350 . S
C835 H822 0.929 . S
C835 C827 1.433 . S
C835 N837 1.384 . S
N836 C832 1.427 . S
N836 C833 1.384 . S
N837 C829 1.427 . S
N837 C835 1.384 . S
H838 C844 0.930 . S
H839 C848 0.930 . S
H840 C853 0.929 . S
H841 C851 0.929 . S
H842 C846 0.929 . S
H843 C852 0.929 . S
C844 H838 0.930 . S
C844 C845 1.367 . S
C844 C852 1.378 . S
C845 C844 1.367 . S
C845 C853 1.433 . S
C846 H842 0.929 . S
C846 C848 1.378 . S
C846 C850 1.350 . S
C847 C850 1.463 . S
C847 C852 1.350 . S
C847 N855 1.427 . S
C848 H839 0.930 . S
C848 C846 1.378 . S
C848 C849 1.367 . S
C849 C848 1.367 . S
C849 C851 1.433 . S
C850 C846 1.350 . S
C850 C847 1.463 . S
C850 N854 1.427 . S
C851 H841 0.929 . S
C851 C849 1.433 . S
C851 N854 1.384 . S
C852 H843 0.929 . S
C852 C844 1.378 . S
C852 C847 1.350 . S
C853 H840 0.929 . S
C853 C845 1.433 . S
C853 N855 1.384 . S
N854 C850 1.427 . S
N854 C851 1.384 . S
N855 C847 1.427 . S
N855 C853 1.384 . S
H856 C862 0.930 . S
H857 C866 0.930 . S
H858 C871 0.929 . S
H859 C869 0.929 . S
H860 C864 0.929 . S
H861 C870 0.929 . S
C862 H856 0.930 . S
C862 C863 1.367 . S
C862 C870 1.378 . S
C863 C862 1.367 . S
C863 C871 1.433 . S
C864 H860 0.929 . S
C864 C866 1.378 . S
C864 C868 1.350 . S
C865 C868 1.463 . S
C865 C870 1.350 . S
C865 N873 1.427 . S
C866 H857 0.930 . S
C866 C864 1.378 . S
C866 C867 1.367 . S
C867 C866 1.367 . S
C867 C869 1.433 . S
C868 C864 1.350 . S
C868 C865 1.463 . S
C868 N872 1.427 . S
C869 H859 0.929 . S
C869 C867 1.433 . S
C869 N872 1.384 . S
C870 H861 0.929 . S
C870 C862 1.378 . S
C870 C865 1.350 . S
C871 H858 0.929 . S
C871 C863 1.433 . S
C871 N873 1.384 . S
N872 C868 1.427 . S
N872 C869 1.384 . S
N873 C865 1.427 . S
N873 C871 1.384 . S
H874 C880 0.930 . S
H875 C884 0.930 . S
H876 C889 0.929 . S
H877 C887 0.929 . S
H878 C882 0.929 . S
H879 C888 0.929 . S
C880 H874 0.930 . S
C880 C881 1.367 . S
C880 C888 1.378 . S
C881 C880 1.367 . S
C881 C889 1.433 . S
C882 H878 0.929 . S
C882 C884 1.378 . S
C882 C886 1.350 . S
C883 C886 1.463 . S
C883 C888 1.350 . S
C883 N891 1.427 . S
C884 H875 0.930 . S
C884 C882 1.378 . S
C884 C885 1.367 . S
C885 C884 1.367 . S
C885 C887 1.433 . S
C886 C882 1.350 . S
C886 C883 1.463 . S
C886 N890 1.427 . S
C887 H877 0.929 . S
C887 C885 1.433 . S
C887 N890 1.384 . S
C888 H879 0.929 . S
C888 C880 1.378 . S
C888 C883 1.350 . S
C889 H876 0.929 . S
C889 C881 1.433 . S
C889 N891 1.384 . S
N890 C886 1.427 . S
N890 C887 1.384 . S
N891 C883 1.427 . S
N891 C889 1.384 . S
H892 C898 0.930 . S
H893 C902 0.930 . S
H894 C907 0.929 . S
H895 C905 0.929 . S
H896 C900 0.929 . S
H897 C906 0.929 . S
C898 H892 0.930 . S
C898 C899 1.367 . S
C898 C906 1.378 . S
C899 C898 1.367 . S
C899 C907 1.433 . S
C900 H896 0.929 . S
C900 C902 1.378 . S
C900 C904 1.350 . S
C901 C904 1.463 . S
C901 C906 1.350 . S
C901 N909 1.427 . S
C902 H893 0.930 . S
C902 C900 1.378 . S
C902 C903 1.367 . S
C903 C902 1.367 . S
C903 C905 1.433 . S
C904 C900 1.350 . S
C904 C901 1.463 . S
C904 N908 1.427 . S
C905 H895 0.929 . S
C905 C903 1.433 . S
C905 N908 1.384 . S
C906 H897 0.929 . S
C906 C898 1.378 . S
C906 C901 1.350 . S
C907 H894 0.929 . S
C907 C899 1.433 . S
C907 N909 1.384 . S
N908 C904 1.427 . S
N908 C905 1.384 . S
N909 C901 1.427 . S
N909 C907 1.384 . S
H910 C916 0.930 . S
H911 C920 0.930 . S
H912 C925 0.929 . S
H913 C923 0.929 . S
H914 C918 0.929 . S
H915 C924 0.929 . S
C916 H910 0.930 . S
C916 C917 1.367 . S
C916 C924 1.378 . S
C917 C916 1.367 . S
C917 C925 1.433 . S
C918 H914 0.929 . S
C918 C920 1.378 . S
C918 C922 1.350 . S
C919 C922 1.463 . S
C919 C924 1.350 . S
C919 N927 1.427 . S
C920 H911 0.930 . S
C920 C918 1.378 . S
C920 C921 1.367 . S
C921 C920 1.367 . S
C921 C923 1.433 . S
C922 C918 1.350 . S
C922 C919 1.463 . S
C922 N926 1.427 . S
C923 H913 0.929 . S
C923 C921 1.433 . S
C923 N926 1.384 . S
C924 H915 0.929 . S
C924 C916 1.378 . S
C924 C919 1.350 . S
C925 H912 0.929 . S
C925 C917 1.433 . S
C925 N927 1.384 . S
N926 C922 1.427 . S
N926 C923 1.384 . S
N927 C919 1.427 . S
N927 C925 1.384 . S
H928 C934 0.930 . S
H929 C938 0.927 1_655 S
H930 C943 0.929 . S
H931 C941 0.929 . S
H932 C936 0.929 . S
H933 C942 0.929 . S
C934 H928 0.930 . S
C934 C935 1.367 . S
C934 C942 1.378 . S
C935 C934 1.367 . S
C935 C943 1.433 1_455 S
C936 H932 0.929 . S
C936 C938 1.377 1_655 S
C936 C940 1.350 1_655 S
C937 C940 1.463 . S
C937 C942 1.350 . S
C937 N945 1.427 1_455 S
C938 H929 0.927 1_455 S
C938 C936 1.377 1_455 S
C938 C939 1.370 . S
C939 C938 1.370 . S
C939 C941 1.433 . S
C940 C936 1.350 1_455 S
C940 C937 1.463 . S
C940 N944 1.427 . S
C941 H931 0.929 . S
C941 C939 1.433 . S
C941 N944 1.384 . S
C942 H933 0.929 . S
C942 C934 1.378 . S
C942 C937 1.350 . S
C943 H930 0.929 . S
C943 C935 1.433 1_655 S
C943 N945 1.384 . S
N944 C940 1.427 . S
N944 C941 1.384 . S
N945 C937 1.427 1_655 S
N945 C943 1.384 . S
H946 C952 0.930 . S
H947 C956 0.930 . S
H948 C961 0.929 . S
H949 C959 0.929 . S
H950 C954 0.929 . S
H951 C960 0.947 . S
C952 H946 0.930 . S
C952 C953 1.367 . S
C952 C960 1.378 . S
C953 C952 1.367 . S
C953 C961 1.433 . S
C954 H950 0.929 . S
C954 C956 1.378 . S
C954 C958 1.350 . S
C955 C958 1.459 1_655 S
C955 C960 1.351 . S
C955 N963 1.429 . S
C956 H947 0.930 . S
C956 C954 1.378 . S
C956 C957 1.367 . S
C957 C956 1.367 . S
C957 C959 1.433 . S
C958 C954 1.350 . S
C958 C955 1.459 1_455 S
C958 N962 1.427 . S
C959 H949 0.929 . S
C959 C957 1.433 . S
C959 N962 1.384 . S
C960 H951 0.947 . S
C960 C952 1.378 . S
C960 C955 1.351 . S
C961 H948 0.929 . S
C961 C953 1.433 . S
C961 N963 1.384 . S
N962 C958 1.427 . S
N962 C959 1.384 . S
N963 C955 1.429 . S
N963 C961 1.384 . S
H964 C970 0.930 . S
H965 C974 0.930 . S
H966 C979 0.929 . S
H967 C977 0.929 . S
H968 C972 0.929 . S
H969 C978 0.929 . S
C970 H964 0.930 . S
C970 C971 1.367 . S
C970 C978 1.378 . S
C971 C970 1.367 . S
C971 C979 1.433 . S
C972 H968 0.929 . S
C972 C974 1.378 . S
C972 C976 1.350 . S
C973 C976 1.463 . S
C973 C978 1.350 . S
C973 N981 1.427 . S
C974 H965 0.930 . S
C974 C972 1.378 . S
C974 C975 1.367 . S
C975 C974 1.367 . S
C975 C977 1.433 . S
C976 C972 1.350 . S
C976 C973 1.463 . S
C976 N980 1.427 . S
C977 H967 0.929 . S
C977 C975 1.433 . S
C977 N980 1.384 . S
C978 H969 0.929 . S
C978 C970 1.378 . S
C978 C973 1.350 . S
C979 H966 0.929 . S
C979 C971 1.433 . S
C979 N981 1.384 . S
N980 C976 1.427 . S
N980 C977 1.384 . S
N981 C973 1.427 . S
N981 C979 1.384 . S
H982 C988 0.930 . S
H983 C992 0.930 . S
H984 C997 0.929 . S
H985 C995 0.929 . S
H986 C990 0.929 . S
H987 C996 0.929 . S
C988 H982 0.930 . S
C988 C989 1.367 . S
C988 C996 1.378 . S
C989 C988 1.367 . S
C989 C997 1.433 . S
C990 H986 0.929 . S
C990 C992 1.378 . S
C990 C994 1.350 . S
C991 C994 1.463 . S
C991 C996 1.350 . S
C991 N999 1.427 . S
C992 H983 0.930 . S
C992 C990 1.378 . S
C992 C993 1.367 . S
C993 C992 1.367 . S
C993 C995 1.433 . S
C994 C990 1.350 . S
C994 C991 1.463 . S
C994 N998 1.427 . S
C995 H985 0.929 . S
C995 C993 1.433 . S
C995 N998 1.384 . S
C996 H987 0.929 . S
C996 C988 1.378 . S
C996 C991 1.350 . S
C997 H984 0.929 . S
C997 C989 1.433 . S
C997 N999 1.384 . S
N998 C994 1.427 . S
N998 C995 1.384 . S
N999 C991 1.427 . S
N999 C997 1.384 . S
H1000 C1006 0.930 1_655 S
H1001 C1010 0.930 . S
H1002 C1015 0.929 . S
H1003 C1013 0.929 . S
H1004 C1008 0.929 . S
H1005 C1014 0.926 1_655 S
C1006 H1000 0.930 1_455 S
C1006 C1007 1.367 . S
C1006 C1014 1.378 . S
C1007 C1006 1.367 . S
C1007 C1015 1.433 . S
C1008 H1004 0.929 . S
C1008 C1010 1.378 . S
C1008 C1012 1.350 . S
C1009 C1012 1.463 . S
C1009 C1014 1.352 . S
C1009 N1017 1.427 . S
C1010 H1001 0.930 . S
C1010 C1008 1.378 . S
C1010 C1011 1.367 . S
C1011 C1010 1.367 . S
C1011 C1013 1.433 1_455 S
C1012 C1008 1.350 . S
C1012 C1009 1.463 . S
C1012 N1016 1.427 1_455 S
C1013 H1003 0.929 . S
C1013 C1011 1.433 1_655 S
C1013 N1016 1.384 . S
C1014 H1005 0.926 1_455 S
C1014 C1006 1.378 . S
C1014 C1009 1.352 . S
C1015 H1002 0.929 . S
C1015 C1007 1.433 . S
C1015 N1017 1.384 . S
N1016 C1012 1.427 1_655 S
N1016 C1013 1.384 . S
N1017 C1009 1.427 . S
N1017 C1015 1.384 . S
H1018 C1024 0.930 . S
H1019 C1028 0.930 . S
H1020 C1033 0.929 . S
H1021 C1031 0.929 . S
H1022 C1026 0.929 . S
H1023 C1032 0.929 . S
C1024 H1018 0.930 . S
C1024 C1025 1.367 . S
C1024 C1032 1.378 . S
C1025 C1024 1.367 . S
C1025 C1033 1.433 . S
C1026 H1022 0.929 . S
C1026 C1028 1.378 . S
C1026 C1030 1.350 . S
C1027 C1030 1.463 . S
C1027 C1032 1.350 . S
C1027 N1035 1.427 . S
C1028 H1019 0.930 . S
C1028 C1026 1.378 . S
C1028 C1029 1.367 . S
C1029 C1028 1.367 . S
C1029 C1031 1.433 . S
C1030 C1026 1.350 . S
C1030 C1027 1.463 . S
C1030 N1034 1.427 . S
C1031 H1021 0.929 . S
C1031 C1029 1.433 . S
C1031 N1034 1.384 . S
C1032 H1023 0.929 . S
C1032 C1024 1.378 . S
C1032 C1027 1.350 . S
C1033 H1020 0.929 . S
C1033 C1025 1.433 . S
C1033 N1035 1.384 . S
N1034 C1030 1.427 . S
N1034 C1031 1.384 . S
N1035 C1027 1.427 . S
N1035 C1033 1.384 . S
H1036 C1042 0.930 . S
H1037 C1046 0.930 . S
H1038 C1051 0.929 . S
H1039 C1049 0.929 . S
H1040 C1044 0.929 . S
H1041 C1050 0.929 . S
C1042 H1036 0.930 . S
C1042 C1043 1.367 . S
C1042 C1050 1.378 . S
C1043 C1042 1.367 . S
C1043 C1051 1.433 . S
C1044 H1040 0.929 . S
C1044 C1046 1.378 . S
C1044 C1048 1.350 . S
C1045 C1048 1.463 . S
C1045 C1050 1.350 . S
C1045 N1053 1.427 . S
C1046 H1037 0.930 . S
C1046 C1044 1.378 . S
C1046 C1047 1.367 . S
C1047 C1046 1.367 . S
C1047 C1049 1.433 . S
C1048 C1044 1.350 . S
C1048 C1045 1.463 . S
C1048 N1052 1.427 . S
C1049 H1039 0.929 . S
C1049 C1047 1.433 . S
C1049 N1052 1.384 . S
C1050 H1041 0.929 . S
C1050 C1042 1.378 . S
C1050 C1045 1.350 . S
C1051 H1038 0.929 . S
C1051 C1043 1.433 . S
C1051 N1053 1.384 . S
N1052 C1048 1.427 . S
N1052 C1049 1.384 . S
N1053 C1045 1.427 . S
N1053 C1051 1.384 . S
H1054 C1060 0.930 . S
H1055 C1064 0.930 . S
H1056 C1069 0.929 . S
H1057 C1067 0.929 . S
H1058 C1062 0.929 . S
H1059 C1068 0.929 . S
C1060 H1054 0.930 . S
C1060 C1061 1.367 . S
C1060 C1068 1.378 . S
C1061 C1060 1.367 . S
C1061 C1069 1.433 . S
C1062 H1058 0.929 . S
C1062 C1064 1.378 . S
C1062 C1066 1.354 . S
C1063 C1066 1.455 1_455 S
C1063 C1068 1.350 . S
C1063 N1071 1.427 . S
C1064 H1055 0.930 . S
C1064 C1062 1.378 . S
C1064 C1065 1.367 . S
C1065 C1064 1.367 . S
C1065 C1067 1.433 . S
C1066 C1062 1.354 . S
C1066 C1063 1.455 1_655 S
C1066 N1070 1.431 . S
C1067 H1057 0.929 . S
C1067 C1065 1.433 . S
C1067 N1070 1.384 . S
C1068 H1059 0.929 . S
C1068 C1060 1.378 . S
C1068 C1063 1.350 . S
C1069 H1056 0.929 . S
C1069 C1061 1.433 . S
C1069 N1071 1.384 . S
N1070 C1066 1.431 . S
N1070 C1067 1.384 . S
N1071 C1063 1.427 . S
N1071 C1069 1.384 . S
H1072 C1078 0.930 . S
H1073 C1082 0.930 . S
H1074 C1087 0.933 . S
H1075 C1085 0.933 . S
H1076 C1080 0.929 1_554 S
H1077 C1086 0.929 1_556 S
C1078 H1072 0.930 . S
C1078 C1079 1.367 . S
C1078 C1086 1.378 . S
C1079 C1078 1.367 . S
C1079 C1087 1.433 . S
C1080 H1076 0.929 1_556 S
C1080 C1082 1.378 . S
C1080 C1084 1.350 . S
C1081 C1084 1.463 1_544 S
C1081 C1086 1.350 . S
C1081 N1089 1.427 1_545 S
C1082 H1073 0.930 . S
C1082 C1080 1.378 . S
C1082 C1083 1.367 . S
C1083 C1082 1.367 . S
C1083 C1085 1.433 . S
C1084 C1080 1.350 . S
C1084 C1081 1.463 1_566 S
C1084 N1088 1.427 1_565 S
C1085 H1075 0.933 . S
C1085 C1083 1.433 . S
C1085 N1088 1.384 1_565 S
C1086 H1077 0.929 1_554 S
C1086 C1078 1.378 . S
C1086 C1081 1.350 . S
C1087 H1074 0.933 . S
C1087 C1079 1.433 . S
C1087 N1089 1.384 1_545 S
N1088 C1084 1.427 1_545 S
N1088 C1085 1.384 1_545 S
N1089 C1081 1.427 1_565 S
N1089 C1087 1.384 1_565 S
H1090 C1096 0.930 . S
H1091 C1100 0.930 . S
H1092 C1105 0.929 . S
H1093 C1103 0.929 . S
H1094 C1098 0.929 . S
H1095 C1104 0.929 . S
C1096 H1090 0.930 . S
C1096 C1097 1.367 . S
C1096 C1104 1.378 . S
C1097 C1096 1.367 . S
C1097 C1105 1.433 . S
C1098 H1094 0.929 . S
C1098 C1100 1.378 . S
C1098 C1102 1.350 . S
C1099 C1102 1.463 . S
C1099 C1104 1.350 . S
C1099 N1107 1.427 . S
C1100 H1091 0.930 . S
C1100 C1098 1.378 . S
C1100 C1101 1.367 . S
C1101 C1100 1.367 . S
C1101 C1103 1.433 . S
C1102 C1098 1.350 . S
C1102 C1099 1.463 . S
C1102 N1106 1.427 . S
C1103 H1093 0.929 . S
C1103 C1101 1.433 . S
C1103 N1106 1.384 . S
C1104 H1095 0.929 . S
C1104 C1096 1.378 . S
C1104 C1099 1.350 . S
C1105 H1092 0.929 . S
C1105 C1097 1.433 . S
C1105 N1107 1.384 . S
N1106 C1102 1.427 . S
N1106 C1103 1.384 . S
N1107 C1099 1.427 . S
N1107 C1105 1.384 . S
H1108 C1114 0.930 1_565 S
H1109 C1118 0.930 1_545 S
H1110 C1123 0.929 . S
H1111 C1121 0.929 . S
H1112 C1116 0.929 . S
H1113 C1122 0.929 . S
C1114 H1108 0.930 1_545 S
C1114 C1115 1.367 . S
C1114 C1122 1.378 1_545 S
C1115 C1114 1.367 . S
C1115 C1123 1.433 . S
C1116 H1112 0.929 . S
C1116 C1118 1.378 1_545 S
C1116 C1120 1.350 1_545 S
C1117 C1120 1.463 1_545 S
C1117 C1122 1.350 1_545 S
C1117 N1125 1.427 . S
C1118 H1109 0.930 1_565 S
C1118 C1116 1.378 1_565 S
C1118 C1119 1.367 . S
C1119 C1118 1.367 . S
C1119 C1121 1.433 . S
C1120 C1116 1.350 1_565 S
C1120 C1117 1.463 1_565 S
C1120 N1124 1.427 . S
C1121 H1111 0.929 . S
C1121 C1119 1.433 . S
C1121 N1124 1.384 . S
C1122 H1113 0.929 . S
C1122 C1114 1.378 1_565 S
C1122 C1117 1.350 1_565 S
C1123 H1110 0.929 . S
C1123 C1115 1.433 . S
C1123 N1125 1.384 . S
N1124 C1120 1.427 . S
N1124 C1121 1.384 . S
N1125 C1117 1.427 . S
N1125 C1123 1.384 . S
H1126 C1132 0.930 . S
H1127 C1136 0.930 . S
H1128 C1141 0.929 . S
H1129 C1139 0.929 . S
H1130 C1134 0.929 . S
H1131 C1140 0.929 . S
C1132 H1126 0.930 . S
C1132 C1133 1.367 . S
C1132 C1140 1.378 . S
C1133 C1132 1.367 . S
C1133 C1141 1.433 . S
C1134 H1130 0.929 . S
C1134 C1136 1.378 . S
C1134 C1138 1.350 . S
C1135 C1138 1.463 . S
C1135 C1140 1.350 . S
C1135 N1143 1.427 . S
C1136 H1127 0.930 . S
C1136 C1134 1.378 . S
C1136 C1137 1.367 . S
C1137 C1136 1.367 . S
C1137 C1139 1.433 . S
C1138 C1134 1.350 . S
C1138 C1135 1.463 . S
C1138 N1142 1.427 . S
C1139 H1129 0.929 . S
C1139 C1137 1.433 . S
C1139 N1142 1.384 . S
C1140 H1131 0.929 . S
C1140 C1132 1.378 . S
C1140 C1135 1.350 . S
C1141 H1128 0.929 . S
C1141 C1133 1.433 . S
C1141 N1143 1.384 . S
N1142 C1138 1.427 . S
N1142 C1139 1.384 . S
N1143 C1135 1.427 . S
N1143 C1141 1.384 . S
H1144 C1150 0.930 . S
H1145 C1154 0.930 . S
H1146 C1159 0.929 . S
H1147 C1157 0.929 . S
H1148 C1152 0.929 . S
H1149 C1158 0.929 . S
C1150 H1144 0.930 . S
C1150 C1151 1.367 . S
C1150 C1158 1.378 . S
C1151 C1150 1.367 . S
C1151 C1159 1.433 . S
C1152 H1148 0.929 . S
C1152 C1154 1.378 . S
C1152 C1156 1.350 . S
C1153 C1156 1.463 . S
C1153 C1158 1.350 . S
C1153 N1161 1.427 . S
C1154 H1145 0.930 . S
C1154 C1152 1.378 . S
C1154 C1155 1.367 . S
C1155 C1154 1.367 . S
C1155 C1157 1.433 . S
C1156 C1152 1.350 . S
C1156 C1153 1.463 . S
C1156 N1160 1.427 . S
C1157 H1147 0.929 . S
C1157 C1155 1.433 . S
C1157 N1160 1.384 . S
C1158 H1149 0.929 . S
C1158 C1150 1.378 . S
C1158 C1153 1.350 . S
C1159 H1146 0.929 . S
C1159 C1151 1.433 . S
C1159 N1161 1.384 . S
N1160 C1156 1.427 . S
N1160 C1157 1.384 . S
N1161 C1153 1.427 . S
N1161 C1159 1.384 . S
H1162 C1168 0.930 . S
H1163 C1172 0.930 . S
H1164 C1177 0.929 . S
H1165 C1175 0.929 . S
H1166 C1170 0.929 . S
H1167 C1176 0.929 . S
C1168 H1162 0.930 . S
C1168 C1169 1.367 . S
C1168 C1176 1.378 . S
C1169 C1168 1.367 . S
C1169 C1177 1.433 . S
C1170 H1166 0.929 . S
C1170 C1172 1.378 . S
C1170 C1174 1.350 . S
C1171 C1174 1.463 . S
C1171 C1176 1.350 . S
C1171 N1179 1.427 . S
C1172 H1163 0.930 . S
C1172 C1170 1.378 . S
C1172 C1173 1.367 . S
C1173 C1172 1.367 . S
C1173 C1175 1.433 . S
C1174 C1170 1.350 . S
C1174 C1171 1.463 . S
C1174 N1178 1.427 . S
C1175 H1165 0.929 . S
C1175 C1173 1.433 . S
C1175 N1178 1.384 . S
C1176 H1167 0.929 . S
C1176 C1168 1.378 . S
C1176 C1171 1.350 . S
C1177 H1164 0.929 . S
C1177 C1169 1.433 . S
C1177 N1179 1.384 . S
N1178 C1174 1.427 . S
N1178 C1175 1.384 . S
N1179 C1171 1.427 . S
N1179 C1177 1.384 . S
H1180 C1186 0.930 . S
H1181 C1190 0.930 . S
H1182 C1195 0.929 . S
H1183 C1193 0.929 . S
H1184 C1188 0.929 . S
H1185 C1194 0.929 . S
C1186 H1180 0.930 . S
C1186 C1187 1.367 . S
C1186 C1194 1.378 . S
C1187 C1186 1.367 . S
C1187 C1195 1.433 . S
C1188 H1184 0.929 . S
C1188 C1190 1.378 . S
C1188 C1192 1.350 . S
C1189 C1192 1.463 . S
C1189 C1194 1.350 . S
C1189 N1197 1.427 . S
C1190 H1181 0.930 . S
C1190 C1188 1.378 . S
C1190 C1191 1.367 . S
C1191 C1190 1.367 . S
C1191 C1193 1.433 . S
C1192 C1188 1.350 . S
C1192 C1189 1.463 . S
C1192 N1196 1.427 . S
C1193 H1183 0.929 . S
C1193 C1191 1.433 . S
C1193 N1196 1.384 . S
C1194 H1185 0.929 . S
C1194 C1186 1.378 . S
C1194 C1189 1.350 . S
C1195 H1182 0.929 . S
C1195 C1187 1.433 . S
C1195 N1197 1.384 . S
N1196 C1192 1.427 . S
N1196 C1193 1.384 . S
N1197 C1189 1.427 . S
N1197 C1195 1.384 . S
H1198 C1204 0.930 . S
H1199 C1208 0.930 . S
H1200 C1213 0.929 . S
H1201 C1211 0.929 . S
H1202 C1206 0.927 . S
H1203 C1212 0.927 . S
C1204 H1198 0.930 . S
C1204 C1205 1.367 1_655 S
C1204 C1212 1.378 . S
C1205 C1204 1.367 1_455 S
C1205 C1213 1.433 . S
C1206 H1202 0.927 . S
C1206 C1208 1.378 . S
C1206 C1210 1.350 . S
C1207 C1210 1.463 1_556 S
C1207 C1212 1.350 1_455 S
C1207 N1215 1.427 . S
C1208 H1199 0.930 . S
C1208 C1206 1.378 . S
C1208 C1209 1.367 . S
C1209 C1208 1.367 . S
C1209 C1211 1.433 1_455 S
C1210 C1206 1.350 . S
C1210 C1207 1.463 1_554 S
C1210 N1214 1.427 1_455 S
C1211 H1201 0.929 . S
C1211 C1209 1.433 1_655 S
C1211 N1214 1.384 . S
C1212 H1203 0.927 . S
C1212 C1204 1.378 . S
C1212 C1207 1.350 1_655 S
C1213 H1200 0.929 . S
C1213 C1205 1.433 . S
C1213 N1215 1.384 . S
N1214 C1210 1.427 1_655 S
N1214 C1211 1.384 . S
N1215 C1207 1.427 . S
N1215 C1213 1.384 . S
H1216 C1222 0.930 . S
H1217 C1226 0.930 . S
H1218 C1231 0.929 . S
H1219 C1229 0.929 . S
H1220 C1224 0.929 . S
H1221 C1230 0.929 . S
C1222 H1216 0.930 . S
C1222 C1223 1.367 . S
C1222 C1230 1.378 . S
C1223 C1222 1.367 . S
C1223 C1231 1.433 . S
C1224 H1220 0.929 . S
C1224 C1226 1.378 . S
C1224 C1228 1.350 . S
C1225 C1228 1.463 . S
C1225 C1230 1.350 . S
C1225 N1233 1.427 . S
C1226 H1217 0.930 . S
C1226 C1224 1.378 . S
C1226 C1227 1.367 . S
C1227 C1226 1.367 . S
C1227 C1229 1.433 . S
C1228 C1224 1.350 . S
C1228 C1225 1.463 . S
C1228 N1232 1.427 . S
C1229 H1219 0.929 . S
C1229 C1227 1.433 . S
C1229 N1232 1.384 . S
C1230 H1221 0.929 . S
C1230 C1222 1.378 . S
C1230 C1225 1.350 . S
C1231 H1218 0.929 . S
C1231 C1223 1.433 . S
C1231 N1233 1.384 . S
N1232 C1228 1.427 . S
N1232 C1229 1.384 . S
N1233 C1225 1.427 . S
N1233 C1231 1.384 . S
H1234 C1240 0.930 . S
H1235 C1244 0.930 . S
H1236 C1249 0.929 . S
H1237 C1247 0.929 . S
H1238 C1242 0.929 . S
H1239 C1248 0.929 . S
C1240 H1234 0.930 . S
C1240 C1241 1.367 . S
C1240 C1248 1.378 . S
C1241 C1240 1.367 . S
C1241 C1249 1.433 . S
C1242 H1238 0.929 . S
C1242 C1244 1.378 . S
C1242 C1246 1.350 . S
C1243 C1246 1.463 . S
C1243 C1248 1.350 . S
C1243 N1251 1.427 . S
C1244 H1235 0.930 . S
C1244 C1242 1.378 . S
C1244 C1245 1.367 . S
C1245 C1244 1.367 . S
C1245 C1247 1.433 . S
C1246 C1242 1.350 . S
C1246 C1243 1.463 . S
C1246 N1250 1.427 . S
C1247 H1237 0.929 . S
C1247 C1245 1.433 . S
C1247 N1250 1.384 . S
C1248 H1239 0.929 . S
C1248 C1240 1.378 . S
C1248 C1243 1.350 . S
C1249 H1236 0.929 . S
C1249 C1241 1.433 . S
C1249 N1251 1.384 . S
N1250 C1246 1.427 . S
N1250 C1247 1.384 . S
N1251 C1243 1.427 . S
N1251 C1249 1.384 . S
H1252 C1258 0.930 . S
H1253 C1262 0.930 . S
H1254 C1267 0.929 . S
H1255 C1265 0.929 . S
H1256 C1260 0.929 . S
H1257 C1266 0.929 . S
C1258 H1252 0.930 . S
C1258 C1259 1.367 . S
C1258 C1266 1.378 . S
C1259 C1258 1.367 . S
C1259 C1267 1.433 . S
C1260 H1256 0.929 . S
C1260 C1262 1.378 . S
C1260 C1264 1.350 . S
C1261 C1264 1.463 . S
C1261 C1266 1.350 . S
C1261 N1269 1.427 . S
C1262 H1253 0.930 . S
C1262 C1260 1.378 . S
C1262 C1263 1.367 . S
C1263 C1262 1.367 . S
C1263 C1265 1.433 . S
C1264 C1260 1.350 . S
C1264 C1261 1.463 . S
C1264 N1268 1.427 . S
C1265 H1255 0.929 . S
C1265 C1263 1.433 . S
C1265 N1268 1.384 . S
C1266 H1257 0.929 . S
C1266 C1258 1.378 . S
C1266 C1261 1.350 . S
C1267 H1254 0.929 . S
C1267 C1259 1.433 . S
C1267 N1269 1.384 . S
N1268 C1264 1.427 . S
N1268 C1265 1.384 . S
N1269 C1261 1.427 . S
N1269 C1267 1.384 . S
H1270 C1276 0.930 . S
H1271 C1280 0.930 . S
H1272 C1285 0.929 . S
H1273 C1283 0.929 . S
H1274 C1278 0.929 . S
H1275 C1284 0.929 . S
C1276 H1270 0.930 . S
C1276 C1277 1.367 . S
C1276 C1284 1.378 . S
C1277 C1276 1.367 . S
C1277 C1285 1.433 . S
C1278 H1274 0.929 . S
C1278 C1280 1.378 . S
C1278 C1282 1.350 . S
C1279 C1282 1.463 . S
C1279 C1284 1.350 . S
C1279 N1287 1.427 . S
C1280 H1271 0.930 . S
C1280 C1278 1.378 . S
C1280 C1281 1.367 . S
C1281 C1280 1.367 . S
C1281 C1283 1.433 . S
C1282 C1278 1.350 . S
C1282 C1279 1.463 . S
C1282 N1286 1.427 . S
C1283 H1273 0.929 . S
C1283 C1281 1.433 . S
C1283 N1286 1.384 . S
C1284 H1275 0.929 . S
C1284 C1276 1.378 . S
C1284 C1279 1.350 . S
C1285 H1272 0.929 . S
C1285 C1277 1.433 . S
C1285 N1287 1.384 . S
N1286 C1282 1.427 . S
N1286 C1283 1.384 . S
N1287 C1279 1.427 . S
N1287 C1285 1.384 . S
H1288 C1294 0.930 . S
H1289 C1298 0.930 . S
H1290 C1303 0.929 . S
H1291 C1301 0.929 . S
H1292 C1296 0.929 . S
H1293 C1302 0.929 . S
C1294 H1288 0.930 . S
C1294 C1295 1.367 . S
C1294 C1302 1.378 . S
C1295 C1294 1.367 . S
C1295 C1303 1.433 . S
C1296 H1292 0.929 . S
C1296 C1298 1.378 . S
C1296 C1300 1.350 . S
C1297 C1300 1.463 . S
C1297 C1302 1.350 . S
C1297 N1305 1.427 . S
C1298 H1289 0.930 . S
C1298 C1296 1.378 . S
C1298 C1299 1.367 . S
C1299 C1298 1.367 . S
C1299 C1301 1.433 . S
C1300 C1296 1.350 . S
C1300 C1297 1.463 . S
C1300 N1304 1.427 . S
C1301 H1291 0.929 . S
C1301 C1299 1.433 . S
C1301 N1304 1.384 . S
C1302 H1293 0.929 . S
C1302 C1294 1.378 . S
C1302 C1297 1.350 . S
C1303 H1290 0.929 . S
C1303 C1295 1.433 . S
C1303 N1305 1.384 . S
N1304 C1300 1.427 . S
N1304 C1301 1.384 . S
N1305 C1297 1.427 . S
N1305 C1303 1.384 . S
H1306 C1312 0.930 . S
H1307 C1316 0.930 . S
H1308 C1321 0.929 . S
H1309 C1319 0.929 . S
H1310 C1314 0.929 . S
H1311 C1320 0.929 . S
C1312 H1306 0.930 . S
C1312 C1313 1.367 . S
C1312 C1320 1.378 . S
C1313 C1312 1.367 . S
C1313 C1321 1.433 . S
C1314 H1310 0.929 . S
C1314 C1316 1.378 . S
C1314 C1318 1.350 . S
C1315 C1318 1.463 . S
C1315 C1320 1.350 . S
C1315 N1323 1.427 . S
C1316 H1307 0.930 . S
C1316 C1314 1.378 . S
C1316 C1317 1.367 . S
C1317 C1316 1.367 . S
C1317 C1319 1.433 . S
C1318 C1314 1.350 . S
C1318 C1315 1.463 . S
C1318 N1322 1.427 . S
C1319 H1309 0.929 . S
C1319 C1317 1.433 . S
C1319 N1322 1.384 . S
C1320 H1311 0.929 . S
C1320 C1312 1.378 . S
C1320 C1315 1.350 . S
C1321 H1308 0.929 . S
C1321 C1313 1.433 . S
C1321 N1323 1.384 . S
N1322 C1318 1.427 . S
N1322 C1319 1.384 . S
N1323 C1315 1.427 . S
N1323 C1321 1.384 . S
H1324 C1330 0.930 . S
H1325 C1334 0.930 . S
H1326 C1339 0.929 . S
H1327 C1337 0.929 . S
H1328 C1332 0.929 . S
H1329 C1338 0.929 . S
C1330 H1324 0.930 . S
C1330 C1331 1.367 . S
C1330 C1338 1.378 . S
C1331 C1330 1.367 . S
C1331 C1339 1.433 . S
C1332 H1328 0.929 . S
C1332 C1334 1.378 . S
C1332 C1336 1.350 . S
C1333 C1336 1.463 . S
C1333 C1338 1.350 . S
C1333 N1341 1.427 . S
C1334 H1325 0.930 . S
C1334 C1332 1.378 . S
C1334 C1335 1.367 . S
C1335 C1334 1.367 . S
C1335 C1337 1.433 . S
C1336 C1332 1.350 . S
C1336 C1333 1.463 . S
C1336 N1340 1.427 . S
C1337 H1327 0.929 . S
C1337 C1335 1.433 . S
C1337 N1340 1.384 . S
C1338 H1329 0.929 . S
C1338 C1330 1.378 . S
C1338 C1333 1.350 . S
C1339 H1326 0.929 . S
C1339 C1331 1.433 . S
C1339 N1341 1.384 . S
N1340 C1336 1.427 . S
N1340 C1337 1.384 . S
N1341 C1333 1.427 . S
N1341 C1339 1.384 . S
H1342 C1348 0.930 . S
H1343 C1352 0.930 . S
H1344 C1357 0.929 . S
H1345 C1355 0.929 . S
H1346 C1350 0.929 . S
H1347 C1356 0.929 . S
C1348 H1342 0.930 . S
C1348 C1349 1.367 . S
C1348 C1356 1.378 . S
C1349 C1348 1.367 . S
C1349 C1357 1.433 . S
C1350 H1346 0.929 . S
C1350 C1352 1.378 . S
C1350 C1354 1.350 . S
C1351 C1354 1.463 . S
C1351 C1356 1.350 . S
C1351 N1359 1.427 . S
C1352 H1343 0.930 . S
C1352 C1350 1.378 . S
C1352 C1353 1.367 . S
C1353 C1352 1.367 . S
C1353 C1355 1.433 . S
C1354 C1350 1.350 . S
C1354 C1351 1.463 . S
C1354 N1358 1.427 . S
C1355 H1345 0.929 . S
C1355 C1353 1.433 . S
C1355 N1358 1.384 . S
C1356 H1347 0.929 . S
C1356 C1348 1.378 . S
C1356 C1351 1.350 . S
C1357 H1344 0.929 . S
C1357 C1349 1.433 . S
C1357 N1359 1.384 . S
N1358 C1354 1.427 . S
N1358 C1355 1.384 . S
N1359 C1351 1.427 . S
N1359 C1357 1.384 . S
H1360 C1366 0.930 . S
H1361 C1370 0.930 . S
H1362 C1375 0.929 . S
H1363 C1373 0.929 . S
H1364 C1368 0.929 . S
H1365 C1374 0.929 . S
C1366 H1360 0.930 . S
C1366 C1367 1.367 . S
C1366 C1374 1.378 . S
C1367 C1366 1.367 . S
C1367 C1375 1.433 . S
C1368 H1364 0.929 . S
C1368 C1370 1.378 . S
C1368 C1372 1.350 . S
C1369 C1372 1.463 . S
C1369 C1374 1.350 . S
C1369 N1377 1.427 . S
C1370 H1361 0.930 . S
C1370 C1368 1.378 . S
C1370 C1371 1.367 . S
C1371 C1370 1.367 . S
C1371 C1373 1.433 . S
C1372 C1368 1.350 . S
C1372 C1369 1.463 . S
C1372 N1376 1.427 . S
C1373 H1363 0.929 . S
C1373 C1371 1.433 . S
C1373 N1376 1.384 . S
C1374 H1365 0.929 . S
C1374 C1366 1.378 . S
C1374 C1369 1.350 . S
C1375 H1362 0.929 . S
C1375 C1367 1.433 . S
C1375 N1377 1.384 . S
N1376 C1372 1.427 . S
N1376 C1373 1.384 . S
N1377 C1369 1.427 . S
N1377 C1375 1.384 . S
H1378 C1384 0.930 . S
H1379 C1388 0.930 . S
H1380 C1393 0.929 . S
H1381 C1391 0.929 . S
H1382 C1386 0.929 . S
H1383 C1392 0.929 . S
C1384 H1378 0.930 . S
C1384 C1385 1.367 . S
C1384 C1392 1.378 . S
C1385 C1384 1.367 . S
C1385 C1393 1.433 . S
C1386 H1382 0.929 . S
C1386 C1388 1.378 . S
C1386 C1390 1.350 . S
C1387 C1390 1.463 . S
C1387 C1392 1.350 . S
C1387 N1395 1.427 . S
C1388 H1379 0.930 . S
C1388 C1386 1.378 . S
C1388 C1389 1.367 . S
C1389 C1388 1.367 . S
C1389 C1391 1.433 . S
C1390 C1386 1.350 . S
C1390 C1387 1.463 . S
C1390 N1394 1.427 . S
C1391 H1381 0.929 . S
C1391 C1389 1.433 . S
C1391 N1394 1.384 . S
C1392 H1383 0.929 . S
C1392 C1384 1.378 . S
C1392 C1387 1.350 . S
C1393 H1380 0.929 . S
C1393 C1385 1.433 . S
C1393 N1395 1.384 . S
N1394 C1390 1.427 . S
N1394 C1391 1.384 . S
N1395 C1387 1.427 . S
N1395 C1393 1.384 . S
H1396 C1402 0.930 . S
H1397 C1406 0.930 . S
H1398 C1411 0.929 . S
H1399 C1409 0.929 . S
H1400 C1404 0.929 . S
H1401 C1410 0.929 . S
C1402 H1396 0.930 . S
C1402 C1403 1.367 . S
C1402 C1410 1.378 . S
C1403 C1402 1.367 . S
C1403 C1411 1.433 . S
C1404 H1400 0.929 . S
C1404 C1406 1.378 . S
C1404 C1408 1.350 . S
C1405 C1408 1.463 . S
C1405 C1410 1.350 . S
C1405 N1413 1.427 . S
C1406 H1397 0.930 . S
C1406 C1404 1.378 . S
C1406 C1407 1.367 . S
C1407 C1406 1.367 . S
C1407 C1409 1.433 . S
C1408 C1404 1.350 . S
C1408 C1405 1.463 . S
C1408 N1412 1.427 . S
C1409 H1399 0.929 . S
C1409 C1407 1.433 . S
C1409 N1412 1.384 . S
C1410 H1401 0.929 . S
C1410 C1402 1.378 . S
C1410 C1405 1.350 . S
C1411 H1398 0.929 . S
C1411 C1403 1.433 . S
C1411 N1413 1.384 . S
N1412 C1408 1.427 . S
N1412 C1409 1.384 . S
N1413 C1405 1.427 . S
N1413 C1411 1.384 . S
H1414 C1420 0.930 . S
H1415 C1424 0.930 . S
H1416 C1429 0.929 . S
H1417 C1427 0.929 . S
H1418 C1422 0.929 . S
H1419 C1428 0.929 . S
C1420 H1414 0.930 . S
C1420 C1421 1.367 . S
C1420 C1428 1.378 . S
C1421 C1420 1.367 . S
C1421 C1429 1.433 . S
C1422 H1418 0.929 . S
C1422 C1424 1.378 . S
C1422 C1426 1.350 . S
C1423 C1426 1.463 . S
C1423 C1428 1.350 . S
C1423 N1431 1.427 . S
C1424 H1415 0.930 . S
C1424 C1422 1.378 . S
C1424 C1425 1.367 . S
C1425 C1424 1.367 . S
C1425 C1427 1.433 . S
C1426 C1422 1.350 . S
C1426 C1423 1.463 . S
C1426 N1430 1.427 . S
C1427 H1417 0.929 . S
C1427 C1425 1.433 . S
C1427 N1430 1.384 . S
C1428 H1419 0.929 . S
C1428 C1420 1.378 . S
C1428 C1423 1.350 . S
C1429 H1416 0.929 . S
C1429 C1421 1.433 . S
C1429 N1431 1.384 . S
N1430 C1426 1.427 . S
N1430 C1427 1.384 . S
N1431 C1423 1.427 . S
N1431 C1429 1.384 . S
H1432 C1438 0.930 . S
H1433 C1442 0.930 . S
H1434 C1447 0.929 . S
H1435 C1445 0.929 . S
H1436 C1440 0.929 . S
H1437 C1446 0.929 . S
C1438 H1432 0.930 . S
C1438 C1439 1.367 . S
C1438 C1446 1.378 . S
C1439 C1438 1.367 . S
C1439 C1447 1.433 . S
C1440 H1436 0.929 . S
C1440 C1442 1.378 . S
C1440 C1444 1.350 . S
C1441 C1444 1.463 . S
C1441 C1446 1.350 . S
C1441 N1449 1.427 . S
C1442 H1433 0.930 . S
C1442 C1440 1.378 . S
C1442 C1443 1.367 . S
C1443 C1442 1.367 . S
C1443 C1445 1.433 . S
C1444 C1440 1.350 . S
C1444 C1441 1.463 . S
C1444 N1448 1.427 . S
C1445 H1435 0.929 . S
C1445 C1443 1.433 . S
C1445 N1448 1.384 . S
C1446 H1437 0.929 . S
C1446 C1438 1.378 . S
C1446 C1441 1.350 . S
C1447 H1434 0.929 . S
C1447 C1439 1.433 . S
C1447 N1449 1.384 . S
N1448 C1444 1.427 . S
N1448 C1445 1.384 . S
N1449 C1441 1.427 . S
N1449 C1447 1.384 . S
H1450 C1456 0.930 . S
H1451 C1460 0.930 . S
H1452 C1465 0.929 . S
H1453 C1463 0.929 . S
H1454 C1458 0.929 . S
H1455 C1464 0.929 . S
C1456 H1450 0.930 . S
C1456 C1457 1.367 . S
C1456 C1464 1.378 . S
C1457 C1456 1.367 . S
C1457 C1465 1.433 . S
C1458 H1454 0.929 . S
C1458 C1460 1.378 . S
C1458 C1462 1.350 . S
C1459 C1462 1.463 . S
C1459 C1464 1.350 . S
C1459 N1467 1.427 . S
C1460 H1451 0.930 . S
C1460 C1458 1.378 . S
C1460 C1461 1.367 . S
C1461 C1460 1.367 . S
C1461 C1463 1.433 . S
C1462 C1458 1.350 . S
C1462 C1459 1.463 . S
C1462 N1466 1.427 . S
C1463 H1453 0.929 . S
C1463 C1461 1.433 . S
C1463 N1466 1.384 . S
C1464 H1455 0.929 . S
C1464 C1456 1.378 . S
C1464 C1459 1.350 . S
C1465 H1452 0.929 . S
C1465 C1457 1.433 . S
C1465 N1467 1.384 . S
N1466 C1462 1.427 . S
N1466 C1463 1.384 . S
N1467 C1459 1.427 . S
N1467 C1465 1.384 . S
H1468 C1474 0.930 . S
H1469 C1478 0.930 . S
H1470 C1483 0.929 . S
H1471 C1481 0.929 . S
H1472 C1476 0.929 . S
H1473 C1482 0.929 . S
C1474 H1468 0.930 . S
C1474 C1475 1.367 . S
C1474 C1482 1.378 . S
C1475 C1474 1.367 . S
C1475 C1483 1.433 . S
C1476 H1472 0.929 . S
C1476 C1478 1.378 . S
C1476 C1480 1.350 . S
C1477 C1480 1.463 . S
C1477 C1482 1.350 . S
C1477 N1485 1.427 . S
C1478 H1469 0.930 . S
C1478 C1476 1.378 . S
C1478 C1479 1.367 . S
C1479 C1478 1.367 . S
C1479 C1481 1.433 . S
C1480 C1476 1.350 . S
C1480 C1477 1.463 . S
C1480 N1484 1.427 . S
C1481 H1471 0.929 . S
C1481 C1479 1.433 . S
C1481 N1484 1.384 . S
C1482 H1473 0.929 . S
C1482 C1474 1.378 . S
C1482 C1477 1.350 . S
C1483 H1470 0.929 . S
C1483 C1475 1.433 . S
C1483 N1485 1.384 . S
N1484 C1480 1.427 . S
N1484 C1481 1.384 . S
N1485 C1477 1.427 . S
N1485 C1483 1.384 . S
H1486 C1492 0.930 . S
H1487 C1496 0.930 . S
H1488 C1501 0.929 . S
H1489 C1499 0.929 . S
H1490 C1494 0.929 . S
H1491 C1500 0.929 . S
C1492 H1486 0.930 . S
C1492 C1493 1.367 . S
C1492 C1500 1.378 . S
C1493 C1492 1.367 . S
C1493 C1501 1.433 . S
C1494 H1490 0.929 . S
C1494 C1496 1.378 . S
C1494 C1498 1.350 . S
C1495 C1498 1.463 . S
C1495 C1500 1.350 . S
C1495 N1503 1.427 . S
C1496 H1487 0.930 . S
C1496 C1494 1.378 . S
C1496 C1497 1.367 . S
C1497 C1496 1.367 . S
C1497 C1499 1.433 . S
C1498 C1494 1.350 . S
C1498 C1495 1.463 . S
C1498 N1502 1.427 . S
C1499 H1489 0.929 . S
C1499 C1497 1.433 . S
C1499 N1502 1.384 . S
C1500 H1491 0.929 . S
C1500 C1492 1.378 . S
C1500 C1495 1.350 . S
C1501 H1488 0.929 . S
C1501 C1493 1.433 . S
C1501 N1503 1.384 . S
N1502 C1498 1.427 . S
N1502 C1499 1.384 . S
N1503 C1495 1.427 . S
N1503 C1501 1.384 . S
C647 C26 1.667 . S
C651 C306 1.666 . S
C665 C66 1.673 . S
C669 C186 1.676 . S
C683 C226 1.672 . S
C687 C106 1.665 . S
C701 C146 1.674 . S
C705 C266 1.667 . S
C719 C453 4.193 . S
C723 C173 4.195 1_554 S
C737 C333 4.193 . S
C741 C13 4.195 1_556 S
C755 C413 4.195 . S
C759 C253 4.193 . S
C773 C93 4.191 . S
C777 C373 4.194 . S
C791 C386 1.675 . S
C795 C506 1.673 . S
C809 C426 1.675 . S
C813 C586 1.673 . S
C827 C546 1.673 . S
C831 C346 1.675 . S
C845 C466 1.668 . S
C849 C626 1.665 . S
C863 C573 4.191 . S
C867 C133 4.194 . S
C881 C493 4.191 . S
C885 C213 4.195 . S
C899 C53 4.192 . S
C903 C613 4.192 1_554 S
C917 C293 4.192 . S
C921 C533 4.192 1_556 S
C935 C522 0.860 . S
C939 C2 0.844 . S
C953 C442 0.841 . S
C957 C42 0.843 . S
C971 C482 0.840 . S
C975 C82 0.861 . S
C989 C402 0.836 . S
C993 C122 0.860 . S
C1007 C162 0.843 . S
C1011 C602 0.860 . S
C1025 C362 0.851 . S
C1029 C202 0.836 . S
C1043 C242 0.844 . S
C1047 C562 0.860 . S
C1061 C282 0.861 . S
C1065 C322 0.837 . S
C1079 C23 1.329 . S
C1083 C183 1.325 . S
C1097 C63 1.328 . S
C1101 C223 1.337 . S
C1115 C263 1.341 . S
C1119 C103 1.341 . S
C1133 C143 1.327 . S
C1137 C303 1.336 . S
C1151 C423 1.340 . S
C1155 C343 1.332 . S
C1169 C463 1.325 . S
C1173 C383 1.329 . S
C1187 C503 1.343 . S
C1191 C583 1.339 . S
C1205 C623 1.330 . S
C1209 C543 1.325 . S
C1223 C24 4.595 . S
C1227 C304 4.592 . S
C1241 C64 4.593 . S
C1245 C184 4.594 . S
C1259 C224 4.593 1_556 S
C1263 C104 4.595 . S
C1277 C264 4.593 . S
C1281 C144 4.593 1_554 S
C1295 C457 0.812 . S
C1299 C177 0.831 . S
C1313 C337 0.803 . S
C1317 C17 0.827 . S
C1331 C417 0.801 . S
C1335 C257 0.799 . S
C1349 C97 0.797 . S
C1353 C377 0.804 . S
C1367 C504 4.594 . S
C1371 C384 4.594 1_556 S
C1385 C584 4.593 . S
C1389 C424 4.595 1_554 S
C1403 C544 4.595 . S
C1407 C344 4.592 . S
C1421 C624 4.592 . S
C1425 C464 4.595 . S
C1439 C577 0.797 . S
C1443 C137 0.804 . S
C1457 C217 0.821 . S
C1461 C497 0.829 . S
C1475 C57 0.812 . S
C1479 C617 0.795 . S
C1493 C537 0.828 . S
C1497 C297 0.804 . S
