# Generated by pormake.
# Topology nbo-a, (3)-cn, num edge types: 1
# Building blocks:
#     Node 0, Type 0, BuildingBlock: OLANEW_clean_sbu_2, # of connection points: 3
#     Node 1, Type 0, BuildingBlock: OLANEW_clean_sbu_2, # of connection points: 3
#     Node 2, Type 0, BuildingBlock: OLANEW_clean_sbu_2, # of connection points: 3
#     Node 3, Type 0, BuildingBlock: OLANEW_clean_sbu_2, # of connection points: 3
#     Node 4, Type 0, BuildingBlock: OLANEW_clean_sbu_2, # of connection points: 3
#     Node 5, Type 0, BuildingBlock: OLANEW_clean_sbu_2, # of connection points: 3
#     Node 6, Type 0, BuildingBlock: OLANEW_clean_sbu_2, # of connection points: 3
#     Node 7, Type 0, BuildingBlock: OLANEW_clean_sbu_2, # of connection points: 3
#     Node 8, Type 0, BuildingBlock: OLANEW_clean_sbu_2, # of connection points: 3
#     Node 9, Type 0, BuildingBlock: OLANEW_clean_sbu_2, # of connection points: 3
#     Node 10, Type 0, BuildingBlock: OLANEW_clean_sbu_2, # of connection points: 3
#     Node 11, Type 0, BuildingBlock: OLANEW_clean_sbu_2, # of connection points: 3
#     Node 12, Type 0, BuildingBlock: OLANEW_clean_sbu_2, # of connection points: 3
#     Node 13, Type 0, BuildingBlock: OLANEW_clean_sbu_2, # of connection points: 3
#     Node 14, Type 0, BuildingBlock: OLANEW_clean_sbu_2, # of connection points: 3
#     Node 15, Type 0, BuildingBlock: OLANEW_clean_sbu_2, # of connection points: 3
#     Node 16, Type 0, BuildingBlock: OLANEW_clean_sbu_2, # of connection points: 3
#     Node 17, Type 0, BuildingBlock: OLANEW_clean_sbu_2, # of connection points: 3
#     Node 18, Type 0, BuildingBlock: OLANEW_clean_sbu_2, # of connection points: 3
#     Node 19, Type 0, BuildingBlock: OLANEW_clean_sbu_2, # of connection points: 3
#     Node 20, Type 0, BuildingBlock: OLANEW_clean_sbu_2, # of connection points: 3
#     Node 21, Type 0, BuildingBlock: OLANEW_clean_sbu_2, # of connection points: 3
#     Node 22, Type 0, BuildingBlock: OLANEW_clean_sbu_2, # of connection points: 3
#     Node 23, Type 0, BuildingBlock: OLANEW_clean_sbu_2, # of connection points: 3
#     Edge 24, Type (0, 0), BuildingBlock: OJICUG_clean_linker_0, # of connection points: 2
#     Edge 25, Type (0, 0), BuildingBlock: OJICUG_clean_linker_0, # of connection points: 2
#     Edge 26, Type (0, 0), BuildingBlock: OJICUG_clean_linker_0, # of connection points: 2
#     Edge 27, Type (0, 0), BuildingBlock: OJICUG_clean_linker_0, # of connection points: 2
#     Edge 28, Type (0, 0), BuildingBlock: OJICUG_clean_linker_0, # of connection points: 2
#     Edge 29, Type (0, 0), BuildingBlock: OJICUG_clean_linker_0, # of connection points: 2
#     Edge 30, Type (0, 0), BuildingBlock: OJICUG_clean_linker_0, # of connection points: 2
#     Edge 31, Type (0, 0), BuildingBlock: OJICUG_clean_linker_0, # of connection points: 2
#     Edge 32, Type (0, 0), BuildingBlock: OJICUG_clean_linker_0, # of connection points: 2
#     Edge 33, Type (0, 0), BuildingBlock: OJICUG_clean_linker_0, # of connection points: 2
#     Edge 34, Type (0, 0), BuildingBlock: OJICUG_clean_linker_0, # of connection points: 2
#     Edge 35, Type (0, 0), BuildingBlock: OJICUG_clean_linker_0, # of connection points: 2
#     Edge 36, Type (0, 0), BuildingBlock: OJICUG_clean_linker_0, # of connection points: 2
#     Edge 37, Type (0, 0), BuildingBlock: OJICUG_clean_linker_0, # of connection points: 2
#     Edge 38, Type (0, 0), BuildingBlock: OJICUG_clean_linker_0, # of connection points: 2
#     Edge 39, Type (0, 0), BuildingBlock: OJICUG_clean_linker_0, # of connection points: 2
#     Edge 40, Type (0, 0), BuildingBlock: OJICUG_clean_linker_0, # of connection points: 2
#     Edge 41, Type (0, 0), BuildingBlock: OJICUG_clean_linker_0, # of connection points: 2
#     Edge 42, Type (0, 0), BuildingBlock: OJICUG_clean_linker_0, # of connection points: 2
#     Edge 43, Type (0, 0), BuildingBlock: OJICUG_clean_linker_0, # of connection points: 2
#     Edge 44, Type (0, 0), BuildingBlock: OJICUG_clean_linker_0, # of connection points: 2
#     Edge 45, Type (0, 0), BuildingBlock: OJICUG_clean_linker_0, # of connection points: 2
#     Edge 46, Type (0, 0), BuildingBlock: OJICUG_clean_linker_0, # of connection points: 2
#     Edge 47, Type (0, 0), BuildingBlock: OJICUG_clean_linker_0, # of connection points: 2
#     Edge 48, Type (0, 0), BuildingBlock: OJICUG_clean_linker_0, # of connection points: 2
#     Edge 49, Type (0, 0), BuildingBlock: OJICUG_clean_linker_0, # of connection points: 2
#     Edge 50, Type (0, 0), BuildingBlock: OJICUG_clean_linker_0, # of connection points: 2
#     Edge 51, Type (0, 0), BuildingBlock: OJICUG_clean_linker_0, # of connection points: 2
#     Edge 52, Type (0, 0), BuildingBlock: OJICUG_clean_linker_0, # of connection points: 2
#     Edge 53, Type (0, 0), BuildingBlock: OJICUG_clean_linker_0, # of connection points: 2
#     Edge 54, Type (0, 0), BuildingBlock: OJICUG_clean_linker_0, # of connection points: 2
#     Edge 55, Type (0, 0), BuildingBlock: OJICUG_clean_linker_0, # of connection points: 2
#     Edge 56, Type (0, 0), BuildingBlock: OJICUG_clean_linker_0, # of connection points: 2
#     Edge 57, Type (0, 0), BuildingBlock: OJICUG_clean_linker_0, # of connection points: 2
#     Edge 58, Type (0, 0), BuildingBlock: OJICUG_clean_linker_0, # of connection points: 2
#     Edge 59, Type (0, 0), BuildingBlock: OJICUG_clean_linker_0, # of connection points: 2
# Relax obj value: 0.008
# Max RMSD: 0.055
# Mean RMSD: 0.041
data_MOF--net-nbo-a--node1-OLANEW_clean_sbu_2--edge1-OJICUG_clean_linker_0
_symmetry_space_group_name_H-M    P1
_symmetry_Int_Tables_number       1
_symmetry_cell_setting            triclinic
loop_
_symmetry_equiv_pos_as_xyz
'x, y, z'
_cell_length_a     57.285878
_cell_length_b     56.480261
_cell_length_c     56.88556
_cell_angle_alpha  90.541304
_cell_angle_beta   94.041663
_cell_angle_gamma 94.327232
loop_
_atom_site_label
_atom_site_type_symbol
_atom_site_fract_x
_atom_site_fract_y
_atom_site_fract_z
_atom_type_partial_charge
O0 O 0.09921 0.19726 0.5331 0.0
Cd1 Cd 0.07292 0.22577 0.51545 0.0
O2 O 0.07597 0.16667 0.51925 0.0
Cd3 Cd 0.0455 0.18433 0.50507 0.0
O4 O 0.0093 0.16939 0.49824 0.0
C5 C 0.99482 0.1704 0.51408 0.0
O6 O 0.00108 0.18314 0.53325 0.0
C7 C 0.09497 0.17492 0.53027 0.0
C8 C 0.08677 0.27375 0.52532 0.0
O9 O 0.07214 0.26213 0.53776 0.0
O10 O 0.09518 0.26263 0.50849 0.0
O11 O 0.91334 0.09127 0.53981 0.0
Cd12 Cd 0.89128 0.05511 0.55181 0.0
O13 O 0.92881 0.07391 0.51048 0.0
Cd14 Cd 0.91849 0.03784 0.52136 0.0
O15 O 0.93539 0.00669 0.53473 0.0
C16 C 0.9471 0.99557 0.52064 0.0
O17 O 0.94654 1.00188 0.49844 0.0
C18 C 0.92585 0.0926 0.5222 0.0
C19 C 0.84277 0.05847 0.54666 0.0
O20 O 0.85491 0.06654 0.5652 0.0
O21 O 0.85357 0.04888 0.53049 0.0
O22 O 0.11329 0.94686 0.56834 0.0
Cd23 Cd 0.0821 0.91522 0.55899 0.0
O24 O 0.09965 0.95316 0.60292 0.0
Cd25 Cd 0.06474 0.93652 0.59222 0.0
O26 O 0.0289 0.94258 0.57894 0.0
C27 C 0.02381 0.94309 0.55684 0.0
O28 O 0.03974 0.93793 0.54248 0.0
C29 C 0.11553 0.95692 0.58857 0.0
C30 C 0.09902 0.87002 0.5563 0.0
O31 O 0.09436 0.8818 0.53762 0.0
O32 O 0.09583 0.87959 0.57622 0.0
O33 O 0.21205 0.01291 0.63051 0.0
Cd34 Cd 0.2479 0.03708 0.6435 0.0
O35 O 0.20007 0.04141 0.60785 0.0
Cd36 Cd 0.17508 0.06007 0.58521 0.0
O37 O 0.15276 0.08568 0.56797 0.0
C38 C 0.15779 0.10791 0.57085 0.0
O39 O 0.1767 0.11531 0.5841 0.0
C40 C 0.19671 0.02057 0.61587 0.0
C41 C 0.28707 0.02081 0.62382 0.0
O42 O 0.27984 0.01211 0.64297 0.0
O43 O 0.2758 0.03727 0.614 0.0
O44 O 0.7063 0.06963 0.189 0.0
Cd45 Cd 0.72734 0.10578 0.20628 0.0
O46 O 0.67313 0.08524 0.17847 0.0
Cd47 Cd 0.68791 0.12196 0.18027 0.0
O48 O 0.69073 0.14932 0.15354 0.0
C49 C 0.67388 0.16242 0.14928 0.0
O50 O 0.65636 0.16112 0.16304 0.0
C51 C 0.68499 0.06718 0.18086 0.0
C52 C 0.70602 0.12387 0.24458 0.0
O53 O 0.71779 0.10551 0.24671 0.0
O54 O 0.7043 0.13373 0.22443 0.0
O55 O 0.11957 0.5545 0.18073 0.0
Cd56 Cd 0.0945 0.53274 0.20741 0.0
O57 O 0.08705 0.5601 0.15985 0.0
Cd58 Cd 0.06249 0.56836 0.13027 0.0
O59 O 0.02907 0.56715 0.10881 0.0
C60 C 0.01044 0.56191 0.11918 0.0
O61 O 0.0122 0.55807 0.14196 0.0
C62 C 0.10935 0.56286 0.16242 0.0
C63 C 0.08578 0.55859 0.24732 0.0
O64 O 0.10242 0.54461 0.24788 0.0
O65 O 0.07354 0.5606 0.22779 0.0
O66 O 0.56577 0.10355 0.87912 0.0
Cd67 Cd 0.54239 0.07861 0.84953 0.0
O68 O 0.57465 0.06993 0.89485 0.0
Cd69 Cd 0.59166 0.04616 0.9198 0.0
O70 O 0.60535 0.02255 0.9468 0.0
C71 C 0.59254 0.00478 0.95331 0.0
O72 O 0.57123 1.00067 0.94328 0.0
C73 C 0.57626 0.09254 0.89559 0.0
C74 C 0.56952 0.058 0.81734 0.0
O75 O 0.559 0.07668 0.81209 0.0
O76 O 0.56736 0.04918 0.83782 0.0
O77 O 0.1189 0.51997 0.9287 0.0
Cd78 Cd 0.09294 0.48955 0.90724 0.0
O79 O 0.13824 0.49361 0.94864 0.0
Cd80 Cd 0.10896 0.46721 0.94051 0.0
O81 O 0.07286 0.46701 0.95066 0.0
C82 C 0.0696 0.48545 0.96263 0.0
O83 O 0.08736 0.50133 0.96714 0.0
C84 C 0.13597 0.51509 0.94292 0.0
C85 C 0.07804 0.50451 0.86263 0.0
O86 O 0.06491 0.50573 0.87986 0.0
O87 O 0.09815 0.49622 0.86652 0.0
O88 O 0.19911 0.58227 0.01951 0.0
Cd89 Cd 0.21694 0.60883 0.05103 0.0
O90 O 0.17128 0.60538 0.00838 0.0
Cd91 Cd 0.17444 0.62378 0.04242 0.0
O92 O 0.15752 0.61834 0.07541 0.0
C93 C 0.16423 0.60163 0.08842 0.0
O94 O 0.18208 0.59013 0.08247 0.0
C95 C 0.18231 0.5871 0.00496 0.0
C96 C 0.26449 0.60109 0.05772 0.0
O97 O 0.24934 0.59039 0.07027 0.0
O98 O 0.25721 0.61583 0.04239 0.0
O99 O 0.63826 0.20825 0.04998 0.0
Cd100 Cd 0.62422 0.21593 0.00932 0.0
O101 O 0.66582 0.18623 0.03912 0.0
Cd102 Cd 0.65292 0.18467 0.00202 0.0
O103 O 0.63531 0.16724 0.97038 0.0
C104 C 0.6264 0.14621 0.97305 0.0
O105 O 0.62834 0.1368 0.99408 0.0
C106 C 0.6557 0.19619 0.05533 0.0
C107 C 0.62477 0.26432 -0.00054 0.0
O108 O 0.6066 0.25313 0.00713 0.0
O109 O 0.64273 0.25265 0.99659 0.0
O110 O 0.90121 0.55424 0.07679 0.0
Cd111 Cd 0.86406 0.54698 0.0529 0.0
O112 O 0.91759 0.54005 0.04658 0.0
Cd113 Cd 0.94665 0.52757 0.02812 0.0
O114 O 0.97875 0.51981 0.01211 0.0
C115 C 0.98066 0.50095 0.00025 0.0
O116 O 0.96259 0.48519 0.99727 0.0
C117 C 0.91963 0.54904 0.0673 0.0
C118 C 0.82458 0.53723 0.07831 0.0
O119 O 0.83725 0.52064 0.07252 0.0
O120 O 0.83086 0.55852 0.07249 0.0
O121 O 0.60659 0.94362 0.04858 0.0
Cd122 Cd 0.61412 0.9299 0.08885 0.0
O123 O 0.6422 0.96085 0.04737 0.0
Cd124 Cd 0.65279 0.95394 0.08413 0.0
O125 O 0.6639 0.97207 0.11752 0.0
C126 C 0.64925 0.98494 0.12612 0.0
O127 O 0.62794 0.98454 0.11584 0.0
C128 C 0.62188 0.95553 0.03744 0.0
C129 C 0.62154 0.88177 0.09275 0.0
O130 O 0.60079 0.88892 0.09223 0.0
O131 O 0.63875 0.89736 0.09089 0.0
O132 O 0.65218 0.70828 0.12037 0.0
Cd133 Cd 0.64411 0.74341 0.1431 0.0
O134 O 0.61476 0.70102 0.11049 0.0
Cd135 Cd 0.58162 0.68176 0.09785 0.0
O136 O 0.54764 0.66511 0.08434 0.0
C137 C 0.53089 0.66171 0.09774 0.0
O138 O 0.53426 0.66832 0.12001 0.0
C139 C 0.63563 0.69469 0.11039 0.0
C140 C 0.63723 0.78564 0.11949 0.0
O141 O 0.65789 0.78032 0.12665 0.0
O142 O 0.61994 0.77049 0.12262 0.0
O143 O 0.43656 0.5917 0.07782 0.0
Cd144 Cd 0.40594 0.56058 0.06568 0.0
O145 O 0.44534 0.59835 0.04132 0.0
Cd146 Cd 0.42539 0.56609 0.02797 0.0
O147 O 0.43865 0.53145 0.02261 0.0
C148 C 0.45261 0.52519 0.03939 0.0
O149 O 0.45575 0.53858 0.05854 0.0
C150 C 0.44836 0.60355 0.06318 0.0
C151 C 0.36077 0.57612 0.06443 0.0
O152 O 0.36965 0.5662 0.0828 0.0
O153 O 0.37334 0.57888 0.04675 0.0
O154 O 0.63441 0.43897 0.99315 0.0
Cd155 Cd 0.62353 0.41075 0.96063 0.0
O156 O 0.59858 0.43336 0.00426 0.0
Cd157 Cd 0.5699 0.44176 0.02545 0.0
O158 O 0.53922 0.4582 0.03672 0.0
C159 C 0.52143 0.45903 0.02215 0.0
O160 O 0.52176 0.44902 0.00125 0.0
C161 C 0.61915 0.44351 0.00736 0.0
C162 C 0.62438 0.36352 0.97467 0.0
O163 O 0.64262 0.37477 0.96721 0.0
O164 O 0.60577 0.37466 0.97562 0.0
O165 O 0.6666 0.48441 0.10388 0.0
Cd166 Cd 0.69256 0.5021 0.13634 0.0
O167 O 0.66147 0.52006 0.09072 0.0
Cd168 Cd 0.64744 0.54849 0.0693 0.0
O169 O 0.63969 0.58598 0.06994 0.0
C170 C 0.65429 0.59931 0.08291 0.0
O171 O 0.67253 0.5899 0.09333 0.0
C172 C 0.65757 0.49767 0.08836 0.0
C173 C 0.73682 0.51451 0.12048 0.0
O174 O 0.7317 0.49376 0.12846 0.0
O175 O 0.72111 0.52953 0.12033 0.0
O176 O 0.04915 0.5188 0.69494 0.0
Cd177 Cd 0.03388 0.54538 0.72319 0.0
O178 O 0.0738 0.54906 0.68834 0.0
Cd179 Cd 0.09994 0.56997 0.66933 0.0
O180 O 0.11866 0.59632 0.64822 0.0
C181 C 0.11324 0.61774 0.6487 0.0
O182 O 0.09693 0.62352 0.66235 0.0
C183 C 0.0663 0.52756 0.68403 0.0
C184 C 0.04774 0.53331 0.76906 0.0
O185 O 0.0273 0.52632 0.7598 0.0
O186 O 0.06148 0.54615 0.7567 0.0
O187 O 0.66182 0.01105 0.68793 0.0
Cd188 Cd 0.64486 0.98552 0.71774 0.0
O189 O 0.62573 0.01087 0.67271 0.0
Cd190 Cd 0.59659 0.01627 0.64675 0.0
O191 O 0.56313 0.01484 0.62557 0.0
C192 C 0.54888 0.99677 0.62782 0.0
O193 O 0.55501 0.98007 0.64243 0.0
C194 C 0.64735 0.01762 0.6718 0.0
C195 C 0.62142 0.01063 0.74997 0.0
O196 O 0.64236 0.00483 0.7551 0.0
O197 O 0.61163 0.00467 0.72962 0.0
O198 O 0.06723 0.64527 0.39743 0.0
Cd199 Cd 0.03936 0.62071 0.37147 0.0
O200 O 0.08261 0.6126 0.40873 0.0
Cd201 Cd 0.10277 0.58891 0.43118 0.0
O202 O 0.11598 0.56126 0.45417 0.0
C203 C 0.10931 0.53949 0.45029 0.0
O204 O 0.09479 0.53368 0.43188 0.0
C205 C 0.08206 0.63504 0.41065 0.0
C206 C 0.05809 0.60331 0.33154 0.0
O207 O 0.04743 0.62247 0.3308 0.0
O208 O 0.06025 0.59264 0.35127 0.0
O209 O 0.65671 0.16632 0.39901 0.0
Cd210 Cd 0.63948 0.17907 0.36115 0.0
O211 O 0.62977 0.13673 0.39409 0.0
Cd212 Cd 0.60933 0.10604 0.40723 0.0
O213 O 0.58631 0.08127 0.42578 0.0
C214 C 0.58326 0.08581 0.44722 0.0
O215 O 0.59442 0.10482 0.45737 0.0
C216 C 0.64701 0.14711 0.4064 0.0
C217 C 0.66149 0.16118 0.32338 0.0
O218 O 0.6664 0.18262 0.33072 0.0
O219 O 0.64623 0.14821 0.33386 0.0
O220 O 0.68072 0.08619 0.49741 0.0
Cd221 Cd 0.69336 0.06596 0.53336 0.0
O222 O 0.67403 0.11956 0.51513 0.0
Cd223 Cd 0.67702 0.10343 0.5499 0.0
O224 O 0.66703 0.08499 0.58176 0.0
C225 C 0.68045 0.07155 0.59315 0.0
O226 O 0.70142 0.06896 0.58598 0.0
C227 C 0.67515 0.10755 0.49627 0.0
C228 C 0.74206 0.06385 0.53742 0.0
O229 O 0.72875 0.04795 0.52575 0.0
O230 O 0.73238 0.08077 0.54718 0.0
O231 O 0.13951 0.70365 0.57711 0.0
Cd232 Cd 0.15168 0.732 0.547 0.0
O233 O 0.16224 0.67664 0.56563 0.0
Cd234 Cd 0.16747 0.69203 0.53127 0.0
O235 O 0.15489 0.68071 0.49551 0.0
C236 C 0.13467 0.68625 0.48791 0.0
O237 O 0.12343 0.70038 0.50085 0.0
C238 C 0.14838 0.68381 0.5802 0.0
C239 C 0.13352 0.77651 0.55074 0.0
O240 O 0.15141 0.77121 0.56389 0.0
O241 O 0.12399 0.76073 0.536 0.0
O242 O 0.44168 0.9745 0.58315 0.0
Cd243 Cd 0.4041 0.96722 0.56013 0.0
O244 O 0.45574 0.99515 0.55421 0.0
Cd245 Cd 0.4834 0.01408 0.5355 0.0
O246 O 0.51058 0.03452 0.51762 0.0
C247 C 0.51565 0.02823 0.49721 0.0
O248 O 0.50444 0.0092 0.48716 0.0
C249 C 0.45867 0.9866 0.57473 0.0
C250 C 0.36682 0.98533 0.58166 0.0
O251 O 0.37333 0.96463 0.58661 0.0
O252 O 0.37806 0.99756 0.56664 0.0
O253 O 0.11993 0.44974 0.52108 0.0
Cd254 Cd 0.12543 0.42193 0.55372 0.0
O255 O 0.13969 0.47888 0.54162 0.0
Cd256 Cd 0.13914 0.46237 0.57603 0.0
O257 O 0.12718 0.47439 0.60941 0.0
C258 C 0.10522 0.47325 0.61174 0.0
O259 O 0.09091 0.46285 0.59504 0.0
C260 C 0.12924 0.47096 0.52236 0.0
C261 C 0.11221 0.37399 0.54298 0.0
O262 O 0.09805 0.38734 0.55217 0.0
O263 O 0.13244 0.38337 0.53843 0.0
C264 C 0.14739 0.14982 0.56347 0.0
C265 C 0.14222 0.12522 0.55994 0.0
H266 H 0.13664 0.18487 0.55687 0.0
C267 C 0.12178 0.11727 0.54616 0.0
H268 H 0.16302 0.15656 0.57397 0.0
C269 C 0.10672 0.13346 0.5364 0.0
C270 C 0.11167 0.15806 0.54012 0.0
H271 H 0.11726 0.09849 0.54304 0.0
H272 H 0.09104 0.12659 0.52603 0.0
C273 C 0.13228 0.16608 0.55365 0.0
C274 C 0.94178 0.13397 0.5338 0.0
C275 C 0.93967 0.11507 0.51732 0.0
H276 H 0.96081 0.16648 0.54559 0.0
C277 C 0.95332 0.11663 0.49772 0.0
H278 H 0.93143 0.13343 0.54903 0.0
C279 C 0.97009 0.13566 0.49569 0.0
C280 C 0.97369 0.15345 0.51331 0.0
H281 H 0.95195 0.10252 0.48455 0.0
H282 H 0.98119 0.13561 0.48104 0.0
C283 C 0.95868 0.15293 0.53185 0.0
C284 C 0.96773 0.97485 0.55403 0.0
C285 C 0.96413 0.97875 0.52971 0.0
H286 H 0.9893 0.96033 0.58172 0.0
C287 C 0.97863 0.96828 0.51428 0.0
H288 H 0.95679 0.98253 0.5664 0.0
C289 C 0.99727 0.95556 0.52307 0.0
C290 C 0.00184 0.95301 0.54747 0.0
H291 H 0.97623 0.97075 0.49543 0.0
H292 H 0.00869 0.94861 0.51072 0.0
C293 C 0.98639 0.96211 0.56282 0.0
C294 C 0.14503 0.97534 0.61905 0.0
C295 C 0.13624 0.97337 0.59539 0.0
H296 H 0.17135 0.99166 0.64394 0.0
C297 C 0.14703 0.98766 0.57852 0.0
H298 H 0.13704 0.96454 0.6324 0.0
C299 C 0.1662 0.00376 0.58527 0.0
C300 C 0.17527 0.00528 0.60886 0.0
H301 H 0.14046 0.9866 0.56018 0.0
H302 H 0.17434 0.01448 0.57196 0.0
C303 C 0.1646 0.99085 0.62565 0.0
C304 C 0.64797 0.19667 0.09819 0.0
C305 C 0.66268 0.19152 0.08035 0.0
H306 H 0.64007 0.19162 0.13412 0.0
C307 C 0.6829 0.17961 0.08631 0.0
H308 H 0.63231 0.20592 0.09424 0.0
C309 C 0.68744 0.17156 0.10921 0.0
C310 C 0.67173 0.17507 0.12661 0.0
H311 H 0.69474 0.17558 0.07304 0.0
H312 H 0.70259 0.16147 0.11289 0.0
C313 C 0.65241 0.18844 0.12108 0.0
C314 C 0.96674 0.55357 0.1176 0.0
C315 C 0.98717 0.55935 0.10585 0.0
H316 H 0.92944 0.5458 0.11458 0.0
C317 C 0.98509 0.5623 0.08129 0.0
H318 H 0.96766 0.55128 0.13652 0.0
C319 C 0.96314 0.55915 0.06876 0.0
C320 C 0.94284 0.55283 0.08047 0.0
H321 H 0.00042 0.56701 0.07172 0.0
H322 H 0.96206 0.5621 0.04997 0.0
C323 C 0.94482 0.55046 0.10506 0.0
C324 C 0.65097 0.0409 0.16324 0.0
C325 C 0.67482 0.04391 0.17118 0.0
H326 H 0.62408 0.01967 0.14314 0.0
C327 C 0.68935 0.02552 0.16712 0.0
H328 H 0.63923 0.0546 0.1663 0.0
C329 C 0.68067 0.00549 0.15367 0.0
C330 C 0.65726 0.0034 0.14417 0.0
H331 H 0.70778 0.0272 0.1731 0.0
H332 H 0.69263 0.99227 0.14973 0.0
C333 C 0.64227 0.02082 0.14996 0.0
C334 C 0.14657 0.56765 0.14214 0.0
C335 C 0.12351 0.57394 0.14411 0.0
H336 H 0.17744 0.57143 0.12304 0.0
C337 C 0.11442 0.59066 0.12853 0.0
H338 H 0.15413 0.5549 0.15396 0.0
C339 C 0.12793 0.60037 0.1109 0.0
C340 C 0.1507 0.59338 0.10842 0.0
H341 H 0.09696 0.59635 0.13002 0.0
H342 H 0.12032 0.61291 0.09887 0.0
C343 C 0.15994 0.57712 0.1244 0.0
C344 C 0.62392 0.99393 0.98334 0.0
C345 C 0.60085 0.9901 0.97319 0.0
H346 H 0.64878 0.98574 0.0113 0.0
C347 C 0.58545 0.97297 0.98301 0.0
H348 H 0.6363 0.00684 0.97608 0.0
C349 C 0.5926 0.96086 0.00329 0.0
C350 C 0.61534 0.96553 0.0141 0.0
H351 H 0.56759 0.96948 0.97554 0.0
H352 H 0.58003 0.94843 0.01093 0.0
C353 C 0.63111 0.98174 0.00351 0.0
C354 C 0.17005 0.52929 0.97079 0.0
C355 C 0.15096 0.53446 0.9553 0.0
H356 H 0.19525 0.54203 0.99841 0.0
C357 C 0.14458 0.55799 0.95397 0.0
H358 H 0.17554 0.51139 0.9721 0.0
C359 C 0.15575 0.57554 0.9692 0.0
C360 C 0.17368 0.56995 0.9859 0.0
H361 H 0.13003 0.56263 0.94213 0.0
H362 H 0.14958 0.59319 0.9686 0.0
C363 C 0.18137 0.54689 0.98586 0.0
C364 C 0.60336 0.1096 0.95665 0.0
C365 C 0.61391 0.13245 0.95304 0.0
H366 H 0.58259 0.07949 0.94162 0.0
C367 C 0.61214 0.14196 0.93029 0.0
H368 H 0.60413 0.10182 0.97399 0.0
C369 C 0.60008 0.12888 0.91159 0.0
C370 C 0.58968 0.10598 0.91522 0.0
H371 H 0.62001 0.15953 0.92692 0.0
H372 H 0.59894 0.13666 0.89426 0.0
C373 C 0.59129 0.09658 0.93798 0.0
C374 C 0.02743 0.47218 0.96816 0.0
C375 C 0.04657 0.48922 0.97174 0.0
H376 H 0.9915 0.46249 0.97437 0.0
C377 C 0.04371 0.51013 0.98446 0.0
H378 H 0.02908 0.4559 0.95842 0.0
C379 C 0.02231 0.5139 0.99356 0.0
C380 C 0.00318 0.49685 0.99018 0.0
H381 H 0.05806 0.52367 0.98752 0.0
H382 H 0.02083 0.5302 0.00333 0.0
C383 C 0.00592 0.47596 0.97731 0.0
C384 C 0.66136 0.66101 0.1102 0.0
C385 C 0.64084 0.67103 0.10137 0.0
H386 H 0.68163 0.6308 0.11133 0.0
C387 C 0.62551 0.65784 0.08487 0.0
H388 H 0.67368 0.67066 0.12282 0.0
C389 C 0.63003 0.63469 0.07833 0.0
C390 C 0.6501 0.6244 0.088 0.0
H391 H 0.6101 0.66532 0.07692 0.0
H392 H 0.61765 0.62478 0.06598 0.0
C393 C 0.66591 0.63804 0.10364 0.0
C394 C 0.48374 0.63055 0.05602 0.0
C395 C 0.4676 0.62122 0.07168 0.0
H396 H 0.5164 0.65054 0.05197 0.0
C397 C 0.47151 0.627 0.0958 0.0
H398 H 0.48129 0.62649 0.03732 0.0
C399 C 0.49168 0.6409 0.1042 0.0
C400 C 0.50842 0.64912 0.08867 0.0
H401 H 0.4594 0.62015 0.10833 0.0
H402 H 0.49452 0.64446 0.12296 0.0
C403 C 0.50397 0.64425 0.06443 0.0
C404 C 0.48388 0.47727 0.01028 0.0
C405 C 0.50187 0.4734 0.02762 0.0
H406 H 0.45401 0.49655 0.00041 0.0
C407 C 0.50189 0.48478 0.04969 0.0
H408 H 0.48326 0.46866 0.99313 0.0
C409 C 0.48508 0.50068 0.05389 0.0
C410 C 0.46791 0.50562 0.03609 0.0
H411 H 0.51538 0.48203 0.06351 0.0
H412 H 0.48614 0.50978 0.07082 0.0
C413 C 0.46708 0.49324 0.01446 0.0
C414 C 0.62893 0.46631 0.07003 0.0
C415 C 0.64412 0.48669 0.06751 0.0
H416 H 0.60853 0.43698 0.0527 0.0
C417 C 0.64907 0.49418 0.04482 0.0
H418 H 0.62503 0.46011 0.0874 0.0
C419 C 0.64025 0.48053 0.02503 0.0
C420 C 0.62572 0.45968 0.02764 0.0
H421 H 0.661 0.50966 0.04248 0.0
H422 H 0.64531 0.48588 0.00776 0.0
C423 C 0.61949 0.45312 0.05023 0.0
C424 C 0.14985 0.6454 0.60174 0.0
C425 C 0.1412 0.668 0.59951 0.0
H426 H 0.14789 0.61188 0.61898 0.0
C427 C 0.12445 0.67451 0.61479 0.0
H428 H 0.16283 0.6398 0.59034 0.0
C429 C 0.11589 0.65843 0.63128 0.0
C430 C 0.12384 0.6355 0.63279 0.0
H431 H 0.11746 0.69178 0.61359 0.0
H432 H 0.10256 0.6638 0.64238 0.0
C433 C 0.14125 0.62934 0.61816 0.0
C434 C 0.51052 0.97396 0.61636 0.0
C435 C 0.52573 0.99444 0.6143 0.0
H436 H 0.47746 0.9555 0.60541 0.0
C437 C 0.51852 0.01261 0.59935 0.0
H438 H 0.51545 0.95966 0.62779 0.0
C439 C 0.49666 0.01022 0.5866 0.0
C440 C 0.48168 0.98955 0.58836 0.0
H441 H 0.52969 0.02875 0.5976 0.0
H442 H 0.49132 0.0248 0.5758 0.0
C443 C 0.48871 0.97158 0.60359 0.0
C444 C 0.07184 0.48235 0.63562 0.0
C445 C 0.09571 0.48595 0.6314 0.0
H446 H 0.04389 0.49267 0.65569 0.0
C447 C 0.11003 0.50289 0.64516 0.0
H448 H 0.06036 0.46939 0.62537 0.0
C449 C 0.1005 0.51644 0.66228 0.0
C450 C 0.07653 0.51318 0.66612 0.0
H451 H 0.12851 0.50607 0.64238 0.0
H452 H 0.11196 0.52928 0.67268 0.0
C453 C 0.0624 0.49568 0.65295 0.0
C454 C 0.6868 0.0431 0.62614 0.0
C455 C 0.67219 0.05833 0.61373 0.0
H456 H 0.69032 0.01832 0.6542 0.0
C457 C 0.64946 0.06051 0.62097 0.0
H458 H 0.70443 0.04107 0.6211 0.0
C459 C 0.6414 0.04745 0.63994 0.0
C460 C 0.65584 0.03187 0.65201 0.0
H461 H 0.63783 0.07227 0.61197 0.0
H462 H 0.62403 0.04993 0.64538 0.0
C463 C 0.67874 0.03009 0.64513 0.0
C464 C 0.11165 0.48082 0.48216 0.0
C465 C 0.12631 0.48743 0.50238 0.0
H466 H 0.09482 0.49206 0.44977 0.0
C467 C 0.13675 0.5108 0.50431 0.0
H468 H 0.10336 0.46297 0.48009 0.0
C469 C 0.1318 0.52745 0.48703 0.0
C470 C 0.11632 0.52117 0.46734 0.0
H471 H 0.14826 0.51652 0.51956 0.0
H472 H 0.13968 0.54544 0.48946 0.0
C473 C 0.10672 0.49752 0.46481 0.0
C474 C 0.66159 0.15226 0.44878 0.0
C475 C 0.65513 0.13729 0.42919 0.0
H476 H 0.6727 0.15456 0.48558 0.0
C477 C 0.65624 0.11269 0.43155 0.0
H478 H 0.66095 0.17131 0.44733 0.0
C479 C 0.66322 0.10312 0.45323 0.0
C480 C 0.66901 0.11797 0.47309 0.0
H481 H 0.65185 0.10082 0.41656 0.0
H482 H 0.66367 0.08404 0.45451 0.0
C483 C 0.66822 0.14266 0.47063 0.0
C484 C 0.08833 0.6695 0.4387 0.0
C485 C 0.09666 0.64895 0.42918 0.0
H486 H 0.0938 0.69736 0.46467 0.0
C487 C 0.11858 0.64187 0.43783 0.0
H488 H 0.07155 0.67549 0.4323 0.0
C489 C 0.13148 0.65457 0.4563 0.0
C490 C 0.1226 0.67449 0.46655 0.0
H491 H 0.1258 0.62659 0.43033 0.0
H492 H 0.14808 0.64836 0.46298 0.0
C493 C 0.10108 0.68203 0.45727 0.0
C494 C 0.5457 0.06271 0.49553 0.0
C495 C 0.53352 0.0425 0.48469 0.0
H496 H 0.57099 0.09213 0.49228 0.0
C497 C 0.5383 0.03628 0.46163 0.0
H498 H 0.54248 0.06797 0.5133 0.0
C499 C 0.55465 0.05017 0.44955 0.0
C500 C 0.56661 0.07055 0.46029 0.0
H501 H 0.52926 0.0208 0.45277 0.0
H502 H 0.55776 0.04502 0.43172 0.0
C503 C 0.56208 0.07656 0.48348 0.0
C504 C 0.11278 0.31079 0.51973 0.0
C505 C 0.09341 0.29935 0.52995 0.0
H506 H 0.13403 0.34324 0.51596 0.0
C507 C 0.08019 0.31272 0.54436 0.0
H508 H 0.12334 0.301 0.50855 0.0
C509 C 0.08611 0.337 0.54832 0.0
C510 C 0.10559 0.3484 0.53825 0.0
H511 H 0.0651 0.30448 0.55242 0.0
H512 H 0.07554 0.34678 0.55948 0.0
C513 C 0.11892 0.335 0.52398 0.0
C514 C 0.77877 0.04758 0.52473 0.0
C515 C 0.76785 0.06264 0.53964 0.0
H516 H 0.81104 0.03468 0.51506 0.0
C517 C 0.78178 0.07645 0.55675 0.0
H518 H 0.76852 0.03678 0.51132 0.0
C519 C 0.8061 0.07503 0.55908 0.0
C520 C 0.81704 0.06005 0.54411 0.0
H521 H 0.77387 0.08818 0.56854 0.0
H522 H 0.81634 0.08578 0.57254 0.0
C523 C 0.80314 0.04644 0.52682 0.0
C524 C 0.10335 0.83215 0.53424 0.0
C525 C 0.10774 0.84605 0.55492 0.0
H526 H 0.10764 0.79904 0.51689 0.0
C527 C 0.12048 0.83681 0.5743 0.0
H528 H 0.09349 0.83875 0.51905 0.0
C529 C 0.12898 0.81428 0.5729 0.0
C530 C 0.1244 0.80029 0.55229 0.0
H531 H 0.12419 0.84714 0.59046 0.0
H532 H 0.13895 0.80772 0.58804 0.0
C533 C 0.11135 0.80938 0.53304 0.0
C534 C 0.33674 0.98278 0.61162 0.0
C535 C 0.34671 0.99469 0.59274 0.0
H536 H 0.31021 0.98178 0.63636 0.0
C537 C 0.33708 0.01542 0.58433 0.0
H538 H 0.34378 0.96678 0.61854 0.0
C539 C 0.31771 0.02391 0.59441 0.0
C540 C 0.30771 0.01198 0.61328 0.0
H541 H 0.34434 0.02499 0.56978 0.0
H542 H 0.31059 0.03985 0.58744 0.0
C543 C 0.31752 0.9914 0.62187 0.0
C544 C 0.69123 0.15771 0.26628 0.0
C545 C 0.69475 0.13342 0.2648 0.0
H546 H 0.6784 0.18565 0.28638 0.0
C547 C 0.68735 0.11832 0.28275 0.0
H548 H 0.69686 0.16973 0.2527 0.0
C549 C 0.67626 0.12732 0.30167 0.0
C550 C 0.67303 0.15167 0.30332 0.0
H551 H 0.68978 0.0995 0.28196 0.0
H552 H 0.6705 0.11528 0.31518 0.0
C553 C 0.68078 0.16682 0.28556 0.0
C554 C 0.06522 0.58989 0.26725 0.0
C555 C 0.08019 0.57129 0.26881 0.0
H556 H 0.04678 0.61486 0.28589 0.0
C557 C 0.0889 0.56421 0.29115 0.0
H558 H 0.05831 0.59581 0.25027 0.0
C559 C 0.08206 0.57492 0.31156 0.0
C560 C 0.06668 0.59317 0.31001 0.0
H561 H 0.10046 0.54991 0.29291 0.0
H562 H 0.08861 0.5687 0.32855 0.0
C563 C 0.05867 0.60085 0.28765 0.0
C564 C 0.60154 0.03254 0.8078 0.0
C565 C 0.58337 0.04661 0.80012 0.0
H566 H 0.6282 0.01052 0.79787 0.0
C567 C 0.57818 0.04923 0.77583 0.0
H568 H 0.60595 0.03029 0.82644 0.0
C569 C 0.59053 0.03749 0.75951 0.0
C570 C 0.60872 0.02344 0.76719 0.0
H571 H 0.56419 0.05991 0.76943 0.0
H572 H 0.58593 0.0395 0.74087 0.0
C573 C 0.61432 0.02131 0.79148 0.0
C574 C 0.07943 0.52615 0.80002 0.0
C575 C 0.05542 0.52642 0.79316 0.0
H576 H 0.1054 0.51862 0.82731 0.0
C577 C 0.03887 0.51972 0.80942 0.0
H578 H 0.09257 0.53115 0.7878 0.0
C579 C 0.04622 0.513 0.83218 0.0
C580 C 0.07023 0.51231 0.83887 0.0
H581 H 0.02024 0.51984 0.8046 0.0
H582 H 0.03311 0.50794 0.84439 0.0
C583 C 0.08677 0.5189 0.82257 0.0
C584 C 0.29794 0.58222 0.07904 0.0
C585 C 0.28948 0.59588 0.06022 0.0
H586 H 0.32715 0.56547 0.09527 0.0
C587 C 0.30491 0.60374 0.04328 0.0
H588 H 0.2865 0.57594 0.09241 0.0
C589 C 0.32813 0.59754 0.04479 0.0
C590 C 0.3365 0.58358 0.06342 0.0
H591 H 0.29892 0.61426 0.02854 0.0
H592 H 0.33948 0.60354 0.03124 0.0
C593 C 0.32124 0.57625 0.0807 0.0
C594 C 0.60465 0.32622 0.99001 0.0
C595 C 0.62468 0.33832 0.98162 0.0
H596 H 0.58898 0.29343 0.00227 0.0
C597 C 0.64489 0.32599 0.97959 0.0
H598 H 0.58881 0.33519 0.99182 0.0
C599 C 0.64497 0.30203 0.98556 0.0
C600 C 0.62487 0.28987 0.99373 0.0
H601 H 0.66062 0.33479 0.97321 0.0
H602 H 0.66078 0.29302 0.98362 0.0
C603 C 0.60475 0.30226 0.99602 0.0
C604 C 0.79697 0.50868 0.0982 0.0
C605 C 0.80283 0.5318 0.09049 0.0
H606 H 0.77164 0.48513 0.11387 0.0
C607 C 0.78724 0.54944 0.09367 0.0
H608 H 0.80862 0.49469 0.09607 0.0
C609 C 0.76597 0.54392 0.10375 0.0
C610 C 0.7599 0.52069 0.11102 0.0
H611 H 0.79123 0.56743 0.08792 0.0
H612 H 0.75416 0.55782 0.10557 0.0
C613 C 0.77577 0.5032 0.10843 0.0
C614 C 0.65233 0.826 0.10682 0.0
C615 C 0.63328 0.80934 0.10971 0.0
H616 H 0.66358 0.8619 0.09902 0.0
C617 C 0.61036 0.81621 0.105 0.0
H618 H 0.67021 0.82126 0.11023 0.0
C619 C 0.60655 0.83955 0.09867 0.0
C620 C 0.62558 0.85649 0.09682 0.0
H621 H 0.59529 0.80381 0.107 0.0
H622 H 0.58866 0.84446 0.0959 0.0
C623 C 0.64852 0.84932 0.1004 0.0
loop_
_geom_bond_atom_site_label_1
_geom_bond_atom_site_label_2
_geom_bond_distance
_geom_bond_site_symmetry_2
_ccdc_geom_bond_type
O0 Cd1 2.300 . S
O0 C7 1.275 . S
Cd1 O0 2.300 . S
Cd1 O9 2.381 . S
Cd1 O10 2.378 . S
O2 Cd3 2.385 . S
O2 C7 1.255 . S
Cd3 O2 2.385 . S
Cd3 O4 2.317 . S
O4 Cd3 2.317 . S
O4 C5 1.232 . S
C5 O4 1.232 . S
C5 O6 1.218 . S
O6 C5 1.218 . S
C7 O0 1.275 . S
C7 O2 1.255 . S
C8 O9 1.258 . S
C8 O10 1.256 . S
O9 Cd1 2.381 . S
O9 C8 1.258 . S
O10 Cd1 2.378 . S
O10 C8 1.256 . S
O11 Cd12 2.300 . S
O11 C18 1.275 . S
Cd12 O11 2.300 . S
Cd12 O20 2.381 . S
Cd12 O21 2.378 . S
O13 Cd14 2.385 . S
O13 C18 1.255 . S
Cd14 O13 2.385 . S
Cd14 O15 2.317 . S
O15 Cd14 2.317 . S
O15 C16 1.232 . S
C16 O15 1.232 . S
C16 O17 1.218 . S
O17 C16 1.218 . S
C18 O11 1.275 . S
C18 O13 1.255 . S
C19 O20 1.258 . S
C19 O21 1.256 . S
O20 Cd12 2.381 . S
O20 C19 1.258 . S
O21 Cd12 2.378 . S
O21 C19 1.256 . S
O22 Cd23 2.300 . S
O22 C29 1.275 . S
Cd23 O22 2.300 . S
Cd23 O31 2.381 . S
Cd23 O32 2.378 . S
O24 Cd25 2.385 . S
O24 C29 1.255 . S
Cd25 O24 2.385 . S
Cd25 O26 2.317 . S
O26 Cd25 2.317 . S
O26 C27 1.232 . S
C27 O26 1.232 . S
C27 O28 1.218 . S
O28 C27 1.218 . S
C29 O22 1.275 . S
C29 O24 1.255 . S
C30 O31 1.258 . S
C30 O32 1.256 . S
O31 Cd23 2.381 . S
O31 C30 1.258 . S
O32 Cd23 2.378 . S
O32 C30 1.256 . S
O33 Cd34 2.300 . S
O33 C40 1.275 . S
Cd34 O33 2.300 . S
Cd34 O42 2.381 . S
Cd34 O43 2.378 . S
O35 Cd36 2.385 . S
O35 C40 1.255 . S
Cd36 O35 2.385 . S
Cd36 O37 2.317 . S
O37 Cd36 2.317 . S
O37 C38 1.232 . S
C38 O37 1.232 . S
C38 O39 1.218 . S
O39 C38 1.218 . S
C40 O33 1.275 . S
C40 O35 1.255 . S
C41 O42 1.258 . S
C41 O43 1.256 . S
O42 Cd34 2.381 . S
O42 C41 1.258 . S
O43 Cd34 2.378 . S
O43 C41 1.256 . S
O44 Cd45 2.300 . S
O44 C51 1.275 . S
Cd45 O44 2.300 . S
Cd45 O53 2.381 . S
Cd45 O54 2.378 . S
O46 Cd47 2.385 . S
O46 C51 1.255 . S
Cd47 O46 2.385 . S
Cd47 O48 2.317 . S
O48 Cd47 2.317 . S
O48 C49 1.232 . S
C49 O48 1.232 . S
C49 O50 1.218 . S
O50 C49 1.218 . S
C51 O44 1.275 . S
C51 O46 1.255 . S
C52 O53 1.258 . S
C52 O54 1.256 . S
O53 Cd45 2.381 . S
O53 C52 1.258 . S
O54 Cd45 2.378 . S
O54 C52 1.256 . S
O55 Cd56 2.300 . S
O55 C62 1.275 . S
Cd56 O55 2.300 . S
Cd56 O64 2.381 . S
Cd56 O65 2.378 . S
O57 Cd58 2.385 . S
O57 C62 1.255 . S
Cd58 O57 2.385 . S
Cd58 O59 2.317 . S
O59 Cd58 2.317 . S
O59 C60 1.232 . S
C60 O59 1.232 . S
C60 O61 1.218 . S
O61 C60 1.218 . S
C62 O55 1.275 . S
C62 O57 1.255 . S
C63 O64 1.258 . S
C63 O65 1.256 . S
O64 Cd56 2.381 . S
O64 C63 1.258 . S
O65 Cd56 2.378 . S
O65 C63 1.256 . S
O66 Cd67 2.300 . S
O66 C73 1.275 . S
Cd67 O66 2.300 . S
Cd67 O75 2.381 . S
Cd67 O76 2.378 . S
O68 Cd69 2.385 . S
O68 C73 1.255 . S
Cd69 O68 2.385 . S
Cd69 O70 2.317 . S
O70 Cd69 2.317 . S
O70 C71 1.230 1_545 S
C71 O70 1.230 1_565 S
C71 O72 1.206 1_565 S
O72 C71 1.206 1_545 S
C73 O66 1.275 . S
C73 O68 1.255 . S
C74 O75 1.258 . S
C74 O76 1.256 . S
O75 Cd67 2.381 . S
O75 C74 1.258 . S
O76 Cd67 2.378 . S
O76 C74 1.256 . S
O77 Cd78 2.300 . S
O77 C84 1.275 . S
Cd78 O77 2.300 . S
Cd78 O86 2.381 . S
Cd78 O87 2.378 . S
O79 Cd80 2.385 . S
O79 C84 1.255 . S
Cd80 O79 2.385 . S
Cd80 O81 2.317 . S
O81 Cd80 2.317 . S
O81 C82 1.232 . S
C82 O81 1.232 . S
C82 O83 1.218 . S
O83 C82 1.218 . S
C84 O77 1.275 . S
C84 O79 1.255 . S
C85 O86 1.258 . S
C85 O87 1.256 . S
O86 Cd78 2.381 . S
O86 C85 1.258 . S
O87 Cd78 2.378 . S
O87 C85 1.256 . S
O88 Cd89 2.300 . S
O88 C95 1.275 . S
Cd89 O88 2.300 . S
Cd89 O97 2.381 . S
Cd89 O98 2.378 . S
O90 Cd91 2.385 . S
O90 C95 1.255 . S
Cd91 O90 2.385 . S
Cd91 O92 2.317 . S
O92 Cd91 2.317 . S
O92 C93 1.232 . S
C93 O92 1.232 . S
C93 O94 1.218 . S
O94 C93 1.218 . S
C95 O88 1.275 . S
C95 O90 1.255 . S
C96 O97 1.258 . S
C96 O98 1.256 . S
O97 Cd89 2.381 . S
O97 C96 1.258 . S
O98 Cd89 2.378 . S
O98 C96 1.256 . S
O99 Cd100 2.300 . S
O99 C106 1.275 . S
Cd100 O99 2.300 . S
Cd100 O108 2.381 . S
Cd100 O109 2.378 . S
O101 Cd102 2.385 . S
O101 C106 1.255 . S
Cd102 O101 2.385 . S
Cd102 O103 2.317 1_554 S
O103 Cd102 2.317 1_556 S
O103 C104 1.232 . S
C104 O103 1.232 . S
C104 O105 1.218 . S
O105 C104 1.218 . S
C106 O99 1.275 . S
C106 O101 1.255 . S
C107 O108 1.258 . S
C107 O109 1.256 . S
O108 Cd100 2.381 . S
O108 C107 1.258 . S
O109 Cd100 2.378 . S
O109 C107 1.256 . S
O110 Cd111 2.300 . S
O110 C117 1.275 . S
Cd111 O110 2.300 . S
Cd111 O119 2.381 . S
Cd111 O120 2.378 . S
O112 Cd113 2.385 . S
O112 C117 1.255 . S
Cd113 O112 2.385 . S
Cd113 O114 2.317 . S
O114 Cd113 2.317 . S
O114 C115 1.232 . S
C115 O114 1.232 . S
C115 O116 1.218 . S
O116 C115 1.218 . S
C117 O110 1.275 . S
C117 O112 1.255 . S
C118 O119 1.258 . S
C118 O120 1.256 . S
O119 Cd111 2.381 . S
O119 C118 1.258 . S
O120 Cd111 2.378 . S
O120 C118 1.256 . S
O121 Cd122 2.300 . S
O121 C128 1.275 . S
Cd122 O121 2.300 . S
Cd122 O130 2.381 . S
Cd122 O131 2.378 . S
O123 Cd124 2.385 . S
O123 C128 1.255 . S
Cd124 O123 2.385 . S
Cd124 O125 2.317 . S
O125 Cd124 2.317 . S
O125 C126 1.232 . S
C126 O125 1.232 . S
C126 O127 1.218 . S
O127 C126 1.218 . S
C128 O121 1.275 . S
C128 O123 1.255 . S
C129 O130 1.258 . S
C129 O131 1.256 . S
O130 Cd122 2.381 . S
O130 C129 1.258 . S
O131 Cd122 2.378 . S
O131 C129 1.256 . S
O132 Cd133 2.300 . S
O132 C139 1.275 . S
Cd133 O132 2.300 . S
Cd133 O141 2.381 . S
Cd133 O142 2.378 . S
O134 Cd135 2.385 . S
O134 C139 1.255 . S
Cd135 O134 2.385 . S
Cd135 O136 2.317 . S
O136 Cd135 2.317 . S
O136 C137 1.232 . S
C137 O136 1.232 . S
C137 O138 1.218 . S
O138 C137 1.218 . S
C139 O132 1.275 . S
C139 O134 1.255 . S
C140 O141 1.258 . S
C140 O142 1.256 . S
O141 Cd133 2.381 . S
O141 C140 1.258 . S
O142 Cd133 2.378 . S
O142 C140 1.256 . S
O143 Cd144 2.300 . S
O143 C150 1.275 . S
Cd144 O143 2.300 . S
Cd144 O152 2.381 . S
Cd144 O153 2.378 . S
O145 Cd146 2.385 1_554 S
O145 C150 1.255 . S
Cd146 O145 2.385 1_556 S
Cd146 O147 2.317 1_556 S
O147 Cd146 2.317 1_554 S
O147 C148 1.232 . S
C148 O147 1.232 . S
C148 O149 1.213 1_554 S
O149 C148 1.213 1_556 S
C150 O143 1.275 . S
C150 O145 1.255 . S
C151 O152 1.258 . S
C151 O153 1.256 . S
O152 Cd144 2.381 . S
O152 C151 1.258 . S
O153 Cd144 2.378 . S
O153 C151 1.256 . S
O154 Cd155 2.300 . S
O154 C161 1.275 . S
Cd155 O154 2.300 . S
Cd155 O163 2.381 . S
Cd155 O164 2.378 . S
O156 Cd157 2.385 . S
O156 C161 1.255 . S
Cd157 O156 2.385 . S
Cd157 O158 2.317 . S
O158 Cd157 2.317 . S
O158 C159 1.232 . S
C159 O158 1.232 . S
C159 O160 1.218 . S
O160 C159 1.218 . S
C161 O154 1.275 . S
C161 O156 1.255 . S
C162 O163 1.258 . S
C162 O164 1.256 . S
O163 Cd155 2.381 . S
O163 C162 1.258 . S
O164 Cd155 2.378 . S
O164 C162 1.256 . S
O165 Cd166 2.300 . S
O165 C172 1.275 . S
Cd166 O165 2.300 . S
Cd166 O174 2.381 . S
Cd166 O175 2.378 . S
O167 Cd168 2.385 . S
O167 C172 1.255 . S
Cd168 O167 2.385 . S
Cd168 O169 2.317 . S
O169 Cd168 2.317 . S
O169 C170 1.232 . S
C170 O169 1.232 . S
C170 O171 1.218 . S
O171 C170 1.218 . S
C172 O165 1.275 . S
C172 O167 1.255 . S
C173 O174 1.258 . S
C173 O175 1.256 . S
O174 Cd166 2.381 . S
O174 C173 1.258 . S
O175 Cd166 2.378 . S
O175 C173 1.256 . S
O176 Cd177 2.300 . S
O176 C183 1.275 . S
Cd177 O176 2.300 . S
Cd177 O185 2.381 . S
Cd177 O186 2.378 . S
O178 Cd179 2.385 . S
O178 C183 1.255 . S
Cd179 O178 2.385 . S
Cd179 O180 2.317 . S
O180 Cd179 2.317 . S
O180 C181 1.232 . S
C181 O180 1.232 . S
C181 O182 1.218 . S
O182 C181 1.218 . S
C183 O176 1.275 . S
C183 O178 1.255 . S
C184 O185 1.258 . S
C184 O186 1.256 . S
O185 Cd177 2.381 . S
O185 C184 1.258 . S
O186 Cd177 2.378 . S
O186 C184 1.256 . S
O187 Cd188 2.300 . S
O187 C194 1.275 . S
Cd188 O187 2.300 . S
Cd188 O196 2.381 . S
Cd188 O197 2.378 . S
O189 Cd190 2.385 . S
O189 C194 1.255 . S
Cd190 O189 2.385 . S
Cd190 O191 2.317 . S
O191 Cd190 2.317 . S
O191 C192 1.232 . S
C192 O191 1.232 . S
C192 O193 1.218 . S
O193 C192 1.218 . S
C194 O187 1.275 . S
C194 O189 1.255 . S
C195 O196 1.258 . S
C195 O197 1.256 . S
O196 Cd188 2.381 . S
O196 C195 1.258 . S
O197 Cd188 2.378 . S
O197 C195 1.256 . S
O198 Cd199 2.300 . S
O198 C205 1.275 . S
Cd199 O198 2.300 . S
Cd199 O207 2.381 . S
Cd199 O208 2.378 . S
O200 Cd201 2.385 . S
O200 C205 1.255 . S
Cd201 O200 2.385 . S
Cd201 O202 2.317 . S
O202 Cd201 2.317 . S
O202 C203 1.232 . S
C203 O202 1.232 . S
C203 O204 1.218 . S
O204 C203 1.218 . S
C205 O198 1.275 . S
C205 O200 1.255 . S
C206 O207 1.258 . S
C206 O208 1.256 . S
O207 Cd199 2.381 . S
O207 C206 1.258 . S
O208 Cd199 2.378 . S
O208 C206 1.256 . S
O209 Cd210 2.300 . S
O209 C216 1.275 . S
Cd210 O209 2.300 . S
Cd210 O218 2.381 . S
Cd210 O219 2.378 . S
O211 Cd212 2.385 . S
O211 C216 1.255 . S
Cd212 O211 2.385 . S
Cd212 O213 2.317 . S
O213 Cd212 2.317 . S
O213 C214 1.232 . S
C214 O213 1.232 . S
C214 O215 1.218 . S
O215 C214 1.218 . S
C216 O209 1.275 . S
C216 O211 1.255 . S
C217 O218 1.258 . S
C217 O219 1.256 . S
O218 Cd210 2.381 . S
O218 C217 1.258 . S
O219 Cd210 2.378 . S
O219 C217 1.256 . S
O220 Cd221 2.300 . S
O220 C227 1.275 . S
Cd221 O220 2.300 . S
Cd221 O229 2.381 . S
Cd221 O230 2.378 . S
O222 Cd223 2.385 . S
O222 C227 1.255 . S
Cd223 O222 2.385 . S
Cd223 O224 2.317 . S
O224 Cd223 2.317 . S
O224 C225 1.232 . S
C225 O224 1.232 . S
C225 O226 1.218 . S
O226 C225 1.218 . S
C227 O220 1.275 . S
C227 O222 1.255 . S
C228 O229 1.258 . S
C228 O230 1.256 . S
O229 Cd221 2.381 . S
O229 C228 1.258 . S
O230 Cd221 2.378 . S
O230 C228 1.256 . S
O231 Cd232 2.300 . S
O231 C238 1.275 . S
Cd232 O231 2.300 . S
Cd232 O240 2.381 . S
Cd232 O241 2.378 . S
O233 Cd234 2.385 . S
O233 C238 1.255 . S
Cd234 O233 2.385 . S
Cd234 O235 2.317 . S
O235 Cd234 2.317 . S
O235 C236 1.232 . S
C236 O235 1.232 . S
C236 O237 1.218 . S
O237 C236 1.218 . S
C238 O231 1.275 . S
C238 O233 1.255 . S
C239 O240 1.258 . S
C239 O241 1.256 . S
O240 Cd232 2.381 . S
O240 C239 1.258 . S
O241 Cd232 2.378 . S
O241 C239 1.256 . S
O242 Cd243 2.300 . S
O242 C249 1.275 . S
Cd243 O242 2.300 . S
Cd243 O251 2.381 . S
Cd243 O252 2.378 . S
O244 Cd245 2.385 . S
O244 C249 1.255 . S
Cd245 O244 2.385 . S
Cd245 O246 2.317 . S
O246 Cd245 2.317 . S
O246 C247 1.232 . S
C247 O246 1.232 . S
C247 O248 1.218 . S
O248 C247 1.218 . S
C249 O242 1.275 . S
C249 O244 1.255 . S
C250 O251 1.258 . S
C250 O252 1.256 . S
O251 Cd243 2.381 . S
O251 C250 1.258 . S
O252 Cd243 2.378 . S
O252 C250 1.256 . S
O253 Cd254 2.300 . S
O253 C260 1.275 . S
Cd254 O253 2.300 . S
Cd254 O262 2.381 . S
Cd254 O263 2.378 . S
O255 Cd256 2.385 . S
O255 C260 1.255 . S
Cd256 O255 2.385 . S
Cd256 O257 2.317 . S
O257 Cd256 2.317 . S
O257 C258 1.232 . S
C258 O257 1.232 . S
C258 O259 1.218 . S
O259 C258 1.218 . S
C260 O253 1.275 . S
C260 O255 1.255 . S
C261 O262 1.258 . S
C261 O263 1.256 . S
O262 Cd254 2.381 . S
O262 C261 1.258 . S
O263 Cd254 2.378 . S
O263 C261 1.256 . S
C264 C265 1.387 . S
C264 H268 0.950 . S
C264 C273 1.390 . S
C265 C264 1.387 . S
C265 C267 1.387 . S
H266 C273 0.950 . S
C267 C265 1.387 . S
C267 C269 1.390 . S
C267 H271 0.950 . S
H268 C264 0.950 . S
C269 C267 1.390 . S
C269 C270 1.387 . S
C269 H272 0.950 . S
C270 C269 1.387 . S
C270 C273 1.387 . S
H271 C267 0.950 . S
H272 C269 0.950 . S
C273 C264 1.390 . S
C273 H266 0.950 . S
C273 C270 1.387 . S
C274 C275 1.387 . S
C274 H278 0.950 . S
C274 C283 1.390 . S
C275 C274 1.387 . S
C275 C277 1.387 . S
H276 C283 0.950 1_455 S
C277 C275 1.387 . S
C277 C279 1.390 . S
C277 H281 0.950 . S
H278 C274 0.950 . S
C279 C277 1.390 . S
C279 C280 1.387 1_655 S
C279 H282 0.950 . S
C280 C279 1.387 1_455 S
C280 C283 1.387 1_455 S
H281 C277 0.950 . S
H282 C279 0.950 . S
C283 C274 1.390 . S
C283 H276 0.950 1_655 S
C283 C280 1.387 1_655 S
C284 C285 1.387 . S
C284 H288 0.950 . S
C284 C293 1.390 . S
C285 C284 1.387 . S
C285 C287 1.387 1_655 S
H286 C293 0.950 . S
C287 C285 1.387 1_455 S
C287 C289 1.390 . S
C287 H291 0.950 1_565 S
H288 C284 0.950 . S
C289 C287 1.390 . S
C289 C290 1.387 . S
C289 H292 0.950 . S
C290 C289 1.387 . S
C290 C293 1.387 1_455 S
H291 C287 0.950 1_545 S
H292 C289 0.950 . S
C293 C284 1.390 . S
C293 H286 0.950 . S
C293 C290 1.387 1_655 S
C294 C295 1.387 . S
C294 H298 0.950 . S
C294 C303 1.390 1_565 S
C295 C294 1.387 . S
C295 C297 1.387 . S
H296 C303 0.950 . S
C297 C295 1.387 . S
C297 C299 1.390 . S
C297 H301 0.950 . S
H298 C294 0.950 . S
C299 C297 1.390 . S
C299 C300 1.387 1_565 S
C299 H302 0.950 1_565 S
C300 C299 1.387 1_545 S
C300 C303 1.387 . S
H301 C297 0.950 . S
H302 C299 0.950 1_545 S
C303 C294 1.390 1_545 S
C303 H296 0.950 . S
C303 C300 1.387 . S
C304 C305 1.387 . S
C304 H308 0.950 . S
C304 C313 1.390 . S
C305 C304 1.387 . S
C305 C307 1.387 . S
H306 C313 0.950 . S
C307 C305 1.387 . S
C307 C309 1.390 . S
C307 H311 0.950 . S
H308 C304 0.950 . S
C309 C307 1.390 . S
C309 C310 1.387 . S
C309 H312 0.950 . S
C310 C309 1.387 . S
C310 C313 1.387 . S
H311 C307 0.950 . S
H312 C309 0.950 . S
C313 C304 1.390 . S
C313 H306 0.950 . S
C313 C310 1.387 . S
C314 C315 1.387 . S
C314 H318 0.950 . S
C314 C323 1.390 1_455 S
C315 C314 1.387 . S
C315 C317 1.387 1_455 S
H316 C323 0.950 . S
C317 C315 1.387 1_655 S
C317 C319 1.390 . S
C317 H321 0.950 . S
H318 C314 0.950 . S
C319 C317 1.390 . S
C319 C320 1.387 . S
C319 H322 0.950 . S
C320 C319 1.387 . S
C320 C323 1.387 . S
H321 C317 0.950 . S
H322 C319 0.950 . S
C323 C314 1.390 1_655 S
C323 H316 0.950 . S
C323 C320 1.387 . S
C324 C325 1.387 . S
C324 H328 0.950 . S
C324 C333 1.390 . S
C325 C324 1.387 . S
C325 C327 1.387 . S
H326 C333 0.950 . S
C327 C325 1.387 . S
C327 C329 1.390 1_545 S
C327 H331 0.950 . S
H328 C324 0.950 . S
C329 C327 1.390 1_565 S
C329 C330 1.387 . S
C329 H332 0.950 . S
C330 C329 1.387 . S
C330 C333 1.387 1_565 S
H331 C327 0.950 . S
H332 C329 0.950 . S
C333 C324 1.390 . S
C333 H326 0.950 . S
C333 C330 1.387 1_545 S
C334 C335 1.387 . S
C334 H338 0.950 . S
C334 C343 1.390 . S
C335 C334 1.387 . S
C335 C337 1.387 . S
H336 C343 0.950 . S
C337 C335 1.387 . S
C337 C339 1.390 . S
C337 H341 0.950 . S
H338 C334 0.950 . S
C339 C337 1.390 . S
C339 C340 1.387 . S
C339 H342 0.950 . S
C340 C339 1.387 . S
C340 C343 1.387 . S
H341 C337 0.950 . S
H342 C339 0.950 . S
C343 C334 1.390 . S
C343 H336 0.950 . S
C343 C340 1.387 . S
C344 C345 1.387 . S
C344 H348 0.950 1_565 S
C344 C353 1.390 1_556 S
C345 C344 1.387 . S
C345 C347 1.387 . S
H346 C353 0.950 . S
C347 C345 1.387 . S
C347 C349 1.390 1_556 S
C347 H351 0.950 . S
H348 C344 0.950 1_545 S
C349 C347 1.390 1_554 S
C349 C350 1.387 . S
C349 H352 0.950 . S
C350 C349 1.387 . S
C350 C353 1.387 . S
H351 C347 0.950 . S
H352 C349 0.950 . S
C353 C344 1.390 1_554 S
C353 H346 0.950 . S
C353 C350 1.387 . S
C354 C355 1.387 . S
C354 H358 0.950 . S
C354 C363 1.390 1_556 S
C355 C354 1.387 . S
C355 C357 1.387 . S
H356 C363 0.950 . S
C357 C355 1.387 . S
C357 C359 1.390 . S
C357 H361 0.950 . S
H358 C354 0.950 . S
C359 C357 1.390 . S
C359 C360 1.387 1_556 S
C359 H362 0.950 . S
C360 C359 1.387 1_554 S
C360 C363 1.387 . S
H361 C357 0.950 . S
H362 C359 0.950 . S
C363 C354 1.390 1_554 S
C363 H356 0.950 . S
C363 C360 1.387 . S
C364 C365 1.387 . S
C364 H368 0.950 . S
C364 C373 1.390 . S
C365 C364 1.387 . S
C365 C367 1.387 . S
H366 C373 0.950 . S
C367 C365 1.387 . S
C367 C369 1.390 . S
C367 H371 0.950 . S
H368 C364 0.950 . S
C369 C367 1.390 . S
C369 C370 1.387 . S
C369 H372 0.950 . S
C370 C369 1.387 . S
C370 C373 1.387 . S
H371 C367 0.950 . S
H372 C369 0.950 . S
C373 C364 1.390 . S
C373 H366 0.950 . S
C373 C370 1.387 . S
C374 C375 1.387 . S
C374 H378 0.950 . S
C374 C383 1.390 1_455 S
C375 C374 1.387 . S
C375 C377 1.387 . S
H376 C383 0.950 . S
C377 C375 1.387 . S
C377 C379 1.390 1_455 S
C377 H381 0.950 . S
H378 C374 0.950 . S
C379 C377 1.390 1_655 S
C379 C380 1.393 . S
C379 H382 0.950 . S
C380 C379 1.393 . S
C380 C383 1.392 . S
H381 C377 0.950 . S
H382 C379 0.950 . S
C383 C374 1.390 1_655 S
C383 H376 0.950 . S
C383 C380 1.392 . S
C384 C385 1.387 . S
C384 H388 0.950 . S
C384 C393 1.390 . S
C385 C384 1.387 . S
C385 C387 1.387 . S
H386 C393 0.950 . S
C387 C385 1.387 . S
C387 C389 1.390 . S
C387 H391 0.950 . S
H388 C384 0.950 . S
C389 C387 1.390 . S
C389 C390 1.387 . S
C389 H392 0.950 . S
C390 C389 1.387 . S
C390 C393 1.387 . S
H391 C387 0.950 . S
H392 C389 0.950 . S
C393 C384 1.390 . S
C393 H386 0.950 . S
C393 C390 1.387 . S
C394 C395 1.387 . S
C394 H398 0.950 . S
C394 C403 1.390 . S
C395 C394 1.387 . S
C395 C397 1.387 . S
H396 C403 0.950 . S
C397 C395 1.387 . S
C397 C399 1.390 . S
C397 H401 0.950 . S
H398 C394 0.950 . S
C399 C397 1.390 . S
C399 C400 1.387 . S
C399 H402 0.950 . S
C400 C399 1.387 . S
C400 C403 1.387 . S
H401 C397 0.950 . S
H402 C399 0.950 . S
C403 C394 1.390 . S
C403 H396 0.950 . S
C403 C400 1.387 . S
C404 C405 1.387 1_556 S
C404 H408 0.950 . S
C404 C413 1.390 . S
C405 C404 1.387 1_554 S
C405 C407 1.387 . S
H406 C413 0.950 . S
C407 C405 1.387 . S
C407 C409 1.390 . S
C407 H411 0.950 . S
H408 C404 0.950 . S
C409 C407 1.390 . S
C409 C410 1.387 . S
C409 H412 0.950 . S
C410 C409 1.387 . S
C410 C413 1.387 1_554 S
H411 C407 0.950 . S
H412 C409 0.950 . S
C413 C404 1.390 . S
C413 H406 0.950 . S
C413 C410 1.387 1_556 S
C414 C415 1.387 . S
C414 H418 0.950 . S
C414 C423 1.390 . S
C415 C414 1.387 . S
C415 C417 1.387 . S
H416 C423 0.950 . S
C417 C415 1.387 . S
C417 C419 1.390 . S
C417 H421 0.950 . S
H418 C414 0.950 . S
C419 C417 1.390 . S
C419 C420 1.387 . S
C419 H422 0.950 . S
C420 C419 1.387 . S
C420 C423 1.387 . S
H421 C417 0.950 . S
H422 C419 0.950 . S
C423 C414 1.390 . S
C423 H416 0.950 . S
C423 C420 1.387 . S
C424 C425 1.387 . S
C424 H428 0.950 . S
C424 C433 1.390 . S
C425 C424 1.387 . S
C425 C427 1.387 . S
H426 C433 0.950 . S
C427 C425 1.387 . S
C427 C429 1.390 . S
C427 H431 0.950 . S
H428 C424 0.950 . S
C429 C427 1.390 . S
C429 C430 1.387 . S
C429 H432 0.950 . S
C430 C429 1.387 . S
C430 C433 1.387 . S
H431 C427 0.950 . S
H432 C429 0.950 . S
C433 C424 1.390 . S
C433 H426 0.950 . S
C433 C430 1.387 . S
C434 C435 1.387 1_565 S
C434 H438 0.950 . S
C434 C443 1.390 . S
C435 C434 1.387 1_545 S
C435 C437 1.387 . S
H436 C443 0.950 . S
C437 C435 1.387 . S
C437 C439 1.390 . S
C437 H441 0.950 . S
H438 C434 0.950 . S
C439 C437 1.390 . S
C439 C440 1.387 . S
C439 H442 0.950 . S
C440 C439 1.387 . S
C440 C443 1.387 1_545 S
H441 C437 0.950 . S
H442 C439 0.950 . S
C443 C434 1.390 . S
C443 H436 0.950 . S
C443 C440 1.387 1_565 S
C444 C445 1.387 . S
C444 H448 0.950 . S
C444 C453 1.390 . S
C445 C444 1.387 . S
C445 C447 1.387 . S
H446 C453 0.950 . S
C447 C445 1.387 . S
C447 C449 1.390 . S
C447 H451 0.950 . S
H448 C444 0.950 . S
C449 C447 1.390 . S
C449 C450 1.387 . S
C449 H452 0.950 . S
C450 C449 1.387 . S
C450 C453 1.387 . S
H451 C447 0.950 . S
H452 C449 0.950 . S
C453 C444 1.390 . S
C453 H446 0.950 . S
C453 C450 1.387 . S
C454 C455 1.387 . S
C454 H458 0.950 . S
C454 C463 1.390 . S
C455 C454 1.387 . S
C455 C457 1.387 . S
H456 C463 0.950 . S
C457 C455 1.387 . S
C457 C459 1.390 . S
C457 H461 0.950 . S
H458 C454 0.950 . S
C459 C457 1.390 . S
C459 C460 1.387 . S
C459 H462 0.950 . S
C460 C459 1.387 . S
C460 C463 1.387 . S
H461 C457 0.950 . S
H462 C459 0.950 . S
C463 C454 1.390 . S
C463 H456 0.950 . S
C463 C460 1.387 . S
C464 C465 1.387 . S
C464 H468 0.950 . S
C464 C473 1.390 . S
C465 C464 1.387 . S
C465 C467 1.387 . S
H466 C473 0.950 . S
C467 C465 1.387 . S
C467 C469 1.390 . S
C467 H471 0.950 . S
H468 C464 0.950 . S
C469 C467 1.390 . S
C469 C470 1.387 . S
C469 H472 0.950 . S
C470 C469 1.387 . S
C470 C473 1.387 . S
H471 C467 0.950 . S
H472 C469 0.950 . S
C473 C464 1.390 . S
C473 H466 0.950 . S
C473 C470 1.387 . S
C474 C475 1.387 . S
C474 H478 0.950 . S
C474 C483 1.390 . S
C475 C474 1.387 . S
C475 C477 1.387 . S
H476 C483 0.950 . S
C477 C475 1.387 . S
C477 C479 1.390 . S
C477 H481 0.950 . S
H478 C474 0.950 . S
C479 C477 1.390 . S
C479 C480 1.387 . S
C479 H482 0.950 . S
C480 C479 1.387 . S
C480 C483 1.387 . S
H481 C477 0.950 . S
H482 C479 0.950 . S
C483 C474 1.390 . S
C483 H476 0.950 . S
C483 C480 1.387 . S
C484 C485 1.387 . S
C484 H488 0.950 . S
C484 C493 1.390 . S
C485 C484 1.387 . S
C485 C487 1.387 . S
H486 C493 0.950 . S
C487 C485 1.387 . S
C487 C489 1.390 . S
C487 H491 0.950 . S
H488 C484 0.950 . S
C489 C487 1.390 . S
C489 C490 1.387 . S
C489 H492 0.950 . S
C490 C489 1.387 . S
C490 C493 1.387 . S
H491 C487 0.950 . S
H492 C489 0.950 . S
C493 C484 1.390 . S
C493 H486 0.950 . S
C493 C490 1.387 . S
C494 C495 1.387 . S
C494 H498 0.950 . S
C494 C503 1.390 . S
C495 C494 1.387 . S
C495 C497 1.387 . S
H496 C503 0.950 . S
C497 C495 1.387 . S
C497 C499 1.390 . S
C497 H501 0.950 . S
H498 C494 0.950 . S
C499 C497 1.390 . S
C499 C500 1.387 . S
C499 H502 0.950 . S
C500 C499 1.387 . S
C500 C503 1.387 . S
H501 C497 0.950 . S
H502 C499 0.950 . S
C503 C494 1.390 . S
C503 H496 0.950 . S
C503 C500 1.387 . S
C504 C505 1.387 . S
C504 H508 0.950 . S
C504 C513 1.390 . S
C505 C504 1.387 . S
C505 C507 1.387 . S
H506 C513 0.950 . S
C507 C505 1.387 . S
C507 C509 1.390 . S
C507 H511 0.950 . S
H508 C504 0.950 . S
C509 C507 1.390 . S
C509 C510 1.387 . S
C509 H512 0.950 . S
C510 C509 1.387 . S
C510 C513 1.387 . S
H511 C507 0.950 . S
H512 C509 0.950 . S
C513 C504 1.390 . S
C513 H506 0.950 . S
C513 C510 1.387 . S
C514 C515 1.387 . S
C514 H518 0.950 . S
C514 C523 1.390 . S
C515 C514 1.387 . S
C515 C517 1.387 . S
H516 C523 0.950 . S
C517 C515 1.387 . S
C517 C519 1.390 . S
C517 H521 0.950 . S
H518 C514 0.950 . S
C519 C517 1.390 . S
C519 C520 1.387 . S
C519 H522 0.950 . S
C520 C519 1.387 . S
C520 C523 1.387 . S
H521 C517 0.950 . S
H522 C519 0.950 . S
C523 C514 1.390 . S
C523 H516 0.950 . S
C523 C520 1.387 . S
C524 C525 1.387 . S
C524 H528 0.950 . S
C524 C533 1.390 . S
C525 C524 1.387 . S
C525 C527 1.387 . S
H526 C533 0.950 . S
C527 C525 1.387 . S
C527 C529 1.390 . S
C527 H531 0.950 . S
H528 C524 0.950 . S
C529 C527 1.390 . S
C529 C530 1.387 . S
C529 H532 0.950 . S
C530 C529 1.387 . S
C530 C533 1.387 . S
H531 C527 0.950 . S
H532 C529 0.950 . S
C533 C524 1.390 . S
C533 H526 0.950 . S
C533 C530 1.387 . S
C534 C535 1.387 . S
C534 H538 0.950 . S
C534 C543 1.390 . S
C535 C534 1.387 . S
C535 C537 1.387 . S
H536 C543 0.950 . S
C537 C535 1.387 . S
C537 C539 1.390 . S
C537 H541 0.950 . S
H538 C534 0.950 . S
C539 C537 1.390 . S
C539 C540 1.387 . S
C539 H542 0.950 . S
C540 C539 1.387 . S
C540 C543 1.387 . S
H541 C537 0.950 . S
H542 C539 0.950 . S
C543 C534 1.390 . S
C543 H536 0.950 . S
C543 C540 1.387 . S
C544 C545 1.387 . S
C544 H548 0.950 . S
C544 C553 1.390 . S
C545 C544 1.387 . S
C545 C547 1.387 . S
H546 C553 0.950 . S
C547 C545 1.387 . S
C547 C549 1.390 . S
C547 H551 0.950 . S
H548 C544 0.950 . S
C549 C547 1.390 . S
C549 C550 1.387 . S
C549 H552 0.950 . S
C550 C549 1.387 . S
C550 C553 1.387 . S
H551 C547 0.950 . S
H552 C549 0.950 . S
C553 C544 1.390 . S
C553 H546 0.950 . S
C553 C550 1.387 . S
C554 C555 1.387 . S
C554 H558 0.950 . S
C554 C563 1.390 . S
C555 C554 1.387 . S
C555 C557 1.387 . S
H556 C563 0.950 . S
C557 C555 1.387 . S
C557 C559 1.390 . S
C557 H561 0.950 . S
H558 C554 0.950 . S
C559 C557 1.390 . S
C559 C560 1.387 . S
C559 H562 0.950 . S
C560 C559 1.387 . S
C560 C563 1.387 . S
H561 C557 0.950 . S
H562 C559 0.950 . S
C563 C554 1.390 . S
C563 H556 0.950 . S
C563 C560 1.387 . S
C564 C565 1.387 . S
C564 H568 0.950 1_545 S
C564 C573 1.390 . S
C565 C564 1.387 . S
C565 C567 1.387 . S
H566 C573 0.950 1_565 S
C567 C565 1.387 . S
C567 C569 1.390 . S
C567 H571 0.950 . S
H568 C564 0.950 1_565 S
C569 C567 1.390 . S
C569 C570 1.387 . S
C569 H572 0.950 . S
C570 C569 1.387 . S
C570 C573 1.387 . S
H571 C567 0.950 . S
H572 C569 0.950 . S
C573 C564 1.390 . S
C573 H566 0.950 1_545 S
C573 C570 1.387 . S
C574 C575 1.387 . S
C574 H578 0.950 . S
C574 C583 1.390 . S
C575 C574 1.387 . S
C575 C577 1.387 . S
H576 C583 0.950 . S
C577 C575 1.387 . S
C577 C579 1.390 . S
C577 H581 0.950 . S
H578 C574 0.950 . S
C579 C577 1.390 . S
C579 C580 1.387 . S
C579 H582 0.950 . S
C580 C579 1.387 . S
C580 C583 1.387 . S
H581 C577 0.950 . S
H582 C579 0.950 . S
C583 C574 1.390 . S
C583 H576 0.950 . S
C583 C580 1.387 . S
C584 C585 1.387 . S
C584 H588 0.950 . S
C584 C593 1.390 . S
C585 C584 1.387 . S
C585 C587 1.387 . S
H586 C593 0.950 . S
C587 C585 1.387 . S
C587 C589 1.390 . S
C587 H591 0.950 . S
H588 C584 0.950 . S
C589 C587 1.390 . S
C589 C590 1.387 . S
C589 H592 0.950 . S
C590 C589 1.387 . S
C590 C593 1.387 . S
H591 C587 0.950 . S
H592 C589 0.950 . S
C593 C584 1.390 . S
C593 H586 0.950 . S
C593 C590 1.387 . S
C594 C595 1.387 . S
C594 H598 0.950 . S
C594 C603 1.390 . S
C595 C594 1.387 . S
C595 C597 1.387 . S
H596 C603 0.950 . S
C597 C595 1.387 . S
C597 C599 1.390 . S
C597 H601 0.950 1_554 S
H598 C594 0.950 . S
C599 C597 1.390 . S
C599 C600 1.387 . S
C599 H602 0.950 1_554 S
C600 C599 1.387 . S
C600 C603 1.387 . S
H601 C597 0.950 1_556 S
H602 C599 0.950 1_556 S
C603 C594 1.390 . S
C603 H596 0.950 . S
C603 C600 1.387 . S
C604 C605 1.387 . S
C604 H608 0.950 . S
C604 C613 1.390 . S
C605 C604 1.387 . S
C605 C607 1.387 . S
H606 C613 0.950 . S
C607 C605 1.387 . S
C607 C609 1.390 . S
C607 H611 0.950 . S
H608 C604 0.950 . S
C609 C607 1.390 . S
C609 C610 1.387 . S
C609 H612 0.950 . S
C610 C609 1.387 . S
C610 C613 1.387 . S
H611 C607 0.950 . S
H612 C609 0.950 . S
C613 C604 1.390 . S
C613 H606 0.950 . S
C613 C610 1.387 . S
C614 C615 1.387 . S
C614 H618 0.950 . S
C614 C623 1.390 . S
C615 C614 1.387 . S
C615 C617 1.387 . S
H616 C623 0.950 . S
C617 C615 1.387 . S
C617 C619 1.390 . S
C617 H621 0.950 . S
H618 C614 0.950 . S
C619 C617 1.390 . S
C619 C620 1.387 . S
C619 H622 0.950 . S
C620 C619 1.387 . S
C620 C623 1.387 . S
H621 C617 0.950 . S
H622 C619 0.950 . S
C623 C614 1.390 . S
C623 H616 0.950 . S
C623 C620 1.387 . S
C265 C38 1.288 . S
C270 C7 1.646 . S
C275 C18 1.451 . S
C280 C5 1.300 . S
C285 C16 1.465 1_565 S
C290 C27 1.470 . S
C295 C29 1.600 . S
C300 C40 1.545 . S
C305 C106 1.512 . S
C310 C49 1.412 . S
C315 C60 1.430 . S
C320 C117 1.423 . S
C325 C51 1.538 . S
C330 C126 1.394 . S
C335 C62 1.581 . S
C340 C93 1.424 . S
C345 C71 1.292 . S
C350 C128 1.490 . S
C355 C84 1.609 . S
C360 C95 1.599 . S
C365 C104 1.317 . S
C370 C73 1.444 . S
C375 C82 1.269 . S
C380 C115 1.167 1_556 S
C385 C139 1.549 . S
C390 C170 1.327 . S
C395 C150 1.496 . S
C400 C137 1.158 . S
C405 C159 1.228 . S
C410 C148 1.281 . S
C415 C172 1.514 . S
C420 C161 1.538 . S
C425 C238 1.477 . S
C430 C181 1.284 . S
C435 C192 1.228 . S
C440 C249 1.389 . S
C445 C258 1.247 . S
C450 C183 1.412 . S
C455 C225 1.544 . S
C460 C194 1.563 . S
C465 C260 1.475 . S
C470 C203 1.394 . S
C475 C216 1.565 . S
C480 C227 1.594 . S
C485 C205 1.529 . S
C490 C236 1.403 . S
C495 C247 1.146 . S
C500 C214 1.187 . S
C505 C8 1.494 . S
C510 C261 1.487 . S
C515 C228 1.600 . S
C520 C19 1.598 . S
C525 C30 1.573 . S
C530 C239 1.575 . S
C535 C250 1.542 . S
C540 C41 1.547 . S
C545 C52 1.576 . S
C550 C217 1.531 . S
C555 C63 1.583 . S
C560 C206 1.584 . S
C565 C74 1.485 . S
C570 C195 1.463 . S
C575 C184 1.477 . S
C580 C85 1.479 . S
C585 C96 1.521 . S
C590 C151 1.523 . S
C595 C162 1.464 . S
C600 C107 1.490 . S
C605 C118 1.487 . S
C610 C173 1.487 . S
C615 C140 1.522 . S
C620 C129 1.573 . S
