# Generated by pormake.
# Topology umx, (4)-cn, num edge types: 1
# Building blocks:
#     Node 0, Type 0, BuildingBlock: TATPOV_clean_sbu_0, # of connection points: 4
#     Node 1, Type 0, BuildingBlock: TATPOV_clean_sbu_0, # of connection points: 4
#     Node 2, Type 0, BuildingBlock: TATPOV_clean_sbu_0, # of connection points: 4
#     Node 3, Type 0, BuildingBlock: TATPOV_clean_sbu_0, # of connection points: 4
#     Node 4, Type 0, BuildingBlock: TATPOV_clean_sbu_0, # of connection points: 4
#     Node 5, Type 0, BuildingBlock: TATPOV_clean_sbu_0, # of connection points: 4
#     Node 6, Type 0, BuildingBlock: TATPOV_clean_sbu_0, # of connection points: 4
#     Node 7, Type 0, BuildingBlock: TATPOV_clean_sbu_0, # of connection points: 4
#     Edge 8, Type (0, 0), BuildingBlock: FUNLAD_clean_linker_1, # of connection points: 2
#     Edge 9, Type (0, 0), BuildingBlock: FUNLAD_clean_linker_1, # of connection points: 2
#     Edge 10, Type (0, 0), BuildingBlock: FUNLAD_clean_linker_1, # of connection points: 2
#     Edge 11, Type (0, 0), BuildingBlock: FUNLAD_clean_linker_1, # of connection points: 2
#     Edge 12, Type (0, 0), BuildingBlock: FUNLAD_clean_linker_1, # of connection points: 2
#     Edge 13, Type (0, 0), BuildingBlock: FUNLAD_clean_linker_1, # of connection points: 2
#     Edge 14, Type (0, 0), BuildingBlock: FUNLAD_clean_linker_1, # of connection points: 2
#     Edge 15, Type (0, 0), BuildingBlock: FUNLAD_clean_linker_1, # of connection points: 2
#     Edge 16, Type (0, 0), BuildingBlock: FUNLAD_clean_linker_1, # of connection points: 2
#     Edge 17, Type (0, 0), BuildingBlock: FUNLAD_clean_linker_1, # of connection points: 2
#     Edge 18, Type (0, 0), BuildingBlock: FUNLAD_clean_linker_1, # of connection points: 2
#     Edge 19, Type (0, 0), BuildingBlock: FUNLAD_clean_linker_1, # of connection points: 2
#     Edge 20, Type (0, 0), BuildingBlock: FUNLAD_clean_linker_1, # of connection points: 2
#     Edge 21, Type (0, 0), BuildingBlock: FUNLAD_clean_linker_1, # of connection points: 2
#     Edge 22, Type (0, 0), BuildingBlock: FUNLAD_clean_linker_1, # of connection points: 2
#     Edge 23, Type (0, 0), BuildingBlock: FUNLAD_clean_linker_1, # of connection points: 2
# Relax obj value: 0.211
# Max RMSD: 0.756
# Mean RMSD: 0.325
data_MOF--net-umx--node1-TATPOV_clean_sbu_0--edge1-FUNLAD_clean_linker_1
_symmetry_space_group_name_H-M    P1
_symmetry_Int_Tables_number       1
_symmetry_cell_setting            triclinic
loop_
_symmetry_equiv_pos_as_xyz
'x, y, z'
_cell_length_a     44.588653
_cell_length_b     20.972242
_cell_length_c     28.693206
_cell_angle_alpha  89.72536
_cell_angle_beta   90.321395
_cell_angle_gamma 102.79045
loop_
_atom_site_label
_atom_site_type_symbol
_atom_site_fract_x
_atom_site_fract_y
_atom_site_fract_z
_atom_type_partial_charge
Zn0 Zn 0.18408 0.41423 0.02925 0.0
Zn1 Zn 0.13836 0.30673 0.0131 0.0
O2 O 0.16879 0.31585 0.95978 0.0
O3 O 0.2064 0.40249 0.96874 0.0
O4 O 0.11415 0.2146 0.00187 0.0
O5 O 0.19309 0.37601 0.09246 0.0
O6 O 0.15193 0.29812 0.08029 0.0
C7 C 0.19356 0.35273 0.94549 0.0
C8 C 0.12052 0.43579 0.01396 0.0
O9 O 0.11146 0.37445 0.00669 0.0
O10 O 0.14828 0.46036 0.02496 0.0
C11 C 0.12879 0.16869 0.00215 0.0
O12 O 0.11385 0.10837 -0.00593 0.0
C13 C 0.17375 0.32618 0.10676 0.0
Zn14 Zn 0.46827 0.33528 0.54872 0.0
Zn15 Zn 0.52681 0.36722 0.51591 0.0
O16 O 0.50036 0.41449 0.47509 0.0
O17 O 0.45368 0.3969 0.50449 0.0
O18 O 0.57122 0.40709 0.49893 0.0
O19 O 0.48146 0.35928 0.61505 0.0
O20 O 0.5283 0.37201 0.58712 0.0
C21 C 0.47274 0.42212 0.47351 0.0
C22 C 0.49308 0.22954 0.5045 0.0
O23 O 0.51778 0.27234 0.49757 0.0
O24 O 0.47033 0.2443 0.52481 0.0
C25 C 0.59232 0.37915 0.51251 0.0
O26 O 0.58469 0.32294 0.53466 0.0
C27 C 0.5102 0.36919 0.62149 0.0
Zn28 Zn 0.92287 0.63105 0.06815 0.0
Zn29 Zn 0.90085 0.72936 0.03937 0.0
O30 O 0.87005 0.65108 0.01426 0.0
O31 O 0.90473 0.59351 0.0051 0.0
O32 O 0.88102 0.8055 0.02306 0.0
O33 O 0.90031 0.63011 0.12903 0.0
O34 O 0.90172 0.73282 0.11094 0.0
C35 C 0.88027 0.60906 0.99133 0.0
C36 C 0.96602 0.71975 0.02408 0.0
O37 O 0.94222 0.73264 0.00479 0.0
O38 O 0.9635 0.69699 0.06504 0.0
C39 C 0.85923 0.79749 0.99332 0.0
O40 O 0.85461 0.74625 0.966 0.0
C41 C 0.89815 0.68692 0.14102 0.0
Zn42 Zn 0.57105 0.67412 0.52528 0.0
Zn43 Zn 0.50711 0.63592 0.51985 0.0
O44 O 0.52293 0.58331 0.46987 0.0
O45 O 0.57352 0.60624 0.47652 0.0
O46 O 0.46046 0.60418 0.5173 0.0
O47 O 0.56809 0.65236 0.5937 0.0
O48 O 0.51769 0.61846 0.58741 0.0
C49 C 0.54911 0.57548 0.45687 0.0
C50 C 0.54071 0.77692 0.49804 0.0
O51 O 0.51618 0.73302 0.5034 0.0
O52 O 0.56685 0.76417 0.5047 0.0
C53 C 0.44219 0.6425 0.51188 0.0
O54 O 0.45336 0.70544 0.50677 0.0
C55 C 0.54222 0.62856 0.61182 0.0
Zn56 Zn 0.11389 0.18584 0.54027 0.0
Zn57 Zn 0.15762 0.29865 0.52269 0.0
O58 O 0.17156 0.26251 0.58321 0.0
O59 O 0.1371 0.17271 0.60002 0.0
O60 O 0.19512 0.36814 0.50583 0.0
O61 O 0.12134 0.14866 0.47641 0.0
O62 O 0.15402 0.24243 0.46483 0.0
C63 C 0.16161 0.21404 0.60989 0.0
C64 C 0.09186 0.30938 0.53763 0.0
O65 O 0.11973 0.33887 0.53012 0.0
O66 O 0.08463 0.24778 0.54269 0.0
C67 C 0.21171 0.40612 0.53484 0.0
O68 O 0.20254 0.40742 0.5782 0.0
C69 C 0.13998 0.18665 0.4501 0.0
Zn70 Zn 0.48883 0.36927 0.06903 0.0
Zn71 Zn 0.43115 0.30485 0.05922 0.0
O72 O 0.43221 0.37244 0.1125 0.0
O73 O 0.4785 0.43672 0.11106 0.0
O74 O 0.38617 0.25652 0.05575 0.0
O75 O 0.4916 0.38097 0.00014 0.0
O76 O 0.44218 0.33707 0.99189 0.0
C77 C 0.45175 0.42198 0.12792 0.0
C78 C 0.48133 0.23479 0.09115 0.0
O79 O 0.45417 0.23293 0.07606 0.0
O80 O 0.5004 0.28886 0.09571 0.0
C81 C 0.36603 0.27665 0.03169 0.0
O82 O 0.37411 0.33124 0.00771 0.0
C83 C 0.46821 0.36299 0.97427 0.0
Zn84 Zn 0.92916 0.75436 0.55851 0.0
Zn85 Zn 0.8811 0.6481 0.55027 0.0
O86 O 0.88087 0.67377 0.6187 0.0
O87 O 0.918 0.7619 0.62676 0.0
O88 O 0.84 0.5846 0.5423 0.0
O89 O 0.91415 0.80214 0.50453 0.0
O90 O 0.87679 0.71412 0.49958 0.0
C91 C 0.89657 0.71861 0.64422 0.0
C92 C 0.9456 0.62901 0.53595 0.0
O93 O 0.91687 0.60273 0.53761 0.0
O94 O 0.95529 0.68979 0.54268 0.0
C95 C 0.8318 0.52475 0.55386 0.0
O96 O 0.85191 0.495 0.57263 0.0
C97 C 0.89015 0.77025 0.48454 0.0
Zn98 Zn 0.50923 0.62991 0.05975 0.0
Zn99 Zn 0.56744 0.69055 0.0321 0.0
O100 O 0.57401 0.63868 0.09079 0.0
O101 O 0.5274 0.5906 0.11402 0.0
O102 O 0.61099 0.72723 0.01009 0.0
O103 O 0.50193 0.58168 -0.00117 0.0
O104 O 0.54757 0.63667 0.97598 0.0
C105 C 0.55629 0.60217 0.11946 0.0
C106 C 0.52176 0.77257 0.05866 0.0
O107 O 0.54874 0.76939 0.04589 0.0
O108 O 0.50129 0.72105 0.06568 0.0
C109 C 0.62991 0.77399 0.02948 0.0
O110 O 0.62116 0.80351 0.06559 0.0
C111 C 0.52234 0.59589 0.96779 0.0
H112 H 0.19218 0.33276 0.17858 0.0
C113 C 0.1749 0.30422 0.15556 0.0
H114 H 0.13689 0.22349 0.15036 0.0
H115 H 0.17162 0.10088 0.34213 0.0
H116 H 0.17907 0.01846 0.28682 0.0
H117 H 0.17343 0.03499 0.20228 0.0
H118 H 0.16071 0.13441 0.17249 0.0
C119 C 0.15389 0.25351 0.17302 0.0
C120 C 0.15248 0.2386 0.22389 0.0
C121 C 0.15859 0.17904 0.24077 0.0
C122 C 0.16104 0.16871 0.28961 0.0
C123 C 0.16887 0.1105 0.30547 0.0
C124 C 0.17326 0.06291 0.27409 0.0
C125 C 0.17013 0.07225 0.22648 0.0
C126 C 0.16291 0.12957 0.20982 0.0
H127 H 0.12373 0.13366 0.38495 0.0
C128 C 0.14171 0.17163 0.40004 0.0
H129 H 0.17922 0.25042 0.38744 0.0
H130 H 0.13192 0.3495 0.2033 0.0
H131 H 0.12005 0.42727 0.25852 0.0
H132 H 0.12449 0.40991 0.34314 0.0
H133 H 0.14066 0.31456 0.37293 0.0
C134 C 0.1618 0.21145 0.37214 0.0
C135 C 0.15622 0.217 0.32131 0.0
C136 C 0.14723 0.27373 0.30444 0.0
C137 C 0.14513 0.28431 0.25572 0.0
C138 C 0.13501 0.34019 0.23992 0.0
C139 C 0.12781 0.38496 0.27127 0.0
C140 C 0.13027 0.37515 0.31889 0.0
C141 C 0.13977 0.32028 0.33549 0.0
H142 H 0.54259 0.34551 0.67291 0.0
C143 C 0.5227 0.36696 0.66872 0.0
H144 H 0.48993 0.40921 0.70221 0.0
H145 H 0.47046 0.25018 0.87835 0.0
H146 H 0.45124 0.15915 0.82738 0.0
H147 H 0.46475 0.16506 0.74414 0.0
H148 H 0.49706 0.26164 0.71166 0.0
C149 C 0.50984 0.38767 0.7063 0.0
C150 C 0.52067 0.37814 0.75484 0.0
C151 C 0.50312 0.31966 0.7761 0.0
C152 C 0.49563 0.31517 0.82451 0.0
C153 C 0.47667 0.25652 0.84198 0.0
C154 C 0.46554 0.20344 0.81318 0.0
C155 C 0.4731 0.20681 0.76643 0.0
C156 C 0.49155 0.26353 0.74812 0.0
H157 H 0.45305 0.36715 0.90048 0.0
C158 C 0.47238 0.3656 0.92334 0.0
H159 H 0.51872 0.35848 0.92903 0.0
H160 H 0.60133 0.55446 0.74655 0.0
H161 H 0.61632 0.60912 0.82938 0.0
H162 H 0.59253 0.57142 0.90804 0.0
H163 H 0.56484 0.50597 0.88232 0.0
C164 C 0.49984 0.36203 0.90568 0.0
C165 C 0.50697 0.36697 0.85524 0.0
C166 C 0.52983 0.4197 0.84118 0.0
C167 C 0.54052 0.42927 0.78346 0.0
C168 C 0.58748 0.53169 0.77614 0.0
C169 C 0.5974 0.56684 0.82777 0.0
C170 C 0.5796 0.53723 0.87767 0.0
C171 C 0.54793 0.46934 0.88374 0.0
H172 H 0.85695 0.77721 0.42888 0.0
C173 C 0.88122 0.78956 0.43811 0.0
H174 H 0.92665 0.80968 0.41276 0.0
H175 H 0.84449 0.64966 0.23922 0.0
H176 H 0.82922 0.56014 0.29424 0.0
H177 H 0.84617 0.57263 0.37636 0.0
H178 H 0.87679 0.675 0.40423 0.0
C179 C 0.9023 0.80034 0.40403 0.0
C180 C 0.89378 0.79014 0.35386 0.0
C181 C 0.87819 0.72748 0.33761 0.0
C182 C 0.87135 0.71777 0.2894 0.0
C183 C 0.85243 0.65762 0.27486 0.0
C184 C 0.84324 0.60615 0.30613 0.0
C185 C 0.85259 0.61334 0.35238 0.0
C186 C 0.86988 0.67303 0.3681 0.0
H187 H 0.90208 0.66787 0.2157 0.0
C188 C 0.89484 0.70064 0.1907 0.0
H189 H 0.87678 0.78435 0.1807 0.0
H190 H 0.92149 0.91686 0.37351 0.0
H191 H 0.93944 0.00385 0.31747 0.0
H192 H 0.93292 0.98335 0.23306 0.0
H193 H 0.90803 0.87648 0.20412 0.0
C194 C 0.884 0.75183 0.20585 0.0
C195 C 0.88385 0.7674 0.25668 0.0
C196 C 0.89886 0.83035 0.27286 0.0
C197 C 0.90335 0.84188 0.32156 0.0
C198 C 0.91796 0.90529 0.33689 0.0
C199 C 0.92833 0.95566 0.30513 0.0
C200 C 0.92462 0.94413 0.2576 0.0
C201 C 0.9102 0.88233 0.24145 0.0
H202 H 0.49764 0.52245 0.91831 0.0
C203 C 0.51615 0.56575 0.92166 0.0
H204 H 0.54899 0.63722 0.88611 0.0
H205 H 0.55134 0.49745 0.67514 0.0
H206 H 0.58869 0.42187 0.69246 0.0
H207 H 0.60855 0.38892 0.77469 0.0
H208 H 0.59245 0.43372 0.85583 0.0
C209 C 0.53124 0.59255 0.88339 0.0
C210 C 0.52416 0.56389 0.83583 0.0
C211 C 0.54377 0.52738 0.81014 0.0
C212 C 0.53736 0.53125 0.75071 0.0
C213 C 0.55556 0.49179 0.71185 0.0
C214 C 0.57975 0.44183 0.72272 0.0
C215 C 0.59283 0.42146 0.77393 0.0
C216 C 0.58259 0.4507 0.82429 0.0
H217 H 0.56164 0.63302 0.68253 0.0
C218 C 0.54095 0.61477 0.662 0.0
H219 H 0.49516 0.55965 0.66263 0.0
H220 H 0.47616 0.60678 0.87743 0.0
H221 H 0.43548 0.64498 0.84127 0.0
H222 H 0.43075 0.64864 0.75594 0.0
H223 H 0.46716 0.61294 0.70682 0.0
C224 C 0.51587 0.57898 0.68274 0.0
C225 C 0.51623 0.56539 0.73355 0.0
C226 C 0.49536 0.58554 0.76351 0.0
C227 C 0.49878 0.58402 0.81305 0.0
C228 C 0.47625 0.60641 0.83996 0.0
C229 C 0.45215 0.62881 0.8196 0.0
C230 C 0.44945 0.63083 0.77173 0.0
C231 C 0.47073 0.60997 0.74397 0.0
H232 H 0.91221 0.74246 0.7161 0.0
C233 C 0.89358 0.71386 0.69535 0.0
H234 H 0.85301 0.64004 0.69527 0.0
H235 H 0.88266 0.48456 0.87012 0.0
H236 H 0.87544 0.40334 0.80864 0.0
H237 H 0.86825 0.43432 0.72699 0.0
H238 H 0.86778 0.54592 0.70628 0.0
C239 C 0.8713 0.66924 0.71627 0.0
C240 C 0.87399 0.65037 0.76615 0.0
C241 C 0.8744 0.58442 0.7775 0.0
C242 C 0.87925 0.56657 0.82443 0.0
C243 C 0.87928 0.50058 0.83495 0.0
C244 C 0.87521 0.45353 0.80002 0.0
C245 C 0.87112 0.47098 0.75407 0.0
C246 C 0.87077 0.53546 0.7427 0.0
H247 H 0.84753 0.60641 0.93326 0.0
C248 C 0.87001 0.59795 0.94253 0.0
H249 H 0.91374 0.59189 0.91707 0.0
H250 H 0.8684 0.77782 0.75922 0.0
H251 H 0.88102 0.86071 0.81926 0.0
H252 H 0.89811 0.83306 0.89726 0.0
H253 H 0.90107 0.72176 0.91628 0.0
C254 C 0.89055 0.59665 0.90856 0.0
C255 C 0.88456 0.61469 0.85967 0.0
C256 C 0.8853 0.68091 0.84808 0.0
C257 C 0.87827 0.69806 0.80194 0.0
C258 C 0.87578 0.76313 0.79278 0.0
C259 C 0.88268 0.81104 0.82705 0.0
C260 C 0.89212 0.79541 0.87102 0.0
C261 C 0.89343 0.73119 0.88161 0.0
H262 H 0.59427 0.58939 0.16582 0.0
C263 C 0.5694 0.57983 0.16212 0.0
H264 H 0.52653 0.54786 0.19545 0.0
H265 H 0.56148 0.41391 0.37426 0.0
H266 H 0.53483 0.31859 0.33056 0.0
H267 H 0.52149 0.32855 0.2476 0.0
H268 H 0.53485 0.43341 0.20773 0.0
C269 C 0.55143 0.55789 0.19883 0.0
C270 C 0.56407 0.55028 0.24601 0.0
C271 C 0.55658 0.48834 0.26833 0.0
C272 C 0.56409 0.48247 0.31608 0.0
C273 C 0.55594 0.42058 0.33802 0.0
C274 C 0.5408 0.3657 0.31333 0.0
C275 C 0.53331 0.37131 0.26661 0.0
C276 C 0.54103 0.43178 0.24418 0.0
H277 H 0.53032 0.53342 0.39101 0.0
C278 C 0.5509 0.54212 0.41252 0.0
H279 H 0.59899 0.55072 0.41276 0.0
H280 H 0.57994 0.6789 0.21582 0.0
H281 H 0.60811 0.77123 0.25918 0.0
H282 H 0.62467 0.75822 0.34014 0.0
H283 H 0.6125 0.65232 0.3782 0.0
C284 C 0.57768 0.53826 0.39293 0.0
C285 C 0.57899 0.53837 0.34129 0.0
C286 C 0.58879 0.59916 0.31816 0.0
C287 C 0.58043 0.60588 0.27084 0.0
C288 C 0.58717 0.66931 0.2506 0.0
C289 C 0.60308 0.72335 0.2754 0.0
C290 C 0.6123 0.7161 0.32099 0.0
C291 C 0.60512 0.65499 0.34241 0.0
H292 H 0.20432 0.38116 0.873 0.0
C293 C 0.20367 0.342 0.89813 0.0
H294 H 0.2033 0.24427 0.91083 0.0
H295 H 0.13112 0.1203 0.73464 0.0
H296 H 0.10567 0.05442 0.79865 0.0
H297 H 0.12039 0.08355 0.88006 0.0
H298 H 0.16079 0.17685 0.89792 0.0
C299 C 0.20386 0.28104 0.88408 0.0
C300 C 0.1971 0.2596 0.83472 0.0
C301 C 0.17224 0.20565 0.82521 0.0
C302 C 0.16259 0.19068 0.77839 0.0
C303 C 0.13867 0.13507 0.76964 0.0
C304 C 0.12391 0.09665 0.80603 0.0
C305 C 0.13227 0.11291 0.85181 0.0
C306 C 0.15591 0.16681 0.86152 0.0
H307 H 0.2009 0.21211 0.65684 0.0
C308 C 0.17654 0.21207 0.65548 0.0
H309 H 0.13742 0.22394 0.69186 0.0
H310 H 0.2513 0.35098 0.8387 0.0
H311 H 0.27471 0.42191 0.77536 0.0
H312 H 0.25141 0.41087 0.69684 0.0
H313 H 0.20614 0.32676 0.6803 0.0
C314 C 0.16163 0.22249 0.69424 0.0
C315 C 0.17628 0.23177 0.74137 0.0
C316 C 0.20157 0.28476 0.75076 0.0
C317 C 0.21313 0.2958 0.79709 0.0
C318 C 0.24036 0.34404 0.80479 0.0
C319 C 0.25415 0.38455 0.76872 0.0
C320 C 0.24119 0.37798 0.72442 0.0
C321 C 0.21524 0.32883 0.71532 0.0
H322 H 0.43724 0.45268 0.43024 0.0
C323 C 0.46078 0.44626 0.43043 0.0
H324 H 0.49779 0.4319 0.38997 0.0
H325 H 0.43401 0.30799 0.21301 0.0
H326 H 0.45072 0.2175 0.24922 0.0
H327 H 0.46986 0.22498 0.33027 0.0
H328 H 0.47303 0.32368 0.37503 0.0
C329 C 0.47538 0.44424 0.38985 0.0
C330 C 0.45894 0.43798 0.34437 0.0
C331 C 0.45563 0.37846 0.31952 0.0
C332 C 0.4435 0.37329 0.27352 0.0
C333 C 0.44229 0.3145 0.24853 0.0
C334 C 0.45184 0.2619 0.26888 0.0
C335 C 0.46266 0.26615 0.31443 0.0
C336 C 0.46451 0.32344 0.33965 0.0
H337 H 0.46554 0.49185 0.18451 0.0
C338 C 0.44662 0.45355 0.17202 0.0
H339 H 0.40715 0.38342 0.19113 0.0
H340 H 0.46154 0.55854 0.38271 0.0
H341 H 0.44209 0.64727 0.34804 0.0
H342 H 0.41806 0.63567 0.26993 0.0
H343 H 0.41364 0.53518 0.22575 0.0
C344 C 0.4254 0.42373 0.20262 0.0
C345 C 0.43371 0.42698 0.25297 0.0
C346 C 0.43525 0.485 0.27886 0.0
C347 C 0.44831 0.49095 0.32446 0.0
C348 C 0.45102 0.55068 0.34856 0.0
C349 C 0.4401 0.60212 0.32894 0.0
C350 C 0.42662 0.59564 0.2849 0.0
C351 C 0.42429 0.53793 0.25989 0.0
H352 H 0.98197 0.67737 0.96187 0.0
C353 C 0.98979 0.70057 -0.00512 0.0
H354 H 0.02274 0.71382 0.04801 0.0
H355 H 0.04426 0.43477 0.06751 0.0
H356 H 0.01965 0.45028 0.1405 0.0
H357 H 0.99775 0.54707 0.15252 0.0
H358 H 1.00034 0.62839 0.09222 0.0
C359 C 1.01553 0.68956 0.0151 0.0
C360 C 0.0269 0.62888 0.00547 0.0
C361 C 0.02506 0.58125 0.04159 0.0
C362 C 0.03773 0.52546 0.03496 0.0
C363 C 0.03545 0.4786 0.07126 0.0
C364 C 0.02122 0.48663 0.11318 0.0
C365 C 1.00889 0.54105 0.11991 0.0
C366 C 1.01065 0.58773 0.08475 0.0
H367 H 0.10692 0.52755 0.02917 0.0
C368 C 0.09926 0.48046 0.01212 0.0
H369 H 0.06385 0.42273 0.97101 0.0
H370 H 0.03358 0.70805 0.92818 0.0
H371 H 0.055 0.68682 0.85373 0.0
H372 H 0.07515 0.58761 0.84198 0.0
H373 H 0.07423 0.50906 0.90494 0.0
C374 C 0.07192 0.46783 0.99021 0.0
C375 C 0.05252 0.51727 0.99266 0.0
C376 C 0.05224 0.56159 0.95535 0.0
C377 C 0.03982 0.61805 0.96186 0.0
C378 C 0.04162 0.66332 0.92472 0.0
C379 C 0.0541 0.65197 0.88192 0.0
C380 C 0.06553 0.59617 0.87532 0.0
C381 C 0.06491 0.5516 0.91165 0.0
H382 H 0.56034 0.88196 0.48903 0.0
C383 C 0.53911 0.84461 0.48744 0.0
H384 H 0.4908 0.82631 0.47761 0.0
H385 H 0.52414 0.12347 0.56454 0.0
H386 H 0.52463 0.06552 0.63767 0.0
H387 H 0.51817 0.9456 0.63923 0.0
H388 H 0.51169 0.88325 0.56751 0.0
C389 C 0.5124 0.86232 0.47976 0.0
C390 C 0.51169 0.93251 0.47876 0.0
C391 C 0.51422 0.96768 0.52117 0.0
C392 C 0.51669 0.03623 0.52037 0.0
C393 C 0.52096 0.07088 0.5631 0.0
C394 C 0.52151 0.03827 0.60539 0.0
C395 C 0.51798 0.97083 0.60626 0.0
C396 C 0.51442 0.93569 0.56478 0.0
H397 H 0.47056 0.12523 0.50269 0.0
C398 C 0.49135 0.16068 0.49314 0.0
H399 H 0.5367 0.17368 0.46713 0.0
H400 H 0.50589 0.87838 0.3918 0.0
H401 H 0.50375 0.93589 0.31842 0.0
H402 H 0.50671 0.05482 0.31712 0.0
H403 H 0.51186 0.11708 0.38913 0.0
C404 C 0.51559 0.1396 0.47702 0.0
C405 C 0.5151 0.06879 0.47727 0.0
C406 C 0.51208 0.03347 0.43495 0.0
C407 C 0.51033 0.965 0.4357 0.0
C408 C 0.50736 0.93056 0.39303 0.0
C409 C 0.50607 0.96293 0.35077 0.0
C410 C 0.50771 0.02991 0.35003 0.0
C411 C 0.51066 0.06505 0.39155 0.0
H412 H 0.04385 0.31624 0.5471 0.0
C413 C 0.06685 0.34496 0.53994 0.0
H414 H 0.09314 0.439 0.52351 0.0
H415 H 0.97657 0.53157 0.44307 0.0
H416 H 1.0067 0.52966 0.37312 0.0
H417 H 0.05389 0.48657 0.3752 0.0
H418 H 0.07126 0.44522 0.44719 0.0
C419 C 0.07069 0.40949 0.53264 0.0
C420 C 0.04354 0.44026 0.53248 0.0
C421 C 0.03391 0.46497 0.4902 0.0
C422 C 1.00683 0.49035 0.48905 0.0
C423 C 0.99732 0.51314 0.4461 0.0
C424 C 1.01429 0.51191 0.40563 0.0
C425 C 0.04083 0.48758 0.40679 0.0
C426 C 0.05057 0.46407 0.44841 0.0
H427 H 0.99246 0.61736 0.52275 0.0
C428 C 0.96889 0.59031 0.52788 0.0
H429 H 0.94037 0.4967 0.5386 0.0
H430 H 0.0573 0.40371 0.62052 0.0
H431 H 0.02713 0.4057 0.69028 0.0
H432 H 0.97931 0.4464 0.68767 0.0
H433 H 0.96149 0.48574 0.6153 0.0
C434 C 0.96329 0.52493 0.53068 0.0
C435 C 0.98961 0.49175 0.53031 0.0
C436 C 0.99915 0.46684 0.57255 0.0
C437 C 0.02638 0.44203 0.57384 0.0
C438 C 0.03624 0.42085 0.61712 0.0
C439 C 0.01927 0.42228 0.65757 0.0
C440 C 0.99239 0.44532 0.65612 0.0
C441 C 0.98241 0.4677 0.61429 0.0
H442 H 0.48992 0.83507 0.07601 0.0
C443 C 0.51348 0.83589 0.06585 0.0
H444 H 0.55674 0.89619 0.04904 0.0
H445 H 0.49063 0.1266 0.99313 0.0
H446 H 0.50904 0.0992 0.91811 0.0
H447 H 0.5337 0.00551 0.91006 0.0
H448 H 0.54027 0.93887 0.97712 0.0
C449 C 0.53332 0.89366 0.0605 0.0
C450 C 0.5225 0.95524 0.06664 0.0
C451 C 0.51894 -0.00634 0.02714 0.0
C452 C 0.50444 0.04718 0.03173 0.0
C453 C 0.50118 0.08489 0.99164 0.0
C454 C 0.5117 0.06979 0.94833 0.0
C455 C 0.5256 0.01707 0.9438 0.0
C456 C 0.52919 0.97919 0.98259 0.0
H457 H 0.51491 0.17834 0.1142 0.0
C458 C 0.49236 0.17434 0.09833 0.0
H459 H 0.45633 0.11369 0.06077 0.0
H460 H 0.53089 0.89874 0.15047 0.0
H461 H 0.51335 0.92713 0.22599 0.0
H462 H 0.48582 0.01648 0.23345 0.0
H463 H 0.4761 0.07862 0.16561 0.0
C464 C 0.47781 0.11725 0.07973 0.0
C465 C 0.49364 0.06221 0.07587 0.0
C466 C 0.49844 0.02558 0.11578 0.0
C467 C 0.51333 0.97263 0.11124 0.0
C468 C 0.51879 0.93807 0.1518 0.0
C469 C 0.50901 0.95413 0.19536 0.0
C470 C 0.49361 0.00458 0.19959 0.0
C471 C 0.48828 0.04001 0.16038 0.0
H472 H 0.17364 0.23362 0.01944 0.0
C473 C 0.16249 0.18393 0.01051 0.0
H474 H 0.16998 0.09016 -0.00422 0.0
H475 H 0.30563 0.21396 0.92523 0.0
H476 H 0.281 0.161 0.8556 0.0
H477 H 0.22614 0.10517 0.85596 0.0
H478 H 0.19553 0.10252 0.92571 0.0
C479 C 0.18022 0.14008 0.00596 0.0
C480 C 0.21455 0.16147 0.00899 0.0
C481 C 0.23259 0.15952 0.96868 0.0
C482 C 0.26437 0.19109 0.96865 0.0
C483 C 0.28144 0.19085 0.9272 0.0
C484 C 0.26762 0.16041 0.88702 0.0
C485 C 0.23675 0.12891 0.88723 0.0
C486 C 0.2194 0.12793 0.92753 0.0
H487 H 0.32794 0.19528 0.05327 0.0
C488 C 0.33368 0.23935 0.03205 0.0
H489 H 0.31684 0.30185 0.98568 0.0
H490 H 0.1886 0.15976 0.09512 0.0
H491 H 0.21377 0.20994 0.16567 0.0
H492 H 0.26768 0.27006 0.16458 0.0
H493 H 0.29764 0.27832 0.09391 0.0
C494 C 0.31125 0.25904 0.00813 0.0
C495 C 0.27845 0.22228 0.00951 0.0
C496 C 0.26083 0.22057 0.05074 0.0
C497 C 0.22905 0.189 0.05069 0.0
C498 C 0.21245 0.1853 0.09288 0.0
C499 C 0.22655 0.21356 0.13355 0.0
C500 C 0.25706 0.24718 0.13304 0.0
C501 C 0.27407 0.25111 0.09221 0.0
H502 H 0.79306 0.43828 0.55829 0.0
C503 C 0.79927 0.4897 0.5487 0.0
H504 H 0.78324 0.57142 0.52416 0.0
H505 H 0.6603 0.41129 0.43346 0.0
H506 H 0.68917 0.45612 0.3651 0.0
H507 H 0.74339 0.51504 0.37176 0.0
H508 H 0.76914 0.52896 0.44684 0.0
C509 C 0.77718 0.52031 0.53461 0.0
C510 C 0.74407 0.48604 0.53124 0.0
C511 C 0.7291 0.47918 0.48718 0.0
C512 C 0.69757 0.44625 0.48344 0.0
C513 C 0.68378 0.43768 0.43866 0.0
C514 C 0.70019 0.46274 0.39899 0.0
C515 C 0.73073 0.49583 0.40273 0.0
C516 C 0.7452 0.50368 0.44612 0.0
H517 H 0.63031 0.46329 0.4953 0.0
C518 C 0.62503 0.41305 0.50781 0.0
H519 H 0.64268 0.33507 0.53471 0.0
H520 H 0.7642 0.49939 0.62197 0.0
H521 H 0.73487 0.45835 0.69068 0.0
H522 H 0.68053 0.40021 0.68427 0.0
H523 H 0.65518 0.38314 0.6091 0.0
C524 C 0.64804 0.3847 0.52103 0.0
C525 C 0.68079 0.42152 0.52403 0.0
C526 C 0.69558 0.43002 0.56826 0.0
C527 C 0.72711 0.46274 0.57194 0.0
C528 C 0.74071 0.47297 0.61682 0.0
C529 C 0.72403 0.45017 0.65672 0.0
C530 C 0.69344 0.4175 0.65311 0.0
C531 C 0.67922 0.40771 0.6096 0.0
H532 H 0.83756 0.8724 0.02474 0.0
C533 C 0.83429 0.83282 -0.00039 0.0
H534 H 0.80251 0.76823 0.95728 0.0
H535 H 0.703 0.80237 0.11438 0.0
H536 H 0.73466 0.75854 0.16937 0.0
H537 H 0.78589 0.74323 0.14694 0.0
H538 H 0.80585 0.77223 0.06996 0.0
C539 C 0.80598 0.8079 0.98236 0.0
C540 C 0.77765 0.827 -0.00086 0.0
C541 C 0.76629 0.80917 0.0447 0.0
C542 C 0.73636 0.8163 0.05734 0.0
C543 C 0.72546 0.79776 0.10282 0.0
C544 C 0.74338 0.77239 0.13478 0.0
C545 C 0.77222 0.76388 0.12218 0.0
C546 C 0.78354 0.78141 0.0777 0.0
H547 H 0.66856 0.75991 0.98615 0.0
C548 C 0.66225 0.78946 0.01393 0.0
H549 H 0.67862 0.86288 0.06379 0.0
H550 H 0.79351 0.87152 0.91112 0.0
H551 H 0.76181 0.91666 0.85649 0.0
H552 H 0.70982 0.92807 0.87839 0.0
H553 H 0.68913 0.89414 0.95501 0.0
C554 C 0.68433 0.83449 0.0349 0.0
C555 C 0.71741 0.83875 0.02404 0.0
C556 C 0.7294 0.85996 0.97956 0.0
C557 C 0.75949 0.8539 0.96709 0.0
C558 C 0.77071 0.87464 0.92219 0.0
C559 C 0.75282 0.90087 0.89062 0.0
C560 C 0.72354 0.90726 0.90295 0.0
C561 C 0.71187 0.88726 0.94688 0.0
H562 H 0.39431 0.654 0.51051 0.0
C563 C 0.40851 0.61817 0.51349 0.0
H564 H 0.40878 0.51869 0.52456 0.0
H565 H 0.28095 0.44755 0.62697 0.0
H566 H 0.31616 0.43455 0.68886 0.0
H567 H 0.37226 0.468 0.67756 0.0
H568 H 0.39338 0.5136 0.60394 0.0
C569 C 0.39491 0.55486 0.51992 0.0
C570 C 0.3609 0.53402 0.52607 0.0
C571 C 0.34885 0.50855 0.56963 0.0
C572 C 0.31646 0.49125 0.57661 0.0
C573 C 0.30523 0.46356 0.62002 0.0
C574 C 0.32524 0.45543 0.65589 0.0
C575 C 0.3568 0.47411 0.64949 0.0
C576 C 0.36861 0.50022 0.60696 0.0
H577 H 0.2528 0.41899 0.49067 0.0
C578 C 0.24359 0.43707 0.52171 0.0
H579 H 0.25287 0.49901 0.57983 0.0
H580 H 0.37593 0.57045 0.43594 0.0
H581 H 0.341 0.58976 0.37509 0.0
H582 H 0.28543 0.5742 0.39032 0.0
H583 H 0.26439 0.5371 0.46588 0.0
C584 C 0.26207 0.48181 0.54847 0.0
C585 C 0.29604 0.50122 0.54044 0.0
C586 C 0.3082 0.52794 0.49708 0.0
C587 C 0.34054 0.54166 0.48932 0.0
C588 C 0.35179 0.56262 0.44446 0.0
C589 C 0.33197 0.57349 0.40911 0.0
C590 C 0.30067 0.56438 0.41761 0.0
C591 C 0.28883 0.54226 0.46105 0.0
loop_
_geom_bond_atom_site_label_1
_geom_bond_atom_site_label_2
_geom_bond_distance
_geom_bond_site_symmetry_2
_ccdc_geom_bond_type
Zn0 O3 2.031 1_554 S
Zn0 O5 2.049 . S
Zn0 O10 2.067 . S
Zn1 O2 1.962 1_554 S
Zn1 O4 1.986 . S
Zn1 O6 1.996 . S
Zn1 O9 1.943 . S
O2 Zn1 1.962 1_556 S
O2 C7 1.254 . S
O3 Zn0 2.031 1_556 S
O3 C7 1.269 . S
O4 Zn1 1.986 . S
O4 C11 1.262 . S
O5 Zn0 2.049 . S
O5 C13 1.260 . S
O6 Zn1 1.996 . S
O6 C13 1.257 . S
C7 O2 1.254 . S
C7 O3 1.269 . S
C8 O9 1.249 . S
C8 O10 1.270 . S
O9 Zn1 1.943 . S
O9 C8 1.249 . S
O10 Zn0 2.067 . S
O10 C8 1.270 . S
C11 O4 1.262 . S
C11 O12 1.232 1_554 S
O12 C11 1.232 1_556 S
C13 O5 1.260 . S
C13 O6 1.257 . S
Zn14 O17 2.031 . S
Zn14 O19 2.049 . S
Zn14 O24 2.067 . S
Zn15 O16 1.962 . S
Zn15 O18 1.986 . S
Zn15 O20 1.996 . S
Zn15 O23 1.943 . S
O16 Zn15 1.962 . S
O16 C21 1.254 . S
O17 Zn14 2.031 . S
O17 C21 1.269 . S
O18 Zn15 1.986 . S
O18 C25 1.262 . S
O19 Zn14 2.049 . S
O19 C27 1.260 . S
O20 Zn15 1.996 . S
O20 C27 1.257 . S
C21 O16 1.254 . S
C21 O17 1.269 . S
C22 O23 1.249 . S
C22 O24 1.270 . S
O23 Zn15 1.943 . S
O23 C22 1.249 . S
O24 Zn14 2.067 . S
O24 C22 1.270 . S
C25 O18 1.262 . S
C25 O26 1.232 . S
O26 C25 1.232 . S
C27 O19 1.260 . S
C27 O20 1.257 . S
Zn28 O31 2.031 1_554 S
Zn28 O33 2.049 . S
Zn28 O38 2.067 . S
Zn29 O30 1.962 1_554 S
Zn29 O32 1.986 . S
Zn29 O34 1.996 . S
Zn29 O37 1.943 . S
O30 Zn29 1.962 1_556 S
O30 C35 1.254 . S
O31 Zn28 2.031 1_556 S
O31 C35 1.269 . S
O32 Zn29 1.986 . S
O32 C39 1.262 . S
O33 Zn28 2.049 . S
O33 C41 1.260 . S
O34 Zn29 1.996 . S
O34 C41 1.257 . S
C35 O30 1.254 . S
C35 O31 1.269 . S
C36 O37 1.249 . S
C36 O38 1.270 . S
O37 Zn29 1.943 . S
O37 C36 1.249 . S
O38 Zn28 2.067 . S
O38 C36 1.270 . S
C39 O32 1.262 . S
C39 O40 1.232 1_554 S
O40 C39 1.232 1_556 S
C41 O33 1.260 . S
C41 O34 1.257 . S
Zn42 O45 2.031 . S
Zn42 O47 2.049 . S
Zn42 O52 2.067 . S
Zn43 O44 1.962 . S
Zn43 O46 1.986 . S
Zn43 O48 1.996 . S
Zn43 O51 1.943 . S
O44 Zn43 1.962 . S
O44 C49 1.254 . S
O45 Zn42 2.031 . S
O45 C49 1.269 . S
O46 Zn43 1.986 . S
O46 C53 1.262 . S
O47 Zn42 2.049 . S
O47 C55 1.260 . S
O48 Zn43 1.996 . S
O48 C55 1.257 . S
C49 O44 1.254 . S
C49 O45 1.269 . S
C50 O51 1.249 . S
C50 O52 1.270 . S
O51 Zn43 1.943 . S
O51 C50 1.249 . S
O52 Zn42 2.067 . S
O52 C50 1.270 . S
C53 O46 1.262 . S
C53 O54 1.232 . S
O54 C53 1.232 . S
C55 O47 1.260 . S
C55 O48 1.257 . S
Zn56 O59 2.031 . S
Zn56 O61 2.049 . S
Zn56 O66 2.067 . S
Zn57 O58 1.962 . S
Zn57 O60 1.986 . S
Zn57 O62 1.996 . S
Zn57 O65 1.943 . S
O58 Zn57 1.962 . S
O58 C63 1.254 . S
O59 Zn56 2.031 . S
O59 C63 1.269 . S
O60 Zn57 1.986 . S
O60 C67 1.262 . S
O61 Zn56 2.049 . S
O61 C69 1.260 . S
O62 Zn57 1.996 . S
O62 C69 1.257 . S
C63 O58 1.254 . S
C63 O59 1.269 . S
C64 O65 1.249 . S
C64 O66 1.270 . S
O65 Zn57 1.943 . S
O65 C64 1.249 . S
O66 Zn56 2.067 . S
O66 C64 1.270 . S
C67 O60 1.262 . S
C67 O68 1.232 . S
O68 C67 1.232 . S
C69 O61 1.260 . S
C69 O62 1.257 . S
Zn70 O73 2.031 . S
Zn70 O75 2.049 1_554 S
Zn70 O80 2.067 . S
Zn71 O72 1.962 . S
Zn71 O74 1.986 . S
Zn71 O76 1.996 1_554 S
Zn71 O79 1.943 . S
O72 Zn71 1.962 . S
O72 C77 1.254 . S
O73 Zn70 2.031 . S
O73 C77 1.269 . S
O74 Zn71 1.986 . S
O74 C81 1.262 . S
O75 Zn70 2.049 1_556 S
O75 C83 1.260 . S
O76 Zn71 1.996 1_556 S
O76 C83 1.257 . S
C77 O72 1.254 . S
C77 O73 1.269 . S
C78 O79 1.249 . S
C78 O80 1.270 . S
O79 Zn71 1.943 . S
O79 C78 1.249 . S
O80 Zn70 2.067 . S
O80 C78 1.270 . S
C81 O74 1.262 . S
C81 O82 1.232 . S
O82 C81 1.232 . S
C83 O75 1.260 . S
C83 O76 1.257 . S
Zn84 O87 2.031 . S
Zn84 O89 2.049 . S
Zn84 O94 2.067 . S
Zn85 O86 1.962 . S
Zn85 O88 1.986 . S
Zn85 O90 1.996 . S
Zn85 O93 1.943 . S
O86 Zn85 1.962 . S
O86 C91 1.254 . S
O87 Zn84 2.031 . S
O87 C91 1.269 . S
O88 Zn85 1.986 . S
O88 C95 1.262 . S
O89 Zn84 2.049 . S
O89 C97 1.260 . S
O90 Zn85 1.996 . S
O90 C97 1.257 . S
C91 O86 1.254 . S
C91 O87 1.269 . S
C92 O93 1.249 . S
C92 O94 1.270 . S
O93 Zn85 1.943 . S
O93 C92 1.249 . S
O94 Zn84 2.067 . S
O94 C92 1.270 . S
C95 O88 1.262 . S
C95 O96 1.232 . S
O96 C95 1.232 . S
C97 O89 1.260 . S
C97 O90 1.257 . S
Zn98 O101 2.031 . S
Zn98 O103 2.049 1_554 S
Zn98 O108 2.067 . S
Zn99 O100 1.962 . S
Zn99 O102 1.986 . S
Zn99 O104 1.996 1_554 S
Zn99 O107 1.943 . S
O100 Zn99 1.962 . S
O100 C105 1.254 . S
O101 Zn98 2.031 . S
O101 C105 1.269 . S
O102 Zn99 1.986 . S
O102 C109 1.262 . S
O103 Zn98 2.049 1_556 S
O103 C111 1.260 . S
O104 Zn99 1.996 1_556 S
O104 C111 1.257 . S
C105 O100 1.254 . S
C105 O101 1.269 . S
C106 O107 1.249 . S
C106 O108 1.270 . S
O107 Zn99 1.943 . S
O107 C106 1.249 . S
O108 Zn98 2.067 . S
O108 C106 1.270 . S
C109 O102 1.262 . S
C109 O110 1.232 . S
O110 C109 1.232 . S
C111 O103 1.260 . S
C111 O104 1.257 . S
H112 C113 0.951 . S
C113 H112 0.951 . S
C113 C119 1.265 . S
H114 C119 0.950 . S
H115 C123 0.949 . S
H116 C124 0.950 . S
H117 C125 0.951 . S
H118 C126 0.951 . S
C119 C113 1.265 . S
C119 H114 0.950 . S
C119 C120 1.478 . S
C120 C119 1.478 . S
C120 C121 1.397 . S
C120 C137 1.394 . S
C121 C120 1.397 . S
C121 C122 1.438 . S
C121 C126 1.429 . S
C122 C121 1.438 . S
C122 C123 1.428 . S
C122 C135 1.394 . S
C123 H115 0.949 . S
C123 C122 1.428 . S
C123 C124 1.345 . S
C124 H116 0.950 . S
C124 C123 1.345 . S
C124 C125 1.424 . S
C125 H117 0.951 . S
C125 C124 1.424 . S
C125 C126 1.347 . S
C126 H118 0.951 . S
C126 C121 1.429 . S
C126 C125 1.347 . S
H127 C128 0.951 . S
C128 H127 0.951 . S
C128 C134 1.265 . S
H129 C134 0.950 . S
H130 C138 0.949 . S
H131 C139 0.950 . S
H132 C140 0.951 . S
H133 C141 0.951 . S
C134 C128 1.265 . S
C134 H129 0.950 . S
C134 C135 1.478 . S
C135 C122 1.394 . S
C135 C134 1.478 . S
C135 C136 1.397 . S
C136 C135 1.397 . S
C136 C137 1.438 . S
C136 C141 1.429 . S
C137 C120 1.394 . S
C137 C136 1.438 . S
C137 C138 1.428 . S
C138 H130 0.949 . S
C138 C137 1.428 . S
C138 C139 1.345 . S
C139 H131 0.950 . S
C139 C138 1.345 . S
C139 C140 1.424 . S
C140 H132 0.951 . S
C140 C139 1.424 . S
C140 C141 1.347 . S
C141 H133 0.951 . S
C141 C136 1.429 . S
C141 C140 1.347 . S
H142 C143 0.951 . S
C143 H142 0.951 . S
C143 C149 1.265 . S
H144 C149 0.950 . S
H145 C153 0.949 . S
H146 C154 0.950 . S
H147 C155 0.951 . S
H148 C156 0.951 . S
C149 C143 1.265 . S
C149 H144 0.950 . S
C149 C150 1.478 . S
C150 C149 1.478 . S
C150 C151 1.397 . S
C150 C167 1.394 . S
C151 C150 1.397 . S
C151 C152 1.438 . S
C151 C156 1.429 . S
C152 C151 1.438 . S
C152 C153 1.428 . S
C152 C165 1.394 . S
C153 H145 0.949 . S
C153 C152 1.428 . S
C153 C154 1.345 . S
C154 H146 0.950 . S
C154 C153 1.345 . S
C154 C155 1.424 . S
C155 H147 0.951 . S
C155 C154 1.424 . S
C155 C156 1.347 . S
C156 H148 0.951 . S
C156 C151 1.429 . S
C156 C155 1.347 . S
H157 C158 0.951 . S
C158 H157 0.951 . S
C158 C164 1.265 . S
H159 C164 0.950 . S
H160 C168 0.949 . S
H161 C169 0.950 . S
H162 C170 0.951 . S
H163 C171 0.951 . S
C164 C158 1.265 . S
C164 H159 0.950 . S
C164 C165 1.478 . S
C165 C152 1.394 . S
C165 C164 1.478 . S
C165 C166 1.397 . S
C166 C165 1.397 . S
C166 C167 1.438 . S
C166 C171 1.429 . S
C167 C150 1.394 . S
C167 C166 1.438 . S
C167 C168 1.428 . S
C168 H160 0.949 . S
C168 C167 1.428 . S
C168 C169 1.345 . S
C169 H161 0.950 . S
C169 C168 1.345 . S
C169 C170 1.424 . S
C170 H162 0.951 . S
C170 C169 1.424 . S
C170 C171 1.347 . S
C171 H163 0.951 . S
C171 C166 1.429 . S
C171 C170 1.347 . S
H172 C173 0.951 . S
C173 H172 0.951 . S
C173 C179 1.265 . S
H174 C179 0.950 . S
H175 C183 0.949 . S
H176 C184 0.950 . S
H177 C185 0.951 . S
H178 C186 0.951 . S
C179 C173 1.265 . S
C179 H174 0.950 . S
C179 C180 1.478 . S
C180 C179 1.478 . S
C180 C181 1.397 . S
C180 C197 1.394 . S
C181 C180 1.397 . S
C181 C182 1.438 . S
C181 C186 1.429 . S
C182 C181 1.438 . S
C182 C183 1.428 . S
C182 C195 1.394 . S
C183 H175 0.949 . S
C183 C182 1.428 . S
C183 C184 1.345 . S
C184 H176 0.950 . S
C184 C183 1.345 . S
C184 C185 1.424 . S
C185 H177 0.951 . S
C185 C184 1.424 . S
C185 C186 1.347 . S
C186 H178 0.951 . S
C186 C181 1.429 . S
C186 C185 1.347 . S
H187 C188 0.951 . S
C188 H187 0.951 . S
C188 C194 1.265 . S
H189 C194 0.950 . S
H190 C198 0.949 . S
H191 C199 0.950 . S
H192 C200 0.951 . S
H193 C201 0.951 . S
C194 C188 1.265 . S
C194 H189 0.950 . S
C194 C195 1.478 . S
C195 C182 1.394 . S
C195 C194 1.478 . S
C195 C196 1.397 . S
C196 C195 1.397 . S
C196 C197 1.438 . S
C196 C201 1.429 . S
C197 C180 1.394 . S
C197 C196 1.438 . S
C197 C198 1.428 . S
C198 H190 0.949 . S
C198 C197 1.428 . S
C198 C199 1.345 . S
C199 H191 0.950 . S
C199 C198 1.345 . S
C199 C200 1.424 . S
C200 H192 0.951 . S
C200 C199 1.424 . S
C200 C201 1.347 . S
C201 H193 0.951 . S
C201 C196 1.429 . S
C201 C200 1.347 . S
H202 C203 0.951 . S
C203 H202 0.951 . S
C203 C209 1.265 . S
H204 C209 0.950 . S
H205 C213 0.949 . S
H206 C214 0.950 . S
H207 C215 0.951 . S
H208 C216 0.951 . S
C209 C203 1.265 . S
C209 H204 0.950 . S
C209 C210 1.478 . S
C210 C209 1.478 . S
C210 C211 1.397 . S
C210 C227 1.394 . S
C211 C210 1.397 . S
C211 C212 1.438 . S
C211 C216 1.429 . S
C212 C211 1.438 . S
C212 C213 1.428 . S
C212 C225 1.394 . S
C213 H205 0.949 . S
C213 C212 1.428 . S
C213 C214 1.345 . S
C214 H206 0.950 . S
C214 C213 1.345 . S
C214 C215 1.424 . S
C215 H207 0.951 . S
C215 C214 1.424 . S
C215 C216 1.347 . S
C216 H208 0.951 . S
C216 C211 1.429 . S
C216 C215 1.347 . S
H217 C218 0.951 . S
C218 H217 0.951 . S
C218 C224 1.265 . S
H219 C224 0.950 . S
H220 C228 0.949 . S
H221 C229 0.950 . S
H222 C230 0.951 . S
H223 C231 0.951 . S
C224 C218 1.265 . S
C224 H219 0.950 . S
C224 C225 1.478 . S
C225 C212 1.394 . S
C225 C224 1.478 . S
C225 C226 1.397 . S
C226 C225 1.397 . S
C226 C227 1.438 . S
C226 C231 1.429 . S
C227 C210 1.394 . S
C227 C226 1.438 . S
C227 C228 1.428 . S
C228 H220 0.949 . S
C228 C227 1.428 . S
C228 C229 1.345 . S
C229 H221 0.950 . S
C229 C228 1.345 . S
C229 C230 1.424 . S
C230 H222 0.951 . S
C230 C229 1.424 . S
C230 C231 1.347 . S
C231 H223 0.951 . S
C231 C226 1.429 . S
C231 C230 1.347 . S
H232 C233 0.951 . S
C233 H232 0.951 . S
C233 C239 1.265 . S
H234 C239 0.950 . S
H235 C243 0.949 . S
H236 C244 0.950 . S
H237 C245 0.951 . S
H238 C246 0.951 . S
C239 C233 1.265 . S
C239 H234 0.950 . S
C239 C240 1.478 . S
C240 C239 1.478 . S
C240 C241 1.397 . S
C240 C257 1.394 . S
C241 C240 1.397 . S
C241 C242 1.438 . S
C241 C246 1.429 . S
C242 C241 1.438 . S
C242 C243 1.428 . S
C242 C255 1.394 . S
C243 H235 0.949 . S
C243 C242 1.428 . S
C243 C244 1.345 . S
C244 H236 0.950 . S
C244 C243 1.345 . S
C244 C245 1.424 . S
C245 H237 0.951 . S
C245 C244 1.424 . S
C245 C246 1.347 . S
C246 H238 0.951 . S
C246 C241 1.429 . S
C246 C245 1.347 . S
H247 C248 0.951 . S
C248 H247 0.951 . S
C248 C254 1.265 . S
H249 C254 0.950 . S
H250 C258 0.949 . S
H251 C259 0.950 . S
H252 C260 0.951 . S
H253 C261 0.951 . S
C254 C248 1.265 . S
C254 H249 0.950 . S
C254 C255 1.478 . S
C255 C242 1.394 . S
C255 C254 1.478 . S
C255 C256 1.397 . S
C256 C255 1.397 . S
C256 C257 1.438 . S
C256 C261 1.429 . S
C257 C240 1.394 . S
C257 C256 1.438 . S
C257 C258 1.428 . S
C258 H250 0.949 . S
C258 C257 1.428 . S
C258 C259 1.345 . S
C259 H251 0.950 . S
C259 C258 1.345 . S
C259 C260 1.424 . S
C260 H252 0.951 . S
C260 C259 1.424 . S
C260 C261 1.347 . S
C261 H253 0.951 . S
C261 C256 1.429 . S
C261 C260 1.347 . S
H262 C263 0.951 . S
C263 H262 0.951 . S
C263 C269 1.265 . S
H264 C269 0.950 . S
H265 C273 0.949 . S
H266 C274 0.950 . S
H267 C275 0.951 . S
H268 C276 0.951 . S
C269 C263 1.265 . S
C269 H264 0.950 . S
C269 C270 1.478 . S
C270 C269 1.478 . S
C270 C271 1.397 . S
C270 C287 1.394 . S
C271 C270 1.397 . S
C271 C272 1.438 . S
C271 C276 1.429 . S
C272 C271 1.438 . S
C272 C273 1.428 . S
C272 C285 1.394 . S
C273 H265 0.949 . S
C273 C272 1.428 . S
C273 C274 1.345 . S
C274 H266 0.950 . S
C274 C273 1.345 . S
C274 C275 1.424 . S
C275 H267 0.951 . S
C275 C274 1.424 . S
C275 C276 1.347 . S
C276 H268 0.951 . S
C276 C271 1.429 . S
C276 C275 1.347 . S
H277 C278 0.951 . S
C278 H277 0.951 . S
C278 C284 1.265 . S
H279 C284 0.950 . S
H280 C288 0.949 . S
H281 C289 0.950 . S
H282 C290 0.951 . S
H283 C291 0.951 . S
C284 C278 1.265 . S
C284 H279 0.950 . S
C284 C285 1.478 . S
C285 C272 1.394 . S
C285 C284 1.478 . S
C285 C286 1.397 . S
C286 C285 1.397 . S
C286 C287 1.438 . S
C286 C291 1.429 . S
C287 C270 1.394 . S
C287 C286 1.438 . S
C287 C288 1.428 . S
C288 H280 0.949 . S
C288 C287 1.428 . S
C288 C289 1.345 . S
C289 H281 0.950 . S
C289 C288 1.345 . S
C289 C290 1.424 . S
C290 H282 0.951 . S
C290 C289 1.424 . S
C290 C291 1.347 . S
C291 H283 0.951 . S
C291 C286 1.429 . S
C291 C290 1.347 . S
H292 C293 0.951 . S
C293 H292 0.951 . S
C293 C299 1.265 . S
H294 C299 0.950 . S
H295 C303 0.949 . S
H296 C304 0.950 . S
H297 C305 0.951 . S
H298 C306 0.951 . S
C299 C293 1.265 . S
C299 H294 0.950 . S
C299 C300 1.478 . S
C300 C299 1.478 . S
C300 C301 1.397 . S
C300 C317 1.394 . S
C301 C300 1.397 . S
C301 C302 1.438 . S
C301 C306 1.429 . S
C302 C301 1.438 . S
C302 C303 1.428 . S
C302 C315 1.394 . S
C303 H295 0.949 . S
C303 C302 1.428 . S
C303 C304 1.345 . S
C304 H296 0.950 . S
C304 C303 1.345 . S
C304 C305 1.424 . S
C305 H297 0.951 . S
C305 C304 1.424 . S
C305 C306 1.347 . S
C306 H298 0.951 . S
C306 C301 1.429 . S
C306 C305 1.347 . S
H307 C308 0.951 . S
C308 H307 0.951 . S
C308 C314 1.265 . S
H309 C314 0.950 . S
H310 C318 0.949 . S
H311 C319 0.950 . S
H312 C320 0.951 . S
H313 C321 0.951 . S
C314 C308 1.265 . S
C314 H309 0.950 . S
C314 C315 1.478 . S
C315 C302 1.394 . S
C315 C314 1.478 . S
C315 C316 1.397 . S
C316 C315 1.397 . S
C316 C317 1.438 . S
C316 C321 1.429 . S
C317 C300 1.394 . S
C317 C316 1.438 . S
C317 C318 1.428 . S
C318 H310 0.949 . S
C318 C317 1.428 . S
C318 C319 1.345 . S
C319 H311 0.950 . S
C319 C318 1.345 . S
C319 C320 1.424 . S
C320 H312 0.951 . S
C320 C319 1.424 . S
C320 C321 1.347 . S
C321 H313 0.951 . S
C321 C316 1.429 . S
C321 C320 1.347 . S
H322 C323 0.951 . S
C323 H322 0.951 . S
C323 C329 1.265 . S
H324 C329 0.950 . S
H325 C333 0.949 . S
H326 C334 0.950 . S
H327 C335 0.951 . S
H328 C336 0.951 . S
C329 C323 1.265 . S
C329 H324 0.950 . S
C329 C330 1.478 . S
C330 C329 1.478 . S
C330 C331 1.397 . S
C330 C347 1.394 . S
C331 C330 1.397 . S
C331 C332 1.438 . S
C331 C336 1.429 . S
C332 C331 1.438 . S
C332 C333 1.428 . S
C332 C345 1.394 . S
C333 H325 0.949 . S
C333 C332 1.428 . S
C333 C334 1.345 . S
C334 H326 0.950 . S
C334 C333 1.345 . S
C334 C335 1.424 . S
C335 H327 0.951 . S
C335 C334 1.424 . S
C335 C336 1.347 . S
C336 H328 0.951 . S
C336 C331 1.429 . S
C336 C335 1.347 . S
H337 C338 0.951 . S
C338 H337 0.951 . S
C338 C344 1.265 . S
H339 C344 0.950 . S
H340 C348 0.949 . S
H341 C349 0.950 . S
H342 C350 0.951 . S
H343 C351 0.951 . S
C344 C338 1.265 . S
C344 H339 0.950 . S
C344 C345 1.478 . S
C345 C332 1.394 . S
C345 C344 1.478 . S
C345 C346 1.397 . S
C346 C345 1.397 . S
C346 C347 1.438 . S
C346 C351 1.429 . S
C347 C330 1.394 . S
C347 C346 1.438 . S
C347 C348 1.428 . S
C348 H340 0.949 . S
C348 C347 1.428 . S
C348 C349 1.345 . S
C349 H341 0.950 . S
C349 C348 1.345 . S
C349 C350 1.424 . S
C350 H342 0.951 . S
C350 C349 1.424 . S
C350 C351 1.347 . S
C351 H343 0.951 . S
C351 C346 1.429 . S
C351 C350 1.347 . S
H352 C353 0.951 . S
C353 H352 0.951 . S
C353 C359 1.265 1_655 S
H354 C359 0.950 . S
H355 C363 0.949 1_655 S
H356 C364 0.950 . S
H357 C365 0.951 . S
H358 C366 0.951 . S
C359 C353 1.265 1_455 S
C359 H354 0.950 . S
C359 C360 1.478 . S
C360 C359 1.478 . S
C360 C361 1.397 . S
C360 C377 1.394 1_454 S
C361 C360 1.397 . S
C361 C362 1.438 . S
C361 C366 1.429 . S
C362 C361 1.438 . S
C362 C363 1.428 . S
C362 C375 1.394 1_455 S
C363 H355 0.949 1_455 S
C363 C362 1.428 . S
C363 C364 1.345 . S
C364 H356 0.950 . S
C364 C363 1.345 . S
C364 C365 1.424 . S
C365 H357 0.951 . S
C365 C364 1.424 . S
C365 C366 1.347 . S
C366 H358 0.951 . S
C366 C361 1.429 . S
C366 C365 1.347 . S
H367 C368 0.951 . S
C368 H367 0.951 . S
C368 C374 1.265 1_455 S
H369 C374 0.950 . S
H370 C378 0.949 1_455 S
H371 C379 0.950 . S
H372 C380 0.951 . S
H373 C381 0.951 . S
C374 C368 1.265 1_655 S
C374 H369 0.950 . S
C374 C375 1.478 . S
C375 C362 1.394 1_655 S
C375 C374 1.478 . S
C375 C376 1.397 1_554 S
C376 C375 1.397 1_556 S
C376 C377 1.438 . S
C376 C381 1.429 . S
C377 C360 1.394 1_656 S
C377 C376 1.438 . S
C377 C378 1.428 . S
C378 H370 0.949 1_655 S
C378 C377 1.428 . S
C378 C379 1.345 . S
C379 H371 0.950 . S
C379 C378 1.345 . S
C379 C380 1.424 . S
C380 H372 0.951 . S
C380 C379 1.424 . S
C380 C381 1.347 . S
C381 H373 0.951 . S
C381 C376 1.429 . S
C381 C380 1.347 . S
H382 C383 0.951 . S
C383 H382 0.951 . S
C383 C389 1.265 . S
H384 C389 0.950 . S
H385 C393 0.949 . S
H386 C394 0.950 . S
H387 C395 0.951 . S
H388 C396 0.951 . S
C389 C383 1.265 . S
C389 H384 0.950 . S
C389 C390 1.478 . S
C390 C389 1.478 . S
C390 C391 1.397 . S
C390 C407 1.394 . S
C391 C390 1.397 . S
C391 C392 1.438 1_565 S
C391 C396 1.429 . S
C392 C391 1.438 1_545 S
C392 C393 1.428 . S
C392 C405 1.394 . S
C393 H385 0.949 . S
C393 C392 1.428 . S
C393 C394 1.345 . S
C394 H386 0.950 . S
C394 C393 1.345 . S
C394 C395 1.424 1_545 S
C395 H387 0.951 . S
C395 C394 1.424 1_565 S
C395 C396 1.347 . S
C396 H388 0.951 . S
C396 C391 1.429 . S
C396 C395 1.347 . S
H397 C398 0.951 . S
C398 H397 0.951 . S
C398 C404 1.265 . S
H399 C404 0.950 . S
H400 C408 0.949 . S
H401 C409 0.950 . S
H402 C410 0.951 . S
H403 C411 0.951 . S
C404 C398 1.265 . S
C404 H399 0.950 . S
C404 C405 1.478 . S
C405 C392 1.394 . S
C405 C404 1.478 . S
C405 C406 1.397 . S
C406 C405 1.397 . S
C406 C407 1.438 1_545 S
C406 C411 1.429 . S
C407 C390 1.394 . S
C407 C406 1.438 1_565 S
C407 C408 1.428 . S
C408 H400 0.949 . S
C408 C407 1.428 . S
C408 C409 1.345 . S
C409 H401 0.950 . S
C409 C408 1.345 . S
C409 C410 1.424 1_565 S
C410 H402 0.951 . S
C410 C409 1.424 1_545 S
C410 C411 1.347 . S
C411 H403 0.951 . S
C411 C406 1.429 . S
C411 C410 1.347 . S
H412 C413 0.951 . S
C413 H412 0.951 . S
C413 C419 1.265 . S
H414 C419 0.950 . S
H415 C423 0.949 . S
H416 C424 0.950 . S
H417 C425 0.951 . S
H418 C426 0.951 . S
C419 C413 1.265 . S
C419 H414 0.950 . S
C419 C420 1.478 . S
C420 C419 1.478 . S
C420 C421 1.397 . S
C420 C437 1.394 . S
C421 C420 1.397 . S
C421 C422 1.438 1_455 S
C421 C426 1.429 . S
C422 C421 1.438 1_655 S
C422 C423 1.428 . S
C422 C435 1.394 . S
C423 H415 0.949 . S
C423 C422 1.428 . S
C423 C424 1.345 1_655 S
C424 H416 0.950 . S
C424 C423 1.345 1_455 S
C424 C425 1.424 . S
C425 H417 0.951 . S
C425 C424 1.424 . S
C425 C426 1.347 . S
C426 H418 0.951 . S
C426 C421 1.429 . S
C426 C425 1.347 . S
H427 C428 0.951 . S
C428 H427 0.951 . S
C428 C434 1.265 . S
H429 C434 0.950 . S
H430 C438 0.949 . S
H431 C439 0.950 . S
H432 C440 0.951 . S
H433 C441 0.951 . S
C434 C428 1.265 . S
C434 H429 0.950 . S
C434 C435 1.478 . S
C435 C422 1.394 . S
C435 C434 1.478 . S
C435 C436 1.397 . S
C436 C435 1.397 . S
C436 C437 1.438 1_655 S
C436 C441 1.429 . S
C437 C420 1.394 . S
C437 C436 1.438 1_455 S
C437 C438 1.428 . S
C438 H430 0.949 . S
C438 C437 1.428 . S
C438 C439 1.345 1_455 S
C439 H431 0.950 . S
C439 C438 1.345 1_655 S
C439 C440 1.424 . S
C440 H432 0.951 . S
C440 C439 1.424 . S
C440 C441 1.347 . S
C441 H433 0.951 . S
C441 C436 1.429 . S
C441 C440 1.347 . S
H442 C443 0.951 . S
C443 H442 0.951 . S
C443 C449 1.265 . S
H444 C449 0.950 . S
H445 C453 0.949 . S
H446 C454 0.950 . S
H447 C455 0.951 . S
H448 C456 0.951 . S
C449 C443 1.265 . S
C449 H444 0.950 . S
C449 C450 1.478 . S
C450 C449 1.478 . S
C450 C451 1.397 . S
C450 C467 1.394 . S
C451 C450 1.397 . S
C451 C452 1.438 1_565 S
C451 C456 1.429 1_554 S
C452 C451 1.438 1_545 S
C452 C453 1.428 1_554 S
C452 C465 1.394 . S
C453 H445 0.949 . S
C453 C452 1.428 1_556 S
C453 C454 1.345 . S
C454 H446 0.950 . S
C454 C453 1.345 . S
C454 C455 1.424 . S
C455 H447 0.951 . S
C455 C454 1.424 . S
C455 C456 1.347 1_545 S
C456 H448 0.951 . S
C456 C451 1.429 1_556 S
C456 C455 1.347 1_565 S
H457 C458 0.951 . S
C458 H457 0.951 . S
C458 C464 1.265 . S
H459 C464 0.950 . S
H460 C468 0.949 . S
H461 C469 0.950 . S
H462 C470 0.951 . S
H463 C471 0.951 . S
C464 C458 1.265 . S
C464 H459 0.950 . S
C464 C465 1.478 . S
C465 C452 1.394 . S
C465 C464 1.478 . S
C465 C466 1.397 . S
C466 C465 1.397 . S
C466 C467 1.438 1_545 S
C466 C471 1.429 . S
C467 C450 1.394 . S
C467 C466 1.438 1_565 S
C467 C468 1.428 . S
C468 H460 0.949 . S
C468 C467 1.428 . S
C468 C469 1.345 . S
C469 H461 0.950 . S
C469 C468 1.345 . S
C469 C470 1.424 . S
C470 H462 0.951 . S
C470 C469 1.424 . S
C470 C471 1.347 1_565 S
C471 H463 0.951 . S
C471 C466 1.429 . S
C471 C470 1.347 1_545 S
H472 C473 0.951 . S
C473 H472 0.951 . S
C473 C479 1.265 . S
H474 C479 0.950 . S
H475 C483 0.949 . S
H476 C484 0.950 . S
H477 C485 0.951 . S
H478 C486 0.951 . S
C479 C473 1.265 . S
C479 H474 0.950 . S
C479 C480 1.478 . S
C480 C479 1.478 . S
C480 C481 1.397 . S
C480 C497 1.394 . S
C481 C480 1.397 . S
C481 C482 1.438 . S
C481 C486 1.429 1_554 S
C482 C481 1.438 . S
C482 C483 1.428 1_554 S
C482 C495 1.394 . S
C483 H475 0.949 . S
C483 C482 1.428 1_556 S
C483 C484 1.345 . S
C484 H476 0.950 . S
C484 C483 1.345 . S
C484 C485 1.424 . S
C485 H477 0.951 . S
C485 C484 1.424 . S
C485 C486 1.347 . S
C486 H478 0.951 . S
C486 C481 1.429 1_556 S
C486 C485 1.347 . S
H487 C488 0.951 . S
C488 H487 0.951 . S
C488 C494 1.265 . S
H489 C494 0.950 . S
H490 C498 0.949 . S
H491 C499 0.950 . S
H492 C500 0.951 . S
H493 C501 0.951 . S
C494 C488 1.265 . S
C494 H489 0.950 . S
C494 C495 1.478 . S
C495 C482 1.394 . S
C495 C494 1.478 . S
C495 C496 1.397 . S
C496 C495 1.397 . S
C496 C497 1.438 . S
C496 C501 1.429 . S
C497 C480 1.394 . S
C497 C496 1.438 . S
C497 C498 1.428 . S
C498 H490 0.949 . S
C498 C497 1.428 . S
C498 C499 1.345 . S
C499 H491 0.950 . S
C499 C498 1.345 . S
C499 C500 1.424 . S
C500 H492 0.951 . S
C500 C499 1.424 . S
C500 C501 1.347 . S
C501 H493 0.951 . S
C501 C496 1.429 . S
C501 C500 1.347 . S
H502 C503 0.951 . S
C503 H502 0.951 . S
C503 C509 1.265 . S
H504 C509 0.950 . S
H505 C513 0.949 . S
H506 C514 0.950 . S
H507 C515 0.951 . S
H508 C516 0.951 . S
C509 C503 1.265 . S
C509 H504 0.950 . S
C509 C510 1.478 . S
C510 C509 1.478 . S
C510 C511 1.397 . S
C510 C527 1.394 . S
C511 C510 1.397 . S
C511 C512 1.438 . S
C511 C516 1.429 . S
C512 C511 1.438 . S
C512 C513 1.428 . S
C512 C525 1.394 . S
C513 H505 0.949 . S
C513 C512 1.428 . S
C513 C514 1.345 . S
C514 H506 0.950 . S
C514 C513 1.345 . S
C514 C515 1.424 . S
C515 H507 0.951 . S
C515 C514 1.424 . S
C515 C516 1.347 . S
C516 H508 0.951 . S
C516 C511 1.429 . S
C516 C515 1.347 . S
H517 C518 0.951 . S
C518 H517 0.951 . S
C518 C524 1.265 . S
H519 C524 0.950 . S
H520 C528 0.949 . S
H521 C529 0.950 . S
H522 C530 0.951 . S
H523 C531 0.951 . S
C524 C518 1.265 . S
C524 H519 0.950 . S
C524 C525 1.478 . S
C525 C512 1.394 . S
C525 C524 1.478 . S
C525 C526 1.397 . S
C526 C525 1.397 . S
C526 C527 1.438 . S
C526 C531 1.429 . S
C527 C510 1.394 . S
C527 C526 1.438 . S
C527 C528 1.428 . S
C528 H520 0.949 . S
C528 C527 1.428 . S
C528 C529 1.345 . S
C529 H521 0.950 . S
C529 C528 1.345 . S
C529 C530 1.424 . S
C530 H522 0.951 . S
C530 C529 1.424 . S
C530 C531 1.347 . S
C531 H523 0.951 . S
C531 C526 1.429 . S
C531 C530 1.347 . S
H532 C533 0.951 . S
C533 H532 0.951 . S
C533 C539 1.265 . S
H534 C539 0.950 . S
H535 C543 0.949 . S
H536 C544 0.950 . S
H537 C545 0.951 . S
H538 C546 0.951 . S
C539 C533 1.265 . S
C539 H534 0.950 . S
C539 C540 1.478 . S
C540 C539 1.478 . S
C540 C541 1.397 . S
C540 C557 1.389 1_554 S
C541 C540 1.397 . S
C541 C542 1.438 . S
C541 C546 1.429 . S
C542 C541 1.438 . S
C542 C543 1.428 . S
C542 C555 1.394 . S
C543 H535 0.949 . S
C543 C542 1.428 . S
C543 C544 1.345 . S
C544 H536 0.950 . S
C544 C543 1.345 . S
C544 C545 1.424 . S
C545 H537 0.951 . S
C545 C544 1.424 . S
C545 C546 1.347 . S
C546 H538 0.951 . S
C546 C541 1.429 . S
C546 C545 1.347 . S
H547 C548 0.951 . S
C548 H547 0.951 . S
C548 C554 1.265 . S
H549 C554 0.950 . S
H550 C558 0.949 . S
H551 C559 0.950 . S
H552 C560 0.951 . S
H553 C561 0.951 . S
C554 C548 1.265 . S
C554 H549 0.950 . S
C554 C555 1.478 . S
C555 C542 1.394 . S
C555 C554 1.478 . S
C555 C556 1.397 1_554 S
C556 C555 1.397 1_556 S
C556 C557 1.438 . S
C556 C561 1.429 . S
C557 C540 1.389 1_556 S
C557 C556 1.438 . S
C557 C558 1.433 . S
C558 H550 0.949 . S
C558 C557 1.433 . S
C558 C559 1.345 . S
C559 H551 0.950 . S
C559 C558 1.345 . S
C559 C560 1.424 . S
C560 H552 0.951 . S
C560 C559 1.424 . S
C560 C561 1.347 . S
C561 H553 0.951 . S
C561 C556 1.429 . S
C561 C560 1.347 . S
H562 C563 0.951 . S
C563 H562 0.951 . S
C563 C569 1.265 . S
H564 C569 0.950 . S
H565 C573 0.949 . S
H566 C574 0.950 . S
H567 C575 0.951 . S
H568 C576 0.951 . S
C569 C563 1.265 . S
C569 H564 0.950 . S
C569 C570 1.478 . S
C570 C569 1.478 . S
C570 C571 1.397 . S
C570 C587 1.394 . S
C571 C570 1.397 . S
C571 C572 1.438 . S
C571 C576 1.429 . S
C572 C571 1.438 . S
C572 C573 1.428 . S
C572 C585 1.394 . S
C573 H565 0.949 . S
C573 C572 1.428 . S
C573 C574 1.345 . S
C574 H566 0.950 . S
C574 C573 1.345 . S
C574 C575 1.424 . S
C575 H567 0.951 . S
C575 C574 1.424 . S
C575 C576 1.347 . S
C576 H568 0.951 . S
C576 C571 1.429 . S
C576 C575 1.347 . S
H577 C578 0.951 . S
C578 H577 0.951 . S
C578 C584 1.265 . S
H579 C584 0.950 . S
H580 C588 0.949 . S
H581 C589 0.950 . S
H582 C590 0.951 . S
H583 C591 0.951 . S
C584 C578 1.265 . S
C584 H579 0.950 . S
C584 C585 1.478 . S
C585 C572 1.394 . S
C585 C584 1.478 . S
C585 C586 1.397 . S
C586 C585 1.397 . S
C586 C587 1.438 . S
C586 C591 1.429 . S
C587 C570 1.394 . S
C587 C586 1.438 . S
C587 C588 1.428 . S
C588 H580 0.949 . S
C588 C587 1.428 . S
C588 C589 1.345 . S
C589 H581 0.950 . S
C589 C588 1.345 . S
C589 C590 1.424 . S
C590 H582 0.951 . S
C590 C589 1.424 . S
C590 C591 1.347 . S
C591 H583 0.951 . S
C591 C586 1.429 . S
C591 C590 1.347 . S
C113 C13 1.319 . S
C128 C69 1.250 . S
C143 C27 1.321 . S
C158 C83 1.332 . S
C173 C97 1.312 . S
C188 C41 1.238 . S
C203 C111 1.212 . S
C218 C55 1.236 . S
C233 C91 1.180 . S
C248 C35 1.196 . S
C263 C105 1.186 . S
C278 C49 1.182 . S
C293 C7 1.151 . S
C308 C63 1.168 . S
C323 C21 1.191 . S
C338 C77 1.183 . S
C353 C36 3.101 . S
C368 C8 3.094 . S
C383 C50 1.410 . S
C398 C22 1.389 . S
C413 C64 1.116 . S
C428 C92 1.121 . S
C443 C106 1.404 . S
C458 C78 1.396 . S
C473 C11 2.040 . S
C488 C81 2.549 . S
C503 C95 1.557 . S
C518 C25 1.552 . S
C533 C39 2.162 . S
C548 C109 2.579 . S
C563 C53 1.545 . S
C578 C67 1.537 . S
