# Generated by pormake.
# Topology wna, (6)-cn, num edge types: 1
# Building blocks:
#     Node 0, Type 0, BuildingBlock: BETDAH_clean_sbu_0, # of connection points: 6
#     Node 1, Type 0, BuildingBlock: BETDAH_clean_sbu_0, # of connection points: 6
#     Node 2, Type 0, BuildingBlock: BETDAH_clean_sbu_0, # of connection points: 6
#     Node 3, Type 0, BuildingBlock: BETDAH_clean_sbu_0, # of connection points: 6
#     Node 4, Type 0, BuildingBlock: BETDAH_clean_sbu_0, # of connection points: 6
#     Node 5, Type 0, BuildingBlock: BETDAH_clean_sbu_0, # of connection points: 6
#     Node 6, Type 0, BuildingBlock: BETDAH_clean_sbu_0, # of connection points: 6
#     Node 7, Type 0, BuildingBlock: BETDAH_clean_sbu_0, # of connection points: 6
#     Node 8, Type 0, BuildingBlock: BETDAH_clean_sbu_0, # of connection points: 6
#     Node 9, Type 0, BuildingBlock: BETDAH_clean_sbu_0, # of connection points: 6
#     Node 10, Type 0, BuildingBlock: BETDAH_clean_sbu_0, # of connection points: 6
#     Node 11, Type 0, BuildingBlock: BETDAH_clean_sbu_0, # of connection points: 6
#     Node 12, Type 0, BuildingBlock: BETDAH_clean_sbu_0, # of connection points: 6
#     Node 13, Type 0, BuildingBlock: BETDAH_clean_sbu_0, # of connection points: 6
#     Node 14, Type 0, BuildingBlock: BETDAH_clean_sbu_0, # of connection points: 6
#     Node 15, Type 0, BuildingBlock: BETDAH_clean_sbu_0, # of connection points: 6
#     Node 16, Type 0, BuildingBlock: BETDAH_clean_sbu_0, # of connection points: 6
#     Node 17, Type 0, BuildingBlock: BETDAH_clean_sbu_0, # of connection points: 6
#     Node 18, Type 0, BuildingBlock: BETDAH_clean_sbu_0, # of connection points: 6
#     Node 19, Type 0, BuildingBlock: BETDAH_clean_sbu_0, # of connection points: 6
#     Node 20, Type 0, BuildingBlock: BETDAH_clean_sbu_0, # of connection points: 6
#     Node 21, Type 0, BuildingBlock: BETDAH_clean_sbu_0, # of connection points: 6
#     Node 22, Type 0, BuildingBlock: BETDAH_clean_sbu_0, # of connection points: 6
#     Node 23, Type 0, BuildingBlock: BETDAH_clean_sbu_0, # of connection points: 6
#     Node 24, Type 0, BuildingBlock: BETDAH_clean_sbu_0, # of connection points: 6
#     Node 25, Type 0, BuildingBlock: BETDAH_clean_sbu_0, # of connection points: 6
#     Node 26, Type 0, BuildingBlock: BETDAH_clean_sbu_0, # of connection points: 6
#     Node 27, Type 0, BuildingBlock: BETDAH_clean_sbu_0, # of connection points: 6
#     Node 28, Type 0, BuildingBlock: BETDAH_clean_sbu_0, # of connection points: 6
#     Node 29, Type 0, BuildingBlock: BETDAH_clean_sbu_0, # of connection points: 6
#     Node 30, Type 0, BuildingBlock: BETDAH_clean_sbu_0, # of connection points: 6
#     Node 31, Type 0, BuildingBlock: BETDAH_clean_sbu_0, # of connection points: 6
#     Node 32, Type 0, BuildingBlock: BETDAH_clean_sbu_0, # of connection points: 6
#     Node 33, Type 0, BuildingBlock: BETDAH_clean_sbu_0, # of connection points: 6
#     Node 34, Type 0, BuildingBlock: BETDAH_clean_sbu_0, # of connection points: 6
#     Node 35, Type 0, BuildingBlock: BETDAH_clean_sbu_0, # of connection points: 6
#     Edge 36, Type (0, 0), BuildingBlock: AJUNOK_clean_linker_0, # of connection points: 2
#     Edge 37, Type (0, 0), BuildingBlock: AJUNOK_clean_linker_0, # of connection points: 2
#     Edge 38, Type (0, 0), BuildingBlock: AJUNOK_clean_linker_0, # of connection points: 2
#     Edge 39, Type (0, 0), BuildingBlock: AJUNOK_clean_linker_0, # of connection points: 2
#     Edge 40, Type (0, 0), BuildingBlock: AJUNOK_clean_linker_0, # of connection points: 2
#     Edge 41, Type (0, 0), BuildingBlock: AJUNOK_clean_linker_0, # of connection points: 2
#     Edge 42, Type (0, 0), BuildingBlock: AJUNOK_clean_linker_0, # of connection points: 2
#     Edge 43, Type (0, 0), BuildingBlock: AJUNOK_clean_linker_0, # of connection points: 2
#     Edge 44, Type (0, 0), BuildingBlock: AJUNOK_clean_linker_0, # of connection points: 2
#     Edge 45, Type (0, 0), BuildingBlock: AJUNOK_clean_linker_0, # of connection points: 2
#     Edge 46, Type (0, 0), BuildingBlock: AJUNOK_clean_linker_0, # of connection points: 2
#     Edge 47, Type (0, 0), BuildingBlock: AJUNOK_clean_linker_0, # of connection points: 2
#     Edge 48, Type (0, 0), BuildingBlock: AJUNOK_clean_linker_0, # of connection points: 2
#     Edge 49, Type (0, 0), BuildingBlock: AJUNOK_clean_linker_0, # of connection points: 2
#     Edge 50, Type (0, 0), BuildingBlock: AJUNOK_clean_linker_0, # of connection points: 2
#     Edge 51, Type (0, 0), BuildingBlock: AJUNOK_clean_linker_0, # of connection points: 2
#     Edge 52, Type (0, 0), BuildingBlock: AJUNOK_clean_linker_0, # of connection points: 2
#     Edge 53, Type (0, 0), BuildingBlock: AJUNOK_clean_linker_0, # of connection points: 2
#     Edge 54, Type (0, 0), BuildingBlock: AJUNOK_clean_linker_0, # of connection points: 2
#     Edge 55, Type (0, 0), BuildingBlock: AJUNOK_clean_linker_0, # of connection points: 2
#     Edge 56, Type (0, 0), BuildingBlock: AJUNOK_clean_linker_0, # of connection points: 2
#     Edge 57, Type (0, 0), BuildingBlock: AJUNOK_clean_linker_0, # of connection points: 2
#     Edge 58, Type (0, 0), BuildingBlock: AJUNOK_clean_linker_0, # of connection points: 2
#     Edge 59, Type (0, 0), BuildingBlock: AJUNOK_clean_linker_0, # of connection points: 2
#     Edge 60, Type (0, 0), BuildingBlock: AJUNOK_clean_linker_0, # of connection points: 2
#     Edge 61, Type (0, 0), BuildingBlock: AJUNOK_clean_linker_0, # of connection points: 2
#     Edge 62, Type (0, 0), BuildingBlock: AJUNOK_clean_linker_0, # of connection points: 2
#     Edge 63, Type (0, 0), BuildingBlock: AJUNOK_clean_linker_0, # of connection points: 2
#     Edge 64, Type (0, 0), BuildingBlock: AJUNOK_clean_linker_0, # of connection points: 2
#     Edge 65, Type (0, 0), BuildingBlock: AJUNOK_clean_linker_0, # of connection points: 2
#     Edge 66, Type (0, 0), BuildingBlock: AJUNOK_clean_linker_0, # of connection points: 2
#     Edge 67, Type (0, 0), BuildingBlock: AJUNOK_clean_linker_0, # of connection points: 2
#     Edge 68, Type (0, 0), BuildingBlock: AJUNOK_clean_linker_0, # of connection points: 2
#     Edge 69, Type (0, 0), BuildingBlock: AJUNOK_clean_linker_0, # of connection points: 2
#     Edge 70, Type (0, 0), BuildingBlock: AJUNOK_clean_linker_0, # of connection points: 2
#     Edge 71, Type (0, 0), BuildingBlock: AJUNOK_clean_linker_0, # of connection points: 2
#     Edge 72, Type (0, 0), BuildingBlock: AJUNOK_clean_linker_0, # of connection points: 2
#     Edge 73, Type (0, 0), BuildingBlock: AJUNOK_clean_linker_0, # of connection points: 2
#     Edge 74, Type (0, 0), BuildingBlock: AJUNOK_clean_linker_0, # of connection points: 2
#     Edge 75, Type (0, 0), BuildingBlock: AJUNOK_clean_linker_0, # of connection points: 2
#     Edge 76, Type (0, 0), BuildingBlock: AJUNOK_clean_linker_0, # of connection points: 2
#     Edge 77, Type (0, 0), BuildingBlock: AJUNOK_clean_linker_0, # of connection points: 2
#     Edge 78, Type (0, 0), BuildingBlock: AJUNOK_clean_linker_0, # of connection points: 2
#     Edge 79, Type (0, 0), BuildingBlock: AJUNOK_clean_linker_0, # of connection points: 2
#     Edge 80, Type (0, 0), BuildingBlock: AJUNOK_clean_linker_0, # of connection points: 2
#     Edge 81, Type (0, 0), BuildingBlock: AJUNOK_clean_linker_0, # of connection points: 2
#     Edge 82, Type (0, 0), BuildingBlock: AJUNOK_clean_linker_0, # of connection points: 2
#     Edge 83, Type (0, 0), BuildingBlock: AJUNOK_clean_linker_0, # of connection points: 2
#     Edge 84, Type (0, 0), BuildingBlock: AJUNOK_clean_linker_0, # of connection points: 2
#     Edge 85, Type (0, 0), BuildingBlock: AJUNOK_clean_linker_0, # of connection points: 2
#     Edge 86, Type (0, 0), BuildingBlock: AJUNOK_clean_linker_0, # of connection points: 2
#     Edge 87, Type (0, 0), BuildingBlock: AJUNOK_clean_linker_0, # of connection points: 2
#     Edge 88, Type (0, 0), BuildingBlock: AJUNOK_clean_linker_0, # of connection points: 2
#     Edge 89, Type (0, 0), BuildingBlock: AJUNOK_clean_linker_0, # of connection points: 2
#     Edge 90, Type (0, 0), BuildingBlock: AJUNOK_clean_linker_0, # of connection points: 2
#     Edge 91, Type (0, 0), BuildingBlock: AJUNOK_clean_linker_0, # of connection points: 2
#     Edge 92, Type (0, 0), BuildingBlock: AJUNOK_clean_linker_0, # of connection points: 2
#     Edge 93, Type (0, 0), BuildingBlock: AJUNOK_clean_linker_0, # of connection points: 2
#     Edge 94, Type (0, 0), BuildingBlock: AJUNOK_clean_linker_0, # of connection points: 2
#     Edge 95, Type (0, 0), BuildingBlock: AJUNOK_clean_linker_0, # of connection points: 2
#     Edge 96, Type (0, 0), BuildingBlock: AJUNOK_clean_linker_0, # of connection points: 2
#     Edge 97, Type (0, 0), BuildingBlock: AJUNOK_clean_linker_0, # of connection points: 2
#     Edge 98, Type (0, 0), BuildingBlock: AJUNOK_clean_linker_0, # of connection points: 2
#     Edge 99, Type (0, 0), BuildingBlock: AJUNOK_clean_linker_0, # of connection points: 2
#     Edge 100, Type (0, 0), BuildingBlock: AJUNOK_clean_linker_0, # of connection points: 2
#     Edge 101, Type (0, 0), BuildingBlock: AJUNOK_clean_linker_0, # of connection points: 2
#     Edge 102, Type (0, 0), BuildingBlock: AJUNOK_clean_linker_0, # of connection points: 2
#     Edge 103, Type (0, 0), BuildingBlock: AJUNOK_clean_linker_0, # of connection points: 2
#     Edge 104, Type (0, 0), BuildingBlock: AJUNOK_clean_linker_0, # of connection points: 2
#     Edge 105, Type (0, 0), BuildingBlock: AJUNOK_clean_linker_0, # of connection points: 2
#     Edge 106, Type (0, 0), BuildingBlock: AJUNOK_clean_linker_0, # of connection points: 2
#     Edge 107, Type (0, 0), BuildingBlock: AJUNOK_clean_linker_0, # of connection points: 2
#     Edge 108, Type (0, 0), BuildingBlock: AJUNOK_clean_linker_0, # of connection points: 2
#     Edge 109, Type (0, 0), BuildingBlock: AJUNOK_clean_linker_0, # of connection points: 2
#     Edge 110, Type (0, 0), BuildingBlock: AJUNOK_clean_linker_0, # of connection points: 2
#     Edge 111, Type (0, 0), BuildingBlock: AJUNOK_clean_linker_0, # of connection points: 2
#     Edge 112, Type (0, 0), BuildingBlock: AJUNOK_clean_linker_0, # of connection points: 2
#     Edge 113, Type (0, 0), BuildingBlock: AJUNOK_clean_linker_0, # of connection points: 2
#     Edge 114, Type (0, 0), BuildingBlock: AJUNOK_clean_linker_0, # of connection points: 2
#     Edge 115, Type (0, 0), BuildingBlock: AJUNOK_clean_linker_0, # of connection points: 2
#     Edge 116, Type (0, 0), BuildingBlock: AJUNOK_clean_linker_0, # of connection points: 2
#     Edge 117, Type (0, 0), BuildingBlock: AJUNOK_clean_linker_0, # of connection points: 2
#     Edge 118, Type (0, 0), BuildingBlock: AJUNOK_clean_linker_0, # of connection points: 2
#     Edge 119, Type (0, 0), BuildingBlock: AJUNOK_clean_linker_0, # of connection points: 2
#     Edge 120, Type (0, 0), BuildingBlock: AJUNOK_clean_linker_0, # of connection points: 2
#     Edge 121, Type (0, 0), BuildingBlock: AJUNOK_clean_linker_0, # of connection points: 2
#     Edge 122, Type (0, 0), BuildingBlock: AJUNOK_clean_linker_0, # of connection points: 2
#     Edge 123, Type (0, 0), BuildingBlock: AJUNOK_clean_linker_0, # of connection points: 2
#     Edge 124, Type (0, 0), BuildingBlock: AJUNOK_clean_linker_0, # of connection points: 2
#     Edge 125, Type (0, 0), BuildingBlock: AJUNOK_clean_linker_0, # of connection points: 2
#     Edge 126, Type (0, 0), BuildingBlock: AJUNOK_clean_linker_0, # of connection points: 2
#     Edge 127, Type (0, 0), BuildingBlock: AJUNOK_clean_linker_0, # of connection points: 2
#     Edge 128, Type (0, 0), BuildingBlock: AJUNOK_clean_linker_0, # of connection points: 2
#     Edge 129, Type (0, 0), BuildingBlock: AJUNOK_clean_linker_0, # of connection points: 2
#     Edge 130, Type (0, 0), BuildingBlock: AJUNOK_clean_linker_0, # of connection points: 2
#     Edge 131, Type (0, 0), BuildingBlock: AJUNOK_clean_linker_0, # of connection points: 2
#     Edge 132, Type (0, 0), BuildingBlock: AJUNOK_clean_linker_0, # of connection points: 2
#     Edge 133, Type (0, 0), BuildingBlock: AJUNOK_clean_linker_0, # of connection points: 2
#     Edge 134, Type (0, 0), BuildingBlock: AJUNOK_clean_linker_0, # of connection points: 2
#     Edge 135, Type (0, 0), BuildingBlock: AJUNOK_clean_linker_0, # of connection points: 2
#     Edge 136, Type (0, 0), BuildingBlock: AJUNOK_clean_linker_0, # of connection points: 2
#     Edge 137, Type (0, 0), BuildingBlock: AJUNOK_clean_linker_0, # of connection points: 2
#     Edge 138, Type (0, 0), BuildingBlock: AJUNOK_clean_linker_0, # of connection points: 2
#     Edge 139, Type (0, 0), BuildingBlock: AJUNOK_clean_linker_0, # of connection points: 2
#     Edge 140, Type (0, 0), BuildingBlock: AJUNOK_clean_linker_0, # of connection points: 2
#     Edge 141, Type (0, 0), BuildingBlock: AJUNOK_clean_linker_0, # of connection points: 2
#     Edge 142, Type (0, 0), BuildingBlock: AJUNOK_clean_linker_0, # of connection points: 2
#     Edge 143, Type (0, 0), BuildingBlock: AJUNOK_clean_linker_0, # of connection points: 2
# Relax obj value: 0.151
# Max RMSD: 0.231
# Mean RMSD: 0.213
data_MOF--net-wna--node1-BETDAH_clean_sbu_0--edge1-AJUNOK_clean_linker_0
_symmetry_space_group_name_H-M    P1
_symmetry_Int_Tables_number       1
_symmetry_cell_setting            triclinic
loop_
_symmetry_equiv_pos_as_xyz
'x, y, z'
_cell_length_a     30.226085
_cell_length_b     30.265348
_cell_length_c     130.10607
_cell_angle_alpha  90.014706
_cell_angle_beta   89.981423
_cell_angle_gamma 120.03375
loop_
_atom_site_label
_atom_site_type_symbol
_atom_site_fract_x
_atom_site_fract_y
_atom_site_fract_z
_atom_type_partial_charge
Ho0 Ho 0.12307 0.25744 0.16989 0.0
Ho1 Ho 0.12894 0.25056 0.19248 0.0
C2 C 0.23591 0.31972 0.18066 0.0
C3 C 0.11853 0.285 0.15113 0.0
C4 C 0.14061 0.29936 0.14058 0.0
C5 C 0.17392 0.35058 0.13784 0.0
C6 C 0.18648 0.36454 0.12749 0.0
C7 C 0.16549 0.32776 0.11959 0.0
C8 C 0.13408 0.27635 0.1224 0.0
C9 C 0.12171 0.2624 0.13272 0.0
C10 C 0.14073 0.18107 0.17548 0.0
C11 C 0.02379 0.17148 0.18098 0.0
C12 C 0.12495 0.22655 0.21192 0.0
C13 C 0.09772 0.21777 0.22196 0.0
C14 C 0.08185 0.17155 0.22718 0.0
C15 C 0.06166 0.16382 0.23717 0.0
C16 C 0.05657 0.20208 0.24226 0.0
C17 C 0.07151 0.2481 0.23695 0.0
C18 C 0.09194 0.25591 0.22694 0.0
C19 C 0.10132 0.32084 0.18599 0.0
O20 O 0.20677 0.31731 0.17279 0.0
O21 O 0.21432 0.29106 0.18891 0.0
O22 O 0.10058 0.23778 0.15405 0.0
O23 O 0.13856 0.31744 0.15875 0.0
O24 O 0.11677 0.18145 0.16727 0.0
O25 O 0.15969 0.22425 0.17988 0.0
O26 O 0.05416 0.17831 0.18886 0.0
O27 O 0.03985 0.20536 0.17347 0.0
O28 O 0.15134 0.27303 0.20836 0.0
O29 O 0.10242 0.19319 0.20459 0.0
O30 O 0.13119 0.32673 0.19361 0.0
O31 O 0.08624 0.27688 0.18238 0.0
H32 H 0.18886 0.38017 0.14366 0.0
H33 H 0.21178 0.40436 0.12564 0.0
H34 H 0.11698 0.24698 0.11657 0.0
H35 H 0.09525 0.22272 0.13449 0.0
H36 H 0.08632 0.14163 0.22362 0.0
H37 H 0.05036 0.12782 0.24095 0.0
H38 H 0.06899 0.27879 0.24066 0.0
H39 H 0.10431 0.29225 0.22321 0.0
Ho40 Ho 0.77507 0.87217 0.1696 0.0
Ho41 Ho 0.78577 0.88484 0.19379 0.0
C42 C 0.71767 0.92367 0.18149 0.0
C43 C 0.74547 0.83224 0.15146 0.0
C44 C 0.73497 0.84128 0.14067 0.0
C45 C 0.6846 0.81678 0.13688 0.0
C46 C 0.6749 0.81802 0.12635 0.0
C47 C 0.71539 0.84312 0.11932 0.0
C48 C 0.76561 0.86931 0.12315 0.0
C49 C 0.7753 0.86835 0.13367 0.0
C50 C 0.84118 0.97203 0.17451 0.0
C51 C 0.86732 0.86498 0.18094 0.0
C52 C 0.81238 0.90787 0.21299 0.0
C53 C 0.82085 0.8901 0.22315 0.0
C54 C 0.86927 0.91712 0.22779 0.0
C55 C 0.87718 0.90629 0.2379 0.0
C56 C 0.83679 0.86822 0.24371 0.0
C57 C 0.78869 0.83979 0.23894 0.0
C58 C 0.7807 0.85079 0.22881 0.0
C59 C 0.71501 0.78866 0.18668 0.0
O60 O 0.71502 0.8936 0.17376 0.0
O61 O 0.74809 0.93139 0.18951 0.0
O62 O 0.79314 0.85628 0.15452 0.0
O63 O 0.71342 0.82735 0.15879 0.0
O64 O 0.82854 0.95507 0.16517 0.0
O65 O 0.81634 0.93466 0.18046 0.0
O66 O 0.85496 0.87764 0.18982 0.0
O67 O 0.83904 0.8558 0.17254 0.0
O68 O 0.76559 0.88925 0.20962 0.0
O69 O 0.84479 0.91612 0.20557 0.0
O70 O 0.71134 0.80909 0.19515 0.0
O71 O 0.75789 0.8195 0.1828 0.0
H72 H 0.65269 0.79496 0.14201 0.0
H73 H 0.63578 0.79739 0.12364 0.0
H74 H 0.79761 0.88974 0.11797 0.0
H75 H 0.81466 0.88742 0.13623 0.0
H76 H 0.90094 0.94781 0.22369 0.0
H77 H 0.915 0.92821 0.2412 0.0
H78 H 0.75674 0.81013 0.24317 0.0
H79 H 0.74277 0.82936 0.22554 0.0
Ho80 Ho 0.16526 0.90769 0.16938 0.0
Ho81 Ho 0.1498 0.90618 0.19444 0.0
C82 C 0.11093 0.79828 0.18157 0.0
C83 C 0.20872 0.91808 0.15165 0.0
C84 C 0.20203 0.89828 0.14097 0.0
C85 C 0.24311 0.89724 0.13618 0.0
C86 C 0.2414 0.88599 0.12569 0.0
C87 C 0.19843 0.87531 0.1197 0.0
C88 C 0.15644 0.87459 0.12458 0.0
C89 C 0.15823 0.88603 0.1351 0.0
C90 C 0.06676 0.87977 0.17448 0.0
C91 C 0.17113 1.00592 0.18102 0.0
C92 C 0.1207 0.9055 0.21328 0.0
C93 C 0.14039 0.927 0.22374 0.0
C94 C 0.14699 0.97479 0.22665 0.0
C95 C 0.15985 0.99253 0.2368 0.0
C96 C 0.16602 0.96288 0.24438 0.0
C97 C 0.16064 0.91564 0.24142 0.0
C98 C 0.14774 0.89785 0.23126 0.0
C99 C 0.25093 0.94065 0.18878 0.0
O100 O 0.13615 0.82437 0.17322 0.0
O101 O 0.10798 0.82134 0.19012 0.0
O102 O 0.18376 0.94143 0.15427 0.0
O103 O 0.21183 0.8907 0.15914 0.0
O104 O 0.08312 0.88243 0.1651 0.0
O105 O 0.10408 0.89044 0.18039 0.0
O106 O 0.1521 0.97889 0.18955 0.0
O107 O 0.18625 0.98911 0.17305 0.0
O108 O 0.13045 0.87086 0.20958 0.0
O109 O 0.12263 0.93719 0.2062 0.0
O110 O 0.23413 0.93451 0.19813 0.0
O111 O 0.21191 0.92698 0.18328 0.0
H112 H 0.27746 0.9069 0.14049 0.0
H113 H 0.27426 0.88659 0.12221 0.0
H114 H 0.12304 0.86727 0.12018 0.0
H115 H 0.12609 0.88692 0.13856 0.0
H116 H 0.14098 0.99815 0.22116 0.0
H117 H 0.16344 0.02895 0.23878 0.0
H118 H 0.16614 0.89219 0.24697 0.0
H119 H 0.14253 0.86069 0.22936 0.0
Ho120 Ho 0.26495 0.11724 0.3588 0.0
Ho121 Ho 0.2571 0.12125 0.3359 0.0
C122 C 0.32598 0.22887 0.34759 0.0
C123 C 0.29442 0.11379 0.37742 0.0
C124 C 0.31276 0.13773 0.3877 0.0
C125 C 0.35516 0.13766 0.39209 0.0
C126 C 0.36789 0.15068 0.40245 0.0
C127 C 0.33856 0.16427 0.40871 0.0
C128 C 0.29709 0.16602 0.40421 0.0
C129 C 0.28433 0.15295 0.39383 0.0
C130 C 0.18873 0.13448 0.35298 0.0
C131 C 0.17742 0.01778 0.34788 0.0
C132 C 0.2319 0.11536 0.31654 0.0
C133 C 0.22368 0.08639 0.30674 0.0
C134 C 0.17371 0.0552 0.30301 0.0
C135 C 0.165 0.03263 0.29324 0.0
C136 C 0.20603 0.04056 0.28688 0.0
C137 C 0.25607 0.07134 0.29065 0.0
C138 C 0.26481 0.09396 0.30044 0.0
C139 C 0.32675 0.09372 0.3426 0.0
O140 O 0.32393 0.20089 0.35565 0.0
O141 O 0.29771 0.20635 0.33934 0.0
O142 O 0.24734 0.09941 0.37485 0.0
O143 O 0.32571 0.12982 0.36955 0.0
O144 O 0.18929 0.11184 0.36138 0.0
O145 O 0.23175 0.15261 0.34853 0.0
O146 O 0.18514 0.04712 0.33978 0.0
O147 O 0.2106 0.03413 0.35555 0.0
O148 O 0.27847 0.14354 0.31998 0.0
O149 O 0.19907 0.09307 0.32397 0.0
O150 O 0.33249 0.12172 0.33465 0.0
O151 O 0.28315 0.07988 0.34627 0.0
H152 H 0.37711 0.12506 0.38764 0.0
H153 H 0.39927 0.14762 0.40567 0.0
H154 H 0.27373 0.17639 0.40879 0.0
H155 H 0.25106 0.15292 0.39073 0.0
H156 H 0.14114 0.0495 0.30753 0.0
H157 H 0.126 1.01041 0.29053 0.0
H158 H 0.2886 0.07835 0.28597 0.0
H159 H 0.30385 0.11833 0.30295 0.0
Ho160 Ho 0.91474 0.15251 0.35787 0.0
Ho161 Ho 0.91047 0.14018 0.33486 0.0
C162 C 0.803 0.10181 0.34671 0.0
C163 C 0.91897 0.18546 0.37655 0.0
C164 C 0.8969 0.17796 0.38711 0.0
C165 C 0.86701 0.19962 0.39 0.0
C166 C 0.85474 0.20101 0.40038 0.0
C167 C 0.87276 0.18156 0.40816 0.0
C168 C 0.9007 0.15793 0.40519 0.0
C169 C 0.91271 0.1563 0.39484 0.0
C170 C 0.89726 0.05893 0.35215 0.0
C171 C 1.01415 0.16459 0.34685 0.0
C172 C 0.91422 0.11905 0.3155 0.0
C173 C 0.9406 0.13698 0.30538 0.0
C174 C 0.95017 0.10361 0.29953 0.0
C175 C 0.97016 0.1165 0.28954 0.0
C176 C 0.98113 0.16325 0.28505 0.0
C177 C 0.97268 0.1973 0.29102 0.0
C178 C 0.95246 0.18426 0.30104 0.0
C179 C 0.93759 0.23716 0.3416 0.0
O180 O 0.83109 0.12787 0.35475 0.0
O181 O 0.82536 0.09582 0.33845 0.0
O182 O 0.93737 0.15646 0.37371 0.0
O183 O 0.89865 0.19723 0.36888 0.0
O184 O 0.91923 0.08209 0.3606 0.0
O185 O 0.87939 0.08379 0.34761 0.0
O186 O 0.98517 0.14334 0.33868 0.0
O187 O 0.99775 0.18102 0.35457 0.0
O188 O 0.88733 0.13874 0.319 0.0
O189 O 0.9378 0.10961 0.32284 0.0
O190 O 0.91028 0.21523 0.33354 0.0
O191 O 0.95141 0.20748 0.34526 0.0
H192 H 0.85462 0.21718 0.3843 0.0
H193 H 0.83204 0.21839 0.40233 0.0
H194 H 0.91544 0.14274 0.41093 0.0
H195 H 0.93654 0.14007 0.39297 0.0
H196 H 0.94096 0.0667 0.30262 0.0
H197 H 0.97578 0.08909 0.28523 0.0
H198 H 0.98172 0.23414 0.28796 0.0
H199 H 0.94554 0.21088 0.30533 0.0
Ho200 Ho 0.87938 0.76727 0.35887 0.0
Ho201 Ho 0.89157 0.77335 0.33581 0.0
C202 C 0.92985 0.70509 0.348 0.0
C203 C 0.84578 0.7389 0.3775 0.0
C204 C 0.84999 0.71991 0.38781 0.0
C205 C 0.80591 0.67982 0.39232 0.0
C206 C 0.80555 0.66694 0.40268 0.0
C207 C 0.84941 0.69374 0.40885 0.0
C208 C 0.89412 0.73286 0.40424 0.0
C209 C 0.89445 0.7458 0.39384 0.0
C210 C 0.97269 0.84257 0.35282 0.0
C211 C 0.86708 0.85379 0.34739 0.0
C212 C 0.9131 0.79663 0.31642 0.0
C213 C 0.89719 0.80934 0.3065 0.0
C214 C 0.93401 0.85033 0.30066 0.0
C215 C 0.92252 0.86064 0.29081 0.0
C216 C 0.87361 0.83041 0.28649 0.0
C217 C 0.83647 0.78952 0.2924 0.0
C218 C 0.84808 0.77909 0.30228 0.0
C219 C 0.79446 0.70456 0.34269 0.0
O220 O 0.90459 0.70841 0.35606 0.0
O221 O 0.93495 0.73194 0.33956 0.0
O222 O 0.88014 0.78538 0.37492 0.0
O223 O 0.82936 0.7076 0.36964 0.0
O224 O 0.94991 0.84288 0.36123 0.0
O225 O 0.94763 0.79914 0.34856 0.0
O226 O 0.88662 0.84425 0.33916 0.0
O227 O 0.85248 0.82292 0.35544 0.0
O228 O 0.88704 0.74993 0.31989 0.0
O229 O 0.92901 0.83041 0.3238 0.0
O230 O 0.81662 0.69793 0.33481 0.0
O231 O 0.82434 0.74845 0.34621 0.0
H232 H 0.77079 0.65993 0.38794 0.0
H233 H 0.77005 0.63752 0.40599 0.0
H234 H 0.92861 0.75425 0.40873 0.0
H235 H 0.92896 0.77727 0.39066 0.0
H236 H 0.97242 0.87375 0.30361 0.0
H237 H 0.95263 0.89153 0.28645 0.0
H238 H 0.7984 0.76541 0.28936 0.0
H239 H 0.81889 0.74692 0.30654 0.0
Ho240 Ho 0.91285 0.77561 0.8364 0.0
Ho241 Ho 0.91673 0.76901 0.85922 0.0
C242 C 1.01723 0.85437 0.8482 0.0
C243 C 0.9178 0.80022 0.81701 0.0
C244 C 0.94332 0.80799 0.80681 0.0
C245 C 0.96675 0.85689 0.80236 0.0
C246 C 0.98501 0.86488 0.79224 0.0
C247 C 0.98013 0.8241 0.7862 0.0
C248 C 0.9584 0.77538 0.79075 0.0
C249 C 0.93984 0.7673 0.80092 0.0
C250 C 0.93806 0.70442 0.84314 0.0
C251 C 0.8049 0.7078 0.84807 0.0
C252 C 0.9195 0.74174 0.8781 0.0
C253 C 0.89602 0.7275 0.88855 0.0
C254 C 0.86912 0.67611 0.89169 0.0
C255 C 0.85576 0.66319 0.90205 0.0
C256 C 0.86919 0.70127 0.90959 0.0
C257 C 0.89469 0.75258 0.90639 0.0
C258 C 0.90786 0.76548 0.89604 0.0
C259 C 0.9001 0.84536 0.85306 0.0
O260 O 0.98759 0.84741 0.84019 0.0
O261 O 1.00034 0.82104 0.85583 0.0
O262 O 0.88887 0.75398 0.82052 0.0
O263 O 0.94301 0.83268 0.82431 0.0
O264 O 0.90997 0.69948 0.83526 0.0
O265 O 0.95329 0.74827 0.84686 0.0
O266 O 0.83292 0.70979 0.85612 0.0
O267 O 0.82762 0.73614 0.83983 0.0
O268 O 0.93797 0.78893 0.8751 0.0
O269 O 0.90019 0.70917 0.87048 0.0
O270 O 0.92227 0.84513 0.86155 0.0
O271 O 0.88167 0.80196 0.84884 0.0
H272 H 0.96965 0.88897 0.80664 0.0
H273 H 1.0025 0.90308 0.78908 0.0
H274 H 0.95416 0.74316 0.78633 0.0
H275 H 0.92163 0.72903 0.80405 0.0
H276 H 0.86017 0.64585 0.8862 0.0
H277 H 0.83601 0.62327 0.90421 0.0
H278 H 0.9069 0.78308 0.91196 0.0
H279 H 0.92961 0.80551 0.89401 0.0
Ho280 Ho 0.25798 0.13972 0.83481 0.0
Ho281 Ho 0.26793 0.15289 0.85894 0.0
C282 C 0.17627 0.16001 0.84746 0.0
C283 C 0.23177 0.11743 0.81556 0.0
C284 C 0.22223 0.13654 0.80567 0.0
C285 C 0.17269 0.11218 0.80146 0.0
C286 C 0.16342 0.12499 0.79164 0.0
C287 C 0.20343 0.16272 0.78568 0.0
C288 C 0.253 0.18751 0.78992 0.0
C289 C 0.2623 0.17463 0.79977 0.0
C290 C 0.32784 0.23608 0.84188 0.0
C291 C 0.32735 0.10321 0.84721 0.0
C292 C 0.29823 0.19384 0.87695 0.0
C293 C 0.31098 0.18593 0.8876 0.0
C294 C 0.35835 0.22157 0.89186 0.0
C295 C 0.36837 0.22006 0.90234 0.0
C296 C 0.331 0.18315 0.90886 0.0
C297 C 0.28439 0.14611 0.90451 0.0
C298 C 0.27443 0.14749 0.89401 0.0
C299 C 0.20239 0.05269 0.85417 0.0
O300 O 0.18905 0.1477 0.83859 0.0
O301 O 0.20397 0.16887 0.85592 0.0
O302 O 0.27875 0.13752 0.81891 0.0
O303 O 0.19902 0.10647 0.82305 0.0
O304 O 0.33225 0.21555 0.83349 0.0
O305 O 0.28489 0.20523 0.84573 0.0
O306 O 0.32907 0.13325 0.85484 0.0
O307 O 0.29667 0.09411 0.83917 0.0
O308 O 0.25023 0.16782 0.87414 0.0
O309 O 0.32998 0.19989 0.86948 0.0
O310 O 0.21507 0.07012 0.86348 0.0
O311 O 0.22708 0.0898 0.84814 0.0
H312 H 0.14112 0.08194 0.80567 0.0
H313 H 0.125 0.10402 0.78858 0.0
H314 H 0.28477 0.21677 0.78559 0.0
H315 H 0.30109 0.19386 0.80266 0.0
H316 H 0.38702 0.25195 0.88715 0.0
H317 H 0.40461 0.2492 0.90544 0.0
H318 H 0.25518 0.11654 0.90927 0.0
H319 H 0.23748 0.11939 0.89101 0.0
Ho320 Ho 0.89196 0.12265 0.83554 0.0
Ho321 Ho 0.87873 0.11706 0.85835 0.0
C322 C 0.8683 0.01879 0.84732 0.0
C323 C 0.91294 0.11854 0.81617 0.0
C324 C 0.89469 0.09206 0.80603 0.0
C325 C 0.91345 0.06083 0.80233 0.0
C326 C 0.90333 0.04182 0.79223 0.0
C327 C 0.87448 0.05379 0.78546 0.0
C328 C 0.85413 0.08351 0.78926 0.0
C329 C 0.86437 0.10269 0.79938 0.0
C330 C 0.79438 0.09517 0.842 0.0
C331 C 0.93072 0.22949 0.84743 0.0
C332 C 0.84545 0.11302 0.87697 0.0
C333 C 0.85114 0.13737 0.8872 0.0
C334 C 0.80836 0.13633 0.8917 0.0
C335 C 0.80902 0.14979 0.90203 0.0
C336 C 0.85261 0.16483 0.90818 0.0
C337 C 0.8961 0.16752 0.90358 0.0
C338 C 0.89542 0.15401 0.89322 0.0
C339 C 0.9722 0.13368 0.85267 0.0
O340 O 0.88987 0.04871 0.83929 0.0
O341 O 0.85102 0.0342 0.85506 0.0
O342 O 0.89434 0.1464 0.81966 0.0
O343 O 0.9219 0.09481 0.82354 0.0
O344 O 0.81776 0.12408 0.83422 0.0
O345 O 0.8234 0.08055 0.84573 0.0
O346 O 0.90435 0.2011 0.85542 0.0
O347 O 0.93675 0.20741 0.83916 0.0
O348 O 0.87874 0.09948 0.8744 0.0
O349 O 0.82955 0.12826 0.86909 0.0
O350 O 0.94807 0.11028 0.86095 0.0
O351 O 0.94822 0.15292 0.84828 0.0
H352 H 0.93738 0.05224 0.80716 0.0
H353 H 0.91869 0.01813 0.78968 0.0
H354 H 0.83176 0.09352 0.78429 0.0
H355 H 0.84978 0.12712 0.80187 0.0
H356 H 0.77337 0.12266 0.88733 0.0
H357 H 0.7744 0.14601 0.90534 0.0
H358 H 0.93034 0.17902 0.90807 0.0
H359 H 0.92894 0.15477 0.89005 0.0
Ho360 Ho 0.7825 0.90622 0.6932 0.0
Ho361 Ho 0.77474 0.91145 0.67034 0.0
C362 C 0.86067 1.01142 0.68147 0.0
C363 C 0.80694 0.90811 0.71253 0.0
C364 C 0.81944 0.93527 0.72258 0.0
C365 C 0.85177 0.9286 0.72937 0.0
C366 C 0.86167 0.9498 0.73926 0.0
C367 C 0.83993 0.97891 0.74267 0.0
C368 C 0.80759 0.98579 0.73584 0.0
C369 C 0.79745 0.96423 0.7259 0.0
C370 C 0.7114 0.93213 0.68663 0.0
C371 C 0.7153 0.79898 0.68126 0.0
C372 C 0.74613 0.91527 0.65166 0.0
C373 C 0.72626 0.8908 0.6415 0.0
C374 C 0.68681 0.89548 0.63688 0.0
C375 C 0.67383 0.88228 0.62654 0.0
C376 C 0.69992 0.86388 0.62054 0.0
C377 C 0.73815 0.85735 0.62528 0.0
C378 C 0.75118 0.87061 0.63564 0.0
C379 C 0.85374 0.89911 0.67623 0.0
O380 O 0.85235 0.98282 0.68973 0.0
O381 O 0.82881 0.99452 0.67358 0.0
O382 O 0.76002 0.88714 0.70916 0.0
O383 O 0.84042 0.92737 0.7051 0.0
O384 O 0.70598 0.90322 0.69441 0.0
O385 O 0.75527 0.9473 0.68295 0.0
O386 O 0.71755 0.827 0.67321 0.0
O387 O 0.74253 0.82141 0.68962 0.0
O388 O 0.79232 0.92633 0.65422 0.0
O389 O 0.71521 0.90235 0.65957 0.0
O390 O 0.85288 0.92297 0.66804 0.0
O391 O 0.80987 0.87741 0.68043 0.0
H392 H 0.8686 0.9058 0.72708 0.0
H393 H 0.88545 0.94219 0.74434 0.0
H394 H 0.79012 1.00791 0.73817 0.0
H395 H 0.77203 0.96969 0.72087 0.0
H396 H 0.66767 0.91188 0.64113 0.0
H397 H 0.64507 0.88901 0.62313 0.0
H398 H 0.75893 0.84318 0.62089 0.0
H399 H 0.78212 0.86697 0.63892 0.0
Ho400 Ho 0.12953 0.88596 0.69443 0.0
Ho401 Ho 0.12578 0.87301 0.67035 0.0
C402 C 0.02837 0.86854 0.68199 0.0
C403 C 0.12793 0.90937 0.71366 0.0
C404 C 0.10029 0.89228 0.72364 0.0
C405 C 0.0974 0.92854 0.7299 0.0
C406 C 0.07542 0.91551 0.73971 0.0
C407 C 0.0552 0.86556 0.74355 0.0
C408 C 0.05789 0.82905 0.73724 0.0
C409 C 0.08014 0.84222 0.72739 0.0
C410 C 0.10401 0.78995 0.68739 0.0
C411 C 0.23584 0.9251 0.68188 0.0
C412 C 0.11408 0.83129 0.65238 0.0
C413 C 0.13466 0.83857 0.64172 0.0
C414 C 0.14541 0.8022 0.63751 0.0
C415 C 0.15695 0.80328 0.62703 0.0
C416 C 0.15754 0.84051 0.62046 0.0
C417 C 0.1489 0.87822 0.62477 0.0
C418 C 0.13751 0.87725 0.63526 0.0
C419 C 0.16051 0.97302 0.67515 0.0
O420 O 0.05241 0.87771 0.69094 0.0
O421 O 0.04721 0.86161 0.67332 0.0
O422 O 0.15211 0.88656 0.71027 0.0
O423 O 0.10648 0.92119 0.70626 0.0
O424 O 0.12983 0.81144 0.69563 0.0
O425 O 0.09068 0.81993 0.68354 0.0
O426 O 0.20801 0.89558 0.67413 0.0
O427 O 0.21359 0.93237 0.69003 0.0
O428 O 0.09295 0.8581 0.65517 0.0
O429 O 0.1394 0.82486 0.65988 0.0
O430 O 0.15598 0.95584 0.66582 0.0
O431 O 0.14826 0.93588 0.68115 0.0
H432 H 0.11331 0.96757 0.72728 0.0
H433 H 0.07551 0.9451 0.74441 0.0
H434 H 0.04276 0.79025 0.73992 0.0
H435 H 0.0821 0.81348 0.72276 0.0
H436 H 0.14296 0.77163 0.64225 0.0
H437 H 0.16331 0.77362 0.62398 0.0
H438 H 0.15009 0.90806 0.61998 0.0
H439 H 0.12942 0.90591 0.63822 0.0
Ho440 Ho 0.14732 0.24973 0.69317 0.0
Ho441 Ho 0.16193 0.2584 0.67026 0.0
C442 C 0.17313 0.17077 0.68135 0.0
C443 C 0.1234 0.22392 0.71241 0.0
C444 C 0.13912 0.21441 0.72265 0.0
C445 C 0.10177 0.17621 0.72894 0.0
C446 C 0.11322 0.16875 0.73902 0.0
C447 C 0.16247 0.19939 0.74313 0.0
C448 C 0.20045 0.23669 0.73671 0.0
C449 C 0.18885 0.24436 0.7266 0.0
C450 C 0.24551 0.31894 0.68686 0.0
C451 C 0.11201 0.32081 0.68116 0.0
C452 C 0.19676 0.28807 0.65176 0.0
C453 C 0.1925 0.30706 0.64148 0.0
C454 C 0.23643 0.34765 0.63704 0.0
C455 C 0.23698 0.36055 0.62667 0.0
C456 C 0.19345 0.33324 0.62045 0.0
C457 C 0.14882 0.29372 0.625 0.0
C458 C 0.1483 0.28076 0.63539 0.0
C459 C 0.06744 0.18294 0.67582 0.0
O460 O 0.1501 0.17776 0.68933 0.0
O461 O 0.19072 0.20439 0.67378 0.0
O462 O 0.14473 0.27079 0.70903 0.0
O463 O 0.11446 0.19119 0.70504 0.0
O464 O 0.22286 0.32442 0.69478 0.0
O465 O 0.21578 0.27572 0.68306 0.0
O466 O 0.13869 0.31843 0.67327 0.0
O467 O 0.10426 0.29179 0.68939 0.0
O468 O 0.16317 0.24114 0.65422 0.0
O469 O 0.21175 0.31907 0.65967 0.0
O470 O 0.09138 0.18306 0.66755 0.0
O471 O 0.09238 0.22592 0.68024 0.0
H472 H 0.06315 0.15257 0.72611 0.0
H473 H 0.0833 0.13894 0.74362 0.0
H474 H 0.23881 0.26085 0.73961 0.0
H475 H 0.21844 0.2742 0.72195 0.0
H476 H 0.27133 0.3679 0.64148 0.0
H477 H 0.27242 0.39032 0.62342 0.0
H478 H 0.11459 0.27195 0.62044 0.0
H479 H 0.11392 0.24893 0.63853 0.0
Ho480 Ho 0.7948 0.59341 0.50328 0.0
Ho481 Ho 0.79805 0.58521 0.5273 0.0
C482 C 0.90498 0.65116 0.51491 0.0
C483 C 0.78311 0.62366 0.48532 0.0
C484 C 0.8036 0.63827 0.47471 0.0
C485 C 0.79672 0.67495 0.46947 0.0
C486 C 0.80874 0.68472 0.45901 0.0
C487 C 0.82784 0.65791 0.45346 0.0
C488 C 0.83671 0.62258 0.45883 0.0
C489 C 0.82453 0.61271 0.46932 0.0
C490 C 0.82881 0.52758 0.50814 0.0
C491 C 0.69824 0.49944 0.51479 0.0
C492 C 0.79442 0.56026 0.54662 0.0
C493 C 0.76845 0.55188 0.55675 0.0
C494 C 0.76044 0.50958 0.56263 0.0
C495 C 0.73889 0.50117 0.57247 0.0
C496 C 0.72419 0.53463 0.57674 0.0
C497 C 0.73233 0.57725 0.57086 0.0
C498 C 0.75417 0.58578 0.56096 0.0
C499 C 0.77181 0.65497 0.52 0.0
O500 O 0.87736 0.65259 0.50707 0.0
O501 O 0.88236 0.62207 0.52309 0.0
O502 O 0.76383 0.57571 0.48793 0.0
O503 O 0.80749 0.65523 0.49289 0.0
O504 O 0.82441 0.54037 0.49881 0.0
O505 O 0.81714 0.55299 0.51417 0.0
O506 O 0.72261 0.51452 0.52368 0.0
O507 O 0.71635 0.52565 0.50614 0.0
O508 O 0.82231 0.60681 0.54315 0.0
O509 O 0.76958 0.52765 0.53931 0.0
O510 O 0.79787 0.65998 0.52824 0.0
O511 O 0.75875 0.61142 0.51632 0.0
H512 H 0.78025 0.69488 0.47341 0.0
H513 H 0.80123 0.71204 0.45516 0.0
H514 H 0.85257 0.60212 0.45489 0.0
H515 H 0.83029 0.58421 0.47316 0.0
H516 H 0.77176 0.48325 0.55965 0.0
H517 H 0.73476 0.46884 0.57683 0.0
H518 H 0.7216 0.60388 0.57389 0.0
H519 H 0.76017 0.61894 0.55665 0.0
Ho520 Ho 0.44607 0.20279 0.50297 0.0
Ho521 Ho 0.4544 0.21994 0.52714 0.0
C522 C 0.38687 0.25819 0.51359 0.0
C523 C 0.41601 0.16692 0.48455 0.0
C524 C 0.3984 0.17282 0.47425 0.0
C525 C 0.36345 0.12874 0.46889 0.0
C526 C 0.35221 0.13129 0.45854 0.0
C527 C 0.37576 0.17808 0.45322 0.0
C528 C 0.40897 0.22269 0.45874 0.0
C529 C 0.42038 0.22008 0.46913 0.0
C530 C 0.52561 0.29308 0.50922 0.0
C531 C 0.52925 0.18837 0.51526 0.0
C532 C 0.481 0.25202 0.54593 0.0
C533 C 0.48779 0.23513 0.55631 0.0
C534 C 0.52579 0.27078 0.56289 0.0
C535 C 0.53186 0.25719 0.5729 0.0
C536 C 0.5002 0.20735 0.57665 0.0
C537 C 0.46221 0.17147 0.57002 0.0
C538 C 0.45611 0.18516 0.55997 0.0
C539 C 0.38994 0.1171 0.52225 0.0
O540 O 0.39584 0.23831 0.50524 0.0
O541 O 0.40676 0.25725 0.52271 0.0
O542 O 0.4635 0.19871 0.48704 0.0
O543 O 0.38476 0.15404 0.4924 0.0
O544 O 0.5249 0.26922 0.50088 0.0
O545 O 0.4816 0.27049 0.51337 0.0
O546 O 0.52463 0.21457 0.52296 0.0
O547 O 0.49432 0.16891 0.50787 0.0
O548 O 0.4343 0.23284 0.5424 0.0
O549 O 0.51361 0.25714 0.53874 0.0
O550 O 0.39958 0.13607 0.53144 0.0
O551 O 0.41482 0.15494 0.51645 0.0
H552 H 0.34637 0.09178 0.47262 0.0
H553 H 0.3266 0.09615 0.45457 0.0
H554 H 0.42681 0.25957 0.455 0.0
H555 H 0.44751 0.25474 0.47306 0.0
H556 H 0.55068 0.3096 0.56031 0.0
H557 H 0.56171 0.28582 0.57771 0.0
H558 H 0.43643 0.13301 0.57265 0.0
H559 H 0.42625 0.15684 0.55512 0.0
Ho560 Ho 0.82945 0.24019 0.50287 0.0
Ho561 Ho 0.81946 0.23876 0.52689 0.0
C562 C 0.7785 0.13114 0.51475 0.0
C563 C 0.8673 0.24948 0.48454 0.0
C564 C 0.85734 0.22937 0.4738 0.0
C565 C 0.88312 0.20515 0.46985 0.0
C566 C 0.88112 0.19398 0.45931 0.0
C567 C 0.85387 0.20743 0.45244 0.0
C568 C 0.82635 0.22969 0.45645 0.0
C569 C 0.82811 0.2406 0.46697 0.0
C570 C 0.72971 0.20696 0.50807 0.0
C571 C 0.83919 0.34047 0.5142 0.0
C572 C 0.79953 0.24365 0.54627 0.0
C573 C 0.81877 0.2713 0.55625 0.0
C574 C 0.78905 0.28777 0.56154 0.0
C575 C 0.80229 0.30834 0.57148 0.0
C576 C 0.84571 0.31298 0.57651 0.0
C577 C 0.87641 0.29787 0.57108 0.0
C578 C 0.86301 0.27708 0.56111 0.0
C579 C 0.91518 0.26324 0.51946 0.0
O580 O 0.80785 0.15855 0.50693 0.0
O581 O 0.77174 0.1541 0.52285 0.0
O582 O 0.84341 0.27304 0.4877 0.0
O583 O 0.87309 0.22287 0.49186 0.0
O584 O 0.74617 0.21107 0.4987 0.0
O585 O 0.76744 0.21941 0.51393 0.0
O586 O 0.82768 0.31573 0.5231 0.0
O587 O 0.84675 0.32081 0.50571 0.0
O588 O 0.81891 0.21643 0.54277 0.0
O589 O 0.78884 0.26612 0.53889 0.0
O590 O 0.89398 0.2378 0.52777 0.0
O591 O 0.88481 0.27642 0.51574 0.0
H592 H 0.90657 0.19663 0.47484 0.0
H593 H 0.9028 0.17688 0.45648 0.0
H594 H 0.80426 0.23971 0.4514 0.0
H595 H 0.80795 0.25954 0.46967 0.0
H596 H 0.75446 0.28337 0.55808 0.0
H597 H 0.77749 0.31922 0.57537 0.0
H598 H 0.91083 0.30196 0.57454 0.0
H599 H 0.88683 0.26477 0.55729 0.0
Ho600 Ho 0.9326 0.45201 0.6919 0.0
Ho601 Ho 0.92781 0.45917 0.66916 0.0
C602 C 0.99544 0.56521 0.68133 0.0
C603 C 0.95903 0.44742 0.71077 0.0
C604 C 0.97134 0.46987 0.72133 0.0
C605 C 0.02231 0.49854 0.72472 0.0
C606 C 0.0336 0.51125 0.73516 0.0
C607 C 0.9942 0.4952 0.7425 0.0
C608 C 0.94333 0.46802 0.73905 0.0
C609 C 0.93206 0.45558 0.72864 0.0
C610 C 0.85687 0.47009 0.68604 0.0
C611 C 0.84708 0.35373 0.68043 0.0
C612 C 0.90539 0.45631 0.64966 0.0
C613 C 0.89698 0.42962 0.63958 0.0
C614 C 0.85353 0.41914 0.63379 0.0
C615 C 0.84653 0.39922 0.6238 0.0
C616 C 0.88271 0.38889 0.61927 0.0
C617 C 0.92585 0.39843 0.62515 0.0
C618 C 0.93299 0.41868 0.63517 0.0
C619 C 0.99768 0.43173 0.67593 0.0
O620 O 0.99234 0.53578 0.68919 0.0
O621 O 0.9677 0.54411 0.67295 0.0
O622 O 0.91192 0.42778 0.70761 0.0
O623 O 0.99214 0.46863 0.70329 0.0
O624 O 0.85678 0.44636 0.69431 0.0
O625 O 0.90038 0.48897 0.68175 0.0
O626 O 0.85571 0.384 0.67245 0.0
O627 O 0.87921 0.36921 0.68827 0.0
O628 O 0.95172 0.48192 0.65336 0.0
O629 O 0.87136 0.43371 0.65688 0.0
O630 O 1.00415 0.46163 0.66828 0.0
O631 O 0.95335 0.41639 0.6794 0.0
H632 H 0.05356 0.50929 0.71937 0.0
H633 H 0.07321 0.53153 0.73756 0.0
H634 H 0.91208 0.45523 0.74447 0.0
H635 H 0.89234 0.43277 0.7264 0.0
H636 H 0.82533 0.42755 0.63692 0.0
H637 H 0.81273 0.39212 0.61957 0.0
H638 H 0.95492 0.39169 0.62189 0.0
H639 H 0.96717 0.42675 0.63937 0.0
Ho640 Ho 0.58269 0.4886 0.69215 0.0
Ho641 Ho 0.57787 0.47718 0.66922 0.0
C642 C 0.47033 0.43729 0.68117 0.0
C643 C 0.58668 0.52128 0.71082 0.0
C644 C 0.56271 0.51523 0.7211 0.0
C645 C 0.56474 0.55803 0.72578 0.0
C646 C 0.55157 0.55688 0.73615 0.0
C647 C 0.53584 0.51274 0.74215 0.0
C648 C 0.53218 0.46927 0.73736 0.0
C649 C 0.54541 0.47045 0.72696 0.0
C650 C 0.56538 0.39542 0.6862 0.0
C651 C 0.682 0.50069 0.681 0.0
C652 C 0.58166 0.45702 0.64983 0.0
C653 C 0.60862 0.47509 0.63976 0.0
C654 C 0.62722 0.44616 0.63489 0.0
C655 C 0.64649 0.45744 0.62484 0.0
C656 C 0.64752 0.49792 0.61931 0.0
C657 C 0.63079 0.52824 0.62432 0.0
C658 C 0.61122 0.51677 0.6344 0.0
C659 C 0.60563 0.57416 0.67606 0.0
O660 O 0.49851 0.46294 0.68923 0.0
O661 O 0.49277 0.43231 0.67281 0.0
O662 O 0.60082 0.48856 0.70817 0.0
O663 O 0.57066 0.53679 0.703 0.0
O664 O 0.58817 0.4185 0.69461 0.0
O665 O 0.54705 0.42025 0.68182 0.0
O666 O 0.65287 0.48051 0.6728 0.0
O667 O 0.66565 0.51601 0.68892 0.0
O668 O 0.55521 0.47712 0.65337 0.0
O669 O 0.6044 0.44637 0.65714 0.0
O670 O 0.57727 0.55196 0.66814 0.0
O671 O 0.61964 0.54441 0.67964 0.0
H672 H 0.57894 0.59338 0.72153 0.0
H673 H 0.55611 0.59148 0.7396 0.0
H674 H 0.52014 0.43462 0.74173 0.0
H675 H 0.54389 0.43691 0.72364 0.0
H676 H 0.62547 0.41363 0.63877 0.0
H677 H 0.66005 0.43395 0.62133 0.0
H678 H 0.63116 0.55976 0.6203 0.0
H679 H 0.59694 0.53971 0.63788 0.0
Ho680 Ho 0.54753 0.10486 0.6919 0.0
Ho681 Ho 0.55758 0.10963 0.66894 0.0
C682 C 0.59542 0.04085 0.68096 0.0
C683 C 0.51739 0.07845 0.71081 0.0
C684 C 0.52651 0.06392 0.72124 0.0
C685 C 0.50347 1.01241 0.72424 0.0
C686 C 0.50414 0.99916 0.73458 0.0
C687 C 0.52763 0.03701 0.74221 0.0
C688 C 0.55185 0.08846 0.73914 0.0
C689 C 0.55133 0.10169 0.72883 0.0
C690 C 0.64108 0.17984 0.68565 0.0
C691 C 0.53414 0.19034 0.68066 0.0
C692 C 0.57585 0.133 0.64942 0.0
C693 C 0.55707 0.14274 0.63949 0.0
C694 C 0.58364 0.19162 0.63502 0.0
C695 C 0.5716 0.20072 0.6251 0.0
C696 C 0.53274 0.16114 0.61925 0.0
C697 C 0.50503 0.11249 0.62385 0.0
C698 C 0.51719 0.10334 0.63379 0.0
C699 C 0.46077 0.04101 0.6761 0.0
O700 O 0.57011 0.04447 0.68895 0.0
O701 O 0.60166 0.06843 0.67256 0.0
O702 O 0.5472 0.12539 0.70777 0.0
O703 O 0.50298 0.0457 0.7032 0.0
O704 O 0.6185 0.18022 0.69407 0.0
O705 O 0.61558 0.13636 0.6814 0.0
O706 O 0.55487 0.18164 0.67252 0.0
O707 O 0.51825 0.15841 0.68851 0.0
O708 O 0.55491 0.08645 0.65299 0.0
O709 O 0.5886 0.16656 0.65678 0.0
O710 O 0.48251 0.03415 0.66818 0.0
O711 O 0.49084 0.08507 0.67952 0.0
H712 H 0.4832 0.98225 0.71868 0.0
H713 H 0.48516 0.95913 0.73664 0.0
H714 H 0.56913 0.11875 0.74478 0.0
H715 H 0.56842 0.14175 0.7269 0.0
H716 H 0.61505 0.22272 0.6391 0.0
H717 H 0.59403 0.23861 0.62187 0.0
H718 H 0.47401 0.08124 0.61974 0.0
H719 H 0.49597 0.06512 0.63692 0.0
Ho720 Ho 0.58062 0.1087 0.16891 0.0
Ho721 Ho 0.58678 0.10447 0.19177 0.0
C722 C 0.68549 0.18962 0.18054 0.0
C723 C 0.58499 0.13175 0.14939 0.0
C724 C 0.61228 0.14172 0.13931 0.0
C725 C 0.62412 0.1866 0.13393 0.0
C726 C 0.645 0.19562 0.12399 0.0
C727 C 0.65524 0.16018 0.11908 0.0
C728 C 0.6436 0.11518 0.1245 0.0
C729 C 0.62238 0.10603 0.13448 0.0
C730 C 0.60905 0.04013 0.17596 0.0
C731 C 0.4739 0.04053 0.18102 0.0
C732 C 0.59035 0.07812 0.21068 0.0
C733 C 0.56683 0.06436 0.22113 0.0
C734 C 0.54618 0.01414 0.22483 0.0
C735 C 0.53365 1.00286 0.23527 0.0
C736 C 0.54216 0.04166 0.24231 0.0
C737 C 0.5604 0.09134 0.23853 0.0
C738 C 0.57266 0.10258 0.2281 0.0
C739 C 0.56881 0.17977 0.18556 0.0
O740 O 0.65531 0.18132 0.17253 0.0
O741 O 0.66979 0.15677 0.18824 0.0
O742 O 0.55991 0.08523 0.15298 0.0
O743 O 0.60653 0.16539 0.1567 0.0
O744 O 0.57999 0.03317 0.16812 0.0
O745 O 0.62326 0.0842 0.1794 0.0
O746 O 0.50346 0.04456 0.18893 0.0
O747 O 0.49501 0.06741 0.17253 0.0
O748 O 0.60864 0.12513 0.20758 0.0
O749 O 0.57102 0.04515 0.20313 0.0
O750 O 0.59227 0.18031 0.19392 0.0
O751 O 0.54999 0.13602 0.1814 0.0
H752 H 0.61587 0.21439 0.13733 0.0
H753 H 0.65174 0.22992 0.12004 0.0
H754 H 0.65085 0.08692 0.12101 0.0
H755 H 0.61325 0.07075 0.13833 0.0
H756 H 0.54191 0.98392 0.21974 0.0
H757 H 0.5197 0.96419 0.23793 0.0
H758 H 0.56651 0.12194 0.24371 0.0
H759 H 0.58883 0.14181 0.22561 0.0
Ho760 Ho 0.92432 0.47724 0.16914 0.0
Ho761 Ho 0.93406 0.48851 0.19336 0.0
C762 C 0.84264 0.49663 0.18212 0.0
C763 C 0.89742 0.4567 0.14988 0.0
C764 C 0.89637 0.47805 0.13955 0.0
C765 C 0.85532 0.48505 0.1367 0.0
C766 C 0.85016 0.49771 0.12654 0.0
C767 C 0.88553 0.50316 0.1189 0.0
C768 C 0.92743 0.49771 0.12182 0.0
C769 C 0.93262 0.48508 0.13198 0.0
C770 C 0.9951 0.573 0.17638 0.0
C771 C 0.99199 0.43764 0.18139 0.0
C772 C 0.96459 0.52817 0.21147 0.0
C773 C 0.97955 0.52156 0.22201 0.0
C774 C 0.02252 0.56259 0.2266 0.0
C775 C 0.03374 0.561 0.23701 0.0
C776 C 1.00232 0.51816 0.24312 0.0
C777 C 0.95991 0.47648 0.23844 0.0
C778 C 0.94866 0.4781 0.22801 0.0
C779 C 0.86692 0.38916 0.18806 0.0
O780 O 0.85307 0.48062 0.17342 0.0
O781 O 0.8724 0.50803 0.19034 0.0
O782 O 0.941 0.46409 0.15351 0.0
O783 O 0.86805 0.45796 0.1571 0.0
O784 O 0.99875 0.55279 0.16788 0.0
O785 O 0.95218 0.54217 0.18026 0.0
O786 O 0.99404 0.46725 0.18915 0.0
O787 O 0.96158 0.42983 0.17334 0.0
O788 O 0.91646 0.5 0.20885 0.0
O789 O 0.99614 0.53625 0.20382 0.0
O790 O 0.87906 0.40518 0.19747 0.0
O791 O 0.89284 0.42703 0.18231 0.0
H792 H 0.82607 0.47915 0.14223 0.0
H793 H 0.81733 0.50141 0.12459 0.0
H794 H 0.95604 0.50266 0.11621 0.0
H795 H 0.96437 0.47941 0.13382 0.0
H796 H 0.04645 0.59692 0.22223 0.0
H797 H 0.06591 0.59435 0.24036 0.0
H798 H 0.93492 0.44287 0.2429 0.0
H799 H 0.915 0.44596 0.22473 0.0
Ho800 Ho 0.55854 0.45727 0.1685 0.0
Ho801 Ho 0.54506 0.45341 0.1925 0.0
C802 C 0.53841 0.35498 0.18092 0.0
C803 C 0.58144 0.45435 0.14927 0.0
C804 C 0.56307 0.4272 0.13926 0.0
C805 C 0.5966 0.41811 0.13335 0.0
C806 C 0.58302 0.39709 0.12346 0.0
C807 C 0.5354 0.38455 0.11915 0.0
C808 C 0.50119 0.39248 0.12519 0.0
C809 C 0.51492 0.41372 0.13512 0.0
C810 C 0.46191 0.43157 0.1754 0.0
C811 C 0.59853 0.56363 0.18096 0.0
C812 C 0.50316 0.44249 0.21044 0.0
C813 C 0.5096 0.46357 0.22102 0.0
C814 C 0.46801 0.46391 0.22575 0.0
C815 C 0.46981 0.47657 0.23617 0.0
C816 C 0.51343 0.48947 0.24215 0.0
C817 C 0.5556 0.49024 0.23735 0.0
C818 C 0.55377 0.47752 0.2269 0.0
C819 C 0.64515 0.48639 0.18786 0.0
O820 O 0.55041 0.38047 0.17211 0.0
O821 O 0.52955 0.37342 0.18945 0.0
O822 O 0.5614 0.48113 0.15267 0.0
O823 O 0.59108 0.43119 0.15666 0.0
O824 O 0.48383 0.45757 0.1672 0.0
O825 O 0.49197 0.41841 0.17929 0.0
O826 O 0.56866 0.53588 0.18869 0.0
O827 O 0.60575 0.54123 0.17284 0.0
O828 O 0.53115 0.42236 0.20784 0.0
O829 O 0.49619 0.46683 0.20283 0.0
O830 O 0.62745 0.48168 0.19715 0.0
O831 O 0.60839 0.47498 0.18178 0.0
H832 H 0.63408 0.42846 0.1363 0.0
H833 H 0.61052 0.39189 0.11907 0.0
H834 H 0.46373 0.38222 0.12226 0.0
H835 H 0.48814 0.42016 0.13948 0.0
H836 H 0.43319 0.45246 0.22146 0.0
H837 H 0.43612 0.47423 0.23963 0.0
H838 H 0.5898 0.50002 0.24171 0.0
H839 H 0.58637 0.47727 0.2235 0.0
Ho840 Ho 0.44715 0.23395 0.02718 0.0
Ho841 Ho 0.43949 0.23785 1.00315 0.0
C842 C 0.52992 0.33642 0.01486 0.0
C843 C 0.47146 0.23673 0.04651 0.0
C844 C 0.48013 0.26444 0.05647 0.0
C845 C 0.52702 0.28221 0.06157 0.0
C846 C 0.53469 0.30292 0.0715 0.0
C847 C 0.49569 0.30662 0.07664 0.0
C848 C 0.44902 0.28988 0.07144 0.0
C849 C 0.44127 0.26894 0.06149 0.0
C850 C 0.37708 0.25994 0.01993 0.0
C851 C 0.37918 0.12834 0.0146 0.0
C852 C 0.41172 0.24973 0.98496 0.0
C853 C 0.40047 0.23058 0.97417 0.0
C854 C 0.35288 0.18893 0.9713 0.0
C855 C 0.34069 0.17641 0.96088 0.0
C856 C 0.37554 0.20553 0.95308 0.0
C857 C 0.42365 0.24601 0.956 0.0
C858 C 0.43583 0.25845 0.96637 0.0
C859 C 0.50507 0.2033 1.00822 0.0
O860 O 0.51636 0.31112 0.0237 0.0
O861 O 0.50288 0.31774 1.00633 0.0
O862 O 0.42479 0.21029 0.04298 0.0
O863 O 0.50496 0.25912 0.03917 0.0
O864 O 0.37225 0.23402 0.02818 0.0
O865 O 0.4206 0.27301 0.0162 0.0
O866 O 0.37796 0.15688 1.00697 0.0
O867 O 0.40925 0.1498 0.02273 0.0
O868 O 0.45935 0.27125 0.988 0.0
O869 O 0.3791 0.22357 0.99228 0.0
O870 O 0.49308 0.20822 0.99886 0.0
O871 O 0.47974 0.21551 1.01411 0.0
H872 H 0.55753 0.27884 0.05797 0.0
H873 H 0.5712 0.31568 0.07521 0.0
H874 H 0.41782 0.29137 0.0752 0.0
H875 H 0.40444 0.25516 0.05785 0.0
H876 H 0.32453 0.16678 0.97708 0.0
H877 H 0.30366 0.14432 0.95893 0.0
H878 H 0.45132 0.26949 0.95022 0.0
H879 H 0.47249 0.29126 0.96828 0.0
Ho880 Ho 0.79676 0.21605 0.0259 0.0
Ho881 Ho 0.78873 0.20535 1.00299 0.0
C882 C 0.68904 0.18809 0.01466 0.0
C883 C 0.79493 0.23575 0.04543 0.0
C884 C 0.76746 0.21876 0.05552 0.0
C885 C 0.75333 0.25071 0.06067 0.0
C886 C 0.73428 0.24002 0.07077 0.0
C887 C 0.72897 0.1971 0.07609 0.0
C888 C 0.74125 0.16396 0.07081 0.0
C889 C 0.76056 0.17479 0.06069 0.0
C890 C 0.76871 0.1192 0.01883 0.0
C891 C 0.90298 0.2557 1.01332 0.0
C892 C 0.78348 0.1753 0.98407 0.0
C893 C 0.80693 0.18007 0.97379 0.0
C894 C 0.79772 0.13543 0.96865 0.0
C895 C 0.81067 0.13673 0.95827 0.0
C896 C 0.83304 0.18277 0.9527 0.0
C897 C 0.84467 0.22798 0.958 0.0
C898 C 0.83155 0.22664 0.96841 0.0
C899 C 0.80463 0.29682 1.0097 0.0
O900 O 0.71925 0.20984 0.02272 0.0
O901 O 0.70574 0.17331 1.00673 0.0
O902 O 0.81727 0.21176 0.04172 0.0
O903 O 0.77552 0.25088 0.0382 0.0
O904 O 0.79825 0.14158 0.0266 0.0
O905 O 0.75399 0.1488 0.01547 0.0
O906 O 0.87295 0.23059 1.00542 0.0
O907 O 0.88223 0.26035 0.02198 0.0
O908 O 0.77366 0.21086 0.98697 0.0
O909 O 0.79634 0.15597 0.99174 0.0
O910 O 0.7779 0.27325 1.00167 0.0
O911 O 0.82579 0.27315 1.01334 0.0
H912 H 0.75846 0.28505 0.05698 0.0
H913 H 0.7242 0.26585 0.07446 0.0
H914 H 0.73761 0.13051 0.07463 0.0
H915 H 0.77137 0.14944 0.05703 0.0
H916 H 0.77825 0.09893 0.97256 0.0
H917 H 0.80103 0.10116 0.95447 0.0
H918 H 0.86307 0.26433 0.95404 0.0
H919 H 0.83912 0.26174 0.97214 0.0
Ho920 Ho 0.81543 0.58466 0.02679 0.0
Ho921 Ho 0.82828 0.58897 1.0041 0.0
C922 C 0.83621 0.50151 0.01569 0.0
C923 C 0.79658 0.56178 0.04628 0.0
C924 C 0.81739 0.55473 0.0562 0.0
C925 C 0.79829 0.50525 0.0602 0.0
C926 C 0.81228 0.49755 0.07003 0.0
C927 C 0.84589 0.53913 0.07622 0.0
C928 C 0.86538 0.5887 0.07219 0.0
C929 C 0.85133 0.59643 0.06233 0.0
C930 C 0.91312 0.65357 0.02015 0.0
C931 C 0.77607 0.65086 0.01455 0.0
C932 C 0.86039 0.61564 0.98529 0.0
C933 C 0.85039 0.62848 0.97477 0.0
C934 C 0.87229 0.67955 0.97151 0.0
C935 C 0.87061 0.69135 0.96111 0.0
C936 C 0.84747 0.65239 0.95369 0.0
C937 C 0.82428 0.60141 0.95701 0.0
C938 C 0.82567 0.58963 0.96738 0.0
C939 C 0.73436 0.51341 1.00986 0.0
O940 O 0.81386 0.51094 0.0234 0.0
O941 O 0.856 0.53403 1.00796 0.0
O942 O 0.81448 0.60779 0.0426 0.0
O943 O 0.78644 0.5283 0.03902 0.0
O944 O 0.88965 0.66042 0.02774 0.0
O945 O 0.88408 0.60939 0.01667 0.0
O946 O 0.80225 0.64769 1.00663 0.0
O947 O 0.77043 0.62398 0.02299 0.0
O948 O 0.83232 0.56855 0.98839 0.0
O949 O 0.87254 0.64853 0.99282 0.0
O950 O 0.75836 0.51323 1.00163 0.0
O951 O 0.75857 0.55698 1.01411 0.0
H952 H 0.77111 0.47228 0.05582 0.0
H953 H 0.79526 0.4589 0.07293 0.0
H954 H 0.89127 0.62165 0.07672 0.0
H955 H 0.86624 0.63514 0.05961 0.0
H956 H 0.89258 0.71049 0.97692 0.0
H957 H 0.88957 0.73104 0.9588 0.0
H958 H 0.80601 0.57049 0.95152 0.0
H959 H 0.80909 0.54987 0.96952 0.0
Ho960 Ho 0.4569 0.92263 0.83679 0.0
Ho961 Ho 0.46323 0.91747 0.85964 0.0
C962 C 0.56948 0.98559 0.84754 0.0
C963 C 0.45299 0.94918 0.8179 0.0
C964 C 0.47599 0.9624 0.80739 0.0
C965 C 0.50428 1.01355 0.80413 0.0
C966 C 0.51742 0.0256 0.79372 0.0
C967 C 0.50222 0.9868 0.78629 0.0
C968 C 0.47542 0.93575 0.78961 0.0
C969 C 0.46253 0.92373 0.79999 0.0
C970 C 0.47449 0.84674 0.84278 0.0
C971 C 0.35791 0.83804 0.84817 0.0
C972 C 0.45967 0.89451 0.87914 0.0
C973 C 0.4327 0.885 0.88926 0.0
C974 C 0.41286 0.83679 0.89392 0.0
C975 C 0.39387 0.82821 0.90402 0.0
C976 C 0.39433 0.86769 0.90984 0.0
C977 C 0.41242 0.91551 0.90506 0.0
C978 C 0.4317 0.92419 0.89493 0.0
C979 C 0.43644 0.98747 0.85273 0.0
O980 O 0.5403 0.9826 0.83964 0.0
O981 O 0.54826 0.9576 0.85589 0.0
O982 O 0.43411 0.90212 0.821 0.0
O983 O 0.47314 0.98209 0.82544 0.0
O984 O 0.45103 0.84675 0.83447 0.0
O985 O 0.49335 0.89021 0.84706 0.0
O986 O 0.3877 0.84614 0.85621 0.0
O987 O 0.37391 0.87018 0.84035 0.0
O988 O 0.48492 0.94097 0.87552 0.0
O989 O 0.43793 0.86075 0.87184 0.0
O990 O 0.46587 0.99379 0.86047 0.0
O991 O 0.42109 0.9432 0.84928 0.0
H992 H 0.51438 0.04434 0.80955 0.0
H993 H 0.53736 0.06533 0.79143 0.0
H994 H 0.46328 0.90493 0.78411 0.0
H995 H 0.44003 0.88388 0.80212 0.0
H996 H 0.4134 0.80585 0.88984 0.0
H997 H 0.37926 0.7906 0.90733 0.0
H998 H 0.41332 0.9468 0.90927 0.0
H999 H 0.44706 0.96197 0.89166 0.0
Ho1000 Ho 0.10914 0.53885 0.83696 0.0
Ho1001 Ho 0.11622 0.55068 0.85991 0.0
C1002 C 0.04645 0.5879 0.84815 0.0
C1003 C 0.08095 0.5075 0.81817 0.0
C1004 C 0.06699 0.51706 0.80772 0.0
C1005 C 1.01561 0.49319 0.80456 0.0
C1006 C 1.00294 0.49423 0.7942 0.0
C1007 C 0.04129 0.5189 0.78669 0.0
C1008 C 0.0926 0.54395 0.78992 0.0
C1009 C 0.10524 0.5431 0.80026 0.0
C1010 C 0.18451 0.63261 0.84283 0.0
C1011 C 0.19552 0.5256 0.84806 0.0
C1012 C 0.14168 0.57107 0.87925 0.0
C1013 C 0.15428 0.55377 0.889 0.0
C1014 C 0.19911 0.5879 0.89428 0.0
C1015 C 0.21045 0.57545 0.90394 0.0
C1016 C 0.17738 0.52822 0.90862 0.0
C1017 C 0.1325 0.49378 0.9033 0.0
C1018 C 0.12108 0.50635 0.8936 0.0
C1019 C 0.04661 0.4538 0.85309 0.0
O1020 O 0.04934 0.56229 0.84013 0.0
O1021 O 0.0747 0.59438 0.85645 0.0
O1022 O 0.12834 0.53578 0.82112 0.0
O1023 O 0.04859 0.49507 0.82581 0.0
O1024 O 0.18422 0.60959 0.83442 0.0
O1025 O 0.14147 0.60735 0.84725 0.0
O1026 O 0.18734 0.54646 0.85624 0.0
O1027 O 0.16334 0.51 0.84023 0.0
O1028 O 0.09451 0.54739 0.87596 0.0
O1029 O 0.1746 0.58517 0.87174 0.0
O1030 O 0.04061 0.47594 0.86104 0.0
O1031 O 0.09041 0.48342 0.84949 0.0
H1032 H 0.98514 0.47198 0.81002 0.0
H1033 H 0.96301 0.47459 0.79201 0.0
H1034 H 0.12329 0.56217 0.78438 0.0
H1035 H 0.14527 0.56092 0.80231 0.0
H1036 H 0.225 0.62506 0.89104 0.0
H1037 H 0.24458 0.60363 0.90787 0.0
H1038 H 0.10612 0.45708 0.90664 0.0
H1039 H 0.08597 0.47929 0.88979 0.0
Ho1040 Ho 0.49409 0.57298 0.83688 0.0
Ho1041 Ho 0.48169 0.56797 0.85978 0.0
C1042 C 0.44328 0.46069 0.84787 0.0
C1043 C 0.528 0.57776 0.8183 0.0
C1044 C 0.52266 0.55461 0.80797 0.0
C1045 C 0.567 0.56319 0.80277 0.0
C1046 C 0.5653 0.55081 0.79234 0.0
C1047 C 0.51916 0.52967 0.7868 0.0
C1048 C 0.47421 0.51858 0.79216 0.0
C1049 C 0.47595 0.53113 0.80261 0.0
C1050 C 0.40025 0.5549 0.84262 0.0
C1051 C 0.5049 0.67183 0.84798 0.0
C1052 C 0.46004 0.571 0.87912 0.0
C1053 C 0.47752 0.59762 0.8892 0.0
C1054 C 0.44261 0.60408 0.89523 0.0
C1055 C 0.45549 0.62461 0.90517 0.0
C1056 C 0.50375 0.63922 0.90941 0.0
C1057 C 0.53927 0.6339 0.90325 0.0
C1058 C 0.52626 0.61316 0.89328 0.0
C1059 C 0.57943 0.59677 0.85313 0.0
O1060 O 0.46899 0.48905 0.83983 0.0
O1061 O 0.43773 0.48286 0.8562 0.0
O1062 O 0.49494 0.5916 0.82088 0.0
O1063 O 0.54288 0.56119 0.82612 0.0
O1064 O 0.42364 0.57773 0.83424 0.0
O1065 O 0.42517 0.53687 0.84709 0.0
O1066 O 0.48456 0.64267 0.85617 0.0
O1067 O 0.52071 0.65569 0.84011 0.0
O1068 O 0.48097 0.54522 0.87564 0.0
O1069 O 0.44982 0.59394 0.87179 0.0
O1070 O 0.55711 0.56843 0.86104 0.0
O1071 O 0.54939 0.61026 0.84947 0.0
H1072 H 0.6036 0.5818 0.80667 0.0
H1073 H 0.60067 0.56 0.78849 0.0
H1074 H 0.43777 0.5011 0.78822 0.0
H1075 H 0.4411 0.52411 0.8064 0.0
H1076 H 0.40463 0.59207 0.89233 0.0
H1077 H 0.42702 0.62785 0.90964 0.0
H1078 H 0.57722 0.64581 0.90613 0.0
H1079 H 0.55406 0.60874 0.88882 0.0
Ho1080 Ho 0.59807 0.78201 0.0248 0.0
Ho1081 Ho 0.58953 0.78592 1.00185 0.0
C1082 C 0.65877 0.89383 1.01361 0.0
C1083 C 0.62663 0.7777 0.04348 0.0
C1084 C 0.64161 0.79982 0.05402 0.0
C1085 C 0.69332 0.82773 0.05695 0.0
C1086 C 0.70709 0.83977 0.06732 0.0
C1087 C 0.66954 0.82348 0.07508 0.0
C1088 C 0.6179 0.79764 0.07208 0.0
C1089 C 0.60415 0.78584 0.06173 0.0
C1090 C 0.522 0.79953 0.01905 0.0
C1091 C 0.51043 0.6822 1.01384 0.0
C1092 C 0.56418 0.78161 0.98253 0.0
C1093 C 0.55639 0.75515 0.97244 0.0
C1094 C 0.50931 0.73664 0.96737 0.0
C1095 C 0.50212 0.71687 0.95736 0.0
C1096 C 0.54182 0.71491 0.95211 0.0
C1097 C 0.58879 0.73264 0.95725 0.0
C1098 C 0.59604 0.7526 0.96729 0.0
C1099 C 0.65953 0.7586 1.00849 0.0
O1100 O 0.65706 0.86587 0.02165 0.0
O1101 O 0.63024 0.87114 1.00538 0.0
O1102 O 0.57922 0.75987 0.04066 0.0
O1103 O 0.65879 0.79751 0.0358 0.0
O1104 O 0.52278 0.77727 0.02749 0.0
O1105 O 0.56483 0.81732 0.01456 0.0
O1106 O 0.51725 0.71169 1.0058 0.0
O1107 O 0.54445 0.69882 0.02137 0.0
O1108 O 0.61068 0.80979 0.98601 0.0
O1109 O 0.53144 0.75742 0.98988 0.0
O1110 O 0.66477 0.7859 1.00045 0.0
O1111 O 0.6161 0.74498 1.01221 0.0
H1112 H 0.72324 0.83865 0.05127 0.0
H1113 H 0.74727 0.86086 0.0693 0.0
H1114 H 0.58789 0.78431 0.0778 0.0
H1115 H 0.56392 0.76357 0.05983 0.0
H1116 H 0.47823 0.73865 0.97106 0.0
H1117 H 0.46539 0.70339 0.9537 0.0
H1118 H 0.62056 0.73263 0.95341 0.0
H1119 H 0.63303 0.76711 0.9709 0.0
Ho1120 Ho 0.25123 0.81911 0.02504 0.0
Ho1121 Ho 0.24364 0.80658 1.00222 0.0
C1122 C 0.13794 0.76811 0.01453 0.0
C1123 C 0.25652 0.85069 0.04384 0.0
C1124 C 0.23317 0.84838 0.05405 0.0
C1125 C 0.23846 0.8935 0.05827 0.0
C1126 C 0.22704 0.89577 0.06864 0.0
C1127 C 0.20991 0.85291 0.07507 0.0
C1128 C 0.20222 0.80696 0.07073 0.0
C1129 C 0.21381 0.80473 0.06034 0.0
C1130 C 0.23746 0.72757 0.01889 0.0
C1131 C 0.35011 0.83379 1.01354 0.0
C1132 C 0.2461 0.78673 0.98272 0.0
C1133 C 0.27492 0.80363 0.9728 0.0
C1134 C 0.28149 0.76813 0.967 0.0
C1135 C 0.30319 0.78022 0.95713 0.0
C1136 C 0.31948 0.82851 0.95272 0.0
C1137 C 0.31335 0.86435 0.95858 0.0
C1138 C 0.29137 0.85211 0.96848 0.0
C1139 C 0.27037 0.90343 1.00906 0.0
O1140 O 0.16732 0.79421 0.02241 0.0
O1141 O 0.15885 0.76182 1.00609 0.0
O1142 O 0.26375 0.81316 0.04118 0.0
O1143 O 0.24635 0.87125 0.03599 0.0
O1144 O 0.26351 0.7527 0.02686 0.0
O1145 O 0.21539 0.74986 0.01491 0.0
O1146 O 0.32043 0.8129 1.00543 0.0
O1147 O 0.33406 0.84912 0.02149 0.0
O1148 O 0.22485 0.81196 0.98632 0.0
O1149 O 0.264 0.7705 0.99003 0.0
O1150 O 0.24001 0.8798 1.00146 0.0
O1151 O 0.2862 0.8748 1.01244 0.0
H1152 H 0.25394 0.92793 0.05368 0.0
H1153 H 0.23315 0.93168 0.07171 0.0
H1154 H 0.18986 0.77343 0.07548 0.0
H1155 H 0.20989 0.76948 0.05739 0.0
H1156 H 0.26836 0.73016 0.97 0.0
H1157 H 0.30571 0.75095 0.95282 0.0
H1158 H 0.32541 0.90192 0.95549 0.0
H1159 H 0.28649 0.8803 0.97268 0.0
Ho1160 Ho 0.21127 0.43111 0.02538 0.0
Ho1161 Ho 0.2297 0.44232 1.00035 0.0
C1162 C 0.26331 0.3714 1.014 0.0
C1163 C 0.16839 0.40101 0.04326 0.0
C1164 C 0.17777 0.39134 0.05407 0.0
C1165 C 0.15032 0.34174 0.05815 0.0
C1166 C 0.15296 0.33287 0.06867 0.0
C1167 C 0.18266 0.3735 0.0754 0.0
C1168 C 0.21165 0.42286 0.07125 0.0
C1169 C 0.20919 0.43171 0.06073 0.0
C1170 C 0.31105 0.49863 0.02042 0.0
C1171 C 0.20869 0.52313 1.01296 0.0
C1172 C 0.26287 0.46922 0.98167 0.0
C1173 C 0.24674 0.47627 0.97124 0.0
C1174 C 0.2778 0.52199 0.96592 0.0
C1175 C 0.26593 0.52915 0.95585 0.0
C1176 C 0.22272 0.4906 0.95075 0.0
C1177 C 0.19081 0.44519 0.95617 0.0
C1178 C 0.20275 0.438 0.96628 0.0
C1179 C 0.12709 0.37881 1.00567 0.0
O1180 O 0.23773 0.37422 0.0221 0.0
O1181 O 0.26852 0.39717 1.0053 0.0
O1182 O 0.19095 0.44853 0.04012 0.0
O1183 O 0.16581 0.36937 0.03606 0.0
O1184 O 0.29386 0.48683 0.02979 0.0
O1185 O 0.27373 0.47215 0.01453 0.0
O1186 O 0.22888 0.51411 1.00473 0.0
O1187 O 0.19171 0.49204 0.02105 0.0
O1188 O 0.24446 0.4226 0.98519 0.0
O1189 O 0.26692 0.50152 0.98883 0.0
O1190 O 0.14507 0.38917 0.99639 0.0
O1191 O 0.16576 0.40323 1.01133 0.0
H1192 H 0.12535 0.30991 0.05327 0.0
H1193 H 0.13008 0.29442 0.07161 0.0
H1194 H 0.23568 0.45487 0.07618 0.0
H1195 H 0.23085 0.47049 0.0579 0.0
H1196 H 0.31184 0.55223 0.96953 0.0
H1197 H 0.29069 0.56512 0.95206 0.0
H1198 H 0.15715 0.41473 0.95251 0.0
H1199 H 0.17791 0.40231 0.97016 0.0
Ho1200 Ho 0.24901 0.4468 0.50138 0.0
Ho1201 Ho 0.25189 0.43147 0.52637 0.0
C1202 C 0.35099 0.52294 0.51459 0.0
C1203 C 0.24527 0.47546 0.48272 0.0
C1204 C 0.26927 0.48151 0.47235 0.0
C1205 C 0.31213 0.52818 0.46943 0.0
C1206 C 0.33167 0.53578 0.45939 0.0
C1207 C 0.3087 0.49717 0.4519 0.0
C1208 C 0.2666 0.45011 0.45487 0.0
C1209 C 0.24697 0.44249 0.46493 0.0
C1210 C 0.28533 0.381 0.50654 0.0
C1211 C 0.14171 0.3749 0.51444 0.0
C1212 C 0.26361 0.399 0.54404 0.0
C1213 C 0.24383 0.38605 0.5547 0.0
C1214 C 0.25137 0.35047 0.56019 0.0
C1215 C 0.23877 0.3414 0.57064 0.0
C1216 C 0.21837 0.36783 0.5759 0.0
C1217 C 0.20914 0.40227 0.57028 0.0
C1218 C 0.2219 0.41143 0.55979 0.0
C1219 C 0.22314 0.50166 0.52145 0.0
O1220 O 0.3234 0.51642 0.50616 0.0
O1221 O 0.33369 0.48995 0.52237 0.0
O1222 O 0.21494 0.42903 0.48616 0.0
O1223 O 0.27343 0.50688 0.49002 0.0
O1224 O 0.27944 0.39308 0.49728 0.0
O1225 O 0.27061 0.4048 0.51227 0.0
O1226 O 0.16871 0.376 0.52265 0.0
O1227 O 0.16397 0.40198 0.50594 0.0
O1228 O 0.28637 0.44728 0.54142 0.0
O1229 O 0.23596 0.3683 0.53659 0.0
O1230 O 0.22609 0.48805 0.53081 0.0
O1231 O 0.23434 0.47553 0.51558 0.0
H1232 H 0.33019 0.55936 0.47487 0.0
H1233 H 0.36482 0.57213 0.45747 0.0
H1234 H 0.24785 0.41954 0.44932 0.0
H1235 H 0.21356 0.40628 0.46681 0.0
H1236 H 0.26854 0.33068 0.55646 0.0
H1237 H 0.24662 0.31482 0.57469 0.0
H1238 H 0.19238 0.42243 0.574 0.0
H1239 H 0.2156 0.43903 0.55573 0.0
Ho1240 Ho 0.59344 0.80877 0.50202 0.0
Ho1241 Ho 0.60349 0.82117 0.52613 0.0
C1242 C 0.51192 0.82903 0.51485 0.0
C1243 C 0.56706 0.78638 0.48277 0.0
C1244 C 0.55852 0.80466 0.47269 0.0
C1245 C 0.51269 0.77391 0.46735 0.0
C1246 C 0.50531 0.78642 0.45735 0.0
C1247 C 0.54353 0.83026 0.45235 0.0
C1248 C 0.58914 0.8617 0.45778 0.0
C1249 C 0.5966 0.84903 0.46781 0.0
C1250 C 0.66317 0.90545 0.50914 0.0
C1251 C 0.66233 0.77089 0.51432 0.0
C1252 C 0.63407 0.86245 0.54411 0.0
C1253 C 0.64827 0.85601 0.55469 0.0
C1254 C 0.68494 0.89928 0.56 0.0
C1255 C 0.69417 0.89655 0.57047 0.0
C1256 C 0.66674 0.85042 0.57593 0.0
C1257 C 0.63145 0.8065 0.57047 0.0
C1258 C 0.62216 0.80929 0.55997 0.0
C1259 C 0.53691 0.72117 0.52124 0.0
O1260 O 0.524 0.81579 0.50599 0.0
O1261 O 0.54037 0.83853 0.52321 0.0
O1262 O 0.61387 0.80542 0.48616 0.0
O1263 O 0.53449 0.77741 0.4902 0.0
O1264 O 0.66752 0.88497 0.50074 0.0
O1265 O 0.62034 0.8742 0.513 0.0
O1266 O 0.66404 0.80061 0.52202 0.0
O1267 O 0.6319 0.76256 0.50626 0.0
O1268 O 0.58597 0.83433 0.54149 0.0
O1269 O 0.66566 0.86935 0.53654 0.0
O1270 O 0.54971 0.73834 0.53056 0.0
O1271 O 0.56209 0.75844 0.51527 0.0
H1272 H 0.48281 0.73923 0.47084 0.0
H1273 H 0.46962 0.76143 0.45347 0.0
H1274 H 0.61979 0.89532 0.45416 0.0
H1275 H 0.63263 0.87334 0.47163 0.0
H1276 H 0.70524 0.93584 0.55613 0.0
H1277 H 0.72147 0.93114 0.5744 0.0
H1278 H 0.61052 0.77008 0.57436 0.0
H1279 H 0.59365 0.77527 0.55606 0.0
Ho1280 Ho 0.22721 0.787 0.50227 0.0
Ho1281 Ho 0.21351 0.78277 0.52642 0.0
C1282 C 0.20662 0.68461 0.51494 0.0
C1283 C 0.25021 0.78271 0.48309 0.0
C1284 C 0.23175 0.75863 0.47281 0.0
C1285 C 0.26312 0.74608 0.46701 0.0
C1286 C 0.24944 0.7265 0.45702 0.0
C1287 C 0.20374 0.71864 0.45251 0.0
C1288 C 0.17183 0.73062 0.45838 0.0
C1289 C 0.18571 0.75049 0.46841 0.0
C1290 C 0.13041 0.76032 0.50926 0.0
C1291 C 0.26591 0.893 0.51498 0.0
C1292 C 0.17263 0.77173 0.54447 0.0
C1293 C 0.18024 0.79094 0.55526 0.0
C1294 C 0.17589 0.83357 0.55803 0.0
C1295 C 0.17609 0.84638 0.56843 0.0
C1296 C 0.18017 0.81662 0.57631 0.0
C1297 C 0.18616 0.77507 0.57348 0.0
C1298 C 0.18597 0.76231 0.56313 0.0
C1299 C 0.31354 0.81559 0.52158 0.0
O1300 O 0.22265 0.71149 0.50629 0.0
O1301 O 0.19466 0.70223 0.52318 0.0
O1302 O 0.23631 0.81455 0.48653 0.0
O1303 O 0.25274 0.75445 0.49038 0.0
O1304 O 0.15115 0.7851 0.50087 0.0
O1305 O 0.16124 0.74827 0.51312 0.0
O1306 O 0.23499 0.86413 0.52248 0.0
O1307 O 0.27413 0.87155 0.50678 0.0
O1308 O 0.19804 0.74928 0.54157 0.0
O1309 O 0.16749 0.79836 0.53707 0.0
O1310 O 0.29613 0.81032 0.5309 0.0
O1311 O 0.27647 0.80459 0.51563 0.0
H1312 H 0.29891 0.75215 0.47017 0.0
H1313 H 0.27479 0.71744 0.4528 0.0
H1314 H 0.13672 0.7258 0.45512 0.0
H1315 H 0.16085 0.76009 0.47266 0.0
H1316 H 0.17108 0.85634 0.55219 0.0
H1317 H 0.1724 0.87925 0.57031 0.0
H1318 H 0.18903 0.75107 0.57931 0.0
H1319 H 0.18857 0.72876 0.5613 0.0
Ho1320 Ho 0.11291 0.56583 0.36062 0.0
Ho1321 Ho 0.10844 0.57514 0.33772 0.0
C1322 C 0.19712 0.66984 0.34951 0.0
C1323 C 0.13536 0.56736 0.38007 0.0
C1324 C 0.14484 0.5954 0.39002 0.0
C1325 C 0.19005 0.60898 0.39546 0.0
C1326 C 0.19825 0.6305 0.40532 0.0
C1327 C 0.16131 0.63896 0.4101 0.0
C1328 C 0.11647 0.62651 0.40454 0.0
C1329 C 0.10823 0.60483 0.39464 0.0
C1330 C 0.04602 0.597 0.35399 0.0
C1331 C 0.04469 0.46095 0.3481 0.0
C1332 C 0.08078 0.5828 0.31918 0.0
C1333 C 0.06207 0.56047 0.30882 0.0
C1334 C 0.02874 0.57247 0.30363 0.0
C1335 C 1.01707 0.56006 0.29322 0.0
C1336 C 0.03858 0.53539 0.2877 0.0
C1337 C 0.07005 0.5211 0.29306 0.0
C1338 C 0.0819 0.53375 0.30349 0.0
C1339 C 0.18245 0.55479 0.34352 0.0
O1340 O 0.18703 0.63822 0.3573 0.0
O1341 O 0.16533 0.65725 0.34165 0.0
O1342 O 0.08888 0.54306 0.37641 0.0
O1343 O 0.16953 0.58837 0.37281 0.0
O1344 O 0.03837 0.56713 0.36171 0.0
O1345 O 0.08993 0.61072 0.35051 0.0
O1346 O 0.04879 0.49058 0.34017 0.0
O1347 O 0.0713 0.48166 0.35661 0.0
O1348 O 0.12714 0.59436 0.32174 0.0
O1349 O 0.04917 0.56695 0.32699 0.0
O1350 O 0.18369 0.57957 0.3353 0.0
O1351 O 0.13879 0.53627 0.34772 0.0
H1352 H 0.21875 0.60171 0.39217 0.0
H1353 H 0.23309 0.63924 0.40933 0.0
H1354 H 0.08762 0.63348 0.40783 0.0
H1355 H 0.0729 0.59482 0.39069 0.0
H1356 H 1.0134 0.59358 0.30751 0.0
H1357 H 0.99286 0.57183 0.28938 0.0
H1358 H 0.08625 0.50089 0.28915 0.0
H1359 H 0.1078 0.52403 0.30729 0.0
Ho1360 Ho 0.46195 0.55042 0.35987 0.0
Ho1361 Ho 0.45763 0.53849 0.33695 0.0
C1362 C 0.35798 0.5259 0.348 0.0
C1363 C 0.45701 0.57051 0.37924 0.0
C1364 C 0.42894 0.55111 0.38919 0.0
C1365 C 0.38621 0.55625 0.39154 0.0
C1366 C 0.36478 0.54544 0.40144 0.0
C1367 C 0.38567 0.52964 0.40933 0.0
C1368 C 0.42721 0.52276 0.40689 0.0
C1369 C 0.44873 0.53366 0.39699 0.0
C1370 C 0.43427 0.45333 0.35316 0.0
C1371 C 0.56953 0.58917 0.34809 0.0
C1372 C 0.4529 0.50502 0.31833 0.0
C1373 C 0.47521 0.50873 0.30797 0.0
C1374 C 0.46411 0.46346 0.30286 0.0
C1375 C 0.47591 0.46393 0.29242 0.0
C1376 C 0.49906 0.50979 0.28678 0.0
C1377 C 0.51259 0.55556 0.29206 0.0
C1378 C 0.50054 0.55503 0.30252 0.0
C1379 C 0.47465 0.63176 0.34286 0.0
O1380 O 0.38731 0.54742 0.35612 0.0
O1381 O 0.37446 0.50951 0.34029 0.0
O1382 O 0.48449 0.55135 0.3758 0.0
O1383 O 0.43467 0.58096 0.3718 0.0
O1384 O 0.46222 0.4755 0.36112 0.0
O1385 O 0.42049 0.48305 0.34947 0.0
O1386 O 0.54146 0.5633 0.34003 0.0
O1387 O 0.54707 0.59484 0.35636 0.0
O1388 O 0.44057 0.53923 0.32088 0.0
O1389 O 0.46852 0.48925 0.32617 0.0
O1390 O 0.45158 0.60837 0.33449 0.0
O1391 O 0.49317 0.60706 0.34721 0.0
H1392 H 0.37009 0.57006 0.3858 0.0
H1393 H 0.33211 0.5501 0.40296 0.0
H1394 H 0.44438 0.51076 0.41276 0.0
H1395 H 0.48207 0.53004 0.39554 0.0
H1396 H 0.44403 0.42717 0.30683 0.0
H1397 H 0.46477 0.42795 0.28865 0.0
H1398 H 0.53167 0.59177 0.28806 0.0
H1399 H 0.5095 0.59058 0.30624 0.0
Ho1400 Ho 0.48249 0.91763 0.35981 0.0
Ho1401 Ho 0.49129 0.9212 0.33673 0.0
C1402 C 0.50767 0.83774 0.34821 0.0
C1403 C 0.46373 0.89558 0.37932 0.0
C1404 C 0.4817 0.88514 0.38925 0.0
C1405 C 0.44849 0.84103 0.39484 0.0
C1406 C 0.46097 0.83286 0.40479 0.0
C1407 C 0.5071 0.86872 0.40952 0.0
C1408 C 0.54119 0.91218 0.40378 0.0
C1409 C 0.52857 0.92043 0.39381 0.0
C1410 C 0.5784 0.98683 0.35245 0.0
C1411 C 0.44176 0.98396 0.34774 0.0
C1412 C 0.51992 0.94547 0.3177 0.0
C1413 C 0.51281 0.961 0.30722 0.0
C1414 C 0.53024 1.01232 0.30467 0.0
C1415 C 0.53141 0.02702 0.29437 0.0
C1416 C 0.51596 0.99093 0.28634 0.0
C1417 C 0.49667 0.93942 0.28897 0.0
C1418 C 0.49526 0.92474 0.29924 0.0
C1419 C 0.40033 0.8453 0.34361 0.0
O1420 O 0.48789 0.84689 0.35645 0.0
O1421 O 0.52198 0.86879 0.3402 0.0
O1422 O 0.48738 0.94202 0.37566 0.0
O1423 O 0.44844 0.86121 0.37206 0.0
O1424 O 0.55693 0.99346 0.36044 0.0
O1425 O 0.54862 0.94264 0.34904 0.0
O1426 O 0.46582 0.97988 0.33955 0.0
O1427 O 0.43797 0.95797 0.35624 0.0
O1428 O 0.48733 0.89934 0.3208 0.0
O1429 O 0.53713 0.97863 0.32525 0.0
O1430 O 0.42258 0.84303 0.3353 0.0
O1431 O 0.42454 0.88983 0.34738 0.0
H1432 H 0.41187 0.81338 0.39162 0.0
H1433 H 0.43358 0.79906 0.40892 0.0
H1434 H 0.57764 0.94007 0.40701 0.0
H1435 H 0.55513 0.95489 0.38975 0.0
H1436 H 0.54448 0.04139 0.31059 0.0
H1437 H 0.54534 0.06687 0.29268 0.0
H1438 H 0.48472 0.91055 0.28304 0.0
H1439 H 0.48245 0.88503 0.30087 0.0
C1440 C 0.15554 0.11187 0.1688 0.0
C1441 C 0.15536 0.14117 0.17721 0.0
C1442 C 0.16347 0.07021 0.17008 0.0
C1443 C 0.1703 0.05483 0.17988 0.0
H1444 H 0.14859 0.12064 0.1611 0.0
H1445 H 0.16187 0.04847 0.16333 0.0
S1446 S 0.17546 0.11995 0.20446 0.0
N1447 N 0.16569 0.15353 0.19566 0.0
N1448 N 0.17845 0.07401 0.19819 0.0
C1449 C 0.17144 0.08454 0.18837 0.0
C1450 C 0.16463 0.12795 0.18701 0.0
C1451 C 0.95825 0.08296 0.18727 0.0
C1452 C 0.97291 0.12316 0.18011 0.0
C1453 C 0.91388 0.0348 0.18582 0.0
C1454 C 0.88262 0.02477 0.17712 0.0
H1455 H 0.98221 0.08798 0.19386 0.0
H1456 H 0.9055 1.00458 0.19128 0.0
S1457 S 0.89959 0.11779 0.15674 0.0
N1458 N 0.9487 0.15005 0.16449 0.0
N1459 N 0.86672 0.06013 0.16176 0.0
C1460 C 0.8953 0.06516 0.17021 0.0
C1461 C 0.93996 0.11412 0.17171 0.0
C1462 C 0.97902 0.85788 0.16892 0.0
C1463 C 1.01453 0.87089 0.17699 0.0
C1464 C 0.93125 0.85419 0.17041 0.0
C1465 C 0.91631 0.86361 0.18005 0.0
H1466 H 0.98859 0.85152 0.16124 0.0
H1467 H 0.90647 0.84521 0.16379 0.0
S1468 S 0.99361 0.89517 0.20399 0.0
N1469 N 0.03 0.88991 0.19516 0.0
N1470 N 0.94068 0.8838 0.19803 0.0
C1471 C 0.95073 0.87482 0.18832 0.0
C1472 C 0.99956 0.87823 0.18678 0.0
C1473 C 0.12021 0.15076 0.35937 0.0
C1474 C 0.14907 0.1491 0.35103 0.0
C1475 C 0.07869 0.15871 0.35793 0.0
C1476 C 0.06306 0.16402 0.34804 0.0
H1477 H 0.12917 0.14493 0.36714 0.0
H1478 H 0.05718 0.15824 0.36463 0.0
S1479 S 0.12739 0.1656 0.3236 0.0
N1480 N 0.16118 0.15699 0.33254 0.0
N1481 N 0.08153 0.16946 0.32973 0.0
C1482 C 0.09235 0.1638 0.33961 0.0
C1483 C 0.13575 0.15709 0.34113 0.0
C1484 C 0.87003 0.92452 0.35791 0.0
C1485 C 0.86702 0.90311 0.34815 0.0
C1486 C 0.87783 0.97405 0.35903 0.0
C1487 C 0.88175 1.00428 0.35046 0.0
H1488 H 0.8689 0.9039 0.3648 0.0
H1489 H 0.88197 0.98921 0.36673 0.0
S1490 S 0.87141 0.96487 0.32319 0.0
N1491 N 0.86569 0.91533 0.32968 0.0
N1492 N 0.87828 1.00773 0.33187 0.0
C1493 C 0.87587 0.98248 0.34066 0.0
C1494 C 0.86913 0.93221 0.33948 0.0
C1495 C 0.04413 0.90594 0.34154 0.0
C1496 C 0.02752 0.88044 0.351 0.0
C1497 C 0.09349 0.94892 0.34045 0.0
C1498 C 0.1284 0.96772 0.34874 0.0
H1499 H 1.01794 0.89443 0.33511 0.0
H1500 H 0.10359 0.96858 0.33313 0.0
S1501 S 0.10464 0.91006 0.37483 0.0
N1502 N 0.05076 0.8743 0.36857 0.0
N1503 N 0.14321 0.95368 0.36654 0.0
C1504 C 0.11292 0.94028 0.35806 0.0
C1505 C 0.0626 0.89713 0.35919 0.0
C1506 C 0.86981 0.90422 0.85918 0.0
C1507 C 0.88442 0.884 0.85096 0.0
C1508 C 0.8616 0.94568 0.85779 0.0
C1509 C 0.86895 0.96972 0.84816 0.0
H1510 H 0.86578 0.88856 0.86684 0.0
H1511 H 0.85176 0.96042 0.86446 0.0
S1512 S 0.90615 0.93045 0.82407 0.0
N1513 N 0.90389 0.88976 0.83279 0.0
N1514 N 0.89027 0.96844 0.83014 0.0
C1515 C 0.8822 0.94882 0.8398 0.0
C1516 C 0.88947 0.90584 0.84121 0.0
C1517 C 0.12888 0.98984 0.84302 0.0
C1518 C 0.16025 1.0 0.85171 0.0
C1519 C 0.08387 0.94205 0.84171 0.0
C1520 C 0.06855 0.90229 0.84901 0.0
H1521 H 0.13773 0.01975 0.83745 0.0
H1522 H 0.05997 0.93699 0.83511 0.0
S1523 S 0.14157 0.90797 0.87245 0.0
N1524 N 0.17536 0.96508 0.86723 0.0
N1525 N 0.0921 0.87586 0.86477 0.0
C1526 C 0.10147 0.91139 0.85742 0.0
C1527 C 0.14685 0.95998 0.85876 0.0
C1528 C 0.05548 0.14757 0.85936 0.0
C1529 C 0.02641 0.14751 0.8509 0.0
C1530 C 0.10449 0.15412 0.85813 0.0
C1531 C 0.12671 0.15983 0.84835 0.0
H1532 H 0.03985 0.14152 0.86706 0.0
H1533 H 0.12416 0.15253 0.86496 0.0
S1534 S 0.06765 0.16514 0.82365 0.0
N1535 N 0.02455 0.15685 0.83241 0.0
N1536 N 0.11613 0.16734 0.82999 0.0
C1537 C 0.09864 0.1613 0.8398 0.0
C1538 C 0.04879 0.15571 0.8411 0.0
C1539 C 0.89341 0.85019 0.68428 0.0
C1540 C 0.89828 0.8924 0.67871 0.0
C1541 C 0.9356 0.84235 0.68554 0.0
C1542 C 0.98364 0.87627 0.68119 0.0
H1543 H 0.85666 0.82244 0.68743 0.0
H1544 H 0.93032 0.8091 0.68971 0.0
S1545 S 1.01834 0.99611 0.66727 0.0
N1546 N 0.9569 0.97115 0.66983 0.0
N1547 N 0.03464 0.95571 0.67203 0.0
C1548 C 0.98925 0.9194 0.67602 0.0
C1549 C 0.94699 0.92765 0.67482 0.0
C1550 C 0.15056 0.08234 0.68762 0.0
C1551 C 0.17625 0.12277 0.68052 0.0
C1552 C 0.14798 0.03471 0.68626 0.0
C1553 C 0.17062 0.02542 0.67769 0.0
H1554 H 0.13066 0.08676 0.69411 0.0
H1555 H 0.12597 1.00426 0.69166 0.0
S1556 S 0.24718 0.11925 0.65746 0.0
N1557 N 0.22874 0.15065 0.66507 0.0
N1558 N 0.22292 0.06166 0.66248 0.0
C1559 C 0.19825 0.066 0.67082 0.0
C1560 C 0.20135 0.11444 0.67223 0.0
C1561 C 0.93303 0.07393 0.67053 0.0
C1562 C 0.9105 0.05988 0.68033 0.0
C1563 C 0.98313 0.11453 0.66921 0.0
C1564 C 1.01272 0.14401 0.67759 0.0
H1565 H 0.91279 0.05178 0.66383 0.0
H1566 H 0.9991 0.12225 0.66153 0.0
S1567 S 0.97051 0.12612 0.70478 0.0
N1568 N 0.92117 0.08024 0.69857 0.0
N1569 N 1.0145 0.1583 0.69598 0.0
C1570 C 0.98991 0.13221 0.68737 0.0
C1571 C 0.93913 0.08971 0.68877 0.0
C1572 C 0.85323 0.41707 0.50391 0.0
C1573 C 0.84153 0.3913 0.51343 0.0
C1574 C 0.8509 0.46193 0.50252 0.0
C1575 C 0.83699 0.48376 0.51056 0.0
H1576 H 0.86312 0.40189 0.49732 0.0
H1577 H 0.85896 0.47898 0.49494 0.0
S1578 S 0.80531 0.434 0.5372 0.0
N1579 N 0.81732 0.39296 0.53123 0.0
N1580 N 0.81359 0.47742 0.52854 0.0
C1581 C 0.82702 0.45979 0.52022 0.0
C1582 C 0.8291 0.41367 0.52166 0.0
C1583 C 0.56343 0.38253 0.5167 0.0
C1584 C 0.56973 0.34432 0.51185 0.0
C1585 C 0.60506 0.43294 0.51781 0.0
C1586 C 0.65406 0.44659 0.51406 0.0
H1587 H 0.52593 0.37392 0.51932 0.0
H1588 H 0.59864 0.46155 0.52139 0.0
S1589 S 0.69226 0.35936 0.5022 0.0
N1590 N 0.63033 0.32301 0.50431 0.0
N1591 N 0.70732 0.41687 0.50629 0.0
C1592 C 0.66107 0.40823 0.50966 0.0
C1593 C 0.61925 0.35735 0.50858 0.0
C1594 C 0.61889 0.21258 0.52118 0.0
C1595 C 0.57791 0.18627 0.51419 0.0
C1596 C 0.66725 0.21692 0.51955 0.0
C1597 C 0.6769 0.19562 0.51081 0.0
H1598 H 0.61428 0.23161 0.5278 0.0
H1599 H 0.69787 0.23917 0.52491 0.0
S1600 S 0.5824 0.1186 0.49069 0.0
N1601 N 0.55033 0.13498 0.49859 0.0
N1602 N 0.64056 0.14405 0.49552 0.0
C1603 C 0.63592 0.16748 0.50403 0.0
C1604 C 0.58672 0.16253 0.50572 0.0
C1605 C 0.7911 0.48949 0.69285 0.0
C1606 C 0.81782 0.48578 0.68432 0.0
C1607 C 0.74934 0.49735 0.69167 0.0
C1608 C 0.73133 0.50055 0.68187 0.0
H1609 H 0.80182 0.48516 0.70057 0.0
H1610 H 0.72951 0.49839 0.69852 0.0
S1611 S 0.78957 0.49624 0.657 0.0
N1612 N 0.82533 0.48936 0.66574 0.0
N1613 N 0.74551 0.50196 0.66343 0.0
C1614 C 0.75866 0.49849 0.67325 0.0
C1615 C 0.80221 0.49176 0.6745 0.0
C1616 C 0.53852 0.26076 0.69148 0.0
C1617 C 0.53471 0.23983 0.68164 0.0
C1618 C 0.54662 0.3103 0.69279 0.0
C1619 C 0.54998 0.34094 0.68434 0.0
H1620 H 0.53774 0.23969 0.69828 0.0
H1621 H 0.55135 0.32509 0.70054 0.0
S1622 S 0.53761 0.30285 0.65695 0.0
N1623 N 0.53228 0.25297 0.66324 0.0
N1624 N 0.54513 0.34528 0.66579 0.0
C1625 C 0.54335 0.31962 0.67447 0.0
C1626 C 0.53644 0.2694 0.6731 0.0
C1627 C 0.77749 0.28466 0.69104 0.0
C1628 C 0.7975 0.30441 0.68125 0.0
C1629 C 0.72777 0.24308 0.69227 0.0
C1630 C 0.69597 0.21824 0.68378 0.0
H1631 H 0.79938 0.30302 0.69789 0.0
H1632 H 0.71366 0.23107 0.70001 0.0
S1633 S 0.73116 0.25136 0.65642 0.0
N1634 N 0.78211 0.29377 0.66281 0.0
N1635 N 0.68951 0.2143 0.66519 0.0
C1636 C 0.71636 0.2355 0.67392 0.0
C1637 C 0.76677 0.27888 0.67264 0.0
C1638 C 0.5428 0.24085 0.19227 0.0
C1639 C 0.55255 0.21828 0.18375 0.0
C1640 C 0.53548 0.28296 0.19118 0.0
C1641 C 0.53865 0.30546 0.18152 0.0
H1642 H 0.54213 0.22663 0.19994 0.0
H1643 H 0.52946 0.29923 0.19809 0.0
S1644 S 0.56155 0.25943 0.15664 0.0
N1645 N 0.56251 0.21987 0.16526 0.0
N1646 N 0.55032 0.29978 0.16311 0.0
C1647 C 0.54669 0.28207 0.17285 0.0
C1648 C 0.55321 0.23838 0.17399 0.0
C1649 C 0.80658 0.29798 0.19258 0.0
C1650 C 0.82484 0.33709 0.18518 0.0
C1651 C 0.76328 0.24994 0.19079 0.0
C1652 C 0.73551 0.23869 0.18151 0.0
H1653 H 0.82528 0.30486 0.2 0.0
H1654 H 0.75056 0.22204 0.19692 0.0
S1655 S 0.76893 0.32729 0.15933 0.0
N1656 N 0.81331 0.36059 0.16798 0.0
N1657 N 0.73151 0.27088 0.16458 0.0
C1658 C 0.75444 0.27702 0.17387 0.0
C1659 C 0.79911 0.32595 0.17569 0.0
C1660 C 0.75502 0.4762 0.17554 0.0
C1661 C 0.79461 0.49994 0.1829 0.0
C1662 C 0.70751 0.47423 0.17679 0.0
C1663 C 0.69757 0.49575 0.18547 0.0
H1664 H 0.75997 0.45728 0.16894 0.0
H1665 H 0.67764 0.45368 0.17118 0.0
S1666 S 0.78967 0.56803 0.20629 0.0
N1667 N 0.82132 0.54991 0.19867 0.0
N1668 N 0.73272 0.54544 0.20102 0.0
C1669 C 0.7375 0.52166 0.19258 0.0
C1670 C 0.78572 0.52397 0.1913 0.0
C1671 C 0.62155 0.20831 0.02125 0.0
C1672 C 0.63737 0.18431 1.01396 0.0
C1673 C 0.57709 0.21208 0.01975 0.0
C1674 C 0.54659 0.19194 1.0109 0.0
H1675 H 0.64486 0.22637 0.02797 0.0
H1676 H 0.56808 0.2331 0.0253 0.0
S1677 S 0.56556 0.11817 0.99029 0.0
N1678 N 0.61422 0.13461 0.99814 0.0
N1679 N 0.53211 0.14221 0.99536 0.0
C1680 C 0.56006 0.1651 1.00392 0.0
C1681 C 0.60487 0.16103 1.00545 0.0
C1682 C 0.86329 0.39225 1.0107 0.0
C1683 C 0.81532 0.3487 1.0126 0.0
C1684 C 0.87052 0.442 1.01174 0.0
C1685 C 0.83035 0.44967 0.01498 0.0
H1686 H 0.89471 0.38781 1.00798 0.0
H1687 H 0.90755 0.47453 1.00995 0.0
S1688 S 0.69744 0.34802 0.02073 0.0
N1689 N 0.72716 0.3167 0.01756 0.0
N1690 N 0.74099 0.40911 0.02 0.0
C1691 C 0.78271 0.40624 0.0171 0.0
C1692 C 0.77513 0.35606 0.01578 0.0
C1693 C 0.60138 0.40335 1.0043 0.0
C1694 C 0.57956 0.3858 1.01408 0.0
C1695 C 0.65042 0.44576 1.00311 0.0
C1696 C 0.67995 0.47369 1.01161 0.0
H1697 H 0.58138 0.38296 0.99742 0.0
H1698 H 0.66576 0.45609 0.9954 0.0
S1699 S 0.64028 0.44688 0.03891 0.0
N1700 N 0.59125 0.40165 0.03251 0.0
N1701 N 0.68296 0.4826 0.03016 0.0
C1702 C 0.65806 0.45847 0.02143 0.0
C1703 C 0.60815 0.41426 0.02269 0.0
C1704 C 0.49323 0.78041 0.83604 0.0
C1705 C 0.48995 0.80753 0.84454 0.0
C1706 C 0.501 0.73866 0.83726 0.0
C1707 C 0.50455 0.721 0.84707 0.0
H1708 H 0.48866 0.79084 0.82831 0.0
H1709 H 0.50174 0.71857 0.83043 0.0
S1710 S 0.50143 0.78026 0.87188 0.0
N1711 N 0.49433 0.81573 0.86311 0.0
N1712 N 0.50669 0.73588 0.86549 0.0
C1713 C 0.50285 0.74866 0.85566 0.0
C1714 C 0.49624 0.79223 0.85438 0.0
C1715 C 0.25084 0.71755 0.83613 0.0
C1716 C 0.22323 0.68732 0.84461 0.0
C1717 C 0.29217 0.76724 0.83739 0.0
C1718 C 0.30882 0.7887 0.8472 0.0
H1719 H 0.2412 0.7023 0.82841 0.0
H1720 H 0.31284 0.78795 0.83059 0.0
S1721 S 0.24748 0.72724 0.87192 0.0
N1722 N 0.21298 0.6842 0.86314 0.0
N1723 N 0.2924 0.77675 0.86559 0.0
C1724 C 0.28058 0.75964 0.85576 0.0
C1725 C 0.23734 0.70929 0.85444 0.0
C1726 C 0.31549 0.53746 0.83596 0.0
C1727 C 0.34568 0.53975 0.84442 0.0
C1728 C 0.26602 0.52982 0.83724 0.0
C1729 C 0.24472 0.52543 0.84707 0.0
H1730 H 0.33061 0.54272 0.82823 0.0
H1731 H 0.24534 0.52992 0.83045 0.0
S1732 S 0.30629 0.52527 0.87176 0.0
N1733 N 0.34904 0.53311 0.86295 0.0
N1734 N 0.25691 0.52114 0.86545 0.0
C1735 C 0.27378 0.52601 0.85561 0.0
C1736 C 0.32391 0.53245 0.85427 0.0
C1737 C 0.45604 0.81882 0.02566 0.0
C1738 C 0.48318 0.81523 0.01721 0.0
C1739 C 0.41531 0.82802 0.02435 0.0
C1740 C 0.39877 0.83271 0.01451 0.0
H1741 H 0.46569 0.8135 0.0334 0.0
H1742 H 0.39499 0.82883 0.03115 0.0
S1743 S 0.45865 0.82914 0.98983 0.0
N1744 N 0.49285 0.82049 0.99867 0.0
N1745 N 0.41453 0.83534 0.99612 0.0
C1746 C 0.42641 0.83057 1.00597 0.0
C1747 C 0.46905 0.82256 1.00734 0.0
C1748 C 0.18268 0.63521 1.01306 0.0
C1749 C 0.23013 0.67627 0.01627 0.0
C1750 C 0.17522 0.58527 1.01199 0.0
C1751 C 0.21515 0.57508 1.01398 0.0
H1752 H 0.15078 0.64132 1.01171 0.0
H1753 H 0.13805 0.55449 1.00968 0.0
S1754 S 0.34734 0.66979 0.02177 0.0
N1755 N 0.31794 0.70322 0.02089 0.0
N1756 N 0.30402 0.61061 0.01878 0.0
C1757 C 0.26286 0.61611 0.01685 0.0
C1758 C 0.27031 0.66634 0.01802 0.0
C1759 C 0.37466 0.56994 1.00885 0.0
C1760 C 0.36398 0.54016 0.0178 0.0
C1761 C 0.42263 0.61472 1.00742 0.0
C1762 C 0.46216 0.63117 0.01481 0.0
H1763 H 0.34497 0.56026 1.00318 0.0
H1764 H 0.42803 0.63751 1.00061 0.0
S1765 S 0.45533 0.56206 0.03893 0.0
N1766 N 0.39833 0.52763 0.03368 0.0
N1767 N 0.48786 0.61009 0.03096 0.0
C1768 C 0.45261 0.59963 0.02348 0.0
C1769 C 0.40381 0.55467 0.02496 0.0
C1770 C 0.23438 0.57514 0.51015 0.0
C1771 C 0.21243 0.54351 0.5188 0.0
C1772 C 0.23061 0.61954 0.50868 0.0
C1773 C 0.20449 0.6339 0.51576 0.0
H1774 H 0.2567 0.567 0.50477 0.0
H1775 H 0.25009 0.6438 0.50216 0.0
S1776 S 0.13417 0.5594 0.53886 0.0
N1777 N 0.15971 0.52698 0.53396 0.0
N1778 N 0.15172 0.60878 0.53117 0.0
C1779 C 0.17992 0.60059 0.52409 0.0
C1780 C 0.18414 0.55595 0.5256 0.0
C1781 C 0.46395 0.65875 0.50984 0.0
C1782 C 0.49419 0.66869 0.51871 0.0
C1783 C 0.41887 0.61108 0.50836 0.0
C1784 C 0.40224 0.57112 0.51566 0.0
H1785 H 0.47382 0.68869 0.50423 0.0
H1786 H 0.39604 0.60625 0.50159 0.0
S1787 S 0.47189 0.57634 0.53962 0.0
N1788 N 0.50668 0.6334 0.53445 0.0
N1789 N 0.42345 0.54453 0.5317 0.0
C1790 C 0.43399 0.58011 0.52429 0.0
C1791 C 0.47942 0.62857 0.5258 0.0
C1792 C 0.44913 0.84133 0.52542 0.0
C1793 C 0.46324 0.83087 0.51578 0.0
C1794 C 0.40159 0.83803 0.527 0.0
C1795 C 0.36563 0.82449 0.51902 0.0
H1796 H 0.47435 0.85079 0.53198 0.0
H1797 H 0.39253 0.84507 0.53467 0.0
S1798 S 0.38421 0.7973 0.49206 0.0
N1799 N 0.43753 0.80905 0.4979 0.0
N1800 N 0.34865 0.80368 0.50092 0.0
C1801 C 0.37978 0.81615 0.50922 0.0
C1802 C 0.42832 0.81911 0.5076 0.0
C1803 C 0.2439 0.54314 0.35471 0.0
C1804 C 0.21994 0.53724 0.34515 0.0
C1805 C 0.28723 0.53726 0.3557 0.0
C1806 C 0.30768 0.52434 0.34719 0.0
H1807 H 0.23112 0.55546 0.36133 0.0
H1808 H 0.30586 0.5447 0.36312 0.0
S1809 S 0.25426 0.49859 0.32071 0.0
N1810 N 0.21695 0.51386 0.32722 0.0
N1811 N 0.29678 0.50148 0.32904 0.0
C1812 C 0.28164 0.5151 0.33774 0.0
C1813 C 0.23827 0.52193 0.33673 0.0
C1814 C 0.49352 0.71684 0.33618 0.0
C1815 C 0.49032 0.68639 0.34465 0.0
C1816 C 0.50232 0.76667 0.33743 0.0
C1817 C 0.50703 0.78815 0.34725 0.0
H1818 H 0.48819 0.7017 0.32844 0.0
H1819 H 0.50287 0.78751 0.33062 0.0
S1820 S 0.50411 0.72547 0.37199 0.0
N1821 N 0.49576 0.68257 0.36319 0.0
N1822 N 0.50993 0.77543 0.36565 0.0
C1823 C 0.50528 0.75867 0.35581 0.0
C1824 C 0.49762 0.70812 0.35449 0.0
C1825 C 0.25559 0.76459 0.34644 0.0
C1826 C 0.24874 0.71626 0.34896 0.0
C1827 C 0.30506 0.80771 0.34546 0.0
C1828 C 0.34911 0.80347 0.34671 0.0
H1829 H 0.22259 0.76896 0.34514 0.0
H1830 H 0.30884 0.84395 0.34325 0.0
S1831 S 0.35197 0.68542 0.35293 0.0
N1832 N 0.29055 0.66727 0.35269 0.0
N1833 N 0.38249 0.74713 0.35036 0.0
C1834 C 0.34258 0.75549 0.34922 0.0
C1835 C 0.29267 0.7122 0.35049 0.0
C1836 C 0.32621 0.34266 0.1863 0.0
C1837 C 0.29379 0.351 0.17972 0.0
C1838 C 0.3802 0.36915 0.18505 0.0
C1839 C 0.40467 0.40573 0.1772 0.0
H1840 H 0.30973 0.31444 0.19237 0.0
H1841 H 0.40285 0.36031 0.1902 0.0
S1842 S 0.33843 0.44488 0.15829 0.0
N1843 N 0.29157 0.40082 0.16529 0.0
N1844 N 0.39156 0.45034 0.16305 0.0
C1845 C 0.37281 0.41547 0.17078 0.0
C1846 C 0.31803 0.38831 0.17199 0.0
C1847 C 0.62652 0.96865 0.17143 0.0
C1848 C 0.63526 1.00952 0.17796 0.0
C1849 C 0.65244 0.94095 0.17274 0.0
C1850 C 0.6883 0.95218 0.18071 0.0
H1851 H 0.59988 0.95834 0.1651 0.0
H1852 H 0.64444 0.9106 0.16734 0.0
S1853 S 0.72397 0.05455 0.20023 0.0
N1854 N 0.68172 0.05891 0.19291 0.0
N1855 N 0.7299 1.00723 0.19544 0.0
C1856 C 0.69659 0.99239 0.18744 0.0
C1857 C 0.67035 0.02083 0.18605 0.0
C1858 C 0.09278 0.71561 0.17288 0.0
C1859 C 0.08276 0.74033 0.18101 0.0
C1860 C 0.06536 0.66199 0.17168 0.0
C1861 C 0.02586 0.62976 0.17848 0.0
H1862 H 0.122 0.7379 0.16726 0.0
H1863 H 0.07475 0.64574 0.1652 0.0
S1864 S 0.98413 0.67359 0.20124 0.0
N1865 N 0.03034 0.72692 0.19619 0.0
N1866 N 0.97889 0.62685 0.19384 0.0
C1867 C 1.01577 0.65356 0.18676 0.0
C1868 C 0.04406 0.70838 0.18804 0.0
C1869 C 0.38973 0.31084 0.35664 0.0
C1870 C 0.35565 0.28656 0.34839 0.0
C1871 C 0.41562 0.36442 0.35795 0.0
C1872 C 0.40845 0.39666 0.35117 0.0
H1873 H 0.39627 0.28825 0.36223 0.0
H1874 H 0.44088 0.38059 0.3645 0.0
S1875 S 0.32466 0.35371 0.32814 0.0
N1876 N 0.3175 0.30033 0.33312 0.0
N1877 N 0.36537 0.4001 0.3357 0.0
C1878 C 0.37514 0.37318 0.3428 0.0
C1879 C 0.34908 0.31861 0.34139 0.0
C1880 C 0.66764 0.05723 0.35707 0.0
C1881 C 0.63507 0.01743 0.35037 0.0
C1882 C 0.72126 0.08458 0.35572 0.0
C1883 C 0.74528 0.07406 0.34753 0.0
H1884 H 0.6517 0.06686 0.36357 0.0
H1885 H 0.7441 0.11404 0.36125 0.0
S1886 S 0.67725 0.97475 0.32751 0.0
N1887 N 0.63102 0.96982 0.33505 0.0
N1888 N 0.73093 0.0211 0.3324 0.0
C1889 C 0.71291 0.03508 0.34061 0.0
C1890 C 0.65827 1.0069 0.34206 0.0
C1891 C 0.94765 0.64138 0.35718 0.0
C1892 C 0.95807 0.67568 0.34895 0.0
C1893 C 0.97537 0.61557 0.35859 0.0
C1894 C 1.01554 0.62317 0.35195 0.0
H1895 H 0.9179 0.63451 0.36266 0.0
H1896 H 0.96569 0.58999 0.3651 0.0
S1897 S 0.05859 0.70814 0.32912 0.0
N1898 N 1.01159 0.71472 0.3339 0.0
N1899 N 0.06373 0.66725 0.33671 0.0
C1900 C 0.02618 0.65692 0.34365 0.0
C1901 C 0.99754 0.68277 0.34212 0.0
C1902 C 0.66882 0.61746 0.85827 0.0
C1903 C 0.63644 0.62353 0.8513 0.0
C1904 C 0.72259 0.64404 0.85709 0.0
C1905 C 0.74702 0.67775 0.84879 0.0
H1906 H 0.65257 0.59251 0.86485 0.0
H1907 H 0.74519 0.63824 0.86281 0.0
S1908 S 0.67967 0.70586 0.82808 0.0
N1909 N 0.63311 0.66521 0.83563 0.0
N1910 N 0.7332 0.71428 0.83328 0.0
C1911 C 0.71487 0.68327 0.84163 0.0
C1912 C 0.66008 0.65653 0.84291 0.0
C1913 C 0.3462 0.03262 0.84217 0.0
C1914 C 0.35809 0.07627 0.84814 0.0
C1915 C 0.37198 1.00467 0.84353 0.0
C1916 C 0.41122 0.01912 0.85089 0.0
H1917 H 0.31574 0.01901 0.83655 0.0
H1918 H 0.3605 0.971 0.83888 0.0
S1919 S 0.46006 0.13226 0.86804 0.0
N1920 N 0.41414 0.13352 0.86142 0.0
N1921 N 0.4622 0.08186 0.86386 0.0
C1922 C 0.42448 0.06346 0.85668 0.0
C1923 C 0.39813 0.09167 0.85535 0.0
C1924 C 0.94937 0.31112 0.85666 0.0
C1925 C 0.9587 0.28713 0.8483 0.0
C1926 C 0.97695 0.36469 0.85799 0.0
C1927 C 1.01577 0.39717 0.8511 0.0
H1928 H 0.9207 0.28833 0.86233 0.0
H1929 H 0.96829 0.38067 0.86463 0.0
S1930 S 0.05499 0.35508 0.82773 0.0
N1931 N 1.00941 0.30147 0.8328 0.0
N1932 N 0.06106 0.40123 0.83541 0.0
C1933 C 0.02508 0.374 0.84262 0.0
C1934 C 0.9967 0.31945 0.8412 0.0
C1935 C 0.62531 0.66317 0.67103 0.0
C1936 C 0.63205 0.63098 0.67792 0.0
C1937 C 0.65164 0.71683 0.67224 0.0
C1938 C 0.6857 0.74126 0.68049 0.0
H1939 H 0.60003 0.64688 0.6645 0.0
H1940 H 0.64532 0.73934 0.66659 0.0
S1941 S 0.71576 0.67435 0.70095 0.0
N1942 N 0.67482 0.62778 0.69345 0.0
N1943 N 0.72346 0.7277 0.69584 0.0
C1944 C 0.69192 0.70928 0.68757 0.0
C1945 C 0.66544 0.65463 0.68626 0.0
C1946 C 0.37157 0.96993 0.6716 0.0
C1947 C 0.40401 1.01053 0.67816 0.0
C1948 C 0.31794 0.94237 0.67296 0.0
C1949 C 0.29368 0.9535 0.68102 0.0
H1950 H 0.38765 0.95973 0.66521 0.0
H1951 H 0.2953 0.91221 0.66755 0.0
S1952 S 0.36133 0.05518 0.70064 0.0
N1953 N 0.40768 0.05959 0.69321 0.0
N1954 N 0.30777 1.00813 0.69585 0.0
C1955 C 0.32592 0.99344 0.68778 0.0
C1956 C 0.3806 0.02174 0.68633 0.0
C1957 C 1.01606 0.36851 0.6853 0.0
C1958 C 0.02899 0.40592 0.6776 0.0
C1959 C 0.04373 0.34239 0.68659 0.0
C1960 C 0.08546 0.35192 0.68019 0.0
H1961 H 0.9839 0.35887 0.69031 0.0
H1962 H 0.03138 0.31351 0.69253 0.0
S1963 S 0.13675 0.44798 0.65916 0.0
N1964 N 0.08821 0.45242 0.66376 0.0
N1965 N 0.13912 0.40346 0.66606 0.0
C1966 C 0.09926 0.38994 0.67259 0.0
C1967 C 0.07144 0.41679 0.67134 0.0
C1968 C 0.98741 0.71559 0.506 0.0
C1969 C 0.96296 0.68065 0.51412 0.0
C1970 C 0.0411 0.74172 0.5047 0.0
C1971 C 0.07358 0.73422 0.51138 0.0
H1972 H 0.96487 0.72269 0.50049 0.0
H1973 H 0.05721 0.76755 0.49824 0.0
S1974 S 0.03047 0.64798 0.53403 0.0
N1975 N 0.97695 0.64112 0.52913 0.0
N1976 N 0.07697 0.68963 0.52659 0.0
C1977 C 0.05 0.70005 0.51962 0.0
C1978 C 0.99521 0.67356 0.521 0.0
C1979 C 0.35476 0.318 0.52006 0.0
C1980 C 0.3568 0.28608 0.51229 0.0
C1981 C 0.33015 0.34725 0.51848 0.0
C1982 C 0.30657 0.34618 0.50903 0.0
H1983 H 0.37347 0.32151 0.52736 0.0
H1984 H 0.33109 0.37206 0.52458 0.0
S1985 S 0.29621 0.26583 0.4865 0.0
N1986 N 0.32884 0.25326 0.495 0.0
N1987 N 0.28415 0.3076 0.49208 0.0
C1988 C 0.30687 0.31319 0.50139 0.0
C1989 C 0.33142 0.28345 0.50299 0.0
C1990 C 0.73319 0.99509 0.50452 0.0
C1991 C 0.69357 0.96238 0.51126 0.0
C1992 C 0.76052 0.04875 0.50582 0.0
C1993 C 0.75023 0.07309 0.514 0.0
H1994 H 0.74282 0.97918 0.49801 0.0
H1995 H 0.78983 0.07137 0.50025 0.0
S1996 S 0.65127 1.00504 0.53412 0.0
N1997 N 0.64629 0.95872 0.52662 0.0
N1998 N 0.6974 0.05868 0.52916 0.0
C1999 C 0.71131 0.04064 0.52095 0.0
C2000 C 0.68319 0.98583 0.51957 0.0
C2001 C 0.04329 0.70908 0.67738 0.0
C2002 C 0.07912 0.73313 0.68538 0.0
C2003 C 1.01762 0.65535 0.67593 0.0
C2004 C 0.0261 0.62285 0.68245 0.0
H2005 H 0.0344 0.73184 0.67229 0.0
H2006 H 0.98987 0.6391 0.66978 0.0
S2007 S 0.11837 0.66656 0.70418 0.0
N2008 N 0.12332 0.71967 0.69958 0.0
N2009 N 0.07526 0.62009 0.69696 0.0
C2010 C 0.06272 0.6467 0.69031 0.0
C2011 C 0.08906 0.70122 0.69173 0.0
C2012 C 0.33444 0.38983 0.69165 0.0
C2013 C 0.30229 0.35017 0.68488 0.0
C2014 C 0.38809 0.41804 0.6903 0.0
C2015 C 0.41254 0.40859 0.68203 0.0
H2016 H 0.31812 0.39873 0.6982 0.0
H2017 H 0.4106 0.44739 0.69587 0.0
S2018 S 0.34575 0.30966 0.66188 0.0
N2019 N 0.29921 0.30358 0.66946 0.0
N2020 N 0.39903 0.35644 0.66681 0.0
C2021 C 0.38059 0.36962 0.67507 0.0
C2022 C 0.32597 0.34057 0.67652 0.0
C2023 C 0.69119 0.993 0.67688 0.0
C2024 C 0.67939 0.95703 0.68483 0.0
C2025 C 0.66311 0.0186 0.67546 0.0
C2026 C 0.62209 1.00993 0.68199 0.0
H2027 H 0.72285 1.002 0.67176 0.0
H2028 H 0.67464 0.04647 0.66934 0.0
S2029 S 0.57366 0.91744 0.70367 0.0
N2030 N 0.6219 0.9126 0.69904 0.0
N2031 N 0.57014 0.96055 0.6965 0.0
C2032 C 0.60932 0.9732 0.68983 0.0
C2033 C 0.63757 0.9469 0.69121 0.0
C2034 C 0.32848 0.98728 0.17675 0.0
C2035 C 0.30625 0.96043 0.18593 0.0
C2036 C 0.38219 1.0117 0.17501 0.0
C2037 C 0.41611 1.01005 0.18234 0.0
H2038 H 0.3046 0.99125 0.17105 0.0
H2039 H 0.39733 0.03326 0.16798 0.0
S2040 S 0.37612 0.93966 0.20717 0.0
N2041 N 0.3223 0.93074 0.20207 0.0
N2042 N 0.42123 0.97494 0.19883 0.0
C2043 C 0.39354 0.9811 0.19131 0.0
C2044 C 0.33939 0.95687 0.19309 0.0
C2045 C 1.01048 0.36695 0.17598 0.0
C2046 C 0.02239 0.41008 0.18214 0.0
C2047 C 0.03627 0.33878 0.17712 0.0
C2048 C 0.07562 0.35244 0.18443 0.0
H2049 H 0.98007 0.35398 0.17036 0.0
H2050 H 0.02478 0.3056 0.1723 0.0
S2051 S 0.12437 0.46383 0.20207 0.0
N2052 N 0.07847 0.4658 0.19558 0.0
N2053 N 0.12648 0.41386 0.19761 0.0
C2054 C 0.08877 0.39619 0.19043 0.0
C2055 C 0.06241 0.42459 0.18933 0.0
C2056 C 0.61715 0.6458 0.19002 0.0
C2057 C 0.62702 0.62152 0.18177 0.0
C2058 C 0.64477 0.69939 0.19133 0.0
C2059 C 0.68417 0.73195 0.18454 0.0
H2060 H 0.58801 0.6232 0.19562 0.0
H2061 H 0.63556 0.71537 0.19789 0.0
S2062 S 0.72522 0.68934 0.16151 0.0
N2063 N 0.67913 0.63578 0.1665 0.0
N2064 N 0.73074 0.73565 0.16907 0.0
C2065 C 0.69408 0.70856 0.17618 0.0
C2066 C 0.66572 0.65385 0.17478 0.0
C2067 C 0.33416 0.98512 0.01833 0.0
C2068 C 0.29558 0.96036 1.01085 0.0
C2069 C 0.35985 0.03884 0.0197 0.0
C2070 C 0.3486 0.07067 1.01361 0.0
H2071 H 0.34513 0.96288 0.02311 0.0
H2072 H 0.38972 0.05561 0.02545 0.0
S2073 S 0.24881 0.02491 0.99326 0.0
N2074 N 0.24608 0.9723 0.99756 0.0
N2075 N 0.29405 0.07202 1.00001 0.0
C2076 C 0.30931 0.0461 1.00624 0.0
C2077 C 0.283 0.99152 1.00491 0.0
C2078 C 0.04899 0.34637 0.01771 0.0
C2079 C 0.07106 0.34421 1.00828 0.0
C2080 C 0.99519 0.31703 0.01943 0.0
C2081 C 0.96087 0.28374 1.01186 0.0
H2082 H 0.07315 0.37207 0.02368 0.0
H2083 H 0.98035 0.32138 0.0267 0.0
S2084 S 0.99994 0.26083 0.98616 0.0
N2085 N 0.05407 0.30355 0.99153 0.0
N2086 N 0.95513 0.24892 0.99473 0.0
C2087 C 0.98317 0.28012 1.00257 0.0
C2088 C 0.0374 0.31007 1.00081 0.0
C2089 C 0.75703 0.71312 1.00507 0.0
C2090 C 0.74779 0.6802 1.01351 0.0
C2091 C 0.72932 0.73898 1.00366 0.0
C2092 C 0.69044 0.73286 1.01052 0.0
H2093 H 0.78579 0.71884 0.99944 0.0
H2094 H 0.73795 0.76338 0.99699 0.0
S2095 S 0.65092 0.65204 0.03395 0.0
N2096 N 0.69674 0.64411 0.02898 0.0
N2097 N 0.64491 0.69188 0.0262 0.0
C2098 C 0.68109 0.7006 0.01904 0.0
C2099 C 0.70959 0.67461 0.02055 0.0
C2100 C 0.71312 0.03358 0.85164 0.0
C2101 C 0.73739 0.06983 0.84374 0.0
C2102 C 0.65937 1.00773 0.85301 0.0
C2103 C 0.62708 0.01645 0.84649 0.0
H2104 H 0.73577 0.02461 0.85676 0.0
H2105 H 0.64294 0.97971 0.85911 0.0
S2106 S 0.67139 0.10954 0.82492 0.0
N2107 N 0.72448 0.1145 0.82957 0.0
N2108 N 0.62462 0.06607 0.83203 0.0
C2109 C 0.65111 0.0534 0.83869 0.0
C2110 C 0.70574 0.07994 0.83736 0.0
C2111 C 1.00006 0.68449 0.85255 0.0
C2112 C 0.96297 0.67238 0.84482 0.0
C2113 C 0.02562 0.65627 0.85379 0.0
C2114 C 1.01574 0.61481 0.84729 0.0
H2115 H 1.01001 0.71651 0.85762 0.0
H2116 H 0.05439 0.66802 0.85974 0.0
S2117 S 0.91989 0.56531 0.82621 0.0
N2118 N 0.91607 0.61399 0.83089 0.0
N2119 N 0.96403 0.56207 0.83309 0.0
C2120 C 0.9779 0.60172 0.83968 0.0
C2121 C 0.95163 0.63008 0.83849 0.0
C2122 C 0.39761 0.32559 0.83724 0.0
C2123 C 0.35861 0.2927 0.84407 0.0
C2124 C 0.42505 0.37914 0.83863 0.0
C2125 C 0.41547 0.40292 0.847 0.0
H2126 H 0.40655 0.30994 0.83059 0.0
H2127 H 0.45382 0.40213 0.833 0.0
S2128 S 0.3184 0.33411 0.8674 0.0
N2129 N 0.31267 0.28819 0.85969 0.0
N2130 N 0.36418 0.38793 0.86243 0.0
C2131 C 0.37729 0.37025 0.85404 0.0
C2132 C 0.349 0.31564 0.85255 0.0
C2133 C 0.72433 0.97641 0.02233 0.0
C2134 C 0.68848 0.9517 1.01436 0.0
C2135 C 0.75065 0.03013 0.02354 0.0
C2136 C 0.74217 0.06222 0.01694 0.0
H2137 H 0.73207 0.95403 0.02776 0.0
H2138 H 0.77735 0.04657 0.02986 0.0
S2139 S 0.6529 0.01809 0.99475 0.0
N2140 N 0.64687 0.96492 0.99961 0.0
N2141 N 0.69546 0.06484 1.00201 0.0
C2142 C 0.70687 0.03826 1.00888 0.0
C2143 C 0.6804 0.98355 1.00757 0.0
C2144 C 0.99429 0.67215 1.01061 0.0
C2145 C 0.97012 0.68481 0.01842 0.0
C2146 C 0.04803 0.69988 1.00922 0.0
C2147 C 0.08039 0.74135 0.01564 0.0
H2148 H 0.97155 0.64017 1.00557 0.0
H2149 H 0.06438 0.68783 1.00319 0.0
S2150 S 0.03641 0.79181 0.03697 0.0
N2151 N 0.98323 0.74342 0.0324 0.0
N2152 N 0.08309 0.79449 0.02992 0.0
C2153 C 0.05649 0.75485 0.02336 0.0
C2154 C 1.00187 0.727 0.02471 0.0
C2155 C 0.33164 0.34917 1.0087 0.0
C2156 C 0.28966 0.33998 0.01501 0.0
C2157 C 0.35911 0.32282 1.01013 0.0
C2158 C 0.34575 0.28555 0.01788 0.0
H2159 H 0.34441 0.37806 1.00276 0.0
H2160 H 0.3916 0.33238 1.00522 0.0
S2161 S 0.23659 0.24358 0.03597 0.0
N2162 N 0.23492 0.28827 0.02901 0.0
N2163 N 0.28539 0.23909 0.03157 0.0
C2164 C 0.30288 0.27485 0.024 0.0
C2165 C 0.27529 0.30185 0.02261 0.0
C2166 C 0.05162 0.35428 0.50891 0.0
C2167 C 0.0836 0.3436 0.51514 0.0
C2168 C 0.99751 0.32786 0.51011 0.0
C2169 C 0.97245 0.28904 0.51755 0.0
H2170 H 0.06859 0.38436 0.50322 0.0
H2171 H 0.97524 0.33862 0.50529 0.0
S2172 S 0.03722 0.24277 0.53525 0.0
N2173 N 0.08454 0.28874 0.52867 0.0
N2174 N 0.98455 0.23957 0.53081 0.0
C2175 C 1.00387 0.2769 0.52356 0.0
C2176 C 0.05868 0.30392 0.5224 0.0
C2177 C 0.68119 0.69995 0.50923 0.0
C2178 C 0.69314 0.7438 0.51517 0.0
C2179 C 0.70713 0.67201 0.51059 0.0
C2180 C 0.74658 0.68662 0.51791 0.0
H2181 H 0.65053 0.68617 0.50366 0.0
H2182 H 0.69547 0.63811 0.50599 0.0
S2183 S 0.79612 0.80071 0.53484 0.0
N2184 N 0.74984 0.80159 0.52829 0.0
N2185 N 0.79807 0.75013 0.53073 0.0
C2186 C 0.75998 0.73129 0.52363 0.0
C2187 C 0.73352 0.75944 0.5223 0.0
C2188 C 0.32945 0.98456 0.5089 0.0
C2189 C 0.29463 0.95089 0.51636 0.0
C2190 C 0.35888 0.03833 0.51053 0.0
C2191 C 0.35541 0.06103 0.51976 0.0
H2192 H 0.33475 0.96924 0.50178 0.0
H2193 H 0.38565 0.06201 0.50465 0.0
S2194 S 0.2687 0.99179 0.54159 0.0
N2195 N 0.25756 0.94648 0.53322 0.0
N2196 N 0.3125 0.0454 0.53624 0.0
C2197 C 0.32007 0.02806 0.52714 0.0
C2198 C 0.28991 0.97384 0.52546 0.0
C2199 C 0.9833 0.38014 0.33835 0.0
C2200 C 1.0151 0.4034 0.34696 0.0
C2201 C 0.95765 0.32667 0.33682 0.0
C2202 C 0.96293 0.29364 0.34373 0.0
H2203 H 0.97839 0.40345 0.33267 0.0
H2204 H 0.93417 0.31121 0.33002 0.0
S2205 S 0.04025 0.33373 0.36765 0.0
N2206 N 0.04888 0.38769 0.36268 0.0
N2207 N 1.00164 0.2883 0.35966 0.0
C2208 C 0.99396 0.31611 0.35243 0.0
C2209 C 1.01966 0.37047 0.35406 0.0
C2210 C 0.70535 0.63433 0.33789 0.0
C2211 C 0.73764 0.67402 0.34464 0.0
C2212 C 0.65166 0.60687 0.33915 0.0
C2213 C 0.6273 0.61712 0.34732 0.0
H2214 H 0.72158 0.62487 0.33141 0.0
H2215 H 0.62904 0.57749 0.33359 0.0
S2216 S 0.69449 0.71619 0.36743 0.0
N2217 N 0.74101 0.72138 0.35995 0.0
N2218 N 0.64104 0.66982 0.36246 0.0
C2219 C 0.65939 0.65605 0.35427 0.0
C2220 C 0.71408 0.68437 0.35291 0.0
C2221 C 0.39568 0.07355 0.33745 0.0
C2222 C 0.35723 0.06738 0.34444 0.0
C2223 C 0.423 0.04719 0.33865 0.0
C2224 C 0.41384 0.01373 0.34697 0.0
H2225 H 0.40428 0.09837 0.33085 0.0
H2226 H 0.45143 0.05299 0.33292 0.0
S2227 S 0.31811 0.98521 0.36767 0.0
N2228 N 0.31215 0.02573 0.36011 0.0
N2229 N 0.36341 0.97707 0.36249 0.0
C2230 C 0.37612 1.00809 0.35414 0.0
C2231 C 0.34794 0.03456 0.35285 0.0
C2232 C 0.18753 0.32451 0.09067 0.0
C2233 C 0.18144 0.36454 0.08676 0.0
C2234 C 0.18382 0.31384 0.10127 0.0
C2235 C 0.1736 0.34257 0.10844 0.0
H2236 H 0.19511 0.30108 0.08548 0.0
H2237 H 0.18867 0.28253 0.10387 0.0
S2238 S 0.15122 0.44949 0.10211 0.0
N2239 N 0.16302 0.43198 0.0909 0.0
N2240 N 0.15553 0.41174 0.11072 0.0
C2241 C 0.16755 0.38281 0.10462 0.0
C2242 C 0.17155 0.39378 0.09383 0.0
C2243 C 0.65844 0.8466 0.09323 0.0
C2244 C 0.6836 0.83075 0.08627 0.0
C2245 C 0.66904 0.85088 0.10385 0.0
C2246 C 0.70547 0.83978 0.10798 0.0
H2247 H 0.63023 0.85579 0.09045 0.0
H2248 H 0.64867 0.86317 0.10888 0.0
S2249 S 0.77906 0.79278 0.0933 0.0
N2250 N 0.74462 0.80113 0.08449 0.0
N2251 N 0.76488 0.80986 0.10432 0.0
C2252 C 0.73073 0.82373 0.10113 0.0
C2253 C 0.71978 0.81909 0.09034 0.0
C2254 C 0.24202 0.90366 0.10254 0.0
C2255 C 0.19936 0.86846 0.1083 0.0
C2256 C 0.24454 0.89857 0.09185 0.0
C2257 C 0.20473 0.85777 0.08642 0.0
H2258 H 0.27375 0.9358 0.10631 0.0
H2259 H 0.2785 0.92651 0.08783 0.0
S2260 S 0.08432 0.75511 0.09782 0.0
N2261 N 0.11617 0.79124 0.10773 0.0
N2262 N 0.12084 0.78177 0.08765 0.0
C2263 C 0.16174 0.82227 0.09207 0.0
C2264 C 0.159 0.82769 0.10297 0.0
C2265 C 0.31723 0.15076 0.43779 0.0
C2266 C 0.36692 0.17925 0.44189 0.0
C2267 C 0.30833 0.14763 0.42712 0.0
C2268 C 0.34875 0.17251 0.42004 0.0
H2269 H 0.28484 0.13011 0.44287 0.0
H2270 H 0.26953 0.12405 0.42439 0.0
S2271 S 0.48589 0.25402 0.42671 0.0
N2272 N 0.45708 0.23396 0.43792 0.0
N2273 N 0.44022 0.22893 0.41797 0.0
C2274 C 0.39847 0.2023 0.42404 0.0
C2275 C 0.40755 0.20556 0.43491 0.0
C2276 C 0.85147 0.1476 0.42635 0.0
C2277 C 0.8651 0.18803 0.41935 0.0
C2278 C 0.84737 0.15386 0.43698 0.0
C2279 C 0.8564 0.20074 0.44108 0.0
H2280 H 0.84403 0.11072 0.4236 0.0
H2281 H 0.83697 0.12168 0.44203 0.0
S2282 S 0.89675 0.31977 0.42627 0.0
N2283 N 0.89011 0.27751 0.41749 0.0
N2284 N 0.8817 0.2889 0.43733 0.0
C2285 C 0.87001 0.24144 0.43419 0.0
C2286 C 0.87448 0.23519 0.42339 0.0
C2287 C 0.8664 0.72427 0.42725 0.0
C2288 C 0.84729 0.68349 0.42019 0.0
C2289 C 0.86101 0.71571 0.43793 0.0
C2290 C 0.83661 0.66598 0.44207 0.0
H2291 H 0.88433 0.76325 0.4245 0.0
H2292 H 0.8757 0.74846 0.443 0.0
S2293 S 0.78202 0.54587 0.42695 0.0
N2294 N 0.80511 0.59139 0.41817 0.0
N2295 N 0.79405 0.57528 0.43816 0.0
C2296 C 0.81851 0.62487 0.4351 0.0
C2297 C 0.82394 0.6336 0.42422 0.0
C2298 C 0.87253 0.65197 0.92491 0.0
C2299 C 0.86049 0.68778 0.92081 0.0
C2300 C 0.86761 0.64051 0.93547 0.0
C2301 C 0.85063 0.66445 0.94245 0.0
H2302 H 0.88716 0.63344 0.91996 0.0
H2303 H 0.87837 0.61342 0.93822 0.0
S2304 S 0.80948 0.75748 0.93564 0.0
N2305 N 0.82733 0.74454 0.92458 0.0
N2306 N 0.81877 0.72343 0.9444 0.0
C2307 C 0.83749 0.69959 0.93846 0.0
C2308 C 0.84223 0.71111 0.92767 0.0
C2309 C 0.38608 0.19082 0.92411 0.0
C2310 C 0.34 0.18508 0.92022 0.0
C2311 C 0.3966 0.19592 0.93472 0.0
C2312 C 0.3616 0.19571 0.94192 0.0
H2313 H 0.41442 0.19163 0.91889 0.0
H2314 H 0.43272 0.20046 0.9373 0.0
S2315 S 0.23661 0.18478 0.93569 0.0
N2316 N 0.25971 0.18103 0.92443 0.0
N2317 N 0.27954 0.19095 0.94428 0.0
C2318 C 0.31525 0.18973 0.93813 0.0
C2319 C 0.30448 0.18438 0.92733 0.0
C2320 C 0.86815 0.1503 0.9266 0.0
C2321 C 0.85129 0.17384 0.91949 0.0
C2322 C 0.86328 0.15439 0.93727 0.0
C2323 C 0.84172 0.18258 0.94134 0.0
H2324 H 0.88382 0.1271 0.9239 0.0
H2325 H 0.87605 0.1348 0.94239 0.0
S2326 S 0.79382 0.25367 0.92606 0.0
N2327 N 0.81434 0.22844 0.91734 0.0
N2328 N 0.80425 0.2353 0.93731 0.0
C2329 C 0.82594 0.20743 0.93432 0.0
C2330 C 0.83082 0.20317 0.92345 0.0
C2331 C 0.7236 0.8738 0.59155 0.0
C2332 C 0.67404 0.84927 0.58731 0.0
C2333 C 0.73151 0.87676 0.60224 0.0
C2334 C 0.69022 0.85568 0.6092 0.0
H2335 H 0.7567 0.89143 0.58655 0.0
H2336 H 0.7704 0.89724 0.60508 0.0
S2337 S 0.55278 0.78551 0.60214 0.0
N2338 N 0.58294 0.80246 0.59099 0.0
N2339 N 0.59782 0.80719 0.61102 0.0
C2340 C 0.64047 0.82991 0.60507 0.0
C2341 C 0.6324 0.82679 0.59417 0.0
C2342 C 0.20999 0.82563 0.59472 0.0
C2343 C 0.17609 0.82695 0.58745 0.0
C2344 C 0.20445 0.8311 0.60532 0.0
C2345 C 0.16485 0.8383 0.60912 0.0
H2346 H 0.24093 0.8199 0.59222 0.0
H2347 H 0.23129 0.8294 0.61059 0.0
S2348 S 0.06423 0.84206 0.59342 0.0
N2349 N 0.10046 0.83448 0.58491 0.0
N2350 N 0.09028 0.845 0.60473 0.0
C2351 C 0.13097 0.84016 0.60193 0.0
C2352 C 0.13653 0.83448 0.59114 0.0
C2353 C 0.18422 0.31047 0.59143 0.0
C2354 C 0.20842 0.36008 0.58724 0.0
C2355 C 0.17801 0.30219 0.60211 0.0
C2356 C 0.19605 0.34316 0.6091 0.0
H2357 H 0.17041 0.27762 0.58641 0.0
H2358 H 0.1604 0.26332 0.60491 0.0
S2359 S 0.26006 0.4805 0.60217 0.0
N2360 N 0.24939 0.45083 0.59101 0.0
N2361 N 0.2368 0.43523 0.611 0.0
C2362 C 0.21905 0.39291 0.60502 0.0
C2363 C 0.22532 0.40135 0.59413 0.0
C2364 C 0.98078 0.46195 0.76065 0.0
C2365 C 1.00567 0.50325 0.75378 0.0
C2366 C 0.99179 0.46766 0.77123 0.0
C2367 C 0.02809 0.51502 0.77547 0.0
H2368 H 0.95331 0.42444 0.75779 0.0
H2369 H 0.97255 0.43423 0.77609 0.0
S2370 S 0.10025 0.63647 0.76096 0.0
N2371 N 0.06602 0.59393 0.75209 0.0
N2372 N 0.08629 0.60493 0.77195 0.0
C2373 C 0.05232 0.55698 0.76871 0.0
C2374 C 0.04126 0.55105 0.75791 0.0
C2375 C 0.55013 0.49537 0.76046 0.0
C2376 C 0.52708 0.51341 0.75349 0.0
C2377 C 0.54637 0.49964 0.77116 0.0
C2378 C 0.51902 0.52173 0.7754 0.0
H2379 H 0.57272 0.47925 0.75763 0.0
H2380 H 0.56557 0.48595 0.77617 0.0
S2381 S 0.44942 0.57271 0.76052 0.0
N2382 N 0.4738 0.55205 0.75165 0.0
N2383 N 0.46758 0.56101 0.77167 0.0
C2384 C 0.49464 0.5387 0.76851 0.0
C2385 C 0.49856 0.53443 0.75761 0.0
C2386 C 0.47604 0.98576 0.7575 0.0
C2387 C 0.52337 0.02304 0.7534 0.0
C2388 C 0.46992 0.974 0.76805 0.0
C2389 C 0.51076 0.99905 0.77503 0.0
H2390 H 0.44292 0.96633 0.75255 0.0
H2391 H 0.4324 0.94581 0.77081 0.0
S2392 S 0.64386 0.09604 0.76821 0.0
N2393 N 0.61285 0.08234 0.75716 0.0
N2394 N 0.60109 0.0606 0.77696 0.0
C2395 C 0.55857 0.03558 0.77104 0.0
C2396 C 0.56491 0.04743 0.76026 0.0
C2397 C 0.48963 0.98943 0.25747 0.0
C2398 C 0.53499 0.03092 0.25362 0.0
C2399 C 0.48325 0.97764 0.26804 0.0
C2400 C 0.52209 1.0066 0.27524 0.0
H2401 H 0.45876 0.96583 0.25226 0.0
H2402 H 0.44758 0.94534 0.27059 0.0
S2403 S 0.64982 0.11689 0.26901 0.0
N2404 N 0.62018 0.0998 0.25782 0.0
N2405 N 0.60863 0.07739 0.27756 0.0
C2406 C 0.56771 0.04812 0.27146 0.0
C2407 C 0.57405 0.06027 0.26072 0.0
C2408 C 0.98037 0.50866 0.2722 0.0
C2409 C 0.02967 0.52698 0.27633 0.0
C2410 C 0.97167 0.50435 0.26152 0.0
C2411 C 1.01193 0.51854 0.25445 0.0
H2412 H 0.94818 0.49805 0.27728 0.0
H2413 H 0.93325 0.4913 0.25878 0.0
S2414 S 0.14791 0.56667 0.26117 0.0
N2415 N 0.1192 0.55834 0.27238 0.0
N2416 N 0.10266 0.54916 0.25241 0.0
C2417 C 0.06117 0.53559 0.25846 0.0
C2418 C 0.07004 0.53995 0.26935 0.0
C2419 C 0.52938 0.47412 0.26051 0.0
C2420 C 0.51354 0.49891 0.25349 0.0
C2421 C 0.52576 0.47882 0.2712 0.0
C2422 C 0.50652 0.50886 0.27538 0.0
H2423 H 0.54325 0.44953 0.25772 0.0
H2424 H 0.53768 0.45825 0.27625 0.0
S2425 S 0.46225 0.58381 0.26035 0.0
N2426 N 0.48024 0.55675 0.25154 0.0
N2427 N 0.47235 0.56465 0.27154 0.0
C2428 C 0.49181 0.53494 0.26844 0.0
C2429 C 0.49546 0.5301 0.25755 0.0
C2430 C 0.03899 0.16495 0.27078 0.0
C2431 C 1.00099 0.17564 0.27418 0.0
C2432 C 0.05677 0.17396 0.26056 0.0
C2433 C 0.03757 0.19423 0.25319 0.0
H2434 H 0.05541 0.14956 0.2761 0.0
H2435 H 0.08617 0.16518 0.25843 0.0
S2436 S 0.93564 0.22627 0.25783 0.0
N2437 N 0.94338 0.20598 0.2691 0.0
N2438 N 0.97698 0.22317 0.24999 0.0
C2439 C 0.99965 0.20522 0.25646 0.0
C2440 C 0.98138 0.19591 0.26688 0.0
C2441 C 0.83654 0.80027 0.26867 0.0
C2442 C 0.86222 0.8406 0.27576 0.0
C2443 C 0.82791 0.80929 0.25842 0.0
C2444 C 0.84475 0.85907 0.25475 0.0
H2445 H 0.824 0.7614 0.27099 0.0
H2446 H 0.80887 0.77704 0.25325 0.0
S2447 S 0.90829 0.9775 0.27043 0.0
N2448 N 0.90037 0.93198 0.2785 0.0
N2449 N 0.88466 0.94881 0.25934 0.0
C2450 C 0.86912 0.89955 0.26183 0.0
C2451 C 0.87771 0.89038 0.27227 0.0
C2452 C 0.22436 0.05021 0.26779 0.0
C2453 C 0.19672 0.01899 0.27617 0.0
C2454 C 0.21454 0.03176 0.25762 0.0
C2455 C 0.17699 0.98103 0.25534 0.0
H2456 H 0.25314 0.08972 0.26907 0.0
H2457 H 0.23665 0.05755 0.25147 0.0
S2458 S 0.09456 0.88303 0.27447 0.0
N2459 N 0.13095 0.93415 0.28146 0.0
N2460 N 0.11199 0.89986 0.26242 0.0
C2461 C 0.14954 0.94918 0.26366 0.0
C2462 C 0.15942 0.96803 0.27402 0.0
C2463 C 0.02846 0.81474 0.77123 0.0
C2464 C 0.99672 0.83253 0.77515 0.0
C2465 C 0.0463 0.82458 0.76099 0.0
C2466 C 0.03299 0.85244 0.75421 0.0
H2467 H 0.04072 0.79417 0.77619 0.0
H2468 H 0.07185 0.81138 0.75846 0.0
S2469 S 0.9453 0.90165 0.76026 0.0
N2470 N 0.94922 0.87559 0.77112 0.0
N2471 N 0.98203 0.8935 0.75198 0.0
C2472 C 0.99967 0.86871 0.75794 0.0
C2473 C 0.98176 0.85892 0.76835 0.0
C2474 C 0.21653 0.18773 0.75656 0.0
C2475 C 0.17368 0.19246 0.75409 0.0
C2476 C 0.22627 0.17893 0.76675 0.0
C2477 C 0.19371 0.17465 0.77495 0.0
H2478 H 0.24215 0.18963 0.75054 0.0
H2479 H 0.25899 0.17426 0.76817 0.0
S2480 S 0.08006 0.19082 0.77281 0.0
N2481 N 0.10087 0.19647 0.76088 0.0
N2482 N 0.11924 0.18045 0.77991 0.0
C2483 C 0.15169 0.18102 0.77261 0.0
C2484 C 0.14171 0.18978 0.76225 0.0
C2485 C 0.81781 0.01372 0.76987 0.0
C2486 C 0.86666 0.03629 0.77444 0.0
C2487 C 0.80962 0.99614 0.75961 0.0
C2488 C 0.84995 1.00049 0.75341 0.0
H2489 H 0.78532 1.0086 0.77434 0.0
H2490 H 0.77108 0.9779 0.7566 0.0
S2491 S 0.98635 0.06223 0.76124 0.0
N2492 N 0.95667 0.06553 0.77161 0.0
N2493 N 0.94152 0.03319 0.75245 0.0
C2494 C 0.89926 0.02445 0.7578 0.0
C2495 C 0.90753 0.04212 0.76824 0.0
C2496 C 0.70125 0.55652 0.60486 0.0
C2497 C 0.66477 0.50733 0.6083 0.0
C2498 C 0.71941 0.56533 0.59464 0.0
C2499 C 0.70173 0.52536 0.58739 0.0
H2500 H 0.71688 0.58828 0.61019 0.0
H2501 H 0.74858 0.60354 0.59249 0.0
S2502 S 0.60102 0.39081 0.59208 0.0
N2503 N 0.60832 0.41907 0.60331 0.0
N2504 N 0.64175 0.43552 0.58421 0.0
C2505 C 0.66374 0.47641 0.59064 0.0
C2506 C 0.6455 0.46745 0.60103 0.0
C2507 C 0.52114 0.21571 0.6059 0.0
C2508 C 0.52226 0.17086 0.60837 0.0
C2509 C 0.51357 0.2268 0.59574 0.0
C2510 C 0.50666 0.19361 0.58749 0.0
H2511 H 0.52599 0.24258 0.6119 0.0
H2512 H 0.51286 0.26172 0.59434 0.0
S2513 S 0.50975 0.07278 0.58955 0.0
N2514 N 0.51797 0.0941 0.60148 0.0
N2515 N 0.50358 0.11475 0.58251 0.0
C2516 C 0.50776 0.14867 0.58983 0.0
C2517 C 0.51557 0.13739 0.60019 0.0
C2518 C 0.86179 0.39312 0.60059 0.0
C2519 C 0.87571 0.36985 0.60835 0.0
C2520 C 0.85321 0.37519 0.59038 0.0
C2521 C 0.85794 0.33292 0.58738 0.0
H2522 H 0.8576 0.42576 0.60242 0.0
H2523 H 0.84279 0.3948 0.58476 0.0
S2524 S 0.89086 0.2564 0.60483 0.0
N2525 N 0.89249 0.3012 0.61234 0.0
N2526 N 0.87595 0.26723 0.59326 0.0
C2527 C 0.87196 0.30931 0.59507 0.0
C2528 C 0.88091 0.32777 0.60549 0.0
C2529 C 0.67334 0.13928 0.09052 0.0
C2530 C 0.71187 0.1878 0.08717 0.0
C2531 C 0.65593 0.13045 0.10081 0.0
C2532 C 0.67637 0.16964 0.10827 0.0
H2533 H 0.65563 0.10805 0.08509 0.0
H2534 H 0.62528 0.09278 0.10288 0.0
S2535 S 0.7827 0.302 0.10381 0.0
N2536 N 0.77281 0.27447 0.09243 0.0
N2537 N 0.74083 0.25793 0.11163 0.0
C2538 C 0.71616 0.21788 0.10507 0.0
C2539 C 0.73365 0.2269 0.09461 0.0
C2540 C 0.86496 0.55073 0.10546 0.0
C2541 C 0.87766 0.51304 0.1079 0.0
C2542 C 0.85594 0.55962 0.09524 0.0
C2543 C 0.85858 0.53082 0.08697 0.0
H2544 H 0.862 0.5737 0.11151 0.0
H2545 H 0.84564 0.5886 0.09383 0.0
S2546 S 0.89059 0.42759 0.08914 0.0
N2547 N 0.89219 0.44651 0.10111 0.0
N2548 N 0.87616 0.46368 0.08199 0.0
C2549 C 0.87167 0.49329 0.0893 0.0
C2550 C 0.88104 0.48437 0.0997 0.0
C2551 C 0.534 0.32632 0.10505 0.0
C2552 C 0.52237 0.36372 0.10838 0.0
C2553 C 0.52485 0.308 0.09488 0.0
C2554 C 0.50348 0.32602 0.08751 0.0
H2555 H 0.55034 0.31089 0.11038 0.0
H2556 H 0.53447 0.27918 0.09278 0.0
S2557 S 0.46813 0.42557 0.092 0.0
N2558 N 0.48959 0.41923 0.10325 0.0
N2559 N 0.47209 0.38453 0.08423 0.0
C2560 C 0.49133 0.36316 0.09071 0.0
C2561 C 0.5008 0.382 0.10109 0.0
C2562 C 0.34275 0.87424 0.92459 0.0
C2563 C 0.37707 0.85913 0.9209 0.0
C2564 C 0.32505 0.86503 0.93486 0.0
C2565 C 0.34101 0.84049 0.94195 0.0
H2566 H 0.3285 0.89236 0.91943 0.0
H2567 H 0.29764 0.87622 0.93718 0.0
S2568 S 0.43569 0.7992 0.93657 0.0
N2569 N 0.42952 0.82208 0.92548 0.0
N2570 N 0.39701 0.80543 0.94465 0.0
C2571 C 0.37668 0.82678 0.93843 0.0
C2572 C 0.39446 0.83591 0.92798 0.0
C2573 C 0.16168 0.48649 0.93691 0.0
C2574 C 0.21126 0.49798 0.93983 0.0
C2575 C 0.15083 0.49536 0.92681 0.0
C2576 C 0.18901 0.51601 0.91916 0.0
H2577 H 0.13121 0.4717 0.94254 0.0
H2578 H 0.11242 0.48718 0.92507 0.0
S2579 S 0.32359 0.54671 0.92244 0.0
N2580 N 0.29787 0.52712 0.93392 0.0
N2581 N 0.27757 0.54345 0.91507 0.0
C2582 C 0.23832 0.52599 0.9219 0.0
C2583 C 0.24937 0.51708 0.93216 0.0
C2584 C 0.50224 0.69496 0.92374 0.0
C2585 C 0.51614 0.65947 0.92023 0.0
C2586 C 0.51109 0.71279 0.93395 0.0
C2587 C 0.53431 0.6961 0.94119 0.0
H2588 H 0.48442 0.70932 0.91854 0.0
H2589 H 0.49981 0.74021 0.93619 0.0
S2590 S 0.57566 0.60139 0.93619 0.0
N2591 N 0.55292 0.60701 0.92503 0.0
N2592 N 0.56968 0.64065 0.94413 0.0
C2593 C 0.54858 0.66075 0.9378 0.0
C2594 C 0.53949 0.64247 0.92738 0.0
C2595 C 0.33644 0.46984 0.43589 0.0
C2596 C 0.32804 0.50608 0.44101 0.0
C2597 C 0.35504 0.47769 0.42572 0.0
C2598 C 0.36536 0.52178 0.42014 0.0
H2599 H 0.32924 0.43534 0.43983 0.0
H2600 H 0.36097 0.4487 0.42217 0.0
S2601 S 0.34929 0.62828 0.4299 0.0
N2602 N 0.33085 0.58755 0.43957 0.0
N2603 N 0.36617 0.60248 0.42062 0.0
C2604 C 0.35685 0.55818 0.42515 0.0
C2605 C 0.33824 0.55035 0.43552 0.0
C2606 C 0.50834 0.81196 0.42371 0.0
C2607 C 0.51869 0.86065 0.42041 0.0
C2608 C 0.51675 0.80274 0.43395 0.0
C2609 C 0.53606 0.84174 0.44143 0.0
H2610 H 0.49373 0.78053 0.41831 0.0
H2611 H 0.5083 0.76461 0.436 0.0
S2612 S 0.56644 0.9753 0.43709 0.0
N2613 N 0.54735 0.94793 0.42573 0.0
N2614 N 0.56346 0.93069 0.44484 0.0
C2615 C 0.54657 0.8906 0.43826 0.0
C2616 C 0.53785 0.89999 0.42783 0.0
C2617 C 0.22821 0.72004 0.43388 0.0
C2618 C 0.19069 0.69912 0.44165 0.0
C2619 C 0.21808 0.7011 0.42375 0.0
C2620 C 0.16992 0.66019 0.42086 0.0
H2621 H 0.26595 0.75151 0.43564 0.0
H2622 H 0.24843 0.71878 0.41811 0.0
S2623 S 0.05898 0.58994 0.43836 0.0
N2624 N 0.1036 0.63412 0.44575 0.0
N2625 N 0.08464 0.59839 0.4268 0.0
C2626 C 0.13191 0.63903 0.42854 0.0
C2627 C 0.14224 0.65845 0.43887 0.0
loop_
_geom_bond_atom_site_label_1
_geom_bond_atom_site_label_2
_geom_bond_distance
_geom_bond_site_symmetry_2
_ccdc_geom_bond_type
Ho0 C3 2.811 . S
Ho0 O20 2.322 . S
Ho0 O22 2.378 . S
Ho0 O23 2.524 . S
Ho0 O24 2.381 . S
Ho0 O25 2.669 . S
Ho0 O27 2.346 . S
Ho0 O31 2.305 . S
Ho1 C12 2.811 . S
Ho1 O21 2.346 . S
Ho1 O25 2.305 . S
Ho1 O26 2.322 . S
Ho1 O28 2.378 . S
Ho1 O29 2.524 . S
Ho1 O30 2.381 . S
Ho1 O31 2.669 . S
C2 O20 1.259 . S
C2 O21 1.268 . S
C3 Ho0 2.811 . S
C3 C4 1.488 . S
C3 O22 1.215 . S
C3 O23 1.289 . S
C4 C3 1.488 . S
C4 C5 1.348 . S
C4 C9 1.413 . S
C5 C4 1.348 . S
C5 C6 1.442 . S
C5 H32 0.930 . S
C6 C5 1.442 . S
C6 C7 1.381 . S
C6 H33 0.931 . S
C7 C6 1.381 . S
C7 C8 1.321 . S
C8 C7 1.321 . S
C8 C9 1.403 . S
C8 H34 0.934 . S
C9 C4 1.413 . S
C9 C8 1.403 . S
C9 H35 0.930 . S
C10 O24 1.275 . S
C10 O25 1.256 . S
C11 O26 1.259 . S
C11 O27 1.268 . S
C12 Ho1 2.811 . S
C12 C13 1.488 . S
C12 O28 1.215 . S
C12 O29 1.289 . S
C13 C12 1.488 . S
C13 C14 1.348 . S
C13 C18 1.413 . S
C14 C13 1.348 . S
C14 C15 1.442 . S
C14 H36 0.930 . S
C15 C14 1.442 . S
C15 C16 1.381 . S
C15 H37 0.931 . S
C16 C15 1.381 . S
C16 C17 1.321 . S
C17 C16 1.321 . S
C17 C18 1.403 . S
C17 H38 0.934 . S
C18 C13 1.413 . S
C18 C17 1.403 . S
C18 H39 0.930 . S
C19 O30 1.275 . S
C19 O31 1.256 . S
O20 Ho0 2.322 . S
O20 C2 1.259 . S
O21 Ho1 2.346 . S
O21 C2 1.268 . S
O22 Ho0 2.378 . S
O22 C3 1.215 . S
O23 Ho0 2.524 . S
O23 C3 1.289 . S
O24 Ho0 2.381 . S
O24 C10 1.275 . S
O25 Ho0 2.669 . S
O25 Ho1 2.305 . S
O25 C10 1.256 . S
O26 Ho1 2.322 . S
O26 C11 1.259 . S
O27 Ho0 2.346 . S
O27 C11 1.268 . S
O28 Ho1 2.378 . S
O28 C12 1.215 . S
O29 Ho1 2.524 . S
O29 C12 1.289 . S
O30 Ho1 2.381 . S
O30 C19 1.275 . S
O31 Ho0 2.305 . S
O31 Ho1 2.669 . S
O31 C19 1.256 . S
H32 C5 0.930 . S
H33 C6 0.931 . S
H34 C8 0.934 . S
H35 C9 0.930 . S
H36 C14 0.930 . S
H37 C15 0.931 . S
H38 C17 0.934 . S
H39 C18 0.930 . S
Ho40 C43 2.811 . S
Ho40 O60 2.322 . S
Ho40 O62 2.378 . S
Ho40 O63 2.524 . S
Ho40 O64 2.381 . S
Ho40 O65 2.669 . S
Ho40 O67 2.346 . S
Ho40 O71 2.305 . S
Ho41 C52 2.811 . S
Ho41 O61 2.346 . S
Ho41 O65 2.305 . S
Ho41 O66 2.322 . S
Ho41 O68 2.378 . S
Ho41 O69 2.524 . S
Ho41 O70 2.381 . S
Ho41 O71 2.669 . S
C42 O60 1.259 . S
C42 O61 1.268 . S
C43 Ho40 2.811 . S
C43 C44 1.488 . S
C43 O62 1.215 . S
C43 O63 1.289 . S
C44 C43 1.488 . S
C44 C45 1.348 . S
C44 C49 1.413 . S
C45 C44 1.348 . S
C45 C46 1.442 . S
C45 H72 0.930 . S
C46 C45 1.442 . S
C46 C47 1.381 . S
C46 H73 0.931 . S
C47 C46 1.381 . S
C47 C48 1.321 . S
C48 C47 1.321 . S
C48 C49 1.403 . S
C48 H74 0.934 . S
C49 C44 1.413 . S
C49 C48 1.403 . S
C49 H75 0.930 . S
C50 O64 1.275 . S
C50 O65 1.256 . S
C51 O66 1.259 . S
C51 O67 1.268 . S
C52 Ho41 2.811 . S
C52 C53 1.488 . S
C52 O68 1.215 . S
C52 O69 1.289 . S
C53 C52 1.488 . S
C53 C54 1.348 . S
C53 C58 1.413 . S
C54 C53 1.348 . S
C54 C55 1.442 . S
C54 H76 0.930 . S
C55 C54 1.442 . S
C55 C56 1.381 . S
C55 H77 0.931 . S
C56 C55 1.381 . S
C56 C57 1.321 . S
C57 C56 1.321 . S
C57 C58 1.403 . S
C57 H78 0.934 . S
C58 C53 1.413 . S
C58 C57 1.403 . S
C58 H79 0.930 . S
C59 O70 1.275 . S
C59 O71 1.256 . S
O60 Ho40 2.322 . S
O60 C42 1.259 . S
O61 Ho41 2.346 . S
O61 C42 1.268 . S
O62 Ho40 2.378 . S
O62 C43 1.215 . S
O63 Ho40 2.524 . S
O63 C43 1.289 . S
O64 Ho40 2.381 . S
O64 C50 1.275 . S
O65 Ho40 2.669 . S
O65 Ho41 2.305 . S
O65 C50 1.256 . S
O66 Ho41 2.322 . S
O66 C51 1.259 . S
O67 Ho40 2.346 . S
O67 C51 1.268 . S
O68 Ho41 2.378 . S
O68 C52 1.215 . S
O69 Ho41 2.524 . S
O69 C52 1.289 . S
O70 Ho41 2.381 . S
O70 C59 1.275 . S
O71 Ho40 2.305 . S
O71 Ho41 2.669 . S
O71 C59 1.256 . S
H72 C45 0.930 . S
H73 C46 0.931 . S
H74 C48 0.934 . S
H75 C49 0.930 . S
H76 C54 0.930 . S
H77 C55 0.931 . S
H78 C57 0.934 . S
H79 C58 0.930 . S
Ho80 C83 2.811 . S
Ho80 O100 2.322 . S
Ho80 O102 2.378 . S
Ho80 O103 2.524 . S
Ho80 O104 2.381 . S
Ho80 O105 2.669 . S
Ho80 O107 2.346 . S
Ho80 O111 2.305 . S
Ho81 C92 2.811 . S
Ho81 O101 2.346 . S
Ho81 O105 2.305 . S
Ho81 O106 2.322 . S
Ho81 O108 2.378 . S
Ho81 O109 2.524 . S
Ho81 O110 2.381 . S
Ho81 O111 2.669 . S
C82 O100 1.259 . S
C82 O101 1.268 . S
C83 Ho80 2.811 . S
C83 C84 1.488 . S
C83 O102 1.215 . S
C83 O103 1.289 . S
C84 C83 1.488 . S
C84 C85 1.348 . S
C84 C89 1.413 . S
C85 C84 1.348 . S
C85 C86 1.442 . S
C85 H112 0.930 . S
C86 C85 1.442 . S
C86 C87 1.381 . S
C86 H113 0.931 . S
C87 C86 1.381 . S
C87 C88 1.321 . S
C88 C87 1.321 . S
C88 C89 1.403 . S
C88 H114 0.934 . S
C89 C84 1.413 . S
C89 C88 1.403 . S
C89 H115 0.930 . S
C90 O104 1.275 . S
C90 O105 1.256 . S
C91 O106 1.259 . S
C91 O107 1.268 . S
C92 Ho81 2.811 . S
C92 C93 1.488 . S
C92 O108 1.215 . S
C92 O109 1.289 . S
C93 C92 1.488 . S
C93 C94 1.348 . S
C93 C98 1.413 . S
C94 C93 1.348 . S
C94 C95 1.442 . S
C94 H116 0.930 . S
C95 C94 1.442 . S
C95 C96 1.381 . S
C95 H117 0.931 . S
C96 C95 1.381 . S
C96 C97 1.321 . S
C97 C96 1.321 . S
C97 C98 1.403 . S
C97 H118 0.934 . S
C98 C93 1.413 . S
C98 C97 1.403 . S
C98 H119 0.930 . S
C99 O110 1.275 . S
C99 O111 1.256 . S
O100 Ho80 2.322 . S
O100 C82 1.259 . S
O101 Ho81 2.346 . S
O101 C82 1.268 . S
O102 Ho80 2.378 . S
O102 C83 1.215 . S
O103 Ho80 2.524 . S
O103 C83 1.289 . S
O104 Ho80 2.381 . S
O104 C90 1.275 . S
O105 Ho80 2.669 . S
O105 Ho81 2.305 . S
O105 C90 1.256 . S
O106 Ho81 2.322 . S
O106 C91 1.259 . S
O107 Ho80 2.346 . S
O107 C91 1.268 . S
O108 Ho81 2.378 . S
O108 C92 1.215 . S
O109 Ho81 2.524 . S
O109 C92 1.289 . S
O110 Ho81 2.381 . S
O110 C99 1.275 . S
O111 Ho80 2.305 . S
O111 Ho81 2.669 . S
O111 C99 1.256 . S
H112 C85 0.930 . S
H113 C86 0.931 . S
H114 C88 0.934 . S
H115 C89 0.930 . S
H116 C94 0.930 . S
H117 C95 0.931 . S
H118 C97 0.934 . S
H119 C98 0.930 . S
Ho120 C123 2.811 . S
Ho120 O140 2.322 . S
Ho120 O142 2.378 . S
Ho120 O143 2.524 . S
Ho120 O144 2.381 . S
Ho120 O145 2.669 . S
Ho120 O147 2.346 . S
Ho120 O151 2.305 . S
Ho121 C132 2.811 . S
Ho121 O141 2.346 . S
Ho121 O145 2.305 . S
Ho121 O146 2.322 . S
Ho121 O148 2.378 . S
Ho121 O149 2.524 . S
Ho121 O150 2.381 . S
Ho121 O151 2.669 . S
C122 O140 1.259 . S
C122 O141 1.268 . S
C123 Ho120 2.811 . S
C123 C124 1.488 . S
C123 O142 1.215 . S
C123 O143 1.289 . S
C124 C123 1.488 . S
C124 C125 1.348 . S
C124 C129 1.413 . S
C125 C124 1.348 . S
C125 C126 1.442 . S
C125 H152 0.930 . S
C126 C125 1.442 . S
C126 C127 1.381 . S
C126 H153 0.931 . S
C127 C126 1.381 . S
C127 C128 1.321 . S
C128 C127 1.321 . S
C128 C129 1.403 . S
C128 H154 0.934 . S
C129 C124 1.413 . S
C129 C128 1.403 . S
C129 H155 0.930 . S
C130 O144 1.275 . S
C130 O145 1.256 . S
C131 O146 1.259 . S
C131 O147 1.268 . S
C132 Ho121 2.811 . S
C132 C133 1.488 . S
C132 O148 1.215 . S
C132 O149 1.289 . S
C133 C132 1.488 . S
C133 C134 1.348 . S
C133 C138 1.413 . S
C134 C133 1.348 . S
C134 C135 1.442 . S
C134 H156 0.930 . S
C135 C134 1.442 . S
C135 C136 1.381 . S
C135 H157 0.931 . S
C136 C135 1.381 . S
C136 C137 1.321 . S
C137 C136 1.321 . S
C137 C138 1.403 . S
C137 H158 0.934 . S
C138 C133 1.413 . S
C138 C137 1.403 . S
C138 H159 0.930 . S
C139 O150 1.275 . S
C139 O151 1.256 . S
O140 Ho120 2.322 . S
O140 C122 1.259 . S
O141 Ho121 2.346 . S
O141 C122 1.268 . S
O142 Ho120 2.378 . S
O142 C123 1.215 . S
O143 Ho120 2.524 . S
O143 C123 1.289 . S
O144 Ho120 2.381 . S
O144 C130 1.275 . S
O145 Ho120 2.669 . S
O145 Ho121 2.305 . S
O145 C130 1.256 . S
O146 Ho121 2.322 . S
O146 C131 1.259 . S
O147 Ho120 2.346 . S
O147 C131 1.268 . S
O148 Ho121 2.378 . S
O148 C132 1.215 . S
O149 Ho121 2.524 . S
O149 C132 1.289 . S
O150 Ho121 2.381 . S
O150 C139 1.275 . S
O151 Ho120 2.305 . S
O151 Ho121 2.669 . S
O151 C139 1.256 . S
H152 C125 0.930 . S
H153 C126 0.931 . S
H154 C128 0.934 . S
H155 C129 0.930 . S
H156 C134 0.930 . S
H157 C135 0.931 . S
H158 C137 0.934 . S
H159 C138 0.930 . S
Ho160 C163 2.811 . S
Ho160 O180 2.322 . S
Ho160 O182 2.378 . S
Ho160 O183 2.524 . S
Ho160 O184 2.381 . S
Ho160 O185 2.669 . S
Ho160 O187 2.346 . S
Ho160 O191 2.305 . S
Ho161 C172 2.811 . S
Ho161 O181 2.346 . S
Ho161 O185 2.305 . S
Ho161 O186 2.322 . S
Ho161 O188 2.378 . S
Ho161 O189 2.524 . S
Ho161 O190 2.381 . S
Ho161 O191 2.669 . S
C162 O180 1.259 . S
C162 O181 1.268 . S
C163 Ho160 2.811 . S
C163 C164 1.488 . S
C163 O182 1.215 . S
C163 O183 1.289 . S
C164 C163 1.488 . S
C164 C165 1.348 . S
C164 C169 1.413 . S
C165 C164 1.348 . S
C165 C166 1.442 . S
C165 H192 0.930 . S
C166 C165 1.442 . S
C166 C167 1.381 . S
C166 H193 0.931 . S
C167 C166 1.381 . S
C167 C168 1.321 . S
C168 C167 1.321 . S
C168 C169 1.403 . S
C168 H194 0.934 . S
C169 C164 1.413 . S
C169 C168 1.403 . S
C169 H195 0.930 . S
C170 O184 1.275 . S
C170 O185 1.256 . S
C171 O186 1.259 . S
C171 O187 1.268 . S
C172 Ho161 2.811 . S
C172 C173 1.488 . S
C172 O188 1.215 . S
C172 O189 1.289 . S
C173 C172 1.488 . S
C173 C174 1.348 . S
C173 C178 1.413 . S
C174 C173 1.348 . S
C174 C175 1.442 . S
C174 H196 0.930 . S
C175 C174 1.442 . S
C175 C176 1.381 . S
C175 H197 0.931 . S
C176 C175 1.381 . S
C176 C177 1.321 . S
C177 C176 1.321 . S
C177 C178 1.403 . S
C177 H198 0.934 . S
C178 C173 1.413 . S
C178 C177 1.403 . S
C178 H199 0.930 . S
C179 O190 1.275 . S
C179 O191 1.256 . S
O180 Ho160 2.322 . S
O180 C162 1.259 . S
O181 Ho161 2.346 . S
O181 C162 1.268 . S
O182 Ho160 2.378 . S
O182 C163 1.215 . S
O183 Ho160 2.524 . S
O183 C163 1.289 . S
O184 Ho160 2.381 . S
O184 C170 1.275 . S
O185 Ho160 2.669 . S
O185 Ho161 2.305 . S
O185 C170 1.256 . S
O186 Ho161 2.322 . S
O186 C171 1.259 . S
O187 Ho160 2.346 . S
O187 C171 1.268 . S
O188 Ho161 2.378 . S
O188 C172 1.215 . S
O189 Ho161 2.524 . S
O189 C172 1.289 . S
O190 Ho161 2.381 . S
O190 C179 1.275 . S
O191 Ho160 2.305 . S
O191 Ho161 2.669 . S
O191 C179 1.256 . S
H192 C165 0.930 . S
H193 C166 0.931 . S
H194 C168 0.934 . S
H195 C169 0.930 . S
H196 C174 0.930 . S
H197 C175 0.931 . S
H198 C177 0.934 . S
H199 C178 0.930 . S
Ho200 C203 2.811 . S
Ho200 O220 2.322 . S
Ho200 O222 2.378 . S
Ho200 O223 2.524 . S
Ho200 O224 2.381 . S
Ho200 O225 2.669 . S
Ho200 O227 2.346 . S
Ho200 O231 2.305 . S
Ho201 C212 2.811 . S
Ho201 O221 2.346 . S
Ho201 O225 2.305 . S
Ho201 O226 2.322 . S
Ho201 O228 2.378 . S
Ho201 O229 2.524 . S
Ho201 O230 2.381 . S
Ho201 O231 2.669 . S
C202 O220 1.259 . S
C202 O221 1.268 . S
C203 Ho200 2.811 . S
C203 C204 1.488 . S
C203 O222 1.215 . S
C203 O223 1.289 . S
C204 C203 1.488 . S
C204 C205 1.348 . S
C204 C209 1.413 . S
C205 C204 1.348 . S
C205 C206 1.442 . S
C205 H232 0.930 . S
C206 C205 1.442 . S
C206 C207 1.381 . S
C206 H233 0.931 . S
C207 C206 1.381 . S
C207 C208 1.321 . S
C208 C207 1.321 . S
C208 C209 1.403 . S
C208 H234 0.934 . S
C209 C204 1.413 . S
C209 C208 1.403 . S
C209 H235 0.930 . S
C210 O224 1.275 . S
C210 O225 1.256 . S
C211 O226 1.259 . S
C211 O227 1.268 . S
C212 Ho201 2.811 . S
C212 C213 1.488 . S
C212 O228 1.215 . S
C212 O229 1.289 . S
C213 C212 1.488 . S
C213 C214 1.348 . S
C213 C218 1.413 . S
C214 C213 1.348 . S
C214 C215 1.442 . S
C214 H236 0.930 . S
C215 C214 1.442 . S
C215 C216 1.381 . S
C215 H237 0.931 . S
C216 C215 1.381 . S
C216 C217 1.321 . S
C217 C216 1.321 . S
C217 C218 1.403 . S
C217 H238 0.934 . S
C218 C213 1.413 . S
C218 C217 1.403 . S
C218 H239 0.930 . S
C219 O230 1.275 . S
C219 O231 1.256 . S
O220 Ho200 2.322 . S
O220 C202 1.259 . S
O221 Ho201 2.346 . S
O221 C202 1.268 . S
O222 Ho200 2.378 . S
O222 C203 1.215 . S
O223 Ho200 2.524 . S
O223 C203 1.289 . S
O224 Ho200 2.381 . S
O224 C210 1.275 . S
O225 Ho200 2.669 . S
O225 Ho201 2.305 . S
O225 C210 1.256 . S
O226 Ho201 2.322 . S
O226 C211 1.259 . S
O227 Ho200 2.346 . S
O227 C211 1.268 . S
O228 Ho201 2.378 . S
O228 C212 1.215 . S
O229 Ho201 2.524 . S
O229 C212 1.289 . S
O230 Ho201 2.381 . S
O230 C219 1.275 . S
O231 Ho200 2.305 . S
O231 Ho201 2.669 . S
O231 C219 1.256 . S
H232 C205 0.930 . S
H233 C206 0.931 . S
H234 C208 0.934 . S
H235 C209 0.930 . S
H236 C214 0.930 . S
H237 C215 0.931 . S
H238 C217 0.934 . S
H239 C218 0.930 . S
Ho240 C243 2.811 . S
Ho240 O260 2.322 . S
Ho240 O262 2.378 . S
Ho240 O263 2.524 . S
Ho240 O264 2.381 . S
Ho240 O265 2.669 . S
Ho240 O267 2.346 . S
Ho240 O271 2.305 . S
Ho241 C252 2.811 . S
Ho241 O261 2.346 . S
Ho241 O265 2.305 . S
Ho241 O266 2.322 . S
Ho241 O268 2.378 . S
Ho241 O269 2.524 . S
Ho241 O270 2.381 . S
Ho241 O271 2.669 . S
C242 O260 1.259 . S
C242 O261 1.268 . S
C243 Ho240 2.811 . S
C243 C244 1.488 . S
C243 O262 1.215 . S
C243 O263 1.289 . S
C244 C243 1.488 . S
C244 C245 1.348 . S
C244 C249 1.413 . S
C245 C244 1.348 . S
C245 C246 1.442 . S
C245 H272 0.930 . S
C246 C245 1.442 . S
C246 C247 1.381 . S
C246 H273 0.931 . S
C247 C246 1.381 . S
C247 C248 1.321 . S
C248 C247 1.321 . S
C248 C249 1.403 . S
C248 H274 0.934 . S
C249 C244 1.413 . S
C249 C248 1.403 . S
C249 H275 0.930 . S
C250 O264 1.275 . S
C250 O265 1.256 . S
C251 O266 1.259 . S
C251 O267 1.268 . S
C252 Ho241 2.811 . S
C252 C253 1.488 . S
C252 O268 1.215 . S
C252 O269 1.289 . S
C253 C252 1.488 . S
C253 C254 1.348 . S
C253 C258 1.413 . S
C254 C253 1.348 . S
C254 C255 1.442 . S
C254 H276 0.930 . S
C255 C254 1.442 . S
C255 C256 1.381 . S
C255 H277 0.931 . S
C256 C255 1.381 . S
C256 C257 1.321 . S
C257 C256 1.321 . S
C257 C258 1.403 . S
C257 H278 0.934 . S
C258 C253 1.413 . S
C258 C257 1.403 . S
C258 H279 0.930 . S
C259 O270 1.275 . S
C259 O271 1.256 . S
O260 Ho240 2.322 . S
O260 C242 1.259 . S
O261 Ho241 2.346 . S
O261 C242 1.268 . S
O262 Ho240 2.378 . S
O262 C243 1.215 . S
O263 Ho240 2.524 . S
O263 C243 1.289 . S
O264 Ho240 2.381 . S
O264 C250 1.275 . S
O265 Ho240 2.669 . S
O265 Ho241 2.305 . S
O265 C250 1.256 . S
O266 Ho241 2.322 . S
O266 C251 1.259 . S
O267 Ho240 2.346 . S
O267 C251 1.268 . S
O268 Ho241 2.378 . S
O268 C252 1.215 . S
O269 Ho241 2.524 . S
O269 C252 1.289 . S
O270 Ho241 2.381 . S
O270 C259 1.275 . S
O271 Ho240 2.305 . S
O271 Ho241 2.669 . S
O271 C259 1.256 . S
H272 C245 0.930 . S
H273 C246 0.931 . S
H274 C248 0.934 . S
H275 C249 0.930 . S
H276 C254 0.930 . S
H277 C255 0.931 . S
H278 C257 0.934 . S
H279 C258 0.930 . S
Ho280 C283 2.811 . S
Ho280 O300 2.322 . S
Ho280 O302 2.378 . S
Ho280 O303 2.524 . S
Ho280 O304 2.381 . S
Ho280 O305 2.669 . S
Ho280 O307 2.346 . S
Ho280 O311 2.305 . S
Ho281 C292 2.811 . S
Ho281 O301 2.346 . S
Ho281 O305 2.305 . S
Ho281 O306 2.322 . S
Ho281 O308 2.378 . S
Ho281 O309 2.524 . S
Ho281 O310 2.381 . S
Ho281 O311 2.669 . S
C282 O300 1.259 . S
C282 O301 1.268 . S
C283 Ho280 2.811 . S
C283 C284 1.488 . S
C283 O302 1.215 . S
C283 O303 1.289 . S
C284 C283 1.488 . S
C284 C285 1.348 . S
C284 C289 1.413 . S
C285 C284 1.348 . S
C285 C286 1.442 . S
C285 H312 0.930 . S
C286 C285 1.442 . S
C286 C287 1.381 . S
C286 H313 0.931 . S
C287 C286 1.381 . S
C287 C288 1.321 . S
C288 C287 1.321 . S
C288 C289 1.403 . S
C288 H314 0.934 . S
C289 C284 1.413 . S
C289 C288 1.403 . S
C289 H315 0.930 . S
C290 O304 1.275 . S
C290 O305 1.256 . S
C291 O306 1.259 . S
C291 O307 1.268 . S
C292 Ho281 2.811 . S
C292 C293 1.488 . S
C292 O308 1.215 . S
C292 O309 1.289 . S
C293 C292 1.488 . S
C293 C294 1.348 . S
C293 C298 1.413 . S
C294 C293 1.348 . S
C294 C295 1.442 . S
C294 H316 0.930 . S
C295 C294 1.442 . S
C295 C296 1.381 . S
C295 H317 0.931 . S
C296 C295 1.381 . S
C296 C297 1.321 . S
C297 C296 1.321 . S
C297 C298 1.403 . S
C297 H318 0.934 . S
C298 C293 1.413 . S
C298 C297 1.403 . S
C298 H319 0.930 . S
C299 O310 1.275 . S
C299 O311 1.256 . S
O300 Ho280 2.322 . S
O300 C282 1.259 . S
O301 Ho281 2.346 . S
O301 C282 1.268 . S
O302 Ho280 2.378 . S
O302 C283 1.215 . S
O303 Ho280 2.524 . S
O303 C283 1.289 . S
O304 Ho280 2.381 . S
O304 C290 1.275 . S
O305 Ho280 2.669 . S
O305 Ho281 2.305 . S
O305 C290 1.256 . S
O306 Ho281 2.322 . S
O306 C291 1.259 . S
O307 Ho280 2.346 . S
O307 C291 1.268 . S
O308 Ho281 2.378 . S
O308 C292 1.215 . S
O309 Ho281 2.524 . S
O309 C292 1.289 . S
O310 Ho281 2.381 . S
O310 C299 1.275 . S
O311 Ho280 2.305 . S
O311 Ho281 2.669 . S
O311 C299 1.256 . S
H312 C285 0.930 . S
H313 C286 0.931 . S
H314 C288 0.934 . S
H315 C289 0.930 . S
H316 C294 0.930 . S
H317 C295 0.931 . S
H318 C297 0.934 . S
H319 C298 0.930 . S
Ho320 C323 2.811 . S
Ho320 O340 2.322 . S
Ho320 O342 2.378 . S
Ho320 O343 2.524 . S
Ho320 O344 2.381 . S
Ho320 O345 2.669 . S
Ho320 O347 2.346 . S
Ho320 O351 2.305 . S
Ho321 C332 2.811 . S
Ho321 O341 2.346 . S
Ho321 O345 2.305 . S
Ho321 O346 2.322 . S
Ho321 O348 2.378 . S
Ho321 O349 2.524 . S
Ho321 O350 2.381 . S
Ho321 O351 2.669 . S
C322 O340 1.259 . S
C322 O341 1.268 . S
C323 Ho320 2.811 . S
C323 C324 1.488 . S
C323 O342 1.215 . S
C323 O343 1.289 . S
C324 C323 1.488 . S
C324 C325 1.348 . S
C324 C329 1.413 . S
C325 C324 1.348 . S
C325 C326 1.442 . S
C325 H352 0.930 . S
C326 C325 1.442 . S
C326 C327 1.381 . S
C326 H353 0.931 . S
C327 C326 1.381 . S
C327 C328 1.321 . S
C328 C327 1.321 . S
C328 C329 1.403 . S
C328 H354 0.934 . S
C329 C324 1.413 . S
C329 C328 1.403 . S
C329 H355 0.930 . S
C330 O344 1.275 . S
C330 O345 1.256 . S
C331 O346 1.259 . S
C331 O347 1.268 . S
C332 Ho321 2.811 . S
C332 C333 1.488 . S
C332 O348 1.215 . S
C332 O349 1.289 . S
C333 C332 1.488 . S
C333 C334 1.348 . S
C333 C338 1.413 . S
C334 C333 1.348 . S
C334 C335 1.442 . S
C334 H356 0.930 . S
C335 C334 1.442 . S
C335 C336 1.381 . S
C335 H357 0.931 . S
C336 C335 1.381 . S
C336 C337 1.321 . S
C337 C336 1.321 . S
C337 C338 1.403 . S
C337 H358 0.934 . S
C338 C333 1.413 . S
C338 C337 1.403 . S
C338 H359 0.930 . S
C339 O350 1.275 . S
C339 O351 1.256 . S
O340 Ho320 2.322 . S
O340 C322 1.259 . S
O341 Ho321 2.346 . S
O341 C322 1.268 . S
O342 Ho320 2.378 . S
O342 C323 1.215 . S
O343 Ho320 2.524 . S
O343 C323 1.289 . S
O344 Ho320 2.381 . S
O344 C330 1.275 . S
O345 Ho320 2.669 . S
O345 Ho321 2.305 . S
O345 C330 1.256 . S
O346 Ho321 2.322 . S
O346 C331 1.259 . S
O347 Ho320 2.346 . S
O347 C331 1.268 . S
O348 Ho321 2.378 . S
O348 C332 1.215 . S
O349 Ho321 2.524 . S
O349 C332 1.289 . S
O350 Ho321 2.381 . S
O350 C339 1.275 . S
O351 Ho320 2.305 . S
O351 Ho321 2.669 . S
O351 C339 1.256 . S
H352 C325 0.930 . S
H353 C326 0.931 . S
H354 C328 0.934 . S
H355 C329 0.930 . S
H356 C334 0.930 . S
H357 C335 0.931 . S
H358 C337 0.934 . S
H359 C338 0.930 . S
Ho360 C363 2.811 . S
Ho360 O380 2.322 . S
Ho360 O382 2.378 . S
Ho360 O383 2.524 . S
Ho360 O384 2.381 . S
Ho360 O385 2.669 . S
Ho360 O387 2.346 . S
Ho360 O391 2.305 . S
Ho361 C372 2.811 . S
Ho361 O381 2.346 . S
Ho361 O385 2.305 . S
Ho361 O386 2.322 . S
Ho361 O388 2.378 . S
Ho361 O389 2.524 . S
Ho361 O390 2.381 . S
Ho361 O391 2.669 . S
C362 O380 1.259 . S
C362 O381 1.268 . S
C363 Ho360 2.811 . S
C363 C364 1.488 . S
C363 O382 1.215 . S
C363 O383 1.289 . S
C364 C363 1.488 . S
C364 C365 1.348 . S
C364 C369 1.413 . S
C365 C364 1.348 . S
C365 C366 1.442 . S
C365 H392 0.930 . S
C366 C365 1.442 . S
C366 C367 1.381 . S
C366 H393 0.931 . S
C367 C366 1.381 . S
C367 C368 1.321 . S
C368 C367 1.321 . S
C368 C369 1.403 . S
C368 H394 0.934 . S
C369 C364 1.413 . S
C369 C368 1.403 . S
C369 H395 0.930 . S
C370 O384 1.275 . S
C370 O385 1.256 . S
C371 O386 1.259 . S
C371 O387 1.268 . S
C372 Ho361 2.811 . S
C372 C373 1.488 . S
C372 O388 1.215 . S
C372 O389 1.289 . S
C373 C372 1.488 . S
C373 C374 1.348 . S
C373 C378 1.413 . S
C374 C373 1.348 . S
C374 C375 1.442 . S
C374 H396 0.930 . S
C375 C374 1.442 . S
C375 C376 1.381 . S
C375 H397 0.931 . S
C376 C375 1.381 . S
C376 C377 1.321 . S
C377 C376 1.321 . S
C377 C378 1.403 . S
C377 H398 0.934 . S
C378 C373 1.413 . S
C378 C377 1.403 . S
C378 H399 0.930 . S
C379 O390 1.275 . S
C379 O391 1.256 . S
O380 Ho360 2.322 . S
O380 C362 1.259 . S
O381 Ho361 2.346 . S
O381 C362 1.268 . S
O382 Ho360 2.378 . S
O382 C363 1.215 . S
O383 Ho360 2.524 . S
O383 C363 1.289 . S
O384 Ho360 2.381 . S
O384 C370 1.275 . S
O385 Ho360 2.669 . S
O385 Ho361 2.305 . S
O385 C370 1.256 . S
O386 Ho361 2.322 . S
O386 C371 1.259 . S
O387 Ho360 2.346 . S
O387 C371 1.268 . S
O388 Ho361 2.378 . S
O388 C372 1.215 . S
O389 Ho361 2.524 . S
O389 C372 1.289 . S
O390 Ho361 2.381 . S
O390 C379 1.275 . S
O391 Ho360 2.305 . S
O391 Ho361 2.669 . S
O391 C379 1.256 . S
H392 C365 0.930 . S
H393 C366 0.931 . S
H394 C368 0.934 . S
H395 C369 0.930 . S
H396 C374 0.930 . S
H397 C375 0.931 . S
H398 C377 0.934 . S
H399 C378 0.930 . S
Ho400 C403 2.811 . S
Ho400 O420 2.322 . S
Ho400 O422 2.378 . S
Ho400 O423 2.524 . S
Ho400 O424 2.381 . S
Ho400 O425 2.669 . S
Ho400 O427 2.346 . S
Ho400 O431 2.305 . S
Ho401 C412 2.811 . S
Ho401 O421 2.346 . S
Ho401 O425 2.305 . S
Ho401 O426 2.322 . S
Ho401 O428 2.378 . S
Ho401 O429 2.524 . S
Ho401 O430 2.381 . S
Ho401 O431 2.669 . S
C402 O420 1.259 . S
C402 O421 1.268 . S
C403 Ho400 2.811 . S
C403 C404 1.488 . S
C403 O422 1.215 . S
C403 O423 1.289 . S
C404 C403 1.488 . S
C404 C405 1.348 . S
C404 C409 1.413 . S
C405 C404 1.348 . S
C405 C406 1.442 . S
C405 H432 0.930 . S
C406 C405 1.442 . S
C406 C407 1.381 . S
C406 H433 0.931 . S
C407 C406 1.381 . S
C407 C408 1.321 . S
C408 C407 1.321 . S
C408 C409 1.403 . S
C408 H434 0.934 . S
C409 C404 1.413 . S
C409 C408 1.403 . S
C409 H435 0.930 . S
C410 O424 1.275 . S
C410 O425 1.256 . S
C411 O426 1.259 . S
C411 O427 1.268 . S
C412 Ho401 2.811 . S
C412 C413 1.488 . S
C412 O428 1.215 . S
C412 O429 1.289 . S
C413 C412 1.488 . S
C413 C414 1.348 . S
C413 C418 1.413 . S
C414 C413 1.348 . S
C414 C415 1.442 . S
C414 H436 0.930 . S
C415 C414 1.442 . S
C415 C416 1.381 . S
C415 H437 0.931 . S
C416 C415 1.381 . S
C416 C417 1.321 . S
C417 C416 1.321 . S
C417 C418 1.403 . S
C417 H438 0.934 . S
C418 C413 1.413 . S
C418 C417 1.403 . S
C418 H439 0.930 . S
C419 O430 1.275 . S
C419 O431 1.256 . S
O420 Ho400 2.322 . S
O420 C402 1.259 . S
O421 Ho401 2.346 . S
O421 C402 1.268 . S
O422 Ho400 2.378 . S
O422 C403 1.215 . S
O423 Ho400 2.524 . S
O423 C403 1.289 . S
O424 Ho400 2.381 . S
O424 C410 1.275 . S
O425 Ho400 2.669 . S
O425 Ho401 2.305 . S
O425 C410 1.256 . S
O426 Ho401 2.322 . S
O426 C411 1.259 . S
O427 Ho400 2.346 . S
O427 C411 1.268 . S
O428 Ho401 2.378 . S
O428 C412 1.215 . S
O429 Ho401 2.524 . S
O429 C412 1.289 . S
O430 Ho401 2.381 . S
O430 C419 1.275 . S
O431 Ho400 2.305 . S
O431 Ho401 2.669 . S
O431 C419 1.256 . S
H432 C405 0.930 . S
H433 C406 0.931 . S
H434 C408 0.934 . S
H435 C409 0.930 . S
H436 C414 0.930 . S
H437 C415 0.931 . S
H438 C417 0.934 . S
H439 C418 0.930 . S
Ho440 C443 2.811 . S
Ho440 O460 2.322 . S
Ho440 O462 2.378 . S
Ho440 O463 2.524 . S
Ho440 O464 2.381 . S
Ho440 O465 2.669 . S
Ho440 O467 2.346 . S
Ho440 O471 2.305 . S
Ho441 C452 2.811 . S
Ho441 O461 2.346 . S
Ho441 O465 2.305 . S
Ho441 O466 2.322 . S
Ho441 O468 2.378 . S
Ho441 O469 2.524 . S
Ho441 O470 2.381 . S
Ho441 O471 2.669 . S
C442 O460 1.259 . S
C442 O461 1.268 . S
C443 Ho440 2.811 . S
C443 C444 1.488 . S
C443 O462 1.215 . S
C443 O463 1.289 . S
C444 C443 1.488 . S
C444 C445 1.348 . S
C444 C449 1.413 . S
C445 C444 1.348 . S
C445 C446 1.442 . S
C445 H472 0.930 . S
C446 C445 1.442 . S
C446 C447 1.381 . S
C446 H473 0.931 . S
C447 C446 1.381 . S
C447 C448 1.321 . S
C448 C447 1.321 . S
C448 C449 1.403 . S
C448 H474 0.934 . S
C449 C444 1.413 . S
C449 C448 1.403 . S
C449 H475 0.930 . S
C450 O464 1.275 . S
C450 O465 1.256 . S
C451 O466 1.259 . S
C451 O467 1.268 . S
C452 Ho441 2.811 . S
C452 C453 1.488 . S
C452 O468 1.215 . S
C452 O469 1.289 . S
C453 C452 1.488 . S
C453 C454 1.348 . S
C453 C458 1.413 . S
C454 C453 1.348 . S
C454 C455 1.442 . S
C454 H476 0.930 . S
C455 C454 1.442 . S
C455 C456 1.381 . S
C455 H477 0.931 . S
C456 C455 1.381 . S
C456 C457 1.321 . S
C457 C456 1.321 . S
C457 C458 1.403 . S
C457 H478 0.934 . S
C458 C453 1.413 . S
C458 C457 1.403 . S
C458 H479 0.930 . S
C459 O470 1.275 . S
C459 O471 1.256 . S
O460 Ho440 2.322 . S
O460 C442 1.259 . S
O461 Ho441 2.346 . S
O461 C442 1.268 . S
O462 Ho440 2.378 . S
O462 C443 1.215 . S
O463 Ho440 2.524 . S
O463 C443 1.289 . S
O464 Ho440 2.381 . S
O464 C450 1.275 . S
O465 Ho440 2.669 . S
O465 Ho441 2.305 . S
O465 C450 1.256 . S
O466 Ho441 2.322 . S
O466 C451 1.259 . S
O467 Ho440 2.346 . S
O467 C451 1.268 . S
O468 Ho441 2.378 . S
O468 C452 1.215 . S
O469 Ho441 2.524 . S
O469 C452 1.289 . S
O470 Ho441 2.381 . S
O470 C459 1.275 . S
O471 Ho440 2.305 . S
O471 Ho441 2.669 . S
O471 C459 1.256 . S
H472 C445 0.930 . S
H473 C446 0.931 . S
H474 C448 0.934 . S
H475 C449 0.930 . S
H476 C454 0.930 . S
H477 C455 0.931 . S
H478 C457 0.934 . S
H479 C458 0.930 . S
Ho480 C483 2.811 . S
Ho480 O500 2.322 . S
Ho480 O502 2.378 . S
Ho480 O503 2.524 . S
Ho480 O504 2.381 . S
Ho480 O505 2.669 . S
Ho480 O507 2.346 . S
Ho480 O511 2.305 . S
Ho481 C492 2.811 . S
Ho481 O501 2.346 . S
Ho481 O505 2.305 . S
Ho481 O506 2.322 . S
Ho481 O508 2.378 . S
Ho481 O509 2.524 . S
Ho481 O510 2.381 . S
Ho481 O511 2.669 . S
C482 O500 1.259 . S
C482 O501 1.268 . S
C483 Ho480 2.811 . S
C483 C484 1.488 . S
C483 O502 1.215 . S
C483 O503 1.289 . S
C484 C483 1.488 . S
C484 C485 1.348 . S
C484 C489 1.413 . S
C485 C484 1.348 . S
C485 C486 1.442 . S
C485 H512 0.930 . S
C486 C485 1.442 . S
C486 C487 1.381 . S
C486 H513 0.931 . S
C487 C486 1.381 . S
C487 C488 1.321 . S
C488 C487 1.321 . S
C488 C489 1.403 . S
C488 H514 0.934 . S
C489 C484 1.413 . S
C489 C488 1.403 . S
C489 H515 0.930 . S
C490 O504 1.275 . S
C490 O505 1.256 . S
C491 O506 1.259 . S
C491 O507 1.268 . S
C492 Ho481 2.811 . S
C492 C493 1.488 . S
C492 O508 1.215 . S
C492 O509 1.289 . S
C493 C492 1.488 . S
C493 C494 1.348 . S
C493 C498 1.413 . S
C494 C493 1.348 . S
C494 C495 1.442 . S
C494 H516 0.930 . S
C495 C494 1.442 . S
C495 C496 1.381 . S
C495 H517 0.931 . S
C496 C495 1.381 . S
C496 C497 1.321 . S
C497 C496 1.321 . S
C497 C498 1.403 . S
C497 H518 0.934 . S
C498 C493 1.413 . S
C498 C497 1.403 . S
C498 H519 0.930 . S
C499 O510 1.275 . S
C499 O511 1.256 . S
O500 Ho480 2.322 . S
O500 C482 1.259 . S
O501 Ho481 2.346 . S
O501 C482 1.268 . S
O502 Ho480 2.378 . S
O502 C483 1.215 . S
O503 Ho480 2.524 . S
O503 C483 1.289 . S
O504 Ho480 2.381 . S
O504 C490 1.275 . S
O505 Ho480 2.669 . S
O505 Ho481 2.305 . S
O505 C490 1.256 . S
O506 Ho481 2.322 . S
O506 C491 1.259 . S
O507 Ho480 2.346 . S
O507 C491 1.268 . S
O508 Ho481 2.378 . S
O508 C492 1.215 . S
O509 Ho481 2.524 . S
O509 C492 1.289 . S
O510 Ho481 2.381 . S
O510 C499 1.275 . S
O511 Ho480 2.305 . S
O511 Ho481 2.669 . S
O511 C499 1.256 . S
H512 C485 0.930 . S
H513 C486 0.931 . S
H514 C488 0.934 . S
H515 C489 0.930 . S
H516 C494 0.930 . S
H517 C495 0.931 . S
H518 C497 0.934 . S
H519 C498 0.930 . S
Ho520 C523 2.811 . S
Ho520 O540 2.322 . S
Ho520 O542 2.378 . S
Ho520 O543 2.524 . S
Ho520 O544 2.381 . S
Ho520 O545 2.669 . S
Ho520 O547 2.346 . S
Ho520 O551 2.305 . S
Ho521 C532 2.811 . S
Ho521 O541 2.346 . S
Ho521 O545 2.305 . S
Ho521 O546 2.322 . S
Ho521 O548 2.378 . S
Ho521 O549 2.524 . S
Ho521 O550 2.381 . S
Ho521 O551 2.669 . S
C522 O540 1.259 . S
C522 O541 1.268 . S
C523 Ho520 2.811 . S
C523 C524 1.488 . S
C523 O542 1.215 . S
C523 O543 1.289 . S
C524 C523 1.488 . S
C524 C525 1.348 . S
C524 C529 1.413 . S
C525 C524 1.348 . S
C525 C526 1.442 . S
C525 H552 0.930 . S
C526 C525 1.442 . S
C526 C527 1.381 . S
C526 H553 0.931 . S
C527 C526 1.381 . S
C527 C528 1.321 . S
C528 C527 1.321 . S
C528 C529 1.403 . S
C528 H554 0.934 . S
C529 C524 1.413 . S
C529 C528 1.403 . S
C529 H555 0.930 . S
C530 O544 1.275 . S
C530 O545 1.256 . S
C531 O546 1.259 . S
C531 O547 1.268 . S
C532 Ho521 2.811 . S
C532 C533 1.488 . S
C532 O548 1.215 . S
C532 O549 1.289 . S
C533 C532 1.488 . S
C533 C534 1.348 . S
C533 C538 1.413 . S
C534 C533 1.348 . S
C534 C535 1.442 . S
C534 H556 0.930 . S
C535 C534 1.442 . S
C535 C536 1.381 . S
C535 H557 0.931 . S
C536 C535 1.381 . S
C536 C537 1.321 . S
C537 C536 1.321 . S
C537 C538 1.403 . S
C537 H558 0.934 . S
C538 C533 1.413 . S
C538 C537 1.403 . S
C538 H559 0.930 . S
C539 O550 1.275 . S
C539 O551 1.256 . S
O540 Ho520 2.322 . S
O540 C522 1.259 . S
O541 Ho521 2.346 . S
O541 C522 1.268 . S
O542 Ho520 2.378 . S
O542 C523 1.215 . S
O543 Ho520 2.524 . S
O543 C523 1.289 . S
O544 Ho520 2.381 . S
O544 C530 1.275 . S
O545 Ho520 2.669 . S
O545 Ho521 2.305 . S
O545 C530 1.256 . S
O546 Ho521 2.322 . S
O546 C531 1.259 . S
O547 Ho520 2.346 . S
O547 C531 1.268 . S
O548 Ho521 2.378 . S
O548 C532 1.215 . S
O549 Ho521 2.524 . S
O549 C532 1.289 . S
O550 Ho521 2.381 . S
O550 C539 1.275 . S
O551 Ho520 2.305 . S
O551 Ho521 2.669 . S
O551 C539 1.256 . S
H552 C525 0.930 . S
H553 C526 0.931 . S
H554 C528 0.934 . S
H555 C529 0.930 . S
H556 C534 0.930 . S
H557 C535 0.931 . S
H558 C537 0.934 . S
H559 C538 0.930 . S
Ho560 C563 2.811 . S
Ho560 O580 2.322 . S
Ho560 O582 2.378 . S
Ho560 O583 2.524 . S
Ho560 O584 2.381 . S
Ho560 O585 2.669 . S
Ho560 O587 2.346 . S
Ho560 O591 2.305 . S
Ho561 C572 2.811 . S
Ho561 O581 2.346 . S
Ho561 O585 2.305 . S
Ho561 O586 2.322 . S
Ho561 O588 2.378 . S
Ho561 O589 2.524 . S
Ho561 O590 2.381 . S
Ho561 O591 2.669 . S
C562 O580 1.259 . S
C562 O581 1.268 . S
C563 Ho560 2.811 . S
C563 C564 1.488 . S
C563 O582 1.215 . S
C563 O583 1.289 . S
C564 C563 1.488 . S
C564 C565 1.348 . S
C564 C569 1.413 . S
C565 C564 1.348 . S
C565 C566 1.442 . S
C565 H592 0.930 . S
C566 C565 1.442 . S
C566 C567 1.381 . S
C566 H593 0.931 . S
C567 C566 1.381 . S
C567 C568 1.321 . S
C568 C567 1.321 . S
C568 C569 1.403 . S
C568 H594 0.934 . S
C569 C564 1.413 . S
C569 C568 1.403 . S
C569 H595 0.930 . S
C570 O584 1.275 . S
C570 O585 1.256 . S
C571 O586 1.259 . S
C571 O587 1.268 . S
C572 Ho561 2.811 . S
C572 C573 1.488 . S
C572 O588 1.215 . S
C572 O589 1.289 . S
C573 C572 1.488 . S
C573 C574 1.348 . S
C573 C578 1.413 . S
C574 C573 1.348 . S
C574 C575 1.442 . S
C574 H596 0.930 . S
C575 C574 1.442 . S
C575 C576 1.381 . S
C575 H597 0.931 . S
C576 C575 1.381 . S
C576 C577 1.321 . S
C577 C576 1.321 . S
C577 C578 1.403 . S
C577 H598 0.934 . S
C578 C573 1.413 . S
C578 C577 1.403 . S
C578 H599 0.930 . S
C579 O590 1.275 . S
C579 O591 1.256 . S
O580 Ho560 2.322 . S
O580 C562 1.259 . S
O581 Ho561 2.346 . S
O581 C562 1.268 . S
O582 Ho560 2.378 . S
O582 C563 1.215 . S
O583 Ho560 2.524 . S
O583 C563 1.289 . S
O584 Ho560 2.381 . S
O584 C570 1.275 . S
O585 Ho560 2.669 . S
O585 Ho561 2.305 . S
O585 C570 1.256 . S
O586 Ho561 2.322 . S
O586 C571 1.259 . S
O587 Ho560 2.346 . S
O587 C571 1.268 . S
O588 Ho561 2.378 . S
O588 C572 1.215 . S
O589 Ho561 2.524 . S
O589 C572 1.289 . S
O590 Ho561 2.381 . S
O590 C579 1.275 . S
O591 Ho560 2.305 . S
O591 Ho561 2.669 . S
O591 C579 1.256 . S
H592 C565 0.930 . S
H593 C566 0.931 . S
H594 C568 0.934 . S
H595 C569 0.930 . S
H596 C574 0.930 . S
H597 C575 0.931 . S
H598 C577 0.934 . S
H599 C578 0.930 . S
Ho600 C603 2.811 . S
Ho600 O620 2.322 . S
Ho600 O622 2.378 . S
Ho600 O623 2.524 . S
Ho600 O624 2.381 . S
Ho600 O625 2.669 . S
Ho600 O627 2.346 . S
Ho600 O631 2.305 . S
Ho601 C612 2.811 . S
Ho601 O621 2.346 . S
Ho601 O625 2.305 . S
Ho601 O626 2.322 . S
Ho601 O628 2.378 . S
Ho601 O629 2.524 . S
Ho601 O630 2.381 . S
Ho601 O631 2.669 . S
C602 O620 1.259 . S
C602 O621 1.268 . S
C603 Ho600 2.811 . S
C603 C604 1.488 . S
C603 O622 1.215 . S
C603 O623 1.289 . S
C604 C603 1.488 . S
C604 C605 1.348 1_655 S
C604 C609 1.413 . S
C605 C604 1.348 1_455 S
C605 C606 1.442 . S
C605 H632 0.930 . S
C606 C605 1.442 . S
C606 C607 1.381 . S
C606 H633 0.931 . S
C607 C606 1.381 . S
C607 C608 1.321 1_455 S
C608 C607 1.321 1_655 S
C608 C609 1.403 . S
C608 H634 0.934 . S
C609 C604 1.413 . S
C609 C608 1.403 . S
C609 H635 0.930 . S
C610 O624 1.275 . S
C610 O625 1.256 . S
C611 O626 1.259 . S
C611 O627 1.268 . S
C612 Ho601 2.811 . S
C612 C613 1.488 . S
C612 O628 1.215 . S
C612 O629 1.289 . S
C613 C612 1.488 . S
C613 C614 1.348 . S
C613 C618 1.413 . S
C614 C613 1.348 . S
C614 C615 1.442 . S
C614 H636 0.930 . S
C615 C614 1.442 . S
C615 C616 1.381 . S
C615 H637 0.931 . S
C616 C615 1.381 . S
C616 C617 1.321 . S
C617 C616 1.321 . S
C617 C618 1.403 . S
C617 H638 0.934 . S
C618 C613 1.413 . S
C618 C617 1.403 . S
C618 H639 0.930 . S
C619 O630 1.275 . S
C619 O631 1.256 . S
O620 Ho600 2.322 . S
O620 C602 1.259 . S
O621 Ho601 2.346 . S
O621 C602 1.268 . S
O622 Ho600 2.378 . S
O622 C603 1.215 . S
O623 Ho600 2.524 . S
O623 C603 1.289 . S
O624 Ho600 2.381 . S
O624 C610 1.275 . S
O625 Ho600 2.669 . S
O625 Ho601 2.305 . S
O625 C610 1.256 . S
O626 Ho601 2.322 . S
O626 C611 1.259 . S
O627 Ho600 2.346 . S
O627 C611 1.268 . S
O628 Ho601 2.378 . S
O628 C612 1.215 . S
O629 Ho601 2.524 . S
O629 C612 1.289 . S
O630 Ho601 2.381 . S
O630 C619 1.275 . S
O631 Ho600 2.305 . S
O631 Ho601 2.669 . S
O631 C619 1.256 . S
H632 C605 0.930 . S
H633 C606 0.931 . S
H634 C608 0.934 . S
H635 C609 0.930 . S
H636 C614 0.930 . S
H637 C615 0.931 . S
H638 C617 0.934 . S
H639 C618 0.930 . S
Ho640 C643 2.811 . S
Ho640 O660 2.322 . S
Ho640 O662 2.378 . S
Ho640 O663 2.524 . S
Ho640 O664 2.381 . S
Ho640 O665 2.669 . S
Ho640 O667 2.346 . S
Ho640 O671 2.305 . S
Ho641 C652 2.811 . S
Ho641 O661 2.346 . S
Ho641 O665 2.305 . S
Ho641 O666 2.322 . S
Ho641 O668 2.378 . S
Ho641 O669 2.524 . S
Ho641 O670 2.381 . S
Ho641 O671 2.669 . S
C642 O660 1.259 . S
C642 O661 1.268 . S
C643 Ho640 2.811 . S
C643 C644 1.488 . S
C643 O662 1.215 . S
C643 O663 1.289 . S
C644 C643 1.488 . S
C644 C645 1.348 . S
C644 C649 1.413 . S
C645 C644 1.348 . S
C645 C646 1.442 . S
C645 H672 0.930 . S
C646 C645 1.442 . S
C646 C647 1.381 . S
C646 H673 0.931 . S
C647 C646 1.381 . S
C647 C648 1.321 . S
C648 C647 1.321 . S
C648 C649 1.403 . S
C648 H674 0.934 . S
C649 C644 1.413 . S
C649 C648 1.403 . S
C649 H675 0.930 . S
C650 O664 1.275 . S
C650 O665 1.256 . S
C651 O666 1.259 . S
C651 O667 1.268 . S
C652 Ho641 2.811 . S
C652 C653 1.488 . S
C652 O668 1.215 . S
C652 O669 1.289 . S
C653 C652 1.488 . S
C653 C654 1.348 . S
C653 C658 1.413 . S
C654 C653 1.348 . S
C654 C655 1.442 . S
C654 H676 0.930 . S
C655 C654 1.442 . S
C655 C656 1.381 . S
C655 H677 0.931 . S
C656 C655 1.381 . S
C656 C657 1.321 . S
C657 C656 1.321 . S
C657 C658 1.403 . S
C657 H678 0.934 . S
C658 C653 1.413 . S
C658 C657 1.403 . S
C658 H679 0.930 . S
C659 O670 1.275 . S
C659 O671 1.256 . S
O660 Ho640 2.322 . S
O660 C642 1.259 . S
O661 Ho641 2.346 . S
O661 C642 1.268 . S
O662 Ho640 2.378 . S
O662 C643 1.215 . S
O663 Ho640 2.524 . S
O663 C643 1.289 . S
O664 Ho640 2.381 . S
O664 C650 1.275 . S
O665 Ho640 2.669 . S
O665 Ho641 2.305 . S
O665 C650 1.256 . S
O666 Ho641 2.322 . S
O666 C651 1.259 . S
O667 Ho640 2.346 . S
O667 C651 1.268 . S
O668 Ho641 2.378 . S
O668 C652 1.215 . S
O669 Ho641 2.524 . S
O669 C652 1.289 . S
O670 Ho641 2.381 . S
O670 C659 1.275 . S
O671 Ho640 2.305 . S
O671 Ho641 2.669 . S
O671 C659 1.256 . S
H672 C645 0.930 . S
H673 C646 0.931 . S
H674 C648 0.934 . S
H675 C649 0.930 . S
H676 C654 0.930 . S
H677 C655 0.931 . S
H678 C657 0.934 . S
H679 C658 0.930 . S
Ho680 C683 2.811 . S
Ho680 O700 2.322 . S
Ho680 O702 2.378 . S
Ho680 O703 2.524 . S
Ho680 O704 2.381 . S
Ho680 O705 2.669 . S
Ho680 O707 2.346 . S
Ho680 O711 2.305 . S
Ho681 C692 2.811 . S
Ho681 O701 2.346 . S
Ho681 O705 2.305 . S
Ho681 O706 2.322 . S
Ho681 O708 2.378 . S
Ho681 O709 2.524 . S
Ho681 O710 2.381 . S
Ho681 O711 2.669 . S
C682 O700 1.259 . S
C682 O701 1.268 . S
C683 Ho680 2.811 . S
C683 C684 1.488 . S
C683 O702 1.215 . S
C683 O703 1.289 . S
C684 C683 1.488 . S
C684 C685 1.348 1_545 S
C684 C689 1.413 . S
C685 C684 1.348 1_565 S
C685 C686 1.442 . S
C685 H712 0.930 . S
C686 C685 1.442 . S
C686 C687 1.381 . S
C686 H713 0.931 . S
C687 C686 1.381 . S
C687 C688 1.321 1_565 S
C688 C687 1.321 1_545 S
C688 C689 1.403 . S
C688 H714 0.934 . S
C689 C684 1.413 . S
C689 C688 1.403 . S
C689 H715 0.930 . S
C690 O704 1.275 . S
C690 O705 1.256 . S
C691 O706 1.259 . S
C691 O707 1.268 . S
C692 Ho681 2.811 . S
C692 C693 1.488 . S
C692 O708 1.215 . S
C692 O709 1.289 . S
C693 C692 1.488 . S
C693 C694 1.348 . S
C693 C698 1.413 . S
C694 C693 1.348 . S
C694 C695 1.442 . S
C694 H716 0.930 . S
C695 C694 1.442 . S
C695 C696 1.381 . S
C695 H717 0.931 . S
C696 C695 1.381 . S
C696 C697 1.321 . S
C697 C696 1.321 . S
C697 C698 1.403 . S
C697 H718 0.934 . S
C698 C693 1.413 . S
C698 C697 1.403 . S
C698 H719 0.930 . S
C699 O710 1.275 . S
C699 O711 1.256 . S
O700 Ho680 2.322 . S
O700 C682 1.259 . S
O701 Ho681 2.346 . S
O701 C682 1.268 . S
O702 Ho680 2.378 . S
O702 C683 1.215 . S
O703 Ho680 2.524 . S
O703 C683 1.289 . S
O704 Ho680 2.381 . S
O704 C690 1.275 . S
O705 Ho680 2.669 . S
O705 Ho681 2.305 . S
O705 C690 1.256 . S
O706 Ho681 2.322 . S
O706 C691 1.259 . S
O707 Ho680 2.346 . S
O707 C691 1.268 . S
O708 Ho681 2.378 . S
O708 C692 1.215 . S
O709 Ho681 2.524 . S
O709 C692 1.289 . S
O710 Ho681 2.381 . S
O710 C699 1.275 . S
O711 Ho680 2.305 . S
O711 Ho681 2.669 . S
O711 C699 1.256 . S
H712 C685 0.930 . S
H713 C686 0.931 . S
H714 C688 0.934 . S
H715 C689 0.930 . S
H716 C694 0.930 . S
H717 C695 0.931 . S
H718 C697 0.934 . S
H719 C698 0.930 . S
Ho720 C723 2.811 . S
Ho720 O740 2.322 . S
Ho720 O742 2.378 . S
Ho720 O743 2.524 . S
Ho720 O744 2.381 . S
Ho720 O745 2.669 . S
Ho720 O747 2.346 . S
Ho720 O751 2.305 . S
Ho721 C732 2.811 . S
Ho721 O741 2.346 . S
Ho721 O745 2.305 . S
Ho721 O746 2.322 . S
Ho721 O748 2.378 . S
Ho721 O749 2.524 . S
Ho721 O750 2.381 . S
Ho721 O751 2.669 . S
C722 O740 1.259 . S
C722 O741 1.268 . S
C723 Ho720 2.811 . S
C723 C724 1.488 . S
C723 O742 1.215 . S
C723 O743 1.289 . S
C724 C723 1.488 . S
C724 C725 1.348 . S
C724 C729 1.413 . S
C725 C724 1.348 . S
C725 C726 1.442 . S
C725 H752 0.930 . S
C726 C725 1.442 . S
C726 C727 1.381 . S
C726 H753 0.931 . S
C727 C726 1.381 . S
C727 C728 1.321 . S
C728 C727 1.321 . S
C728 C729 1.403 . S
C728 H754 0.934 . S
C729 C724 1.413 . S
C729 C728 1.403 . S
C729 H755 0.930 . S
C730 O744 1.275 . S
C730 O745 1.256 . S
C731 O746 1.259 . S
C731 O747 1.268 . S
C732 Ho721 2.811 . S
C732 C733 1.488 . S
C732 O748 1.215 . S
C732 O749 1.289 . S
C733 C732 1.488 . S
C733 C734 1.348 1_545 S
C733 C738 1.413 . S
C734 C733 1.348 1_565 S
C734 C735 1.442 . S
C734 H756 0.930 . S
C735 C734 1.442 . S
C735 C736 1.381 . S
C735 H757 0.931 . S
C736 C735 1.381 . S
C736 C737 1.321 1_565 S
C737 C736 1.321 1_545 S
C737 C738 1.403 . S
C737 H758 0.934 . S
C738 C733 1.413 . S
C738 C737 1.403 . S
C738 H759 0.930 . S
C739 O750 1.275 . S
C739 O751 1.256 . S
O740 Ho720 2.322 . S
O740 C722 1.259 . S
O741 Ho721 2.346 . S
O741 C722 1.268 . S
O742 Ho720 2.378 . S
O742 C723 1.215 . S
O743 Ho720 2.524 . S
O743 C723 1.289 . S
O744 Ho720 2.381 . S
O744 C730 1.275 . S
O745 Ho720 2.669 . S
O745 Ho721 2.305 . S
O745 C730 1.256 . S
O746 Ho721 2.322 . S
O746 C731 1.259 . S
O747 Ho720 2.346 . S
O747 C731 1.268 . S
O748 Ho721 2.378 . S
O748 C732 1.215 . S
O749 Ho721 2.524 . S
O749 C732 1.289 . S
O750 Ho721 2.381 . S
O750 C739 1.275 . S
O751 Ho720 2.305 . S
O751 Ho721 2.669 . S
O751 C739 1.256 . S
H752 C725 0.930 . S
H753 C726 0.931 . S
H754 C728 0.934 . S
H755 C729 0.930 . S
H756 C734 0.930 . S
H757 C735 0.931 . S
H758 C737 0.934 . S
H759 C738 0.930 . S
Ho760 C763 2.811 . S
Ho760 O780 2.322 . S
Ho760 O782 2.378 . S
Ho760 O783 2.524 . S
Ho760 O784 2.381 . S
Ho760 O785 2.669 . S
Ho760 O787 2.346 . S
Ho760 O791 2.305 . S
Ho761 C772 2.811 . S
Ho761 O781 2.346 . S
Ho761 O785 2.305 . S
Ho761 O786 2.322 . S
Ho761 O788 2.378 . S
Ho761 O789 2.524 . S
Ho761 O790 2.381 . S
Ho761 O791 2.669 . S
C762 O780 1.259 . S
C762 O781 1.268 . S
C763 Ho760 2.811 . S
C763 C764 1.488 . S
C763 O782 1.215 . S
C763 O783 1.289 . S
C764 C763 1.488 . S
C764 C765 1.348 . S
C764 C769 1.413 . S
C765 C764 1.348 . S
C765 C766 1.442 . S
C765 H792 0.930 . S
C766 C765 1.442 . S
C766 C767 1.381 . S
C766 H793 0.931 . S
C767 C766 1.381 . S
C767 C768 1.321 . S
C768 C767 1.321 . S
C768 C769 1.403 . S
C768 H794 0.934 . S
C769 C764 1.413 . S
C769 C768 1.403 . S
C769 H795 0.930 . S
C770 O784 1.275 . S
C770 O785 1.256 . S
C771 O786 1.259 . S
C771 O787 1.268 . S
C772 Ho761 2.811 . S
C772 C773 1.488 . S
C772 O788 1.215 . S
C772 O789 1.289 . S
C773 C772 1.488 . S
C773 C774 1.348 1_655 S
C773 C778 1.413 . S
C774 C773 1.348 1_455 S
C774 C775 1.442 . S
C774 H796 0.930 . S
C775 C774 1.442 . S
C775 C776 1.381 . S
C775 H797 0.931 . S
C776 C775 1.381 . S
C776 C777 1.321 1_455 S
C777 C776 1.321 1_655 S
C777 C778 1.403 . S
C777 H798 0.934 . S
C778 C773 1.413 . S
C778 C777 1.403 . S
C778 H799 0.930 . S
C779 O790 1.275 . S
C779 O791 1.256 . S
O780 Ho760 2.322 . S
O780 C762 1.259 . S
O781 Ho761 2.346 . S
O781 C762 1.268 . S
O782 Ho760 2.378 . S
O782 C763 1.215 . S
O783 Ho760 2.524 . S
O783 C763 1.289 . S
O784 Ho760 2.381 . S
O784 C770 1.275 . S
O785 Ho760 2.669 . S
O785 Ho761 2.305 . S
O785 C770 1.256 . S
O786 Ho761 2.322 . S
O786 C771 1.259 . S
O787 Ho760 2.346 . S
O787 C771 1.268 . S
O788 Ho761 2.378 . S
O788 C772 1.215 . S
O789 Ho761 2.524 . S
O789 C772 1.289 . S
O790 Ho761 2.381 . S
O790 C779 1.275 . S
O791 Ho760 2.305 . S
O791 Ho761 2.669 . S
O791 C779 1.256 . S
H792 C765 0.930 . S
H793 C766 0.931 . S
H794 C768 0.934 . S
H795 C769 0.930 . S
H796 C774 0.930 . S
H797 C775 0.931 . S
H798 C777 0.934 . S
H799 C778 0.930 . S
Ho800 C803 2.811 . S
Ho800 O820 2.322 . S
Ho800 O822 2.378 . S
Ho800 O823 2.524 . S
Ho800 O824 2.381 . S
Ho800 O825 2.669 . S
Ho800 O827 2.346 . S
Ho800 O831 2.305 . S
Ho801 C812 2.811 . S
Ho801 O821 2.346 . S
Ho801 O825 2.305 . S
Ho801 O826 2.322 . S
Ho801 O828 2.378 . S
Ho801 O829 2.524 . S
Ho801 O830 2.381 . S
Ho801 O831 2.669 . S
C802 O820 1.259 . S
C802 O821 1.268 . S
C803 Ho800 2.811 . S
C803 C804 1.488 . S
C803 O822 1.215 . S
C803 O823 1.289 . S
C804 C803 1.488 . S
C804 C805 1.348 . S
C804 C809 1.413 . S
C805 C804 1.348 . S
C805 C806 1.442 . S
C805 H832 0.930 . S
C806 C805 1.442 . S
C806 C807 1.381 . S
C806 H833 0.931 . S
C807 C806 1.381 . S
C807 C808 1.321 . S
C808 C807 1.321 . S
C808 C809 1.403 . S
C808 H834 0.934 . S
C809 C804 1.413 . S
C809 C808 1.403 . S
C809 H835 0.930 . S
C810 O824 1.275 . S
C810 O825 1.256 . S
C811 O826 1.259 . S
C811 O827 1.268 . S
C812 Ho801 2.811 . S
C812 C813 1.488 . S
C812 O828 1.215 . S
C812 O829 1.289 . S
C813 C812 1.488 . S
C813 C814 1.348 . S
C813 C818 1.413 . S
C814 C813 1.348 . S
C814 C815 1.442 . S
C814 H836 0.930 . S
C815 C814 1.442 . S
C815 C816 1.381 . S
C815 H837 0.931 . S
C816 C815 1.381 . S
C816 C817 1.321 . S
C817 C816 1.321 . S
C817 C818 1.403 . S
C817 H838 0.934 . S
C818 C813 1.413 . S
C818 C817 1.403 . S
C818 H839 0.930 . S
C819 O830 1.275 . S
C819 O831 1.256 . S
O820 Ho800 2.322 . S
O820 C802 1.259 . S
O821 Ho801 2.346 . S
O821 C802 1.268 . S
O822 Ho800 2.378 . S
O822 C803 1.215 . S
O823 Ho800 2.524 . S
O823 C803 1.289 . S
O824 Ho800 2.381 . S
O824 C810 1.275 . S
O825 Ho800 2.669 . S
O825 Ho801 2.305 . S
O825 C810 1.256 . S
O826 Ho801 2.322 . S
O826 C811 1.259 . S
O827 Ho800 2.346 . S
O827 C811 1.268 . S
O828 Ho801 2.378 . S
O828 C812 1.215 . S
O829 Ho801 2.524 . S
O829 C812 1.289 . S
O830 Ho801 2.381 . S
O830 C819 1.275 . S
O831 Ho800 2.305 . S
O831 Ho801 2.669 . S
O831 C819 1.256 . S
H832 C805 0.930 . S
H833 C806 0.931 . S
H834 C808 0.934 . S
H835 C809 0.930 . S
H836 C814 0.930 . S
H837 C815 0.931 . S
H838 C817 0.934 . S
H839 C818 0.930 . S
Ho840 C843 2.811 . S
Ho840 O860 2.322 . S
Ho840 O862 2.378 . S
Ho840 O863 2.524 . S
Ho840 O864 2.381 . S
Ho840 O865 2.669 1_554 S
Ho840 O867 2.346 . S
Ho840 O871 2.305 . S
Ho841 C852 2.811 . S
Ho841 O861 2.346 . S
Ho841 O865 2.305 . S
Ho841 O866 2.322 . S
Ho841 O868 2.378 . S
Ho841 O869 2.524 . S
Ho841 O870 2.381 . S
Ho841 O871 2.669 1_556 S
C842 O860 1.259 . S
C842 O861 1.268 1_554 S
C843 Ho840 2.811 . S
C843 C844 1.488 . S
C843 O862 1.215 . S
C843 O863 1.289 . S
C844 C843 1.488 . S
C844 C845 1.348 . S
C844 C849 1.413 . S
C845 C844 1.348 . S
C845 C846 1.442 . S
C845 H872 0.930 . S
C846 C845 1.442 . S
C846 C847 1.381 . S
C846 H873 0.931 . S
C847 C846 1.381 . S
C847 C848 1.321 . S
C848 C847 1.321 . S
C848 C849 1.403 . S
C848 H874 0.934 . S
C849 C844 1.413 . S
C849 C848 1.403 . S
C849 H875 0.930 . S
C850 O864 1.275 . S
C850 O865 1.256 1_554 S
C851 O866 1.259 . S
C851 O867 1.268 1_556 S
C852 Ho841 2.811 . S
C852 C853 1.488 . S
C852 O868 1.215 . S
C852 O869 1.289 . S
C853 C852 1.488 . S
C853 C854 1.348 . S
C853 C858 1.413 . S
C854 C853 1.348 . S
C854 C855 1.442 . S
C854 H876 0.930 . S
C855 C854 1.442 . S
C855 C856 1.381 . S
C855 H877 0.931 . S
C856 C855 1.381 . S
C856 C857 1.321 . S
C857 C856 1.321 . S
C857 C858 1.403 . S
C857 H878 0.934 . S
C858 C853 1.413 . S
C858 C857 1.403 . S
C858 H879 0.930 . S
C859 O870 1.275 . S
C859 O871 1.256 1_556 S
O860 Ho840 2.322 . S
O860 C842 1.259 . S
O861 Ho841 2.346 . S
O861 C842 1.268 1_556 S
O862 Ho840 2.378 . S
O862 C843 1.215 . S
O863 Ho840 2.524 . S
O863 C843 1.289 . S
O864 Ho840 2.381 . S
O864 C850 1.275 . S
O865 Ho840 2.669 1_556 S
O865 Ho841 2.305 . S
O865 C850 1.256 1_556 S
O866 Ho841 2.322 . S
O866 C851 1.259 . S
O867 Ho840 2.346 . S
O867 C851 1.268 1_554 S
O868 Ho841 2.378 . S
O868 C852 1.215 . S
O869 Ho841 2.524 . S
O869 C852 1.289 . S
O870 Ho841 2.381 . S
O870 C859 1.275 . S
O871 Ho840 2.305 . S
O871 Ho841 2.669 1_554 S
O871 C859 1.256 1_554 S
H872 C845 0.930 . S
H873 C846 0.931 . S
H874 C848 0.934 . S
H875 C849 0.930 . S
H876 C854 0.930 . S
H877 C855 0.931 . S
H878 C857 0.934 . S
H879 C858 0.930 . S
Ho880 C883 2.811 . S
Ho880 O900 2.322 . S
Ho880 O902 2.378 . S
Ho880 O903 2.524 . S
Ho880 O904 2.381 . S
Ho880 O905 2.669 1_554 S
Ho880 O907 2.346 . S
Ho880 O911 2.305 . S
Ho881 C892 2.811 . S
Ho881 O901 2.346 . S
Ho881 O905 2.305 . S
Ho881 O906 2.322 . S
Ho881 O908 2.378 . S
Ho881 O909 2.524 . S
Ho881 O910 2.381 . S
Ho881 O911 2.669 1_556 S
C882 O900 1.259 . S
C882 O901 1.268 1_554 S
C883 Ho880 2.811 . S
C883 C884 1.488 . S
C883 O902 1.215 . S
C883 O903 1.289 . S
C884 C883 1.488 . S
C884 C885 1.348 . S
C884 C889 1.413 . S
C885 C884 1.348 . S
C885 C886 1.442 . S
C885 H912 0.930 . S
C886 C885 1.442 . S
C886 C887 1.381 . S
C886 H913 0.931 . S
C887 C886 1.381 . S
C887 C888 1.321 . S
C888 C887 1.321 . S
C888 C889 1.403 . S
C888 H914 0.934 . S
C889 C884 1.413 . S
C889 C888 1.403 . S
C889 H915 0.930 . S
C890 O904 1.275 . S
C890 O905 1.256 1_554 S
C891 O906 1.259 . S
C891 O907 1.268 1_556 S
C892 Ho881 2.811 . S
C892 C893 1.488 . S
C892 O908 1.215 . S
C892 O909 1.289 . S
C893 C892 1.488 . S
C893 C894 1.348 . S
C893 C898 1.413 . S
C894 C893 1.348 . S
C894 C895 1.442 . S
C894 H916 0.930 . S
C895 C894 1.442 . S
C895 C896 1.381 . S
C895 H917 0.931 . S
C896 C895 1.381 . S
C896 C897 1.321 . S
C897 C896 1.321 . S
C897 C898 1.403 . S
C897 H918 0.934 . S
C898 C893 1.413 . S
C898 C897 1.403 . S
C898 H919 0.930 . S
C899 O910 1.275 . S
C899 O911 1.256 1_556 S
O900 Ho880 2.322 . S
O900 C882 1.259 . S
O901 Ho881 2.346 . S
O901 C882 1.268 1_556 S
O902 Ho880 2.378 . S
O902 C883 1.215 . S
O903 Ho880 2.524 . S
O903 C883 1.289 . S
O904 Ho880 2.381 . S
O904 C890 1.275 . S
O905 Ho880 2.669 1_556 S
O905 Ho881 2.305 . S
O905 C890 1.256 1_556 S
O906 Ho881 2.322 . S
O906 C891 1.259 . S
O907 Ho880 2.346 . S
O907 C891 1.268 1_554 S
O908 Ho881 2.378 . S
O908 C892 1.215 . S
O909 Ho881 2.524 . S
O909 C892 1.289 . S
O910 Ho881 2.381 . S
O910 C899 1.275 . S
O911 Ho880 2.305 . S
O911 Ho881 2.669 1_554 S
O911 C899 1.256 1_554 S
H912 C885 0.930 . S
H913 C886 0.931 . S
H914 C888 0.934 . S
H915 C889 0.930 . S
H916 C894 0.930 . S
H917 C895 0.931 . S
H918 C897 0.934 . S
H919 C898 0.930 . S
Ho920 C923 2.811 . S
Ho920 O940 2.322 . S
Ho920 O942 2.378 . S
Ho920 O943 2.524 . S
Ho920 O944 2.381 . S
Ho920 O945 2.669 1_554 S
Ho920 O947 2.346 . S
Ho920 O951 2.305 . S
Ho921 C932 2.811 . S
Ho921 O941 2.346 . S
Ho921 O945 2.305 . S
Ho921 O946 2.322 . S
Ho921 O948 2.378 . S
Ho921 O949 2.524 . S
Ho921 O950 2.381 . S
Ho921 O951 2.669 1_556 S
C922 O940 1.259 . S
C922 O941 1.268 1_554 S
C923 Ho920 2.811 . S
C923 C924 1.488 . S
C923 O942 1.215 . S
C923 O943 1.289 . S
C924 C923 1.488 . S
C924 C925 1.348 . S
C924 C929 1.413 . S
C925 C924 1.348 . S
C925 C926 1.442 . S
C925 H952 0.930 . S
C926 C925 1.442 . S
C926 C927 1.381 . S
C926 H953 0.931 . S
C927 C926 1.381 . S
C927 C928 1.321 . S
C928 C927 1.321 . S
C928 C929 1.403 . S
C928 H954 0.934 . S
C929 C924 1.413 . S
C929 C928 1.403 . S
C929 H955 0.930 . S
C930 O944 1.275 . S
C930 O945 1.256 1_554 S
C931 O946 1.259 . S
C931 O947 1.268 1_556 S
C932 Ho921 2.811 . S
C932 C933 1.488 . S
C932 O948 1.215 . S
C932 O949 1.289 . S
C933 C932 1.488 . S
C933 C934 1.348 . S
C933 C938 1.413 . S
C934 C933 1.348 . S
C934 C935 1.442 . S
C934 H956 0.930 . S
C935 C934 1.442 . S
C935 C936 1.381 . S
C935 H957 0.931 . S
C936 C935 1.381 . S
C936 C937 1.321 . S
C937 C936 1.321 . S
C937 C938 1.403 . S
C937 H958 0.934 . S
C938 C933 1.413 . S
C938 C937 1.403 . S
C938 H959 0.930 . S
C939 O950 1.275 . S
C939 O951 1.256 1_556 S
O940 Ho920 2.322 . S
O940 C922 1.259 . S
O941 Ho921 2.346 . S
O941 C922 1.268 1_556 S
O942 Ho920 2.378 . S
O942 C923 1.215 . S
O943 Ho920 2.524 . S
O943 C923 1.289 . S
O944 Ho920 2.381 . S
O944 C930 1.275 . S
O945 Ho920 2.669 1_556 S
O945 Ho921 2.305 . S
O945 C930 1.256 1_556 S
O946 Ho921 2.322 . S
O946 C931 1.259 . S
O947 Ho920 2.346 . S
O947 C931 1.268 1_554 S
O948 Ho921 2.378 . S
O948 C932 1.215 . S
O949 Ho921 2.524 . S
O949 C932 1.289 . S
O950 Ho921 2.381 . S
O950 C939 1.275 . S
O951 Ho920 2.305 . S
O951 Ho921 2.669 1_554 S
O951 C939 1.256 1_554 S
H952 C925 0.930 . S
H953 C926 0.931 . S
H954 C928 0.934 . S
H955 C929 0.930 . S
H956 C934 0.930 . S
H957 C935 0.931 . S
H958 C937 0.934 . S
H959 C938 0.930 . S
Ho960 C963 2.811 . S
Ho960 O980 2.322 . S
Ho960 O982 2.378 . S
Ho960 O983 2.524 . S
Ho960 O984 2.381 . S
Ho960 O985 2.669 . S
Ho960 O987 2.346 . S
Ho960 O991 2.305 . S
Ho961 C972 2.811 . S
Ho961 O981 2.346 . S
Ho961 O985 2.305 . S
Ho961 O986 2.322 . S
Ho961 O988 2.378 . S
Ho961 O989 2.524 . S
Ho961 O990 2.381 . S
Ho961 O991 2.669 . S
C962 O980 1.259 . S
C962 O981 1.268 . S
C963 Ho960 2.811 . S
C963 C964 1.488 . S
C963 O982 1.215 . S
C963 O983 1.289 . S
C964 C963 1.488 . S
C964 C965 1.348 1_565 S
C964 C969 1.413 . S
C965 C964 1.348 1_545 S
C965 C966 1.442 . S
C965 H992 0.930 . S
C966 C965 1.442 . S
C966 C967 1.381 . S
C966 H993 0.931 . S
C967 C966 1.381 . S
C967 C968 1.321 1_545 S
C968 C967 1.321 1_565 S
C968 C969 1.403 . S
C968 H994 0.934 . S
C969 C964 1.413 . S
C969 C968 1.403 . S
C969 H995 0.930 . S
C970 O984 1.275 . S
C970 O985 1.256 . S
C971 O986 1.259 . S
C971 O987 1.268 . S
C972 Ho961 2.811 . S
C972 C973 1.488 . S
C972 O988 1.215 . S
C972 O989 1.289 . S
C973 C972 1.488 . S
C973 C974 1.348 . S
C973 C978 1.413 . S
C974 C973 1.348 . S
C974 C975 1.442 . S
C974 H996 0.930 . S
C975 C974 1.442 . S
C975 C976 1.381 . S
C975 H997 0.931 . S
C976 C975 1.381 . S
C976 C977 1.321 . S
C977 C976 1.321 . S
C977 C978 1.403 . S
C977 H998 0.934 . S
C978 C973 1.413 . S
C978 C977 1.403 . S
C978 H999 0.930 . S
C979 O990 1.275 . S
C979 O991 1.256 . S
O980 Ho960 2.322 . S
O980 C962 1.259 . S
O981 Ho961 2.346 . S
O981 C962 1.268 . S
O982 Ho960 2.378 . S
O982 C963 1.215 . S
O983 Ho960 2.524 . S
O983 C963 1.289 . S
O984 Ho960 2.381 . S
O984 C970 1.275 . S
O985 Ho960 2.669 . S
O985 Ho961 2.305 . S
O985 C970 1.256 . S
O986 Ho961 2.322 . S
O986 C971 1.259 . S
O987 Ho960 2.346 . S
O987 C971 1.268 . S
O988 Ho961 2.378 . S
O988 C972 1.215 . S
O989 Ho961 2.524 . S
O989 C972 1.289 . S
O990 Ho961 2.381 . S
O990 C979 1.275 . S
O991 Ho960 2.305 . S
O991 Ho961 2.669 . S
O991 C979 1.256 . S
H992 C965 0.930 . S
H993 C966 0.931 . S
H994 C968 0.934 . S
H995 C969 0.930 . S
H996 C974 0.930 . S
H997 C975 0.931 . S
H998 C977 0.934 . S
H999 C978 0.930 . S
Ho1000 C1003 2.811 . S
Ho1000 O1020 2.322 . S
Ho1000 O1022 2.378 . S
Ho1000 O1023 2.524 . S
Ho1000 O1024 2.381 . S
Ho1000 O1025 2.669 . S
Ho1000 O1027 2.346 . S
Ho1000 O1031 2.305 . S
Ho1001 C1012 2.811 . S
Ho1001 O1021 2.346 . S
Ho1001 O1025 2.305 . S
Ho1001 O1026 2.322 . S
Ho1001 O1028 2.378 . S
Ho1001 O1029 2.524 . S
Ho1001 O1030 2.381 . S
Ho1001 O1031 2.669 . S
C1002 O1020 1.259 . S
C1002 O1021 1.268 . S
C1003 Ho1000 2.811 . S
C1003 C1004 1.488 . S
C1003 O1022 1.215 . S
C1003 O1023 1.289 . S
C1004 C1003 1.488 . S
C1004 C1005 1.348 1_455 S
C1004 C1009 1.413 . S
C1005 C1004 1.348 1_655 S
C1005 C1006 1.442 . S
C1005 H1032 0.930 . S
C1006 C1005 1.442 . S
C1006 C1007 1.381 . S
C1006 H1033 0.931 . S
C1007 C1006 1.381 . S
C1007 C1008 1.321 1_655 S
C1008 C1007 1.321 1_455 S
C1008 C1009 1.403 . S
C1008 H1034 0.934 . S
C1009 C1004 1.413 . S
C1009 C1008 1.403 . S
C1009 H1035 0.930 . S
C1010 O1024 1.275 . S
C1010 O1025 1.256 . S
C1011 O1026 1.259 . S
C1011 O1027 1.268 . S
C1012 Ho1001 2.811 . S
C1012 C1013 1.488 . S
C1012 O1028 1.215 . S
C1012 O1029 1.289 . S
C1013 C1012 1.488 . S
C1013 C1014 1.348 . S
C1013 C1018 1.413 . S
C1014 C1013 1.348 . S
C1014 C1015 1.442 . S
C1014 H1036 0.930 . S
C1015 C1014 1.442 . S
C1015 C1016 1.381 . S
C1015 H1037 0.931 . S
C1016 C1015 1.381 . S
C1016 C1017 1.321 . S
C1017 C1016 1.321 . S
C1017 C1018 1.403 . S
C1017 H1038 0.934 . S
C1018 C1013 1.413 . S
C1018 C1017 1.403 . S
C1018 H1039 0.930 . S
C1019 O1030 1.275 . S
C1019 O1031 1.256 . S
O1020 Ho1000 2.322 . S
O1020 C1002 1.259 . S
O1021 Ho1001 2.346 . S
O1021 C1002 1.268 . S
O1022 Ho1000 2.378 . S
O1022 C1003 1.215 . S
O1023 Ho1000 2.524 . S
O1023 C1003 1.289 . S
O1024 Ho1000 2.381 . S
O1024 C1010 1.275 . S
O1025 Ho1000 2.669 . S
O1025 Ho1001 2.305 . S
O1025 C1010 1.256 . S
O1026 Ho1001 2.322 . S
O1026 C1011 1.259 . S
O1027 Ho1000 2.346 . S
O1027 C1011 1.268 . S
O1028 Ho1001 2.378 . S
O1028 C1012 1.215 . S
O1029 Ho1001 2.524 . S
O1029 C1012 1.289 . S
O1030 Ho1001 2.381 . S
O1030 C1019 1.275 . S
O1031 Ho1000 2.305 . S
O1031 Ho1001 2.669 . S
O1031 C1019 1.256 . S
H1032 C1005 0.930 . S
H1033 C1006 0.931 . S
H1034 C1008 0.934 . S
H1035 C1009 0.930 . S
H1036 C1014 0.930 . S
H1037 C1015 0.931 . S
H1038 C1017 0.934 . S
H1039 C1018 0.930 . S
Ho1040 C1043 2.811 . S
Ho1040 O1060 2.322 . S
Ho1040 O1062 2.378 . S
Ho1040 O1063 2.524 . S
Ho1040 O1064 2.381 . S
Ho1040 O1065 2.669 . S
Ho1040 O1067 2.346 . S
Ho1040 O1071 2.305 . S
Ho1041 C1052 2.811 . S
Ho1041 O1061 2.346 . S
Ho1041 O1065 2.305 . S
Ho1041 O1066 2.322 . S
Ho1041 O1068 2.378 . S
Ho1041 O1069 2.524 . S
Ho1041 O1070 2.381 . S
Ho1041 O1071 2.669 . S
C1042 O1060 1.259 . S
C1042 O1061 1.268 . S
C1043 Ho1040 2.811 . S
C1043 C1044 1.488 . S
C1043 O1062 1.215 . S
C1043 O1063 1.289 . S
C1044 C1043 1.488 . S
C1044 C1045 1.348 . S
C1044 C1049 1.413 . S
C1045 C1044 1.348 . S
C1045 C1046 1.442 . S
C1045 H1072 0.930 . S
C1046 C1045 1.442 . S
C1046 C1047 1.381 . S
C1046 H1073 0.931 . S
C1047 C1046 1.381 . S
C1047 C1048 1.321 . S
C1048 C1047 1.321 . S
C1048 C1049 1.403 . S
C1048 H1074 0.934 . S
C1049 C1044 1.413 . S
C1049 C1048 1.403 . S
C1049 H1075 0.930 . S
C1050 O1064 1.275 . S
C1050 O1065 1.256 . S
C1051 O1066 1.259 . S
C1051 O1067 1.268 . S
C1052 Ho1041 2.811 . S
C1052 C1053 1.488 . S
C1052 O1068 1.215 . S
C1052 O1069 1.289 . S
C1053 C1052 1.488 . S
C1053 C1054 1.348 . S
C1053 C1058 1.413 . S
C1054 C1053 1.348 . S
C1054 C1055 1.442 . S
C1054 H1076 0.930 . S
C1055 C1054 1.442 . S
C1055 C1056 1.381 . S
C1055 H1077 0.931 . S
C1056 C1055 1.381 . S
C1056 C1057 1.321 . S
C1057 C1056 1.321 . S
C1057 C1058 1.403 . S
C1057 H1078 0.934 . S
C1058 C1053 1.413 . S
C1058 C1057 1.403 . S
C1058 H1079 0.930 . S
C1059 O1070 1.275 . S
C1059 O1071 1.256 . S
O1060 Ho1040 2.322 . S
O1060 C1042 1.259 . S
O1061 Ho1041 2.346 . S
O1061 C1042 1.268 . S
O1062 Ho1040 2.378 . S
O1062 C1043 1.215 . S
O1063 Ho1040 2.524 . S
O1063 C1043 1.289 . S
O1064 Ho1040 2.381 . S
O1064 C1050 1.275 . S
O1065 Ho1040 2.669 . S
O1065 Ho1041 2.305 . S
O1065 C1050 1.256 . S
O1066 Ho1041 2.322 . S
O1066 C1051 1.259 . S
O1067 Ho1040 2.346 . S
O1067 C1051 1.268 . S
O1068 Ho1041 2.378 . S
O1068 C1052 1.215 . S
O1069 Ho1041 2.524 . S
O1069 C1052 1.289 . S
O1070 Ho1041 2.381 . S
O1070 C1059 1.275 . S
O1071 Ho1040 2.305 . S
O1071 Ho1041 2.669 . S
O1071 C1059 1.256 . S
H1072 C1045 0.930 . S
H1073 C1046 0.931 . S
H1074 C1048 0.934 . S
H1075 C1049 0.930 . S
H1076 C1054 0.930 . S
H1077 C1055 0.931 . S
H1078 C1057 0.934 . S
H1079 C1058 0.930 . S
Ho1080 C1083 2.811 . S
Ho1080 O1100 2.322 . S
Ho1080 O1102 2.378 . S
Ho1080 O1103 2.524 . S
Ho1080 O1104 2.381 . S
Ho1080 O1105 2.669 1_554 S
Ho1080 O1107 2.346 . S
Ho1080 O1111 2.305 . S
Ho1081 C1092 2.811 . S
Ho1081 O1101 2.346 . S
Ho1081 O1105 2.305 . S
Ho1081 O1106 2.322 . S
Ho1081 O1108 2.378 . S
Ho1081 O1109 2.524 . S
Ho1081 O1110 2.381 . S
Ho1081 O1111 2.669 1_556 S
C1082 O1100 1.259 . S
C1082 O1101 1.268 1_554 S
C1083 Ho1080 2.811 . S
C1083 C1084 1.488 . S
C1083 O1102 1.215 . S
C1083 O1103 1.289 . S
C1084 C1083 1.488 . S
C1084 C1085 1.348 . S
C1084 C1089 1.413 . S
C1085 C1084 1.348 . S
C1085 C1086 1.442 . S
C1085 H1112 0.930 . S
C1086 C1085 1.442 . S
C1086 C1087 1.381 . S
C1086 H1113 0.931 . S
C1087 C1086 1.381 . S
C1087 C1088 1.321 . S
C1088 C1087 1.321 . S
C1088 C1089 1.403 . S
C1088 H1114 0.934 . S
C1089 C1084 1.413 . S
C1089 C1088 1.403 . S
C1089 H1115 0.930 . S
C1090 O1104 1.275 . S
C1090 O1105 1.256 1_554 S
C1091 O1106 1.259 . S
C1091 O1107 1.268 1_556 S
C1092 Ho1081 2.811 . S
C1092 C1093 1.488 . S
C1092 O1108 1.215 . S
C1092 O1109 1.289 . S
C1093 C1092 1.488 . S
C1093 C1094 1.348 . S
C1093 C1098 1.413 . S
C1094 C1093 1.348 . S
C1094 C1095 1.442 . S
C1094 H1116 0.930 . S
C1095 C1094 1.442 . S
C1095 C1096 1.381 . S
C1095 H1117 0.931 . S
C1096 C1095 1.381 . S
C1096 C1097 1.321 . S
C1097 C1096 1.321 . S
C1097 C1098 1.403 . S
C1097 H1118 0.934 . S
C1098 C1093 1.413 . S
C1098 C1097 1.403 . S
C1098 H1119 0.930 . S
C1099 O1110 1.275 . S
C1099 O1111 1.256 1_556 S
O1100 Ho1080 2.322 . S
O1100 C1082 1.259 . S
O1101 Ho1081 2.346 . S
O1101 C1082 1.268 1_556 S
O1102 Ho1080 2.378 . S
O1102 C1083 1.215 . S
O1103 Ho1080 2.524 . S
O1103 C1083 1.289 . S
O1104 Ho1080 2.381 . S
O1104 C1090 1.275 . S
O1105 Ho1080 2.669 1_556 S
O1105 Ho1081 2.305 . S
O1105 C1090 1.256 1_556 S
O1106 Ho1081 2.322 . S
O1106 C1091 1.259 . S
O1107 Ho1080 2.346 . S
O1107 C1091 1.268 1_554 S
O1108 Ho1081 2.378 . S
O1108 C1092 1.215 . S
O1109 Ho1081 2.524 . S
O1109 C1092 1.289 . S
O1110 Ho1081 2.381 . S
O1110 C1099 1.275 . S
O1111 Ho1080 2.305 . S
O1111 Ho1081 2.669 1_554 S
O1111 C1099 1.256 1_554 S
H1112 C1085 0.930 . S
H1113 C1086 0.931 . S
H1114 C1088 0.934 . S
H1115 C1089 0.930 . S
H1116 C1094 0.930 . S
H1117 C1095 0.931 . S
H1118 C1097 0.934 . S
H1119 C1098 0.930 . S
Ho1120 C1123 2.811 . S
Ho1120 O1140 2.322 . S
Ho1120 O1142 2.378 . S
Ho1120 O1143 2.524 . S
Ho1120 O1144 2.381 . S
Ho1120 O1145 2.669 1_554 S
Ho1120 O1147 2.346 . S
Ho1120 O1151 2.305 . S
Ho1121 C1132 2.811 . S
Ho1121 O1141 2.346 . S
Ho1121 O1145 2.305 . S
Ho1121 O1146 2.322 . S
Ho1121 O1148 2.378 . S
Ho1121 O1149 2.524 . S
Ho1121 O1150 2.381 . S
Ho1121 O1151 2.669 1_556 S
C1122 O1140 1.259 . S
C1122 O1141 1.268 1_554 S
C1123 Ho1120 2.811 . S
C1123 C1124 1.488 . S
C1123 O1142 1.215 . S
C1123 O1143 1.289 . S
C1124 C1123 1.488 . S
C1124 C1125 1.348 . S
C1124 C1129 1.413 . S
C1125 C1124 1.348 . S
C1125 C1126 1.442 . S
C1125 H1152 0.930 . S
C1126 C1125 1.442 . S
C1126 C1127 1.381 . S
C1126 H1153 0.931 . S
C1127 C1126 1.381 . S
C1127 C1128 1.321 . S
C1128 C1127 1.321 . S
C1128 C1129 1.403 . S
C1128 H1154 0.934 . S
C1129 C1124 1.413 . S
C1129 C1128 1.403 . S
C1129 H1155 0.930 . S
C1130 O1144 1.275 . S
C1130 O1145 1.256 1_554 S
C1131 O1146 1.259 . S
C1131 O1147 1.268 1_556 S
C1132 Ho1121 2.811 . S
C1132 C1133 1.488 . S
C1132 O1148 1.215 . S
C1132 O1149 1.289 . S
C1133 C1132 1.488 . S
C1133 C1134 1.348 . S
C1133 C1138 1.413 . S
C1134 C1133 1.348 . S
C1134 C1135 1.442 . S
C1134 H1156 0.930 . S
C1135 C1134 1.442 . S
C1135 C1136 1.381 . S
C1135 H1157 0.931 . S
C1136 C1135 1.381 . S
C1136 C1137 1.321 . S
C1137 C1136 1.321 . S
C1137 C1138 1.403 . S
C1137 H1158 0.934 . S
C1138 C1133 1.413 . S
C1138 C1137 1.403 . S
C1138 H1159 0.930 . S
C1139 O1150 1.275 . S
C1139 O1151 1.256 1_556 S
O1140 Ho1120 2.322 . S
O1140 C1122 1.259 . S
O1141 Ho1121 2.346 . S
O1141 C1122 1.268 1_556 S
O1142 Ho1120 2.378 . S
O1142 C1123 1.215 . S
O1143 Ho1120 2.524 . S
O1143 C1123 1.289 . S
O1144 Ho1120 2.381 . S
O1144 C1130 1.275 . S
O1145 Ho1120 2.669 1_556 S
O1145 Ho1121 2.305 . S
O1145 C1130 1.256 1_556 S
O1146 Ho1121 2.322 . S
O1146 C1131 1.259 . S
O1147 Ho1120 2.346 . S
O1147 C1131 1.268 1_554 S
O1148 Ho1121 2.378 . S
O1148 C1132 1.215 . S
O1149 Ho1121 2.524 . S
O1149 C1132 1.289 . S
O1150 Ho1121 2.381 . S
O1150 C1139 1.275 . S
O1151 Ho1120 2.305 . S
O1151 Ho1121 2.669 1_554 S
O1151 C1139 1.256 1_554 S
H1152 C1125 0.930 . S
H1153 C1126 0.931 . S
H1154 C1128 0.934 . S
H1155 C1129 0.930 . S
H1156 C1134 0.930 . S
H1157 C1135 0.931 . S
H1158 C1137 0.934 . S
H1159 C1138 0.930 . S
Ho1160 C1163 2.811 . S
Ho1160 O1180 2.322 . S
Ho1160 O1182 2.378 . S
Ho1160 O1183 2.524 . S
Ho1160 O1184 2.381 . S
Ho1160 O1185 2.669 1_554 S
Ho1160 O1187 2.346 . S
Ho1160 O1191 2.305 . S
Ho1161 C1172 2.811 . S
Ho1161 O1181 2.346 . S
Ho1161 O1185 2.305 . S
Ho1161 O1186 2.322 . S
Ho1161 O1188 2.378 . S
Ho1161 O1189 2.524 . S
Ho1161 O1190 2.381 . S
Ho1161 O1191 2.669 1_556 S
C1162 O1180 1.259 . S
C1162 O1181 1.268 1_554 S
C1163 Ho1160 2.811 . S
C1163 C1164 1.488 . S
C1163 O1182 1.215 . S
C1163 O1183 1.289 . S
C1164 C1163 1.488 . S
C1164 C1165 1.348 . S
C1164 C1169 1.413 . S
C1165 C1164 1.348 . S
C1165 C1166 1.442 . S
C1165 H1192 0.930 . S
C1166 C1165 1.442 . S
C1166 C1167 1.381 . S
C1166 H1193 0.931 . S
C1167 C1166 1.381 . S
C1167 C1168 1.321 . S
C1168 C1167 1.321 . S
C1168 C1169 1.403 . S
C1168 H1194 0.934 . S
C1169 C1164 1.413 . S
C1169 C1168 1.403 . S
C1169 H1195 0.930 . S
C1170 O1184 1.275 . S
C1170 O1185 1.256 1_554 S
C1171 O1186 1.259 . S
C1171 O1187 1.268 1_556 S
C1172 Ho1161 2.811 . S
C1172 C1173 1.488 . S
C1172 O1188 1.215 . S
C1172 O1189 1.289 . S
C1173 C1172 1.488 . S
C1173 C1174 1.348 . S
C1173 C1178 1.413 . S
C1174 C1173 1.348 . S
C1174 C1175 1.442 . S
C1174 H1196 0.930 . S
C1175 C1174 1.442 . S
C1175 C1176 1.381 . S
C1175 H1197 0.931 . S
C1176 C1175 1.381 . S
C1176 C1177 1.321 . S
C1177 C1176 1.321 . S
C1177 C1178 1.403 . S
C1177 H1198 0.934 . S
C1178 C1173 1.413 . S
C1178 C1177 1.403 . S
C1178 H1199 0.930 . S
C1179 O1190 1.275 . S
C1179 O1191 1.256 1_556 S
O1180 Ho1160 2.322 . S
O1180 C1162 1.259 . S
O1181 Ho1161 2.346 . S
O1181 C1162 1.268 1_556 S
O1182 Ho1160 2.378 . S
O1182 C1163 1.215 . S
O1183 Ho1160 2.524 . S
O1183 C1163 1.289 . S
O1184 Ho1160 2.381 . S
O1184 C1170 1.275 . S
O1185 Ho1160 2.669 1_556 S
O1185 Ho1161 2.305 . S
O1185 C1170 1.256 1_556 S
O1186 Ho1161 2.322 . S
O1186 C1171 1.259 . S
O1187 Ho1160 2.346 . S
O1187 C1171 1.268 1_554 S
O1188 Ho1161 2.378 . S
O1188 C1172 1.215 . S
O1189 Ho1161 2.524 . S
O1189 C1172 1.289 . S
O1190 Ho1161 2.381 . S
O1190 C1179 1.275 . S
O1191 Ho1160 2.305 . S
O1191 Ho1161 2.669 1_554 S
O1191 C1179 1.256 1_554 S
H1192 C1165 0.930 . S
H1193 C1166 0.931 . S
H1194 C1168 0.934 . S
H1195 C1169 0.930 . S
H1196 C1174 0.930 . S
H1197 C1175 0.931 . S
H1198 C1177 0.934 . S
H1199 C1178 0.930 . S
Ho1200 C1203 2.811 . S
Ho1200 O1220 2.322 . S
Ho1200 O1222 2.378 . S
Ho1200 O1223 2.524 . S
Ho1200 O1224 2.381 . S
Ho1200 O1225 2.669 . S
Ho1200 O1227 2.346 . S
Ho1200 O1231 2.305 . S
Ho1201 C1212 2.811 . S
Ho1201 O1221 2.346 . S
Ho1201 O1225 2.305 . S
Ho1201 O1226 2.322 . S
Ho1201 O1228 2.378 . S
Ho1201 O1229 2.524 . S
Ho1201 O1230 2.381 . S
Ho1201 O1231 2.669 . S
C1202 O1220 1.259 . S
C1202 O1221 1.268 . S
C1203 Ho1200 2.811 . S
C1203 C1204 1.488 . S
C1203 O1222 1.215 . S
C1203 O1223 1.289 . S
C1204 C1203 1.488 . S
C1204 C1205 1.348 . S
C1204 C1209 1.413 . S
C1205 C1204 1.348 . S
C1205 C1206 1.442 . S
C1205 H1232 0.930 . S
C1206 C1205 1.442 . S
C1206 C1207 1.381 . S
C1206 H1233 0.931 . S
C1207 C1206 1.381 . S
C1207 C1208 1.321 . S
C1208 C1207 1.321 . S
C1208 C1209 1.403 . S
C1208 H1234 0.934 . S
C1209 C1204 1.413 . S
C1209 C1208 1.403 . S
C1209 H1235 0.930 . S
C1210 O1224 1.275 . S
C1210 O1225 1.256 . S
C1211 O1226 1.259 . S
C1211 O1227 1.268 . S
C1212 Ho1201 2.811 . S
C1212 C1213 1.488 . S
C1212 O1228 1.215 . S
C1212 O1229 1.289 . S
C1213 C1212 1.488 . S
C1213 C1214 1.348 . S
C1213 C1218 1.413 . S
C1214 C1213 1.348 . S
C1214 C1215 1.442 . S
C1214 H1236 0.930 . S
C1215 C1214 1.442 . S
C1215 C1216 1.381 . S
C1215 H1237 0.931 . S
C1216 C1215 1.381 . S
C1216 C1217 1.321 . S
C1217 C1216 1.321 . S
C1217 C1218 1.403 . S
C1217 H1238 0.934 . S
C1218 C1213 1.413 . S
C1218 C1217 1.403 . S
C1218 H1239 0.930 . S
C1219 O1230 1.275 . S
C1219 O1231 1.256 . S
O1220 Ho1200 2.322 . S
O1220 C1202 1.259 . S
O1221 Ho1201 2.346 . S
O1221 C1202 1.268 . S
O1222 Ho1200 2.378 . S
O1222 C1203 1.215 . S
O1223 Ho1200 2.524 . S
O1223 C1203 1.289 . S
O1224 Ho1200 2.381 . S
O1224 C1210 1.275 . S
O1225 Ho1200 2.669 . S
O1225 Ho1201 2.305 . S
O1225 C1210 1.256 . S
O1226 Ho1201 2.322 . S
O1226 C1211 1.259 . S
O1227 Ho1200 2.346 . S
O1227 C1211 1.268 . S
O1228 Ho1201 2.378 . S
O1228 C1212 1.215 . S
O1229 Ho1201 2.524 . S
O1229 C1212 1.289 . S
O1230 Ho1201 2.381 . S
O1230 C1219 1.275 . S
O1231 Ho1200 2.305 . S
O1231 Ho1201 2.669 . S
O1231 C1219 1.256 . S
H1232 C1205 0.930 . S
H1233 C1206 0.931 . S
H1234 C1208 0.934 . S
H1235 C1209 0.930 . S
H1236 C1214 0.930 . S
H1237 C1215 0.931 . S
H1238 C1217 0.934 . S
H1239 C1218 0.930 . S
Ho1240 C1243 2.811 . S
Ho1240 O1260 2.322 . S
Ho1240 O1262 2.378 . S
Ho1240 O1263 2.524 . S
Ho1240 O1264 2.381 . S
Ho1240 O1265 2.669 . S
Ho1240 O1267 2.346 . S
Ho1240 O1271 2.305 . S
Ho1241 C1252 2.811 . S
Ho1241 O1261 2.346 . S
Ho1241 O1265 2.305 . S
Ho1241 O1266 2.322 . S
Ho1241 O1268 2.378 . S
Ho1241 O1269 2.524 . S
Ho1241 O1270 2.381 . S
Ho1241 O1271 2.669 . S
C1242 O1260 1.259 . S
C1242 O1261 1.268 . S
C1243 Ho1240 2.811 . S
C1243 C1244 1.488 . S
C1243 O1262 1.215 . S
C1243 O1263 1.289 . S
C1244 C1243 1.488 . S
C1244 C1245 1.348 . S
C1244 C1249 1.413 . S
C1245 C1244 1.348 . S
C1245 C1246 1.442 . S
C1245 H1272 0.930 . S
C1246 C1245 1.442 . S
C1246 C1247 1.381 . S
C1246 H1273 0.931 . S
C1247 C1246 1.381 . S
C1247 C1248 1.321 . S
C1248 C1247 1.321 . S
C1248 C1249 1.403 . S
C1248 H1274 0.934 . S
C1249 C1244 1.413 . S
C1249 C1248 1.403 . S
C1249 H1275 0.930 . S
C1250 O1264 1.275 . S
C1250 O1265 1.256 . S
C1251 O1266 1.259 . S
C1251 O1267 1.268 . S
C1252 Ho1241 2.811 . S
C1252 C1253 1.488 . S
C1252 O1268 1.215 . S
C1252 O1269 1.289 . S
C1253 C1252 1.488 . S
C1253 C1254 1.348 . S
C1253 C1258 1.413 . S
C1254 C1253 1.348 . S
C1254 C1255 1.442 . S
C1254 H1276 0.930 . S
C1255 C1254 1.442 . S
C1255 C1256 1.381 . S
C1255 H1277 0.931 . S
C1256 C1255 1.381 . S
C1256 C1257 1.321 . S
C1257 C1256 1.321 . S
C1257 C1258 1.403 . S
C1257 H1278 0.934 . S
C1258 C1253 1.413 . S
C1258 C1257 1.403 . S
C1258 H1279 0.930 . S
C1259 O1270 1.275 . S
C1259 O1271 1.256 . S
O1260 Ho1240 2.322 . S
O1260 C1242 1.259 . S
O1261 Ho1241 2.346 . S
O1261 C1242 1.268 . S
O1262 Ho1240 2.378 . S
O1262 C1243 1.215 . S
O1263 Ho1240 2.524 . S
O1263 C1243 1.289 . S
O1264 Ho1240 2.381 . S
O1264 C1250 1.275 . S
O1265 Ho1240 2.669 . S
O1265 Ho1241 2.305 . S
O1265 C1250 1.256 . S
O1266 Ho1241 2.322 . S
O1266 C1251 1.259 . S
O1267 Ho1240 2.346 . S
O1267 C1251 1.268 . S
O1268 Ho1241 2.378 . S
O1268 C1252 1.215 . S
O1269 Ho1241 2.524 . S
O1269 C1252 1.289 . S
O1270 Ho1241 2.381 . S
O1270 C1259 1.275 . S
O1271 Ho1240 2.305 . S
O1271 Ho1241 2.669 . S
O1271 C1259 1.256 . S
H1272 C1245 0.930 . S
H1273 C1246 0.931 . S
H1274 C1248 0.934 . S
H1275 C1249 0.930 . S
H1276 C1254 0.930 . S
H1277 C1255 0.931 . S
H1278 C1257 0.934 . S
H1279 C1258 0.930 . S
Ho1280 C1283 2.811 . S
Ho1280 O1300 2.322 . S
Ho1280 O1302 2.378 . S
Ho1280 O1303 2.524 . S
Ho1280 O1304 2.381 . S
Ho1280 O1305 2.669 . S
Ho1280 O1307 2.346 . S
Ho1280 O1311 2.305 . S
Ho1281 C1292 2.811 . S
Ho1281 O1301 2.346 . S
Ho1281 O1305 2.305 . S
Ho1281 O1306 2.322 . S
Ho1281 O1308 2.378 . S
Ho1281 O1309 2.524 . S
Ho1281 O1310 2.381 . S
Ho1281 O1311 2.669 . S
C1282 O1300 1.259 . S
C1282 O1301 1.268 . S
C1283 Ho1280 2.811 . S
C1283 C1284 1.488 . S
C1283 O1302 1.215 . S
C1283 O1303 1.289 . S
C1284 C1283 1.488 . S
C1284 C1285 1.348 . S
C1284 C1289 1.413 . S
C1285 C1284 1.348 . S
C1285 C1286 1.442 . S
C1285 H1312 0.930 . S
C1286 C1285 1.442 . S
C1286 C1287 1.381 . S
C1286 H1313 0.931 . S
C1287 C1286 1.381 . S
C1287 C1288 1.321 . S
C1288 C1287 1.321 . S
C1288 C1289 1.403 . S
C1288 H1314 0.934 . S
C1289 C1284 1.413 . S
C1289 C1288 1.403 . S
C1289 H1315 0.930 . S
C1290 O1304 1.275 . S
C1290 O1305 1.256 . S
C1291 O1306 1.259 . S
C1291 O1307 1.268 . S
C1292 Ho1281 2.811 . S
C1292 C1293 1.488 . S
C1292 O1308 1.215 . S
C1292 O1309 1.289 . S
C1293 C1292 1.488 . S
C1293 C1294 1.348 . S
C1293 C1298 1.413 . S
C1294 C1293 1.348 . S
C1294 C1295 1.442 . S
C1294 H1316 0.930 . S
C1295 C1294 1.442 . S
C1295 C1296 1.381 . S
C1295 H1317 0.931 . S
C1296 C1295 1.381 . S
C1296 C1297 1.321 . S
C1297 C1296 1.321 . S
C1297 C1298 1.403 . S
C1297 H1318 0.934 . S
C1298 C1293 1.413 . S
C1298 C1297 1.403 . S
C1298 H1319 0.930 . S
C1299 O1310 1.275 . S
C1299 O1311 1.256 . S
O1300 Ho1280 2.322 . S
O1300 C1282 1.259 . S
O1301 Ho1281 2.346 . S
O1301 C1282 1.268 . S
O1302 Ho1280 2.378 . S
O1302 C1283 1.215 . S
O1303 Ho1280 2.524 . S
O1303 C1283 1.289 . S
O1304 Ho1280 2.381 . S
O1304 C1290 1.275 . S
O1305 Ho1280 2.669 . S
O1305 Ho1281 2.305 . S
O1305 C1290 1.256 . S
O1306 Ho1281 2.322 . S
O1306 C1291 1.259 . S
O1307 Ho1280 2.346 . S
O1307 C1291 1.268 . S
O1308 Ho1281 2.378 . S
O1308 C1292 1.215 . S
O1309 Ho1281 2.524 . S
O1309 C1292 1.289 . S
O1310 Ho1281 2.381 . S
O1310 C1299 1.275 . S
O1311 Ho1280 2.305 . S
O1311 Ho1281 2.669 . S
O1311 C1299 1.256 . S
H1312 C1285 0.930 . S
H1313 C1286 0.931 . S
H1314 C1288 0.934 . S
H1315 C1289 0.930 . S
H1316 C1294 0.930 . S
H1317 C1295 0.931 . S
H1318 C1297 0.934 . S
H1319 C1298 0.930 . S
Ho1320 C1323 2.811 . S
Ho1320 O1340 2.322 . S
Ho1320 O1342 2.378 . S
Ho1320 O1343 2.524 . S
Ho1320 O1344 2.381 . S
Ho1320 O1345 2.669 . S
Ho1320 O1347 2.346 . S
Ho1320 O1351 2.305 . S
Ho1321 C1332 2.811 . S
Ho1321 O1341 2.346 . S
Ho1321 O1345 2.305 . S
Ho1321 O1346 2.322 . S
Ho1321 O1348 2.378 . S
Ho1321 O1349 2.524 . S
Ho1321 O1350 2.381 . S
Ho1321 O1351 2.669 . S
C1322 O1340 1.259 . S
C1322 O1341 1.268 . S
C1323 Ho1320 2.811 . S
C1323 C1324 1.488 . S
C1323 O1342 1.215 . S
C1323 O1343 1.289 . S
C1324 C1323 1.488 . S
C1324 C1325 1.348 . S
C1324 C1329 1.413 . S
C1325 C1324 1.348 . S
C1325 C1326 1.442 . S
C1325 H1352 0.930 . S
C1326 C1325 1.442 . S
C1326 C1327 1.381 . S
C1326 H1353 0.931 . S
C1327 C1326 1.381 . S
C1327 C1328 1.321 . S
C1328 C1327 1.321 . S
C1328 C1329 1.403 . S
C1328 H1354 0.934 . S
C1329 C1324 1.413 . S
C1329 C1328 1.403 . S
C1329 H1355 0.930 . S
C1330 O1344 1.275 . S
C1330 O1345 1.256 . S
C1331 O1346 1.259 . S
C1331 O1347 1.268 . S
C1332 Ho1321 2.811 . S
C1332 C1333 1.488 . S
C1332 O1348 1.215 . S
C1332 O1349 1.289 . S
C1333 C1332 1.488 . S
C1333 C1334 1.348 1_455 S
C1333 C1338 1.413 . S
C1334 C1333 1.348 1_655 S
C1334 C1335 1.442 . S
C1334 H1356 0.930 . S
C1335 C1334 1.442 . S
C1335 C1336 1.381 . S
C1335 H1357 0.931 . S
C1336 C1335 1.381 . S
C1336 C1337 1.321 1_655 S
C1337 C1336 1.321 1_455 S
C1337 C1338 1.403 . S
C1337 H1358 0.934 . S
C1338 C1333 1.413 . S
C1338 C1337 1.403 . S
C1338 H1359 0.930 . S
C1339 O1350 1.275 . S
C1339 O1351 1.256 . S
O1340 Ho1320 2.322 . S
O1340 C1322 1.259 . S
O1341 Ho1321 2.346 . S
O1341 C1322 1.268 . S
O1342 Ho1320 2.378 . S
O1342 C1323 1.215 . S
O1343 Ho1320 2.524 . S
O1343 C1323 1.289 . S
O1344 Ho1320 2.381 . S
O1344 C1330 1.275 . S
O1345 Ho1320 2.669 . S
O1345 Ho1321 2.305 . S
O1345 C1330 1.256 . S
O1346 Ho1321 2.322 . S
O1346 C1331 1.259 . S
O1347 Ho1320 2.346 . S
O1347 C1331 1.268 . S
O1348 Ho1321 2.378 . S
O1348 C1332 1.215 . S
O1349 Ho1321 2.524 . S
O1349 C1332 1.289 . S
O1350 Ho1321 2.381 . S
O1350 C1339 1.275 . S
O1351 Ho1320 2.305 . S
O1351 Ho1321 2.669 . S
O1351 C1339 1.256 . S
H1352 C1325 0.930 . S
H1353 C1326 0.931 . S
H1354 C1328 0.934 . S
H1355 C1329 0.930 . S
H1356 C1334 0.930 . S
H1357 C1335 0.931 . S
H1358 C1337 0.934 . S
H1359 C1338 0.930 . S
Ho1360 C1363 2.811 . S
Ho1360 O1380 2.322 . S
Ho1360 O1382 2.378 . S
Ho1360 O1383 2.524 . S
Ho1360 O1384 2.381 . S
Ho1360 O1385 2.669 . S
Ho1360 O1387 2.346 . S
Ho1360 O1391 2.305 . S
Ho1361 C1372 2.811 . S
Ho1361 O1381 2.346 . S
Ho1361 O1385 2.305 . S
Ho1361 O1386 2.322 . S
Ho1361 O1388 2.378 . S
Ho1361 O1389 2.524 . S
Ho1361 O1390 2.381 . S
Ho1361 O1391 2.669 . S
C1362 O1380 1.259 . S
C1362 O1381 1.268 . S
C1363 Ho1360 2.811 . S
C1363 C1364 1.488 . S
C1363 O1382 1.215 . S
C1363 O1383 1.289 . S
C1364 C1363 1.488 . S
C1364 C1365 1.348 . S
C1364 C1369 1.413 . S
C1365 C1364 1.348 . S
C1365 C1366 1.442 . S
C1365 H1392 0.930 . S
C1366 C1365 1.442 . S
C1366 C1367 1.381 . S
C1366 H1393 0.931 . S
C1367 C1366 1.381 . S
C1367 C1368 1.321 . S
C1368 C1367 1.321 . S
C1368 C1369 1.403 . S
C1368 H1394 0.934 . S
C1369 C1364 1.413 . S
C1369 C1368 1.403 . S
C1369 H1395 0.930 . S
C1370 O1384 1.275 . S
C1370 O1385 1.256 . S
C1371 O1386 1.259 . S
C1371 O1387 1.268 . S
C1372 Ho1361 2.811 . S
C1372 C1373 1.488 . S
C1372 O1388 1.215 . S
C1372 O1389 1.289 . S
C1373 C1372 1.488 . S
C1373 C1374 1.348 . S
C1373 C1378 1.413 . S
C1374 C1373 1.348 . S
C1374 C1375 1.442 . S
C1374 H1396 0.930 . S
C1375 C1374 1.442 . S
C1375 C1376 1.381 . S
C1375 H1397 0.931 . S
C1376 C1375 1.381 . S
C1376 C1377 1.321 . S
C1377 C1376 1.321 . S
C1377 C1378 1.403 . S
C1377 H1398 0.934 . S
C1378 C1373 1.413 . S
C1378 C1377 1.403 . S
C1378 H1399 0.930 . S
C1379 O1390 1.275 . S
C1379 O1391 1.256 . S
O1380 Ho1360 2.322 . S
O1380 C1362 1.259 . S
O1381 Ho1361 2.346 . S
O1381 C1362 1.268 . S
O1382 Ho1360 2.378 . S
O1382 C1363 1.215 . S
O1383 Ho1360 2.524 . S
O1383 C1363 1.289 . S
O1384 Ho1360 2.381 . S
O1384 C1370 1.275 . S
O1385 Ho1360 2.669 . S
O1385 Ho1361 2.305 . S
O1385 C1370 1.256 . S
O1386 Ho1361 2.322 . S
O1386 C1371 1.259 . S
O1387 Ho1360 2.346 . S
O1387 C1371 1.268 . S
O1388 Ho1361 2.378 . S
O1388 C1372 1.215 . S
O1389 Ho1361 2.524 . S
O1389 C1372 1.289 . S
O1390 Ho1361 2.381 . S
O1390 C1379 1.275 . S
O1391 Ho1360 2.305 . S
O1391 Ho1361 2.669 . S
O1391 C1379 1.256 . S
H1392 C1365 0.930 . S
H1393 C1366 0.931 . S
H1394 C1368 0.934 . S
H1395 C1369 0.930 . S
H1396 C1374 0.930 . S
H1397 C1375 0.931 . S
H1398 C1377 0.934 . S
H1399 C1378 0.930 . S
Ho1400 C1403 2.811 . S
Ho1400 O1420 2.322 . S
Ho1400 O1422 2.378 . S
Ho1400 O1423 2.524 . S
Ho1400 O1424 2.381 . S
Ho1400 O1425 2.669 . S
Ho1400 O1427 2.346 . S
Ho1400 O1431 2.305 . S
Ho1401 C1412 2.811 . S
Ho1401 O1421 2.346 . S
Ho1401 O1425 2.305 . S
Ho1401 O1426 2.322 . S
Ho1401 O1428 2.378 . S
Ho1401 O1429 2.524 . S
Ho1401 O1430 2.381 . S
Ho1401 O1431 2.669 . S
C1402 O1420 1.259 . S
C1402 O1421 1.268 . S
C1403 Ho1400 2.811 . S
C1403 C1404 1.488 . S
C1403 O1422 1.215 . S
C1403 O1423 1.289 . S
C1404 C1403 1.488 . S
C1404 C1405 1.348 . S
C1404 C1409 1.413 . S
C1405 C1404 1.348 . S
C1405 C1406 1.442 . S
C1405 H1432 0.930 . S
C1406 C1405 1.442 . S
C1406 C1407 1.381 . S
C1406 H1433 0.931 . S
C1407 C1406 1.381 . S
C1407 C1408 1.321 . S
C1408 C1407 1.321 . S
C1408 C1409 1.403 . S
C1408 H1434 0.934 . S
C1409 C1404 1.413 . S
C1409 C1408 1.403 . S
C1409 H1435 0.930 . S
C1410 O1424 1.275 . S
C1410 O1425 1.256 . S
C1411 O1426 1.259 . S
C1411 O1427 1.268 . S
C1412 Ho1401 2.811 . S
C1412 C1413 1.488 . S
C1412 O1428 1.215 . S
C1412 O1429 1.289 . S
C1413 C1412 1.488 . S
C1413 C1414 1.348 1_565 S
C1413 C1418 1.413 . S
C1414 C1413 1.348 1_545 S
C1414 C1415 1.442 . S
C1414 H1436 0.930 . S
C1415 C1414 1.442 . S
C1415 C1416 1.381 . S
C1415 H1437 0.931 . S
C1416 C1415 1.381 . S
C1416 C1417 1.321 1_545 S
C1417 C1416 1.321 1_565 S
C1417 C1418 1.403 . S
C1417 H1438 0.934 . S
C1418 C1413 1.413 . S
C1418 C1417 1.403 . S
C1418 H1439 0.930 . S
C1419 O1430 1.275 . S
C1419 O1431 1.256 . S
O1420 Ho1400 2.322 . S
O1420 C1402 1.259 . S
O1421 Ho1401 2.346 . S
O1421 C1402 1.268 . S
O1422 Ho1400 2.378 . S
O1422 C1403 1.215 . S
O1423 Ho1400 2.524 . S
O1423 C1403 1.289 . S
O1424 Ho1400 2.381 . S
O1424 C1410 1.275 . S
O1425 Ho1400 2.669 . S
O1425 Ho1401 2.305 . S
O1425 C1410 1.256 . S
O1426 Ho1401 2.322 . S
O1426 C1411 1.259 . S
O1427 Ho1400 2.346 . S
O1427 C1411 1.268 . S
O1428 Ho1401 2.378 . S
O1428 C1412 1.215 . S
O1429 Ho1401 2.524 . S
O1429 C1412 1.289 . S
O1430 Ho1401 2.381 . S
O1430 C1419 1.275 . S
O1431 Ho1400 2.305 . S
O1431 Ho1401 2.669 . S
O1431 C1419 1.256 . S
H1432 C1405 0.930 . S
H1433 C1406 0.931 . S
H1434 C1408 0.934 . S
H1435 C1409 0.930 . S
H1436 C1414 0.930 . S
H1437 C1415 0.931 . S
H1438 C1417 0.934 . S
H1439 C1418 0.930 . S
C1440 C1441 1.369 . S
C1440 C1442 1.419 . S
C1440 H1444 0.930 . S
C1441 C1440 1.369 . S
C1441 C1450 1.429 . S
C1442 C1440 1.419 . S
C1442 C1443 1.363 . S
C1442 H1445 0.929 . S
C1443 C1442 1.363 . S
C1443 C1449 1.428 . S
H1444 C1440 0.930 . S
H1445 C1442 0.929 . S
S1446 N1447 1.613 . S
S1446 N1448 1.610 . S
N1447 S1446 1.613 . S
N1447 C1450 1.350 . S
N1448 S1446 1.610 . S
N1448 C1449 1.351 . S
C1449 C1443 1.428 . S
C1449 N1448 1.351 . S
C1449 C1450 1.434 . S
C1450 C1441 1.429 . S
C1450 N1447 1.350 . S
C1450 C1449 1.434 . S
C1451 C1452 1.369 . S
C1451 C1453 1.419 . S
C1451 H1455 0.930 . S
C1452 C1451 1.369 . S
C1452 C1461 1.429 . S
C1453 C1451 1.419 . S
C1453 C1454 1.363 . S
C1453 H1456 0.929 . S
C1454 C1453 1.363 . S
C1454 C1460 1.428 . S
H1455 C1451 0.930 . S
H1456 C1453 0.929 . S
S1457 N1458 1.613 . S
S1457 N1459 1.610 . S
N1458 S1457 1.613 . S
N1458 C1461 1.350 . S
N1459 S1457 1.610 . S
N1459 C1460 1.351 . S
C1460 C1454 1.428 . S
C1460 N1459 1.351 . S
C1460 C1461 1.434 . S
C1461 C1452 1.429 . S
C1461 N1458 1.350 . S
C1461 C1460 1.434 . S
C1462 C1463 1.369 . S
C1462 C1464 1.419 . S
C1462 H1466 0.930 . S
C1463 C1462 1.369 . S
C1463 C1472 1.429 . S
C1464 C1462 1.419 . S
C1464 C1465 1.363 . S
C1464 H1467 0.929 . S
C1465 C1464 1.363 . S
C1465 C1471 1.428 . S
H1466 C1462 0.930 . S
H1467 C1464 0.929 . S
S1468 N1469 1.613 . S
S1468 N1470 1.610 . S
N1469 S1468 1.613 . S
N1469 C1472 1.350 . S
N1470 S1468 1.610 . S
N1470 C1471 1.351 . S
C1471 C1465 1.428 . S
C1471 N1470 1.351 . S
C1471 C1472 1.434 . S
C1472 C1463 1.429 . S
C1472 N1469 1.350 . S
C1472 C1471 1.434 . S
C1473 C1474 1.369 . S
C1473 C1475 1.419 . S
C1473 H1477 0.930 . S
C1474 C1473 1.369 . S
C1474 C1483 1.429 . S
C1475 C1473 1.419 . S
C1475 C1476 1.363 . S
C1475 H1478 0.929 . S
C1476 C1475 1.363 . S
C1476 C1482 1.428 . S
H1477 C1473 0.930 . S
H1478 C1475 0.929 . S
S1479 N1480 1.613 . S
S1479 N1481 1.610 . S
N1480 S1479 1.613 . S
N1480 C1483 1.350 . S
N1481 S1479 1.610 . S
N1481 C1482 1.351 . S
C1482 C1476 1.428 . S
C1482 N1481 1.351 . S
C1482 C1483 1.434 . S
C1483 C1474 1.429 . S
C1483 N1480 1.350 . S
C1483 C1482 1.434 . S
C1484 C1485 1.369 . S
C1484 C1486 1.419 . S
C1484 H1488 0.930 . S
C1485 C1484 1.369 . S
C1485 C1494 1.429 . S
C1486 C1484 1.419 . S
C1486 C1487 1.363 . S
C1486 H1489 0.929 . S
C1487 C1486 1.363 . S
C1487 C1493 1.428 . S
H1488 C1484 0.930 . S
H1489 C1486 0.929 . S
S1490 N1491 1.613 . S
S1490 N1492 1.610 . S
N1491 S1490 1.613 . S
N1491 C1494 1.350 . S
N1492 S1490 1.610 . S
N1492 C1493 1.351 . S
C1493 C1487 1.428 . S
C1493 N1492 1.351 . S
C1493 C1494 1.434 . S
C1494 C1485 1.429 . S
C1494 N1491 1.350 . S
C1494 C1493 1.434 . S
C1495 C1496 1.369 . S
C1495 C1497 1.419 . S
C1495 H1499 0.930 . S
C1496 C1495 1.369 . S
C1496 C1505 1.429 . S
C1497 C1495 1.419 . S
C1497 C1498 1.363 . S
C1497 H1500 0.929 . S
C1498 C1497 1.363 . S
C1498 C1504 1.428 . S
H1499 C1495 0.930 . S
H1500 C1497 0.929 . S
S1501 N1502 1.613 . S
S1501 N1503 1.610 . S
N1502 S1501 1.613 . S
N1502 C1505 1.350 . S
N1503 S1501 1.610 . S
N1503 C1504 1.351 . S
C1504 C1498 1.428 . S
C1504 N1503 1.351 . S
C1504 C1505 1.434 . S
C1505 C1496 1.429 . S
C1505 N1502 1.350 . S
C1505 C1504 1.434 . S
C1506 C1507 1.369 . S
C1506 C1508 1.419 . S
C1506 H1510 0.930 . S
C1507 C1506 1.369 . S
C1507 C1516 1.429 . S
C1508 C1506 1.419 . S
C1508 C1509 1.363 . S
C1508 H1511 0.929 . S
C1509 C1508 1.363 . S
C1509 C1515 1.428 . S
H1510 C1506 0.930 . S
H1511 C1508 0.929 . S
S1512 N1513 1.613 . S
S1512 N1514 1.610 1_565 S
N1513 S1512 1.613 . S
N1513 C1516 1.350 . S
N1514 S1512 1.610 1_545 S
N1514 C1515 1.351 1_545 S
C1515 C1509 1.428 . S
C1515 N1514 1.351 1_565 S
C1515 C1516 1.434 . S
C1516 C1507 1.429 . S
C1516 N1513 1.350 . S
C1516 C1515 1.434 . S
C1517 C1518 1.369 . S
C1517 C1519 1.419 . S
C1517 H1521 0.930 . S
C1518 C1517 1.369 . S
C1518 C1527 1.429 . S
C1519 C1517 1.419 . S
C1519 C1520 1.363 . S
C1519 H1522 0.929 . S
C1520 C1519 1.363 . S
C1520 C1526 1.428 . S
H1521 C1517 0.930 . S
H1522 C1519 0.929 . S
S1523 N1524 1.613 . S
S1523 N1525 1.610 . S
N1524 S1523 1.613 . S
N1524 C1527 1.350 . S
N1525 S1523 1.610 . S
N1525 C1526 1.351 . S
C1526 C1520 1.428 . S
C1526 N1525 1.351 . S
C1526 C1527 1.434 . S
C1527 C1518 1.429 . S
C1527 N1524 1.350 . S
C1527 C1526 1.434 . S
C1528 C1529 1.369 . S
C1528 C1530 1.419 . S
C1528 H1532 0.930 . S
C1529 C1528 1.369 . S
C1529 C1538 1.429 . S
C1530 C1528 1.419 . S
C1530 C1531 1.363 . S
C1530 H1533 0.929 . S
C1531 C1530 1.363 . S
C1531 C1537 1.428 . S
H1532 C1528 0.930 . S
H1533 C1530 0.929 . S
S1534 N1535 1.613 . S
S1534 N1536 1.610 . S
N1535 S1534 1.613 . S
N1535 C1538 1.350 . S
N1536 S1534 1.610 . S
N1536 C1537 1.351 . S
C1537 C1531 1.428 . S
C1537 N1536 1.351 . S
C1537 C1538 1.434 . S
C1538 C1529 1.429 . S
C1538 N1535 1.350 . S
C1538 C1537 1.434 . S
C1539 C1540 1.369 . S
C1539 C1541 1.419 . S
C1539 H1543 0.930 . S
C1540 C1539 1.369 . S
C1540 C1549 1.429 . S
C1541 C1539 1.419 . S
C1541 C1542 1.363 . S
C1541 H1544 0.929 . S
C1542 C1541 1.363 . S
C1542 C1548 1.428 . S
H1543 C1539 0.930 . S
H1544 C1541 0.929 . S
S1545 N1546 1.613 . S
S1545 N1547 1.610 1_655 S
N1546 S1545 1.613 . S
N1546 C1549 1.350 . S
N1547 S1545 1.610 1_455 S
N1547 C1548 1.351 1_455 S
C1548 C1542 1.428 . S
C1548 N1547 1.351 1_655 S
C1548 C1549 1.434 . S
C1549 C1540 1.429 . S
C1549 N1546 1.350 . S
C1549 C1548 1.434 . S
C1550 C1551 1.369 . S
C1550 C1552 1.419 . S
C1550 H1554 0.930 . S
C1551 C1550 1.369 . S
C1551 C1560 1.429 . S
C1552 C1550 1.419 . S
C1552 C1553 1.363 . S
C1552 H1555 0.929 . S
C1553 C1552 1.363 . S
C1553 C1559 1.428 . S
H1554 C1550 0.930 . S
H1555 C1552 0.929 . S
S1556 N1557 1.613 . S
S1556 N1558 1.610 . S
N1557 S1556 1.613 . S
N1557 C1560 1.350 . S
N1558 S1556 1.610 . S
N1558 C1559 1.351 . S
C1559 C1553 1.428 . S
C1559 N1558 1.351 . S
C1559 C1560 1.434 . S
C1560 C1551 1.429 . S
C1560 N1557 1.350 . S
C1560 C1559 1.434 . S
C1561 C1562 1.369 . S
C1561 C1563 1.419 . S
C1561 H1565 0.930 . S
C1562 C1561 1.369 . S
C1562 C1571 1.429 . S
C1563 C1561 1.419 . S
C1563 C1564 1.363 . S
C1563 H1566 0.929 . S
C1564 C1563 1.363 . S
C1564 C1570 1.428 . S
H1565 C1561 0.930 . S
H1566 C1563 0.929 . S
S1567 N1568 1.613 . S
S1567 N1569 1.610 . S
N1568 S1567 1.613 . S
N1568 C1571 1.350 . S
N1569 S1567 1.610 . S
N1569 C1570 1.351 . S
C1570 C1564 1.428 . S
C1570 N1569 1.351 . S
C1570 C1571 1.434 . S
C1571 C1562 1.429 . S
C1571 N1568 1.350 . S
C1571 C1570 1.434 . S
C1572 C1573 1.369 . S
C1572 C1574 1.419 . S
C1572 H1576 0.930 . S
C1573 C1572 1.369 . S
C1573 C1582 1.429 . S
C1574 C1572 1.419 . S
C1574 C1575 1.363 . S
C1574 H1577 0.929 . S
C1575 C1574 1.363 . S
C1575 C1581 1.428 . S
H1576 C1572 0.930 . S
H1577 C1574 0.929 . S
S1578 N1579 1.613 . S
S1578 N1580 1.610 . S
N1579 S1578 1.613 . S
N1579 C1582 1.350 . S
N1580 S1578 1.610 . S
N1580 C1581 1.351 . S
C1581 C1575 1.428 . S
C1581 N1580 1.351 . S
C1581 C1582 1.434 . S
C1582 C1573 1.429 . S
C1582 N1579 1.350 . S
C1582 C1581 1.434 . S
C1583 C1584 1.369 . S
C1583 C1585 1.419 . S
C1583 H1587 0.930 . S
C1584 C1583 1.369 . S
C1584 C1593 1.429 . S
C1585 C1583 1.419 . S
C1585 C1586 1.363 . S
C1585 H1588 0.929 . S
C1586 C1585 1.363 . S
C1586 C1592 1.428 . S
H1587 C1583 0.930 . S
H1588 C1585 0.929 . S
S1589 N1590 1.613 . S
S1589 N1591 1.610 . S
N1590 S1589 1.613 . S
N1590 C1593 1.350 . S
N1591 S1589 1.610 . S
N1591 C1592 1.351 . S
C1592 C1586 1.428 . S
C1592 N1591 1.351 . S
C1592 C1593 1.434 . S
C1593 C1584 1.429 . S
C1593 N1590 1.350 . S
C1593 C1592 1.434 . S
C1594 C1595 1.369 . S
C1594 C1596 1.419 . S
C1594 H1598 0.930 . S
C1595 C1594 1.369 . S
C1595 C1604 1.429 . S
C1596 C1594 1.419 . S
C1596 C1597 1.363 . S
C1596 H1599 0.929 . S
C1597 C1596 1.363 . S
C1597 C1603 1.428 . S
H1598 C1594 0.930 . S
H1599 C1596 0.929 . S
S1600 N1601 1.613 . S
S1600 N1602 1.610 . S
N1601 S1600 1.613 . S
N1601 C1604 1.350 . S
N1602 S1600 1.610 . S
N1602 C1603 1.351 . S
C1603 C1597 1.428 . S
C1603 N1602 1.351 . S
C1603 C1604 1.434 . S
C1604 C1595 1.429 . S
C1604 N1601 1.350 . S
C1604 C1603 1.434 . S
C1605 C1606 1.369 . S
C1605 C1607 1.419 . S
C1605 H1609 0.930 . S
C1606 C1605 1.369 . S
C1606 C1615 1.429 . S
C1607 C1605 1.419 . S
C1607 C1608 1.363 . S
C1607 H1610 0.929 . S
C1608 C1607 1.363 . S
C1608 C1614 1.428 . S
H1609 C1605 0.930 . S
H1610 C1607 0.929 . S
S1611 N1612 1.613 . S
S1611 N1613 1.610 . S
N1612 S1611 1.613 . S
N1612 C1615 1.350 . S
N1613 S1611 1.610 . S
N1613 C1614 1.351 . S
C1614 C1608 1.428 . S
C1614 N1613 1.351 . S
C1614 C1615 1.434 . S
C1615 C1606 1.429 . S
C1615 N1612 1.350 . S
C1615 C1614 1.434 . S
C1616 C1617 1.369 . S
C1616 C1618 1.419 . S
C1616 H1620 0.930 . S
C1617 C1616 1.369 . S
C1617 C1626 1.429 . S
C1618 C1616 1.419 . S
C1618 C1619 1.363 . S
C1618 H1621 0.929 . S
C1619 C1618 1.363 . S
C1619 C1625 1.428 . S
H1620 C1616 0.930 . S
H1621 C1618 0.929 . S
S1622 N1623 1.613 . S
S1622 N1624 1.610 . S
N1623 S1622 1.613 . S
N1623 C1626 1.350 . S
N1624 S1622 1.610 . S
N1624 C1625 1.351 . S
C1625 C1619 1.428 . S
C1625 N1624 1.351 . S
C1625 C1626 1.434 . S
C1626 C1617 1.429 . S
C1626 N1623 1.350 . S
C1626 C1625 1.434 . S
C1627 C1628 1.369 . S
C1627 C1629 1.419 . S
C1627 H1631 0.930 . S
C1628 C1627 1.369 . S
C1628 C1637 1.429 . S
C1629 C1627 1.419 . S
C1629 C1630 1.363 . S
C1629 H1632 0.929 . S
C1630 C1629 1.363 . S
C1630 C1636 1.428 . S
H1631 C1627 0.930 . S
H1632 C1629 0.929 . S
S1633 N1634 1.613 . S
S1633 N1635 1.610 . S
N1634 S1633 1.613 . S
N1634 C1637 1.350 . S
N1635 S1633 1.610 . S
N1635 C1636 1.351 . S
C1636 C1630 1.428 . S
C1636 N1635 1.351 . S
C1636 C1637 1.434 . S
C1637 C1628 1.429 . S
C1637 N1634 1.350 . S
C1637 C1636 1.434 . S
C1638 C1639 1.369 . S
C1638 C1640 1.419 . S
C1638 H1642 0.930 . S
C1639 C1638 1.369 . S
C1639 C1648 1.429 . S
C1640 C1638 1.419 . S
C1640 C1641 1.363 . S
C1640 H1643 0.929 . S
C1641 C1640 1.363 . S
C1641 C1647 1.428 . S
H1642 C1638 0.930 . S
H1643 C1640 0.929 . S
S1644 N1645 1.613 . S
S1644 N1646 1.610 . S
N1645 S1644 1.613 . S
N1645 C1648 1.350 . S
N1646 S1644 1.610 . S
N1646 C1647 1.351 . S
C1647 C1641 1.428 . S
C1647 N1646 1.351 . S
C1647 C1648 1.434 . S
C1648 C1639 1.429 . S
C1648 N1645 1.350 . S
C1648 C1647 1.434 . S
C1649 C1650 1.369 . S
C1649 C1651 1.419 . S
C1649 H1653 0.930 . S
C1650 C1649 1.369 . S
C1650 C1659 1.429 . S
C1651 C1649 1.419 . S
C1651 C1652 1.363 . S
C1651 H1654 0.929 . S
C1652 C1651 1.363 . S
C1652 C1658 1.428 . S
H1653 C1649 0.930 . S
H1654 C1651 0.929 . S
S1655 N1656 1.613 . S
S1655 N1657 1.610 . S
N1656 S1655 1.613 . S
N1656 C1659 1.350 . S
N1657 S1655 1.610 . S
N1657 C1658 1.351 . S
C1658 C1652 1.428 . S
C1658 N1657 1.351 . S
C1658 C1659 1.434 . S
C1659 C1650 1.429 . S
C1659 N1656 1.350 . S
C1659 C1658 1.434 . S
C1660 C1661 1.369 . S
C1660 C1662 1.419 . S
C1660 H1664 0.930 . S
C1661 C1660 1.369 . S
C1661 C1670 1.429 . S
C1662 C1660 1.419 . S
C1662 C1663 1.363 . S
C1662 H1665 0.929 . S
C1663 C1662 1.363 . S
C1663 C1669 1.428 . S
H1664 C1660 0.930 . S
H1665 C1662 0.929 . S
S1666 N1667 1.613 . S
S1666 N1668 1.610 . S
N1667 S1666 1.613 . S
N1667 C1670 1.350 . S
N1668 S1666 1.610 . S
N1668 C1669 1.351 . S
C1669 C1663 1.428 . S
C1669 N1668 1.351 . S
C1669 C1670 1.434 . S
C1670 C1661 1.429 . S
C1670 N1667 1.350 . S
C1670 C1669 1.434 . S
C1671 C1672 1.369 . S
C1671 C1673 1.419 . S
C1671 H1675 0.930 . S
C1672 C1671 1.369 . S
C1672 C1681 1.429 1_554 S
C1673 C1671 1.419 . S
C1673 C1674 1.363 . S
C1673 H1676 0.929 . S
C1674 C1673 1.363 . S
C1674 C1680 1.428 1_554 S
H1675 C1671 0.930 . S
H1676 C1673 0.929 . S
S1677 N1678 1.613 . S
S1677 N1679 1.610 . S
N1678 S1677 1.613 . S
N1678 C1681 1.350 . S
N1679 S1677 1.610 . S
N1679 C1680 1.351 . S
C1680 C1674 1.428 1_556 S
C1680 N1679 1.351 . S
C1680 C1681 1.434 . S
C1681 C1672 1.429 1_556 S
C1681 N1678 1.350 . S
C1681 C1680 1.434 . S
C1682 C1683 1.369 . S
C1682 C1684 1.419 . S
C1682 H1686 0.930 . S
C1683 C1682 1.369 . S
C1683 C1692 1.429 1_554 S
C1684 C1682 1.419 . S
C1684 C1685 1.363 . S
C1684 H1687 0.929 . S
C1685 C1684 1.363 . S
C1685 C1691 1.433 . S
H1686 C1682 0.930 . S
H1687 C1684 0.929 . S
S1688 N1689 1.613 . S
S1688 N1690 1.610 . S
N1689 S1688 1.613 . S
N1689 C1692 1.350 . S
N1690 S1688 1.610 . S
N1690 C1691 1.347 1_556 S
C1691 C1685 1.433 . S
C1691 N1690 1.347 1_554 S
C1691 C1692 1.433 1_554 S
C1692 C1683 1.429 1_556 S
C1692 N1689 1.350 . S
C1692 C1691 1.433 1_556 S
C1693 C1694 1.369 . S
C1693 C1695 1.419 . S
C1693 H1697 0.930 . S
C1694 C1693 1.369 . S
C1694 C1703 1.429 . S
C1695 C1693 1.419 . S
C1695 C1696 1.363 . S
C1695 H1698 0.929 . S
C1696 C1695 1.363 . S
C1696 C1702 1.438 . S
H1697 C1693 0.930 . S
H1698 C1695 0.929 . S
S1699 N1700 1.606 1_556 S
S1699 N1701 1.610 . S
N1700 S1699 1.606 1_554 S
N1700 C1703 1.350 . S
N1701 S1699 1.610 . S
N1701 C1702 1.336 1_556 S
C1702 C1696 1.438 . S
C1702 N1701 1.336 1_554 S
C1702 C1703 1.447 . S
C1703 C1694 1.429 . S
C1703 N1700 1.350 . S
C1703 C1702 1.447 . S
C1704 C1705 1.369 . S
C1704 C1706 1.419 . S
C1704 H1708 0.930 . S
C1705 C1704 1.369 . S
C1705 C1714 1.429 . S
C1706 C1704 1.419 . S
C1706 C1707 1.363 . S
C1706 H1709 0.929 . S
C1707 C1706 1.363 . S
C1707 C1713 1.428 . S
H1708 C1704 0.930 . S
H1709 C1706 0.929 . S
S1710 N1711 1.613 . S
S1710 N1712 1.610 . S
N1711 S1710 1.613 . S
N1711 C1714 1.350 . S
N1712 S1710 1.610 . S
N1712 C1713 1.351 . S
C1713 C1707 1.428 . S
C1713 N1712 1.351 . S
C1713 C1714 1.434 . S
C1714 C1705 1.429 . S
C1714 N1711 1.350 . S
C1714 C1713 1.434 . S
C1715 C1716 1.369 . S
C1715 C1717 1.419 . S
C1715 H1719 0.930 . S
C1716 C1715 1.369 . S
C1716 C1725 1.429 . S
C1717 C1715 1.419 . S
C1717 C1718 1.363 . S
C1717 H1720 0.929 . S
C1718 C1717 1.363 . S
C1718 C1724 1.428 . S
H1719 C1715 0.930 . S
H1720 C1717 0.929 . S
S1721 N1722 1.613 . S
S1721 N1723 1.610 . S
N1722 S1721 1.613 . S
N1722 C1725 1.350 . S
N1723 S1721 1.610 . S
N1723 C1724 1.351 . S
C1724 C1718 1.428 . S
C1724 N1723 1.351 . S
C1724 C1725 1.434 . S
C1725 C1716 1.429 . S
C1725 N1722 1.350 . S
C1725 C1724 1.434 . S
C1726 C1727 1.369 . S
C1726 C1728 1.419 . S
C1726 H1730 0.930 . S
C1727 C1726 1.369 . S
C1727 C1736 1.429 . S
C1728 C1726 1.419 . S
C1728 C1729 1.363 . S
C1728 H1731 0.929 . S
C1729 C1728 1.363 . S
C1729 C1735 1.428 . S
H1730 C1726 0.930 . S
H1731 C1728 0.929 . S
S1732 N1733 1.613 . S
S1732 N1734 1.610 . S
N1733 S1732 1.613 . S
N1733 C1736 1.350 . S
N1734 S1732 1.610 . S
N1734 C1735 1.351 . S
C1735 C1729 1.428 . S
C1735 N1734 1.351 . S
C1735 C1736 1.434 . S
C1736 C1727 1.429 . S
C1736 N1733 1.350 . S
C1736 C1735 1.434 . S
C1737 C1738 1.349 1_554 S
C1737 C1739 1.408 1_554 S
C1737 H1741 0.970 . S
C1738 C1737 1.349 1_556 S
C1738 C1747 1.429 . S
C1739 C1737 1.408 1_556 S
C1739 C1740 1.381 . S
C1739 H1742 0.918 1_556 S
C1740 C1739 1.381 . S
C1740 C1746 1.428 . S
H1741 C1737 0.970 . S
H1742 C1739 0.918 1_554 S
S1743 N1744 1.613 . S
S1743 N1745 1.610 . S
N1744 S1743 1.613 . S
N1744 C1747 1.350 . S
N1745 S1743 1.610 . S
N1745 C1746 1.351 . S
C1746 C1740 1.428 . S
C1746 N1745 1.351 . S
C1746 C1747 1.434 . S
C1747 C1738 1.429 . S
C1747 N1744 1.350 . S
C1747 C1746 1.434 . S
C1748 C1749 1.369 . S
C1748 C1750 1.419 . S
C1748 H1752 0.930 . S
C1749 C1748 1.369 . S
C1749 C1758 1.419 1_556 S
C1750 C1748 1.419 . S
C1750 C1751 1.363 . S
C1750 H1753 0.929 . S
C1751 C1750 1.363 . S
C1751 C1757 1.454 . S
H1752 C1748 0.930 . S
H1753 C1750 0.929 . S
S1754 N1755 1.613 . S
S1754 N1756 1.610 . S
N1755 S1754 1.613 . S
N1755 C1758 1.367 . S
N1756 S1754 1.610 . S
N1756 C1757 1.338 1_554 S
C1757 C1751 1.454 . S
C1757 N1756 1.338 1_556 S
C1757 C1758 1.425 1_556 S
C1758 C1749 1.419 1_554 S
C1758 N1755 1.367 . S
C1758 C1757 1.425 1_554 S
C1759 C1760 1.369 . S
C1759 C1761 1.419 . S
C1759 H1763 0.930 . S
C1760 C1759 1.369 . S
C1760 C1769 1.429 1_556 S
C1761 C1759 1.419 . S
C1761 C1762 1.363 . S
C1761 H1764 0.929 . S
C1762 C1761 1.363 . S
C1762 C1768 1.428 1_556 S
H1763 C1759 0.930 . S
H1764 C1761 0.929 . S
S1765 N1766 1.613 . S
S1765 N1767 1.610 . S
N1766 S1765 1.613 . S
N1766 C1769 1.350 . S
N1767 S1765 1.610 . S
N1767 C1768 1.351 . S
C1768 C1762 1.428 1_554 S
C1768 N1767 1.351 . S
C1768 C1769 1.434 . S
C1769 C1760 1.429 1_554 S
C1769 N1766 1.350 . S
C1769 C1768 1.434 . S
C1770 C1771 1.369 . S
C1770 C1772 1.419 . S
C1770 H1774 0.930 . S
C1771 C1770 1.369 . S
C1771 C1780 1.429 . S
C1772 C1770 1.419 . S
C1772 C1773 1.363 . S
C1772 H1775 0.929 . S
C1773 C1772 1.363 . S
C1773 C1779 1.428 . S
H1774 C1770 0.930 . S
H1775 C1772 0.929 . S
S1776 N1777 1.613 . S
S1776 N1778 1.610 . S
N1777 S1776 1.613 . S
N1777 C1780 1.350 . S
N1778 S1776 1.610 . S
N1778 C1779 1.351 . S
C1779 C1773 1.428 . S
C1779 N1778 1.351 . S
C1779 C1780 1.434 . S
C1780 C1771 1.429 . S
C1780 N1777 1.350 . S
C1780 C1779 1.434 . S
C1781 C1782 1.369 . S
C1781 C1783 1.419 . S
C1781 H1785 0.930 . S
C1782 C1781 1.369 . S
C1782 C1791 1.429 . S
C1783 C1781 1.419 . S
C1783 C1784 1.363 . S
C1783 H1786 0.929 . S
C1784 C1783 1.363 . S
C1784 C1790 1.428 . S
H1785 C1781 0.930 . S
H1786 C1783 0.929 . S
S1787 N1788 1.613 . S
S1787 N1789 1.610 . S
N1788 S1787 1.613 . S
N1788 C1791 1.350 . S
N1789 S1787 1.610 . S
N1789 C1790 1.351 . S
C1790 C1784 1.428 . S
C1790 N1789 1.351 . S
C1790 C1791 1.434 . S
C1791 C1782 1.429 . S
C1791 N1788 1.350 . S
C1791 C1790 1.434 . S
C1792 C1793 1.369 . S
C1792 C1794 1.419 . S
C1792 H1796 0.930 . S
C1793 C1792 1.369 . S
C1793 C1802 1.429 . S
C1794 C1792 1.419 . S
C1794 C1795 1.363 . S
C1794 H1797 0.929 . S
C1795 C1794 1.363 . S
C1795 C1801 1.428 . S
H1796 C1792 0.930 . S
H1797 C1794 0.929 . S
S1798 N1799 1.613 . S
S1798 N1800 1.610 . S
N1799 S1798 1.613 . S
N1799 C1802 1.350 . S
N1800 S1798 1.610 . S
N1800 C1801 1.351 . S
C1801 C1795 1.428 . S
C1801 N1800 1.351 . S
C1801 C1802 1.434 . S
C1802 C1793 1.429 . S
C1802 N1799 1.350 . S
C1802 C1801 1.434 . S
C1803 C1804 1.369 . S
C1803 C1805 1.419 . S
C1803 H1807 0.930 . S
C1804 C1803 1.369 . S
C1804 C1813 1.429 . S
C1805 C1803 1.419 . S
C1805 C1806 1.363 . S
C1805 H1808 0.929 . S
C1806 C1805 1.363 . S
C1806 C1812 1.428 . S
H1807 C1803 0.930 . S
H1808 C1805 0.929 . S
S1809 N1810 1.613 . S
S1809 N1811 1.610 . S
N1810 S1809 1.613 . S
N1810 C1813 1.350 . S
N1811 S1809 1.610 . S
N1811 C1812 1.351 . S
C1812 C1806 1.428 . S
C1812 N1811 1.351 . S
C1812 C1813 1.434 . S
C1813 C1804 1.429 . S
C1813 N1810 1.350 . S
C1813 C1812 1.434 . S
C1814 C1815 1.369 . S
C1814 C1816 1.419 . S
C1814 H1818 0.930 . S
C1815 C1814 1.369 . S
C1815 C1824 1.429 . S
C1816 C1814 1.419 . S
C1816 C1817 1.363 . S
C1816 H1819 0.929 . S
C1817 C1816 1.363 . S
C1817 C1823 1.428 . S
H1818 C1814 0.930 . S
H1819 C1816 0.929 . S
S1820 N1821 1.613 . S
S1820 N1822 1.610 . S
N1821 S1820 1.613 . S
N1821 C1824 1.350 . S
N1822 S1820 1.610 . S
N1822 C1823 1.351 . S
C1823 C1817 1.428 . S
C1823 N1822 1.351 . S
C1823 C1824 1.434 . S
C1824 C1815 1.429 . S
C1824 N1821 1.350 . S
C1824 C1823 1.434 . S
C1825 C1826 1.369 . S
C1825 C1827 1.419 . S
C1825 H1829 0.930 . S
C1826 C1825 1.369 . S
C1826 C1835 1.429 . S
C1827 C1825 1.419 . S
C1827 C1828 1.363 . S
C1827 H1830 0.929 . S
C1828 C1827 1.363 . S
C1828 C1834 1.428 . S
H1829 C1825 0.930 . S
H1830 C1827 0.929 . S
S1831 N1832 1.613 . S
S1831 N1833 1.610 . S
N1832 S1831 1.613 . S
N1832 C1835 1.350 . S
N1833 S1831 1.610 . S
N1833 C1834 1.351 . S
C1834 C1828 1.428 . S
C1834 N1833 1.351 . S
C1834 C1835 1.434 . S
C1835 C1826 1.429 . S
C1835 N1832 1.350 . S
C1835 C1834 1.434 . S
C1836 C1837 1.369 . S
C1836 C1838 1.419 . S
C1836 H1840 0.930 . S
C1837 C1836 1.369 . S
C1837 C1846 1.429 . S
C1838 C1836 1.419 . S
C1838 C1839 1.363 . S
C1838 H1841 0.929 . S
C1839 C1838 1.363 . S
C1839 C1845 1.428 . S
H1840 C1836 0.930 . S
H1841 C1838 0.929 . S
S1842 N1843 1.613 . S
S1842 N1844 1.610 . S
N1843 S1842 1.613 . S
N1843 C1846 1.350 . S
N1844 S1842 1.610 . S
N1844 C1845 1.351 . S
C1845 C1839 1.428 . S
C1845 N1844 1.351 . S
C1845 C1846 1.434 . S
C1846 C1837 1.429 . S
C1846 N1843 1.350 . S
C1846 C1845 1.434 . S
C1847 C1848 1.369 1_545 S
C1847 C1849 1.419 1_545 S
C1847 H1851 0.930 . S
C1848 C1847 1.369 1_565 S
C1848 C1857 1.429 . S
C1849 C1847 1.419 1_565 S
C1849 C1850 1.363 . S
C1849 H1852 0.929 1_565 S
C1850 C1849 1.363 . S
C1850 C1856 1.428 . S
H1851 C1847 0.930 . S
H1852 C1849 0.929 1_545 S
S1853 N1854 1.613 . S
S1853 N1855 1.610 . S
N1854 S1853 1.613 . S
N1854 C1857 1.350 . S
N1855 S1853 1.610 . S
N1855 C1856 1.351 . S
C1856 C1850 1.428 . S
C1856 N1855 1.351 . S
C1856 C1857 1.434 . S
C1857 C1848 1.429 . S
C1857 N1854 1.350 . S
C1857 C1856 1.434 . S
C1858 C1859 1.369 . S
C1858 C1860 1.419 . S
C1858 H1862 0.930 . S
C1859 C1858 1.369 . S
C1859 C1868 1.429 . S
C1860 C1858 1.419 . S
C1860 C1861 1.363 . S
C1860 H1863 0.929 1_455 S
C1861 C1860 1.363 . S
C1861 C1867 1.428 . S
H1862 C1858 0.930 . S
H1863 C1860 0.929 1_655 S
S1864 N1865 1.613 . S
S1864 N1866 1.610 . S
N1865 S1864 1.613 . S
N1865 C1868 1.350 . S
N1866 S1864 1.610 . S
N1866 C1867 1.351 . S
C1867 C1861 1.428 . S
C1867 N1866 1.351 . S
C1867 C1868 1.434 . S
C1868 C1859 1.429 . S
C1868 N1865 1.350 . S
C1868 C1867 1.434 . S
C1869 C1870 1.369 . S
C1869 C1871 1.419 . S
C1869 H1873 0.930 . S
C1870 C1869 1.369 . S
C1870 C1879 1.429 . S
C1871 C1869 1.419 . S
C1871 C1872 1.363 . S
C1871 H1874 0.929 . S
C1872 C1871 1.363 . S
C1872 C1878 1.428 . S
H1873 C1869 0.930 . S
H1874 C1871 0.929 . S
S1875 N1876 1.613 . S
S1875 N1877 1.610 . S
N1876 S1875 1.613 . S
N1876 C1879 1.350 . S
N1877 S1875 1.610 . S
N1877 C1878 1.351 . S
C1878 C1872 1.428 . S
C1878 N1877 1.351 . S
C1878 C1879 1.434 . S
C1879 C1870 1.429 . S
C1879 N1876 1.350 . S
C1879 C1878 1.434 . S
C1880 C1881 1.369 . S
C1880 C1882 1.419 . S
C1880 H1884 0.930 . S
C1881 C1880 1.369 . S
C1881 C1890 1.429 1_545 S
C1882 C1880 1.419 . S
C1882 C1883 1.363 . S
C1882 H1885 0.929 . S
C1883 C1882 1.363 . S
C1883 C1889 1.428 . S
H1884 C1880 0.930 . S
H1885 C1882 0.929 . S
S1886 N1887 1.613 . S
S1886 N1888 1.610 . S
N1887 S1886 1.613 . S
N1887 C1890 1.350 . S
N1888 S1886 1.610 . S
N1888 C1889 1.351 1_565 S
C1889 C1883 1.428 . S
C1889 N1888 1.351 1_545 S
C1889 C1890 1.434 1_545 S
C1890 C1881 1.429 1_565 S
C1890 N1887 1.350 . S
C1890 C1889 1.434 1_565 S
C1891 C1892 1.369 . S
C1891 C1893 1.419 . S
C1891 H1895 0.930 . S
C1892 C1891 1.369 . S
C1892 C1901 1.429 . S
C1893 C1891 1.419 . S
C1893 C1894 1.363 . S
C1893 H1896 0.929 . S
C1894 C1893 1.363 . S
C1894 C1900 1.428 . S
H1895 C1891 0.930 . S
H1896 C1893 0.929 . S
S1897 N1898 1.613 . S
S1897 N1899 1.610 . S
N1898 S1897 1.613 . S
N1898 C1901 1.350 . S
N1899 S1897 1.610 . S
N1899 C1900 1.351 . S
C1900 C1894 1.428 . S
C1900 N1899 1.351 . S
C1900 C1901 1.434 . S
C1901 C1892 1.429 . S
C1901 N1898 1.350 . S
C1901 C1900 1.434 . S
C1902 C1903 1.369 . S
C1902 C1904 1.419 . S
C1902 H1906 0.930 . S
C1903 C1902 1.369 . S
C1903 C1912 1.429 . S
C1904 C1902 1.419 . S
C1904 C1905 1.363 . S
C1904 H1907 0.929 . S
C1905 C1904 1.363 . S
C1905 C1911 1.428 . S
H1906 C1902 0.930 . S
H1907 C1904 0.929 . S
S1908 N1909 1.613 . S
S1908 N1910 1.610 . S
N1909 S1908 1.613 . S
N1909 C1912 1.350 . S
N1910 S1908 1.610 . S
N1910 C1911 1.351 . S
C1911 C1905 1.428 . S
C1911 N1910 1.351 . S
C1911 C1912 1.434 . S
C1912 C1903 1.429 . S
C1912 N1909 1.350 . S
C1912 C1911 1.434 . S
C1913 C1914 1.369 . S
C1913 C1915 1.419 . S
C1913 H1917 0.930 . S
C1914 C1913 1.369 . S
C1914 C1923 1.429 . S
C1915 C1913 1.419 . S
C1915 C1916 1.363 . S
C1915 H1918 0.929 . S
C1916 C1915 1.363 . S
C1916 C1922 1.428 . S
H1917 C1913 0.930 . S
H1918 C1915 0.929 . S
S1919 N1920 1.613 1_565 S
S1919 N1921 1.610 . S
N1920 S1919 1.613 1_545 S
N1920 C1923 1.350 . S
N1921 S1919 1.610 . S
N1921 C1922 1.351 1_565 S
C1922 C1916 1.428 . S
C1922 N1921 1.351 1_545 S
C1922 C1923 1.434 . S
C1923 C1914 1.429 . S
C1923 N1920 1.350 . S
C1923 C1922 1.434 . S
C1924 C1925 1.369 . S
C1924 C1926 1.419 1_655 S
C1924 H1928 0.930 1_655 S
C1925 C1924 1.369 . S
C1925 C1934 1.429 . S
C1926 C1924 1.419 1_455 S
C1926 C1927 1.363 1_455 S
C1926 H1929 0.929 . S
C1927 C1926 1.363 1_655 S
C1927 C1933 1.428 . S
H1928 C1924 0.930 1_455 S
H1929 C1926 0.929 . S
S1930 N1931 1.613 . S
S1930 N1932 1.610 . S
N1931 S1930 1.613 . S
N1931 C1934 1.350 . S
N1932 S1930 1.610 . S
N1932 C1933 1.351 . S
C1933 C1927 1.428 . S
C1933 N1932 1.351 . S
C1933 C1934 1.434 . S
C1934 C1925 1.429 . S
C1934 N1931 1.350 . S
C1934 C1933 1.434 . S
C1935 C1936 1.369 . S
C1935 C1937 1.419 . S
C1935 H1939 0.930 . S
C1936 C1935 1.369 . S
C1936 C1945 1.429 . S
C1937 C1935 1.419 . S
C1937 C1938 1.363 . S
C1937 H1940 0.929 . S
C1938 C1937 1.363 . S
C1938 C1944 1.428 . S
H1939 C1935 0.930 . S
H1940 C1937 0.929 . S
S1941 N1942 1.613 . S
S1941 N1943 1.610 . S
N1942 S1941 1.613 . S
N1942 C1945 1.350 . S
N1943 S1941 1.610 . S
N1943 C1944 1.351 . S
C1944 C1938 1.428 . S
C1944 N1943 1.351 . S
C1944 C1945 1.434 . S
C1945 C1936 1.429 . S
C1945 N1942 1.350 . S
C1945 C1944 1.434 . S
C1946 C1947 1.369 . S
C1946 C1948 1.419 . S
C1946 H1950 0.930 . S
C1947 C1946 1.369 . S
C1947 C1956 1.429 1_565 S
C1948 C1946 1.419 . S
C1948 C1949 1.363 . S
C1948 H1951 0.929 . S
C1949 C1948 1.363 . S
C1949 C1955 1.443 . S
H1950 C1946 0.930 . S
H1951 C1948 0.929 . S
S1952 N1953 1.613 . S
S1952 N1954 1.610 . S
N1953 S1952 1.613 . S
N1953 C1956 1.350 . S
N1954 S1952 1.610 . S
N1954 C1955 1.332 1_545 S
C1955 C1949 1.443 . S
C1955 N1954 1.332 1_565 S
C1955 C1956 1.437 1_565 S
C1956 C1947 1.429 1_545 S
C1956 N1953 1.350 . S
C1956 C1955 1.437 1_545 S
C1957 C1958 1.369 1_655 S
C1957 C1959 1.419 1_655 S
C1957 H1961 0.930 . S
C1958 C1957 1.369 1_455 S
C1958 C1967 1.429 . S
C1959 C1957 1.419 1_455 S
C1959 C1960 1.363 . S
C1959 H1962 0.929 1_455 S
C1960 C1959 1.363 . S
C1960 C1966 1.428 . S
H1961 C1957 0.930 . S
H1962 C1959 0.929 1_655 S
S1963 N1964 1.613 . S
S1963 N1965 1.610 . S
N1964 S1963 1.613 . S
N1964 C1967 1.350 . S
N1965 S1963 1.610 . S
N1965 C1966 1.351 . S
C1966 C1960 1.428 . S
C1966 N1965 1.351 . S
C1966 C1967 1.434 . S
C1967 C1958 1.429 . S
C1967 N1964 1.350 . S
C1967 C1966 1.434 . S
C1968 C1969 1.369 1_455 S
C1968 C1970 1.419 . S
C1968 H1972 0.930 1_455 S
C1969 C1968 1.369 1_655 S
C1969 C1978 1.429 1_655 S
C1970 C1968 1.419 . S
C1970 C1971 1.363 . S
C1970 H1973 0.929 . S
C1971 C1970 1.363 . S
C1971 C1977 1.428 . S
H1972 C1968 0.930 1_655 S
H1973 C1970 0.929 . S
S1974 N1975 1.613 1_455 S
S1974 N1976 1.610 . S
N1975 S1974 1.613 1_655 S
N1975 C1978 1.350 1_655 S
N1976 S1974 1.610 . S
N1976 C1977 1.351 . S
C1977 C1971 1.428 . S
C1977 N1976 1.351 . S
C1977 C1978 1.434 . S
C1978 C1969 1.429 1_455 S
C1978 N1975 1.350 1_455 S
C1978 C1977 1.434 . S
C1979 C1980 1.369 . S
C1979 C1981 1.419 . S
C1979 H1983 0.930 . S
C1980 C1979 1.369 . S
C1980 C1989 1.429 . S
C1981 C1979 1.419 . S
C1981 C1982 1.363 . S
C1981 H1984 0.929 . S
C1982 C1981 1.363 . S
C1982 C1988 1.428 . S
H1983 C1979 0.930 . S
H1984 C1981 0.929 . S
S1985 N1986 1.613 . S
S1985 N1987 1.610 . S
N1986 S1985 1.613 . S
N1986 C1989 1.350 . S
N1987 S1985 1.610 . S
N1987 C1988 1.351 . S
C1988 C1982 1.428 . S
C1988 N1987 1.351 . S
C1988 C1989 1.434 . S
C1989 C1980 1.429 . S
C1989 N1986 1.350 . S
C1989 C1988 1.434 . S
C1990 C1991 1.369 . S
C1990 C1992 1.419 1_565 S
C1990 H1994 0.930 . S
C1991 C1990 1.369 . S
C1991 C2000 1.429 . S
C1992 C1990 1.419 1_545 S
C1992 C1993 1.363 . S
C1992 H1995 0.929 . S
C1993 C1992 1.363 . S
C1993 C1999 1.428 1_545 S
H1994 C1990 0.930 . S
H1995 C1992 0.929 . S
S1996 N1997 1.613 . S
S1996 N1998 1.610 1_565 S
N1997 S1996 1.613 . S
N1997 C2000 1.350 . S
N1998 S1996 1.610 1_545 S
N1998 C1999 1.351 1_545 S
C1999 C1993 1.428 1_565 S
C1999 N1998 1.351 1_565 S
C1999 C2000 1.434 . S
C2000 C1991 1.429 . S
C2000 N1997 1.350 . S
C2000 C1999 1.434 . S
C2001 C2002 1.369 . S
C2001 C2003 1.419 . S
C2001 H2005 0.930 . S
C2002 C2001 1.369 . S
C2002 C2011 1.429 . S
C2003 C2001 1.419 . S
C2003 C2004 1.363 . S
C2003 H2006 0.929 1_455 S
C2004 C2003 1.363 . S
C2004 C2010 1.428 . S
H2005 C2001 0.930 . S
H2006 C2003 0.929 1_655 S
S2007 N2008 1.613 . S
S2007 N2009 1.610 . S
N2008 S2007 1.613 . S
N2008 C2011 1.350 . S
N2009 S2007 1.610 . S
N2009 C2010 1.351 . S
C2010 C2004 1.428 . S
C2010 N2009 1.351 . S
C2010 C2011 1.434 . S
C2011 C2002 1.429 . S
C2011 N2008 1.350 . S
C2011 C2010 1.434 . S
C2012 C2013 1.369 . S
C2012 C2014 1.419 . S
C2012 H2016 0.930 . S
C2013 C2012 1.369 . S
C2013 C2022 1.429 . S
C2014 C2012 1.419 . S
C2014 C2015 1.363 . S
C2014 H2017 0.929 . S
C2015 C2014 1.363 . S
C2015 C2021 1.428 . S
H2016 C2012 0.930 . S
H2017 C2014 0.929 . S
S2018 N2019 1.613 . S
S2018 N2020 1.610 . S
N2019 S2018 1.613 . S
N2019 C2022 1.350 . S
N2020 S2018 1.610 . S
N2020 C2021 1.351 . S
C2021 C2015 1.428 . S
C2021 N2020 1.351 . S
C2021 C2022 1.434 . S
C2022 C2013 1.429 . S
C2022 N2019 1.350 . S
C2022 C2021 1.434 . S
C2023 C2024 1.369 . S
C2023 C2025 1.419 . S
C2023 H2027 0.930 . S
C2024 C2023 1.369 . S
C2024 C2033 1.429 . S
C2025 C2023 1.419 . S
C2025 C2026 1.363 . S
C2025 H2028 0.929 1_565 S
C2026 C2025 1.363 . S
C2026 C2032 1.428 . S
H2027 C2023 0.930 . S
H2028 C2025 0.929 1_545 S
S2029 N2030 1.613 . S
S2029 N2031 1.610 . S
N2030 S2029 1.613 . S
N2030 C2033 1.350 . S
N2031 S2029 1.610 . S
N2031 C2032 1.351 . S
C2032 C2026 1.428 . S
C2032 N2031 1.351 . S
C2032 C2033 1.434 . S
C2033 C2024 1.429 . S
C2033 N2030 1.350 . S
C2033 C2032 1.434 . S
C2034 C2035 1.369 . S
C2034 C2036 1.419 . S
C2034 H2038 0.930 . S
C2035 C2034 1.369 . S
C2035 C2044 1.429 . S
C2036 C2034 1.419 . S
C2036 C2037 1.363 . S
C2036 H2039 0.929 . S
C2037 C2036 1.363 . S
C2037 C2043 1.428 . S
H2038 C2034 0.930 . S
H2039 C2036 0.929 . S
S2040 N2041 1.613 . S
S2040 N2042 1.610 . S
N2041 S2040 1.613 . S
N2041 C2044 1.350 . S
N2042 S2040 1.610 . S
N2042 C2043 1.351 . S
C2043 C2037 1.428 . S
C2043 N2042 1.351 . S
C2043 C2044 1.434 . S
C2044 C2035 1.429 . S
C2044 N2041 1.350 . S
C2044 C2043 1.434 . S
C2045 C2046 1.369 . S
C2045 C2047 1.419 . S
C2045 H2049 0.930 . S
C2046 C2045 1.369 . S
C2046 C2055 1.429 . S
C2047 C2045 1.419 . S
C2047 C2048 1.363 . S
C2047 H2050 0.929 . S
C2048 C2047 1.363 . S
C2048 C2054 1.428 . S
H2049 C2045 0.930 . S
H2050 C2047 0.929 . S
S2051 N2052 1.613 . S
S2051 N2053 1.610 . S
N2052 S2051 1.613 . S
N2052 C2055 1.350 . S
N2053 S2051 1.610 . S
N2053 C2054 1.351 . S
C2054 C2048 1.428 . S
C2054 N2053 1.351 . S
C2054 C2055 1.434 . S
C2055 C2046 1.429 . S
C2055 N2052 1.350 . S
C2055 C2054 1.434 . S
C2056 C2057 1.369 . S
C2056 C2058 1.419 . S
C2056 H2060 0.930 . S
C2057 C2056 1.369 . S
C2057 C2066 1.429 . S
C2058 C2056 1.419 . S
C2058 C2059 1.363 . S
C2058 H2061 0.929 . S
C2059 C2058 1.363 . S
C2059 C2065 1.428 . S
H2060 C2056 0.930 . S
H2061 C2058 0.929 . S
S2062 N2063 1.613 . S
S2062 N2064 1.610 . S
N2063 S2062 1.613 . S
N2063 C2066 1.350 . S
N2064 S2062 1.610 . S
N2064 C2065 1.351 . S
C2065 C2059 1.428 . S
C2065 N2064 1.351 . S
C2065 C2066 1.434 . S
C2066 C2057 1.429 . S
C2066 N2063 1.350 . S
C2066 C2065 1.434 . S
C2067 C2068 1.369 . S
C2067 C2069 1.424 . S
C2067 H2071 0.915 1_556 S
C2068 C2067 1.369 . S
C2068 C2077 1.441 . S
C2069 C2067 1.424 . S
C2069 C2070 1.363 1_565 S
C2069 H2072 0.929 1_565 S
C2070 C2069 1.363 1_545 S
C2070 C2076 1.428 . S
H2071 C2067 0.915 1_554 S
H2072 C2069 0.929 1_545 S
S2073 N2074 1.613 . S
S2073 N2075 1.610 1_565 S
N2074 S2073 1.613 . S
N2074 C2077 1.350 . S
N2075 S2073 1.610 1_545 S
N2075 C2076 1.351 . S
C2076 C2070 1.428 . S
C2076 N2075 1.351 . S
C2076 C2077 1.434 1_545 S
C2077 C2068 1.441 . S
C2077 N2074 1.350 . S
C2077 C2076 1.434 1_565 S
C2078 C2079 1.336 1_554 S
C2078 C2080 1.419 1_455 S
C2078 H2082 0.930 . S
C2079 C2078 1.336 1_556 S
C2079 C2088 1.475 . S
C2080 C2078 1.419 1_655 S
C2080 C2081 1.363 1_554 S
C2080 H2083 0.929 . S
C2081 C2080 1.363 1_556 S
C2081 C2087 1.437 . S
H2082 C2078 0.930 . S
H2083 C2080 0.929 . S
S2084 N2085 1.613 . S
S2084 N2086 1.610 1_455 S
N2085 S2084 1.613 . S
N2085 C2088 1.350 . S
N2086 S2084 1.610 1_655 S
N2086 C2087 1.351 . S
C2087 C2081 1.437 . S
C2087 N2086 1.351 . S
C2087 C2088 1.424 1_655 S
C2088 C2079 1.475 . S
C2088 N2085 1.350 . S
C2088 C2087 1.424 1_455 S
C2089 C2090 1.369 . S
C2089 C2091 1.419 . S
C2089 H2093 0.930 . S
C2090 C2089 1.369 . S
C2090 C2099 1.429 1_556 S
C2091 C2089 1.419 . S
C2091 C2092 1.419 . S
C2091 H2094 0.929 . S
C2092 C2091 1.419 . S
C2092 C2098 1.381 1_556 S
H2093 C2089 0.930 . S
H2094 C2091 0.929 . S
S2095 N2096 1.613 . S
S2095 N2097 1.610 . S
N2096 S2095 1.613 . S
N2096 C2099 1.350 . S
N2097 S2095 1.610 . S
N2097 C2098 1.351 . S
C2098 C2092 1.381 1_554 S
C2098 N2097 1.351 . S
C2098 C2099 1.434 . S
C2099 C2090 1.429 1_554 S
C2099 N2096 1.350 . S
C2099 C2098 1.434 . S
C2100 C2101 1.369 . S
C2100 C2102 1.419 . S
C2100 H2104 0.930 . S
C2101 C2100 1.369 . S
C2101 C2110 1.429 . S
C2102 C2100 1.419 . S
C2102 C2103 1.363 . S
C2102 H2105 0.929 . S
C2103 C2102 1.363 . S
C2103 C2109 1.428 . S
H2104 C2100 0.930 . S
H2105 C2102 0.929 . S
S2106 N2107 1.613 1_565 S
S2106 N2108 1.610 . S
N2107 S2106 1.613 1_545 S
N2107 C2110 1.350 . S
N2108 S2106 1.610 . S
N2108 C2109 1.351 1_565 S
C2109 C2103 1.428 . S
C2109 N2108 1.351 1_545 S
C2109 C2110 1.434 . S
C2110 C2101 1.429 . S
C2110 N2107 1.350 . S
C2110 C2109 1.434 . S
C2111 C2112 1.369 . S
C2111 C2113 1.419 . S
C2111 H2115 0.930 . S
C2112 C2111 1.369 . S
C2112 C2121 1.429 . S
C2113 C2111 1.419 . S
C2113 C2114 1.363 . S
C2113 H2116 0.929 . S
C2114 C2113 1.363 . S
C2114 C2120 1.428 . S
H2115 C2111 0.930 . S
H2116 C2113 0.929 . S
S2117 N2118 1.613 . S
S2117 N2119 1.610 . S
N2118 S2117 1.613 . S
N2118 C2121 1.350 . S
N2119 S2117 1.610 . S
N2119 C2120 1.351 . S
C2120 C2114 1.428 . S
C2120 N2119 1.351 . S
C2120 C2121 1.434 . S
C2121 C2112 1.429 . S
C2121 N2118 1.350 . S
C2121 C2120 1.434 . S
C2122 C2123 1.369 . S
C2122 C2124 1.419 . S
C2122 H2126 0.930 . S
C2123 C2122 1.369 . S
C2123 C2132 1.429 . S
C2124 C2122 1.419 . S
C2124 C2125 1.363 . S
C2124 H2127 0.929 . S
C2125 C2124 1.363 . S
C2125 C2131 1.428 . S
H2126 C2122 0.930 . S
H2127 C2124 0.929 . S
S2128 N2129 1.613 . S
S2128 N2130 1.610 . S
N2129 S2128 1.613 . S
N2129 C2132 1.350 . S
N2130 S2128 1.610 . S
N2130 C2131 1.351 . S
C2131 C2125 1.428 . S
C2131 N2130 1.351 . S
C2131 C2132 1.434 . S
C2132 C2123 1.429 . S
C2132 N2129 1.350 . S
C2132 C2131 1.434 . S
C2133 C2134 1.369 1_545 S
C2133 C2135 1.419 . S
C2133 H2137 0.930 1_545 S
C2134 C2133 1.369 1_565 S
C2134 C2143 1.429 1_554 S
C2135 C2133 1.419 . S
C2135 C2136 1.417 . S
C2135 H2138 0.929 . S
C2136 C2135 1.417 . S
C2136 C2142 1.384 1_554 S
H2137 C2133 0.930 1_565 S
H2138 C2135 0.929 . S
S2139 N2140 1.613 1_545 S
S2139 N2141 1.610 . S
N2140 S2139 1.613 1_565 S
N2140 C2143 1.350 . S
N2141 S2139 1.610 . S
N2141 C2142 1.351 . S
C2142 C2136 1.384 1_556 S
C2142 N2141 1.351 . S
C2142 C2143 1.434 1_545 S
C2143 C2134 1.429 1_556 S
C2143 N2140 1.350 . S
C2143 C2142 1.434 1_565 S
C2144 C2145 1.321 1_556 S
C2144 C2146 1.419 1_655 S
C2144 H2148 0.930 . S
C2145 C2144 1.321 1_554 S
C2145 C2154 1.489 . S
C2146 C2144 1.419 1_455 S
C2146 C2147 1.363 1_556 S
C2146 H2149 0.929 . S
C2147 C2146 1.363 1_554 S
C2147 C2153 1.428 1_455 S
H2148 C2144 0.930 . S
H2149 C2146 0.929 . S
S2150 N2151 1.613 . S
S2150 N2152 1.610 1_655 S
N2151 S2150 1.613 . S
N2151 C2154 1.350 . S
N2152 S2150 1.610 1_455 S
N2152 C2153 1.351 1_455 S
C2153 C2147 1.428 1_655 S
C2153 N2152 1.351 1_655 S
C2153 C2154 1.434 . S
C2154 C2145 1.489 . S
C2154 N2151 1.350 . S
C2154 C2153 1.434 . S
C2155 C2156 1.369 . S
C2155 C2157 1.419 . S
C2155 H2159 0.930 . S
C2156 C2155 1.369 . S
C2156 C2165 1.462 . S
C2157 C2155 1.419 . S
C2157 C2158 1.388 . S
C2157 H2160 0.929 . S
C2158 C2157 1.388 . S
C2158 C2164 1.417 1_554 S
H2159 C2155 0.930 . S
H2160 C2157 0.929 . S
S2161 N2162 1.619 . S
S2161 N2163 1.610 . S
N2162 S2161 1.619 . S
N2162 C2165 1.341 1_556 S
N2163 S2161 1.610 . S
N2163 C2164 1.372 . S
C2164 C2158 1.417 1_556 S
C2164 N2163 1.372 . S
C2164 C2165 1.418 1_556 S
C2165 C2156 1.462 . S
C2165 N2162 1.341 1_554 S
C2165 C2164 1.418 1_554 S
C2166 C2167 1.369 1_655 S
C2166 C2168 1.419 . S
C2166 H2170 0.930 1_655 S
C2167 C2166 1.369 1_455 S
C2167 C2176 1.429 1_455 S
C2168 C2166 1.419 . S
C2168 C2169 1.363 . S
C2168 H2171 0.929 . S
C2169 C2168 1.363 . S
C2169 C2175 1.428 . S
H2170 C2166 0.930 1_455 S
H2171 C2168 0.929 . S
S2172 N2173 1.613 1_655 S
S2172 N2174 1.610 . S
N2173 S2172 1.613 1_455 S
N2173 C2176 1.350 1_455 S
N2174 S2172 1.610 . S
N2174 C2175 1.351 . S
C2175 C2169 1.428 . S
C2175 N2174 1.351 . S
C2175 C2176 1.434 . S
C2176 C2167 1.429 1_655 S
C2176 N2173 1.350 1_655 S
C2176 C2175 1.434 . S
C2177 C2178 1.369 . S
C2177 C2179 1.419 . S
C2177 H2181 0.930 . S
C2178 C2177 1.369 . S
C2178 C2187 1.429 . S
C2179 C2177 1.419 . S
C2179 C2180 1.363 . S
C2179 H2182 0.929 . S
C2180 C2179 1.363 . S
C2180 C2186 1.428 . S
H2181 C2177 0.930 . S
H2182 C2179 0.929 . S
S2183 N2184 1.613 . S
S2183 N2185 1.610 . S
N2184 S2183 1.613 . S
N2184 C2187 1.350 . S
N2185 S2183 1.610 . S
N2185 C2186 1.351 . S
C2186 C2180 1.428 . S
C2186 N2185 1.351 . S
C2186 C2187 1.434 . S
C2187 C2178 1.429 . S
C2187 N2184 1.350 . S
C2187 C2186 1.434 . S
C2188 C2189 1.369 1_545 S
C2188 C2190 1.419 . S
C2188 H2192 0.930 1_545 S
C2189 C2188 1.369 1_565 S
C2189 C2198 1.429 . S
C2190 C2188 1.419 . S
C2190 C2191 1.363 . S
C2190 H2193 0.929 . S
C2191 C2190 1.363 . S
C2191 C2197 1.428 . S
H2192 C2188 0.930 1_565 S
H2193 C2190 0.929 . S
S2194 N2195 1.613 1_545 S
S2194 N2196 1.610 . S
N2195 S2194 1.613 1_565 S
N2195 C2198 1.350 . S
N2196 S2194 1.610 . S
N2196 C2197 1.351 . S
C2197 C2191 1.428 . S
C2197 N2196 1.351 . S
C2197 C2198 1.434 1_545 S
C2198 C2189 1.429 . S
C2198 N2195 1.350 . S
C2198 C2197 1.434 1_565 S
C2199 C2200 1.369 . S
C2199 C2201 1.419 . S
C2199 H2203 0.930 . S
C2200 C2199 1.369 . S
C2200 C2209 1.429 . S
C2201 C2199 1.419 . S
C2201 C2202 1.363 . S
C2201 H2204 0.929 . S
C2202 C2201 1.363 . S
C2202 C2208 1.428 . S
H2203 C2199 0.930 . S
H2204 C2201 0.929 . S
S2205 N2206 1.613 . S
S2205 N2207 1.610 1_455 S
N2206 S2205 1.613 . S
N2206 C2209 1.350 1_455 S
N2207 S2205 1.610 1_655 S
N2207 C2208 1.351 . S
C2208 C2202 1.428 . S
C2208 N2207 1.351 . S
C2208 C2209 1.434 . S
C2209 C2200 1.429 . S
C2209 N2206 1.350 1_655 S
C2209 C2208 1.434 . S
C2210 C2211 1.369 . S
C2210 C2212 1.419 . S
C2210 H2214 0.930 . S
C2211 C2210 1.369 . S
C2211 C2220 1.429 . S
C2212 C2210 1.419 . S
C2212 C2213 1.363 . S
C2212 H2215 0.929 . S
C2213 C2212 1.363 . S
C2213 C2219 1.428 . S
H2214 C2210 0.930 . S
H2215 C2212 0.929 . S
S2216 N2217 1.613 . S
S2216 N2218 1.610 . S
N2217 S2216 1.613 . S
N2217 C2220 1.350 . S
N2218 S2216 1.610 . S
N2218 C2219 1.351 . S
C2219 C2213 1.428 . S
C2219 N2218 1.351 . S
C2219 C2220 1.434 . S
C2220 C2211 1.429 . S
C2220 N2217 1.350 . S
C2220 C2219 1.434 . S
C2221 C2222 1.369 . S
C2221 C2223 1.419 . S
C2221 H2225 0.930 . S
C2222 C2221 1.369 . S
C2222 C2231 1.429 . S
C2223 C2221 1.419 . S
C2223 C2224 1.363 . S
C2223 H2226 0.929 . S
C2224 C2223 1.363 . S
C2224 C2230 1.428 . S
H2225 C2221 0.930 . S
H2226 C2223 0.929 . S
S2227 N2228 1.613 1_565 S
S2227 N2229 1.610 . S
N2228 S2227 1.613 1_545 S
N2228 C2231 1.350 . S
N2229 S2227 1.610 . S
N2229 C2230 1.351 1_565 S
C2230 C2224 1.428 . S
C2230 N2229 1.351 1_545 S
C2230 C2231 1.434 . S
C2231 C2222 1.429 . S
C2231 N2228 1.350 . S
C2231 C2230 1.434 . S
C2232 C2233 1.369 . S
C2232 C2234 1.419 . S
C2232 H2236 0.930 . S
C2233 C2232 1.369 . S
C2233 C2242 1.429 . S
C2234 C2232 1.419 . S
C2234 C2235 1.363 . S
C2234 H2237 0.929 . S
C2235 C2234 1.363 . S
C2235 C2241 1.428 . S
H2236 C2232 0.930 . S
H2237 C2234 0.929 . S
S2238 N2239 1.613 . S
S2238 N2240 1.610 . S
N2239 S2238 1.613 . S
N2239 C2242 1.350 . S
N2240 S2238 1.610 . S
N2240 C2241 1.351 . S
C2241 C2235 1.428 . S
C2241 N2240 1.351 . S
C2241 C2242 1.434 . S
C2242 C2233 1.429 . S
C2242 N2239 1.350 . S
C2242 C2241 1.434 . S
C2243 C2244 1.369 . S
C2243 C2245 1.419 . S
C2243 H2247 0.930 . S
C2244 C2243 1.369 . S
C2244 C2253 1.429 . S
C2245 C2243 1.419 . S
C2245 C2246 1.363 . S
C2245 H2248 0.929 . S
C2246 C2245 1.363 . S
C2246 C2252 1.428 . S
H2247 C2243 0.930 . S
H2248 C2245 0.929 . S
S2249 N2250 1.613 . S
S2249 N2251 1.610 . S
N2250 S2249 1.613 . S
N2250 C2253 1.350 . S
N2251 S2249 1.610 . S
N2251 C2252 1.351 . S
C2252 C2246 1.428 . S
C2252 N2251 1.351 . S
C2252 C2253 1.434 . S
C2253 C2244 1.429 . S
C2253 N2250 1.350 . S
C2253 C2252 1.434 . S
C2254 C2255 1.369 . S
C2254 C2256 1.419 . S
C2254 H2258 0.930 . S
C2255 C2254 1.369 . S
C2255 C2264 1.429 . S
C2256 C2254 1.419 . S
C2256 C2257 1.363 . S
C2256 H2259 0.929 . S
C2257 C2256 1.363 . S
C2257 C2263 1.428 . S
H2258 C2254 0.930 . S
H2259 C2256 0.929 . S
S2260 N2261 1.613 . S
S2260 N2262 1.610 . S
N2261 S2260 1.613 . S
N2261 C2264 1.350 1_655 S
N2262 S2260 1.610 . S
N2262 C2263 1.351 1_655 S
C2263 C2257 1.428 . S
C2263 N2262 1.351 1_455 S
C2263 C2264 1.434 . S
C2264 C2255 1.429 . S
C2264 N2261 1.350 1_455 S
C2264 C2263 1.434 . S
C2265 C2266 1.369 . S
C2265 C2267 1.419 . S
C2265 H2269 0.930 . S
C2266 C2265 1.369 . S
C2266 C2275 1.429 . S
C2267 C2265 1.419 . S
C2267 C2268 1.363 . S
C2267 H2270 0.929 . S
C2268 C2267 1.363 . S
C2268 C2274 1.428 . S
H2269 C2265 0.930 . S
H2270 C2267 0.929 . S
S2271 N2272 1.613 . S
S2271 N2273 1.610 . S
N2272 S2271 1.613 . S
N2272 C2275 1.350 . S
N2273 S2271 1.610 . S
N2273 C2274 1.351 . S
C2274 C2268 1.428 . S
C2274 N2273 1.351 . S
C2274 C2275 1.434 . S
C2275 C2266 1.429 . S
C2275 N2272 1.350 . S
C2275 C2274 1.434 . S
C2276 C2277 1.369 . S
C2276 C2278 1.419 . S
C2276 H2280 0.930 1_545 S
C2277 C2276 1.369 . S
C2277 C2286 1.429 . S
C2278 C2276 1.419 . S
C2278 C2279 1.363 . S
C2278 H2281 0.929 1_545 S
C2279 C2278 1.363 . S
C2279 C2285 1.428 . S
H2280 C2276 0.930 1_565 S
H2281 C2278 0.929 1_565 S
S2282 N2283 1.613 . S
S2282 N2284 1.610 . S
N2283 S2282 1.613 . S
N2283 C2286 1.350 . S
N2284 S2282 1.610 . S
N2284 C2285 1.351 . S
C2285 C2279 1.428 . S
C2285 N2284 1.351 . S
C2285 C2286 1.434 . S
C2286 C2277 1.429 . S
C2286 N2283 1.350 . S
C2286 C2285 1.434 . S
C2287 C2288 1.369 . S
C2287 C2289 1.419 . S
C2287 H2291 0.930 . S
C2288 C2287 1.369 . S
C2288 C2297 1.429 . S
C2289 C2287 1.419 . S
C2289 C2290 1.363 . S
C2289 H2292 0.929 . S
C2290 C2289 1.363 . S
C2290 C2296 1.428 . S
H2291 C2287 0.930 . S
H2292 C2289 0.929 . S
S2293 N2294 1.613 . S
S2293 N2295 1.610 . S
N2294 S2293 1.613 . S
N2294 C2297 1.350 . S
N2295 S2293 1.610 . S
N2295 C2296 1.351 . S
C2296 C2290 1.428 . S
C2296 N2295 1.351 . S
C2296 C2297 1.434 . S
C2297 C2288 1.429 . S
C2297 N2294 1.350 . S
C2297 C2296 1.434 . S
C2298 C2299 1.369 . S
C2298 C2300 1.419 . S
C2298 H2302 0.930 . S
C2299 C2298 1.369 . S
C2299 C2308 1.429 . S
C2300 C2298 1.419 . S
C2300 C2301 1.363 . S
C2300 H2303 0.929 . S
C2301 C2300 1.363 . S
C2301 C2307 1.428 . S
H2302 C2298 0.930 . S
H2303 C2300 0.929 . S
S2304 N2305 1.613 . S
S2304 N2306 1.610 . S
N2305 S2304 1.613 . S
N2305 C2308 1.350 . S
N2306 S2304 1.610 . S
N2306 C2307 1.351 . S
C2307 C2301 1.428 . S
C2307 N2306 1.351 . S
C2307 C2308 1.434 . S
C2308 C2299 1.429 . S
C2308 N2305 1.350 . S
C2308 C2307 1.434 . S
C2309 C2310 1.369 . S
C2309 C2311 1.419 . S
C2309 H2313 0.930 . S
C2310 C2309 1.369 . S
C2310 C2319 1.429 . S
C2311 C2309 1.419 . S
C2311 C2312 1.363 . S
C2311 H2314 0.929 . S
C2312 C2311 1.363 . S
C2312 C2318 1.428 . S
H2313 C2309 0.930 . S
H2314 C2311 0.929 . S
S2315 N2316 1.613 . S
S2315 N2317 1.610 . S
N2316 S2315 1.613 . S
N2316 C2319 1.350 . S
N2317 S2315 1.610 . S
N2317 C2318 1.351 . S
C2318 C2312 1.428 . S
C2318 N2317 1.351 . S
C2318 C2319 1.434 . S
C2319 C2310 1.429 . S
C2319 N2316 1.350 . S
C2319 C2318 1.434 . S
C2320 C2321 1.369 . S
C2320 C2322 1.419 . S
C2320 H2324 0.930 . S
C2321 C2320 1.369 . S
C2321 C2330 1.429 . S
C2322 C2320 1.419 . S
C2322 C2323 1.363 . S
C2322 H2325 0.929 . S
C2323 C2322 1.363 . S
C2323 C2329 1.428 . S
H2324 C2320 0.930 . S
H2325 C2322 0.929 . S
S2326 N2327 1.613 . S
S2326 N2328 1.610 . S
N2327 S2326 1.613 . S
N2327 C2330 1.350 . S
N2328 S2326 1.610 . S
N2328 C2329 1.351 . S
C2329 C2323 1.428 . S
C2329 N2328 1.351 . S
C2329 C2330 1.434 . S
C2330 C2321 1.429 . S
C2330 N2327 1.350 . S
C2330 C2329 1.434 . S
C2331 C2332 1.369 . S
C2331 C2333 1.419 . S
C2331 H2335 0.930 . S
C2332 C2331 1.369 . S
C2332 C2341 1.429 . S
C2333 C2331 1.419 . S
C2333 C2334 1.363 . S
C2333 H2336 0.929 . S
C2334 C2333 1.363 . S
C2334 C2340 1.428 . S
H2335 C2331 0.930 . S
H2336 C2333 0.929 . S
S2337 N2338 1.613 . S
S2337 N2339 1.610 . S
N2338 S2337 1.613 . S
N2338 C2341 1.350 . S
N2339 S2337 1.610 . S
N2339 C2340 1.351 . S
C2340 C2334 1.428 . S
C2340 N2339 1.351 . S
C2340 C2341 1.434 . S
C2341 C2332 1.429 . S
C2341 N2338 1.350 . S
C2341 C2340 1.434 . S
C2342 C2343 1.369 . S
C2342 C2344 1.419 . S
C2342 H2346 0.930 . S
C2343 C2342 1.369 . S
C2343 C2352 1.429 . S
C2344 C2342 1.419 . S
C2344 C2345 1.363 . S
C2344 H2347 0.929 . S
C2345 C2344 1.363 . S
C2345 C2351 1.428 . S
H2346 C2342 0.930 . S
H2347 C2344 0.929 . S
S2348 N2349 1.613 . S
S2348 N2350 1.610 . S
N2349 S2348 1.613 . S
N2349 C2352 1.350 . S
N2350 S2348 1.610 . S
N2350 C2351 1.351 . S
C2351 C2345 1.428 . S
C2351 N2350 1.351 . S
C2351 C2352 1.434 . S
C2352 C2343 1.429 . S
C2352 N2349 1.350 . S
C2352 C2351 1.434 . S
C2353 C2354 1.369 . S
C2353 C2355 1.419 . S
C2353 H2357 0.930 . S
C2354 C2353 1.369 . S
C2354 C2363 1.429 . S
C2355 C2353 1.419 . S
C2355 C2356 1.363 . S
C2355 H2358 0.929 . S
C2356 C2355 1.363 . S
C2356 C2362 1.428 . S
H2357 C2353 0.930 . S
H2358 C2355 0.929 . S
S2359 N2360 1.613 . S
S2359 N2361 1.610 . S
N2360 S2359 1.613 . S
N2360 C2363 1.350 . S
N2361 S2359 1.610 . S
N2361 C2362 1.351 . S
C2362 C2356 1.428 . S
C2362 N2361 1.351 . S
C2362 C2363 1.434 . S
C2363 C2354 1.429 . S
C2363 N2360 1.350 . S
C2363 C2362 1.434 . S
C2364 C2365 1.369 1_655 S
C2364 C2366 1.419 . S
C2364 H2368 0.930 . S
C2365 C2364 1.369 1_455 S
C2365 C2374 1.429 . S
C2366 C2364 1.419 . S
C2366 C2367 1.363 . S
C2366 H2369 0.929 . S
C2367 C2366 1.363 . S
C2367 C2373 1.428 1_655 S
H2368 C2364 0.930 . S
H2369 C2366 0.929 . S
S2370 N2371 1.613 . S
S2370 N2372 1.610 . S
N2371 S2370 1.613 . S
N2371 C2374 1.350 . S
N2372 S2370 1.610 . S
N2372 C2373 1.351 . S
C2373 C2367 1.428 1_455 S
C2373 N2372 1.351 . S
C2373 C2374 1.434 . S
C2374 C2365 1.429 . S
C2374 N2371 1.350 . S
C2374 C2373 1.434 . S
C2375 C2376 1.369 . S
C2375 C2377 1.419 . S
C2375 H2379 0.930 . S
C2376 C2375 1.369 . S
C2376 C2385 1.429 . S
C2377 C2375 1.419 . S
C2377 C2378 1.363 . S
C2377 H2380 0.929 . S
C2378 C2377 1.363 . S
C2378 C2384 1.428 . S
H2379 C2375 0.930 . S
H2380 C2377 0.929 . S
S2381 N2382 1.613 . S
S2381 N2383 1.610 . S
N2382 S2381 1.613 . S
N2382 C2385 1.350 . S
N2383 S2381 1.610 . S
N2383 C2384 1.351 . S
C2384 C2378 1.428 . S
C2384 N2383 1.351 . S
C2384 C2385 1.434 . S
C2385 C2376 1.429 . S
C2385 N2382 1.350 . S
C2385 C2384 1.434 . S
C2386 C2387 1.369 . S
C2386 C2388 1.419 . S
C2386 H2390 0.930 . S
C2387 C2386 1.369 . S
C2387 C2396 1.429 1_565 S
C2388 C2386 1.419 . S
C2388 C2389 1.363 1_565 S
C2388 H2391 0.929 . S
C2389 C2388 1.363 1_545 S
C2389 C2395 1.428 . S
H2390 C2386 0.930 . S
H2391 C2388 0.929 . S
S2392 N2393 1.613 . S
S2392 N2394 1.610 . S
N2393 S2392 1.613 . S
N2393 C2396 1.350 . S
N2394 S2392 1.610 . S
N2394 C2395 1.351 . S
C2395 C2389 1.428 . S
C2395 N2394 1.351 . S
C2395 C2396 1.434 . S
C2396 C2387 1.429 1_545 S
C2396 N2393 1.350 . S
C2396 C2395 1.434 . S
C2397 C2398 1.369 . S
C2397 C2399 1.419 . S
C2397 H2401 0.930 . S
C2398 C2397 1.369 . S
C2398 C2407 1.429 1_565 S
C2399 C2397 1.419 . S
C2399 C2400 1.363 1_565 S
C2399 H2402 0.929 . S
C2400 C2399 1.363 1_545 S
C2400 C2406 1.428 . S
H2401 C2397 0.930 . S
H2402 C2399 0.929 . S
S2403 N2404 1.613 . S
S2403 N2405 1.610 . S
N2404 S2403 1.613 . S
N2404 C2407 1.350 . S
N2405 S2403 1.610 . S
N2405 C2406 1.351 . S
C2406 C2400 1.428 . S
C2406 N2405 1.351 . S
C2406 C2407 1.434 . S
C2407 C2398 1.429 1_545 S
C2407 N2404 1.350 . S
C2407 C2406 1.434 . S
C2408 C2409 1.369 . S
C2408 C2410 1.419 . S
C2408 H2412 0.930 . S
C2409 C2408 1.369 . S
C2409 C2418 1.429 1_655 S
C2410 C2408 1.419 . S
C2410 C2411 1.363 1_655 S
C2410 H2413 0.929 . S
C2411 C2410 1.363 1_455 S
C2411 C2417 1.428 . S
H2412 C2408 0.930 . S
H2413 C2410 0.929 . S
S2414 N2415 1.613 . S
S2414 N2416 1.610 . S
N2415 S2414 1.613 . S
N2415 C2418 1.350 . S
N2416 S2414 1.610 . S
N2416 C2417 1.351 . S
C2417 C2411 1.428 . S
C2417 N2416 1.351 . S
C2417 C2418 1.434 . S
C2418 C2409 1.429 1_455 S
C2418 N2415 1.350 . S
C2418 C2417 1.434 . S
C2419 C2420 1.369 . S
C2419 C2421 1.419 . S
C2419 H2423 0.930 . S
C2420 C2419 1.369 . S
C2420 C2429 1.429 . S
C2421 C2419 1.419 . S
C2421 C2422 1.363 . S
C2421 H2424 0.929 . S
C2422 C2421 1.363 . S
C2422 C2428 1.428 . S
H2423 C2419 0.930 . S
H2424 C2421 0.929 . S
S2425 N2426 1.613 . S
S2425 N2427 1.610 . S
N2426 S2425 1.613 . S
N2426 C2429 1.350 . S
N2427 S2425 1.610 . S
N2427 C2428 1.351 . S
C2428 C2422 1.428 . S
C2428 N2427 1.351 . S
C2428 C2429 1.434 . S
C2429 C2420 1.429 . S
C2429 N2426 1.350 . S
C2429 C2428 1.434 . S
C2430 C2431 1.369 1_455 S
C2430 C2432 1.419 . S
C2430 H2434 0.930 . S
C2431 C2430 1.369 1_655 S
C2431 C2440 1.429 . S
C2432 C2430 1.419 . S
C2432 C2433 1.363 . S
C2432 H2435 0.929 . S
C2433 C2432 1.363 . S
C2433 C2439 1.428 1_455 S
H2434 C2430 0.930 . S
H2435 C2432 0.929 . S
S2436 N2437 1.613 . S
S2436 N2438 1.610 . S
N2437 S2436 1.613 . S
N2437 C2440 1.350 . S
N2438 S2436 1.610 . S
N2438 C2439 1.351 . S
C2439 C2433 1.428 1_655 S
C2439 N2438 1.351 . S
C2439 C2440 1.434 . S
C2440 C2431 1.429 . S
C2440 N2437 1.350 . S
C2440 C2439 1.434 . S
C2441 C2442 1.369 . S
C2441 C2443 1.419 . S
C2441 H2445 0.930 . S
C2442 C2441 1.369 . S
C2442 C2451 1.429 . S
C2443 C2441 1.419 . S
C2443 C2444 1.363 . S
C2443 H2446 0.929 . S
C2444 C2443 1.363 . S
C2444 C2450 1.428 . S
H2445 C2441 0.930 . S
H2446 C2443 0.929 . S
S2447 N2448 1.613 . S
S2447 N2449 1.610 . S
N2448 S2447 1.613 . S
N2448 C2451 1.350 . S
N2449 S2447 1.610 . S
N2449 C2450 1.351 . S
C2450 C2444 1.428 . S
C2450 N2449 1.351 . S
C2450 C2451 1.434 . S
C2451 C2442 1.429 . S
C2451 N2448 1.350 . S
C2451 C2450 1.434 . S
C2452 C2453 1.369 . S
C2452 C2454 1.419 . S
C2452 H2456 0.930 . S
C2453 C2452 1.369 . S
C2453 C2462 1.429 1_545 S
C2454 C2452 1.419 . S
C2454 C2455 1.363 1_545 S
C2454 H2457 0.929 . S
C2455 C2454 1.363 1_565 S
C2455 C2461 1.428 . S
H2456 C2452 0.930 . S
H2457 C2454 0.929 . S
S2458 N2459 1.613 . S
S2458 N2460 1.610 . S
N2459 S2458 1.613 . S
N2459 C2462 1.350 . S
N2460 S2458 1.610 . S
N2460 C2461 1.351 . S
C2461 C2455 1.428 . S
C2461 N2460 1.351 . S
C2461 C2462 1.434 . S
C2462 C2453 1.429 1_565 S
C2462 N2459 1.350 . S
C2462 C2461 1.434 . S
C2463 C2464 1.369 1_455 S
C2463 C2465 1.419 . S
C2463 H2467 0.930 . S
C2464 C2463 1.369 1_655 S
C2464 C2473 1.429 . S
C2465 C2463 1.419 . S
C2465 C2466 1.363 . S
C2465 H2468 0.929 . S
C2466 C2465 1.363 . S
C2466 C2472 1.428 1_455 S
H2467 C2463 0.930 . S
H2468 C2465 0.929 . S
S2469 N2470 1.613 . S
S2469 N2471 1.610 . S
N2470 S2469 1.613 . S
N2470 C2473 1.350 . S
N2471 S2469 1.610 . S
N2471 C2472 1.351 . S
C2472 C2466 1.428 1_655 S
C2472 N2471 1.351 . S
C2472 C2473 1.434 . S
C2473 C2464 1.429 . S
C2473 N2470 1.350 . S
C2473 C2472 1.434 . S
C2474 C2475 1.369 . S
C2474 C2476 1.419 . S
C2474 H2478 0.930 . S
C2475 C2474 1.369 . S
C2475 C2484 1.429 . S
C2476 C2474 1.419 . S
C2476 C2477 1.363 . S
C2476 H2479 0.929 . S
C2477 C2476 1.363 . S
C2477 C2483 1.428 . S
H2478 C2474 0.930 . S
H2479 C2476 0.929 . S
S2480 N2481 1.613 . S
S2480 N2482 1.610 . S
N2481 S2480 1.613 . S
N2481 C2484 1.350 . S
N2482 S2480 1.610 . S
N2482 C2483 1.351 . S
C2483 C2477 1.428 . S
C2483 N2482 1.351 . S
C2483 C2484 1.434 . S
C2484 C2475 1.429 . S
C2484 N2481 1.350 . S
C2484 C2483 1.434 . S
C2485 C2486 1.369 1_565 S
C2485 C2487 1.419 . S
C2485 H2489 0.930 . S
C2486 C2485 1.369 1_545 S
C2486 C2495 1.429 . S
C2487 C2485 1.419 . S
C2487 C2488 1.363 . S
C2487 H2490 0.929 . S
C2488 C2487 1.363 . S
C2488 C2494 1.428 1_565 S
H2489 C2485 0.930 . S
H2490 C2487 0.929 . S
S2491 N2492 1.613 . S
S2491 N2493 1.610 . S
N2492 S2491 1.613 . S
N2492 C2495 1.350 . S
N2493 S2491 1.610 . S
N2493 C2494 1.351 . S
C2494 C2488 1.428 1_545 S
C2494 N2493 1.351 . S
C2494 C2495 1.434 . S
C2495 C2486 1.429 . S
C2495 N2492 1.350 . S
C2495 C2494 1.434 . S
C2496 C2497 1.369 . S
C2496 C2498 1.419 . S
C2496 H2500 0.930 . S
C2497 C2496 1.369 . S
C2497 C2506 1.429 . S
C2498 C2496 1.419 . S
C2498 C2499 1.363 . S
C2498 H2501 0.929 . S
C2499 C2498 1.363 . S
C2499 C2505 1.428 . S
H2500 C2496 0.930 . S
H2501 C2498 0.929 . S
S2502 N2503 1.613 . S
S2502 N2504 1.610 . S
N2503 S2502 1.613 . S
N2503 C2506 1.350 . S
N2504 S2502 1.610 . S
N2504 C2505 1.351 . S
C2505 C2499 1.428 . S
C2505 N2504 1.351 . S
C2505 C2506 1.434 . S
C2506 C2497 1.429 . S
C2506 N2503 1.350 . S
C2506 C2505 1.434 . S
C2507 C2508 1.369 . S
C2507 C2509 1.419 . S
C2507 H2511 0.930 . S
C2508 C2507 1.369 . S
C2508 C2517 1.429 . S
C2509 C2507 1.419 . S
C2509 C2510 1.363 . S
C2509 H2512 0.929 . S
C2510 C2509 1.363 . S
C2510 C2516 1.428 . S
H2511 C2507 0.930 . S
H2512 C2509 0.929 . S
S2513 N2514 1.613 . S
S2513 N2515 1.610 . S
N2514 S2513 1.613 . S
N2514 C2517 1.350 . S
N2515 S2513 1.610 . S
N2515 C2516 1.351 . S
C2516 C2510 1.428 . S
C2516 N2515 1.351 . S
C2516 C2517 1.434 . S
C2517 C2508 1.429 . S
C2517 N2514 1.350 . S
C2517 C2516 1.434 . S
C2518 C2519 1.369 . S
C2518 C2520 1.419 . S
C2518 H2522 0.930 . S
C2519 C2518 1.369 . S
C2519 C2528 1.429 . S
C2520 C2518 1.419 . S
C2520 C2521 1.363 . S
C2520 H2523 0.929 . S
C2521 C2520 1.363 . S
C2521 C2527 1.428 . S
H2522 C2518 0.930 . S
H2523 C2520 0.929 . S
S2524 N2525 1.613 . S
S2524 N2526 1.610 . S
N2525 S2524 1.613 . S
N2525 C2528 1.350 . S
N2526 S2524 1.610 . S
N2526 C2527 1.351 . S
C2527 C2521 1.428 . S
C2527 N2526 1.351 . S
C2527 C2528 1.434 . S
C2528 C2519 1.429 . S
C2528 N2525 1.350 . S
C2528 C2527 1.434 . S
C2529 C2530 1.369 . S
C2529 C2531 1.419 . S
C2529 H2533 0.930 . S
C2530 C2529 1.369 . S
C2530 C2539 1.429 . S
C2531 C2529 1.419 . S
C2531 C2532 1.363 . S
C2531 H2534 0.929 . S
C2532 C2531 1.363 . S
C2532 C2538 1.428 . S
H2533 C2529 0.930 . S
H2534 C2531 0.929 . S
S2535 N2536 1.613 . S
S2535 N2537 1.610 . S
N2536 S2535 1.613 . S
N2536 C2539 1.350 . S
N2537 S2535 1.610 . S
N2537 C2538 1.351 . S
C2538 C2532 1.428 . S
C2538 N2537 1.351 . S
C2538 C2539 1.434 . S
C2539 C2530 1.429 . S
C2539 N2536 1.350 . S
C2539 C2538 1.434 . S
C2540 C2541 1.369 . S
C2540 C2542 1.419 . S
C2540 H2544 0.930 . S
C2541 C2540 1.369 . S
C2541 C2550 1.429 . S
C2542 C2540 1.419 . S
C2542 C2543 1.363 . S
C2542 H2545 0.929 . S
C2543 C2542 1.363 . S
C2543 C2549 1.428 . S
H2544 C2540 0.930 . S
H2545 C2542 0.929 . S
S2546 N2547 1.613 . S
S2546 N2548 1.610 . S
N2547 S2546 1.613 . S
N2547 C2550 1.350 . S
N2548 S2546 1.610 . S
N2548 C2549 1.351 . S
C2549 C2543 1.428 . S
C2549 N2548 1.351 . S
C2549 C2550 1.434 . S
C2550 C2541 1.429 . S
C2550 N2547 1.350 . S
C2550 C2549 1.434 . S
C2551 C2552 1.369 . S
C2551 C2553 1.419 . S
C2551 H2555 0.930 . S
C2552 C2551 1.369 . S
C2552 C2561 1.429 . S
C2553 C2551 1.419 . S
C2553 C2554 1.363 . S
C2553 H2556 0.929 . S
C2554 C2553 1.363 . S
C2554 C2560 1.428 . S
H2555 C2551 0.930 . S
H2556 C2553 0.929 . S
S2557 N2558 1.613 . S
S2557 N2559 1.610 . S
N2558 S2557 1.613 . S
N2558 C2561 1.350 . S
N2559 S2557 1.610 . S
N2559 C2560 1.351 . S
C2560 C2554 1.428 . S
C2560 N2559 1.351 . S
C2560 C2561 1.434 . S
C2561 C2552 1.429 . S
C2561 N2558 1.350 . S
C2561 C2560 1.434 . S
C2562 C2563 1.369 . S
C2562 C2564 1.419 . S
C2562 H2566 0.930 . S
C2563 C2562 1.369 . S
C2563 C2572 1.429 . S
C2564 C2562 1.419 . S
C2564 C2565 1.363 . S
C2564 H2567 0.929 . S
C2565 C2564 1.363 . S
C2565 C2571 1.428 . S
H2566 C2562 0.930 . S
H2567 C2564 0.929 . S
S2568 N2569 1.613 . S
S2568 N2570 1.610 . S
N2569 S2568 1.613 . S
N2569 C2572 1.350 . S
N2570 S2568 1.610 . S
N2570 C2571 1.351 . S
C2571 C2565 1.428 . S
C2571 N2570 1.351 . S
C2571 C2572 1.434 . S
C2572 C2563 1.429 . S
C2572 N2569 1.350 . S
C2572 C2571 1.434 . S
C2573 C2574 1.369 . S
C2573 C2575 1.419 . S
C2573 H2577 0.930 . S
C2574 C2573 1.369 . S
C2574 C2583 1.429 . S
C2575 C2573 1.419 . S
C2575 C2576 1.363 . S
C2575 H2578 0.929 . S
C2576 C2575 1.363 . S
C2576 C2582 1.428 . S
H2577 C2573 0.930 . S
H2578 C2575 0.929 . S
S2579 N2580 1.613 . S
S2579 N2581 1.610 . S
N2580 S2579 1.613 . S
N2580 C2583 1.350 . S
N2581 S2579 1.610 . S
N2581 C2582 1.351 . S
C2582 C2576 1.428 . S
C2582 N2581 1.351 . S
C2582 C2583 1.434 . S
C2583 C2574 1.429 . S
C2583 N2580 1.350 . S
C2583 C2582 1.434 . S
C2584 C2585 1.369 . S
C2584 C2586 1.419 . S
C2584 H2588 0.930 . S
C2585 C2584 1.369 . S
C2585 C2594 1.429 . S
C2586 C2584 1.419 . S
C2586 C2587 1.363 . S
C2586 H2589 0.929 . S
C2587 C2586 1.363 . S
C2587 C2593 1.428 . S
H2588 C2584 0.930 . S
H2589 C2586 0.929 . S
S2590 N2591 1.613 . S
S2590 N2592 1.610 . S
N2591 S2590 1.613 . S
N2591 C2594 1.350 . S
N2592 S2590 1.610 . S
N2592 C2593 1.351 . S
C2593 C2587 1.428 . S
C2593 N2592 1.351 . S
C2593 C2594 1.434 . S
C2594 C2585 1.429 . S
C2594 N2591 1.350 . S
C2594 C2593 1.434 . S
C2595 C2596 1.369 . S
C2595 C2597 1.419 . S
C2595 H2599 0.930 . S
C2596 C2595 1.369 . S
C2596 C2605 1.429 . S
C2597 C2595 1.419 . S
C2597 C2598 1.363 . S
C2597 H2600 0.929 . S
C2598 C2597 1.363 . S
C2598 C2604 1.428 . S
H2599 C2595 0.930 . S
H2600 C2597 0.929 . S
S2601 N2602 1.613 . S
S2601 N2603 1.610 . S
N2602 S2601 1.613 . S
N2602 C2605 1.350 . S
N2603 S2601 1.610 . S
N2603 C2604 1.351 . S
C2604 C2598 1.428 . S
C2604 N2603 1.351 . S
C2604 C2605 1.434 . S
C2605 C2596 1.429 . S
C2605 N2602 1.350 . S
C2605 C2604 1.434 . S
C2606 C2607 1.369 . S
C2606 C2608 1.419 . S
C2606 H2610 0.930 . S
C2607 C2606 1.369 . S
C2607 C2616 1.429 . S
C2608 C2606 1.419 . S
C2608 C2609 1.363 . S
C2608 H2611 0.929 . S
C2609 C2608 1.363 . S
C2609 C2615 1.428 . S
H2610 C2606 0.930 . S
H2611 C2608 0.929 . S
S2612 N2613 1.613 . S
S2612 N2614 1.610 . S
N2613 S2612 1.613 . S
N2613 C2616 1.350 . S
N2614 S2612 1.610 . S
N2614 C2615 1.351 . S
C2615 C2609 1.428 . S
C2615 N2614 1.351 . S
C2615 C2616 1.434 . S
C2616 C2607 1.429 . S
C2616 N2613 1.350 . S
C2616 C2615 1.434 . S
C2617 C2618 1.369 . S
C2617 C2619 1.419 . S
C2617 H2621 0.930 . S
C2618 C2617 1.369 . S
C2618 C2627 1.429 . S
C2619 C2617 1.419 . S
C2619 C2620 1.363 . S
C2619 H2622 0.929 . S
C2620 C2619 1.363 . S
C2620 C2626 1.428 . S
H2621 C2617 0.930 . S
H2622 C2619 0.929 . S
S2623 N2624 1.613 . S
S2623 N2625 1.610 . S
N2624 S2623 1.613 . S
N2624 C2627 1.350 . S
N2625 S2623 1.610 . S
N2625 C2626 1.351 . S
C2626 C2620 1.428 . S
C2626 N2625 1.351 . S
C2626 C2627 1.434 . S
C2627 C2618 1.429 . S
C2627 N2624 1.350 . S
C2627 C2626 1.434 . S
C1441 C10 1.799 . S
C1443 C91 1.852 1_545 S
C1452 C11 1.846 1_655 S
C1454 C50 1.796 1_545 S
C1463 C90 1.802 1_655 S
C1465 C51 1.852 . S
C1474 C130 1.868 . S
C1476 C171 1.914 1_455 S
C1485 C211 1.917 . S
C1487 C170 1.864 1_565 S
C1496 C210 1.864 1_455 S
C1498 C131 1.912 1_565 S
C1507 C259 1.793 . S
C1509 C322 1.849 1_565 S
C1518 C299 1.798 1_565 S
C1520 C242 1.847 1_455 S
C1529 C339 1.802 1_455 S
C1531 C282 1.851 . S
C1540 C379 1.859 . S
C1542 C402 1.913 1_655 S
C1551 C442 1.911 . S
C1553 C419 1.863 1_545 S
C1562 C362 1.916 1_545 S
C1564 C459 1.867 1_655 S
C1573 C571 1.907 . S
C1575 C490 1.852 . S
C1584 C530 1.849 . S
C1586 C491 1.906 . S
C1595 C531 1.903 . S
C1597 C570 1.849 . S
C1606 C610 1.882 . S
C1608 C651 1.928 . S
C1617 C691 1.932 . S
C1619 C650 1.880 . S
C1628 C611 1.928 . S
C1630 C690 1.876 . S
C1639 C739 1.819 . S
C1641 C802 1.874 . S
C1650 C779 1.822 . S
C1652 C722 1.877 . S
C1661 C762 1.875 . S
C1663 C819 1.821 . S
C1672 C882 1.770 . S
C1674 C859 1.734 1_554 S
C1683 C899 1.730 1_554 S
C1685 C922 1.773 . S
C1694 C842 1.776 . S
C1696 C939 1.733 1_554 S
C1705 C970 1.827 . S
C1707 C1051 1.876 . S
C1716 C1010 1.823 . S
C1718 C971 1.877 . S
C1727 C1050 1.828 . S
C1729 C1011 1.875 . S
C1738 C1090 1.734 1_556 S
C1740 C1131 1.776 . S
C1749 C1130 1.731 1_556 S
C1751 C1171 1.775 . S
C1760 C1170 1.733 1_556 S
C1762 C1091 1.772 . S
C1771 C1219 1.850 . S
C1773 C1282 1.902 . S
C1782 C1259 1.853 . S
C1784 C1202 1.902 . S
C1793 C1242 1.905 . S
C1795 C1299 1.856 . S
C1804 C1339 1.882 . S
C1806 C1362 1.928 . S
C1815 C1379 1.876 . S
C1817 C1402 1.931 . S
C1826 C1322 1.930 . S
C1828 C1419 1.876 . S
C1837 C2 1.885 . S
C1839 C810 1.850 . S
C1848 C730 1.854 1_565 S
C1850 C42 1.882 . S
C1859 C82 1.883 . S
C1861 C770 1.854 1_455 S
C1870 C122 1.800 . S
C1872 C1370 1.762 . S
C1881 C1410 1.757 1_545 S
C1883 C162 1.798 . S
C1892 C202 1.797 . S
C1894 C1330 1.761 1_655 S
C1903 C1059 1.852 . S
C1905 C251 1.880 . S
C1914 C291 1.883 . S
C1916 C979 1.848 1_545 S
C1925 C331 1.882 . S
C1927 C1019 1.854 1_655 S
C1936 C659 1.761 . S
C1938 C371 1.797 . S
C1947 C699 1.758 1_565 S
C1949 C411 1.797 . S
C1958 C619 1.757 1_455 S
C1960 C451 1.800 . S
C1969 C482 1.842 . S
C1971 C1290 1.809 . S
C1980 C522 1.843 . S
C1982 C1210 1.803 . S
C1991 C1250 1.802 . S
C1993 C562 1.841 . S
C2002 C410 1.800 . S
C2004 C602 1.834 1_455 S
C2013 C450 1.793 . S
C2015 C642 1.833 . S
C2024 C370 1.799 . S
C2026 C682 1.833 1_565 S
C2035 C99 1.845 . S
C2037 C731 1.878 1_565 S
C2046 C771 1.877 1_455 S
C2048 C19 1.844 . S
C2057 C811 1.876 . S
C2059 C59 1.846 . S
C2068 C1139 1.822 . S
C2070 C851 1.863 . S
C2079 C1179 1.819 . S
C2081 C891 1.863 . S
C2090 C931 1.856 . S
C2092 C1099 1.821 . S
C2101 C330 1.844 . S
C2103 C962 1.876 1_545 S
C2112 C250 1.844 . S
C2114 C1002 1.877 1_655 S
C2123 C290 1.851 . S
C2125 C1042 1.876 . S
C2134 C1082 1.858 . S
C2136 C890 1.823 . S
C2145 C930 1.819 . S
C2147 C1122 1.863 . S
C2156 C1162 1.863 . S
C2158 C850 1.821 . S
C2167 C1211 1.843 . S
C2169 C579 1.804 . S
C2178 C1251 1.841 . S
C2180 C499 1.808 . S
C2189 C1291 1.844 . S
C2191 C539 1.805 . S
C2200 C1331 1.832 1_655 S
C2202 C179 1.794 . S
C2211 C219 1.796 . S
C2213 C1371 1.831 . S
C2222 C139 1.795 . S
C2224 C1411 1.830 1_545 S
C2233 C1167 2.280 . S
C2235 C7 2.278 . S
C2244 C1087 2.281 . S
C2246 C47 2.275 . S
C2255 C87 2.292 . S
C2257 C1127 2.270 . S
C2266 C527 2.453 . S
C2268 C127 2.455 . S
C2277 C167 2.451 . S
C2279 C567 2.454 . S
C2288 C207 2.455 . S
C2290 C487 2.453 . S
C2299 C256 2.288 . S
C2301 C936 2.273 . S
C2310 C296 2.287 . S
C2312 C856 2.270 . S
C2321 C336 2.293 . S
C2323 C896 2.268 . S
C2332 C1256 2.452 . S
C2334 C376 2.455 . S
C2343 C1296 2.457 . S
C2345 C416 2.451 . S
C2354 C1216 2.452 . S
C2356 C456 2.455 . S
C2365 C607 2.489 . S
C2367 C1007 2.490 . S
C2376 C647 2.488 . S
C2378 C1047 2.488 . S
C2387 C687 2.486 . S
C2389 C967 2.493 . S
C2398 C736 2.489 . S
C2400 C1416 2.486 . S
C2409 C1336 2.483 . S
C2411 C776 2.492 . S
C2420 C816 2.493 . S
C2422 C1376 2.486 . S
C2431 C176 1.230 . S
C2433 C16 1.235 . S
C2442 C216 1.235 . S
C2444 C56 1.234 . S
C2453 C136 1.233 . S
C2455 C96 1.232 . S
C2464 C247 1.232 . S
C2466 C407 1.234 . S
C2475 C447 1.232 . S
C2477 C287 1.236 . S
C2486 C327 1.234 . S
C2488 C367 1.234 . S
C2497 C656 1.301 . S
C2499 C496 1.303 . S
C2508 C696 1.298 . S
C2510 C536 1.302 . S
C2519 C616 1.300 . S
C2521 C576 1.299 . S
C2530 C887 1.526 . S
C2532 C727 1.560 . S
C2541 C767 1.544 . S
C2543 C927 1.540 . S
C2552 C807 1.546 . S
C2554 C847 1.538 . S
C2563 C976 1.546 . S
C2565 C1136 1.542 . S
C2574 C1176 1.530 . S
C2576 C1016 1.559 . S
C2585 C1056 1.544 . S
C2587 C1096 1.540 . S
C2596 C1207 1.301 . S
C2598 C1367 1.302 . S
C2607 C1407 1.297 . S
C2609 C1247 1.300 . S
C2618 C1287 1.303 . S
C2620 C1327 1.298 . S
