# Generated by pormake.
# Topology lcs-e, (6)-cn, num edge types: 1
# Building blocks:
#     Node 0, Type 0, BuildingBlock: KUMBOL_clean_sbu_1, # of connection points: 6
#     Node 1, Type 0, BuildingBlock: KUMBOL_clean_sbu_1, # of connection points: 6
#     Node 2, Type 0, BuildingBlock: KUMBOL_clean_sbu_1, # of connection points: 6
#     Node 3, Type 0, BuildingBlock: KUMBOL_clean_sbu_1, # of connection points: 6
#     Node 4, Type 0, BuildingBlock: KUMBOL_clean_sbu_1, # of connection points: 6
#     Node 5, Type 0, BuildingBlock: KUMBOL_clean_sbu_1, # of connection points: 6
#     Node 6, Type 0, BuildingBlock: KUMBOL_clean_sbu_1, # of connection points: 6
#     Node 7, Type 0, BuildingBlock: KUMBOL_clean_sbu_1, # of connection points: 6
#     Node 8, Type 0, BuildingBlock: KUMBOL_clean_sbu_1, # of connection points: 6
#     Node 9, Type 0, BuildingBlock: KUMBOL_clean_sbu_1, # of connection points: 6
#     Node 10, Type 0, BuildingBlock: KUMBOL_clean_sbu_1, # of connection points: 6
#     Node 11, Type 0, BuildingBlock: KUMBOL_clean_sbu_1, # of connection points: 6
#     Node 12, Type 0, BuildingBlock: KUMBOL_clean_sbu_1, # of connection points: 6
#     Node 13, Type 0, BuildingBlock: KUMBOL_clean_sbu_1, # of connection points: 6
#     Node 14, Type 0, BuildingBlock: KUMBOL_clean_sbu_1, # of connection points: 6
#     Node 15, Type 0, BuildingBlock: KUMBOL_clean_sbu_1, # of connection points: 6
#     Node 16, Type 0, BuildingBlock: KUMBOL_clean_sbu_1, # of connection points: 6
#     Node 17, Type 0, BuildingBlock: KUMBOL_clean_sbu_1, # of connection points: 6
#     Node 18, Type 0, BuildingBlock: KUMBOL_clean_sbu_1, # of connection points: 6
#     Node 19, Type 0, BuildingBlock: KUMBOL_clean_sbu_1, # of connection points: 6
#     Node 20, Type 0, BuildingBlock: KUMBOL_clean_sbu_1, # of connection points: 6
#     Node 21, Type 0, BuildingBlock: KUMBOL_clean_sbu_1, # of connection points: 6
#     Node 22, Type 0, BuildingBlock: KUMBOL_clean_sbu_1, # of connection points: 6
#     Node 23, Type 0, BuildingBlock: KUMBOL_clean_sbu_1, # of connection points: 6
#     Node 24, Type 0, BuildingBlock: KUMBOL_clean_sbu_1, # of connection points: 6
#     Node 25, Type 0, BuildingBlock: KUMBOL_clean_sbu_1, # of connection points: 6
#     Node 26, Type 0, BuildingBlock: KUMBOL_clean_sbu_1, # of connection points: 6
#     Node 27, Type 0, BuildingBlock: KUMBOL_clean_sbu_1, # of connection points: 6
#     Node 28, Type 0, BuildingBlock: KUMBOL_clean_sbu_1, # of connection points: 6
#     Node 29, Type 0, BuildingBlock: KUMBOL_clean_sbu_1, # of connection points: 6
#     Node 30, Type 0, BuildingBlock: KUMBOL_clean_sbu_1, # of connection points: 6
#     Node 31, Type 0, BuildingBlock: KUMBOL_clean_sbu_1, # of connection points: 6
#     Node 32, Type 0, BuildingBlock: KUMBOL_clean_sbu_1, # of connection points: 6
#     Node 33, Type 0, BuildingBlock: KUMBOL_clean_sbu_1, # of connection points: 6
#     Node 34, Type 0, BuildingBlock: KUMBOL_clean_sbu_1, # of connection points: 6
#     Node 35, Type 0, BuildingBlock: KUMBOL_clean_sbu_1, # of connection points: 6
#     Node 36, Type 0, BuildingBlock: KUMBOL_clean_sbu_1, # of connection points: 6
#     Node 37, Type 0, BuildingBlock: KUMBOL_clean_sbu_1, # of connection points: 6
#     Node 38, Type 0, BuildingBlock: KUMBOL_clean_sbu_1, # of connection points: 6
#     Node 39, Type 0, BuildingBlock: KUMBOL_clean_sbu_1, # of connection points: 6
#     Node 40, Type 0, BuildingBlock: KUMBOL_clean_sbu_1, # of connection points: 6
#     Node 41, Type 0, BuildingBlock: KUMBOL_clean_sbu_1, # of connection points: 6
#     Node 42, Type 0, BuildingBlock: KUMBOL_clean_sbu_1, # of connection points: 6
#     Node 43, Type 0, BuildingBlock: KUMBOL_clean_sbu_1, # of connection points: 6
#     Node 44, Type 0, BuildingBlock: KUMBOL_clean_sbu_1, # of connection points: 6
#     Node 45, Type 0, BuildingBlock: KUMBOL_clean_sbu_1, # of connection points: 6
#     Node 46, Type 0, BuildingBlock: KUMBOL_clean_sbu_1, # of connection points: 6
#     Node 47, Type 0, BuildingBlock: KUMBOL_clean_sbu_1, # of connection points: 6
#     Edge 48, Type (0, 0), BuildingBlock: AJUNOK_clean_linker_0, # of connection points: 2
#     Edge 49, Type (0, 0), BuildingBlock: AJUNOK_clean_linker_0, # of connection points: 2
#     Edge 50, Type (0, 0), BuildingBlock: AJUNOK_clean_linker_0, # of connection points: 2
#     Edge 51, Type (0, 0), BuildingBlock: AJUNOK_clean_linker_0, # of connection points: 2
#     Edge 52, Type (0, 0), BuildingBlock: AJUNOK_clean_linker_0, # of connection points: 2
#     Edge 53, Type (0, 0), BuildingBlock: AJUNOK_clean_linker_0, # of connection points: 2
#     Edge 54, Type (0, 0), BuildingBlock: AJUNOK_clean_linker_0, # of connection points: 2
#     Edge 55, Type (0, 0), BuildingBlock: AJUNOK_clean_linker_0, # of connection points: 2
#     Edge 56, Type (0, 0), BuildingBlock: AJUNOK_clean_linker_0, # of connection points: 2
#     Edge 57, Type (0, 0), BuildingBlock: AJUNOK_clean_linker_0, # of connection points: 2
#     Edge 58, Type (0, 0), BuildingBlock: AJUNOK_clean_linker_0, # of connection points: 2
#     Edge 59, Type (0, 0), BuildingBlock: AJUNOK_clean_linker_0, # of connection points: 2
#     Edge 60, Type (0, 0), BuildingBlock: AJUNOK_clean_linker_0, # of connection points: 2
#     Edge 61, Type (0, 0), BuildingBlock: AJUNOK_clean_linker_0, # of connection points: 2
#     Edge 62, Type (0, 0), BuildingBlock: AJUNOK_clean_linker_0, # of connection points: 2
#     Edge 63, Type (0, 0), BuildingBlock: AJUNOK_clean_linker_0, # of connection points: 2
#     Edge 64, Type (0, 0), BuildingBlock: AJUNOK_clean_linker_0, # of connection points: 2
#     Edge 65, Type (0, 0), BuildingBlock: AJUNOK_clean_linker_0, # of connection points: 2
#     Edge 66, Type (0, 0), BuildingBlock: AJUNOK_clean_linker_0, # of connection points: 2
#     Edge 67, Type (0, 0), BuildingBlock: AJUNOK_clean_linker_0, # of connection points: 2
#     Edge 68, Type (0, 0), BuildingBlock: AJUNOK_clean_linker_0, # of connection points: 2
#     Edge 69, Type (0, 0), BuildingBlock: AJUNOK_clean_linker_0, # of connection points: 2
#     Edge 70, Type (0, 0), BuildingBlock: AJUNOK_clean_linker_0, # of connection points: 2
#     Edge 71, Type (0, 0), BuildingBlock: AJUNOK_clean_linker_0, # of connection points: 2
#     Edge 72, Type (0, 0), BuildingBlock: AJUNOK_clean_linker_0, # of connection points: 2
#     Edge 73, Type (0, 0), BuildingBlock: AJUNOK_clean_linker_0, # of connection points: 2
#     Edge 74, Type (0, 0), BuildingBlock: AJUNOK_clean_linker_0, # of connection points: 2
#     Edge 75, Type (0, 0), BuildingBlock: AJUNOK_clean_linker_0, # of connection points: 2
#     Edge 76, Type (0, 0), BuildingBlock: AJUNOK_clean_linker_0, # of connection points: 2
#     Edge 77, Type (0, 0), BuildingBlock: AJUNOK_clean_linker_0, # of connection points: 2
#     Edge 78, Type (0, 0), BuildingBlock: AJUNOK_clean_linker_0, # of connection points: 2
#     Edge 79, Type (0, 0), BuildingBlock: AJUNOK_clean_linker_0, # of connection points: 2
#     Edge 80, Type (0, 0), BuildingBlock: AJUNOK_clean_linker_0, # of connection points: 2
#     Edge 81, Type (0, 0), BuildingBlock: AJUNOK_clean_linker_0, # of connection points: 2
#     Edge 82, Type (0, 0), BuildingBlock: AJUNOK_clean_linker_0, # of connection points: 2
#     Edge 83, Type (0, 0), BuildingBlock: AJUNOK_clean_linker_0, # of connection points: 2
#     Edge 84, Type (0, 0), BuildingBlock: AJUNOK_clean_linker_0, # of connection points: 2
#     Edge 85, Type (0, 0), BuildingBlock: AJUNOK_clean_linker_0, # of connection points: 2
#     Edge 86, Type (0, 0), BuildingBlock: AJUNOK_clean_linker_0, # of connection points: 2
#     Edge 87, Type (0, 0), BuildingBlock: AJUNOK_clean_linker_0, # of connection points: 2
#     Edge 88, Type (0, 0), BuildingBlock: AJUNOK_clean_linker_0, # of connection points: 2
#     Edge 89, Type (0, 0), BuildingBlock: AJUNOK_clean_linker_0, # of connection points: 2
#     Edge 90, Type (0, 0), BuildingBlock: AJUNOK_clean_linker_0, # of connection points: 2
#     Edge 91, Type (0, 0), BuildingBlock: AJUNOK_clean_linker_0, # of connection points: 2
#     Edge 92, Type (0, 0), BuildingBlock: AJUNOK_clean_linker_0, # of connection points: 2
#     Edge 93, Type (0, 0), BuildingBlock: AJUNOK_clean_linker_0, # of connection points: 2
#     Edge 94, Type (0, 0), BuildingBlock: AJUNOK_clean_linker_0, # of connection points: 2
#     Edge 95, Type (0, 0), BuildingBlock: AJUNOK_clean_linker_0, # of connection points: 2
#     Edge 96, Type (0, 0), BuildingBlock: AJUNOK_clean_linker_0, # of connection points: 2
#     Edge 97, Type (0, 0), BuildingBlock: AJUNOK_clean_linker_0, # of connection points: 2
#     Edge 98, Type (0, 0), BuildingBlock: AJUNOK_clean_linker_0, # of connection points: 2
#     Edge 99, Type (0, 0), BuildingBlock: AJUNOK_clean_linker_0, # of connection points: 2
#     Edge 100, Type (0, 0), BuildingBlock: AJUNOK_clean_linker_0, # of connection points: 2
#     Edge 101, Type (0, 0), BuildingBlock: AJUNOK_clean_linker_0, # of connection points: 2
#     Edge 102, Type (0, 0), BuildingBlock: AJUNOK_clean_linker_0, # of connection points: 2
#     Edge 103, Type (0, 0), BuildingBlock: AJUNOK_clean_linker_0, # of connection points: 2
#     Edge 104, Type (0, 0), BuildingBlock: AJUNOK_clean_linker_0, # of connection points: 2
#     Edge 105, Type (0, 0), BuildingBlock: AJUNOK_clean_linker_0, # of connection points: 2
#     Edge 106, Type (0, 0), BuildingBlock: AJUNOK_clean_linker_0, # of connection points: 2
#     Edge 107, Type (0, 0), BuildingBlock: AJUNOK_clean_linker_0, # of connection points: 2
#     Edge 108, Type (0, 0), BuildingBlock: AJUNOK_clean_linker_0, # of connection points: 2
#     Edge 109, Type (0, 0), BuildingBlock: AJUNOK_clean_linker_0, # of connection points: 2
#     Edge 110, Type (0, 0), BuildingBlock: AJUNOK_clean_linker_0, # of connection points: 2
#     Edge 111, Type (0, 0), BuildingBlock: AJUNOK_clean_linker_0, # of connection points: 2
#     Edge 112, Type (0, 0), BuildingBlock: AJUNOK_clean_linker_0, # of connection points: 2
#     Edge 113, Type (0, 0), BuildingBlock: AJUNOK_clean_linker_0, # of connection points: 2
#     Edge 114, Type (0, 0), BuildingBlock: AJUNOK_clean_linker_0, # of connection points: 2
#     Edge 115, Type (0, 0), BuildingBlock: AJUNOK_clean_linker_0, # of connection points: 2
#     Edge 116, Type (0, 0), BuildingBlock: AJUNOK_clean_linker_0, # of connection points: 2
#     Edge 117, Type (0, 0), BuildingBlock: AJUNOK_clean_linker_0, # of connection points: 2
#     Edge 118, Type (0, 0), BuildingBlock: AJUNOK_clean_linker_0, # of connection points: 2
#     Edge 119, Type (0, 0), BuildingBlock: AJUNOK_clean_linker_0, # of connection points: 2
#     Edge 120, Type (0, 0), BuildingBlock: AJUNOK_clean_linker_0, # of connection points: 2
#     Edge 121, Type (0, 0), BuildingBlock: AJUNOK_clean_linker_0, # of connection points: 2
#     Edge 122, Type (0, 0), BuildingBlock: AJUNOK_clean_linker_0, # of connection points: 2
#     Edge 123, Type (0, 0), BuildingBlock: AJUNOK_clean_linker_0, # of connection points: 2
#     Edge 124, Type (0, 0), BuildingBlock: AJUNOK_clean_linker_0, # of connection points: 2
#     Edge 125, Type (0, 0), BuildingBlock: AJUNOK_clean_linker_0, # of connection points: 2
#     Edge 126, Type (0, 0), BuildingBlock: AJUNOK_clean_linker_0, # of connection points: 2
#     Edge 127, Type (0, 0), BuildingBlock: AJUNOK_clean_linker_0, # of connection points: 2
#     Edge 128, Type (0, 0), BuildingBlock: AJUNOK_clean_linker_0, # of connection points: 2
#     Edge 129, Type (0, 0), BuildingBlock: AJUNOK_clean_linker_0, # of connection points: 2
#     Edge 130, Type (0, 0), BuildingBlock: AJUNOK_clean_linker_0, # of connection points: 2
#     Edge 131, Type (0, 0), BuildingBlock: AJUNOK_clean_linker_0, # of connection points: 2
#     Edge 132, Type (0, 0), BuildingBlock: AJUNOK_clean_linker_0, # of connection points: 2
#     Edge 133, Type (0, 0), BuildingBlock: AJUNOK_clean_linker_0, # of connection points: 2
#     Edge 134, Type (0, 0), BuildingBlock: AJUNOK_clean_linker_0, # of connection points: 2
#     Edge 135, Type (0, 0), BuildingBlock: AJUNOK_clean_linker_0, # of connection points: 2
#     Edge 136, Type (0, 0), BuildingBlock: AJUNOK_clean_linker_0, # of connection points: 2
#     Edge 137, Type (0, 0), BuildingBlock: AJUNOK_clean_linker_0, # of connection points: 2
#     Edge 138, Type (0, 0), BuildingBlock: AJUNOK_clean_linker_0, # of connection points: 2
#     Edge 139, Type (0, 0), BuildingBlock: AJUNOK_clean_linker_0, # of connection points: 2
#     Edge 140, Type (0, 0), BuildingBlock: AJUNOK_clean_linker_0, # of connection points: 2
#     Edge 141, Type (0, 0), BuildingBlock: AJUNOK_clean_linker_0, # of connection points: 2
#     Edge 142, Type (0, 0), BuildingBlock: AJUNOK_clean_linker_0, # of connection points: 2
#     Edge 143, Type (0, 0), BuildingBlock: AJUNOK_clean_linker_0, # of connection points: 2
#     Edge 144, Type (0, 0), BuildingBlock: AJUNOK_clean_linker_0, # of connection points: 2
#     Edge 145, Type (0, 0), BuildingBlock: AJUNOK_clean_linker_0, # of connection points: 2
#     Edge 146, Type (0, 0), BuildingBlock: AJUNOK_clean_linker_0, # of connection points: 2
#     Edge 147, Type (0, 0), BuildingBlock: AJUNOK_clean_linker_0, # of connection points: 2
#     Edge 148, Type (0, 0), BuildingBlock: AJUNOK_clean_linker_0, # of connection points: 2
#     Edge 149, Type (0, 0), BuildingBlock: AJUNOK_clean_linker_0, # of connection points: 2
#     Edge 150, Type (0, 0), BuildingBlock: AJUNOK_clean_linker_0, # of connection points: 2
#     Edge 151, Type (0, 0), BuildingBlock: AJUNOK_clean_linker_0, # of connection points: 2
#     Edge 152, Type (0, 0), BuildingBlock: AJUNOK_clean_linker_0, # of connection points: 2
#     Edge 153, Type (0, 0), BuildingBlock: AJUNOK_clean_linker_0, # of connection points: 2
#     Edge 154, Type (0, 0), BuildingBlock: AJUNOK_clean_linker_0, # of connection points: 2
#     Edge 155, Type (0, 0), BuildingBlock: AJUNOK_clean_linker_0, # of connection points: 2
#     Edge 156, Type (0, 0), BuildingBlock: AJUNOK_clean_linker_0, # of connection points: 2
#     Edge 157, Type (0, 0), BuildingBlock: AJUNOK_clean_linker_0, # of connection points: 2
#     Edge 158, Type (0, 0), BuildingBlock: AJUNOK_clean_linker_0, # of connection points: 2
#     Edge 159, Type (0, 0), BuildingBlock: AJUNOK_clean_linker_0, # of connection points: 2
#     Edge 160, Type (0, 0), BuildingBlock: AJUNOK_clean_linker_0, # of connection points: 2
#     Edge 161, Type (0, 0), BuildingBlock: AJUNOK_clean_linker_0, # of connection points: 2
#     Edge 162, Type (0, 0), BuildingBlock: AJUNOK_clean_linker_0, # of connection points: 2
#     Edge 163, Type (0, 0), BuildingBlock: AJUNOK_clean_linker_0, # of connection points: 2
#     Edge 164, Type (0, 0), BuildingBlock: AJUNOK_clean_linker_0, # of connection points: 2
#     Edge 165, Type (0, 0), BuildingBlock: AJUNOK_clean_linker_0, # of connection points: 2
#     Edge 166, Type (0, 0), BuildingBlock: AJUNOK_clean_linker_0, # of connection points: 2
#     Edge 167, Type (0, 0), BuildingBlock: AJUNOK_clean_linker_0, # of connection points: 2
#     Edge 168, Type (0, 0), BuildingBlock: AJUNOK_clean_linker_0, # of connection points: 2
#     Edge 169, Type (0, 0), BuildingBlock: AJUNOK_clean_linker_0, # of connection points: 2
#     Edge 170, Type (0, 0), BuildingBlock: AJUNOK_clean_linker_0, # of connection points: 2
#     Edge 171, Type (0, 0), BuildingBlock: AJUNOK_clean_linker_0, # of connection points: 2
#     Edge 172, Type (0, 0), BuildingBlock: AJUNOK_clean_linker_0, # of connection points: 2
#     Edge 173, Type (0, 0), BuildingBlock: AJUNOK_clean_linker_0, # of connection points: 2
#     Edge 174, Type (0, 0), BuildingBlock: AJUNOK_clean_linker_0, # of connection points: 2
#     Edge 175, Type (0, 0), BuildingBlock: AJUNOK_clean_linker_0, # of connection points: 2
#     Edge 176, Type (0, 0), BuildingBlock: AJUNOK_clean_linker_0, # of connection points: 2
#     Edge 177, Type (0, 0), BuildingBlock: AJUNOK_clean_linker_0, # of connection points: 2
#     Edge 178, Type (0, 0), BuildingBlock: AJUNOK_clean_linker_0, # of connection points: 2
#     Edge 179, Type (0, 0), BuildingBlock: AJUNOK_clean_linker_0, # of connection points: 2
#     Edge 180, Type (0, 0), BuildingBlock: AJUNOK_clean_linker_0, # of connection points: 2
#     Edge 181, Type (0, 0), BuildingBlock: AJUNOK_clean_linker_0, # of connection points: 2
#     Edge 182, Type (0, 0), BuildingBlock: AJUNOK_clean_linker_0, # of connection points: 2
#     Edge 183, Type (0, 0), BuildingBlock: AJUNOK_clean_linker_0, # of connection points: 2
#     Edge 184, Type (0, 0), BuildingBlock: AJUNOK_clean_linker_0, # of connection points: 2
#     Edge 185, Type (0, 0), BuildingBlock: AJUNOK_clean_linker_0, # of connection points: 2
#     Edge 186, Type (0, 0), BuildingBlock: AJUNOK_clean_linker_0, # of connection points: 2
#     Edge 187, Type (0, 0), BuildingBlock: AJUNOK_clean_linker_0, # of connection points: 2
#     Edge 188, Type (0, 0), BuildingBlock: AJUNOK_clean_linker_0, # of connection points: 2
#     Edge 189, Type (0, 0), BuildingBlock: AJUNOK_clean_linker_0, # of connection points: 2
#     Edge 190, Type (0, 0), BuildingBlock: AJUNOK_clean_linker_0, # of connection points: 2
#     Edge 191, Type (0, 0), BuildingBlock: AJUNOK_clean_linker_0, # of connection points: 2
# Relax obj value: 0.346
# Max RMSD: 0.255
# Mean RMSD: 0.252
data_MOF--net-lcs-e--node1-KUMBOL_clean_sbu_1--edge1-AJUNOK_clean_linker_0
_symmetry_space_group_name_H-M    P1
_symmetry_Int_Tables_number       1
_symmetry_cell_setting            triclinic
loop_
_symmetry_equiv_pos_as_xyz
'x, y, z'
_cell_length_a     50.513298
_cell_length_b     50.368438
_cell_length_c     50.801114
_cell_angle_alpha  90.133235
_cell_angle_beta   90.116689
_cell_angle_gamma 89.907225
loop_
_atom_site_label
_atom_site_type_symbol
_atom_site_fract_x
_atom_site_fract_y
_atom_site_fract_z
_atom_type_partial_charge
C0 C 0.95624 0.44306 0.28527 0.0
C1 C 0.9383 0.42101 0.24698 0.0
C2 C 0.95823 0.42344 0.2664 0.0
C3 C 0.9159 0.4376 0.24785 0.0
C4 C 0.93465 0.46097 0.28522 0.0
C5 C 0.9141 0.4576 0.26692 0.0
N6 N 0.97653 0.44598 0.30237 0.0
C7 C 0.97747 0.46781 0.31862 0.0
C8 C 0.93482 0.48231 0.3029 0.0
C9 C 0.95661 0.48602 0.31933 0.0
Gd10 Gd 0.06497 0.40532 0.24984 0.0
Gd11 Gd 1.0087 0.41157 0.30331 0.0
N12 N 0.98062 0.4083 0.26573 0.0
C13 C 0.94198 0.40272 0.22663 0.0
C14 C 0.98507 0.39219 0.24459 0.0
C15 C 0.96573 0.38868 0.22513 0.0
H16 H 1.00355 0.38241 0.24207 0.0
H17 H 0.96933 0.37536 0.20876 0.0
H18 H 0.10793 0.45311 0.26645 0.0
H19 H 0.99438 0.47112 0.33133 0.0
H20 H 0.15634 0.45809 0.27231 0.0
H21 H 0.92717 0.40017 0.21138 0.0
H22 H 0.90032 0.43577 0.23326 0.0
H23 H 0.05686 0.35129 0.21097 0.0
H24 H 0.91867 0.49651 0.3034 0.0
H25 H 0.9574 0.5029 0.33255 0.0
H26 H 0.19206 0.37481 0.24203 0.0
H27 H 0.8972 0.47088 0.26682 0.0
H28 H 0.13113 0.31147 0.20562 0.0
H29 H 0.08302 0.31308 0.19661 0.0
N30 N 0.08967 0.37201 0.22807 0.0
C31 C 0.11607 0.37201 0.2319 0.0
C32 C 0.07791 0.35146 0.21471 0.0
C33 C 0.11973 0.32865 0.21173 0.0
C34 C 0.09265 0.32948 0.20656 0.0
C35 C 0.13194 0.35045 0.22379 0.0
H36 H 0.17193 0.33503 0.22197 0.0
N37 N 0.11078 0.41405 0.25098 0.0
C38 C 0.12711 0.39399 0.24354 0.0
C39 C 0.16527 0.41892 0.25763 0.0
C40 C 0.15472 0.39562 0.24693 0.0
C41 C 0.12096 0.43711 0.26072 0.0
C42 C 0.14834 0.4399 0.26421 0.0
O43 O 1.01981 0.45616 0.28601 0.0
O44 O 0.05764 0.45313 0.25934 0.0
O45 O 0.0515 0.4381 0.22535 0.0
O46 O 0.04703 0.39831 0.21099 0.0
O47 O 1.01268 0.36464 0.28967 0.0
O48 O 0.0432 0.36243 0.25547 0.0
O49 O 0.07673 0.37914 0.28368 0.0
O50 O 0.04272 0.38261 0.3151 0.0
O51 O 0.98431 0.38591 0.32877 0.0
O52 O 0.99555 0.42437 0.34151 0.0
O53 O 0.05341 0.42043 0.28724 0.0
O54 O 0.04159 0.43272 0.32447 0.0
C55 C 0.039 0.46885 0.27179 0.0
C56 C 0.02658 0.34936 0.27205 0.0
C57 C 0.07416 0.42787 0.18648 0.0
C58 C 0.12099 0.44046 0.18153 0.0
C59 C 0.09764 0.41723 0.14629 0.0
C60 C 0.07464 0.41613 0.16149 0.0
C61 C 0.12054 0.42921 0.15626 0.0
C62 C 0.09731 0.4408 0.19597 0.0
C63 C 0.05183 0.42291 0.20475 0.0
C64 C 0.1708 0.37408 0.23934 0.0
C65 C 0.15938 0.35145 0.22791 0.0
H66 H 0.18641 0.42104 0.26054 0.0
C67 C 0.066 0.37326 0.30665 0.0
C68 C 0.06142 0.43158 0.3091 0.0
C69 C 1.00075 0.39171 0.37257 0.0
C70 C 1.00135 0.36591 0.41251 0.0
C71 C 0.03895 0.39303 0.4022 0.0
C72 C 0.0256 0.40223 0.38001 0.0
C73 C 0.02694 0.3746 0.4184 0.0
C74 C 0.98856 0.37355 0.3892 0.0
C75 C 0.98708 0.40168 0.34885 0.0
H76 H 0.09795 0.40825 0.12691 0.0
H77 H 0.05748 0.40565 0.15401 0.0
H78 H 0.138 0.42982 0.14422 0.0
H79 H 0.09728 0.45017 0.21509 0.0
H80 H 0.05819 0.40096 0.40731 0.0
H81 H 0.03504 0.41765 0.36881 0.0
H82 H 0.03664 0.36877 0.43655 0.0
H83 H 0.96855 0.3669 0.38509 0.0
C84 C 0.87398 0.70238 0.53439 0.0
C85 C 0.89058 0.69368 0.49062 0.0
C86 C 0.88974 0.70972 0.51343 0.0
C87 C 0.87602 0.66992 0.48968 0.0
C88 C 0.85822 0.67928 0.53305 0.0
C89 C 0.85978 0.66279 0.51082 0.0
N90 N 0.87248 0.71895 0.5553 0.0
C91 C 0.85423 0.71477 0.57463 0.0
C92 C 0.84057 0.67404 0.55362 0.0
C93 C 0.8383 0.69212 0.57434 0.0
Gd94 Gd 0.90324 0.81233 0.51176 0.0
Gd95 Gd 0.89931 0.75686 0.55474 0.0
N96 N 0.90265 0.73342 0.51458 0.0
C97 C 0.90521 0.70252 0.46903 0.0
C98 C 0.91529 0.74278 0.49296 0.0
C99 C 0.91734 0.72737 0.47009 0.0
H100 H 0.92319 0.76227 0.49315 0.0
H101 H 0.92786 0.73488 0.45314 0.0
H102 H 0.88312 0.87206 0.53562 0.0
H103 H 0.85171 0.7292 0.58998 0.0
H104 H 0.90071 0.91742 0.53933 0.0
H105 H 0.90643 0.6908 0.45116 0.0
H106 H 0.87652 0.65735 0.47235 0.0
H107 H 0.93314 0.78622 0.45866 0.0
H108 H 0.828 0.65663 0.55323 0.0
H109 H 0.82406 0.68884 0.58988 0.0
H110 H 0.98106 0.91499 0.48954 0.0
H111 H 0.84798 0.64489 0.50949 0.0
H112 H 0.99464 0.83912 0.43488 0.0
H113 H 0.96951 0.79752 0.42844 0.0
N114 N 0.93921 0.81975 0.4835 0.0
C115 C 0.9508 0.84409 0.48564 0.0
C116 C 0.94469 0.8038 0.46237 0.0
C117 C 0.97902 0.83399 0.44854 0.0
C118 C 0.9649 0.81047 0.44484 0.0
C119 C 0.97178 0.85136 0.46883 0.0
H120 H 0.99998 0.88217 0.45906 0.0
N121 N 0.91606 0.85717 0.51428 0.0
C122 C 0.93925 0.86312 0.50199 0.0
C123 C 0.93606 0.90853 0.51735 0.0
C124 C 0.94971 0.88909 0.50306 0.0
C125 C 0.9019 0.87652 0.52686 0.0
C126 C 0.91184 0.90231 0.52894 0.0
O127 O 0.85367 0.7629 0.54172 0.0
O128 O 0.85603 0.79867 0.51398 0.0
O129 O 0.89339 0.83859 0.48063 0.0
O130 O 0.87951 0.7972 0.47868 0.0
O131 O 0.94628 0.7568 0.54258 0.0
O132 O 0.94864 0.79306 0.51537 0.0
O133 O 0.91266 0.82883 0.55197 0.0
O134 O 0.92918 0.78918 0.56247 0.0
O135 O 0.90856 0.72482 0.58311 0.0
O136 O 0.90481 0.7661 0.5949 0.0
O137 O 0.87643 0.82483 0.54554 0.0
O138 O 0.87032 0.78672 0.57021 0.0
C139 C 0.84049 0.7801 0.52611 0.0
C140 C 0.96203 0.7733 0.52821 0.0
C141 C 0.85275 0.83255 0.45931 0.0
C142 C 0.82694 0.87264 0.44909 0.0
C143 C 0.81487 0.82979 0.43008 0.0
C144 C 0.83622 0.81763 0.44281 0.0
C145 C 0.81053 0.85712 0.43274 0.0
C146 C 0.84699 0.85975 0.46343 0.0
C147 C 0.8783 0.82141 0.46857 0.0
C148 C 0.97256 0.89527 0.48864 0.0
C149 C 0.98342 0.87653 0.47136 0.0
H150 H 0.94348 0.92867 0.51864 0.0
C151 C 0.9247 0.81378 0.56909 0.0
C152 C 0.86553 0.81184 0.56541 0.0
C153 C 0.89906 0.7364 0.62842 0.0
C154 C 0.91151 0.7278 0.67343 0.0
C155 C 0.8685 0.74668 0.66397 0.0
C156 C 0.87449 0.74626 0.63715 0.0
C157 C 0.88703 0.73751 0.6822 0.0
C158 C 0.91745 0.72761 0.64667 0.0
C159 C 0.90932 0.74207 0.60233 0.0
H160 H 0.80234 0.81823 0.41711 0.0
H161 H 0.84032 0.79684 0.43911 0.0
H162 H 0.79493 0.86621 0.4212 0.0
H163 H 0.85895 0.87127 0.47694 0.0
H164 H 0.84968 0.75447 0.67063 0.0
H165 H 0.86049 0.7548 0.62356 0.0
H166 H 0.88212 0.73752 0.70295 0.0
H167 H 0.93695 0.72134 0.64011 0.0
C168 C 0.51265 0.68131 0.70455 0.0
C169 C 0.55581 0.66227 0.69632 0.0
C170 C 0.53271 0.66413 0.71177 0.0
C171 C 0.55799 0.67749 0.67324 0.0
C172 C 0.51506 0.69736 0.68194 0.0
C173 C 0.53767 0.69505 0.66611 0.0
N174 N 0.49121 0.68317 0.72032 0.0
C175 C 0.47158 0.70111 0.71503 0.0
C176 C 0.49495 0.71564 0.67627 0.0
C177 C 0.47322 0.71767 0.69307 0.0
Gd178 Gd 0.53613 0.64649 0.81466 0.0
Gd179 Gd 0.48959 0.6547 0.75677 0.0
N180 N 0.53012 0.6501 0.73447 0.0
C181 C 0.57623 0.64558 0.70483 0.0
C182 C 0.55038 0.63472 0.74332 0.0
C183 C 0.5736 0.63194 0.72858 0.0
H184 H 0.54882 0.62489 0.76185 0.0
H185 H 0.58954 0.61945 0.73566 0.0
H186 H 0.52317 0.67506 0.87401 0.0
H187 H 0.45492 0.7034 0.72809 0.0
H188 H 0.51766 0.65962 0.91981 0.0
H189 H 0.5943 0.64355 0.69352 0.0
H190 H 0.57552 0.67621 0.66106 0.0
H191 H 0.57917 0.6023 0.78641 0.0
H192 H 0.49612 0.72842 0.65919 0.0
H193 H 0.45769 0.73195 0.68908 0.0
H194 H 0.54337 0.5679 0.91723 0.0
H195 H 0.53981 0.70704 0.64855 0.0
H196 H 0.58393 0.53561 0.83838 0.0
H197 H 0.59574 0.55713 0.79629 0.0
N198 N 0.55651 0.6051 0.82164 0.0
C199 C 0.55253 0.59511 0.84624 0.0
C200 C 0.57384 0.59292 0.80473 0.0
C201 C 0.5765 0.55533 0.83408 0.0
C202 C 0.58325 0.56742 0.81029 0.0
C203 C 0.56182 0.56954 0.8528 0.0
H204 H 0.56391 0.53971 0.88338 0.0
N205 N 0.53509 0.63715 0.8597 0.0
C206 C 0.5414 0.61145 0.8657 0.0
C207 C 0.52945 0.61942 0.91108 0.0
C208 C 0.53862 0.60195 0.89162 0.0
C209 C 0.52737 0.6546 0.8788 0.0
C210 C 0.52422 0.64591 0.90473 0.0
O211 O 0.50583 0.69873 0.7624 0.0
O212 O 0.53538 0.69389 0.79741 0.0
O213 O 0.57141 0.64877 0.83698 0.0
O214 O 0.57237 0.66202 0.79603 0.0
O215 O 0.49863 0.60686 0.75941 0.0
O216 O 0.52427 0.60362 0.7966 0.0
O217 O 0.49762 0.63326 0.83573 0.0
O218 O 0.4891 0.63973 0.79645 0.0
O219 O 0.46382 0.63042 0.7319 0.0
O220 O 0.44802 0.66381 0.75271 0.0
O221 O 0.50863 0.67858 0.82779 0.0
O222 O 0.47951 0.68229 0.79185 0.0
C223 C 0.52301 0.71047 0.77918 0.0
C224 C 0.51093 0.59098 0.77741 0.0
C225 C 0.60112 0.68267 0.82873 0.0
C226 C 0.61634 0.70772 0.86701 0.0
C227 C 0.64023 0.71043 0.82571 0.0
C228 C 0.62237 0.69265 0.81408 0.0
C229 C 0.63736 0.71784 0.85215 0.0
C230 C 0.598 0.69092 0.85511 0.0
C231 C 0.5851 0.66034 0.8187 0.0
C232 C 0.54579 0.57565 0.8975 0.0
C233 C 0.55742 0.55954 0.87818 0.0
H234 H 0.52702 0.61283 0.93122 0.0
C235 C 0.47862 0.63234 0.81859 0.0
C236 C 0.48757 0.68865 0.81621 0.0
C237 C 0.42086 0.62637 0.75051 0.0
C238 C 0.39636 0.58544 0.75412 0.0
C239 C 0.38155 0.62388 0.77781 0.0
C240 C 0.39988 0.63887 0.76373 0.0
C241 C 0.38112 0.59645 0.77448 0.0
C242 C 0.41954 0.5988 0.74661 0.0
C243 C 0.44247 0.64257 0.73953 0.0
H244 H 0.65675 0.71791 0.81443 0.0
H245 H 0.6256 0.68608 0.79402 0.0
H246 H 0.65175 0.731 0.86113 0.0
H247 H 0.58191 0.68341 0.86707 0.0
H248 H 0.36644 0.63359 0.78947 0.0
H249 H 0.39767 0.66009 0.76275 0.0
H250 H 0.36441 0.58561 0.78239 0.0
H251 H 0.43298 0.58938 0.73283 0.0
C252 C 0.68282 0.32823 0.03855 0.0
C253 C 0.66365 0.34546 0.99835 0.0
C254 C 0.66445 0.32592 1.01826 0.0
C255 C 0.68049 0.36762 0.99984 0.0
C256 C 0.70051 0.34992 0.03952 0.0
C257 C 0.69887 0.36983 1.02036 0.0
N258 N 0.6842 0.3087 0.05676 0.0
C259 C 0.7038 0.30862 0.07538 0.0
C260 C 0.71972 0.35069 0.05943 0.0
C261 C 0.7216 0.32972 0.07723 0.0
Gd262 Gd 0.64323 0.226 1.00524 0.0
Gd263 Gd 0.65101 0.2763 0.05483 0.0
N264 N 0.64851 0.30403 1.01716 0.0
C265 C 0.64648 0.34185 0.97707 0.0
C266 C 0.63309 0.29978 0.99545 0.0
C267 C 0.63153 0.31868 0.97538 0.0
H268 H 0.6226 0.28158 0.99281 0.0
H269 H 0.61901 0.31518 0.95841 0.0
H270 H 0.69051 0.1773 1.01408 0.0
H271 H 0.70564 0.29219 0.08872 0.0
H272 H 0.69322 0.12872 1.01206 0.0
H273 H 0.64532 0.35636 0.96139 0.0
H274 H 0.67988 0.38287 0.98484 0.0
H275 H 0.59206 0.24128 0.96496 0.0
H276 H 0.73364 0.36698 0.06078 0.0
H277 H 0.73686 0.32969 0.09222 0.0
H278 H 0.6088 0.10172 0.97811 0.0
H279 H 0.71211 0.38674 1.02092 0.0
H280 H 0.55108 0.16962 0.94569 0.0
H281 H 0.55476 0.21852 0.94338 0.0
N282 N 0.61011 0.2056 0.97887 0.0
C283 C 0.60921 0.17878 0.9788 0.0
C284 C 0.59104 0.21984 0.96576 0.0
C285 C 0.56778 0.1795 0.95484 0.0
C286 C 0.56982 0.20705 0.95343 0.0
C287 C 0.58778 0.16498 0.96733 0.0
H288 H 0.57049 0.12632 0.96052 0.0
N289 N 0.65106 0.17943 0.99881 0.0
C290 C 0.63047 0.16519 0.98904 0.0
C291 C 0.65379 0.12397 0.99675 0.0
C292 C 0.63104 0.13716 0.98811 0.0
C293 C 0.67368 0.1664 1.00661 0.0
C294 C 0.67535 0.1387 1.00565 0.0
O295 O 0.69552 0.26407 0.04314 0.0
O296 O 0.69154 0.22855 1.01489 0.0
O297 O 0.643 0.232 0.96338 0.0
O298 O 0.6693 0.25586 0.98751 0.0
O299 O 0.60434 0.28126 0.04085 0.0
O300 O 0.59955 0.24597 1.0126 0.0
O301 O 0.615 0.21614 0.03843 0.0
O302 O 0.61921 0.25 0.0686 0.0
O303 O 0.64962 0.30946 0.08366 0.0
O304 O 0.64157 0.26932 0.0951 0.0
O305 O 0.66006 0.20548 0.03944 0.0
O306 O 0.6697 0.23787 0.07001 0.0
C307 C 0.70791 0.24555 0.02845 0.0
C308 C 0.58753 0.2659 0.02614 0.0
C309 C 0.68549 0.23365 0.94823 0.0
C310 C 0.7027 0.18955 0.93616 0.0
C311 C 0.70364 0.22587 0.90465 0.0
C312 C 0.69152 0.24286 0.92296 0.0
C313 C 0.70851 0.19919 0.91093 0.0
C314 C 0.69281 0.20746 0.95493 0.0
C315 C 0.66417 0.24653 0.96378 0.0
C316 C 0.60903 0.12323 0.97833 0.0
C317 C 0.58732 0.13717 0.96816 0.0
H318 H 0.65505 0.10249 0.99626 0.0
C319 C 0.60967 0.22728 0.06123 0.0
C320 C 0.66734 0.21275 0.06296 0.0
C321 C 0.65929 0.2952 0.12822 0.0
C322 C 0.65693 0.30853 0.17433 0.0
C323 C 0.69086 0.27767 0.16014 0.0
C324 C 0.68086 0.27856 0.13441 0.0
C325 C 0.67894 0.29261 0.18014 0.0
C326 C 0.64716 0.30934 0.14837 0.0
C327 C 0.64492 0.2933 0.10304 0.0
H328 H 0.70791 0.233 0.88503 0.0
H329 H 0.68547 0.26257 0.91688 0.0
H330 H 0.71643 0.18601 0.89601 0.0
H331 H 0.68838 0.2004 0.97411 0.0
H332 H 0.70745 0.26485 0.16472 0.0
H333 H 0.6892 0.26537 0.11976 0.0
H334 H 0.68666 0.29154 0.20001 0.0
H335 H 0.62903 0.32005 0.14398 0.0
C336 C 0.97136 0.61132 0.265 0.0
C337 C 0.95613 0.61958 0.30959 0.0
C338 C 0.97221 0.62673 0.2881 0.0
C339 C 0.93981 0.59701 0.30786 0.0
C340 C 0.95531 0.5885 0.2634 0.0
C341 C 0.93948 0.5815 0.28492 0.0
N342 N 0.98688 0.61825 0.24431 0.0
C343 C 0.98739 0.60373 0.22157 0.0
C344 C 0.95578 0.57324 0.24024 0.0
C345 C 0.972 0.58083 0.21929 0.0
Gd346 Gd 0.06799 0.66075 0.29379 0.0
Gd347 Gd 1.01076 0.65706 0.25021 0.0
N348 N 0.9884 0.64856 0.28951 0.0
C349 C 0.95674 0.63545 0.33223 0.0
C350 C 0.98855 0.66441 0.31126 0.0
C351 C 0.97293 0.65792 0.33304 0.0
H352 H 1.00104 0.68174 0.31212 0.0
H353 H 0.97331 0.67031 0.35047 0.0
H354 H 0.111 0.6095 0.28205 0.0
H355 H 0.99984 0.60994 0.20541 0.0
H356 H 0.15904 0.60317 0.27708 0.0
H357 H 0.94464 0.63061 0.34914 0.0
H358 H 0.92734 0.59132 0.32423 0.0
H359 H 0.06186 0.7134 0.33463 0.0
H360 H 0.94375 0.55555 0.23834 0.0
H361 H 0.97246 0.5692 0.20136 0.0
H362 H 0.19647 0.68648 0.30399 0.0
H363 H 0.9269 0.5641 0.28403 0.0
H364 H 0.13754 0.75046 0.34218 0.0
H365 H 0.08934 0.7504 0.35058 0.0
N366 N 0.09393 0.69286 0.31629 0.0
C367 C 0.12036 0.69213 0.31247 0.0
C368 C 0.08288 0.71317 0.3306 0.0
C369 C 0.12552 0.7342 0.33494 0.0
C370 C 0.09837 0.73422 0.33977 0.0
C371 C 0.13694 0.71273 0.32161 0.0
H372 H 0.17742 0.72668 0.32418 0.0
N373 N 0.11404 0.65009 0.2938 0.0
C374 C 0.13086 0.66984 0.30091 0.0
C375 C 0.16867 0.643 0.2891 0.0
C376 C 0.15854 0.66706 0.29846 0.0
C377 C 0.12404 0.62591 0.28638 0.0
C378 C 0.15136 0.62216 0.28356 0.0
O379 O 0.02466 0.61172 0.25832 0.0
O380 O 0.06109 0.61328 0.2856 0.0
O381 O 0.06822 0.66114 0.33627 0.0
O382 O 0.03809 0.63848 0.31556 0.0
O383 O 1.01011 0.70234 0.26796 0.0
O384 O 0.04991 0.70497 0.28901 0.0
O385 O 0.07112 0.69183 0.2621 0.0
O386 O 0.04191 0.67958 0.22957 0.0
O387 O 0.96987 0.6632 0.23614 0.0
O388 O 1.0027 0.67272 0.21158 0.0
O389 O 0.08162 0.64018 0.25747 0.0
O390 O 0.04639 0.63956 0.22793 0.0
C391 C 0.04291 0.59827 0.27244 0.0
C392 C 0.02862 0.71801 0.27959 0.0
C393 C 0.06537 0.61679 0.34793 0.0
C394 C 0.10641 0.59063 0.35327 0.0
C395 C 0.06391 0.57379 0.36899 0.0
C396 C 0.05085 0.59644 0.35967 0.0
C397 C 0.09136 0.57092 0.36591 0.0
C398 C 0.09322 0.61385 0.34542 0.0
C399 C 0.05233 0.64093 0.33719 0.0
C400 C 0.17519 0.68804 0.30617 0.0
C401 C 0.16437 0.71091 0.31769 0.0
H402 H 0.1898 0.64005 0.28692 0.0
C403 C 0.0621 0.69323 0.23786 0.0
C404 C 0.07167 0.63552 0.23407 0.0
C405 C 0.96345 0.66438 0.1892 0.0
C406 C 0.95621 0.67305 0.14263 0.0
C407 C 0.93989 0.63238 0.16227 0.0
C408 C 0.94899 0.64073 0.18693 0.0
C409 C 0.94398 0.6482 0.1401 0.0
C410 C 0.96618 0.68091 0.16713 0.0
C411 C 0.97729 0.67219 0.21347 0.0
H412 H 0.0527 0.55829 0.37856 0.0
H413 H 0.02958 0.59815 0.36179 0.0
H414 H 0.10087 0.55335 0.37372 0.0
H415 H 0.10477 0.62964 0.33712 0.0
H416 H 0.92946 0.61371 0.16038 0.0
H417 H 0.94492 0.62866 0.20397 0.0
H418 H 0.9368 0.64148 0.12117 0.0
H419 H 0.97612 0.69991 0.16899 0.0
C420 C 0.68236 0.70438 0.51501 0.0
C421 C 0.66626 0.69329 0.5584 0.0
C422 C 0.66645 0.71035 0.53638 0.0
C423 C 0.68155 0.66993 0.55815 0.0
C424 C 0.69864 0.68154 0.51512 0.0
C425 C 0.69778 0.66412 0.53659 0.0
N426 N 0.68299 0.72166 0.49469 0.0
C427 C 0.70042 0.718 0.47437 0.0
C428 C 0.71577 0.67718 0.49391 0.0
C429 C 0.71691 0.69572 0.47362 0.0
Gd430 Gd 0.6469 0.80522 0.54705 0.0
Gd431 Gd 0.65195 0.75655 0.49576 0.0
N432 N 0.65231 0.73344 0.53624 0.0
C433 C 0.65125 0.70053 0.58034 0.0
C434 C 0.63911 0.74121 0.55825 0.0
C435 C 0.63797 0.72482 0.58041 0.0
H436 H 0.63006 0.76019 0.5592 0.0
H437 H 0.62706 0.73108 0.59767 0.0
H438 H 0.67569 0.86563 0.53551 0.0
H439 H 0.70208 0.73242 0.45879 0.0
H440 H 0.66016 0.91143 0.52824 0.0
H441 H 0.65048 0.68795 0.59759 0.0
H442 H 0.68146 0.65655 0.57482 0.0
H443 H 0.60335 0.7782 0.5914 0.0
H444 H 0.72865 0.65996 0.49334 0.0
H445 H 0.73058 0.69295 0.45745 0.0
H446 H 0.56824 0.90907 0.55182 0.0
H447 H 0.70997 0.64639 0.53694 0.0
H448 H 0.53654 0.83066 0.59438 0.0
H449 H 0.55829 0.78865 0.60749 0.0
N450 N 0.6061 0.81326 0.56816 0.0
C451 C 0.59591 0.83794 0.56347 0.0
C452 C 0.59401 0.79664 0.58576 0.0
C453 C 0.55629 0.82622 0.58732 0.0
C454 C 0.56852 0.80248 0.59482 0.0
C455 C 0.57034 0.84472 0.57229 0.0
H456 H 0.54026 0.87543 0.57298 0.0
N457 N 0.6377 0.85101 0.54605 0.0
C458 C 0.61208 0.85729 0.55207 0.0
C459 C 0.61986 0.90275 0.53907 0.0
C460 C 0.60247 0.88331 0.54843 0.0
C461 C 0.65514 0.8703 0.53866 0.0
C462 C 0.64642 0.89635 0.53474 0.0
O463 O 0.69765 0.76338 0.50793 0.0
O464 O 0.69455 0.79402 0.54144 0.0
O465 O 0.64736 0.82657 0.58301 0.0
O466 O 0.66865 0.78908 0.5815 0.0
O467 O 0.60529 0.75361 0.50719 0.0
O468 O 0.60285 0.7877 0.53643 0.0
O469 O 0.63297 0.82637 0.51173 0.0
O470 O 0.62369 0.79043 0.48532 0.0
O471 O 0.63255 0.72584 0.472 0.0
O472 O 0.66003 0.75303 0.45432 0.0
O473 O 0.67618 0.82093 0.51771 0.0
O474 O 0.67067 0.7943 0.4809 0.0
C475 C 0.71048 0.77846 0.52585 0.0
C476 C 0.58964 0.76945 0.52208 0.0
C477 C 0.68458 0.82576 0.60911 0.0
C478 C 0.70163 0.8701 0.61965 0.0
C479 C 0.70659 0.83391 0.65087 0.0
C480 C 0.69348 0.81663 0.63361 0.0
C481 C 0.71015 0.86063 0.64419 0.0
C482 C 0.69001 0.85235 0.60183 0.0
C483 C 0.66362 0.81089 0.595 0.0
C484 C 0.57613 0.88931 0.55498 0.0
C485 C 0.56014 0.87011 0.56696 0.0
H486 H 0.61318 0.92296 0.53594 0.0
C487 C 0.62098 0.8157 0.49165 0.0
C488 C 0.68013 0.81561 0.49258 0.0
C489 C 0.62344 0.74145 0.42888 0.0
C490 C 0.59674 0.72727 0.3915 0.0
C491 C 0.60165 0.77425 0.40125 0.0
C492 C 0.61786 0.76809 0.42258 0.0
C493 C 0.59112 0.75401 0.38577 0.0
C494 C 0.61255 0.7211 0.41348 0.0
C495 C 0.64221 0.73505 0.45013 0.0
H496 H 0.71298 0.82686 0.66997 0.0
H497 H 0.689 0.79662 0.63999 0.0
H498 H 0.71934 0.87397 0.65825 0.0
H499 H 0.6832 0.85997 0.58315 0.0
H500 H 0.59764 0.7948 0.39642 0.0
H501 H 0.62639 0.78424 0.43382 0.0
H502 H 0.5793 0.75935 0.36877 0.0
H503 H 0.61694 0.70058 0.41823 0.0
C504 C 0.58713 0.43077 0.76285 0.0
C505 C 0.60017 0.4117 0.80444 0.0
C506 C 0.58185 0.41388 0.78346 0.0
C507 C 0.62433 0.42547 0.8034 0.0
C508 C 0.61054 0.44614 0.7626 0.0
C509 C 0.62946 0.44276 0.78254 0.0
N510 N 0.56812 0.43415 0.7444 0.0
C511 C 0.5705 0.45418 0.72626 0.0
C512 C 0.61368 0.4654 0.74308 0.0
C513 C 0.5933 0.46977 0.72514 0.0
Gd514 Gd 0.48591 0.39675 0.7998 0.0
Gd515 Gd 0.53153 0.40463 0.74539 0.0
N516 N 0.55769 0.40193 0.78439 0.0
C517 C 0.59304 0.39699 0.82654 0.0
C518 C 0.54992 0.39009 0.80715 0.0
C519 C 0.56753 0.38671 0.82817 0.0
H520 H 0.52994 0.38454 0.80991 0.0
H521 H 0.56116 0.37681 0.84594 0.0
H522 H 0.42295 0.42419 0.79138 0.0
H523 H 0.55466 0.45889 0.71277 0.0
H524 H 0.37787 0.4072 0.78785 0.0
H525 H 0.60648 0.39483 0.84306 0.0
H526 H 0.63864 0.42382 0.81924 0.0
H527 H 0.51477 0.35768 0.84613 0.0
H528 H 0.63125 0.4777 0.74236 0.0
H529 H 0.59497 0.48535 0.71059 0.0
H530 H 0.38469 0.31582 0.81266 0.0
H531 H 0.64764 0.45418 0.78255 0.0
H532 H 0.46386 0.29067 0.8575 0.0
H533 H 0.50459 0.31541 0.86886 0.0
N534 N 0.47947 0.35714 0.82327 0.0
C535 C 0.45515 0.34594 0.81992 0.0
C536 C 0.49662 0.34727 0.84169 0.0
C537 C 0.4679 0.30945 0.84798 0.0
C538 C 0.49096 0.32334 0.85441 0.0
C539 C 0.4493 0.32104 0.83107 0.0
H540 H 0.41973 0.29012 0.83455 0.0
N541 N 0.44013 0.38671 0.80169 0.0
C542 C 0.43499 0.36104 0.80855 0.0
C543 C 0.38862 0.36723 0.79828 0.0
C544 C 0.40913 0.3506 0.8067 0.0
C545 C 0.41967 0.4035 0.79555 0.0
C546 C 0.3938 0.39394 0.79345 0.0
O547 O 0.52406 0.44937 0.75809 0.0
O548 O 0.49835 0.44461 0.79504 0.0
O549 O 0.46818 0.39811 0.83782 0.0
O550 O 0.504 0.42108 0.83113 0.0
O551 O 0.53226 0.35688 0.75385 0.0
O552 O 0.50597 0.35343 0.7903 0.0
O553 O 0.46409 0.38153 0.76456 0.0
O554 O 0.49751 0.37795 0.73378 0.0
O555 O 0.55721 0.38536 0.71571 0.0
O556 O 0.53316 0.41894 0.70602 0.0
O557 O 0.46509 0.42416 0.77236 0.0
O558 O 0.49346 0.42706 0.73662 0.0
C559 C 0.51146 0.46129 0.77804 0.0
C560 C 0.52075 0.34084 0.77199 0.0
C561 C 0.46892 0.43826 0.85868 0.0
C562 C 0.42475 0.45788 0.85999 0.0
C563 C 0.45164 0.45578 0.89967 0.0
C564 C 0.47195 0.44332 0.88564 0.0
C565 C 0.42784 0.46221 0.8871 0.0
C566 C 0.44594 0.44734 0.84563 0.0
C567 C 0.48394 0.41625 0.84688 0.0
C568 C 0.40428 0.32434 0.81453 0.0
C569 C 0.42431 0.30962 0.82685 0.0
H570 H 0.36852 0.35993 0.79657 0.0
C571 C 0.47341 0.37297 0.74208 0.0
C572 C 0.4711 0.43269 0.74882 0.0
C573 C 0.53801 0.38818 0.67244 0.0
C574 C 0.54529 0.36426 0.63178 0.0
C575 C 0.50276 0.3842 0.63966 0.0
C576 C 0.51245 0.39456 0.66322 0.0
C577 C 0.51916 0.36888 0.62393 0.0
C578 C 0.55458 0.37307 0.65632 0.0
C579 C 0.54817 0.40041 0.6969 0.0
H580 H 0.4537 0.45895 0.92065 0.0
H581 H 0.48909 0.43592 0.89618 0.0
H582 H 0.41157 0.46997 0.89861 0.0
H583 H 0.44356 0.44361 0.82487 0.0
H584 H 0.4831 0.38919 0.63283 0.0
H585 H 0.50054 0.40879 0.67356 0.0
H586 H 0.51208 0.36213 0.6049 0.0
H587 H 0.57499 0.36958 0.66203 0.0
C588 C 0.85433 0.32296 1.00668 0.0
C589 C 0.8713 0.34755 0.04402 0.0
C590 C 0.87288 0.32577 0.0266 0.0
C591 C 0.8514 0.3668 0.04045 0.0
C592 C 0.83406 0.34192 1.0032 0.0
C593 C 0.83288 0.36403 1.02003 0.0
N594 N 0.85584 0.30129 0.99096 0.0
C595 C 0.83768 0.29704 0.97138 0.0
C596 C 0.81549 0.33793 0.98303 0.0
C597 C 0.8171 0.31518 0.96728 0.0
Gd598 Gd 0.90295 0.2231 0.05035 0.0
Gd599 Gd 0.89387 0.27517 0.99532 0.0
N600 N 0.89208 0.30694 0.02927 0.0
C601 C 0.88966 0.34923 0.0646 0.0
C602 C 0.90952 0.3081 0.04973 0.0
C603 C 0.90864 0.32925 0.06763 0.0
H604 H 0.92409 0.29283 0.05244 0.0
H605 H 0.92269 0.33019 0.08372 0.0
H606 H 0.85938 0.17145 0.04298 0.0
H607 H 0.83956 0.27986 0.9587 0.0
H608 H 0.86258 0.12291 0.03746 0.0
H609 H 0.88914 0.36564 0.07842 0.0
H610 H 0.85005 0.3838 0.05349 0.0
H611 H 0.95214 0.24086 0.09208 0.0
H612 H 0.79966 0.35208 0.9797 0.0
H613 H 0.8028 0.31187 0.95173 0.0
H614 H 0.95147 0.10231 0.06441 0.0
H615 H 0.81755 0.37891 1.01763 0.0
H616 H 1.00243 0.1731 0.10247 0.0
H617 H 0.9931 0.22078 0.10984 0.0
N618 N 0.93879 0.205 0.07425 0.0
C619 C 0.94258 0.17851 0.07177 0.0
C620 C 0.95603 0.21998 0.0888 0.0
C621 C 0.98439 0.18178 0.09471 0.0
C622 C 0.97919 0.20868 0.09896 0.0
C623 C 0.96572 0.1662 0.08138 0.0
H624 H 0.98703 0.12895 0.08459 0.0
N625 N 0.89975 0.17623 0.05377 0.0
C626 C 0.92241 0.16359 0.06095 0.0
C627 C 0.9035 0.12117 0.0493 0.0
C628 C 0.92505 0.13581 0.05871 0.0
C629 C 0.87807 0.16177 0.04649 0.0
C630 C 0.8797 0.13416 0.04379 0.0
O631 O 0.85011 0.26577 1.01259 0.0
O632 O 0.85469 0.22972 0.04105 0.0
O633 O 0.89991 0.21818 0.09217 0.0
O634 O 0.88245 0.25333 0.07381 0.0
O635 O 0.94165 0.27522 1.00788 0.0
O636 O 0.94524 0.24751 0.04424 0.0
O637 O 0.92876 0.20368 1.01947 0.0
O638 O 0.91295 0.24043 1.00914 0.0
O639 O 0.91187 0.30524 0.97047 0.0
O640 O 0.89388 0.27079 0.95263 0.0
O641 O 0.87542 0.20825 1.01745 0.0
O642 O 0.87728 0.2358 0.98014 0.0
C643 C 0.83819 0.2473 0.028 0.0
C644 C 0.95778 0.26312 0.02622 0.0
C645 C 0.85668 0.22717 0.10398 0.0
C646 C 0.82711 0.18906 0.10879 0.0
C647 C 0.81586 0.23154 0.12867 0.0
C648 C 0.83931 0.24276 0.11891 0.0
C649 C 0.80971 0.20482 0.12361 0.0
C650 C 0.8502 0.2004 0.09916 0.0
C651 C 0.88241 0.23712 0.09423 0.0
C652 C 0.94886 0.12357 0.06645 0.0
C653 C 0.96912 0.13873 0.07791 0.0
H654 H 0.90475 0.0998 0.0471 0.0
C655 C 0.92696 0.22046 1.00079 0.0
C656 C 0.87022 0.21356 0.9923 0.0
C657 C 0.89372 0.31035 0.92756 0.0
C658 C 0.89679 0.3265 0.88251 0.0
C659 C 0.86464 0.34567 0.9123 0.0
C660 C 0.87465 0.32999 0.93269 0.0
C661 C 0.87573 0.34404 0.88722 0.0
C662 C 0.90424 0.30829 0.90215 0.0
C663 C 0.90506 0.29362 0.94858 0.0
H664 H 0.8026 0.24347 0.14052 0.0
H665 H 0.84401 0.26326 0.12331 0.0
H666 H 0.79189 0.19631 0.13184 0.0
H667 H 0.86363 0.18779 0.08852 0.0
H668 H 0.84968 0.36052 0.91643 0.0
H669 H 0.86824 0.33407 0.95247 0.0
H670 H 0.86996 0.35847 0.87247 0.0
H671 H 0.92071 0.29489 0.89861 0.0
C672 C 0.21674 0.04709 0.372 0.0
C673 C 0.20148 1.0049 0.38856 0.0
C674 C 0.22085 0.02506 0.38762 0.0
C675 C 0.17763 1.00794 0.37453 0.0
C676 C 0.19339 0.04974 0.35689 0.0
C677 C 0.1736 0.03033 0.35872 0.0
N678 N 0.23647 0.06505 0.37013 0.0
C679 C 0.23517 0.08503 0.35205 0.0
C680 C 0.19107 0.07136 0.33974 0.0
C681 C 0.21227 0.08888 0.33702 0.0
Gd682 Gd 0.31838 1.00716 0.40706 0.0
Gd683 Gd 0.27287 0.05995 0.39842 0.0
N684 N 0.24448 1.02251 0.40038 0.0
C685 C 0.20702 0.98186 0.40281 0.0
C686 C 0.25036 0.99939 0.41293 0.0
C687 C 0.23175 0.97894 0.4147 0.0
H688 H 0.26953 0.99615 0.42094 0.0
H689 H 0.23667 0.96077 0.42495 0.0
H690 H 0.37961 1.01627 0.37835 0.0
H691 H 0.25197 0.09783 0.34914 0.0
H692 H 0.42534 1.02134 0.39331 0.0
H693 H 0.19274 0.96588 0.40399 0.0
H694 H 0.16251 0.99272 0.37518 0.0
H695 H 0.29269 0.95885 0.44421 0.0
H696 H 0.17346 0.07411 0.32782 0.0
H697 H 0.21116 0.10507 0.32309 0.0
H698 H 0.42359 0.99232 0.4829 0.0
H699 H 0.15545 0.03209 0.34743 0.0
H700 H 0.34731 0.94231 0.50679 0.0
H701 H 0.30579 0.932 0.48296 0.0
N702 N 0.32722 0.9829 0.44551 0.0
C703 C 0.35178 0.98613 0.456 0.0
C704 C 0.31116 0.96293 0.45423 0.0
C705 C 0.34198 0.95369 0.48949 0.0
C706 C 0.31854 0.94776 0.47607 0.0
C707 C 0.35927 0.97265 0.47914 0.0
H708 H 0.39058 0.96693 0.50783 0.0
N709 N 0.36435 1.00659 0.41616 0.0
C710 C 0.37081 0.99907 0.44109 0.0
C711 C 0.41667 1.01023 0.43327 0.0
C712 C 0.39717 1.00067 0.45028 0.0
C713 C 0.38389 1.01317 0.39876 0.0
C714 C 0.41012 1.01567 0.40715 0.0
O715 O 0.27735 0.04493 0.35412 0.0
O716 O 0.30526 1.00935 0.35939 0.0
O717 O 0.33678 0.96938 0.40365 0.0
O718 O 0.2972 0.97492 0.38678 0.0
O719 O 0.26818 0.04894 0.44591 0.0
O720 O 0.29737 1.01449 0.45065 0.0
O721 O 0.34006 0.04586 0.4173 0.0
O722 O 0.30171 0.06167 0.43118 0.0
O723 O 0.24421 0.091 0.40845 0.0
O724 O 0.2848 0.10074 0.39839 0.0
O725 O 0.33653 0.03261 0.37599 0.0
O726 O 0.31032 0.07013 0.37412 0.0
C727 C 0.2904 0.02485 0.34256 0.0
C728 C 0.27982 0.03102 0.4627 0.0
C729 C 0.32817 0.94489 0.36628 0.0
C730 C 0.36681 0.9349 0.33962 0.0
C731 C 0.33036 0.90364 0.34168 0.0
C732 C 0.31688 0.92058 0.35894 0.0
C733 C 0.35541 0.91059 0.3323 0.0
C734 C 0.3528 0.95236 0.35572 0.0
C735 C 0.31796 0.95923 0.38927 0.0
C736 C 0.40359 0.99078 0.47532 0.0
C737 C 0.38474 0.97644 0.4896 0.0
H738 H 0.43711 1.01178 0.43958 0.0
C739 C 0.32692 0.06495 0.42885 0.0
C740 C 0.33175 0.05662 0.36711 0.0
C741 C 0.25318 0.134 0.39053 0.0
C742 C 0.23159 0.17614 0.39748 0.0
C743 C 0.26344 0.17144 0.36222 0.0
C744 C 0.26801 0.14518 0.36989 0.0
C745 C 0.24573 0.18722 0.37645 0.0
C746 C 0.2335 0.14896 0.40249 0.0
C747 C 0.26146 0.10973 0.40415 0.0
H748 H 0.32186 0.88464 0.33642 0.0
H749 H 0.29833 0.91417 0.36748 0.0
H750 H 0.36615 0.89679 0.31987 0.0
H751 H 0.36199 0.97092 0.3615 0.0
H752 H 0.275 0.18008 0.34651 0.0
H753 H 0.28369 0.13404 0.36039 0.0
H754 H 0.24437 0.20823 0.37216 0.0
H755 H 0.22213 0.14028 0.41841 0.0
C756 C 0.33074 0.04617 0.68402 0.0
C757 C 0.34524 1.00326 0.6684 0.0
C758 C 0.32636 0.02398 0.66872 0.0
C759 C 0.36893 1.00593 0.68273 0.0
C760 C 0.35387 0.04848 0.6995 0.0
C761 C 0.37324 0.02852 0.69828 0.0
N762 N 0.31141 0.06467 0.68526 0.0
C763 C 0.31298 0.08515 0.70278 0.0
C764 C 0.35635 0.07033 0.71642 0.0
C765 C 0.33558 0.08856 0.71836 0.0
Gd766 Gd 0.23259 1.00481 0.64718 0.0
Gd767 Gd 0.2752 0.06006 0.65675 0.0
N768 N 0.30281 1.0218 0.6558 0.0
C769 C 0.33931 0.98005 0.65451 0.0
C770 C 0.29648 0.9985 0.6438 0.0
C771 C 0.31461 0.97751 0.64252 0.0
H772 H 0.27727 0.99547 0.63612 0.0
H773 H 0.3093 0.95918 0.6327 0.0
H774 H 0.16888 1.0115 0.66981 0.0
H775 H 0.29652 0.09857 0.70494 0.0
H776 H 0.12446 1.01606 0.65048 0.0
H777 H 0.35319 0.96364 0.6538 0.0
H778 H 0.38368 0.99028 0.68255 0.0
H779 H 0.2627 0.95718 0.61132 0.0
H780 H 0.37378 0.07282 0.72866 0.0
H781 H 0.33684 0.10505 0.732 0.0
H782 H 0.13654 0.99201 0.56014 0.0
H783 H 0.39123 0.03 0.70985 0.0
H784 H 0.21585 0.94395 0.54209 0.0
H785 H 0.25447 0.93248 0.56988 0.0
N786 N 0.22865 0.98172 0.6071 0.0
C787 C 0.20518 0.98521 0.59427 0.0
C788 C 0.24556 0.9619 0.59946 0.0
C789 C 0.21908 0.95449 0.56044 0.0
C790 C 0.24092 0.94794 0.57607 0.0
C791 C 0.20044 0.97278 0.56982 0.0
H792 H 0.17252 0.96819 0.53768 0.0
N793 N 0.18795 1.00418 0.63337 0.0
C794 C 0.1844 0.9975 0.60759 0.0
C795 C 0.13768 1.00748 0.6111 0.0
C796 C 0.15914 0.99914 0.59576 0.0
C797 C 0.16655 1.00929 0.649 0.0
C798 C 0.14125 1.01159 0.63805 0.0
O799 O 0.26926 0.0469 0.7014 0.0
O800 O 0.2483 1.00699 0.69455 0.0
O801 O 0.21154 0.96842 0.64883 0.0
O802 O 0.2505 0.9703 0.66728 0.0
O803 O 0.27968 0.05026 0.60912 0.0
O804 O 0.25335 1.01389 0.6041 0.0
O805 O 0.20857 0.04271 0.6386 0.0
O806 O 0.2454 0.06145 0.6247 0.0
O807 O 0.30395 0.08921 0.64319 0.0
O808 O 0.26628 0.102 0.65947 0.0
O809 O 0.21305 0.02831 0.67876 0.0
O810 O 0.2367 0.06763 0.68088 0.0
C811 C 0.25957 0.02468 0.71228 0.0
C812 C 0.26931 0.03177 0.59225 0.0
C813 C 0.2175 0.94003 0.68396 0.0
C814 C 0.17677 0.92759 0.70609 0.0
C815 C 0.21307 0.89615 0.70306 0.0
C816 C 0.22804 0.91482 0.68924 0.0
C817 C 0.18729 0.9023 0.71103 0.0
C818 C 0.19222 0.94666 0.69355 0.0
C819 C 0.22913 0.95611 0.66292 0.0
C820 C 0.15565 0.99035 0.56973 0.0
C821 C 0.17619 0.97687 0.55688 0.0
H822 H 0.11798 1.00894 0.60275 0.0
C823 C 0.22017 0.06331 0.62811 0.0
C824 C 0.21635 0.05245 0.68807 0.0
C825 C 0.30003 0.13475 0.6558 0.0
C826 C 0.3231 0.17391 0.64025 0.0
C827 C 0.3036 0.1736 0.68391 0.0
C828 C 0.29392 0.14802 0.67939 0.0
C829 C 0.3181 0.18658 0.66442 0.0
C830 C 0.31479 0.14772 0.63649 0.0
C831 C 0.28844 0.1091 0.64864 0.0
H832 H 0.22098 0.87648 0.7065 0.0
H833 H 0.24714 0.90909 0.68137 0.0
H834 H 0.17538 0.88722 0.7205 0.0
H835 H 0.18359 0.96591 0.68926 0.0
H836 H 0.29907 0.18373 0.70217 0.0
H837 H 0.28122 0.13907 0.69399 0.0
H838 H 0.32471 0.20674 0.66787 0.0
H839 H 0.3182 0.13804 0.61769 0.0
C840 C 0.26968 0.07864 0.94142 0.0
C841 C 0.31125 0.09038 0.92114 0.0
C842 C 0.28836 0.07418 0.9221 0.0
C843 C 0.31496 0.11065 0.93981 0.0
C844 C 0.27341 0.09898 0.96037 0.0
C845 C 0.29607 0.11494 0.95938 0.0
N846 N 0.24792 0.06302 0.9419 0.0
C847 C 0.22925 0.06659 0.96126 0.0
C848 C 0.25427 0.10272 0.97985 0.0
C849 C 0.23214 0.08635 0.98035 0.0
Gd850 Gd 0.29261 0.98414 0.8974 0.0
Gd851 Gd 0.24295 0.03114 0.90763 0.0
N852 N 0.28414 0.0544 0.90414 0.0
C853 C 0.32973 0.08602 0.90126 0.0
C854 C 0.30212 0.05086 0.88445 0.0
C855 C 0.32508 0.06621 0.8828 0.0
H856 H 0.29953 0.03608 0.87012 0.0
H857 H 0.33918 0.06275 0.86714 0.0
H858 H 0.28629 0.92283 0.92715 0.0
H859 H 0.21233 0.05366 0.96276 0.0
H860 H 0.28196 0.87684 0.91197 0.0
H861 H 0.34749 0.09797 0.89986 0.0
H862 H 0.33236 0.12319 0.93923 0.0
H863 H 0.33466 1.0141 0.85401 0.0
H864 H 0.25651 0.11799 0.99474 0.0
H865 H 0.21734 0.08882 0.99555 0.0
H866 H 0.30584 0.87999 0.82068 0.0
H867 H 0.29917 0.13066 0.97367 0.0
H868 H 0.34239 0.96129 0.78829 0.0
H869 H 0.35143 1.00476 0.80922 0.0
N870 N 0.31532 0.97678 0.85765 0.0
C871 C 0.31278 0.95182 0.84779 0.0
C872 C 0.33065 0.99513 0.84499 0.0
C873 C 0.33506 0.96528 0.80794 0.0
C874 C 0.34021 0.98986 0.81969 0.0
C875 C 0.32185 0.94563 0.82228 0.0
H876 H 0.32456 0.91488 0.79251 0.0
N877 N 0.29664 0.93812 0.88946 0.0
C878 C 0.30294 0.93197 0.86407 0.0
C879 C 0.29261 0.88584 0.87195 0.0
C880 C 0.30092 0.90569 0.85463 0.0
C881 C 0.28999 0.91849 0.90675 0.0
C882 C 0.2877 0.89219 0.89824 0.0
O883 O 0.2552 1.02057 0.95189 0.0
O884 O 0.28959 0.99173 0.94612 0.0
O885 O 0.33309 0.97169 0.89888 0.0
O886 O 0.32155 1.00965 0.91709 0.0
O887 O 0.24917 0.03337 0.85939 0.0
O888 O 0.27893 0.99982 0.85389 0.0
O889 O 0.25647 0.96348 0.88243 0.0
O890 O 0.22805 0.99909 0.88028 0.0
O891 O 0.21726 0.06428 0.89415 0.0
O892 O 0.2034 0.03438 0.92119 0.0
O893 O 0.26638 0.96511 0.92695 0.0
O894 O 0.2291 0.99166 0.92572 0.0
C895 C 0.27407 1.00594 0.96336 0.0
C896 C 0.26301 1.01782 0.84214 0.0
C897 C 0.34934 0.97914 0.94083 0.0
C898 C 0.3534 0.94039 0.96949 0.0
C899 C 0.37769 0.98096 0.97928 0.0
C900 C 0.36712 0.99311 0.95681 0.0
C901 C 0.37103 0.95472 0.98553 0.0
C902 C 0.3421 0.95305 0.94785 0.0
C903 C 0.33919 0.99022 0.91589 0.0
C904 C 0.30777 0.89996 0.82842 0.0
C905 C 0.31836 0.91985 0.81233 0.0
H906 H 0.29066 0.86544 0.86541 0.0
C907 C 0.23403 0.97418 0.87504 0.0
C908 C 0.24161 0.9698 0.93315 0.0
C909 C 0.17015 0.06032 0.90378 0.0
C910 C 0.13253 0.06529 0.87471 0.0
C911 C 0.12574 0.06205 0.92189 0.0
C912 C 0.1529 0.05994 0.92547 0.0
C913 C 0.11556 0.06482 0.89667 0.0
C914 C 0.16003 0.0631 0.8783 0.0
C915 C 0.19817 0.05645 0.90948 0.0
H916 H 0.39162 0.99167 0.99154 0.0
H917 H 0.37306 1.0131 0.95174 0.0
H918 H 0.3803 0.94535 1.00235 0.0
H919 H 0.32826 0.94204 0.93593 0.0
H920 H 0.11259 0.06186 0.93869 0.0
H921 H 0.16052 0.05781 0.94533 0.0
H922 H 0.09438 0.0675 0.89445 0.0
H923 H 0.17326 0.06356 0.86153 0.0
C924 C 0.29604 0.07899 0.11798 0.0
C925 C 0.25393 0.09437 0.1345 0.0
C926 C 0.2748 0.07564 0.13457 0.0
C927 C 0.25526 0.11663 0.11789 0.0
C928 C 0.29708 0.10069 0.1005 0.0
C929 C 0.27678 0.11975 0.10086 0.0
N930 N 0.31498 0.06004 0.11774 0.0
C931 C 0.33489 0.06073 0.09966 0.0
C932 C 0.31806 0.10206 0.0826 0.0
C933 C 0.33694 0.08184 0.08201 0.0
Gd934 Gd 0.25788 0.98045 0.15861 0.0
Gd935 Gd 0.31158 0.02502 0.14778 0.0
N936 N 0.27386 0.05337 0.14968 0.0
C937 C 0.23201 0.08981 0.15055 0.0
C938 C 0.25199 0.0486 0.16453 0.0
C939 C 0.23095 0.06667 0.16545 0.0
H940 H 0.24996 0.03049 0.1748 0.0
H941 H 0.2137 0.06246 0.17735 0.0
H942 H 0.26171 0.91823 0.13147 0.0
H943 H 0.34866 0.04447 0.0984 0.0
H944 H 0.26434 0.87245 0.14795 0.0
H945 H 0.21555 0.10363 0.15104 0.0
H946 H 0.23944 0.13119 0.11763 0.0
H947 H 0.21373 1.01217 0.19859 0.0
H948 H 0.31941 0.11813 0.06864 0.0
H949 H 0.3528 0.08227 0.06773 0.0
H950 H 0.24076 0.87997 0.23912 0.0
H951 H 0.27728 0.13663 0.08768 0.0
H952 H 0.20257 0.96266 0.26621 0.0
H953 H 0.19358 1.00453 0.24239 0.0
N954 N 0.23461 0.97539 0.19848 0.0
C955 C 0.23678 0.95096 0.20957 0.0
C956 C 0.21743 0.99374 0.20883 0.0
C957 C 0.21132 0.96586 0.24702 0.0
C958 C 0.20614 0.98952 0.23361 0.0
C959 C 0.22603 0.94583 0.23462 0.0
H960 H 0.22135 0.9163 0.26522 0.0
N961 N 0.25342 0.93516 0.16892 0.0
C962 C 0.24687 0.93027 0.19442 0.0
C963 C 0.25502 0.88342 0.1879 0.0
C964 C 0.24762 0.90426 0.20463 0.0
C965 C 0.25848 0.91464 0.15203 0.0
C966 C 0.25977 0.88857 0.16132 0.0
O967 O 0.29757 1.01794 0.10366 0.0
O968 O 0.26052 0.99238 0.11028 0.0
O969 O 0.21875 0.96497 0.15483 0.0
O970 O 0.22774 1.00425 0.13853 0.0
O971 O 0.30215 0.02933 0.19598 0.0
O972 O 0.26777 1.00042 0.20214 0.0
O973 O 0.29547 0.95602 0.16787 0.0
O974 O 0.30979 0.9951 0.17868 0.0
O975 O 0.34247 0.05315 0.15901 0.0
O976 O 0.35238 1.01323 0.14599 0.0
O977 O 0.28343 0.96057 0.12869 0.0
O978 O 0.3205 0.98713 0.12359 0.0
C979 C 0.27692 1.00541 0.0927 0.0
C980 C 0.28484 1.01776 0.21349 0.0
C981 C 0.19807 0.9754 0.11544 0.0
C982 C 0.18984 0.93885 0.08523 0.0
C983 C 0.16217 0.97825 0.08381 0.0
C984 C 0.17669 0.98938 0.10457 0.0
C985 C 0.16849 0.95291 0.07434 0.0
C986 C 0.20502 0.95048 0.10503 0.0
C987 C 0.21074 0.98447 0.13988 0.0
C988 C 0.23977 0.89972 0.23075 0.0
C989 C 0.2288 0.92044 0.24567 0.0
H990 H 0.25593 0.86317 0.195 0.0
C991 C 0.31505 0.9703 0.17674 0.0
C992 C 0.30679 0.96531 0.11827 0.0
C993 C 0.38607 0.04521 0.14271 0.0
C994 C 0.42678 0.06887 0.15136 0.0
C995 C 0.42258 0.04213 0.11182 0.0
C996 C 0.39708 0.03468 0.1195 0.0
C997 C 0.43756 0.05905 0.12781 0.0
C998 C 0.40099 0.06208 0.15837 0.0
C999 C 0.36117 0.03602 0.15394 0.0
H1000 H 0.14542 0.98888 0.07566 0.0
H1001 H 0.17078 1.00841 0.11263 0.0
H1002 H 0.1563 0.94397 0.05916 0.0
H1003 H 0.22129 0.93926 0.1134 0.0
H1004 H 0.43107 0.03406 0.09396 0.0
H1005 H 0.3864 1.0203 0.10772 0.0
H1006 H 0.45768 0.06384 0.12224 0.0
H1007 H 0.39309 0.06833 0.17726 0.0
C1008 C 0.36883 0.20398 0.03279 0.0
C1009 C 0.38561 0.19542 0.98907 0.0
C1010 C 0.38469 0.21134 1.01199 0.0
C1011 C 0.37083 0.17184 0.98778 0.0
C1012 C 0.3527 0.18116 0.03097 0.0
C1013 C 0.3542 0.16485 1.00861 0.0
N1014 N 0.36764 0.22025 0.05399 0.0
C1015 C 0.34964 0.21539 0.0736 0.0
C1016 C 0.33473 0.17595 0.05119 0.0
C1017 C 0.33309 0.19324 0.07252 0.0
Gd1018 Gd 0.39846 0.30839 1.00467 0.0
Gd1019 Gd 0.39611 0.25759 0.05418 0.0
N1020 N 0.39782 0.23487 1.01344 0.0
C1021 C 0.40066 0.20412 0.96777 0.0
C1022 C 0.41098 0.24404 0.9921 0.0
C1023 C 0.41313 0.22873 0.96916 0.0
H1024 H 0.41932 0.26327 0.99271 0.0
H1025 H 0.42406 0.23599 0.95238 0.0
H1026 H 0.37433 0.36948 1.02134 0.0
H1027 H 0.34693 0.22905 0.08974 0.0
H1028 H 0.39172 0.41491 0.02632 0.0
H1029 H 0.40203 0.19244 0.94988 0.0
H1030 H 0.37143 0.15935 0.97039 0.0
H1031 H 0.43959 0.27919 0.95842 0.0
H1032 H 0.32138 0.15924 0.05 0.0
H1033 H 0.31874 0.1898 0.08794 0.0
H1034 H 0.48036 0.40961 0.99344 0.0
H1035 H 0.34217 0.14712 1.007 0.0
H1036 H 0.5066 0.32973 0.94978 0.0
H1037 H 0.48337 0.2878 0.93964 0.0
N1038 N 0.43835 0.31505 0.98092 0.0
C1039 C 0.44946 0.33948 0.98427 0.0
C1040 C 0.44941 0.29741 0.96346 0.0
C1041 C 0.48728 0.32602 0.95826 0.0
C1042 C 0.47427 0.30232 0.95252 0.0
C1043 C 0.47461 0.34527 0.97362 0.0
H1044 H 0.50546 0.3749 0.97031 0.0
N1045 N 0.41029 0.35371 1.00596 0.0
C1046 C 0.43515 0.35921 0.99724 0.0
C1047 C 0.43022 0.40495 1.01108 0.0
C1048 C 0.44588 0.38494 0.99997 0.0
C1049 C 0.39436 0.37364 1.01533 0.0
C1050 C 0.40418 0.39939 1.01829 0.0
O1051 O 0.35054 0.26197 0.04299 0.0
O1052 O 0.3542 0.28681 1.00554 0.0
O1053 O 0.3754 0.33342 0.9803 0.0
O1054 O 0.39201 0.29736 0.96312 0.0
O1055 O 0.44241 0.25736 0.04166 0.0
O1056 O 0.44395 0.29417 1.01555 0.0
O1057 O 0.40827 0.32977 0.04211 0.0
O1058 O 0.41995 0.29393 0.06742 0.0
O1059 O 0.41855 0.23049 0.07966 0.0
O1060 O 0.38581 0.25294 0.09479 0.0
O1061 O 0.36701 0.32174 0.0327 0.0
O1062 O 0.3705 0.29186 0.06676 0.0
C1063 C 0.33812 0.27332 1.02262 0.0
C1064 C 0.45758 0.27494 0.02841 0.0
C1065 C 0.38785 0.33721 0.93645 0.0
C1066 C 0.38442 0.38067 0.91542 0.0
C1067 C 0.40341 0.34327 0.89174 0.0
C1068 C 0.39932 0.32679 0.91353 0.0
C1069 C 0.39556 0.36996 0.89243 0.0
C1070 C 0.38104 0.36435 0.93727 0.0
C1071 C 0.38011 0.32021 0.95881 0.0
C1072 C 0.47163 0.39011 0.99101 0.0
C1073 C 0.48595 0.37034 0.97786 0.0
H1074 H 0.43779 0.42492 1.01351 0.0
C1075 C 0.41867 0.31976 0.06342 0.0
C1076 C 0.36006 0.31316 0.056 0.0
C1077 C 0.42202 0.24994 0.12214 0.0
C1078 C 0.44782 0.24403 0.16153 0.0
C1079 C 0.43569 0.28828 0.14826 0.0
C1080 C 0.42205 0.27751 0.12691 0.0
C1081 C 0.44856 0.27148 0.16575 0.0
C1082 C 0.43509 0.23322 0.13956 0.0
C1083 C 0.4062 0.23871 0.10062 0.0
H1084 H 0.41184 0.33511 0.87398 0.0
H1085 H 0.4045 0.30595 0.91224 0.0
H1086 H 0.39751 0.38192 0.87488 0.0
H1087 H 0.37121 0.37268 0.95437 0.0
H1088 H 0.43553 0.30948 0.15173 0.0
H1089 H 0.4106 0.29055 0.11474 0.0
H1090 H 0.45833 0.27972 0.18293 0.0
H1091 H 0.43434 0.21187 0.13677 0.0
C1092 C 0.09177 0.94816 0.2633 0.0
C1093 C 0.11323 0.93109 0.30242 0.0
C1094 C 0.09281 0.92966 0.28352 0.0
C1095 C 0.13263 0.951 0.3004 0.0
C1096 C 0.11065 0.96866 0.26161 0.0
C1097 C 0.1313 0.96978 0.2801 0.0
N1098 N 0.07176 0.94652 0.24564 0.0
C1099 C 0.06911 0.96461 0.22579 0.0
C1100 C 0.10809 0.98748 0.24145 0.0
C1101 C 0.08708 0.98555 0.22358 0.0
Gd1102 Gd 0.98571 0.90337 0.29818 0.0
Gd1103 Gd 0.04443 0.90955 0.24902 0.0
N1104 N 0.07365 0.91065 0.28496 0.0
C1105 C 0.11344 0.91255 0.32288 0.0
C1106 C 0.07332 0.89307 0.30529 0.0
C1107 C 0.09328 0.89363 0.32444 0.0
H1108 H 0.05784 0.87857 0.30689 0.0
H1109 H 0.09315 0.87943 0.34039 0.0
H1110 H 0.93596 0.94767 0.28718 0.0
H1111 H 0.05312 0.96264 0.21172 0.0
H1112 H 0.88744 0.94621 0.28156 0.0
H1113 H 0.12886 0.91287 0.33773 0.0
H1114 H 0.14859 0.95224 0.31464 0.0
H1115 H 1.00025 0.8515 0.33914 0.0
H1116 H 0.12215 1.00358 0.23956 0.0
H1117 H 0.08494 0.99995 0.20793 0.0
H1118 H 0.86364 0.85741 0.30594 0.0
H1119 H 0.1462 0.98518 0.27899 0.0
H1120 H 0.93119 0.80278 0.34398 0.0
H1121 H 0.9784 0.81059 0.35431 0.0
N1122 N 0.96621 0.86597 0.31866 0.0
C1123 C 0.93978 0.86314 0.31482 0.0
C1124 C 0.97973 0.84808 0.33401 0.0
C1125 C 0.94075 0.82068 0.33701 0.0
C1126 C 0.96738 0.82498 0.34288 0.0
C1127 C 0.92641 0.84019 0.32349 0.0
H1128 H 0.8885 0.82026 0.32539 0.0
N1129 N 0.93913 0.90693 0.29788 0.0
C1130 C 0.92579 0.8843 0.30416 0.0
C1131 C 0.88428 0.9051 0.29262 0.0
C1132 C 0.89805 0.88271 0.30146 0.0
C1133 C 0.9256 0.92928 0.29075 0.0
C1134 C 0.89805 0.92861 0.28773 0.0
O1135 O 0.03535 0.95387 0.26541 0.0
O1136 O 0.99669 0.95116 0.29034 0.0
O1137 O 0.97393 0.90274 0.33837 0.0
O1138 O 1.00885 0.92542 0.32798 0.0
O1139 O 0.04223 0.86258 0.26175 0.0
O1140 O 1.00938 0.86118 0.29343 0.0
O1141 O 0.96864 0.87813 0.26543 0.0
O1142 O 1.00636 0.89191 0.25556 0.0
O1143 O 0.07652 0.89238 0.2258 0.0
O1144 O 0.04152 0.90698 0.20657 0.0
O1145 O 0.97361 0.92983 0.26353 0.0
O1146 O 1.00884 0.93139 0.23308 0.0
C1147 C 1.01604 0.96675 0.2789 0.0
C1148 C 0.02694 0.84771 0.27831 0.0
C1149 C 0.97674 0.94338 0.35903 0.0
C1150 C 0.93479 0.96435 0.37185 0.0
C1151 C 0.97664 0.98043 0.38959 0.0
C1152 C 0.99052 0.96105 0.37534 0.0
C1153 C 0.94898 0.98215 0.38784 0.0
C1154 C 0.94881 0.94543 0.35736 0.0
C1155 C 0.99035 0.92099 0.3457 0.0
C1156 C 0.88489 0.85914 0.30831 0.0
C1157 C 0.89904 0.83794 0.31934 0.0
H1158 H 0.86297 0.90466 0.29023 0.0
C1159 C 0.98621 0.87809 0.24726 0.0
C1160 C 0.98437 0.93695 0.24074 0.0
C1161 C 0.08044 0.90692 0.18134 0.0
C1162 C 0.09331 0.90178 0.13545 0.0
C1163 C 0.11478 0.93489 0.16284 0.0
C1164 C 0.10019 0.92623 0.18454 0.0
C1165 C 0.11157 0.92256 0.13837 0.0
C1166 C 0.07641 0.8956 0.15649 0.0
C1167 C 0.06474 0.89666 0.20345 0.0
H1168 H 0.98734 0.99403 0.40223 0.0
H1169 H 1.01182 0.9596 0.37737 0.0
H1170 H 0.93864 0.9972 0.39914 0.0
H1171 H 0.93758 0.93209 0.34497 0.0
H1172 H 0.12972 0.95007 0.16534 0.0
H1173 H 0.10491 0.93408 0.20375 0.0
H1174 H 0.12477 0.92783 0.12243 0.0
H1175 H 0.06166 0.88012 0.15414 0.0
C1176 C 0.18693 0.82726 0.54655 0.0
C1177 C 0.17006 0.84332 0.50503 0.0
C1178 C 0.1701 0.82421 0.52539 0.0
C1179 C 0.18616 0.86596 0.5071 0.0
C1180 C 0.20425 0.84922 0.54809 0.0
C1181 C 0.20328 0.86889 0.5286 0.0
N1182 N 0.18775 0.80771 0.56469 0.0
C1183 C 0.2065 0.80801 0.58405 0.0
C1184 C 0.22266 0.85026 0.56869 0.0
C1185 C 0.22408 0.82928 0.58652 0.0
Gd1186 Gd 0.14957 0.7333 0.5051 0.0
Gd1187 Gd 0.15536 0.77421 0.56207 0.0
N1188 N 0.15537 0.80161 0.52374 0.0
C1189 C 0.15465 0.83861 0.48268 0.0
C1190 C 0.14202 0.79637 0.50107 0.0
C1191 C 0.14097 0.81475 0.48049 0.0
H1192 H 0.13299 0.77786 0.49817 0.0
H1193 H 0.12995 0.81027 0.46273 0.0
H1194 H 0.17668 0.67116 0.51266 0.0
H1195 H 0.20844 0.79126 0.59691 0.0
H1196 H 0.16072 0.62544 0.51567 0.0
H1197 H 0.15408 0.8527 0.4666 0.0
H1198 H 0.18615 0.88088 0.49177 0.0
H1199 H 0.10569 0.76553 0.4635 0.0
H1200 H 0.23639 0.86669 0.57048 0.0
H1201 H 0.23886 0.82933 0.60197 0.0
H1202 H 0.07143 0.63013 0.48458 0.0
H1203 H 0.21621 0.88602 0.52958 0.0
H1204 H 0.04276 0.7117 0.44649 0.0
H1205 H 0.06386 0.75543 0.44088 0.0
N1206 N 0.10922 0.72726 0.48137 0.0
C1207 C 0.0992 0.70215 0.48232 0.0
C1208 C 0.09723 0.74599 0.46564 0.0
C1209 C 0.06148 0.71575 0.45612 0.0
C1210 C 0.0733 0.74048 0.45296 0.0
C1211 C 0.07459 0.69607 0.4705 0.0
H1212 H 0.04522 0.66546 0.46385 0.0
N1213 N 0.13923 0.68757 0.50222 0.0
C1214 C 0.11443 0.68191 0.49329 0.0
C1215 C 0.12129 0.63532 0.50285 0.0
C1216 C 0.10477 0.65559 0.49363 0.0
C1217 C 0.15619 0.66737 0.50869 0.0
C1218 C 0.14733 0.64115 0.50978 0.0
O1219 O 0.20008 0.76393 0.55204 0.0
O1220 O 0.19454 0.75261 0.509 0.0
O1221 O 0.17302 0.71299 0.47659 0.0
O1222 O 0.15224 0.7487 0.46458 0.0
O1223 O 0.10818 0.77842 0.55066 0.0
O1224 O 0.10494 0.74974 0.51591 0.0
O1225 O 0.13246 0.70985 0.53826 0.0
O1226 O 0.12432 0.74323 0.56821 0.0
O1227 O 0.14455 0.80554 0.59042 0.0
O1228 O 0.15712 0.76681 0.60362 0.0
O1229 O 0.17932 0.71346 0.53171 0.0
O1230 O 0.1733 0.73356 0.57191 0.0
C1231 C 0.2117 0.75827 0.52912 0.0
C1232 C 0.09217 0.76608 0.53278 0.0
C1233 C 0.1492 0.70939 0.43744 0.0
C1234 C 0.1426 0.66476 0.41984 0.0
C1235 C 0.1184 0.7019 0.40139 0.0
C1236 C 0.1313 0.71937 0.41874 0.0
C1237 C 0.12462 0.67475 0.40131 0.0
C1238 C 0.15356 0.68191 0.43841 0.0
C1239 C 0.16307 0.72629 0.457 0.0
C1240 C 0.07931 0.65012 0.48402 0.0
C1241 C 0.06435 0.67026 0.47228 0.0
H1242 H 0.11451 0.61493 0.50356 0.0
C1243 C 0.12144 0.71883 0.55978 0.0
C1244 C 0.18228 0.71375 0.55737 0.0
C1245 C 0.16072 0.80113 0.63491 0.0
C1246 C 0.15176 0.82439 0.67594 0.0
C1247 C 0.19347 0.80132 0.67013 0.0
C1248 C 0.18498 0.7923 0.64548 0.0
C1249 C 0.17696 0.81739 0.68537 0.0
C1250 C 0.14434 0.81705 0.6503 0.0
C1251 C 0.1493 0.79023 0.61052 0.0
H1252 H 0.10438 0.70957 0.38726 0.0
H1253 H 0.12719 0.74044 0.41762 0.0
H1254 H 0.11674 0.66202 0.38598 0.0
H1255 H 0.16809 0.67376 0.45194 0.0
H1256 H 0.21237 0.79487 0.67791 0.0
H1257 H 0.19694 0.7777 0.63542 0.0
H1258 H 0.18345 0.82353 0.70478 0.0
H1259 H 0.12473 0.8219 0.64297 0.0
C1260 C 0.9454 0.69827 0.82982 0.0
C1261 C 0.89944 0.68566 0.82339 0.0
C1262 C 0.92674 0.67985 0.82107 0.0
C1263 C 0.89127 0.71017 0.83382 0.0
C1264 C 0.93707 0.72187 0.84238 0.0
C1265 C 0.91002 0.72813 0.84349 0.0
N1266 N 0.9716 0.69212 0.82809 0.0
C1267 C 0.99006 0.70683 0.8413 0.0
C1268 C 0.95609 0.73785 0.85466 0.0
C1269 C 0.98251 0.72972 0.85501 0.0
Gd1270 Gd 1.02336 0.64444 0.73945 0.0
Gd1271 Gd 0.98211 0.65396 0.80354 0.0
N1272 N 0.93526 0.65607 0.81108 0.0
C1273 C 0.88102 0.66651 0.81568 0.0
C1274 C 0.91693 0.63682 0.80501 0.0
C1275 C 0.88982 0.64186 0.80694 0.0
H1276 H 0.92245 0.61715 0.79874 0.0
H1277 H 0.87568 0.62659 0.80173 0.0
H1278 H 0.03994 0.67159 0.79873 0.0
H1279 H 1.01062 0.70073 0.8412 0.0
H1280 H 0.07852 0.67539 0.82759 0.0
H1281 H 0.85994 0.67028 0.81711 0.0
H1282 H 0.87042 0.71503 0.83535 0.0
H1283 H 0.035 0.59292 0.70112 0.0
H1284 H 0.95042 0.75586 0.86492 0.0
H1285 H 0.99707 0.74115 0.86575 0.0
H1286 H 0.14153 0.61527 0.78969 0.0
H1287 H 0.90333 0.74645 0.85253 0.0
H1288 H 0.11318 0.56354 0.71551 0.0
H1289 H 0.07126 0.56181 0.6902 0.0
N1290 N 0.05664 0.61305 0.73065 0.0
C1291 C 0.07915 0.61401 0.745 0.0
C1292 C 0.05359 0.59449 0.71131 0.0
C1293 C 0.09751 0.5776 0.71982 0.0
C1294 C 0.07393 0.57657 0.70549 0.0
C1295 C 0.10025 0.59627 0.7401 0.0
H1296 H 0.13944 0.58389 0.75254 0.0
N1297 N 0.05858 0.64701 0.77055 0.0
C1298 C 0.08021 0.63164 0.76568 0.0
C1299 C 0.10225 0.64868 0.80441 0.0
C1300 C 0.10261 0.63205 0.78238 0.0
C1301 C 0.05763 0.66174 0.79305 0.0
C1302 C 0.07948 0.6633 0.80997 0.0
O1303 O 0.95512 0.67549 0.7751 0.0
O1304 O 0.99001 0.66112 0.75859 0.0
O1305 O 0.04141 0.6637 0.70502 0.0
O1306 O 1.00747 0.6386 0.70098 0.0
O1307 O 0.96188 0.62326 0.77872 0.0
O1308 O 0.98344 0.62214 0.73782 0.0
O1309 O 1.02001 0.60067 0.75535 0.0
O1310 O 0.99572 0.60611 0.79414 0.0
O1311 O 0.97477 0.65344 0.84505 0.0
O1312 O 1.0085 0.63164 0.83 0.0
O1313 O 1.02341 0.69226 0.74841 0.0
O1314 O 1.00381 0.69655 0.78988 0.0
C1315 C 0.96843 0.67434 0.75386 0.0
C1316 C 0.9634 0.61619 0.75391 0.0
C1317 C 0.03446 0.64149 0.66379 0.0
C1318 C 0.06125 0.647 0.62445 0.0
C1319 C 0.03639 0.60635 0.63091 0.0
C1320 C 0.02622 0.61648 0.65439 0.0
C1321 C 0.05418 0.62132 0.61616 0.0
C1322 C 0.05073 0.65704 0.64805 0.0
C1323 C 0.02465 0.65276 0.68874 0.0
C1324 C 0.12416 0.61515 0.77713 0.0
C1325 C 0.12297 0.59726 0.75602 0.0
H1326 H 0.119 0.64959 0.81775 0.0
C1327 C 1.00858 0.5893 0.77634 0.0
C1328 C 1.01507 0.70861 0.76832 0.0
C1329 C 0.97949 0.61229 0.86262 0.0
C1330 C 0.93556 0.59266 0.86794 0.0
C1331 C 0.96643 0.59398 0.90475 0.0
C1332 C 0.98512 0.60698 0.8891 0.0
C1333 C 0.94148 0.58765 0.89449 0.0
C1334 C 0.95547 0.60297 0.85173 0.0
C1335 C 0.99216 0.63523 0.84982 0.0
H1336 H 0.03037 0.58691 0.62406 0.0
H1337 H 1.01185 0.60475 0.66498 0.0
H1338 H 0.06207 0.61295 0.59815 0.0
H1339 H 0.05449 0.67734 0.65405 0.0
H1340 H 0.97061 0.59047 0.92536 0.0
H1341 H 1.00303 0.61457 0.89812 0.0
H1342 H 0.92654 0.57951 0.90744 0.0
H1343 H 0.95114 0.60696 0.83138 0.0
C1344 C 0.10392 0.20622 0.56005 0.0
C1345 C 0.1065 0.16171 0.54174 0.0
C1346 C 0.11676 0.18764 0.54427 0.0
C1347 C 0.08262 0.15512 0.55422 0.0
C1348 C 0.08089 0.19904 0.57401 0.0
C1349 C 0.06986 0.17373 0.57033 0.0
N1350 N 0.11482 0.23074 0.56306 0.0
C1351 C 0.10612 0.24722 0.58272 0.0
C1352 C 0.07018 0.21714 0.59202 0.0
C1353 C 0.08329 0.24101 0.59693 0.0
Gd1354 Gd 0.15184 0.29561 0.49326 0.0
Gd1355 Gd 0.151 0.23973 0.53507 0.0
N1356 N 0.13993 0.19446 0.53253 0.0
C1357 C 0.12084 0.14295 0.52721 0.0
C1358 C 0.15454 0.1759 0.51922 0.0
C1359 C 0.14515 0.14998 0.51625 0.0
H1360 H 0.17321 0.18118 0.51047 0.0
H1361 H 0.15658 0.13549 0.50535 0.0
H1362 H 0.12461 0.29256 0.5545 0.0
H1363 H 0.11636 0.26539 0.58715 0.0
H1364 H 0.1313 0.31306 0.59784 0.0
H1365 H 0.1136 0.12285 0.52482 0.0
H1366 H 0.07425 0.13543 0.55214 0.0
H1367 H 0.19977 0.31913 0.45496 0.0
H1368 H 0.05251 0.21236 0.60309 0.0
H1369 H 0.07589 0.25458 0.61174 0.0
H1370 H 0.20517 0.37112 0.58537 0.0
H1371 H 0.05191 0.16807 0.58051 0.0
H1372 H 0.24577 0.37411 0.50039 0.0
H1373 H 0.23703 0.35097 0.45825 0.0
N1374 N 0.18784 0.3246 0.49469 0.0
C1375 C 0.19242 0.33667 0.51811 0.0
C1376 C 0.20351 0.32945 0.4733 0.0
C1377 C 0.22946 0.36022 0.499 0.0
C1378 C 0.22462 0.34723 0.47518 0.0
C1379 C 0.21337 0.35499 0.52084 0.0
H1380 H 0.23369 0.3815 0.54766 0.0
N1381 N 0.15664 0.31201 0.53644 0.0
C1382 C 0.17647 0.33024 0.53951 0.0
C1383 C 0.16459 0.3363 0.58519 0.0
C1384 C 0.18098 0.34273 0.56403 0.0
C1385 C 0.14051 0.3061 0.55697 0.0
C1386 C 0.14425 0.31796 0.58162 0.0
O1387 O 0.13514 0.22355 0.49758 0.0
O1388 O 0.12409 0.26312 0.47813 0.0
O1389 O 0.14361 0.33621 0.47923 0.0
O1390 O 0.14015 0.30272 0.45329 0.0
O1391 O 0.17539 0.22909 0.49927 0.0
O1392 O 0.17275 0.26423 0.47003 0.0
O1393 O 0.19847 0.28377 0.49754 0.0
O1394 O 0.19691 0.2558 0.53245 0.0
O1395 O 0.1744 0.21282 0.55686 0.0
O1396 O 0.16471 0.25176 0.57434 0.0
O1397 O 0.10615 0.29502 0.50851 0.0
O1398 O 0.10519 0.25559 0.53052 0.0
C1399 C 0.12399 0.23691 0.47847 0.0
C1400 C 0.18028 0.24011 0.47623 0.0
C1401 C 0.14868 0.34268 0.43239 0.0
C1402 C 0.14425 0.35034 0.38535 0.0
C1403 C 0.17846 0.37299 0.4102 0.0
C1404 C 0.16889 0.36173 0.43348 0.0
C1405 C 0.16597 0.36761 0.38616 0.0
C1406 C 0.13664 0.33707 0.40821 0.0
C1407 C 0.13865 0.32821 0.45541 0.0
C1408 C 0.20155 0.36132 0.5667 0.0
C1409 C 0.21775 0.36734 0.54521 0.0
H1410 H 0.16735 0.34551 0.6043 0.0
C1411 C 0.21228 0.26976 0.51549 0.0
C1412 C 0.09118 0.27612 0.52024 0.0
C1413 C 0.17234 0.2136 0.60282 0.0
C1414 C 0.17892 0.17188 0.6267 0.0
C1415 C 0.17334 0.21365 0.65045 0.0
C1416 C 0.17098 0.22741 0.62674 0.0
C1417 C 0.17774 0.18621 0.65042 0.0
C1418 C 0.17542 0.18572 0.6031 0.0
C1419 C 0.17538 0.22798 0.57775 0.0
H1420 H 0.19452 0.38717 0.41102 0.0
H1421 H 0.17705 0.36817 0.45208 0.0
H1422 H 0.17177 0.37857 0.36879 0.0
H1423 H 0.11963 0.32396 0.40755 0.0
H1424 H 0.17306 0.22445 0.66889 0.0
H1425 H 0.16919 0.24885 0.62709 0.0
H1426 H 0.18154 0.17681 0.66889 0.0
H1427 H 0.17709 0.17469 0.58482 0.0
C1428 C 0.50278 0.44179 0.19869 0.0
C1429 C 0.5251 0.44076 0.15642 0.0
C1430 C 0.52025 0.4295 0.18134 0.0
C1431 C 0.51294 0.46489 0.14957 0.0
C1432 C 0.48926 0.46512 0.19115 0.0
C1433 C 0.49498 0.47697 0.16684 0.0
N1434 N 0.49791 0.43017 0.22232 0.0
C1435 C 0.4772 0.43874 0.23754 0.0
C1436 C 0.46971 0.47534 0.20785 0.0
C1437 C 0.46324 0.46173 0.23085 0.0
Gd1438 Gd 0.55632 0.38757 0.29504 0.0
Gd1439 Gd 0.5245 0.39285 0.23191 0.0
N1440 N 0.53139 0.4059 0.18824 0.0
C1441 C 0.54158 0.42714 0.13884 0.0
C1442 C 0.54648 0.39195 0.17075 0.0
C1443 C 0.552 0.40246 0.14591 0.0
H1444 H 0.55434 0.37271 0.17591 0.0
H1445 H 0.56428 0.39152 0.13222 0.0
H1446 H 0.49815 0.42117 0.28912 0.0
H1447 H 0.47187 0.42818 0.25517 0.0
H1448 H 0.45988 0.43181 0.31734 0.0
H1449 H 0.54585 0.43518 0.11955 0.0
H1450 H 0.5167 0.47397 0.13063 0.0
H1451 H 0.58101 0.32885 0.3185 0.0
H1452 H 0.45882 0.49315 0.2027 0.0
H1453 H 0.44745 0.4689 0.24339 0.0
H1454 H 0.47218 0.37674 0.39342 0.0
H1455 H 0.4851 0.49511 0.16091 0.0
H1456 H 0.54371 0.31426 0.3923 0.0
H1457 H 0.57786 0.30312 0.35928 0.0
N1458 N 0.54971 0.35574 0.3286 0.0
C1459 C 0.53002 0.36117 0.34572 0.0
C1460 C 0.56622 0.33443 0.33286 0.0
C1461 C 0.54512 0.32588 0.37444 0.0
C1462 C 0.56442 0.31954 0.35591 0.0
C1463 C 0.52726 0.34651 0.36923 0.0
H1464 H 0.50443 0.34197 0.40494 0.0
N1465 N 0.51501 0.39391 0.31584 0.0
C1466 C 0.51202 0.38079 0.33911 0.0
C1467 C 0.47186 0.4051 0.34819 0.0
C1468 C 0.49056 0.38621 0.35602 0.0
C1469 C 0.49621 0.41145 0.3077 0.0
C1470 C 0.47448 0.41745 0.32374 0.0
O1471 O 0.56535 0.4108 0.22527 0.0
O1472 O 0.57966 0.41468 0.26836 0.0
O1473 O 0.57635 0.40568 0.32939 0.0
O1474 O 0.59309 0.3729 0.30806 0.0
O1475 O 0.56023 0.36832 0.22382 0.0
O1476 O 0.58051 0.3647 0.26452 0.0
O1477 O 0.53891 0.34438 0.28693 0.0
O1478 O 0.52756 0.34542 0.24368 0.0
O1479 O 0.50203 0.37283 0.20262 0.0
O1480 O 0.48476 0.37926 0.24222 0.0
O1481 O 0.54615 0.43525 0.29097 0.0
O1482 O 0.52793 0.43734 0.24974 0.0
C1483 C 0.58285 0.41885 0.24298 0.0
C1484 C 0.57954 0.36006 0.23901 0.0
C1485 C 0.62345 0.39876 0.32723 0.0
C1486 C 0.65605 0.43175 0.31572 0.0
C1487 C 0.66903 0.38545 0.32064 0.0
C1488 C 0.64335 0.37921 0.32771 0.0
C1489 C 0.67543 0.41147 0.31463 0.0
C1490 C 0.62978 0.42506 0.3214 0.0
C1491 C 0.59633 0.38939 0.32715 0.0
C1492 C 0.48829 0.37249 0.38001 0.0
C1493 C 0.50664 0.3527 0.38661 0.0
H1494 H 0.45514 0.40994 0.36065 0.0
C1495 C 0.53195 0.33055 0.26557 0.0
C1496 C 0.53639 0.45071 0.27114 0.0
C1497 C 0.45622 0.37857 0.2033 0.0
C1498 C 0.43129 0.37764 0.1618 0.0
C1499 C 0.41352 0.40052 0.20024 0.0
C1500 C 0.43575 0.39323 0.21504 0.0
C1501 C 0.41127 0.39285 0.17381 0.0
C1502 C 0.45352 0.3705 0.17683 0.0
C1503 C 0.48085 0.3714 0.21749 0.0
H1504 H 0.68414 0.37019 0.32028 0.0
H1505 H 0.63858 0.35868 0.33194 0.0
H1506 H 0.69604 0.41576 0.31079 0.0
H1507 H 0.61449 0.4402 0.32126 0.0
H1508 H 0.39787 0.412 0.20933 0.0
H1509 H 0.43689 0.39911 0.23551 0.0
H1510 H 0.39373 0.39851 0.16287 0.0
H1511 H 0.46861 0.35799 0.16805 0.0
C1512 C 0.45586 0.84768 0.07477 0.0
C1513 C 0.4493 0.89474 0.06643 0.0
C1514 C 0.43975 0.86844 0.06612 0.0
C1515 C 0.47519 0.89985 0.0752 0.0
C1516 C 0.48105 0.85307 0.08547 0.0
C1517 C 0.49095 0.87911 0.08487 0.0
N1518 N 0.44619 0.82248 0.07439 0.0
C1519 C 0.45848 0.80277 0.08834 0.0
C1520 C 0.49515 0.83227 0.09727 0.0
C1521 C 0.48348 0.80721 0.0994 0.0
Gd1522 Gd 0.39664 0.77355 0.99049 0.0
Gd1523 Gd 0.40659 0.81736 0.05058 0.0
N1524 N 0.41463 0.86293 0.05779 0.0
C1525 C 0.43252 0.91518 0.05801 0.0
C1526 C 0.39772 0.88306 0.05121 0.0
C1527 C 0.40654 0.90932 0.05069 0.0
H1528 H 0.37762 0.87906 0.0458 0.0
H1529 H 0.39317 0.92508 0.04491 0.0
H1530 H 0.423 0.7612 0.05056 0.0
H1531 H 0.44961 0.78326 0.08945 0.0
H1532 H 0.4263 0.7242 0.08183 0.0
H1533 H 0.4392 0.93561 0.05775 0.0
H1534 H 0.48297 0.91988 0.07522 0.0
H1535 H 0.34555 0.76005 0.95208 0.0
H1536 H 0.51459 0.8356 0.10569 0.0
H1537 H 0.49382 0.79128 0.10933 0.0
H1538 H 0.368 0.65811 0.04591 0.0
H1539 H 0.51053 0.88352 0.09242 0.0
H1540 H 0.31748 0.68183 0.96934 0.0
H1541 H 0.31538 0.72259 0.94222 0.0
N1542 N 0.36532 0.74007 0.98296 0.0
C1543 C 0.36629 0.71835 0.99846 0.0
C1544 C 0.34711 0.74196 0.9632 0.0
C1545 C 0.33101 0.69803 0.97331 0.0
C1546 C 0.32978 0.72097 0.95794 0.0
C1547 C 0.34919 0.69665 0.99413 0.0
H1548 H 0.33753 0.65771 1.00798 0.0
N1549 N 0.39834 0.74072 1.02368 0.0
C1550 C 0.3834 0.71866 1.0196 0.0
C1551 C 0.40013 0.69893 0.05958 0.0
C1552 C 0.38392 0.69712 0.03731 0.0
C1553 C 0.41291 0.74311 0.04614 0.0
C1554 C 0.41438 0.72221 0.0642 0.0
O1555 O 0.42359 0.84495 1.01967 0.0
O1556 O 0.41456 0.80635 1.00837 0.0
O1557 O 0.41468 0.75202 0.95817 0.0
O1558 O 0.39516 0.78975 0.95127 0.0
O1559 O 0.37587 0.83688 1.02397 0.0
O1560 O 0.37437 0.81326 0.98401 0.0
O1561 O 0.35259 0.77888 1.00482 0.0
O1562 O 0.35843 0.80519 0.04223 0.0
O1563 O 0.40394 0.82854 0.09109 0.0
O1564 O 0.3858 0.79136 0.07814 0.0
O1565 O 0.44437 0.77007 1.00133 0.0
O1566 O 0.44977 0.79692 0.03811 0.0
C1567 C 0.42467 0.82855 1.00056 0.0
C1568 C 0.36806 0.83411 0.99908 0.0
C1569 C 0.39547 0.75899 0.91641 0.0
C1570 C 0.4046 0.73474 0.87664 0.0
C1571 C 0.36314 0.75844 0.88092 0.0
C1572 C 0.37126 0.76769 0.90563 0.0
C1573 C 0.37996 0.74214 0.86619 0.0
C1574 C 0.41162 0.7422 0.90202 0.0
C1575 C 0.40664 0.76929 0.94084 0.0
C1576 C 0.36771 0.67491 0.03263 0.0
C1577 C 0.35035 0.67468 1.01106 0.0
H1578 H 0.40113 0.68286 0.07369 0.0
C1579 C 0.34141 0.79185 0.02506 0.0
C1580 C 0.46132 0.78181 1.01906 0.0
C1581 C 0.36272 0.82072 0.10748 0.0
C1582 C 0.33668 0.86123 0.11081 0.0
C1583 C 0.33495 0.8282 0.14559 0.0
C1584 C 0.35327 0.81244 0.13201 0.0
C1585 C 0.3271 0.85277 0.13532 0.0
C1586 C 0.3531 0.84444 0.09639 0.0
C1587 C 0.38727 0.80971 0.09663 0.0
H1588 H 0.34443 0.76487 0.8727 0.0
H1589 H 0.35897 0.78198 0.91585 0.0
H1590 H 0.37434 0.73627 0.84643 0.0
H1591 H 0.43096 0.7368 0.90976 0.0
H1592 H 0.328 0.82209 0.16478 0.0
H1593 H 0.36103 0.79466 0.14119 0.0
H1594 H 0.31445 0.86561 0.14693 0.0
H1595 H 0.36053 0.85113 0.07762 0.0
C1596 C 0.95496 0.34383 0.72961 0.0
C1597 C 0.90825 0.35072 0.73871 0.0
C1598 C 0.93452 0.36023 0.73846 0.0
C1599 C 0.90299 0.32443 0.73108 0.0
C1600 C 0.94933 0.31818 0.71995 0.0
C1601 C 0.92345 0.30824 0.72163 0.0
N1602 N 0.97998 0.35377 0.72847 0.0
C1603 C 0.99904 0.34096 0.71398 0.0
C1604 C 0.96966 0.30367 0.70791 0.0
C1605 C 0.99437 0.31544 0.70419 0.0
Gd1606 Gd 0.02898 0.40285 0.80497 0.0
Gd1607 Gd 0.98578 0.39403 0.75173 0.0
N1608 N 0.94013 0.38579 0.7455 0.0
C1609 C 0.8879 0.36805 0.7461 0.0
C1610 C 0.92004 0.40309 0.75107 0.0
C1611 C 0.89379 0.39448 0.75179 0.0
H1612 H 0.92397 0.42368 0.75461 0.0
H1613 H 0.87809 0.4083 0.75661 0.0
H1614 H 0.03387 0.37229 0.74483 0.0
H1615 H 1.01814 0.34992 0.71093 0.0
H1616 H 0.06406 0.36939 0.70777 0.0
H1617 H 0.8675 0.36146 0.74662 0.0
H1618 H 0.88299 0.3167 0.73158 0.0
H1619 H 0.04979 0.45671 0.83993 0.0
H1620 H 0.96612 0.28386 0.70032 0.0
H1621 H 1.00985 0.30483 0.69385 0.0
H1622 H 0.12899 0.43565 0.72621 0.0
H1623 H 0.91888 0.28835 0.71485 0.0
H1624 H 0.11919 0.48775 0.80418 0.0
H1625 H 0.0863 0.48833 0.84 0.0
N1626 N 0.06197 0.43654 0.80477 0.0
C1627 C 0.07955 0.43638 0.7847 0.0
C1628 C 0.06423 0.45524 0.8244 0.0
C1629 C 0.10331 0.47331 0.8042 0.0
C1630 C 0.08482 0.47369 0.82442 0.0
C1631 C 0.10077 0.45469 0.78393 0.0
H1632 H 0.13508 0.46787 0.76205 0.0
N1633 N 0.05474 0.40162 0.76554 0.0
C1634 C 0.07589 0.41838 0.76453 0.0
C1635 C 0.08954 0.39999 0.72265 0.0
C1636 C 0.09374 0.41804 0.74306 0.0
C1637 C 0.05072 0.38437 0.74528 0.0
C1638 C 0.06783 0.38317 0.72372 0.0
O1639 O 0.96319 0.37695 0.78563 0.0
O1640 O 0.99659 0.3741 0.81641 0.0
O1641 O 0.05915 0.38801 0.83263 0.0
O1642 O 0.02897 0.41557 0.84475 0.0
O1643 O 0.96468 0.42338 0.77692 0.0
O1644 O 0.988 0.41972 0.81585 0.0
O1645 O 1.01962 0.44751 0.7946 0.0
O1646 O 0.99493 0.44277 0.75714 0.0
O1647 O 0.97575 0.39342 0.71093 0.0
O1648 O 1.01039 0.41599 0.7236 0.0
O1649 O 0.03372 0.35519 0.79569 0.0
O1650 O 1.00143 0.35051 0.7648 0.0
C1651 C 0.97242 0.3686 0.80827 0.0
C1652 C 0.96712 0.42787 0.80225 0.0
C1653 C 0.04562 0.38933 0.87798 0.0
C1654 C 0.05904 0.35797 0.91102 0.0
C1655 C 0.02597 0.39089 0.92169 0.0
C1656 C 0.02839 0.40123 0.89645 0.0
C1657 C 0.04093 0.36898 0.92886 0.0
C1658 C 0.06129 0.36785 0.88555 0.0
C1659 C 0.04896 0.40146 0.8521 0.0
C1660 C 0.11515 0.43578 0.74248 0.0
C1661 C 0.11863 0.4541 0.76287 0.0
H1662 H 0.10273 0.39911 0.70587 0.0
C1663 C 1.00735 0.45952 0.77474 0.0
C1664 C 1.01919 0.33845 0.78035 0.0
C1665 C 0.97984 0.43462 0.69224 0.0
C1666 C 0.93803 0.45681 0.6823 0.0
C1667 C 0.97835 0.46883 0.65892 0.0
C1668 C 0.9927 0.44986 0.67318 0.0
C1669 C 0.95112 0.47206 0.66318 0.0
C1670 C 0.95275 0.43904 0.6972 0.0
C1671 C 0.99275 0.41175 0.7049 0.0
H1672 H 1.01262 0.39998 0.93572 0.0
H1673 H 1.01675 0.41859 0.89148 0.0
H1674 H 0.03963 0.36161 0.94885 0.0
H1675 H 0.07603 0.35971 0.87228 0.0
H1676 H 0.98819 0.48056 0.64405 0.0
H1677 H 1.01347 0.44669 0.66895 0.0
H1678 H 0.94019 0.48608 0.65128 0.0
H1679 H 0.94269 0.42794 0.71216 0.0
C1680 C 0.45084 0.19467 0.4818 0.0
C1681 C 0.43707 0.1507 0.49574 0.0
C1682 C 0.43201 0.17815 0.4934 0.0
C1683 C 0.46145 0.1403 0.48727 0.0
C1684 C 0.47443 0.18386 0.47147 0.0
C1685 C 0.48002 0.1568 0.47508 0.0
N1686 N 0.44489 0.22084 0.4784 0.0
C1687 C 0.45989 0.23625 0.46203 0.0
C1688 C 0.49113 0.20029 0.45678 0.0
C1689 C 0.48351 0.2264 0.45151 0.0
Gd1690 Gd 0.39955 0.29283 0.54922 0.0
Gd1691 Gd 0.40618 0.23564 0.49995 0.0
N1692 N 0.40832 0.18875 0.50118 0.0
C1693 C 0.41723 0.13436 0.50594 0.0
C1694 C 0.38848 0.1726 0.50992 0.0
C1695 C 0.39273 0.14529 0.51263 0.0
H1696 H 0.36919 0.18052 0.5146 0.0
H1697 H 0.37704 0.13264 0.51984 0.0
H1698 H 0.42892 0.30375 0.49043 0.0
H1699 H 0.45393 0.25646 0.45784 0.0
H1700 H 0.42508 0.33644 0.45445 0.0
H1701 H 0.42038 0.11318 0.50805 0.0
H1702 H 0.46579 0.11932 0.48926 0.0
H1703 H 0.3475 0.30227 0.58817 0.0
H1704 H 0.50942 0.1927 0.44853 0.0
H1705 H 0.49579 0.23894 0.43933 0.0
H1706 H 0.35058 0.39051 0.47881 0.0
H1707 H 0.49829 0.14827 0.46774 0.0
H1708 H 0.30317 0.36794 0.55734 0.0
H1709 H 0.30922 0.33311 0.59116 0.0
N1710 N 0.36217 0.31954 0.55298 0.0
C1711 C 0.35926 0.33822 0.53408 0.0
C1712 C 0.34462 0.31737 0.57332 0.0
C1713 C 0.31984 0.35445 0.55595 0.0
C1714 C 0.32312 0.33478 0.57506 0.0
C1715 C 0.33794 0.3563 0.5351 0.0
H1716 H 0.31906 0.38955 0.51565 0.0
N1717 N 0.39674 0.31976 0.51203 0.0
C1718 C 0.37699 0.33834 0.51305 0.0
C1719 C 0.39162 0.35654 0.47169 0.0
C1720 C 0.3739 0.35717 0.49282 0.0
C1721 C 0.41369 0.31869 0.4913 0.0
C1722 C 0.41147 0.33715 0.47086 0.0
O1723 O 0.4277 0.21622 0.53323 0.0
O1724 O 0.41896 0.25414 0.55194 0.0
O1725 O 0.41249 0.32794 0.57145 0.0
O1726 O 0.40495 0.29147 0.59136 0.0
O1727 O 0.37901 0.22246 0.53336 0.0
O1728 O 0.37592 0.25766 0.56364 0.0
O1729 O 0.35511 0.28309 0.53438 0.0
O1730 O 0.35857 0.24845 0.5045 0.0
O1731 O 0.40569 0.21832 0.46175 0.0
O1732 O 0.38404 0.25508 0.46764 0.0
O1733 O 0.44642 0.29238 0.53734 0.0
O1734 O 0.44869 0.25783 0.50785 0.0
C1735 C 0.43048 0.23121 0.55365 0.0
C1736 C 0.37058 0.23314 0.55572 0.0
C1737 C 0.39926 0.32963 0.61665 0.0
C1738 C 0.39844 0.3375 0.66389 0.0
C1739 C 0.36542 0.3579 0.63574 0.0
C1740 C 0.37839 0.34776 0.61366 0.0
C1741 C 0.37522 0.35257 0.66088 0.0
C1742 C 0.4092 0.32449 0.64193 0.0
C1743 C 0.41146 0.31602 0.59406 0.0
C1744 C 0.35314 0.37582 0.49415 0.0
C1745 C 0.33518 0.37532 0.51516 0.0
H1746 H 0.38998 0.37074 0.45578 0.0
C1747 C 0.34263 0.26625 0.51777 0.0
C1748 C 0.46193 0.27616 0.52244 0.0
C1749 C 0.36658 0.22035 0.43856 0.0
C1750 C 0.3478 0.17689 0.42717 0.0
C1751 C 0.3392 0.21528 0.39953 0.0
C1752 C 0.35469 0.23126 0.41611 0.0
C1753 C 0.33609 0.18815 0.40476 0.0
C1754 C 0.36205 0.19323 0.44437 0.0
C1755 C 0.38846 0.23456 0.45207 0.0
H1756 H 0.34887 0.37133 0.63329 0.0
H1757 H 0.37237 0.35444 0.5944 0.0
H1758 H 0.36686 0.36309 0.67754 0.0
H1759 H 0.42708 0.31273 0.64418 0.0
H1760 H 0.33039 0.22374 0.382 0.0
H1761 H 0.35837 0.25173 0.41076 0.0
H1762 H 0.32483 0.17592 0.39121 0.0
H1763 H 0.37123 0.18414 0.4613 0.0
C1764 C 0.58878 0.69474 0.22602 0.0
C1765 C 0.63595 0.69387 0.23633 0.0
C1766 C 0.61056 0.68229 0.23796 0.0
C1767 C 0.63912 0.71841 0.22374 0.0
C1768 C 0.59245 0.71873 0.21213 0.0
C1769 C 0.61747 0.73079 0.21171 0.0
N1770 N 0.56458 0.68262 0.2263 0.0
C1771 C 0.54456 0.6917 0.21025 0.0
C1772 C 0.57114 0.72944 0.19804 0.0
C1773 C 0.5473 0.7156 0.19666 0.0
Gd1774 Gd 0.50986 0.63812 0.30545 0.0
Gd1775 Gd 0.56346 0.64322 0.25165 0.0
N1776 N 0.60733 0.65826 0.24985 0.0
C1777 C 0.65767 0.68012 0.24676 0.0
C1778 C 0.62868 0.6442 0.25885 0.0
C1779 C 0.65406 0.65504 0.25775 0.0
H1780 H 0.62588 0.62489 0.26729 0.0
H1781 H 0.67081 0.64403 0.26536 0.0
H1782 H 0.50596 0.66361 0.2443 0.0
H1783 H 0.52616 0.68095 0.20871 0.0
H1784 H 0.47211 0.67076 0.20991 0.0
H1785 H 0.67743 0.6884 0.24582 0.0
H1786 H 0.65844 0.72765 0.22255 0.0
H1787 H 0.48835 0.58914 0.34287 0.0
H1788 H 0.57325 0.74784 0.18723 0.0
H1789 H 0.53109 0.72322 0.18493 0.0
H1790 H 0.39746 0.62072 0.24066 0.0
H1791 H 0.62049 0.74934 0.20138 0.0
H1792 H 0.40967 0.56873 0.31886 0.0
H1793 H 0.44755 0.56282 0.34934 0.0
N1794 N 0.47327 0.6102 0.31017 0.0
C1795 C 0.45314 0.61323 0.29288 0.0
C1796 C 0.4717 0.59213 0.33001 0.0
C1797 C 0.42741 0.58048 0.31624 0.0
C1798 C 0.44874 0.57708 0.33348 0.0
C1799 C 0.42956 0.59851 0.2954 0.0
H1800 H 0.3909 0.59086 0.27843 0.0
N1801 N 0.48057 0.64252 0.26951 0.0
C1802 C 0.45687 0.63003 0.27183 0.0
C1803 C 0.44238 0.64813 0.23027 0.0
C1804 C 0.43705 0.63257 0.2524 0.0
C1805 C 0.48648 0.656 0.24713 0.0
C1806 C 0.4674 0.65953 0.22742 0.0
O1807 O 0.58633 0.66175 0.28531 0.0
O1808 O 0.54653 0.65366 0.2927 0.0
O1809 O 0.48521 0.65243 0.33813 0.0
O1810 O 0.52626 0.64246 0.34414 0.0
O1811 O 0.57747 0.61416 0.28363 0.0
O1812 O 0.544 0.61093 0.31553 0.0
O1813 O 0.51553 0.59282 0.29161 0.0
O1814 O 0.54462 0.59749 0.25644 0.0
O1815 O 0.58872 0.61967 0.22723 0.0
O1816 O 0.5529 0.63649 0.21022 0.0
O1817 O 0.5104 0.68525 0.29257 0.0
O1818 O 0.54333 0.68779 0.26063 0.0
C1819 C 0.56811 0.66373 0.30263 0.0
C1820 C 0.56783 0.60503 0.30621 0.0
C1821 C 0.49911 0.63816 0.38083 0.0
C1822 C 0.48277 0.64489 0.42514 0.0
C1823 C 0.5032 0.60303 0.41337 0.0
C1824 C 0.5075 0.61249 0.38787 0.0
C1825 C 0.49069 0.61913 0.43202 0.0
C1826 C 0.48778 0.6544 0.39976 0.0
C1827 C 0.50446 0.64992 0.35504 0.0
C1828 C 0.41301 0.61884 0.25528 0.0
C1829 C 0.40927 0.60181 0.27675 0.0
H1830 H 0.4277 0.65066 0.21489 0.0
C1831 C 0.52977 0.58094 0.27229 0.0
C1832 C 0.52554 0.70076 0.27631 0.0
C1833 C 0.59445 0.64096 0.18703 0.0
C1834 C 0.63998 0.65012 0.17345 0.0
C1835 C 0.60341 0.67433 0.15371 0.0
C1836 C 0.5853 0.65988 0.16888 0.0
C1837 C 0.63065 0.66926 0.15568 0.0
C1838 C 0.62184 0.63662 0.18921 0.0
C1839 C 0.57675 0.627 0.20572 0.0
H1840 H 0.50959 0.58322 0.41866 0.0
H1841 H 0.51767 0.59994 0.37395 0.0
H1842 H 0.48706 0.61149 0.4516 0.0
H1843 H 0.48305 0.6748 0.39469 0.0
H1844 H 0.59624 0.68883 0.13969 0.0
H1845 H 0.56433 0.66367 0.16658 0.0
H1846 H 0.64411 0.67889 0.1422 0.0
H1847 H 0.62925 0.62108 0.20205 0.0
C1848 C 0.09719 0.84353 0.97307 0.0
C1849 C 0.10145 0.89036 0.98366 0.0
C1850 C 0.11207 0.86443 0.98326 0.0
C1851 C 0.07537 0.8947 0.97503 0.0
C1852 C 0.07225 0.84849 0.96158 0.0
C1853 C 0.06089 0.87386 0.96375 0.0
N1854 N 0.10835 0.81895 0.97182 0.0
C1855 C 0.0981 0.80009 0.9552 0.0
C1856 C 0.0602 0.82826 0.94691 0.0
C1857 C 0.0737 0.80437 0.94281 0.0
Gd1858 Gd 0.15487 0.77321 0.0523 0.0
Gd1859 Gd 0.14758 0.81424 0.99668 0.0
N1860 N 0.13759 0.85974 0.99076 0.0
C1861 C 0.11768 0.91135 0.99175 0.0
C1862 C 0.15406 0.88054 0.99636 0.0
C1863 C 0.14426 0.90649 0.99748 0.0
H1864 H 0.17469 0.87744 1.00031 0.0
H1865 H 0.15726 0.92272 1.00276 0.0
H1866 H 0.13279 0.76812 0.98843 0.0
H1867 H 0.10826 0.78143 0.95238 0.0
H1868 H 0.12871 0.73436 0.95415 0.0
H1869 H 0.11019 0.9315 0.99255 0.0
H1870 H 0.06671 0.91438 0.97575 0.0
H1871 H 0.20532 0.75419 0.08939 0.0
H1872 H 0.04115 0.83138 0.93755 0.0
H1873 H 0.06509 0.78908 0.9305 0.0
H1874 H 0.18088 0.66203 0.98657 0.0
H1875 H 0.04138 0.87785 0.95577 0.0
H1876 H 0.22921 0.67594 0.06662 0.0
H1877 H 0.23302 0.71435 0.0969 0.0
N1878 N 0.18461 0.73764 0.05716 0.0
C1879 C 0.18321 0.71753 0.03962 0.0
C1880 C 0.20281 0.73706 0.07702 0.0
C1881 C 0.21666 0.69317 0.06376 0.0
C1882 C 0.21884 0.71475 0.0809 0.0
C1883 C 0.1991 0.6946 0.04245 0.0
H1884 H 0.20945 0.65649 0.02546 0.0
N1885 N 0.15386 0.7442 1.01511 0.0
C1886 C 0.16724 0.72084 1.01787 0.0
C1887 C 0.15182 0.70564 0.97539 0.0
C1888 C 0.16657 0.70097 0.99817 0.0
C1889 C 0.14084 0.74916 0.99217 0.0
C1890 C 0.13925 0.73004 0.97221 0.0
O1891 O 0.13303 0.83872 0.03083 0.0
O1892 O 0.12285 0.80365 0.0571 0.0
O1893 O 0.14277 0.74459 0.08255 0.0
O1894 O 0.15863 0.78342 0.09299 0.0
O1895 O 0.17535 0.83666 1.0229 0.0
O1896 O 0.17568 0.81236 0.06137 0.0
O1897 O 0.19989 0.7807 0.04185 0.0
O1898 O 0.19574 0.80396 1.00334 0.0
O1899 O 0.15026 0.82726 0.95688 0.0
O1900 O 0.17121 0.79112 0.96847 0.0
O1901 O 0.10756 0.76911 0.0425 0.0
O1902 O 0.10384 0.79573 1.00651 0.0
C1903 C 0.12202 0.82905 0.05202 0.0
C1904 C 0.18215 0.83361 0.04771 0.0
C1905 C 0.15625 0.75251 0.12742 0.0
C1906 C 0.14054 0.73583 0.16906 0.0
C1907 C 0.1857 0.75165 0.1652 0.0
C1908 C 0.18088 0.75839 0.13898 0.0
C1909 C 0.16566 0.74022 0.18021 0.0
C1910 C 0.13615 0.74198 0.14268 0.0
C1911 C 0.14858 0.76137 0.10125 0.0
C1912 C 0.18133 0.67751 1.00142 0.0
C1913 C 0.19759 0.67433 1.02353 0.0
H1914 H 0.15083 0.69098 0.95977 0.0
C1915 C 0.21217 0.79224 1.02164 0.0
C1916 C 0.09138 0.78021 1.02412 0.0
C1917 C 0.191 0.82158 0.93801 0.0
C1918 C 0.21328 0.86376 0.93138 0.0
C1919 C 0.21511 0.82958 0.89761 0.0
C1920 C 0.19937 0.813 0.91313 0.0
C1921 C 0.22139 0.85519 0.90635 0.0
C1922 C 0.19962 0.8463 0.94766 0.0
C1923 C 0.16777 0.80945 0.95035 0.0
H1924 H 0.2047 0.75598 0.17409 0.0
H1925 H 0.196 0.76903 0.12838 0.0
H1926 H 0.16959 0.73544 0.20063 0.0
H1927 H 0.11647 0.74025 0.13427 0.0
H1928 H 0.2211 0.82319 0.87816 0.0
H1929 H 0.19248 0.79428 0.90514 0.0
H1930 H 0.23192 0.86852 0.89337 0.0
H1931 H 0.19299 0.85318 0.96669 0.0
C1932 C 0.70039 0.05934 0.59103 0.0
C1933 C 0.65452 0.04656 0.59727 0.0
C1934 C 0.68071 0.04826 0.60676 0.0
C1935 C 0.64874 0.05459 0.57141 0.0
C1936 C 0.69404 0.06979 0.56608 0.0
C1937 C 0.66843 0.06629 0.5559 0.0
N1938 N 0.72507 0.06244 0.60132 0.0
C1939 C 0.74253 0.07984 0.59007 0.0
C1940 C 0.71317 0.08474 0.5528 0.0
C1941 C 0.73719 0.09052 0.56523 0.0
Gd1942 Gd 0.78154 0.99301 0.65095 0.0
Gd1943 Gd 0.73226 0.03962 0.6411 0.0
N1944 N 0.6867 0.04143 0.63205 0.0
C1945 C 0.63467 0.03793 0.61442 0.0
C1946 C 0.66715 0.03467 0.64928 0.0
C1947 C 0.64093 0.0326 0.64068 0.0
H1948 H 0.67151 0.0309 0.66968 0.0
H1949 H 0.62553 0.02697 0.65435 0.0
H1950 H 0.78495 0.05196 0.61807 0.0
H1951 H 0.76098 0.08452 0.59973 0.0
H1952 H 0.81178 0.09237 0.61871 0.0
H1953 H 0.61431 0.03635 0.60788 0.0
H1954 H 0.62882 0.05298 0.56365 0.0
H1955 H 0.80135 0.95745 0.70235 0.0
H1956 H 0.70903 0.09315 0.53361 0.0
H1957 H 0.75153 0.10322 0.55574 0.0
H1958 H 0.87114 0.07963 0.69126 0.0
H1959 H 0.66334 0.07363 0.5365 0.0
H1960 H 0.86414 0.99934 0.74104 0.0
H1961 H 0.83488 0.96011 0.73792 0.0
N1962 N 0.8118 0.99469 0.68579 0.0
C1963 C 0.82722 1.01657 0.68735 0.0
C1964 C 0.81419 0.97457 0.70368 0.0
C1965 C 0.84946 0.99826 0.7255 0.0
C1966 C 0.83299 0.97609 0.72383 0.0
C1967 C 0.84664 1.0189 0.70724 0.0
H1968 H 0.87758 0.04382 0.72344 0.0
N1969 N 0.8039 0.03418 0.65059 0.0
C1970 C 0.82321 0.03686 0.66928 0.0
C1971 C 0.8349 0.07998 0.65212 0.0
C1972 C 0.83911 0.05987 0.67056 0.0
C1973 C 0.80003 0.05373 0.63254 0.0
C1974 C 0.81526 0.07688 0.63305 0.0
O1975 O 0.71397 0.99981 0.62914 0.0
O1976 O 0.75326 0.97995 0.61974 0.0
O1977 O 0.81875 0.97232 0.64302 0.0
O1978 O 0.78255 0.9503 0.64989 0.0
O1979 O 0.71467 1.01243 0.67058 0.0
O1980 O 0.74441 0.97749 0.67278 0.0
O1981 O 0.7708 1.00443 0.69568 0.0
O1982 O 0.74285 0.03944 0.6894 0.0
O1983 O 0.71504 0.07804 0.64334 0.0
O1984 O 0.75455 0.07152 0.66051 0.0
O1985 O 0.78549 1.00318 0.60331 0.0
O1986 O 0.74924 0.029 0.59751 0.0
C1987 C 0.72747 0.97991 0.61895 0.0
C1988 C 0.7216 0.98889 0.67929 0.0
C1989 C 0.8221 0.9265 0.65543 0.0
C1990 C 0.83212 0.88037 0.64749 0.0
C1991 C 0.85928 0.90601 0.6777 0.0
C1992 C 0.8448 0.92878 0.67126 0.0
C1993 C 0.85315 0.88182 0.66562 0.0
C1994 C 0.81472 0.90175 0.64557 0.0
C1995 C 0.80762 0.94913 0.6447 0.0
C1996 C 0.85875 0.06212 0.69009 0.0
C1997 C 0.86247 0.04171 0.7084 0.0
H1998 H 0.84667 0.09794 0.65243 0.0
C1999 C 0.757 0.02419 0.70694 0.0
C2000 C 0.76922 1.01588 0.58584 0.0
C2001 C 0.72333 0.10072 0.68228 0.0
C2002 C 0.68459 0.11364 0.70792 0.0
C2003 C 0.72689 0.13514 0.71559 0.0
C2004 C 0.73853 0.11957 0.69586 0.0
C2005 C 0.69994 0.13244 0.72141 0.0
C2006 C 0.69649 0.0973 0.68918 0.0
C2007 C 0.73373 0.08739 0.65854 0.0
H2008 H 0.87647 0.9075 0.69037 0.0
H2009 H 0.85177 0.94789 0.67799 0.0
H2010 H 0.86617 0.86507 0.66871 0.0
H2011 H 0.79744 0.90016 0.63291 0.0
H2012 H 0.73863 0.14979 0.72594 0.0
H2013 H 0.7591 0.1227 0.69075 0.0
H2014 H 0.69099 0.14526 0.73605 0.0
H2015 H 0.68421 0.08296 0.67896 0.0
C2016 C 0.73282 0.96336 0.33931 0.0
C2017 C 0.74759 0.91805 0.33038 0.0
C2018 C 0.74815 0.94103 0.3464 0.0
C2019 C 0.73257 0.91789 0.3071 0.0
C2020 C 0.71663 0.96241 0.31663 0.0
C2021 C 0.71712 0.93991 0.30031 0.0
N2022 N 0.73292 0.98557 0.35489 0.0
C2023 C 0.71419 1.00498 0.35154 0.0
C2024 C 0.69967 0.98379 0.31139 0.0
C2025 C 0.69795 1.00482 0.32926 0.0
Gd2026 Gd 0.81468 0.03661 0.40127 0.0
Gd2027 Gd 0.7616 0.98229 0.39091 0.0
N2028 N 0.76251 0.94118 0.36925 0.0
C2029 C 0.7617 0.89552 0.33843 0.0
C2030 C 0.77532 0.9188 0.37768 0.0
C2031 C 0.77536 0.89582 0.3623 0.0
H2032 H 0.7861 0.91887 0.39591 0.0
H2033 H 0.78598 0.87835 0.36885 0.0
H2034 H 0.75247 0.03796 0.37725 0.0
H2035 H 0.71234 1.02089 0.36566 0.0
H2036 H 0.71501 0.06931 0.37386 0.0
H2037 H 0.76174 0.87759 0.32659 0.0
H2038 H 0.73221 0.90049 0.29452 0.0
H2039 H 0.8494 0.05478 0.45325 0.0
H2040 H 0.687 0.98374 0.29415 0.0
H2041 H 0.68399 1.02079 0.32596 0.0
H2042 H 0.74025 0.14076 0.43124 0.0
H2043 H 0.70506 0.93907 0.28266 0.0
H2044 H 0.81983 0.12921 0.48172 0.0
H2045 H 0.85283 0.09283 0.48404 0.0
N2046 N 0.81656 0.07062 0.43267 0.0
C2047 C 0.79768 0.08958 0.43181 0.0
C2048 C 0.83577 0.07114 0.45155 0.0
C2049 C 0.81874 0.11286 0.46786 0.0
C2050 C 0.83741 0.0924 0.46922 0.0
C2051 C 0.7982 0.11134 0.44933 0.0
H2052 H 0.77781 0.14716 0.46159 0.0
N2053 N 0.77617 0.06329 0.40006 0.0
C2054 C 0.77672 0.08585 0.41483 0.0
C2055 C 0.73338 0.09833 0.39908 0.0
C2056 C 0.75542 0.10399 0.41477 0.0
C2057 C 0.75392 0.05684 0.38645 0.0
C2058 C 0.73245 0.07441 0.38518 0.0
O2059 O 0.80249 0.96434 0.38049 0.0
O2060 O 0.81442 1.00536 0.36917 0.0
O2061 O 0.84024 0.0694 0.38906 0.0
O2062 O 0.85661 0.03114 0.40024 0.0
O2063 O 0.79544 0.99434 0.41318 0.0
O2064 O 0.83273 1.00351 0.42712 0.0
O2065 O 0.79614 0.03052 0.44534 0.0
O2066 O 0.76313 0.99872 0.43855 0.0
O2067 O 0.7402 0.95082 0.40839 0.0
O2068 O 0.72366 0.99219 0.40898 0.0
O2069 O 0.80057 0.03547 0.35315 0.0
O2070 O 0.76621 1.00511 0.34847 0.0
C2071 C 0.82075 0.98025 0.37062 0.0
C2072 C 0.81528 0.9851 0.42686 0.0
C2073 C 0.88407 0.06797 0.407 0.0
C2074 C 0.92272 0.09471 0.39907 0.0
C2075 C 0.92228 0.06453 0.43606 0.0
C2076 C 0.89723 0.05575 0.4283 0.0
C2077 C 0.93538 0.08359 0.42105 0.0
C2078 C 0.89616 0.08893 0.39404 0.0
C2079 C 0.86156 0.05547 0.39361 0.0
C2080 C 0.75635 0.12653 0.43116 0.0
C2081 C 0.77772 0.13018 0.44845 0.0
H2082 H 0.71658 0.11172 0.39841 0.0
C2083 C 0.77692 1.01514 0.4561 0.0
C2084 C 0.78238 1.02293 0.33653 0.0
C2085 C 0.69784 0.95633 0.42904 0.0
C2086 C 0.6776 0.91856 0.45006 0.0
C2087 C 0.65483 0.9609 0.44979 0.0
C2088 C 0.67594 0.97211 0.43585 0.0
C2089 C 0.65569 0.93411 0.45709 0.0
C2090 C 0.69826 0.92958 0.43595 0.0
C2091 C 0.72073 0.96688 0.41504 0.0
H2092 H 0.93241 0.05496 0.45227 0.0
H2093 H 0.88889 0.03864 0.43811 0.0
H2094 H 0.95598 0.08789 0.42523 0.0
H2095 H 0.88647 0.0977 0.37704 0.0
H2096 H 0.63802 0.97304 0.45527 0.0
H2097 H 0.67522 0.99293 0.43059 0.0
H2098 H 0.63977 0.92576 0.46863 0.0
H2099 H 0.71509 0.91712 0.43098 0.0
C2100 C 0.7175 0.09469 0.1977 0.0
C2101 C 0.72384 0.14173 0.18949 0.0
C2102 C 0.72671 0.11498 0.1817 0.0
C2103 C 0.71199 0.14778 0.21374 0.0
C2104 C 0.7041 0.10086 0.22132 0.0
C2105 C 0.70197 0.12742 0.22952 0.0
N2106 N 0.72019 0.06911 0.18946 0.0
C2107 C 0.70751 0.0491 0.20278 0.0
C2108 C 0.6925 0.08029 0.23565 0.0
C2109 C 0.6937 0.05439 0.22603 0.0
Gd2110 Gd 0.80729 1.0202 0.1423 0.0
Gd2111 Gd 0.74562 0.06307 0.15046 0.0
N2112 N 0.73793 0.10861 0.15818 0.0
C2113 C 0.73254 0.16168 0.17246 0.0
C2114 C 0.7442 0.12808 0.1406 0.0
C2115 C 0.7422 0.15482 0.14765 0.0
H2116 H 0.75087 0.12314 0.12118 0.0
H2117 H 0.74787 0.17011 0.13385 0.0
H2118 H 0.74584 1.00899 0.16646 0.0
H2119 H 0.70874 0.02881 0.19583 0.0
H2120 H 0.71281 0.97338 0.16727 0.0
H2121 H 0.73087 0.18244 0.17783 0.0
H2122 H 0.70984 0.16821 0.22014 0.0
H2123 H 0.84789 1.00589 0.09354 0.0
H2124 H 0.68203 0.08429 0.25382 0.0
H2125 H 0.68431 0.03839 0.23669 0.0
H2126 H 0.74697 0.90874 0.10664 0.0
H2127 H 0.69211 0.13245 0.24779 0.0
H2128 H 0.82685 0.93046 0.06059 0.0
H2129 H 0.85673 0.96938 0.062 0.0
N2130 N 0.81464 0.98719 0.11049 0.0
C2131 C 0.79786 0.96634 0.10978 0.0
C2132 C 0.83546 0.98858 0.09353 0.0
C2133 C 0.82329 0.94622 0.07472 0.0
C2134 C 0.84021 0.96812 0.07546 0.0
C2135 C 0.80161 0.94524 0.09182 0.0
H2136 H 0.7858 0.90794 0.07746 0.0
N2137 N 0.77271 0.98845 0.14195 0.0
C2138 C 0.77615 0.96693 0.12611 0.0
C2139 C 0.73462 0.94836 0.14059 0.0
C2140 C 0.75728 0.9463 0.12498 0.0
C2141 C 0.74984 0.99119 0.15586 0.0
C2142 C 0.73073 0.9711 0.15583 0.0
O2143 O 0.77463 0.09092 0.17052 0.0
O2144 O 0.78858 0.05327 0.16013 0.0
O2145 O 0.83882 0.99674 0.16022 0.0
O2146 O 0.84718 0.03531 0.14344 0.0
O2147 O 0.77432 0.0821 0.12136 0.0
O2148 O 0.8152 0.06015 0.12227 0.0
O2149 O 0.7945 0.02736 0.09746 0.0
O2150 O 0.75399 0.04806 0.10399 0.0
O2151 O 0.71728 0.07581 0.12216 0.0
O2152 O 0.70609 0.0444 0.1487 0.0
O2153 O 0.79569 1.01728 0.18966 0.0
O2154 O 0.75778 0.04297 0.19418 0.0
C2155 C 0.7948 0.07552 0.17158 0.0
C2156 C 0.79972 0.08028 0.11515 0.0
C2157 C 0.88266 1.00491 0.14538 0.0
C2158 C 0.92341 0.98224 0.15677 0.0
C2159 C 0.91997 1.00566 0.11526 0.0
C2160 C 0.89427 1.01361 0.12177 0.0
C2161 C 0.93463 0.99011 0.13277 0.0
C2162 C 0.89736 0.9894 0.16268 0.0
C2163 C 0.85684 1.0143 0.15458 0.0
C2164 C 0.76122 0.92477 0.10773 0.0
C2165 C 0.78333 0.92429 0.09112 0.0
H2166 H 0.71966 0.93296 0.14035 0.0
C2167 C 0.77254 0.03802 0.08656 0.0
C2168 C 0.77732 0.02858 0.20624 0.0
C2169 C 0.67666 0.08198 0.14188 0.0
C2170 C 0.6617 0.12801 0.13938 0.0
C2171 C 0.64754 0.10021 0.17553 0.0
C2172 C 0.66183 0.07868 0.16501 0.0
C2173 C 0.6478 0.12503 0.16298 0.0
C2174 C 0.67519 0.10639 0.12878 0.0
C2175 C 0.69773 0.06342 0.13317 0.0
H2176 H 0.92883 1.01227 0.09704 0.0
H2177 H 0.88394 0.02706 0.10873 0.0
H2178 H 0.95484 0.98482 0.12793 0.0
H2179 H 0.88897 0.98432 0.18167 0.0
H2180 H 0.63652 0.09773 0.1936 0.0
H2181 H 0.66196 0.05995 0.17536 0.0
H2182 H 0.63668 0.14146 0.17118 0.0
H2183 H 0.6856 0.10912 0.11028 0.0
C2184 C 0.80073 0.1072 0.84446 0.0
C2185 C 0.7894 0.15259 0.85567 0.0
C2186 C 0.79096 0.12551 0.86249 0.0
C2187 C 0.79629 0.16063 0.8301 0.0
C2188 C 0.8101 0.1156 0.81973 0.0
C2189 C 0.80677 0.14219 0.81221 0.0
N2190 N 0.80359 0.08164 0.85225 0.0
C2191 C 0.81936 0.06453 0.83819 0.0
C2192 C 0.82373 0.09734 0.80389 0.0
C2193 C 0.82908 0.07192 0.81352 0.0
Gd2194 Gd 0.73708 1.0204 0.9016 0.0
Gd2195 Gd 0.78129 0.07069 0.89156 0.0
N2196 N 0.78525 0.11716 0.88732 0.0
C2197 C 0.78199 0.17092 0.87505 0.0
C2198 C 0.78028 0.13527 0.90676 0.0
C2199 C 0.77804 0.16228 0.90084 0.0
H2200 H 0.778 0.12912 0.92689 0.0
H2201 H 0.77333 0.17644 0.9162 0.0
H2202 H 0.79446 1.01349 0.86586 0.0
H2203 H 0.82314 0.04473 0.84549 0.0
H2204 H 0.83526 0.98745 0.86811 0.0
H2205 H 0.78038 0.19188 0.87056 0.0
H2206 H 0.79473 0.18128 0.82437 0.0
H2207 H 0.70115 1.00064 0.95299 0.0
H2208 H 0.83129 0.10304 0.78478 0.0
H2209 H 0.84053 0.05801 0.80192 0.0
H2210 H 0.82668 0.93634 0.94689 0.0
H2211 H 0.81323 0.14891 0.79303 0.0
H2212 H 0.74635 0.94337 0.99611 0.0
H2213 H 0.70532 0.96961 0.99044 0.0
N2214 N 0.73955 0.99209 0.93795 0.0
C2215 C 0.76219 0.97786 0.9405 0.0
C2216 C 0.71907 0.98908 0.95534 0.0
C2217 C 0.74464 0.95698 0.9797 0.0
C2218 C 0.72142 0.97171 0.97658 0.0
C2219 C 0.7653 0.95985 0.96155 0.0
H2220 H 0.79152 0.93121 0.97979 0.0
N2221 N 0.77859 0.99865 0.90158 0.0
C2222 C 0.78219 0.98121 0.92192 0.0
C2223 C 0.82489 0.96849 0.90453 0.0
C2224 C 0.80557 0.96591 0.92399 0.0
C2225 C 0.79698 1.00017 0.882 0.0
C2226 C 0.82049 0.98552 0.88338 0.0
O2227 O 0.74092 0.0861 0.87631 0.0
O2228 O 0.71976 0.04648 0.87101 0.0
O2229 O 0.72096 0.98146 0.8927 0.0
O2230 O 0.69483 1.01447 0.90241 0.0
O2231 O 0.75494 0.08888 0.92112 0.0
O2232 O 0.72001 0.05928 0.92122 0.0
O2233 O 0.74674 0.03248 0.94592 0.0
O2234 O 0.78091 0.0613 0.94024 0.0
O2235 O 0.82219 0.08095 0.89179 0.0
O2236 O 0.80955 0.04388 0.91052 0.0
O2237 O 0.7468 1.01632 0.85406 0.0
O2238 O 0.77017 0.05393 0.84812 0.0
C2239 C 0.72067 0.07204 0.86744 0.0
C2240 C 0.73092 0.08247 0.92822 0.0
C2241 C 0.6768 0.97157 0.90568 0.0
C2242 C 0.63355 0.95502 0.89537 0.0
C2243 C 0.66218 0.92993 0.92446 0.0
C2244 C 0.68219 0.94876 0.92064 0.0
C2245 C 0.63795 0.9327 0.91127 0.0
C2246 C 0.65195 0.97533 0.89478 0.0
C2247 C 0.69681 0.98963 0.89591 0.0
C2248 C 0.80881 0.94813 0.94505 0.0
C2249 C 0.78877 0.94514 0.96378 0.0
H2250 H 0.8431 0.95712 0.90545 0.0
C2251 C 0.76594 0.04649 0.95744 0.0
C2252 C 0.75821 0.0332 0.83654 0.0
C2253 C 0.84374 0.07039 0.93044 0.0
C2254 C 0.85822 0.10838 0.95636 0.0
C2255 C 0.88202 0.06659 0.95908 0.0
C2256 C 0.86464 0.05527 0.94069 0.0
C2257 C 0.87914 0.09322 0.96656 0.0
C2258 C 0.84004 0.09663 0.93935 0.0
C2259 C 0.82872 0.06131 0.90727 0.0
H2260 H 0.66614 0.91227 0.93591 0.0
H2261 H 0.7018 0.94496 0.92836 0.0
H2262 H 0.62368 0.91669 0.91186 0.0
H2263 H 0.64833 0.99236 0.8821 0.0
H2264 H 0.89837 0.05502 0.96675 0.0
H2265 H 0.86805 0.03518 0.93381 0.0
H2266 H 0.89343 0.10211 0.97984 0.0
H2267 H 0.82411 0.1087 0.93155 0.0
C2268 C 0.6017 0.69542 0.04848 0.0
C2269 C 0.61737 0.65125 0.03763 0.0
C2270 C 0.62155 0.67889 0.0389 0.0
C2271 C 0.59225 0.64087 0.04352 0.0
C2272 C 0.57751 0.68465 0.05725 0.0
C2273 C 0.57234 0.65756 0.05333 0.0
N2274 N 0.6077 0.7213 0.05289 0.0
C2275 C 0.59235 0.73618 0.0697 0.0
C2276 C 0.56015 0.70092 0.0715 0.0
C2277 C 0.56802 0.72653 0.0785 0.0
Gd2278 Gd 0.65624 0.79405 0.99473 0.0
Gd2279 Gd 0.6476 0.73596 0.0332 0.0
N2280 N 0.64592 0.68944 0.03422 0.0
C2281 C 0.63901 0.63475 0.03225 0.0
C2282 C 0.6674 0.6734 0.03107 0.0
C2283 C 0.66425 0.6458 0.02983 0.0
H2284 H 0.68691 0.6819 0.02888 0.0
H2285 H 0.68125 0.63309 0.02671 0.0
H2286 H 0.62204 0.7859 0.05226 0.0
H2287 H 0.59842 0.75593 0.07536 0.0
H2288 H 0.61687 0.80819 0.09454 0.0
H2289 H 0.63666 0.6134 0.03124 0.0
H2290 H 0.58851 0.61975 0.04205 0.0
H2291 H 0.71442 0.81862 0.96971 0.0
H2292 H 0.54141 0.69337 0.0786 0.0
H2293 H 0.55542 0.73882 0.09072 0.0
H2294 H 0.68335 0.87563 0.09402 0.0
H2295 H 0.55362 0.64904 0.05935 0.0
H2296 H 0.7412 0.88062 1.02008 0.0
H2297 H 0.74548 0.85438 0.97922 0.0
N2298 N 0.69059 0.82505 1.00413 0.0
C2299 C 0.68867 0.83848 0.02714 0.0
C2300 C 0.71125 0.83032 0.98728 0.0
C2301 C 0.72701 0.86506 1.01584 0.0
C2302 C 0.72946 0.85039 0.99276 0.0
C2303 C 0.70676 0.85897 0.03354 0.0
H2304 H 0.71799 0.88833 0.06268 0.0
N2305 N 0.65269 0.81062 0.03846 0.0
C2306 C 0.66922 0.83109 0.0448 0.0
C2307 C 0.64802 0.83619 0.08716 0.0
C2308 C 0.66729 0.84436 0.0693 0.0
C2309 C 0.6342 0.80255 0.05621 0.0
C2310 C 0.63157 0.81504 0.08066 0.0
O2311 O 0.62807 0.72475 0.99472 0.0
O2312 O 0.63131 0.76449 0.97247 0.0
O2313 O 0.63529 0.8269 0.97465 0.0
O2314 O 0.67062 0.81045 0.95886 0.0
O2315 O 0.67441 0.72205 1.00081 0.0
O2316 O 0.67436 0.7587 0.97314 0.0
O2317 O 0.70099 0.78057 1.00444 0.0
O2318 O 0.69645 0.74341 0.03011 0.0
O2319 O 0.64639 0.72034 0.0716 0.0
O2320 O 0.66656 0.7584 0.06561 0.0
O2321 O 0.60837 0.79445 1.00404 0.0
O2322 O 0.60401 0.75421 1.02357 0.0
C2323 C 0.62295 0.73984 0.97424 0.0
C2324 C 0.68034 0.73366 0.97831 0.0
C2325 C 0.63936 0.82234 0.92782 0.0
C2326 C 0.60916 0.83589 0.89327 0.0
C2327 C 0.6411 0.80102 0.88467 0.0
C2328 C 0.65037 0.80338 0.91033 0.0
C2329 C 0.62064 0.81722 0.87613 0.0
C2330 C 0.61871 0.83877 0.91904 0.0
C2331 C 0.65084 0.82575 0.95436 0.0
C2332 C 0.68472 0.86521 0.07539 0.0
C2333 C 0.70442 0.87248 0.05756 0.0
H2334 H 0.64595 0.84582 0.10614 0.0
C2335 C 0.71318 0.76139 1.01836 0.0
C2336 C 0.59162 0.7757 1.01372 0.0
C2337 C 0.68028 0.72755 0.10045 0.0
C2338 C 0.69982 0.68602 0.11685 0.0
C2339 C 0.69159 0.72326 0.14659 0.0
C2340 C 0.68167 0.73836 0.1258 0.0
C2341 C 0.70001 0.6972 0.14232 0.0
C2342 C 0.69034 0.70159 0.09594 0.0
C2343 C 0.66076 0.73892 0.08207 0.0
H2344 H 0.65 0.78683 0.87131 0.0
H2345 H 0.66653 0.79052 0.91617 0.0
H2346 H 0.61407 0.81564 0.85585 0.0
H2347 H 0.61059 0.85399 0.93182 0.0
H2348 H 0.69183 0.73144 0.16632 0.0
H2349 H 0.67331 0.75777 0.1299 0.0
H2350 H 0.70675 0.68574 0.15905 0.0
H2351 H 0.68943 0.69299 0.07646 0.0
C2352 C 0.09333 0.20091 0.72319 0.0
C2353 C 0.13949 0.19307 0.73471 0.0
C2354 C 0.11292 0.18449 0.73403 0.0
C2355 C 0.14621 0.21793 0.72425 0.0
C2356 C 0.10042 0.22512 0.71124 0.0
C2357 C 0.12681 0.23378 0.71235 0.0
N2358 N 0.0677 0.1924 0.72275 0.0
C2359 C 0.04913 0.20519 0.70777 0.0
C2360 C 0.08089 0.23959 0.69788 0.0
C2361 C 0.0553 0.2293 0.69565 0.0
Gd2362 Gd 1.0098 0.14615 0.80238 0.0
Gd2363 Gd 0.0598 0.15347 0.74678 0.0
N2364 N 0.106 0.16011 0.74366 0.0
C2365 C 0.15861 0.1764 0.74588 0.0
C2366 C 0.12503 0.14312 0.75297 0.0
C2367 C 0.15137 0.15129 0.75485 0.0
H2368 H 0.12012 0.12348 0.75971 0.0
H2369 H 0.16618 0.13803 0.7629 0.0
H2370 H 0.99962 0.17447 0.74273 0.0
H2371 H 0.02929 0.19726 0.70626 0.0
H2372 H 0.96457 0.1754 0.70897 0.0
H2373 H 0.17915 0.18246 0.74707 0.0
H2374 H 0.16651 0.22484 0.72474 0.0
H2375 H 0.99422 0.09792 0.84359 0.0
H2376 H 0.08557 0.2583 0.68851 0.0
H2377 H 0.04032 0.23998 0.68469 0.0
H2378 H 0.90071 0.112 0.73946 0.0
H2379 H 0.13251 0.25254 0.70366 0.0
H2380 H 0.92034 0.0644 0.81889 0.0
H2381 H 0.95778 0.06592 0.8504 0.0
N2382 N 0.97737 0.1141 0.80876 0.0
C2383 C 0.95727 0.11359 0.79118 0.0
C2384 C 0.97783 0.09741 0.82989 0.0
C2385 C 0.93624 0.07848 0.81589 0.0
C2386 C 0.95732 0.07926 0.83373 0.0
C2387 C 0.93605 0.09572 0.79425 0.0
H2388 H 0.89896 0.08204 0.77763 0.0
N2389 N 0.97984 0.14675 0.76699 0.0
C2390 C 0.9585 0.13042 0.76965 0.0
C2391 C 0.94029 0.14659 0.72877 0.0
C2392 C 0.93816 0.1299 0.75063 0.0
C2393 C 0.9824 0.16237 0.74532 0.0
C2394 C 0.96259 0.16272 0.72602 0.0
O2395 O 0.08535 0.17188 0.77858 0.0
O2396 O 0.04847 0.16307 0.79519 0.0
O2397 O 0.98218 0.16576 0.82874 0.0
O2398 O 1.01519 0.1437 0.84449 0.0
O2399 O 0.07649 0.12361 0.77547 0.0
O2400 O 0.04604 0.12 0.81028 0.0
O2401 O 1.01358 0.10196 0.78618 0.0
O2402 O 0.04439 0.10619 0.75244 0.0
O2403 O 0.07539 0.15063 0.70778 0.0
O2404 O 0.03779 0.13154 0.71638 0.0
O2405 O 1.0103 0.19332 0.79254 0.0
O2406 O 0.03958 0.1963 0.75793 0.0
C2407 C 0.07147 0.17374 0.79958 0.0
C2408 C 0.0689 0.11419 0.79848 0.0
C2409 C 1.00132 0.18128 0.8678 0.0
C2410 C 0.98893 0.20506 0.90731 0.0
C2411 C 0.02974 0.21617 0.88466 0.0
C2412 C 0.02425 0.1968 0.86571 0.0
C2413 C 1.01223 0.22022 0.90555 0.0
C2414 C 0.98341 0.18603 0.88801 0.0
C2415 C 0.9957 0.15961 0.84961 0.0
C2416 C 0.91657 0.11257 0.75384 0.0
C2417 C 0.91555 0.09549 0.77558 0.0
H2418 H 0.92503 0.14688 0.71375 0.0
C2419 C 0.02799 0.09 0.76728 0.0
C2420 C 0.02393 0.209 0.77565 0.0
C2421 C 0.07082 0.10927 0.68999 0.0
C2422 C 0.11232 0.08426 0.68935 0.0
C2423 C 0.08219 0.0826 0.65191 0.0
C2424 C 0.0648 0.09997 0.6647 0.0
C2425 C 0.10607 0.07526 0.6639 0.0
C2426 C 0.09405 0.10021 0.70268 0.0
C2427 C 0.05796 0.13345 0.70009 0.0
H2428 H 0.04764 0.22787 0.88329 0.0
H2429 H 0.03773 0.19394 0.84951 0.0
H2430 H 1.017 0.2349 0.92043 0.0
H2431 H 0.96521 0.17465 0.88877 0.0
H2432 H 0.07784 0.07592 0.63211 0.0
H2433 H 0.04752 0.10727 0.65431 0.0
H2434 H 0.12011 0.06337 0.65295 0.0
H2435 H 0.09891 0.10732 0.72213 0.0
C2436 C 0.94319 0.36906 0.56551 0.0
C2437 C 0.92193 0.41032 0.55389 0.0
C2438 C 0.92136 0.38241 0.55633 0.0
C2439 C 0.94559 0.4241 0.55887 0.0
C2440 C 0.96649 0.38289 0.57235 0.0
C2441 C 0.96789 0.41037 0.56808 0.0
N2442 N 0.94099 0.34262 0.56926 0.0
C2443 C 0.96091 0.32902 0.5818 0.0
C2444 C 0.98742 0.36878 0.58378 0.0
C2445 C 0.98437 0.3418 0.58904 0.0
Gd2446 Gd 0.89794 0.27088 0.4966 0.0
Gd2447 Gd 0.90546 0.32104 0.54721 0.0
N2448 N 0.89904 0.3682 0.55162 0.0
C2449 C 0.89853 0.42359 0.5474 0.0
C2450 C 0.87572 0.38149 0.54726 0.0
C2451 C 0.87516 0.40915 0.5448 0.0
H2452 H 0.85741 0.37076 0.54499 0.0
H2453 H 0.85669 0.41928 0.54073 0.0
H2454 H 0.9276 0.25992 0.55625 0.0
H2455 H 0.95908 0.30793 0.58536 0.0
H2456 H 0.92335 0.2279 0.59238 0.0
H2457 H 0.89809 0.44499 0.54536 0.0
H2458 H 0.94659 0.44544 0.5565 0.0
H2459 H 0.84764 0.25826 0.45553 0.0
H2460 H 1.0057 0.37863 0.5892 0.0
H2461 H 1.00022 0.33072 0.5983 0.0
H2462 H 0.84946 0.17369 0.56781 0.0
H2463 H 0.98581 0.42128 0.57262 0.0
H2464 H 0.80498 0.19198 0.48656 0.0
H2465 H 0.81137 0.22551 0.45166 0.0
N2466 N 0.86108 0.24351 0.49245 0.0
C2467 C 0.85801 0.22542 0.51195 0.0
C2468 C 0.84479 0.24373 0.4709 0.0
C2469 C 0.82077 0.2064 0.48844 0.0
C2470 C 0.82428 0.2253 0.46869 0.0
C2471 C 0.83766 0.20631 0.5104 0.0
H2472 H 0.81941 0.17277 0.52973 0.0
N2473 N 0.89458 0.24512 0.53488 0.0
C2474 C 0.87504 0.22632 0.53371 0.0
C2475 C 0.88954 0.20831 0.57537 0.0
C2476 C 0.87202 0.20752 0.55404 0.0
C2477 C 0.91211 0.2454 0.55531 0.0
C2478 C 0.90964 0.22729 0.57599 0.0
O2479 O 0.93536 0.32769 0.51564 0.0
O2480 O 0.91956 0.30472 0.47983 0.0
O2481 O 0.91373 0.23463 0.47922 0.0
O2482 O 0.89772 0.26565 0.45433 0.0
O2483 O 0.8818 0.34028 0.51549 0.0
O2484 O 0.88071 0.31064 0.48044 0.0
O2485 O 0.85361 0.28022 0.50948 0.0
O2486 O 0.85728 0.31471 0.53915 0.0
O2487 O 0.90856 0.31848 0.58939 0.0
O2488 O 0.88354 0.29056 0.56878 0.0
O2489 O 0.94473 0.26735 0.50897 0.0
O2490 O 0.94893 0.30151 0.53808 0.0
C2491 C 0.93487 0.32236 0.49051 0.0
C2492 C 0.87572 0.33436 0.49109 0.0
C2493 C 0.9027 0.2235 0.43494 0.0
C2494 C 0.91348 0.20823 0.39118 0.0
C2495 C 0.88181 0.18387 0.41762 0.0
C2496 C 0.88561 0.20187 0.43837 0.0
C2497 C 0.89588 0.18689 0.39406 0.0
C2498 C 0.91607 0.22678 0.41131 0.0
C2499 C 0.90909 0.24265 0.45541 0.0
C2500 C 0.85191 0.1883 0.55238 0.0
C2501 C 0.8348 0.18771 0.53067 0.0
H2502 H 0.88786 0.19421 0.59136 0.0
C2503 C 0.84133 0.29747 0.52539 0.0
C2504 C 0.96125 0.28236 0.52388 0.0
C2505 C 0.86748 0.31382 0.60678 0.0
C2506 C 0.84736 0.35699 0.61594 0.0
C2507 C 0.84685 0.32218 0.64905 0.0
C2508 C 0.86115 0.3053 0.63221 0.0
C2509 C 0.84039 0.34811 0.64114 0.0
C2510 C 0.85897 0.33901 0.59858 0.0
C2511 C 0.88918 0.30179 0.59147 0.0
H2512 H 0.86871 0.16709 0.42014 0.0
H2513 H 0.87569 0.19865 0.45694 0.0
H2514 H 0.89401 0.17203 0.37872 0.0
H2515 H 0.92985 0.24317 0.40905 0.0
H2516 H 0.84192 0.31565 0.66872 0.0
H2517 H 0.86817 0.28631 0.63937 0.0
H2518 H 0.83041 0.3613 0.65477 0.0
H2519 H 0.86397 0.34535 0.57929 0.0
C2520 C 0.45329 0.93455 0.78295 0.0
C2521 C 0.43996 0.91581 0.74125 0.0
C2522 C 0.45781 0.91707 0.76258 0.0
C2523 C 0.41707 0.93178 0.74141 0.0
C2524 C 0.43077 0.95117 0.78304 0.0
C2525 C 0.41244 0.94939 0.76233 0.0
N2526 N 0.47161 0.93604 0.80224 0.0
C2527 C 0.46917 0.95442 0.82197 0.0
C2528 C 0.42764 0.96936 0.80369 0.0
C2529 C 0.44711 0.97115 0.82313 0.0
Gd2530 Gd 0.56406 0.89624 0.75405 0.0
Gd2531 Gd 0.50633 0.90497 0.8016 0.0
N2532 N 0.48026 0.90215 0.76312 0.0
C2533 C 0.44595 0.89893 0.72021 0.0
C2534 C 0.48662 0.88643 0.74223 0.0
C2535 C 0.46953 0.88438 0.72059 0.0
H2536 H 0.50493 0.87565 0.742 0.0
H2537 H 0.47462 0.87167 0.70415 0.0
H2538 H 0.62195 0.92749 0.76725 0.0
H2539 H 0.48428 0.95648 0.83688 0.0
H2540 H 0.66895 0.91467 0.77221 0.0
H2541 H 0.43281 0.89738 0.7034 0.0
H2542 H 0.40303 0.93096 0.72528 0.0
H2543 H 0.53782 0.85286 0.70959 0.0
H2544 H 0.41057 0.9824 0.80455 0.0
H2545 H 0.4452 0.98546 0.83895 0.0
H2546 H 0.67203 0.82443 0.74161 0.0
H2547 H 0.39493 0.96185 0.76208 0.0
H2548 H 0.59418 0.78983 0.7 0.0
H2549 H 0.55025 0.80935 0.69023 0.0
N2550 N 0.57381 0.85676 0.73112 0.0
C2551 C 0.59904 0.84788 0.73435 0.0
C2552 C 0.55709 0.8444 0.71372 0.0
C2553 C 0.58882 0.80883 0.70851 0.0
C2554 C 0.56402 0.81982 0.70287 0.0
C2555 C 0.60702 0.82328 0.72367 0.0
H2556 H 0.63953 0.79544 0.71977 0.0
N2557 N 0.60994 0.88951 0.75372 0.0
C2558 C 0.61763 0.8647 0.74601 0.0
C2559 C 0.66274 0.87468 0.75835 0.0
C2560 C 0.64426 0.85662 0.74823 0.0
C2561 C 0.62803 0.90759 0.76236 0.0
C2562 C 0.65466 0.9004 0.765 0.0
O2563 O 0.5156 0.94925 0.78653 0.0
O2564 O 0.55229 0.94413 0.75906 0.0
O2565 O 0.58139 0.89886 0.71615 0.0
O2566 O 0.5426 0.91724 0.72262 0.0
O2567 O 0.50897 0.85686 0.79273 0.0
O2568 O 0.54229 0.85297 0.76161 0.0
O2569 O 0.58436 0.87888 0.78965 0.0
O2570 O 0.54406 0.88718 0.79418 0.0
O2571 O 0.48188 0.88301 0.83007 0.0
O2572 O 0.50693 0.91539 0.84213 0.0
O2573 O 0.57681 0.92632 0.78645 0.0
O2574 O 0.54175 0.92692 0.81663 0.0
C2575 C 0.53432 0.96079 0.77126 0.0
C2576 C 0.52459 0.84066 0.7775 0.0
C2577 C 0.5754 0.93837 0.69482 0.0
C2578 C 0.61796 0.95979 0.68765 0.0
C2579 C 0.58381 0.96156 0.65394 0.0
C2580 C 0.56696 0.94649 0.66983 0.0
C2581 C 0.60951 0.96744 0.66245 0.0
C2582 C 0.60029 0.94686 0.70428 0.0
C2583 C 0.56336 0.91486 0.70703 0.0
C2584 C 0.65173 0.83114 0.73966 0.0
C2585 C 0.63319 0.81456 0.72731 0.0
H2586 H 0.68339 0.86921 0.76042 0.0
C2587 C 0.5649 0.87731 0.80575 0.0
C2588 C 0.56571 0.934 0.80918 0.0
C2589 C 0.49775 0.88459 0.87459 0.0
C2590 C 0.48308 0.86225 0.91372 0.0
C2591 C 0.5276 0.87964 0.91197 0.0
C2592 C 0.52243 0.88933 0.88682 0.0
C2593 C 0.50797 0.86598 0.92542 0.0
C2594 C 0.47808 0.87112 0.88827 0.0
C2595 C 0.49073 0.89722 0.84966 0.0
H2596 H 0.57755 0.96721 0.63435 0.0
H2597 H 0.54821 0.9397 0.66193 0.0
H2598 H 0.62306 0.97719 0.64912 0.0
H2599 H 0.60722 0.94052 0.72342 0.0
H2600 H 0.54662 0.88315 0.92119 0.0
H2601 H 0.53778 0.90053 0.87703 0.0
H2602 H 0.51175 0.85931 0.94534 0.0
H2603 H 0.45851 0.86875 0.87973 0.0
C2604 C 1.00987 0.18808 0.20079 0.0
C2605 C 0.05083 0.16803 0.18631 0.0
C2606 C 0.03031 0.17032 0.20511 0.0
C2607 C 0.05073 0.18418 0.16381 0.0
C2608 C 1.00963 0.20434 0.17813 0.0
C2609 C 0.03021 0.20235 0.15977 0.0
N2610 N 0.9901 0.18943 0.21865 0.0
C2611 C 0.96978 0.20723 0.21539 0.0
C2612 C 0.98866 0.22213 0.17451 0.0
C2613 C 0.96872 0.22367 0.19333 0.0
Gd2614 Gd 0.04526 0.15903 0.30124 0.0
Gd2615 Gd 0.99172 0.15948 0.25428 0.0
N2616 N 0.02976 0.15475 0.22707 0.0
C2617 C 0.07058 0.14907 0.19023 0.0
C2618 C 0.04867 0.13572 0.23019 0.0
C2619 C 0.06929 0.13265 0.21211 0.0
H2620 H 0.04799 0.12236 0.24609 0.0
H2621 H 0.08407 0.11733 0.21495 0.0
H2622 H 0.03249 0.17375 0.36541 0.0
H2623 H 0.95456 0.20942 0.2301 0.0
H2624 H 0.03551 0.15117 0.40836 0.0
H2625 H 0.08653 0.14655 0.1762 0.0
H2626 H 0.06633 0.1826 0.14929 0.0
H2627 H 0.09053 0.12789 0.26204 0.0
H2628 H 0.98783 0.23499 0.15746 0.0
H2629 H 0.95262 0.23768 0.19098 0.0
H2630 H 0.0818 0.07029 0.38948 0.0
H2631 H 0.03037 0.21466 0.14231 0.0
H2632 H 0.11843 0.05947 0.30341 0.0
H2633 H 0.11757 0.08706 0.26322 0.0
N2634 N 0.07426 0.12219 0.3001 0.0
C2635 C 0.0766 0.1088 0.32334 0.0
C2636 C 0.08992 0.11545 0.2792 0.0
C2637 C 0.10629 0.07723 0.30286 0.0
C2638 C 0.10572 0.09264 0.28007 0.0
C2639 C 0.09198 0.08542 0.325 0.0
H2640 H 0.10432 0.05299 0.35018 0.0
N2641 N 0.05097 0.14239 0.34423 0.0
C2642 C 0.0642 0.11887 0.34576 0.0
C2643 C 0.05545 0.11687 0.39255 0.0
C2644 C 0.06652 0.10537 0.36999 0.0
C2645 C 0.04184 0.15455 0.36657 0.0
C2646 C 0.04353 0.14181 0.39091 0.0
O2647 O 1.00302 0.20589 0.25906 0.0
O2648 O 0.0414 0.20364 0.2826 0.0
O2649 O 0.06605 0.18495 0.32662 0.0
O2650 O 0.08651 0.16981 0.29198 0.0
O2651 O 1.00006 0.11219 0.26067 0.0
O2652 O 0.03554 0.1124 0.28879 0.0
O2653 O 1.01101 0.14557 0.32427 0.0
O2654 O 0.9805 0.13678 0.2915 0.0
O2655 O 0.96661 0.13811 0.22612 0.0
O2656 O 0.95025 0.16812 0.25147 0.0
O2657 O 1.01306 0.18537 0.31821 0.0
O2658 O 0.979 0.18507 0.28785 0.0
C2659 C 1.02324 0.21916 0.27025 0.0
C2660 C 1.01739 0.09768 0.27521 0.0
C2661 C 0.11096 0.17761 0.33263 0.0
C2662 C 0.12962 0.18588 0.3763 0.0
C2663 C 0.15451 0.16059 0.34379 0.0
C2664 C 0.13394 0.16373 0.32544 0.0
C2665 C 0.15244 0.17163 0.36911 0.0
C2666 C 0.10899 0.18805 0.35818 0.0
C2667 C 0.08858 0.18248 0.31454 0.0
C2668 C 0.08028 0.08115 0.37115 0.0
C2669 C 0.09309 0.07129 0.34876 0.0
H2670 H 0.05668 0.107 0.41145 0.0
C2671 C 0.98869 0.1355 0.31616 0.0
C2672 C 0.98934 0.19293 0.31019 0.0
C2673 C 0.92353 0.13191 0.24338 0.0
C2674 C 0.88451 0.10689 0.23194 0.0
C2675 C 0.8952 0.11425 0.27781 0.0
C2676 C 0.9174 0.12872 0.27026 0.0
C2677 C 0.87882 0.10314 0.25869 0.0
C2678 C 0.90703 0.12089 0.2243 0.0
C2679 C 0.94517 0.1492 0.2351 0.0
H2680 H 0.17221 0.1498 0.33831 0.0
H2681 H 0.13596 0.15537 0.30589 0.0
H2682 H 0.16873 0.16938 0.38283 0.0
H2683 H 0.09101 0.19812 0.3642 0.0
H2684 H 0.89031 0.11224 0.29844 0.0
H2685 H 0.92927 0.13803 0.28542 0.0
H2686 H 0.86112 0.09266 0.26471 0.0
H2687 H 0.91102 0.12415 0.20358 0.0
C2688 C 0.47257 0.10717 0.76006 0.0
C2689 C 0.45665 0.11918 0.80351 0.0
C2690 C 0.47437 0.1233 0.78243 0.0
C2691 C 0.43759 0.09893 0.80192 0.0
C2692 C 0.45368 0.08659 0.75862 0.0
C2693 C 0.43614 0.08268 0.77959 0.0
N2694 N 0.48958 0.1113 0.73986 0.0
C2695 C 0.48902 0.09567 0.71777 0.0
C2696 C 0.45296 0.07045 0.7361 0.0
C2697 C 0.47084 0.0749 0.71568 0.0
Gd2698 Gd 0.56598 0.15331 0.79715 0.0
Gd2699 Gd 0.51711 0.14822 0.74429 0.0
N2700 N 0.49299 0.14301 0.78353 0.0
C2701 C 0.45831 0.13576 0.82554 0.0
C2702 C 0.49405 0.15957 0.80475 0.0
C2703 C 0.47705 0.15602 0.82613 0.0
H2704 H 0.50796 0.17539 0.8057 0.0
H2705 H 0.47831 0.1691 0.84302 0.0
H2706 H 0.61442 0.104 0.79199 0.0
H2707 H 0.50281 0.09914 0.70191 0.0
H2708 H 0.66274 0.10188 0.78715 0.0
H2709 H 0.44505 0.13323 0.84209 0.0
H2710 H 0.42381 0.09567 0.81791 0.0
H2711 H 0.55694 0.20589 0.83774 0.0
H2712 H 0.43871 0.05448 0.73432 0.0
H2713 H 0.47049 0.06251 0.69825 0.0
H2714 H 0.69175 0.19119 0.80118 0.0
H2715 H 0.42137 0.06711 0.77874 0.0
H2716 H 0.62918 0.25005 0.84083 0.0
H2717 H 0.58245 0.2447 0.85356 0.0
N2718 N 0.58955 0.18861 0.81745 0.0
C2719 C 0.61578 0.19012 0.81239 0.0
C2720 C 0.57756 0.20787 0.83238 0.0
C2721 C 0.61827 0.23278 0.83417 0.0
C2722 C 0.5918 0.22993 0.84123 0.0
C2723 C 0.63075 0.21251 0.82002 0.0
H2724 H 0.66966 0.23054 0.81974 0.0
N2725 N 0.6131 0.146 0.79767 0.0
C2726 C 0.62803 0.16802 0.80204 0.0
C2727 C 0.66824 0.14382 0.79254 0.0
C2728 C 0.65583 0.16772 0.79901 0.0
C2729 C 0.62565 0.12217 0.79349 0.0
C2730 C 0.65317 0.12077 0.79074 0.0
O2731 O 0.52759 0.10298 0.75364 0.0
O2732 O 0.55558 0.10567 0.78942 0.0
O2733 O 0.57264 0.15555 0.83861 0.0
O2734 O 0.5395 0.13239 0.82469 0.0
O2735 O 0.51592 0.19496 0.75604 0.0
O2736 O 0.54522 0.19723 0.7903 0.0
O2737 O 0.57576 0.18378 0.76688 0.0
O2738 O 0.55214 0.17064 0.73026 0.0
O2739 O 0.48178 0.16646 0.72797 0.0
O2740 O 0.51076 0.14869 0.70202 0.0
O2741 O 0.58267 0.12782 0.76508 0.0
O2742 O 0.55608 0.13209 0.72805 0.0
C2743 C 0.54127 0.09009 0.77232 0.0
C2744 C 0.52875 0.21052 0.7736 0.0
C2745 C 0.56751 0.11653 0.86036 0.0
C2746 C 0.61157 0.09864 0.87026 0.0
C2747 C 0.57795 0.10097 0.90435 0.0
C2748 C 0.5601 0.11263 0.88662 0.0
C2749 C 0.60391 0.09504 0.89653 0.0
C2750 C 0.5925 0.10726 0.85214 0.0
C2751 C 0.5551 0.13797 0.84469 0.0
C2752 C 0.6705 0.19086 0.80407 0.0
C2753 C 0.65796 0.21326 0.81462 0.0
H2754 H 0.68954 0.14269 0.79027 0.0
C2755 C 0.57072 0.18449 0.7417 0.0
C2756 C 0.57804 0.12416 0.73991 0.0
C2757 C 0.46784 0.15495 0.68491 0.0
C2758 C 0.44766 0.1657 0.64319 0.0
C2759 C 0.42711 0.13323 0.67169 0.0
C2760 C 0.44703 0.13738 0.69039 0.0
C2761 C 0.42722 0.1476 0.6482 0.0
C2762 C 0.46822 0.16877 0.66118 0.0
C2763 C 0.48853 0.1614 0.70383 0.0
H2764 H 0.57215 0.09787 0.92456 0.0
H2765 H 0.54127 0.12001 0.89376 0.0
H2766 H 0.61804 0.08795 0.91097 0.0
H2767 H 0.59805 0.10999 0.83215 0.0
H2768 H 0.41107 0.11965 0.67581 0.0
H2769 H 0.44578 0.12744 0.70916 0.0
H2770 H 0.41096 0.14538 0.63442 0.0
H2771 H 0.48367 0.18325 0.65743 0.0
C2772 C 0.18895 0.20211 1.01761 0.0
C2773 C 0.17617 0.19179 0.06235 0.0
C2774 C 0.17266 0.20688 0.03925 0.0
C2775 C 0.19598 0.17213 0.06335 0.0
C2776 C 0.2094 0.18304 1.01882 0.0
C2777 C 0.21264 0.1679 0.04172 0.0
N2778 N 0.18516 0.21652 0.99548 0.0
C2779 C 0.2013 0.21363 0.97408 0.0
C2780 C 0.22613 0.17991 0.99701 0.0
C2781 C 0.22222 0.19549 0.97463 0.0
Gd2782 Gd 0.1493 0.30228 0.03912 0.0
Gd2783 Gd 0.14952 0.24579 0.99609 0.0
N2784 N 0.15366 0.22623 0.03782 0.0
C2785 C 0.15967 0.19689 0.08386 0.0
C2786 C 0.13793 0.23151 0.05891 0.0
C2787 C 0.14061 0.21693 0.08217 0.0
H2788 H 0.12317 0.24668 0.05797 0.0
H2789 H 0.12787 0.22108 0.09878 0.0
H2790 H 0.17146 0.35916 1.01005 0.0
H2791 H 0.19799 0.22566 0.95674 0.0
H2792 H 0.15662 0.40515 1.00461 0.0
H2793 H 0.1616 0.18559 0.10189 0.0
H2794 H 0.19877 0.16025 0.0809 0.0
H2795 H 0.11486 0.27896 0.09122 0.0
H2796 H 0.24223 0.16569 0.99733 0.0
H2797 H 0.23509 0.19335 0.95775 0.0
H2798 H 0.07948 0.41183 0.05864 0.0
H2799 H 0.22804 0.15294 0.04294 0.0
H2800 H 0.05892 0.33848 0.11428 0.0
H2801 H 0.07942 0.29444 0.121 0.0
N2802 N 0.11436 0.31391 0.06773 0.0
C2803 C 0.10494 0.33913 0.06521 0.0
C2804 C 0.10614 0.29831 0.0882 0.0
C2805 C 0.07458 0.3319 0.10125 0.0
C2806 C 0.08612 0.30703 0.10511 0.0
C2807 C 0.08423 0.34849 0.08145 0.0
H2808 H 0.05851 0.38181 0.09036 0.0
N2809 N 0.13904 0.34785 0.03443 0.0
C2810 C 0.11733 0.3564 0.04781 0.0
C2811 C 0.1224 0.40037 0.02929 0.0
C2812 C 0.10849 0.38295 0.04558 0.0
C2813 C 0.15352 0.36532 1.01968 0.0
C2814 C 0.14525 0.39161 1.01664 0.0
O2815 O 0.19553 0.25797 1.0014 0.0
O2816 O 0.19338 0.28218 0.03898 0.0
O2817 O 0.17447 0.33004 0.05827 0.0
O2818 O 0.16279 0.29377 0.07916 0.0
O2819 O 0.10321 0.24918 1.01016 0.0
O2820 O 0.1033 0.28541 0.03748 0.0
O2821 O 0.13319 0.31659 1.001 0.0
O2822 O 0.11997 0.27639 0.98433 0.0
O2823 O 0.13897 0.20641 0.98067 0.0
O2824 O 0.13997 0.24057 0.95522 0.0
O2825 O 0.17424 0.31244 1.00337 0.0
O2826 O 0.17062 0.27773 0.97364 0.0
C2827 C 0.20891 0.27021 1.02076 0.0
C2828 C 0.08869 0.26651 0.02487 0.0
C2829 C 0.16674 0.3352 0.103 0.0
C2830 C 0.1675 0.37975 0.12192 0.0
C2831 C 0.1478 0.34316 0.14601 0.0
C2832 C 0.15398 0.32571 0.12555 0.0
C2833 C 0.15481 0.36993 0.14447 0.0
C2834 C 0.17333 0.36231 0.10138 0.0
C2835 C 0.17351 0.31765 0.08078 0.0
C2836 C 0.08664 0.39161 0.06032 0.0
C2837 C 0.07466 0.37448 0.07833 0.0
H2838 H 0.11617 0.42084 0.02704 0.0
C2839 C 0.12074 0.30223 0.98351 0.0
C2840 C 0.17876 0.30165 0.98011 0.0
C2841 C 0.14529 0.20003 0.93414 0.0
C2842 C 0.14057 0.19114 0.88747 0.0
C2843 C 0.17425 0.1682 0.91278 0.0
C2844 C 0.16521 0.18066 0.93569 0.0
C2845 C 0.16189 0.17332 0.88869 0.0
C2846 C 0.13309 0.20519 0.90993 0.0
C2847 C 0.13588 0.2153 0.95684 0.0
H2848 H 0.13802 0.33575 0.16329 0.0
H2849 H 0.14886 0.30493 0.12743 0.0
H2850 H 0.15093 0.38266 0.16114 0.0
H2851 H 0.18412 0.36981 0.08452 0.0
H2852 H 0.18993 0.15358 0.91391 0.0
H2853 H 0.17349 0.17484 0.95441 0.0
H2854 H 0.16752 0.16188 0.87149 0.0
H2855 H 0.11635 0.21872 0.90896 0.0
C2856 C 0.35452 0.81771 0.5142 0.0
C2857 C 0.36845 0.8333 0.55717 0.0
C2858 C 0.37222 0.81642 0.53515 0.0
C2859 C 0.34686 0.85089 0.55787 0.0
C2860 C 0.3325 0.83506 0.5151 0.0
C2861 C 0.32888 0.8517 0.53695 0.0
N2862 N 0.35853 0.80176 0.49307 0.0
C2863 C 0.34112 0.80177 0.47237 0.0
C2864 C 0.31461 0.83513 0.49401 0.0
C2865 C 0.31883 0.81823 0.47265 0.0
Gd2866 Gd 0.40277 0.73314 0.54916 0.0
Gd2867 Gd 0.39675 0.77508 0.49364 0.0
N2868 N 0.39309 0.7991 0.53399 0.0
C2869 C 0.38663 0.83232 0.57783 0.0
C2870 C 0.41109 0.79886 0.55407 0.0
C2871 C 0.40806 0.81508 0.57621 0.0
H2872 H 0.4281 0.78669 0.55358 0.0
H2873 H 0.42252 0.81442 0.59196 0.0
H2874 H 0.35761 0.68326 0.55131 0.0
H2875 H 0.34445 0.78873 0.45575 0.0
H2876 H 0.35783 0.63445 0.55496 0.0
H2877 H 0.38448 0.84499 0.59497 0.0
H2878 H 0.34387 0.86398 0.57457 0.0
H2879 H 0.45739 0.75371 0.58482 0.0
H2880 H 0.29745 0.84806 0.49409 0.0
H2881 H 0.30507 0.81803 0.4563 0.0
H2882 H 0.44697 0.61312 0.57931 0.0
H2883 H 0.31224 0.86528 0.53786 0.0
H2884 H 0.50368 0.68519 0.60285 0.0
H2885 H 0.49747 0.73382 0.6037 0.0
N2886 N 0.44088 0.71671 0.57193 0.0
C2887 C 0.44321 0.68991 0.57299 0.0
C2888 C 0.45966 0.73234 0.58407 0.0
C2889 C 0.486 0.6938 0.59426 0.0
C2890 C 0.48255 0.72121 0.59486 0.0
C2891 C 0.46597 0.67774 0.58383 0.0
H2892 H 0.48501 0.6403 0.59292 0.0
N2893 N 0.39923 0.68708 0.55749 0.0
C2894 C 0.4217 0.67463 0.56555 0.0
C2895 C 0.39955 0.63219 0.56337 0.0
C2896 C 0.42252 0.6468 0.56853 0.0
C2897 C 0.37604 0.67313 0.55551 0.0
C2898 C 0.376 0.64549 0.5577 0.0
O2899 O 0.35278 0.75973 0.50053 0.0
O2900 O 0.35743 0.75056 0.54379 0.0
O2901 O 0.37381 0.72714 0.57956 0.0
O2902 O 0.40798 0.7512 0.5884 0.0
O2903 O 0.44376 0.77909 0.5049 0.0
O2904 O 0.44699 0.74902 0.53801 0.0
O2905 O 0.4276 0.71325 0.51817 0.0
O2906 O 0.42513 0.7427 0.48332 0.0
O2907 O 0.4088 0.81161 0.4738 0.0
O2908 O 0.3966 0.77752 0.45101 0.0
O2909 O 0.38098 0.70933 0.51827 0.0
O2910 O 0.38169 0.7338 0.47987 0.0
C2911 C 0.34062 0.75484 0.52326 0.0
C2912 C 0.45987 0.76545 0.52149 0.0
C2913 C 0.39659 0.71507 0.61778 0.0
C2914 C 0.39024 0.66861 0.6311 0.0
C2915 C 0.4304 0.69188 0.64306 0.0
C2916 C 0.42095 0.71517 0.63115 0.0
C2917 C 0.41537 0.66855 0.64269 0.0
C2918 C 0.3809 0.69199 0.61921 0.0
C2919 C 0.38946 0.73579 0.598 0.0
C2920 C 0.44586 0.63451 0.57736 0.0
C2921 C 0.46752 0.64997 0.58508 0.0
H2922 H 0.39952 0.61074 0.5649 0.0
C2923 C 0.43377 0.72074 0.49417 0.0
C2924 C 0.37708 0.7113 0.49276 0.0
C2925 C 0.39963 0.8182 0.42794 0.0
C2926 C 0.41282 0.83409 0.38502 0.0
C2927 C 0.37029 0.84694 0.40294 0.0
C2928 C 0.37608 0.8329 0.42592 0.0
C2929 C 0.38864 0.84762 0.38251 0.0
C2930 C 0.41803 0.81902 0.40743 0.0
C2931 C 0.40608 0.80135 0.4505 0.0
H2932 H 0.44979 0.69162 0.65198 0.0
H2933 H 0.43332 0.73269 0.63115 0.0
H2934 H 0.42302 0.65078 0.65197 0.0
H2935 H 0.36163 0.69161 0.60975 0.0
H2936 H 0.35192 0.85791 0.40125 0.0
H2937 H 0.36243 0.83421 0.44198 0.0
H2938 H 0.38445 0.85943 0.36518 0.0
H2939 H 0.43679 0.80864 0.40925 0.0
C2940 C 0.72525 0.53572 0.85286 0.0
C2941 C 0.71032 0.49318 0.86914 0.0
C2942 C 0.72713 0.51549 0.87134 0.0
C2943 C 0.69192 0.49162 0.84839 0.0
C2944 C 0.70722 0.53397 0.83166 0.0
C2945 C 0.69043 0.51191 0.82967 0.0
N2946 N 0.74151 0.55692 0.85524 0.0
C2947 C 0.74122 0.57691 0.83701 0.0
C2948 C 0.70674 0.55434 0.81292 0.0
C2949 C 0.72401 0.57579 0.81548 0.0
Gd2950 Gd 0.81839 0.50965 0.9028 0.0
Gd2951 Gd 0.76921 0.5579 0.89219 0.0
N2952 N 0.74535 0.51744 0.8912 0.0
C2953 C 0.71246 0.47301 0.88783 0.0
C2954 C 0.74731 0.49766 0.90939 0.0
C2955 C 0.73109 0.47523 0.90797 0.0
H2956 H 0.76168 0.49839 0.92467 0.0
H2957 H 0.73306 0.4596 0.92242 0.0
H2958 H 0.87759 0.51724 0.87025 0.0
H2959 H 0.75456 0.59356 0.83912 0.0
H2960 H 0.92397 0.52469 0.88286 0.0
H2961 H 0.69993 0.4556 0.88683 0.0
H2962 H 0.67884 0.47468 0.84654 0.0
H2963 H 0.7945 0.46315 0.94428 0.0
H2964 H 0.69323 0.55361 0.79634 0.0
H2965 H 0.72391 0.59158 0.80106 0.0
H2966 H 0.92748 0.49842 0.97342 0.0
H2967 H 0.67632 0.51028 0.81365 0.0
H2968 H 0.85181 0.45178 1.00562 0.0
H2969 H 0.80868 0.44062 0.98534 0.0
N2970 N 0.82959 0.48628 0.94142 0.0
C2971 C 0.85459 0.49006 0.95044 0.0
C2972 C 0.8136 0.46765 0.95287 0.0
C2973 C 0.84585 0.46142 0.9875 0.0
C2974 C 0.82146 0.45508 0.97613 0.0
C2975 C 0.86309 0.47856 0.97428 0.0
H2976 H 0.89583 0.4748 1.00167 0.0
N2977 N 0.86476 0.50862 0.9091 0.0
C2978 C 0.87267 0.50219 0.93391 0.0
C2979 C 0.91771 0.51422 0.92344 0.0
C2980 C 0.89937 0.50471 0.94172 0.0
C2981 C 0.88313 0.51509 0.89053 0.0
C2982 C 0.90967 0.51873 0.89753 0.0
O2983 O 0.78169 0.54574 0.84796 0.0
O2984 O 0.80863 0.50999 0.85434 0.0
O2985 O 0.83387 0.47059 0.8999 0.0
O2986 O 0.79397 0.47879 0.88425 0.0
O2987 O 0.76577 0.54782 0.94033 0.0
O2988 O 0.79829 0.51711 0.94613 0.0
O2989 O 0.83517 0.54965 0.91727 0.0
O2990 O 0.79523 0.56789 0.92584 0.0
O2991 O 0.73218 0.57863 0.90036 0.0
O2992 O 0.76762 0.60094 0.89163 0.0
O2993 O 0.83562 0.53704 0.87281 0.0
O2994 O 0.80811 0.57374 0.87389 0.0
C2995 C 0.79497 0.5256 0.83674 0.0
C2996 C 0.77949 0.53215 0.95782 0.0
C2997 C 0.82229 0.44626 0.86304 0.0
C2998 C 0.8602 0.43175 0.83712 0.0
C2999 C 0.8209 0.40424 0.83959 0.0
C3000 C 0.80885 0.42292 0.85617 0.0
C3001 C 0.84674 0.40831 0.83059 0.0
C3002 C 0.84749 0.45113 0.85221 0.0
C3003 C 0.8138 0.46171 0.88619 0.0
C3004 C 0.90716 0.49623 0.96691 0.0
C3005 C 0.88911 0.48287 0.98306 0.0
H3006 H 0.93836 0.51667 0.92871 0.0
C3007 C 0.82083 0.56901 0.92736 0.0
C3008 C 0.83033 0.56175 0.86642 0.0
C3009 C 0.72697 0.62335 0.88513 0.0
C3010 C 0.71231 0.66904 0.88963 0.0
C3011 C 0.6904 0.63977 0.85862 0.0
C3012 C 0.70613 0.61867 0.86736 0.0
C3013 C 0.6932 0.6649 0.87 0.0
C3014 C 0.7308 0.64901 0.895 0.0
C3015 C 0.74263 0.602 0.89731 0.0
H3016 H 0.8107 0.38598 0.83477 0.0
H3017 H 0.78972 0.4185 0.86471 0.0
H3018 H 0.85641 0.39304 0.81901 0.0
H3019 H 0.85836 0.46889 0.8576 0.0
H3020 H 0.67448 0.63612 0.8448 0.0
H3021 H 0.70118 0.59879 0.86112 0.0
H3022 H 0.67849 0.67998 0.8659 0.0
H3023 H 0.74526 0.65215 0.91054 0.0
C3024 C 0.83039 0.52618 0.1895 0.0
C3025 C 0.84307 0.48486 0.16858 0.0
C3026 C 0.8267 0.50759 0.16952 0.0
C3027 C 0.86315 0.48138 0.18751 0.0
C3028 C 0.85018 0.52246 0.20887 0.0
C3029 C 0.86665 0.5001 0.2076 0.0
N3030 N 0.81428 0.54764 0.19036 0.0
C3031 C 0.81637 0.56581 0.21047 0.0
C3032 C 0.85265 0.54116 0.22918 0.0
C3033 C 0.83537 0.56271 0.23019 0.0
Gd3034 Gd 0.72789 0.51723 0.14407 0.0
Gd3035 Gd 0.78651 0.55359 0.15356 0.0
N3036 N 0.80712 0.51151 0.15128 0.0
C3037 C 0.83884 0.46621 0.14862 0.0
C3038 C 0.8027 0.49301 0.13212 0.0
C3039 C 0.81843 0.47018 0.13051 0.0
H3040 H 0.78678 0.49532 0.11832 0.0
H3041 H 0.81483 0.45564 0.11521 0.0
H3042 H 0.67884 0.52565 0.18937 0.0
H3043 H 0.80299 0.58255 0.21155 0.0
H3044 H 0.6303 0.53017 0.18938 0.0
H3045 H 0.85106 0.44857 0.14718 0.0
H3046 H 0.87598 0.46413 0.1869 0.0
H3047 H 0.74152 0.47386 0.09508 0.0
H3048 H 0.86749 0.53887 0.24444 0.0
H3049 H 0.83675 0.57704 0.24605 0.0
H3050 H 0.60407 0.50188 0.10301 0.0
H3051 H 0.88202 0.49699 0.22219 0.0
H3052 H 0.67116 0.46173 0.04959 0.0
H3053 H 0.71889 0.45364 0.05682 0.0
N3054 N 0.70719 0.49431 0.10868 0.0
C3055 C 0.68068 0.49699 0.10625 0.0
C3056 C 0.72073 0.47789 0.09181 0.0
C3057 C 0.68105 0.47086 0.06624 0.0
C3058 C 0.70799 0.46628 0.07023 0.0
C3059 C 0.66688 0.4858 0.08474 0.0
H3060 H 0.62835 0.48054 0.06666 0.0
N3061 N 0.68113 0.51542 0.14866 0.0
C3062 C 0.66714 0.50822 0.12694 0.0
C3063 C 0.62603 0.5189 0.1487 0.0
C3064 C 0.63926 0.50966 0.12633 0.0
C3065 C 0.66807 0.5218 0.17139 0.0
C3066 C 0.64046 0.52427 0.17156 0.0
O3067 O 0.77372 0.53901 0.19645 0.0
O3068 O 0.73184 0.52272 0.19289 0.0
O3069 O 0.72117 0.47553 0.14606 0.0
O3070 O 0.75672 0.49197 0.16464 0.0
O3071 O 0.78681 0.54381 0.10552 0.0
O3072 O 0.74729 0.52257 0.10015 0.0
O3073 O 0.72337 0.55736 0.12163 0.0
O3074 O 0.76533 0.57416 0.12088 0.0
O3075 O 0.82515 0.56922 0.14133 0.0
O3076 O 0.79781 0.59307 0.1651 0.0
O3077 O 0.71474 0.55015 0.16988 0.0
O3078 O 0.75031 0.57855 0.16739 0.0
C3079 C 0.75246 0.52986 0.20912 0.0
C3080 C 0.76907 0.53264 0.08829 0.0
C3081 C 0.73148 0.45691 0.18643 0.0
C3082 C 0.6939 0.43799 0.21172 0.0
C3083 C 0.73897 0.42011 0.21594 0.0
C3084 C 0.74864 0.43864 0.19807 0.0
C3085 C 0.71202 0.41922 0.22205 0.0
C3086 C 0.70433 0.45729 0.19427 0.0
C3087 C 0.74041 0.47154 0.16263 0.0
C3088 C 0.62547 0.5007 0.10394 0.0
C3089 C 0.63927 0.4886 0.08322 0.0
H3090 H 0.60464 0.52052 0.14898 0.0
C3091 C 0.74015 0.5767 0.11567 0.0
C3092 C 0.72492 0.57384 0.17225 0.0
C3093 C 0.83941 0.61299 0.1555 0.0
C3094 C 0.85677 0.65236 0.13514 0.0
C3095 C 0.86171 0.64623 0.18212 0.0
C3096 C 0.84801 0.62221 0.18019 0.0
C3097 C 0.86595 0.66147 0.1596 0.0
C3098 C 0.84422 0.6279 0.13302 0.0
C3099 C 0.82036 0.5916 0.15324 0.0
H3100 H 0.7523 0.40555 0.22433 0.0
H3101 H 0.76928 0.43783 0.19234 0.0
H3102 H 0.70557 0.4032 0.2346 0.0
H3103 H 0.69142 0.4722 0.18605 0.0
H3104 H 0.86827 0.65341 0.20113 0.0
H3105 H 0.84355 0.61138 0.19795 0.0
H3106 H 0.87586 0.68047 0.16127 0.0
H3107 H 0.83657 0.62138 0.11408 0.0
C3108 C 0.77697 0.5756 0.44436 0.0
C3109 C 0.81821 0.58763 0.42317 0.0
C3110 C 0.79461 0.57257 0.42342 0.0
C3111 C 0.82363 0.60559 0.44369 0.0
C3112 C 0.78253 0.59357 0.46508 0.0
C3113 C 0.80587 0.60854 0.46455 0.0
N3114 N 0.7543 0.56122 0.44443 0.0
C3115 C 0.73621 0.56418 0.46443 0.0
C3116 C 0.7643 0.59636 0.48564 0.0
C3117 C 0.74105 0.58155 0.48531 0.0
Gd3118 Gd 0.78422 0.47913 0.39201 0.0
Gd3119 Gd 0.74559 0.53735 0.40539 0.0
N3120 N 0.78873 0.55536 0.40334 0.0
C3121 C 0.83568 0.58448 0.40212 0.0
C3122 C 0.80598 0.55229 0.3829 0.0
C3123 C 0.82964 0.5666 0.38205 0.0
H3124 H 0.80226 0.53839 0.36749 0.0
H3125 H 0.84319 0.56389 0.36579 0.0
H3126 H 0.77492 0.43213 0.44009 0.0
H3127 H 0.71818 0.55265 0.46458 0.0
H3128 H 0.77012 0.38404 0.44312 0.0
H3129 H 0.85393 0.59572 0.40122 0.0
H3130 H 0.84154 0.61741 0.44358 0.0
H3131 H 0.82395 0.48858 0.34005 0.0
H3132 H 0.76794 0.60996 0.50181 0.0
H3133 H 0.72683 0.58352 0.50111 0.0
H3134 H 0.79585 0.35176 0.35814 0.0
H3135 H 0.81032 0.62256 0.48016 0.0
H3136 H 0.83536 0.41472 0.29989 0.0
H3137 H 0.84392 0.46279 0.30375 0.0
N3138 N 0.80543 0.45511 0.35765 0.0
C3139 C 0.80236 0.4285 0.35685 0.0
C3140 C 0.82019 0.46748 0.33872 0.0
C3141 C 0.8268 0.42585 0.31606 0.0
C3142 C 0.83147 0.45302 0.31804 0.0
C3143 C 0.8124 0.41314 0.3358 0.0
H3144 H 0.81615 0.3734 0.31976 0.0
N3145 N 0.78496 0.43213 0.39921 0.0
C3146 C 0.79151 0.41652 0.37841 0.0
C3147 C 0.78108 0.37686 0.40289 0.0
C3148 C 0.78969 0.38857 0.37956 0.0
C3149 C 0.77867 0.42043 0.42272 0.0
C3150 C 0.77605 0.39288 0.42471 0.0
O3151 O 0.75892 0.52028 0.4474 0.0
O3152 O 0.77825 0.47984 0.44033 0.0
O3153 O 0.82674 0.47877 0.39004 0.0
O3154 O 0.80739 0.50715 0.41566 0.0
O3155 O 0.75283 0.53955 0.35697 0.0
O3156 O 0.77693 0.50152 0.34929 0.0
O3157 O 0.74873 0.48001 0.36414 0.0
O3158 O 0.72042 0.51276 0.37938 0.0
O3159 O 0.73275 0.57776 0.39493 0.0
O3160 O 0.70779 0.55198 0.418 0.0
O3161 O 0.74965 0.46459 0.41451 0.0
O3162 O 0.72084 0.50028 0.41647 0.0
C3163 C 0.76967 0.49844 0.45801 0.0
C3164 C 0.76448 0.52316 0.3387 0.0
C3165 C 0.84423 0.48144 0.43213 0.0
C3166 C 0.85954 0.44082 0.45446 0.0
C3167 C 0.87476 0.48436 0.46892 0.0
C3168 C 0.85962 0.49672 0.44935 0.0
C3169 C 0.8747 0.45668 0.47153 0.0
C3170 C 0.84427 0.45333 0.4349 0.0
C3171 C 0.82935 0.49421 0.41028 0.0
C3172 C 0.79753 0.3732 0.35779 0.0
C3173 C 0.80902 0.3855 0.33594 0.0
H3174 H 0.77925 0.3555 0.40457 0.0
C3175 C 0.72571 0.49258 0.36411 0.0
C3176 C 0.72608 0.47448 0.41846 0.0
C3177 C 0.68779 0.59083 0.40297 0.0
C3178 C 0.64416 0.59373 0.3835 0.0
C3179 C 0.6583 0.62646 0.41588 0.0
C3180 C 0.68271 0.61375 0.41783 0.0
C3181 C 0.63904 0.61648 0.3989 0.0
C3182 C 0.66851 0.58067 0.38599 0.0
C3183 C 0.71144 0.57567 0.40905 0.0
H3184 H 0.88666 0.49629 0.48214 0.0
H3185 H 0.86014 0.51814 0.44748 0.0
H3186 H 0.88646 0.44759 0.48695 0.0
H3187 H 0.83259 0.44107 0.42181 0.0
H3188 H 0.65427 0.64402 0.42754 0.0
H3189 H 0.69731 0.62128 0.43162 0.0
H3190 H 0.62042 0.62706 0.39724 0.0
H3191 H 0.67231 0.56244 0.37523 0.0
C3192 C 0.77873 0.57492 0.60889 0.0
C3193 C 0.73923 0.58671 0.63297 0.0
C3194 C 0.76165 0.57023 0.62954 0.0
C3195 C 0.73465 0.60794 0.61563 0.0
C3196 C 0.77391 0.59585 0.59099 0.0
C3197 C 0.75194 0.61248 0.59466 0.0
N3198 N 0.79971 0.55853 0.60581 0.0
C3199 C 0.81624 0.56145 0.58462 0.0
C3200 C 0.79114 0.5993 0.56974 0.0
C3201 C 0.81228 0.58185 0.56643 0.0
Gd3202 Gd 0.76575 0.47382 0.65471 0.0
Gd3203 Gd 0.80723 0.52629 0.63876 0.0
N3204 N 0.76655 0.54929 0.64584 0.0
C3205 C 0.72186 0.58125 0.65358 0.0
C3206 C 0.74921 0.54386 0.66564 0.0
C3207 C 0.72677 0.55958 0.66984 0.0
H3208 H 0.75173 0.52673 0.67753 0.0
H3209 H 0.71314 0.55478 0.68553 0.0
H3210 H 0.76654 0.41461 0.62093 0.0
H3211 H 0.83237 0.54778 0.58131 0.0
H3212 H 0.77247 0.3675 0.63249 0.0
H3213 H 0.70442 0.59336 0.65685 0.0
H3214 H 0.7176 0.6208 0.61809 0.0
H3215 H 0.72506 0.50019 0.70194 0.0
H3216 H 0.78807 0.6151 0.5556 0.0
H3217 H 0.82549 0.58399 0.54982 0.0
H3218 H 0.75751 0.36511 0.72576 0.0
H3219 H 0.748 0.62872 0.58123 0.0
H3220 H 0.72176 0.444 0.76492 0.0
H3221 H 0.71061 0.48821 0.74679 0.0
N3222 N 0.74505 0.46348 0.69519 0.0
C3223 C 0.74892 0.43835 0.70374 0.0
C3224 C 0.72979 0.48077 0.70961 0.0
C3225 C 0.72808 0.44916 0.74521 0.0
C3226 C 0.72166 0.47409 0.73503 0.0
C3227 C 0.74115 0.43063 0.72924 0.0
H3228 H 0.74028 0.39818 0.75715 0.0
N3229 N 0.76203 0.42745 0.66055 0.0
C3230 C 0.75801 0.41971 0.68585 0.0
C3231 C 0.76677 0.3741 0.67401 0.0
C3232 C 0.76041 0.39288 0.69333 0.0
C3233 C 0.76576 0.40887 0.6413 0.0
C3234 C 0.76873 0.38204 0.64776 0.0
O3235 O 0.78953 0.51485 0.59713 0.0
O3236 O 0.76618 0.47687 0.60511 0.0
O3237 O 0.72435 0.4661 0.65618 0.0
O3238 O 0.73863 0.5006 0.63395 0.0
O3239 O 0.80153 0.53057 0.6878 0.0
O3240 O 0.77814 0.49312 0.69678 0.0
O3241 O 0.80761 0.46282 0.6697 0.0
O3242 O 0.82621 0.50406 0.67062 0.0
O3243 O 0.832 0.56111 0.64611 0.0
O3244 O 0.8462 0.52848 0.62242 0.0
O3245 O 0.79232 0.45425 0.62699 0.0
O3246 O 0.82391 0.48661 0.62044 0.0
C3247 C 0.7757 0.49482 0.58691 0.0
C3248 C 0.79062 0.51443 0.70681 0.0
C3249 C 0.70342 0.47314 0.61642 0.0
C3250 C 0.68779 0.43293 0.59409 0.0
C3251 C 0.66483 0.47502 0.58806 0.0
C3252 C 0.68273 0.48764 0.60502 0.0
C3253 C 0.66702 0.44776 0.583 0.0
C3254 C 0.70637 0.44597 0.60996 0.0
C3255 C 0.71876 0.48423 0.63868 0.0
C3256 C 0.75524 0.38553 0.71951 0.0
C3257 C 0.74548 0.40437 0.73741 0.0
H3258 H 0.76898 0.35329 0.67895 0.0
C3259 C 0.82739 0.47883 0.67579 0.0
C3260 C 0.81489 0.46193 0.61718 0.0
C3261 C 0.87823 0.55088 0.64568 0.0
C3262 C 0.90675 0.55793 0.68313 0.0
C3263 C 0.92492 0.53962 0.64288 0.0
C3264 C 0.89995 0.54109 0.63129 0.0
C3265 C 0.92838 0.54798 0.66879 0.0
C3266 C 0.88176 0.55943 0.67157 0.0
C3267 C 0.85205 0.55087 0.63348 0.0
H3268 H 0.64863 0.48619 0.57954 0.0
H3269 H 0.67981 0.50836 0.61002 0.0
H3270 H 0.65238 0.43819 0.57063 0.0
H3271 H 0.72193 0.43437 0.61898 0.0
H3272 H 0.94162 0.53225 0.63171 0.0
H3273 H 0.89753 0.53443 0.61113 0.0
H3274 H 0.94805 0.5475 0.67736 0.0
H3275 H 0.86529 0.56745 0.68273 0.0
C3276 C 0.44593 0.18691 0.31507 0.0
C3277 C 0.40272 0.17243 0.30029 0.0
C3278 C 0.43021 0.16808 0.30279 0.0
C3279 C 0.39164 0.19645 0.30919 0.0
C3280 C 0.43445 0.20979 0.32639 0.0
C3281 C 0.40746 0.21502 0.32239 0.0
N3282 N 0.47201 0.18144 0.31831 0.0
C3283 C 0.48689 0.19604 0.33568 0.0
C3284 C 0.45006 0.22582 0.34273 0.0
C3285 C 0.47604 0.21822 0.34829 0.0
Gd3286 Gd 0.54341 0.13683 0.25194 0.0
Gd3287 Gd 0.48837 0.14459 0.29439 0.0
N3288 N 0.44151 0.14482 0.29496 0.0
C3289 C 0.38705 0.15221 0.28966 0.0
C3290 C 0.42603 0.12459 0.2857 0.0
C3291 C 0.39869 0.12803 0.28281 0.0
H3292 H 0.43468 0.10575 0.28015 0.0
H3293 H 0.38662 0.11204 0.27513 0.0
H3294 H 0.54227 0.16814 0.31226 0.0
H3295 H 0.50721 0.19048 0.33964 0.0
H3296 H 0.57263 0.17443 0.34945 0.0
H3297 H 0.36587 0.1548 0.28737 0.0
H3298 H 0.37065 0.20034 0.30695 0.0
H3299 H 0.56332 0.08175 0.22219 0.0
H3300 H 0.44186 0.24328 0.35219 0.0
H3301 H 0.48778 0.22954 0.36215 0.0
H3302 H 0.64456 0.11491 0.33144 0.0
H3303 H 0.39842 0.23284 0.33035 0.0
H3304 H 0.63699 0.05771 0.25627 0.0
H3305 H 0.60237 0.05198 0.22219 0.0
N3306 N 0.57706 0.10519 0.25392 0.0
C3307 C 0.59488 0.10787 0.27357 0.0
C3308 C 0.579 0.08493 0.23615 0.0
C3309 C 0.6202 0.07111 0.25583 0.0
C3310 C 0.60075 0.06781 0.23655 0.0
C3311 C 0.61718 0.09101 0.27496 0.0
H3312 H 0.65269 0.08152 0.29697 0.0
N3313 N 0.56741 0.14156 0.29168 0.0
C3314 C 0.59001 0.12666 0.29299 0.0
C3315 C 0.60165 0.14697 0.3345 0.0
C3316 C 0.60775 0.12906 0.31436 0.0
C3317 C 0.56079 0.15789 0.31206 0.0
C3318 C 0.5779 0.16113 0.33353 0.0
O3319 O 0.47526 0.16504 0.25833 0.0
O3320 O 0.51462 0.16655 0.23601 0.0
O3321 O 0.57924 0.14178 0.22713 0.0
O3322 O 0.53958 0.14045 0.21062 0.0
O3323 O 0.47295 0.12364 0.25825 0.0
O3324 O 0.51075 0.11265 0.23508 0.0
O3325 O 0.532 0.09222 0.26471 0.0
O3326 O 0.49292 0.0961 0.28758 0.0
O3327 O 0.47817 0.14258 0.33482 0.0
O3328 O 0.51294 0.12043 0.32101 0.0
O3329 O 0.54392 0.18436 0.26083 0.0
O3330 O 0.50824 0.18863 0.28808 0.0
C3331 C 0.48963 0.17288 0.2386 0.0
C3332 C 0.48503 0.11323 0.23775 0.0
C3333 C 0.57278 0.13383 0.18024 0.0
C3334 C 0.57804 0.15003 0.13578 0.0
C3335 C 0.56569 0.10422 0.14302 0.0
C3336 C 0.56521 0.10893 0.17012 0.0
C3337 C 0.57189 0.12478 0.1258 0.0
C3338 C 0.57965 0.15396 0.16294 0.0
C3339 C 0.56452 0.1431 0.2061 0.0
C3340 C 0.63064 0.11312 0.31528 0.0
C3341 C 0.63532 0.09411 0.29565 0.0
H3342 H 0.61477 0.14945 0.35123 0.0
C3343 C 0.5119 0.07981 0.277 0.0
C3344 C 0.52754 0.20095 0.27419 0.0
C3345 C 0.48202 0.10154 0.35287 0.0
C3346 C 0.4374 0.08408 0.36032 0.0
C3347 C 0.47026 0.08309 0.39535 0.0
C3348 C 0.48883 0.09517 0.37885 0.0
C3349 C 0.44446 0.07837 0.38642 0.0
C3350 C 0.45676 0.09406 0.34329 0.0
C3351 C 0.49542 0.12412 0.34008 0.0
H3352 H 0.55983 0.08506 0.1353 0.0
H3353 H 0.55709 0.09377 0.18256 0.0
H3354 H 0.57135 0.12111 0.10479 0.0
H3355 H 0.58345 0.17372 0.17068 0.0
H3356 H 0.47537 0.07893 0.41564 0.0
H3357 H 0.50767 0.10141 0.38698 0.0
H3358 H 0.42984 0.07084 0.40005 0.0
H3359 H 0.45116 0.09909 0.32348 0.0
C3360 C 0.99464 0.94861 0.69128 0.0
C3361 C 1.01397 0.93795 0.64886 0.0
C3362 C 1.00856 0.93107 0.67518 0.0
C3363 C 1.00629 0.96302 0.63939 0.0
C3364 C 0.98492 0.97276 0.68114 0.0
C3365 C 0.99168 0.98033 0.65545 0.0
N3366 N 0.98851 0.94088 0.71612 0.0
C3367 C 0.96926 0.95389 0.73011 0.0
C3368 C 0.96764 0.98791 0.69669 0.0
C3369 C 0.95918 0.97805 0.72096 0.0
Gd3370 Gd 0.04512 0.89865 0.78992 0.0
Gd3371 Gd 1.01006 0.90205 0.73026 0.0
N3372 N 1.01504 0.9066 0.68468 0.0
C3373 C 0.02624 0.91911 0.63264 0.0
C3374 C 0.02576 0.88772 0.66863 0.0
C3375 C 0.03177 0.89379 0.64245 0.0
H3376 H 0.03003 0.86808 0.676 0.0
H3377 H 0.04073 0.87894 0.62985 0.0
H3378 H 0.98327 0.92484 0.78809 0.0
H3379 H 0.96305 0.94634 0.74902 0.0
H3380 H 0.94261 0.92156 0.81516 0.0
H3381 H 0.03084 0.92367 0.61232 0.0
H3382 H 1.01066 0.96881 0.61933 0.0
H3383 H 0.08506 0.85001 0.80945 0.0
H3384 H 0.95976 1.00661 0.68961 0.0
H3385 H 0.945 0.98907 0.73263 0.0
H3386 H 0.96416 0.85671 0.88112 0.0
H3387 H 0.98489 0.99909 0.64748 0.0
H3388 H 0.0498 0.81542 0.87796 0.0
H3389 H 0.08713 0.81806 0.84652 0.0
N3390 N 0.04676 0.86406 0.8197 0.0
C3391 C 0.02554 0.86224 0.83579 0.0
C3392 C 0.06847 0.84816 0.82275 0.0
C3393 C 0.04866 0.82903 0.86151 0.0
C3394 C 0.06975 0.83034 0.84375 0.0
C3395 C 0.02594 0.8446 0.85728 0.0
H3396 H 1.00361 0.8295 0.8903 0.0
N3397 N 1.00377 0.8954 0.80986 0.0
C3398 C 1.00334 0.87803 0.83055 0.0
C3399 C 0.95882 0.89175 0.841 0.0
C3400 C 0.98088 0.87594 0.84678 0.0
C3401 C 0.9825 0.91096 0.80422 0.0
C3402 C 0.95958 0.9092 0.81959 0.0
O3403 O 0.05045 0.91754 0.71951 0.0
O3404 O 0.06587 0.92551 0.76129 0.0
O3405 O 0.05689 0.9118 0.82939 0.0
O3406 O 0.08621 0.90416 0.7994 0.0
O3407 O 0.04376 0.87441 0.72159 0.0
O3408 O 0.0688 0.87544 0.76001 0.0
O3409 O 0.03308 0.85288 0.78049 0.0
O3410 O 1.01236 0.85407 0.74034 0.0
O3411 O 0.97525 0.89677 0.70809 0.0
O3412 O 0.97487 0.8858 0.75023 0.0
O3413 O 0.03087 0.94485 0.78802 0.0
O3414 O 1.01769 0.94685 0.74554 0.0
C3415 C 0.06823 0.92746 0.73567 0.0
C3416 C 0.06502 0.86819 0.73538 0.0
C3417 C 0.10116 0.90077 0.84267 0.0
C3418 C 0.14661 0.90283 0.85775 0.0
C3419 C 0.11438 0.87696 0.88199 0.0
C3420 C 0.09444 0.88576 0.86491 0.0
C3421 C 0.1405 0.88552 0.87849 0.0
C3422 C 0.12739 0.90826 0.83879 0.0
C3423 C 0.08192 0.91094 0.82362 0.0
C3424 C 0.98121 0.8584 0.86835 0.0
C3425 C 1.0037 0.8429 0.87364 0.0
H3426 H 0.94115 0.89073 0.853 0.0
C3427 C 1.02119 0.83902 0.76095 0.0
C3428 C 0.02421 0.96035 0.76733 0.0
C3429 C 0.94551 0.86321 0.71851 0.0
C3430 C 0.92727 0.83884 0.68081 0.0
C3431 C 0.90485 0.83794 0.72303 0.0
C3432 C 0.92424 0.85455 0.73394 0.0
C3433 C 0.90607 0.83047 0.69646 0.0
C3434 C 0.94728 0.85431 0.69211 0.0
C3435 C 0.96204 0.88586 0.72734 0.0
H3436 H 0.10938 0.86463 0.89867 0.0
H3437 H 0.07405 0.88078 0.86899 0.0
H3438 H 0.15526 0.87997 0.89285 0.0
H3439 H 0.13235 0.92101 0.82234 0.0
H3440 H 0.88827 0.83166 0.73494 0.0
H3441 H 0.92201 0.86153 0.75399 0.0
H3442 H 0.89035 0.81852 0.68806 0.0
H3443 H 0.96331 0.86086 0.67953 0.0
C3444 C 0.45236 0.83555 0.22348 0.0
C3445 C 0.40545 0.84074 0.23331 0.0
C3446 C 0.4315 0.85077 0.23358 0.0
C3447 C 0.40068 0.81507 0.22359 0.0
C3448 C 0.44712 0.81077 0.21167 0.0
C3449 C 0.42141 0.8002 0.21266 0.0
N3450 N 0.47724 0.84607 0.22302 0.0
C3451 C 0.49641 0.83507 0.20741 0.0
C3452 C 0.4676 0.79789 0.19814 0.0
C3453 C 0.49211 0.81045 0.19536 0.0
Gd3454 Gd 0.52934 0.89452 0.30609 0.0
Gd3455 Gd 0.48196 0.88576 0.24708 0.0
N3456 N 0.43662 0.87576 0.24276 0.0
C3457 C 0.38485 0.85702 0.24233 0.0
C3458 C 0.4164 0.89211 0.25014 0.0
C3459 C 0.39032 0.88296 0.25035 0.0
H3460 H 0.42038 0.91198 0.25617 0.0
H3461 H 0.37447 0.89591 0.25681 0.0
H3462 H 0.54224 0.86742 0.24596 0.0
H3463 H 0.51543 0.84474 0.20553 0.0
H3464 H 0.57826 0.8666 0.21377 0.0
H3465 H 0.36459 0.84998 0.24255 0.0
H3466 H 0.38085 0.80689 0.22362 0.0
H3467 H 0.54185 0.94528 0.34552 0.0
H3468 H 0.46435 0.77882 0.18879 0.0
H3469 H 0.50769 0.80112 0.18403 0.0
H3470 H 0.64035 0.93044 0.24686 0.0
H3471 H 0.41717 0.78088 0.20423 0.0
H3472 H 0.61629 0.97947 0.32418 0.0
H3473 H 0.57725 0.97827 0.35354 0.0
N3474 N 0.56125 0.92744 0.31313 0.0
C3475 C 0.58222 0.92792 0.29663 0.0
C3476 C 0.55923 0.94521 0.33333 0.0
C3477 C 0.60102 0.96471 0.32098 0.0
C3478 C 0.57905 0.96408 0.33761 0.0
C3479 C 0.60273 0.94663 0.30005 0.0
H3480 H 0.63989 0.9612 0.28454 0.0
N3481 N 0.56144 0.89381 0.27223 0.0
C3482 C 0.58235 0.91056 0.27551 0.0
C3483 C 0.60197 0.89496 0.235 0.0
C3484 C 0.6032 0.91154 0.25706 0.0
C3485 C 0.55952 0.87887 0.24992 0.0
C3486 C 0.57986 0.87883 0.23125 0.0
O3487 O 0.45702 0.86585 0.27843 0.0
O3488 O 0.49472 0.87729 0.29019 0.0
O3489 O 0.55554 0.88046 0.33772 0.0
O3490 O 0.51467 0.88965 0.34524 0.0
O3491 O 0.46366 0.91515 0.27608 0.0
O3492 O 0.49101 0.91892 0.31363 0.0
O3493 O 0.52407 0.93871 0.29094 0.0
O3494 O 0.49511 0.93366 0.25539 0.0
O3495 O 0.4658 0.88776 0.20845 0.0
O3496 O 0.5025 0.90869 0.21625 0.0
O3497 O 0.53122 0.84701 0.29446 0.0
O3498 O 0.50459 0.84338 0.25732 0.0
C3499 C 0.47351 0.86474 0.29741 0.0
C3500 C 0.46877 0.92431 0.30017 0.0
C3501 C 0.54336 0.8941 0.38113 0.0
C3502 C 0.56197 0.88663 0.42449 0.0
C3503 C 0.53527 0.92578 0.41643 0.0
C3504 C 0.53092 0.91727 0.39059 0.0
C3505 C 0.55067 0.91045 0.43346 0.0
C3506 C 0.5592 0.87924 0.39806 0.0
C3507 C 0.537 0.88255 0.35535 0.0
C3508 C 0.62415 0.92953 0.26077 0.0
C3509 C 0.62389 0.94707 0.28221 0.0
H3510 H 0.61755 0.89509 0.22037 0.0
C3511 C 0.51 0.95032 0.27159 0.0
C3512 C 0.51958 0.83096 0.27591 0.0
C3513 C 0.46911 0.92819 0.18762 0.0
C3514 C 0.42738 0.95018 0.1764 0.0
C3515 C 0.46845 0.96383 0.15557 0.0
C3516 C 0.48245 0.94452 0.16975 0.0
C3517 C 0.44104 0.96665 0.1588 0.0
C3518 C 0.44153 0.93158 0.19104 0.0
C3519 C 0.48244 0.90522 0.2 0.0
H3520 H 0.52584 0.94372 0.42356 0.0
H3521 H 0.51728 0.92839 0.3784 0.0
H3522 H 0.55286 0.9166 0.4538 0.0
H3523 H 0.56831 0.86105 0.39097 0.0
H3524 H 0.47879 0.97636 0.14172 0.0
H3525 H 0.50347 0.94194 0.16635 0.0
H3526 H 0.43047 0.98148 0.14746 0.0
H3527 H 0.43063 0.91935 0.20471 0.0
C3528 C 0.95381 0.69318 0.97865 0.0
C3529 C 0.93947 0.64906 0.99136 0.0
C3530 C 0.93451 0.67656 0.98916 0.0
C3531 C 0.96418 0.63875 0.98381 0.0
C3532 C 0.9779 0.68253 0.96936 0.0
C3533 C 0.9833 0.65541 0.97275 0.0
N3534 N 0.94819 0.71945 0.97577 0.0
C3535 C 0.96418 0.73522 0.96071 0.0
C3536 C 0.99547 0.69925 0.95606 0.0
C3537 C 0.98824 0.72552 0.95111 0.0
Gd3538 Gd 0.89949 0.78614 0.0538 0.0
Gd3539 Gd 0.90915 0.73444 0.99666 0.0
N3540 N 0.9107 0.68718 0.99645 0.0
C3541 C 0.91929 0.6326 1.0006 0.0
C3542 C 0.89043 0.67075 1.00381 0.0
C3543 C 0.89454 0.64342 1.00631 0.0
H3544 H 0.87077 0.67835 1.00738 0.0
H3545 H 0.87851 0.63068 1.01256 0.0
H3546 H 0.92995 0.80338 0.99652 0.0
H3547 H 0.95854 0.75552 0.95655 0.0
H3548 H 0.92778 0.83889 0.96384 0.0
H3549 H 0.92236 0.6114 1.0026 0.0
H3550 H 0.96842 0.61774 0.98572 0.0
H3551 H 0.84617 0.79345 0.09073 0.0
H3552 H 1.01415 0.69179 0.94863 0.0
H3553 H 1.00121 0.73833 0.93994 0.0
H3554 H 0.85452 0.89263 0.99172 0.0
H3555 H 1.00191 0.64698 0.96618 0.0
H3556 H 0.80532 0.86408 0.0671 0.0
H3557 H 0.80952 0.82558 0.09701 0.0
N3558 N 0.86319 0.8146 0.05896 0.0
C3559 C 0.86102 0.83519 0.04209 0.0
C3560 C 0.84496 0.81087 0.07841 0.0
C3561 C 0.8217 0.85039 0.06472 0.0
C3562 C 0.824 0.82871 0.08166 0.0
C3563 C 0.84019 0.85374 0.04448 0.0
H3564 H 0.82239 0.88912 0.02789 0.0
N3565 N 0.89815 0.81791 1.01957 0.0
C3566 C 0.87902 0.83689 1.02171 0.0
C3567 C 0.89473 0.8584 0.9823 0.0
C3568 C 0.87676 0.8576 1.00315 0.0
C3569 C 0.91528 0.8184 0.99889 0.0
C3570 C 0.91396 0.83862 0.98009 0.0
O3571 O 0.93363 0.71405 0.02832 0.0
O3572 O 0.91908 0.75032 0.04149 0.0
O3573 O 0.92067 0.81326 0.08031 0.0
O3574 O 0.89749 0.78104 0.09585 0.0
O3575 O 0.88159 0.71817 0.02771 0.0
O3576 O 0.8804 0.74692 0.06429 0.0
O3577 O 0.85544 0.77658 0.03847 0.0
O3578 O 0.861 0.74639 1.00396 0.0
O3579 O 0.90997 0.72033 0.95697 0.0
O3580 O 0.88639 0.75511 0.96571 0.0
O3581 O 0.94677 0.78478 0.04304 0.0
O3582 O 0.94938 0.7612 1.00382 0.0
C3583 C 0.9333 0.72973 0.04812 0.0
C3584 C 0.87493 0.72427 0.05209 0.0
C3585 C 0.9082 0.81541 0.12572 0.0
C3586 C 0.92663 0.83474 0.16551 0.0
C3587 C 0.87922 0.82854 0.16163 0.0
C3588 C 0.88275 0.81739 0.13674 0.0
C3589 C 0.90108 0.83703 0.17608 0.0
C3590 C 0.93012 0.8244 0.14017 0.0
C3591 C 0.91313 0.80062 0.10127 0.0
C3592 C 0.85647 0.87658 1.00576 0.0
C3593 C 0.83819 0.87462 0.02636 0.0
H3594 H 0.89372 0.87397 0.96765 0.0
C3595 C 0.84401 0.76137 1.01966 0.0
C3596 C 0.96226 0.7744 1.02351 0.0
C3597 C 0.86974 0.72152 0.93564 0.0
C3598 C 0.84794 0.67892 0.92707 0.0
C3599 C 0.83713 0.71775 0.90073 0.0
C3600 C 0.85527 0.73306 0.91509 0.0
C3601 C 0.8334 0.69086 0.9067 0.0
C3602 C 0.86582 0.69434 0.94137 0.0
C3603 C 0.89157 0.73607 0.94872 0.0
H3604 H 0.85959 0.8299 0.17004 0.0
H3605 H 0.86567 0.80958 0.12676 0.0
H3606 H 0.89814 0.84504 0.19568 0.0
H3607 H 0.94994 0.82212 0.1323 0.0
H3608 H 0.82615 0.72667 0.8847 0.0
H3609 H 0.85846 0.75362 0.90976 0.0
H3610 H 0.8194 0.67931 0.89527 0.0
H3611 H 0.87719 0.68473 0.9565 0.0
C3612 C 0.60756 0.36173 0.48571 0.0
C3613 C 0.62253 0.40463 0.50133 0.0
C3614 C 0.62648 0.37706 0.49822 0.0
C3615 C 0.59874 0.41622 0.49275 0.0
C3616 C 0.58441 0.37361 0.47546 0.0
C3617 C 0.57976 0.40076 0.47973 0.0
N3618 N 0.61257 0.33552 0.48208 0.0
C3619 C 0.59646 0.32074 0.46595 0.0
C3620 C 0.56701 0.35807 0.46053 0.0
C3621 C 0.57334 0.33163 0.45534 0.0
Gd3622 Gd 0.65502 0.26546 0.55312 0.0
Gd3623 Gd 0.6505 0.31823 0.50384 0.0
N3624 N 0.64935 0.36523 0.50613 0.0
C3625 C 0.64287 0.41985 0.51233 0.0
C3626 C 0.67003 0.38045 0.51484 0.0
C3627 C 0.66692 0.40778 0.5186 0.0
H3628 H 0.68919 0.37185 0.51876 0.0
H3629 H 0.68318 0.41954 0.52615 0.0
H3630 H 0.6294 0.26744 0.49062 0.0
H3631 H 0.60094 0.30009 0.46204 0.0
H3632 H 0.62573 0.23856 0.45225 0.0
H3633 H 0.64056 0.44105 0.51518 0.0
H3634 H 0.5952 0.43729 0.49534 0.0
H3635 H 0.70938 0.24253 0.58649 0.0
H3636 H 0.54907 0.36648 0.45228 0.0
H3637 H 0.56039 0.31958 0.44325 0.0
H3638 H 0.68313 0.16565 0.47199 0.0
H3639 H 0.56188 0.41013 0.47243 0.0
H3640 H 0.73501 0.17063 0.55048 0.0
H3641 H 0.73863 0.20398 0.58597 0.0
N3642 N 0.68721 0.23091 0.5523 0.0
C3643 C 0.68591 0.21352 0.532 0.0
C3644 C 0.70644 0.22786 0.57125 0.0
C3645 C 0.72157 0.18742 0.5508 0.0
C3646 C 0.72363 0.20613 0.57087 0.0
C3647 C 0.70288 0.19116 0.53081 0.0
H3648 H 0.71394 0.15631 0.50828 0.0
N3649 N 0.65414 0.24181 0.51248 0.0
C3650 C 0.66877 0.21905 0.51152 0.0
C3651 C 0.65168 0.20879 0.46819 0.0
C3652 C 0.6679 0.20196 0.48939 0.0
C3653 C 0.63953 0.24903 0.49109 0.0
C3654 C 0.63774 0.23264 0.4689 0.0
O3655 O 0.62888 0.33594 0.53765 0.0
O3656 O 0.62636 0.29806 0.56283 0.0
O3657 O 0.63259 0.23883 0.57915 0.0
O3658 O 0.66713 0.2589 0.59305 0.0
O3659 O 0.67943 0.32981 0.53531 0.0
O3660 O 0.66862 0.30445 0.57099 0.0
O3661 O 0.70039 0.27498 0.54337 0.0
O3662 O 0.69687 0.3046 0.50946 0.0
O3663 O 0.67559 0.33547 0.47512 0.0
O3664 O 0.65112 0.302 0.4634 0.0
O3665 O 0.6083 0.26361 0.53938 0.0
O3666 O 0.606 0.29956 0.51179 0.0
C3667 C 0.61936 0.32258 0.55748 0.0
C3668 C 0.67934 0.32563 0.56067 0.0
C3669 C 0.63276 0.25795 0.62226 0.0
C3670 C 0.6147 0.25482 0.6662 0.0
C3671 C 0.61957 0.29792 0.64619 0.0
C3672 C 0.63047 0.28584 0.62406 0.0
C3673 C 0.6115 0.28243 0.66724 0.0
C3674 C 0.62508 0.2425 0.64366 0.0
C3675 C 0.64643 0.24575 0.5997 0.0
C3676 C 0.68375 0.17902 0.48873 0.0
C3677 C 0.70127 0.17367 0.50937 0.0
H3678 H 0.65041 0.19621 0.4509 0.0
C3679 C 0.71285 0.28992 0.52545 0.0
C3680 C 0.59267 0.2802 0.52481 0.0
C3681 C 0.65443 0.34084 0.43503 0.0
C3682 C 0.65291 0.3862 0.41772 0.0
C3683 C 0.62367 0.35232 0.39999 0.0
C3684 C 0.63451 0.33341 0.41719 0.0
C3685 C 0.63286 0.37859 0.40015 0.0
C3686 C 0.66363 0.36729 0.43471 0.0
C3687 C 0.66497 0.32266 0.45556 0.0
H3688 H 0.61767 0.31932 0.64711 0.0
H3689 H 0.63782 0.29858 0.60883 0.0
H3690 H 0.60291 0.29192 0.68439 0.0
H3691 H 0.6272 0.22108 0.64288 0.0
H3692 H 0.6083 0.34653 0.38628 0.0
H3693 H 0.62708 0.31326 0.41681 0.0
H3694 H 0.62495 0.3927 0.38614 0.0
H3695 H 0.67981 0.37336 0.44744 0.0
C3696 C 0.20824 0.56313 0.09071 0.0
C3697 C 0.1624 0.54866 0.0882 0.0
C3698 C 0.18693 0.54947 0.10163 0.0
C3699 C 0.15984 0.56073 0.06347 0.0
C3700 C 0.20513 0.57645 0.06641 0.0
C3701 C 0.1811 0.57463 0.05265 0.0
N3702 N 0.23154 0.56455 0.10429 0.0
C3703 C 0.251 0.58154 0.09598 0.0
C3704 C 0.22594 0.59197 0.05694 0.0
C3705 C 0.24878 0.59491 0.07204 0.0
Gd3706 Gd 0.27998 0.4859 0.1536 0.0
Gd3707 Gd 0.23268 0.53985 0.1441 0.0
N3708 N 0.18962 0.53821 0.12583 0.0
C3709 C 0.14081 0.53634 0.10026 0.0
C3710 C 0.16803 0.52754 0.13823 0.0
C3711 C 0.14357 0.52605 0.12553 0.0
H3712 H 0.16979 0.51948 0.15768 0.0
H3713 H 0.12686 0.51696 0.13529 0.0
H3714 H 0.27554 0.55005 0.13561 0.0
H3715 H 0.26839 0.58452 0.10756 0.0
H3716 H 0.30539 0.58885 0.12835 0.0
H3717 H 0.12175 0.53526 0.0905 0.0
H3718 H 0.14123 0.56005 0.05284 0.0
H3719 H 0.30999 0.45198 0.20321 0.0
H3720 H 0.22422 0.60251 0.03844 0.0
H3721 H 0.26462 0.60766 0.06537 0.0
H3722 H 0.38871 0.56013 0.16155 0.0
H3723 H 0.17854 0.5845 0.03388 0.0
H3724 H 0.38886 0.48032 0.21222 0.0
H3725 H 0.35353 0.44859 0.22383 0.0
N3726 N 0.32043 0.48405 0.17765 0.0
C3727 C 0.33895 0.5026 0.17251 0.0
C3728 C 0.32518 0.46548 0.19682 0.0
C3729 C 0.36979 0.48154 0.20246 0.0
C3730 C 0.34993 0.46364 0.20906 0.0
C3731 C 0.36421 0.50182 0.18455 0.0
H3732 H 0.40205 0.52173 0.18833 0.0
N3733 N 0.3058 0.52513 0.14931 0.0
C3734 C 0.33138 0.52398 0.15767 0.0
C3735 C 0.33958 0.56846 0.14229 0.0
C3736 C 0.349 0.54544 0.1542 0.0
C3737 C 0.29616 0.54831 0.13959 0.0
C3738 C 0.31288 0.57023 0.13574 0.0
O3739 O 0.21335 0.50078 0.13318 0.0
O3740 O 0.24989 0.47663 0.12232 0.0
O3741 O 0.30366 0.45245 0.13807 0.0
O3742 O 0.27727 0.44759 0.17086 0.0
O3743 O 0.21483 0.51339 0.17441 0.0
O3744 O 0.24208 0.47693 0.17719 0.0
O3745 O 0.27308 0.50164 0.19717 0.0
O3746 O 0.25272 0.54137 0.18898 0.0
O3747 O 0.20378 0.56249 0.16468 0.0
O3748 O 0.23925 0.58255 0.15089 0.0
O3749 O 0.28082 0.49453 0.10536 0.0
O3750 O 0.25207 0.52955 0.10074 0.0
C3751 C 0.2242 0.47955 0.12292 0.0
C3752 C 0.22025 0.48982 0.1838 0.0
C3753 C 0.28224 0.41001 0.14489 0.0
C3754 C 0.28293 0.3726 0.11481 0.0
C3755 C 0.25268 0.37239 0.15149 0.0
C3756 C 0.26338 0.39629 0.16019 0.0
C3757 C 0.26172 0.361 0.12832 0.0
C3758 C 0.29229 0.39775 0.1223 0.0
C3759 C 0.29268 0.43571 0.15431 0.0
C3760 C 0.37489 0.54394 0.1643 0.0
C3761 C 0.38249 0.52212 0.17953 0.0
H3762 H 0.35232 0.58551 0.1395 0.0
C3763 C 0.26311 0.52411 0.20722 0.0
C3764 C 0.26847 0.51205 0.0886 0.0
C3765 C 0.19704 0.60563 0.15111 0.0
C3766 C 0.1531 0.62529 0.15483 0.0
C3767 C 0.18341 0.64053 0.12109 0.0
C3768 C 0.20264 0.62249 0.12989 0.0
C3769 C 0.15875 0.64213 0.13364 0.0
C3770 C 0.17223 0.60726 0.16335 0.0
C3771 C 0.21539 0.58511 0.16081 0.0
H3772 H 0.23779 0.36235 0.16306 0.0
H3773 H 0.25633 0.40431 0.17871 0.0
H3774 H 0.25409 0.34178 0.12241 0.0
H3775 H 0.30874 0.40667 0.11188 0.0
H3776 H 0.18783 0.65368 0.10486 0.0
H3777 H 0.22167 0.62184 0.12021 0.0
H3778 H 0.14455 0.65701 0.12747 0.0
H3779 H 0.168 0.59492 0.18033 0.0
C3780 C 0.33877 0.55993 0.95257 0.0
C3781 C 0.3846 0.54497 0.95182 0.0
C3782 C 0.35924 0.54613 0.94003 0.0
C3783 C 0.38872 0.5563 0.97674 0.0
C3784 C 0.34381 0.57343 0.97649 0.0
C3785 C 0.36846 0.57065 0.98895 0.0
N3786 N 0.31469 0.56208 0.94044 0.0
C3787 C 0.29677 0.58062 0.94908 0.0
C3788 C 0.32441 0.59045 0.98662 0.0
C3789 C 0.30107 0.59452 0.97252 0.0
Gd3790 Gd 0.2642 0.48646 0.89271 0.0
Gd3791 Gd 0.31061 0.538 0.90062 0.0
N3792 N 0.35515 0.53609 0.91537 0.0
C3793 C 0.40555 0.53372 0.93767 0.0
C3794 C 0.37613 0.52676 0.90089 0.0
C3795 C 0.40143 0.52527 0.91188 0.0
H3796 H 0.3733 0.52019 0.88096 0.0
H3797 H 0.41782 0.5178 0.90035 0.0
H3798 H 0.26573 0.54849 0.91843 0.0
H3799 H 0.27916 0.58486 0.93798 0.0
H3800 H 0.23542 0.58662 0.9245 0.0
H3801 H 0.42525 0.53258 0.94607 0.0
H3802 H 0.40795 0.55519 0.98618 0.0
H3803 H 0.2409 0.45203 0.84156 0.0
H3804 H 0.32769 0.60133 1.00477 0.0
H3805 H 0.28646 0.60857 0.97957 0.0
H3806 H 0.16088 0.56435 0.87072 0.0
H3807 H 0.3724 0.58042 1.00758 0.0
H3808 H 0.16662 0.48542 0.81827 0.0
H3809 H 0.20097 0.4507 0.81339 0.0
N3810 N 0.2286 0.48598 0.86294 0.0
C3811 C 0.2106 0.50576 0.86521 0.0
C3812 C 0.22565 0.46668 0.84424 0.0
C3813 C 0.18392 0.48577 0.83089 0.0
C3814 C 0.20324 0.46614 0.82808 0.0
C3815 C 0.18762 0.50612 0.84936 0.0
H3816 H 0.15157 0.52758 0.84014 0.0
N3817 N 0.23925 0.52609 0.89605 0.0
C3818 C 0.216 0.52639 0.88239 0.0
C3819 C 0.20512 0.56953 0.90022 0.0
C3820 C 0.19828 0.54804 0.88419 0.0
C3821 C 0.24661 0.54778 0.91009 0.0
C3822 C 0.2296 0.56959 0.91288 0.0
O3823 O 0.33192 0.49937 0.90884 0.0
O3824 O 0.29637 0.47534 0.92159 0.0
O3825 O 0.22993 0.45987 0.9003 0.0
O3826 O 0.26938 0.44487 0.89554 0.0
O3827 O 0.3269 0.51348 0.86798 0.0
O3828 O 0.30075 0.47594 0.86671 0.0
O3829 O 0.27047 0.49929 0.84757 0.0
O3830 O 0.29191 0.53866 0.85428 0.0
O3831 O 0.33903 0.56622 0.89028 0.0
O3832 O 0.29685 0.57861 0.88961 0.0
O3833 O 0.26166 0.49669 0.94045 0.0
O3834 O 0.2946 0.52712 0.94521 0.0
C3835 C 0.32197 0.4777 0.91875 0.0
C3836 C 0.32191 0.48959 0.85897 0.0
C3837 C 0.23641 0.41377 0.88794 0.0
C3838 C 0.22144 0.36953 0.8993 0.0
C3839 C 0.24619 0.37641 0.85907 0.0
C3840 C 0.24883 0.40327 0.86538 0.0
C3841 C 0.23291 0.35942 0.87619 0.0
C3842 C 0.22167 0.39697 0.90399 0.0
C3843 C 0.24503 0.43897 0.89964 0.0
C3844 C 0.17476 0.54797 0.86937 0.0
C3845 C 0.16946 0.52707 0.85195 0.0
H3846 H 0.1921 0.58653 0.90219 0.0
C3847 C 0.28005 0.52152 0.83647 0.0
C3848 C 0.27651 0.51167 0.95745 0.0
C3849 C 0.33254 0.61073 0.8784 0.0
C3850 C 0.37291 0.63356 0.86552 0.0
C3851 C 0.3373 0.65767 0.8874 0.0
C3852 C 0.32219 0.63447 0.88843 0.0
C3853 C 0.36276 0.65714 0.87658 0.0
C3854 C 0.3574 0.6107 0.86603 0.0
C3855 C 0.32198 0.58525 0.88703 0.0
H3856 H 0.25601 0.36843 0.84186 0.0
H3857 H 0.262 0.41525 0.85358 0.0
H3858 H 0.23291 0.3383 0.87215 0.0
H3859 H 0.21272 0.40488 0.92176 0.0
H3860 H 0.32971 0.67587 0.89591 0.0
H3861 H 0.3034 0.63468 0.89867 0.0
H3862 H 0.37452 0.67511 0.877 0.0
H3863 H 0.36529 0.59241 0.85784 0.0
C3864 C 0.23203 0.6235 0.68816 0.0
C3865 C 0.23965 0.66509 0.6661 0.0
C3866 C 0.24103 0.6371 0.66666 0.0
C3867 C 0.2309 0.679 0.68848 0.0
C3868 C 0.2217 0.63718 0.71017 0.0
C3869 C 0.22201 0.66503 0.71056 0.0
N3870 N 0.23173 0.59675 0.68676 0.0
C3871 C 0.21956 0.5824 0.70623 0.0
C3872 C 0.21069 0.62248 0.73074 0.0
C3873 C 0.20919 0.59494 0.72851 0.0
Gd3874 Gd 0.29508 0.51956 0.63976 0.0
Gd3875 Gd 0.25568 0.57605 0.65198 0.0
N3876 N 0.24951 0.62282 0.64561 0.0
C3877 C 0.24641 0.6782 0.64286 0.0
C3878 C 0.25491 0.63565 0.62244 0.0
C3879 C 0.25356 0.66336 0.62079 0.0
H3880 H 0.26051 0.62471 0.60503 0.0
H3881 H 0.25821 0.67326 0.60248 0.0
H3882 H 0.23709 0.51199 0.6746 0.0
H3883 H 0.21827 0.56099 0.70485 0.0
H3884 H 0.19931 0.48173 0.67432 0.0
H3885 H 0.24554 0.69965 0.64158 0.0
H3886 H 0.23025 0.7005 0.68864 0.0
H3887 H 0.32525 0.50941 0.57951 0.0
H3888 H 0.20261 0.63221 0.748 0.0
H3889 H 0.20013 0.58333 0.74397 0.0
H3890 H 0.21061 0.42919 0.59677 0.0
H3891 H 0.21462 0.67592 0.72745 0.0
H3892 H 0.28314 0.44764 0.53998 0.0
H3893 H 0.31998 0.4797 0.54132 0.0
N3894 N 0.29129 0.49459 0.59994 0.0
C3895 C 0.27036 0.47773 0.59911 0.0
C3896 C 0.30882 0.49561 0.57906 0.0
C3897 C 0.28518 0.46081 0.55676 0.0
C3898 C 0.30598 0.47883 0.5574 0.0
C3899 C 0.26701 0.46017 0.57753 0.0
H3900 H 0.24292 0.42889 0.56084 0.0
N3901 N 0.2547 0.49588 0.63992 0.0
C3902 C 0.25181 0.47826 0.61954 0.0
C3903 C 0.21117 0.46191 0.63873 0.0
C3904 C 0.22992 0.4608 0.61859 0.0
C3905 C 0.23598 0.49728 0.65929 0.0
C3906 C 0.21407 0.4804 0.65896 0.0
O3907 O 0.29219 0.57497 0.67958 0.0
O3908 O 0.32214 0.54681 0.66005 0.0
O3909 O 0.31761 0.4946 0.6672 0.0
O3910 O 0.32541 0.49245 0.6264 0.0
O3911 O 0.28817 0.5926 0.62823 0.0
O3912 O 0.31814 0.55792 0.62744 0.0
O3913 O 0.28438 0.53709 0.59664 0.0
O3914 O 0.26011 0.57493 0.60306 0.0
O3915 O 0.21367 0.56811 0.65441 0.0
O3916 O 0.238 0.54405 0.62907 0.0
O3917 O 0.28185 0.51664 0.68727 0.0
O3918 O 0.26571 0.55803 0.69556 0.0
C3919 C 0.31574 0.56334 0.67857 0.0
C3920 C 0.31216 0.58367 0.62485 0.0
C3921 C 0.36226 0.49534 0.65358 0.0
C3922 C 0.40259 0.49112 0.67943 0.0
C3923 C 0.40282 0.51581 0.63823 0.0
C3924 C 0.37606 0.51038 0.63475 0.0
C3925 C 0.41623 0.50561 0.65995 0.0
C3926 C 0.37513 0.4876 0.67659 0.0
C3927 C 0.3345 0.48776 0.64935 0.0
C3928 C 0.22717 0.44283 0.59757 0.0
C3929 C 0.24558 0.44259 0.57711 0.0
H3930 H 0.19415 0.44884 0.63863 0.0
C3931 C 0.27115 0.55739 0.58542 0.0
C3932 C 0.2736 0.5346 0.70597 0.0
C3933 C 0.19848 0.56385 0.61193 0.0
C3934 C 0.18592 0.60407 0.5877 0.0
C3935 C 0.16144 0.56295 0.58153 0.0
C3936 C 0.17794 0.5499 0.59966 0.0
C3937 C 0.16524 0.58994 0.57572 0.0
C3938 C 0.2022 0.59083 0.60562 0.0
C3939 C 0.21402 0.55262 0.63402 0.0
H3940 H 0.41342 0.52711 0.62354 0.0
H3941 H 0.36631 0.51773 0.6172 0.0
H3942 H 0.43742 0.50853 0.66085 0.0
H3943 H 0.36348 0.47846 0.69187 0.0
H3944 H 0.14537 0.55223 0.57225 0.0
H3945 H 0.17425 0.52933 0.60457 0.0
H3946 H 0.15204 0.59977 0.56201 0.0
H3947 H 0.21714 0.60193 0.61565 0.0
C3948 C 0.2988 0.62903 0.35213 0.0
C3949 C 0.29374 0.66984 0.37653 0.0
C3950 C 0.29166 0.64196 0.37489 0.0
C3951 C 0.30163 0.68441 0.35431 0.0
C3952 C 0.30848 0.64333 0.33028 0.0
C3953 C 0.309 0.67114 0.33119 0.0
N3954 N 0.29854 0.60225 0.35228 0.0
C3955 C 0.31025 0.58851 0.3319 0.0
C3956 C 0.31847 0.62926 0.30868 0.0
C3957 C 0.31989 0.60168 0.30977 0.0
Gd3958 Gd 0.24184 0.52206 0.40019 0.0
Gd3959 Gd 0.27787 0.58108 0.38895 0.0
N3960 N 0.28457 0.62711 0.39603 0.0
C3961 C 0.28867 0.68214 0.40068 0.0
C3962 C 0.28091 0.63898 0.41996 0.0
C3963 C 0.28261 0.66661 0.42257 0.0
H3964 H 0.27618 0.62732 0.43709 0.0
H3965 H 0.27925 0.67591 0.44149 0.0
H3966 H 0.3011 0.51266 0.36905 0.0
H3967 H 0.31236 0.56714 0.33273 0.0
H3968 H 0.34089 0.48521 0.37563 0.0
H3969 H 0.29008 0.7035 0.40279 0.0
H3970 H 0.30296 0.70586 0.35508 0.0
H3971 H 0.20318 0.51045 0.45228 0.0
H3972 H 0.32616 0.6395 0.2916 0.0
H3973 H 0.3286 0.59054 0.29372 0.0
H3974 H 0.32518 0.43929 0.45659 0.0
H3975 H 0.31598 0.6825 0.3145 0.0
H3976 H 0.24349 0.45468 0.50172 0.0
H3977 H 0.20432 0.48268 0.49239 0.0
N3978 N 0.24165 0.49872 0.43973 0.0
C3979 C 0.26338 0.48352 0.44427 0.0
C3980 C 0.22039 0.49833 0.45639 0.0
C3981 C 0.24318 0.46697 0.48423 0.0
C3982 C 0.22101 0.48274 0.47907 0.0
C3983 C 0.26463 0.46712 0.46674 0.0
H3984 H 0.28834 0.43844 0.48804 0.0
N3985 N 0.28282 0.50046 0.40475 0.0
C3986 C 0.28445 0.48445 0.42644 0.0
C3987 C 0.32742 0.46885 0.41234 0.0
C3988 C 0.30691 0.46832 0.43078 0.0
C3989 C 0.30245 0.50035 0.38633 0.0
C3990 C 0.32516 0.48488 0.39005 0.0
O3991 O 0.23813 0.58527 0.36539 0.0
O3992 O 0.21705 0.54553 0.37252 0.0
O3993 O 0.23202 0.48147 0.38802 0.0
O3994 O 0.20133 0.50858 0.40166 0.0
O3995 O 0.24624 0.59353 0.41634 0.0
O3996 O 0.21721 0.55826 0.41343 0.0
O3997 O 0.25279 0.53829 0.44382 0.0
O3998 O 0.27574 0.57715 0.43793 0.0
O3999 O 0.31951 0.57879 0.38292 0.0
O4000 O 0.30123 0.55056 0.40921 0.0
O4001 O 0.2563 0.5201 0.35393 0.0
O4002 O 0.26709 0.56306 0.34625 0.0
C4003 C 0.21761 0.56904 0.36178 0.0
C4004 C 0.22245 0.58356 0.41846 0.0
C4005 C 0.18823 0.46402 0.39484 0.0
C4006 C 0.14855 0.44392 0.37737 0.0
C4007 C 0.16267 0.43409 0.42195 0.0
C4008 C 0.18461 0.4507 0.41874 0.0
C4009 C 0.14448 0.43083 0.40136 0.0
C4010 C 0.17055 0.46011 0.37413 0.0
C4011 C 0.20694 0.48561 0.39169 0.0
C4012 C 0.3081 0.45185 0.45308 0.0
C4013 C 0.28709 0.4513 0.47101 0.0
H4014 H 0.34498 0.45675 0.41498 0.0
C4015 C 0.26575 0.55868 0.45523 0.0
C4016 C 0.26212 0.5391 0.33584 0.0
C4017 C 0.34477 0.56919 0.41869 0.0
C4018 C 0.36822 0.6077 0.43786 0.0
C4019 C 0.39255 0.56879 0.42212 0.0
C4020 C 0.36897 0.55599 0.41582 0.0
C4021 C 0.39226 0.59465 0.43194 0.0
C4022 C 0.34435 0.59484 0.43063 0.0
C4023 C 0.32343 0.56087 0.4006 0.0
H4024 H 0.15955 0.42408 0.44051 0.0
H4025 H 0.19818 0.45356 0.43495 0.0
H4026 H 0.12718 0.4185 0.40423 0.0
H4027 H 0.17308 0.47088 0.35583 0.0
H4028 H 0.41127 0.55904 0.41826 0.0
H4029 H 0.36985 0.53677 0.4062 0.0
H4030 H 0.41111 0.6044 0.43492 0.0
H4031 H 0.3257 0.60518 0.43294 0.0
C4032 C 0.02895 0.5192 0.29153 0.0
C4033 C 0.04053 0.50201 0.27171 0.0
C4034 C 0.0302 0.54863 0.29199 0.0
C4035 C 0.04297 0.56516 0.27253 0.0
H4036 H 1.0186 0.50974 0.30757 0.0
H4037 H 1.02048 0.55865 0.30819 0.0
S4038 S 0.0745 0.53301 0.21389 0.0
N4039 N 0.06452 0.50682 0.23069 0.0
N4040 N 0.06606 0.55947 0.2312 0.0
C4041 C 0.05404 0.54835 0.25229 0.0
C4042 C 0.05314 0.51833 0.25201 0.0
C4043 C 0.78997 0.80282 0.52829 0.0
C4044 C 0.80724 0.77995 0.52531 0.0
C4045 C 0.76049 0.8023 0.5294 0.0
C4046 C 0.7438 0.779 0.5266 0.0
H4047 H 0.79942 0.82197 0.53051 0.0
H4048 H 0.75062 0.8211 0.53234 0.0
S4049 S 0.77654 0.71241 0.51892 0.0
N4050 N 0.80248 0.73227 0.52084 0.0
N4051 N 0.75002 0.73156 0.52096 0.0
C4052 C 0.76087 0.75605 0.52341 0.0
C4053 C 0.79087 0.75645 0.52335 0.0
C4054 C 0.51712 0.51115 0.75633 0.0
C4055 C 0.51065 0.49452 0.77874 0.0
C4056 C 0.51636 0.54058 0.75552 0.0
C4057 C 0.51007 0.55781 0.7774 0.0
H4058 H 0.52284 0.50113 0.73835 0.0
H4059 H 0.52156 0.54998 0.73711 0.0
S4060 S 0.4925 0.52739 0.84253 0.0
N4061 N 0.49753 0.50066 0.82425 0.0
N4062 N 0.49782 0.55332 0.82337 0.0
C4063 C 0.50422 0.54155 0.80019 0.0
C4064 C 0.50404 0.51149 0.80073 0.0
C4065 C 0.7882 0.22246 0.02908 0.0
C4066 C 0.80483 0.24605 0.02889 0.0
C4067 C 0.75862 0.22195 0.02817 0.0
C4068 C 0.74125 0.245 0.0278 0.0
H4069 H 0.79819 0.20348 0.02962 0.0
H4070 H 0.74924 0.20265 0.02825 0.0
S4071 S 0.77179 0.31286 0.02824 0.0
N4072 N 0.79835 0.2937 0.02855 0.0
N4073 N 0.74598 0.29282 0.02786 0.0
C4074 C 0.75764 0.26855 0.02811 0.0
C4075 C 0.78762 0.26905 0.02831 0.0
C4076 C 0.27189 0.05473 0.51245 0.0
C4077 C 0.27633 0.03153 0.49585 0.0
C4078 C 0.27046 0.05509 0.54187 0.0
C4079 C 0.27285 0.03222 0.5592 0.0
H4080 H 0.26965 0.07359 0.50256 0.0
H4081 H 0.26693 0.07412 0.55117 0.0
S4082 S 0.28427 0.96542 0.52882 0.0
N4083 N 0.2822 0.98439 0.50245 0.0
N4084 N 0.28069 0.98521 0.55446 0.0
C4085 C 0.27717 1.00912 0.54288 0.0
C4086 C 0.27867 1.00876 0.51306 0.0
C4087 C 0.26202 0.04437 0.76356 0.0
C4088 C 0.25968 1.02197 0.74549 0.0
C4089 C 0.26231 0.04333 0.79291 0.0
C4090 C 0.26121 1.01954 0.80893 0.0
H4091 H 0.26351 0.06387 0.75477 0.0
H4092 H 0.26405 0.06205 0.80326 0.0
S4093 S 0.25506 0.95361 0.77453 0.0
N4094 N 0.25566 0.97413 0.74919 0.0
N4095 N 0.25764 0.97208 0.80135 0.0
C4096 C 0.2592 0.9969 0.79119 0.0
C4097 C 0.25804 0.99805 0.76124 0.0
C4098 C 0.29778 1.00929 0.04242 0.0
C4099 C 0.27532 1.00421 0.05959 0.0
C4100 C 0.29778 1.00884 1.01312 0.0
C4101 C 0.27504 1.00401 0.99641 0.0
H4102 H 0.31646 1.01374 0.0519 0.0
H4103 H 0.31633 1.01313 1.00339 0.0
S4104 S 0.20961 0.98932 0.02832 0.0
N4105 N 0.22883 0.99336 0.05439 0.0
N4106 N 0.22843 0.99393 1.00216 0.0
C4107 C 0.25232 0.99915 1.01323 0.0
C4108 C 0.25252 0.99881 0.04314 0.0
C4109 C 0.30855 1.01103 0.26289 0.0
C4110 C 0.28683 1.0203 0.24644 0.0
C4111 C 0.30953 1.01156 0.29223 0.0
C4112 C 0.28915 1.02199 0.30953 0.0
H4113 H 0.32543 1.00247 0.25295 0.0
H4114 H 0.32713 1.00359 0.30145 0.0
S4115 S 0.22639 0.04814 0.27921 0.0
N4116 N 0.24333 0.03943 0.25279 0.0
N4117 N 0.24534 0.04128 0.30486 0.0
C4118 C 0.26732 0.03116 0.29328 0.0
C4119 C 0.2661 0.03004 0.26349 0.0
C4120 C 0.50932 0.29346 0.03569 0.0
C4121 C 0.49079 0.27294 0.02754 0.0
C4122 C 0.5388 0.29141 0.0355 0.0
C4123 C 0.55422 0.2689 0.02618 0.0
H4124 H 0.50089 0.31181 0.04301 0.0
H4125 H 0.54974 0.30836 0.04279 0.0
S4126 S 0.51765 0.20931 1.0001 0.0
N4127 N 0.49289 0.22877 1.00897 0.0
N4128 N 0.54515 0.22564 1.00699 0.0
C4129 C 0.53578 0.24865 1.01724 0.0
C4130 C 0.50584 0.25041 1.0183 0.0
C4131 C 1.0082 0.26297 1.00307 0.0
C4132 C 0.99121 0.26529 0.02604 0.0
C4133 C 0.03777 0.26279 1.00298 0.0
C4134 C 0.05513 0.26576 0.0257 0.0
H4135 H 0.99845 0.26056 0.98424 0.0
H4136 H 0.04724 0.26046 0.98404 0.0
S4137 S 1.02356 0.27263 0.09233 0.0
N4138 N 0.99722 0.27024 0.07316 0.0
N4139 N 0.04967 0.27093 0.07284 0.0
C4140 C 0.03838 0.26837 0.04877 0.0
C4141 C 1.00825 0.26779 0.04897 0.0
C4142 C 1.00462 0.76801 0.27864 0.0
C4143 C 0.02786 0.75127 0.28007 0.0
C4144 C 1.00456 0.79749 0.27914 0.0
C4145 C 0.02772 0.81456 0.27917 0.0
H4146 H 0.98559 0.75819 0.27776 0.0
H4147 H 0.98543 0.80709 0.27941 0.0
S4148 S 0.09475 0.78351 0.28568 0.0
N4149 N 0.07531 0.75718 0.28507 0.0
N4150 N 0.07523 0.80964 0.28252 0.0
C4151 C 0.05103 0.79815 0.28075 0.0
C4152 C 0.05104 0.76817 0.28196 0.0
C4153 C 0.54005 0.74525 0.52596 0.0
C4154 C 0.55642 0.76845 0.52177 0.0
C4155 C 0.51061 0.74476 0.52633 0.0
C4156 C 0.49308 0.76708 0.52137 0.0
H4157 H 0.55019 0.72669 0.52966 0.0
H4158 H 0.50135 0.72584 0.53034 0.0
S4159 S 0.52325 0.83391 0.50861 0.0
N4160 N 0.54987 0.81537 0.51317 0.0
N4161 N 0.49743 0.81403 0.51163 0.0
C4162 C 0.50918 0.79035 0.51666 0.0
C4163 C 0.53918 0.79109 0.51745 0.0
C4164 C 1.01119 0.76111 0.55077 0.0
C4165 C 0.99543 0.77138 0.52905 0.0
C4166 C 0.04068 0.76015 0.55225 0.0
C4167 C 0.05897 0.7689 0.53202 0.0
H4168 H 1.00047 0.75373 0.56766 0.0
H4169 H 0.0493 0.75181 0.56992 0.0
S4170 S 0.03119 0.79785 0.46994 0.0
N4171 N 1.00387 0.79082 0.48632 0.0
N4172 N 0.0562 0.78881 0.48884 0.0
C4173 C 0.04356 0.77906 0.51023 0.0
C4174 C 1.01356 0.78042 0.50889 0.0
C4175 C 0.02898 0.26911 0.29328 0.0
C4176 C 0.02448 0.25249 0.27033 0.0
C4177 C 0.02881 0.29867 0.29386 0.0
C4178 C 0.0249 0.31606 0.27144 0.0
H4179 H 0.03236 0.25905 0.31179 0.0
H4180 H 0.03243 0.30809 0.3127 0.0
S4181 S 1.01274 0.28539 0.2051 0.0
N4182 N 1.01563 0.25876 0.22383 0.0
N4183 N 1.01675 0.31138 0.2246 0.0
C4184 C 1.02084 0.29971 0.2483 0.0
C4185 C 1.02016 0.26961 0.24786 0.0
C4186 C 0.54215 0.79059 0.79314 0.0
C4187 C 0.52379 0.80744 0.77868 0.0
C4188 C 0.54217 0.76099 0.79364 0.0
C4189 C 0.5243 0.74389 0.77904 0.0
H4190 H 0.5572 0.80051 0.80472 0.0
H4191 H 0.55698 0.75139 0.80577 0.0
S4192 S 0.47184 0.77561 0.73664 0.0
N4193 N 0.48681 0.80196 0.74899 0.0
N4194 N 0.48734 0.74946 0.74877 0.0
C4195 C 0.50626 0.76069 0.76411 0.0
C4196 C 0.50586 0.79071 0.76419 0.0
C4197 C 1.0064 0.50913 0.79819 0.0
C4198 C 1.00668 0.49269 0.77461 0.0
C4199 C 1.00651 0.53864 0.79915 0.0
C4200 C 1.00811 0.55601 0.77658 0.0
H4201 H 1.00575 0.4989 0.81688 0.0
H4202 H 1.00573 0.54793 0.81836 0.0
S4203 S 1.00957 0.52573 0.70875 0.0
N4204 N 1.00833 0.49898 0.72745 0.0
N4205 N 1.00983 0.5515 0.72892 0.0
C4206 C 1.00901 0.53973 0.75289 0.0
C4207 C 1.00795 0.50973 0.75195 0.0
C4208 C 0.26269 0.27863 0.53628 0.0
C4209 C 0.24566 0.26864 0.51558 0.0
C4210 C 0.29213 0.27833 0.53626 0.0
C4211 C 0.30926 0.26667 0.51636 0.0
H4212 H 0.25309 0.28771 0.55307 0.0
H4213 H 0.30165 0.2876 0.5529 0.0
S4214 S 0.27758 0.23859 0.45556 0.0
N4215 N 0.25141 0.24853 0.47242 0.0
N4216 N 0.30378 0.24544 0.47385 0.0
C4217 C 0.29255 0.25659 0.49545 0.0
C4218 C 0.26249 0.25815 0.49478 0.0
C4219 C 0.5233 0.50053 0.29193 0.0
C4220 C 0.53513 0.48404 0.27171 0.0
C4221 C 0.52136 0.53002 0.29154 0.0
C4222 C 0.53145 0.54757 0.2712 0.0
H4223 H 0.51472 0.49044 0.30864 0.0
H4224 H 0.51168 0.53933 0.30817 0.0
S4225 S 0.56594 0.51707 0.21306 0.0
N4226 N 0.55753 0.49043 0.23002 0.0
N4227 N 0.55518 0.54303 0.22993 0.0
C4228 C 0.54373 0.53134 0.25105 0.0
C4229 C 0.54511 0.50124 0.25113 0.0
C4230 C 0.29071 0.7895 0.04687 0.0
C4231 C 0.30835 0.79377 0.02492 0.0
C4232 C 0.26133 0.78901 0.04539 0.0
C4233 C 0.24527 0.79344 1.02201 0.0
H4234 H 0.29969 0.7857 0.06585 0.0
H4235 H 0.25089 0.78504 0.06354 0.0
S4236 S 0.27933 0.80682 0.95795 0.0
N4237 N 0.30475 0.80276 0.97808 0.0
N4238 N 0.25232 0.80314 0.97587 0.0
C4239 C 0.26264 0.7983 1.00006 0.0
C4240 C 0.29256 0.79806 1.00138 0.0
C4241 C 0.7506 1.016 0.50507 0.0
C4242 C 0.77446 1.01417 0.48927 0.0
C4243 C 0.74938 1.01679 0.53444 0.0
C4244 C 0.77163 1.01487 0.55265 0.0
H4245 H 0.73202 1.01753 0.49455 0.0
H4246 H 0.72992 1.01874 0.54311 0.0
S4247 S 0.83998 1.00914 0.52424 0.0
N4248 N 0.82173 1.01076 0.49726 0.0
N4249 N 0.81933 1.01061 0.5494 0.0
C4250 C 0.79555 1.01253 0.53712 0.0
C4251 C 0.79689 1.01265 0.50721 0.0
C4252 C 0.76071 0.03623 0.28732 0.0
C4253 C 0.78205 0.02537 0.30325 0.0
C4254 C 0.75958 0.03721 0.25796 0.0
C4255 C 0.77901 0.02653 0.23961 0.0
H4256 H 0.74408 0.04467 0.29783 0.0
H4257 H 0.74251 0.04682 0.24947 0.0
S4258 S 0.83937 0.99337 0.26816 0.0
N4259 N 0.82353 1.0024 0.29519 0.0
N4260 N 0.82112 1.00341 0.24302 0.0
C4261 C 0.80028 1.01507 0.25527 0.0
C4262 C 0.80173 1.01459 0.28528 0.0
C4263 C 0.79184 0.04351 1.00639 0.0
C4264 C 0.76806 0.04609 0.99054 0.0
C4265 C 0.79285 0.04072 0.0356 0.0
C4266 C 0.77039 0.0408 0.05353 0.0
H4267 H 0.81051 0.04294 0.99598 0.0
H4268 H 0.81228 0.0386 0.04438 0.0
S4269 S 0.70218 0.04733 0.02482 0.0
N4270 N 0.72067 0.04797 0.99804 0.0
N4271 N 0.72265 0.04441 0.05007 0.0
C4272 C 0.74655 0.04378 0.03797 0.0
C4273 C 0.74545 0.04583 1.00817 0.0
C4274 C 0.76111 1.00521 0.75839 0.0
C4275 C 0.75628 0.02694 0.74012 0.0
C4276 C 0.76099 1.00674 0.78774 0.0
C4277 C 0.75702 0.03054 0.80342 0.0
H4278 H 0.76499 0.98591 0.7498 0.0
H4279 H 0.76479 0.98851 0.79833 0.0
S4280 S 0.74409 0.09484 0.76835 0.0
N4281 N 0.74708 0.07412 0.74324 0.0
N4282 N 0.74838 0.07716 0.79536 0.0
C4283 C 0.75265 0.0525 0.78546 0.0
C4284 C 0.75187 0.05076 0.75557 0.0
C4285 C 0.51095 0.7565 1.01977 0.0
C4286 C 0.4946 0.78004 1.017 0.0
C4287 C 0.54045 0.75557 1.01884 0.0
C4288 C 0.55822 0.77784 1.01442 0.0
H4289 H 0.50079 0.73794 1.02322 0.0
H4290 H 0.54956 0.73631 1.02154 0.0
S4291 S 0.52809 0.84537 1.00459 0.0
N4292 N 0.50142 0.827 1.00919 0.0
N4293 N 0.55384 0.82516 1.00652 0.0
C4294 C 0.54208 0.80145 1.01115 0.0
C4295 C 0.51203 0.8025 1.01269 0.0
C4296 C 1.01227 0.7757 1.00111 0.0
C4297 C 0.99529 0.77646 1.02401 0.0
C4298 C 0.0416 0.77675 1.00134 0.0
C4299 C 0.05836 0.7779 0.02446 0.0
H4300 H 1.00272 0.77459 0.98208 0.0
H4301 H 0.05136 0.77603 0.98249 0.0
S4302 S 0.02648 0.77934 0.09112 0.0
N4303 N 1.00034 0.77821 0.07152 0.0
N4304 N 0.05284 0.77925 0.07188 0.0
C4305 C 0.0417 0.77817 0.04759 0.0
C4306 C 1.01173 0.77773 0.04737 0.0
C4307 C 0.9997 0.25821 0.78252 0.0
C4308 C 1.02283 0.24216 0.77699 0.0
C4309 C 0.99888 0.28766 0.78338 0.0
C4310 C 1.02128 0.30534 0.78021 0.0
H4311 H 0.98126 0.24783 0.78579 0.0
H4312 H 0.97982 0.29681 0.78701 0.0
S4313 S 0.08801 0.27601 0.76579 0.0
N4314 N 0.06947 0.2491 0.76801 0.0
N4315 N 0.06825 0.30166 0.77105 0.0
C4316 C 0.04464 0.28957 0.77512 0.0
C4317 C 0.0453 0.25958 0.77326 0.0
C4318 C 0.51193 0.30084 0.52452 0.0
C4319 C 0.49543 0.2773 0.52268 0.0
C4320 C 0.54149 0.30148 0.52461 0.0
C4321 C 0.55922 0.27868 0.52405 0.0
H4322 H 0.50181 0.31976 0.52555 0.0
H4323 H 0.55069 0.32086 0.52565 0.0
S4324 S 0.529 0.21066 0.52019 0.0
N4325 N 0.50231 0.22967 0.52025 0.0
N4326 N 0.55478 0.23077 0.52197 0.0
C4327 C 0.543 0.25497 0.52277 0.0
C4328 C 0.5129 0.25435 0.5217 0.0
C4329 C 1.01248 0.30243 0.52519 0.0
C4330 C 0.99448 0.28005 0.52319 0.0
C4331 C 0.04191 0.3013 0.52396 0.0
C4332 C 0.05791 0.27747 0.52164 0.0
H4333 H 1.0036 0.32189 0.52732 0.0
H4334 H 0.05237 0.31999 0.52527 0.0
S4335 S 1.02339 0.21167 0.51612 0.0
N4336 N 0.99795 0.23224 0.51825 0.0
N4337 N 0.05042 0.23006 0.51763 0.0
C4338 C 0.04021 0.25486 0.5201 0.0
C4339 C 1.01017 0.2561 0.5204 0.0
C4340 C 1.0157 0.75762 0.74209 0.0
C4341 C 1.01728 0.74191 0.76607 0.0
C4342 C 1.01642 0.78722 0.74035 0.0
C4343 C 1.01935 0.80558 0.76229 0.0
H4344 H 1.01338 0.74681 0.7238 0.0
H4345 H 1.01488 0.79582 0.7209 0.0
S4346 S 0.02516 0.7774 0.83035 0.0
N4347 N 1.02255 0.75011 0.81258 0.0
N4348 N 0.02376 0.80253 0.80962 0.0
C4349 C 1.02114 0.79001 0.78618 0.0
C4350 C 1.02011 0.76 0.78795 0.0
C4351 C 0.53346 0.27865 0.24556 0.0
C4352 C 0.53008 0.29736 0.26706 0.0
C4353 C 0.53323 0.24917 0.24787 0.0
C4354 C 0.52921 0.23412 0.27191 0.0
H4355 H 0.53676 0.28686 0.22618 0.0
H4356 H 0.53597 0.23789 0.22992 0.0
S4357 S 0.51927 0.27115 0.33522 0.0
N4358 N 0.52222 0.29572 0.31402 0.0
N4359 N 0.52222 0.24339 0.31812 0.0
C4360 C 0.52571 0.25263 0.29336 0.0
C4361 C 0.52613 0.28253 0.29107 0.0
C4362 C 0.53614 0.04056 0.74938 0.0
C4363 C 0.54083 0.05696 0.77246 0.0
C4364 C 0.53493 1.01112 0.74876 0.0
C4365 C 0.53718 0.99385 0.77136 0.0
H4366 H 0.53346 0.05073 0.73082 0.0
H4367 H 0.53149 1.00179 0.72986 0.0
S4368 S 0.54853 0.02408 0.83811 0.0
N4369 N 0.54774 0.05074 0.81924 0.0
N4370 N 0.54378 0.99831 0.81848 0.0
C4371 C 0.5413 1.01003 0.79463 0.0
C4372 C 0.54352 0.03996 0.7951 0.0
C4373 C 0.25888 0.26454 0.04311 0.0
C4374 C 0.24198 0.27125 1.02109 0.0
C4375 C 0.28825 0.26485 0.04304 0.0
C4376 C 0.30505 0.27269 1.02125 0.0
H4377 H 0.24925 0.25834 0.06108 0.0
H4378 H 0.29805 0.25894 0.06107 0.0
S4379 S 0.2731 0.29467 0.95824 0.0
N4380 N 0.24706 0.28683 0.97623 0.0
N4381 N 0.29949 0.28903 0.97671 0.0
C4382 C 0.2884 0.2802 0.99934 0.0
C4383 C 0.25846 0.27904 0.99913 0.0
C4384 C 0.03885 0.0468 0.28231 0.0
C4385 C 1.01668 0.06408 0.27603 0.0
C4386 C 0.03854 1.01721 0.28302 0.0
C4387 C 1.01566 1.00022 0.27892 0.0
H4388 H 0.05755 0.05632 0.28629 0.0
H4389 H 0.05715 1.00741 0.28725 0.0
S4390 S 0.95132 0.03211 0.25966 0.0
N4391 N 0.97061 0.05838 0.26325 0.0
N4392 N 0.9696 1.00587 0.26681 0.0
C4393 C 0.99329 1.0171 0.27265 0.0
C4394 C 0.99388 0.04724 0.27074 0.0
C4395 C 0.28992 0.75681 0.50266 0.0
C4396 C 0.30765 0.75569 0.52517 0.0
C4397 C 0.26055 0.75741 0.50361 0.0
C4398 C 0.24471 0.75748 0.52728 0.0
H4399 H 0.29892 0.75704 0.48336 0.0
H4400 H 0.25011 0.75807 0.485 0.0
S4401 S 0.2788 0.7548 0.59306 0.0
N4402 N 0.30427 0.75454 0.57271 0.0
N4403 N 0.2519 0.75616 0.57456 0.0
C4404 C 0.26221 0.75654 0.54993 0.0
C4405 C 0.29208 0.75555 0.54892 0.0
C4406 C 0.77647 0.55559 1.00844 0.0
C4407 C 0.77581 0.53243 0.99116 0.0
C4408 C 0.7751 0.55561 0.03792 0.0
C4409 C 0.7723 0.53253 0.05494 0.0
H4410 H 0.77857 0.5747 0.99903 0.0
H4411 H 0.7759 0.57477 0.04757 0.0
S4412 S 0.76845 0.4654 1.02274 0.0
N4413 N 0.77149 0.48486 0.9968 0.0
N4414 N 0.76872 0.48495 0.04887 0.0
C4415 C 0.77124 0.50933 0.03793 0.0
C4416 C 0.77312 0.50926 1.00796 0.0
C4417 C 0.73539 0.53807 0.26176 0.0
C4418 C 0.75387 0.52764 0.24231 0.0
C4419 C 0.73896 0.53768 0.29109 0.0
C4420 C 0.76136 0.52647 0.30552 0.0
H4421 H 0.71755 0.54733 0.25429 0.0
H4422 H 0.7231 0.54606 0.30276 0.0
S4423 S 0.81653 0.49589 0.26618 0.0
N4424 N 0.79628 0.50556 0.24258 0.0
N4425 N 0.8025 0.50448 0.29427 0.0
C4426 C 0.77972 0.51601 0.28612 0.0
C4427 C 0.77626 0.51678 0.25644 0.0
C4428 C 0.77417 0.51748 0.53767 0.0
C4429 C 0.77275 0.49389 0.55391 0.0
C4430 C 0.77318 0.51847 0.50854 0.0
C4431 C 0.77144 0.49595 0.49088 0.0
H4432 H 0.77598 0.53631 0.54778 0.0
H4433 H 0.77446 0.53787 0.49964 0.0
S4434 S 0.76885 0.42771 0.51973 0.0
N4435 N 0.76989 0.44624 0.54663 0.0
N4436 N 0.76935 0.44812 0.4944 0.0
C4437 C 0.77061 0.47205 0.50656 0.0
C4438 C 0.77089 0.47103 0.53649 0.0
C4439 C 0.79141 0.4985 0.78819 0.0
C4440 C 0.79542 0.52258 0.80347 0.0
C4441 C 0.78988 0.49652 0.75887 0.0
C4442 C 0.79293 0.51806 0.73998 0.0
H4443 H 0.78865 0.48033 0.79916 0.0
H4444 H 0.78624 0.47696 0.75078 0.0
S4445 S 0.80461 0.58668 0.76672 0.0
N4446 N 0.80223 0.56933 0.79418 0.0
N4447 N 0.80089 0.5655 0.74208 0.0
C4448 C 0.79742 0.54222 0.75495 0.0
C4449 C 0.79816 0.54439 0.7849 0.0
C4450 C 0.51944 0.28989 0.74992 0.0
C4451 C 0.52367 0.30757 0.77213 0.0
C4452 C 0.52033 0.26031 0.75059 0.0
C4453 C 0.52624 0.24391 0.7734 0.0
H4454 H 0.51471 0.29904 0.73124 0.0
H4455 H 0.51631 0.25011 0.73227 0.0
S4456 S 0.53888 0.27782 0.83801 0.0
N4457 N 0.53427 0.30348 0.81838 0.0
N4458 N 0.5355 0.25096 0.81965 0.0
C4459 C 0.53044 0.26141 0.79564 0.0
C4460 C 0.52924 0.29148 0.79503 0.0
C4461 C 0.5305 0.99966 0.28296 0.0
C4462 C 0.50978 0.9836 0.27122 0.0
C4463 C 0.53103 0.02902 0.28457 0.0
C4464 C 0.51021 0.04675 0.27599 0.0
H4465 H 0.54741 0.98925 0.29103 0.0
H4466 H 0.54842 0.03801 0.29329 0.0
S4467 S 0.45055 1.01821 0.24249 0.0
N4468 N 0.46786 0.99111 0.24895 0.0
N4469 N 0.46768 0.04353 0.25417 0.0
C4470 C 0.48922 0.03116 0.26435 0.0
C4471 C 0.48925 1.00119 0.26155 0.0
C4472 C 0.79325 0.76261 0.04134 0.0
C4473 C 0.81052 0.76019 1.01851 0.0
C4474 C 0.76373 0.76173 0.04149 0.0
C4475 C 0.74664 0.75981 1.01858 0.0
H4476 H 0.80281 0.7653 0.06022 0.0
H4477 H 0.75411 0.76348 0.06043 0.0
S4478 S 0.77856 0.75666 0.95179 0.0
N4479 N 0.80487 0.75715 0.97119 0.0
N4480 N 0.75234 0.75784 0.97118 0.0
C4481 C 0.76354 0.75871 0.99544 0.0
C4482 C 0.79371 0.75832 0.99542 0.0
C4483 C 1.01233 0.04047 0.78424 0.0
C4484 C 0.02709 0.05678 0.76585 0.0
C4485 C 1.01192 1.01106 0.78517 0.0
C4486 C 0.02545 0.9935 0.76715 0.0
H4487 H 1.00092 0.05074 0.79912 0.0
H4488 H 1.00014 1.00195 0.80044 0.0
S4489 S 0.0669 1.02293 0.71327 0.0
N4490 N 0.05603 0.04992 0.72838 0.0
N4491 N 0.05408 0.9973 0.72899 0.0
C4492 C 0.03972 1.00941 0.74811 0.0
C4493 C 0.04082 0.03946 0.74771 0.0
C4494 C 0.76371 0.27339 0.53729 0.0
C4495 C 0.74571 0.29218 0.52522 0.0
C4496 C 0.79297 0.27534 0.5375 0.0
C4497 C 0.80838 0.29685 0.52659 0.0
H4498 H 0.75507 0.25621 0.54666 0.0
H4499 H 0.8038 0.25926 0.54668 0.0
S4500 S 0.77323 0.35222 0.49169 0.0
N4501 N 0.74816 0.33358 0.50118 0.0
N4502 N 0.80042 0.33725 0.50203 0.0
C4503 C 0.79059 0.3157 0.51443 0.0
C4504 C 0.76081 0.31347 0.51373 0.0
C4505 C 0.28618 0.5291 0.03865 0.0
C4506 C 0.27094 0.51112 0.05511 0.0
C4507 C 0.28778 0.52886 1.00921 0.0
C4508 C 0.27386 0.51123 0.99105 0.0
H4509 H 0.29768 0.54409 0.04879 0.0
H4510 H 0.30063 0.54339 1.00043 0.0
S4511 S 0.22958 0.45933 1.02091 0.0
N4512 N 0.24086 0.47435 0.04762 0.0
N4513 N 0.24319 0.4744 0.99543 0.0
C4514 C 0.25826 0.49325 1.00724 0.0
C4515 C 0.25696 0.49317 0.03736 0.0
C4516 C 0.28449 0.5488 0.78758 0.0
C4517 C 0.27867 0.5252 0.80304 0.0
C4518 C 0.28266 0.55139 0.75821 0.0
C4519 C 0.27553 0.53068 0.73929 0.0
H4520 H 0.29052 0.56629 0.79843 0.0
H4521 H 0.2875 0.57062 0.75009 0.0
S4522 S 0.25773 0.46364 0.76619 0.0
N4523 N 0.26458 0.48007 0.79354 0.0
N4524 N 0.26236 0.48453 0.7416 0.0
C4525 C 0.27 0.50691 0.75439 0.0
C4526 C 0.27122 0.50441 0.78435 0.0
C4527 C 0.29179 0.55617 0.53418 0.0
C4528 C 0.26959 0.55972 0.55212 0.0
C4529 C 0.29088 0.55692 0.50476 0.0
C4530 C 0.26743 0.56054 0.4885 0.0
H4531 H 0.31095 0.55265 0.54309 0.0
H4532 H 0.3094 0.55382 0.49452 0.0
S4533 S 0.20182 0.5677 0.5224 0.0
N4534 N 0.22207 0.56542 0.5479 0.0
N4535 N 0.22035 0.5659 0.49572 0.0
C4536 C 0.24496 0.56321 0.50609 0.0
C4537 C 0.24598 0.56309 0.53608 0.0
C4538 C 0.2527 0.55408 0.2839 0.0
C4539 C 0.26215 0.53477 0.30301 0.0
C4540 C 0.25283 0.55105 0.2547 0.0
C4541 C 0.26317 0.52851 0.24014 0.0
H4542 H 0.24445 0.57231 0.29169 0.0
H4543 H 0.24449 0.56716 0.24331 0.0
S4544 S 0.29318 0.47187 0.27816 0.0
N4545 N 0.2836 0.49175 0.30224 0.0
N4546 N 0.28471 0.48658 0.25035 0.0
C4547 C 0.27324 0.50933 0.25905 0.0
C4548 C 0.27258 0.51221 0.28878 0.0
C4549 C 0.50212 0.77979 0.26509 0.0
C4550 C 0.52188 0.79765 0.27603 0.0
C4551 C 0.50291 0.75026 0.26557 0.0
C4552 C 0.524 0.73408 0.2764 0.0
H4553 H 0.48491 0.78885 0.25611 0.0
H4554 H 0.48634 0.73991 0.25676 0.0
S4555 S 0.58263 0.76805 0.30704 0.0
N4556 N 0.56423 0.79375 0.29833 0.0
N4557 N 0.56632 0.74113 0.29794 0.0
C4558 C 0.54419 0.75161 0.28691 0.0
C4559 C 0.54302 0.78172 0.2871 0.0
C4560 C 0.08211 0.37201 0.35207 0.0
C4561 C 0.0839 0.36174 0.32654 0.0
C4562 C 0.1017 0.36768 0.37068 0.0
C4563 C 0.1243 0.35293 0.36449 0.0
H4564 H 0.06674 0.38572 0.35697 0.0
H4565 H 0.09967 0.37694 0.38986 0.0
S4566 S 0.139 0.32057 0.30067 0.0
N4567 N 0.1101 0.33531 0.29596 0.0
N4568 N 0.14762 0.32696 0.33148 0.0
C4569 C 0.12656 0.34178 0.33926 0.0
C4570 C 0.10621 0.34621 0.32012 0.0
C4571 C 0.91376 0.84904 0.63441 0.0
C4572 C 0.92796 0.83306 0.6522 0.0
C4573 C 0.91396 0.8437 0.60724 0.0
C4574 C 0.92862 0.8223 0.5969 0.0
H4575 H 0.90242 0.86579 0.64149 0.0
H4576 H 0.90186 0.8559 0.59444 0.0
S4577 S 0.97251 0.77729 0.63515 0.0
N4578 N 0.95909 0.79687 0.65759 0.0
N4579 N 0.96031 0.7871 0.60658 0.0
C4580 C 0.94433 0.80733 0.61446 0.0
C4581 C 0.94378 0.81262 0.64209 0.0
C4582 C 0.46118 0.69133 0.85638 0.0
C4583 C 0.46963 0.70352 0.83303 0.0
C4584 C 0.43898 0.70068 0.86963 0.0
C4585 C 0.42541 0.72317 0.86049 0.0
H4586 H 0.47055 0.67333 0.86343 0.0
H4587 H 0.43232 0.69029 0.88706 0.0
S4588 S 0.44384 0.76568 0.80418 0.0
N4589 N 0.46511 0.74075 0.80325 0.0
N4590 N 0.42456 0.76004 0.82975 0.0
C4591 C 0.43515 0.73691 0.83862 0.0
C4592 C 0.45716 0.72675 0.82455 0.0
C4593 C 0.61004 0.20986 0.10592 0.0
C4594 C 0.59676 0.21198 0.08173 0.0
C4595 C 0.60339 0.19012 0.12364 0.0
C4596 C 0.58239 0.17274 0.11827 0.0
H4597 H 0.62732 0.2218 0.1102 0.0
H4598 H 0.61585 0.18752 0.14083 0.0
S4599 S 0.53415 0.17899 0.0636 0.0
N4600 N 0.55762 0.20065 0.05659 0.0
N4601 N 0.54317 0.16472 0.09147 0.0
C4602 C 0.56629 0.17763 0.09621 0.0
C4603 C 0.57389 0.19709 0.07751 0.0
C4604 C 0.0954 0.72724 0.22709 0.0
C4605 C 0.07774 0.70769 0.21842 0.0
C4606 C 0.11493 0.73706 0.21057 0.0
C4607 C 0.11827 0.72663 0.18518 0.0
H4608 H 0.09517 0.73399 0.24718 0.0
H4609 H 0.12813 0.7522 0.21815 0.0
S4610 S 0.07587 0.67626 0.15223 0.0
N4611 N 0.06268 0.68032 0.18164 0.0
N4612 N 0.1016 0.69635 0.1515 0.0
C4613 C 0.1 0.7078 0.17572 0.0
C4614 C 0.07913 0.69893 0.19213 0.0
C4615 C 0.61017 0.86076 0.47503 0.0
C4616 C 0.60491 0.83331 0.47503 0.0
C4617 C 0.59587 0.87807 0.45898 0.0
C4618 C 0.57558 0.86853 0.44273 0.0
H4619 H 0.62598 0.86893 0.48694 0.0
H4620 H 0.60109 0.8989 0.45882 0.0
S4621 S 0.55033 0.79945 0.43958 0.0
N4622 N 0.57588 0.79797 0.45986 0.0
N4623 N 0.54834 0.83074 0.43018 0.0
C4624 C 0.56904 0.84141 0.44366 0.0
C4625 C 0.58389 0.82371 0.45969 0.0
C4626 C 0.44108 0.33864 0.72592 0.0
C4627 C 0.45449 0.36288 0.72252 0.0
C4628 C 0.42263 0.32978 0.70696 0.0
C4629 C 0.41689 0.34548 0.6848 0.0
H4630 H 0.44506 0.3265 0.74307 0.0
H4631 H 0.4128 0.3109 0.70965 0.0
S4632 S 0.44421 0.41152 0.66876 0.0
N4633 N 0.45932 0.40265 0.6962 0.0
N4634 N 0.42471 0.38647 0.66126 0.0
C4635 C 0.42985 0.36975 0.68166 0.0
C4636 C 0.44869 0.37834 0.70038 0.0
C4637 C 0.9629 0.23411 0.93726 0.0
C4638 C 0.97066 0.20849 0.92959 0.0
C4639 C 0.94704 0.23797 0.9594 0.0
C4640 C 0.93874 0.21642 0.97473 0.0
H4641 H 0.96951 0.25132 0.92635 0.0
H4642 H 0.9425 0.25803 0.96489 0.0
S4643 S 0.9502 0.1451 0.96071 0.0
N4644 N 0.96666 0.16094 0.93753 0.0
N4645 N 0.93638 0.16844 0.97893 0.0
C4646 C 0.94488 0.19062 0.96629 0.0
C4647 C 0.96099 0.18659 0.94377 0.0
C4648 C 0.36301 0.09445 0.35982 0.0
C4649 C 0.35425 0.06898 0.35261 0.0
C4650 C 0.39033 0.10047 0.36 0.0
C4651 C 0.40926 0.08156 0.35193 0.0
H4652 H 0.3493 0.10839 0.36862 0.0
H4653 H 0.39683 0.11907 0.36851 0.0
S4654 S 0.39499 1.01742 0.31959 0.0
N4655 N 0.36566 0.02871 0.32864 0.0
N4656 N 0.41664 0.04012 0.32889 0.0
C4657 C 0.40014 0.05849 0.3396 0.0
C4658 C 0.37253 0.05238 0.33951 0.0
C4659 C 0.18261 0.09621 0.63551 0.0
C4660 C 0.20742 0.08994 0.62443 0.0
C4661 C 0.1731 0.12266 0.63599 0.0
C4662 C 0.1882 0.14372 0.62572 0.0
H4663 H 0.17088 0.08078 0.64459 0.0
H4664 H 0.15399 0.12673 0.64474 0.0
S4665 S 0.2525 0.13773 0.59112 0.0
N4666 N 0.24511 0.10707 0.59973 0.0
N4667 N 0.22793 0.15624 0.60213 0.0
C4668 C 0.21226 0.1375 0.61339 0.0
C4669 C 0.22166 0.11078 0.61236 0.0
C4670 C 0.21692 0.92913 0.86264 0.0
C4671 C 0.21258 0.95671 0.86535 0.0
C4672 C 0.19566 0.91144 0.85959 0.0
C4673 C 0.16953 0.92088 0.85919 0.0
H4674 H 0.23672 0.92097 0.86414 0.0
H4675 H 0.19957 0.89034 0.85825 0.0
S4676 S 0.14734 0.9911 0.86364 0.0
N4677 N 0.1799 0.9925 0.86512 0.0
N4678 N 0.14032 0.95929 0.86082 0.0
C4679 C 0.16501 0.94839 0.8607 0.0
C4680 C 0.18646 0.96634 0.86325 0.0
C4681 C 0.30642 0.89659 0.09478 0.0
C4682 C 0.33199 0.88876 0.102 0.0
C4683 C 0.29973 0.92351 0.09394 0.0
C4684 C 0.31776 0.94303 0.10268 0.0
H4685 H 0.29108 0.88188 0.09173 0.0
H4686 H 0.27923 0.92869 0.0902 0.0
S4687 S 0.3899 0.9333 0.1102 0.0
N4688 N 0.37776 0.90288 0.10784 0.0
N4689 N 0.36429 0.95366 0.10824 0.0
C4690 C 0.34447 0.93585 0.10458 0.0
C4691 C 0.35168 0.90843 0.10433 0.0
C4692 C 0.38058 0.93293 0.1724 0.0
C4693 C 0.39845 0.95295 0.18031 0.0
C4694 C 0.35297 0.93747 0.17255 0.0
C4695 C 0.34265 0.96147 0.1823 0.0
H4696 H 0.38804 0.9144 0.16451 0.0
H4697 H 0.33992 0.9228 0.16388 0.0
S4698 S 0.38148 1.0154 0.21462 0.0
N4699 N 0.40401 0.99484 0.20286 0.0
N4700 N 0.35271 1.00194 0.20703 0.0
C4701 C 0.36052 0.9795 0.19428 0.0
C4702 C 0.38832 0.97566 0.19233 0.0
C4703 C 0.36362 0.12989 0.42017 0.0
C4704 C 0.34594 0.14788 0.43215 0.0
C4705 C 0.35976 0.10216 0.42203 0.0
C4706 C 0.33759 0.09185 0.4351 0.0
H4707 H 0.3799 0.13736 0.40856 0.0
H4708 H 0.37304 0.08887 0.41177 0.0
S4709 S 0.29152 0.13041 0.47735 0.0
N4710 N 0.30989 0.15326 0.46301 0.0
N4711 N 0.30238 0.10159 0.4663 0.0
C4712 C 0.32222 0.10966 0.45019 0.0
C4713 C 0.32628 0.13763 0.44852 0.0
C4714 C 0.17252 0.04509 0.70906 0.0
C4715 C 0.19292 0.06303 0.70244 0.0
C4716 C 0.14586 0.05245 0.70673 0.0
C4717 C 0.13892 0.07863 0.70054 0.0
H4718 H 0.177 0.02431 0.71231 0.0
H4719 H 0.13077 0.03724 0.70784 0.0
S4720 S 0.18522 0.13549 0.69972 0.0
N4721 N 0.2048 0.10938 0.7009 0.0
N4722 N 0.15445 0.1243 0.69908 0.0
C4723 C 0.15914 0.09787 0.70087 0.0
C4724 C 0.18635 0.08991 0.70181 0.0
C4725 C 0.1993 0.91105 0.92745 0.0
C4726 C 0.21587 0.89191 0.93904 0.0
C4727 C 0.20469 0.9382 0.92998 0.0
C4728 C 0.22726 0.94675 0.94363 0.0
H4729 H 0.18313 0.90504 0.91501 0.0
H4730 H 0.19309 0.95213 0.91855 0.0
S4731 S 0.27116 0.90492 0.98497 0.0
N4732 N 0.25127 0.88351 0.97021 0.0
N4733 N 0.26175 0.93467 0.97491 0.0
C4734 C 0.24111 0.92806 0.95901 0.0
C4735 C 0.23556 0.90044 0.95645 0.0
C4736 C 0.30769 0.36414 0.07322 0.0
C4737 C 0.29965 0.35575 0.09823 0.0
C4738 C 0.3268 0.3498 0.05925 0.0
C4739 C 0.33864 0.32695 0.07013 0.0
H4740 H 0.2996 0.38214 0.06474 0.0
H4741 H 0.33262 0.35704 0.04008 0.0
S4742 S 0.3236 0.29698 0.13522 0.0
N4743 N 0.3045 0.32346 0.13341 0.0
N4744 N 0.33974 0.29606 0.10708 0.0
C4745 C 0.32988 0.31795 0.09483 0.0
C4746 C 0.31061 0.33255 0.10896 0.0
C4747 C 0.84147 0.14635 0.9829 0.0
C4748 C 0.85644 0.13707 0.96163 0.0
C4749 C 0.84263 0.17309 0.99034 0.0
C4750 C 0.85937 0.19103 0.97721 0.0
H4751 H 0.82997 0.13266 0.99466 0.0
H4752 H 0.83217 0.17923 1.00787 0.0
S4753 S 0.89571 0.17774 0.91531 0.0
N4754 N 0.88322 0.14865 0.9237 0.0
N4755 N 0.886 0.19896 0.93822 0.0
C4756 C 0.87139 0.18269 0.95374 0.0
C4757 C 0.87002 0.1555 0.94598 0.0
C4758 C 0.08785 0.61605 0.19095 0.0
C4759 C 0.09161 0.63274 0.21289 0.0
C4760 C 0.10735 0.61424 0.17115 0.0
C4761 C 0.13035 0.63001 0.17228 0.0
H4762 H 0.07024 0.60389 0.18949 0.0
H4763 H 0.10471 0.60018 0.15519 0.0
S4764 S 0.14935 0.67721 0.22479 0.0
N4765 N 0.12053 0.66524 0.23415 0.0
N4766 N 0.15574 0.66266 0.19641 0.0
C4767 C 0.13389 0.64713 0.1936 0.0
C4768 C 0.11487 0.64829 0.21404 0.0
C4769 C 0.67114 0.8443 0.45444 0.0
C4770 C 0.68718 0.83851 0.4764 0.0
C4771 C 0.66786 0.87049 0.44595 0.0
C4772 C 0.68086 0.89125 0.45899 0.0
H4773 H 0.65896 0.82905 0.44549 0.0
H4774 H 0.65442 0.87465 0.42982 0.0
S4775 S 0.73058 0.8855 0.51224 0.0
N4776 N 0.72021 0.85483 0.5072 0.0
N4777 N 0.71415 0.90415 0.49107 0.0
C4778 C 0.69935 0.88535 0.47869 0.0
C4779 C 0.70271 0.85882 0.48727 0.0
C4780 C 0.97761 0.97096 0.20652 0.0
C4781 C 0.96753 0.94982 0.22134 0.0
C4782 C 0.96355 0.98084 0.18499 0.0
C4783 C 0.93934 0.96943 0.17738 0.0
H4784 H 0.99652 0.97978 0.21157 0.0
H4785 H 0.97146 0.99777 0.17451 0.0
S4786 S 0.90633 0.91161 0.20822 0.0
N4787 N 0.93291 0.91681 0.22645 0.0
N4788 N 0.90689 0.93466 0.18515 0.0
C4789 C 0.92941 0.94784 0.19178 0.0
C4790 C 0.94338 0.93826 0.21408 0.0
C4791 C 0.17583 0.65172 0.5981 0.0
C4792 C 0.18962 0.63298 0.58285 0.0
C4793 C 0.17669 0.67893 0.59195 0.0
C4794 C 0.19055 0.68826 0.56986 0.0
H4795 H 0.16349 0.64522 0.61426 0.0
H4796 H 0.16495 0.69241 0.60346 0.0
S4797 S 0.23595 0.6481 0.52848 0.0
N4798 N 0.22226 0.62629 0.54849 0.0
N4799 N 0.22325 0.67726 0.53653 0.0
C4800 C 0.207 0.67009 0.55657 0.0
C4801 C 0.20645 0.64243 0.56301 0.0
C4802 C 0.10913 0.4216 0.31834 0.0
C4803 C 0.0878 0.43956 0.3184 0.0
C4804 C 0.12922 0.42333 0.33728 0.0
C4805 C 0.12861 0.44329 0.35648 0.0
H4806 H 0.10985 0.40517 0.30489 0.0
H4807 H 0.1447 0.40843 0.33752 0.0
S4808 S 0.08081 0.49879 0.36117 0.0
N4809 N 0.07001 0.48059 0.33633 0.0
N4810 N 0.10796 0.48397 0.37188 0.0
C4811 C 0.10923 0.4631 0.35492 0.0
C4812 C 0.08888 0.46132 0.3357 0.0
C4813 C 0.44277 0.61219 0.84565 0.0
C4814 C 0.44986 0.63122 0.82662 0.0
C4815 C 0.4178 0.61254 0.85797 0.0
C4816 C 0.39923 0.63273 0.85259 0.0
H4817 H 0.45691 0.59709 0.85149 0.0
H4818 H 0.41336 0.59743 0.87244 0.0
S4819 S 0.40639 0.68784 0.80557 0.0
N4820 N 0.43367 0.67009 0.80245 0.0
N4821 N 0.38894 0.67198 0.82766 0.0
C4822 C 0.40561 0.65162 0.83376 0.0
C4823 C 0.43028 0.65051 0.82016 0.0
C4824 C 0.93826 0.72882 0.71459 0.0
C4825 C 0.93018 0.71555 0.69169 0.0
C4826 C 0.95326 0.71556 0.73356 0.0
C4827 C 0.9605 0.6888 0.73015 0.0
H4828 H 0.93211 0.74911 0.71825 0.0
H4829 H 0.95789 0.72585 0.75176 0.0
S4830 S 0.94519 0.64637 0.67205 0.0
N4831 N 0.93165 0.67531 0.6654 0.0
N4832 N 0.95902 0.65029 0.70119 0.0
C4833 C 0.9537 0.67602 0.70649 0.0
C4834 C 0.93867 0.68951 0.68716 0.0
C4835 C 0.12879 0.19627 0.4504 0.0
C4836 C 0.11964 0.22266 0.45316 0.0
C4837 C 0.13231 0.18461 0.42557 0.0
C4838 C 0.12659 0.19875 0.40249 0.0
H4839 H 0.13465 0.18485 0.46744 0.0
H4840 H 0.13972 0.16445 0.42446 0.0
S4841 S 0.09953 0.26734 0.39863 0.0
N4842 N 0.10233 0.26148 0.43044 0.0
N4843 N 0.11022 0.24019 0.38386 0.0
C4844 C 0.11632 0.22471 0.40492 0.0
C4845 C 0.11234 0.2364 0.4302 0.0
C4846 C 0.61381 0.32421 0.23344 0.0
C4847 C 0.60269 0.34853 0.22555 0.0
C4848 C 0.63334 0.31174 0.21791 0.0
C4849 C 0.64278 0.3239 0.19479 0.0
H4850 H 0.60614 0.31399 0.25054 0.0
H4851 H 0.63976 0.29189 0.22307 0.0
S4852 S 0.62273 0.38885 0.16779 0.0
N4853 N 0.60359 0.38445 0.19366 0.0
N4854 N 0.64274 0.3631 0.16732 0.0
C4855 C 0.63389 0.34944 0.18864 0.0
C4856 C 0.61306 0.36117 0.20319 0.0
C4857 C 0.44706 0.81735 0.95869 0.0
C4858 C 0.43257 0.8356 0.97386 0.0
C4859 C 0.46157 0.82563 0.937 0.0
C4860 C 0.46157 0.85234 0.9298 0.0
H4861 H 0.44922 0.79703 0.96452 0.0
H4862 H 0.47447 0.81157 0.92714 0.0
S4863 S 0.42333 0.90716 0.95994 0.0
N4864 N 0.41651 0.88095 0.97817 0.0
N4865 N 0.44338 0.89647 0.93654 0.0
C4866 C 0.44495 0.8703 0.94284 0.0
C4867 C 0.43054 0.86194 0.96523 0.0
C4868 C 0.91192 0.33312 0.83563 0.0
C4869 C 0.91671 0.33415 0.86284 0.0
C4870 C 0.93052 0.34348 0.8178 0.0
C4871 C 0.95423 0.35525 0.8268 0.0
H4872 H 0.89363 0.32474 0.82819 0.0
H4873 H 0.9261 0.34267 0.79695 0.0
S4874 S 0.97383 0.36464 0.89664 0.0
N4875 N 0.94536 0.34905 0.89803 0.0
N4876 N 0.98045 0.36807 0.86507 0.0
C4877 C 0.95898 0.35613 0.85409 0.0
C4878 C 0.94011 0.3458 0.87196 0.0
C4879 C 0.46232 0.18321 0.59983 0.0
C4880 C 0.44541 0.18465 0.62163 0.0
C4881 C 0.45876 0.20035 0.57851 0.0
C4882 C 0.43867 0.21962 0.57881 0.0
H4883 H 0.47754 0.16808 0.59881 0.0
H4884 H 0.47091 0.19768 0.56114 0.0
S4885 S 0.39315 0.23439 0.63456 0.0
N4886 N 0.41066 0.20859 0.64437 0.0
N4887 N 0.40447 0.24148 0.60498 0.0
C4888 C 0.42355 0.22285 0.60189 0.0
C4889 C 0.42675 0.20504 0.62319 0.0
C4890 C 0.56202 0.70732 0.36263 0.0
C4891 C 0.58786 0.70638 0.37294 0.0
C4892 C 0.5548 0.69172 0.341 0.0
C4893 C 0.57297 0.67426 0.32924 0.0
H4894 H 0.54772 0.72133 0.37039 0.0
H4895 H 0.53539 0.6947 0.33266 0.0
S4896 S 0.64236 0.6626 0.34998 0.0
N4897 N 0.63129 0.68545 0.37057 0.0
N4898 N 0.61715 0.65527 0.33061 0.0
C4899 C 0.59822 0.67167 0.34055 0.0
C4900 C 0.60578 0.68783 0.36233 0.0
C4901 C 0.10581 0.87384 0.06692 0.0
C4902 C 0.11048 0.84682 0.07226 0.0
C4903 C 0.09871 0.89157 0.08715 0.0
C4904 C 0.0962 0.8828 0.11332 0.0
H4905 H 0.10842 0.88151 0.0472 0.0
H4906 H 0.09601 0.91236 0.08245 0.0
S4907 S 0.10661 0.81416 0.13784 0.0
N4908 N 0.11108 0.81219 0.1058 0.0
N4909 N 0.0994 0.84554 0.14351 0.0
C4910 C 0.10009 0.85574 0.11872 0.0
C4911 C 0.10679 0.83773 0.09825 0.0
C4912 C 0.69203 0.95014 0.68559 0.0
C4913 C 0.7007 0.9751 0.69429 0.0
C4914 C 0.66484 0.94397 0.68576 0.0
C4915 C 0.64612 0.96241 0.69513 0.0
H4916 H 0.70558 0.93698 0.67543 0.0
H4917 H 0.65819 0.92576 0.67659 0.0
S4918 S 0.66066 0.02456 0.73093 0.0
N4919 N 0.68986 1.01386 0.72082 0.0
N4920 N 0.63886 1.00242 0.72063 0.0
C4921 C 0.65524 0.98475 0.70866 0.0
C4922 C 0.68276 0.99083 0.70876 0.0
C4923 C 0.79951 0.91441 0.44753 0.0
C4924 C 0.82464 0.90235 0.44891 0.0
C4925 C 0.79671 0.94154 0.44185 0.0
C4926 C 0.8188 0.95767 0.43707 0.0
H4927 H 0.78175 0.9026 0.44978 0.0
H4928 H 0.77702 0.94965 0.44037 0.0
S4929 S 0.88908 0.93806 0.44557 0.0
N4930 N 0.87233 0.91032 0.45 0.0
N4931 N 0.86666 0.96119 0.43969 0.0
C4932 C 0.84401 0.94678 0.44154 0.0
C4933 C 0.84702 0.91912 0.44731 0.0
C4934 C 0.83728 0.06444 0.19399 0.0
C4935 C 0.82067 0.08337 0.18214 0.0
C4936 C 0.85905 0.07209 0.20903 0.0
C4937 C 0.86506 0.09895 0.21224 0.0
H4938 H 0.83295 0.04366 0.19317 0.0
H4939 H 0.87055 0.05701 0.21912 0.0
S4940 S 0.82962 0.15639 0.18347 0.0
N4941 N 0.81276 0.13019 0.17341 0.0
N4942 N 0.85448 0.14462 0.20113 0.0
C4943 C 0.84985 0.11811 0.19915 0.0
C4944 C 0.82736 0.11032 0.18426 0.0
C4945 C 0.6877 0.1421 0.92996 0.0
C4946 C 0.70503 0.16048 0.94193 0.0
C4947 C 0.69302 0.1145 0.93031 0.0
C4948 C 0.71646 0.10467 0.94154 0.0
H4949 H 0.67073 0.14929 0.91908 0.0
H4950 H 0.6803 0.1012 0.91941 0.0
S4951 S 0.76255 0.14333 0.98386 0.0
N4952 N 0.74215 0.16593 0.97176 0.0
N4953 N 0.75242 0.11451 0.97195 0.0
C4954 C 0.73111 0.12236 0.95754 0.0
C4955 C 0.7256 0.15028 0.95746 0.0
C4956 C 0.65907 0.11409 0.87001 0.0
C4957 C 0.63981 0.09536 0.86231 0.0
C4958 C 0.68644 0.10861 0.86755 0.0
C4959 C 0.69519 0.08393 0.85797 0.0
H4960 H 0.65291 0.13237 0.87942 0.0
H4961 H 0.70055 0.12249 0.87583 0.0
S4962 S 0.65252 0.0328 0.82624 0.0
N4963 N 0.63136 0.0547 0.83827 0.0
N4964 N 0.68229 0.04431 0.8334 0.0
C4965 C 0.67599 0.06727 0.84606 0.0
C4966 C 0.64835 0.07286 0.84858 0.0
C4967 C 0.69185 0.94509 0.62243 0.0
C4968 C 0.71521 0.9543 0.61056 0.0
C4969 C 0.68654 0.9176 0.62397 0.0
C4970 C 0.70407 0.89875 0.61316 0.0
H4971 H 0.67897 0.95887 0.63261 0.0
H4972 H 0.66939 0.91091 0.63478 0.0
S4973 S 0.76231 0.91323 0.57183 0.0
N4974 N 0.75191 0.94268 0.58169 0.0
N4975 N 0.74184 0.89142 0.58485 0.0
C4976 C 0.72505 0.90795 0.59784 0.0
C4977 C 0.7305 0.93571 0.59627 0.0
C4978 C 0.8668 0.9932 0.359 0.0
C4979 C 0.8492 0.97306 0.36709 0.0
C4980 C 0.89424 0.99019 0.36089 0.0
C4981 C 0.90547 0.96623 0.36925 0.0
H4982 H 0.85938 1.0122 0.35225 0.0
H4983 H 0.90679 1.00683 0.35577 0.0
S4984 S 0.86871 0.90407 0.38351 0.0
N4985 N 0.84521 0.9264 0.37851 0.0
N4986 N 0.89715 0.91988 0.38001 0.0
C4987 C 0.88833 0.94465 0.37407 0.0
C4988 C 0.86012 0.94816 0.37327 0.0
C4989 C 0.84061 0.14181 0.11603 0.0
C4990 C 0.82274 0.1602 0.105 0.0
C4991 C 0.83503 0.11451 0.11595 0.0
C4992 C 0.81153 0.10488 0.10458 0.0
H4993 H 0.85803 0.14873 0.12644 0.0
H4994 H 0.84776 0.10139 0.12717 0.0
S4995 S 0.76373 0.14392 0.06482 0.0
N4996 N 0.78427 0.16634 0.07698 0.0
N4997 N 0.7744 0.11489 0.07568 0.0
C4998 C 0.79589 0.12265 0.08987 0.0
C4999 C 0.80119 0.15044 0.09055 0.0
C5000 C 0.70337 0.72888 0.93464 0.0
C5001 C 0.69097 0.71711 0.95662 0.0
C5002 C 0.71072 0.71359 0.91259 0.0
C5003 C 0.70531 0.6863 0.91188 0.0
H5004 H 0.7072 0.75003 0.93439 0.0
H5005 H 0.72038 0.72307 0.89609 0.0
S5006 S 0.67192 0.6461 0.96277 0.0
N5007 N 0.67358 0.67625 0.97532 0.0
N5008 N 0.68604 0.6483 0.93371 0.0
C5009 C 0.6928 0.67446 0.93338 0.0
C5010 C 0.68608 0.68964 0.95586 0.0
C5011 C 0.20457 0.90383 0.05383 0.0
C5012 C 0.19417 0.9108 0.07842 0.0
C5013 C 0.20462 0.87732 0.04556 0.0
C5014 C 0.19295 0.85732 0.06104 0.0
H5015 H 0.21159 0.91905 0.04052 0.0
H5016 H 0.2118 0.8728 0.02597 0.0
S5017 S 0.16941 0.86506 0.12973 0.0
N5018 N 0.17736 0.89542 0.12045 0.0
N5019 N 0.17592 0.84565 0.10429 0.0
C5020 C 0.18554 0.8637 0.08694 0.0
C5021 C 0.18622 0.89059 0.09565 0.0
C5022 C 0.90789 0.42216 0.84583 0.0
C5023 C 0.88844 0.43497 0.8306 0.0
C5024 C 0.93468 0.42317 0.83864 0.0
C5025 C 0.94266 0.43656 0.81574 0.0
H5026 H 0.90221 0.41042 0.86275 0.0
H5027 H 0.9488 0.4116 0.84981 0.0
S5028 S 0.89952 0.47667 0.77191 0.0
N5029 N 0.87904 0.46397 0.7938 0.0
N5030 N 0.92944 0.46649 0.78051 0.0
C5031 C 0.92362 0.45174 0.8021 0.0
C5032 C 0.8964 0.45056 0.80932 0.0
C5033 C 0.366 0.19156 0.58161 0.0
C5034 C 0.35587 0.21649 0.57431 0.0
C5035 C 0.35549 0.17787 0.60319 0.0
C5036 C 0.33437 0.1886 0.61782 0.0
H5037 H 0.38307 0.18334 0.57157 0.0
H5038 H 0.36433 0.15912 0.60886 0.0
S5039 S 0.29845 0.25121 0.60389 0.0
N5040 N 0.32244 0.25021 0.58189 0.0
N5041 N 0.30171 0.22388 0.62146 0.0
C5042 C 0.32318 0.21273 0.60969 0.0
C5043 C 0.33417 0.22681 0.58813 0.0
C5044 C 0.11329 0.10708 0.81748 0.0
C5045 C 0.08776 0.09731 0.81239 0.0
C5046 C 0.12971 0.0945 0.83576 0.0
C5047 C 0.12108 0.07158 0.84888 0.0
H5048 H 0.11956 0.1259 0.80934 0.0
H5049 H 0.14793 0.10424 0.84155 0.0
S5050 S 0.05908 0.03449 0.83678 0.0
N5051 N 0.05645 0.06142 0.81848 0.0
N5052 N 0.08834 0.03639 0.85116 0.0
C5053 C 0.09728 0.05965 0.84099 0.0
C5054 C 0.08018 0.07302 0.82326 0.0
C5055 C 0.84461 0.40148 0.4801 0.0
C5056 C 0.85872 0.41147 0.4586 0.0
C5057 C 0.84775 0.37509 0.48828 0.0
C5058 C 0.86525 0.35736 0.47559 0.0
H5059 H 0.83225 0.41462 0.49173 0.0
H5060 H 0.83787 0.36921 0.50609 0.0
S5061 S 0.90393 0.3728 0.41562 0.0
N5062 N 0.8885 0.40094 0.42257 0.0
N5063 N 0.89459 0.35124 0.43826 0.0
C5064 C 0.8777 0.36647 0.45257 0.0
C5065 C 0.87447 0.39355 0.44409 0.0
C5066 C 0.92255 0.61351 0.7277 0.0
C5067 C 0.94128 0.60093 0.74368 0.0
C5068 C 0.90812 0.59872 0.70951 0.0
C5069 C 0.91155 0.5711 0.70822 0.0
H5070 H 0.92061 0.63489 0.72778 0.0
H5071 H 0.89658 0.60911 0.69477 0.0
S5072 S 0.94385 0.52934 0.75853 0.0
N5073 N 0.95224 0.56005 0.76635 0.0
N5074 N 0.92545 0.53155 0.73175 0.0
C5075 C 0.9251 0.55827 0.72857 0.0
C5076 C 0.93982 0.57349 0.74686 0.0
C5077 C 0.65771 0.42509 0.2437 0.0
C5078 C 0.66468 0.43649 0.21931 0.0
C5079 C 0.63144 0.42076 0.25108 0.0
C5080 C 0.60999 0.42785 0.23491 0.0
H5081 H 0.67264 0.41854 0.25743 0.0
H5082 H 0.62808 0.41028 0.26929 0.0
S5083 S 0.61537 0.45816 0.16886 0.0
N5084 N 0.64648 0.4545 0.1784 0.0
N5085 N 0.59694 0.44745 0.1934 0.0
C5086 C 0.61599 0.44021 0.21087 0.0
C5087 C 0.64318 0.44429 0.20287 0.0
C5088 C 0.60197 0.87638 0.86908 0.0
C5089 C 0.59043 0.85465 0.88167 0.0
C5090 C 0.59213 0.88496 0.845 0.0
C5091 C 0.56926 0.87371 0.83392 0.0
H5092 H 0.62122 0.88356 0.87531 0.0
H5093 H 0.60427 0.89828 0.83366 0.0
S5094 S 0.52809 0.8208 0.86313 0.0
N5095 N 0.55257 0.8252 0.88426 0.0
N5096 N 0.5332 0.84243 0.83932 0.0
C5097 C 0.55547 0.85455 0.84821 0.0
C5098 C 0.56603 0.84513 0.8724 0.0
C5099 C 0.40117 0.34006 0.10452 0.0
C5100 C 0.42211 0.33754 0.08651 0.0
C5101 C 0.40391 0.35416 0.12809 0.0
C5102 C 0.42783 0.36667 0.13468 0.0
H5103 H 0.38291 0.32968 0.10131 0.0
H5104 H 0.38757 0.35396 0.14188 0.0
S5105 S 0.48738 0.37034 0.09203 0.0
N5106 N 0.46657 0.35145 0.07522 0.0
N5107 N 0.47196 0.3786 0.11954 0.0
C5108 C 0.44851 0.36592 0.116 0.0
C5109 C 0.44559 0.35131 0.09188 0.0
C5110 C 0.95976 0.20781 0.37577 0.0
C5111 C 0.93268 0.20915 0.36961 0.0
C5112 C 0.97873 0.2063 0.35597 0.0
C5113 C 0.97114 0.20516 0.32941 0.0
H5114 H 0.96626 0.20665 0.39609 0.0
H5115 H 0.99918 0.20388 0.36173 0.0
S5116 S 0.90328 0.21684 0.30339 0.0
N5117 N 0.89953 0.21568 0.33567 0.0
N5118 N 0.93522 0.21247 0.29797 0.0
C5119 C 0.94435 0.21001 0.32304 0.0
C5120 C 0.92502 0.21172 0.34331 0.0
C5121 C 0.08942 0.68191 0.56475 0.0
C5122 C 0.10637 0.70063 0.57625 0.0
C5123 C 0.07518 0.66423 0.58043 0.0
C5124 C 0.07834 0.66405 0.608 0.0
H5125 H 0.08648 0.68152 0.54364 0.0
H5126 H 0.06115 0.65111 0.57088 0.0
S5127 S 0.12266 0.70795 0.64707 0.0
N5128 N 0.12532 0.71861 0.61653 0.0
N5129 N 0.10222 0.68248 0.64562 0.0
C5130 C 0.09639 0.68197 0.61947 0.0
C5131 C 0.10938 0.70109 0.60369 0.0
C5132 C 0.56672 0.22068 0.71015 0.0
C5133 C 0.58315 0.20451 0.72557 0.0
C5134 C 0.5774 0.23786 0.69173 0.0
C5135 C 0.60477 0.23867 0.68771 0.0
H5136 H 0.54539 0.21941 0.7118 0.0
H5137 H 0.56414 0.24974 0.67975 0.0
S5138 S 0.65615 0.20015 0.72317 0.0
N5139 N 0.62789 0.19059 0.73646 0.0
N5140 N 0.64831 0.22246 0.70059 0.0
C5141 C 0.62156 0.22294 0.70327 0.0
C5142 C 0.61063 0.20591 0.72265 0.0
C5143 C 0.07158 0.31513 0.92987 0.0
C5144 C 0.0791 0.34043 0.9215 0.0
C5145 C 0.08606 0.30231 0.94937 0.0
C5146 C 0.1078 0.31493 0.96132 0.0
H5147 H 0.05335 0.30625 0.92285 0.0
H5148 H 0.07919 0.28319 0.95623 0.0
S5149 S 0.13821 0.37877 0.94162 0.0
N5150 N 0.1118 0.37571 0.92265 0.0
N5151 N 0.13879 0.35192 0.96018 0.0
C5152 C 0.11693 0.33908 0.95115 0.0
C5153 C 0.10261 0.35174 0.93081 0.0
C5154 C 0.97017 0.83851 0.22487 0.0
C5155 C 0.98184 0.86368 0.22231 0.0
C5156 C 0.95417 0.82788 0.2051 0.0
C5157 C 0.94944 0.84207 0.18192 0.0
H5158 H 0.97085 0.82826 0.24348 0.0
H5159 H 0.94366 0.80955 0.2089 0.0
S5160 S 0.97941 0.9059 0.16243 0.0
N5161 N 0.99064 0.90043 0.19249 0.0
N5162 N 0.9606 0.88014 0.15517 0.0
C5163 C 0.96336 0.86561 0.17752 0.0
C5164 C 0.97966 0.87656 0.1978 0.0
C5165 C 0.47916 0.66673 0.46928 0.0
C5166 C 0.46903 0.6624 0.44381 0.0
C5167 C 0.4679 0.686 0.48576 0.0
C5168 C 0.44696 0.7019 0.47672 0.0
H5169 H 0.49613 0.65559 0.47625 0.0
H5170 H 0.47574 0.6887 0.50546 0.0
S5171 S 0.41204 0.69657 0.41251 0.0
N5172 N 0.43494 0.67325 0.41168 0.0
N5173 N 0.41605 0.71158 0.4411 0.0
C5174 C 0.43674 0.69765 0.45132 0.0
C5175 C 0.4471 0.67721 0.4353 0.0
C5176 C 0.86095 0.60056 0.86659 0.0
C5177 C 0.85307 0.57652 0.85498 0.0
C5178 C 0.88802 0.60708 0.86861 0.0
C5179 C 0.90773 0.5901 0.85851 0.0
H5180 H 0.84656 0.61271 0.87681 0.0
H5181 H 0.89375 0.62453 0.87963 0.0
S5182 S 0.89613 0.53196 0.81558 0.0
N5183 N 0.8662 0.54101 0.82521 0.0
N5184 N 0.91694 0.55314 0.82933 0.0
C5185 C 0.89966 0.56913 0.84231 0.0
C5186 C 0.8722 0.56257 0.84017 0.0
C5187 C 0.7066 0.61165 0.0989 0.0
C5188 C 0.73102 0.60495 0.11077 0.0
C5189 C 0.69673 0.63814 0.0996 0.0
C5190 C 0.71081 0.65869 0.11253 0.0
H5191 H 0.69472 0.59627 0.08985 0.0
H5192 H 0.67744 0.64224 0.09118 0.0
S5193 S 0.77605 0.65259 0.14496 0.0
N5194 N 0.76965 0.62277 0.13349 0.0
N5195 N 0.75078 0.67088 0.13563 0.0
C5196 C 0.73561 0.65252 0.12298 0.0
C5197 C 0.7458 0.62619 0.12177 0.0
C5198 C 0.67849 0.48489 0.35543 0.0
C5199 C 0.7047 0.48455 0.34623 0.0
C5200 C 0.65852 0.47263 0.34094 0.0
C5201 C 0.66478 0.4596 0.31725 0.0
H5202 H 0.67389 0.49207 0.37503 0.0
H5203 H 0.63974 0.46934 0.35065 0.0
S5204 S 0.72672 0.46496 0.27947 0.0
N5205 N 0.73387 0.47677 0.30898 0.0
N5206 N 0.69476 0.45834 0.28007 0.0
C5207 C 0.68863 0.4662 0.3049 0.0
C5208 C 0.70962 0.47642 0.32035 0.0
C5209 C 0.81962 0.3927 0.59603 0.0
C5210 C 0.84337 0.38512 0.60799 0.0
C5211 C 0.81329 0.4196 0.593 0.0
C5212 C 0.82935 0.43983 0.60393 0.0
H5213 H 0.80517 0.37782 0.5905 0.0
H5214 H 0.79371 0.42434 0.58583 0.0
S5215 S 0.89949 0.43025 0.62255 0.0
N5216 N 0.88783 0.39972 0.61946 0.0
N5217 N 0.87433 0.45054 0.61693 0.0
C5218 C 0.85515 0.43261 0.61121 0.0
C5219 C 0.86234 0.40507 0.61287 0.0
C5220 C 0.89928 0.48535 0.69132 0.0
C5221 C 0.90916 0.45991 0.68705 0.0
C5222 C 0.8722 0.4902 0.69193 0.0
C5223 C 0.8536 0.47005 0.68609 0.0
H5224 H 0.91273 0.50182 0.69319 0.0
H5225 H 0.86604 0.5106 0.6947 0.0
S5226 S 0.86911 0.39826 0.68264 0.0
N5227 N 0.89837 0.41276 0.68494 0.0
N5228 N 0.84688 0.4224 0.68258 0.0
C5229 C 0.86297 0.44381 0.68513 0.0
C5230 C 0.89093 0.43864 0.68629 0.0
C5231 C 0.85722 0.6037 0.92937 0.0
C5232 C 0.83164 0.59519 0.9363 0.0
C5233 C 0.86334 0.63109 0.92837 0.0
C5234 C 0.84392 0.65049 0.93375 0.0
H5235 H 0.87174 0.58944 0.92252 0.0
H5236 H 0.88272 0.63719 0.9217 0.0
S5237 S 0.77804 0.63857 0.96286 0.0
N5238 N 0.78996 0.60865 0.95688 0.0
N5239 N 0.80109 0.65945 0.95299 0.0
C5240 C 0.81993 0.64216 0.94445 0.0
C5241 C 0.81398 0.61461 0.9464 0.0
C5242 C 0.68727 0.63881 0.18587 0.0
C5243 C 0.66521 0.63615 0.16899 0.0
C5244 C 0.70753 0.61933 0.18627 0.0
C5245 C 0.70505 0.59583 0.17138 0.0
H5246 H 0.68835 0.65543 0.19938 0.0
H5247 H 0.72432 0.62194 0.19929 0.0
S5248 S 0.64973 0.58008 0.12478 0.0
N5249 N 0.64274 0.6098 0.13621 0.0
N5250 N 0.67758 0.57174 0.13954 0.0
C5251 C 0.68262 0.59339 0.15468 0.0
C5252 C 0.66362 0.61395 0.15275 0.0
C5253 C 0.6829 0.45374 0.43423 0.0
C5254 C 0.70449 0.45438 0.41678 0.0
C5255 C 0.66476 0.43232 0.43367 0.0
C5256 C 0.66724 0.41164 0.415 0.0
H5257 H 0.68084 0.46895 0.44919 0.0
H5258 H 0.6494 0.43135 0.44848 0.0
S5259 S 0.71982 0.40402 0.36511 0.0
N5260 N 0.7267 0.43213 0.38021 0.0
N5261 N 0.69253 0.39311 0.37909 0.0
C5262 C 0.68797 0.41273 0.39697 0.0
C5263 C 0.70657 0.43381 0.39785 0.0
C5264 C 0.84827 0.81756 0.61076 0.0
C5265 C 0.84939 0.82652 0.58458 0.0
C5266 C 0.84002 0.83433 0.63107 0.0
C5267 C 0.83293 0.86071 0.62582 0.0
H5268 H 0.85602 0.79835 0.61605 0.0
H5269 H 0.84111 0.82721 0.65116 0.0
S5270 S 0.82788 0.8919 0.55946 0.0
N5271 N 0.83771 0.86124 0.5537 0.0
N5272 N 0.82488 0.89408 0.59171 0.0
C5273 C 0.83154 0.86904 0.59924 0.0
C5274 C 0.83911 0.85156 0.57862 0.0
C5275 C 0.35312 0.65621 0.44466 0.0
C5276 C 0.36897 0.63418 0.452 0.0
C5277 C 0.35553 0.68132 0.45745 0.0
C5278 C 0.37364 0.68523 0.47832 0.0
H5279 H 0.33928 0.65424 0.42849 0.0
H5280 H 0.34313 0.69764 0.45103 0.0
S5281 S 0.42135 0.63457 0.50325 0.0
N5282 N 0.40373 0.61864 0.48112 0.0
N5283 N 0.40886 0.66477 0.50398 0.0
C5284 C 0.38955 0.66326 0.48544 0.0
C5285 C 0.38708 0.63811 0.47266 0.0
C5286 C 0.61789 0.09569 0.73629 0.0
C5287 C 0.60103 0.11464 0.72466 0.0
C5288 C 0.64496 0.09492 0.73031 0.0
C5289 C 0.65568 0.11232 0.71174 0.0
H5290 H 0.61058 0.08299 0.75183 0.0
H5291 H 0.65781 0.08174 0.74128 0.0
S5292 S 0.61853 0.15934 0.6696 0.0
N5293 N 0.59597 0.14714 0.68973 0.0
N5294 N 0.64672 0.14469 0.67754 0.0
C5295 C 0.63844 0.12861 0.69729 0.0
C5296 C 0.61097 0.12978 0.70375 0.0
C5297 C 0.18507 0.31369 0.9332 0.0
C5298 C 0.19178 0.31765 0.95982 0.0
C5299 C 0.19492 0.3304 0.91362 0.0
C5300 C 0.21195 0.35142 0.92002 0.0
H5301 H 0.17128 0.29823 0.92754 0.0
H5302 H 0.18863 0.32726 0.89345 0.0
S5303 S 0.23883 0.3674 0.98633 0.0
N5304 N 0.2184 0.34238 0.99131 0.0
N5305 N 0.23767 0.37334 0.95441 0.0
C5306 C 0.21991 0.3547 0.94643 0.0
C5307 C 0.2096 0.33793 0.96638 0.0
C5308 C 0.44169 0.48875 0.7099 0.0
C5309 C 0.41749 0.47787 0.70111 0.0
C5310 C 0.45886 0.4742 0.72589 0.0
C5311 C 0.45163 0.44922 0.73531 0.0
H5312 H 0.4481 0.50819 0.70354 0.0
H5313 H 0.47809 0.48232 0.73048 0.0
S5314 S 0.38972 0.41252 0.72174 0.0
N5315 N 0.38733 0.43992 0.70424 0.0
N5316 N 0.41798 0.41515 0.73776 0.0
C5317 C 0.4265 0.43926 0.72937 0.0
C5318 C 0.40974 0.45299 0.71146 0.0
C5319 C 0.67611 0.1743 0.1273 0.0
C5320 C 0.66011 0.15187 0.12278 0.0
C5321 C 0.67917 0.19395 0.10777 0.0
C5322 C 0.66679 0.19128 0.08303 0.0
H5323 H 0.68667 0.17634 0.14571 0.0
H5324 H 0.69139 0.21111 0.11196 0.0
S5325 S 0.62078 0.13661 0.06326 0.0
N5326 N 0.63053 0.12882 0.0932 0.0
N5327 N 0.63611 0.16458 0.05646 0.0
C5328 C 0.65035 0.16881 0.07883 0.0
C5329 C 0.64695 0.14951 0.09876 0.0
C5330 C 0.60889 0.95015 0.82595 0.0
C5331 C 0.58151 0.94781 0.8294 0.0
C5332 C 0.62547 0.95276 0.84768 0.0
C5333 C 0.61507 0.95405 0.87334 0.0
H5334 H 0.61783 0.94747 0.80686 0.0
H5335 H 0.64669 0.9526 0.84452 0.0
S5336 S 0.54481 0.95952 0.892 0.0
N5337 N 0.5445 0.95465 0.85986 0.0
N5338 N 0.57632 0.95947 0.90066 0.0
C5339 C 0.58785 0.95557 0.87682 0.0
C5340 C 0.57084 0.95289 0.85473 0.0
C5341 C 0.95601 0.12694 0.38235 0.0
C5342 C 0.93845 0.10604 0.37762 0.0
C5343 C 0.97205 0.13641 0.36212 0.0
C5344 C 0.97091 0.1254 0.33658 0.0
H5345 H 0.95746 0.13583 0.40174 0.0
H5346 H 0.98548 0.15246 0.36662 0.0
S5347 S 0.92979 0.06858 0.31522 0.0
N5348 N 0.922 0.07323 0.34636 0.0
N5349 N 0.95179 0.09169 0.30821 0.0
C5350 C 0.95347 0.10445 0.33172 0.0
C5351 C 0.93735 0.09458 0.35232 0.0
C5352 C 0.48359 0.216 0.17867 0.0
C5353 C 0.4581 0.22631 0.18138 0.0
C5354 C 0.49352 0.19848 0.19733 0.0
C5355 C 0.47812 0.19086 0.21914 0.0
H5356 H 0.49583 0.2215 0.16206 0.0
H5357 H 0.51342 0.19096 0.19454 0.0
S5358 S 0.40926 0.2123 0.23363 0.0
N5359 N 0.41709 0.22773 0.20609 0.0
N5360 N 0.43566 0.19478 0.24178 0.0
C5361 C 0.45228 0.201 0.22171 0.0
C5362 C 0.44226 0.21881 0.20261 0.0
C5363 C 0.62171 0.70286 0.94135 0.0
C5364 C 0.6131 0.72813 0.94939 0.0
C5365 C 0.62248 0.69601 0.91452 0.0
C5366 C 0.61364 0.71398 0.89524 0.0
H5367 H 0.62939 0.68906 0.95563 0.0
H5368 H 0.6308 0.67702 0.90876 0.0
S5369 S 0.57874 0.77705 0.90752 0.0
N5370 N 0.58883 0.76765 0.93691 0.0
N5371 N 0.58924 0.75436 0.88651 0.0
C5372 C 0.60134 0.73742 0.90342 0.0
C5373 C 0.60105 0.74451 0.93057 0.0
C5374 C 0.11501 0.85645 0.68225 0.0
C5375 C 0.13173 0.83699 0.69304 0.0
C5376 C 0.0927 0.86515 0.69572 0.0
C5377 C 0.08715 0.85615 0.72118 0.0
H5378 H 0.11871 0.86441 0.6628 0.0
H5379 H 0.07987 0.87937 0.68616 0.0
S5380 S 0.12377 0.80469 0.75821 0.0
N5381 N 0.14017 0.80765 0.73026 0.0
N5382 N 0.09933 0.82646 0.75673 0.0
C5383 C 0.10387 0.83724 0.73267 0.0
C5384 C 0.12606 0.82727 0.71841 0.0
C5385 C 0.97036 0.31718 0.45831 0.0
C5386 C 0.95432 0.33401 0.47358 0.0
C5387 C 0.98623 0.3276 0.43852 0.0
C5388 C 0.98579 0.35486 0.43359 0.0
H5389 H 0.97007 0.29588 0.4613 0.0
H5390 H 0.9983 0.31437 0.4267 0.0
S5391 S 0.94755 0.40679 0.46862 0.0
N5392 N 0.93943 0.37876 0.48333 0.0
N5393 N 0.96906 0.39857 0.44551 0.0
C5394 C 0.97039 0.37188 0.4492 0.0
C5395 C 0.95464 0.36134 0.46954 0.0
C5396 C 0.46092 0.87156 0.34399 0.0
C5397 C 0.46628 0.85413 0.32325 0.0
C5398 C 0.44493 0.86423 0.36495 0.0
C5399 C 0.43377 0.8389 0.36584 0.0
H5400 H 0.46734 0.89156 0.34332 0.0
H5401 H 0.43993 0.87899 0.37971 0.0
S5402 S 0.44535 0.78385 0.31892 0.0
N5403 N 0.4618 0.80921 0.30646 0.0
N5404 N 0.43189 0.79477 0.34655 0.0
C5405 C 0.44091 0.82016 0.34671 0.0
C5406 C 0.4571 0.82793 0.32515 0.0
C5407 C 0.93537 0.71133 0.12029 0.0
C5408 C 0.95529 0.69195 0.12053 0.0
C5409 C 0.92981 0.72578 0.09745 0.0
C5410 C 0.94407 0.72162 0.0741 0.0
H5411 H 0.92258 0.71381 0.13723 0.0
H5412 H 0.91245 0.73776 0.09771 0.0
S5413 S 1.00171 0.67653 0.06635 0.0
N5414 N 0.99172 0.67155 0.09691 0.0
N5415 N 0.98169 0.69931 0.05398 0.0
C5416 C 0.96577 0.70404 0.07502 0.0
C5417 C 0.97125 0.68901 0.0982 0.0
C5418 C 0.12001 0.2066 0.84519 0.0
C5419 C 0.12121 0.18864 0.86617 0.0
C5420 C 0.10189 0.20256 0.8246 0.0
C5421 C 0.08419 0.18093 0.82479 0.0
H5422 H 0.13361 0.22316 0.84428 0.0
H5423 H 0.10245 0.21583 0.80784 0.0
S5424 S 0.07798 0.13089 0.87818 0.0
N5425 N 0.10245 0.15027 0.88763 0.0
N5426 N 0.0678 0.14328 0.84991 0.0
C5427 C 0.08423 0.16418 0.84691 0.0
C5428 C 0.10295 0.16794 0.8674 0.0
C5429 C 0.56564 0.32676 0.60822 0.0
C5430 C 0.56377 0.35405 0.61247 0.0
C5431 C 0.58304 0.31691 0.58941 0.0
C5432 C 0.59907 0.33414 0.57448 0.0
H5433 H 0.55381 0.31304 0.61963 0.0
H5434 H 0.5842 0.29557 0.58691 0.0
S5435 S 0.5982 0.40763 0.57652 0.0
N5436 N 0.57687 0.39843 0.59934 0.0
N5437 N 0.6098 0.37988 0.56353 0.0
C5438 C 0.59613 0.36161 0.57766 0.0
C5439 C 0.5785 0.3716 0.59698 0.0
C5440 C 0.16982 0.43623 0.19149 0.0
C5441 C 0.14642 0.45156 0.19218 0.0
C5442 C 0.19496 0.44804 0.19425 0.0
C5443 C 0.19744 0.47573 0.19641 0.0
H5444 H 0.16878 0.41521 0.18741 0.0
H5445 H 0.21237 0.43575 0.19206 0.0
S5446 S 0.1428 0.52218 0.21252 0.0
N5447 N 0.12767 0.49413 0.20484 0.0
N5448 N 0.1748 0.51604 0.21015 0.0
C5449 C 0.17437 0.49001 0.20307 0.0
C5450 C 0.1488 0.47808 0.20042 0.0
C5451 C 0.33036 0.43081 0.90536 0.0
C5452 C 0.33859 0.45328 0.91965 0.0
C5453 C 0.34611 0.40817 0.90301 0.0
C5454 C 0.37073 0.40662 0.91544 0.0
H5455 H 0.31233 0.43092 0.89432 0.0
H5456 H 0.33875 0.39154 0.89156 0.0
S5457 S 0.40074 0.45819 0.95819 0.0
N5458 N 0.37286 0.47188 0.94773 0.0
N5459 N 0.40206 0.42827 0.94475 0.0
C5460 C 0.37912 0.42834 0.93078 0.0
C5461 C 0.36324 0.45194 0.93248 0.0
C5462 C 0.3719 0.59569 0.7137 0.0
C5463 C 0.37967 0.57638 0.73227 0.0
C5464 C 0.35017 0.59179 0.69748 0.0
C5465 C 0.33601 0.56817 0.69837 0.0
H5466 H 0.38155 0.61485 0.71282 0.0
H5467 H 0.34455 0.60741 0.68425 0.0
S5468 S 0.34964 0.51027 0.74152 0.0
N5469 N 0.37194 0.53257 0.75029 0.0
N5470 N 0.33248 0.52387 0.7173 0.0
C5471 C 0.34446 0.54789 0.71557 0.0
C5472 C 0.36599 0.55234 0.73312 0.0
C5473 C 0.155 0.61698 0.42795 0.0
C5474 C 0.15875 0.64111 0.41451 0.0
C5475 C 0.17548 0.59787 0.42913 0.0
C5476 C 0.20063 0.60334 0.41851 0.0
H5477 H 0.13664 0.61335 0.4383 0.0
H5478 H 0.17198 0.57929 0.43922 0.0
S5479 S 0.21957 0.66439 0.38148 0.0
N5480 N 0.18833 0.66894 0.38944 0.0
N5481 N 0.22731 0.63512 0.39372 0.0
C5482 C 0.20425 0.62777 0.40534 0.0
C5483 C 0.18312 0.64601 0.40264 0.0
C5484 C 0.15408 0.60774 0.35216 0.0
C5485 C 0.13568 0.58688 0.34852 0.0
C5486 C 0.18172 0.60298 0.35169 0.0
C5487 C 0.19189 0.57714 0.34914 0.0
H5488 H 0.14723 0.62761 0.35662 0.0
H5489 H 0.19504 0.61928 0.35493 0.0
S5490 S 0.15301 0.51863 0.32688 0.0
N5491 N 0.13047 0.54163 0.3327 0.0
N5492 N 0.1818 0.53251 0.33378 0.0
C5493 C 0.17392 0.55729 0.34101 0.0
C5494 C 0.146 0.56216 0.34065 0.0
C5495 C 0.20055 0.41098 0.13912 0.0
C5496 C 0.17971 0.40638 0.12174 0.0
C5497 C 0.21521 0.4343 0.1379 0.0
C5498 C 0.20843 0.45501 0.12092 0.0
H5499 H 0.2056 0.39628 0.15374 0.0
H5500 H 0.23155 0.43664 0.15121 0.0
S5501 S 0.15462 0.4534 0.07146 0.0
N5502 N 0.15312 0.42398 0.0858 0.0
N5503 N 0.179 0.46972 0.08603 0.0
C5504 C 0.18705 0.45121 0.10368 0.0
C5505 C 0.17306 0.42642 0.10356 0.0
C5506 C 0.35124 0.45083 0.84918 0.0
C5507 C 0.34431 0.47732 0.84415 0.0
C5508 C 0.37804 0.44351 0.85183 0.0
C5509 C 0.39838 0.46214 0.84781 0.0
H5510 H 0.33609 0.4366 0.85408 0.0
H5511 H 0.3828 0.42392 0.85911 0.0
S5512 S 0.39021 0.52983 0.82102 0.0
N5513 N 0.35965 0.51904 0.82541 0.0
N5514 N 0.40985 0.50524 0.83018 0.0
C5515 C 0.39161 0.48666 0.83687 0.0
C5516 C 0.36444 0.49407 0.83438 0.0
C5517 C 0.37874 0.62047 0.62093 0.0
C5518 C 0.37237 0.64527 0.63223 0.0
C5519 C 0.35932 0.60044 0.61788 0.0
C5520 C 0.33323 0.60446 0.62684 0.0
H5521 H 0.3986 0.61679 0.61392 0.0
H5522 H 0.36468 0.58193 0.60839 0.0
S5523 S 0.31094 0.66206 0.66774 0.0
N5524 N 0.34089 0.67017 0.65801 0.0
N5525 N 0.30524 0.63274 0.65447 0.0
C5526 C 0.32797 0.6283 0.64088 0.0
C5527 C 0.3474 0.64849 0.64333 0.0
C5528 C 0.20125 0.21321 0.41018 0.0
C5529 C 0.21898 0.19306 0.41746 0.0
C5530 C 0.18896 0.22881 0.4294 0.0
C5531 C 0.19389 0.22435 0.45631 0.0
H5532 H 0.19657 0.21662 0.38964 0.0
H5533 H 0.17509 0.24399 0.42319 0.0
S5534 S 0.24089 0.17626 0.48534 0.0
N5535 N 0.24299 0.17149 0.45328 0.0
N5536 N 0.21857 0.19976 0.48923 0.0
C5537 C 0.21174 0.20454 0.46376 0.0
C5538 C 0.22476 0.18924 0.44434 0.0
C5539 C 0.66572 0.36093 0.59185 0.0
C5540 C 0.68596 0.34873 0.57727 0.0
C5541 C 0.66686 0.38809 0.59801 0.0
C5542 C 0.6888 0.40359 0.59076 0.0
H5543 H 0.64798 0.35005 0.59665 0.0
H5544 H 0.65008 0.39722 0.60774 0.0
S5545 S 0.75078 0.37812 0.56097 0.0
N5546 N 0.7308 0.35224 0.56109 0.0
N5547 N 0.7339 0.40298 0.57411 0.0
C5548 C 0.71079 0.39055 0.57973 0.0
C5549 C 0.70918 0.36312 0.57272 0.0
C5550 C 0.44157 0.9367 0.33976 0.0
C5551 C 0.44667 0.93938 0.31267 0.0
C5552 C 0.41537 0.93671 0.34909 0.0
C5553 C 0.39409 0.94114 0.33175 0.0
H5554 H 0.45737 0.93203 0.35338 0.0
H5555 H 0.41167 0.93157 0.36945 0.0
S5556 S 0.39862 0.96457 0.26321 0.0
N5557 N 0.42947 0.95769 0.27169 0.0
N5558 N 0.38037 0.95752 0.28916 0.0
C5559 C 0.39951 0.94953 0.30623 0.0
C5560 C 0.42599 0.94938 0.29683 0.0
C5561 C 0.88243 0.66684 0.09674 0.0
C5562 C 0.85934 0.66867 0.11171 0.0
C5563 C 0.88608 0.68336 0.07516 0.0
C5564 C 0.8669 0.70242 0.06857 0.0
H5565 H 0.89786 0.653 0.10209 0.0
H5566 H 0.90468 0.68233 0.06467 0.0
S5567 S 0.80027 0.70984 0.09718 0.0
N5568 N 0.81499 0.68707 0.11548 0.0
N5569 N 0.8223 0.71869 0.0749 0.0
C5570 C 0.84278 0.70267 0.08173 0.0
C5571 C 0.83888 0.68559 0.10348 0.0
C5572 C 0.57838 0.58801 0.35069 0.0
C5573 C 0.58558 0.59017 0.32404 0.0
C5574 C 0.5976 0.58576 0.37024 0.0
C5575 C 0.62454 0.58536 0.36364 0.0
H5576 H 0.55818 0.59105 0.35688 0.0
H5577 H 0.59149 0.58701 0.39064 0.0
S5578 S 0.65233 0.57779 0.2965 0.0
N5579 N 0.62019 0.58176 0.29185 0.0
N5580 N 0.65689 0.57901 0.32867 0.0
C5581 C 0.63155 0.58221 0.33704 0.0
C5582 C 0.6118 0.58416 0.31712 0.0
C5583 C 0.34278 0.87591 1.00565 0.0
C5584 C 0.3537 0.85726 0.98799 0.0
C5585 C 0.34125 0.90284 0.99914 0.0
C5586 C 0.34865 0.91166 0.97407 0.0
H5587 H 0.33802 0.87016 0.02562 0.0
H5588 H 0.33561 0.91699 1.01423 0.0
S5589 S 0.36723 0.86893 0.91734 0.0
N5590 N 0.36476 0.84815 0.94232 0.0
N5591 N 0.35975 0.89857 0.92921 0.0
C5592 C 0.35434 0.89241 0.95465 0.0
C5593 C 0.35701 0.86506 0.96171 0.0
C5594 C 0.46688 0.07118 0.17934 0.0
C5595 C 0.44298 0.08273 0.17107 0.0
C5596 C 0.48007 0.08077 0.20153 0.0
C5597 C 0.46946 0.1018 0.21638 0.0
H5598 H 0.47492 0.05401 0.16923 0.0
H5599 H 0.49851 0.0714 0.20733 0.0
S5600 S 0.40836 0.13988 0.2019 0.0
N5601 N 0.41015 0.11743 0.17823 0.0
N5602 N 0.43443 0.13464 0.22082 0.0
C5603 C 0.44577 0.11371 0.20819 0.0
C5604 C 0.43271 0.10445 0.18521 0.0
C5605 C 0.1291 0.92775 0.69327 0.0
C5606 C 0.14885 0.93339 0.71196 0.0
C5607 C 0.1022 0.92964 0.69991 0.0
C5608 C 0.09445 0.93616 0.72572 0.0
H5609 H 0.13449 0.92069 0.67384 0.0
H5610 H 0.08758 0.92401 0.68535 0.0
S5611 S 0.13907 0.96091 0.77871 0.0
N5612 N 0.15923 0.95178 0.75479 0.0
N5613 N 0.10883 0.95507 0.7677 0.0
C5614 C 0.11416 0.94535 0.74328 0.0
C5615 C 0.14142 0.9437 0.73638 0.0
loop_
_geom_bond_atom_site_label_1
_geom_bond_atom_site_label_2
_geom_bond_distance
_geom_bond_site_symmetry_2
_ccdc_geom_bond_type
C0 C2 1.422 . S
C0 C4 1.415 . S
C0 N6 1.369 . S
C1 C2 1.421 . S
C1 C3 1.417 . S
C1 C13 1.422 . S
C2 C0 1.422 . S
C2 C1 1.421 . S
C2 N12 1.359 . S
C3 C1 1.417 . S
C3 C5 1.329 . S
C3 H22 0.930 . S
C4 C0 1.415 . S
C4 C5 1.437 . S
C4 C8 1.413 . S
C5 C3 1.329 . S
C5 C4 1.437 . S
C5 H27 0.929 . S
N6 C0 1.369 . S
N6 C7 1.338 . S
N6 Gd11 2.622 . S
C7 N6 1.338 . S
C7 C9 1.378 . S
C7 H19 0.929 1_655 S
C8 C4 1.413 . S
C8 C9 1.348 . S
C8 H24 0.931 . S
C9 C7 1.378 . S
C9 C8 1.348 . S
C9 H25 0.901 1_655 S
Gd10 N30 2.622 . S
Gd10 N37 2.570 . S
Gd10 O44 2.353 . S
Gd10 O45 2.468 . S
Gd10 O46 2.427 . S
Gd10 O48 2.388 . S
Gd10 O49 2.386 . S
Gd10 O53 2.307 . S
Gd10 C63 2.805 . S
Gd11 N6 2.622 . S
Gd11 N12 2.570 . S
Gd11 O43 2.386 . S
Gd11 O47 2.307 . S
Gd11 O50 2.353 1_655 S
Gd11 O51 2.468 . S
Gd11 O52 2.427 . S
Gd11 O54 2.388 1_655 S
Gd11 C75 2.805 . S
N12 C2 1.359 . S
N12 Gd11 2.570 . S
N12 C14 1.343 . S
C13 C1 1.422 . S
C13 C15 1.321 . S
C13 H21 0.931 . S
C14 N12 1.343 . S
C14 C15 1.390 . S
C14 H16 0.931 . S
C15 C13 1.321 . S
C15 C14 1.390 . S
C15 H17 0.930 . S
H16 C14 0.931 . S
H17 C15 0.930 . S
H18 C41 0.931 . S
H19 C7 0.929 1_455 S
H20 C42 0.930 . S
H21 C13 0.931 . S
H22 C3 0.930 . S
H23 C32 0.929 . S
H24 C8 0.931 . S
H25 C9 0.901 1_455 S
H26 C64 0.930 . S
H27 C5 0.929 . S
H28 C33 0.931 . S
H29 C34 0.930 . S
N30 Gd10 2.622 . S
N30 C31 1.369 . S
N30 C32 1.338 . S
C31 N30 1.369 . S
C31 C35 1.415 . S
C31 C38 1.422 . S
C32 H23 0.929 . S
C32 N30 1.338 . S
C32 C34 1.378 . S
C33 H28 0.931 . S
C33 C34 1.348 . S
C33 C35 1.413 . S
C34 H29 0.930 . S
C34 C32 1.378 . S
C34 C33 1.348 . S
C35 C31 1.415 . S
C35 C33 1.413 . S
C35 C65 1.437 . S
H36 C65 0.929 . S
N37 Gd10 2.570 . S
N37 C38 1.359 . S
N37 C41 1.343 . S
C38 C31 1.422 . S
C38 N37 1.359 . S
C38 C40 1.421 . S
C39 C40 1.422 . S
C39 C42 1.321 . S
C39 H66 0.931 . S
C40 C38 1.421 . S
C40 C39 1.422 . S
C40 C64 1.417 . S
C41 H18 0.931 . S
C41 N37 1.343 . S
C41 C42 1.390 . S
C42 H20 0.930 . S
C42 C39 1.321 . S
C42 C41 1.390 . S
O43 Gd11 2.386 . S
O43 C55 1.265 1_655 S
O44 Gd10 2.353 . S
O44 C55 1.242 . S
O45 Gd10 2.468 . S
O45 C63 1.263 . S
O46 Gd10 2.427 . S
O46 C63 1.252 . S
O47 Gd11 2.307 . S
O47 C56 1.261 . S
O48 Gd10 2.388 . S
O48 C56 1.252 1_455 S
O49 Gd10 2.386 . S
O49 C67 1.265 . S
O50 Gd11 2.353 1_455 S
O50 C67 1.242 . S
O51 Gd11 2.468 . S
O51 C75 1.263 . S
O52 Gd11 2.427 . S
O52 C75 1.252 . S
O53 Gd10 2.307 . S
O53 C68 1.261 . S
O54 Gd11 2.388 1_455 S
O54 C68 1.252 . S
C55 O43 1.265 1_455 S
C55 O44 1.242 . S
C56 O47 1.261 . S
C56 O48 1.252 1_655 S
C57 C60 1.394 . S
C57 C62 1.370 . S
C57 C63 1.500 . S
C58 C61 1.383 . S
C58 C62 1.395 . S
C59 C60 1.396 . S
C59 C61 1.365 . S
C59 H76 0.929 . S
C60 C57 1.394 . S
C60 C59 1.396 . S
C60 H77 0.930 . S
C61 C58 1.383 . S
C61 C59 1.365 . S
C61 H78 0.931 . S
C62 C57 1.370 . S
C62 C58 1.395 . S
C62 H79 0.930 . S
C63 Gd10 2.805 . S
C63 O45 1.263 . S
C63 O46 1.252 . S
C63 C57 1.500 . S
C64 H26 0.930 . S
C64 C40 1.417 . S
C64 C65 1.329 . S
C65 C35 1.437 . S
C65 H36 0.929 . S
C65 C64 1.329 . S
H66 C39 0.931 . S
C67 O49 1.265 . S
C67 O50 1.242 . S
C68 O53 1.261 . S
C68 O54 1.252 . S
C69 C72 1.394 . S
C69 C74 1.370 . S
C69 C75 1.500 . S
C70 C73 1.383 . S
C70 C74 1.395 . S
C71 C72 1.396 . S
C71 C73 1.365 . S
C71 H80 0.929 . S
C72 C69 1.394 . S
C72 C71 1.396 . S
C72 H81 0.930 . S
C73 C70 1.383 . S
C73 C71 1.365 . S
C73 H82 0.931 . S
C74 C69 1.370 . S
C74 C70 1.395 . S
C74 H83 0.930 . S
C75 Gd11 2.805 . S
C75 O51 1.263 . S
C75 O52 1.252 . S
C75 C69 1.500 . S
H76 C59 0.929 . S
H77 C60 0.930 . S
H78 C61 0.931 . S
H79 C62 0.930 . S
H80 C71 0.929 . S
H81 C72 0.930 . S
H82 C73 0.931 . S
H83 C74 0.930 . S
C84 C86 1.422 . S
C84 C88 1.415 . S
C84 N90 1.369 . S
C85 C86 1.421 . S
C85 C87 1.417 . S
C85 C97 1.422 . S
C86 C84 1.422 . S
C86 C85 1.421 . S
C86 N96 1.359 . S
C87 C85 1.417 . S
C87 C89 1.329 . S
C87 H106 0.930 . S
C88 C84 1.415 . S
C88 C89 1.437 . S
C88 C92 1.413 . S
C89 C87 1.329 . S
C89 C88 1.437 . S
C89 H111 0.929 . S
N90 C84 1.369 . S
N90 C91 1.338 . S
N90 Gd95 2.622 . S
C91 N90 1.338 . S
C91 C93 1.378 . S
C91 H103 0.929 . S
C92 C88 1.413 . S
C92 C93 1.348 . S
C92 H108 0.931 . S
C93 C91 1.378 . S
C93 C92 1.348 . S
C93 H109 0.930 . S
Gd94 N114 2.622 . S
Gd94 N121 2.570 . S
Gd94 O128 2.353 . S
Gd94 O129 2.468 . S
Gd94 O130 2.427 . S
Gd94 O132 2.388 . S
Gd94 O133 2.386 . S
Gd94 O137 2.307 . S
Gd94 C147 2.805 . S
Gd95 N90 2.622 . S
Gd95 N96 2.570 . S
Gd95 O127 2.386 . S
Gd95 O131 2.307 . S
Gd95 O134 2.353 . S
Gd95 O135 2.468 . S
Gd95 O136 2.427 . S
Gd95 O138 2.388 . S
Gd95 C159 2.805 . S
N96 C86 1.359 . S
N96 Gd95 2.570 . S
N96 C98 1.343 . S
C97 C85 1.422 . S
C97 C99 1.321 . S
C97 H105 0.931 . S
C98 N96 1.343 . S
C98 C99 1.390 . S
C98 H100 0.931 . S
C99 C97 1.321 . S
C99 C98 1.390 . S
C99 H101 0.930 . S
H100 C98 0.931 . S
H101 C99 0.930 . S
H102 C125 0.931 . S
H103 C91 0.929 . S
H104 C126 0.930 . S
H105 C97 0.931 . S
H106 C87 0.930 . S
H107 C116 0.929 . S
H108 C92 0.931 . S
H109 C93 0.930 . S
H110 C148 0.930 . S
H111 C89 0.929 . S
H112 C117 0.931 . S
H113 C118 0.930 . S
N114 Gd94 2.622 . S
N114 C115 1.369 . S
N114 C116 1.338 . S
C115 N114 1.369 . S
C115 C119 1.415 . S
C115 C122 1.422 . S
C116 H107 0.929 . S
C116 N114 1.338 . S
C116 C118 1.378 . S
C117 H112 0.931 . S
C117 C118 1.348 . S
C117 C119 1.413 . S
C118 H113 0.930 . S
C118 C116 1.378 . S
C118 C117 1.348 . S
C119 C115 1.415 . S
C119 C117 1.413 . S
C119 C149 1.437 . S
H120 C149 0.929 . S
N121 Gd94 2.570 . S
N121 C122 1.359 . S
N121 C125 1.343 . S
C122 C115 1.422 . S
C122 N121 1.359 . S
C122 C124 1.421 . S
C123 C124 1.422 . S
C123 C126 1.321 . S
C123 H150 0.931 . S
C124 C122 1.421 . S
C124 C123 1.422 . S
C124 C148 1.417 . S
C125 H102 0.931 . S
C125 N121 1.343 . S
C125 C126 1.390 . S
C126 H104 0.930 . S
C126 C123 1.321 . S
C126 C125 1.390 . S
O127 Gd95 2.386 . S
O127 C139 1.265 . S
O128 Gd94 2.353 . S
O128 C139 1.242 . S
O129 Gd94 2.468 . S
O129 C147 1.263 . S
O130 Gd94 2.427 . S
O130 C147 1.252 . S
O131 Gd95 2.307 . S
O131 C140 1.261 . S
O132 Gd94 2.388 . S
O132 C140 1.252 . S
O133 Gd94 2.386 . S
O133 C151 1.265 . S
O134 Gd95 2.353 . S
O134 C151 1.242 . S
O135 Gd95 2.468 . S
O135 C159 1.263 . S
O136 Gd95 2.427 . S
O136 C159 1.252 . S
O137 Gd94 2.307 . S
O137 C152 1.261 . S
O138 Gd95 2.388 . S
O138 C152 1.252 . S
C139 O127 1.265 . S
C139 O128 1.242 . S
C140 O131 1.261 . S
C140 O132 1.252 . S
C141 C144 1.394 . S
C141 C146 1.370 . S
C141 C147 1.500 . S
C142 C145 1.383 . S
C142 C146 1.395 . S
C143 C144 1.396 . S
C143 C145 1.365 . S
C143 H160 0.929 . S
C144 C141 1.394 . S
C144 C143 1.396 . S
C144 H161 0.930 . S
C145 C142 1.383 . S
C145 C143 1.365 . S
C145 H162 0.931 . S
C146 C141 1.370 . S
C146 C142 1.395 . S
C146 H163 0.930 . S
C147 Gd94 2.805 . S
C147 O129 1.263 . S
C147 O130 1.252 . S
C147 C141 1.500 . S
C148 H110 0.930 . S
C148 C124 1.417 . S
C148 C149 1.329 . S
C149 C119 1.437 . S
C149 H120 0.929 . S
C149 C148 1.329 . S
H150 C123 0.931 . S
C151 O133 1.265 . S
C151 O134 1.242 . S
C152 O137 1.261 . S
C152 O138 1.252 . S
C153 C156 1.394 . S
C153 C158 1.370 . S
C153 C159 1.500 . S
C154 C157 1.383 . S
C154 C158 1.395 . S
C155 C156 1.396 . S
C155 C157 1.365 . S
C155 H164 0.929 . S
C156 C153 1.394 . S
C156 C155 1.396 . S
C156 H165 0.930 . S
C157 C154 1.383 . S
C157 C155 1.365 . S
C157 H166 0.931 . S
C158 C153 1.370 . S
C158 C154 1.395 . S
C158 H167 0.930 . S
C159 Gd95 2.805 . S
C159 O135 1.263 . S
C159 O136 1.252 . S
C159 C153 1.500 . S
H160 C143 0.929 . S
H161 C144 0.930 . S
H162 C145 0.931 . S
H163 C146 0.930 . S
H164 C155 0.929 . S
H165 C156 0.930 . S
H166 C157 0.931 . S
H167 C158 0.930 . S
C168 C170 1.422 . S
C168 C172 1.415 . S
C168 N174 1.369 . S
C169 C170 1.421 . S
C169 C171 1.417 . S
C169 C181 1.422 . S
C170 C168 1.422 . S
C170 C169 1.421 . S
C170 N180 1.359 . S
C171 C169 1.417 . S
C171 C173 1.329 . S
C171 H190 0.930 . S
C172 C168 1.415 . S
C172 C173 1.437 . S
C172 C176 1.413 . S
C173 C171 1.329 . S
C173 C172 1.437 . S
C173 H195 0.929 . S
N174 C168 1.369 . S
N174 C175 1.338 . S
N174 Gd179 2.622 . S
C175 N174 1.338 . S
C175 C177 1.378 . S
C175 H187 0.929 . S
C176 C172 1.413 . S
C176 C177 1.348 . S
C176 H192 0.931 . S
C177 C175 1.378 . S
C177 C176 1.348 . S
C177 H193 0.930 . S
Gd178 N198 2.622 . S
Gd178 N205 2.570 . S
Gd178 O212 2.353 . S
Gd178 O213 2.468 . S
Gd178 O214 2.427 . S
Gd178 O216 2.388 . S
Gd178 O217 2.386 . S
Gd178 O221 2.307 . S
Gd178 C231 2.805 . S
Gd179 N174 2.622 . S
Gd179 N180 2.570 . S
Gd179 O211 2.386 . S
Gd179 O215 2.307 . S
Gd179 O218 2.353 . S
Gd179 O219 2.468 . S
Gd179 O220 2.427 . S
Gd179 O222 2.388 . S
Gd179 C243 2.805 . S
N180 C170 1.359 . S
N180 Gd179 2.570 . S
N180 C182 1.343 . S
C181 C169 1.422 . S
C181 C183 1.321 . S
C181 H189 0.931 . S
C182 N180 1.343 . S
C182 C183 1.390 . S
C182 H184 0.931 . S
C183 C181 1.321 . S
C183 C182 1.390 . S
C183 H185 0.930 . S
H184 C182 0.931 . S
H185 C183 0.930 . S
H186 C209 0.931 . S
H187 C175 0.929 . S
H188 C210 0.930 . S
H189 C181 0.931 . S
H190 C171 0.930 . S
H191 C200 0.929 . S
H192 C176 0.931 . S
H193 C177 0.930 . S
H194 C232 0.930 . S
H195 C173 0.929 . S
H196 C201 0.931 . S
H197 C202 0.930 . S
N198 Gd178 2.622 . S
N198 C199 1.369 . S
N198 C200 1.338 . S
C199 N198 1.369 . S
C199 C203 1.415 . S
C199 C206 1.422 . S
C200 H191 0.929 . S
C200 N198 1.338 . S
C200 C202 1.378 . S
C201 H196 0.931 . S
C201 C202 1.348 . S
C201 C203 1.413 . S
C202 H197 0.930 . S
C202 C200 1.378 . S
C202 C201 1.348 . S
C203 C199 1.415 . S
C203 C201 1.413 . S
C203 C233 1.437 . S
H204 C233 0.929 . S
N205 Gd178 2.570 . S
N205 C206 1.359 . S
N205 C209 1.343 . S
C206 C199 1.422 . S
C206 N205 1.359 . S
C206 C208 1.421 . S
C207 C208 1.422 . S
C207 C210 1.321 . S
C207 H234 0.931 . S
C208 C206 1.421 . S
C208 C207 1.422 . S
C208 C232 1.417 . S
C209 H186 0.931 . S
C209 N205 1.343 . S
C209 C210 1.390 . S
C210 H188 0.930 . S
C210 C207 1.321 . S
C210 C209 1.390 . S
O211 Gd179 2.386 . S
O211 C223 1.265 . S
O212 Gd178 2.353 . S
O212 C223 1.242 . S
O213 Gd178 2.468 . S
O213 C231 1.263 . S
O214 Gd178 2.427 . S
O214 C231 1.252 . S
O215 Gd179 2.307 . S
O215 C224 1.261 . S
O216 Gd178 2.388 . S
O216 C224 1.252 . S
O217 Gd178 2.386 . S
O217 C235 1.265 . S
O218 Gd179 2.353 . S
O218 C235 1.242 . S
O219 Gd179 2.468 . S
O219 C243 1.263 . S
O220 Gd179 2.427 . S
O220 C243 1.252 . S
O221 Gd178 2.307 . S
O221 C236 1.261 . S
O222 Gd179 2.388 . S
O222 C236 1.252 . S
C223 O211 1.265 . S
C223 O212 1.242 . S
C224 O215 1.261 . S
C224 O216 1.252 . S
C225 C228 1.394 . S
C225 C230 1.370 . S
C225 C231 1.500 . S
C226 C229 1.383 . S
C226 C230 1.395 . S
C227 C228 1.396 . S
C227 C229 1.365 . S
C227 H244 0.929 . S
C228 C225 1.394 . S
C228 C227 1.396 . S
C228 H245 0.930 . S
C229 C226 1.383 . S
C229 C227 1.365 . S
C229 H246 0.931 . S
C230 C225 1.370 . S
C230 C226 1.395 . S
C230 H247 0.930 . S
C231 Gd178 2.805 . S
C231 O213 1.263 . S
C231 O214 1.252 . S
C231 C225 1.500 . S
C232 H194 0.930 . S
C232 C208 1.417 . S
C232 C233 1.329 . S
C233 C203 1.437 . S
C233 H204 0.929 . S
C233 C232 1.329 . S
H234 C207 0.931 . S
C235 O217 1.265 . S
C235 O218 1.242 . S
C236 O221 1.261 . S
C236 O222 1.252 . S
C237 C240 1.394 . S
C237 C242 1.370 . S
C237 C243 1.500 . S
C238 C241 1.383 . S
C238 C242 1.395 . S
C239 C240 1.396 . S
C239 C241 1.365 . S
C239 H248 0.929 . S
C240 C237 1.394 . S
C240 C239 1.396 . S
C240 H249 0.930 . S
C241 C238 1.383 . S
C241 C239 1.365 . S
C241 H250 0.931 . S
C242 C237 1.370 . S
C242 C238 1.395 . S
C242 H251 0.930 . S
C243 Gd179 2.805 . S
C243 O219 1.263 . S
C243 O220 1.252 . S
C243 C237 1.500 . S
H244 C227 0.929 . S
H245 C228 0.930 . S
H246 C229 0.931 . S
H247 C230 0.930 . S
H248 C239 0.929 . S
H249 C240 0.930 . S
H250 C241 0.931 . S
H251 C242 0.930 . S
C252 C254 1.422 . S
C252 C256 1.415 . S
C252 N258 1.369 . S
C253 C254 1.421 . S
C253 C255 1.417 . S
C253 C265 1.422 . S
C254 C252 1.422 . S
C254 C253 1.421 . S
C254 N264 1.359 . S
C255 C253 1.417 . S
C255 C257 1.329 . S
C255 H274 0.930 . S
C256 C252 1.415 . S
C256 C257 1.437 . S
C256 C260 1.413 . S
C257 C255 1.329 . S
C257 C256 1.437 . S
C257 H279 0.929 . S
N258 C252 1.369 . S
N258 C259 1.338 . S
N258 Gd263 2.622 . S
C259 N258 1.338 . S
C259 C261 1.378 . S
C259 H271 0.929 . S
C260 C256 1.413 . S
C260 C261 1.348 . S
C260 H276 0.931 . S
C261 C259 1.378 . S
C261 C260 1.348 . S
C261 H277 0.930 . S
Gd262 N282 2.622 . S
Gd262 N289 2.570 1_556 S
Gd262 O296 2.353 . S
Gd262 O297 2.468 . S
Gd262 O298 2.427 . S
Gd262 O300 2.388 . S
Gd262 O301 2.386 1_556 S
Gd262 O305 2.307 1_556 S
Gd262 C315 2.805 . S
Gd263 N258 2.622 . S
Gd263 N264 2.570 . S
Gd263 O295 2.386 . S
Gd263 O299 2.307 . S
Gd263 O302 2.353 . S
Gd263 O303 2.468 . S
Gd263 O304 2.427 . S
Gd263 O306 2.388 . S
Gd263 C327 2.805 . S
N264 C254 1.359 . S
N264 Gd263 2.570 . S
N264 C266 1.343 . S
C265 C253 1.422 . S
C265 C267 1.321 . S
C265 H273 0.931 . S
C266 N264 1.343 . S
C266 C267 1.390 . S
C266 H268 0.931 . S
C267 C265 1.321 . S
C267 C266 1.390 . S
C267 H269 0.930 . S
H268 C266 0.931 . S
H269 C267 0.930 . S
H270 C293 0.931 . S
H271 C259 0.929 . S
H272 C294 0.930 . S
H273 C265 0.931 . S
H274 C255 0.930 . S
H275 C284 0.929 . S
H276 C260 0.931 . S
H277 C261 0.930 . S
H278 C316 0.930 . S
H279 C257 0.929 . S
H280 C285 0.931 . S
H281 C286 0.930 . S
N282 Gd262 2.622 . S
N282 C283 1.369 . S
N282 C284 1.338 . S
C283 N282 1.369 . S
C283 C287 1.415 . S
C283 C290 1.422 . S
C284 H275 0.929 . S
C284 N282 1.338 . S
C284 C286 1.378 . S
C285 H280 0.931 . S
C285 C286 1.348 . S
C285 C287 1.413 . S
C286 H281 0.930 . S
C286 C284 1.378 . S
C286 C285 1.348 . S
C287 C283 1.415 . S
C287 C285 1.413 . S
C287 C317 1.437 . S
H288 C317 0.929 . S
N289 Gd262 2.570 1_554 S
N289 C290 1.359 1_554 S
N289 C293 1.343 . S
C290 C283 1.422 . S
C290 N289 1.359 1_556 S
C290 C292 1.421 1_556 S
C291 C292 1.422 . S
C291 C294 1.321 . S
C291 H318 0.931 . S
C292 C290 1.421 1_554 S
C292 C291 1.422 . S
C292 C316 1.417 . S
C293 H270 0.931 . S
C293 N289 1.343 . S
C293 C294 1.390 . S
C294 H272 0.930 . S
C294 C291 1.321 . S
C294 C293 1.390 . S
O295 Gd263 2.386 . S
O295 C307 1.265 1_554 S
O296 Gd262 2.353 . S
O296 C307 1.242 . S
O297 Gd262 2.468 . S
O297 C315 1.263 . S
O298 Gd262 2.427 . S
O298 C315 1.252 . S
O299 Gd263 2.307 . S
O299 C308 1.261 1_554 S
O300 Gd262 2.388 . S
O300 C308 1.252 . S
O301 Gd262 2.386 1_554 S
O301 C319 1.265 . S
O302 Gd263 2.353 . S
O302 C319 1.242 . S
O303 Gd263 2.468 . S
O303 C327 1.263 . S
O304 Gd263 2.427 . S
O304 C327 1.252 . S
O305 Gd262 2.307 1_554 S
O305 C320 1.261 . S
O306 Gd263 2.388 . S
O306 C320 1.252 . S
C307 O295 1.265 1_556 S
C307 O296 1.242 . S
C308 O299 1.261 1_556 S
C308 O300 1.252 . S
C309 C312 1.394 . S
C309 C314 1.370 . S
C309 C315 1.500 . S
C310 C313 1.383 . S
C310 C314 1.395 . S
C311 C312 1.396 . S
C311 C313 1.365 . S
C311 H328 0.929 . S
C312 C309 1.394 . S
C312 C311 1.396 . S
C312 H329 0.930 . S
C313 C310 1.383 . S
C313 C311 1.365 . S
C313 H330 0.931 . S
C314 C309 1.370 . S
C314 C310 1.395 . S
C314 H331 0.930 . S
C315 Gd262 2.805 . S
C315 O297 1.263 . S
C315 O298 1.252 . S
C315 C309 1.500 . S
C316 H278 0.930 . S
C316 C292 1.417 . S
C316 C317 1.329 1_554 S
C317 C287 1.437 . S
C317 H288 0.929 . S
C317 C316 1.329 1_556 S
H318 C291 0.931 . S
C319 O301 1.265 . S
C319 O302 1.242 . S
C320 O305 1.261 . S
C320 O306 1.252 . S
C321 C324 1.394 . S
C321 C326 1.370 . S
C321 C327 1.500 . S
C322 C325 1.383 . S
C322 C326 1.395 . S
C323 C324 1.396 . S
C323 C325 1.365 . S
C323 H332 0.929 . S
C324 C321 1.394 . S
C324 C323 1.396 . S
C324 H333 0.930 . S
C325 C322 1.383 . S
C325 C323 1.365 . S
C325 H334 0.931 . S
C326 C321 1.370 . S
C326 C322 1.395 . S
C326 H335 0.930 . S
C327 Gd263 2.805 . S
C327 O303 1.263 . S
C327 O304 1.252 . S
C327 C321 1.500 . S
H328 C311 0.929 . S
H329 C312 0.930 . S
H330 C313 0.931 . S
H331 C314 0.930 . S
H332 C323 0.929 . S
H333 C324 0.930 . S
H334 C325 0.931 . S
H335 C326 0.930 . S
C336 C338 1.422 . S
C336 C340 1.415 . S
C336 N342 1.369 . S
C337 C338 1.421 . S
C337 C339 1.417 . S
C337 C349 1.422 . S
C338 C336 1.422 . S
C338 C337 1.421 . S
C338 N348 1.359 . S
C339 C337 1.417 . S
C339 C341 1.329 . S
C339 H358 0.930 . S
C340 C336 1.415 . S
C340 C341 1.437 . S
C340 C344 1.413 . S
C341 C339 1.329 . S
C341 C340 1.437 . S
C341 H363 0.929 . S
N342 C336 1.369 . S
N342 C343 1.338 . S
N342 Gd347 2.622 . S
C343 N342 1.338 . S
C343 C345 1.378 . S
C343 H355 0.929 1_655 S
C344 C340 1.413 . S
C344 C345 1.348 . S
C344 H360 0.931 . S
C345 C343 1.378 . S
C345 C344 1.348 . S
C345 H361 0.921 1_655 S
Gd346 N366 2.622 . S
Gd346 N373 2.570 . S
Gd346 O380 2.353 . S
Gd346 O381 2.468 . S
Gd346 O382 2.427 . S
Gd346 O384 2.388 . S
Gd346 O385 2.386 . S
Gd346 O389 2.307 . S
Gd346 C399 2.805 . S
Gd347 N342 2.622 . S
Gd347 N348 2.570 . S
Gd347 O379 2.386 . S
Gd347 O383 2.307 . S
Gd347 O386 2.353 1_655 S
Gd347 O387 2.468 . S
Gd347 O388 2.427 . S
Gd347 O390 2.388 1_655 S
Gd347 C411 2.805 . S
N348 C338 1.359 . S
N348 Gd347 2.570 . S
N348 C350 1.343 . S
C349 C337 1.422 . S
C349 C351 1.321 . S
C349 H357 0.931 . S
C350 N348 1.343 . S
C350 C351 1.390 . S
C350 H352 0.931 . S
C351 C349 1.321 . S
C351 C350 1.390 . S
C351 H353 0.930 . S
H352 C350 0.931 . S
H353 C351 0.930 . S
H354 C377 0.931 . S
H355 C343 0.929 1_455 S
H356 C378 0.930 . S
H357 C349 0.931 . S
H358 C339 0.930 . S
H359 C368 0.929 . S
H360 C344 0.931 . S
H361 C345 0.921 1_455 S
H362 C400 0.930 . S
H363 C341 0.929 . S
H364 C369 0.931 . S
H365 C370 0.930 . S
N366 Gd346 2.622 . S
N366 C367 1.369 . S
N366 C368 1.338 . S
C367 N366 1.369 . S
C367 C371 1.415 . S
C367 C374 1.422 . S
C368 H359 0.929 . S
C368 N366 1.338 . S
C368 C370 1.378 . S
C369 H364 0.931 . S
C369 C370 1.348 . S
C369 C371 1.413 . S
C370 H365 0.930 . S
C370 C368 1.378 . S
C370 C369 1.348 . S
C371 C367 1.415 . S
C371 C369 1.413 . S
C371 C401 1.437 . S
H372 C401 0.929 . S
N373 Gd346 2.570 . S
N373 C374 1.359 . S
N373 C377 1.343 . S
C374 C367 1.422 . S
C374 N373 1.359 . S
C374 C376 1.421 . S
C375 C376 1.422 . S
C375 C378 1.321 . S
C375 H402 0.931 . S
C376 C374 1.421 . S
C376 C375 1.422 . S
C376 C400 1.417 . S
C377 H354 0.931 . S
C377 N373 1.343 . S
C377 C378 1.390 . S
C378 H356 0.930 . S
C378 C375 1.321 . S
C378 C377 1.390 . S
O379 Gd347 2.386 . S
O379 C391 1.265 1_655 S
O380 Gd346 2.353 . S
O380 C391 1.242 . S
O381 Gd346 2.468 . S
O381 C399 1.263 . S
O382 Gd346 2.427 . S
O382 C399 1.252 . S
O383 Gd347 2.307 . S
O383 C392 1.261 . S
O384 Gd346 2.388 . S
O384 C392 1.252 1_455 S
O385 Gd346 2.386 . S
O385 C403 1.265 . S
O386 Gd347 2.353 1_455 S
O386 C403 1.242 . S
O387 Gd347 2.468 . S
O387 C411 1.263 . S
O388 Gd347 2.427 . S
O388 C411 1.252 . S
O389 Gd346 2.307 . S
O389 C404 1.261 . S
O390 Gd347 2.388 1_455 S
O390 C404 1.252 . S
C391 O379 1.265 1_455 S
C391 O380 1.242 . S
C392 O383 1.261 . S
C392 O384 1.252 1_655 S
C393 C396 1.394 . S
C393 C398 1.370 . S
C393 C399 1.500 . S
C394 C397 1.383 . S
C394 C398 1.395 . S
C395 C396 1.396 . S
C395 C397 1.365 . S
C395 H412 0.929 . S
C396 C393 1.394 . S
C396 C395 1.396 . S
C396 H413 0.930 . S
C397 C394 1.383 . S
C397 C395 1.365 . S
C397 H414 0.931 . S
C398 C393 1.370 . S
C398 C394 1.395 . S
C398 H415 0.930 . S
C399 Gd346 2.805 . S
C399 O381 1.263 . S
C399 O382 1.252 . S
C399 C393 1.500 . S
C400 H362 0.930 . S
C400 C376 1.417 . S
C400 C401 1.329 . S
C401 C371 1.437 . S
C401 H372 0.929 . S
C401 C400 1.329 . S
H402 C375 0.931 . S
C403 O385 1.265 . S
C403 O386 1.242 . S
C404 O389 1.261 . S
C404 O390 1.252 . S
C405 C408 1.394 . S
C405 C410 1.370 . S
C405 C411 1.500 . S
C406 C409 1.383 . S
C406 C410 1.395 . S
C407 C408 1.396 . S
C407 C409 1.365 . S
C407 H416 0.929 . S
C408 C405 1.394 . S
C408 C407 1.396 . S
C408 H417 0.930 . S
C409 C406 1.383 . S
C409 C407 1.365 . S
C409 H418 0.931 . S
C410 C405 1.370 . S
C410 C406 1.395 . S
C410 H419 0.930 . S
C411 Gd347 2.805 . S
C411 O387 1.263 . S
C411 O388 1.252 . S
C411 C405 1.500 . S
H412 C395 0.929 . S
H413 C396 0.930 . S
H414 C397 0.931 . S
H415 C398 0.930 . S
H416 C407 0.929 . S
H417 C408 0.930 . S
H418 C409 0.931 . S
H419 C410 0.930 . S
C420 C422 1.422 . S
C420 C424 1.415 . S
C420 N426 1.369 . S
C421 C422 1.421 . S
C421 C423 1.417 . S
C421 C433 1.422 . S
C422 C420 1.422 . S
C422 C421 1.421 . S
C422 N432 1.359 . S
C423 C421 1.417 . S
C423 C425 1.329 . S
C423 H442 0.930 . S
C424 C420 1.415 . S
C424 C425 1.437 . S
C424 C428 1.413 . S
C425 C423 1.329 . S
C425 C424 1.437 . S
C425 H447 0.929 . S
N426 C420 1.369 . S
N426 C427 1.338 . S
N426 Gd431 2.622 . S
C427 N426 1.338 . S
C427 C429 1.378 . S
C427 H439 0.929 . S
C428 C424 1.413 . S
C428 C429 1.348 . S
C428 H444 0.931 . S
C429 C427 1.378 . S
C429 C428 1.348 . S
C429 H445 0.930 . S
Gd430 N450 2.622 . S
Gd430 N457 2.570 . S
Gd430 O464 2.353 . S
Gd430 O465 2.468 . S
Gd430 O466 2.427 . S
Gd430 O468 2.388 . S
Gd430 O469 2.386 . S
Gd430 O473 2.307 . S
Gd430 C483 2.805 . S
Gd431 N426 2.622 . S
Gd431 N432 2.570 . S
Gd431 O463 2.386 . S
Gd431 O467 2.307 . S
Gd431 O470 2.353 . S
Gd431 O471 2.468 . S
Gd431 O472 2.427 . S
Gd431 O474 2.388 . S
Gd431 C495 2.805 . S
N432 C422 1.359 . S
N432 Gd431 2.570 . S
N432 C434 1.343 . S
C433 C421 1.422 . S
C433 C435 1.321 . S
C433 H441 0.931 . S
C434 N432 1.343 . S
C434 C435 1.390 . S
C434 H436 0.931 . S
C435 C433 1.321 . S
C435 C434 1.390 . S
C435 H437 0.930 . S
H436 C434 0.931 . S
H437 C435 0.930 . S
H438 C461 0.931 . S
H439 C427 0.929 . S
H440 C462 0.930 . S
H441 C433 0.931 . S
H442 C423 0.930 . S
H443 C452 0.929 . S
H444 C428 0.931 . S
H445 C429 0.930 . S
H446 C484 0.930 . S
H447 C425 0.929 . S
H448 C453 0.931 . S
H449 C454 0.930 . S
N450 Gd430 2.622 . S
N450 C451 1.369 . S
N450 C452 1.338 . S
C451 N450 1.369 . S
C451 C455 1.415 . S
C451 C458 1.422 . S
C452 H443 0.929 . S
C452 N450 1.338 . S
C452 C454 1.378 . S
C453 H448 0.931 . S
C453 C454 1.348 . S
C453 C455 1.413 . S
C454 H449 0.930 . S
C454 C452 1.378 . S
C454 C453 1.348 . S
C455 C451 1.415 . S
C455 C453 1.413 . S
C455 C485 1.437 . S
H456 C485 0.929 . S
N457 Gd430 2.570 . S
N457 C458 1.359 . S
N457 C461 1.343 . S
C458 C451 1.422 . S
C458 N457 1.359 . S
C458 C460 1.421 . S
C459 C460 1.422 . S
C459 C462 1.321 . S
C459 H486 0.931 . S
C460 C458 1.421 . S
C460 C459 1.422 . S
C460 C484 1.417 . S
C461 H438 0.931 . S
C461 N457 1.343 . S
C461 C462 1.390 . S
C462 H440 0.930 . S
C462 C459 1.321 . S
C462 C461 1.390 . S
O463 Gd431 2.386 . S
O463 C475 1.265 . S
O464 Gd430 2.353 . S
O464 C475 1.242 . S
O465 Gd430 2.468 . S
O465 C483 1.263 . S
O466 Gd430 2.427 . S
O466 C483 1.252 . S
O467 Gd431 2.307 . S
O467 C476 1.261 . S
O468 Gd430 2.388 . S
O468 C476 1.252 . S
O469 Gd430 2.386 . S
O469 C487 1.265 . S
O470 Gd431 2.353 . S
O470 C487 1.242 . S
O471 Gd431 2.468 . S
O471 C495 1.263 . S
O472 Gd431 2.427 . S
O472 C495 1.252 . S
O473 Gd430 2.307 . S
O473 C488 1.261 . S
O474 Gd431 2.388 . S
O474 C488 1.252 . S
C475 O463 1.265 . S
C475 O464 1.242 . S
C476 O467 1.261 . S
C476 O468 1.252 . S
C477 C480 1.394 . S
C477 C482 1.370 . S
C477 C483 1.500 . S
C478 C481 1.383 . S
C478 C482 1.395 . S
C479 C480 1.396 . S
C479 C481 1.365 . S
C479 H496 0.929 . S
C480 C477 1.394 . S
C480 C479 1.396 . S
C480 H497 0.930 . S
C481 C478 1.383 . S
C481 C479 1.365 . S
C481 H498 0.931 . S
C482 C477 1.370 . S
C482 C478 1.395 . S
C482 H499 0.930 . S
C483 Gd430 2.805 . S
C483 O465 1.263 . S
C483 O466 1.252 . S
C483 C477 1.500 . S
C484 H446 0.930 . S
C484 C460 1.417 . S
C484 C485 1.329 . S
C485 C455 1.437 . S
C485 H456 0.929 . S
C485 C484 1.329 . S
H486 C459 0.931 . S
C487 O469 1.265 . S
C487 O470 1.242 . S
C488 O473 1.261 . S
C488 O474 1.252 . S
C489 C492 1.394 . S
C489 C494 1.370 . S
C489 C495 1.500 . S
C490 C493 1.383 . S
C490 C494 1.395 . S
C491 C492 1.396 . S
C491 C493 1.365 . S
C491 H500 0.929 . S
C492 C489 1.394 . S
C492 C491 1.396 . S
C492 H501 0.930 . S
C493 C490 1.383 . S
C493 C491 1.365 . S
C493 H502 0.931 . S
C494 C489 1.370 . S
C494 C490 1.395 . S
C494 H503 0.930 . S
C495 Gd431 2.805 . S
C495 O471 1.263 . S
C495 O472 1.252 . S
C495 C489 1.500 . S
H496 C479 0.929 . S
H497 C480 0.930 . S
H498 C481 0.931 . S
H499 C482 0.930 . S
H500 C491 0.929 . S
H501 C492 0.930 . S
H502 C493 0.931 . S
H503 C494 0.930 . S
C504 C506 1.422 . S
C504 C508 1.415 . S
C504 N510 1.369 . S
C505 C506 1.421 . S
C505 C507 1.417 . S
C505 C517 1.422 . S
C506 C504 1.422 . S
C506 C505 1.421 . S
C506 N516 1.359 . S
C507 C505 1.417 . S
C507 C509 1.329 . S
C507 H526 0.930 . S
C508 C504 1.415 . S
C508 C509 1.437 . S
C508 C512 1.413 . S
C509 C507 1.329 . S
C509 C508 1.437 . S
C509 H531 0.929 . S
N510 C504 1.369 . S
N510 C511 1.338 . S
N510 Gd515 2.622 . S
C511 N510 1.338 . S
C511 C513 1.378 . S
C511 H523 0.929 . S
C512 C508 1.413 . S
C512 C513 1.348 . S
C512 H528 0.931 . S
C513 C511 1.378 . S
C513 C512 1.348 . S
C513 H529 0.930 . S
Gd514 N534 2.622 . S
Gd514 N541 2.570 . S
Gd514 O548 2.353 . S
Gd514 O549 2.468 . S
Gd514 O550 2.427 . S
Gd514 O552 2.388 . S
Gd514 O553 2.386 . S
Gd514 O557 2.307 . S
Gd514 C567 2.805 . S
Gd515 N510 2.622 . S
Gd515 N516 2.570 . S
Gd515 O547 2.386 . S
Gd515 O551 2.307 . S
Gd515 O554 2.353 . S
Gd515 O555 2.468 . S
Gd515 O556 2.427 . S
Gd515 O558 2.388 . S
Gd515 C579 2.805 . S
N516 C506 1.359 . S
N516 Gd515 2.570 . S
N516 C518 1.343 . S
C517 C505 1.422 . S
C517 C519 1.321 . S
C517 H525 0.931 . S
C518 N516 1.343 . S
C518 C519 1.390 . S
C518 H520 0.931 . S
C519 C517 1.321 . S
C519 C518 1.390 . S
C519 H521 0.930 . S
H520 C518 0.931 . S
H521 C519 0.930 . S
H522 C545 0.931 . S
H523 C511 0.929 . S
H524 C546 0.930 . S
H525 C517 0.931 . S
H526 C507 0.930 . S
H527 C536 0.929 . S
H528 C512 0.931 . S
H529 C513 0.930 . S
H530 C568 0.930 . S
H531 C509 0.929 . S
H532 C537 0.931 . S
H533 C538 0.930 . S
N534 Gd514 2.622 . S
N534 C535 1.369 . S
N534 C536 1.338 . S
C535 N534 1.369 . S
C535 C539 1.415 . S
C535 C542 1.422 . S
C536 H527 0.929 . S
C536 N534 1.338 . S
C536 C538 1.378 . S
C537 H532 0.931 . S
C537 C538 1.348 . S
C537 C539 1.413 . S
C538 H533 0.930 . S
C538 C536 1.378 . S
C538 C537 1.348 . S
C539 C535 1.415 . S
C539 C537 1.413 . S
C539 C569 1.437 . S
H540 C569 0.929 . S
N541 Gd514 2.570 . S
N541 C542 1.359 . S
N541 C545 1.343 . S
C542 C535 1.422 . S
C542 N541 1.359 . S
C542 C544 1.421 . S
C543 C544 1.422 . S
C543 C546 1.321 . S
C543 H570 0.931 . S
C544 C542 1.421 . S
C544 C543 1.422 . S
C544 C568 1.417 . S
C545 H522 0.931 . S
C545 N541 1.343 . S
C545 C546 1.390 . S
C546 H524 0.930 . S
C546 C543 1.321 . S
C546 C545 1.390 . S
O547 Gd515 2.386 . S
O547 C559 1.265 . S
O548 Gd514 2.353 . S
O548 C559 1.242 . S
O549 Gd514 2.468 . S
O549 C567 1.263 . S
O550 Gd514 2.427 . S
O550 C567 1.252 . S
O551 Gd515 2.307 . S
O551 C560 1.261 . S
O552 Gd514 2.388 . S
O552 C560 1.252 . S
O553 Gd514 2.386 . S
O553 C571 1.265 . S
O554 Gd515 2.353 . S
O554 C571 1.242 . S
O555 Gd515 2.468 . S
O555 C579 1.263 . S
O556 Gd515 2.427 . S
O556 C579 1.252 . S
O557 Gd514 2.307 . S
O557 C572 1.261 . S
O558 Gd515 2.388 . S
O558 C572 1.252 . S
C559 O547 1.265 . S
C559 O548 1.242 . S
C560 O551 1.261 . S
C560 O552 1.252 . S
C561 C564 1.394 . S
C561 C566 1.370 . S
C561 C567 1.500 . S
C562 C565 1.383 . S
C562 C566 1.395 . S
C563 C564 1.396 . S
C563 C565 1.365 . S
C563 H580 0.929 . S
C564 C561 1.394 . S
C564 C563 1.396 . S
C564 H581 0.930 . S
C565 C562 1.383 . S
C565 C563 1.365 . S
C565 H582 0.931 . S
C566 C561 1.370 . S
C566 C562 1.395 . S
C566 H583 0.930 . S
C567 Gd514 2.805 . S
C567 O549 1.263 . S
C567 O550 1.252 . S
C567 C561 1.500 . S
C568 H530 0.930 . S
C568 C544 1.417 . S
C568 C569 1.329 . S
C569 C539 1.437 . S
C569 H540 0.929 . S
C569 C568 1.329 . S
H570 C543 0.931 . S
C571 O553 1.265 . S
C571 O554 1.242 . S
C572 O557 1.261 . S
C572 O558 1.252 . S
C573 C576 1.394 . S
C573 C578 1.370 . S
C573 C579 1.500 . S
C574 C577 1.383 . S
C574 C578 1.395 . S
C575 C576 1.396 . S
C575 C577 1.365 . S
C575 H584 0.929 . S
C576 C573 1.394 . S
C576 C575 1.396 . S
C576 H585 0.930 . S
C577 C574 1.383 . S
C577 C575 1.365 . S
C577 H586 0.931 . S
C578 C573 1.370 . S
C578 C574 1.395 . S
C578 H587 0.930 . S
C579 Gd515 2.805 . S
C579 O555 1.263 . S
C579 O556 1.252 . S
C579 C573 1.500 . S
H580 C563 0.929 . S
H581 C564 0.930 . S
H582 C565 0.931 . S
H583 C566 0.930 . S
H584 C575 0.929 . S
H585 C576 0.930 . S
H586 C577 0.931 . S
H587 C578 0.930 . S
C588 C590 1.422 . S
C588 C592 1.415 . S
C588 N594 1.369 . S
C589 C590 1.421 . S
C589 C591 1.417 . S
C589 C601 1.422 . S
C590 C588 1.422 . S
C590 C589 1.421 . S
C590 N600 1.359 . S
C591 C589 1.417 . S
C591 C593 1.329 . S
C591 H610 0.930 . S
C592 C588 1.415 . S
C592 C593 1.437 . S
C592 C596 1.413 . S
C593 C591 1.329 . S
C593 C592 1.437 . S
C593 H615 0.929 . S
N594 C588 1.369 . S
N594 C595 1.338 . S
N594 Gd599 2.622 . S
C595 N594 1.338 . S
C595 C597 1.378 . S
C595 H607 0.929 . S
C596 C592 1.413 . S
C596 C597 1.348 . S
C596 H612 0.931 . S
C597 C595 1.378 . S
C597 C596 1.348 . S
C597 H613 0.930 . S
Gd598 N618 2.622 . S
Gd598 N625 2.560 1_554 S
Gd598 O632 2.353 . S
Gd598 O633 2.468 . S
Gd598 O634 2.427 . S
Gd598 O636 2.388 . S
Gd598 O637 2.386 1_554 S
Gd598 O641 2.307 1_554 S
Gd598 C651 2.805 . S
Gd599 N594 2.622 . S
Gd599 N600 2.570 . S
Gd599 O631 2.386 . S
Gd599 O635 2.307 . S
Gd599 O638 2.353 . S
Gd599 O639 2.468 . S
Gd599 O640 2.427 . S
Gd599 O642 2.388 . S
Gd599 C663 2.805 . S
N600 C590 1.359 . S
N600 Gd599 2.570 . S
N600 C602 1.343 . S
C601 C589 1.422 . S
C601 C603 1.321 . S
C601 H609 0.931 . S
C602 N600 1.343 . S
C602 C603 1.390 . S
C602 H604 0.931 . S
C603 C601 1.321 . S
C603 C602 1.390 . S
C603 H605 0.914 1_556 S
H604 C602 0.931 . S
H605 C603 0.914 1_554 S
H606 C629 0.931 . S
H607 C595 0.929 . S
H608 C630 0.930 . S
H609 C601 0.931 . S
H610 C591 0.930 . S
H611 C620 0.929 . S
H612 C596 0.931 . S
H613 C597 0.930 . S
H614 C652 0.930 . S
H615 C593 0.929 . S
H616 C621 0.938 . S
H617 C622 0.930 . S
N618 Gd598 2.622 . S
N618 C619 1.369 . S
N618 C620 1.338 . S
C619 N618 1.369 . S
C619 C623 1.415 . S
C619 C626 1.422 . S
C620 H611 0.929 . S
C620 N618 1.338 . S
C620 C622 1.378 . S
C621 H616 0.938 . S
C621 C622 1.348 . S
C621 C623 1.413 . S
C622 H617 0.930 . S
C622 C620 1.378 . S
C622 C621 1.348 . S
C623 C619 1.415 . S
C623 C621 1.413 . S
C623 C653 1.437 . S
H624 C653 0.929 . S
N625 Gd598 2.560 1_556 S
N625 C626 1.351 1_556 S
N625 C629 1.368 . S
C626 C619 1.422 . S
C626 N625 1.351 1_554 S
C626 C628 1.421 1_554 S
C627 C628 1.422 . S
C627 C630 1.321 . S
C627 H654 0.931 . S
C628 C626 1.421 1_556 S
C628 C627 1.422 . S
C628 C652 1.418 . S
C629 H606 0.931 . S
C629 N625 1.368 . S
C629 C630 1.390 . S
C630 H608 0.930 . S
C630 C627 1.321 . S
C630 C629 1.390 . S
O631 Gd599 2.386 . S
O631 C643 1.265 1_556 S
O632 Gd598 2.353 . S
O632 C643 1.242 . S
O633 Gd598 2.468 . S
O633 C651 1.263 . S
O634 Gd598 2.427 . S
O634 C651 1.252 . S
O635 Gd599 2.307 . S
O635 C644 1.261 1_556 S
O636 Gd598 2.388 . S
O636 C644 1.252 . S
O637 Gd598 2.386 1_556 S
O637 C655 1.265 . S
O638 Gd599 2.353 . S
O638 C655 1.242 . S
O639 Gd599 2.468 . S
O639 C663 1.263 . S
O640 Gd599 2.427 . S
O640 C663 1.252 . S
O641 Gd598 2.307 1_556 S
O641 C656 1.261 . S
O642 Gd599 2.388 . S
O642 C656 1.252 . S
C643 O631 1.265 1_554 S
C643 O632 1.242 . S
C644 O635 1.261 1_554 S
C644 O636 1.252 . S
C645 C648 1.394 . S
C645 C650 1.370 . S
C645 C651 1.500 . S
C646 C649 1.383 . S
C646 C650 1.395 . S
C647 C648 1.396 . S
C647 C649 1.365 . S
C647 H664 0.929 . S
C648 C645 1.394 . S
C648 C647 1.396 . S
C648 H665 0.930 . S
C649 C646 1.383 . S
C649 C647 1.365 . S
C649 H666 0.931 . S
C650 C645 1.370 . S
C650 C646 1.395 . S
C650 H667 0.930 . S
C651 Gd598 2.805 . S
C651 O633 1.263 . S
C651 O634 1.252 . S
C651 C645 1.500 . S
C652 H614 0.930 . S
C652 C628 1.418 . S
C652 C653 1.328 1_556 S
C653 C623 1.437 . S
C653 H624 0.929 . S
C653 C652 1.328 1_554 S
H654 C627 0.931 . S
C655 O637 1.265 . S
C655 O638 1.242 . S
C656 O641 1.261 . S
C656 O642 1.252 . S
C657 C660 1.394 . S
C657 C662 1.370 . S
C657 C663 1.500 . S
C658 C661 1.383 . S
C658 C662 1.395 . S
C659 C660 1.396 . S
C659 C661 1.365 . S
C659 H668 0.929 . S
C660 C657 1.394 . S
C660 C659 1.396 . S
C660 H669 0.930 . S
C661 C658 1.383 . S
C661 C659 1.365 . S
C661 H670 0.931 . S
C662 C657 1.370 . S
C662 C658 1.395 . S
C662 H671 0.930 . S
C663 Gd599 2.805 . S
C663 O639 1.263 . S
C663 O640 1.252 . S
C663 C657 1.500 . S
H664 C647 0.929 . S
H665 C648 0.930 . S
H666 C649 0.931 . S
H667 C650 0.930 . S
H668 C659 0.929 . S
H669 C660 0.930 . S
H670 C661 0.931 . S
H671 C662 0.930 . S
C672 C674 1.422 . S
C672 C676 1.415 . S
C672 N678 1.369 . S
C673 C674 1.421 . S
C673 C675 1.417 . S
C673 C685 1.422 . S
C674 C672 1.422 . S
C674 C673 1.421 . S
C674 N684 1.359 . S
C675 C673 1.417 . S
C675 C677 1.329 . S
C675 H694 0.930 . S
C676 C672 1.415 . S
C676 C677 1.437 . S
C676 C680 1.413 . S
C677 C675 1.329 . S
C677 C676 1.437 . S
C677 H699 0.929 . S
N678 C672 1.369 . S
N678 C679 1.338 . S
N678 Gd683 2.622 . S
C679 N678 1.338 . S
C679 C681 1.378 . S
C679 H691 0.929 . S
C680 C676 1.413 . S
C680 C681 1.348 . S
C680 H696 0.931 . S
C681 C679 1.378 . S
C681 C680 1.348 . S
C681 H697 0.930 . S
Gd682 N702 2.622 . S
Gd682 N709 2.560 1_565 S
Gd682 O716 2.353 . S
Gd682 O717 2.468 . S
Gd682 O718 2.427 . S
Gd682 O720 2.388 . S
Gd682 O721 2.386 1_565 S
Gd682 O725 2.307 1_565 S
Gd682 C735 2.805 . S
Gd683 N678 2.622 . S
Gd683 N684 2.570 . S
Gd683 O715 2.386 . S
Gd683 O719 2.307 . S
Gd683 O722 2.353 . S
Gd683 O723 2.468 . S
Gd683 O724 2.427 . S
Gd683 O726 2.388 . S
Gd683 C747 2.805 . S
N684 C674 1.359 . S
N684 Gd683 2.570 . S
N684 C686 1.343 . S
C685 C673 1.422 . S
C685 C687 1.321 . S
C685 H693 0.931 . S
C686 N684 1.343 . S
C686 C687 1.390 . S
C686 H688 0.931 . S
C687 C685 1.321 . S
C687 C686 1.390 . S
C687 H689 0.924 1_545 S
H688 C686 0.931 . S
H689 C687 0.924 1_565 S
H690 C713 0.931 . S
H691 C679 0.929 . S
H692 C714 0.930 . S
H693 C685 0.931 . S
H694 C675 0.930 . S
H695 C704 0.929 . S
H696 C680 0.931 . S
H697 C681 0.930 . S
H698 C736 0.928 1_545 S
H699 C677 0.929 . S
H700 C705 0.931 . S
H701 C706 0.930 . S
N702 Gd682 2.622 . S
N702 C703 1.369 . S
N702 C704 1.338 . S
C703 N702 1.369 . S
C703 C707 1.415 . S
C703 C710 1.422 . S
C704 H695 0.929 . S
C704 N702 1.338 . S
C704 C706 1.378 . S
C705 H700 0.931 . S
C705 C706 1.348 . S
C705 C707 1.413 . S
C706 H701 0.930 . S
C706 C704 1.378 . S
C706 C705 1.348 . S
C707 C703 1.415 . S
C707 C705 1.413 . S
C707 C737 1.437 . S
H708 C737 0.929 . S
N709 Gd682 2.560 1_545 S
N709 C710 1.352 1_545 S
N709 C713 1.366 . S
C710 C703 1.422 . S
C710 N709 1.352 1_565 S
C710 C712 1.421 1_565 S
C711 C712 1.422 . S
C711 C714 1.321 . S
C711 H738 0.931 . S
C712 C710 1.421 1_545 S
C712 C711 1.422 . S
C712 C736 1.416 1_545 S
C713 H690 0.931 . S
C713 N709 1.366 . S
C713 C714 1.390 . S
C714 H692 0.930 . S
C714 C711 1.321 . S
C714 C713 1.390 . S
O715 Gd683 2.386 . S
O715 C727 1.265 1_545 S
O716 Gd682 2.353 . S
O716 C727 1.242 . S
O717 Gd682 2.468 . S
O717 C735 1.263 . S
O718 Gd682 2.427 . S
O718 C735 1.252 . S
O719 Gd683 2.307 . S
O719 C728 1.261 1_545 S
O720 Gd682 2.388 . S
O720 C728 1.252 . S
O721 Gd682 2.386 1_545 S
O721 C739 1.265 . S
O722 Gd683 2.353 . S
O722 C739 1.242 . S
O723 Gd683 2.468 . S
O723 C747 1.263 . S
O724 Gd683 2.427 . S
O724 C747 1.252 . S
O725 Gd682 2.307 1_545 S
O725 C740 1.261 . S
O726 Gd683 2.388 . S
O726 C740 1.252 . S
C727 O715 1.265 1_565 S
C727 O716 1.242 . S
C728 O719 1.261 1_565 S
C728 O720 1.252 . S
C729 C732 1.394 . S
C729 C734 1.370 . S
C729 C735 1.500 . S
C730 C733 1.383 . S
C730 C734 1.395 . S
C731 C732 1.396 . S
C731 C733 1.365 . S
C731 H748 0.929 . S
C732 C729 1.394 . S
C732 C731 1.396 . S
C732 H749 0.930 . S
C733 C730 1.383 . S
C733 C731 1.365 . S
C733 H750 0.931 . S
C734 C729 1.370 . S
C734 C730 1.395 . S
C734 H751 0.930 . S
C735 Gd682 2.805 . S
C735 O717 1.263 . S
C735 O718 1.252 . S
C735 C729 1.500 . S
C736 H698 0.928 1_565 S
C736 C712 1.416 1_565 S
C736 C737 1.332 . S
C737 C707 1.437 . S
C737 H708 0.929 . S
C737 C736 1.332 . S
H738 C711 0.931 . S
C739 O721 1.265 . S
C739 O722 1.242 . S
C740 O725 1.261 . S
C740 O726 1.252 . S
C741 C744 1.394 . S
C741 C746 1.370 . S
C741 C747 1.500 . S
C742 C745 1.383 . S
C742 C746 1.395 . S
C743 C744 1.396 . S
C743 C745 1.365 . S
C743 H752 0.929 . S
C744 C741 1.394 . S
C744 C743 1.396 . S
C744 H753 0.930 . S
C745 C742 1.383 . S
C745 C743 1.365 . S
C745 H754 0.931 . S
C746 C741 1.370 . S
C746 C742 1.395 . S
C746 H755 0.930 . S
C747 Gd683 2.805 . S
C747 O723 1.263 . S
C747 O724 1.252 . S
C747 C741 1.500 . S
H748 C731 0.929 . S
H749 C732 0.930 . S
H750 C733 0.931 . S
H751 C734 0.930 . S
H752 C743 0.929 . S
H753 C744 0.930 . S
H754 C745 0.931 . S
H755 C746 0.930 . S
C756 C758 1.422 . S
C756 C760 1.415 . S
C756 N762 1.369 . S
C757 C758 1.421 . S
C757 C759 1.417 . S
C757 C769 1.422 . S
C758 C756 1.422 . S
C758 C757 1.421 . S
C758 N768 1.359 . S
C759 C757 1.417 . S
C759 C761 1.329 . S
C759 H778 0.930 . S
C760 C756 1.415 . S
C760 C761 1.437 . S
C760 C764 1.413 . S
C761 C759 1.329 . S
C761 C760 1.437 . S
C761 H783 0.929 . S
N762 C756 1.369 . S
N762 C763 1.338 . S
N762 Gd767 2.622 . S
C763 N762 1.338 . S
C763 C765 1.378 . S
C763 H775 0.929 . S
C764 C760 1.413 . S
C764 C765 1.348 . S
C764 H780 0.931 . S
C765 C763 1.378 . S
C765 C764 1.348 . S
C765 H781 0.930 . S
Gd766 N786 2.622 . S
Gd766 N793 2.570 1_565 S
Gd766 O800 2.353 . S
Gd766 O801 2.468 . S
Gd766 O802 2.427 . S
Gd766 O804 2.388 . S
Gd766 O805 2.386 1_565 S
Gd766 O809 2.307 1_565 S
Gd766 C819 2.805 . S
Gd767 N762 2.622 . S
Gd767 N768 2.570 . S
Gd767 O799 2.386 . S
Gd767 O803 2.307 . S
Gd767 O806 2.353 . S
Gd767 O807 2.468 . S
Gd767 O808 2.427 . S
Gd767 O810 2.388 . S
Gd767 C831 2.805 . S
N768 C758 1.359 . S
N768 Gd767 2.570 . S
N768 C770 1.343 . S
C769 C757 1.422 . S
C769 C771 1.321 . S
C769 H777 0.931 . S
C770 N768 1.343 . S
C770 C771 1.390 . S
C770 H772 0.931 . S
C771 C769 1.321 . S
C771 C770 1.390 . S
C771 H773 0.926 1_545 S
H772 C770 0.931 . S
H773 C771 0.926 1_565 S
H774 C797 0.931 . S
H775 C763 0.929 . S
H776 C798 0.930 . S
H777 C769 0.931 . S
H778 C759 0.930 . S
H779 C788 0.929 . S
H780 C764 0.931 . S
H781 C765 0.930 . S
H782 C820 0.941 . S
H783 C761 0.929 . S
H784 C789 0.931 . S
H785 C790 0.930 . S
N786 Gd766 2.622 . S
N786 C787 1.369 . S
N786 C788 1.338 . S
C787 N786 1.369 . S
C787 C791 1.415 . S
C787 C794 1.422 . S
C788 H779 0.929 . S
C788 N786 1.338 . S
C788 C790 1.378 . S
C789 H784 0.931 . S
C789 C790 1.348 . S
C789 C791 1.413 . S
C790 H785 0.930 . S
C790 C788 1.378 . S
C790 C789 1.348 . S
C791 C787 1.415 . S
C791 C789 1.413 . S
C791 C821 1.437 . S
H792 C821 0.929 . S
N793 Gd766 2.570 1_545 S
N793 C794 1.359 1_545 S
N793 C797 1.343 . S
C794 C787 1.422 . S
C794 N793 1.359 1_565 S
C794 C796 1.421 1_565 S
C795 C796 1.422 . S
C795 C798 1.321 . S
C795 H822 0.931 . S
C796 C794 1.421 1_545 S
C796 C795 1.422 . S
C796 C820 1.425 . S
C797 H774 0.931 . S
C797 N793 1.343 . S
C797 C798 1.390 . S
C798 H776 0.930 . S
C798 C795 1.321 . S
C798 C797 1.390 . S
O799 Gd767 2.386 . S
O799 C811 1.265 1_545 S
O800 Gd766 2.353 . S
O800 C811 1.242 . S
O801 Gd766 2.468 . S
O801 C819 1.263 . S
O802 Gd766 2.427 . S
O802 C819 1.252 . S
O803 Gd767 2.307 . S
O803 C812 1.261 1_545 S
O804 Gd766 2.388 . S
O804 C812 1.252 . S
O805 Gd766 2.386 1_545 S
O805 C823 1.265 . S
O806 Gd767 2.353 . S
O806 C823 1.242 . S
O807 Gd767 2.468 . S
O807 C831 1.263 . S
O808 Gd767 2.427 . S
O808 C831 1.252 . S
O809 Gd766 2.307 1_545 S
O809 C824 1.261 . S
O810 Gd767 2.388 . S
O810 C824 1.252 . S
C811 O799 1.265 1_565 S
C811 O800 1.242 . S
C812 O803 1.261 1_565 S
C812 O804 1.252 . S
C813 C816 1.394 . S
C813 C818 1.370 . S
C813 C819 1.500 . S
C814 C817 1.383 . S
C814 C818 1.395 . S
C815 C816 1.396 . S
C815 C817 1.365 . S
C815 H832 0.929 . S
C816 C813 1.394 . S
C816 C815 1.396 . S
C816 H833 0.930 . S
C817 C814 1.383 . S
C817 C815 1.365 . S
C817 H834 0.931 . S
C818 C813 1.370 . S
C818 C814 1.395 . S
C818 H835 0.930 . S
C819 Gd766 2.805 . S
C819 O801 1.263 . S
C819 O802 1.252 . S
C819 C813 1.500 . S
C820 H782 0.941 . S
C820 C796 1.425 . S
C820 C821 1.312 1_545 S
C821 C791 1.437 . S
C821 H792 0.929 . S
C821 C820 1.312 1_565 S
H822 C795 0.931 . S
C823 O805 1.265 . S
C823 O806 1.242 . S
C824 O809 1.261 . S
C824 O810 1.252 . S
C825 C828 1.394 . S
C825 C830 1.370 . S
C825 C831 1.500 . S
C826 C829 1.383 . S
C826 C830 1.395 . S
C827 C828 1.396 . S
C827 C829 1.365 . S
C827 H836 0.929 . S
C828 C825 1.394 . S
C828 C827 1.396 . S
C828 H837 0.930 . S
C829 C826 1.383 . S
C829 C827 1.365 . S
C829 H838 0.931 . S
C830 C825 1.370 . S
C830 C826 1.395 . S
C830 H839 0.930 . S
C831 Gd767 2.805 . S
C831 O807 1.263 . S
C831 O808 1.252 . S
C831 C825 1.500 . S
H832 C815 0.929 . S
H833 C816 0.930 . S
H834 C817 0.931 . S
H835 C818 0.930 . S
H836 C827 0.929 . S
H837 C828 0.930 . S
H838 C829 0.931 . S
H839 C830 0.930 . S
C840 C842 1.422 . S
C840 C844 1.415 . S
C840 N846 1.369 . S
C841 C842 1.421 . S
C841 C843 1.417 . S
C841 C853 1.422 . S
C842 C840 1.422 . S
C842 C841 1.421 . S
C842 N852 1.359 . S
C843 C841 1.417 . S
C843 C845 1.329 . S
C843 H862 0.930 . S
C844 C840 1.415 . S
C844 C845 1.437 . S
C844 C848 1.413 . S
C845 C843 1.329 . S
C845 C844 1.437 . S
C845 H867 0.929 . S
N846 C840 1.369 . S
N846 C847 1.338 . S
N846 Gd851 2.622 . S
C847 N846 1.338 . S
C847 C849 1.378 . S
C847 H859 0.929 1_545 S
C848 C844 1.413 . S
C848 C849 1.348 . S
C848 H864 0.931 . S
C849 C847 1.378 . S
C849 C848 1.348 . S
C849 H865 0.942 . S
Gd850 N870 2.622 . S
Gd850 N877 2.570 . S
Gd850 O884 2.353 . S
Gd850 O885 2.468 . S
Gd850 O886 2.427 . S
Gd850 O888 2.388 . S
Gd850 O889 2.386 . S
Gd850 O893 2.307 . S
Gd850 C903 2.805 . S
Gd851 N846 2.622 . S
Gd851 N852 2.570 . S
Gd851 O883 2.386 . S
Gd851 O887 2.307 . S
Gd851 O890 2.353 1_545 S
Gd851 O891 2.468 . S
Gd851 O892 2.427 . S
Gd851 O894 2.388 1_545 S
Gd851 C915 2.805 . S
N852 C842 1.359 . S
N852 Gd851 2.570 . S
N852 C854 1.343 . S
C853 C841 1.422 . S
C853 C855 1.321 . S
C853 H861 0.931 . S
C854 N852 1.343 . S
C854 C855 1.390 . S
C854 H856 0.931 . S
C855 C853 1.321 . S
C855 C854 1.390 . S
C855 H857 0.930 . S
H856 C854 0.931 . S
H857 C855 0.930 . S
H858 C881 0.931 . S
H859 C847 0.929 1_565 S
H860 C882 0.930 . S
H861 C853 0.931 . S
H862 C843 0.930 . S
H863 C872 0.929 . S
H864 C848 0.931 . S
H865 C849 0.942 . S
H866 C904 0.930 . S
H867 C845 0.929 . S
H868 C873 0.931 . S
H869 C874 0.930 . S
N870 Gd850 2.622 . S
N870 C871 1.369 . S
N870 C872 1.338 . S
C871 N870 1.369 . S
C871 C875 1.415 . S
C871 C878 1.422 . S
C872 H863 0.929 . S
C872 N870 1.338 . S
C872 C874 1.378 . S
C873 H868 0.931 . S
C873 C874 1.348 . S
C873 C875 1.413 . S
C874 H869 0.930 . S
C874 C872 1.378 . S
C874 C873 1.348 . S
C875 C871 1.415 . S
C875 C873 1.413 . S
C875 C905 1.437 . S
H876 C905 0.929 . S
N877 Gd850 2.570 . S
N877 C878 1.359 . S
N877 C881 1.343 . S
C878 C871 1.422 . S
C878 N877 1.359 . S
C878 C880 1.421 . S
C879 C880 1.422 . S
C879 C882 1.321 . S
C879 H906 0.931 . S
C880 C878 1.421 . S
C880 C879 1.422 . S
C880 C904 1.417 . S
C881 H858 0.931 . S
C881 N877 1.343 . S
C881 C882 1.390 . S
C882 H860 0.930 . S
C882 C879 1.321 . S
C882 C881 1.390 . S
O883 Gd851 2.386 . S
O883 C895 1.265 1_545 S
O884 Gd850 2.353 . S
O884 C895 1.242 . S
O885 Gd850 2.468 . S
O885 C903 1.263 . S
O886 Gd850 2.427 . S
O886 C903 1.252 . S
O887 Gd851 2.307 . S
O887 C896 1.261 . S
O888 Gd850 2.388 . S
O888 C896 1.252 1_565 S
O889 Gd850 2.386 . S
O889 C907 1.265 . S
O890 Gd851 2.353 1_565 S
O890 C907 1.242 . S
O891 Gd851 2.468 . S
O891 C915 1.263 . S
O892 Gd851 2.427 . S
O892 C915 1.252 . S
O893 Gd850 2.307 . S
O893 C908 1.261 . S
O894 Gd851 2.388 1_565 S
O894 C908 1.252 . S
C895 O883 1.265 1_565 S
C895 O884 1.242 . S
C896 O887 1.261 . S
C896 O888 1.252 1_545 S
C897 C900 1.394 . S
C897 C902 1.370 . S
C897 C903 1.500 . S
C898 C901 1.383 . S
C898 C902 1.395 . S
C899 C900 1.396 . S
C899 C901 1.365 . S
C899 H916 0.929 . S
C900 C897 1.394 . S
C900 C899 1.396 . S
C900 H917 0.930 . S
C901 C898 1.383 . S
C901 C899 1.365 . S
C901 H918 0.931 . S
C902 C897 1.370 . S
C902 C898 1.395 . S
C902 H919 0.930 . S
C903 Gd850 2.805 . S
C903 O885 1.263 . S
C903 O886 1.252 . S
C903 C897 1.500 . S
C904 H866 0.930 . S
C904 C880 1.417 . S
C904 C905 1.329 . S
C905 C875 1.437 . S
C905 H876 0.929 . S
C905 C904 1.329 . S
H906 C879 0.931 . S
C907 O889 1.265 . S
C907 O890 1.242 . S
C908 O893 1.261 . S
C908 O894 1.252 . S
C909 C912 1.394 . S
C909 C914 1.370 . S
C909 C915 1.500 . S
C910 C913 1.383 . S
C910 C914 1.395 . S
C911 C912 1.396 . S
C911 C913 1.365 . S
C911 H920 0.929 . S
C912 C909 1.394 . S
C912 C911 1.396 . S
C912 H921 0.930 . S
C913 C910 1.383 . S
C913 C911 1.365 . S
C913 H922 0.931 . S
C914 C909 1.370 . S
C914 C910 1.395 . S
C914 H923 0.930 . S
C915 Gd851 2.805 . S
C915 O891 1.263 . S
C915 O892 1.252 . S
C915 C909 1.500 . S
H916 C899 0.929 . S
H917 C900 0.930 . S
H918 C901 0.931 . S
H919 C902 0.930 . S
H920 C911 0.929 . S
H921 C912 0.930 . S
H922 C913 0.931 . S
H923 C914 0.930 . S
C924 C926 1.422 . S
C924 C928 1.415 . S
C924 N930 1.369 . S
C925 C926 1.421 . S
C925 C927 1.417 . S
C925 C937 1.422 . S
C926 C924 1.422 . S
C926 C925 1.421 . S
C926 N936 1.359 . S
C927 C925 1.417 . S
C927 C929 1.329 . S
C927 H946 0.930 . S
C928 C924 1.415 . S
C928 C929 1.437 . S
C928 C932 1.413 . S
C929 C927 1.329 . S
C929 C928 1.437 . S
C929 H951 0.929 . S
N930 C924 1.369 . S
N930 C931 1.338 . S
N930 Gd935 2.622 . S
C931 N930 1.338 . S
C931 C933 1.378 . S
C931 H943 0.929 1_545 S
C932 C928 1.413 . S
C932 C933 1.348 . S
C932 H948 0.931 . S
C933 C931 1.378 . S
C933 C932 1.348 . S
C933 H949 0.936 . S
Gd934 N954 2.622 . S
Gd934 N961 2.570 . S
Gd934 O968 2.353 . S
Gd934 O969 2.468 . S
Gd934 O970 2.427 . S
Gd934 O972 2.388 . S
Gd934 O973 2.386 . S
Gd934 O977 2.307 . S
Gd934 C987 2.805 . S
Gd935 N930 2.622 . S
Gd935 N936 2.570 . S
Gd935 O967 2.386 . S
Gd935 O971 2.307 . S
Gd935 O974 2.353 1_545 S
Gd935 O975 2.468 . S
Gd935 O976 2.427 . S
Gd935 O978 2.388 1_545 S
Gd935 C999 2.805 . S
N936 C926 1.359 . S
N936 Gd935 2.570 . S
N936 C938 1.343 . S
C937 C925 1.422 . S
C937 C939 1.321 . S
C937 H945 0.931 . S
C938 N936 1.343 . S
C938 C939 1.390 . S
C938 H940 0.931 . S
C939 C937 1.321 . S
C939 C938 1.390 . S
C939 H941 0.930 . S
H940 C938 0.931 . S
H941 C939 0.930 . S
H942 C965 0.931 . S
H943 C931 0.929 1_565 S
H944 C966 0.930 . S
H945 C937 0.931 . S
H946 C927 0.930 . S
H947 C956 0.929 . S
H948 C932 0.931 . S
H949 C933 0.936 . S
H950 C988 0.930 . S
H951 C929 0.929 . S
H952 C957 0.931 . S
H953 C958 0.930 . S
N954 Gd934 2.622 . S
N954 C955 1.369 . S
N954 C956 1.338 . S
C955 N954 1.369 . S
C955 C959 1.415 . S
C955 C962 1.422 . S
C956 H947 0.929 . S
C956 N954 1.338 . S
C956 C958 1.378 . S
C957 H952 0.931 . S
C957 C958 1.348 . S
C957 C959 1.413 . S
C958 H953 0.930 . S
C958 C956 1.378 . S
C958 C957 1.348 . S
C959 C955 1.415 . S
C959 C957 1.413 . S
C959 C989 1.437 . S
H960 C989 0.929 . S
N961 Gd934 2.570 . S
N961 C962 1.359 . S
N961 C965 1.343 . S
C962 C955 1.422 . S
C962 N961 1.359 . S
C962 C964 1.421 . S
C963 C964 1.422 . S
C963 C966 1.321 . S
C963 H990 0.931 . S
C964 C962 1.421 . S
C964 C963 1.422 . S
C964 C988 1.417 . S
C965 H942 0.931 . S
C965 N961 1.343 . S
C965 C966 1.390 . S
C966 H944 0.930 . S
C966 C963 1.321 . S
C966 C965 1.390 . S
O967 Gd935 2.386 . S
O967 C979 1.265 1_545 S
O968 Gd934 2.353 . S
O968 C979 1.242 . S
O969 Gd934 2.468 . S
O969 C987 1.263 . S
O970 Gd934 2.427 . S
O970 C987 1.252 . S
O971 Gd935 2.307 . S
O971 C980 1.261 . S
O972 Gd934 2.388 . S
O972 C980 1.252 1_565 S
O973 Gd934 2.386 . S
O973 C991 1.265 . S
O974 Gd935 2.353 1_565 S
O974 C991 1.242 . S
O975 Gd935 2.468 . S
O975 C999 1.263 . S
O976 Gd935 2.427 . S
O976 C999 1.252 . S
O977 Gd934 2.307 . S
O977 C992 1.261 . S
O978 Gd935 2.388 1_565 S
O978 C992 1.252 . S
C979 O967 1.265 1_565 S
C979 O968 1.242 . S
C980 O971 1.261 . S
C980 O972 1.252 1_545 S
C981 C984 1.394 . S
C981 C986 1.370 . S
C981 C987 1.500 . S
C982 C985 1.383 . S
C982 C986 1.395 . S
C983 C984 1.396 . S
C983 C985 1.365 . S
C983 H1000 0.929 . S
C984 C981 1.394 . S
C984 C983 1.396 . S
C984 H1001 0.930 . S
C985 C982 1.383 . S
C985 C983 1.365 . S
C985 H1002 0.931 . S
C986 C981 1.370 . S
C986 C982 1.395 . S
C986 H1003 0.930 . S
C987 Gd934 2.805 . S
C987 O969 1.263 . S
C987 O970 1.252 . S
C987 C981 1.500 . S
C988 H950 0.930 . S
C988 C964 1.417 . S
C988 C989 1.329 . S
C989 C959 1.437 . S
C989 H960 0.929 . S
C989 C988 1.329 . S
H990 C963 0.931 . S
C991 O973 1.265 . S
C991 O974 1.242 . S
C992 O977 1.261 . S
C992 O978 1.252 . S
C993 C996 1.394 . S
C993 C998 1.370 . S
C993 C999 1.500 . S
C994 C997 1.383 . S
C994 C998 1.395 . S
C995 C996 1.396 . S
C995 C997 1.365 . S
C995 H1004 0.929 . S
C996 C993 1.394 . S
C996 C995 1.396 . S
C996 H1005 0.930 . S
C997 C994 1.383 . S
C997 C995 1.365 . S
C997 H1006 0.931 . S
C998 C993 1.370 . S
C998 C994 1.395 . S
C998 H1007 0.930 . S
C999 Gd935 2.805 . S
C999 O975 1.263 . S
C999 O976 1.252 . S
C999 C993 1.500 . S
H1000 C983 0.929 . S
H1001 C984 0.930 . S
H1002 C985 0.931 . S
H1003 C986 0.930 . S
H1004 C995 0.929 . S
H1005 C996 0.930 . S
H1006 C997 0.931 . S
H1007 C998 0.930 . S
C1008 C1010 1.422 . S
C1008 C1012 1.415 . S
C1008 N1014 1.369 . S
C1009 C1010 1.421 . S
C1009 C1011 1.417 . S
C1009 C1021 1.422 . S
C1010 C1008 1.422 . S
C1010 C1009 1.421 . S
C1010 N1020 1.359 . S
C1011 C1009 1.417 . S
C1011 C1013 1.329 . S
C1011 H1030 0.930 . S
C1012 C1008 1.415 . S
C1012 C1013 1.437 . S
C1012 C1016 1.413 . S
C1013 C1011 1.329 . S
C1013 C1012 1.437 . S
C1013 H1035 0.929 . S
N1014 C1008 1.369 . S
N1014 C1015 1.338 . S
N1014 Gd1019 2.622 . S
C1015 N1014 1.338 . S
C1015 C1017 1.378 . S
C1015 H1027 0.929 . S
C1016 C1012 1.413 . S
C1016 C1017 1.348 . S
C1016 H1032 0.931 . S
C1017 C1015 1.378 . S
C1017 C1016 1.348 . S
C1017 H1033 0.930 . S
Gd1018 N1038 2.622 . S
Gd1018 N1045 2.570 1_556 S
Gd1018 O1052 2.353 . S
Gd1018 O1053 2.468 . S
Gd1018 O1054 2.427 . S
Gd1018 O1056 2.388 . S
Gd1018 O1057 2.386 1_556 S
Gd1018 O1061 2.307 1_556 S
Gd1018 C1071 2.805 . S
Gd1019 N1014 2.622 . S
Gd1019 N1020 2.570 . S
Gd1019 O1051 2.386 . S
Gd1019 O1055 2.307 . S
Gd1019 O1058 2.353 . S
Gd1019 O1059 2.468 . S
Gd1019 O1060 2.427 . S
Gd1019 O1062 2.388 . S
Gd1019 C1083 2.805 . S
N1020 C1010 1.359 . S
N1020 Gd1019 2.570 . S
N1020 C1022 1.343 . S
C1021 C1009 1.422 . S
C1021 C1023 1.321 . S
C1021 H1029 0.931 . S
C1022 N1020 1.343 . S
C1022 C1023 1.390 . S
C1022 H1024 0.931 . S
C1023 C1021 1.321 . S
C1023 C1022 1.390 . S
C1023 H1025 0.930 . S
H1024 C1022 0.931 . S
H1025 C1023 0.930 . S
H1026 C1049 0.931 . S
H1027 C1015 0.929 . S
H1028 C1050 0.930 . S
H1029 C1021 0.931 . S
H1030 C1011 0.930 . S
H1031 C1040 0.929 . S
H1032 C1016 0.931 . S
H1033 C1017 0.930 . S
H1034 C1072 0.930 . S
H1035 C1013 0.929 . S
H1036 C1041 0.931 . S
H1037 C1042 0.930 . S
N1038 Gd1018 2.622 . S
N1038 C1039 1.369 . S
N1038 C1040 1.338 . S
C1039 N1038 1.369 . S
C1039 C1043 1.415 . S
C1039 C1046 1.422 . S
C1040 H1031 0.929 . S
C1040 N1038 1.338 . S
C1040 C1042 1.378 . S
C1041 H1036 0.931 . S
C1041 C1042 1.348 . S
C1041 C1043 1.413 . S
C1042 H1037 0.930 . S
C1042 C1040 1.378 . S
C1042 C1041 1.348 . S
C1043 C1039 1.415 . S
C1043 C1041 1.413 . S
C1043 C1073 1.437 . S
H1044 C1073 0.929 . S
N1045 Gd1018 2.570 1_554 S
N1045 C1046 1.359 1_554 S
N1045 C1049 1.343 . S
C1046 C1039 1.422 . S
C1046 N1045 1.359 1_556 S
C1046 C1048 1.421 1_556 S
C1047 C1048 1.422 . S
C1047 C1050 1.321 . S
C1047 H1074 0.931 . S
C1048 C1046 1.421 1_554 S
C1048 C1047 1.422 . S
C1048 C1072 1.417 . S
C1049 H1026 0.931 . S
C1049 N1045 1.343 . S
C1049 C1050 1.390 . S
C1050 H1028 0.930 . S
C1050 C1047 1.321 . S
C1050 C1049 1.390 . S
O1051 Gd1019 2.386 . S
O1051 C1063 1.265 1_554 S
O1052 Gd1018 2.353 . S
O1052 C1063 1.242 . S
O1053 Gd1018 2.468 . S
O1053 C1071 1.263 . S
O1054 Gd1018 2.427 . S
O1054 C1071 1.252 . S
O1055 Gd1019 2.307 . S
O1055 C1064 1.261 1_554 S
O1056 Gd1018 2.388 . S
O1056 C1064 1.252 . S
O1057 Gd1018 2.386 1_554 S
O1057 C1075 1.265 . S
O1058 Gd1019 2.353 . S
O1058 C1075 1.242 . S
O1059 Gd1019 2.468 . S
O1059 C1083 1.263 . S
O1060 Gd1019 2.427 . S
O1060 C1083 1.252 . S
O1061 Gd1018 2.307 1_554 S
O1061 C1076 1.261 . S
O1062 Gd1019 2.388 . S
O1062 C1076 1.252 . S
C1063 O1051 1.265 1_556 S
C1063 O1052 1.242 . S
C1064 O1055 1.261 1_556 S
C1064 O1056 1.252 . S
C1065 C1068 1.394 . S
C1065 C1070 1.370 . S
C1065 C1071 1.500 . S
C1066 C1069 1.383 . S
C1066 C1070 1.395 . S
C1067 C1068 1.396 . S
C1067 C1069 1.365 . S
C1067 H1084 0.929 . S
C1068 C1065 1.394 . S
C1068 C1067 1.396 . S
C1068 H1085 0.930 . S
C1069 C1066 1.383 . S
C1069 C1067 1.365 . S
C1069 H1086 0.931 . S
C1070 C1065 1.370 . S
C1070 C1066 1.395 . S
C1070 H1087 0.930 . S
C1071 Gd1018 2.805 . S
C1071 O1053 1.263 . S
C1071 O1054 1.252 . S
C1071 C1065 1.500 . S
C1072 H1034 0.930 . S
C1072 C1048 1.417 . S
C1072 C1073 1.329 1_554 S
C1073 C1043 1.437 . S
C1073 H1044 0.929 . S
C1073 C1072 1.329 1_556 S
H1074 C1047 0.931 . S
C1075 O1057 1.265 . S
C1075 O1058 1.242 . S
C1076 O1061 1.261 . S
C1076 O1062 1.252 . S
C1077 C1080 1.394 . S
C1077 C1082 1.370 . S
C1077 C1083 1.500 . S
C1078 C1081 1.383 . S
C1078 C1082 1.395 . S
C1079 C1080 1.396 . S
C1079 C1081 1.365 . S
C1079 H1088 0.929 . S
C1080 C1077 1.394 . S
C1080 C1079 1.396 . S
C1080 H1089 0.930 . S
C1081 C1078 1.383 . S
C1081 C1079 1.365 . S
C1081 H1090 0.931 . S
C1082 C1077 1.370 . S
C1082 C1078 1.395 . S
C1082 H1091 0.930 . S
C1083 Gd1019 2.805 . S
C1083 O1059 1.263 . S
C1083 O1060 1.252 . S
C1083 C1077 1.500 . S
H1084 C1067 0.929 . S
H1085 C1068 0.930 . S
H1086 C1069 0.931 . S
H1087 C1070 0.930 . S
H1088 C1079 0.929 . S
H1089 C1080 0.930 . S
H1090 C1081 0.931 . S
H1091 C1082 0.930 . S
C1092 C1094 1.422 . S
C1092 C1096 1.415 . S
C1092 N1098 1.369 . S
C1093 C1094 1.421 . S
C1093 C1095 1.417 . S
C1093 C1105 1.422 . S
C1094 C1092 1.422 . S
C1094 C1093 1.421 . S
C1094 N1104 1.359 . S
C1095 C1093 1.417 . S
C1095 C1097 1.329 . S
C1095 H1114 0.930 . S
C1096 C1092 1.415 . S
C1096 C1097 1.437 . S
C1096 C1100 1.413 . S
C1097 C1095 1.329 . S
C1097 C1096 1.437 . S
C1097 H1119 0.929 . S
N1098 C1092 1.369 . S
N1098 C1099 1.338 . S
N1098 Gd1103 2.622 . S
C1099 N1098 1.338 . S
C1099 C1101 1.378 . S
C1099 H1111 0.929 1_455 S
C1100 C1096 1.413 . S
C1100 C1101 1.348 . S
C1100 H1116 0.931 1_565 S
C1101 C1099 1.378 . S
C1101 C1100 1.348 . S
C1101 H1117 0.930 . S
Gd1102 N1122 2.622 . S
Gd1102 N1129 2.570 . S
Gd1102 O1136 2.353 . S
Gd1102 O1137 2.468 . S
Gd1102 O1138 2.427 . S
Gd1102 O1140 2.388 . S
Gd1102 O1141 2.386 . S
Gd1102 O1145 2.307 . S
Gd1102 C1155 2.805 . S
Gd1103 N1098 2.622 . S
Gd1103 N1104 2.570 . S
Gd1103 O1135 2.386 . S
Gd1103 O1139 2.307 . S
Gd1103 O1142 2.353 1_455 S
Gd1103 O1143 2.468 . S
Gd1103 O1144 2.427 . S
Gd1103 O1146 2.388 1_455 S
Gd1103 C1167 2.805 . S
N1104 C1094 1.359 . S
N1104 Gd1103 2.570 . S
N1104 C1106 1.343 . S
C1105 C1093 1.422 . S
C1105 C1107 1.321 . S
C1105 H1113 0.931 . S
C1106 N1104 1.343 . S
C1106 C1107 1.390 . S
C1106 H1108 0.931 . S
C1107 C1105 1.321 . S
C1107 C1106 1.390 . S
C1107 H1109 0.930 . S
H1108 C1106 0.931 . S
H1109 C1107 0.930 . S
H1110 C1133 0.931 . S
H1111 C1099 0.929 1_655 S
H1112 C1134 0.930 . S
H1113 C1105 0.931 . S
H1114 C1095 0.930 . S
H1115 C1124 0.929 . S
H1116 C1100 0.931 1_545 S
H1117 C1101 0.930 . S
H1118 C1156 0.930 . S
H1119 C1097 0.929 . S
H1120 C1125 0.931 . S
H1121 C1126 0.930 . S
N1122 Gd1102 2.622 . S
N1122 C1123 1.369 . S
N1122 C1124 1.338 . S
C1123 N1122 1.369 . S
C1123 C1127 1.415 . S
C1123 C1130 1.422 . S
C1124 H1115 0.929 . S
C1124 N1122 1.338 . S
C1124 C1126 1.378 . S
C1125 H1120 0.931 . S
C1125 C1126 1.348 . S
C1125 C1127 1.413 . S
C1126 H1121 0.930 . S
C1126 C1124 1.378 . S
C1126 C1125 1.348 . S
C1127 C1123 1.415 . S
C1127 C1125 1.413 . S
C1127 C1157 1.437 . S
H1128 C1157 0.929 . S
N1129 Gd1102 2.570 . S
N1129 C1130 1.359 . S
N1129 C1133 1.343 . S
C1130 C1123 1.422 . S
C1130 N1129 1.359 . S
C1130 C1132 1.421 . S
C1131 C1132 1.422 . S
C1131 C1134 1.321 . S
C1131 H1158 0.931 . S
C1132 C1130 1.421 . S
C1132 C1131 1.422 . S
C1132 C1156 1.417 . S
C1133 H1110 0.931 . S
C1133 N1129 1.343 . S
C1133 C1134 1.390 . S
C1134 H1112 0.930 . S
C1134 C1131 1.321 . S
C1134 C1133 1.390 . S
O1135 Gd1103 2.386 . S
O1135 C1147 1.265 1_455 S
O1136 Gd1102 2.353 . S
O1136 C1147 1.242 . S
O1137 Gd1102 2.468 . S
O1137 C1155 1.263 . S
O1138 Gd1102 2.427 . S
O1138 C1155 1.252 . S
O1139 Gd1103 2.307 . S
O1139 C1148 1.261 . S
O1140 Gd1102 2.388 . S
O1140 C1148 1.252 1_655 S
O1141 Gd1102 2.386 . S
O1141 C1159 1.265 . S
O1142 Gd1103 2.353 1_655 S
O1142 C1159 1.242 . S
O1143 Gd1103 2.468 . S
O1143 C1167 1.263 . S
O1144 Gd1103 2.427 . S
O1144 C1167 1.252 . S
O1145 Gd1102 2.307 . S
O1145 C1160 1.261 . S
O1146 Gd1103 2.388 1_655 S
O1146 C1160 1.252 . S
C1147 O1135 1.265 1_655 S
C1147 O1136 1.242 . S
C1148 O1139 1.261 . S
C1148 O1140 1.252 1_455 S
C1149 C1152 1.394 . S
C1149 C1154 1.370 . S
C1149 C1155 1.500 . S
C1150 C1153 1.383 . S
C1150 C1154 1.395 . S
C1151 C1152 1.396 . S
C1151 C1153 1.365 . S
C1151 H1168 0.929 . S
C1152 C1149 1.394 . S
C1152 C1151 1.396 . S
C1152 H1169 0.930 . S
C1153 C1150 1.383 . S
C1153 C1151 1.365 . S
C1153 H1170 0.931 . S
C1154 C1149 1.370 . S
C1154 C1150 1.395 . S
C1154 H1171 0.930 . S
C1155 Gd1102 2.805 . S
C1155 O1137 1.263 . S
C1155 O1138 1.252 . S
C1155 C1149 1.500 . S
C1156 H1118 0.930 . S
C1156 C1132 1.417 . S
C1156 C1157 1.329 . S
C1157 C1127 1.437 . S
C1157 H1128 0.929 . S
C1157 C1156 1.329 . S
H1158 C1131 0.931 . S
C1159 O1141 1.265 . S
C1159 O1142 1.242 . S
C1160 O1145 1.261 . S
C1160 O1146 1.252 . S
C1161 C1164 1.394 . S
C1161 C1166 1.370 . S
C1161 C1167 1.500 . S
C1162 C1165 1.383 . S
C1162 C1166 1.395 . S
C1163 C1164 1.396 . S
C1163 C1165 1.365 . S
C1163 H1172 0.929 . S
C1164 C1161 1.394 . S
C1164 C1163 1.396 . S
C1164 H1173 0.930 . S
C1165 C1162 1.383 . S
C1165 C1163 1.365 . S
C1165 H1174 0.931 . S
C1166 C1161 1.370 . S
C1166 C1162 1.395 . S
C1166 H1175 0.930 . S
C1167 Gd1103 2.805 . S
C1167 O1143 1.263 . S
C1167 O1144 1.252 . S
C1167 C1161 1.500 . S
H1168 C1151 0.929 . S
H1169 C1152 0.930 . S
H1170 C1153 0.931 . S
H1171 C1154 0.930 . S
H1172 C1163 0.929 . S
H1173 C1164 0.930 . S
H1174 C1165 0.931 . S
H1175 C1166 0.930 . S
C1176 C1178 1.422 . S
C1176 C1180 1.415 . S
C1176 N1182 1.369 . S
C1177 C1178 1.421 . S
C1177 C1179 1.417 . S
C1177 C1189 1.422 . S
C1178 C1176 1.422 . S
C1178 C1177 1.421 . S
C1178 N1188 1.359 . S
C1179 C1177 1.417 . S
C1179 C1181 1.329 . S
C1179 H1198 0.930 . S
C1180 C1176 1.415 . S
C1180 C1181 1.437 . S
C1180 C1184 1.413 . S
C1181 C1179 1.329 . S
C1181 C1180 1.437 . S
C1181 H1203 0.929 . S
N1182 C1176 1.369 . S
N1182 C1183 1.338 . S
N1182 Gd1187 2.622 . S
C1183 N1182 1.338 . S
C1183 C1185 1.378 . S
C1183 H1195 0.929 . S
C1184 C1180 1.413 . S
C1184 C1185 1.348 . S
C1184 H1200 0.931 . S
C1185 C1183 1.378 . S
C1185 C1184 1.348 . S
C1185 H1201 0.930 . S
Gd1186 N1206 2.622 . S
Gd1186 N1213 2.570 . S
Gd1186 O1220 2.353 . S
Gd1186 O1221 2.468 . S
Gd1186 O1222 2.427 . S
Gd1186 O1224 2.388 . S
Gd1186 O1225 2.386 . S
Gd1186 O1229 2.307 . S
Gd1186 C1239 2.805 . S
Gd1187 N1182 2.622 . S
Gd1187 N1188 2.570 . S
Gd1187 O1219 2.386 . S
Gd1187 O1223 2.307 . S
Gd1187 O1226 2.353 . S
Gd1187 O1227 2.468 . S
Gd1187 O1228 2.427 . S
Gd1187 O1230 2.388 . S
Gd1187 C1251 2.805 . S
N1188 C1178 1.359 . S
N1188 Gd1187 2.570 . S
N1188 C1190 1.343 . S
C1189 C1177 1.422 . S
C1189 C1191 1.321 . S
C1189 H1197 0.931 . S
C1190 N1188 1.343 . S
C1190 C1191 1.390 . S
C1190 H1192 0.931 . S
C1191 C1189 1.321 . S
C1191 C1190 1.390 . S
C1191 H1193 0.930 . S
H1192 C1190 0.931 . S
H1193 C1191 0.930 . S
H1194 C1217 0.931 . S
H1195 C1183 0.929 . S
H1196 C1218 0.930 . S
H1197 C1189 0.931 . S
H1198 C1179 0.930 . S
H1199 C1208 0.929 . S
H1200 C1184 0.931 . S
H1201 C1185 0.930 . S
H1202 C1240 0.930 . S
H1203 C1181 0.929 . S
H1204 C1209 0.901 1_655 S
H1205 C1210 0.930 . S
N1206 Gd1186 2.622 . S
N1206 C1207 1.369 . S
N1206 C1208 1.338 . S
C1207 N1206 1.369 . S
C1207 C1211 1.415 . S
C1207 C1214 1.422 . S
C1208 H1199 0.929 . S
C1208 N1206 1.338 . S
C1208 C1210 1.378 . S
C1209 H1204 0.901 1_455 S
C1209 C1210 1.348 . S
C1209 C1211 1.413 . S
C1210 H1205 0.930 . S
C1210 C1208 1.378 . S
C1210 C1209 1.348 . S
C1211 C1207 1.415 . S
C1211 C1209 1.413 . S
C1211 C1241 1.437 . S
H1212 C1241 0.929 . S
N1213 Gd1186 2.570 . S
N1213 C1214 1.359 . S
N1213 C1217 1.343 . S
C1214 C1207 1.422 . S
C1214 N1213 1.359 . S
C1214 C1216 1.421 . S
C1215 C1216 1.422 . S
C1215 C1218 1.321 . S
C1215 H1242 0.931 . S
C1216 C1214 1.421 . S
C1216 C1215 1.422 . S
C1216 C1240 1.417 . S
C1217 H1194 0.931 . S
C1217 N1213 1.343 . S
C1217 C1218 1.390 . S
C1218 H1196 0.930 . S
C1218 C1215 1.321 . S
C1218 C1217 1.390 . S
O1219 Gd1187 2.386 . S
O1219 C1231 1.265 . S
O1220 Gd1186 2.353 . S
O1220 C1231 1.242 . S
O1221 Gd1186 2.468 . S
O1221 C1239 1.263 . S
O1222 Gd1186 2.427 . S
O1222 C1239 1.252 . S
O1223 Gd1187 2.307 . S
O1223 C1232 1.261 . S
O1224 Gd1186 2.388 . S
O1224 C1232 1.252 . S
O1225 Gd1186 2.386 . S
O1225 C1243 1.265 . S
O1226 Gd1187 2.353 . S
O1226 C1243 1.242 . S
O1227 Gd1187 2.468 . S
O1227 C1251 1.263 . S
O1228 Gd1187 2.427 . S
O1228 C1251 1.252 . S
O1229 Gd1186 2.307 . S
O1229 C1244 1.261 . S
O1230 Gd1187 2.388 . S
O1230 C1244 1.252 . S
C1231 O1219 1.265 . S
C1231 O1220 1.242 . S
C1232 O1223 1.261 . S
C1232 O1224 1.252 . S
C1233 C1236 1.394 . S
C1233 C1238 1.370 . S
C1233 C1239 1.500 . S
C1234 C1237 1.383 . S
C1234 C1238 1.395 . S
C1235 C1236 1.396 . S
C1235 C1237 1.365 . S
C1235 H1252 0.929 . S
C1236 C1233 1.394 . S
C1236 C1235 1.396 . S
C1236 H1253 0.930 . S
C1237 C1234 1.383 . S
C1237 C1235 1.365 . S
C1237 H1254 0.931 . S
C1238 C1233 1.370 . S
C1238 C1234 1.395 . S
C1238 H1255 0.930 . S
C1239 Gd1186 2.805 . S
C1239 O1221 1.263 . S
C1239 O1222 1.252 . S
C1239 C1233 1.500 . S
C1240 H1202 0.930 . S
C1240 C1216 1.417 . S
C1240 C1241 1.329 . S
C1241 C1211 1.437 . S
C1241 H1212 0.929 . S
C1241 C1240 1.329 . S
H1242 C1215 0.931 . S
C1243 O1225 1.265 . S
C1243 O1226 1.242 . S
C1244 O1229 1.261 . S
C1244 O1230 1.252 . S
C1245 C1248 1.394 . S
C1245 C1250 1.370 . S
C1245 C1251 1.500 . S
C1246 C1249 1.383 . S
C1246 C1250 1.395 . S
C1247 C1248 1.396 . S
C1247 C1249 1.365 . S
C1247 H1256 0.929 . S
C1248 C1245 1.394 . S
C1248 C1247 1.396 . S
C1248 H1257 0.930 . S
C1249 C1246 1.383 . S
C1249 C1247 1.365 . S
C1249 H1258 0.931 . S
C1250 C1245 1.370 . S
C1250 C1246 1.395 . S
C1250 H1259 0.930 . S
C1251 Gd1187 2.805 . S
C1251 O1227 1.263 . S
C1251 O1228 1.252 . S
C1251 C1245 1.500 . S
H1252 C1235 0.929 . S
H1253 C1236 0.930 . S
H1254 C1237 0.931 . S
H1255 C1238 0.930 . S
H1256 C1247 0.929 . S
H1257 C1248 0.930 . S
H1258 C1249 0.931 . S
H1259 C1250 0.930 . S
C1260 C1262 1.422 . S
C1260 C1264 1.415 . S
C1260 N1266 1.369 . S
C1261 C1262 1.421 . S
C1261 C1263 1.417 . S
C1261 C1273 1.422 . S
C1262 C1260 1.422 . S
C1262 C1261 1.421 . S
C1262 N1272 1.359 . S
C1263 C1261 1.417 . S
C1263 C1265 1.329 . S
C1263 H1282 0.930 . S
C1264 C1260 1.415 . S
C1264 C1265 1.437 . S
C1264 C1268 1.413 . S
C1265 C1263 1.329 . S
C1265 C1264 1.437 . S
C1265 H1287 0.929 . S
N1266 C1260 1.369 . S
N1266 C1267 1.338 . S
N1266 Gd1271 2.622 . S
C1267 N1266 1.338 . S
C1267 C1269 1.378 . S
C1267 H1279 0.929 . S
C1268 C1264 1.413 . S
C1268 C1269 1.348 . S
C1268 H1284 0.931 . S
C1269 C1267 1.378 . S
C1269 C1268 1.348 . S
C1269 H1285 0.930 . S
Gd1270 N1290 2.622 . S
Gd1270 N1297 2.570 . S
Gd1270 O1304 2.353 1_455 S
Gd1270 O1305 2.468 . S
Gd1270 O1306 2.427 . S
Gd1270 O1308 2.388 1_455 S
Gd1270 O1309 2.386 . S
Gd1270 O1313 2.307 . S
Gd1270 C1323 2.805 . S
Gd1271 N1266 2.622 . S
Gd1271 N1272 2.570 . S
Gd1271 O1303 2.386 . S
Gd1271 O1307 2.307 . S
Gd1271 O1310 2.353 . S
Gd1271 O1311 2.468 . S
Gd1271 O1312 2.427 . S
Gd1271 O1314 2.388 . S
Gd1271 C1335 2.805 . S
N1272 C1262 1.359 . S
N1272 Gd1271 2.570 . S
N1272 C1274 1.343 . S
C1273 C1261 1.422 . S
C1273 C1275 1.321 . S
C1273 H1281 0.931 . S
C1274 N1272 1.343 . S
C1274 C1275 1.390 . S
C1274 H1276 0.931 . S
C1275 C1273 1.321 . S
C1275 C1274 1.390 . S
C1275 H1277 0.930 . S
H1276 C1274 0.931 . S
H1277 C1275 0.930 . S
H1278 C1301 0.931 . S
H1279 C1267 0.929 . S
H1280 C1302 0.930 . S
H1281 C1273 0.931 . S
H1282 C1263 0.930 . S
H1283 C1292 0.929 1_655 S
H1284 C1268 0.931 . S
H1285 C1269 0.930 . S
H1286 C1324 0.930 . S
H1287 C1265 0.929 . S
H1288 C1293 0.931 . S
H1289 C1294 0.930 1_655 S
N1290 Gd1270 2.622 . S
N1290 C1291 1.369 . S
N1290 C1292 1.338 . S
C1291 N1290 1.369 . S
C1291 C1295 1.415 . S
C1291 C1298 1.422 . S
C1292 H1283 0.929 1_455 S
C1292 N1290 1.338 . S
C1292 C1294 1.378 . S
C1293 H1288 0.931 . S
C1293 C1294 1.348 . S
C1293 C1295 1.413 . S
C1294 H1289 0.930 1_455 S
C1294 C1292 1.378 . S
C1294 C1293 1.348 . S
C1295 C1291 1.415 . S
C1295 C1293 1.413 . S
C1295 C1325 1.437 . S
H1296 C1325 0.929 . S
N1297 Gd1270 2.570 . S
N1297 C1298 1.359 . S
N1297 C1301 1.343 . S
C1298 C1291 1.422 . S
C1298 N1297 1.359 . S
C1298 C1300 1.421 . S
C1299 C1300 1.422 . S
C1299 C1302 1.321 . S
C1299 H1326 0.931 . S
C1300 C1298 1.421 . S
C1300 C1299 1.422 . S
C1300 C1324 1.417 . S
C1301 H1278 0.931 . S
C1301 N1297 1.343 . S
C1301 C1302 1.390 . S
C1302 H1280 0.930 . S
C1302 C1299 1.321 . S
C1302 C1301 1.390 . S
O1303 Gd1271 2.386 . S
O1303 C1315 1.265 . S
O1304 Gd1270 2.353 1_655 S
O1304 C1315 1.242 . S
O1305 Gd1270 2.468 . S
O1305 C1323 1.263 . S
O1306 Gd1270 2.427 . S
O1306 C1323 1.252 . S
O1307 Gd1271 2.307 . S
O1307 C1316 1.261 . S
O1308 Gd1270 2.388 1_655 S
O1308 C1316 1.252 . S
O1309 Gd1270 2.386 . S
O1309 C1327 1.265 1_455 S
O1310 Gd1271 2.353 . S
O1310 C1327 1.242 . S
O1311 Gd1271 2.468 . S
O1311 C1335 1.263 . S
O1312 Gd1271 2.427 . S
O1312 C1335 1.252 . S
O1313 Gd1270 2.307 . S
O1313 C1328 1.261 . S
O1314 Gd1271 2.388 . S
O1314 C1328 1.252 1_655 S
C1315 O1303 1.265 . S
C1315 O1304 1.242 . S
C1316 O1307 1.261 . S
C1316 O1308 1.252 . S
C1317 C1320 1.394 . S
C1317 C1322 1.370 . S
C1317 C1323 1.500 . S
C1318 C1321 1.383 . S
C1318 C1322 1.395 . S
C1319 C1320 1.396 . S
C1319 C1321 1.365 . S
C1319 H1336 0.929 . S
C1320 C1317 1.394 . S
C1320 C1319 1.396 . S
C1320 H1337 0.930 . S
C1321 C1318 1.383 . S
C1321 C1319 1.365 . S
C1321 H1338 0.931 . S
C1322 C1317 1.370 . S
C1322 C1318 1.395 . S
C1322 H1339 0.930 . S
C1323 Gd1270 2.805 . S
C1323 O1305 1.263 . S
C1323 O1306 1.252 . S
C1323 C1317 1.500 . S
C1324 H1286 0.930 . S
C1324 C1300 1.417 . S
C1324 C1325 1.329 . S
C1325 C1295 1.437 . S
C1325 H1296 0.929 . S
C1325 C1324 1.329 . S
H1326 C1299 0.931 . S
C1327 O1309 1.265 1_655 S
C1327 O1310 1.242 . S
C1328 O1313 1.261 . S
C1328 O1314 1.252 1_455 S
C1329 C1332 1.394 . S
C1329 C1334 1.370 . S
C1329 C1335 1.500 . S
C1330 C1333 1.383 . S
C1330 C1334 1.395 . S
C1331 C1332 1.396 . S
C1331 C1333 1.365 . S
C1331 H1340 0.929 . S
C1332 C1329 1.394 . S
C1332 C1331 1.396 . S
C1332 H1341 0.930 . S
C1333 C1330 1.383 . S
C1333 C1331 1.365 . S
C1333 H1342 0.931 . S
C1334 C1329 1.370 . S
C1334 C1330 1.395 . S
C1334 H1343 0.930 . S
C1335 Gd1271 2.805 . S
C1335 O1311 1.263 . S
C1335 O1312 1.252 . S
C1335 C1329 1.500 . S
H1336 C1319 0.929 . S
H1337 C1320 0.930 . S
H1338 C1321 0.931 . S
H1339 C1322 0.930 . S
H1340 C1331 0.929 . S
H1341 C1332 0.930 . S
H1342 C1333 0.931 . S
H1343 C1334 0.930 . S
C1344 C1346 1.422 . S
C1344 C1348 1.415 . S
C1344 N1350 1.369 . S
C1345 C1346 1.421 . S
C1345 C1347 1.417 . S
C1345 C1357 1.422 . S
C1346 C1344 1.422 . S
C1346 C1345 1.421 . S
C1346 N1356 1.359 . S
C1347 C1345 1.417 . S
C1347 C1349 1.329 . S
C1347 H1366 0.930 . S
C1348 C1344 1.415 . S
C1348 C1349 1.437 . S
C1348 C1352 1.413 . S
C1349 C1347 1.329 . S
C1349 C1348 1.437 . S
C1349 H1371 0.929 . S
N1350 C1344 1.369 . S
N1350 C1351 1.338 . S
N1350 Gd1355 2.622 . S
C1351 N1350 1.338 . S
C1351 C1353 1.378 . S
C1351 H1363 0.929 . S
C1352 C1348 1.413 . S
C1352 C1353 1.348 . S
C1352 H1368 0.931 . S
C1353 C1351 1.378 . S
C1353 C1352 1.348 . S
C1353 H1369 0.930 . S
Gd1354 N1374 2.622 . S
Gd1354 N1381 2.570 . S
Gd1354 O1388 2.353 . S
Gd1354 O1389 2.468 . S
Gd1354 O1390 2.427 . S
Gd1354 O1392 2.388 . S
Gd1354 O1393 2.386 . S
Gd1354 O1397 2.307 . S
Gd1354 C1407 2.805 . S
Gd1355 N1350 2.622 . S
Gd1355 N1356 2.570 . S
Gd1355 O1387 2.386 . S
Gd1355 O1391 2.307 . S
Gd1355 O1394 2.353 . S
Gd1355 O1395 2.468 . S
Gd1355 O1396 2.427 . S
Gd1355 O1398 2.388 . S
Gd1355 C1419 2.805 . S
N1356 C1346 1.359 . S
N1356 Gd1355 2.570 . S
N1356 C1358 1.343 . S
C1357 C1345 1.422 . S
C1357 C1359 1.321 . S
C1357 H1365 0.931 . S
C1358 N1356 1.343 . S
C1358 C1359 1.390 . S
C1358 H1360 0.931 . S
C1359 C1357 1.321 . S
C1359 C1358 1.390 . S
C1359 H1361 0.930 . S
H1360 C1358 0.931 . S
H1361 C1359 0.930 . S
H1362 C1385 0.931 . S
H1363 C1351 0.929 . S
H1364 C1386 0.930 . S
H1365 C1357 0.931 . S
H1366 C1347 0.930 . S
H1367 C1376 0.929 . S
H1368 C1352 0.931 . S
H1369 C1353 0.930 . S
H1370 C1408 0.930 . S
H1371 C1349 0.929 . S
H1372 C1377 0.931 . S
H1373 C1378 0.930 . S
N1374 Gd1354 2.622 . S
N1374 C1375 1.369 . S
N1374 C1376 1.338 . S
C1375 N1374 1.369 . S
C1375 C1379 1.415 . S
C1375 C1382 1.422 . S
C1376 H1367 0.929 . S
C1376 N1374 1.338 . S
C1376 C1378 1.378 . S
C1377 H1372 0.931 . S
C1377 C1378 1.348 . S
C1377 C1379 1.413 . S
C1378 H1373 0.930 . S
C1378 C1376 1.378 . S
C1378 C1377 1.348 . S
C1379 C1375 1.415 . S
C1379 C1377 1.413 . S
C1379 C1409 1.437 . S
H1380 C1409 0.929 . S
N1381 Gd1354 2.570 . S
N1381 C1382 1.359 . S
N1381 C1385 1.343 . S
C1382 C1375 1.422 . S
C1382 N1381 1.359 . S
C1382 C1384 1.421 . S
C1383 C1384 1.422 . S
C1383 C1386 1.321 . S
C1383 H1410 0.931 . S
C1384 C1382 1.421 . S
C1384 C1383 1.422 . S
C1384 C1408 1.417 . S
C1385 H1362 0.931 . S
C1385 N1381 1.343 . S
C1385 C1386 1.390 . S
C1386 H1364 0.930 . S
C1386 C1383 1.321 . S
C1386 C1385 1.390 . S
O1387 Gd1355 2.386 . S
O1387 C1399 1.265 . S
O1388 Gd1354 2.353 . S
O1388 C1399 1.242 . S
O1389 Gd1354 2.468 . S
O1389 C1407 1.263 . S
O1390 Gd1354 2.427 . S
O1390 C1407 1.252 . S
O1391 Gd1355 2.307 . S
O1391 C1400 1.261 . S
O1392 Gd1354 2.388 . S
O1392 C1400 1.252 . S
O1393 Gd1354 2.386 . S
O1393 C1411 1.265 . S
O1394 Gd1355 2.353 . S
O1394 C1411 1.242 . S
O1395 Gd1355 2.468 . S
O1395 C1419 1.263 . S
O1396 Gd1355 2.427 . S
O1396 C1419 1.252 . S
O1397 Gd1354 2.307 . S
O1397 C1412 1.261 . S
O1398 Gd1355 2.388 . S
O1398 C1412 1.252 . S
C1399 O1387 1.265 . S
C1399 O1388 1.242 . S
C1400 O1391 1.261 . S
C1400 O1392 1.252 . S
C1401 C1404 1.394 . S
C1401 C1406 1.370 . S
C1401 C1407 1.500 . S
C1402 C1405 1.383 . S
C1402 C1406 1.395 . S
C1403 C1404 1.396 . S
C1403 C1405 1.365 . S
C1403 H1420 0.929 . S
C1404 C1401 1.394 . S
C1404 C1403 1.396 . S
C1404 H1421 0.930 . S
C1405 C1402 1.383 . S
C1405 C1403 1.365 . S
C1405 H1422 0.931 . S
C1406 C1401 1.370 . S
C1406 C1402 1.395 . S
C1406 H1423 0.930 . S
C1407 Gd1354 2.805 . S
C1407 O1389 1.263 . S
C1407 O1390 1.252 . S
C1407 C1401 1.500 . S
C1408 H1370 0.930 . S
C1408 C1384 1.417 . S
C1408 C1409 1.329 . S
C1409 C1379 1.437 . S
C1409 H1380 0.929 . S
C1409 C1408 1.329 . S
H1410 C1383 0.931 . S
C1411 O1393 1.265 . S
C1411 O1394 1.242 . S
C1412 O1397 1.261 . S
C1412 O1398 1.252 . S
C1413 C1416 1.394 . S
C1413 C1418 1.370 . S
C1413 C1419 1.500 . S
C1414 C1417 1.383 . S
C1414 C1418 1.395 . S
C1415 C1416 1.396 . S
C1415 C1417 1.365 . S
C1415 H1424 0.929 . S
C1416 C1413 1.394 . S
C1416 C1415 1.396 . S
C1416 H1425 0.930 . S
C1417 C1414 1.383 . S
C1417 C1415 1.365 . S
C1417 H1426 0.931 . S
C1418 C1413 1.370 . S
C1418 C1414 1.395 . S
C1418 H1427 0.930 . S
C1419 Gd1355 2.805 . S
C1419 O1395 1.263 . S
C1419 O1396 1.252 . S
C1419 C1413 1.500 . S
H1420 C1403 0.929 . S
H1421 C1404 0.930 . S
H1422 C1405 0.931 . S
H1423 C1406 0.930 . S
H1424 C1415 0.929 . S
H1425 C1416 0.930 . S
H1426 C1417 0.931 . S
H1427 C1418 0.930 . S
C1428 C1430 1.422 . S
C1428 C1432 1.415 . S
C1428 N1434 1.369 . S
C1429 C1430 1.421 . S
C1429 C1431 1.417 . S
C1429 C1441 1.422 . S
C1430 C1428 1.422 . S
C1430 C1429 1.421 . S
C1430 N1440 1.359 . S
C1431 C1429 1.417 . S
C1431 C1433 1.329 . S
C1431 H1450 0.930 . S
C1432 C1428 1.415 . S
C1432 C1433 1.437 . S
C1432 C1436 1.413 . S
C1433 C1431 1.329 . S
C1433 C1432 1.437 . S
C1433 H1455 0.929 . S
N1434 C1428 1.369 . S
N1434 C1435 1.338 . S
N1434 Gd1439 2.622 . S
C1435 N1434 1.338 . S
C1435 C1437 1.378 . S
C1435 H1447 0.929 . S
C1436 C1432 1.413 . S
C1436 C1437 1.348 . S
C1436 H1452 0.931 . S
C1437 C1435 1.378 . S
C1437 C1436 1.348 . S
C1437 H1453 0.930 . S
Gd1438 N1458 2.622 . S
Gd1438 N1465 2.570 . S
Gd1438 O1472 2.353 . S
Gd1438 O1473 2.468 . S
Gd1438 O1474 2.427 . S
Gd1438 O1476 2.388 . S
Gd1438 O1477 2.386 . S
Gd1438 O1481 2.307 . S
Gd1438 C1491 2.805 . S
Gd1439 N1434 2.622 . S
Gd1439 N1440 2.570 . S
Gd1439 O1471 2.386 . S
Gd1439 O1475 2.307 . S
Gd1439 O1478 2.353 . S
Gd1439 O1479 2.468 . S
Gd1439 O1480 2.427 . S
Gd1439 O1482 2.388 . S
Gd1439 C1503 2.805 . S
N1440 C1430 1.359 . S
N1440 Gd1439 2.570 . S
N1440 C1442 1.343 . S
C1441 C1429 1.422 . S
C1441 C1443 1.321 . S
C1441 H1449 0.931 . S
C1442 N1440 1.343 . S
C1442 C1443 1.390 . S
C1442 H1444 0.931 . S
C1443 C1441 1.321 . S
C1443 C1442 1.390 . S
C1443 H1445 0.930 . S
H1444 C1442 0.931 . S
H1445 C1443 0.930 . S
H1446 C1469 0.931 . S
H1447 C1435 0.929 . S
H1448 C1470 0.930 . S
H1449 C1441 0.931 . S
H1450 C1431 0.930 . S
H1451 C1460 0.929 . S
H1452 C1436 0.931 . S
H1453 C1437 0.930 . S
H1454 C1492 0.930 . S
H1455 C1433 0.929 . S
H1456 C1461 0.931 . S
H1457 C1462 0.930 . S
N1458 Gd1438 2.622 . S
N1458 C1459 1.369 . S
N1458 C1460 1.338 . S
C1459 N1458 1.369 . S
C1459 C1463 1.415 . S
C1459 C1466 1.422 . S
C1460 H1451 0.929 . S
C1460 N1458 1.338 . S
C1460 C1462 1.378 . S
C1461 H1456 0.931 . S
C1461 C1462 1.348 . S
C1461 C1463 1.413 . S
C1462 H1457 0.930 . S
C1462 C1460 1.378 . S
C1462 C1461 1.348 . S
C1463 C1459 1.415 . S
C1463 C1461 1.413 . S
C1463 C1493 1.437 . S
H1464 C1493 0.929 . S
N1465 Gd1438 2.570 . S
N1465 C1466 1.359 . S
N1465 C1469 1.343 . S
C1466 C1459 1.422 . S
C1466 N1465 1.359 . S
C1466 C1468 1.421 . S
C1467 C1468 1.422 . S
C1467 C1470 1.321 . S
C1467 H1494 0.931 . S
C1468 C1466 1.421 . S
C1468 C1467 1.422 . S
C1468 C1492 1.417 . S
C1469 H1446 0.931 . S
C1469 N1465 1.343 . S
C1469 C1470 1.390 . S
C1470 H1448 0.930 . S
C1470 C1467 1.321 . S
C1470 C1469 1.390 . S
O1471 Gd1439 2.386 . S
O1471 C1483 1.265 . S
O1472 Gd1438 2.353 . S
O1472 C1483 1.242 . S
O1473 Gd1438 2.468 . S
O1473 C1491 1.263 . S
O1474 Gd1438 2.427 . S
O1474 C1491 1.252 . S
O1475 Gd1439 2.307 . S
O1475 C1484 1.261 . S
O1476 Gd1438 2.388 . S
O1476 C1484 1.252 . S
O1477 Gd1438 2.386 . S
O1477 C1495 1.265 . S
O1478 Gd1439 2.353 . S
O1478 C1495 1.242 . S
O1479 Gd1439 2.468 . S
O1479 C1503 1.263 . S
O1480 Gd1439 2.427 . S
O1480 C1503 1.252 . S
O1481 Gd1438 2.307 . S
O1481 C1496 1.261 . S
O1482 Gd1439 2.388 . S
O1482 C1496 1.252 . S
C1483 O1471 1.265 . S
C1483 O1472 1.242 . S
C1484 O1475 1.261 . S
C1484 O1476 1.252 . S
C1485 C1488 1.394 . S
C1485 C1490 1.370 . S
C1485 C1491 1.500 . S
C1486 C1489 1.383 . S
C1486 C1490 1.395 . S
C1487 C1488 1.396 . S
C1487 C1489 1.365 . S
C1487 H1504 0.929 . S
C1488 C1485 1.394 . S
C1488 C1487 1.396 . S
C1488 H1505 0.930 . S
C1489 C1486 1.383 . S
C1489 C1487 1.365 . S
C1489 H1506 0.931 . S
C1490 C1485 1.370 . S
C1490 C1486 1.395 . S
C1490 H1507 0.930 . S
C1491 Gd1438 2.805 . S
C1491 O1473 1.263 . S
C1491 O1474 1.252 . S
C1491 C1485 1.500 . S
C1492 H1454 0.930 . S
C1492 C1468 1.417 . S
C1492 C1493 1.329 . S
C1493 C1463 1.437 . S
C1493 H1464 0.929 . S
C1493 C1492 1.329 . S
H1494 C1467 0.931 . S
C1495 O1477 1.265 . S
C1495 O1478 1.242 . S
C1496 O1481 1.261 . S
C1496 O1482 1.252 . S
C1497 C1500 1.394 . S
C1497 C1502 1.370 . S
C1497 C1503 1.500 . S
C1498 C1501 1.383 . S
C1498 C1502 1.395 . S
C1499 C1500 1.396 . S
C1499 C1501 1.365 . S
C1499 H1508 0.929 . S
C1500 C1497 1.394 . S
C1500 C1499 1.396 . S
C1500 H1509 0.930 . S
C1501 C1498 1.383 . S
C1501 C1499 1.365 . S
C1501 H1510 0.931 . S
C1502 C1497 1.370 . S
C1502 C1498 1.395 . S
C1502 H1511 0.930 . S
C1503 Gd1439 2.805 . S
C1503 O1479 1.263 . S
C1503 O1480 1.252 . S
C1503 C1497 1.500 . S
H1504 C1487 0.929 . S
H1505 C1488 0.930 . S
H1506 C1489 0.931 . S
H1507 C1490 0.930 . S
H1508 C1499 0.929 . S
H1509 C1500 0.930 . S
H1510 C1501 0.931 . S
H1511 C1502 0.930 . S
C1512 C1514 1.422 . S
C1512 C1516 1.415 . S
C1512 N1518 1.369 . S
C1513 C1514 1.421 1_556 S
C1513 C1515 1.417 . S
C1513 C1525 1.422 . S
C1514 C1512 1.422 . S
C1514 C1513 1.421 1_554 S
C1514 N1524 1.359 1_554 S
C1515 C1513 1.417 . S
C1515 C1517 1.329 1_556 S
C1515 H1534 0.930 . S
C1516 C1512 1.415 . S
C1516 C1517 1.437 . S
C1516 C1520 1.413 . S
C1517 C1515 1.329 1_554 S
C1517 C1516 1.437 . S
C1517 H1539 0.929 . S
N1518 C1512 1.369 . S
N1518 C1519 1.338 . S
N1518 Gd1523 2.622 . S
C1519 N1518 1.338 . S
C1519 C1521 1.378 . S
C1519 H1531 0.929 . S
C1520 C1516 1.413 . S
C1520 C1521 1.348 . S
C1520 H1536 0.931 . S
C1521 C1519 1.378 . S
C1521 C1520 1.348 . S
C1521 H1537 0.930 . S
Gd1522 N1542 2.622 . S
Gd1522 N1549 2.570 . S
Gd1522 O1556 2.353 . S
Gd1522 O1557 2.468 . S
Gd1522 O1558 2.427 . S
Gd1522 O1560 2.388 . S
Gd1522 O1561 2.386 . S
Gd1522 O1565 2.307 . S
Gd1522 C1575 2.805 . S
Gd1523 N1518 2.622 . S
Gd1523 N1524 2.570 1_554 S
Gd1523 O1555 2.386 1_554 S
Gd1523 O1559 2.307 1_554 S
Gd1523 O1562 2.353 . S
Gd1523 O1563 2.468 . S
Gd1523 O1564 2.427 . S
Gd1523 O1566 2.388 . S
Gd1523 C1587 2.805 . S
N1524 C1514 1.359 1_556 S
N1524 Gd1523 2.570 1_556 S
N1524 C1526 1.343 . S
C1525 C1513 1.422 . S
C1525 C1527 1.321 . S
C1525 H1533 0.931 . S
C1526 N1524 1.343 . S
C1526 C1527 1.390 . S
C1526 H1528 0.931 . S
C1527 C1525 1.321 . S
C1527 C1526 1.390 . S
C1527 H1529 0.930 . S
H1528 C1526 0.931 . S
H1529 C1527 0.930 . S
H1530 C1553 0.931 . S
H1531 C1519 0.929 . S
H1532 C1554 0.930 . S
H1533 C1525 0.931 . S
H1534 C1515 0.930 . S
H1535 C1544 0.929 . S
H1536 C1520 0.931 . S
H1537 C1521 0.930 . S
H1538 C1576 0.930 . S
H1539 C1517 0.929 . S
H1540 C1545 0.931 . S
H1541 C1546 0.930 . S
N1542 Gd1522 2.622 . S
N1542 C1543 1.369 . S
N1542 C1544 1.338 . S
C1543 N1542 1.369 . S
C1543 C1547 1.415 . S
C1543 C1550 1.422 . S
C1544 H1535 0.929 . S
C1544 N1542 1.338 . S
C1544 C1546 1.378 . S
C1545 H1540 0.931 . S
C1545 C1546 1.348 . S
C1545 C1547 1.413 . S
C1546 H1541 0.930 . S
C1546 C1544 1.378 . S
C1546 C1545 1.348 . S
C1547 C1543 1.415 . S
C1547 C1545 1.413 . S
C1547 C1577 1.437 . S
H1548 C1577 0.929 . S
N1549 Gd1522 2.570 . S
N1549 C1550 1.359 . S
N1549 C1553 1.343 . S
C1550 C1543 1.422 . S
C1550 N1549 1.359 . S
C1550 C1552 1.421 . S
C1551 C1552 1.422 . S
C1551 C1554 1.321 . S
C1551 H1578 0.931 . S
C1552 C1550 1.421 . S
C1552 C1551 1.422 . S
C1552 C1576 1.417 . S
C1553 H1530 0.931 . S
C1553 N1549 1.343 . S
C1553 C1554 1.390 . S
C1554 H1532 0.930 . S
C1554 C1551 1.321 . S
C1554 C1553 1.390 . S
O1555 Gd1523 2.386 1_556 S
O1555 C1567 1.265 . S
O1556 Gd1522 2.353 . S
O1556 C1567 1.242 . S
O1557 Gd1522 2.468 . S
O1557 C1575 1.263 . S
O1558 Gd1522 2.427 . S
O1558 C1575 1.252 . S
O1559 Gd1523 2.307 1_556 S
O1559 C1568 1.261 . S
O1560 Gd1522 2.388 . S
O1560 C1568 1.252 . S
O1561 Gd1522 2.386 . S
O1561 C1579 1.265 1_556 S
O1562 Gd1523 2.353 . S
O1562 C1579 1.242 . S
O1563 Gd1523 2.468 . S
O1563 C1587 1.263 . S
O1564 Gd1523 2.427 . S
O1564 C1587 1.252 . S
O1565 Gd1522 2.307 . S
O1565 C1580 1.261 1_556 S
O1566 Gd1523 2.388 . S
O1566 C1580 1.252 . S
C1567 O1555 1.265 . S
C1567 O1556 1.242 . S
C1568 O1559 1.261 . S
C1568 O1560 1.252 . S
C1569 C1572 1.394 . S
C1569 C1574 1.370 . S
C1569 C1575 1.500 . S
C1570 C1573 1.383 . S
C1570 C1574 1.395 . S
C1571 C1572 1.396 . S
C1571 C1573 1.365 . S
C1571 H1588 0.929 . S
C1572 C1569 1.394 . S
C1572 C1571 1.396 . S
C1572 H1589 0.930 . S
C1573 C1570 1.383 . S
C1573 C1571 1.365 . S
C1573 H1590 0.931 . S
C1574 C1569 1.370 . S
C1574 C1570 1.395 . S
C1574 H1591 0.930 . S
C1575 Gd1522 2.805 . S
C1575 O1557 1.263 . S
C1575 O1558 1.252 . S
C1575 C1569 1.500 . S
C1576 H1538 0.930 . S
C1576 C1552 1.417 . S
C1576 C1577 1.329 . S
C1577 C1547 1.437 . S
C1577 H1548 0.929 . S
C1577 C1576 1.329 . S
H1578 C1551 0.931 . S
C1579 O1561 1.265 1_554 S
C1579 O1562 1.242 . S
C1580 O1565 1.261 1_554 S
C1580 O1566 1.252 . S
C1581 C1584 1.394 . S
C1581 C1586 1.370 . S
C1581 C1587 1.500 . S
C1582 C1585 1.383 . S
C1582 C1586 1.395 . S
C1583 C1584 1.396 . S
C1583 C1585 1.365 . S
C1583 H1592 0.929 . S
C1584 C1581 1.394 . S
C1584 C1583 1.396 . S
C1584 H1593 0.930 . S
C1585 C1582 1.383 . S
C1585 C1583 1.365 . S
C1585 H1594 0.931 . S
C1586 C1581 1.370 . S
C1586 C1582 1.395 . S
C1586 H1595 0.930 . S
C1587 Gd1523 2.805 . S
C1587 O1563 1.263 . S
C1587 O1564 1.252 . S
C1587 C1581 1.500 . S
H1588 C1571 0.929 . S
H1589 C1572 0.930 . S
H1590 C1573 0.931 . S
H1591 C1574 0.930 . S
H1592 C1583 0.929 . S
H1593 C1584 0.930 . S
H1594 C1585 0.931 . S
H1595 C1586 0.930 . S
C1596 C1598 1.422 . S
C1596 C1600 1.415 . S
C1596 N1602 1.369 . S
C1597 C1598 1.421 . S
C1597 C1599 1.417 . S
C1597 C1609 1.422 . S
C1598 C1596 1.422 . S
C1598 C1597 1.421 . S
C1598 N1608 1.359 . S
C1599 C1597 1.417 . S
C1599 C1601 1.329 . S
C1599 H1618 0.930 . S
C1600 C1596 1.415 . S
C1600 C1601 1.437 . S
C1600 C1604 1.413 . S
C1601 C1599 1.329 . S
C1601 C1600 1.437 . S
C1601 H1623 0.929 . S
N1602 C1596 1.369 . S
N1602 C1603 1.338 . S
N1602 Gd1607 2.622 . S
C1603 N1602 1.338 . S
C1603 C1605 1.378 . S
C1603 H1615 0.929 . S
C1604 C1600 1.413 . S
C1604 C1605 1.348 . S
C1604 H1620 0.931 . S
C1605 C1603 1.378 . S
C1605 C1604 1.348 . S
C1605 H1621 0.930 . S
Gd1606 N1626 2.622 . S
Gd1606 N1633 2.570 . S
Gd1606 O1640 2.353 1_455 S
Gd1606 O1641 2.468 . S
Gd1606 O1642 2.427 . S
Gd1606 O1644 2.388 1_455 S
Gd1606 O1645 2.386 . S
Gd1606 O1649 2.307 . S
Gd1606 C1659 2.805 . S
Gd1607 N1602 2.622 . S
Gd1607 N1608 2.570 . S
Gd1607 O1639 2.386 . S
Gd1607 O1643 2.307 . S
Gd1607 O1646 2.353 . S
Gd1607 O1647 2.468 . S
Gd1607 O1648 2.427 . S
Gd1607 O1650 2.388 . S
Gd1607 C1671 2.805 . S
N1608 C1598 1.359 . S
N1608 Gd1607 2.570 . S
N1608 C1610 1.343 . S
C1609 C1597 1.422 . S
C1609 C1611 1.321 . S
C1609 H1617 0.931 . S
C1610 N1608 1.343 . S
C1610 C1611 1.390 . S
C1610 H1612 0.931 . S
C1611 C1609 1.321 . S
C1611 C1610 1.390 . S
C1611 H1613 0.930 . S
H1612 C1610 0.931 . S
H1613 C1611 0.930 . S
H1614 C1637 0.931 . S
H1615 C1603 0.929 . S
H1616 C1638 0.930 . S
H1617 C1609 0.931 . S
H1618 C1599 0.930 . S
H1619 C1628 0.929 1_655 S
H1620 C1604 0.931 . S
H1621 C1605 0.930 . S
H1622 C1660 0.930 . S
H1623 C1601 0.929 . S
H1624 C1629 0.931 . S
H1625 C1630 0.905 1_655 S
N1626 Gd1606 2.622 . S
N1626 C1627 1.369 . S
N1626 C1628 1.338 . S
C1627 N1626 1.369 . S
C1627 C1631 1.415 . S
C1627 C1634 1.422 . S
C1628 H1619 0.929 1_455 S
C1628 N1626 1.338 . S
C1628 C1630 1.378 . S
C1629 H1624 0.931 . S
C1629 C1630 1.348 . S
C1629 C1631 1.413 . S
C1630 H1625 0.905 1_455 S
C1630 C1628 1.378 . S
C1630 C1629 1.348 . S
C1631 C1627 1.415 . S
C1631 C1629 1.413 . S
C1631 C1661 1.437 . S
H1632 C1661 0.929 . S
N1633 Gd1606 2.570 . S
N1633 C1634 1.359 . S
N1633 C1637 1.343 . S
C1634 C1627 1.422 . S
C1634 N1633 1.359 . S
C1634 C1636 1.421 . S
C1635 C1636 1.422 . S
C1635 C1638 1.321 . S
C1635 H1662 0.931 . S
C1636 C1634 1.421 . S
C1636 C1635 1.422 . S
C1636 C1660 1.417 . S
C1637 H1614 0.931 . S
C1637 N1633 1.343 . S
C1637 C1638 1.390 . S
C1638 H1616 0.930 . S
C1638 C1635 1.321 . S
C1638 C1637 1.390 . S
O1639 Gd1607 2.386 . S
O1639 C1651 1.265 . S
O1640 Gd1606 2.353 1_655 S
O1640 C1651 1.242 . S
O1641 Gd1606 2.468 . S
O1641 C1659 1.263 . S
O1642 Gd1606 2.427 . S
O1642 C1659 1.252 . S
O1643 Gd1607 2.307 . S
O1643 C1652 1.261 . S
O1644 Gd1606 2.388 1_655 S
O1644 C1652 1.252 . S
O1645 Gd1606 2.386 . S
O1645 C1663 1.265 1_455 S
O1646 Gd1607 2.353 . S
O1646 C1663 1.242 . S
O1647 Gd1607 2.468 . S
O1647 C1671 1.263 . S
O1648 Gd1607 2.427 . S
O1648 C1671 1.252 . S
O1649 Gd1606 2.307 . S
O1649 C1664 1.261 . S
O1650 Gd1607 2.388 . S
O1650 C1664 1.252 1_655 S
C1651 O1639 1.265 . S
C1651 O1640 1.242 . S
C1652 O1643 1.261 . S
C1652 O1644 1.252 . S
C1653 C1656 1.394 . S
C1653 C1658 1.370 . S
C1653 C1659 1.500 . S
C1654 C1657 1.383 . S
C1654 C1658 1.395 . S
C1655 C1656 1.396 . S
C1655 C1657 1.365 . S
C1655 H1672 0.929 . S
C1656 C1653 1.394 . S
C1656 C1655 1.396 . S
C1656 H1673 0.930 . S
C1657 C1654 1.383 . S
C1657 C1655 1.365 . S
C1657 H1674 0.931 . S
C1658 C1653 1.370 . S
C1658 C1654 1.395 . S
C1658 H1675 0.930 . S
C1659 Gd1606 2.805 . S
C1659 O1641 1.263 . S
C1659 O1642 1.252 . S
C1659 C1653 1.500 . S
C1660 H1622 0.930 . S
C1660 C1636 1.417 . S
C1660 C1661 1.329 . S
C1661 C1631 1.437 . S
C1661 H1632 0.929 . S
C1661 C1660 1.329 . S
H1662 C1635 0.931 . S
C1663 O1645 1.265 1_655 S
C1663 O1646 1.242 . S
C1664 O1649 1.261 . S
C1664 O1650 1.252 1_455 S
C1665 C1668 1.394 . S
C1665 C1670 1.370 . S
C1665 C1671 1.500 . S
C1666 C1669 1.383 . S
C1666 C1670 1.395 . S
C1667 C1668 1.396 . S
C1667 C1669 1.365 . S
C1667 H1676 0.929 . S
C1668 C1665 1.394 . S
C1668 C1667 1.396 . S
C1668 H1677 0.930 . S
C1669 C1666 1.383 . S
C1669 C1667 1.365 . S
C1669 H1678 0.931 . S
C1670 C1665 1.370 . S
C1670 C1666 1.395 . S
C1670 H1679 0.930 . S
C1671 Gd1607 2.805 . S
C1671 O1647 1.263 . S
C1671 O1648 1.252 . S
C1671 C1665 1.500 . S
H1672 C1655 0.929 . S
H1673 C1656 0.930 . S
H1674 C1657 0.931 . S
H1675 C1658 0.930 . S
H1676 C1667 0.929 . S
H1677 C1668 0.930 . S
H1678 C1669 0.931 . S
H1679 C1670 0.930 . S
C1680 C1682 1.422 . S
C1680 C1684 1.415 . S
C1680 N1686 1.369 . S
C1681 C1682 1.421 . S
C1681 C1683 1.417 . S
C1681 C1693 1.422 . S
C1682 C1680 1.422 . S
C1682 C1681 1.421 . S
C1682 N1692 1.359 . S
C1683 C1681 1.417 . S
C1683 C1685 1.329 . S
C1683 H1702 0.930 . S
C1684 C1680 1.415 . S
C1684 C1685 1.437 . S
C1684 C1688 1.413 . S
C1685 C1683 1.329 . S
C1685 C1684 1.437 . S
C1685 H1707 0.929 . S
N1686 C1680 1.369 . S
N1686 C1687 1.338 . S
N1686 Gd1691 2.622 . S
C1687 N1686 1.338 . S
C1687 C1689 1.378 . S
C1687 H1699 0.929 . S
C1688 C1684 1.413 . S
C1688 C1689 1.348 . S
C1688 H1704 0.931 . S
C1689 C1687 1.378 . S
C1689 C1688 1.348 . S
C1689 H1705 0.930 . S
Gd1690 N1710 2.622 . S
Gd1690 N1717 2.570 . S
Gd1690 O1724 2.353 . S
Gd1690 O1725 2.468 . S
Gd1690 O1726 2.427 . S
Gd1690 O1728 2.388 . S
Gd1690 O1729 2.386 . S
Gd1690 O1733 2.307 . S
Gd1690 C1743 2.805 . S
Gd1691 N1686 2.622 . S
Gd1691 N1692 2.570 . S
Gd1691 O1723 2.386 . S
Gd1691 O1727 2.307 . S
Gd1691 O1730 2.353 . S
Gd1691 O1731 2.468 . S
Gd1691 O1732 2.427 . S
Gd1691 O1734 2.388 . S
Gd1691 C1755 2.805 . S
N1692 C1682 1.359 . S
N1692 Gd1691 2.570 . S
N1692 C1694 1.343 . S
C1693 C1681 1.422 . S
C1693 C1695 1.321 . S
C1693 H1701 0.931 . S
C1694 N1692 1.343 . S
C1694 C1695 1.390 . S
C1694 H1696 0.931 . S
C1695 C1693 1.321 . S
C1695 C1694 1.390 . S
C1695 H1697 0.930 . S
H1696 C1694 0.931 . S
H1697 C1695 0.930 . S
H1698 C1721 0.931 . S
H1699 C1687 0.929 . S
H1700 C1722 0.930 . S
H1701 C1693 0.931 . S
H1702 C1683 0.930 . S
H1703 C1712 0.929 . S
H1704 C1688 0.931 . S
H1705 C1689 0.930 . S
H1706 C1744 0.930 . S
H1707 C1685 0.929 . S
H1708 C1713 0.931 . S
H1709 C1714 0.930 . S
N1710 Gd1690 2.622 . S
N1710 C1711 1.369 . S
N1710 C1712 1.338 . S
C1711 N1710 1.369 . S
C1711 C1715 1.415 . S
C1711 C1718 1.422 . S
C1712 H1703 0.929 . S
C1712 N1710 1.338 . S
C1712 C1714 1.378 . S
C1713 H1708 0.931 . S
C1713 C1714 1.348 . S
C1713 C1715 1.413 . S
C1714 H1709 0.930 . S
C1714 C1712 1.378 . S
C1714 C1713 1.348 . S
C1715 C1711 1.415 . S
C1715 C1713 1.413 . S
C1715 C1745 1.437 . S
H1716 C1745 0.929 . S
N1717 Gd1690 2.570 . S
N1717 C1718 1.359 . S
N1717 C1721 1.343 . S
C1718 C1711 1.422 . S
C1718 N1717 1.359 . S
C1718 C1720 1.421 . S
C1719 C1720 1.422 . S
C1719 C1722 1.321 . S
C1719 H1746 0.931 . S
C1720 C1718 1.421 . S
C1720 C1719 1.422 . S
C1720 C1744 1.417 . S
C1721 H1698 0.931 . S
C1721 N1717 1.343 . S
C1721 C1722 1.390 . S
C1722 H1700 0.930 . S
C1722 C1719 1.321 . S
C1722 C1721 1.390 . S
O1723 Gd1691 2.386 . S
O1723 C1735 1.265 . S
O1724 Gd1690 2.353 . S
O1724 C1735 1.242 . S
O1725 Gd1690 2.468 . S
O1725 C1743 1.263 . S
O1726 Gd1690 2.427 . S
O1726 C1743 1.252 . S
O1727 Gd1691 2.307 . S
O1727 C1736 1.261 . S
O1728 Gd1690 2.388 . S
O1728 C1736 1.252 . S
O1729 Gd1690 2.386 . S
O1729 C1747 1.265 . S
O1730 Gd1691 2.353 . S
O1730 C1747 1.242 . S
O1731 Gd1691 2.468 . S
O1731 C1755 1.263 . S
O1732 Gd1691 2.427 . S
O1732 C1755 1.252 . S
O1733 Gd1690 2.307 . S
O1733 C1748 1.261 . S
O1734 Gd1691 2.388 . S
O1734 C1748 1.252 . S
C1735 O1723 1.265 . S
C1735 O1724 1.242 . S
C1736 O1727 1.261 . S
C1736 O1728 1.252 . S
C1737 C1740 1.394 . S
C1737 C1742 1.370 . S
C1737 C1743 1.500 . S
C1738 C1741 1.383 . S
C1738 C1742 1.395 . S
C1739 C1740 1.396 . S
C1739 C1741 1.365 . S
C1739 H1756 0.929 . S
C1740 C1737 1.394 . S
C1740 C1739 1.396 . S
C1740 H1757 0.930 . S
C1741 C1738 1.383 . S
C1741 C1739 1.365 . S
C1741 H1758 0.931 . S
C1742 C1737 1.370 . S
C1742 C1738 1.395 . S
C1742 H1759 0.930 . S
C1743 Gd1690 2.805 . S
C1743 O1725 1.263 . S
C1743 O1726 1.252 . S
C1743 C1737 1.500 . S
C1744 H1706 0.930 . S
C1744 C1720 1.417 . S
C1744 C1745 1.329 . S
C1745 C1715 1.437 . S
C1745 H1716 0.929 . S
C1745 C1744 1.329 . S
H1746 C1719 0.931 . S
C1747 O1729 1.265 . S
C1747 O1730 1.242 . S
C1748 O1733 1.261 . S
C1748 O1734 1.252 . S
C1749 C1752 1.394 . S
C1749 C1754 1.370 . S
C1749 C1755 1.500 . S
C1750 C1753 1.383 . S
C1750 C1754 1.395 . S
C1751 C1752 1.396 . S
C1751 C1753 1.365 . S
C1751 H1760 0.929 . S
C1752 C1749 1.394 . S
C1752 C1751 1.396 . S
C1752 H1761 0.930 . S
C1753 C1750 1.383 . S
C1753 C1751 1.365 . S
C1753 H1762 0.931 . S
C1754 C1749 1.370 . S
C1754 C1750 1.395 . S
C1754 H1763 0.930 . S
C1755 Gd1691 2.805 . S
C1755 O1731 1.263 . S
C1755 O1732 1.252 . S
C1755 C1749 1.500 . S
H1756 C1739 0.929 . S
H1757 C1740 0.930 . S
H1758 C1741 0.931 . S
H1759 C1742 0.930 . S
H1760 C1751 0.929 . S
H1761 C1752 0.930 . S
H1762 C1753 0.931 . S
H1763 C1754 0.930 . S
C1764 C1766 1.422 . S
C1764 C1768 1.415 . S
C1764 N1770 1.369 . S
C1765 C1766 1.421 . S
C1765 C1767 1.417 . S
C1765 C1777 1.422 . S
C1766 C1764 1.422 . S
C1766 C1765 1.421 . S
C1766 N1776 1.359 . S
C1767 C1765 1.417 . S
C1767 C1769 1.329 . S
C1767 H1786 0.930 . S
C1768 C1764 1.415 . S
C1768 C1769 1.437 . S
C1768 C1772 1.413 . S
C1769 C1767 1.329 . S
C1769 C1768 1.437 . S
C1769 H1791 0.929 . S
N1770 C1764 1.369 . S
N1770 C1771 1.338 . S
N1770 Gd1775 2.622 . S
C1771 N1770 1.338 . S
C1771 C1773 1.378 . S
C1771 H1783 0.929 . S
C1772 C1768 1.413 . S
C1772 C1773 1.348 . S
C1772 H1788 0.931 . S
C1773 C1771 1.378 . S
C1773 C1772 1.348 . S
C1773 H1789 0.930 . S
Gd1774 N1794 2.622 . S
Gd1774 N1801 2.570 . S
Gd1774 O1808 2.353 . S
Gd1774 O1809 2.468 . S
Gd1774 O1810 2.427 . S
Gd1774 O1812 2.388 . S
Gd1774 O1813 2.386 . S
Gd1774 O1817 2.307 . S
Gd1774 C1827 2.805 . S
Gd1775 N1770 2.622 . S
Gd1775 N1776 2.570 . S
Gd1775 O1807 2.386 . S
Gd1775 O1811 2.307 . S
Gd1775 O1814 2.353 . S
Gd1775 O1815 2.468 . S
Gd1775 O1816 2.427 . S
Gd1775 O1818 2.388 . S
Gd1775 C1839 2.805 . S
N1776 C1766 1.359 . S
N1776 Gd1775 2.570 . S
N1776 C1778 1.343 . S
C1777 C1765 1.422 . S
C1777 C1779 1.321 . S
C1777 H1785 0.931 . S
C1778 N1776 1.343 . S
C1778 C1779 1.390 . S
C1778 H1780 0.931 . S
C1779 C1777 1.321 . S
C1779 C1778 1.390 . S
C1779 H1781 0.930 . S
H1780 C1778 0.931 . S
H1781 C1779 0.930 . S
H1782 C1805 0.931 . S
H1783 C1771 0.929 . S
H1784 C1806 0.930 . S
H1785 C1777 0.931 . S
H1786 C1767 0.930 . S
H1787 C1796 0.929 . S
H1788 C1772 0.931 . S
H1789 C1773 0.930 . S
H1790 C1828 0.930 . S
H1791 C1769 0.929 . S
H1792 C1797 0.931 . S
H1793 C1798 0.930 . S
N1794 Gd1774 2.622 . S
N1794 C1795 1.369 . S
N1794 C1796 1.338 . S
C1795 N1794 1.369 . S
C1795 C1799 1.415 . S
C1795 C1802 1.422 . S
C1796 H1787 0.929 . S
C1796 N1794 1.338 . S
C1796 C1798 1.378 . S
C1797 H1792 0.931 . S
C1797 C1798 1.348 . S
C1797 C1799 1.413 . S
C1798 H1793 0.930 . S
C1798 C1796 1.378 . S
C1798 C1797 1.348 . S
C1799 C1795 1.415 . S
C1799 C1797 1.413 . S
C1799 C1829 1.437 . S
H1800 C1829 0.929 . S
N1801 Gd1774 2.570 . S
N1801 C1802 1.359 . S
N1801 C1805 1.343 . S
C1802 C1795 1.422 . S
C1802 N1801 1.359 . S
C1802 C1804 1.421 . S
C1803 C1804 1.422 . S
C1803 C1806 1.321 . S
C1803 H1830 0.931 . S
C1804 C1802 1.421 . S
C1804 C1803 1.422 . S
C1804 C1828 1.417 . S
C1805 H1782 0.931 . S
C1805 N1801 1.343 . S
C1805 C1806 1.390 . S
C1806 H1784 0.930 . S
C1806 C1803 1.321 . S
C1806 C1805 1.390 . S
O1807 Gd1775 2.386 . S
O1807 C1819 1.265 . S
O1808 Gd1774 2.353 . S
O1808 C1819 1.242 . S
O1809 Gd1774 2.468 . S
O1809 C1827 1.263 . S
O1810 Gd1774 2.427 . S
O1810 C1827 1.252 . S
O1811 Gd1775 2.307 . S
O1811 C1820 1.261 . S
O1812 Gd1774 2.388 . S
O1812 C1820 1.252 . S
O1813 Gd1774 2.386 . S
O1813 C1831 1.265 . S
O1814 Gd1775 2.353 . S
O1814 C1831 1.242 . S
O1815 Gd1775 2.468 . S
O1815 C1839 1.263 . S
O1816 Gd1775 2.427 . S
O1816 C1839 1.252 . S
O1817 Gd1774 2.307 . S
O1817 C1832 1.261 . S
O1818 Gd1775 2.388 . S
O1818 C1832 1.252 . S
C1819 O1807 1.265 . S
C1819 O1808 1.242 . S
C1820 O1811 1.261 . S
C1820 O1812 1.252 . S
C1821 C1824 1.394 . S
C1821 C1826 1.370 . S
C1821 C1827 1.500 . S
C1822 C1825 1.383 . S
C1822 C1826 1.395 . S
C1823 C1824 1.396 . S
C1823 C1825 1.365 . S
C1823 H1840 0.929 . S
C1824 C1821 1.394 . S
C1824 C1823 1.396 . S
C1824 H1841 0.930 . S
C1825 C1822 1.383 . S
C1825 C1823 1.365 . S
C1825 H1842 0.931 . S
C1826 C1821 1.370 . S
C1826 C1822 1.395 . S
C1826 H1843 0.930 . S
C1827 Gd1774 2.805 . S
C1827 O1809 1.263 . S
C1827 O1810 1.252 . S
C1827 C1821 1.500 . S
C1828 H1790 0.930 . S
C1828 C1804 1.417 . S
C1828 C1829 1.329 . S
C1829 C1799 1.437 . S
C1829 H1800 0.929 . S
C1829 C1828 1.329 . S
H1830 C1803 0.931 . S
C1831 O1813 1.265 . S
C1831 O1814 1.242 . S
C1832 O1817 1.261 . S
C1832 O1818 1.252 . S
C1833 C1836 1.394 . S
C1833 C1838 1.370 . S
C1833 C1839 1.500 . S
C1834 C1837 1.383 . S
C1834 C1838 1.395 . S
C1835 C1836 1.396 . S
C1835 C1837 1.365 . S
C1835 H1844 0.929 . S
C1836 C1833 1.394 . S
C1836 C1835 1.396 . S
C1836 H1845 0.930 . S
C1837 C1834 1.383 . S
C1837 C1835 1.365 . S
C1837 H1846 0.931 . S
C1838 C1833 1.370 . S
C1838 C1834 1.395 . S
C1838 H1847 0.930 . S
C1839 Gd1775 2.805 . S
C1839 O1815 1.263 . S
C1839 O1816 1.252 . S
C1839 C1833 1.500 . S
H1840 C1823 0.929 . S
H1841 C1824 0.930 . S
H1842 C1825 0.931 . S
H1843 C1826 0.930 . S
H1844 C1835 0.929 . S
H1845 C1836 0.930 . S
H1846 C1837 0.931 . S
H1847 C1838 0.930 . S
C1848 C1850 1.422 . S
C1848 C1852 1.415 . S
C1848 N1854 1.369 . S
C1849 C1850 1.421 1_554 S
C1849 C1851 1.417 . S
C1849 C1861 1.422 . S
C1850 C1848 1.422 . S
C1850 C1849 1.421 1_556 S
C1850 N1860 1.352 1_556 S
C1851 C1849 1.417 . S
C1851 C1853 1.331 1_554 S
C1851 H1870 0.928 . S
C1852 C1848 1.415 . S
C1852 C1853 1.437 . S
C1852 C1856 1.413 . S
C1853 C1851 1.331 1_556 S
C1853 C1852 1.437 . S
C1853 H1875 0.929 . S
N1854 C1848 1.369 . S
N1854 C1855 1.338 . S
N1854 Gd1859 2.622 . S
C1855 N1854 1.338 . S
C1855 C1857 1.378 . S
C1855 H1867 0.929 . S
C1856 C1852 1.413 . S
C1856 C1857 1.348 . S
C1856 H1872 0.933 1_455 S
C1857 C1855 1.378 . S
C1857 C1856 1.348 . S
C1857 H1873 0.930 . S
Gd1858 N1878 2.622 . S
Gd1858 N1885 2.570 . S
Gd1858 O1892 2.353 . S
Gd1858 O1893 2.468 . S
Gd1858 O1894 2.427 . S
Gd1858 O1896 2.388 . S
Gd1858 O1897 2.386 . S
Gd1858 O1901 2.307 . S
Gd1858 C1911 2.805 . S
Gd1859 N1854 2.622 . S
Gd1859 N1860 2.560 1_556 S
Gd1859 O1891 2.386 1_556 S
Gd1859 O1895 2.307 1_556 S
Gd1859 O1898 2.353 . S
Gd1859 O1899 2.468 . S
Gd1859 O1900 2.427 . S
Gd1859 O1902 2.388 . S
Gd1859 C1923 2.805 . S
N1860 C1850 1.352 1_554 S
N1860 Gd1859 2.560 1_554 S
N1860 C1862 1.367 . S
C1861 C1849 1.422 . S
C1861 C1863 1.321 . S
C1861 H1869 0.931 . S
C1862 N1860 1.367 . S
C1862 C1863 1.390 . S
C1862 H1864 0.931 . S
C1863 C1861 1.321 . S
C1863 C1862 1.390 . S
C1863 H1865 0.930 . S
H1864 C1862 0.931 . S
H1865 C1863 0.930 . S
H1866 C1889 0.931 . S
H1867 C1855 0.929 . S
H1868 C1890 0.915 1_556 S
H1869 C1861 0.931 . S
H1870 C1851 0.928 . S
H1871 C1880 0.929 . S
H1872 C1856 0.933 1_655 S
H1873 C1857 0.930 . S
H1874 C1912 0.930 . S
H1875 C1853 0.929 . S
H1876 C1881 0.931 . S
H1877 C1882 0.930 . S
N1878 Gd1858 2.622 . S
N1878 C1879 1.369 . S
N1878 C1880 1.338 . S
C1879 N1878 1.369 . S
C1879 C1883 1.415 . S
C1879 C1886 1.422 . S
C1880 H1871 0.929 . S
C1880 N1878 1.338 . S
C1880 C1882 1.378 . S
C1881 H1876 0.931 . S
C1881 C1882 1.348 . S
C1881 C1883 1.413 . S
C1882 H1877 0.930 . S
C1882 C1880 1.378 . S
C1882 C1881 1.348 . S
C1883 C1879 1.415 . S
C1883 C1881 1.413 . S
C1883 C1913 1.437 . S
H1884 C1913 0.929 . S
N1885 Gd1858 2.570 . S
N1885 C1886 1.359 . S
N1885 C1889 1.343 . S
C1886 C1879 1.422 . S
C1886 N1885 1.359 . S
C1886 C1888 1.421 . S
C1887 C1888 1.422 . S
C1887 C1890 1.321 . S
C1887 H1914 0.931 . S
C1888 C1886 1.421 . S
C1888 C1887 1.422 . S
C1888 C1912 1.417 . S
C1889 H1866 0.931 . S
C1889 N1885 1.343 . S
C1889 C1890 1.390 . S
C1890 H1868 0.915 1_554 S
C1890 C1887 1.321 . S
C1890 C1889 1.390 . S
O1891 Gd1859 2.386 1_554 S
O1891 C1903 1.265 . S
O1892 Gd1858 2.353 . S
O1892 C1903 1.242 . S
O1893 Gd1858 2.468 . S
O1893 C1911 1.263 . S
O1894 Gd1858 2.427 . S
O1894 C1911 1.252 . S
O1895 Gd1859 2.307 1_554 S
O1895 C1904 1.261 . S
O1896 Gd1858 2.388 . S
O1896 C1904 1.252 . S
O1897 Gd1858 2.386 . S
O1897 C1915 1.265 1_554 S
O1898 Gd1859 2.353 . S
O1898 C1915 1.242 . S
O1899 Gd1859 2.468 . S
O1899 C1923 1.263 . S
O1900 Gd1859 2.427 . S
O1900 C1923 1.252 . S
O1901 Gd1858 2.307 . S
O1901 C1916 1.261 1_554 S
O1902 Gd1859 2.388 . S
O1902 C1916 1.252 . S
C1903 O1891 1.265 . S
C1903 O1892 1.242 . S
C1904 O1895 1.261 . S
C1904 O1896 1.252 . S
C1905 C1908 1.394 . S
C1905 C1910 1.370 . S
C1905 C1911 1.500 . S
C1906 C1909 1.383 . S
C1906 C1910 1.395 . S
C1907 C1908 1.396 . S
C1907 C1909 1.365 . S
C1907 H1924 0.929 . S
C1908 C1905 1.394 . S
C1908 C1907 1.396 . S
C1908 H1925 0.930 . S
C1909 C1906 1.383 . S
C1909 C1907 1.365 . S
C1909 H1926 0.931 . S
C1910 C1905 1.370 . S
C1910 C1906 1.395 . S
C1910 H1927 0.930 . S
C1911 Gd1858 2.805 . S
C1911 O1893 1.263 . S
C1911 O1894 1.252 . S
C1911 C1905 1.500 . S
C1912 H1874 0.930 . S
C1912 C1888 1.417 . S
C1912 C1913 1.329 . S
C1913 C1883 1.437 . S
C1913 H1884 0.929 . S
C1913 C1912 1.329 . S
H1914 C1887 0.931 . S
C1915 O1897 1.265 1_556 S
C1915 O1898 1.242 . S
C1916 O1901 1.261 1_556 S
C1916 O1902 1.252 . S
C1917 C1920 1.394 . S
C1917 C1922 1.370 . S
C1917 C1923 1.500 . S
C1918 C1921 1.383 . S
C1918 C1922 1.395 . S
C1919 C1920 1.396 . S
C1919 C1921 1.365 . S
C1919 H1928 0.929 . S
C1920 C1917 1.394 . S
C1920 C1919 1.396 . S
C1920 H1929 0.930 . S
C1921 C1918 1.383 . S
C1921 C1919 1.365 . S
C1921 H1930 0.931 . S
C1922 C1917 1.370 . S
C1922 C1918 1.395 . S
C1922 H1931 0.930 . S
C1923 Gd1859 2.805 . S
C1923 O1899 1.263 . S
C1923 O1900 1.252 . S
C1923 C1917 1.500 . S
H1924 C1907 0.929 . S
H1925 C1908 0.930 . S
H1926 C1909 0.931 . S
H1927 C1910 0.930 . S
H1928 C1919 0.929 . S
H1929 C1920 0.930 . S
H1930 C1921 0.931 . S
H1931 C1922 0.930 . S
C1932 C1934 1.422 . S
C1932 C1936 1.415 . S
C1932 N1938 1.369 . S
C1933 C1934 1.421 1_565 S
C1933 C1935 1.413 1_565 S
C1933 C1945 1.422 . S
C1934 C1932 1.422 . S
C1934 C1933 1.421 1_545 S
C1934 N1944 1.354 1_545 S
C1935 C1933 1.413 1_545 S
C1935 C1937 1.340 . S
C1935 H1954 0.923 1_545 S
C1936 C1932 1.415 . S
C1936 C1937 1.437 . S
C1936 C1940 1.413 . S
C1937 C1935 1.340 . S
C1937 C1936 1.437 . S
C1937 H1959 0.929 . S
N1938 C1932 1.369 . S
N1938 C1939 1.338 . S
N1938 Gd1943 2.622 . S
C1939 N1938 1.338 . S
C1939 C1941 1.378 . S
C1939 H1951 0.929 . S
C1940 C1936 1.413 . S
C1940 C1941 1.348 . S
C1940 H1956 0.931 . S
C1941 C1939 1.378 . S
C1941 C1940 1.348 . S
C1941 H1957 0.930 . S
Gd1942 N1962 2.622 . S
Gd1942 N1969 2.570 . S
Gd1942 O1976 2.353 . S
Gd1942 O1977 2.468 . S
Gd1942 O1978 2.427 . S
Gd1942 O1980 2.388 . S
Gd1942 O1981 2.386 . S
Gd1942 O1985 2.307 . S
Gd1942 C1995 2.805 . S
Gd1943 N1938 2.622 . S
Gd1943 N1944 2.563 1_545 S
Gd1943 O1975 2.386 1_545 S
Gd1943 O1979 2.307 1_545 S
Gd1943 O1982 2.353 . S
Gd1943 O1983 2.468 . S
Gd1943 O1984 2.427 . S
Gd1943 O1986 2.388 . S
Gd1943 C2007 2.805 . S
N1944 C1934 1.354 1_565 S
N1944 Gd1943 2.563 1_565 S
N1944 C1946 1.360 . S
C1945 C1933 1.422 . S
C1945 C1947 1.321 . S
C1945 H1953 0.931 . S
C1946 N1944 1.360 . S
C1946 C1947 1.390 . S
C1946 H1948 0.931 . S
C1947 C1945 1.321 . S
C1947 C1946 1.390 . S
C1947 H1949 0.930 . S
H1948 C1946 0.931 . S
H1949 C1947 0.930 . S
H1950 C1973 0.931 . S
H1951 C1939 0.929 . S
H1952 C1974 0.920 1_545 S
H1953 C1945 0.931 . S
H1954 C1935 0.923 1_565 S
H1955 C1964 0.929 . S
H1956 C1940 0.931 . S
H1957 C1941 0.930 . S
H1958 C1996 0.930 . S
H1959 C1937 0.929 . S
H1960 C1965 0.931 . S
H1961 C1966 0.930 . S
N1962 Gd1942 2.622 . S
N1962 C1963 1.369 . S
N1962 C1964 1.338 . S
C1963 N1962 1.369 . S
C1963 C1967 1.415 . S
C1963 C1970 1.422 . S
C1964 H1955 0.929 . S
C1964 N1962 1.338 . S
C1964 C1966 1.378 . S
C1965 H1960 0.931 . S
C1965 C1966 1.348 . S
C1965 C1967 1.413 . S
C1966 H1961 0.930 . S
C1966 C1964 1.378 . S
C1966 C1965 1.348 . S
C1967 C1963 1.415 . S
C1967 C1965 1.413 . S
C1967 C1997 1.437 . S
H1968 C1997 0.929 . S
N1969 Gd1942 2.570 . S
N1969 C1970 1.359 . S
N1969 C1973 1.343 . S
C1970 C1963 1.422 . S
C1970 N1969 1.359 . S
C1970 C1972 1.421 . S
C1971 C1972 1.422 . S
C1971 C1974 1.321 . S
C1971 H1998 0.931 . S
C1972 C1970 1.421 . S
C1972 C1971 1.422 . S
C1972 C1996 1.417 . S
C1973 H1950 0.931 . S
C1973 N1969 1.343 . S
C1973 C1974 1.390 . S
C1974 H1952 0.920 1_565 S
C1974 C1971 1.321 . S
C1974 C1973 1.390 . S
O1975 Gd1943 2.386 1_565 S
O1975 C1987 1.265 . S
O1976 Gd1942 2.353 . S
O1976 C1987 1.242 . S
O1977 Gd1942 2.468 . S
O1977 C1995 1.263 . S
O1978 Gd1942 2.427 . S
O1978 C1995 1.252 . S
O1979 Gd1943 2.307 1_565 S
O1979 C1988 1.261 . S
O1980 Gd1942 2.388 . S
O1980 C1988 1.252 . S
O1981 Gd1942 2.386 . S
O1981 C1999 1.265 1_565 S
O1982 Gd1943 2.353 . S
O1982 C1999 1.242 . S
O1983 Gd1943 2.468 . S
O1983 C2007 1.263 . S
O1984 Gd1943 2.427 . S
O1984 C2007 1.252 . S
O1985 Gd1942 2.307 . S
O1985 C2000 1.261 1_565 S
O1986 Gd1943 2.388 . S
O1986 C2000 1.252 . S
C1987 O1975 1.265 . S
C1987 O1976 1.242 . S
C1988 O1979 1.261 . S
C1988 O1980 1.252 . S
C1989 C1992 1.394 . S
C1989 C1994 1.370 . S
C1989 C1995 1.500 . S
C1990 C1993 1.383 . S
C1990 C1994 1.395 . S
C1991 C1992 1.396 . S
C1991 C1993 1.365 . S
C1991 H2008 0.929 . S
C1992 C1989 1.394 . S
C1992 C1991 1.396 . S
C1992 H2009 0.930 . S
C1993 C1990 1.383 . S
C1993 C1991 1.365 . S
C1993 H2010 0.931 . S
C1994 C1989 1.370 . S
C1994 C1990 1.395 . S
C1994 H2011 0.930 . S
C1995 Gd1942 2.805 . S
C1995 O1977 1.263 . S
C1995 O1978 1.252 . S
C1995 C1989 1.500 . S
C1996 H1958 0.930 . S
C1996 C1972 1.417 . S
C1996 C1997 1.329 . S
C1997 C1967 1.437 . S
C1997 H1968 0.929 . S
C1997 C1996 1.329 . S
H1998 C1971 0.931 . S
C1999 O1981 1.265 1_545 S
C1999 O1982 1.242 . S
C2000 O1985 1.261 1_545 S
C2000 O1986 1.252 . S
C2001 C2004 1.394 . S
C2001 C2006 1.370 . S
C2001 C2007 1.500 . S
C2002 C2005 1.383 . S
C2002 C2006 1.395 . S
C2003 C2004 1.396 . S
C2003 C2005 1.365 . S
C2003 H2012 0.929 . S
C2004 C2001 1.394 . S
C2004 C2003 1.396 . S
C2004 H2013 0.930 . S
C2005 C2002 1.383 . S
C2005 C2003 1.365 . S
C2005 H2014 0.931 . S
C2006 C2001 1.370 . S
C2006 C2002 1.395 . S
C2006 H2015 0.930 . S
C2007 Gd1943 2.805 . S
C2007 O1983 1.263 . S
C2007 O1984 1.252 . S
C2007 C2001 1.500 . S
H2008 C1991 0.929 . S
H2009 C1992 0.930 . S
H2010 C1993 0.931 . S
H2011 C1994 0.930 . S
H2012 C2003 0.929 . S
H2013 C2004 0.930 . S
H2014 C2005 0.931 . S
H2015 C2006 0.930 . S
C2016 C2018 1.422 . S
C2016 C2020 1.415 . S
C2016 N2022 1.369 . S
C2017 C2018 1.421 . S
C2017 C2019 1.417 . S
C2017 C2029 1.422 . S
C2018 C2016 1.422 . S
C2018 C2017 1.421 . S
C2018 N2028 1.359 . S
C2019 C2017 1.417 . S
C2019 C2021 1.329 . S
C2019 H2038 0.930 . S
C2020 C2016 1.415 . S
C2020 C2021 1.437 . S
C2020 C2024 1.413 . S
C2021 C2019 1.329 . S
C2021 C2020 1.437 . S
C2021 H2043 0.929 . S
N2022 C2016 1.369 . S
N2022 C2023 1.338 . S
N2022 Gd2027 2.622 . S
C2023 N2022 1.338 . S
C2023 C2025 1.378 . S
C2023 H2035 0.929 . S
C2024 C2020 1.413 . S
C2024 C2025 1.348 . S
C2024 H2040 0.931 . S
C2025 C2023 1.378 . S
C2025 C2024 1.348 . S
C2025 H2041 0.930 . S
Gd2026 N2046 2.622 . S
Gd2026 N2053 2.570 . S
Gd2026 O2060 2.353 1_545 S
Gd2026 O2061 2.468 . S
Gd2026 O2062 2.427 . S
Gd2026 O2064 2.388 1_545 S
Gd2026 O2065 2.386 . S
Gd2026 O2069 2.307 . S
Gd2026 C2079 2.805 . S
Gd2027 N2022 2.622 . S
Gd2027 N2028 2.570 . S
Gd2027 O2059 2.386 . S
Gd2027 O2063 2.307 . S
Gd2027 O2066 2.353 . S
Gd2027 O2067 2.468 . S
Gd2027 O2068 2.427 . S
Gd2027 O2070 2.388 . S
Gd2027 C2091 2.805 . S
N2028 C2018 1.359 . S
N2028 Gd2027 2.570 . S
N2028 C2030 1.343 . S
C2029 C2017 1.422 . S
C2029 C2031 1.321 . S
C2029 H2037 0.931 . S
C2030 N2028 1.343 . S
C2030 C2031 1.390 . S
C2030 H2032 0.931 . S
C2031 C2029 1.321 . S
C2031 C2030 1.390 . S
C2031 H2033 0.930 . S
H2032 C2030 0.931 . S
H2033 C2031 0.930 . S
H2034 C2057 0.931 . S
H2035 C2023 0.929 . S
H2036 C2058 0.930 . S
H2037 C2029 0.931 . S
H2038 C2019 0.930 . S
H2039 C2048 0.929 1_565 S
H2040 C2024 0.931 . S
H2041 C2025 0.930 . S
H2042 C2080 0.930 . S
H2043 C2021 0.929 . S
H2044 C2049 0.931 . S
H2045 C2050 0.930 . S
N2046 Gd2026 2.622 . S
N2046 C2047 1.369 . S
N2046 C2048 1.338 . S
C2047 N2046 1.369 . S
C2047 C2051 1.415 . S
C2047 C2054 1.422 . S
C2048 H2039 0.929 1_545 S
C2048 N2046 1.338 . S
C2048 C2050 1.378 . S
C2049 H2044 0.931 . S
C2049 C2050 1.348 . S
C2049 C2051 1.413 . S
C2050 H2045 0.930 . S
C2050 C2048 1.378 . S
C2050 C2049 1.348 . S
C2051 C2047 1.415 . S
C2051 C2049 1.413 . S
C2051 C2081 1.437 . S
H2052 C2081 0.929 . S
N2053 Gd2026 2.570 . S
N2053 C2054 1.359 . S
N2053 C2057 1.343 . S
C2054 C2047 1.422 . S
C2054 N2053 1.359 . S
C2054 C2056 1.421 . S
C2055 C2056 1.422 . S
C2055 C2058 1.321 . S
C2055 H2082 0.931 . S
C2056 C2054 1.421 . S
C2056 C2055 1.422 . S
C2056 C2080 1.417 . S
C2057 H2034 0.931 . S
C2057 N2053 1.343 . S
C2057 C2058 1.390 . S
C2058 H2036 0.930 . S
C2058 C2055 1.321 . S
C2058 C2057 1.390 . S
O2059 Gd2027 2.386 . S
O2059 C2071 1.265 . S
O2060 Gd2026 2.353 1_565 S
O2060 C2071 1.242 . S
O2061 Gd2026 2.468 . S
O2061 C2079 1.263 . S
O2062 Gd2026 2.427 . S
O2062 C2079 1.252 . S
O2063 Gd2027 2.307 . S
O2063 C2072 1.261 . S
O2064 Gd2026 2.388 1_565 S
O2064 C2072 1.252 . S
O2065 Gd2026 2.386 . S
O2065 C2083 1.257 1_545 S
O2066 Gd2027 2.353 . S
O2066 C2083 1.263 . S
O2067 Gd2027 2.468 . S
O2067 C2091 1.263 . S
O2068 Gd2027 2.427 . S
O2068 C2091 1.252 . S
O2069 Gd2026 2.307 . S
O2069 C2084 1.261 . S
O2070 Gd2027 2.388 . S
O2070 C2084 1.252 1_565 S
C2071 O2059 1.265 . S
C2071 O2060 1.242 . S
C2072 O2063 1.261 . S
C2072 O2064 1.252 . S
C2073 C2076 1.394 . S
C2073 C2078 1.370 . S
C2073 C2079 1.500 . S
C2074 C2077 1.383 . S
C2074 C2078 1.395 . S
C2075 C2076 1.396 . S
C2075 C2077 1.365 . S
C2075 H2092 0.929 . S
C2076 C2073 1.394 . S
C2076 C2075 1.396 . S
C2076 H2093 0.930 . S
C2077 C2074 1.383 . S
C2077 C2075 1.365 . S
C2077 H2094 0.931 . S
C2078 C2073 1.370 . S
C2078 C2074 1.395 . S
C2078 H2095 0.930 . S
C2079 Gd2026 2.805 . S
C2079 O2061 1.263 . S
C2079 O2062 1.252 . S
C2079 C2073 1.500 . S
C2080 H2042 0.930 . S
C2080 C2056 1.417 . S
C2080 C2081 1.329 . S
C2081 C2051 1.437 . S
C2081 H2052 0.929 . S
C2081 C2080 1.329 . S
H2082 C2055 0.931 . S
C2083 O2065 1.257 1_565 S
C2083 O2066 1.263 . S
C2084 O2069 1.261 . S
C2084 O2070 1.252 1_545 S
C2085 C2088 1.394 . S
C2085 C2090 1.370 . S
C2085 C2091 1.500 . S
C2086 C2089 1.383 . S
C2086 C2090 1.395 . S
C2087 C2088 1.396 . S
C2087 C2089 1.365 . S
C2087 H2096 0.929 . S
C2088 C2085 1.394 . S
C2088 C2087 1.396 . S
C2088 H2097 0.930 . S
C2089 C2086 1.383 . S
C2089 C2087 1.365 . S
C2089 H2098 0.931 . S
C2090 C2085 1.370 . S
C2090 C2086 1.395 . S
C2090 H2099 0.930 . S
C2091 Gd2027 2.805 . S
C2091 O2067 1.263 . S
C2091 O2068 1.252 . S
C2091 C2085 1.500 . S
H2092 C2075 0.929 . S
H2093 C2076 0.930 . S
H2094 C2077 0.931 . S
H2095 C2078 0.930 . S
H2096 C2087 0.929 . S
H2097 C2088 0.930 . S
H2098 C2089 0.931 . S
H2099 C2090 0.930 . S
C2100 C2102 1.422 . S
C2100 C2104 1.415 . S
C2100 N2106 1.369 . S
C2101 C2102 1.421 . S
C2101 C2103 1.417 . S
C2101 C2113 1.422 . S
C2102 C2100 1.422 . S
C2102 C2101 1.421 . S
C2102 N2112 1.359 . S
C2103 C2101 1.417 . S
C2103 C2105 1.329 . S
C2103 H2122 0.930 . S
C2104 C2100 1.415 . S
C2104 C2105 1.437 . S
C2104 C2108 1.413 . S
C2105 C2103 1.329 . S
C2105 C2104 1.437 . S
C2105 H2127 0.929 . S
N2106 C2100 1.369 . S
N2106 C2107 1.338 . S
N2106 Gd2111 2.622 . S
C2107 N2106 1.338 . S
C2107 C2109 1.378 . S
C2107 H2119 0.929 . S
C2108 C2104 1.413 . S
C2108 C2109 1.348 . S
C2108 H2124 0.931 . S
C2109 C2107 1.378 . S
C2109 C2108 1.348 . S
C2109 H2125 0.930 . S
Gd2110 N2130 2.622 . S
Gd2110 N2137 2.570 . S
Gd2110 O2144 2.353 1_565 S
Gd2110 O2145 2.468 . S
Gd2110 O2146 2.427 . S
Gd2110 O2148 2.388 1_565 S
Gd2110 O2149 2.386 . S
Gd2110 O2153 2.307 . S
Gd2110 C2163 2.805 . S
Gd2111 N2106 2.622 . S
Gd2111 N2112 2.570 . S
Gd2111 O2143 2.386 . S
Gd2111 O2147 2.307 . S
Gd2111 O2150 2.353 . S
Gd2111 O2151 2.468 . S
Gd2111 O2152 2.427 . S
Gd2111 O2154 2.388 . S
Gd2111 C2175 2.805 . S
N2112 C2102 1.359 . S
N2112 Gd2111 2.570 . S
N2112 C2114 1.343 . S
C2113 C2101 1.422 . S
C2113 C2115 1.321 . S
C2113 H2121 0.931 . S
C2114 N2112 1.343 . S
C2114 C2115 1.390 . S
C2114 H2116 0.931 . S
C2115 C2113 1.321 . S
C2115 C2114 1.390 . S
C2115 H2117 0.930 . S
H2116 C2114 0.931 . S
H2117 C2115 0.930 . S
H2118 C2141 0.931 . S
H2119 C2107 0.929 . S
H2120 C2142 0.930 . S
H2121 C2113 0.931 . S
H2122 C2103 0.930 . S
H2123 C2132 0.929 1_545 S
H2124 C2108 0.931 . S
H2125 C2109 0.930 . S
H2126 C2164 0.930 . S
H2127 C2105 0.929 . S
H2128 C2133 0.931 . S
H2129 C2134 0.957 . S
N2130 Gd2110 2.622 . S
N2130 C2131 1.369 . S
N2130 C2132 1.338 . S
C2131 N2130 1.369 . S
C2131 C2135 1.415 . S
C2131 C2138 1.422 . S
C2132 H2123 0.929 1_565 S
C2132 N2130 1.338 . S
C2132 C2134 1.378 . S
C2133 H2128 0.931 . S
C2133 C2134 1.348 . S
C2133 C2135 1.413 . S
C2134 H2129 0.957 . S
C2134 C2132 1.378 . S
C2134 C2133 1.348 . S
C2135 C2131 1.415 . S
C2135 C2133 1.413 . S
C2135 C2165 1.437 . S
H2136 C2165 0.929 . S
N2137 Gd2110 2.570 . S
N2137 C2138 1.359 . S
N2137 C2141 1.343 . S
C2138 C2131 1.422 . S
C2138 N2137 1.359 . S
C2138 C2140 1.421 . S
C2139 C2140 1.422 . S
C2139 C2142 1.321 . S
C2139 H2166 0.931 . S
C2140 C2138 1.421 . S
C2140 C2139 1.422 . S
C2140 C2164 1.417 . S
C2141 H2118 0.931 . S
C2141 N2137 1.343 . S
C2141 C2142 1.390 . S
C2142 H2120 0.930 . S
C2142 C2139 1.321 . S
C2142 C2141 1.390 . S
O2143 Gd2111 2.386 . S
O2143 C2155 1.265 . S
O2144 Gd2110 2.353 1_545 S
O2144 C2155 1.242 . S
O2145 Gd2110 2.468 . S
O2145 C2163 1.263 . S
O2146 Gd2110 2.427 . S
O2146 C2163 1.252 . S
O2147 Gd2111 2.307 . S
O2147 C2156 1.261 . S
O2148 Gd2110 2.388 1_545 S
O2148 C2156 1.252 . S
O2149 Gd2110 2.386 . S
O2149 C2167 1.265 1_565 S
O2150 Gd2111 2.353 . S
O2150 C2167 1.242 . S
O2151 Gd2111 2.468 . S
O2151 C2175 1.263 . S
O2152 Gd2111 2.427 . S
O2152 C2175 1.252 . S
O2153 Gd2110 2.307 . S
O2153 C2168 1.261 . S
O2154 Gd2111 2.388 . S
O2154 C2168 1.252 1_545 S
C2155 O2143 1.265 . S
C2155 O2144 1.242 . S
C2156 O2147 1.261 . S
C2156 O2148 1.252 . S
C2157 C2160 1.394 . S
C2157 C2162 1.370 . S
C2157 C2163 1.500 . S
C2158 C2161 1.383 . S
C2158 C2162 1.395 . S
C2159 C2160 1.396 . S
C2159 C2161 1.365 . S
C2159 H2176 0.929 . S
C2160 C2157 1.394 . S
C2160 C2159 1.396 . S
C2160 H2177 0.930 . S
C2161 C2158 1.383 . S
C2161 C2159 1.365 . S
C2161 H2178 0.931 . S
C2162 C2157 1.370 . S
C2162 C2158 1.395 . S
C2162 H2179 0.930 . S
C2163 Gd2110 2.805 . S
C2163 O2145 1.263 . S
C2163 O2146 1.252 . S
C2163 C2157 1.500 . S
C2164 H2126 0.930 . S
C2164 C2140 1.417 . S
C2164 C2165 1.329 . S
C2165 C2135 1.437 . S
C2165 H2136 0.929 . S
C2165 C2164 1.329 . S
H2166 C2139 0.931 . S
C2167 O2149 1.265 1_545 S
C2167 O2150 1.242 . S
C2168 O2153 1.261 . S
C2168 O2154 1.252 1_565 S
C2169 C2172 1.394 . S
C2169 C2174 1.370 . S
C2169 C2175 1.500 . S
C2170 C2173 1.383 . S
C2170 C2174 1.395 . S
C2171 C2172 1.396 . S
C2171 C2173 1.365 . S
C2171 H2180 0.929 . S
C2172 C2169 1.394 . S
C2172 C2171 1.396 . S
C2172 H2181 0.930 . S
C2173 C2170 1.383 . S
C2173 C2171 1.365 . S
C2173 H2182 0.931 . S
C2174 C2169 1.370 . S
C2174 C2170 1.395 . S
C2174 H2183 0.930 . S
C2175 Gd2111 2.805 . S
C2175 O2151 1.263 . S
C2175 O2152 1.252 . S
C2175 C2169 1.500 . S
H2176 C2159 0.929 . S
H2177 C2160 0.930 . S
H2178 C2161 0.931 . S
H2179 C2162 0.930 . S
H2180 C2171 0.929 . S
H2181 C2172 0.930 . S
H2182 C2173 0.931 . S
H2183 C2174 0.930 . S
C2184 C2186 1.422 . S
C2184 C2188 1.415 . S
C2184 N2190 1.369 . S
C2185 C2186 1.421 . S
C2185 C2187 1.417 . S
C2185 C2197 1.422 . S
C2186 C2184 1.422 . S
C2186 C2185 1.421 . S
C2186 N2196 1.359 . S
C2187 C2185 1.417 . S
C2187 C2189 1.329 . S
C2187 H2206 0.930 . S
C2188 C2184 1.415 . S
C2188 C2189 1.437 . S
C2188 C2192 1.413 . S
C2189 C2187 1.329 . S
C2189 C2188 1.437 . S
C2189 H2211 0.929 . S
N2190 C2184 1.369 . S
N2190 C2191 1.338 . S
N2190 Gd2195 2.622 . S
C2191 N2190 1.338 . S
C2191 C2193 1.378 . S
C2191 H2203 0.929 . S
C2192 C2188 1.413 . S
C2192 C2193 1.348 . S
C2192 H2208 0.931 . S
C2193 C2191 1.378 . S
C2193 C2192 1.348 . S
C2193 H2209 0.930 . S
Gd2194 N2214 2.622 . S
Gd2194 N2221 2.570 . S
Gd2194 O2228 2.353 1_565 S
Gd2194 O2229 2.468 . S
Gd2194 O2230 2.427 . S
Gd2194 O2232 2.388 1_565 S
Gd2194 O2233 2.386 . S
Gd2194 O2237 2.307 . S
Gd2194 C2247 2.805 . S
Gd2195 N2190 2.622 . S
Gd2195 N2196 2.570 . S
Gd2195 O2227 2.386 . S
Gd2195 O2231 2.307 . S
Gd2195 O2234 2.353 . S
Gd2195 O2235 2.468 . S
Gd2195 O2236 2.427 . S
Gd2195 O2238 2.388 . S
Gd2195 C2259 2.805 . S
N2196 C2186 1.359 . S
N2196 Gd2195 2.570 . S
N2196 C2198 1.343 . S
C2197 C2185 1.422 . S
C2197 C2199 1.321 . S
C2197 H2205 0.931 . S
C2198 N2196 1.343 . S
C2198 C2199 1.390 . S
C2198 H2200 0.931 . S
C2199 C2197 1.321 . S
C2199 C2198 1.390 . S
C2199 H2201 0.930 . S
H2200 C2198 0.931 . S
H2201 C2199 0.930 . S
H2202 C2225 0.931 . S
H2203 C2191 0.929 . S
H2204 C2226 0.930 . S
H2205 C2197 0.931 . S
H2206 C2187 0.930 . S
H2207 C2216 0.929 1_545 S
H2208 C2192 0.931 . S
H2209 C2193 0.930 . S
H2210 C2248 0.930 . S
H2211 C2189 0.929 . S
H2212 C2217 0.931 . S
H2213 C2218 0.932 . S
N2214 Gd2194 2.622 . S
N2214 C2215 1.369 . S
N2214 C2216 1.338 . S
C2215 N2214 1.369 . S
C2215 C2219 1.415 . S
C2215 C2222 1.422 . S
C2216 H2207 0.929 1_565 S
C2216 N2214 1.338 . S
C2216 C2218 1.378 . S
C2217 H2212 0.931 . S
C2217 C2218 1.348 . S
C2217 C2219 1.413 . S
C2218 H2213 0.932 . S
C2218 C2216 1.378 . S
C2218 C2217 1.348 . S
C2219 C2215 1.415 . S
C2219 C2217 1.413 . S
C2219 C2249 1.437 . S
H2220 C2249 0.929 . S
N2221 Gd2194 2.570 . S
N2221 C2222 1.359 . S
N2221 C2225 1.343 . S
C2222 C2215 1.422 . S
C2222 N2221 1.359 . S
C2222 C2224 1.421 . S
C2223 C2224 1.422 . S
C2223 C2226 1.321 . S
C2223 H2250 0.931 . S
C2224 C2222 1.421 . S
C2224 C2223 1.422 . S
C2224 C2248 1.417 . S
C2225 H2202 0.931 . S
C2225 N2221 1.343 . S
C2225 C2226 1.390 . S
C2226 H2204 0.930 . S
C2226 C2223 1.321 . S
C2226 C2225 1.390 . S
O2227 Gd2195 2.386 . S
O2227 C2239 1.265 . S
O2228 Gd2194 2.353 1_545 S
O2228 C2239 1.242 . S
O2229 Gd2194 2.468 . S
O2229 C2247 1.263 . S
O2230 Gd2194 2.427 . S
O2230 C2247 1.252 . S
O2231 Gd2195 2.307 . S
O2231 C2240 1.261 . S
O2232 Gd2194 2.388 1_545 S
O2232 C2240 1.252 . S
O2233 Gd2194 2.386 . S
O2233 C2251 1.265 1_565 S
O2234 Gd2195 2.353 . S
O2234 C2251 1.242 . S
O2235 Gd2195 2.468 . S
O2235 C2259 1.263 . S
O2236 Gd2195 2.427 . S
O2236 C2259 1.252 . S
O2237 Gd2194 2.307 . S
O2237 C2252 1.261 . S
O2238 Gd2195 2.388 . S
O2238 C2252 1.252 1_545 S
C2239 O2227 1.265 . S
C2239 O2228 1.242 . S
C2240 O2231 1.261 . S
C2240 O2232 1.252 . S
C2241 C2244 1.394 . S
C2241 C2246 1.370 . S
C2241 C2247 1.500 . S
C2242 C2245 1.383 . S
C2242 C2246 1.395 . S
C2243 C2244 1.396 . S
C2243 C2245 1.365 . S
C2243 H2260 0.929 . S
C2244 C2241 1.394 . S
C2244 C2243 1.396 . S
C2244 H2261 0.930 . S
C2245 C2242 1.383 . S
C2245 C2243 1.365 . S
C2245 H2262 0.931 . S
C2246 C2241 1.370 . S
C2246 C2242 1.395 . S
C2246 H2263 0.930 . S
C2247 Gd2194 2.805 . S
C2247 O2229 1.263 . S
C2247 O2230 1.252 . S
C2247 C2241 1.500 . S
C2248 H2210 0.930 . S
C2248 C2224 1.417 . S
C2248 C2249 1.329 . S
C2249 C2219 1.437 . S
C2249 H2220 0.929 . S
C2249 C2248 1.329 . S
H2250 C2223 0.931 . S
C2251 O2233 1.265 1_545 S
C2251 O2234 1.242 . S
C2252 O2237 1.261 . S
C2252 O2238 1.252 1_565 S
C2253 C2256 1.394 . S
C2253 C2258 1.370 . S
C2253 C2259 1.500 . S
C2254 C2257 1.383 . S
C2254 C2258 1.395 . S
C2255 C2256 1.396 . S
C2255 C2257 1.365 . S
C2255 H2264 0.929 . S
C2256 C2253 1.394 . S
C2256 C2255 1.396 . S
C2256 H2265 0.930 . S
C2257 C2254 1.383 . S
C2257 C2255 1.365 . S
C2257 H2266 0.931 . S
C2258 C2253 1.370 . S
C2258 C2254 1.395 . S
C2258 H2267 0.930 . S
C2259 Gd2195 2.805 . S
C2259 O2235 1.263 . S
C2259 O2236 1.252 . S
C2259 C2253 1.500 . S
H2260 C2243 0.929 . S
H2261 C2244 0.930 . S
H2262 C2245 0.931 . S
H2263 C2246 0.930 . S
H2264 C2255 0.929 . S
H2265 C2256 0.930 . S
H2266 C2257 0.931 . S
H2267 C2258 0.930 . S
C2268 C2270 1.422 . S
C2268 C2272 1.415 . S
C2268 N2274 1.369 . S
C2269 C2270 1.421 1_556 S
C2269 C2271 1.417 . S
C2269 C2281 1.422 . S
C2270 C2268 1.422 . S
C2270 C2269 1.421 1_554 S
C2270 N2280 1.359 1_554 S
C2271 C2269 1.417 . S
C2271 C2273 1.329 1_556 S
C2271 H2290 0.930 . S
C2272 C2268 1.415 . S
C2272 C2273 1.437 . S
C2272 C2276 1.413 . S
C2273 C2271 1.329 1_554 S
C2273 C2272 1.437 . S
C2273 H2295 0.929 . S
N2274 C2268 1.369 . S
N2274 C2275 1.338 . S
N2274 Gd2279 2.622 . S
C2275 N2274 1.338 . S
C2275 C2277 1.378 . S
C2275 H2287 0.929 . S
C2276 C2272 1.413 . S
C2276 C2277 1.348 . S
C2276 H2292 0.931 . S
C2277 C2275 1.378 . S
C2277 C2276 1.348 . S
C2277 H2293 0.930 . S
Gd2278 N2298 2.622 . S
Gd2278 N2305 2.570 . S
Gd2278 O2312 2.353 . S
Gd2278 O2313 2.468 . S
Gd2278 O2314 2.427 . S
Gd2278 O2316 2.388 . S
Gd2278 O2317 2.386 . S
Gd2278 O2321 2.307 . S
Gd2278 C2331 2.805 . S
Gd2279 N2274 2.622 . S
Gd2279 N2280 2.570 1_554 S
Gd2279 O2311 2.386 1_554 S
Gd2279 O2315 2.307 1_554 S
Gd2279 O2318 2.353 . S
Gd2279 O2319 2.468 . S
Gd2279 O2320 2.427 . S
Gd2279 O2322 2.388 . S
Gd2279 C2343 2.805 . S
N2280 C2270 1.359 1_556 S
N2280 Gd2279 2.570 1_556 S
N2280 C2282 1.343 . S
C2281 C2269 1.422 . S
C2281 C2283 1.321 . S
C2281 H2289 0.931 . S
C2282 N2280 1.343 . S
C2282 C2283 1.390 . S
C2282 H2284 0.931 . S
C2283 C2281 1.321 . S
C2283 C2282 1.390 . S
C2283 H2285 0.930 . S
H2284 C2282 0.931 . S
H2285 C2283 0.930 . S
H2286 C2309 0.931 . S
H2287 C2275 0.929 . S
H2288 C2310 0.930 . S
H2289 C2281 0.931 . S
H2290 C2271 0.930 . S
H2291 C2300 0.929 . S
H2292 C2276 0.931 . S
H2293 C2277 0.930 . S
H2294 C2332 0.930 . S
H2295 C2273 0.929 . S
H2296 C2301 0.931 . S
H2297 C2302 0.930 . S
N2298 Gd2278 2.622 . S
N2298 C2299 1.369 . S
N2298 C2300 1.338 . S
C2299 N2298 1.369 . S
C2299 C2303 1.415 . S
C2299 C2306 1.422 . S
C2300 H2291 0.929 . S
C2300 N2298 1.338 . S
C2300 C2302 1.378 . S
C2301 H2296 0.931 . S
C2301 C2302 1.348 . S
C2301 C2303 1.413 . S
C2302 H2297 0.930 . S
C2302 C2300 1.378 . S
C2302 C2301 1.348 . S
C2303 C2299 1.415 . S
C2303 C2301 1.413 . S
C2303 C2333 1.437 . S
H2304 C2333 0.929 . S
N2305 Gd2278 2.570 . S
N2305 C2306 1.359 . S
N2305 C2309 1.343 . S
C2306 C2299 1.422 . S
C2306 N2305 1.359 . S
C2306 C2308 1.421 . S
C2307 C2308 1.422 . S
C2307 C2310 1.321 . S
C2307 H2334 0.931 . S
C2308 C2306 1.421 . S
C2308 C2307 1.422 . S
C2308 C2332 1.417 . S
C2309 H2286 0.931 . S
C2309 N2305 1.343 . S
C2309 C2310 1.390 . S
C2310 H2288 0.930 . S
C2310 C2307 1.321 . S
C2310 C2309 1.390 . S
O2311 Gd2279 2.386 1_556 S
O2311 C2323 1.265 . S
O2312 Gd2278 2.353 . S
O2312 C2323 1.242 . S
O2313 Gd2278 2.468 . S
O2313 C2331 1.263 . S
O2314 Gd2278 2.427 . S
O2314 C2331 1.252 . S
O2315 Gd2279 2.307 1_556 S
O2315 C2324 1.261 . S
O2316 Gd2278 2.388 . S
O2316 C2324 1.252 . S
O2317 Gd2278 2.386 . S
O2317 C2335 1.265 1_556 S
O2318 Gd2279 2.353 . S
O2318 C2335 1.242 . S
O2319 Gd2279 2.468 . S
O2319 C2343 1.263 . S
O2320 Gd2279 2.427 . S
O2320 C2343 1.252 . S
O2321 Gd2278 2.307 . S
O2321 C2336 1.261 1_556 S
O2322 Gd2279 2.388 . S
O2322 C2336 1.252 . S
C2323 O2311 1.265 . S
C2323 O2312 1.242 . S
C2324 O2315 1.261 . S
C2324 O2316 1.252 . S
C2325 C2328 1.394 . S
C2325 C2330 1.370 . S
C2325 C2331 1.500 . S
C2326 C2329 1.383 . S
C2326 C2330 1.395 . S
C2327 C2328 1.396 . S
C2327 C2329 1.365 . S
C2327 H2344 0.929 . S
C2328 C2325 1.394 . S
C2328 C2327 1.396 . S
C2328 H2345 0.930 . S
C2329 C2326 1.383 . S
C2329 C2327 1.365 . S
C2329 H2346 0.931 . S
C2330 C2325 1.370 . S
C2330 C2326 1.395 . S
C2330 H2347 0.930 . S
C2331 Gd2278 2.805 . S
C2331 O2313 1.263 . S
C2331 O2314 1.252 . S
C2331 C2325 1.500 . S
C2332 H2294 0.930 . S
C2332 C2308 1.417 . S
C2332 C2333 1.329 . S
C2333 C2303 1.437 . S
C2333 H2304 0.929 . S
C2333 C2332 1.329 . S
H2334 C2307 0.931 . S
C2335 O2317 1.265 1_554 S
C2335 O2318 1.242 . S
C2336 O2321 1.261 1_554 S
C2336 O2322 1.252 . S
C2337 C2340 1.394 . S
C2337 C2342 1.370 . S
C2337 C2343 1.500 . S
C2338 C2341 1.383 . S
C2338 C2342 1.395 . S
C2339 C2340 1.396 . S
C2339 C2341 1.365 . S
C2339 H2348 0.929 . S
C2340 C2337 1.394 . S
C2340 C2339 1.396 . S
C2340 H2349 0.930 . S
C2341 C2338 1.383 . S
C2341 C2339 1.365 . S
C2341 H2350 0.931 . S
C2342 C2337 1.370 . S
C2342 C2338 1.395 . S
C2342 H2351 0.930 . S
C2343 Gd2279 2.805 . S
C2343 O2319 1.263 . S
C2343 O2320 1.252 . S
C2343 C2337 1.500 . S
H2344 C2327 0.929 . S
H2345 C2328 0.930 . S
H2346 C2329 0.931 . S
H2347 C2330 0.930 . S
H2348 C2339 0.929 . S
H2349 C2340 0.930 . S
H2350 C2341 0.931 . S
H2351 C2342 0.930 . S
C2352 C2354 1.422 . S
C2352 C2356 1.415 . S
C2352 N2358 1.369 . S
C2353 C2354 1.421 . S
C2353 C2355 1.417 . S
C2353 C2365 1.422 . S
C2354 C2352 1.422 . S
C2354 C2353 1.421 . S
C2354 N2364 1.359 . S
C2355 C2353 1.417 . S
C2355 C2357 1.329 . S
C2355 H2374 0.930 . S
C2356 C2352 1.415 . S
C2356 C2357 1.437 . S
C2356 C2360 1.413 . S
C2357 C2355 1.329 . S
C2357 C2356 1.437 . S
C2357 H2379 0.929 . S
N2358 C2352 1.369 . S
N2358 C2359 1.338 . S
N2358 Gd2363 2.622 . S
C2359 N2358 1.338 . S
C2359 C2361 1.378 . S
C2359 H2371 0.929 . S
C2360 C2356 1.413 . S
C2360 C2361 1.348 . S
C2360 H2376 0.931 . S
C2361 C2359 1.378 . S
C2361 C2360 1.348 . S
C2361 H2377 0.930 . S
Gd2362 N2382 2.622 . S
Gd2362 N2389 2.570 . S
Gd2362 O2396 2.353 1_655 S
Gd2362 O2397 2.468 . S
Gd2362 O2398 2.427 . S
Gd2362 O2400 2.388 1_655 S
Gd2362 O2401 2.386 . S
Gd2362 O2405 2.307 . S
Gd2362 C2415 2.805 . S
Gd2363 N2358 2.622 . S
Gd2363 N2364 2.570 . S
Gd2363 O2395 2.386 . S
Gd2363 O2399 2.307 . S
Gd2363 O2402 2.353 . S
Gd2363 O2403 2.468 . S
Gd2363 O2404 2.427 . S
Gd2363 O2406 2.388 . S
Gd2363 C2427 2.805 . S
N2364 C2354 1.359 . S
N2364 Gd2363 2.570 . S
N2364 C2366 1.343 . S
C2365 C2353 1.422 . S
C2365 C2367 1.321 . S
C2365 H2373 0.931 . S
C2366 N2364 1.343 . S
C2366 C2367 1.390 . S
C2366 H2368 0.931 . S
C2367 C2365 1.321 . S
C2367 C2366 1.390 . S
C2367 H2369 0.930 . S
H2368 C2366 0.931 . S
H2369 C2367 0.930 . S
H2370 C2393 0.931 . S
H2371 C2359 0.929 . S
H2372 C2394 0.930 . S
H2373 C2365 0.931 . S
H2374 C2355 0.930 . S
H2375 C2384 0.929 1_455 S
H2376 C2360 0.931 . S
H2377 C2361 0.930 . S
H2378 C2416 0.930 . S
H2379 C2357 0.929 . S
H2380 C2385 0.894 1_565 S
H2381 C2386 0.922 1_455 S
N2382 Gd2362 2.622 . S
N2382 C2383 1.369 . S
N2382 C2384 1.338 . S
C2383 N2382 1.369 . S
C2383 C2387 1.415 . S
C2383 C2390 1.422 . S
C2384 H2375 0.929 1_655 S
C2384 N2382 1.338 . S
C2384 C2386 1.378 . S
C2385 H2380 0.894 1_545 S
C2385 C2386 1.348 . S
C2385 C2387 1.413 . S
C2386 H2381 0.922 1_655 S
C2386 C2384 1.378 . S
C2386 C2385 1.348 . S
C2387 C2383 1.415 . S
C2387 C2385 1.413 . S
C2387 C2417 1.437 . S
H2388 C2417 0.929 . S
N2389 Gd2362 2.570 . S
N2389 C2390 1.359 . S
N2389 C2393 1.343 . S
C2390 C2383 1.422 . S
C2390 N2389 1.359 . S
C2390 C2392 1.421 . S
C2391 C2392 1.422 . S
C2391 C2394 1.321 . S
C2391 H2418 0.931 . S
C2392 C2390 1.421 . S
C2392 C2391 1.422 . S
C2392 C2416 1.417 . S
C2393 H2370 0.931 . S
C2393 N2389 1.343 . S
C2393 C2394 1.390 . S
C2394 H2372 0.930 . S
C2394 C2391 1.321 . S
C2394 C2393 1.390 . S
O2395 Gd2363 2.386 . S
O2395 C2407 1.265 . S
O2396 Gd2362 2.353 1_455 S
O2396 C2407 1.242 . S
O2397 Gd2362 2.468 . S
O2397 C2415 1.263 . S
O2398 Gd2362 2.427 . S
O2398 C2415 1.252 . S
O2399 Gd2363 2.307 . S
O2399 C2408 1.261 . S
O2400 Gd2362 2.388 1_455 S
O2400 C2408 1.252 . S
O2401 Gd2362 2.386 . S
O2401 C2419 1.265 1_655 S
O2402 Gd2363 2.353 . S
O2402 C2419 1.242 . S
O2403 Gd2363 2.468 . S
O2403 C2427 1.263 . S
O2404 Gd2363 2.427 . S
O2404 C2427 1.252 . S
O2405 Gd2362 2.307 . S
O2405 C2420 1.261 . S
O2406 Gd2363 2.388 . S
O2406 C2420 1.252 1_455 S
C2407 O2395 1.265 . S
C2407 O2396 1.242 . S
C2408 O2399 1.261 . S
C2408 O2400 1.252 . S
C2409 C2412 1.394 . S
C2409 C2414 1.370 . S
C2409 C2415 1.500 . S
C2410 C2413 1.383 . S
C2410 C2414 1.395 . S
C2411 C2412 1.396 . S
C2411 C2413 1.365 . S
C2411 H2428 0.929 . S
C2412 C2409 1.394 . S
C2412 C2411 1.396 . S
C2412 H2429 0.930 . S
C2413 C2410 1.383 . S
C2413 C2411 1.365 . S
C2413 H2430 0.931 . S
C2414 C2409 1.370 . S
C2414 C2410 1.395 . S
C2414 H2431 0.930 . S
C2415 Gd2362 2.805 . S
C2415 O2397 1.263 . S
C2415 O2398 1.252 . S
C2415 C2409 1.500 . S
C2416 H2378 0.930 . S
C2416 C2392 1.417 . S
C2416 C2417 1.329 . S
C2417 C2387 1.437 . S
C2417 H2388 0.929 . S
C2417 C2416 1.329 . S
H2418 C2391 0.931 . S
C2419 O2401 1.265 1_455 S
C2419 O2402 1.242 . S
C2420 O2405 1.261 . S
C2420 O2406 1.252 1_655 S
C2421 C2424 1.394 . S
C2421 C2426 1.370 . S
C2421 C2427 1.500 . S
C2422 C2425 1.383 . S
C2422 C2426 1.395 . S
C2423 C2424 1.396 . S
C2423 C2425 1.365 . S
C2423 H2432 0.929 . S
C2424 C2421 1.394 . S
C2424 C2423 1.396 . S
C2424 H2433 0.930 . S
C2425 C2422 1.383 . S
C2425 C2423 1.365 . S
C2425 H2434 0.931 . S
C2426 C2421 1.370 . S
C2426 C2422 1.395 . S
C2426 H2435 0.930 . S
C2427 Gd2363 2.805 . S
C2427 O2403 1.263 . S
C2427 O2404 1.252 . S
C2427 C2421 1.500 . S
H2428 C2411 0.929 . S
H2429 C2412 0.930 . S
H2430 C2413 0.931 . S
H2431 C2414 0.930 . S
H2432 C2423 0.929 . S
H2433 C2424 0.930 . S
H2434 C2425 0.931 . S
H2435 C2426 0.930 . S
C2436 C2438 1.422 . S
C2436 C2440 1.415 . S
C2436 N2442 1.369 . S
C2437 C2438 1.421 . S
C2437 C2439 1.417 . S
C2437 C2449 1.422 . S
C2438 C2436 1.422 . S
C2438 C2437 1.421 . S
C2438 N2448 1.359 . S
C2439 C2437 1.417 . S
C2439 C2441 1.329 . S
C2439 H2458 0.930 . S
C2440 C2436 1.415 . S
C2440 C2441 1.437 . S
C2440 C2444 1.413 . S
C2441 C2439 1.329 . S
C2441 C2440 1.437 . S
C2441 H2463 0.929 . S
N2442 C2436 1.369 . S
N2442 C2443 1.338 . S
N2442 Gd2447 2.622 . S
C2443 N2442 1.338 . S
C2443 C2445 1.378 . S
C2443 H2455 0.929 . S
C2444 C2440 1.413 . S
C2444 C2445 1.348 . S
C2444 H2460 0.929 1_655 S
C2445 C2443 1.378 . S
C2445 C2444 1.348 . S
C2445 H2461 0.930 . S
Gd2446 N2466 2.622 . S
Gd2446 N2473 2.570 . S
Gd2446 O2480 2.353 . S
Gd2446 O2481 2.468 . S
Gd2446 O2482 2.427 . S
Gd2446 O2484 2.388 . S
Gd2446 O2485 2.386 . S
Gd2446 O2489 2.307 . S
Gd2446 C2499 2.805 . S
Gd2447 N2442 2.622 . S
Gd2447 N2448 2.570 . S
Gd2447 O2479 2.386 . S
Gd2447 O2483 2.307 . S
Gd2447 O2486 2.353 . S
Gd2447 O2487 2.468 . S
Gd2447 O2488 2.427 . S
Gd2447 O2490 2.388 . S
Gd2447 C2511 2.805 . S
N2448 C2438 1.359 . S
N2448 Gd2447 2.570 . S
N2448 C2450 1.343 . S
C2449 C2437 1.422 . S
C2449 C2451 1.321 . S
C2449 H2457 0.931 . S
C2450 N2448 1.343 . S
C2450 C2451 1.390 . S
C2450 H2452 0.931 . S
C2451 C2449 1.321 . S
C2451 C2450 1.390 . S
C2451 H2453 0.930 . S
H2452 C2450 0.931 . S
H2453 C2451 0.930 . S
H2454 C2477 0.931 . S
H2455 C2443 0.929 . S
H2456 C2478 0.930 . S
H2457 C2449 0.931 . S
H2458 C2439 0.930 . S
H2459 C2468 0.929 . S
H2460 C2444 0.929 1_455 S
H2461 C2445 0.930 . S
H2462 C2500 0.930 . S
H2463 C2441 0.929 . S
H2464 C2469 0.931 . S
H2465 C2470 0.930 . S
N2466 Gd2446 2.622 . S
N2466 C2467 1.369 . S
N2466 C2468 1.338 . S
C2467 N2466 1.369 . S
C2467 C2471 1.415 . S
C2467 C2474 1.422 . S
C2468 H2459 0.929 . S
C2468 N2466 1.338 . S
C2468 C2470 1.378 . S
C2469 H2464 0.931 . S
C2469 C2470 1.348 . S
C2469 C2471 1.413 . S
C2470 H2465 0.930 . S
C2470 C2468 1.378 . S
C2470 C2469 1.348 . S
C2471 C2467 1.415 . S
C2471 C2469 1.413 . S
C2471 C2501 1.437 . S
H2472 C2501 0.929 . S
N2473 Gd2446 2.570 . S
N2473 C2474 1.359 . S
N2473 C2477 1.343 . S
C2474 C2467 1.422 . S
C2474 N2473 1.359 . S
C2474 C2476 1.421 . S
C2475 C2476 1.422 . S
C2475 C2478 1.321 . S
C2475 H2502 0.931 . S
C2476 C2474 1.421 . S
C2476 C2475 1.422 . S
C2476 C2500 1.417 . S
C2477 H2454 0.931 . S
C2477 N2473 1.343 . S
C2477 C2478 1.390 . S
C2478 H2456 0.930 . S
C2478 C2475 1.321 . S
C2478 C2477 1.390 . S
O2479 Gd2447 2.386 . S
O2479 C2491 1.265 . S
O2480 Gd2446 2.353 . S
O2480 C2491 1.242 . S
O2481 Gd2446 2.468 . S
O2481 C2499 1.263 . S
O2482 Gd2446 2.427 . S
O2482 C2499 1.252 . S
O2483 Gd2447 2.307 . S
O2483 C2492 1.261 . S
O2484 Gd2446 2.388 . S
O2484 C2492 1.252 . S
O2485 Gd2446 2.386 . S
O2485 C2503 1.265 . S
O2486 Gd2447 2.353 . S
O2486 C2503 1.242 . S
O2487 Gd2447 2.468 . S
O2487 C2511 1.263 . S
O2488 Gd2447 2.427 . S
O2488 C2511 1.252 . S
O2489 Gd2446 2.307 . S
O2489 C2504 1.261 . S
O2490 Gd2447 2.388 . S
O2490 C2504 1.252 . S
C2491 O2479 1.265 . S
C2491 O2480 1.242 . S
C2492 O2483 1.261 . S
C2492 O2484 1.252 . S
C2493 C2496 1.394 . S
C2493 C2498 1.370 . S
C2493 C2499 1.500 . S
C2494 C2497 1.383 . S
C2494 C2498 1.395 . S
C2495 C2496 1.396 . S
C2495 C2497 1.365 . S
C2495 H2512 0.929 . S
C2496 C2493 1.394 . S
C2496 C2495 1.396 . S
C2496 H2513 0.930 . S
C2497 C2494 1.383 . S
C2497 C2495 1.365 . S
C2497 H2514 0.931 . S
C2498 C2493 1.370 . S
C2498 C2494 1.395 . S
C2498 H2515 0.930 . S
C2499 Gd2446 2.805 . S
C2499 O2481 1.263 . S
C2499 O2482 1.252 . S
C2499 C2493 1.500 . S
C2500 H2462 0.930 . S
C2500 C2476 1.417 . S
C2500 C2501 1.329 . S
C2501 C2471 1.437 . S
C2501 H2472 0.929 . S
C2501 C2500 1.329 . S
H2502 C2475 0.931 . S
C2503 O2485 1.265 . S
C2503 O2486 1.242 . S
C2504 O2489 1.261 . S
C2504 O2490 1.252 . S
C2505 C2508 1.394 . S
C2505 C2510 1.370 . S
C2505 C2511 1.500 . S
C2506 C2509 1.383 . S
C2506 C2510 1.395 . S
C2507 C2508 1.396 . S
C2507 C2509 1.365 . S
C2507 H2516 0.929 . S
C2508 C2505 1.394 . S
C2508 C2507 1.396 . S
C2508 H2517 0.930 . S
C2509 C2506 1.383 . S
C2509 C2507 1.365 . S
C2509 H2518 0.931 . S
C2510 C2505 1.370 . S
C2510 C2506 1.395 . S
C2510 H2519 0.930 . S
C2511 Gd2447 2.805 . S
C2511 O2487 1.263 . S
C2511 O2488 1.252 . S
C2511 C2505 1.500 . S
H2512 C2495 0.929 . S
H2513 C2496 0.930 . S
H2514 C2497 0.931 . S
H2515 C2498 0.930 . S
H2516 C2507 0.929 . S
H2517 C2508 0.930 . S
H2518 C2509 0.931 . S
H2519 C2510 0.930 . S
C2520 C2522 1.422 . S
C2520 C2524 1.415 . S
C2520 N2526 1.369 . S
C2521 C2522 1.421 . S
C2521 C2523 1.417 . S
C2521 C2533 1.422 . S
C2522 C2520 1.422 . S
C2522 C2521 1.421 . S
C2522 N2532 1.359 . S
C2523 C2521 1.417 . S
C2523 C2525 1.329 . S
C2523 H2542 0.930 . S
C2524 C2520 1.415 . S
C2524 C2525 1.437 . S
C2524 C2528 1.413 . S
C2525 C2523 1.329 . S
C2525 C2524 1.437 . S
C2525 H2547 0.929 . S
N2526 C2520 1.369 . S
N2526 C2527 1.338 . S
N2526 Gd2531 2.622 . S
C2527 N2526 1.338 . S
C2527 C2529 1.378 . S
C2527 H2539 0.929 . S
C2528 C2524 1.413 . S
C2528 C2529 1.348 . S
C2528 H2544 0.887 1_565 S
C2529 C2527 1.378 . S
C2529 C2528 1.348 . S
C2529 H2545 0.930 . S
Gd2530 N2550 2.622 . S
Gd2530 N2557 2.570 . S
Gd2530 O2564 2.353 . S
Gd2530 O2565 2.468 . S
Gd2530 O2566 2.427 . S
Gd2530 O2568 2.388 . S
Gd2530 O2569 2.386 . S
Gd2530 O2573 2.307 . S
Gd2530 C2583 2.805 . S
Gd2531 N2526 2.622 . S
Gd2531 N2532 2.570 . S
Gd2531 O2563 2.386 . S
Gd2531 O2567 2.307 . S
Gd2531 O2570 2.353 . S
Gd2531 O2571 2.468 . S
Gd2531 O2572 2.427 . S
Gd2531 O2574 2.388 . S
Gd2531 C2595 2.805 . S
N2532 C2522 1.359 . S
N2532 Gd2531 2.570 . S
N2532 C2534 1.343 . S
C2533 C2521 1.422 . S
C2533 C2535 1.321 . S
C2533 H2541 0.931 . S
C2534 N2532 1.343 . S
C2534 C2535 1.390 . S
C2534 H2536 0.931 . S
C2535 C2533 1.321 . S
C2535 C2534 1.390 . S
C2535 H2537 0.930 . S
H2536 C2534 0.931 . S
H2537 C2535 0.930 . S
H2538 C2561 0.931 . S
H2539 C2527 0.929 . S
H2540 C2562 0.930 . S
H2541 C2533 0.931 . S
H2542 C2523 0.930 . S
H2543 C2552 0.929 . S
H2544 C2528 0.887 1_545 S
H2545 C2529 0.930 . S
H2546 C2584 0.930 . S
H2547 C2525 0.929 . S
H2548 C2553 0.931 . S
H2549 C2554 0.930 . S
N2550 Gd2530 2.622 . S
N2550 C2551 1.369 . S
N2550 C2552 1.338 . S
C2551 N2550 1.369 . S
C2551 C2555 1.415 . S
C2551 C2558 1.422 . S
C2552 H2543 0.929 . S
C2552 N2550 1.338 . S
C2552 C2554 1.378 . S
C2553 H2548 0.931 . S
C2553 C2554 1.348 . S
C2553 C2555 1.413 . S
C2554 H2549 0.930 . S
C2554 C2552 1.378 . S
C2554 C2553 1.348 . S
C2555 C2551 1.415 . S
C2555 C2553 1.413 . S
C2555 C2585 1.437 . S
H2556 C2585 0.929 . S
N2557 Gd2530 2.570 . S
N2557 C2558 1.359 . S
N2557 C2561 1.343 . S
C2558 C2551 1.422 . S
C2558 N2557 1.359 . S
C2558 C2560 1.421 . S
C2559 C2560 1.422 . S
C2559 C2562 1.321 . S
C2559 H2586 0.931 . S
C2560 C2558 1.421 . S
C2560 C2559 1.422 . S
C2560 C2584 1.417 . S
C2561 H2538 0.931 . S
C2561 N2557 1.343 . S
C2561 C2562 1.390 . S
C2562 H2540 0.930 . S
C2562 C2559 1.321 . S
C2562 C2561 1.390 . S
O2563 Gd2531 2.386 . S
O2563 C2575 1.265 . S
O2564 Gd2530 2.353 . S
O2564 C2575 1.242 . S
O2565 Gd2530 2.468 . S
O2565 C2583 1.263 . S
O2566 Gd2530 2.427 . S
O2566 C2583 1.252 . S
O2567 Gd2531 2.307 . S
O2567 C2576 1.261 . S
O2568 Gd2530 2.388 . S
O2568 C2576 1.252 . S
O2569 Gd2530 2.386 . S
O2569 C2587 1.265 . S
O2570 Gd2531 2.353 . S
O2570 C2587 1.242 . S
O2571 Gd2531 2.468 . S
O2571 C2595 1.263 . S
O2572 Gd2531 2.427 . S
O2572 C2595 1.252 . S
O2573 Gd2530 2.307 . S
O2573 C2588 1.261 . S
O2574 Gd2531 2.388 . S
O2574 C2588 1.252 . S
C2575 O2563 1.265 . S
C2575 O2564 1.242 . S
C2576 O2567 1.261 . S
C2576 O2568 1.252 . S
C2577 C2580 1.394 . S
C2577 C2582 1.370 . S
C2577 C2583 1.500 . S
C2578 C2581 1.383 . S
C2578 C2582 1.395 . S
C2579 C2580 1.396 . S
C2579 C2581 1.365 . S
C2579 H2596 0.929 . S
C2580 C2577 1.394 . S
C2580 C2579 1.396 . S
C2580 H2597 0.930 . S
C2581 C2578 1.383 . S
C2581 C2579 1.365 . S
C2581 H2598 0.931 . S
C2582 C2577 1.370 . S
C2582 C2578 1.395 . S
C2582 H2599 0.930 . S
C2583 Gd2530 2.805 . S
C2583 O2565 1.263 . S
C2583 O2566 1.252 . S
C2583 C2577 1.500 . S
C2584 H2546 0.930 . S
C2584 C2560 1.417 . S
C2584 C2585 1.329 . S
C2585 C2555 1.437 . S
C2585 H2556 0.929 . S
C2585 C2584 1.329 . S
H2586 C2559 0.931 . S
C2587 O2569 1.265 . S
C2587 O2570 1.242 . S
C2588 O2573 1.261 . S
C2588 O2574 1.252 . S
C2589 C2592 1.394 . S
C2589 C2594 1.370 . S
C2589 C2595 1.500 . S
C2590 C2593 1.383 . S
C2590 C2594 1.395 . S
C2591 C2592 1.396 . S
C2591 C2593 1.365 . S
C2591 H2600 0.929 . S
C2592 C2589 1.394 . S
C2592 C2591 1.396 . S
C2592 H2601 0.930 . S
C2593 C2590 1.383 . S
C2593 C2591 1.365 . S
C2593 H2602 0.931 . S
C2594 C2589 1.370 . S
C2594 C2590 1.395 . S
C2594 H2603 0.930 . S
C2595 Gd2531 2.805 . S
C2595 O2571 1.263 . S
C2595 O2572 1.252 . S
C2595 C2589 1.500 . S
H2596 C2579 0.929 . S
H2597 C2580 0.930 . S
H2598 C2581 0.931 . S
H2599 C2582 0.930 . S
H2600 C2591 0.929 . S
H2601 C2592 0.930 . S
H2602 C2593 0.931 . S
H2603 C2594 0.930 . S
C2604 C2606 1.422 . S
C2604 C2608 1.415 . S
C2604 N2610 1.369 . S
C2605 C2606 1.421 . S
C2605 C2607 1.417 . S
C2605 C2617 1.422 . S
C2606 C2604 1.422 . S
C2606 C2605 1.421 . S
C2606 N2616 1.359 . S
C2607 C2605 1.417 . S
C2607 C2609 1.329 . S
C2607 H2626 0.930 . S
C2608 C2604 1.415 . S
C2608 C2609 1.437 . S
C2608 C2612 1.413 . S
C2609 C2607 1.329 . S
C2609 C2608 1.437 . S
C2609 H2631 0.929 . S
N2610 C2604 1.369 . S
N2610 C2611 1.338 . S
N2610 Gd2615 2.622 . S
C2611 N2610 1.338 . S
C2611 C2613 1.378 . S
C2611 H2623 0.929 . S
C2612 C2608 1.413 . S
C2612 C2613 1.348 . S
C2612 H2628 0.931 . S
C2613 C2611 1.378 . S
C2613 C2612 1.348 . S
C2613 H2629 0.930 . S
Gd2614 N2634 2.622 . S
Gd2614 N2641 2.570 1_455 S
Gd2614 O2648 2.353 . S
Gd2614 O2649 2.468 . S
Gd2614 O2650 2.427 . S
Gd2614 O2652 2.388 . S
Gd2614 O2653 2.386 1_455 S
Gd2614 O2657 2.307 1_455 S
Gd2614 C2667 2.805 . S
Gd2615 N2610 2.622 . S
Gd2615 N2616 2.570 . S
Gd2615 O2647 2.386 . S
Gd2615 O2651 2.307 . S
Gd2615 O2654 2.353 . S
Gd2615 O2655 2.468 . S
Gd2615 O2656 2.427 . S
Gd2615 O2658 2.388 . S
Gd2615 C2679 2.805 . S
N2616 C2606 1.359 . S
N2616 Gd2615 2.570 . S
N2616 C2618 1.343 . S
C2617 C2605 1.422 . S
C2617 C2619 1.321 . S
C2617 H2625 0.931 . S
C2618 N2616 1.343 . S
C2618 C2619 1.390 . S
C2618 H2620 0.931 . S
C2619 C2617 1.321 . S
C2619 C2618 1.390 . S
C2619 H2621 0.929 . S
H2620 C2618 0.931 . S
H2621 C2619 0.929 . S
H2622 C2645 0.931 . S
H2623 C2611 0.929 . S
H2624 C2646 0.930 . S
H2625 C2617 0.931 . S
H2626 C2607 0.930 . S
H2627 C2636 0.929 . S
H2628 C2612 0.931 . S
H2629 C2613 0.930 . S
H2630 C2668 0.930 . S
H2631 C2609 0.929 . S
H2632 C2637 0.931 . S
H2633 C2638 0.930 . S
N2634 Gd2614 2.622 . S
N2634 C2635 1.369 . S
N2634 C2636 1.338 . S
C2635 N2634 1.369 . S
C2635 C2639 1.415 . S
C2635 C2642 1.422 . S
C2636 H2627 0.929 . S
C2636 N2634 1.338 . S
C2636 C2638 1.378 . S
C2637 H2632 0.931 . S
C2637 C2638 1.348 . S
C2637 C2639 1.413 . S
C2638 H2633 0.930 . S
C2638 C2636 1.378 . S
C2638 C2637 1.348 . S
C2639 C2635 1.415 . S
C2639 C2637 1.413 . S
C2639 C2669 1.437 . S
H2640 C2669 0.929 . S
N2641 Gd2614 2.570 1_655 S
N2641 C2642 1.359 1_655 S
N2641 C2645 1.343 . S
C2642 C2635 1.422 . S
C2642 N2641 1.359 1_455 S
C2642 C2644 1.421 1_455 S
C2643 C2644 1.422 . S
C2643 C2646 1.321 . S
C2643 H2670 0.931 . S
C2644 C2642 1.421 1_655 S
C2644 C2643 1.422 . S
C2644 C2668 1.417 . S
C2645 H2622 0.931 . S
C2645 N2641 1.343 . S
C2645 C2646 1.390 . S
C2646 H2624 0.930 . S
C2646 C2643 1.321 . S
C2646 C2645 1.390 . S
O2647 Gd2615 2.386 . S
O2647 C2659 1.265 1_655 S
O2648 Gd2614 2.353 . S
O2648 C2659 1.242 . S
O2649 Gd2614 2.468 . S
O2649 C2667 1.263 . S
O2650 Gd2614 2.427 . S
O2650 C2667 1.252 . S
O2651 Gd2615 2.307 . S
O2651 C2660 1.261 1_655 S
O2652 Gd2614 2.388 . S
O2652 C2660 1.252 . S
O2653 Gd2614 2.386 1_655 S
O2653 C2671 1.265 . S
O2654 Gd2615 2.353 . S
O2654 C2671 1.242 . S
O2655 Gd2615 2.468 . S
O2655 C2679 1.263 . S
O2656 Gd2615 2.427 . S
O2656 C2679 1.252 . S
O2657 Gd2614 2.307 1_655 S
O2657 C2672 1.261 . S
O2658 Gd2615 2.388 . S
O2658 C2672 1.252 . S
C2659 O2647 1.265 1_455 S
C2659 O2648 1.242 . S
C2660 O2651 1.261 1_455 S
C2660 O2652 1.252 . S
C2661 C2664 1.394 . S
C2661 C2666 1.370 . S
C2661 C2667 1.500 . S
C2662 C2665 1.383 . S
C2662 C2666 1.395 . S
C2663 C2664 1.396 . S
C2663 C2665 1.365 . S
C2663 H2680 0.929 . S
C2664 C2661 1.394 . S
C2664 C2663 1.396 . S
C2664 H2681 0.930 . S
C2665 C2662 1.383 . S
C2665 C2663 1.365 . S
C2665 H2682 0.931 . S
C2666 C2661 1.370 . S
C2666 C2662 1.395 . S
C2666 H2683 0.930 . S
C2667 Gd2614 2.805 . S
C2667 O2649 1.263 . S
C2667 O2650 1.252 . S
C2667 C2661 1.500 . S
C2668 H2630 0.930 . S
C2668 C2644 1.417 . S
C2668 C2669 1.329 1_655 S
C2669 C2639 1.437 . S
C2669 H2640 0.929 . S
C2669 C2668 1.329 1_455 S
H2670 C2643 0.931 . S
C2671 O2653 1.265 . S
C2671 O2654 1.242 . S
C2672 O2657 1.261 . S
C2672 O2658 1.252 . S
C2673 C2676 1.394 . S
C2673 C2678 1.370 . S
C2673 C2679 1.500 . S
C2674 C2677 1.383 . S
C2674 C2678 1.395 . S
C2675 C2676 1.396 . S
C2675 C2677 1.365 . S
C2675 H2684 0.929 . S
C2676 C2673 1.394 . S
C2676 C2675 1.396 . S
C2676 H2685 0.930 . S
C2677 C2674 1.383 . S
C2677 C2675 1.365 . S
C2677 H2686 0.931 . S
C2678 C2673 1.370 . S
C2678 C2674 1.395 . S
C2678 H2687 0.930 . S
C2679 Gd2615 2.805 . S
C2679 O2655 1.263 . S
C2679 O2656 1.252 . S
C2679 C2673 1.500 . S
H2680 C2663 0.929 . S
H2681 C2664 0.930 . S
H2682 C2665 0.931 . S
H2683 C2666 0.930 . S
H2684 C2675 0.929 . S
H2685 C2676 0.930 . S
H2686 C2677 0.931 . S
H2687 C2678 0.930 . S
C2688 C2690 1.422 . S
C2688 C2692 1.415 . S
C2688 N2694 1.369 . S
C2689 C2690 1.421 . S
C2689 C2691 1.417 . S
C2689 C2701 1.422 . S
C2690 C2688 1.422 . S
C2690 C2689 1.421 . S
C2690 N2700 1.359 . S
C2691 C2689 1.417 . S
C2691 C2693 1.329 . S
C2691 H2710 0.930 . S
C2692 C2688 1.415 . S
C2692 C2693 1.437 . S
C2692 C2696 1.413 . S
C2693 C2691 1.329 . S
C2693 C2692 1.437 . S
C2693 H2715 0.929 . S
N2694 C2688 1.369 . S
N2694 C2695 1.338 . S
N2694 Gd2699 2.622 . S
C2695 N2694 1.338 . S
C2695 C2697 1.378 . S
C2695 H2707 0.929 . S
C2696 C2692 1.413 . S
C2696 C2697 1.348 . S
C2696 H2712 0.931 . S
C2697 C2695 1.378 . S
C2697 C2696 1.348 . S
C2697 H2713 0.930 . S
Gd2698 N2718 2.622 . S
Gd2698 N2725 2.570 . S
Gd2698 O2732 2.353 . S
Gd2698 O2733 2.468 . S
Gd2698 O2734 2.427 . S
Gd2698 O2736 2.388 . S
Gd2698 O2737 2.386 . S
Gd2698 O2741 2.307 . S
Gd2698 C2751 2.805 . S
Gd2699 N2694 2.622 . S
Gd2699 N2700 2.570 . S
Gd2699 O2731 2.386 . S
Gd2699 O2735 2.307 . S
Gd2699 O2738 2.353 . S
Gd2699 O2739 2.468 . S
Gd2699 O2740 2.427 . S
Gd2699 O2742 2.388 . S
Gd2699 C2763 2.805 . S
N2700 C2690 1.359 . S
N2700 Gd2699 2.570 . S
N2700 C2702 1.343 . S
C2701 C2689 1.422 . S
C2701 C2703 1.321 . S
C2701 H2709 0.931 . S
C2702 N2700 1.343 . S
C2702 C2703 1.390 . S
C2702 H2704 0.931 . S
C2703 C2701 1.321 . S
C2703 C2702 1.390 . S
C2703 H2705 0.930 . S
H2704 C2702 0.931 . S
H2705 C2703 0.930 . S
H2706 C2729 0.931 . S
H2707 C2695 0.929 . S
H2708 C2730 0.930 . S
H2709 C2701 0.931 . S
H2710 C2691 0.930 . S
H2711 C2720 0.929 . S
H2712 C2696 0.931 . S
H2713 C2697 0.930 . S
H2714 C2752 0.930 . S
H2715 C2693 0.929 . S
H2716 C2721 0.931 . S
H2717 C2722 0.930 . S
N2718 Gd2698 2.622 . S
N2718 C2719 1.369 . S
N2718 C2720 1.338 . S
C2719 N2718 1.369 . S
C2719 C2723 1.415 . S
C2719 C2726 1.422 . S
C2720 H2711 0.929 . S
C2720 N2718 1.338 . S
C2720 C2722 1.378 . S
C2721 H2716 0.931 . S
C2721 C2722 1.348 . S
C2721 C2723 1.413 . S
C2722 H2717 0.930 . S
C2722 C2720 1.378 . S
C2722 C2721 1.348 . S
C2723 C2719 1.415 . S
C2723 C2721 1.413 . S
C2723 C2753 1.437 . S
H2724 C2753 0.929 . S
N2725 Gd2698 2.570 . S
N2725 C2726 1.359 . S
N2725 C2729 1.343 . S
C2726 C2719 1.422 . S
C2726 N2725 1.359 . S
C2726 C2728 1.421 . S
C2727 C2728 1.422 . S
C2727 C2730 1.321 . S
C2727 H2754 0.931 . S
C2728 C2726 1.421 . S
C2728 C2727 1.422 . S
C2728 C2752 1.417 . S
C2729 H2706 0.931 . S
C2729 N2725 1.343 . S
C2729 C2730 1.390 . S
C2730 H2708 0.930 . S
C2730 C2727 1.321 . S
C2730 C2729 1.390 . S
O2731 Gd2699 2.386 . S
O2731 C2743 1.265 . S
O2732 Gd2698 2.353 . S
O2732 C2743 1.242 . S
O2733 Gd2698 2.468 . S
O2733 C2751 1.263 . S
O2734 Gd2698 2.427 . S
O2734 C2751 1.252 . S
O2735 Gd2699 2.307 . S
O2735 C2744 1.261 . S
O2736 Gd2698 2.388 . S
O2736 C2744 1.252 . S
O2737 Gd2698 2.386 . S
O2737 C2755 1.265 . S
O2738 Gd2699 2.353 . S
O2738 C2755 1.242 . S
O2739 Gd2699 2.468 . S
O2739 C2763 1.263 . S
O2740 Gd2699 2.427 . S
O2740 C2763 1.252 . S
O2741 Gd2698 2.307 . S
O2741 C2756 1.261 . S
O2742 Gd2699 2.388 . S
O2742 C2756 1.252 . S
C2743 O2731 1.265 . S
C2743 O2732 1.242 . S
C2744 O2735 1.261 . S
C2744 O2736 1.252 . S
C2745 C2748 1.394 . S
C2745 C2750 1.370 . S
C2745 C2751 1.500 . S
C2746 C2749 1.383 . S
C2746 C2750 1.395 . S
C2747 C2748 1.396 . S
C2747 C2749 1.365 . S
C2747 H2764 0.929 . S
C2748 C2745 1.394 . S
C2748 C2747 1.396 . S
C2748 H2765 0.930 . S
C2749 C2746 1.383 . S
C2749 C2747 1.365 . S
C2749 H2766 0.931 . S
C2750 C2745 1.370 . S
C2750 C2746 1.395 . S
C2750 H2767 0.930 . S
C2751 Gd2698 2.805 . S
C2751 O2733 1.263 . S
C2751 O2734 1.252 . S
C2751 C2745 1.500 . S
C2752 H2714 0.930 . S
C2752 C2728 1.417 . S
C2752 C2753 1.329 . S
C2753 C2723 1.437 . S
C2753 H2724 0.929 . S
C2753 C2752 1.329 . S
H2754 C2727 0.931 . S
C2755 O2737 1.265 . S
C2755 O2738 1.242 . S
C2756 O2741 1.261 . S
C2756 O2742 1.252 . S
C2757 C2760 1.394 . S
C2757 C2762 1.370 . S
C2757 C2763 1.500 . S
C2758 C2761 1.383 . S
C2758 C2762 1.395 . S
C2759 C2760 1.396 . S
C2759 C2761 1.365 . S
C2759 H2768 0.929 . S
C2760 C2757 1.394 . S
C2760 C2759 1.396 . S
C2760 H2769 0.930 . S
C2761 C2758 1.383 . S
C2761 C2759 1.365 . S
C2761 H2770 0.931 . S
C2762 C2757 1.370 . S
C2762 C2758 1.395 . S
C2762 H2771 0.930 . S
C2763 Gd2699 2.805 . S
C2763 O2739 1.263 . S
C2763 O2740 1.252 . S
C2763 C2757 1.500 . S
H2764 C2747 0.929 . S
H2765 C2748 0.930 . S
H2766 C2749 0.931 . S
H2767 C2750 0.930 . S
H2768 C2759 0.929 . S
H2769 C2760 0.930 . S
H2770 C2761 0.931 . S
H2771 C2762 0.930 . S
C2772 C2774 1.422 . S
C2772 C2776 1.415 . S
C2772 N2778 1.369 . S
C2773 C2774 1.421 . S
C2773 C2775 1.417 . S
C2773 C2785 1.422 . S
C2774 C2772 1.422 . S
C2774 C2773 1.421 . S
C2774 N2784 1.359 . S
C2775 C2773 1.417 . S
C2775 C2777 1.329 . S
C2775 H2794 0.930 . S
C2776 C2772 1.415 . S
C2776 C2777 1.437 . S
C2776 C2780 1.413 . S
C2777 C2775 1.329 . S
C2777 C2776 1.437 . S
C2777 H2799 0.929 . S
N2778 C2772 1.369 . S
N2778 C2779 1.338 . S
N2778 Gd2783 2.622 . S
C2779 N2778 1.338 . S
C2779 C2781 1.378 . S
C2779 H2791 0.929 . S
C2780 C2776 1.413 . S
C2780 C2781 1.348 . S
C2780 H2796 0.931 . S
C2781 C2779 1.378 . S
C2781 C2780 1.348 . S
C2781 H2797 0.930 . S
Gd2782 N2802 2.622 . S
Gd2782 N2809 2.570 1_554 S
Gd2782 O2816 2.353 . S
Gd2782 O2817 2.468 . S
Gd2782 O2818 2.427 . S
Gd2782 O2820 2.388 . S
Gd2782 O2821 2.386 1_554 S
Gd2782 O2825 2.307 1_554 S
Gd2782 C2835 2.805 . S
Gd2783 N2778 2.622 . S
Gd2783 N2784 2.570 . S
Gd2783 O2815 2.386 . S
Gd2783 O2819 2.307 . S
Gd2783 O2822 2.353 . S
Gd2783 O2823 2.468 . S
Gd2783 O2824 2.427 . S
Gd2783 O2826 2.388 . S
Gd2783 C2847 2.805 . S
N2784 C2774 1.359 . S
N2784 Gd2783 2.570 . S
N2784 C2786 1.343 . S
C2785 C2773 1.422 . S
C2785 C2787 1.321 . S
C2785 H2793 0.931 . S
C2786 N2784 1.343 . S
C2786 C2787 1.390 . S
C2786 H2788 0.931 . S
C2787 C2785 1.321 . S
C2787 C2786 1.390 . S
C2787 H2789 0.943 . S
H2788 C2786 0.931 . S
H2789 C2787 0.943 . S
H2790 C2813 0.931 . S
H2791 C2779 0.929 . S
H2792 C2814 0.930 . S
H2793 C2785 0.931 . S
H2794 C2775 0.930 . S
H2795 C2804 0.929 . S
H2796 C2780 0.931 . S
H2797 C2781 0.930 . S
H2798 C2836 0.943 . S
H2799 C2777 0.929 . S
H2800 C2805 0.892 1_655 S
H2801 C2806 0.930 . S
N2802 Gd2782 2.622 . S
N2802 C2803 1.369 . S
N2802 C2804 1.338 . S
C2803 N2802 1.369 . S
C2803 C2807 1.415 . S
C2803 C2810 1.422 . S
C2804 H2795 0.929 . S
C2804 N2802 1.338 . S
C2804 C2806 1.378 . S
C2805 H2800 0.892 1_455 S
C2805 C2806 1.348 . S
C2805 C2807 1.413 . S
C2806 H2801 0.930 . S
C2806 C2804 1.378 . S
C2806 C2805 1.348 . S
C2807 C2803 1.415 . S
C2807 C2805 1.413 . S
C2807 C2837 1.437 . S
H2808 C2837 0.929 . S
N2809 Gd2782 2.570 1_556 S
N2809 C2810 1.359 1_556 S
N2809 C2813 1.343 . S
C2810 C2803 1.422 . S
C2810 N2809 1.359 1_554 S
C2810 C2812 1.421 1_554 S
C2811 C2812 1.422 . S
C2811 C2814 1.321 . S
C2811 H2838 0.931 . S
C2812 C2810 1.421 1_556 S
C2812 C2811 1.422 . S
C2812 C2836 1.426 . S
C2813 H2790 0.931 . S
C2813 N2809 1.343 . S
C2813 C2814 1.390 . S
C2814 H2792 0.930 . S
C2814 C2811 1.321 . S
C2814 C2813 1.390 . S
O2815 Gd2783 2.386 . S
O2815 C2827 1.265 1_556 S
O2816 Gd2782 2.353 . S
O2816 C2827 1.242 . S
O2817 Gd2782 2.468 . S
O2817 C2835 1.263 . S
O2818 Gd2782 2.427 . S
O2818 C2835 1.252 . S
O2819 Gd2783 2.307 . S
O2819 C2828 1.261 1_556 S
O2820 Gd2782 2.388 . S
O2820 C2828 1.252 . S
O2821 Gd2782 2.386 1_556 S
O2821 C2839 1.265 . S
O2822 Gd2783 2.353 . S
O2822 C2839 1.242 . S
O2823 Gd2783 2.468 . S
O2823 C2847 1.263 . S
O2824 Gd2783 2.427 . S
O2824 C2847 1.252 . S
O2825 Gd2782 2.307 1_556 S
O2825 C2840 1.261 . S
O2826 Gd2783 2.388 . S
O2826 C2840 1.252 . S
C2827 O2815 1.265 1_554 S
C2827 O2816 1.242 . S
C2828 O2819 1.261 1_554 S
C2828 O2820 1.252 . S
C2829 C2832 1.394 . S
C2829 C2834 1.370 . S
C2829 C2835 1.500 . S
C2830 C2833 1.383 . S
C2830 C2834 1.395 . S
C2831 C2832 1.396 . S
C2831 C2833 1.365 . S
C2831 H2848 0.929 . S
C2832 C2829 1.394 . S
C2832 C2831 1.396 . S
C2832 H2849 0.930 . S
C2833 C2830 1.383 . S
C2833 C2831 1.365 . S
C2833 H2850 0.931 . S
C2834 C2829 1.370 . S
C2834 C2830 1.395 . S
C2834 H2851 0.930 . S
C2835 Gd2782 2.805 . S
C2835 O2817 1.263 . S
C2835 O2818 1.252 . S
C2835 C2829 1.500 . S
C2836 H2798 0.943 . S
C2836 C2812 1.426 . S
C2836 C2837 1.309 1_556 S
C2837 C2807 1.437 . S
C2837 H2808 0.929 . S
C2837 C2836 1.309 1_554 S
H2838 C2811 0.931 . S
C2839 O2821 1.265 . S
C2839 O2822 1.242 . S
C2840 O2825 1.261 . S
C2840 O2826 1.252 . S
C2841 C2844 1.394 . S
C2841 C2846 1.370 . S
C2841 C2847 1.500 . S
C2842 C2845 1.383 . S
C2842 C2846 1.395 . S
C2843 C2844 1.396 . S
C2843 C2845 1.365 . S
C2843 H2852 0.929 . S
C2844 C2841 1.394 . S
C2844 C2843 1.396 . S
C2844 H2853 0.930 . S
C2845 C2842 1.383 . S
C2845 C2843 1.365 . S
C2845 H2854 0.931 . S
C2846 C2841 1.370 . S
C2846 C2842 1.395 . S
C2846 H2855 0.930 . S
C2847 Gd2783 2.805 . S
C2847 O2823 1.263 . S
C2847 O2824 1.252 . S
C2847 C2841 1.500 . S
H2848 C2831 0.929 . S
H2849 C2832 0.930 . S
H2850 C2833 0.931 . S
H2851 C2834 0.930 . S
H2852 C2843 0.929 . S
H2853 C2844 0.930 . S
H2854 C2845 0.931 . S
H2855 C2846 0.930 . S
C2856 C2858 1.422 . S
C2856 C2860 1.415 . S
C2856 N2862 1.369 . S
C2857 C2858 1.421 . S
C2857 C2859 1.417 . S
C2857 C2869 1.422 . S
C2858 C2856 1.422 . S
C2858 C2857 1.421 . S
C2858 N2868 1.359 . S
C2859 C2857 1.417 . S
C2859 C2861 1.329 . S
C2859 H2878 0.930 . S
C2860 C2856 1.415 . S
C2860 C2861 1.437 . S
C2860 C2864 1.413 . S
C2861 C2859 1.329 . S
C2861 C2860 1.437 . S
C2861 H2883 0.929 . S
N2862 C2856 1.369 . S
N2862 C2863 1.338 . S
N2862 Gd2867 2.622 . S
C2863 N2862 1.338 . S
C2863 C2865 1.378 . S
C2863 H2875 0.929 . S
C2864 C2860 1.413 . S
C2864 C2865 1.348 . S
C2864 H2880 0.931 . S
C2865 C2863 1.378 . S
C2865 C2864 1.348 . S
C2865 H2881 0.930 . S
Gd2866 N2886 2.622 . S
Gd2866 N2893 2.570 . S
Gd2866 O2900 2.353 . S
Gd2866 O2901 2.468 . S
Gd2866 O2902 2.427 . S
Gd2866 O2904 2.388 . S
Gd2866 O2905 2.386 . S
Gd2866 O2909 2.307 . S
Gd2866 C2919 2.805 . S
Gd2867 N2862 2.622 . S
Gd2867 N2868 2.570 . S
Gd2867 O2899 2.386 . S
Gd2867 O2903 2.307 . S
Gd2867 O2906 2.353 . S
Gd2867 O2907 2.468 . S
Gd2867 O2908 2.427 . S
Gd2867 O2910 2.388 . S
Gd2867 C2931 2.805 . S
N2868 C2858 1.359 . S
N2868 Gd2867 2.570 . S
N2868 C2870 1.343 . S
C2869 C2857 1.422 . S
C2869 C2871 1.321 . S
C2869 H2877 0.931 . S
C2870 N2868 1.343 . S
C2870 C2871 1.390 . S
C2870 H2872 0.931 . S
C2871 C2869 1.321 . S
C2871 C2870 1.390 . S
C2871 H2873 0.930 . S
H2872 C2870 0.931 . S
H2873 C2871 0.930 . S
H2874 C2897 0.931 . S
H2875 C2863 0.929 . S
H2876 C2898 0.930 . S
H2877 C2869 0.931 . S
H2878 C2859 0.930 . S
H2879 C2888 0.929 . S
H2880 C2864 0.931 . S
H2881 C2865 0.930 . S
H2882 C2920 0.930 . S
H2883 C2861 0.929 . S
H2884 C2889 0.931 . S
H2885 C2890 0.930 . S
N2886 Gd2866 2.622 . S
N2886 C2887 1.369 . S
N2886 C2888 1.338 . S
C2887 N2886 1.369 . S
C2887 C2891 1.415 . S
C2887 C2894 1.422 . S
C2888 H2879 0.929 . S
C2888 N2886 1.338 . S
C2888 C2890 1.378 . S
C2889 H2884 0.931 . S
C2889 C2890 1.348 . S
C2889 C2891 1.413 . S
C2890 H2885 0.930 . S
C2890 C2888 1.378 . S
C2890 C2889 1.348 . S
C2891 C2887 1.415 . S
C2891 C2889 1.413 . S
C2891 C2921 1.437 . S
H2892 C2921 0.929 . S
N2893 Gd2866 2.570 . S
N2893 C2894 1.359 . S
N2893 C2897 1.343 . S
C2894 C2887 1.422 . S
C2894 N2893 1.359 . S
C2894 C2896 1.421 . S
C2895 C2896 1.422 . S
C2895 C2898 1.321 . S
C2895 H2922 0.931 . S
C2896 C2894 1.421 . S
C2896 C2895 1.422 . S
C2896 C2920 1.417 . S
C2897 H2874 0.931 . S
C2897 N2893 1.343 . S
C2897 C2898 1.390 . S
C2898 H2876 0.930 . S
C2898 C2895 1.321 . S
C2898 C2897 1.390 . S
O2899 Gd2867 2.386 . S
O2899 C2911 1.265 . S
O2900 Gd2866 2.353 . S
O2900 C2911 1.242 . S
O2901 Gd2866 2.468 . S
O2901 C2919 1.263 . S
O2902 Gd2866 2.427 . S
O2902 C2919 1.252 . S
O2903 Gd2867 2.307 . S
O2903 C2912 1.261 . S
O2904 Gd2866 2.388 . S
O2904 C2912 1.252 . S
O2905 Gd2866 2.386 . S
O2905 C2923 1.265 . S
O2906 Gd2867 2.353 . S
O2906 C2923 1.242 . S
O2907 Gd2867 2.468 . S
O2907 C2931 1.263 . S
O2908 Gd2867 2.427 . S
O2908 C2931 1.252 . S
O2909 Gd2866 2.307 . S
O2909 C2924 1.261 . S
O2910 Gd2867 2.388 . S
O2910 C2924 1.252 . S
C2911 O2899 1.265 . S
C2911 O2900 1.242 . S
C2912 O2903 1.261 . S
C2912 O2904 1.252 . S
C2913 C2916 1.394 . S
C2913 C2918 1.370 . S
C2913 C2919 1.500 . S
C2914 C2917 1.383 . S
C2914 C2918 1.395 . S
C2915 C2916 1.396 . S
C2915 C2917 1.365 . S
C2915 H2932 0.929 . S
C2916 C2913 1.394 . S
C2916 C2915 1.396 . S
C2916 H2933 0.930 . S
C2917 C2914 1.383 . S
C2917 C2915 1.365 . S
C2917 H2934 0.931 . S
C2918 C2913 1.370 . S
C2918 C2914 1.395 . S
C2918 H2935 0.930 . S
C2919 Gd2866 2.805 . S
C2919 O2901 1.263 . S
C2919 O2902 1.252 . S
C2919 C2913 1.500 . S
C2920 H2882 0.930 . S
C2920 C2896 1.417 . S
C2920 C2921 1.329 . S
C2921 C2891 1.437 . S
C2921 H2892 0.929 . S
C2921 C2920 1.329 . S
H2922 C2895 0.931 . S
C2923 O2905 1.265 . S
C2923 O2906 1.242 . S
C2924 O2909 1.261 . S
C2924 O2910 1.252 . S
C2925 C2928 1.394 . S
C2925 C2930 1.370 . S
C2925 C2931 1.500 . S
C2926 C2929 1.383 . S
C2926 C2930 1.395 . S
C2927 C2928 1.396 . S
C2927 C2929 1.365 . S
C2927 H2936 0.929 . S
C2928 C2925 1.394 . S
C2928 C2927 1.396 . S
C2928 H2937 0.930 . S
C2929 C2926 1.383 . S
C2929 C2927 1.365 . S
C2929 H2938 0.931 . S
C2930 C2925 1.370 . S
C2930 C2926 1.395 . S
C2930 H2939 0.930 . S
C2931 Gd2867 2.805 . S
C2931 O2907 1.263 . S
C2931 O2908 1.252 . S
C2931 C2925 1.500 . S
H2932 C2915 0.929 . S
H2933 C2916 0.930 . S
H2934 C2917 0.931 . S
H2935 C2918 0.930 . S
H2936 C2927 0.929 . S
H2937 C2928 0.930 . S
H2938 C2929 0.931 . S
H2939 C2930 0.930 . S
C2940 C2942 1.422 . S
C2940 C2944 1.415 . S
C2940 N2946 1.369 . S
C2941 C2942 1.421 . S
C2941 C2943 1.417 . S
C2941 C2953 1.422 . S
C2942 C2940 1.422 . S
C2942 C2941 1.421 . S
C2942 N2952 1.359 . S
C2943 C2941 1.417 . S
C2943 C2945 1.329 . S
C2943 H2962 0.930 . S
C2944 C2940 1.415 . S
C2944 C2945 1.437 . S
C2944 C2948 1.413 . S
C2945 C2943 1.329 . S
C2945 C2944 1.437 . S
C2945 H2967 0.929 . S
N2946 C2940 1.369 . S
N2946 C2947 1.338 . S
N2946 Gd2951 2.622 . S
C2947 N2946 1.338 . S
C2947 C2949 1.378 . S
C2947 H2959 0.929 . S
C2948 C2944 1.413 . S
C2948 C2949 1.348 . S
C2948 H2964 0.931 . S
C2949 C2947 1.378 . S
C2949 C2948 1.348 . S
C2949 H2965 0.930 . S
Gd2950 N2970 2.622 . S
Gd2950 N2977 2.570 . S
Gd2950 O2984 2.353 . S
Gd2950 O2985 2.468 . S
Gd2950 O2986 2.427 . S
Gd2950 O2988 2.388 . S
Gd2950 O2989 2.386 . S
Gd2950 O2993 2.307 . S
Gd2950 C3003 2.805 . S
Gd2951 N2946 2.622 . S
Gd2951 N2952 2.570 . S
Gd2951 O2983 2.386 . S
Gd2951 O2987 2.307 . S
Gd2951 O2990 2.353 . S
Gd2951 O2991 2.468 . S
Gd2951 O2992 2.427 . S
Gd2951 O2994 2.388 . S
Gd2951 C3015 2.805 . S
N2952 C2942 1.359 . S
N2952 Gd2951 2.570 . S
N2952 C2954 1.343 . S
C2953 C2941 1.422 . S
C2953 C2955 1.321 . S
C2953 H2961 0.931 . S
C2954 N2952 1.343 . S
C2954 C2955 1.390 . S
C2954 H2956 0.931 . S
C2955 C2953 1.321 . S
C2955 C2954 1.390 . S
C2955 H2957 0.930 . S
H2956 C2954 0.931 . S
H2957 C2955 0.930 . S
H2958 C2981 0.931 . S
H2959 C2947 0.929 . S
H2960 C2982 0.930 . S
H2961 C2953 0.931 . S
H2962 C2943 0.930 . S
H2963 C2972 0.929 . S
H2964 C2948 0.931 . S
H2965 C2949 0.930 . S
H2966 C3004 0.930 . S
H2967 C2945 0.929 . S
H2968 C2973 0.931 . S
H2969 C2974 0.930 . S
N2970 Gd2950 2.622 . S
N2970 C2971 1.369 . S
N2970 C2972 1.338 . S
C2971 N2970 1.369 . S
C2971 C2975 1.415 . S
C2971 C2978 1.422 . S
C2972 H2963 0.929 . S
C2972 N2970 1.338 . S
C2972 C2974 1.378 . S
C2973 H2968 0.931 . S
C2973 C2974 1.348 . S
C2973 C2975 1.413 . S
C2974 H2969 0.930 . S
C2974 C2972 1.378 . S
C2974 C2973 1.348 . S
C2975 C2971 1.415 . S
C2975 C2973 1.413 . S
C2975 C3005 1.437 . S
H2976 C3005 0.929 . S
N2977 Gd2950 2.570 . S
N2977 C2978 1.359 . S
N2977 C2981 1.343 . S
C2978 C2971 1.422 . S
C2978 N2977 1.359 . S
C2978 C2980 1.421 . S
C2979 C2980 1.422 . S
C2979 C2982 1.321 . S
C2979 H3006 0.931 . S
C2980 C2978 1.421 . S
C2980 C2979 1.422 . S
C2980 C3004 1.417 . S
C2981 H2958 0.931 . S
C2981 N2977 1.343 . S
C2981 C2982 1.390 . S
C2982 H2960 0.930 . S
C2982 C2979 1.321 . S
C2982 C2981 1.390 . S
O2983 Gd2951 2.386 . S
O2983 C2995 1.265 . S
O2984 Gd2950 2.353 . S
O2984 C2995 1.242 . S
O2985 Gd2950 2.468 . S
O2985 C3003 1.263 . S
O2986 Gd2950 2.427 . S
O2986 C3003 1.252 . S
O2987 Gd2951 2.307 . S
O2987 C2996 1.261 . S
O2988 Gd2950 2.388 . S
O2988 C2996 1.252 . S
O2989 Gd2950 2.386 . S
O2989 C3007 1.265 . S
O2990 Gd2951 2.353 . S
O2990 C3007 1.242 . S
O2991 Gd2951 2.468 . S
O2991 C3015 1.263 . S
O2992 Gd2951 2.427 . S
O2992 C3015 1.252 . S
O2993 Gd2950 2.307 . S
O2993 C3008 1.261 . S
O2994 Gd2951 2.388 . S
O2994 C3008 1.252 . S
C2995 O2983 1.265 . S
C2995 O2984 1.242 . S
C2996 O2987 1.261 . S
C2996 O2988 1.252 . S
C2997 C3000 1.394 . S
C2997 C3002 1.370 . S
C2997 C3003 1.500 . S
C2998 C3001 1.383 . S
C2998 C3002 1.395 . S
C2999 C3000 1.396 . S
C2999 C3001 1.365 . S
C2999 H3016 0.929 . S
C3000 C2997 1.394 . S
C3000 C2999 1.396 . S
C3000 H3017 0.930 . S
C3001 C2998 1.383 . S
C3001 C2999 1.365 . S
C3001 H3018 0.931 . S
C3002 C2997 1.370 . S
C3002 C2998 1.395 . S
C3002 H3019 0.930 . S
C3003 Gd2950 2.805 . S
C3003 O2985 1.263 . S
C3003 O2986 1.252 . S
C3003 C2997 1.500 . S
C3004 H2966 0.930 . S
C3004 C2980 1.417 . S
C3004 C3005 1.329 . S
C3005 C2975 1.437 . S
C3005 H2976 0.929 . S
C3005 C3004 1.329 . S
H3006 C2979 0.931 . S
C3007 O2989 1.265 . S
C3007 O2990 1.242 . S
C3008 O2993 1.261 . S
C3008 O2994 1.252 . S
C3009 C3012 1.394 . S
C3009 C3014 1.370 . S
C3009 C3015 1.500 . S
C3010 C3013 1.383 . S
C3010 C3014 1.395 . S
C3011 C3012 1.396 . S
C3011 C3013 1.365 . S
C3011 H3020 0.929 . S
C3012 C3009 1.394 . S
C3012 C3011 1.396 . S
C3012 H3021 0.930 . S
C3013 C3010 1.383 . S
C3013 C3011 1.365 . S
C3013 H3022 0.931 . S
C3014 C3009 1.370 . S
C3014 C3010 1.395 . S
C3014 H3023 0.930 . S
C3015 Gd2951 2.805 . S
C3015 O2991 1.263 . S
C3015 O2992 1.252 . S
C3015 C3009 1.500 . S
H3016 C2999 0.929 . S
H3017 C3000 0.930 . S
H3018 C3001 0.931 . S
H3019 C3002 0.930 . S
H3020 C3011 0.929 . S
H3021 C3012 0.930 . S
H3022 C3013 0.931 . S
H3023 C3014 0.930 . S
C3024 C3026 1.422 . S
C3024 C3028 1.415 . S
C3024 N3030 1.369 . S
C3025 C3026 1.421 . S
C3025 C3027 1.417 . S
C3025 C3037 1.422 . S
C3026 C3024 1.422 . S
C3026 C3025 1.421 . S
C3026 N3036 1.359 . S
C3027 C3025 1.417 . S
C3027 C3029 1.329 . S
C3027 H3046 0.930 . S
C3028 C3024 1.415 . S
C3028 C3029 1.437 . S
C3028 C3032 1.413 . S
C3029 C3027 1.329 . S
C3029 C3028 1.437 . S
C3029 H3051 0.929 . S
N3030 C3024 1.369 . S
N3030 C3031 1.338 . S
N3030 Gd3035 2.622 . S
C3031 N3030 1.338 . S
C3031 C3033 1.378 . S
C3031 H3043 0.929 . S
C3032 C3028 1.413 . S
C3032 C3033 1.348 . S
C3032 H3048 0.931 . S
C3033 C3031 1.378 . S
C3033 C3032 1.348 . S
C3033 H3049 0.930 . S
Gd3034 N3054 2.622 . S
Gd3034 N3061 2.570 . S
Gd3034 O3068 2.353 . S
Gd3034 O3069 2.468 . S
Gd3034 O3070 2.427 . S
Gd3034 O3072 2.388 . S
Gd3034 O3073 2.386 . S
Gd3034 O3077 2.307 . S
Gd3034 C3087 2.805 . S
Gd3035 N3030 2.622 . S
Gd3035 N3036 2.570 . S
Gd3035 O3067 2.386 . S
Gd3035 O3071 2.307 . S
Gd3035 O3074 2.353 . S
Gd3035 O3075 2.468 . S
Gd3035 O3076 2.427 . S
Gd3035 O3078 2.388 . S
Gd3035 C3099 2.805 . S
N3036 C3026 1.359 . S
N3036 Gd3035 2.570 . S
N3036 C3038 1.343 . S
C3037 C3025 1.422 . S
C3037 C3039 1.321 . S
C3037 H3045 0.931 . S
C3038 N3036 1.343 . S
C3038 C3039 1.390 . S
C3038 H3040 0.931 . S
C3039 C3037 1.321 . S
C3039 C3038 1.390 . S
C3039 H3041 0.930 . S
H3040 C3038 0.931 . S
H3041 C3039 0.930 . S
H3042 C3065 0.931 . S
H3043 C3031 0.929 . S
H3044 C3066 0.930 . S
H3045 C3037 0.931 . S
H3046 C3027 0.930 . S
H3047 C3056 0.929 . S
H3048 C3032 0.931 . S
H3049 C3033 0.930 . S
H3050 C3088 0.930 . S
H3051 C3029 0.929 . S
H3052 C3057 0.931 . S
H3053 C3058 0.930 . S
N3054 Gd3034 2.622 . S
N3054 C3055 1.369 . S
N3054 C3056 1.338 . S
C3055 N3054 1.369 . S
C3055 C3059 1.415 . S
C3055 C3062 1.422 . S
C3056 H3047 0.929 . S
C3056 N3054 1.338 . S
C3056 C3058 1.378 . S
C3057 H3052 0.931 . S
C3057 C3058 1.348 . S
C3057 C3059 1.413 . S
C3058 H3053 0.930 . S
C3058 C3056 1.378 . S
C3058 C3057 1.348 . S
C3059 C3055 1.415 . S
C3059 C3057 1.413 . S
C3059 C3089 1.437 . S
H3060 C3089 0.929 . S
N3061 Gd3034 2.570 . S
N3061 C3062 1.359 . S
N3061 C3065 1.343 . S
C3062 C3055 1.422 . S
C3062 N3061 1.359 . S
C3062 C3064 1.421 . S
C3063 C3064 1.422 . S
C3063 C3066 1.321 . S
C3063 H3090 0.931 . S
C3064 C3062 1.421 . S
C3064 C3063 1.422 . S
C3064 C3088 1.417 . S
C3065 H3042 0.931 . S
C3065 N3061 1.343 . S
C3065 C3066 1.390 . S
C3066 H3044 0.930 . S
C3066 C3063 1.321 . S
C3066 C3065 1.390 . S
O3067 Gd3035 2.386 . S
O3067 C3079 1.265 . S
O3068 Gd3034 2.353 . S
O3068 C3079 1.242 . S
O3069 Gd3034 2.468 . S
O3069 C3087 1.263 . S
O3070 Gd3034 2.427 . S
O3070 C3087 1.252 . S
O3071 Gd3035 2.307 . S
O3071 C3080 1.261 . S
O3072 Gd3034 2.388 . S
O3072 C3080 1.252 . S
O3073 Gd3034 2.386 . S
O3073 C3091 1.265 . S
O3074 Gd3035 2.353 . S
O3074 C3091 1.242 . S
O3075 Gd3035 2.468 . S
O3075 C3099 1.263 . S
O3076 Gd3035 2.427 . S
O3076 C3099 1.252 . S
O3077 Gd3034 2.307 . S
O3077 C3092 1.261 . S
O3078 Gd3035 2.388 . S
O3078 C3092 1.252 . S
C3079 O3067 1.265 . S
C3079 O3068 1.242 . S
C3080 O3071 1.261 . S
C3080 O3072 1.252 . S
C3081 C3084 1.394 . S
C3081 C3086 1.370 . S
C3081 C3087 1.500 . S
C3082 C3085 1.383 . S
C3082 C3086 1.395 . S
C3083 C3084 1.396 . S
C3083 C3085 1.365 . S
C3083 H3100 0.929 . S
C3084 C3081 1.394 . S
C3084 C3083 1.396 . S
C3084 H3101 0.930 . S
C3085 C3082 1.383 . S
C3085 C3083 1.365 . S
C3085 H3102 0.931 . S
C3086 C3081 1.370 . S
C3086 C3082 1.395 . S
C3086 H3103 0.930 . S
C3087 Gd3034 2.805 . S
C3087 O3069 1.263 . S
C3087 O3070 1.252 . S
C3087 C3081 1.500 . S
C3088 H3050 0.930 . S
C3088 C3064 1.417 . S
C3088 C3089 1.329 . S
C3089 C3059 1.437 . S
C3089 H3060 0.929 . S
C3089 C3088 1.329 . S
H3090 C3063 0.931 . S
C3091 O3073 1.265 . S
C3091 O3074 1.242 . S
C3092 O3077 1.261 . S
C3092 O3078 1.252 . S
C3093 C3096 1.394 . S
C3093 C3098 1.370 . S
C3093 C3099 1.500 . S
C3094 C3097 1.383 . S
C3094 C3098 1.395 . S
C3095 C3096 1.396 . S
C3095 C3097 1.365 . S
C3095 H3104 0.929 . S
C3096 C3093 1.394 . S
C3096 C3095 1.396 . S
C3096 H3105 0.930 . S
C3097 C3094 1.383 . S
C3097 C3095 1.365 . S
C3097 H3106 0.931 . S
C3098 C3093 1.370 . S
C3098 C3094 1.395 . S
C3098 H3107 0.930 . S
C3099 Gd3035 2.805 . S
C3099 O3075 1.263 . S
C3099 O3076 1.252 . S
C3099 C3093 1.500 . S
H3100 C3083 0.929 . S
H3101 C3084 0.930 . S
H3102 C3085 0.931 . S
H3103 C3086 0.930 . S
H3104 C3095 0.929 . S
H3105 C3096 0.930 . S
H3106 C3097 0.931 . S
H3107 C3098 0.930 . S
C3108 C3110 1.422 . S
C3108 C3112 1.415 . S
C3108 N3114 1.369 . S
C3109 C3110 1.421 . S
C3109 C3111 1.417 . S
C3109 C3121 1.422 . S
C3110 C3108 1.422 . S
C3110 C3109 1.421 . S
C3110 N3120 1.359 . S
C3111 C3109 1.417 . S
C3111 C3113 1.329 . S
C3111 H3130 0.930 . S
C3112 C3108 1.415 . S
C3112 C3113 1.437 . S
C3112 C3116 1.413 . S
C3113 C3111 1.329 . S
C3113 C3112 1.437 . S
C3113 H3135 0.929 . S
N3114 C3108 1.369 . S
N3114 C3115 1.338 . S
N3114 Gd3119 2.622 . S
C3115 N3114 1.338 . S
C3115 C3117 1.378 . S
C3115 H3127 0.929 . S
C3116 C3112 1.413 . S
C3116 C3117 1.348 . S
C3116 H3132 0.931 . S
C3117 C3115 1.378 . S
C3117 C3116 1.348 . S
C3117 H3133 0.930 . S
Gd3118 N3138 2.622 . S
Gd3118 N3145 2.570 . S
Gd3118 O3152 2.353 . S
Gd3118 O3153 2.468 . S
Gd3118 O3154 2.427 . S
Gd3118 O3156 2.388 . S
Gd3118 O3157 2.386 . S
Gd3118 O3161 2.307 . S
Gd3118 C3171 2.805 . S
Gd3119 N3114 2.622 . S
Gd3119 N3120 2.570 . S
Gd3119 O3151 2.386 . S
Gd3119 O3155 2.307 . S
Gd3119 O3158 2.353 . S
Gd3119 O3159 2.468 . S
Gd3119 O3160 2.427 . S
Gd3119 O3162 2.388 . S
Gd3119 C3183 2.805 . S
N3120 C3110 1.359 . S
N3120 Gd3119 2.570 . S
N3120 C3122 1.343 . S
C3121 C3109 1.422 . S
C3121 C3123 1.321 . S
C3121 H3129 0.931 . S
C3122 N3120 1.343 . S
C3122 C3123 1.390 . S
C3122 H3124 0.931 . S
C3123 C3121 1.321 . S
C3123 C3122 1.390 . S
C3123 H3125 0.930 . S
H3124 C3122 0.931 . S
H3125 C3123 0.930 . S
H3126 C3149 0.931 . S
H3127 C3115 0.929 . S
H3128 C3150 0.930 . S
H3129 C3121 0.931 . S
H3130 C3111 0.930 . S
H3131 C3140 0.929 . S
H3132 C3116 0.931 . S
H3133 C3117 0.930 . S
H3134 C3172 0.930 . S
H3135 C3113 0.929 . S
H3136 C3141 0.931 . S
H3137 C3142 0.930 . S
N3138 Gd3118 2.622 . S
N3138 C3139 1.369 . S
N3138 C3140 1.338 . S
C3139 N3138 1.369 . S
C3139 C3143 1.415 . S
C3139 C3146 1.422 . S
C3140 H3131 0.929 . S
C3140 N3138 1.338 . S
C3140 C3142 1.378 . S
C3141 H3136 0.931 . S
C3141 C3142 1.348 . S
C3141 C3143 1.413 . S
C3142 H3137 0.930 . S
C3142 C3140 1.378 . S
C3142 C3141 1.348 . S
C3143 C3139 1.415 . S
C3143 C3141 1.413 . S
C3143 C3173 1.437 . S
H3144 C3173 0.929 . S
N3145 Gd3118 2.570 . S
N3145 C3146 1.359 . S
N3145 C3149 1.343 . S
C3146 C3139 1.422 . S
C3146 N3145 1.359 . S
C3146 C3148 1.421 . S
C3147 C3148 1.422 . S
C3147 C3150 1.321 . S
C3147 H3174 0.931 . S
C3148 C3146 1.421 . S
C3148 C3147 1.422 . S
C3148 C3172 1.417 . S
C3149 H3126 0.931 . S
C3149 N3145 1.343 . S
C3149 C3150 1.390 . S
C3150 H3128 0.930 . S
C3150 C3147 1.321 . S
C3150 C3149 1.390 . S
O3151 Gd3119 2.386 . S
O3151 C3163 1.265 . S
O3152 Gd3118 2.353 . S
O3152 C3163 1.242 . S
O3153 Gd3118 2.468 . S
O3153 C3171 1.263 . S
O3154 Gd3118 2.427 . S
O3154 C3171 1.252 . S
O3155 Gd3119 2.307 . S
O3155 C3164 1.261 . S
O3156 Gd3118 2.388 . S
O3156 C3164 1.252 . S
O3157 Gd3118 2.386 . S
O3157 C3175 1.265 . S
O3158 Gd3119 2.353 . S
O3158 C3175 1.242 . S
O3159 Gd3119 2.468 . S
O3159 C3183 1.263 . S
O3160 Gd3119 2.427 . S
O3160 C3183 1.252 . S
O3161 Gd3118 2.307 . S
O3161 C3176 1.261 . S
O3162 Gd3119 2.388 . S
O3162 C3176 1.252 . S
C3163 O3151 1.265 . S
C3163 O3152 1.242 . S
C3164 O3155 1.261 . S
C3164 O3156 1.252 . S
C3165 C3168 1.394 . S
C3165 C3170 1.370 . S
C3165 C3171 1.500 . S
C3166 C3169 1.383 . S
C3166 C3170 1.395 . S
C3167 C3168 1.396 . S
C3167 C3169 1.365 . S
C3167 H3184 0.929 . S
C3168 C3165 1.394 . S
C3168 C3167 1.396 . S
C3168 H3185 0.930 . S
C3169 C3166 1.383 . S
C3169 C3167 1.365 . S
C3169 H3186 0.931 . S
C3170 C3165 1.370 . S
C3170 C3166 1.395 . S
C3170 H3187 0.930 . S
C3171 Gd3118 2.805 . S
C3171 O3153 1.263 . S
C3171 O3154 1.252 . S
C3171 C3165 1.500 . S
C3172 H3134 0.930 . S
C3172 C3148 1.417 . S
C3172 C3173 1.329 . S
C3173 C3143 1.437 . S
C3173 H3144 0.929 . S
C3173 C3172 1.329 . S
H3174 C3147 0.931 . S
C3175 O3157 1.265 . S
C3175 O3158 1.242 . S
C3176 O3161 1.261 . S
C3176 O3162 1.252 . S
C3177 C3180 1.394 . S
C3177 C3182 1.370 . S
C3177 C3183 1.500 . S
C3178 C3181 1.383 . S
C3178 C3182 1.395 . S
C3179 C3180 1.396 . S
C3179 C3181 1.365 . S
C3179 H3188 0.929 . S
C3180 C3177 1.394 . S
C3180 C3179 1.396 . S
C3180 H3189 0.930 . S
C3181 C3178 1.383 . S
C3181 C3179 1.365 . S
C3181 H3190 0.931 . S
C3182 C3177 1.370 . S
C3182 C3178 1.395 . S
C3182 H3191 0.930 . S
C3183 Gd3119 2.805 . S
C3183 O3159 1.263 . S
C3183 O3160 1.252 . S
C3183 C3177 1.500 . S
H3184 C3167 0.929 . S
H3185 C3168 0.930 . S
H3186 C3169 0.931 . S
H3187 C3170 0.930 . S
H3188 C3179 0.929 . S
H3189 C3180 0.930 . S
H3190 C3181 0.931 . S
H3191 C3182 0.930 . S
C3192 C3194 1.422 . S
C3192 C3196 1.415 . S
C3192 N3198 1.369 . S
C3193 C3194 1.421 . S
C3193 C3195 1.417 . S
C3193 C3205 1.422 . S
C3194 C3192 1.422 . S
C3194 C3193 1.421 . S
C3194 N3204 1.359 . S
C3195 C3193 1.417 . S
C3195 C3197 1.329 . S
C3195 H3214 0.930 . S
C3196 C3192 1.415 . S
C3196 C3197 1.437 . S
C3196 C3200 1.413 . S
C3197 C3195 1.329 . S
C3197 C3196 1.437 . S
C3197 H3219 0.929 . S
N3198 C3192 1.369 . S
N3198 C3199 1.338 . S
N3198 Gd3203 2.622 . S
C3199 N3198 1.338 . S
C3199 C3201 1.378 . S
C3199 H3211 0.929 . S
C3200 C3196 1.413 . S
C3200 C3201 1.348 . S
C3200 H3216 0.931 . S
C3201 C3199 1.378 . S
C3201 C3200 1.348 . S
C3201 H3217 0.930 . S
Gd3202 N3222 2.622 . S
Gd3202 N3229 2.570 . S
Gd3202 O3236 2.353 . S
Gd3202 O3237 2.468 . S
Gd3202 O3238 2.427 . S
Gd3202 O3240 2.388 . S
Gd3202 O3241 2.386 . S
Gd3202 O3245 2.307 . S
Gd3202 C3255 2.805 . S
Gd3203 N3198 2.622 . S
Gd3203 N3204 2.570 . S
Gd3203 O3235 2.386 . S
Gd3203 O3239 2.307 . S
Gd3203 O3242 2.353 . S
Gd3203 O3243 2.468 . S
Gd3203 O3244 2.427 . S
Gd3203 O3246 2.388 . S
Gd3203 C3267 2.805 . S
N3204 C3194 1.359 . S
N3204 Gd3203 2.570 . S
N3204 C3206 1.343 . S
C3205 C3193 1.422 . S
C3205 C3207 1.321 . S
C3205 H3213 0.931 . S
C3206 N3204 1.343 . S
C3206 C3207 1.390 . S
C3206 H3208 0.931 . S
C3207 C3205 1.321 . S
C3207 C3206 1.390 . S
C3207 H3209 0.930 . S
H3208 C3206 0.931 . S
H3209 C3207 0.930 . S
H3210 C3233 0.931 . S
H3211 C3199 0.929 . S
H3212 C3234 0.930 . S
H3213 C3205 0.931 . S
H3214 C3195 0.930 . S
H3215 C3224 0.929 . S
H3216 C3200 0.931 . S
H3217 C3201 0.930 . S
H3218 C3256 0.930 . S
H3219 C3197 0.929 . S
H3220 C3225 0.931 . S
H3221 C3226 0.930 . S
N3222 Gd3202 2.622 . S
N3222 C3223 1.369 . S
N3222 C3224 1.338 . S
C3223 N3222 1.369 . S
C3223 C3227 1.415 . S
C3223 C3230 1.422 . S
C3224 H3215 0.929 . S
C3224 N3222 1.338 . S
C3224 C3226 1.378 . S
C3225 H3220 0.931 . S
C3225 C3226 1.348 . S
C3225 C3227 1.413 . S
C3226 H3221 0.930 . S
C3226 C3224 1.378 . S
C3226 C3225 1.348 . S
C3227 C3223 1.415 . S
C3227 C3225 1.413 . S
C3227 C3257 1.437 . S
H3228 C3257 0.929 . S
N3229 Gd3202 2.570 . S
N3229 C3230 1.359 . S
N3229 C3233 1.343 . S
C3230 C3223 1.422 . S
C3230 N3229 1.359 . S
C3230 C3232 1.421 . S
C3231 C3232 1.422 . S
C3231 C3234 1.321 . S
C3231 H3258 0.931 . S
C3232 C3230 1.421 . S
C3232 C3231 1.422 . S
C3232 C3256 1.417 . S
C3233 H3210 0.931 . S
C3233 N3229 1.343 . S
C3233 C3234 1.390 . S
C3234 H3212 0.930 . S
C3234 C3231 1.321 . S
C3234 C3233 1.390 . S
O3235 Gd3203 2.386 . S
O3235 C3247 1.265 . S
O3236 Gd3202 2.353 . S
O3236 C3247 1.242 . S
O3237 Gd3202 2.468 . S
O3237 C3255 1.263 . S
O3238 Gd3202 2.427 . S
O3238 C3255 1.252 . S
O3239 Gd3203 2.307 . S
O3239 C3248 1.261 . S
O3240 Gd3202 2.388 . S
O3240 C3248 1.252 . S
O3241 Gd3202 2.386 . S
O3241 C3259 1.265 . S
O3242 Gd3203 2.353 . S
O3242 C3259 1.242 . S
O3243 Gd3203 2.468 . S
O3243 C3267 1.263 . S
O3244 Gd3203 2.427 . S
O3244 C3267 1.252 . S
O3245 Gd3202 2.307 . S
O3245 C3260 1.261 . S
O3246 Gd3203 2.388 . S
O3246 C3260 1.252 . S
C3247 O3235 1.265 . S
C3247 O3236 1.242 . S
C3248 O3239 1.261 . S
C3248 O3240 1.252 . S
C3249 C3252 1.394 . S
C3249 C3254 1.370 . S
C3249 C3255 1.500 . S
C3250 C3253 1.383 . S
C3250 C3254 1.395 . S
C3251 C3252 1.396 . S
C3251 C3253 1.365 . S
C3251 H3268 0.929 . S
C3252 C3249 1.394 . S
C3252 C3251 1.396 . S
C3252 H3269 0.930 . S
C3253 C3250 1.383 . S
C3253 C3251 1.365 . S
C3253 H3270 0.931 . S
C3254 C3249 1.370 . S
C3254 C3250 1.395 . S
C3254 H3271 0.930 . S
C3255 Gd3202 2.805 . S
C3255 O3237 1.263 . S
C3255 O3238 1.252 . S
C3255 C3249 1.500 . S
C3256 H3218 0.930 . S
C3256 C3232 1.417 . S
C3256 C3257 1.329 . S
C3257 C3227 1.437 . S
C3257 H3228 0.929 . S
C3257 C3256 1.329 . S
H3258 C3231 0.931 . S
C3259 O3241 1.265 . S
C3259 O3242 1.242 . S
C3260 O3245 1.261 . S
C3260 O3246 1.252 . S
C3261 C3264 1.394 . S
C3261 C3266 1.370 . S
C3261 C3267 1.500 . S
C3262 C3265 1.383 . S
C3262 C3266 1.395 . S
C3263 C3264 1.396 . S
C3263 C3265 1.365 . S
C3263 H3272 0.929 . S
C3264 C3261 1.394 . S
C3264 C3263 1.396 . S
C3264 H3273 0.930 . S
C3265 C3262 1.383 . S
C3265 C3263 1.365 . S
C3265 H3274 0.931 . S
C3266 C3261 1.370 . S
C3266 C3262 1.395 . S
C3266 H3275 0.930 . S
C3267 Gd3203 2.805 . S
C3267 O3243 1.263 . S
C3267 O3244 1.252 . S
C3267 C3261 1.500 . S
H3268 C3251 0.929 . S
H3269 C3252 0.930 . S
H3270 C3253 0.931 . S
H3271 C3254 0.930 . S
H3272 C3263 0.929 . S
H3273 C3264 0.930 . S
H3274 C3265 0.931 . S
H3275 C3266 0.930 . S
C3276 C3278 1.422 . S
C3276 C3280 1.415 . S
C3276 N3282 1.369 . S
C3277 C3278 1.421 . S
C3277 C3279 1.417 . S
C3277 C3289 1.422 . S
C3278 C3276 1.422 . S
C3278 C3277 1.421 . S
C3278 N3288 1.359 . S
C3279 C3277 1.417 . S
C3279 C3281 1.329 . S
C3279 H3298 0.930 . S
C3280 C3276 1.415 . S
C3280 C3281 1.437 . S
C3280 C3284 1.413 . S
C3281 C3279 1.329 . S
C3281 C3280 1.437 . S
C3281 H3303 0.929 . S
N3282 C3276 1.369 . S
N3282 C3283 1.338 . S
N3282 Gd3287 2.622 . S
C3283 N3282 1.338 . S
C3283 C3285 1.378 . S
C3283 H3295 0.929 . S
C3284 C3280 1.413 . S
C3284 C3285 1.348 . S
C3284 H3300 0.931 . S
C3285 C3283 1.378 . S
C3285 C3284 1.348 . S
C3285 H3301 0.930 . S
Gd3286 N3306 2.622 . S
Gd3286 N3313 2.570 . S
Gd3286 O3320 2.353 . S
Gd3286 O3321 2.468 . S
Gd3286 O3322 2.427 . S
Gd3286 O3324 2.388 . S
Gd3286 O3325 2.386 . S
Gd3286 O3329 2.307 . S
Gd3286 C3339 2.805 . S
Gd3287 N3282 2.622 . S
Gd3287 N3288 2.570 . S
Gd3287 O3319 2.386 . S
Gd3287 O3323 2.307 . S
Gd3287 O3326 2.353 . S
Gd3287 O3327 2.468 . S
Gd3287 O3328 2.427 . S
Gd3287 O3330 2.388 . S
Gd3287 C3351 2.805 . S
N3288 C3278 1.359 . S
N3288 Gd3287 2.570 . S
N3288 C3290 1.343 . S
C3289 C3277 1.422 . S
C3289 C3291 1.321 . S
C3289 H3297 0.931 . S
C3290 N3288 1.343 . S
C3290 C3291 1.390 . S
C3290 H3292 0.931 . S
C3291 C3289 1.321 . S
C3291 C3290 1.390 . S
C3291 H3293 0.930 . S
H3292 C3290 0.931 . S
H3293 C3291 0.930 . S
H3294 C3317 0.931 . S
H3295 C3283 0.929 . S
H3296 C3318 0.930 . S
H3297 C3289 0.931 . S
H3298 C3279 0.930 . S
H3299 C3308 0.929 . S
H3300 C3284 0.931 . S
H3301 C3285 0.930 . S
H3302 C3340 0.930 . S
H3303 C3281 0.929 . S
H3304 C3309 0.900 1_565 S
H3305 C3310 0.930 . S
N3306 Gd3286 2.622 . S
N3306 C3307 1.369 . S
N3306 C3308 1.338 . S
C3307 N3306 1.369 . S
C3307 C3311 1.415 . S
C3307 C3314 1.422 . S
C3308 H3299 0.929 . S
C3308 N3306 1.338 . S
C3308 C3310 1.378 . S
C3309 H3304 0.900 1_545 S
C3309 C3310 1.348 . S
C3309 C3311 1.413 . S
C3310 H3305 0.930 . S
C3310 C3308 1.378 . S
C3310 C3309 1.348 . S
C3311 C3307 1.415 . S
C3311 C3309 1.413 . S
C3311 C3341 1.437 . S
H3312 C3341 0.929 . S
N3313 Gd3286 2.570 . S
N3313 C3314 1.359 . S
N3313 C3317 1.343 . S
C3314 C3307 1.422 . S
C3314 N3313 1.359 . S
C3314 C3316 1.421 . S
C3315 C3316 1.422 . S
C3315 C3318 1.321 . S
C3315 H3342 0.931 . S
C3316 C3314 1.421 . S
C3316 C3315 1.422 . S
C3316 C3340 1.417 . S
C3317 H3294 0.931 . S
C3317 N3313 1.343 . S
C3317 C3318 1.390 . S
C3318 H3296 0.930 . S
C3318 C3315 1.321 . S
C3318 C3317 1.390 . S
O3319 Gd3287 2.386 . S
O3319 C3331 1.265 . S
O3320 Gd3286 2.353 . S
O3320 C3331 1.242 . S
O3321 Gd3286 2.468 . S
O3321 C3339 1.263 . S
O3322 Gd3286 2.427 . S
O3322 C3339 1.252 . S
O3323 Gd3287 2.307 . S
O3323 C3332 1.261 . S
O3324 Gd3286 2.388 . S
O3324 C3332 1.252 . S
O3325 Gd3286 2.386 . S
O3325 C3343 1.265 . S
O3326 Gd3287 2.353 . S
O3326 C3343 1.242 . S
O3327 Gd3287 2.468 . S
O3327 C3351 1.263 . S
O3328 Gd3287 2.427 . S
O3328 C3351 1.252 . S
O3329 Gd3286 2.307 . S
O3329 C3344 1.261 . S
O3330 Gd3287 2.388 . S
O3330 C3344 1.252 . S
C3331 O3319 1.265 . S
C3331 O3320 1.242 . S
C3332 O3323 1.261 . S
C3332 O3324 1.252 . S
C3333 C3336 1.394 . S
C3333 C3338 1.370 . S
C3333 C3339 1.500 . S
C3334 C3337 1.383 . S
C3334 C3338 1.395 . S
C3335 C3336 1.396 . S
C3335 C3337 1.365 . S
C3335 H3352 0.929 . S
C3336 C3333 1.394 . S
C3336 C3335 1.396 . S
C3336 H3353 0.930 . S
C3337 C3334 1.383 . S
C3337 C3335 1.365 . S
C3337 H3354 0.931 . S
C3338 C3333 1.370 . S
C3338 C3334 1.395 . S
C3338 H3355 0.930 . S
C3339 Gd3286 2.805 . S
C3339 O3321 1.263 . S
C3339 O3322 1.252 . S
C3339 C3333 1.500 . S
C3340 H3302 0.930 . S
C3340 C3316 1.417 . S
C3340 C3341 1.329 . S
C3341 C3311 1.437 . S
C3341 H3312 0.929 . S
C3341 C3340 1.329 . S
H3342 C3315 0.931 . S
C3343 O3325 1.265 . S
C3343 O3326 1.242 . S
C3344 O3329 1.261 . S
C3344 O3330 1.252 . S
C3345 C3348 1.394 . S
C3345 C3350 1.370 . S
C3345 C3351 1.500 . S
C3346 C3349 1.383 . S
C3346 C3350 1.395 . S
C3347 C3348 1.396 . S
C3347 C3349 1.365 . S
C3347 H3356 0.929 . S
C3348 C3345 1.394 . S
C3348 C3347 1.396 . S
C3348 H3357 0.930 . S
C3349 C3346 1.383 . S
C3349 C3347 1.365 . S
C3349 H3358 0.931 . S
C3350 C3345 1.370 . S
C3350 C3346 1.395 . S
C3350 H3359 0.930 . S
C3351 Gd3287 2.805 . S
C3351 O3327 1.263 . S
C3351 O3328 1.252 . S
C3351 C3345 1.500 . S
H3352 C3335 0.929 . S
H3353 C3336 0.930 . S
H3354 C3337 0.931 . S
H3355 C3338 0.930 . S
H3356 C3347 0.929 . S
H3357 C3348 0.930 . S
H3358 C3349 0.931 . S
H3359 C3350 0.930 . S
C3360 C3362 1.422 . S
C3360 C3364 1.415 . S
C3360 N3366 1.369 . S
C3361 C3362 1.421 1_455 S
C3361 C3363 1.417 . S
C3361 C3373 1.422 . S
C3362 C3360 1.422 . S
C3362 C3361 1.421 1_655 S
C3362 N3372 1.359 1_655 S
C3363 C3361 1.417 . S
C3363 C3365 1.329 1_455 S
C3363 H3382 0.930 . S
C3364 C3360 1.415 . S
C3364 C3365 1.437 . S
C3364 C3368 1.413 . S
C3365 C3363 1.329 1_655 S
C3365 C3364 1.437 . S
C3365 H3387 0.929 . S
N3366 C3360 1.369 . S
N3366 C3367 1.338 . S
N3366 Gd3371 2.622 . S
C3367 N3366 1.338 . S
C3367 C3369 1.378 . S
C3367 H3379 0.929 . S
C3368 C3364 1.413 . S
C3368 C3369 1.348 . S
C3368 H3384 0.931 . S
C3369 C3367 1.378 . S
C3369 C3368 1.348 . S
C3369 H3385 0.930 . S
Gd3370 N3390 2.622 . S
Gd3370 N3397 2.570 . S
Gd3370 O3404 2.353 . S
Gd3370 O3405 2.468 . S
Gd3370 O3406 2.427 . S
Gd3370 O3408 2.388 . S
Gd3370 O3409 2.386 . S
Gd3370 O3413 2.307 . S
Gd3370 C3423 2.805 . S
Gd3371 N3366 2.622 . S
Gd3371 N3372 2.570 1_655 S
Gd3371 O3403 2.386 1_655 S
Gd3371 O3407 2.307 1_655 S
Gd3371 O3410 2.353 . S
Gd3371 O3411 2.468 . S
Gd3371 O3412 2.427 . S
Gd3371 O3414 2.388 . S
Gd3371 C3435 2.805 . S
N3372 C3362 1.359 1_455 S
N3372 Gd3371 2.570 1_455 S
N3372 C3374 1.343 . S
C3373 C3361 1.422 . S
C3373 C3375 1.321 . S
C3373 H3381 0.931 . S
C3374 N3372 1.343 . S
C3374 C3375 1.390 . S
C3374 H3376 0.931 . S
C3375 C3373 1.321 . S
C3375 C3374 1.390 . S
C3375 H3377 0.930 . S
H3376 C3374 0.931 . S
H3377 C3375 0.930 . S
H3378 C3401 0.931 . S
H3379 C3367 0.929 . S
H3380 C3402 0.931 1_655 S
H3381 C3373 0.931 . S
H3382 C3363 0.930 . S
H3383 C3392 0.929 . S
H3384 C3368 0.931 . S
H3385 C3369 0.930 . S
H3386 C3424 0.930 . S
H3387 C3365 0.929 . S
H3388 C3393 0.931 . S
H3389 C3394 0.930 . S
N3390 Gd3370 2.622 . S
N3390 C3391 1.369 . S
N3390 C3392 1.338 . S
C3391 N3390 1.369 . S
C3391 C3395 1.415 . S
C3391 C3398 1.422 . S
C3392 H3383 0.929 . S
C3392 N3390 1.338 . S
C3392 C3394 1.378 . S
C3393 H3388 0.931 . S
C3393 C3394 1.348 . S
C3393 C3395 1.413 . S
C3394 H3389 0.930 . S
C3394 C3392 1.378 . S
C3394 C3393 1.348 . S
C3395 C3391 1.415 . S
C3395 C3393 1.413 . S
C3395 C3425 1.437 . S
H3396 C3425 0.929 . S
N3397 Gd3370 2.570 . S
N3397 C3398 1.359 . S
N3397 C3401 1.343 . S
C3398 C3391 1.422 . S
C3398 N3397 1.359 . S
C3398 C3400 1.421 . S
C3399 C3400 1.422 . S
C3399 C3402 1.321 . S
C3399 H3426 0.931 . S
C3400 C3398 1.421 . S
C3400 C3399 1.422 . S
C3400 C3424 1.417 . S
C3401 H3378 0.931 . S
C3401 N3397 1.343 . S
C3401 C3402 1.390 . S
C3402 H3380 0.931 1_455 S
C3402 C3399 1.321 . S
C3402 C3401 1.390 . S
O3403 Gd3371 2.386 1_455 S
O3403 C3415 1.265 . S
O3404 Gd3370 2.353 . S
O3404 C3415 1.242 . S
O3405 Gd3370 2.468 . S
O3405 C3423 1.263 . S
O3406 Gd3370 2.427 . S
O3406 C3423 1.252 . S
O3407 Gd3371 2.307 1_455 S
O3407 C3416 1.261 . S
O3408 Gd3370 2.388 . S
O3408 C3416 1.252 . S
O3409 Gd3370 2.386 . S
O3409 C3427 1.265 1_455 S
O3410 Gd3371 2.353 . S
O3410 C3427 1.242 . S
O3411 Gd3371 2.468 . S
O3411 C3435 1.263 . S
O3412 Gd3371 2.427 . S
O3412 C3435 1.252 . S
O3413 Gd3370 2.307 . S
O3413 C3428 1.261 1_455 S
O3414 Gd3371 2.388 . S
O3414 C3428 1.252 . S
C3415 O3403 1.265 . S
C3415 O3404 1.242 . S
C3416 O3407 1.261 . S
C3416 O3408 1.252 . S
C3417 C3420 1.394 . S
C3417 C3422 1.370 . S
C3417 C3423 1.500 . S
C3418 C3421 1.383 . S
C3418 C3422 1.395 . S
C3419 C3420 1.396 . S
C3419 C3421 1.365 . S
C3419 H3436 0.929 . S
C3420 C3417 1.394 . S
C3420 C3419 1.396 . S
C3420 H3437 0.930 . S
C3421 C3418 1.383 . S
C3421 C3419 1.365 . S
C3421 H3438 0.931 . S
C3422 C3417 1.370 . S
C3422 C3418 1.395 . S
C3422 H3439 0.930 . S
C3423 Gd3370 2.805 . S
C3423 O3405 1.263 . S
C3423 O3406 1.252 . S
C3423 C3417 1.500 . S
C3424 H3386 0.930 . S
C3424 C3400 1.417 . S
C3424 C3425 1.329 . S
C3425 C3395 1.437 . S
C3425 H3396 0.929 . S
C3425 C3424 1.329 . S
H3426 C3399 0.931 . S
C3427 O3409 1.265 1_655 S
C3427 O3410 1.242 . S
C3428 O3413 1.261 1_655 S
C3428 O3414 1.252 . S
C3429 C3432 1.394 . S
C3429 C3434 1.370 . S
C3429 C3435 1.500 . S
C3430 C3433 1.383 . S
C3430 C3434 1.395 . S
C3431 C3432 1.396 . S
C3431 C3433 1.365 . S
C3431 H3440 0.929 . S
C3432 C3429 1.394 . S
C3432 C3431 1.396 . S
C3432 H3441 0.930 . S
C3433 C3430 1.383 . S
C3433 C3431 1.365 . S
C3433 H3442 0.931 . S
C3434 C3429 1.370 . S
C3434 C3430 1.395 . S
C3434 H3443 0.930 . S
C3435 Gd3371 2.805 . S
C3435 O3411 1.263 . S
C3435 O3412 1.252 . S
C3435 C3429 1.500 . S
H3436 C3419 0.929 . S
H3437 C3420 0.930 . S
H3438 C3421 0.931 . S
H3439 C3422 0.930 . S
H3440 C3431 0.929 . S
H3441 C3432 0.930 . S
H3442 C3433 0.931 . S
H3443 C3434 0.930 . S
C3444 C3446 1.422 . S
C3444 C3448 1.415 . S
C3444 N3450 1.369 . S
C3445 C3446 1.421 . S
C3445 C3447 1.417 . S
C3445 C3457 1.422 . S
C3446 C3444 1.422 . S
C3446 C3445 1.421 . S
C3446 N3456 1.359 . S
C3447 C3445 1.417 . S
C3447 C3449 1.329 . S
C3447 H3466 0.930 . S
C3448 C3444 1.415 . S
C3448 C3449 1.437 . S
C3448 C3452 1.413 . S
C3449 C3447 1.329 . S
C3449 C3448 1.437 . S
C3449 H3471 0.929 . S
N3450 C3444 1.369 . S
N3450 C3451 1.338 . S
N3450 Gd3455 2.622 . S
C3451 N3450 1.338 . S
C3451 C3453 1.378 . S
C3451 H3463 0.929 . S
C3452 C3448 1.413 . S
C3452 C3453 1.348 . S
C3452 H3468 0.931 . S
C3453 C3451 1.378 . S
C3453 C3452 1.348 . S
C3453 H3469 0.930 . S
Gd3454 N3474 2.622 . S
Gd3454 N3481 2.570 . S
Gd3454 O3488 2.353 . S
Gd3454 O3489 2.468 . S
Gd3454 O3490 2.427 . S
Gd3454 O3492 2.388 . S
Gd3454 O3493 2.386 . S
Gd3454 O3497 2.307 . S
Gd3454 C3507 2.805 . S
Gd3455 N3450 2.622 . S
Gd3455 N3456 2.570 . S
Gd3455 O3487 2.386 . S
Gd3455 O3491 2.307 . S
Gd3455 O3494 2.353 . S
Gd3455 O3495 2.468 . S
Gd3455 O3496 2.427 . S
Gd3455 O3498 2.388 . S
Gd3455 C3519 2.805 . S
N3456 C3446 1.359 . S
N3456 Gd3455 2.570 . S
N3456 C3458 1.343 . S
C3457 C3445 1.422 . S
C3457 C3459 1.321 . S
C3457 H3465 0.931 . S
C3458 N3456 1.343 . S
C3458 C3459 1.390 . S
C3458 H3460 0.931 . S
C3459 C3457 1.321 . S
C3459 C3458 1.390 . S
C3459 H3461 0.930 . S
H3460 C3458 0.931 . S
H3461 C3459 0.930 . S
H3462 C3485 0.931 . S
H3463 C3451 0.929 . S
H3464 C3486 0.930 . S
H3465 C3457 0.931 . S
H3466 C3447 0.930 . S
H3467 C3476 0.929 . S
H3468 C3452 0.931 . S
H3469 C3453 0.930 . S
H3470 C3508 0.930 . S
H3471 C3449 0.929 . S
H3472 C3477 0.931 . S
H3473 C3478 0.930 . S
N3474 Gd3454 2.622 . S
N3474 C3475 1.369 . S
N3474 C3476 1.338 . S
C3475 N3474 1.369 . S
C3475 C3479 1.415 . S
C3475 C3482 1.422 . S
C3476 H3467 0.929 . S
C3476 N3474 1.338 . S
C3476 C3478 1.378 . S
C3477 H3472 0.931 . S
C3477 C3478 1.348 . S
C3477 C3479 1.413 . S
C3478 H3473 0.930 . S
C3478 C3476 1.378 . S
C3478 C3477 1.348 . S
C3479 C3475 1.415 . S
C3479 C3477 1.413 . S
C3479 C3509 1.437 . S
H3480 C3509 0.929 . S
N3481 Gd3454 2.570 . S
N3481 C3482 1.359 . S
N3481 C3485 1.343 . S
C3482 C3475 1.422 . S
C3482 N3481 1.359 . S
C3482 C3484 1.421 . S
C3483 C3484 1.422 . S
C3483 C3486 1.321 . S
C3483 H3510 0.931 . S
C3484 C3482 1.421 . S
C3484 C3483 1.422 . S
C3484 C3508 1.417 . S
C3485 H3462 0.931 . S
C3485 N3481 1.343 . S
C3485 C3486 1.390 . S
C3486 H3464 0.930 . S
C3486 C3483 1.321 . S
C3486 C3485 1.390 . S
O3487 Gd3455 2.386 . S
O3487 C3499 1.265 . S
O3488 Gd3454 2.353 . S
O3488 C3499 1.242 . S
O3489 Gd3454 2.468 . S
O3489 C3507 1.263 . S
O3490 Gd3454 2.427 . S
O3490 C3507 1.252 . S
O3491 Gd3455 2.307 . S
O3491 C3500 1.261 . S
O3492 Gd3454 2.388 . S
O3492 C3500 1.252 . S
O3493 Gd3454 2.386 . S
O3493 C3511 1.265 . S
O3494 Gd3455 2.353 . S
O3494 C3511 1.242 . S
O3495 Gd3455 2.468 . S
O3495 C3519 1.263 . S
O3496 Gd3455 2.427 . S
O3496 C3519 1.252 . S
O3497 Gd3454 2.307 . S
O3497 C3512 1.261 . S
O3498 Gd3455 2.388 . S
O3498 C3512 1.252 . S
C3499 O3487 1.265 . S
C3499 O3488 1.242 . S
C3500 O3491 1.261 . S
C3500 O3492 1.252 . S
C3501 C3504 1.394 . S
C3501 C3506 1.370 . S
C3501 C3507 1.500 . S
C3502 C3505 1.383 . S
C3502 C3506 1.395 . S
C3503 C3504 1.396 . S
C3503 C3505 1.365 . S
C3503 H3520 0.929 . S
C3504 C3501 1.394 . S
C3504 C3503 1.396 . S
C3504 H3521 0.930 . S
C3505 C3502 1.383 . S
C3505 C3503 1.365 . S
C3505 H3522 0.931 . S
C3506 C3501 1.370 . S
C3506 C3502 1.395 . S
C3506 H3523 0.930 . S
C3507 Gd3454 2.805 . S
C3507 O3489 1.263 . S
C3507 O3490 1.252 . S
C3507 C3501 1.500 . S
C3508 H3470 0.930 . S
C3508 C3484 1.417 . S
C3508 C3509 1.329 . S
C3509 C3479 1.437 . S
C3509 H3480 0.929 . S
C3509 C3508 1.329 . S
H3510 C3483 0.931 . S
C3511 O3493 1.265 . S
C3511 O3494 1.242 . S
C3512 O3497 1.261 . S
C3512 O3498 1.252 . S
C3513 C3516 1.394 . S
C3513 C3518 1.370 . S
C3513 C3519 1.500 . S
C3514 C3517 1.383 . S
C3514 C3518 1.395 . S
C3515 C3516 1.396 . S
C3515 C3517 1.365 . S
C3515 H3524 0.929 . S
C3516 C3513 1.394 . S
C3516 C3515 1.396 . S
C3516 H3525 0.930 . S
C3517 C3514 1.383 . S
C3517 C3515 1.365 . S
C3517 H3526 0.931 . S
C3518 C3513 1.370 . S
C3518 C3514 1.395 . S
C3518 H3527 0.930 . S
C3519 Gd3455 2.805 . S
C3519 O3495 1.263 . S
C3519 O3496 1.252 . S
C3519 C3513 1.500 . S
H3520 C3503 0.929 . S
H3521 C3504 0.930 . S
H3522 C3505 0.931 . S
H3523 C3506 0.930 . S
H3524 C3515 0.929 . S
H3525 C3516 0.930 . S
H3526 C3517 0.931 . S
H3527 C3518 0.930 . S
C3528 C3530 1.422 . S
C3528 C3532 1.415 . S
C3528 N3534 1.369 . S
C3529 C3530 1.421 1_554 S
C3529 C3531 1.425 . S
C3529 C3541 1.422 . S
C3530 C3528 1.422 . S
C3530 C3529 1.421 1_556 S
C3530 N3540 1.359 1_556 S
C3531 C3529 1.425 . S
C3531 C3533 1.312 1_554 S
C3531 H3550 0.941 . S
C3532 C3528 1.415 . S
C3532 C3533 1.437 . S
C3532 C3536 1.413 . S
C3533 C3531 1.312 1_556 S
C3533 C3532 1.437 . S
C3533 H3555 0.929 . S
N3534 C3528 1.369 . S
N3534 C3535 1.338 . S
N3534 Gd3539 2.622 . S
C3535 N3534 1.338 . S
C3535 C3537 1.378 . S
C3535 H3547 0.929 . S
C3536 C3532 1.413 . S
C3536 C3537 1.348 . S
C3536 H3552 0.914 1_655 S
C3537 C3535 1.378 . S
C3537 C3536 1.348 . S
C3537 H3553 0.930 . S
Gd3538 N3558 2.622 . S
Gd3538 N3565 2.570 . S
Gd3538 O3572 2.353 . S
Gd3538 O3573 2.468 . S
Gd3538 O3574 2.427 . S
Gd3538 O3576 2.388 . S
Gd3538 O3577 2.386 . S
Gd3538 O3581 2.307 . S
Gd3538 C3591 2.805 . S
Gd3539 N3534 2.622 . S
Gd3539 N3540 2.570 1_556 S
Gd3539 O3571 2.386 1_556 S
Gd3539 O3575 2.307 1_556 S
Gd3539 O3578 2.353 . S
Gd3539 O3579 2.468 . S
Gd3539 O3580 2.427 . S
Gd3539 O3582 2.388 . S
Gd3539 C3603 2.805 . S
N3540 C3530 1.359 1_554 S
N3540 Gd3539 2.570 1_554 S
N3540 C3542 1.343 . S
C3541 C3529 1.422 . S
C3541 C3543 1.321 . S
C3541 H3549 0.931 . S
C3542 N3540 1.343 . S
C3542 C3543 1.390 . S
C3542 H3544 0.931 . S
C3543 C3541 1.321 . S
C3543 C3542 1.390 . S
C3543 H3545 0.930 . S
H3544 C3542 0.931 . S
H3545 C3543 0.930 . S
H3546 C3569 0.931 . S
H3547 C3535 0.929 . S
H3548 C3570 0.937 . S
H3549 C3541 0.931 . S
H3550 C3531 0.941 . S
H3551 C3560 0.929 . S
H3552 C3536 0.914 1_455 S
H3553 C3537 0.930 . S
H3554 C3592 0.930 . S
H3555 C3533 0.929 . S
H3556 C3561 0.931 . S
H3557 C3562 0.930 . S
N3558 Gd3538 2.622 . S
N3558 C3559 1.369 . S
N3558 C3560 1.338 . S
C3559 N3558 1.369 . S
C3559 C3563 1.415 . S
C3559 C3566 1.422 . S
C3560 H3551 0.929 . S
C3560 N3558 1.338 . S
C3560 C3562 1.378 . S
C3561 H3556 0.931 . S
C3561 C3562 1.348 . S
C3561 C3563 1.413 . S
C3562 H3557 0.930 . S
C3562 C3560 1.378 . S
C3562 C3561 1.348 . S
C3563 C3559 1.415 . S
C3563 C3561 1.413 . S
C3563 C3593 1.437 . S
H3564 C3593 0.929 . S
N3565 Gd3538 2.570 . S
N3565 C3566 1.359 . S
N3565 C3569 1.343 . S
C3566 C3559 1.422 . S
C3566 N3565 1.359 . S
C3566 C3568 1.421 . S
C3567 C3568 1.422 . S
C3567 C3570 1.321 . S
C3567 H3594 0.931 . S
C3568 C3566 1.421 . S
C3568 C3567 1.422 . S
C3568 C3592 1.417 . S
C3569 H3546 0.931 . S
C3569 N3565 1.343 . S
C3569 C3570 1.390 . S
C3570 H3548 0.937 . S
C3570 C3567 1.321 . S
C3570 C3569 1.390 . S
O3571 Gd3539 2.386 1_554 S
O3571 C3583 1.265 . S
O3572 Gd3538 2.353 . S
O3572 C3583 1.242 . S
O3573 Gd3538 2.468 . S
O3573 C3591 1.263 . S
O3574 Gd3538 2.427 . S
O3574 C3591 1.252 . S
O3575 Gd3539 2.307 1_554 S
O3575 C3584 1.261 . S
O3576 Gd3538 2.388 . S
O3576 C3584 1.252 . S
O3577 Gd3538 2.386 . S
O3577 C3595 1.265 1_554 S
O3578 Gd3539 2.353 . S
O3578 C3595 1.242 . S
O3579 Gd3539 2.468 . S
O3579 C3603 1.263 . S
O3580 Gd3539 2.427 . S
O3580 C3603 1.252 . S
O3581 Gd3538 2.307 . S
O3581 C3596 1.261 1_554 S
O3582 Gd3539 2.388 . S
O3582 C3596 1.252 . S
C3583 O3571 1.265 . S
C3583 O3572 1.242 . S
C3584 O3575 1.261 . S
C3584 O3576 1.252 . S
C3585 C3588 1.394 . S
C3585 C3590 1.370 . S
C3585 C3591 1.500 . S
C3586 C3589 1.383 . S
C3586 C3590 1.395 . S
C3587 C3588 1.396 . S
C3587 C3589 1.365 . S
C3587 H3604 0.929 . S
C3588 C3585 1.394 . S
C3588 C3587 1.396 . S
C3588 H3605 0.930 . S
C3589 C3586 1.383 . S
C3589 C3587 1.365 . S
C3589 H3606 0.931 . S
C3590 C3585 1.370 . S
C3590 C3586 1.395 . S
C3590 H3607 0.930 . S
C3591 Gd3538 2.805 . S
C3591 O3573 1.263 . S
C3591 O3574 1.252 . S
C3591 C3585 1.500 . S
C3592 H3554 0.930 . S
C3592 C3568 1.417 . S
C3592 C3593 1.329 . S
C3593 C3563 1.437 . S
C3593 H3564 0.929 . S
C3593 C3592 1.329 . S
H3594 C3567 0.931 . S
C3595 O3577 1.265 1_556 S
C3595 O3578 1.242 . S
C3596 O3581 1.261 1_556 S
C3596 O3582 1.252 . S
C3597 C3600 1.394 . S
C3597 C3602 1.370 . S
C3597 C3603 1.500 . S
C3598 C3601 1.383 . S
C3598 C3602 1.395 . S
C3599 C3600 1.396 . S
C3599 C3601 1.365 . S
C3599 H3608 0.929 . S
C3600 C3597 1.394 . S
C3600 C3599 1.396 . S
C3600 H3609 0.930 . S
C3601 C3598 1.383 . S
C3601 C3599 1.365 . S
C3601 H3610 0.931 . S
C3602 C3597 1.370 . S
C3602 C3598 1.395 . S
C3602 H3611 0.930 . S
C3603 Gd3539 2.805 . S
C3603 O3579 1.263 . S
C3603 O3580 1.252 . S
C3603 C3597 1.500 . S
H3604 C3587 0.929 . S
H3605 C3588 0.930 . S
H3606 C3589 0.931 . S
H3607 C3590 0.930 . S
H3608 C3599 0.929 . S
H3609 C3600 0.930 . S
H3610 C3601 0.931 . S
H3611 C3602 0.930 . S
C3612 C3614 1.422 . S
C3612 C3616 1.415 . S
C3612 N3618 1.369 . S
C3613 C3614 1.421 . S
C3613 C3615 1.417 . S
C3613 C3625 1.422 . S
C3614 C3612 1.422 . S
C3614 C3613 1.421 . S
C3614 N3624 1.359 . S
C3615 C3613 1.417 . S
C3615 C3617 1.329 . S
C3615 H3634 0.930 . S
C3616 C3612 1.415 . S
C3616 C3617 1.437 . S
C3616 C3620 1.413 . S
C3617 C3615 1.329 . S
C3617 C3616 1.437 . S
C3617 H3639 0.929 . S
N3618 C3612 1.369 . S
N3618 C3619 1.338 . S
N3618 Gd3623 2.622 . S
C3619 N3618 1.338 . S
C3619 C3621 1.378 . S
C3619 H3631 0.929 . S
C3620 C3616 1.413 . S
C3620 C3621 1.348 . S
C3620 H3636 0.931 . S
C3621 C3619 1.378 . S
C3621 C3620 1.348 . S
C3621 H3637 0.930 . S
Gd3622 N3642 2.622 . S
Gd3622 N3649 2.570 . S
Gd3622 O3656 2.353 . S
Gd3622 O3657 2.468 . S
Gd3622 O3658 2.427 . S
Gd3622 O3660 2.388 . S
Gd3622 O3661 2.386 . S
Gd3622 O3665 2.307 . S
Gd3622 C3675 2.805 . S
Gd3623 N3618 2.622 . S
Gd3623 N3624 2.570 . S
Gd3623 O3655 2.386 . S
Gd3623 O3659 2.307 . S
Gd3623 O3662 2.353 . S
Gd3623 O3663 2.468 . S
Gd3623 O3664 2.427 . S
Gd3623 O3666 2.388 . S
Gd3623 C3687 2.805 . S
N3624 C3614 1.359 . S
N3624 Gd3623 2.570 . S
N3624 C3626 1.343 . S
C3625 C3613 1.422 . S
C3625 C3627 1.321 . S
C3625 H3633 0.931 . S
C3626 N3624 1.343 . S
C3626 C3627 1.390 . S
C3626 H3628 0.931 . S
C3627 C3625 1.321 . S
C3627 C3626 1.390 . S
C3627 H3629 0.930 . S
H3628 C3626 0.931 . S
H3629 C3627 0.930 . S
H3630 C3653 0.931 . S
H3631 C3619 0.929 . S
H3632 C3654 0.930 . S
H3633 C3625 0.931 . S
H3634 C3615 0.930 . S
H3635 C3644 0.929 . S
H3636 C3620 0.931 . S
H3637 C3621 0.930 . S
H3638 C3676 0.930 . S
H3639 C3617 0.929 . S
H3640 C3645 0.931 . S
H3641 C3646 0.930 . S
N3642 Gd3622 2.622 . S
N3642 C3643 1.369 . S
N3642 C3644 1.338 . S
C3643 N3642 1.369 . S
C3643 C3647 1.415 . S
C3643 C3650 1.422 . S
C3644 H3635 0.929 . S
C3644 N3642 1.338 . S
C3644 C3646 1.378 . S
C3645 H3640 0.931 . S
C3645 C3646 1.348 . S
C3645 C3647 1.413 . S
C3646 H3641 0.930 . S
C3646 C3644 1.378 . S
C3646 C3645 1.348 . S
C3647 C3643 1.415 . S
C3647 C3645 1.413 . S
C3647 C3677 1.437 . S
H3648 C3677 0.929 . S
N3649 Gd3622 2.570 . S
N3649 C3650 1.359 . S
N3649 C3653 1.343 . S
C3650 C3643 1.422 . S
C3650 N3649 1.359 . S
C3650 C3652 1.421 . S
C3651 C3652 1.422 . S
C3651 C3654 1.321 . S
C3651 H3678 0.931 . S
C3652 C3650 1.421 . S
C3652 C3651 1.422 . S
C3652 C3676 1.417 . S
C3653 H3630 0.931 . S
C3653 N3649 1.343 . S
C3653 C3654 1.390 . S
C3654 H3632 0.930 . S
C3654 C3651 1.321 . S
C3654 C3653 1.390 . S
O3655 Gd3623 2.386 . S
O3655 C3667 1.265 . S
O3656 Gd3622 2.353 . S
O3656 C3667 1.242 . S
O3657 Gd3622 2.468 . S
O3657 C3675 1.263 . S
O3658 Gd3622 2.427 . S
O3658 C3675 1.252 . S
O3659 Gd3623 2.307 . S
O3659 C3668 1.261 . S
O3660 Gd3622 2.388 . S
O3660 C3668 1.252 . S
O3661 Gd3622 2.386 . S
O3661 C3679 1.265 . S
O3662 Gd3623 2.353 . S
O3662 C3679 1.242 . S
O3663 Gd3623 2.468 . S
O3663 C3687 1.263 . S
O3664 Gd3623 2.427 . S
O3664 C3687 1.252 . S
O3665 Gd3622 2.307 . S
O3665 C3680 1.261 . S
O3666 Gd3623 2.388 . S
O3666 C3680 1.252 . S
C3667 O3655 1.265 . S
C3667 O3656 1.242 . S
C3668 O3659 1.261 . S
C3668 O3660 1.252 . S
C3669 C3672 1.394 . S
C3669 C3674 1.370 . S
C3669 C3675 1.500 . S
C3670 C3673 1.383 . S
C3670 C3674 1.395 . S
C3671 C3672 1.396 . S
C3671 C3673 1.365 . S
C3671 H3688 0.929 . S
C3672 C3669 1.394 . S
C3672 C3671 1.396 . S
C3672 H3689 0.930 . S
C3673 C3670 1.383 . S
C3673 C3671 1.365 . S
C3673 H3690 0.931 . S
C3674 C3669 1.370 . S
C3674 C3670 1.395 . S
C3674 H3691 0.930 . S
C3675 Gd3622 2.805 . S
C3675 O3657 1.263 . S
C3675 O3658 1.252 . S
C3675 C3669 1.500 . S
C3676 H3638 0.930 . S
C3676 C3652 1.417 . S
C3676 C3677 1.329 . S
C3677 C3647 1.437 . S
C3677 H3648 0.929 . S
C3677 C3676 1.329 . S
H3678 C3651 0.931 . S
C3679 O3661 1.265 . S
C3679 O3662 1.242 . S
C3680 O3665 1.261 . S
C3680 O3666 1.252 . S
C3681 C3684 1.394 . S
C3681 C3686 1.370 . S
C3681 C3687 1.500 . S
C3682 C3685 1.383 . S
C3682 C3686 1.395 . S
C3683 C3684 1.396 . S
C3683 C3685 1.365 . S
C3683 H3692 0.929 . S
C3684 C3681 1.394 . S
C3684 C3683 1.396 . S
C3684 H3693 0.930 . S
C3685 C3682 1.383 . S
C3685 C3683 1.365 . S
C3685 H3694 0.931 . S
C3686 C3681 1.370 . S
C3686 C3682 1.395 . S
C3686 H3695 0.930 . S
C3687 Gd3623 2.805 . S
C3687 O3663 1.263 . S
C3687 O3664 1.252 . S
C3687 C3681 1.500 . S
H3688 C3671 0.929 . S
H3689 C3672 0.930 . S
H3690 C3673 0.931 . S
H3691 C3674 0.930 . S
H3692 C3683 0.929 . S
H3693 C3684 0.930 . S
H3694 C3685 0.931 . S
H3695 C3686 0.930 . S
C3696 C3698 1.422 . S
C3696 C3700 1.415 . S
C3696 N3702 1.369 . S
C3697 C3698 1.421 . S
C3697 C3699 1.417 . S
C3697 C3709 1.422 . S
C3698 C3696 1.422 . S
C3698 C3697 1.421 . S
C3698 N3708 1.359 . S
C3699 C3697 1.417 . S
C3699 C3701 1.329 . S
C3699 H3718 0.930 . S
C3700 C3696 1.415 . S
C3700 C3701 1.437 . S
C3700 C3704 1.413 . S
C3701 C3699 1.329 . S
C3701 C3700 1.437 . S
C3701 H3723 0.929 . S
N3702 C3696 1.369 . S
N3702 C3703 1.338 . S
N3702 Gd3707 2.622 . S
C3703 N3702 1.338 . S
C3703 C3705 1.378 . S
C3703 H3715 0.929 . S
C3704 C3700 1.413 . S
C3704 C3705 1.348 . S
C3704 H3720 0.931 . S
C3705 C3703 1.378 . S
C3705 C3704 1.348 . S
C3705 H3721 0.930 . S
Gd3706 N3726 2.622 . S
Gd3706 N3733 2.570 . S
Gd3706 O3740 2.353 . S
Gd3706 O3741 2.468 . S
Gd3706 O3742 2.427 . S
Gd3706 O3744 2.388 . S
Gd3706 O3745 2.386 . S
Gd3706 O3749 2.307 . S
Gd3706 C3759 2.805 . S
Gd3707 N3702 2.622 . S
Gd3707 N3708 2.570 . S
Gd3707 O3739 2.386 . S
Gd3707 O3743 2.307 . S
Gd3707 O3746 2.353 . S
Gd3707 O3747 2.468 . S
Gd3707 O3748 2.427 . S
Gd3707 O3750 2.388 . S
Gd3707 C3771 2.805 . S
N3708 C3698 1.359 . S
N3708 Gd3707 2.570 . S
N3708 C3710 1.343 . S
C3709 C3697 1.422 . S
C3709 C3711 1.321 . S
C3709 H3717 0.931 . S
C3710 N3708 1.343 . S
C3710 C3711 1.390 . S
C3710 H3712 0.931 . S
C3711 C3709 1.321 . S
C3711 C3710 1.390 . S
C3711 H3713 0.930 . S
H3712 C3710 0.931 . S
H3713 C3711 0.930 . S
H3714 C3737 0.931 . S
H3715 C3703 0.929 . S
H3716 C3738 0.930 . S
H3717 C3709 0.931 . S
H3718 C3699 0.930 . S
H3719 C3728 0.929 . S
H3720 C3704 0.931 . S
H3721 C3705 0.930 . S
H3722 C3760 0.930 . S
H3723 C3701 0.929 . S
H3724 C3729 0.931 . S
H3725 C3730 0.930 . S
N3726 Gd3706 2.622 . S
N3726 C3727 1.369 . S
N3726 C3728 1.338 . S
C3727 N3726 1.369 . S
C3727 C3731 1.415 . S
C3727 C3734 1.422 . S
C3728 H3719 0.929 . S
C3728 N3726 1.338 . S
C3728 C3730 1.378 . S
C3729 H3724 0.931 . S
C3729 C3730 1.348 . S
C3729 C3731 1.413 . S
C3730 H3725 0.930 . S
C3730 C3728 1.378 . S
C3730 C3729 1.348 . S
C3731 C3727 1.415 . S
C3731 C3729 1.413 . S
C3731 C3761 1.437 . S
H3732 C3761 0.929 . S
N3733 Gd3706 2.570 . S
N3733 C3734 1.359 . S
N3733 C3737 1.343 . S
C3734 C3727 1.422 . S
C3734 N3733 1.359 . S
C3734 C3736 1.421 . S
C3735 C3736 1.422 . S
C3735 C3738 1.321 . S
C3735 H3762 0.931 . S
C3736 C3734 1.421 . S
C3736 C3735 1.422 . S
C3736 C3760 1.417 . S
C3737 H3714 0.931 . S
C3737 N3733 1.343 . S
C3737 C3738 1.390 . S
C3738 H3716 0.930 . S
C3738 C3735 1.321 . S
C3738 C3737 1.390 . S
O3739 Gd3707 2.386 . S
O3739 C3751 1.265 . S
O3740 Gd3706 2.353 . S
O3740 C3751 1.242 . S
O3741 Gd3706 2.468 . S
O3741 C3759 1.263 . S
O3742 Gd3706 2.427 . S
O3742 C3759 1.252 . S
O3743 Gd3707 2.307 . S
O3743 C3752 1.261 . S
O3744 Gd3706 2.388 . S
O3744 C3752 1.252 . S
O3745 Gd3706 2.386 . S
O3745 C3763 1.265 . S
O3746 Gd3707 2.353 . S
O3746 C3763 1.242 . S
O3747 Gd3707 2.468 . S
O3747 C3771 1.263 . S
O3748 Gd3707 2.427 . S
O3748 C3771 1.252 . S
O3749 Gd3706 2.307 . S
O3749 C3764 1.261 . S
O3750 Gd3707 2.388 . S
O3750 C3764 1.252 . S
C3751 O3739 1.265 . S
C3751 O3740 1.242 . S
C3752 O3743 1.261 . S
C3752 O3744 1.252 . S
C3753 C3756 1.394 . S
C3753 C3758 1.370 . S
C3753 C3759 1.500 . S
C3754 C3757 1.383 . S
C3754 C3758 1.395 . S
C3755 C3756 1.396 . S
C3755 C3757 1.365 . S
C3755 H3772 0.929 . S
C3756 C3753 1.394 . S
C3756 C3755 1.396 . S
C3756 H3773 0.930 . S
C3757 C3754 1.383 . S
C3757 C3755 1.365 . S
C3757 H3774 0.931 . S
C3758 C3753 1.370 . S
C3758 C3754 1.395 . S
C3758 H3775 0.930 . S
C3759 Gd3706 2.805 . S
C3759 O3741 1.263 . S
C3759 O3742 1.252 . S
C3759 C3753 1.500 . S
C3760 H3722 0.930 . S
C3760 C3736 1.417 . S
C3760 C3761 1.329 . S
C3761 C3731 1.437 . S
C3761 H3732 0.929 . S
C3761 C3760 1.329 . S
H3762 C3735 0.931 . S
C3763 O3745 1.265 . S
C3763 O3746 1.242 . S
C3764 O3749 1.261 . S
C3764 O3750 1.252 . S
C3765 C3768 1.394 . S
C3765 C3770 1.370 . S
C3765 C3771 1.500 . S
C3766 C3769 1.383 . S
C3766 C3770 1.395 . S
C3767 C3768 1.396 . S
C3767 C3769 1.365 . S
C3767 H3776 0.929 . S
C3768 C3765 1.394 . S
C3768 C3767 1.396 . S
C3768 H3777 0.930 . S
C3769 C3766 1.383 . S
C3769 C3767 1.365 . S
C3769 H3778 0.931 . S
C3770 C3765 1.370 . S
C3770 C3766 1.395 . S
C3770 H3779 0.930 . S
C3771 Gd3707 2.805 . S
C3771 O3747 1.263 . S
C3771 O3748 1.252 . S
C3771 C3765 1.500 . S
H3772 C3755 0.929 . S
H3773 C3756 0.930 . S
H3774 C3757 0.931 . S
H3775 C3758 0.930 . S
H3776 C3767 0.929 . S
H3777 C3768 0.930 . S
H3778 C3769 0.931 . S
H3779 C3770 0.930 . S
C3780 C3782 1.422 . S
C3780 C3784 1.415 . S
C3780 N3786 1.369 . S
C3781 C3782 1.421 . S
C3781 C3783 1.417 . S
C3781 C3793 1.422 . S
C3782 C3780 1.422 . S
C3782 C3781 1.421 . S
C3782 N3792 1.359 . S
C3783 C3781 1.417 . S
C3783 C3785 1.329 . S
C3783 H3802 0.930 . S
C3784 C3780 1.415 . S
C3784 C3785 1.437 . S
C3784 C3788 1.413 . S
C3785 C3783 1.329 . S
C3785 C3784 1.437 . S
C3785 H3807 0.929 . S
N3786 C3780 1.369 . S
N3786 C3787 1.338 . S
N3786 Gd3791 2.622 . S
C3787 N3786 1.338 . S
C3787 C3789 1.378 . S
C3787 H3799 0.929 . S
C3788 C3784 1.413 . S
C3788 C3789 1.348 . S
C3788 H3804 0.931 . S
C3789 C3787 1.378 . S
C3789 C3788 1.348 . S
C3789 H3805 0.930 . S
Gd3790 N3810 2.622 . S
Gd3790 N3817 2.570 . S
Gd3790 O3824 2.353 . S
Gd3790 O3825 2.468 . S
Gd3790 O3826 2.427 . S
Gd3790 O3828 2.388 . S
Gd3790 O3829 2.386 . S
Gd3790 O3833 2.307 . S
Gd3790 C3843 2.805 . S
Gd3791 N3786 2.622 . S
Gd3791 N3792 2.570 . S
Gd3791 O3823 2.386 . S
Gd3791 O3827 2.307 . S
Gd3791 O3830 2.353 . S
Gd3791 O3831 2.468 . S
Gd3791 O3832 2.427 . S
Gd3791 O3834 2.388 . S
Gd3791 C3855 2.805 . S
N3792 C3782 1.359 . S
N3792 Gd3791 2.570 . S
N3792 C3794 1.343 . S
C3793 C3781 1.422 . S
C3793 C3795 1.321 . S
C3793 H3801 0.931 . S
C3794 N3792 1.343 . S
C3794 C3795 1.390 . S
C3794 H3796 0.931 . S
C3795 C3793 1.321 . S
C3795 C3794 1.390 . S
C3795 H3797 0.930 . S
H3796 C3794 0.931 . S
H3797 C3795 0.930 . S
H3798 C3821 0.931 . S
H3799 C3787 0.929 . S
H3800 C3822 0.930 . S
H3801 C3793 0.931 . S
H3802 C3783 0.930 . S
H3803 C3812 0.929 . S
H3804 C3788 0.931 . S
H3805 C3789 0.930 . S
H3806 C3844 0.930 . S
H3807 C3785 0.929 . S
H3808 C3813 0.931 . S
H3809 C3814 0.930 . S
N3810 Gd3790 2.622 . S
N3810 C3811 1.369 . S
N3810 C3812 1.338 . S
C3811 N3810 1.369 . S
C3811 C3815 1.415 . S
C3811 C3818 1.422 . S
C3812 H3803 0.929 . S
C3812 N3810 1.338 . S
C3812 C3814 1.378 . S
C3813 H3808 0.931 . S
C3813 C3814 1.348 . S
C3813 C3815 1.413 . S
C3814 H3809 0.930 . S
C3814 C3812 1.378 . S
C3814 C3813 1.348 . S
C3815 C3811 1.415 . S
C3815 C3813 1.413 . S
C3815 C3845 1.437 . S
H3816 C3845 0.929 . S
N3817 Gd3790 2.570 . S
N3817 C3818 1.359 . S
N3817 C3821 1.343 . S
C3818 C3811 1.422 . S
C3818 N3817 1.359 . S
C3818 C3820 1.421 . S
C3819 C3820 1.422 . S
C3819 C3822 1.321 . S
C3819 H3846 0.931 . S
C3820 C3818 1.421 . S
C3820 C3819 1.422 . S
C3820 C3844 1.417 . S
C3821 H3798 0.931 . S
C3821 N3817 1.343 . S
C3821 C3822 1.390 . S
C3822 H3800 0.930 . S
C3822 C3819 1.321 . S
C3822 C3821 1.390 . S
O3823 Gd3791 2.386 . S
O3823 C3835 1.265 . S
O3824 Gd3790 2.353 . S
O3824 C3835 1.242 . S
O3825 Gd3790 2.468 . S
O3825 C3843 1.263 . S
O3826 Gd3790 2.427 . S
O3826 C3843 1.252 . S
O3827 Gd3791 2.307 . S
O3827 C3836 1.261 . S
O3828 Gd3790 2.388 . S
O3828 C3836 1.252 . S
O3829 Gd3790 2.386 . S
O3829 C3847 1.265 . S
O3830 Gd3791 2.353 . S
O3830 C3847 1.242 . S
O3831 Gd3791 2.468 . S
O3831 C3855 1.263 . S
O3832 Gd3791 2.427 . S
O3832 C3855 1.252 . S
O3833 Gd3790 2.307 . S
O3833 C3848 1.261 . S
O3834 Gd3791 2.388 . S
O3834 C3848 1.252 . S
C3835 O3823 1.265 . S
C3835 O3824 1.242 . S
C3836 O3827 1.261 . S
C3836 O3828 1.252 . S
C3837 C3840 1.394 . S
C3837 C3842 1.370 . S
C3837 C3843 1.500 . S
C3838 C3841 1.383 . S
C3838 C3842 1.395 . S
C3839 C3840 1.396 . S
C3839 C3841 1.365 . S
C3839 H3856 0.929 . S
C3840 C3837 1.394 . S
C3840 C3839 1.396 . S
C3840 H3857 0.930 . S
C3841 C3838 1.383 . S
C3841 C3839 1.365 . S
C3841 H3858 0.931 . S
C3842 C3837 1.370 . S
C3842 C3838 1.395 . S
C3842 H3859 0.930 . S
C3843 Gd3790 2.805 . S
C3843 O3825 1.263 . S
C3843 O3826 1.252 . S
C3843 C3837 1.500 . S
C3844 H3806 0.930 . S
C3844 C3820 1.417 . S
C3844 C3845 1.329 . S
C3845 C3815 1.437 . S
C3845 H3816 0.929 . S
C3845 C3844 1.329 . S
H3846 C3819 0.931 . S
C3847 O3829 1.265 . S
C3847 O3830 1.242 . S
C3848 O3833 1.261 . S
C3848 O3834 1.252 . S
C3849 C3852 1.394 . S
C3849 C3854 1.370 . S
C3849 C3855 1.500 . S
C3850 C3853 1.383 . S
C3850 C3854 1.395 . S
C3851 C3852 1.396 . S
C3851 C3853 1.365 . S
C3851 H3860 0.929 . S
C3852 C3849 1.394 . S
C3852 C3851 1.396 . S
C3852 H3861 0.930 . S
C3853 C3850 1.383 . S
C3853 C3851 1.365 . S
C3853 H3862 0.931 . S
C3854 C3849 1.370 . S
C3854 C3850 1.395 . S
C3854 H3863 0.930 . S
C3855 Gd3791 2.805 . S
C3855 O3831 1.263 . S
C3855 O3832 1.252 . S
C3855 C3849 1.500 . S
H3856 C3839 0.929 . S
H3857 C3840 0.930 . S
H3858 C3841 0.931 . S
H3859 C3842 0.930 . S
H3860 C3851 0.929 . S
H3861 C3852 0.930 . S
H3862 C3853 0.931 . S
H3863 C3854 0.930 . S
C3864 C3866 1.422 . S
C3864 C3868 1.415 . S
C3864 N3870 1.369 . S
C3865 C3866 1.421 . S
C3865 C3867 1.417 . S
C3865 C3877 1.422 . S
C3866 C3864 1.422 . S
C3866 C3865 1.421 . S
C3866 N3876 1.359 . S
C3867 C3865 1.417 . S
C3867 C3869 1.329 . S
C3867 H3886 0.930 . S
C3868 C3864 1.415 . S
C3868 C3869 1.437 . S
C3868 C3872 1.413 . S
C3869 C3867 1.329 . S
C3869 C3868 1.437 . S
C3869 H3891 0.929 . S
N3870 C3864 1.369 . S
N3870 C3871 1.338 . S
N3870 Gd3875 2.622 . S
C3871 N3870 1.338 . S
C3871 C3873 1.378 . S
C3871 H3883 0.929 . S
C3872 C3868 1.413 . S
C3872 C3873 1.348 . S
C3872 H3888 0.931 . S
C3873 C3871 1.378 . S
C3873 C3872 1.348 . S
C3873 H3889 0.930 . S
Gd3874 N3894 2.622 . S
Gd3874 N3901 2.570 . S
Gd3874 O3908 2.353 . S
Gd3874 O3909 2.468 . S
Gd3874 O3910 2.427 . S
Gd3874 O3912 2.388 . S
Gd3874 O3913 2.386 . S
Gd3874 O3917 2.307 . S
Gd3874 C3927 2.805 . S
Gd3875 N3870 2.622 . S
Gd3875 N3876 2.570 . S
Gd3875 O3907 2.386 . S
Gd3875 O3911 2.307 . S
Gd3875 O3914 2.353 . S
Gd3875 O3915 2.468 . S
Gd3875 O3916 2.427 . S
Gd3875 O3918 2.388 . S
Gd3875 C3939 2.805 . S
N3876 C3866 1.359 . S
N3876 Gd3875 2.570 . S
N3876 C3878 1.343 . S
C3877 C3865 1.422 . S
C3877 C3879 1.321 . S
C3877 H3885 0.931 . S
C3878 N3876 1.343 . S
C3878 C3879 1.390 . S
C3878 H3880 0.931 . S
C3879 C3877 1.321 . S
C3879 C3878 1.390 . S
C3879 H3881 0.930 . S
H3880 C3878 0.931 . S
H3881 C3879 0.930 . S
H3882 C3905 0.931 . S
H3883 C3871 0.929 . S
H3884 C3906 0.930 . S
H3885 C3877 0.931 . S
H3886 C3867 0.930 . S
H3887 C3896 0.929 . S
H3888 C3872 0.931 . S
H3889 C3873 0.930 . S
H3890 C3928 0.930 . S
H3891 C3869 0.929 . S
H3892 C3897 0.931 . S
H3893 C3898 0.930 . S
N3894 Gd3874 2.622 . S
N3894 C3895 1.369 . S
N3894 C3896 1.338 . S
C3895 N3894 1.369 . S
C3895 C3899 1.415 . S
C3895 C3902 1.422 . S
C3896 H3887 0.929 . S
C3896 N3894 1.338 . S
C3896 C3898 1.378 . S
C3897 H3892 0.931 . S
C3897 C3898 1.348 . S
C3897 C3899 1.413 . S
C3898 H3893 0.930 . S
C3898 C3896 1.378 . S
C3898 C3897 1.348 . S
C3899 C3895 1.415 . S
C3899 C3897 1.413 . S
C3899 C3929 1.437 . S
H3900 C3929 0.929 . S
N3901 Gd3874 2.570 . S
N3901 C3902 1.359 . S
N3901 C3905 1.343 . S
C3902 C3895 1.422 . S
C3902 N3901 1.359 . S
C3902 C3904 1.421 . S
C3903 C3904 1.422 . S
C3903 C3906 1.321 . S
C3903 H3930 0.931 . S
C3904 C3902 1.421 . S
C3904 C3903 1.422 . S
C3904 C3928 1.417 . S
C3905 H3882 0.931 . S
C3905 N3901 1.343 . S
C3905 C3906 1.390 . S
C3906 H3884 0.930 . S
C3906 C3903 1.321 . S
C3906 C3905 1.390 . S
O3907 Gd3875 2.386 . S
O3907 C3919 1.265 . S
O3908 Gd3874 2.353 . S
O3908 C3919 1.242 . S
O3909 Gd3874 2.468 . S
O3909 C3927 1.263 . S
O3910 Gd3874 2.427 . S
O3910 C3927 1.252 . S
O3911 Gd3875 2.307 . S
O3911 C3920 1.261 . S
O3912 Gd3874 2.388 . S
O3912 C3920 1.252 . S
O3913 Gd3874 2.386 . S
O3913 C3931 1.265 . S
O3914 Gd3875 2.353 . S
O3914 C3931 1.242 . S
O3915 Gd3875 2.468 . S
O3915 C3939 1.263 . S
O3916 Gd3875 2.427 . S
O3916 C3939 1.252 . S
O3917 Gd3874 2.307 . S
O3917 C3932 1.261 . S
O3918 Gd3875 2.388 . S
O3918 C3932 1.252 . S
C3919 O3907 1.265 . S
C3919 O3908 1.242 . S
C3920 O3911 1.261 . S
C3920 O3912 1.252 . S
C3921 C3924 1.394 . S
C3921 C3926 1.370 . S
C3921 C3927 1.500 . S
C3922 C3925 1.383 . S
C3922 C3926 1.395 . S
C3923 C3924 1.396 . S
C3923 C3925 1.365 . S
C3923 H3940 0.929 . S
C3924 C3921 1.394 . S
C3924 C3923 1.396 . S
C3924 H3941 0.930 . S
C3925 C3922 1.383 . S
C3925 C3923 1.365 . S
C3925 H3942 0.931 . S
C3926 C3921 1.370 . S
C3926 C3922 1.395 . S
C3926 H3943 0.930 . S
C3927 Gd3874 2.805 . S
C3927 O3909 1.263 . S
C3927 O3910 1.252 . S
C3927 C3921 1.500 . S
C3928 H3890 0.930 . S
C3928 C3904 1.417 . S
C3928 C3929 1.329 . S
C3929 C3899 1.437 . S
C3929 H3900 0.929 . S
C3929 C3928 1.329 . S
H3930 C3903 0.931 . S
C3931 O3913 1.265 . S
C3931 O3914 1.242 . S
C3932 O3917 1.261 . S
C3932 O3918 1.252 . S
C3933 C3936 1.394 . S
C3933 C3938 1.370 . S
C3933 C3939 1.500 . S
C3934 C3937 1.383 . S
C3934 C3938 1.395 . S
C3935 C3936 1.396 . S
C3935 C3937 1.365 . S
C3935 H3944 0.929 . S
C3936 C3933 1.394 . S
C3936 C3935 1.396 . S
C3936 H3945 0.930 . S
C3937 C3934 1.383 . S
C3937 C3935 1.365 . S
C3937 H3946 0.931 . S
C3938 C3933 1.370 . S
C3938 C3934 1.395 . S
C3938 H3947 0.930 . S
C3939 Gd3875 2.805 . S
C3939 O3915 1.263 . S
C3939 O3916 1.252 . S
C3939 C3933 1.500 . S
H3940 C3923 0.929 . S
H3941 C3924 0.930 . S
H3942 C3925 0.931 . S
H3943 C3926 0.930 . S
H3944 C3935 0.929 . S
H3945 C3936 0.930 . S
H3946 C3937 0.931 . S
H3947 C3938 0.930 . S
C3948 C3950 1.422 . S
C3948 C3952 1.415 . S
C3948 N3954 1.369 . S
C3949 C3950 1.421 . S
C3949 C3951 1.417 . S
C3949 C3961 1.422 . S
C3950 C3948 1.422 . S
C3950 C3949 1.421 . S
C3950 N3960 1.359 . S
C3951 C3949 1.417 . S
C3951 C3953 1.329 . S
C3951 H3970 0.930 . S
C3952 C3948 1.415 . S
C3952 C3953 1.437 . S
C3952 C3956 1.413 . S
C3953 C3951 1.329 . S
C3953 C3952 1.437 . S
C3953 H3975 0.929 . S
N3954 C3948 1.369 . S
N3954 C3955 1.338 . S
N3954 Gd3959 2.622 . S
C3955 N3954 1.338 . S
C3955 C3957 1.378 . S
C3955 H3967 0.929 . S
C3956 C3952 1.413 . S
C3956 C3957 1.348 . S
C3956 H3972 0.931 . S
C3957 C3955 1.378 . S
C3957 C3956 1.348 . S
C3957 H3973 0.930 . S
Gd3958 N3978 2.622 . S
Gd3958 N3985 2.570 . S
Gd3958 O3992 2.353 . S
Gd3958 O3993 2.468 . S
Gd3958 O3994 2.427 . S
Gd3958 O3996 2.388 . S
Gd3958 O3997 2.386 . S
Gd3958 O4001 2.307 . S
Gd3958 C4011 2.805 . S
Gd3959 N3954 2.622 . S
Gd3959 N3960 2.570 . S
Gd3959 O3991 2.386 . S
Gd3959 O3995 2.307 . S
Gd3959 O3998 2.353 . S
Gd3959 O3999 2.468 . S
Gd3959 O4000 2.427 . S
Gd3959 O4002 2.388 . S
Gd3959 C4023 2.805 . S
N3960 C3950 1.359 . S
N3960 Gd3959 2.570 . S
N3960 C3962 1.343 . S
C3961 C3949 1.422 . S
C3961 C3963 1.321 . S
C3961 H3969 0.931 . S
C3962 N3960 1.343 . S
C3962 C3963 1.390 . S
C3962 H3964 0.931 . S
C3963 C3961 1.321 . S
C3963 C3962 1.390 . S
C3963 H3965 0.930 . S
H3964 C3962 0.931 . S
H3965 C3963 0.930 . S
H3966 C3989 0.931 . S
H3967 C3955 0.929 . S
H3968 C3990 0.930 . S
H3969 C3961 0.931 . S
H3970 C3951 0.930 . S
H3971 C3980 0.929 . S
H3972 C3956 0.931 . S
H3973 C3957 0.930 . S
H3974 C4012 0.930 . S
H3975 C3953 0.929 . S
H3976 C3981 0.931 . S
H3977 C3982 0.930 . S
N3978 Gd3958 2.622 . S
N3978 C3979 1.369 . S
N3978 C3980 1.338 . S
C3979 N3978 1.369 . S
C3979 C3983 1.415 . S
C3979 C3986 1.422 . S
C3980 H3971 0.929 . S
C3980 N3978 1.338 . S
C3980 C3982 1.378 . S
C3981 H3976 0.931 . S
C3981 C3982 1.348 . S
C3981 C3983 1.413 . S
C3982 H3977 0.930 . S
C3982 C3980 1.378 . S
C3982 C3981 1.348 . S
C3983 C3979 1.415 . S
C3983 C3981 1.413 . S
C3983 C4013 1.437 . S
H3984 C4013 0.929 . S
N3985 Gd3958 2.570 . S
N3985 C3986 1.359 . S
N3985 C3989 1.343 . S
C3986 C3979 1.422 . S
C3986 N3985 1.359 . S
C3986 C3988 1.421 . S
C3987 C3988 1.422 . S
C3987 C3990 1.321 . S
C3987 H4014 0.931 . S
C3988 C3986 1.421 . S
C3988 C3987 1.422 . S
C3988 C4012 1.417 . S
C3989 H3966 0.931 . S
C3989 N3985 1.343 . S
C3989 C3990 1.390 . S
C3990 H3968 0.930 . S
C3990 C3987 1.321 . S
C3990 C3989 1.390 . S
O3991 Gd3959 2.386 . S
O3991 C4003 1.265 . S
O3992 Gd3958 2.353 . S
O3992 C4003 1.242 . S
O3993 Gd3958 2.468 . S
O3993 C4011 1.263 . S
O3994 Gd3958 2.427 . S
O3994 C4011 1.252 . S
O3995 Gd3959 2.307 . S
O3995 C4004 1.261 . S
O3996 Gd3958 2.388 . S
O3996 C4004 1.252 . S
O3997 Gd3958 2.386 . S
O3997 C4015 1.265 . S
O3998 Gd3959 2.353 . S
O3998 C4015 1.242 . S
O3999 Gd3959 2.468 . S
O3999 C4023 1.263 . S
O4000 Gd3959 2.427 . S
O4000 C4023 1.252 . S
O4001 Gd3958 2.307 . S
O4001 C4016 1.261 . S
O4002 Gd3959 2.388 . S
O4002 C4016 1.252 . S
C4003 O3991 1.265 . S
C4003 O3992 1.242 . S
C4004 O3995 1.261 . S
C4004 O3996 1.252 . S
C4005 C4008 1.394 . S
C4005 C4010 1.370 . S
C4005 C4011 1.500 . S
C4006 C4009 1.383 . S
C4006 C4010 1.395 . S
C4007 C4008 1.396 . S
C4007 C4009 1.365 . S
C4007 H4024 0.929 . S
C4008 C4005 1.394 . S
C4008 C4007 1.396 . S
C4008 H4025 0.930 . S
C4009 C4006 1.383 . S
C4009 C4007 1.365 . S
C4009 H4026 0.931 . S
C4010 C4005 1.370 . S
C4010 C4006 1.395 . S
C4010 H4027 0.930 . S
C4011 Gd3958 2.805 . S
C4011 O3993 1.263 . S
C4011 O3994 1.252 . S
C4011 C4005 1.500 . S
C4012 H3974 0.930 . S
C4012 C3988 1.417 . S
C4012 C4013 1.329 . S
C4013 C3983 1.437 . S
C4013 H3984 0.929 . S
C4013 C4012 1.329 . S
H4014 C3987 0.931 . S
C4015 O3997 1.265 . S
C4015 O3998 1.242 . S
C4016 O4001 1.261 . S
C4016 O4002 1.252 . S
C4017 C4020 1.394 . S
C4017 C4022 1.370 . S
C4017 C4023 1.500 . S
C4018 C4021 1.383 . S
C4018 C4022 1.395 . S
C4019 C4020 1.396 . S
C4019 C4021 1.365 . S
C4019 H4028 0.929 . S
C4020 C4017 1.394 . S
C4020 C4019 1.396 . S
C4020 H4029 0.930 . S
C4021 C4018 1.383 . S
C4021 C4019 1.365 . S
C4021 H4030 0.931 . S
C4022 C4017 1.370 . S
C4022 C4018 1.395 . S
C4022 H4031 0.930 . S
C4023 Gd3959 2.805 . S
C4023 O3999 1.263 . S
C4023 O4000 1.252 . S
C4023 C4017 1.500 . S
H4024 C4007 0.929 . S
H4025 C4008 0.930 . S
H4026 C4009 0.931 . S
H4027 C4010 0.930 . S
H4028 C4019 0.929 . S
H4029 C4020 0.930 . S
H4030 C4021 0.931 . S
H4031 C4022 0.930 . S
C4032 C4033 1.369 . S
C4032 C4034 1.419 . S
C4032 H4036 0.930 . S
C4033 C4032 1.369 . S
C4033 C4042 1.429 1_655 S
C4034 C4032 1.419 . S
C4034 C4035 1.363 . S
C4034 H4037 0.929 . S
C4035 C4034 1.363 . S
C4035 C4041 1.428 1_655 S
H4036 C4032 0.930 . S
H4037 C4034 0.929 . S
S4038 N4039 1.613 . S
S4038 N4040 1.610 . S
N4039 S4038 1.613 . S
N4039 C4042 1.350 . S
N4040 S4038 1.610 . S
N4040 C4041 1.351 . S
C4041 C4035 1.428 1_455 S
C4041 N4040 1.351 . S
C4041 C4042 1.434 . S
C4042 C4033 1.429 1_455 S
C4042 N4039 1.350 . S
C4042 C4041 1.434 . S
C4043 C4044 1.369 . S
C4043 C4045 1.419 . S
C4043 H4047 0.930 . S
C4044 C4043 1.369 . S
C4044 C4053 1.429 . S
C4045 C4043 1.419 . S
C4045 C4046 1.363 . S
C4045 H4048 0.929 . S
C4046 C4045 1.363 . S
C4046 C4052 1.428 . S
H4047 C4043 0.930 . S
H4048 C4045 0.929 . S
S4049 N4050 1.613 . S
S4049 N4051 1.610 . S
N4050 S4049 1.613 . S
N4050 C4053 1.350 . S
N4051 S4049 1.610 . S
N4051 C4052 1.351 . S
C4052 C4046 1.428 . S
C4052 N4051 1.351 . S
C4052 C4053 1.434 . S
C4053 C4044 1.429 . S
C4053 N4050 1.350 . S
C4053 C4052 1.434 . S
C4054 C4055 1.369 . S
C4054 C4056 1.419 . S
C4054 H4058 0.930 . S
C4055 C4054 1.369 . S
C4055 C4064 1.429 . S
C4056 C4054 1.419 . S
C4056 C4057 1.363 . S
C4056 H4059 0.929 . S
C4057 C4056 1.363 . S
C4057 C4063 1.428 . S
H4058 C4054 0.930 . S
H4059 C4056 0.929 . S
S4060 N4061 1.613 . S
S4060 N4062 1.610 . S
N4061 S4060 1.613 . S
N4061 C4064 1.350 . S
N4062 S4060 1.610 . S
N4062 C4063 1.351 . S
C4063 C4057 1.428 . S
C4063 N4062 1.351 . S
C4063 C4064 1.434 . S
C4064 C4055 1.429 . S
C4064 N4061 1.350 . S
C4064 C4063 1.434 . S
C4065 C4066 1.369 . S
C4065 C4067 1.419 . S
C4065 H4069 0.930 . S
C4066 C4065 1.369 . S
C4066 C4075 1.429 1_554 S
C4067 C4065 1.419 . S
C4067 C4068 1.363 1_554 S
C4067 H4070 0.929 . S
C4068 C4067 1.363 1_556 S
C4068 C4074 1.428 . S
H4069 C4065 0.930 . S
H4070 C4067 0.929 . S
S4071 N4072 1.613 . S
S4071 N4073 1.610 . S
N4072 S4071 1.613 . S
N4072 C4075 1.350 . S
N4073 S4071 1.610 . S
N4073 C4074 1.351 . S
C4074 C4068 1.428 . S
C4074 N4073 1.351 . S
C4074 C4075 1.434 . S
C4075 C4066 1.429 1_556 S
C4075 N4072 1.350 . S
C4075 C4074 1.434 . S
C4076 C4077 1.369 1_545 S
C4076 C4078 1.419 . S
C4076 H4080 0.930 . S
C4077 C4076 1.369 1_565 S
C4077 C4086 1.429 . S
C4078 C4076 1.419 . S
C4078 C4079 1.363 1_545 S
C4078 H4081 0.929 . S
C4079 C4078 1.363 1_565 S
C4079 C4085 1.428 . S
H4080 C4076 0.930 . S
H4081 C4078 0.929 . S
S4082 N4083 1.613 . S
S4082 N4084 1.610 . S
N4083 S4082 1.613 . S
N4083 C4086 1.350 . S
N4084 S4082 1.610 . S
N4084 C4085 1.351 . S
C4085 C4079 1.428 . S
C4085 N4084 1.351 . S
C4085 C4086 1.434 . S
C4086 C4077 1.429 . S
C4086 N4083 1.350 . S
C4086 C4085 1.434 . S
C4087 C4088 1.369 1_545 S
C4087 C4089 1.419 . S
C4087 H4091 0.930 . S
C4088 C4087 1.369 1_565 S
C4088 C4097 1.429 . S
C4089 C4087 1.419 . S
C4089 C4090 1.363 . S
C4089 H4092 0.929 . S
C4090 C4089 1.363 . S
C4090 C4096 1.428 1_545 S
H4091 C4087 0.930 . S
H4092 C4089 0.929 . S
S4093 N4094 1.613 . S
S4093 N4095 1.610 . S
N4094 S4093 1.613 . S
N4094 C4097 1.350 . S
N4095 S4093 1.610 . S
N4095 C4096 1.351 . S
C4096 C4090 1.428 1_565 S
C4096 N4095 1.351 . S
C4096 C4097 1.434 . S
C4097 C4088 1.429 . S
C4097 N4094 1.350 . S
C4097 C4096 1.434 . S
C4098 C4099 1.369 . S
C4098 C4100 1.419 1_554 S
C4098 H4102 0.930 . S
C4099 C4098 1.369 . S
C4099 C4108 1.429 . S
C4100 C4098 1.419 1_556 S
C4100 C4101 1.363 . S
C4100 H4103 0.933 . S
C4101 C4100 1.363 . S
C4101 C4107 1.428 . S
H4102 C4098 0.930 . S
H4103 C4100 0.933 . S
S4104 N4105 1.613 1_556 S
S4104 N4106 1.610 . S
N4105 S4104 1.613 1_554 S
N4105 C4108 1.350 . S
N4106 S4104 1.610 . S
N4106 C4107 1.351 . S
C4107 C4101 1.428 . S
C4107 N4106 1.351 . S
C4107 C4108 1.434 1_556 S
C4108 C4099 1.429 . S
C4108 N4105 1.350 . S
C4108 C4107 1.434 1_554 S
C4109 C4110 1.369 1_565 S
C4109 C4111 1.419 . S
C4109 H4113 0.930 . S
C4110 C4109 1.369 1_545 S
C4110 C4119 1.429 . S
C4111 C4109 1.419 . S
C4111 C4112 1.363 . S
C4111 H4114 0.929 . S
C4112 C4111 1.363 . S
C4112 C4118 1.428 1_565 S
H4113 C4109 0.930 . S
H4114 C4111 0.929 . S
S4115 N4116 1.613 . S
S4115 N4117 1.610 . S
N4116 S4115 1.613 . S
N4116 C4119 1.350 . S
N4117 S4115 1.610 . S
N4117 C4118 1.351 . S
C4118 C4112 1.428 1_545 S
C4118 N4117 1.351 . S
C4118 C4119 1.434 . S
C4119 C4110 1.429 . S
C4119 N4116 1.350 . S
C4119 C4118 1.434 . S
C4120 C4121 1.369 1_554 S
C4120 C4122 1.419 . S
C4120 H4124 0.930 . S
C4121 C4120 1.369 1_556 S
C4121 C4130 1.429 . S
C4122 C4120 1.419 . S
C4122 C4123 1.363 1_554 S
C4122 H4125 0.929 . S
C4123 C4122 1.363 1_556 S
C4123 C4129 1.428 . S
H4124 C4120 0.930 . S
H4125 C4122 0.929 . S
S4126 N4127 1.613 . S
S4126 N4128 1.610 . S
N4127 S4126 1.613 . S
N4127 C4130 1.350 . S
N4128 S4126 1.610 . S
N4128 C4129 1.351 . S
C4129 C4123 1.428 . S
C4129 N4128 1.351 . S
C4129 C4130 1.434 . S
C4130 C4121 1.429 . S
C4130 N4127 1.350 . S
C4130 C4129 1.434 . S
C4131 C4132 1.369 1_556 S
C4131 C4133 1.419 1_655 S
C4131 H4135 0.930 . S
C4132 C4131 1.369 1_554 S
C4132 C4141 1.429 . S
C4133 C4131 1.419 1_455 S
C4133 C4134 1.363 1_556 S
C4133 H4136 0.929 . S
C4134 C4133 1.363 1_554 S
C4134 C4140 1.428 . S
H4135 C4131 0.930 . S
H4136 C4133 0.929 . S
S4137 N4138 1.611 1_455 S
S4137 N4139 1.613 . S
N4138 S4137 1.611 1_655 S
N4138 C4141 1.350 . S
N4139 S4137 1.613 . S
N4139 C4140 1.351 . S
C4140 C4134 1.428 . S
C4140 N4139 1.351 . S
C4140 C4141 1.434 1_455 S
C4141 C4132 1.429 . S
C4141 N4138 1.350 . S
C4141 C4140 1.434 1_655 S
C4142 C4143 1.369 . S
C4142 C4144 1.419 . S
C4142 H4146 0.930 . S
C4143 C4142 1.369 . S
C4143 C4152 1.429 1_655 S
C4144 C4142 1.419 . S
C4144 C4145 1.363 1_655 S
C4144 H4147 0.929 . S
C4145 C4144 1.363 1_455 S
C4145 C4151 1.428 . S
H4146 C4142 0.930 . S
H4147 C4144 0.929 . S
S4148 N4149 1.613 . S
S4148 N4150 1.610 . S
N4149 S4148 1.613 . S
N4149 C4152 1.350 . S
N4150 S4148 1.610 . S
N4150 C4151 1.351 . S
C4151 C4145 1.428 . S
C4151 N4150 1.351 . S
C4151 C4152 1.434 . S
C4152 C4143 1.429 1_455 S
C4152 N4149 1.350 . S
C4152 C4151 1.434 . S
C4153 C4154 1.369 . S
C4153 C4155 1.419 . S
C4153 H4157 0.930 . S
C4154 C4153 1.369 . S
C4154 C4163 1.429 . S
C4155 C4153 1.419 . S
C4155 C4156 1.363 . S
C4155 H4158 0.929 . S
C4156 C4155 1.363 . S
C4156 C4162 1.428 . S
H4157 C4153 0.930 . S
H4158 C4155 0.929 . S
S4159 N4160 1.613 . S
S4159 N4161 1.610 . S
N4160 S4159 1.613 . S
N4160 C4163 1.350 . S
N4161 S4159 1.610 . S
N4161 C4162 1.351 . S
C4162 C4156 1.428 . S
C4162 N4161 1.351 . S
C4162 C4163 1.434 . S
C4163 C4154 1.429 . S
C4163 N4160 1.350 . S
C4163 C4162 1.434 . S
C4164 C4165 1.369 . S
C4164 C4166 1.419 1_655 S
C4164 H4168 0.930 . S
C4165 C4164 1.369 . S
C4165 C4174 1.429 . S
C4166 C4164 1.419 1_455 S
C4166 C4167 1.363 . S
C4166 H4169 0.929 . S
C4167 C4166 1.363 . S
C4167 C4173 1.428 . S
H4168 C4164 0.930 . S
H4169 C4166 0.929 . S
S4170 N4171 1.613 1_455 S
S4170 N4172 1.610 . S
N4171 S4170 1.613 1_655 S
N4171 C4174 1.350 . S
N4172 S4170 1.610 . S
N4172 C4173 1.351 . S
C4173 C4167 1.428 . S
C4173 N4172 1.351 . S
C4173 C4174 1.434 1_455 S
C4174 C4165 1.429 . S
C4174 N4171 1.350 . S
C4174 C4173 1.434 1_655 S
C4175 C4176 1.369 . S
C4175 C4177 1.419 . S
C4175 H4179 0.930 . S
C4176 C4175 1.369 . S
C4176 C4185 1.429 1_455 S
C4177 C4175 1.419 . S
C4177 C4178 1.363 1_455 S
C4177 H4180 0.929 . S
C4178 C4177 1.363 1_655 S
C4178 C4184 1.428 . S
H4179 C4175 0.930 . S
H4180 C4177 0.929 . S
S4181 N4182 1.613 . S
S4181 N4183 1.610 . S
N4182 S4181 1.613 . S
N4182 C4185 1.350 . S
N4183 S4181 1.610 . S
N4183 C4184 1.351 . S
C4184 C4178 1.428 . S
C4184 N4183 1.351 . S
C4184 C4185 1.434 . S
C4185 C4176 1.429 1_655 S
C4185 N4182 1.350 . S
C4185 C4184 1.434 . S
C4186 C4187 1.369 . S
C4186 C4188 1.419 . S
C4186 H4190 0.930 . S
C4187 C4186 1.369 . S
C4187 C4196 1.429 . S
C4188 C4186 1.419 . S
C4188 C4189 1.363 . S
C4188 H4191 0.929 . S
C4189 C4188 1.363 . S
C4189 C4195 1.428 . S
H4190 C4186 0.930 . S
H4191 C4188 0.929 . S
S4192 N4193 1.613 . S
S4192 N4194 1.610 . S
N4193 S4192 1.613 . S
N4193 C4196 1.350 . S
N4194 S4192 1.610 . S
N4194 C4195 1.351 . S
C4195 C4189 1.428 . S
C4195 N4194 1.351 . S
C4195 C4196 1.434 . S
C4196 C4187 1.429 . S
C4196 N4193 1.350 . S
C4196 C4195 1.434 . S
C4197 C4198 1.369 . S
C4197 C4199 1.419 . S
C4197 H4201 0.930 . S
C4198 C4197 1.369 . S
C4198 C4207 1.422 1_455 S
C4199 C4197 1.419 . S
C4199 C4200 1.363 . S
C4199 H4202 0.929 . S
C4200 C4199 1.363 . S
C4200 C4206 1.428 1_455 S
H4201 C4197 0.930 . S
H4202 C4199 0.929 . S
S4203 N4204 1.613 . S
S4203 N4205 1.610 . S
N4204 S4203 1.613 . S
N4204 C4207 1.356 . S
N4205 S4203 1.610 . S
N4205 C4206 1.351 . S
C4206 C4200 1.428 1_655 S
C4206 N4205 1.351 . S
C4206 C4207 1.435 . S
C4207 C4198 1.422 1_655 S
C4207 N4204 1.356 . S
C4207 C4206 1.435 . S
C4208 C4209 1.369 . S
C4208 C4210 1.419 . S
C4208 H4212 0.930 . S
C4209 C4208 1.369 . S
C4209 C4218 1.429 . S
C4210 C4208 1.419 . S
C4210 C4211 1.363 . S
C4210 H4213 0.929 . S
C4211 C4210 1.363 . S
C4211 C4217 1.428 . S
H4212 C4208 0.930 . S
H4213 C4210 0.929 . S
S4214 N4215 1.613 . S
S4214 N4216 1.610 . S
N4215 S4214 1.613 . S
N4215 C4218 1.350 . S
N4216 S4214 1.610 . S
N4216 C4217 1.351 . S
C4217 C4211 1.428 . S
C4217 N4216 1.351 . S
C4217 C4218 1.434 . S
C4218 C4209 1.429 . S
C4218 N4215 1.350 . S
C4218 C4217 1.434 . S
C4219 C4220 1.369 . S
C4219 C4221 1.419 . S
C4219 H4223 0.930 . S
C4220 C4219 1.369 . S
C4220 C4229 1.429 . S
C4221 C4219 1.419 . S
C4221 C4222 1.363 . S
C4221 H4224 0.929 . S
C4222 C4221 1.363 . S
C4222 C4228 1.428 . S
H4223 C4219 0.930 . S
H4224 C4221 0.929 . S
S4225 N4226 1.613 . S
S4225 N4227 1.610 . S
N4226 S4225 1.613 . S
N4226 C4229 1.350 . S
N4227 S4225 1.610 . S
N4227 C4228 1.351 . S
C4228 C4222 1.428 . S
C4228 N4227 1.351 . S
C4228 C4229 1.434 . S
C4229 C4220 1.429 . S
C4229 N4226 1.350 . S
C4229 C4228 1.434 . S
C4230 C4231 1.369 . S
C4230 C4232 1.419 . S
C4230 H4234 0.930 . S
C4231 C4230 1.369 . S
C4231 C4240 1.429 1_554 S
C4232 C4230 1.419 . S
C4232 C4233 1.363 1_554 S
C4232 H4235 0.929 . S
C4233 C4232 1.363 1_556 S
C4233 C4239 1.428 . S
H4234 C4230 0.930 . S
H4235 C4232 0.929 . S
S4236 N4237 1.613 . S
S4236 N4238 1.610 . S
N4237 S4236 1.613 . S
N4237 C4240 1.350 . S
N4238 S4236 1.610 . S
N4238 C4239 1.351 . S
C4239 C4233 1.428 . S
C4239 N4238 1.351 . S
C4239 C4240 1.434 . S
C4240 C4231 1.429 1_556 S
C4240 N4237 1.350 . S
C4240 C4239 1.434 . S
C4241 C4242 1.369 . S
C4241 C4243 1.419 . S
C4241 H4245 0.930 . S
C4242 C4241 1.369 . S
C4242 C4251 1.429 . S
C4243 C4241 1.419 . S
C4243 C4244 1.363 . S
C4243 H4246 0.929 . S
C4244 C4243 1.363 . S
C4244 C4250 1.428 . S
H4245 C4241 0.930 . S
H4246 C4243 0.929 . S
S4247 N4248 1.613 . S
S4247 N4249 1.610 . S
N4248 S4247 1.613 . S
N4248 C4251 1.350 . S
N4249 S4247 1.610 . S
N4249 C4250 1.351 . S
C4250 C4244 1.428 . S
C4250 N4249 1.351 . S
C4250 C4251 1.434 . S
C4251 C4242 1.429 . S
C4251 N4248 1.350 . S
C4251 C4250 1.434 . S
C4252 C4253 1.369 . S
C4252 C4254 1.419 . S
C4252 H4256 0.930 . S
C4253 C4252 1.369 . S
C4253 C4262 1.429 1_545 S
C4254 C4252 1.419 . S
C4254 C4255 1.363 1_545 S
C4254 H4257 0.929 . S
C4255 C4254 1.363 1_565 S
C4255 C4261 1.428 . S
H4256 C4252 0.930 . S
H4257 C4254 0.929 . S
S4258 N4259 1.613 . S
S4258 N4260 1.610 . S
N4259 S4258 1.613 . S
N4259 C4262 1.350 . S
N4260 S4258 1.610 . S
N4260 C4261 1.351 . S
C4261 C4255 1.428 . S
C4261 N4260 1.351 . S
C4261 C4262 1.434 . S
C4262 C4253 1.429 1_565 S
C4262 N4259 1.350 . S
C4262 C4261 1.434 . S
C4263 C4264 1.374 . S
C4263 C4265 1.419 1_556 S
C4263 H4267 0.926 1_565 S
C4264 C4263 1.374 . S
C4264 C4273 1.429 . S
C4265 C4263 1.419 1_554 S
C4265 C4266 1.367 . S
C4265 H4268 0.925 1_565 S
C4266 C4265 1.367 . S
C4266 C4272 1.428 . S
H4267 C4263 0.926 1_545 S
H4268 C4265 0.925 1_545 S
S4269 N4270 1.613 . S
S4269 N4271 1.610 1_556 S
N4270 S4269 1.613 . S
N4270 C4273 1.350 . S
N4271 S4269 1.610 1_554 S
N4271 C4272 1.351 . S
C4272 C4266 1.428 . S
C4272 N4271 1.351 . S
C4272 C4273 1.434 1_554 S
C4273 C4264 1.429 . S
C4273 N4270 1.350 . S
C4273 C4272 1.434 1_556 S
C4274 C4275 1.369 1_565 S
C4274 C4276 1.419 . S
C4274 H4278 0.930 . S
C4275 C4274 1.369 1_545 S
C4275 C4284 1.429 . S
C4276 C4274 1.419 . S
C4276 C4277 1.363 . S
C4276 H4279 0.929 . S
C4277 C4276 1.363 . S
C4277 C4283 1.428 1_565 S
H4278 C4274 0.930 . S
H4279 C4276 0.929 . S
S4280 N4281 1.613 . S
S4280 N4282 1.610 . S
N4281 S4280 1.613 . S
N4281 C4284 1.350 . S
N4282 S4280 1.610 . S
N4282 C4283 1.351 . S
C4283 C4277 1.428 1_545 S
C4283 N4282 1.351 . S
C4283 C4284 1.434 . S
C4284 C4275 1.429 . S
C4284 N4281 1.350 . S
C4284 C4283 1.434 . S
C4285 C4286 1.369 . S
C4285 C4287 1.419 . S
C4285 H4289 0.930 . S
C4286 C4285 1.369 . S
C4286 C4295 1.429 1_554 S
C4287 C4285 1.419 . S
C4287 C4288 1.363 . S
C4287 H4290 0.929 . S
C4288 C4287 1.363 . S
C4288 C4294 1.428 1_554 S
H4289 C4285 0.930 . S
H4290 C4287 0.929 . S
S4291 N4292 1.613 . S
S4291 N4293 1.610 . S
N4292 S4291 1.613 . S
N4292 C4295 1.350 . S
N4293 S4291 1.610 . S
N4293 C4294 1.351 . S
C4294 C4288 1.428 1_556 S
C4294 N4293 1.351 . S
C4294 C4295 1.434 . S
C4295 C4286 1.429 1_556 S
C4295 N4292 1.350 . S
C4295 C4294 1.434 . S
C4296 C4297 1.369 . S
C4296 C4298 1.419 1_655 S
C4296 H4300 0.930 . S
C4297 C4296 1.369 . S
C4297 C4306 1.429 1_556 S
C4298 C4296 1.419 1_455 S
C4298 C4299 1.363 . S
C4298 H4301 0.929 . S
C4299 C4298 1.363 . S
C4299 C4305 1.428 1_556 S
H4300 C4296 0.930 . S
H4301 C4298 0.929 . S
S4302 N4303 1.613 1_455 S
S4302 N4304 1.610 . S
N4303 S4302 1.613 1_655 S
N4303 C4306 1.350 . S
N4304 S4302 1.610 . S
N4304 C4305 1.351 . S
C4305 C4299 1.428 1_554 S
C4305 N4304 1.351 . S
C4305 C4306 1.434 1_455 S
C4306 C4297 1.429 1_554 S
C4306 N4303 1.350 . S
C4306 C4305 1.434 1_655 S
C4307 C4308 1.369 . S
C4307 C4309 1.419 . S
C4307 H4311 0.930 . S
C4308 C4307 1.369 . S
C4308 C4317 1.429 1_655 S
C4309 C4307 1.419 . S
C4309 C4310 1.363 1_655 S
C4309 H4312 0.929 . S
C4310 C4309 1.363 1_455 S
C4310 C4316 1.428 . S
H4311 C4307 0.930 . S
H4312 C4309 0.929 . S
S4313 N4314 1.613 . S
S4313 N4315 1.610 . S
N4314 S4313 1.613 . S
N4314 C4317 1.350 . S
N4315 S4313 1.610 . S
N4315 C4316 1.351 . S
C4316 C4310 1.428 . S
C4316 N4315 1.351 . S
C4316 C4317 1.434 . S
C4317 C4308 1.429 1_455 S
C4317 N4314 1.350 . S
C4317 C4316 1.434 . S
C4318 C4319 1.369 . S
C4318 C4320 1.419 . S
C4318 H4322 0.930 . S
C4319 C4318 1.369 . S
C4319 C4328 1.429 . S
C4320 C4318 1.419 . S
C4320 C4321 1.363 . S
C4320 H4323 0.929 . S
C4321 C4320 1.363 . S
C4321 C4327 1.428 . S
H4322 C4318 0.930 . S
H4323 C4320 0.929 . S
S4324 N4325 1.613 . S
S4324 N4326 1.610 . S
N4325 S4324 1.613 . S
N4325 C4328 1.350 . S
N4326 S4324 1.610 . S
N4326 C4327 1.351 . S
C4327 C4321 1.428 . S
C4327 N4326 1.351 . S
C4327 C4328 1.434 . S
C4328 C4319 1.429 . S
C4328 N4325 1.350 . S
C4328 C4327 1.434 . S
C4329 C4330 1.369 . S
C4329 C4331 1.419 1_655 S
C4329 H4333 0.930 . S
C4330 C4329 1.369 . S
C4330 C4339 1.429 . S
C4331 C4329 1.419 1_455 S
C4331 C4332 1.363 . S
C4331 H4334 0.929 . S
C4332 C4331 1.363 . S
C4332 C4338 1.428 . S
H4333 C4329 0.930 . S
H4334 C4331 0.929 . S
S4335 N4336 1.613 1_455 S
S4335 N4337 1.610 . S
N4336 S4335 1.613 1_655 S
N4336 C4339 1.350 . S
N4337 S4335 1.610 . S
N4337 C4338 1.351 . S
C4338 C4332 1.428 . S
C4338 N4337 1.351 . S
C4338 C4339 1.434 1_455 S
C4339 C4330 1.429 . S
C4339 N4336 1.350 . S
C4339 C4338 1.434 1_655 S
C4340 C4341 1.369 . S
C4340 C4342 1.419 . S
C4340 H4344 0.930 . S
C4341 C4340 1.369 . S
C4341 C4350 1.429 1_455 S
C4342 C4340 1.419 . S
C4342 C4343 1.363 1_455 S
C4342 H4345 0.929 . S
C4343 C4342 1.363 1_655 S
C4343 C4349 1.428 . S
H4344 C4340 0.930 . S
H4345 C4342 0.929 . S
S4346 N4347 1.613 . S
S4346 N4348 1.610 . S
N4347 S4346 1.613 . S
N4347 C4350 1.350 . S
N4348 S4346 1.610 . S
N4348 C4349 1.351 . S
C4349 C4343 1.428 . S
C4349 N4348 1.351 . S
C4349 C4350 1.434 . S
C4350 C4341 1.429 1_655 S
C4350 N4347 1.350 . S
C4350 C4349 1.434 . S
C4351 C4352 1.369 . S
C4351 C4353 1.419 . S
C4351 H4355 0.930 . S
C4352 C4351 1.369 . S
C4352 C4361 1.429 . S
C4353 C4351 1.419 . S
C4353 C4354 1.363 . S
C4353 H4356 0.929 . S
C4354 C4353 1.363 . S
C4354 C4360 1.428 . S
H4355 C4351 0.930 . S
H4356 C4353 0.929 . S
S4357 N4358 1.613 . S
S4357 N4359 1.610 . S
N4358 S4357 1.613 . S
N4358 C4361 1.350 . S
N4359 S4357 1.610 . S
N4359 C4360 1.351 . S
C4360 C4354 1.428 . S
C4360 N4359 1.351 . S
C4360 C4361 1.434 . S
C4361 C4352 1.429 . S
C4361 N4358 1.350 . S
C4361 C4360 1.434 . S
C4362 C4363 1.369 . S
C4362 C4364 1.419 1_545 S
C4362 H4366 0.930 . S
C4363 C4362 1.369 . S
C4363 C4372 1.429 . S
C4364 C4362 1.419 1_565 S
C4364 C4365 1.363 . S
C4364 H4367 0.929 . S
C4365 C4364 1.363 . S
C4365 C4371 1.428 . S
H4366 C4362 0.930 . S
H4367 C4364 0.929 . S
S4368 N4369 1.613 1_565 S
S4368 N4370 1.610 . S
N4369 S4368 1.613 1_545 S
N4369 C4372 1.350 . S
N4370 S4368 1.610 . S
N4370 C4371 1.351 . S
C4371 C4365 1.428 . S
C4371 N4370 1.351 . S
C4371 C4372 1.434 1_565 S
C4372 C4363 1.429 . S
C4372 N4369 1.350 . S
C4372 C4371 1.434 1_545 S
C4373 C4374 1.369 . S
C4373 C4375 1.419 . S
C4373 H4377 0.930 . S
C4374 C4373 1.369 . S
C4374 C4383 1.429 1_554 S
C4375 C4373 1.419 . S
C4375 C4376 1.363 1_554 S
C4375 H4378 0.929 . S
C4376 C4375 1.363 1_556 S
C4376 C4382 1.428 . S
H4377 C4373 0.930 . S
H4378 C4375 0.929 . S
S4379 N4380 1.613 . S
S4379 N4381 1.610 . S
N4380 S4379 1.613 . S
N4380 C4383 1.350 . S
N4381 S4379 1.610 . S
N4381 C4382 1.351 . S
C4382 C4376 1.428 . S
C4382 N4381 1.351 . S
C4382 C4383 1.434 . S
C4383 C4374 1.429 1_556 S
C4383 N4380 1.350 . S
C4383 C4382 1.434 . S
C4384 C4385 1.369 . S
C4384 C4386 1.419 1_545 S
C4384 H4388 0.930 . S
C4385 C4384 1.369 . S
C4385 C4394 1.429 1_455 S
C4386 C4384 1.419 1_565 S
C4386 C4387 1.363 . S
C4386 H4389 0.929 . S
C4387 C4386 1.363 . S
C4387 C4393 1.428 1_455 S
H4388 C4384 0.930 . S
H4389 C4386 0.929 . S
S4390 N4391 1.613 . S
S4390 N4392 1.610 1_545 S
N4391 S4390 1.613 . S
N4391 C4394 1.350 . S
N4392 S4390 1.610 1_565 S
N4392 C4393 1.351 . S
C4393 C4387 1.428 1_655 S
C4393 N4392 1.351 . S
C4393 C4394 1.434 1_565 S
C4394 C4385 1.429 1_655 S
C4394 N4391 1.350 . S
C4394 C4393 1.434 1_545 S
C4395 C4396 1.369 . S
C4395 C4397 1.419 . S
C4395 H4399 0.930 . S
C4396 C4395 1.369 . S
C4396 C4405 1.429 . S
C4397 C4395 1.419 . S
C4397 C4398 1.363 . S
C4397 H4400 0.929 . S
C4398 C4397 1.363 . S
C4398 C4404 1.428 . S
H4399 C4395 0.930 . S
H4400 C4397 0.929 . S
S4401 N4402 1.613 . S
S4401 N4403 1.610 . S
N4402 S4401 1.613 . S
N4402 C4405 1.350 . S
N4403 S4401 1.610 . S
N4403 C4404 1.351 . S
C4404 C4398 1.428 . S
C4404 N4403 1.351 . S
C4404 C4405 1.434 . S
C4405 C4396 1.429 . S
C4405 N4402 1.350 . S
C4405 C4404 1.434 . S
C4406 C4407 1.369 . S
C4406 C4408 1.419 1_556 S
C4406 H4410 0.930 . S
C4407 C4406 1.369 . S
C4407 C4416 1.429 . S
C4408 C4406 1.419 1_554 S
C4408 C4409 1.363 . S
C4408 H4411 0.929 . S
C4409 C4408 1.363 . S
C4409 C4415 1.428 . S
H4410 C4406 0.930 . S
H4411 C4408 0.929 . S
S4412 N4413 1.613 . S
S4412 N4414 1.610 1_556 S
N4413 S4412 1.613 . S
N4413 C4416 1.350 . S
N4414 S4412 1.610 1_554 S
N4414 C4415 1.351 . S
C4415 C4409 1.428 . S
C4415 N4414 1.351 . S
C4415 C4416 1.434 1_554 S
C4416 C4407 1.429 . S
C4416 N4413 1.350 . S
C4416 C4415 1.434 1_556 S
C4417 C4418 1.369 . S
C4417 C4419 1.419 . S
C4417 H4421 0.930 . S
C4418 C4417 1.369 . S
C4418 C4427 1.429 . S
C4419 C4417 1.419 . S
C4419 C4420 1.363 . S
C4419 H4422 0.929 . S
C4420 C4419 1.363 . S
C4420 C4426 1.428 . S
H4421 C4417 0.930 . S
H4422 C4419 0.929 . S
S4423 N4424 1.613 . S
S4423 N4425 1.610 . S
N4424 S4423 1.613 . S
N4424 C4427 1.350 . S
N4425 S4423 1.610 . S
N4425 C4426 1.351 . S
C4426 C4420 1.428 . S
C4426 N4425 1.351 . S
C4426 C4427 1.434 . S
C4427 C4418 1.429 . S
C4427 N4424 1.350 . S
C4427 C4426 1.434 . S
C4428 C4429 1.369 . S
C4428 C4430 1.419 . S
C4428 H4432 0.930 . S
C4429 C4428 1.369 . S
C4429 C4438 1.429 . S
C4430 C4428 1.419 . S
C4430 C4431 1.363 . S
C4430 H4433 0.929 . S
C4431 C4430 1.363 . S
C4431 C4437 1.428 . S
H4432 C4428 0.930 . S
H4433 C4430 0.929 . S
S4434 N4435 1.613 . S
S4434 N4436 1.610 . S
N4435 S4434 1.613 . S
N4435 C4438 1.350 . S
N4436 S4434 1.610 . S
N4436 C4437 1.351 . S
C4437 C4431 1.428 . S
C4437 N4436 1.351 . S
C4437 C4438 1.434 . S
C4438 C4429 1.429 . S
C4438 N4435 1.350 . S
C4438 C4437 1.434 . S
C4439 C4440 1.369 . S
C4439 C4441 1.419 . S
C4439 H4443 0.930 . S
C4440 C4439 1.369 . S
C4440 C4449 1.429 . S
C4441 C4439 1.419 . S
C4441 C4442 1.363 . S
C4441 H4444 0.929 . S
C4442 C4441 1.363 . S
C4442 C4448 1.428 . S
H4443 C4439 0.930 . S
H4444 C4441 0.929 . S
S4445 N4446 1.613 . S
S4445 N4447 1.610 . S
N4446 S4445 1.613 . S
N4446 C4449 1.350 . S
N4447 S4445 1.610 . S
N4447 C4448 1.351 . S
C4448 C4442 1.428 . S
C4448 N4447 1.351 . S
C4448 C4449 1.434 . S
C4449 C4440 1.429 . S
C4449 N4446 1.350 . S
C4449 C4448 1.434 . S
C4450 C4451 1.369 . S
C4450 C4452 1.419 . S
C4450 H4454 0.930 . S
C4451 C4450 1.369 . S
C4451 C4460 1.429 . S
C4452 C4450 1.419 . S
C4452 C4453 1.363 . S
C4452 H4455 0.929 . S
C4453 C4452 1.363 . S
C4453 C4459 1.428 . S
H4454 C4450 0.930 . S
H4455 C4452 0.929 . S
S4456 N4457 1.613 . S
S4456 N4458 1.610 . S
N4457 S4456 1.613 . S
N4457 C4460 1.350 . S
N4458 S4456 1.610 . S
N4458 C4459 1.351 . S
C4459 C4453 1.428 . S
C4459 N4458 1.351 . S
C4459 C4460 1.434 . S
C4460 C4451 1.429 . S
C4460 N4457 1.350 . S
C4460 C4459 1.434 . S
C4461 C4462 1.369 . S
C4461 C4463 1.419 1_565 S
C4461 H4465 0.930 . S
C4462 C4461 1.369 . S
C4462 C4471 1.429 . S
C4463 C4461 1.419 1_545 S
C4463 C4464 1.363 . S
C4463 H4466 0.929 . S
C4464 C4463 1.363 . S
C4464 C4470 1.428 . S
H4465 C4461 0.930 . S
H4466 C4463 0.929 . S
S4467 N4468 1.613 1_545 S
S4467 N4469 1.610 . S
N4468 S4467 1.613 1_565 S
N4468 C4471 1.350 . S
N4469 S4467 1.610 . S
N4469 C4470 1.351 . S
C4470 C4464 1.428 . S
C4470 N4469 1.351 . S
C4470 C4471 1.434 1_545 S
C4471 C4462 1.429 . S
C4471 N4468 1.350 . S
C4471 C4470 1.434 1_565 S
C4472 C4473 1.369 1_554 S
C4472 C4474 1.419 . S
C4472 H4476 0.930 . S
C4473 C4472 1.369 1_556 S
C4473 C4482 1.429 . S
C4474 C4472 1.419 . S
C4474 C4475 1.363 . S
C4474 H4477 0.929 . S
C4475 C4474 1.363 . S
C4475 C4481 1.428 1_554 S
H4476 C4472 0.930 . S
H4477 C4474 0.929 . S
S4478 N4479 1.613 . S
S4478 N4480 1.610 . S
N4479 S4478 1.613 . S
N4479 C4482 1.350 . S
N4480 S4478 1.610 . S
N4480 C4481 1.351 . S
C4481 C4475 1.428 1_556 S
C4481 N4480 1.351 . S
C4481 C4482 1.434 . S
C4482 C4473 1.429 . S
C4482 N4479 1.350 . S
C4482 C4481 1.434 . S
C4483 C4484 1.369 . S
C4483 C4485 1.419 1_545 S
C4483 H4487 0.930 . S
C4484 C4483 1.369 . S
C4484 C4493 1.429 1_655 S
C4485 C4483 1.419 1_565 S
C4485 C4486 1.363 . S
C4485 H4488 0.929 . S
C4486 C4485 1.363 . S
C4486 C4492 1.428 1_655 S
H4487 C4483 0.930 . S
H4488 C4485 0.929 . S
S4489 N4490 1.613 1_565 S
S4489 N4491 1.610 . S
N4490 S4489 1.613 1_545 S
N4490 C4493 1.350 . S
N4491 S4489 1.610 . S
N4491 C4492 1.351 . S
C4492 C4486 1.428 1_455 S
C4492 N4491 1.351 . S
C4492 C4493 1.434 1_565 S
C4493 C4484 1.429 1_455 S
C4493 N4490 1.350 . S
C4493 C4492 1.434 1_545 S
C4494 C4495 1.369 . S
C4494 C4496 1.419 . S
C4494 H4498 0.930 . S
C4495 C4494 1.369 . S
C4495 C4504 1.429 . S
C4496 C4494 1.419 . S
C4496 C4497 1.363 . S
C4496 H4499 0.929 . S
C4497 C4496 1.363 . S
C4497 C4503 1.428 . S
H4498 C4494 0.930 . S
H4499 C4496 0.929 . S
S4500 N4501 1.613 . S
S4500 N4502 1.610 . S
N4501 S4500 1.613 . S
N4501 C4504 1.350 . S
N4502 S4500 1.610 . S
N4502 C4503 1.351 . S
C4503 C4497 1.428 . S
C4503 N4502 1.351 . S
C4503 C4504 1.434 . S
C4504 C4495 1.429 . S
C4504 N4501 1.350 . S
C4504 C4503 1.434 . S
C4505 C4506 1.369 . S
C4505 C4507 1.419 1_554 S
C4505 H4509 0.930 . S
C4506 C4505 1.369 . S
C4506 C4515 1.429 . S
C4507 C4505 1.419 1_556 S
C4507 C4508 1.363 . S
C4507 H4510 0.929 . S
C4508 C4507 1.363 . S
C4508 C4514 1.428 . S
H4509 C4505 0.930 . S
H4510 C4507 0.929 . S
S4511 N4512 1.613 . S
S4511 N4513 1.610 1_554 S
N4512 S4511 1.613 . S
N4512 C4515 1.350 . S
N4513 S4511 1.610 1_556 S
N4513 C4514 1.351 . S
C4514 C4508 1.428 . S
C4514 N4513 1.351 . S
C4514 C4515 1.434 1_556 S
C4515 C4506 1.429 . S
C4515 N4512 1.350 . S
C4515 C4514 1.434 1_554 S
C4516 C4517 1.369 . S
C4516 C4518 1.419 . S
C4516 H4520 0.930 . S
C4517 C4516 1.369 . S
C4517 C4526 1.429 . S
C4518 C4516 1.419 . S
C4518 C4519 1.363 . S
C4518 H4521 0.929 . S
C4519 C4518 1.363 . S
C4519 C4525 1.428 . S
H4520 C4516 0.930 . S
H4521 C4518 0.929 . S
S4522 N4523 1.613 . S
S4522 N4524 1.610 . S
N4523 S4522 1.613 . S
N4523 C4526 1.350 . S
N4524 S4522 1.610 . S
N4524 C4525 1.351 . S
C4525 C4519 1.428 . S
C4525 N4524 1.351 . S
C4525 C4526 1.434 . S
C4526 C4517 1.429 . S
C4526 N4523 1.350 . S
C4526 C4525 1.434 . S
C4527 C4528 1.369 . S
C4527 C4529 1.419 . S
C4527 H4531 0.930 . S
C4528 C4527 1.369 . S
C4528 C4537 1.429 . S
C4529 C4527 1.419 . S
C4529 C4530 1.363 . S
C4529 H4532 0.929 . S
C4530 C4529 1.363 . S
C4530 C4536 1.428 . S
H4531 C4527 0.930 . S
H4532 C4529 0.929 . S
S4533 N4534 1.613 . S
S4533 N4535 1.610 . S
N4534 S4533 1.613 . S
N4534 C4537 1.350 . S
N4535 S4533 1.610 . S
N4535 C4536 1.351 . S
C4536 C4530 1.428 . S
C4536 N4535 1.351 . S
C4536 C4537 1.434 . S
C4537 C4528 1.429 . S
C4537 N4534 1.350 . S
C4537 C4536 1.434 . S
C4538 C4539 1.369 . S
C4538 C4540 1.419 . S
C4538 H4542 0.930 . S
C4539 C4538 1.369 . S
C4539 C4548 1.429 . S
C4540 C4538 1.419 . S
C4540 C4541 1.363 . S
C4540 H4543 0.929 . S
C4541 C4540 1.363 . S
C4541 C4547 1.428 . S
H4542 C4538 0.930 . S
H4543 C4540 0.929 . S
S4544 N4545 1.613 . S
S4544 N4546 1.610 . S
N4545 S4544 1.613 . S
N4545 C4548 1.350 . S
N4546 S4544 1.610 . S
N4546 C4547 1.351 . S
C4547 C4541 1.428 . S
C4547 N4546 1.351 . S
C4547 C4548 1.434 . S
C4548 C4539 1.429 . S
C4548 N4545 1.350 . S
C4548 C4547 1.434 . S
C4549 C4550 1.369 . S
C4549 C4551 1.419 . S
C4549 H4553 0.930 . S
C4550 C4549 1.369 . S
C4550 C4559 1.429 . S
C4551 C4549 1.419 . S
C4551 C4552 1.363 . S
C4551 H4554 0.929 . S
C4552 C4551 1.363 . S
C4552 C4558 1.428 . S
H4553 C4549 0.930 . S
H4554 C4551 0.929 . S
S4555 N4556 1.613 . S
S4555 N4557 1.610 . S
N4556 S4555 1.613 . S
N4556 C4559 1.350 . S
N4557 S4555 1.610 . S
N4557 C4558 1.351 . S
C4558 C4552 1.428 . S
C4558 N4557 1.351 . S
C4558 C4559 1.434 . S
C4559 C4550 1.429 . S
C4559 N4556 1.350 . S
C4559 C4558 1.434 . S
C4560 C4561 1.369 . S
C4560 C4562 1.419 . S
C4560 H4564 0.930 . S
C4561 C4560 1.369 . S
C4561 C4570 1.429 . S
C4562 C4560 1.419 . S
C4562 C4563 1.363 . S
C4562 H4565 0.929 . S
C4563 C4562 1.363 . S
C4563 C4569 1.428 . S
H4564 C4560 0.930 . S
H4565 C4562 0.929 . S
S4566 N4567 1.613 . S
S4566 N4568 1.610 . S
N4567 S4566 1.613 . S
N4567 C4570 1.350 . S
N4568 S4566 1.610 . S
N4568 C4569 1.351 . S
C4569 C4563 1.428 . S
C4569 N4568 1.351 . S
C4569 C4570 1.434 . S
C4570 C4561 1.429 . S
C4570 N4567 1.350 . S
C4570 C4569 1.434 . S
C4571 C4572 1.369 . S
C4571 C4573 1.419 . S
C4571 H4575 0.930 . S
C4572 C4571 1.369 . S
C4572 C4581 1.429 . S
C4573 C4571 1.419 . S
C4573 C4574 1.363 . S
C4573 H4576 0.929 . S
C4574 C4573 1.363 . S
C4574 C4580 1.428 . S
H4575 C4571 0.930 . S
H4576 C4573 0.929 . S
S4577 N4578 1.613 . S
S4577 N4579 1.610 . S
N4578 S4577 1.613 . S
N4578 C4581 1.350 . S
N4579 S4577 1.610 . S
N4579 C4580 1.351 . S
C4580 C4574 1.428 . S
C4580 N4579 1.351 . S
C4580 C4581 1.434 . S
C4581 C4572 1.429 . S
C4581 N4578 1.350 . S
C4581 C4580 1.434 . S
C4582 C4583 1.369 . S
C4582 C4584 1.419 . S
C4582 H4586 0.930 . S
C4583 C4582 1.369 . S
C4583 C4592 1.429 . S
C4584 C4582 1.419 . S
C4584 C4585 1.363 . S
C4584 H4587 0.929 . S
C4585 C4584 1.363 . S
C4585 C4591 1.428 . S
H4586 C4582 0.930 . S
H4587 C4584 0.929 . S
S4588 N4589 1.613 . S
S4588 N4590 1.610 . S
N4589 S4588 1.613 . S
N4589 C4592 1.350 . S
N4590 S4588 1.610 . S
N4590 C4591 1.351 . S
C4591 C4585 1.428 . S
C4591 N4590 1.351 . S
C4591 C4592 1.434 . S
C4592 C4583 1.429 . S
C4592 N4589 1.350 . S
C4592 C4591 1.434 . S
C4593 C4594 1.369 . S
C4593 C4595 1.419 . S
C4593 H4597 0.930 . S
C4594 C4593 1.369 . S
C4594 C4603 1.429 . S
C4595 C4593 1.419 . S
C4595 C4596 1.363 . S
C4595 H4598 0.929 . S
C4596 C4595 1.363 . S
C4596 C4602 1.428 . S
H4597 C4593 0.930 . S
H4598 C4595 0.929 . S
S4599 N4600 1.613 . S
S4599 N4601 1.610 . S
N4600 S4599 1.613 . S
N4600 C4603 1.350 . S
N4601 S4599 1.610 . S
N4601 C4602 1.351 . S
C4602 C4596 1.428 . S
C4602 N4601 1.351 . S
C4602 C4603 1.434 . S
C4603 C4594 1.429 . S
C4603 N4600 1.350 . S
C4603 C4602 1.434 . S
C4604 C4605 1.369 . S
C4604 C4606 1.419 . S
C4604 H4608 0.930 . S
C4605 C4604 1.369 . S
C4605 C4614 1.429 . S
C4606 C4604 1.419 . S
C4606 C4607 1.363 . S
C4606 H4609 0.929 . S
C4607 C4606 1.363 . S
C4607 C4613 1.428 . S
H4608 C4604 0.930 . S
H4609 C4606 0.929 . S
S4610 N4611 1.613 . S
S4610 N4612 1.610 . S
N4611 S4610 1.613 . S
N4611 C4614 1.350 . S
N4612 S4610 1.610 . S
N4612 C4613 1.351 . S
C4613 C4607 1.428 . S
C4613 N4612 1.351 . S
C4613 C4614 1.434 . S
C4614 C4605 1.429 . S
C4614 N4611 1.350 . S
C4614 C4613 1.434 . S
C4615 C4616 1.369 . S
C4615 C4617 1.419 . S
C4615 H4619 0.930 . S
C4616 C4615 1.369 . S
C4616 C4625 1.429 . S
C4617 C4615 1.419 . S
C4617 C4618 1.363 . S
C4617 H4620 0.929 . S
C4618 C4617 1.363 . S
C4618 C4624 1.428 . S
H4619 C4615 0.930 . S
H4620 C4617 0.929 . S
S4621 N4622 1.613 . S
S4621 N4623 1.610 . S
N4622 S4621 1.613 . S
N4622 C4625 1.350 . S
N4623 S4621 1.610 . S
N4623 C4624 1.351 . S
C4624 C4618 1.428 . S
C4624 N4623 1.351 . S
C4624 C4625 1.434 . S
C4625 C4616 1.429 . S
C4625 N4622 1.350 . S
C4625 C4624 1.434 . S
C4626 C4627 1.369 . S
C4626 C4628 1.419 . S
C4626 H4630 0.930 . S
C4627 C4626 1.369 . S
C4627 C4636 1.429 . S
C4628 C4626 1.419 . S
C4628 C4629 1.363 . S
C4628 H4631 0.929 . S
C4629 C4628 1.363 . S
C4629 C4635 1.428 . S
H4630 C4626 0.930 . S
H4631 C4628 0.929 . S
S4632 N4633 1.613 . S
S4632 N4634 1.610 . S
N4633 S4632 1.613 . S
N4633 C4636 1.350 . S
N4634 S4632 1.610 . S
N4634 C4635 1.351 . S
C4635 C4629 1.428 . S
C4635 N4634 1.351 . S
C4635 C4636 1.434 . S
C4636 C4627 1.429 . S
C4636 N4633 1.350 . S
C4636 C4635 1.434 . S
C4637 C4638 1.369 . S
C4637 C4639 1.419 . S
C4637 H4641 0.930 . S
C4638 C4637 1.369 . S
C4638 C4647 1.429 . S
C4639 C4637 1.419 . S
C4639 C4640 1.363 . S
C4639 H4642 0.929 . S
C4640 C4639 1.363 . S
C4640 C4646 1.428 . S
H4641 C4637 0.930 . S
H4642 C4639 0.929 . S
S4643 N4644 1.613 . S
S4643 N4645 1.610 . S
N4644 S4643 1.613 . S
N4644 C4647 1.350 . S
N4645 S4643 1.610 . S
N4645 C4646 1.351 . S
C4646 C4640 1.428 . S
C4646 N4645 1.351 . S
C4646 C4647 1.434 . S
C4647 C4638 1.429 . S
C4647 N4644 1.350 . S
C4647 C4646 1.434 . S
C4648 C4649 1.369 . S
C4648 C4650 1.419 . S
C4648 H4652 0.930 . S
C4649 C4648 1.369 . S
C4649 C4658 1.429 . S
C4650 C4648 1.419 . S
C4650 C4651 1.363 . S
C4650 H4653 0.929 . S
C4651 C4650 1.363 . S
C4651 C4657 1.428 . S
H4652 C4648 0.930 . S
H4653 C4650 0.929 . S
S4654 N4655 1.613 . S
S4654 N4656 1.610 . S
N4655 S4654 1.613 . S
N4655 C4658 1.350 . S
N4656 S4654 1.610 . S
N4656 C4657 1.351 . S
C4657 C4651 1.428 . S
C4657 N4656 1.351 . S
C4657 C4658 1.434 . S
C4658 C4649 1.429 . S
C4658 N4655 1.350 . S
C4658 C4657 1.434 . S
C4659 C4660 1.369 . S
C4659 C4661 1.419 . S
C4659 H4663 0.930 . S
C4660 C4659 1.369 . S
C4660 C4669 1.429 . S
C4661 C4659 1.419 . S
C4661 C4662 1.363 . S
C4661 H4664 0.929 . S
C4662 C4661 1.363 . S
C4662 C4668 1.428 . S
H4663 C4659 0.930 . S
H4664 C4661 0.929 . S
S4665 N4666 1.613 . S
S4665 N4667 1.610 . S
N4666 S4665 1.613 . S
N4666 C4669 1.350 . S
N4667 S4665 1.610 . S
N4667 C4668 1.351 . S
C4668 C4662 1.428 . S
C4668 N4667 1.351 . S
C4668 C4669 1.434 . S
C4669 C4660 1.429 . S
C4669 N4666 1.350 . S
C4669 C4668 1.434 . S
C4670 C4671 1.369 . S
C4670 C4672 1.419 . S
C4670 H4674 0.930 . S
C4671 C4670 1.369 . S
C4671 C4680 1.429 . S
C4672 C4670 1.419 . S
C4672 C4673 1.363 . S
C4672 H4675 0.929 . S
C4673 C4672 1.363 . S
C4673 C4679 1.428 . S
H4674 C4670 0.930 . S
H4675 C4672 0.929 . S
S4676 N4677 1.613 1_545 S
S4676 N4678 1.610 1_545 S
N4677 S4676 1.613 1_565 S
N4677 C4680 1.350 . S
N4678 S4676 1.610 1_565 S
N4678 C4679 1.351 . S
C4679 C4673 1.428 . S
C4679 N4678 1.351 . S
C4679 C4680 1.434 . S
C4680 C4671 1.429 . S
C4680 N4677 1.350 . S
C4680 C4679 1.434 . S
C4681 C4682 1.369 . S
C4681 C4683 1.419 . S
C4681 H4685 0.930 . S
C4682 C4681 1.369 . S
C4682 C4691 1.429 . S
C4683 C4681 1.419 . S
C4683 C4684 1.363 . S
C4683 H4686 0.929 . S
C4684 C4683 1.363 . S
C4684 C4690 1.428 . S
H4685 C4681 0.930 . S
H4686 C4683 0.929 . S
S4687 N4688 1.613 . S
S4687 N4689 1.610 . S
N4688 S4687 1.613 . S
N4688 C4691 1.350 . S
N4689 S4687 1.610 . S
N4689 C4690 1.351 . S
C4690 C4684 1.428 . S
C4690 N4689 1.351 . S
C4690 C4691 1.434 . S
C4691 C4682 1.429 . S
C4691 N4688 1.350 . S
C4691 C4690 1.434 . S
C4692 C4693 1.369 . S
C4692 C4694 1.419 . S
C4692 H4696 0.930 . S
C4693 C4692 1.369 . S
C4693 C4702 1.429 . S
C4694 C4692 1.419 . S
C4694 C4695 1.363 . S
C4694 H4697 0.929 . S
C4695 C4694 1.363 . S
C4695 C4701 1.428 . S
H4696 C4692 0.930 . S
H4697 C4694 0.929 . S
S4698 N4699 1.613 1_545 S
S4698 N4700 1.610 1_545 S
N4699 S4698 1.613 1_565 S
N4699 C4702 1.350 . S
N4700 S4698 1.610 1_565 S
N4700 C4701 1.351 . S
C4701 C4695 1.428 . S
C4701 N4700 1.351 . S
C4701 C4702 1.434 . S
C4702 C4693 1.429 . S
C4702 N4699 1.350 . S
C4702 C4701 1.434 . S
C4703 C4704 1.369 . S
C4703 C4705 1.419 . S
C4703 H4707 0.930 . S
C4704 C4703 1.369 . S
C4704 C4713 1.429 . S
C4705 C4703 1.419 . S
C4705 C4706 1.363 . S
C4705 H4708 0.929 . S
C4706 C4705 1.363 . S
C4706 C4712 1.428 . S
H4707 C4703 0.930 . S
H4708 C4705 0.929 . S
S4709 N4710 1.613 . S
S4709 N4711 1.610 . S
N4710 S4709 1.613 . S
N4710 C4713 1.350 . S
N4711 S4709 1.610 . S
N4711 C4712 1.351 . S
C4712 C4706 1.428 . S
C4712 N4711 1.351 . S
C4712 C4713 1.434 . S
C4713 C4704 1.429 . S
C4713 N4710 1.350 . S
C4713 C4712 1.434 . S
C4714 C4715 1.369 . S
C4714 C4716 1.419 . S
C4714 H4718 0.930 . S
C4715 C4714 1.369 . S
C4715 C4724 1.429 . S
C4716 C4714 1.419 . S
C4716 C4717 1.363 . S
C4716 H4719 0.929 . S
C4717 C4716 1.363 . S
C4717 C4723 1.428 . S
H4718 C4714 0.930 . S
H4719 C4716 0.929 . S
S4720 N4721 1.613 . S
S4720 N4722 1.610 . S
N4721 S4720 1.613 . S
N4721 C4724 1.350 . S
N4722 S4720 1.610 . S
N4722 C4723 1.351 . S
C4723 C4717 1.428 . S
C4723 N4722 1.351 . S
C4723 C4724 1.434 . S
C4724 C4715 1.429 . S
C4724 N4721 1.350 . S
C4724 C4723 1.434 . S
C4725 C4726 1.369 . S
C4725 C4727 1.419 . S
C4725 H4729 0.930 . S
C4726 C4725 1.369 . S
C4726 C4735 1.429 . S
C4727 C4725 1.419 . S
C4727 C4728 1.363 . S
C4727 H4730 0.929 . S
C4728 C4727 1.363 . S
C4728 C4734 1.428 . S
H4729 C4725 0.930 . S
H4730 C4727 0.929 . S
S4731 N4732 1.613 . S
S4731 N4733 1.610 . S
N4732 S4731 1.613 . S
N4732 C4735 1.350 . S
N4733 S4731 1.610 . S
N4733 C4734 1.351 . S
C4734 C4728 1.428 . S
C4734 N4733 1.351 . S
C4734 C4735 1.434 . S
C4735 C4726 1.429 . S
C4735 N4732 1.350 . S
C4735 C4734 1.434 . S
C4736 C4737 1.369 . S
C4736 C4738 1.419 . S
C4736 H4740 0.930 . S
C4737 C4736 1.369 . S
C4737 C4746 1.429 . S
C4738 C4736 1.419 . S
C4738 C4739 1.363 . S
C4738 H4741 0.929 . S
C4739 C4738 1.363 . S
C4739 C4745 1.428 . S
H4740 C4736 0.930 . S
H4741 C4738 0.929 . S
S4742 N4743 1.613 . S
S4742 N4744 1.610 . S
N4743 S4742 1.613 . S
N4743 C4746 1.350 . S
N4744 S4742 1.610 . S
N4744 C4745 1.351 . S
C4745 C4739 1.428 . S
C4745 N4744 1.351 . S
C4745 C4746 1.434 . S
C4746 C4737 1.429 . S
C4746 N4743 1.350 . S
C4746 C4745 1.434 . S
C4747 C4748 1.369 . S
C4747 C4749 1.419 . S
C4747 H4751 0.930 . S
C4748 C4747 1.369 . S
C4748 C4757 1.429 . S
C4749 C4747 1.419 . S
C4749 C4750 1.363 . S
C4749 H4752 0.929 . S
C4750 C4749 1.363 . S
C4750 C4756 1.428 . S
H4751 C4747 0.930 . S
H4752 C4749 0.929 . S
S4753 N4754 1.613 . S
S4753 N4755 1.610 . S
N4754 S4753 1.613 . S
N4754 C4757 1.350 . S
N4755 S4753 1.610 . S
N4755 C4756 1.351 . S
C4756 C4750 1.428 . S
C4756 N4755 1.351 . S
C4756 C4757 1.434 . S
C4757 C4748 1.429 . S
C4757 N4754 1.350 . S
C4757 C4756 1.434 . S
C4758 C4759 1.369 . S
C4758 C4760 1.419 . S
C4758 H4762 0.930 . S
C4759 C4758 1.369 . S
C4759 C4768 1.429 . S
C4760 C4758 1.419 . S
C4760 C4761 1.363 . S
C4760 H4763 0.929 . S
C4761 C4760 1.363 . S
C4761 C4767 1.428 . S
H4762 C4758 0.930 . S
H4763 C4760 0.929 . S
S4764 N4765 1.613 . S
S4764 N4766 1.610 . S
N4765 S4764 1.613 . S
N4765 C4768 1.350 . S
N4766 S4764 1.610 . S
N4766 C4767 1.351 . S
C4767 C4761 1.428 . S
C4767 N4766 1.351 . S
C4767 C4768 1.434 . S
C4768 C4759 1.429 . S
C4768 N4765 1.350 . S
C4768 C4767 1.434 . S
C4769 C4770 1.369 . S
C4769 C4771 1.419 . S
C4769 H4773 0.930 . S
C4770 C4769 1.369 . S
C4770 C4779 1.429 . S
C4771 C4769 1.419 . S
C4771 C4772 1.363 . S
C4771 H4774 0.929 . S
C4772 C4771 1.363 . S
C4772 C4778 1.428 . S
H4773 C4769 0.930 . S
H4774 C4771 0.929 . S
S4775 N4776 1.613 . S
S4775 N4777 1.610 . S
N4776 S4775 1.613 . S
N4776 C4779 1.350 . S
N4777 S4775 1.610 . S
N4777 C4778 1.351 . S
C4778 C4772 1.428 . S
C4778 N4777 1.351 . S
C4778 C4779 1.434 . S
C4779 C4770 1.429 . S
C4779 N4776 1.350 . S
C4779 C4778 1.434 . S
C4780 C4781 1.369 . S
C4780 C4782 1.419 . S
C4780 H4784 0.930 . S
C4781 C4780 1.369 . S
C4781 C4790 1.429 . S
C4782 C4780 1.419 . S
C4782 C4783 1.363 . S
C4782 H4785 0.929 . S
C4783 C4782 1.363 . S
C4783 C4789 1.428 . S
H4784 C4780 0.930 . S
H4785 C4782 0.929 . S
S4786 N4787 1.613 . S
S4786 N4788 1.610 . S
N4787 S4786 1.613 . S
N4787 C4790 1.350 . S
N4788 S4786 1.610 . S
N4788 C4789 1.351 . S
C4789 C4783 1.428 . S
C4789 N4788 1.351 . S
C4789 C4790 1.434 . S
C4790 C4781 1.429 . S
C4790 N4787 1.350 . S
C4790 C4789 1.434 . S
C4791 C4792 1.369 . S
C4791 C4793 1.419 . S
C4791 H4795 0.930 . S
C4792 C4791 1.369 . S
C4792 C4801 1.429 . S
C4793 C4791 1.419 . S
C4793 C4794 1.363 . S
C4793 H4796 0.929 . S
C4794 C4793 1.363 . S
C4794 C4800 1.428 . S
H4795 C4791 0.930 . S
H4796 C4793 0.929 . S
S4797 N4798 1.613 . S
S4797 N4799 1.610 . S
N4798 S4797 1.613 . S
N4798 C4801 1.350 . S
N4799 S4797 1.610 . S
N4799 C4800 1.351 . S
C4800 C4794 1.428 . S
C4800 N4799 1.351 . S
C4800 C4801 1.434 . S
C4801 C4792 1.429 . S
C4801 N4798 1.350 . S
C4801 C4800 1.434 . S
C4802 C4803 1.369 . S
C4802 C4804 1.419 . S
C4802 H4806 0.930 . S
C4803 C4802 1.369 . S
C4803 C4812 1.429 . S
C4804 C4802 1.419 . S
C4804 C4805 1.363 . S
C4804 H4807 0.929 . S
C4805 C4804 1.363 . S
C4805 C4811 1.428 . S
H4806 C4802 0.930 . S
H4807 C4804 0.929 . S
S4808 N4809 1.613 . S
S4808 N4810 1.610 . S
N4809 S4808 1.613 . S
N4809 C4812 1.350 . S
N4810 S4808 1.610 . S
N4810 C4811 1.351 . S
C4811 C4805 1.428 . S
C4811 N4810 1.351 . S
C4811 C4812 1.434 . S
C4812 C4803 1.429 . S
C4812 N4809 1.350 . S
C4812 C4811 1.434 . S
C4813 C4814 1.369 . S
C4813 C4815 1.419 . S
C4813 H4817 0.930 . S
C4814 C4813 1.369 . S
C4814 C4823 1.429 . S
C4815 C4813 1.419 . S
C4815 C4816 1.363 . S
C4815 H4818 0.929 . S
C4816 C4815 1.363 . S
C4816 C4822 1.428 . S
H4817 C4813 0.930 . S
H4818 C4815 0.929 . S
S4819 N4820 1.613 . S
S4819 N4821 1.610 . S
N4820 S4819 1.613 . S
N4820 C4823 1.350 . S
N4821 S4819 1.610 . S
N4821 C4822 1.351 . S
C4822 C4816 1.428 . S
C4822 N4821 1.351 . S
C4822 C4823 1.434 . S
C4823 C4814 1.429 . S
C4823 N4820 1.350 . S
C4823 C4822 1.434 . S
C4824 C4825 1.369 . S
C4824 C4826 1.419 . S
C4824 H4828 0.930 . S
C4825 C4824 1.369 . S
C4825 C4834 1.429 . S
C4826 C4824 1.419 . S
C4826 C4827 1.363 . S
C4826 H4829 0.929 . S
C4827 C4826 1.363 . S
C4827 C4833 1.428 . S
H4828 C4824 0.930 . S
H4829 C4826 0.929 . S
S4830 N4831 1.613 . S
S4830 N4832 1.610 . S
N4831 S4830 1.613 . S
N4831 C4834 1.350 . S
N4832 S4830 1.610 . S
N4832 C4833 1.351 . S
C4833 C4827 1.428 . S
C4833 N4832 1.351 . S
C4833 C4834 1.434 . S
C4834 C4825 1.429 . S
C4834 N4831 1.350 . S
C4834 C4833 1.434 . S
C4835 C4836 1.369 . S
C4835 C4837 1.419 . S
C4835 H4839 0.930 . S
C4836 C4835 1.369 . S
C4836 C4845 1.429 . S
C4837 C4835 1.419 . S
C4837 C4838 1.363 . S
C4837 H4840 0.929 . S
C4838 C4837 1.363 . S
C4838 C4844 1.428 . S
H4839 C4835 0.930 . S
H4840 C4837 0.929 . S
S4841 N4842 1.613 . S
S4841 N4843 1.610 . S
N4842 S4841 1.613 . S
N4842 C4845 1.350 . S
N4843 S4841 1.610 . S
N4843 C4844 1.351 . S
C4844 C4838 1.428 . S
C4844 N4843 1.351 . S
C4844 C4845 1.434 . S
C4845 C4836 1.429 . S
C4845 N4842 1.350 . S
C4845 C4844 1.434 . S
C4846 C4847 1.369 . S
C4846 C4848 1.419 . S
C4846 H4850 0.930 . S
C4847 C4846 1.369 . S
C4847 C4856 1.429 . S
C4848 C4846 1.419 . S
C4848 C4849 1.363 . S
C4848 H4851 0.929 . S
C4849 C4848 1.363 . S
C4849 C4855 1.428 . S
H4850 C4846 0.930 . S
H4851 C4848 0.929 . S
S4852 N4853 1.613 . S
S4852 N4854 1.610 . S
N4853 S4852 1.613 . S
N4853 C4856 1.350 . S
N4854 S4852 1.610 . S
N4854 C4855 1.351 . S
C4855 C4849 1.428 . S
C4855 N4854 1.351 . S
C4855 C4856 1.434 . S
C4856 C4847 1.429 . S
C4856 N4853 1.350 . S
C4856 C4855 1.434 . S
C4857 C4858 1.369 . S
C4857 C4859 1.419 . S
C4857 H4861 0.930 . S
C4858 C4857 1.369 . S
C4858 C4867 1.429 . S
C4859 C4857 1.419 . S
C4859 C4860 1.363 . S
C4859 H4862 0.929 . S
C4860 C4859 1.363 . S
C4860 C4866 1.428 . S
H4861 C4857 0.930 . S
H4862 C4859 0.929 . S
S4863 N4864 1.613 . S
S4863 N4865 1.610 . S
N4864 S4863 1.613 . S
N4864 C4867 1.350 . S
N4865 S4863 1.610 . S
N4865 C4866 1.351 . S
C4866 C4860 1.428 . S
C4866 N4865 1.351 . S
C4866 C4867 1.434 . S
C4867 C4858 1.429 . S
C4867 N4864 1.350 . S
C4867 C4866 1.434 . S
C4868 C4869 1.369 . S
C4868 C4870 1.419 . S
C4868 H4872 0.930 . S
C4869 C4868 1.369 . S
C4869 C4878 1.429 . S
C4870 C4868 1.419 . S
C4870 C4871 1.363 . S
C4870 H4873 0.929 . S
C4871 C4870 1.363 . S
C4871 C4877 1.428 . S
H4872 C4868 0.930 . S
H4873 C4870 0.929 . S
S4874 N4875 1.613 1_455 S
S4874 N4876 1.610 1_455 S
N4875 S4874 1.613 1_655 S
N4875 C4878 1.350 . S
N4876 S4874 1.610 1_655 S
N4876 C4877 1.351 . S
C4877 C4871 1.428 . S
C4877 N4876 1.351 . S
C4877 C4878 1.434 . S
C4878 C4869 1.429 . S
C4878 N4875 1.350 . S
C4878 C4877 1.434 . S
C4879 C4880 1.369 . S
C4879 C4881 1.419 . S
C4879 H4883 0.930 . S
C4880 C4879 1.369 . S
C4880 C4889 1.429 . S
C4881 C4879 1.419 . S
C4881 C4882 1.363 . S
C4881 H4884 0.929 . S
C4882 C4881 1.363 . S
C4882 C4888 1.428 . S
H4883 C4879 0.930 . S
H4884 C4881 0.929 . S
S4885 N4886 1.613 . S
S4885 N4887 1.610 . S
N4886 S4885 1.613 . S
N4886 C4889 1.350 . S
N4887 S4885 1.610 . S
N4887 C4888 1.351 . S
C4888 C4882 1.428 . S
C4888 N4887 1.351 . S
C4888 C4889 1.434 . S
C4889 C4880 1.429 . S
C4889 N4886 1.350 . S
C4889 C4888 1.434 . S
C4890 C4891 1.369 . S
C4890 C4892 1.419 . S
C4890 H4894 0.930 . S
C4891 C4890 1.369 . S
C4891 C4900 1.429 . S
C4892 C4890 1.419 . S
C4892 C4893 1.363 . S
C4892 H4895 0.929 . S
C4893 C4892 1.363 . S
C4893 C4899 1.428 . S
H4894 C4890 0.930 . S
H4895 C4892 0.929 . S
S4896 N4897 1.613 . S
S4896 N4898 1.610 . S
N4897 S4896 1.613 . S
N4897 C4900 1.350 . S
N4898 S4896 1.610 . S
N4898 C4899 1.351 . S
C4899 C4893 1.428 . S
C4899 N4898 1.351 . S
C4899 C4900 1.434 . S
C4900 C4891 1.429 . S
C4900 N4897 1.350 . S
C4900 C4899 1.434 . S
C4901 C4902 1.369 . S
C4901 C4903 1.419 . S
C4901 H4905 0.930 . S
C4902 C4901 1.369 . S
C4902 C4911 1.429 . S
C4903 C4901 1.419 . S
C4903 C4904 1.363 . S
C4903 H4906 0.929 . S
C4904 C4903 1.363 . S
C4904 C4910 1.428 . S
H4905 C4901 0.930 . S
H4906 C4903 0.929 . S
S4907 N4908 1.613 . S
S4907 N4909 1.610 . S
N4908 S4907 1.613 . S
N4908 C4911 1.350 . S
N4909 S4907 1.610 . S
N4909 C4910 1.351 . S
C4910 C4904 1.428 . S
C4910 N4909 1.351 . S
C4910 C4911 1.434 . S
C4911 C4902 1.429 . S
C4911 N4908 1.350 . S
C4911 C4910 1.434 . S
C4912 C4913 1.369 . S
C4912 C4914 1.419 . S
C4912 H4916 0.930 . S
C4913 C4912 1.369 . S
C4913 C4922 1.429 . S
C4914 C4912 1.419 . S
C4914 C4915 1.363 . S
C4914 H4917 0.929 . S
C4915 C4914 1.363 . S
C4915 C4921 1.428 . S
H4916 C4912 0.930 . S
H4917 C4914 0.929 . S
S4918 N4919 1.613 . S
S4918 N4920 1.610 . S
N4919 S4918 1.613 . S
N4919 C4922 1.350 . S
N4920 S4918 1.610 . S
N4920 C4921 1.351 . S
C4921 C4915 1.428 . S
C4921 N4920 1.351 . S
C4921 C4922 1.434 . S
C4922 C4913 1.429 . S
C4922 N4919 1.350 . S
C4922 C4921 1.434 . S
C4923 C4924 1.369 . S
C4923 C4925 1.419 . S
C4923 H4927 0.930 . S
C4924 C4923 1.369 . S
C4924 C4933 1.429 . S
C4925 C4923 1.419 . S
C4925 C4926 1.363 . S
C4925 H4928 0.929 . S
C4926 C4925 1.363 . S
C4926 C4932 1.428 . S
H4927 C4923 0.930 . S
H4928 C4925 0.929 . S
S4929 N4930 1.613 . S
S4929 N4931 1.610 . S
N4930 S4929 1.613 . S
N4930 C4933 1.350 . S
N4931 S4929 1.610 . S
N4931 C4932 1.351 . S
C4932 C4926 1.428 . S
C4932 N4931 1.351 . S
C4932 C4933 1.434 . S
C4933 C4924 1.429 . S
C4933 N4930 1.350 . S
C4933 C4932 1.434 . S
C4934 C4935 1.369 . S
C4934 C4936 1.419 . S
C4934 H4938 0.930 . S
C4935 C4934 1.369 . S
C4935 C4944 1.429 . S
C4936 C4934 1.419 . S
C4936 C4937 1.363 . S
C4936 H4939 0.929 . S
C4937 C4936 1.363 . S
C4937 C4943 1.428 . S
H4938 C4934 0.930 . S
H4939 C4936 0.929 . S
S4940 N4941 1.613 . S
S4940 N4942 1.610 . S
N4941 S4940 1.613 . S
N4941 C4944 1.350 . S
N4942 S4940 1.610 . S
N4942 C4943 1.351 . S
C4943 C4937 1.428 . S
C4943 N4942 1.351 . S
C4943 C4944 1.434 . S
C4944 C4935 1.429 . S
C4944 N4941 1.350 . S
C4944 C4943 1.434 . S
C4945 C4946 1.369 . S
C4945 C4947 1.419 . S
C4945 H4949 0.930 . S
C4946 C4945 1.369 . S
C4946 C4955 1.429 . S
C4947 C4945 1.419 . S
C4947 C4948 1.363 . S
C4947 H4950 0.929 . S
C4948 C4947 1.363 . S
C4948 C4954 1.428 . S
H4949 C4945 0.930 . S
H4950 C4947 0.929 . S
S4951 N4952 1.613 . S
S4951 N4953 1.610 . S
N4952 S4951 1.613 . S
N4952 C4955 1.350 . S
N4953 S4951 1.610 . S
N4953 C4954 1.351 . S
C4954 C4948 1.428 . S
C4954 N4953 1.351 . S
C4954 C4955 1.434 . S
C4955 C4946 1.429 . S
C4955 N4952 1.350 . S
C4955 C4954 1.434 . S
C4956 C4957 1.369 . S
C4956 C4958 1.419 . S
C4956 H4960 0.930 . S
C4957 C4956 1.369 . S
C4957 C4966 1.429 . S
C4958 C4956 1.419 . S
C4958 C4959 1.363 . S
C4958 H4961 0.929 . S
C4959 C4958 1.363 . S
C4959 C4965 1.428 . S
H4960 C4956 0.930 . S
H4961 C4958 0.929 . S
S4962 N4963 1.613 1_565 S
S4962 N4964 1.610 1_565 S
N4963 S4962 1.613 1_545 S
N4963 C4966 1.350 . S
N4964 S4962 1.610 1_545 S
N4964 C4965 1.351 . S
C4965 C4959 1.428 . S
C4965 N4964 1.351 . S
C4965 C4966 1.434 . S
C4966 C4957 1.429 . S
C4966 N4963 1.350 . S
C4966 C4965 1.434 . S
C4967 C4968 1.369 . S
C4967 C4969 1.419 . S
C4967 H4971 0.930 . S
C4968 C4967 1.369 . S
C4968 C4977 1.429 . S
C4969 C4967 1.419 . S
C4969 C4970 1.363 . S
C4969 H4972 0.929 . S
C4970 C4969 1.363 . S
C4970 C4976 1.428 . S
H4971 C4967 0.930 . S
H4972 C4969 0.929 . S
S4973 N4974 1.613 . S
S4973 N4975 1.610 . S
N4974 S4973 1.613 . S
N4974 C4977 1.350 . S
N4975 S4973 1.610 . S
N4975 C4976 1.351 . S
C4976 C4970 1.428 . S
C4976 N4975 1.351 . S
C4976 C4977 1.434 . S
C4977 C4968 1.429 . S
C4977 N4974 1.350 . S
C4977 C4976 1.434 . S
C4978 C4979 1.369 . S
C4978 C4980 1.419 . S
C4978 H4982 0.930 . S
C4979 C4978 1.369 . S
C4979 C4988 1.429 . S
C4980 C4978 1.419 . S
C4980 C4981 1.363 . S
C4980 H4983 0.929 . S
C4981 C4980 1.363 . S
C4981 C4987 1.428 . S
H4982 C4978 0.930 . S
H4983 C4980 0.929 . S
S4984 N4985 1.613 . S
S4984 N4986 1.610 . S
N4985 S4984 1.613 . S
N4985 C4988 1.350 . S
N4986 S4984 1.610 . S
N4986 C4987 1.351 . S
C4987 C4981 1.428 . S
C4987 N4986 1.351 . S
C4987 C4988 1.434 . S
C4988 C4979 1.429 . S
C4988 N4985 1.350 . S
C4988 C4987 1.434 . S
C4989 C4990 1.369 . S
C4989 C4991 1.419 . S
C4989 H4993 0.930 . S
C4990 C4989 1.369 . S
C4990 C4999 1.429 . S
C4991 C4989 1.419 . S
C4991 C4992 1.363 . S
C4991 H4994 0.929 . S
C4992 C4991 1.363 . S
C4992 C4998 1.428 . S
H4993 C4989 0.930 . S
H4994 C4991 0.929 . S
S4995 N4996 1.613 . S
S4995 N4997 1.610 . S
N4996 S4995 1.613 . S
N4996 C4999 1.350 . S
N4997 S4995 1.610 . S
N4997 C4998 1.351 . S
C4998 C4992 1.428 . S
C4998 N4997 1.351 . S
C4998 C4999 1.434 . S
C4999 C4990 1.429 . S
C4999 N4996 1.350 . S
C4999 C4998 1.434 . S
C5000 C5001 1.369 . S
C5000 C5002 1.419 . S
C5000 H5004 0.930 . S
C5001 C5000 1.369 . S
C5001 C5010 1.429 . S
C5002 C5000 1.419 . S
C5002 C5003 1.363 . S
C5002 H5005 0.929 . S
C5003 C5002 1.363 . S
C5003 C5009 1.428 . S
H5004 C5000 0.930 . S
H5005 C5002 0.929 . S
S5006 N5007 1.613 . S
S5006 N5008 1.610 . S
N5007 S5006 1.613 . S
N5007 C5010 1.350 . S
N5008 S5006 1.610 . S
N5008 C5009 1.351 . S
C5009 C5003 1.428 . S
C5009 N5008 1.351 . S
C5009 C5010 1.434 . S
C5010 C5001 1.429 . S
C5010 N5007 1.350 . S
C5010 C5009 1.434 . S
C5011 C5012 1.369 . S
C5011 C5013 1.419 . S
C5011 H5015 0.930 . S
C5012 C5011 1.369 . S
C5012 C5021 1.429 . S
C5013 C5011 1.419 . S
C5013 C5014 1.363 . S
C5013 H5016 0.929 . S
C5014 C5013 1.363 . S
C5014 C5020 1.428 . S
H5015 C5011 0.930 . S
H5016 C5013 0.929 . S
S5017 N5018 1.613 . S
S5017 N5019 1.610 . S
N5018 S5017 1.613 . S
N5018 C5021 1.350 . S
N5019 S5017 1.610 . S
N5019 C5020 1.351 . S
C5020 C5014 1.428 . S
C5020 N5019 1.351 . S
C5020 C5021 1.434 . S
C5021 C5012 1.429 . S
C5021 N5018 1.350 . S
C5021 C5020 1.434 . S
C5022 C5023 1.369 . S
C5022 C5024 1.419 . S
C5022 H5026 0.930 . S
C5023 C5022 1.369 . S
C5023 C5032 1.429 . S
C5024 C5022 1.419 . S
C5024 C5025 1.363 . S
C5024 H5027 0.929 . S
C5025 C5024 1.363 . S
C5025 C5031 1.428 . S
H5026 C5022 0.930 . S
H5027 C5024 0.929 . S
S5028 N5029 1.613 . S
S5028 N5030 1.610 . S
N5029 S5028 1.613 . S
N5029 C5032 1.350 . S
N5030 S5028 1.610 . S
N5030 C5031 1.351 . S
C5031 C5025 1.428 . S
C5031 N5030 1.351 . S
C5031 C5032 1.434 . S
C5032 C5023 1.429 . S
C5032 N5029 1.350 . S
C5032 C5031 1.434 . S
C5033 C5034 1.369 . S
C5033 C5035 1.419 . S
C5033 H5037 0.930 . S
C5034 C5033 1.369 . S
C5034 C5043 1.429 . S
C5035 C5033 1.419 . S
C5035 C5036 1.363 . S
C5035 H5038 0.929 . S
C5036 C5035 1.363 . S
C5036 C5042 1.428 . S
H5037 C5033 0.930 . S
H5038 C5035 0.929 . S
S5039 N5040 1.613 . S
S5039 N5041 1.610 . S
N5040 S5039 1.613 . S
N5040 C5043 1.350 . S
N5041 S5039 1.610 . S
N5041 C5042 1.351 . S
C5042 C5036 1.428 . S
C5042 N5041 1.351 . S
C5042 C5043 1.434 . S
C5043 C5034 1.429 . S
C5043 N5040 1.350 . S
C5043 C5042 1.434 . S
C5044 C5045 1.369 . S
C5044 C5046 1.419 . S
C5044 H5048 0.930 . S
C5045 C5044 1.369 . S
C5045 C5054 1.429 . S
C5046 C5044 1.419 . S
C5046 C5047 1.363 . S
C5046 H5049 0.929 . S
C5047 C5046 1.363 . S
C5047 C5053 1.428 . S
H5048 C5044 0.930 . S
H5049 C5046 0.929 . S
S5050 N5051 1.613 . S
S5050 N5052 1.610 . S
N5051 S5050 1.613 . S
N5051 C5054 1.350 . S
N5052 S5050 1.610 . S
N5052 C5053 1.351 . S
C5053 C5047 1.428 . S
C5053 N5052 1.351 . S
C5053 C5054 1.434 . S
C5054 C5045 1.429 . S
C5054 N5051 1.350 . S
C5054 C5053 1.434 . S
C5055 C5056 1.369 . S
C5055 C5057 1.419 . S
C5055 H5059 0.930 . S
C5056 C5055 1.369 . S
C5056 C5065 1.429 . S
C5057 C5055 1.419 . S
C5057 C5058 1.363 . S
C5057 H5060 0.929 . S
C5058 C5057 1.363 . S
C5058 C5064 1.428 . S
H5059 C5055 0.930 . S
H5060 C5057 0.929 . S
S5061 N5062 1.613 . S
S5061 N5063 1.610 . S
N5062 S5061 1.613 . S
N5062 C5065 1.350 . S
N5063 S5061 1.610 . S
N5063 C5064 1.351 . S
C5064 C5058 1.428 . S
C5064 N5063 1.351 . S
C5064 C5065 1.434 . S
C5065 C5056 1.429 . S
C5065 N5062 1.350 . S
C5065 C5064 1.434 . S
C5066 C5067 1.369 . S
C5066 C5068 1.419 . S
C5066 H5070 0.930 . S
C5067 C5066 1.369 . S
C5067 C5076 1.429 . S
C5068 C5066 1.419 . S
C5068 C5069 1.363 . S
C5068 H5071 0.929 . S
C5069 C5068 1.363 . S
C5069 C5075 1.428 . S
H5070 C5066 0.930 . S
H5071 C5068 0.929 . S
S5072 N5073 1.613 . S
S5072 N5074 1.610 . S
N5073 S5072 1.613 . S
N5073 C5076 1.350 . S
N5074 S5072 1.610 . S
N5074 C5075 1.351 . S
C5075 C5069 1.428 . S
C5075 N5074 1.351 . S
C5075 C5076 1.434 . S
C5076 C5067 1.429 . S
C5076 N5073 1.350 . S
C5076 C5075 1.434 . S
C5077 C5078 1.369 . S
C5077 C5079 1.419 . S
C5077 H5081 0.930 . S
C5078 C5077 1.369 . S
C5078 C5087 1.429 . S
C5079 C5077 1.419 . S
C5079 C5080 1.363 . S
C5079 H5082 0.929 . S
C5080 C5079 1.363 . S
C5080 C5086 1.428 . S
H5081 C5077 0.930 . S
H5082 C5079 0.929 . S
S5083 N5084 1.613 . S
S5083 N5085 1.610 . S
N5084 S5083 1.613 . S
N5084 C5087 1.350 . S
N5085 S5083 1.610 . S
N5085 C5086 1.351 . S
C5086 C5080 1.428 . S
C5086 N5085 1.351 . S
C5086 C5087 1.434 . S
C5087 C5078 1.429 . S
C5087 N5084 1.350 . S
C5087 C5086 1.434 . S
C5088 C5089 1.369 . S
C5088 C5090 1.419 . S
C5088 H5092 0.930 . S
C5089 C5088 1.369 . S
C5089 C5098 1.429 . S
C5090 C5088 1.419 . S
C5090 C5091 1.363 . S
C5090 H5093 0.929 . S
C5091 C5090 1.363 . S
C5091 C5097 1.428 . S
H5092 C5088 0.930 . S
H5093 C5090 0.929 . S
S5094 N5095 1.613 . S
S5094 N5096 1.610 . S
N5095 S5094 1.613 . S
N5095 C5098 1.350 . S
N5096 S5094 1.610 . S
N5096 C5097 1.351 . S
C5097 C5091 1.428 . S
C5097 N5096 1.351 . S
C5097 C5098 1.434 . S
C5098 C5089 1.429 . S
C5098 N5095 1.350 . S
C5098 C5097 1.434 . S
C5099 C5100 1.369 . S
C5099 C5101 1.419 . S
C5099 H5103 0.930 . S
C5100 C5099 1.369 . S
C5100 C5109 1.429 . S
C5101 C5099 1.419 . S
C5101 C5102 1.363 . S
C5101 H5104 0.929 . S
C5102 C5101 1.363 . S
C5102 C5108 1.428 . S
H5103 C5099 0.930 . S
H5104 C5101 0.929 . S
S5105 N5106 1.613 . S
S5105 N5107 1.610 . S
N5106 S5105 1.613 . S
N5106 C5109 1.350 . S
N5107 S5105 1.610 . S
N5107 C5108 1.351 . S
C5108 C5102 1.428 . S
C5108 N5107 1.351 . S
C5108 C5109 1.434 . S
C5109 C5100 1.429 . S
C5109 N5106 1.350 . S
C5109 C5108 1.434 . S
C5110 C5111 1.369 . S
C5110 C5112 1.419 . S
C5110 H5114 0.930 . S
C5111 C5110 1.369 . S
C5111 C5120 1.429 . S
C5112 C5110 1.419 . S
C5112 C5113 1.363 . S
C5112 H5115 0.929 . S
C5113 C5112 1.363 . S
C5113 C5119 1.428 . S
H5114 C5110 0.930 . S
H5115 C5112 0.929 . S
S5116 N5117 1.613 . S
S5116 N5118 1.610 . S
N5117 S5116 1.613 . S
N5117 C5120 1.350 . S
N5118 S5116 1.610 . S
N5118 C5119 1.351 . S
C5119 C5113 1.428 . S
C5119 N5118 1.351 . S
C5119 C5120 1.434 . S
C5120 C5111 1.429 . S
C5120 N5117 1.350 . S
C5120 C5119 1.434 . S
C5121 C5122 1.369 . S
C5121 C5123 1.419 . S
C5121 H5125 0.930 . S
C5122 C5121 1.369 . S
C5122 C5131 1.429 . S
C5123 C5121 1.419 . S
C5123 C5124 1.363 . S
C5123 H5126 0.929 . S
C5124 C5123 1.363 . S
C5124 C5130 1.428 . S
H5125 C5121 0.930 . S
H5126 C5123 0.929 . S
S5127 N5128 1.613 . S
S5127 N5129 1.610 . S
N5128 S5127 1.613 . S
N5128 C5131 1.350 . S
N5129 S5127 1.610 . S
N5129 C5130 1.351 . S
C5130 C5124 1.428 . S
C5130 N5129 1.351 . S
C5130 C5131 1.434 . S
C5131 C5122 1.429 . S
C5131 N5128 1.350 . S
C5131 C5130 1.434 . S
C5132 C5133 1.369 . S
C5132 C5134 1.419 . S
C5132 H5136 0.930 . S
C5133 C5132 1.369 . S
C5133 C5142 1.429 . S
C5134 C5132 1.419 . S
C5134 C5135 1.363 . S
C5134 H5137 0.929 . S
C5135 C5134 1.363 . S
C5135 C5141 1.428 . S
H5136 C5132 0.930 . S
H5137 C5134 0.929 . S
S5138 N5139 1.613 . S
S5138 N5140 1.610 . S
N5139 S5138 1.613 . S
N5139 C5142 1.350 . S
N5140 S5138 1.610 . S
N5140 C5141 1.351 . S
C5141 C5135 1.428 . S
C5141 N5140 1.351 . S
C5141 C5142 1.434 . S
C5142 C5133 1.429 . S
C5142 N5139 1.350 . S
C5142 C5141 1.434 . S
C5143 C5144 1.369 . S
C5143 C5145 1.419 . S
C5143 H5147 0.930 . S
C5144 C5143 1.369 . S
C5144 C5153 1.429 . S
C5145 C5143 1.419 . S
C5145 C5146 1.363 . S
C5145 H5148 0.929 . S
C5146 C5145 1.363 . S
C5146 C5152 1.428 . S
H5147 C5143 0.930 . S
H5148 C5145 0.929 . S
S5149 N5150 1.613 . S
S5149 N5151 1.610 . S
N5150 S5149 1.613 . S
N5150 C5153 1.350 . S
N5151 S5149 1.610 . S
N5151 C5152 1.351 . S
C5152 C5146 1.428 . S
C5152 N5151 1.351 . S
C5152 C5153 1.434 . S
C5153 C5144 1.429 . S
C5153 N5150 1.350 . S
C5153 C5152 1.434 . S
C5154 C5155 1.369 . S
C5154 C5156 1.419 . S
C5154 H5158 0.930 . S
C5155 C5154 1.369 . S
C5155 C5164 1.429 . S
C5156 C5154 1.419 . S
C5156 C5157 1.363 . S
C5156 H5159 0.929 . S
C5157 C5156 1.363 . S
C5157 C5163 1.428 . S
H5158 C5154 0.930 . S
H5159 C5156 0.929 . S
S5160 N5161 1.613 . S
S5160 N5162 1.610 . S
N5161 S5160 1.613 . S
N5161 C5164 1.350 . S
N5162 S5160 1.610 . S
N5162 C5163 1.351 . S
C5163 C5157 1.428 . S
C5163 N5162 1.351 . S
C5163 C5164 1.434 . S
C5164 C5155 1.429 . S
C5164 N5161 1.350 . S
C5164 C5163 1.434 . S
C5165 C5166 1.369 . S
C5165 C5167 1.419 . S
C5165 H5169 0.930 . S
C5166 C5165 1.369 . S
C5166 C5175 1.429 . S
C5167 C5165 1.419 . S
C5167 C5168 1.363 . S
C5167 H5170 0.929 . S
C5168 C5167 1.363 . S
C5168 C5174 1.428 . S
H5169 C5165 0.930 . S
H5170 C5167 0.929 . S
S5171 N5172 1.613 . S
S5171 N5173 1.610 . S
N5172 S5171 1.613 . S
N5172 C5175 1.350 . S
N5173 S5171 1.610 . S
N5173 C5174 1.351 . S
C5174 C5168 1.428 . S
C5174 N5173 1.351 . S
C5174 C5175 1.434 . S
C5175 C5166 1.429 . S
C5175 N5172 1.350 . S
C5175 C5174 1.434 . S
C5176 C5177 1.369 . S
C5176 C5178 1.419 . S
C5176 H5180 0.930 . S
C5177 C5176 1.369 . S
C5177 C5186 1.429 . S
C5178 C5176 1.419 . S
C5178 C5179 1.363 . S
C5178 H5181 0.929 . S
C5179 C5178 1.363 . S
C5179 C5185 1.428 . S
H5180 C5176 0.930 . S
H5181 C5178 0.929 . S
S5182 N5183 1.613 . S
S5182 N5184 1.610 . S
N5183 S5182 1.613 . S
N5183 C5186 1.350 . S
N5184 S5182 1.610 . S
N5184 C5185 1.351 . S
C5185 C5179 1.428 . S
C5185 N5184 1.351 . S
C5185 C5186 1.434 . S
C5186 C5177 1.429 . S
C5186 N5183 1.350 . S
C5186 C5185 1.434 . S
C5187 C5188 1.369 . S
C5187 C5189 1.419 . S
C5187 H5191 0.930 . S
C5188 C5187 1.369 . S
C5188 C5197 1.429 . S
C5189 C5187 1.419 . S
C5189 C5190 1.363 . S
C5189 H5192 0.929 . S
C5190 C5189 1.363 . S
C5190 C5196 1.428 . S
H5191 C5187 0.930 . S
H5192 C5189 0.929 . S
S5193 N5194 1.613 . S
S5193 N5195 1.610 . S
N5194 S5193 1.613 . S
N5194 C5197 1.350 . S
N5195 S5193 1.610 . S
N5195 C5196 1.351 . S
C5196 C5190 1.428 . S
C5196 N5195 1.351 . S
C5196 C5197 1.434 . S
C5197 C5188 1.429 . S
C5197 N5194 1.350 . S
C5197 C5196 1.434 . S
C5198 C5199 1.369 . S
C5198 C5200 1.419 . S
C5198 H5202 0.930 . S
C5199 C5198 1.369 . S
C5199 C5208 1.429 . S
C5200 C5198 1.419 . S
C5200 C5201 1.363 . S
C5200 H5203 0.929 . S
C5201 C5200 1.363 . S
C5201 C5207 1.428 . S
H5202 C5198 0.930 . S
H5203 C5200 0.929 . S
S5204 N5205 1.613 . S
S5204 N5206 1.610 . S
N5205 S5204 1.613 . S
N5205 C5208 1.350 . S
N5206 S5204 1.610 . S
N5206 C5207 1.351 . S
C5207 C5201 1.428 . S
C5207 N5206 1.351 . S
C5207 C5208 1.434 . S
C5208 C5199 1.429 . S
C5208 N5205 1.350 . S
C5208 C5207 1.434 . S
C5209 C5210 1.369 . S
C5209 C5211 1.419 . S
C5209 H5213 0.930 . S
C5210 C5209 1.369 . S
C5210 C5219 1.429 . S
C5211 C5209 1.419 . S
C5211 C5212 1.363 . S
C5211 H5214 0.929 . S
C5212 C5211 1.363 . S
C5212 C5218 1.428 . S
H5213 C5209 0.930 . S
H5214 C5211 0.929 . S
S5215 N5216 1.613 . S
S5215 N5217 1.610 . S
N5216 S5215 1.613 . S
N5216 C5219 1.350 . S
N5217 S5215 1.610 . S
N5217 C5218 1.351 . S
C5218 C5212 1.428 . S
C5218 N5217 1.351 . S
C5218 C5219 1.434 . S
C5219 C5210 1.429 . S
C5219 N5216 1.350 . S
C5219 C5218 1.434 . S
C5220 C5221 1.369 . S
C5220 C5222 1.419 . S
C5220 H5224 0.930 . S
C5221 C5220 1.369 . S
C5221 C5230 1.429 . S
C5222 C5220 1.419 . S
C5222 C5223 1.363 . S
C5222 H5225 0.929 . S
C5223 C5222 1.363 . S
C5223 C5229 1.428 . S
H5224 C5220 0.930 . S
H5225 C5222 0.929 . S
S5226 N5227 1.613 . S
S5226 N5228 1.610 . S
N5227 S5226 1.613 . S
N5227 C5230 1.350 . S
N5228 S5226 1.610 . S
N5228 C5229 1.351 . S
C5229 C5223 1.428 . S
C5229 N5228 1.351 . S
C5229 C5230 1.434 . S
C5230 C5221 1.429 . S
C5230 N5227 1.350 . S
C5230 C5229 1.434 . S
C5231 C5232 1.369 . S
C5231 C5233 1.419 . S
C5231 H5235 0.930 . S
C5232 C5231 1.369 . S
C5232 C5241 1.429 . S
C5233 C5231 1.419 . S
C5233 C5234 1.363 . S
C5233 H5236 0.929 . S
C5234 C5233 1.363 . S
C5234 C5240 1.428 . S
H5235 C5231 0.930 . S
H5236 C5233 0.929 . S
S5237 N5238 1.613 . S
S5237 N5239 1.610 . S
N5238 S5237 1.613 . S
N5238 C5241 1.350 . S
N5239 S5237 1.610 . S
N5239 C5240 1.351 . S
C5240 C5234 1.428 . S
C5240 N5239 1.351 . S
C5240 C5241 1.434 . S
C5241 C5232 1.429 . S
C5241 N5238 1.350 . S
C5241 C5240 1.434 . S
C5242 C5243 1.369 . S
C5242 C5244 1.419 . S
C5242 H5246 0.930 . S
C5243 C5242 1.369 . S
C5243 C5252 1.429 . S
C5244 C5242 1.419 . S
C5244 C5245 1.363 . S
C5244 H5247 0.929 . S
C5245 C5244 1.363 . S
C5245 C5251 1.428 . S
H5246 C5242 0.930 . S
H5247 C5244 0.929 . S
S5248 N5249 1.613 . S
S5248 N5250 1.610 . S
N5249 S5248 1.613 . S
N5249 C5252 1.350 . S
N5250 S5248 1.610 . S
N5250 C5251 1.351 . S
C5251 C5245 1.428 . S
C5251 N5250 1.351 . S
C5251 C5252 1.434 . S
C5252 C5243 1.429 . S
C5252 N5249 1.350 . S
C5252 C5251 1.434 . S
C5253 C5254 1.369 . S
C5253 C5255 1.419 . S
C5253 H5257 0.930 . S
C5254 C5253 1.369 . S
C5254 C5263 1.429 . S
C5255 C5253 1.419 . S
C5255 C5256 1.363 . S
C5255 H5258 0.929 . S
C5256 C5255 1.363 . S
C5256 C5262 1.428 . S
H5257 C5253 0.930 . S
H5258 C5255 0.929 . S
S5259 N5260 1.613 . S
S5259 N5261 1.610 . S
N5260 S5259 1.613 . S
N5260 C5263 1.350 . S
N5261 S5259 1.610 . S
N5261 C5262 1.351 . S
C5262 C5256 1.428 . S
C5262 N5261 1.351 . S
C5262 C5263 1.434 . S
C5263 C5254 1.429 . S
C5263 N5260 1.350 . S
C5263 C5262 1.434 . S
C5264 C5265 1.369 . S
C5264 C5266 1.419 . S
C5264 H5268 0.930 . S
C5265 C5264 1.369 . S
C5265 C5274 1.429 . S
C5266 C5264 1.419 . S
C5266 C5267 1.363 . S
C5266 H5269 0.929 . S
C5267 C5266 1.363 . S
C5267 C5273 1.428 . S
H5268 C5264 0.930 . S
H5269 C5266 0.929 . S
S5270 N5271 1.613 . S
S5270 N5272 1.610 . S
N5271 S5270 1.613 . S
N5271 C5274 1.350 . S
N5272 S5270 1.610 . S
N5272 C5273 1.351 . S
C5273 C5267 1.428 . S
C5273 N5272 1.351 . S
C5273 C5274 1.434 . S
C5274 C5265 1.429 . S
C5274 N5271 1.350 . S
C5274 C5273 1.434 . S
C5275 C5276 1.369 . S
C5275 C5277 1.419 . S
C5275 H5279 0.930 . S
C5276 C5275 1.369 . S
C5276 C5285 1.429 . S
C5277 C5275 1.419 . S
C5277 C5278 1.363 . S
C5277 H5280 0.929 . S
C5278 C5277 1.363 . S
C5278 C5284 1.428 . S
H5279 C5275 0.930 . S
H5280 C5277 0.929 . S
S5281 N5282 1.613 . S
S5281 N5283 1.610 . S
N5282 S5281 1.613 . S
N5282 C5285 1.350 . S
N5283 S5281 1.610 . S
N5283 C5284 1.351 . S
C5284 C5278 1.428 . S
C5284 N5283 1.351 . S
C5284 C5285 1.434 . S
C5285 C5276 1.429 . S
C5285 N5282 1.350 . S
C5285 C5284 1.434 . S
C5286 C5287 1.369 . S
C5286 C5288 1.419 . S
C5286 H5290 0.930 . S
C5287 C5286 1.369 . S
C5287 C5296 1.429 . S
C5288 C5286 1.419 . S
C5288 C5289 1.363 . S
C5288 H5291 0.929 . S
C5289 C5288 1.363 . S
C5289 C5295 1.428 . S
H5290 C5286 0.930 . S
H5291 C5288 0.929 . S
S5292 N5293 1.613 . S
S5292 N5294 1.610 . S
N5293 S5292 1.613 . S
N5293 C5296 1.350 . S
N5294 S5292 1.610 . S
N5294 C5295 1.351 . S
C5295 C5289 1.428 . S
C5295 N5294 1.351 . S
C5295 C5296 1.434 . S
C5296 C5287 1.429 . S
C5296 N5293 1.350 . S
C5296 C5295 1.434 . S
C5297 C5298 1.369 . S
C5297 C5299 1.419 . S
C5297 H5301 0.930 . S
C5298 C5297 1.369 . S
C5298 C5307 1.429 . S
C5299 C5297 1.419 . S
C5299 C5300 1.363 . S
C5299 H5302 0.929 . S
C5300 C5299 1.363 . S
C5300 C5306 1.428 . S
H5301 C5297 0.930 . S
H5302 C5299 0.929 . S
S5303 N5304 1.613 1_554 S
S5303 N5305 1.610 1_554 S
N5304 S5303 1.613 1_556 S
N5304 C5307 1.350 . S
N5305 S5303 1.610 1_556 S
N5305 C5306 1.351 . S
C5306 C5300 1.428 . S
C5306 N5305 1.351 . S
C5306 C5307 1.434 . S
C5307 C5298 1.429 . S
C5307 N5304 1.350 . S
C5307 C5306 1.434 . S
C5308 C5309 1.369 . S
C5308 C5310 1.419 . S
C5308 H5312 0.930 . S
C5309 C5308 1.369 . S
C5309 C5318 1.429 . S
C5310 C5308 1.419 . S
C5310 C5311 1.363 . S
C5310 H5313 0.929 . S
C5311 C5310 1.363 . S
C5311 C5317 1.428 . S
H5312 C5308 0.930 . S
H5313 C5310 0.929 . S
S5314 N5315 1.613 . S
S5314 N5316 1.610 . S
N5315 S5314 1.613 . S
N5315 C5318 1.350 . S
N5316 S5314 1.610 . S
N5316 C5317 1.351 . S
C5317 C5311 1.428 . S
C5317 N5316 1.351 . S
C5317 C5318 1.434 . S
C5318 C5309 1.429 . S
C5318 N5315 1.350 . S
C5318 C5317 1.434 . S
C5319 C5320 1.369 . S
C5319 C5321 1.419 . S
C5319 H5323 0.930 . S
C5320 C5319 1.369 . S
C5320 C5329 1.429 . S
C5321 C5319 1.419 . S
C5321 C5322 1.363 . S
C5321 H5324 0.929 . S
C5322 C5321 1.363 . S
C5322 C5328 1.428 . S
H5323 C5319 0.930 . S
H5324 C5321 0.929 . S
S5325 N5326 1.613 . S
S5325 N5327 1.610 . S
N5326 S5325 1.613 . S
N5326 C5329 1.350 . S
N5327 S5325 1.610 . S
N5327 C5328 1.351 . S
C5328 C5322 1.428 . S
C5328 N5327 1.351 . S
C5328 C5329 1.434 . S
C5329 C5320 1.429 . S
C5329 N5326 1.350 . S
C5329 C5328 1.434 . S
C5330 C5331 1.369 . S
C5330 C5332 1.419 . S
C5330 H5334 0.930 . S
C5331 C5330 1.369 . S
C5331 C5340 1.429 . S
C5332 C5330 1.419 . S
C5332 C5333 1.363 . S
C5332 H5335 0.929 . S
C5333 C5332 1.363 . S
C5333 C5339 1.428 . S
H5334 C5330 0.930 . S
H5335 C5332 0.929 . S
S5336 N5337 1.613 . S
S5336 N5338 1.610 . S
N5337 S5336 1.613 . S
N5337 C5340 1.350 . S
N5338 S5336 1.610 . S
N5338 C5339 1.351 . S
C5339 C5333 1.428 . S
C5339 N5338 1.351 . S
C5339 C5340 1.434 . S
C5340 C5331 1.429 . S
C5340 N5337 1.350 . S
C5340 C5339 1.434 . S
C5341 C5342 1.369 . S
C5341 C5343 1.419 . S
C5341 H5345 0.930 . S
C5342 C5341 1.369 . S
C5342 C5351 1.429 . S
C5343 C5341 1.419 . S
C5343 C5344 1.363 . S
C5343 H5346 0.929 . S
C5344 C5343 1.363 . S
C5344 C5350 1.428 . S
H5345 C5341 0.930 . S
H5346 C5343 0.929 . S
S5347 N5348 1.613 . S
S5347 N5349 1.610 . S
N5348 S5347 1.613 . S
N5348 C5351 1.350 . S
N5349 S5347 1.610 . S
N5349 C5350 1.351 . S
C5350 C5344 1.428 . S
C5350 N5349 1.351 . S
C5350 C5351 1.434 . S
C5351 C5342 1.429 . S
C5351 N5348 1.350 . S
C5351 C5350 1.434 . S
C5352 C5353 1.369 . S
C5352 C5354 1.419 . S
C5352 H5356 0.930 . S
C5353 C5352 1.369 . S
C5353 C5362 1.429 . S
C5354 C5352 1.419 . S
C5354 C5355 1.363 . S
C5354 H5357 0.929 . S
C5355 C5354 1.363 . S
C5355 C5361 1.428 . S
H5356 C5352 0.930 . S
H5357 C5354 0.929 . S
S5358 N5359 1.613 . S
S5358 N5360 1.610 . S
N5359 S5358 1.613 . S
N5359 C5362 1.350 . S
N5360 S5358 1.610 . S
N5360 C5361 1.351 . S
C5361 C5355 1.428 . S
C5361 N5360 1.351 . S
C5361 C5362 1.434 . S
C5362 C5353 1.429 . S
C5362 N5359 1.350 . S
C5362 C5361 1.434 . S
C5363 C5364 1.369 . S
C5363 C5365 1.419 . S
C5363 H5367 0.930 . S
C5364 C5363 1.369 . S
C5364 C5373 1.429 . S
C5365 C5363 1.419 . S
C5365 C5366 1.363 . S
C5365 H5368 0.929 . S
C5366 C5365 1.363 . S
C5366 C5372 1.428 . S
H5367 C5363 0.930 . S
H5368 C5365 0.929 . S
S5369 N5370 1.613 . S
S5369 N5371 1.610 . S
N5370 S5369 1.613 . S
N5370 C5373 1.350 . S
N5371 S5369 1.610 . S
N5371 C5372 1.351 . S
C5372 C5366 1.428 . S
C5372 N5371 1.351 . S
C5372 C5373 1.434 . S
C5373 C5364 1.429 . S
C5373 N5370 1.350 . S
C5373 C5372 1.434 . S
C5374 C5375 1.369 . S
C5374 C5376 1.419 . S
C5374 H5378 0.930 . S
C5375 C5374 1.369 . S
C5375 C5384 1.429 . S
C5376 C5374 1.419 . S
C5376 C5377 1.363 . S
C5376 H5379 0.929 . S
C5377 C5376 1.363 . S
C5377 C5383 1.428 . S
H5378 C5374 0.930 . S
H5379 C5376 0.929 . S
S5380 N5381 1.613 . S
S5380 N5382 1.610 . S
N5381 S5380 1.613 . S
N5381 C5384 1.350 . S
N5382 S5380 1.610 . S
N5382 C5383 1.351 . S
C5383 C5377 1.428 . S
C5383 N5382 1.351 . S
C5383 C5384 1.434 . S
C5384 C5375 1.429 . S
C5384 N5381 1.350 . S
C5384 C5383 1.434 . S
C5385 C5386 1.369 . S
C5385 C5387 1.419 . S
C5385 H5389 0.930 . S
C5386 C5385 1.369 . S
C5386 C5395 1.429 . S
C5387 C5385 1.419 . S
C5387 C5388 1.363 . S
C5387 H5390 0.929 . S
C5388 C5387 1.363 . S
C5388 C5394 1.428 . S
H5389 C5385 0.930 . S
H5390 C5387 0.929 . S
S5391 N5392 1.613 . S
S5391 N5393 1.610 . S
N5392 S5391 1.613 . S
N5392 C5395 1.350 . S
N5393 S5391 1.610 . S
N5393 C5394 1.351 . S
C5394 C5388 1.428 . S
C5394 N5393 1.351 . S
C5394 C5395 1.434 . S
C5395 C5386 1.429 . S
C5395 N5392 1.350 . S
C5395 C5394 1.434 . S
C5396 C5397 1.369 . S
C5396 C5398 1.419 . S
C5396 H5400 0.930 . S
C5397 C5396 1.369 . S
C5397 C5406 1.429 . S
C5398 C5396 1.419 . S
C5398 C5399 1.363 . S
C5398 H5401 0.929 . S
C5399 C5398 1.363 . S
C5399 C5405 1.428 . S
H5400 C5396 0.930 . S
H5401 C5398 0.929 . S
S5402 N5403 1.613 . S
S5402 N5404 1.610 . S
N5403 S5402 1.613 . S
N5403 C5406 1.350 . S
N5404 S5402 1.610 . S
N5404 C5405 1.351 . S
C5405 C5399 1.428 . S
C5405 N5404 1.351 . S
C5405 C5406 1.434 . S
C5406 C5397 1.429 . S
C5406 N5403 1.350 . S
C5406 C5405 1.434 . S
C5407 C5408 1.369 . S
C5407 C5409 1.419 . S
C5407 H5411 0.930 . S
C5408 C5407 1.369 . S
C5408 C5417 1.429 . S
C5409 C5407 1.419 . S
C5409 C5410 1.363 . S
C5409 H5412 0.929 . S
C5410 C5409 1.363 . S
C5410 C5416 1.428 . S
H5411 C5407 0.930 . S
H5412 C5409 0.929 . S
S5413 N5414 1.613 . S
S5413 N5415 1.610 . S
N5414 S5413 1.613 . S
N5414 C5417 1.350 . S
N5415 S5413 1.610 . S
N5415 C5416 1.351 . S
C5416 C5410 1.428 . S
C5416 N5415 1.351 . S
C5416 C5417 1.434 . S
C5417 C5408 1.429 . S
C5417 N5414 1.350 . S
C5417 C5416 1.434 . S
C5418 C5419 1.369 . S
C5418 C5420 1.419 . S
C5418 H5422 0.930 . S
C5419 C5418 1.369 . S
C5419 C5428 1.429 . S
C5420 C5418 1.419 . S
C5420 C5421 1.363 . S
C5420 H5423 0.929 . S
C5421 C5420 1.363 . S
C5421 C5427 1.428 . S
H5422 C5418 0.930 . S
H5423 C5420 0.929 . S
S5424 N5425 1.613 . S
S5424 N5426 1.610 . S
N5425 S5424 1.613 . S
N5425 C5428 1.350 . S
N5426 S5424 1.610 . S
N5426 C5427 1.351 . S
C5427 C5421 1.428 . S
C5427 N5426 1.351 . S
C5427 C5428 1.434 . S
C5428 C5419 1.429 . S
C5428 N5425 1.350 . S
C5428 C5427 1.434 . S
C5429 C5430 1.369 . S
C5429 C5431 1.419 . S
C5429 H5433 0.930 . S
C5430 C5429 1.369 . S
C5430 C5439 1.429 . S
C5431 C5429 1.419 . S
C5431 C5432 1.363 . S
C5431 H5434 0.929 . S
C5432 C5431 1.363 . S
C5432 C5438 1.428 . S
H5433 C5429 0.930 . S
H5434 C5431 0.929 . S
S5435 N5436 1.613 . S
S5435 N5437 1.610 . S
N5436 S5435 1.613 . S
N5436 C5439 1.350 . S
N5437 S5435 1.610 . S
N5437 C5438 1.351 . S
C5438 C5432 1.428 . S
C5438 N5437 1.351 . S
C5438 C5439 1.434 . S
C5439 C5430 1.429 . S
C5439 N5436 1.350 . S
C5439 C5438 1.434 . S
C5440 C5441 1.369 . S
C5440 C5442 1.419 . S
C5440 H5444 0.930 . S
C5441 C5440 1.369 . S
C5441 C5450 1.429 . S
C5442 C5440 1.419 . S
C5442 C5443 1.363 . S
C5442 H5445 0.929 . S
C5443 C5442 1.363 . S
C5443 C5449 1.428 . S
H5444 C5440 0.930 . S
H5445 C5442 0.929 . S
S5446 N5447 1.613 . S
S5446 N5448 1.610 . S
N5447 S5446 1.613 . S
N5447 C5450 1.350 . S
N5448 S5446 1.610 . S
N5448 C5449 1.351 . S
C5449 C5443 1.428 . S
C5449 N5448 1.351 . S
C5449 C5450 1.434 . S
C5450 C5441 1.429 . S
C5450 N5447 1.350 . S
C5450 C5449 1.434 . S
C5451 C5452 1.369 . S
C5451 C5453 1.419 . S
C5451 H5455 0.930 . S
C5452 C5451 1.369 . S
C5452 C5461 1.429 . S
C5453 C5451 1.419 . S
C5453 C5454 1.363 . S
C5453 H5456 0.929 . S
C5454 C5453 1.363 . S
C5454 C5460 1.428 . S
H5455 C5451 0.930 . S
H5456 C5453 0.929 . S
S5457 N5458 1.613 . S
S5457 N5459 1.610 . S
N5458 S5457 1.613 . S
N5458 C5461 1.350 . S
N5459 S5457 1.610 . S
N5459 C5460 1.351 . S
C5460 C5454 1.428 . S
C5460 N5459 1.351 . S
C5460 C5461 1.434 . S
C5461 C5452 1.429 . S
C5461 N5458 1.350 . S
C5461 C5460 1.434 . S
C5462 C5463 1.369 . S
C5462 C5464 1.419 . S
C5462 H5466 0.930 . S
C5463 C5462 1.369 . S
C5463 C5472 1.429 . S
C5464 C5462 1.419 . S
C5464 C5465 1.363 . S
C5464 H5467 0.929 . S
C5465 C5464 1.363 . S
C5465 C5471 1.428 . S
H5466 C5462 0.930 . S
H5467 C5464 0.929 . S
S5468 N5469 1.613 . S
S5468 N5470 1.610 . S
N5469 S5468 1.613 . S
N5469 C5472 1.350 . S
N5470 S5468 1.610 . S
N5470 C5471 1.351 . S
C5471 C5465 1.428 . S
C5471 N5470 1.351 . S
C5471 C5472 1.434 . S
C5472 C5463 1.429 . S
C5472 N5469 1.350 . S
C5472 C5471 1.434 . S
C5473 C5474 1.369 . S
C5473 C5475 1.419 . S
C5473 H5477 0.930 . S
C5474 C5473 1.369 . S
C5474 C5483 1.429 . S
C5475 C5473 1.419 . S
C5475 C5476 1.363 . S
C5475 H5478 0.929 . S
C5476 C5475 1.363 . S
C5476 C5482 1.428 . S
H5477 C5473 0.930 . S
H5478 C5475 0.929 . S
S5479 N5480 1.613 . S
S5479 N5481 1.610 . S
N5480 S5479 1.613 . S
N5480 C5483 1.350 . S
N5481 S5479 1.610 . S
N5481 C5482 1.351 . S
C5482 C5476 1.428 . S
C5482 N5481 1.351 . S
C5482 C5483 1.434 . S
C5483 C5474 1.429 . S
C5483 N5480 1.350 . S
C5483 C5482 1.434 . S
C5484 C5485 1.369 . S
C5484 C5486 1.419 . S
C5484 H5488 0.930 . S
C5485 C5484 1.369 . S
C5485 C5494 1.429 . S
C5486 C5484 1.419 . S
C5486 C5487 1.363 . S
C5486 H5489 0.929 . S
C5487 C5486 1.363 . S
C5487 C5493 1.428 . S
H5488 C5484 0.930 . S
H5489 C5486 0.929 . S
S5490 N5491 1.613 . S
S5490 N5492 1.610 . S
N5491 S5490 1.613 . S
N5491 C5494 1.350 . S
N5492 S5490 1.610 . S
N5492 C5493 1.351 . S
C5493 C5487 1.428 . S
C5493 N5492 1.351 . S
C5493 C5494 1.434 . S
C5494 C5485 1.429 . S
C5494 N5491 1.350 . S
C5494 C5493 1.434 . S
C5495 C5496 1.369 . S
C5495 C5497 1.419 . S
C5495 H5499 0.930 . S
C5496 C5495 1.369 . S
C5496 C5505 1.429 . S
C5497 C5495 1.419 . S
C5497 C5498 1.363 . S
C5497 H5500 0.929 . S
C5498 C5497 1.363 . S
C5498 C5504 1.428 . S
H5499 C5495 0.930 . S
H5500 C5497 0.929 . S
S5501 N5502 1.613 . S
S5501 N5503 1.610 . S
N5502 S5501 1.613 . S
N5502 C5505 1.350 . S
N5503 S5501 1.610 . S
N5503 C5504 1.351 . S
C5504 C5498 1.428 . S
C5504 N5503 1.351 . S
C5504 C5505 1.434 . S
C5505 C5496 1.429 . S
C5505 N5502 1.350 . S
C5505 C5504 1.434 . S
C5506 C5507 1.369 . S
C5506 C5508 1.419 . S
C5506 H5510 0.930 . S
C5507 C5506 1.369 . S
C5507 C5516 1.429 . S
C5508 C5506 1.419 . S
C5508 C5509 1.363 . S
C5508 H5511 0.929 . S
C5509 C5508 1.363 . S
C5509 C5515 1.428 . S
H5510 C5506 0.930 . S
H5511 C5508 0.929 . S
S5512 N5513 1.613 . S
S5512 N5514 1.610 . S
N5513 S5512 1.613 . S
N5513 C5516 1.350 . S
N5514 S5512 1.610 . S
N5514 C5515 1.351 . S
C5515 C5509 1.428 . S
C5515 N5514 1.351 . S
C5515 C5516 1.434 . S
C5516 C5507 1.429 . S
C5516 N5513 1.350 . S
C5516 C5515 1.434 . S
C5517 C5518 1.369 . S
C5517 C5519 1.419 . S
C5517 H5521 0.930 . S
C5518 C5517 1.369 . S
C5518 C5527 1.429 . S
C5519 C5517 1.419 . S
C5519 C5520 1.363 . S
C5519 H5522 0.929 . S
C5520 C5519 1.363 . S
C5520 C5526 1.428 . S
H5521 C5517 0.930 . S
H5522 C5519 0.929 . S
S5523 N5524 1.613 . S
S5523 N5525 1.610 . S
N5524 S5523 1.613 . S
N5524 C5527 1.350 . S
N5525 S5523 1.610 . S
N5525 C5526 1.351 . S
C5526 C5520 1.428 . S
C5526 N5525 1.351 . S
C5526 C5527 1.434 . S
C5527 C5518 1.429 . S
C5527 N5524 1.350 . S
C5527 C5526 1.434 . S
C5528 C5529 1.369 . S
C5528 C5530 1.419 . S
C5528 H5532 0.930 . S
C5529 C5528 1.369 . S
C5529 C5538 1.429 . S
C5530 C5528 1.419 . S
C5530 C5531 1.363 . S
C5530 H5533 0.929 . S
C5531 C5530 1.363 . S
C5531 C5537 1.428 . S
H5532 C5528 0.930 . S
H5533 C5530 0.929 . S
S5534 N5535 1.613 . S
S5534 N5536 1.610 . S
N5535 S5534 1.613 . S
N5535 C5538 1.350 . S
N5536 S5534 1.610 . S
N5536 C5537 1.351 . S
C5537 C5531 1.428 . S
C5537 N5536 1.351 . S
C5537 C5538 1.434 . S
C5538 C5529 1.429 . S
C5538 N5535 1.350 . S
C5538 C5537 1.434 . S
C5539 C5540 1.369 . S
C5539 C5541 1.419 . S
C5539 H5543 0.930 . S
C5540 C5539 1.369 . S
C5540 C5549 1.429 . S
C5541 C5539 1.419 . S
C5541 C5542 1.363 . S
C5541 H5544 0.929 . S
C5542 C5541 1.363 . S
C5542 C5548 1.428 . S
H5543 C5539 0.930 . S
H5544 C5541 0.929 . S
S5545 N5546 1.613 . S
S5545 N5547 1.610 . S
N5546 S5545 1.613 . S
N5546 C5549 1.350 . S
N5547 S5545 1.610 . S
N5547 C5548 1.351 . S
C5548 C5542 1.428 . S
C5548 N5547 1.351 . S
C5548 C5549 1.434 . S
C5549 C5540 1.429 . S
C5549 N5546 1.350 . S
C5549 C5548 1.434 . S
C5550 C5551 1.369 . S
C5550 C5552 1.419 . S
C5550 H5554 0.930 . S
C5551 C5550 1.369 . S
C5551 C5560 1.429 . S
C5552 C5550 1.419 . S
C5552 C5553 1.363 . S
C5552 H5555 0.929 . S
C5553 C5552 1.363 . S
C5553 C5559 1.428 . S
H5554 C5550 0.930 . S
H5555 C5552 0.929 . S
S5556 N5557 1.613 . S
S5556 N5558 1.610 . S
N5557 S5556 1.613 . S
N5557 C5560 1.350 . S
N5558 S5556 1.610 . S
N5558 C5559 1.351 . S
C5559 C5553 1.428 . S
C5559 N5558 1.351 . S
C5559 C5560 1.434 . S
C5560 C5551 1.429 . S
C5560 N5557 1.350 . S
C5560 C5559 1.434 . S
C5561 C5562 1.369 . S
C5561 C5563 1.419 . S
C5561 H5565 0.930 . S
C5562 C5561 1.369 . S
C5562 C5571 1.429 . S
C5563 C5561 1.419 . S
C5563 C5564 1.363 . S
C5563 H5566 0.929 . S
C5564 C5563 1.363 . S
C5564 C5570 1.428 . S
H5565 C5561 0.930 . S
H5566 C5563 0.929 . S
S5567 N5568 1.613 . S
S5567 N5569 1.610 . S
N5568 S5567 1.613 . S
N5568 C5571 1.350 . S
N5569 S5567 1.610 . S
N5569 C5570 1.351 . S
C5570 C5564 1.428 . S
C5570 N5569 1.351 . S
C5570 C5571 1.434 . S
C5571 C5562 1.429 . S
C5571 N5568 1.350 . S
C5571 C5570 1.434 . S
C5572 C5573 1.369 . S
C5572 C5574 1.419 . S
C5572 H5576 0.930 . S
C5573 C5572 1.369 . S
C5573 C5582 1.429 . S
C5574 C5572 1.419 . S
C5574 C5575 1.363 . S
C5574 H5577 0.929 . S
C5575 C5574 1.363 . S
C5575 C5581 1.428 . S
H5576 C5572 0.930 . S
H5577 C5574 0.929 . S
S5578 N5579 1.613 . S
S5578 N5580 1.610 . S
N5579 S5578 1.613 . S
N5579 C5582 1.350 . S
N5580 S5578 1.610 . S
N5580 C5581 1.351 . S
C5581 C5575 1.428 . S
C5581 N5580 1.351 . S
C5581 C5582 1.434 . S
C5582 C5573 1.429 . S
C5582 N5579 1.350 . S
C5582 C5581 1.434 . S
C5583 C5584 1.369 . S
C5583 C5585 1.419 . S
C5583 H5587 0.930 . S
C5584 C5583 1.369 . S
C5584 C5593 1.429 . S
C5585 C5583 1.419 . S
C5585 C5586 1.363 . S
C5585 H5588 0.929 . S
C5586 C5585 1.363 . S
C5586 C5592 1.428 . S
H5587 C5583 0.930 . S
H5588 C5585 0.929 . S
S5589 N5590 1.613 . S
S5589 N5591 1.610 . S
N5590 S5589 1.613 . S
N5590 C5593 1.350 . S
N5591 S5589 1.610 . S
N5591 C5592 1.351 . S
C5592 C5586 1.428 . S
C5592 N5591 1.351 . S
C5592 C5593 1.434 . S
C5593 C5584 1.429 . S
C5593 N5590 1.350 . S
C5593 C5592 1.434 . S
C5594 C5595 1.369 . S
C5594 C5596 1.419 . S
C5594 H5598 0.930 . S
C5595 C5594 1.369 . S
C5595 C5604 1.429 . S
C5596 C5594 1.419 . S
C5596 C5597 1.363 . S
C5596 H5599 0.929 . S
C5597 C5596 1.363 . S
C5597 C5603 1.428 . S
H5598 C5594 0.930 . S
H5599 C5596 0.929 . S
S5600 N5601 1.613 . S
S5600 N5602 1.610 . S
N5601 S5600 1.613 . S
N5601 C5604 1.350 . S
N5602 S5600 1.610 . S
N5602 C5603 1.351 . S
C5603 C5597 1.428 . S
C5603 N5602 1.351 . S
C5603 C5604 1.434 . S
C5604 C5595 1.429 . S
C5604 N5601 1.350 . S
C5604 C5603 1.434 . S
C5605 C5606 1.369 . S
C5605 C5607 1.419 . S
C5605 H5609 0.930 . S
C5606 C5605 1.369 . S
C5606 C5615 1.429 . S
C5607 C5605 1.419 . S
C5607 C5608 1.363 . S
C5607 H5610 0.929 . S
C5608 C5607 1.363 . S
C5608 C5614 1.428 . S
H5609 C5605 0.930 . S
H5610 C5607 0.929 . S
S5611 N5612 1.613 . S
S5611 N5613 1.610 . S
N5612 S5611 1.613 . S
N5612 C5615 1.350 . S
N5613 S5611 1.610 . S
N5613 C5614 1.351 . S
C5614 C5608 1.428 . S
C5614 N5613 1.351 . S
C5614 C5615 1.434 . S
C5615 C5606 1.429 . S
C5615 N5612 1.350 . S
C5615 C5614 1.434 . S
C4033 C55 3.335 1_655 S
C4035 C391 3.327 1_655 S
C4044 C139 3.334 . S
C4046 C475 3.328 . S
C4055 C559 3.343 . S
C4057 C224 3.450 . S
C4066 C643 3.370 . S
C4068 C307 3.374 . S
C4077 C728 3.517 . S
C4079 C812 3.517 . S
C4088 C811 3.355 . S
C4090 C896 3.473 . S
C4099 C979 3.383 1_545 S
C4101 C895 3.378 1_545 S
C4110 C980 3.514 . S
C4112 C727 3.391 . S
C4121 C1064 3.468 . S
C4123 C308 3.466 . S
C4132 C644 3.440 . S
C4134 C2828 3.435 . S
C4143 C392 3.432 . S
C4145 C1148 3.435 . S
C4154 C476 3.421 . S
C4156 C2912 3.430 . S
C4165 C140 3.460 . S
C4167 C1232 3.460 . S
C4176 C2659 3.315 . S
C4178 C56 3.429 . S
C4187 C2576 3.421 . S
C4189 C223 3.299 . S
C4198 C1663 3.333 1_455 S
C4200 C1327 3.333 1_455 S
C4209 C1411 3.305 . S
C4211 C1747 3.310 . S
C4220 C1496 3.452 . S
C4222 C1831 3.341 . S
C4231 C1579 3.366 . S
C4233 C1915 3.371 . S
C4242 C2083 3.379 1_545 S
C4244 C2000 3.504 . S
C4253 C2084 3.488 . S
C4255 C2168 3.493 . S
C4264 C2251 3.387 1_565 S
C4266 C2167 3.390 1_565 S
C4275 C1999 3.386 . S
C4277 C2252 3.498 . S
C4286 C1580 3.469 . S
C4288 C2336 3.467 . S
C4297 C3596 3.437 . S
C4299 C1916 3.436 . S
C4308 C2420 3.422 . S
C4310 C1664 3.429 . S
C4319 C1748 3.430 . S
C4321 C3680 3.439 . S
C4330 C2504 3.470 . S
C4332 C1412 3.462 . S
C4341 C1328 3.416 . S
C4343 C3427 3.305 . S
C4352 C1495 3.302 . S
C4354 C3344 3.422 . S
C4363 C2743 3.329 . S
C4365 C2575 3.331 . S
C4374 C2827 3.306 . S
C4376 C1063 3.311 . S
C4385 C2660 3.431 . S
C4387 C1147 3.320 1_455 S
C4396 C2911 3.371 . S
C4398 C1231 3.367 . S
C4407 C2996 3.518 . S
C4409 C3080 3.519 . S
C4418 C3079 3.359 . S
C4420 C3164 3.475 . S
C4429 C3247 3.377 . S
C4431 C3163 3.377 . S
C4440 C2995 3.387 . S
C4442 C3248 3.512 . S
C4451 C560 3.430 . S
C4453 C2744 3.425 . S
C4462 C3511 3.324 . S
C4464 C3343 3.326 . S
C4473 C3595 3.317 . S
C4475 C2335 3.312 . S
C4484 C2419 3.339 1_655 S
C4486 C3428 3.446 . S
C4495 C3679 3.376 . S
C4497 C2503 3.373 . S
C4506 C3764 3.515 . S
C4508 C3848 3.515 . S
C4517 C3847 3.356 . S
C4519 C3932 3.480 . S
C4528 C3931 3.384 . S
C4530 C4015 3.379 . S
C4539 C4016 3.512 . S
C4541 C3763 3.390 . S
C4550 C3512 3.431 . S
C4552 C1832 3.426 . S
C4561 C67 1.092 . S
C4563 C1402 0.877 . S
C4572 C3430 1.180 . S
C4574 C151 1.134 . S
C4583 C236 1.050 . S
C4585 C1570 0.871 . S
C4594 C319 1.073 . S
C4596 C3334 0.886 . S
C4605 C403 1.101 . S
C4607 C1906 0.887 . S
C4616 C487 1.099 . S
C4618 C3502 0.896 . S
C4627 C571 1.112 . S
C4629 C1738 0.909 . S
C4638 C2410 0.901 . S
C4640 C655 1.123 . S
C4649 C740 1.055 . S
C4651 C3346 1.155 . S
C4660 C823 1.151 . S
C4662 C1414 1.189 . S
C4671 C907 1.080 . S
C4673 C3418 0.909 . S
C4682 C1582 1.138 . S
C4684 C992 1.046 . S
C4693 C3514 1.161 . S
C4695 C991 1.118 . S
C4704 C1750 1.204 . S
C4706 C739 1.162 . S
C4715 C824 1.115 . S
C4717 C2422 1.200 . S
C4726 C1918 1.149 . S
C4728 C908 1.063 . S
C4737 C3754 0.895 . S
C4739 C1076 1.060 . S
C4748 C2254 1.131 . S
C4750 C656 1.047 . S
C4759 C404 1.076 . S
C4761 C3766 1.173 . S
C4770 C488 1.108 . S
C4772 C2086 1.201 . S
C4781 C1160 1.055 . S
C4783 C2158 0.908 . S
C4792 C3934 1.154 . S
C4794 C1244 1.066 . S
C4803 C68 1.029 . S
C4805 C4006 0.871 . S
C4814 C235 1.148 . S
C4816 C3850 1.196 . S
C4825 C154 0.886 . S
C4827 C1315 1.092 . S
C4836 C1399 1.134 . S
C4838 C2662 1.181 . S
C4847 C1484 1.028 . S
C4849 C322 0.884 . S
C4858 C1567 1.064 . S
C4860 C2590 0.892 . S
C4869 C658 0.912 . S
C4871 C1651 1.100 . S
C4880 C2758 0.909 . S
C4882 C1735 1.096 . S
C4891 C490 0.896 . S
C4893 C1819 1.116 . S
C4902 C1903 1.104 . S
C4904 C1162 0.915 . S
C4913 C1988 1.054 . S
C4915 C2578 1.150 . S
C4924 C142 1.192 . S
C4926 C2072 1.106 . S
C4935 C2155 1.098 . S
C4937 C2674 0.902 . S
C4946 C310 1.139 . S
C4948 C2240 1.047 . S
C4957 C2746 1.167 . S
C4959 C2239 1.119 . S
C4968 C1987 1.150 . S
C4970 C478 1.185 . S
C4979 C2071 1.145 . S
C4981 C1150 1.195 . S
C4990 C646 1.157 . S
C4992 C2156 1.060 . S
C5001 C2324 1.060 . S
C5003 C3010 0.915 . S
C5012 C982 1.134 . S
C5014 C1904 1.057 . S
C5023 C2998 1.176 . S
C5025 C1652 1.082 . S
C5034 C1736 1.077 . S
C5036 C826 0.917 . S
C5045 C2408 1.054 . S
C5047 C910 0.906 . S
C5056 C3166 1.140 . S
C5058 C2492 1.058 . S
C5067 C1316 1.028 . S
C5069 C3262 0.872 . S
C5078 C3082 1.189 . S
C5080 C1483 1.160 . S
C5089 C2326 0.879 . S
C5091 C2587 1.087 . S
C5100 C1075 1.141 . S
C5102 C1498 1.175 . S
C5111 C2494 0.870 . S
C5113 C2672 1.045 . S
C5122 C1243 1.073 . S
C5124 C1318 0.887 . S
C5133 C2755 1.109 . S
C5135 C3670 0.889 . S
C5144 C1654 0.898 . S
C5146 C2839 1.097 . S
C5155 C1159 1.110 . S
C5157 C3586 0.912 . S
C5166 C1822 0.920 . S
C5168 C2923 1.112 . S
C5177 C3008 1.062 . S
C5179 C1330 1.158 . S
C5188 C3091 1.141 . S
C5190 C2338 1.189 . S
C5199 C3175 1.083 . S
C5201 C1486 0.904 . S
C5210 C2506 1.136 . S
C5212 C3260 1.044 . S
C5221 C1666 1.149 . S
C5223 C3259 1.113 . S
C5232 C3007 1.152 . S
C5234 C3598 1.202 . S
C5243 C1834 1.206 . S
C5245 C3092 1.104 . S
C5254 C3176 1.048 . S
C5256 C3682 1.145 . S
C5265 C152 1.041 . S
C5267 C1990 0.911 . S
C5276 C4018 1.138 . S
C5278 C2924 1.047 . S
C5287 C2756 1.075 . S
C5289 C2002 1.157 . S
C5298 C2840 1.073 . S
C5300 C3838 0.921 . S
C5309 C3922 0.904 . S
C5311 C572 1.043 . S
C5320 C2170 1.163 . S
C5322 C320 1.064 . S
C5331 C2588 1.027 . S
C5333 C2242 0.870 . S
C5342 C2074 0.923 . S
C5344 C2671 1.117 . S
C5353 C1078 0.874 . S
C5355 C3331 1.088 . S
C5364 C2323 1.129 . S
C5366 C226 1.176 . S
C5375 C1246 0.873 . S
C5377 C3416 1.050 . S
C5386 C2491 1.077 . S
C5388 C70 0.885 . S
C5397 C3499 1.105 . S
C5399 C2926 0.881 . S
C5408 C406 0.882 . S
C5410 C3583 1.105 . S
C5419 C2842 0.920 . S
C5421 C2407 1.112 . S
C5430 C574 0.898 . S
C5432 C3667 1.122 . S
C5441 C58 1.157 . S
C5443 C3752 1.059 . S
C5452 C3835 1.157 . S
C5454 C1066 1.189 . S
C5463 C238 0.908 . S
C5465 C3919 1.083 . S
C5474 C1234 1.141 . S
C5476 C4004 1.048 . S
C5485 C394 1.157 . S
C5487 C4003 1.111 . S
C5496 C2830 1.202 . S
C5498 C3751 1.165 . S
C5507 C3836 1.109 . S
C5509 C562 1.202 . S
C5518 C2914 1.141 . S
C5520 C3920 1.049 . S
C5529 C742 0.915 . S
C5531 C1400 1.065 . S
C5540 C3668 1.059 . S
C5542 C3250 1.132 . S
C5551 C3500 1.088 . S
C5553 C730 1.180 . S
C5562 C3094 0.922 . S
C5564 C3584 1.076 . S
C5573 C1820 1.050 . S
C5575 C3178 0.910 . S
C5584 C1568 1.063 . S
C5586 C898 1.144 . S
C5595 C994 0.890 . S
C5597 C3332 1.014 . S
C5606 C814 1.196 . S
C5608 C3415 1.150 . S
