# Generated by pormake.
# Topology lcv-e, (6)-cn, num edge types: 1
# Building blocks:
#     Node 0, Type 0, BuildingBlock: KUMJIN_clean_sbu_1, # of connection points: 6
#     Node 1, Type 0, BuildingBlock: KUMJIN_clean_sbu_1, # of connection points: 6
#     Node 2, Type 0, BuildingBlock: KUMJIN_clean_sbu_1, # of connection points: 6
#     Node 3, Type 0, BuildingBlock: KUMJIN_clean_sbu_1, # of connection points: 6
#     Node 4, Type 0, BuildingBlock: KUMJIN_clean_sbu_1, # of connection points: 6
#     Node 5, Type 0, BuildingBlock: KUMJIN_clean_sbu_1, # of connection points: 6
#     Node 6, Type 0, BuildingBlock: KUMJIN_clean_sbu_1, # of connection points: 6
#     Node 7, Type 0, BuildingBlock: KUMJIN_clean_sbu_1, # of connection points: 6
#     Node 8, Type 0, BuildingBlock: KUMJIN_clean_sbu_1, # of connection points: 6
#     Node 9, Type 0, BuildingBlock: KUMJIN_clean_sbu_1, # of connection points: 6
#     Node 10, Type 0, BuildingBlock: KUMJIN_clean_sbu_1, # of connection points: 6
#     Node 11, Type 0, BuildingBlock: KUMJIN_clean_sbu_1, # of connection points: 6
#     Node 12, Type 0, BuildingBlock: KUMJIN_clean_sbu_1, # of connection points: 6
#     Node 13, Type 0, BuildingBlock: KUMJIN_clean_sbu_1, # of connection points: 6
#     Node 14, Type 0, BuildingBlock: KUMJIN_clean_sbu_1, # of connection points: 6
#     Node 15, Type 0, BuildingBlock: KUMJIN_clean_sbu_1, # of connection points: 6
#     Node 16, Type 0, BuildingBlock: KUMJIN_clean_sbu_1, # of connection points: 6
#     Node 17, Type 0, BuildingBlock: KUMJIN_clean_sbu_1, # of connection points: 6
#     Node 18, Type 0, BuildingBlock: KUMJIN_clean_sbu_1, # of connection points: 6
#     Node 19, Type 0, BuildingBlock: KUMJIN_clean_sbu_1, # of connection points: 6
#     Node 20, Type 0, BuildingBlock: KUMJIN_clean_sbu_1, # of connection points: 6
#     Node 21, Type 0, BuildingBlock: KUMJIN_clean_sbu_1, # of connection points: 6
#     Node 22, Type 0, BuildingBlock: KUMJIN_clean_sbu_1, # of connection points: 6
#     Node 23, Type 0, BuildingBlock: KUMJIN_clean_sbu_1, # of connection points: 6
#     Edge 24, Type (0, 0), BuildingBlock: XIVTED_clean_linker_0, # of connection points: 2
#     Edge 25, Type (0, 0), BuildingBlock: XIVTED_clean_linker_0, # of connection points: 2
#     Edge 26, Type (0, 0), BuildingBlock: XIVTED_clean_linker_0, # of connection points: 2
#     Edge 27, Type (0, 0), BuildingBlock: XIVTED_clean_linker_0, # of connection points: 2
#     Edge 28, Type (0, 0), BuildingBlock: XIVTED_clean_linker_0, # of connection points: 2
#     Edge 29, Type (0, 0), BuildingBlock: XIVTED_clean_linker_0, # of connection points: 2
#     Edge 30, Type (0, 0), BuildingBlock: XIVTED_clean_linker_0, # of connection points: 2
#     Edge 31, Type (0, 0), BuildingBlock: XIVTED_clean_linker_0, # of connection points: 2
#     Edge 32, Type (0, 0), BuildingBlock: XIVTED_clean_linker_0, # of connection points: 2
#     Edge 33, Type (0, 0), BuildingBlock: XIVTED_clean_linker_0, # of connection points: 2
#     Edge 34, Type (0, 0), BuildingBlock: XIVTED_clean_linker_0, # of connection points: 2
#     Edge 35, Type (0, 0), BuildingBlock: XIVTED_clean_linker_0, # of connection points: 2
#     Edge 36, Type (0, 0), BuildingBlock: XIVTED_clean_linker_0, # of connection points: 2
#     Edge 37, Type (0, 0), BuildingBlock: XIVTED_clean_linker_0, # of connection points: 2
#     Edge 38, Type (0, 0), BuildingBlock: XIVTED_clean_linker_0, # of connection points: 2
#     Edge 39, Type (0, 0), BuildingBlock: XIVTED_clean_linker_0, # of connection points: 2
#     Edge 40, Type (0, 0), BuildingBlock: XIVTED_clean_linker_0, # of connection points: 2
#     Edge 41, Type (0, 0), BuildingBlock: XIVTED_clean_linker_0, # of connection points: 2
#     Edge 42, Type (0, 0), BuildingBlock: XIVTED_clean_linker_0, # of connection points: 2
#     Edge 43, Type (0, 0), BuildingBlock: XIVTED_clean_linker_0, # of connection points: 2
#     Edge 44, Type (0, 0), BuildingBlock: XIVTED_clean_linker_0, # of connection points: 2
#     Edge 45, Type (0, 0), BuildingBlock: XIVTED_clean_linker_0, # of connection points: 2
#     Edge 46, Type (0, 0), BuildingBlock: XIVTED_clean_linker_0, # of connection points: 2
#     Edge 47, Type (0, 0), BuildingBlock: XIVTED_clean_linker_0, # of connection points: 2
#     Edge 48, Type (0, 0), BuildingBlock: XIVTED_clean_linker_0, # of connection points: 2
#     Edge 49, Type (0, 0), BuildingBlock: XIVTED_clean_linker_0, # of connection points: 2
#     Edge 50, Type (0, 0), BuildingBlock: XIVTED_clean_linker_0, # of connection points: 2
#     Edge 51, Type (0, 0), BuildingBlock: XIVTED_clean_linker_0, # of connection points: 2
#     Edge 52, Type (0, 0), BuildingBlock: XIVTED_clean_linker_0, # of connection points: 2
#     Edge 53, Type (0, 0), BuildingBlock: XIVTED_clean_linker_0, # of connection points: 2
#     Edge 54, Type (0, 0), BuildingBlock: XIVTED_clean_linker_0, # of connection points: 2
#     Edge 55, Type (0, 0), BuildingBlock: XIVTED_clean_linker_0, # of connection points: 2
#     Edge 56, Type (0, 0), BuildingBlock: XIVTED_clean_linker_0, # of connection points: 2
#     Edge 57, Type (0, 0), BuildingBlock: XIVTED_clean_linker_0, # of connection points: 2
#     Edge 58, Type (0, 0), BuildingBlock: XIVTED_clean_linker_0, # of connection points: 2
#     Edge 59, Type (0, 0), BuildingBlock: XIVTED_clean_linker_0, # of connection points: 2
#     Edge 60, Type (0, 0), BuildingBlock: XIVTED_clean_linker_0, # of connection points: 2
#     Edge 61, Type (0, 0), BuildingBlock: XIVTED_clean_linker_0, # of connection points: 2
#     Edge 62, Type (0, 0), BuildingBlock: XIVTED_clean_linker_0, # of connection points: 2
#     Edge 63, Type (0, 0), BuildingBlock: XIVTED_clean_linker_0, # of connection points: 2
#     Edge 64, Type (0, 0), BuildingBlock: XIVTED_clean_linker_0, # of connection points: 2
#     Edge 65, Type (0, 0), BuildingBlock: XIVTED_clean_linker_0, # of connection points: 2
#     Edge 66, Type (0, 0), BuildingBlock: XIVTED_clean_linker_0, # of connection points: 2
#     Edge 67, Type (0, 0), BuildingBlock: XIVTED_clean_linker_0, # of connection points: 2
#     Edge 68, Type (0, 0), BuildingBlock: XIVTED_clean_linker_0, # of connection points: 2
#     Edge 69, Type (0, 0), BuildingBlock: XIVTED_clean_linker_0, # of connection points: 2
#     Edge 70, Type (0, 0), BuildingBlock: XIVTED_clean_linker_0, # of connection points: 2
#     Edge 71, Type (0, 0), BuildingBlock: XIVTED_clean_linker_0, # of connection points: 2
#     Edge 72, Type (0, 0), BuildingBlock: XIVTED_clean_linker_0, # of connection points: 2
#     Edge 73, Type (0, 0), BuildingBlock: XIVTED_clean_linker_0, # of connection points: 2
#     Edge 74, Type (0, 0), BuildingBlock: XIVTED_clean_linker_0, # of connection points: 2
#     Edge 75, Type (0, 0), BuildingBlock: XIVTED_clean_linker_0, # of connection points: 2
#     Edge 76, Type (0, 0), BuildingBlock: XIVTED_clean_linker_0, # of connection points: 2
#     Edge 77, Type (0, 0), BuildingBlock: XIVTED_clean_linker_0, # of connection points: 2
#     Edge 78, Type (0, 0), BuildingBlock: XIVTED_clean_linker_0, # of connection points: 2
#     Edge 79, Type (0, 0), BuildingBlock: XIVTED_clean_linker_0, # of connection points: 2
#     Edge 80, Type (0, 0), BuildingBlock: XIVTED_clean_linker_0, # of connection points: 2
#     Edge 81, Type (0, 0), BuildingBlock: XIVTED_clean_linker_0, # of connection points: 2
#     Edge 82, Type (0, 0), BuildingBlock: XIVTED_clean_linker_0, # of connection points: 2
#     Edge 83, Type (0, 0), BuildingBlock: XIVTED_clean_linker_0, # of connection points: 2
#     Edge 84, Type (0, 0), BuildingBlock: XIVTED_clean_linker_0, # of connection points: 2
#     Edge 85, Type (0, 0), BuildingBlock: XIVTED_clean_linker_0, # of connection points: 2
#     Edge 86, Type (0, 0), BuildingBlock: XIVTED_clean_linker_0, # of connection points: 2
#     Edge 87, Type (0, 0), BuildingBlock: XIVTED_clean_linker_0, # of connection points: 2
#     Edge 88, Type (0, 0), BuildingBlock: XIVTED_clean_linker_0, # of connection points: 2
#     Edge 89, Type (0, 0), BuildingBlock: XIVTED_clean_linker_0, # of connection points: 2
#     Edge 90, Type (0, 0), BuildingBlock: XIVTED_clean_linker_0, # of connection points: 2
#     Edge 91, Type (0, 0), BuildingBlock: XIVTED_clean_linker_0, # of connection points: 2
#     Edge 92, Type (0, 0), BuildingBlock: XIVTED_clean_linker_0, # of connection points: 2
#     Edge 93, Type (0, 0), BuildingBlock: XIVTED_clean_linker_0, # of connection points: 2
#     Edge 94, Type (0, 0), BuildingBlock: XIVTED_clean_linker_0, # of connection points: 2
#     Edge 95, Type (0, 0), BuildingBlock: XIVTED_clean_linker_0, # of connection points: 2
# Relax obj value: 0.484
# Max RMSD: 0.305
# Mean RMSD: 0.290
data_MOF--net-lcv-e--node1-KUMJIN_clean_sbu_1--edge1-XIVTED_clean_linker_0
_symmetry_space_group_name_H-M    P1
_symmetry_Int_Tables_number       1
_symmetry_cell_setting            triclinic
loop_
_symmetry_equiv_pos_as_xyz
'x, y, z'
_cell_length_a     61.687848
_cell_length_b     61.700623
_cell_length_c     61.891286
_cell_angle_alpha  90.036075
_cell_angle_beta   89.944334
_cell_angle_gamma 90.036825
loop_
_atom_site_label
_atom_site_type_symbol
_atom_site_fract_x
_atom_site_fract_y
_atom_site_fract_z
_atom_type_partial_charge
Eu0 Eu 0.10355 0.25952 0.30335 0.0
C1 C 0.03514 0.21785 0.25428 0.0
N2 N 0.05367 0.21742 0.24256 0.0
C3 C 0.04101 0.1863 0.22305 0.0
C4 C 1.01853 0.20254 0.25062 0.0
C5 C 0.05703 0.20172 0.22737 0.0
C6 C 1.02158 0.18681 0.2346 0.0
C7 C 1.01504 0.23241 0.28458 0.0
C8 C 0.0335 0.23258 0.27103 0.0
C9 C 0.99805 0.21784 0.28044 0.0
C10 C 0.99982 0.20289 0.26352 0.0
Eu11 Eu 0.08067 0.24315 0.25079 0.0
N12 N 0.05067 0.24576 0.27519 0.0
C13 C 1.01461 0.24615 0.30252 0.0
C14 C 0.05076 0.25797 0.29352 0.0
C15 C 0.03273 0.25874 0.3072 0.0
H16 H 0.07222 0.20084 0.21875 0.0
H17 H 0.03306 0.26855 0.32169 0.0
H18 H 0.06395 0.29315 0.32261 0.0
H19 H 0.19153 0.2668 0.3142 0.0
H20 H 0.06512 0.26607 0.29833 0.0
H21 H 1.00082 0.24643 0.31336 0.0
H22 H 0.15739 0.24789 0.30601 0.0
H23 H 0.04375 0.17391 0.21097 0.0
H24 H 0.98378 0.21754 0.29066 0.0
H25 H 0.98688 0.19131 0.26091 0.0
H26 H 0.06093 0.33008 0.33731 0.0
H27 H 1.00928 0.17469 0.2314 0.0
H28 H 0.19094 0.30514 0.32569 0.0
N29 N 0.09812 0.29486 0.31781 0.0
C30 C 0.11659 0.30629 0.32195 0.0
C31 C 0.07663 0.3237 0.3328 0.0
C32 C 0.11553 0.32744 0.33068 0.0
C33 C 0.0784 0.30278 0.32435 0.0
C34 C 0.09523 0.33622 0.33563 0.0
N35 N 0.13745 0.27547 0.31199 0.0
C36 C 0.15683 0.2647 0.31081 0.0
C37 C 0.15596 0.30769 0.324 0.0
C38 C 0.13669 0.2964 0.31885 0.0
C39 C 0.17585 0.29699 0.32191 0.0
C40 C 0.17625 0.27534 0.31548 0.0
H41 H 0.0938 0.35237 0.34238 0.0
H42 H 0.13414 0.35519 0.34154 0.0
H43 H 0.16949 0.33798 0.33553 0.0
O44 O 0.11932 0.24797 0.33224 0.0
O45 O 0.12927 0.26267 0.27652 0.0
O46 O 0.10538 0.2701 0.25013 0.0
O47 O 0.08468 0.25502 0.33325 0.0
O48 O 0.12355 0.23152 0.29176 0.0
O49 O 0.11227 0.22327 0.2571 0.0
O50 O 0.06598 0.25074 0.21945 0.0
O51 O 0.08257 0.21142 0.26955 0.0
O52 O 0.08254 0.22596 0.3037 0.0
O53 O 0.09615 0.23328 0.22075 0.0
O54 O 0.06932 0.27958 0.2554 0.0
O55 O 0.0892 0.29087 0.28489 0.0
C56 C 0.12536 0.26868 0.25659 0.0
C57 C 0.10512 0.25515 0.36644 0.0
C58 C 0.12027 0.24519 0.40145 0.0
C59 C 0.11754 0.26673 0.40843 0.0
C60 C 0.10264 0.27658 0.3735 0.0
C61 C 0.10867 0.28226 0.39454 0.0
C62 C 0.11357 0.23957 0.38052 0.0
C63 C 0.12549 0.22039 0.27383 0.0
C64 C 0.10181 0.24851 0.34396 0.0
C65 C 0.13471 0.33889 0.33501 0.0
C66 C 0.15485 0.32908 0.33163 0.0
C67 C 0.08032 0.20855 0.29052 0.0
C68 C 0.09472 0.26168 0.19644 0.0
C69 C 0.10622 0.29955 0.19281 0.0
C70 C 0.12082 0.29294 0.17646 0.0
C71 C 0.10909 0.25566 0.18 0.0
C72 C 0.09379 0.28345 0.2031 0.0
C73 C 0.12221 0.27123 0.17022 0.0
C74 C 0.07599 0.29569 0.26832 0.0
C75 C 0.08334 0.24489 0.2089 0.0
H76 H 0.12278 0.2717 0.42438 0.0
H77 H 0.09647 0.28892 0.36281 0.0
H78 H 0.10691 0.29886 0.39993 0.0
H79 H 0.11541 0.22303 0.37486 0.0
H80 H 0.13054 0.30448 0.16758 0.0
H81 H 0.11059 0.23885 0.17517 0.0
H82 H 0.08317 0.2878 0.21627 0.0
H83 H 0.13337 0.2665 0.15756 0.0
Eu84 Eu 0.0381 0.85014 0.54711 0.0
C85 C 0.07787 0.77449 0.51276 0.0
N86 N 0.08037 0.79115 0.49871 0.0
C87 C 0.11119 0.77383 0.48269 0.0
C88 C 0.09215 0.75665 0.51228 0.0
C89 C 0.09672 0.79121 0.48384 0.0
C90 C 0.10887 0.75644 0.49695 0.0
C91 C 0.05891 0.75869 0.54324 0.0
C92 C 0.06135 0.77559 0.52801 0.0
C93 C 0.07285 0.74072 0.54256 0.0
C94 C 0.08942 0.7397 0.52713 0.0
Eu95 Eu 0.05421 0.81871 0.49992 0.0
N96 N 0.04813 0.7933 0.52837 0.0
C97 C 0.04269 0.76043 0.55892 0.0
C98 C 0.03272 0.7951 0.54401 0.0
C99 C 0.02965 0.77882 0.55939 0.0
H100 H 0.09853 0.80474 0.47288 0.0
H101 H 1.01729 0.78057 0.5717 0.0
H102 H 0.99647 0.82021 0.5677 0.0
H103 H 0.04846 0.93833 0.5515 0.0
H104 H 1.02297 0.80914 0.54508 0.0
H105 H 0.04032 0.74785 0.57089 0.0
H106 H 0.06085 0.90054 0.54882 0.0
H107 H 0.12414 0.77388 0.47088 0.0
H108 H 0.07109 0.7276 0.55406 0.0
H109 H 0.10016 0.72582 0.52695 0.0
H110 H 0.95841 0.82582 0.57847 0.0
H111 H 0.12015 0.74302 0.49609 0.0
H112 H 1.00966 0.94637 0.5573 0.0
N113 N 1.00149 0.85311 0.55844 0.0
C114 C 0.99368 0.87372 0.55945 0.0
C115 C 0.96803 0.83937 0.57284 0.0
C116 C 0.972 0.87765 0.56569 0.0
C117 C 0.98958 0.83624 0.56663 0.0
C118 C 0.95903 0.86008 0.57185 0.0
N119 N 0.02919 0.88708 0.55225 0.0
C120 C 0.04382 0.90371 0.55116 0.0
C121 C 1.00017 0.91259 0.55803 0.0
C122 C 1.0078 0.8911 0.55604 0.0
C123 C 1.01494 0.92968 0.55592 0.0
C124 C 0.03688 0.92521 0.55272 0.0
H125 H 0.94235 0.86247 0.5768 0.0
H126 H 0.94754 0.90225 0.57111 0.0
H127 H 0.97209 0.9328 0.56411 0.0
O128 O 0.04235 0.86439 0.57935 0.0
O129 O 0.03779 0.87302 0.51819 0.0
O130 O 0.03179 0.84684 0.49304 0.0
O131 O 0.03882 0.82883 0.57505 0.0
O132 O 0.06948 0.86485 0.53528 0.0
O133 O 0.07562 0.85021 0.50111 0.0
O134 O 0.06056 0.82544 0.46575 0.0
O135 O 0.08584 0.82091 0.5188 0.0
O136 O 0.07215 0.83072 0.55197 0.0
O137 O 0.04992 0.79374 0.47548 0.0
O138 O 1.01684 0.81194 0.5031 0.0
O139 O 1.00662 0.83784 0.52764 0.0
C140 C 0.03378 0.86729 0.49816 0.0
C141 C 0.0417 0.84187 0.61178 0.0
C142 C 0.05651 0.85092 0.64706 0.0
C143 C 0.04326 0.83496 0.65645 0.0
C144 C 0.02857 0.82598 0.62137 0.0
C145 C 0.02924 0.8227 0.64365 0.0
C146 C 0.0554 0.85458 0.6247 0.0
C147 C 0.08001 0.86457 0.51672 0.0
C148 C 0.04081 0.84526 0.58837 0.0
C149 C 0.96422 0.899 0.56664 0.0
C150 C 0.97823 0.9164 0.56272 0.0
C151 C 0.08874 0.82315 0.53976 0.0
C152 C 0.03558 0.80692 0.4438 0.0
C153 C 0.99819 0.81582 0.4354 0.0
C154 C 0.99968 0.80279 0.41677 0.0
C155 C 0.03701 0.79434 0.42504 0.0
C156 C 1.01616 0.81768 0.44887 0.0
C157 C 1.01903 0.79228 0.41155 0.0
C158 C 1.00106 0.82292 0.51291 0.0
C159 C 0.05327 0.80671 0.45938 0.0
H160 H 0.04373 0.83205 0.67371 0.0
H161 H 1.01766 0.81627 0.61164 0.0
H162 H 1.01898 0.81053 0.65101 0.0
H163 H 0.06566 0.86679 0.61731 0.0
H164 H 0.98609 0.80131 0.40588 0.0
H165 H 0.05184 0.78579 0.4211 0.0
H166 H 1.01484 0.82742 0.46326 0.0
H167 H 1.02007 0.78256 0.39702 0.0
Eu168 Eu 0.46661 0.79943 0.74485 0.0
C169 C 0.46236 0.74006 0.82271 0.0
N170 N 0.44545 0.74932 0.81212 0.0
C171 C 0.42319 0.71831 0.81919 0.0
C172 C 0.46015 0.71944 0.83225 0.0
C173 C 0.42612 0.73877 0.80996 0.0
C174 C 0.4402 0.70868 0.83056 0.0
C175 C 0.50029 0.74111 0.83304 0.0
C176 C 0.48231 0.75078 0.82286 0.0
C177 C 0.49792 0.7209 0.84326 0.0
C178 C 0.47793 0.71009 0.84283 0.0
Eu179 Eu 0.4513 0.78494 0.80003 0.0
N180 N 0.48428 0.77022 0.81246 0.0
C181 C 0.52019 0.752 0.83257 0.0
C182 C 0.50355 0.78103 0.81224 0.0
C183 C 0.52182 0.77199 0.8221 0.0
H184 H 0.4128 0.74635 0.80154 0.0
H185 H 0.53714 0.78055 0.8218 0.0
H186 H 0.50262 0.83995 0.74487 0.0
H187 H 0.42009 0.77015 0.67485 0.0
H188 H 0.50492 0.79671 0.80466 0.0
H189 H 0.53439 0.74511 0.84023 0.0
H190 H 0.44158 0.76568 0.70774 0.0
H191 H 0.40777 0.71005 0.81769 0.0
H192 H 0.51154 0.71333 0.85131 0.0
H193 H 0.47648 0.69436 0.85048 0.0
H194 H 0.50718 0.8754 0.72675 0.0
H195 H 0.43786 0.69283 0.83772 0.0
H196 H 0.41832 0.80582 0.6567 0.0
N197 N 0.47774 0.82934 0.7236 0.0
C198 C 0.46585 0.83379 0.70589 0.0
C199 C 0.49548 0.86384 0.72067 0.0
C200 C 0.46747 0.8539 0.69525 0.0
C201 C 0.49301 0.84369 0.73074 0.0
C202 C 0.48233 0.86916 0.70307 0.0
N203 N 0.45278 0.79842 0.70855 0.0
C204 C 0.4418 0.78121 0.69985 0.0
C205 C 0.44039 0.82111 0.67921 0.0
C206 C 0.45275 0.8177 0.69806 0.0
C207 C 0.42822 0.80386 0.67101 0.0
C208 C 0.42928 0.7837 0.68116 0.0
H209 H 0.48403 0.88487 0.69545 0.0
H210 H 0.45494 0.87345 0.66899 0.0
H211 H 0.43104 0.84466 0.65493 0.0
O212 O 0.49967 0.796 0.73342 0.0
O213 O 0.44038 0.82323 0.75587 0.0
O214 O 0.42649 0.80825 0.78703 0.0
O215 O 0.4914 0.78602 0.76622 0.0
O216 O 0.43675 0.77897 0.74341 0.0
O217 O 0.42191 0.77882 0.77767 0.0
O218 O 0.45476 0.79922 0.83235 0.0
O219 O 0.464 0.75394 0.78109 0.0
O220 O 0.46125 0.76111 0.74469 0.0
O221 O 0.42509 0.78274 0.82345 0.0
O222 O 0.47153 0.81814 0.8002 0.0
O223 O 0.46794 0.83084 0.76573 0.0
C224 C 0.42574 0.82251 0.77141 0.0
C225 C 0.51337 0.76256 0.74492 0.0
C226 C 0.50804 0.72975 0.723 0.0
C227 C 0.52208 0.71857 0.73708 0.0
C228 C 0.52666 0.75096 0.75907 0.0
C229 C 0.53152 0.72923 0.75474 0.0
C230 C 0.50539 0.75217 0.72629 0.0
C231 C 0.42064 0.77539 0.75662 0.0
C232 C 0.50546 0.78456 0.75027 0.0
C233 C 0.45437 0.85793 0.67714 0.0
C234 C 0.44078 0.84154 0.66915 0.0
C235 C 0.46371 0.74668 0.76078 0.0
C236 C 0.43132 0.7877 0.86079 0.0
C237 C 0.41972 0.80057 0.89611 0.0
C238 C 0.41755 0.77893 0.90298 0.0
C239 C 0.42896 0.76619 0.86769 0.0
C240 C 0.42711 0.8047 0.87509 0.0
C241 C 0.42231 0.76187 0.88884 0.0
C242 C 0.47269 0.8347 0.78622 0.0
C243 C 0.43536 0.79344 0.83826 0.0
H244 H 0.52492 0.70138 0.73539 0.0
H245 H 0.53295 0.75855 0.77355 0.0
H246 H 0.54175 0.72027 0.76576 0.0
H247 H 0.49591 0.76153 0.71498 0.0
H248 H 0.41156 0.77518 0.919 0.0
H249 H 0.43175 0.75286 0.8567 0.0
H250 H 0.42894 0.82126 0.86952 0.0
H251 H 0.42027 0.74528 0.89413 0.0
Eu252 Eu 0.50851 0.20598 0.03446 0.0
C253 C 0.46637 0.27805 0.99488 0.0
N254 N 0.46284 0.25964 0.9835 0.0
C255 C 0.42979 0.27427 0.96924 0.0
C256 C 0.45175 0.29559 0.99359 0.0
C257 C 0.44471 0.25736 0.97101 0.0
C258 C 0.43342 0.29357 0.98042 0.0
C259 C 0.4873 0.29744 1.02173 0.0
C260 C 0.48395 0.27884 1.00879 0.0
C261 C 0.47334 0.3153 1.0198 0.0
C262 C 0.45558 0.31435 1.0058 0.0
Eu263 Eu 0.4897 0.23254 0.98529 0.0
N264 N 0.49697 0.26107 1.01059 0.0
C265 C 0.50421 0.29736 0.0367 0.0
C266 C 0.51265 0.26072 0.02608 0.0
C267 C 0.51673 0.27877 0.03911 0.0
H268 H 0.44159 0.24235 0.96258 0.0
H269 H 0.52942 0.27821 0.05116 0.0
H270 H 0.55216 0.23509 0.05128 0.0
H271 H 0.49542 0.11821 0.04207 0.0
H272 H 0.52189 0.24661 0.02893 0.0
H273 H 0.50731 0.31128 0.04692 0.0
H274 H 0.48419 0.15623 0.0391 0.0
H275 H 0.41547 0.27238 0.95933 0.0
H276 H 0.47584 0.32973 0.02947 0.0
H277 H 0.44465 0.32806 1.00485 0.0
H278 H 0.59026 0.22835 0.0614 0.0
H279 H 0.42179 0.30665 0.97908 0.0
H280 H 0.53416 0.10902 0.04615 0.0
N281 N 0.54548 0.20197 0.04406 0.0
C282 C 0.55259 0.18113 0.04547 0.0
C283 C 0.57994 0.21498 0.05668 0.0
C284 C 0.57434 0.17663 0.05104 0.0
C285 C 0.55837 0.21872 0.05095 0.0
C286 C 0.58812 0.19391 0.05622 0.0
N287 N 0.51636 0.1688 0.04015 0.0
C288 C 0.50118 0.15262 0.04044 0.0
C289 C 0.54477 0.14248 0.04548 0.0
C290 C 0.53777 0.16415 0.04317 0.0
C291 C 0.52938 0.12583 0.04452 0.0
C292 C 0.50749 0.13095 0.04227 0.0
H293 H 0.60485 0.19106 0.06069 0.0
H294 H 0.59814 0.15136 0.05625 0.0
H295 H 0.57237 0.12149 0.05102 0.0
O296 O 0.5064 0.19311 0.06714 0.0
O297 O 0.50997 0.18146 1.00653 0.0
O298 O 0.5131 0.20501 0.97806 0.0
O299 O 0.51161 0.22833 0.06177 0.0
O300 O 0.47593 0.1921 0.02662 0.0
O301 O 0.47179 0.19972 0.99026 0.0
O302 O 0.47587 0.22271 0.95447 0.0
O303 O 0.45921 0.23237 1.00708 0.0
O304 O 0.47476 0.2261 0.04017 0.0
O305 O 0.49415 0.25238 0.95625 0.0
O306 O 0.5274 0.23993 0.98554 0.0
O307 O 0.53861 0.21798 1.0133 0.0
C308 C 0.51428 0.18535 0.98605 0.0
C309 C 0.51109 0.21559 0.09885 0.0
C310 C 0.49909 0.20516 0.13475 0.0
C311 C 0.51566 0.21791 0.14378 0.0
C312 C 0.52733 0.22859 0.10797 0.0
C313 C 0.52965 0.22963 0.1304 0.0
C314 C 0.49704 0.20394 0.11225 0.0
C315 C 0.46679 0.18842 1.00783 0.0
C316 C 0.51025 0.2122 0.07552 0.0
C317 C 0.58143 0.15506 0.05232 0.0
C318 C 0.56673 0.13805 0.04941 0.0
C319 C 0.45729 0.23229 0.02835 0.0
C320 C 0.49327 0.2339 0.92283 0.0
C321 C 0.5199 0.21472 0.90088 0.0
C322 C 0.51013 0.22341 0.88222 0.0
C323 C 0.48374 0.24229 0.90412 0.0
C324 C 0.51124 0.2201 0.92124 0.0
C325 C 0.49216 0.23703 0.88389 0.0
C326 C 0.5436 0.231 0.9968 0.0
C327 C 0.48364 0.23905 0.94379 0.0
H328 H 0.51751 0.21912 0.16114 0.0
H329 H 0.53859 0.23737 0.09776 0.0
H330 H 0.54236 0.23946 0.13742 0.0
H331 H 0.48466 0.19368 0.10513 0.0
H332 H 0.51676 0.2203 0.86632 0.0
H333 H 0.46976 0.25287 0.90518 0.0
H334 H 0.51842 0.21371 0.93583 0.0
H335 H 0.48488 0.24372 0.86945 0.0
Eu336 Eu 0.05317 0.98993 0.32679 0.0
C337 C 0.98274 0.05543 0.33535 0.0
N338 N 0.99282 0.04903 0.35377 0.0
C339 C 0.98702 0.08409 0.36971 0.0
C340 C 0.97411 0.07655 0.33361 0.0
C341 C 0.99542 0.06312 0.37074 0.0
C342 C 0.97608 0.09076 0.35117 0.0
C343 C 0.97351 0.04842 0.29791 0.0
C344 C 0.98264 0.0414 0.31762 0.0
C345 C 0.96401 0.06907 0.29649 0.0
C346 C 0.96433 0.08308 0.31426 0.0
Eu347 Eu 1.00296 1.01199 0.35484 0.0
N348 N 0.99225 1.02146 0.31926 0.0
C349 C 0.97451 0.03466 0.28001 0.0
C350 C 0.99354 1.00826 0.30166 0.0
C351 C 0.98476 1.01462 0.28185 0.0
H352 H 1.00424 0.05823 0.38503 0.0
H353 H 0.98585 1.00399 0.26797 0.0
H354 H 0.04824 0.94415 0.29787 0.0
H355 H 0.13006 1.01312 0.3674 0.0
H356 H 1.00134 0.99286 0.30253 0.0
H357 H 0.96772 0.03949 0.26461 0.0
H358 H 0.09811 1.01986 0.34484 0.0
H359 H 0.98906 0.0951 0.38317 0.0
H360 H 0.95676 0.07455 0.28152 0.0
H361 H 0.9574 0.09914 0.31271 0.0
H362 H 0.05803 0.90547 0.30216 0.0
H363 H 0.96968 0.10709 0.35038 0.0
H364 H 0.13876 0.97595 0.37946 0.0
N365 N 0.0681 0.95472 0.32373 0.0
C366 C 0.08374 0.94936 0.33797 0.0
C367 C 0.06526 0.91761 0.31253 0.0
C368 C 0.09007 0.92764 0.34101 0.0
C369 C 0.05962 0.93945 0.31021 0.0
C370 C 0.08016 0.91158 0.32843 0.0
N371 N 0.0886 0.98658 0.34317 0.0
C372 C 0.10188 1.00335 0.3492 0.0
C373 C 0.11237 0.96141 0.36155 0.0
C374 C 0.09449 0.96596 0.34811 0.0
C375 C 0.12487 0.9787 0.36911 0.0
C376 C 0.12003 0.99967 0.36227 0.0
H377 H 0.08449 0.89467 0.33026 0.0
H378 H 0.11132 0.90622 0.35891 0.0
H379 H 0.13103 0.93592 0.37692 0.0
O380 O 0.07226 0.9849 0.2977 0.0
O381 O 0.04085 0.96655 0.35309 0.0
O382 O 1.02018 0.98786 0.37567 0.0
O383 O 0.04176 1.00251 0.29574 0.0
O384 O 0.06072 1.01454 0.3527 0.0
O385 O 0.0327 1.01365 0.37716 0.0
O386 O 0.96875 1.00476 0.36231 0.0
O387 O 1.02366 0.04194 0.34412 0.0
O388 O 0.05201 0.02867 0.32393 0.0
O389 O 0.98844 1.02219 0.38489 0.0
O390 O 0.99401 0.97671 0.34077 0.0
O391 O 0.02433 0.966 0.32178 0.0
C392 C 0.03119 0.97017 0.37176 0.0
C393 C 0.07261 1.01739 0.27879 0.0
C394 C 0.10119 0.04336 0.28741 0.0
C395 C 0.09891 0.05258 0.26678 0.0
C396 C 0.07045 0.02642 0.25818 0.0
C397 C 0.08343 0.04422 0.25233 0.0
C398 C 0.08738 0.02647 0.29324 0.0
C399 C 0.05336 1.01646 0.37239 0.0
C400 C 0.0604 0.99835 0.28639 0.0
C401 C 0.10653 0.92284 0.35591 0.0
C402 C 0.11772 0.93974 0.36617 0.0
C403 C 0.04037 0.04557 0.33116 0.0
C404 C 0.96037 1.0019 0.40005 0.0
C405 C 0.93301 0.97767 0.41485 0.0
C406 C 0.94005 0.98285 0.43585 0.0
C407 C 0.96714 1.00693 0.4212 0.0
C408 C 0.94344 0.98713 0.39701 0.0
C409 C 0.95711 0.9973 0.43894 0.0
C410 C 1.00444 0.96176 0.32877 0.0
C411 C 0.96977 1.01347 0.38146 0.0
H412 H 0.10945 0.06562 0.26159 0.0
H413 H 0.05898 1.01975 0.24674 0.0
H414 H 0.08188 0.05121 0.23637 0.0
H415 H 0.08852 1.01974 0.30925 0.0
H416 H 0.93202 0.9762 0.44993 0.0
H417 H 0.97995 1.01858 0.42412 0.0
H418 H 0.93821 0.98321 0.38076 0.0
H419 H 0.96229 1.00139 0.45515 0.0
Eu420 Eu 0.28527 0.7453 0.60584 0.0
C421 C 0.32823 0.79409 0.54 0.0
N422 N 0.33021 0.80456 0.55913 0.0
C423 C 0.36277 0.82188 0.54675 0.0
C424 C 0.34339 0.79743 0.52322 0.0
C425 C 0.34743 0.81797 0.5629 0.0
C426 C 0.36062 0.81174 0.52672 0.0
C427 C 0.31049 0.76646 0.51862 0.0
C428 C 0.31201 0.77882 0.53783 0.0
C429 C 0.32488 0.77043 0.50149 0.0
C430 C 0.34133 0.78586 0.50381 0.0
Eu431 Eu 0.30362 0.79818 0.58588 0.0
N432 N 0.29891 0.7748 0.55508 0.0
C433 C 0.29521 0.74981 0.5175 0.0
C434 C 0.28518 0.75751 0.55431 0.0
C435 C 0.28273 0.7451 0.5356 0.0
H436 H 0.34954 0.8255 0.5785 0.0
H437 H 0.27156 0.73155 0.53537 0.0
H438 H 0.24517 0.72941 0.57148 0.0
H439 H 0.28975 0.73144 0.69351 0.0
H440 H 0.27678 0.75246 0.56822 0.0
H441 H 0.29358 0.73993 0.50311 0.0
H442 H 0.30463 0.73782 0.65726 0.0
H443 H 0.37633 0.83259 0.54982 0.0
H444 H 0.32385 0.76116 0.48665 0.0
H445 H 0.35274 0.78829 0.49071 0.0
H446 H 0.20672 0.71846 0.57373 0.0
H447 H 0.37264 0.81465 0.51428 0.0
H448 H 0.25042 0.72578 0.6984 0.0
N449 N 0.2483 0.73474 0.60537 0.0
C450 C 0.23923 0.73172 0.62525 0.0
C451 C 0.21558 0.72243 0.58829 0.0
C452 C 0.21729 0.72538 0.62718 0.0
C453 C 0.23733 0.72861 0.58709 0.0
C454 C 0.20537 0.72128 0.60838 0.0
N455 N 0.27389 0.73707 0.64155 0.0
C456 C 0.28741 0.73575 0.65906 0.0
C457 C 0.24319 0.72894 0.66431 0.0
C458 C 0.25223 0.73314 0.64373 0.0
C459 C 0.25681 0.72889 0.68238 0.0
C460 C 0.27903 0.73203 0.67969 0.0
H461 H 0.18854 0.71632 0.60926 0.0
H462 H 0.19128 0.7177 0.64947 0.0
H463 H 0.21384 0.72109 0.68191 0.0
O464 O 0.28824 0.71281 0.61817 0.0
O465 O 0.28192 0.77066 0.6325 0.0
O466 O 0.27692 0.79995 0.61078 0.0
O467 O 0.28506 0.7177 0.58293 0.0
O468 O 0.31648 0.75292 0.62313 0.0
O469 O 0.32 0.78997 0.61864 0.0
O470 O 0.29899 0.83046 0.57188 0.0
O471 O 0.33454 0.77799 0.58637 0.0
O472 O 0.31957 0.74384 0.58587 0.0
O473 O 0.31643 0.8269 0.60181 0.0
O474 O 0.26686 0.79715 0.57566 0.0
O475 O 0.25514 0.76638 0.59323 0.0
C476 C 0.27607 0.79088 0.62981 0.0
C477 C 0.28739 0.68058 0.59659 0.0
C478 C 0.30016 0.64612 0.61062 0.0
C479 C 0.28803 0.63527 0.59469 0.0
C480 C 0.27555 0.66973 0.58059 0.0
C481 C 0.27574 0.64708 0.5798 0.0
C482 C 0.29934 0.66874 0.61165 0.0
C483 C 0.32489 0.77167 0.62879 0.0
C484 C 0.28606 0.70407 0.59912 0.0
C485 C 0.20816 0.72228 0.64773 0.0
C486 C 0.22103 0.72416 0.66622 0.0
C487 C 0.33701 0.75704 0.58323 0.0
C488 C 0.29599 0.85832 0.59809 0.0
C489 C 0.26223 0.87353 0.6124 0.0
C490 C 0.27367 0.89287 0.61698 0.0
C491 C 0.30699 0.87738 0.60343 0.0
C492 C 0.27393 0.85617 0.60314 0.0
C493 C 0.29587 0.89453 0.61296 0.0
C494 C 0.25068 0.78401 0.58154 0.0
C495 C 0.30797 0.8404 0.58817 0.0
H496 H 0.28848 0.61778 0.59336 0.0
H497 H 0.26581 0.6787 0.56911 0.0
H498 H 0.26647 0.63866 0.56755 0.0
H499 H 0.30813 0.67722 0.62425 0.0
H500 H 0.26563 0.90709 0.62329 0.0
H501 H 0.32417 0.87902 0.60013 0.0
H502 H 0.26615 0.84095 0.59944 0.0
H503 H 0.30438 0.90937 0.61684 0.0
Eu504 Eu 0.54774 0.03743 0.84674 0.0
C505 C 0.51025 0.07581 0.77339 0.0
N506 N 0.49665 0.0783 0.79043 0.0
C507 C 0.48099 0.10984 0.77411 0.0
C508 C 0.50965 0.09041 0.75585 0.0
C509 C 0.4822 0.09505 0.79113 0.0
C510 C 0.49471 0.10746 0.75633 0.0
C511 C 0.54036 0.05695 0.75676 0.0
C512 C 0.52545 0.05928 0.77399 0.0
C513 C 0.53946 0.07109 0.73903 0.0
C514 C 0.52417 0.0878 0.73859 0.0
Eu515 Eu 0.49867 0.05247 0.81836 0.0
N516 N 0.52624 0.04608 0.79166 0.0
C517 C 0.55606 0.04072 0.75795 0.0
C518 C 0.54201 0.03066 0.79285 0.0
C519 C 0.55695 0.0276 0.77617 0.0
H520 H 0.4718 0.09718 0.80502 0.0
H521 H 0.56934 1.01525 0.77754 0.0
H522 H 0.56682 0.99369 0.81923 0.0
H523 H 0.55581 0.05377 0.93367 0.0
H524 H 0.54376 1.02092 0.80673 0.0
H525 H 0.56779 0.03843 0.7451 0.0
H526 H 0.55222 0.06363 0.89544 0.0
H527 H 0.46957 0.12313 0.77476 0.0
H528 H 0.55075 0.06944 0.7257 0.0
H529 H 0.52388 0.09879 0.72495 0.0
H530 H 0.57764 0.956 0.82708 0.0
H531 H 0.49382 0.11902 0.74319 0.0
H532 H 0.56092 1.01549 0.94412 0.0
N533 N 0.55879 1.00102 0.85192 0.0
C534 C 0.56033 0.9946 0.87291 0.0
C535 C 0.5725 0.96658 0.84007 0.0
C536 C 0.56647 0.97317 0.87809 0.0
C537 C 0.56634 0.98791 0.83569 0.0
C538 C 0.57203 0.959 0.8613 0.0
N539 N 0.5541 0.03104 0.884 0.0
C540 C 0.55407 0.04679 0.8996 0.0
C541 C 0.56028 1.00372 0.91116 0.0
C542 C 0.55768 1.00991 0.88934 0.0
C543 C 0.55906 1.01964 0.92722 0.0
C544 C 0.55623 0.04128 0.92138 0.0
H545 H 0.5769 0.94247 0.86466 0.0
H546 H 0.57232 0.95035 0.90403 0.0
H547 H 0.56659 0.97699 0.93296 0.0
O548 O 0.58049 0.04143 0.8594 0.0
O549 O 0.52014 0.03661 0.87109 0.0
O550 O 0.49275 0.03026 0.84709 0.0
O551 O 0.57519 0.03596 0.82438 0.0
O552 O 0.53715 0.06962 0.86057 0.0
O553 O 0.50125 0.0731 0.85001 0.0
O554 O 0.46583 0.0627 0.82642 0.0
O555 O 0.51786 0.08436 0.81887 0.0
O556 O 0.55183 0.07117 0.82646 0.0
O557 O 0.47148 0.04513 0.79691 0.0
O558 O 0.50116 1.01514 0.81166 0.0
O559 O 0.52763 1.00563 0.83581 0.0
C560 C 0.50002 0.03118 0.86695 0.0
C561 C 0.61244 0.03875 0.83668 0.0
C562 C 0.64818 0.0512 0.84761 0.0
C563 C 0.65762 0.03673 0.8328 0.0
C564 C 0.62199 0.02463 0.82168 0.0
C565 C 0.64453 1.02358 0.81985 0.0
C566 C 0.62556 0.05202 0.84956 0.0
C567 C 0.51798 0.07885 0.86237 0.0
C568 C 0.58901 0.03826 0.8403 0.0
C569 C 0.56796 0.96682 0.89981 0.0
C570 C 0.56476 0.98202 0.91629 0.0
C571 C 0.53898 0.08765 0.8197 0.0
C572 C 0.43847 0.03916 0.81494 0.0
C573 C 0.42251 1.00875 0.83434 0.0
C574 C 0.40204 1.01475 0.82628 0.0
C575 C 0.41799 0.04489 0.8071 0.0
C576 C 0.44082 1.02071 0.82808 0.0
C577 C 0.39987 0.03257 0.81261 0.0
C578 C 0.51203 0.99965 0.82193 0.0
C579 C 0.45702 0.05307 0.80996 0.0
H580 H 0.67506 0.03589 0.83095 0.0
H581 H 0.61206 1.01402 0.81184 0.0
H582 H 0.65189 1.0125 0.80843 0.0
H583 H 0.61816 0.06281 0.86128 0.0
H584 H 0.38774 1.00527 0.83011 0.0
H585 H 0.41602 0.05894 0.79679 0.0
H586 H 0.45673 1.0158 0.83345 0.0
H587 H 0.38408 0.03688 0.80634 0.0
Eu588 Eu 0.24125 0.25467 0.08004 0.0
C589 C 0.30151 0.33299 0.08954 0.0
N590 N 0.29538 0.32094 0.10685 0.0
C591 C 0.32898 0.32833 0.1247 0.0
C592 C 0.32161 0.34383 0.08951 0.0
C593 C 0.30886 0.31792 0.12408 0.0
C594 C 0.33522 0.34167 0.10753 0.0
C595 C 0.29523 0.34396 0.05242 0.0
C596 C 0.28845 0.33273 0.07107 0.0
C597 C 0.31465 0.35591 0.0528 0.0
C598 C 0.32782 0.35581 0.07126 0.0
Eu599 Eu 0.25994 0.30734 0.10519 0.0
N600 N 0.26989 0.32057 0.07095 0.0
C601 C 0.2825 0.34247 0.03378 0.0
C602 C 0.25769 0.31875 0.05275 0.0
C603 C 0.2638 0.32966 0.03389 0.0
H604 H 0.30379 0.30786 0.13747 0.0
H605 H 0.25401 0.32828 1.01945 0.0
H606 H 0.19622 0.25627 0.04913 0.0
H607 H 0.26395 0.18111 0.12609 0.0
H608 H 0.2432 0.3091 0.05269 0.0
H609 H 0.28714 0.35088 1.01912 0.0
H610 H 0.2707 0.21129 0.10119 0.0
H611 H 0.33955 0.32626 0.1385 0.0
H612 H 0.31994 0.36484 0.03868 0.0
H613 H 0.34306 0.36455 0.07103 0.0
H614 H 0.15766 0.24589 0.05284 0.0
H615 H 0.3508 0.34977 0.10809 0.0
H616 H 0.22666 0.17303 0.1383 0.0
N617 N 0.20608 0.23941 0.07734 0.0
C618 C 0.2005 0.22471 0.09252 0.0
C619 C 0.16949 0.24002 0.06433 0.0
C620 C 0.17883 0.21798 0.09518 0.0
C621 C 0.19127 0.24607 0.06241 0.0
C622 C 0.16311 0.22637 0.0812 0.0
N623 N 0.2376 0.2208 0.09907 0.0
C624 C 0.25429 0.20799 0.106 0.0
C625 C 0.21225 0.19799 0.11839 0.0
C626 C 0.21692 0.21502 0.10392 0.0
C627 C 0.2295 0.18628 0.12716 0.0
C628 C 0.25055 0.1908 0.1203 0.0
H629 H 0.14626 0.22166 0.08268 0.0
H630 H 0.1572 0.19745 0.11373 0.0
H631 H 0.1866 0.17981 0.13413 0.0
O632 O 0.23913 0.23077 0.05431 0.0
O633 O 0.21831 0.26674 0.10717 0.0
O634 O 0.24073 0.28727 0.12842 0.0
O635 O 0.25216 0.26299 0.04745 0.0
O636 O 0.26753 0.24949 0.10515 0.0
O637 O 0.26765 0.27909 0.12801 0.0
O638 O 0.24625 0.33988 0.10909 0.0
O639 O 0.29138 0.29038 0.09099 0.0
O640 O 0.27971 0.25804 0.07662 0.0
O641 O 0.26504 0.32567 0.13492 0.0
O642 O 0.22347 0.31111 0.09231 0.0
O643 O 0.21739 0.28224 0.0699 0.0
C644 C 0.22268 0.27662 0.12559 0.0
C645 C 0.27195 0.23265 0.03534 0.0
C646 C 0.30411 0.21347 0.04839 0.0
C647 C 0.31454 0.21808 0.02868 0.0
C648 C 0.28262 0.23746 1.01597 0.0
C649 C 0.30377 0.22987 1.01255 0.0
C650 C 0.28267 0.22027 0.05104 0.0
C651 C 0.27217 0.2586 0.12374 0.0
C652 C 0.25103 0.24261 0.04129 0.0
C653 C 0.17381 0.20249 0.11104 0.0
C654 C 0.19055 0.19248 0.12266 0.0
C655 C 0.29587 0.27206 0.08053 0.0
C656 C 0.26101 0.36395 0.13531 0.0
C657 C 0.25027 0.3987 0.15018 0.0
C658 C 0.27208 0.40381 0.15406 0.0
C659 C 0.28284 0.36922 0.13897 0.0
C660 C 0.24485 0.37893 0.14058 0.0
C661 C 0.28833 0.38918 0.14818 0.0
C662 C 0.21027 0.30044 0.07879 0.0
C663 C 0.25401 0.34232 0.12846 0.0
H664 H 0.33096 0.21266 0.0257 0.0
H665 H 0.27484 0.24735 1.00379 0.0
H666 H 0.31204 0.23357 0.99757 0.0
H667 H 0.27459 0.2172 0.06613 0.0
H668 H 0.27645 0.41899 0.16171 0.0
H669 H 0.29556 0.3579 0.13523 0.0
H670 H 0.22792 0.37476 0.13821 0.0
H671 H 0.30516 0.3931 0.1512 0.0
Eu672 Eu 0.25287 0.08647 0.24087 0.0
C673 C 0.32878 0.09197 0.3024 0.0
N674 N 0.3166 0.10832 0.29413 0.0
C675 C 0.32075 0.12883 0.32674 0.0
C676 C 0.33757 0.09357 0.32336 0.0
C677 C 0.3123 0.12653 0.30592 0.0
C678 C 0.33356 0.11236 0.33545 0.0
C679 C 0.34335 0.05562 0.29882 0.0
C680 C 0.33137 0.07308 0.29027 0.0
C681 C 0.35265 0.05741 0.31947 0.0
C682 C 0.34974 0.0763 0.33171 0.0
Eu683 Eu 0.30572 0.10404 0.25795 0.0
N684 N 0.32179 0.07159 0.27042 0.0
C685 C 0.34565 0.03685 0.28636 0.0
C686 C 0.32439 0.05348 0.25805 0.0
C687 C 0.33621 0.03581 0.26589 0.0
H688 H 0.30274 0.13948 0.29908 0.0
H689 H 0.3381 1.02141 0.25608 0.0
H690 H 0.25508 0.05459 0.19705 0.0
H691 H 0.17866 0.12182 0.27548 0.0
H692 H 0.31754 0.05251 0.24207 0.0
H693 H 0.35476 1.0231 0.29234 0.0
H694 H 0.21302 0.10214 0.27754 0.0
H695 H 0.3175 0.14337 0.33599 0.0
H696 H 0.36198 0.04418 0.32622 0.0
H697 H 0.35678 0.0773 0.34771 0.0
H698 H 0.23731 0.05303 0.16125 0.0
H699 H 0.34009 0.11421 0.35159 0.0
H700 H 0.16091 0.12771 0.24012 0.0
N701 N 0.23201 0.07646 0.21031 0.0
C702 C 0.21355 0.08764 0.20705 0.0
C703 C 0.23039 0.06283 0.17401 0.0
C704 C 0.20314 0.08787 0.18682 0.0
C705 C 0.24023 0.06351 0.19438 0.0
C706 C 0.212 0.07546 0.17006 0.0
N707 N 0.21512 0.09608 0.24361 0.0
C708 C 0.20532 0.10363 0.26202 0.0
C709 C 0.18508 0.10947 0.22241 0.0
C710 C 0.20474 0.09804 0.22445 0.0
C711 C 0.17587 0.11854 0.24096 0.0
C712 C 0.18578 0.11515 0.26094 0.0
H713 H 0.20459 0.07522 0.15419 0.0
H714 H 0.17626 0.10124 0.16862 0.0
H715 H 0.16042 0.12036 0.19992 0.0
O716 O 0.24741 0.05168 0.24059 0.0
O717 O 0.26287 0.11552 0.21931 0.0
O718 O 0.2918 0.13054 0.23734 0.0
O719 O 0.27816 0.06446 0.25209 0.0
O720 O 0.2477 0.11379 0.26376 0.0
O721 O 0.28062 0.13118 0.26554 0.0
O722 O 0.33854 0.10429 0.24402 0.0
O723 O 0.28767 0.08801 0.28773 0.0
O724 O 0.25133 0.08795 0.27953 0.0
O725 O 0.32689 0.13175 0.2625 0.0
O726 O 0.30716 0.08551 0.22355 0.0
O727 O 0.27324 0.09022 0.20977 0.0
C728 C 0.27715 0.1313 0.22212 0.0
C729 C 0.26158 0.03627 0.27215 0.0
C730 C 0.23941 0.03421 0.30487 0.0
C731 C 0.25553 1.02151 0.31472 0.0
C732 C 0.27782 0.02416 0.2823 0.0
C733 C 0.27453 1.01634 0.30333 0.0
C734 C 0.24206 0.0399 0.2831 0.0
C735 C 0.25936 0.13066 0.26854 0.0
C736 C 0.26518 0.04761 0.25143 0.0
C737 C 0.18425 0.10031 0.18418 0.0
C738 C 0.17524 0.11118 0.20199 0.0
C739 C 0.26723 0.08596 0.29432 0.0
C740 C 0.36484 0.12908 0.25806 0.0
C741 C 0.39943 0.14338 0.2457 0.0
C742 C 0.40488 0.14838 0.26721 0.0
C743 C 0.37032 0.13418 0.27947 0.0
C744 C 0.37967 0.13298 0.24151 0.0
C745 C 0.39047 0.14351 0.28401 0.0
C746 C 0.29376 0.08522 0.20641 0.0
C747 C 0.34277 0.12352 0.25155 0.0
H748 H 0.25403 1.01652 0.33141 0.0
H749 H 0.29299 1.02097 0.27415 0.0
H750 H 0.28714 1.00705 0.31118 0.0
H751 H 0.2292 0.04851 0.27488 0.0
H752 H 0.41986 0.1567 0.27101 0.0
H753 H 0.35887 0.13163 0.29247 0.0
H754 H 0.3752 0.12887 0.22506 0.0
H755 H 0.39459 0.14775 0.30047 0.0
Eu756 Eu 0.20481 0.0395 0.50606 0.0
C757 C 0.2773 0.9956 0.46511 0.0
N758 N 0.25845 0.98498 0.46149 0.0
C759 C 0.2731 0.96906 0.42928 0.0
C760 C 0.29511 0.99301 0.45103 0.0
C761 C 0.25591 0.97219 0.44364 0.0
C762 C 0.2929 0.97932 0.43312 0.0
C763 C 0.29717 1.02267 0.48531 0.0
C764 C 0.2782 1.01025 0.48203 0.0
C765 C 0.31533 1.01939 0.472 0.0
C766 C 0.31429 1.00462 0.45487 0.0
Eu767 Eu 0.23059 0.98929 0.48722 0.0
N768 N 0.2601 1.01347 0.49425 0.0
C769 C 0.29709 0.03862 0.50135 0.0
C770 C 0.2597 0.03001 0.50882 0.0
C771 C 0.27812 0.04254 0.5129 0.0
H772 H 0.24053 0.96449 0.44037 0.0
H773 H 0.27755 0.05543 0.52476 0.0
H774 H 0.23686 0.05777 0.54666 0.0
H775 H 0.11644 0.04696 0.49893 0.0
H776 H 0.2452 0.034 0.51705 0.0
H777 H 0.3113 0.0485 0.50436 0.0
H778 H 0.1537 0.04346 0.48521 0.0
H779 H 0.27105 0.95883 0.41521 0.0
H780 H 0.33005 0.02866 0.47443 0.0
H781 H 0.3282 1.0027 0.44434 0.0
H782 H 0.23285 0.06922 0.58471 0.0
H783 H 0.30618 0.97699 0.42188 0.0
H784 H 0.1099 0.05206 0.538 0.0
N785 N 0.2034 0.05015 0.54278 0.0
C786 C 0.18312 0.05181 0.55129 0.0
C787 C 0.21879 0.06407 0.57561 0.0
C788 C 0.18015 0.0581 0.57304 0.0
C789 C 0.221 0.05756 0.55409 0.0
C790 C 0.19835 0.06382 0.58529 0.0
N791 N 0.16832 0.04556 0.51632 0.0
C792 C 0.15117 0.04551 0.50231 0.0
C793 C 0.14401 0.05163 0.54624 0.0
C794 C 0.16516 0.0491 0.53783 0.0
C795 C 0.12636 0.0503 0.53211 0.0
C796 C 0.12998 0.04751 0.51004 0.0
H797 H 0.19669 0.06888 0.60198 0.0
H798 H 0.15659 0.064 0.59836 0.0
H799 H 0.12499 0.05794 0.57502 0.0
O800 O 0.19195 0.07227 0.50359 0.0
O801 O 0.17987 1.0118 0.50598 0.0
O802 O 0.20354 0.98415 0.51163 0.0
O803 O 0.22747 0.06687 0.50586 0.0
O804 O 0.18967 0.0314 0.47415 0.0
O805 O 0.19901 0.99559 0.46771 0.0
O806 O 0.21832 0.95907 0.47385 0.0
O807 O 0.23244 1.01151 0.4571 0.0
O808 O 0.22388 0.04459 0.47207 0.0
O809 O 0.24803 0.95874 0.49213 0.0
O810 O 0.23838 0.99003 0.52474 0.0
O811 O 0.21775 1.01888 0.5362 0.0
C812 C 0.18367 0.99143 0.51083 0.0
C813 C 0.21487 0.10419 0.504 0.0
C814 C 0.20304 0.13991 0.4923 0.0
C815 C 0.21898 0.14938 0.50549 0.0
C816 C 0.23099 0.1138 0.51679 0.0
C817 C 0.23295 0.13634 0.51756 0.0
C818 C 0.20104 0.11727 0.49167 0.0
C819 C 0.18731 1.01315 0.46345 0.0
C820 C 0.21136 0.08073 0.50486 0.0
C821 C 0.15912 0.05955 0.58161 0.0
C822 C 0.14112 0.05617 0.56829 0.0
C823 C 0.23115 0.03282 0.45508 0.0
C824 C 0.22602 0.92735 0.49291 0.0
C825 C 0.20487 0.90909 0.52082 0.0
C826 C 0.21064 0.88903 0.51152 0.0
C827 C 0.23158 0.90728 0.48398 0.0
C828 C 0.21269 0.92826 0.51129 0.0
C829 C 0.22389 0.8882 0.49327 0.0
C830 C 0.23044 1.00198 0.54099 0.0
C831 C 0.23348 0.94715 0.48221 0.0
H832 H 0.22081 0.16683 0.5062 0.0
H833 H 0.24164 0.10392 0.52661 0.0
H834 H 0.24523 0.14373 0.52764 0.0
H835 H 0.1885 0.10987 0.48184 0.0
H836 H 0.20565 0.87388 0.51882 0.0
H837 H 0.24182 0.90637 0.46976 0.0
H838 H 0.20862 0.9438 0.51822 0.0
H839 H 0.2284 0.87268 0.48645 0.0
Eu840 Eu 0.25288 0.94703 0.75793 0.0
C841 C 0.30374 1.01066 0.71225 0.0
N842 N 0.31454 0.9916 0.71259 0.0
C843 C 0.33287 1.00078 0.67967 0.0
C844 C 0.30732 0.02583 0.69557 0.0
C845 C 0.32867 0.98625 0.69646 0.0
C846 C 0.32228 1.02076 0.67931 0.0
C847 C 0.27519 0.03323 0.72678 0.0
C848 C 0.2879 1.01421 0.72764 0.0
C849 C 0.27935 0.04887 0.71083 0.0
C850 C 0.29535 0.04515 0.69521 0.0
Eu851 Eu 0.30682 0.96724 0.74077 0.0
N852 N 0.28364 0.99826 0.74221 0.0
C853 C 0.25798 0.03551 0.74128 0.0
C854 C 0.26584 0.99985 0.75511 0.0
C855 C 0.25305 1.01855 0.75527 0.0
H856 H 0.3365 0.97059 0.69639 0.0
H857 H 0.239 1.01962 0.76569 0.0
H858 H 0.23561 0.98901 0.78997 0.0
H859 H 0.23689 0.86026 0.769 0.0
H860 H 0.26068 0.9863 0.76425 0.0
H861 H 0.2478 0.04981 0.7411 0.0
H862 H 0.24614 0.89309 0.74848 0.0
H863 H 0.3441 0.99648 0.66693 0.0
H864 H 0.26979 0.06357 0.70999 0.0
H865 H 0.29792 0.05704 0.68259 0.0
H866 H 0.22221 0.99434 0.82702 0.0
H867 H 0.32538 0.03192 0.66615 0.0
H868 H 0.22679 0.86302 0.80753 0.0
N869 N 0.23898 0.95477 0.79306 0.0
C870 C 0.23421 0.93705 0.80535 0.0
C871 C 0.2258 0.97818 0.82123 0.0
C872 C 0.22622 0.93944 0.82663 0.0
C873 C 0.23354 0.97509 0.80024 0.0
C874 C 0.22252 0.96032 0.83463 0.0
N875 N 0.24222 0.91445 0.7753 0.0
C876 C 0.24205 0.89461 0.76535 0.0
C877 C 0.23032 0.89794 0.80853 0.0
C878 C 0.23603 0.91643 0.7963 0.0
C879 C 0.23105 0.87754 0.79865 0.0
C880 C 0.23671 0.87591 0.77691 0.0
H881 H 0.21639 0.96278 0.85086 0.0
H882 H 0.21553 0.9226 0.85546 0.0
H883 H 0.21926 0.88629 0.83967 0.0
O884 O 0.22355 0.93208 0.74598 0.0
O885 O 0.27851 0.92065 0.76293 0.0
O886 O 0.30708 0.94319 0.76818 0.0
O887 O 0.2236 0.96671 0.75306 0.0
O888 O 0.26497 0.92404 0.73248 0.0
O889 O 0.29936 0.9355 0.72231 0.0
O890 O 0.33695 0.95083 0.73288 0.0
O891 O 0.28764 0.9635 0.70926 0.0
O892 O 0.25378 0.96714 0.72398 0.0
O893 O 0.3382 0.98324 0.74589 0.0
O894 O 0.30312 0.9786 0.77711 0.0
O895 O 0.27214 0.96102 0.78866 0.0
C896 C 0.29883 0.92377 0.76837 0.0
C897 C 0.18988 0.94708 0.75453 0.0
C898 C 0.15409 0.93224 0.74724 0.0
C899 C 0.14715 0.93891 0.76778 0.0
C900 C 0.18295 0.95351 0.77516 0.0
C901 C 0.16162 0.9494 0.78172 0.0
C902 C 0.17542 0.93637 0.74076 0.0
C903 C 0.28278 0.92185 0.72113 0.0
C904 C 0.21223 0.94983 0.74689 0.0
C905 C 0.22143 0.92101 0.83904 0.0
C906 C 0.22352 0.90033 0.83003 0.0
C907 C 0.26681 0.96711 0.70633 0.0
C908 C 0.36709 0.95931 0.75413 0.0
C909 C 0.38111 0.93847 0.7846 0.0
C910 C 0.40227 0.94475 0.77856 0.0
C911 C 0.38823 0.96533 0.74853 0.0
C912 C 0.3635 0.94599 0.77229 0.0
C913 C 0.40573 0.95808 0.76072 0.0
C914 C 0.2897 0.97301 0.79321 0.0
C915 C 0.34928 0.96626 0.74009 0.0
H916 H 0.13072 0.9357 0.7731 0.0
H917 H 0.19388 0.96151 0.78618 0.0
H918 H 0.15632 0.95426 0.79768 0.0
H919 H 0.18081 0.93113 0.72489 0.0
H920 H 0.41619 0.94014 0.78817 0.0
H921 H 0.39121 0.97557 0.73462 0.0
H922 H 0.34718 0.94167 0.77697 0.0
H923 H 0.42203 0.963 0.75649 0.0
Eu924 Eu 0.3528 1.00914 1.00593 0.0
C925 C 0.28341 0.05124 0.96244 0.0
N926 N 0.30177 0.06319 0.9609 0.0
C927 C 0.2895 0.07892 0.92771 0.0
C928 C 0.26714 0.05284 0.94652 0.0
C929 C 0.30516 0.07681 0.94384 0.0
C930 C 0.27033 0.06699 0.92912 0.0
C931 C 0.26296 1.02305 0.98052 0.0
C932 C 0.28151 0.03646 0.97926 0.0
C933 C 0.24637 0.02515 0.96513 0.0
C934 C 0.24848 0.03996 0.94816 0.0
Eu935 Eu 0.32726 0.0596 0.98883 0.0
N936 N 0.29816 0.03437 0.99364 0.0
C937 C 0.26181 1.0075 0.99686 0.0
C938 C 0.29725 1.01856 1.00901 0.0
C939 C 0.27913 1.00512 1.01102 0.0
H940 H 0.32013 0.08582 0.94254 0.0
H941 H 0.27869 0.99274 0.0234 0.0
H942 H 0.32662 0.99116 0.05069 0.0
H943 H 0.4394 0.9986 0.98737 0.0
H944 H 0.31044 1.01572 1.0196 0.0
H945 H 0.24786 0.99691 0.99835 0.0
H946 H 0.40078 1.00118 0.97856 0.0
H947 H 0.29227 0.08967 0.91416 0.0
H948 H 0.23202 1.01505 0.96597 0.0
H949 H 0.23575 0.04106 0.93616 0.0
H950 H 0.33554 0.98189 0.08854 0.0
H951 H 0.25824 0.06857 0.91653 0.0
H952 H 0.45114 0.99644 0.02546 0.0
N953 N 0.35916 0.99903 0.04232 0.0
C954 C 0.38036 0.99799 0.04828 0.0
C955 C 0.34826 0.98668 0.07747 0.0
C956 C 0.38615 0.99298 0.06977 0.0
C957 C 0.34328 0.99188 0.05607 0.0
C958 C 0.36972 0.98784 0.08452 0.0
N959 N 0.39031 1.00215 1.01143 0.0
C960 C 0.40545 1.00086 0.99529 0.0
C961 C 0.41843 0.99773 0.03814 0.0
C962 C 0.39635 0.99984 0.03248 0.0
C963 C 0.43405 0.99796 1.02174 0.0
C964 C 0.42749 0.99914 1.00022 0.0
H965 H 0.37353 0.98381 0.10113 0.0
H966 H 0.41284 0.98873 0.09212 0.0
H967 H 0.4411 0.99326 0.0645 0.0
O968 O 0.36394 0.97603 1.00273 0.0
O969 O 0.37799 0.03607 1.00744 0.0
O970 O 0.35456 0.06414 1.01295 0.0
O971 O 0.32904 0.98266 1.00832 0.0
O972 O 0.36703 1.01851 0.97378 0.0
O973 O 0.3598 0.05516 0.97023 0.0
O974 O 0.33802 0.09176 0.97899 0.0
O975 O 0.32817 0.03924 0.95766 0.0
O976 O 0.33239 1.00534 0.97239 0.0
O977 O 0.30681 0.088 0.99416 0.0
O978 O 0.31884 0.05768 0.02588 0.0
O979 O 0.34052 0.0295 0.03663 0.0
C980 C 0.37422 0.05621 1.01297 0.0
C981 C 0.34048 0.9449 1.00531 0.0
C982 C 0.35162 0.90912 0.99325 0.0
C983 C 0.33648 0.89976 1.00741 0.0
C984 C 0.3251 0.93546 1.0191 0.0
C985 C 0.32318 0.91292 1.02015 0.0
C986 C 0.35353 0.9317 0.99228 0.0
C987 C 0.37087 0.03748 0.96486 0.0
C988 C 0.3445 0.96825 1.00593 0.0
C989 C 0.40812 0.99213 0.07561 0.0
C990 C 0.42422 0.99464 0.05986 0.0
C991 C 0.32733 1.01801 0.95523 0.0
C992 C 0.3265 0.1196 1.0017 0.0
C993 C 0.34185 0.13336 0.03516 0.0
C994 C 0.33812 0.15462 0.02779 0.0
C995 C 0.3229 0.14083 0.9946 0.0
C996 C 0.33564 0.11583 1.02218 0.0
C997 C 0.32858 0.15829 1.00771 0.0
C998 C 0.32754 0.04608 0.04183 0.0
C999 C 0.32136 0.10158 0.9873 0.0
H1000 H 0.33475 0.88231 1.00838 0.0
H1001 H 0.31509 0.94546 0.02949 0.0
H1002 H 0.3115 0.90563 0.03101 0.0
H1003 H 0.36552 0.93898 0.98168 0.0
H1004 H 0.34209 0.16844 0.03783 0.0
H1005 H 0.31576 0.14387 0.9789 0.0
H1006 H 0.33794 0.09946 0.02798 0.0
H1007 H 0.32558 0.1747 1.00231 0.0
Eu1008 Eu 0.74397 0.30586 0.95982 0.0
C1009 C 0.80662 0.23039 0.95695 0.0
N1010 N 0.79811 0.24153 0.94003 0.0
C1011 C 0.83076 0.23641 0.91964 0.0
C1012 C 0.82771 0.22168 0.95573 0.0
C1013 C 0.80981 0.2448 0.92157 0.0
C1014 C 0.83971 0.22469 0.93673 0.0
C1015 C 0.80321 0.21764 0.99387 0.0
C1016 C 0.7945 0.22865 0.97591 0.0
C1017 C 0.82403 0.20848 0.99252 0.0
C1018 C 0.83625 0.21052 0.97353 0.0
Eu1019 Eu 0.76183 0.25273 0.94399 0.0
N1020 N 0.77448 0.23804 0.97692 0.0
C1021 C 0.79072 0.21612 1.01268 0.0
C1022 C 0.76202 0.23605 0.99502 0.0
C1023 C 0.77003 0.22527 1.01321 0.0
H1024 H 0.80282 0.25343 0.9081 0.0
H1025 H 0.76017 0.22392 0.02762 0.0
H1026 H 0.69943 0.30153 0.99076 0.0
H1027 H 0.77721 0.38134 0.92643 0.0
H1028 H 0.74583 0.24261 0.99553 0.0
H1029 H 0.79683 0.20778 0.02681 0.0
H1030 H 0.77956 0.34597 0.94425 0.0
H1031 H 0.83992 0.23884 0.9049 0.0
H1032 H 0.83091 0.1999 1.00615 0.0
H1033 H 0.85236 0.20356 0.97284 0.0
H1034 H 0.66322 0.3186 0.99268 0.0
H1035 H 0.85595 0.21818 0.93516 0.0
H1036 H 0.74162 0.39927 0.92206 0.0
N1037 N 0.71251 0.32557 0.96988 0.0
C1038 C 0.70908 0.34449 0.95958 0.0
C1039 C 0.67598 0.32611 0.98329 0.0
C1040 C 0.68863 0.35462 0.95968 0.0
C1041 C 0.69657 0.31662 0.98236 0.0
C1042 C 0.67184 0.34497 0.97149 0.0
N1043 N 0.74583 0.34375 0.95113 0.0
C1044 C 0.76405 0.3538 0.94348 0.0
C1045 C 0.72418 0.37412 0.93918 0.0
C1046 C 0.72647 0.35399 0.94971 0.0
C1047 C 0.74265 0.3839 0.93046 0.0
C1048 C 0.76275 0.37388 0.933 0.0
H1049 H 0.65581 0.35213 0.97193 0.0
H1050 H 0.67007 0.38183 0.94752 0.0
H1051 H 0.70133 0.39896 0.92939 0.0
O1052 O 0.74231 0.31068 0.99458 0.0
O1053 O 0.72433 0.29638 0.92958 0.0
O1054 O 0.74183 0.26609 0.91676 0.0
O1055 O 0.75619 0.28105 0.98181 0.0
O1056 O 0.76675 0.31073 0.93241 0.0
O1057 O 0.7713 0.277 0.91686 0.0
O1058 O 0.74787 0.22001 0.94507 0.0
O1059 O 0.79166 0.27156 0.95933 0.0
O1060 O 0.78279 0.30781 0.95874 0.0
O1061 O 0.76596 0.23047 0.91704 0.0
O1062 O 0.72689 0.25198 0.96183 0.0
O1063 O 0.71315 0.28537 0.95467 0.0
C1064 C 0.72757 0.2816 0.91445 0.0
C1065 C 0.77525 0.29974 1.00944 0.0
C1066 C 0.80538 0.32543 1.01089 0.0
C1067 C 0.81683 0.31127 0.02441 0.0
C1068 C 0.78695 0.28532 1.02245 0.0
C1069 C 0.80749 0.29132 0.03028 0.0
C1070 C 0.7843 0.32 1.0047 0.0
C1071 C 0.77356 0.29835 0.91672 0.0
C1072 C 0.7547 0.29396 0.99859 0.0
C1073 C 0.68578 0.37403 0.94818 0.0
C1074 C 0.70357 0.38378 0.93788 0.0
C1075 C 0.79792 0.29218 0.96104 0.0
C1076 C 0.76278 0.19269 0.92231 0.0
C1077 C 0.7529 0.15621 0.91106 0.0
C1078 C 0.77503 0.15105 0.90908 0.0
C1079 C 0.78479 0.18746 0.92013 0.0
C1080 C 0.74703 0.17697 0.91822 0.0
C1081 C 0.79086 0.16659 0.91378 0.0
C1082 C 0.70957 0.26516 0.96047 0.0
C1083 C 0.75525 0.21485 0.92607 0.0
H1084 H 0.8331 0.3152 0.02967 0.0
H1085 H 0.78038 0.26954 0.02634 0.0
H1086 H 0.81652 0.28015 0.0403 0.0
H1087 H 0.77525 0.33138 0.99488 0.0
H1088 H 0.7801 0.13529 0.90328 0.0
H1089 H 0.79722 0.19949 0.9228 0.0
H1090 H 0.73006 0.18122 0.91996 0.0
H1091 H 0.80784 0.16263 0.91188 0.0
Eu1092 Eu 0.03677 0.50885 0.20505 0.0
C1093 C 0.99217 0.46943 0.27621 0.0
N1094 N 0.98088 0.46623 0.25774 0.0
C1095 C 0.96474 0.43413 0.27265 0.0
C1096 C 0.98981 0.45524 0.29395 0.0
C1097 C 0.9676 0.44863 0.25555 0.0
C1098 C 0.97571 0.43758 0.29204 0.0
C1099 C 1.02025 0.48892 0.29534 0.0
C1100 C 1.00722 0.48599 0.27677 0.0
C1101 C 1.01722 0.47555 0.31344 0.0
C1102 C 1.00208 0.45868 0.31272 0.0
Eu1103 Eu 0.98541 0.49165 0.22952 0.0
N1104 N 1.01029 0.49809 0.25865 0.0
C1105 C 0.03658 0.50459 0.29489 0.0
C1106 C 0.02729 0.51216 0.25786 0.0
C1107 C 0.04034 0.51601 0.27589 0.0
H1108 H 0.95938 0.44548 0.2405 0.0
H1109 H 0.05363 0.52744 0.27493 0.0
H1110 H 0.05566 0.54916 0.23798 0.0
H1111 H 0.045 0.50297 0.11694 0.0
H1112 H 0.03154 0.51979 0.24325 0.0
H1113 H 0.04693 0.50733 0.30876 0.0
H1114 H 0.04148 0.48856 0.15383 0.0
H1115 H 0.95418 0.42024 0.27081 0.0
H1116 H 0.027 0.47768 0.32782 0.0
H1117 H 1.00037 0.44806 0.32655 0.0
H1118 H 0.06595 0.58771 0.23464 0.0
H1119 H 0.97357 0.42625 0.30524 0.0
H1120 H 0.05013 0.54226 0.11114 0.0
N1121 N 0.04887 0.54537 0.20445 0.0
C1122 C 0.05045 0.55427 0.18438 0.0
C1123 C 0.06141 0.57856 0.22043 0.0
C1124 C 0.05614 0.57629 0.1818 0.0
C1125 C 0.05566 0.55673 0.22225 0.0
C1126 C 0.06117 0.58852 0.20019 0.0
N1127 N 0.04399 0.51951 0.169 0.0
C1128 C 0.04373 0.50575 0.15163 0.0
C1129 C 0.05002 0.54991 0.14531 0.0
C1130 C 0.04774 0.54108 0.16624 0.0
C1131 C 0.04855 0.53605 0.12745 0.0
C1132 C 0.04572 0.51385 0.13065 0.0
H1133 H 0.06563 0.60545 0.19884 0.0
H1134 H 0.06134 0.60222 0.15875 0.0
H1135 H 0.05574 0.5792 0.12685 0.0
O1136 O 0.06845 0.50129 0.19194 0.0
O1137 O 1.00962 0.51113 0.17969 0.0
O1138 O 0.98155 0.5164 0.20295 0.0
O1139 O 0.06475 0.507 0.22676 0.0
O1140 O 0.027 0.47786 0.18881 0.0
O1141 O 0.9907 0.47327 0.19702 0.0
O1142 O 0.95458 0.49893 0.24567 0.0
O1143 O 1.00551 0.46028 0.22868 0.0
O1144 O 0.03927 0.47561 0.22641 0.0
O1145 O 0.95518 0.47758 0.21821 0.0
O1146 O 0.98699 0.52963 0.23639 0.0
O1147 O 1.01725 0.54018 0.2173 0.0
C1148 C 0.9892 0.51605 0.1833 0.0
C1149 C 0.10035 0.50959 0.21125 0.0
C1150 C 0.13773 0.50146 0.20236 0.0
C1151 C 0.14429 0.52107 0.21172 0.0
C1152 C 0.10689 0.52909 0.22094 0.0
C1153 C 0.12885 0.53486 0.22098 0.0
C1154 C 0.11583 0.49589 0.20204 0.0
C1155 C 1.00821 0.46856 0.18543 0.0
C1156 C 0.07787 0.50212 0.21081 0.0
C1157 C 0.05737 0.58525 0.16099 0.0
C1158 C 0.05423 0.57213 0.14281 0.0
C1159 C 0.02671 0.45797 0.23018 0.0
C1160 C 0.92699 0.50213 0.21926 0.0
C1161 C 0.91782 0.53542 0.20001 0.0
C1162 C 0.89976 0.52474 0.19099 0.0
C1163 C 0.90895 0.49182 0.21013 0.0
C1164 C 0.93135 0.52389 0.21415 0.0
C1165 C 0.8954 0.50312 0.19606 0.0
C1166 C 0.99992 0.54554 0.22912 0.0
C1167 C 0.94314 0.48918 0.23088 0.0
H1168 H 0.16128 0.52548 0.21219 0.0
H1169 H 0.09527 0.53967 0.2286 0.0
H1170 H 0.13393 0.54989 0.22845 0.0
H1171 H 0.11087 0.48059 0.19489 0.0
H1172 H 0.88856 0.53322 0.18053 0.0
H1173 H 0.90572 0.47488 0.21341 0.0
H1174 H 0.94552 0.53173 0.22087 0.0
H1175 H 0.88148 0.4951 0.18903 0.0
Eu1176 Eu 0.80419 0.74514 0.46729 0.0
C1177 C 0.74017 0.81894 0.4652 0.0
N1178 N 0.74786 0.80691 0.44848 0.0
C1179 C 0.71419 0.81058 0.42961 0.0
C1180 C 0.719 0.82749 0.46459 0.0
C1181 C 0.73523 0.80233 0.43094 0.0
C1182 C 0.70611 0.8234 0.44639 0.0
C1183 C 0.74494 0.83281 0.50159 0.0
C1184 C 0.75312 0.82149 0.48356 0.0
C1185 C 0.72414 0.8421 0.50067 0.0
C1186 C 0.71124 0.83947 0.48223 0.0
Eu1187 Eu 0.78501 0.7987 0.45035 0.0
N1188 N 0.77327 0.81224 0.48407 0.0
C1189 C 0.7578 0.83427 0.52014 0.0
C1190 C 0.78578 0.8135 0.50218 0.0
C1191 C 0.77817 0.82441 0.5205 0.0
H1192 H 0.74165 0.79285 0.41771 0.0
H1193 H 0.78814 0.8254 0.53485 0.0
H1194 H 0.84676 0.74942 0.50101 0.0
H1195 H 0.7768 0.67041 0.42779 0.0
H1196 H 0.80167 0.80625 0.50264 0.0
H1197 H 0.75206 0.84281 0.53434 0.0
H1198 H 0.77149 0.70397 0.44867 0.0
H1199 H 0.7043 0.80723 0.41555 0.0
H1200 H 0.71774 0.85109 0.5143 0.0
H1201 H 0.69511 0.84643 0.48195 0.0
H1202 H 0.88356 0.73382 0.50404 0.0
H1203 H 0.68979 0.8298 0.44528 0.0
H1204 H 0.8136 0.65508 0.42332 0.0
N1205 N 0.83639 0.72673 0.47727 0.0
C1206 C 0.84136 0.7088 0.46587 0.0
C1207 C 0.87187 0.72661 0.49316 0.0
C1208 C 0.86221 0.69958 0.46659 0.0
C1209 C 0.85097 0.73528 0.49154 0.0
C1210 C 0.8777 0.70897 0.48022 0.0
N1211 N 0.80499 0.70806 0.45586 0.0
C1212 C 0.78761 0.69741 0.44719 0.0
C1213 C 0.82886 0.67989 0.44283 0.0
C1214 C 0.82499 0.69912 0.4545 0.0
C1215 C 0.81134 0.66976 0.43268 0.0
C1216 C 0.79054 0.67832 0.43527 0.0
H1217 H 0.89396 0.70243 0.48126 0.0
H1218 H 0.88273 0.67408 0.45381 0.0
H1219 H 0.85345 0.65687 0.43273 0.0
O1220 O 0.80415 0.7348 0.50078 0.0
O1221 O 0.8244 0.75502 0.43768 0.0
O1222 O 0.81108 0.78835 0.42723 0.0
O1223 O 0.78931 0.76566 0.49214 0.0
O1224 O 0.78253 0.74063 0.43897 0.0
O1225 O 0.77922 0.7741 0.42263 0.0
O1226 O 0.79239 0.83375 0.44912 0.0
O1227 O 0.75672 0.77837 0.46613 0.0
O1228 O 0.76574 0.74245 0.46315 0.0
O1229 O 0.77687 0.81748 0.4218 0.0
O1230 O 0.81955 0.80252 0.46816 0.0
O1231 O 0.83373 0.76821 0.46689 0.0
C1232 C 0.82399 0.77178 0.42442 0.0
C1233 C 0.76944 0.74078 0.51396 0.0
C1234 C 0.74099 0.71361 0.50764 0.0
C1235 C 0.72845 0.72369 0.52385 0.0
C1236 C 0.75654 0.75092 0.52951 0.0
C1237 C 0.73626 0.74208 0.53472 0.0
C1238 C 0.7618 0.72188 0.50381 0.0
C1239 C 0.77749 0.75275 0.42244 0.0
C1240 C 0.79029 0.74984 0.50638 0.0
C1241 C 0.86666 0.68115 0.45399 0.0
C1242 C 0.84999 0.67135 0.44202 0.0
C1243 C 0.75057 0.75774 0.46628 0.0
C1244 C 0.78176 0.85582 0.41809 0.0
C1245 C 0.79828 0.88937 0.40587 0.0
C1246 C 0.77981 0.89376 0.39333 0.0
C1247 C 0.76338 0.86023 0.40551 0.0
C1248 C 0.79904 0.87032 0.4182 0.0
C1249 C 0.7624 0.87923 0.39325 0.0
C1250 C 0.83661 0.78911 0.47043 0.0
C1251 C 0.78376 0.83547 0.42999 0.0
H1252 H 0.71252 0.71769 0.52806 0.0
H1253 H 0.76201 0.76559 0.53743 0.0
H1254 H 0.72628 0.74984 0.54686 0.0
H1255 H 0.77182 0.71467 0.49147 0.0
H1256 H 0.77878 0.9084 0.38374 0.0
H1257 H 0.74988 0.84899 0.40512 0.0
H1258 H 0.81349 0.86627 0.42732 0.0
H1259 H 0.7482 0.88263 0.38357 0.0
Eu1260 Eu 0.95856 0.74576 0.30496 0.0
C1261 C 0.96608 0.80913 0.23226 0.0
N1262 N 0.94838 0.80314 0.24397 0.0
C1263 C 0.93486 0.83953 0.24346 0.0
C1264 C 0.96853 0.83072 0.22527 0.0
C1265 C 0.93305 0.81796 0.25007 0.0
C1266 C 0.9525 0.84588 0.23074 0.0
C1267 C 1.00182 0.80031 0.21832 0.0
C1268 C 0.98269 0.79397 0.22906 0.0
C1269 C 1.00371 0.8215 0.21017 0.0
C1270 C 0.98716 0.83666 0.21368 0.0
Eu1271 Eu 0.94542 0.7655 0.24975 0.0
N1272 N 0.98067 0.77358 0.23755 0.0
C1273 C 1.01871 0.78528 0.21647 0.0
C1274 C 0.99726 0.75908 0.23625 0.0
C1275 C 1.01651 0.76472 0.22568 0.0
H1276 H 0.91915 0.81288 0.25945 0.0
H1277 H 0.02963 0.75314 0.22452 0.0
H1278 H 0.98865 0.70091 0.30935 0.0
H1279 H 0.91223 0.78078 0.37296 0.0
H1280 H 0.99578 0.74313 0.24315 0.0
H1281 H 0.03365 0.78953 0.20829 0.0
H1282 H 0.93724 0.7822 0.34218 0.0
H1283 H 0.92257 0.8512 0.24799 0.0
H1284 H 1.0182 0.82652 0.20162 0.0
H1285 H 0.98919 0.85309 0.20786 0.0
H1286 H 0.98484 0.66437 0.32557 0.0
H1287 H 0.95383 0.86262 0.22565 0.0
H1288 H 0.90096 0.74545 0.38817 0.0
N1289 N 0.96175 0.71395 0.32617 0.0
C1290 C 0.9468 0.71081 0.34174 0.0
C1291 C 0.97387 0.67725 0.33019 0.0
C1292 C 0.94391 0.69046 0.35162 0.0
C1293 C 0.97597 0.69787 0.32098 0.0
C1294 C 0.95738 0.67337 0.34523 0.0
N1295 N 0.94083 0.74786 0.33969 0.0
C1296 C 0.93317 0.76658 0.34887 0.0
C1297 C 0.92128 0.72694 0.3664 0.0
C1298 C 0.93582 0.7286 0.34889 0.0
C1299 C 0.91228 0.74595 0.37478 0.0
C1300 C 0.91871 0.7659 0.36632 0.0
H1301 H 0.9557 0.65741 0.35233 0.0
H1302 H 0.92528 0.67257 0.37542 0.0
H1303 H 0.90533 0.70471 0.38844 0.0
O1304 O 0.98956 0.74565 0.32152 0.0
O1305 O 0.93311 0.72328 0.28948 0.0
O1306 O 0.91872 0.74396 0.26195 0.0
O1307 O 0.98754 0.75853 0.28876 0.0
O1308 O 0.93058 0.76885 0.3061 0.0
O1309 O 0.91587 0.77154 0.27202 0.0
O1310 O 0.94116 0.75349 0.2164 0.0
O1311 O 0.96487 0.79068 0.27121 0.0
O1312 O 0.95487 0.78414 0.30585 0.0
O1313 O 0.9244 0.78189 0.22712 0.0
O1314 O 0.95932 0.72906 0.24621 0.0
O1315 O 0.9638 0.71681 0.28114 0.0
C1316 C 0.91808 0.72709 0.27477 0.0
C1317 C 1.00623 0.77912 0.31533 0.0
C1318 C 0.99853 0.81025 0.33915 0.0
C1319 C 1.01715 0.82053 0.33069 0.0
C1320 C 0.02423 0.78988 0.30685 0.0
C1321 C 0.02979 0.81042 0.31474 0.0
C1322 C 0.9939 0.78922 0.33153 0.0
C1323 C 0.91463 0.7738 0.29323 0.0
C1324 C 0.99867 0.758 0.30687 0.0
C1325 C 0.9282 0.68817 0.36793 0.0
C1326 C 0.91685 0.70645 0.37533 0.0
C1327 C 0.96148 0.79834 0.29097 0.0
C1328 C 0.90603 0.76082 0.20174 0.0
C1329 C 0.88758 0.7398 0.17411 0.0
C1330 C 0.86764 0.74862 0.18057 0.0
C1331 C 0.88586 0.76938 0.20829 0.0
C1332 C 0.90671 0.74618 0.18458 0.0
C1333 C 0.86683 0.76333 0.19766 0.0
C1334 C 0.96445 0.71293 0.26003 0.0
C1335 C 0.92648 0.76795 0.2118 0.0
H1336 H 1.0222 0.83636 0.33617 0.0
H1337 H 0.03385 0.78252 0.29418 0.0
H1338 H 0.04385 0.81869 0.30829 0.0
H1339 H 0.97988 0.7806 0.33718 0.0
H1340 H 0.85271 0.74384 0.1727 0.0
H1341 H 0.88473 0.7809 0.22145 0.0
H1342 H 0.92222 0.73987 0.17922 0.0
H1343 H 0.85143 0.77003 0.20273 0.0
Eu1344 Eu 0.6062 0.28666 0.7414 0.0
C1345 C 0.5392 0.32482 0.79464 0.0
N1346 N 0.55849 0.32701 0.80483 0.0
C1347 C 0.545 0.35795 0.82418 0.0
C1348 C 0.52179 0.33897 0.79916 0.0
C1349 C 0.56177 0.34361 0.81909 0.0
C1350 C 0.52483 0.35548 0.81435 0.0
C1351 C 0.51813 0.30807 0.76622 0.0
C1352 C 0.53749 0.30962 0.77837 0.0
C1353 C 0.50038 0.32131 0.7714 0.0
C1354 C 0.50223 0.33679 0.78781 0.0
Eu1355 Eu 0.58658 0.30248 0.79585 0.0
N1356 N 0.55534 0.29783 0.7731 0.0
C1357 C 0.51753 0.29411 0.74847 0.0
C1358 C 0.55511 0.28565 0.75474 0.0
C1359 C 0.53627 0.28316 0.74246 0.0
H1360 H 0.57744 0.34615 0.82637 0.0
H1361 H 0.5364 0.27334 0.72797 0.0
H1362 H 0.56801 0.24988 0.72541 0.0
H1363 H 0.69388 0.28483 0.72616 0.0
H1364 H 0.56964 0.27888 0.74871 0.0
H1365 H 0.50305 0.29254 0.73869 0.0
H1366 H 0.65891 0.30195 0.73499 0.0
H1367 H 0.54773 0.37103 0.83552 0.0
H1368 H 0.48543 0.32026 0.76229 0.0
H1369 H 0.48866 0.34743 0.79114 0.0
H1370 H 0.56679 0.21216 0.71238 0.0
H1371 H 0.51192 0.36676 0.81814 0.0
H1372 H 0.69531 0.24593 0.71677 0.0
N1373 N 0.6024 0.25061 0.72841 0.0
C1374 C 0.62139 0.24025 0.72389 0.0
C1375 C 0.58222 0.21977 0.7158 0.0
C1376 C 0.62134 0.21866 0.71624 0.0
C1377 C 0.58297 0.24114 0.72324 0.0
C1378 C 0.60146 0.20835 0.71266 0.0
N1379 N 0.64064 0.27282 0.73141 0.0
C1380 C 0.65929 0.28492 0.73101 0.0
C1381 C 0.66067 0.24126 0.72014 0.0
C1382 C 0.64093 0.25156 0.72559 0.0
C1383 C 0.67989 0.25332 0.72078 0.0
C1384 C 0.67915 0.27528 0.72601 0.0
H1385 H 0.60081 0.19183 0.70675 0.0
H1386 H 0.64126 0.1916 0.70601 0.0
H1387 H 0.67564 0.2113 0.70961 0.0
O1388 O 0.61961 0.29766 0.71102 0.0
O1389 O 0.63347 0.28429 0.76606 0.0
O1390 O 0.61238 0.27641 0.79502 0.0
O1391 O 0.58534 0.28903 0.71265 0.0
O1392 O 0.62462 0.31662 0.75139 0.0
O1393 O 0.61803 0.32155 0.78787 0.0
O1394 O 0.57561 0.29411 0.82866 0.0
O1395 O 0.58548 0.33385 0.77629 0.0
O1396 O 0.58429 0.31935 0.7421 0.0
O1397 O 0.60251 0.31585 0.82411 0.0
O1398 O 0.57635 0.26582 0.79282 0.0
O1399 O 0.59422 0.25525 0.76168 0.0
C1400 C 0.63147 0.27769 0.78603 0.0
C1401 C 0.60352 0.288 0.67811 0.0
C1402 C 0.6166 0.29584 0.64163 0.0
C1403 C 0.60882 0.27549 0.63486 0.0
C1404 C 0.59579 0.26784 0.67111 0.0
C1405 C 0.59858 0.2616 0.64956 0.0
C1406 C 0.61405 0.30172 0.66342 0.0
C1407 C 0.6287 0.32631 0.76986 0.0
C1408 C 0.60147 0.29563 0.7005 0.0
C1409 C 0.64104 0.20823 0.71166 0.0
C1410 C 0.66063 0.21946 0.71367 0.0
C1411 C 0.58198 0.33655 0.75546 0.0
C1412 C 0.60546 0.29267 0.85337 0.0
C1413 C 0.62357 0.25938 0.86537 0.0
C1414 C 0.63699 0.27214 0.87875 0.0
C1415 C 0.6184 0.30474 0.86755 0.0
C1416 C 0.60792 0.27007 0.85247 0.0
C1417 C 0.63408 0.29452 0.8801 0.0
C1418 C 0.5825 0.25008 0.77929 0.0
C1419 C 0.59162 0.30436 0.83788 0.0
H1420 H 0.61032 0.27041 0.61818 0.0
H1421 H 0.58766 0.25697 0.68214 0.0
H1422 H 0.59261 0.246 0.64417 0.0
H1423 H 0.62048 0.31702 0.66919 0.0
H1424 H 0.6497 0.265 0.88842 0.0
H1425 H 0.61682 0.32221 0.86841 0.0
H1426 H 0.59736 0.26101 0.84185 0.0
H1427 H 0.6442 0.30402 0.8908 0.0
Eu1428 Eu 0.55181 0.55331 0.72079 0.0
C1429 C 0.48097 0.48892 0.71856 0.0
N1430 N 0.48937 0.49518 0.69927 0.0
C1431 C 0.48132 0.46034 0.68387 0.0
C1432 C 0.47219 0.46794 0.72112 0.0
C1433 C 0.4898 0.48123 0.682 0.0
C1434 C 0.47227 0.45373 0.70345 0.0
C1435 C 0.47436 0.49646 0.75645 0.0
C1436 C 0.48217 0.50318 0.73607 0.0
C1437 C 0.46494 0.47584 0.75882 0.0
C1438 C 0.46385 0.46165 0.74123 0.0
Eu1439 Eu 0.49904 0.53217 0.6969 0.0
N1440 N 0.49134 0.52324 0.73341 0.0
C1441 C 0.47635 0.51057 0.774 0.0
C1442 C 0.49343 0.53687 0.75062 0.0
C1443 C 0.48611 0.53074 0.7711 0.0
H1444 H 0.49691 0.48619 0.66681 0.0
H1445 H 0.48787 0.54168 0.78465 0.0
H1446 H 0.54892 0.59529 0.75496 0.0
H1447 H 0.62505 0.53342 0.67328 0.0
H1448 H 0.50078 0.55245 0.74893 0.0
H1449 H 0.47057 0.50598 0.78989 0.0
H1450 H 0.59491 0.52498 0.69789 0.0
H1451 H 0.48171 0.4494 0.6702 0.0
H1452 H 0.45866 0.4706 0.77432 0.0
H1453 H 0.45682 0.4457 0.74342 0.0
H1454 H 0.56013 0.63394 0.75532 0.0
H1455 H 0.46566 0.43751 0.70483 0.0
H1456 H 0.63428 0.5716 0.66517 0.0
N1457 N 0.56736 0.58771 0.7271 0.0
C1458 C 0.58265 0.59436 0.71298 0.0
C1459 C 0.56644 0.62305 0.74313 0.0
C1460 C 0.58965 0.61607 0.71242 0.0
C1461 C 0.56002 0.60129 0.74285 0.0
C1462 C 0.58091 0.63063 0.72745 0.0
N1463 N 0.58636 0.55792 0.70336 0.0
C1464 C 0.59874 0.54168 0.69476 0.0
C1465 C 0.60973 0.58454 0.68661 0.0
C1466 C 0.5925 0.57884 0.70046 0.0
C1467 C 0.62103 0.56797 0.67609 0.0
C1468 C 0.61591 0.54641 0.6807 0.0
H1469 H 0.58584 0.64749 0.72762 0.0
H1470 H 0.61091 0.63895 0.69633 0.0
H1471 H 0.6285 0.61125 0.67354 0.0
O1472 O 0.57355 0.55429 0.74833 0.0
O1473 O 0.54087 0.57586 0.69338 0.0
O1474 O 0.5111 0.55993 0.67693 0.0
O1475 O 0.54091 0.54087 0.752 0.0
O1476 O 0.55691 0.52982 0.69344 0.0
O1477 O 0.52651 0.53106 0.67195 0.0
O1478 O 0.46365 0.53464 0.69303 0.0
O1479 O 0.52098 0.50223 0.70443 0.0
O1480 O 0.55091 0.51476 0.72261 0.0
O1481 O 0.48372 0.52355 0.66669 0.0
O1482 O 0.49154 0.56746 0.7116 0.0
O1483 O 0.524 0.57843 0.72676 0.0
C1484 C 0.52607 0.57498 0.67797 0.0
C1485 C 0.57019 0.52158 0.76741 0.0
C1486 C 0.59248 0.48999 0.75834 0.0
C1487 C 0.58589 0.4801 0.77776 0.0
C1488 C 0.5635 0.5114 0.78648 0.0
C1489 C 0.57159 0.49085 0.79175 0.0
C1490 C 0.58509 0.51103 0.75388 0.0
C1491 C 0.54755 0.52855 0.67456 0.0
C1492 C 0.56058 0.54224 0.76011 0.0
C1493 C 0.60563 0.62223 0.69743 0.0
C1494 C 0.61563 0.60646 0.68447 0.0
C1495 C 0.53852 0.49822 0.71599 0.0
C1496 C 0.44828 0.53369 0.65721 0.0
C1497 C 0.41442 0.55099 0.6478 0.0
C1498 C 0.41497 0.54099 0.62742 0.0
C1499 C 0.44874 0.52376 0.63672 0.0
C1500 C 0.43117 0.54755 0.66259 0.0
C1501 C 0.4322 0.52754 0.62187 0.0
C1502 C 0.50346 0.58268 0.72181 0.0
C1503 C 0.46417 0.52696 0.67342 0.0
H1504 H 0.59135 0.46398 0.78195 0.0
H1505 H 0.55191 0.51917 0.79709 0.0
H1506 H 0.56641 0.483 0.80651 0.0
H1507 H 0.59074 0.51931 0.73953 0.0
H1508 H 0.40211 0.54371 0.61581 0.0
H1509 H 0.46161 0.51262 0.63239 0.0
H1510 H 0.43044 0.55507 0.67841 0.0
H1511 H 0.43258 0.51977 0.60618 0.0
Eu1512 Eu 0.99066 0.33329 0.05685 0.0
C1513 C 0.05613 0.3405 0.98535 0.0
N1514 N 0.0484 0.3564 0.9985 0.0
C1515 C 0.08336 0.37322 0.99985 0.0
C1516 C 0.07795 0.34066 0.9786 0.0
C1517 C 0.06163 0.3724 1.00621 0.0
C1518 C 0.09148 0.35747 0.98575 0.0
C1519 C 0.05085 0.30539 0.96834 0.0
C1520 C 0.04263 0.32289 0.98045 0.0
C1521 C 0.07223 0.30617 0.96047 0.0
C1522 C 0.08574 0.32371 0.96562 0.0
Eu1523 Eu 1.01074 0.35519 1.0042 0.0
N1524 N 1.0221 0.32222 0.98884 0.0
C1525 C 0.0375 0.28735 0.96495 0.0
C1526 C 1.00925 0.30449 0.98606 0.0
C1527 C 1.01675 0.2868 0.97405 0.0
H1528 H 0.05518 0.38479 1.01677 0.0
H1529 H 1.00649 0.27276 0.97173 0.0
H1530 H 0.95349 0.29402 0.05286 0.0
H1531 H 1.00618 0.3802 0.13117 0.0
H1532 H 0.9932 0.30392 0.99293 0.0
H1533 H 0.04322 0.27357 0.9557 0.0
H1534 H 1.01699 0.35816 0.09986 0.0
H1535 H 0.09378 0.38606 1.00569 0.0
H1536 H 0.0787 0.29296 0.9509 0.0
H1537 H 0.10238 0.32371 0.95999 0.0
H1538 H 0.91613 0.28693 0.0659 0.0
H1539 H 0.10835 0.35814 0.9809 0.0
H1540 H 0.96765 0.382 0.14225 0.0
N1541 N 0.95798 0.32148 0.07302 0.0
C1542 C 0.94998 0.33365 0.08926 0.0
C1543 C 0.92539 0.30028 0.07252 0.0
C1544 C 0.92878 0.33051 0.09712 0.0
C1545 C 0.94648 0.3043 0.06518 0.0
C1546 C 0.91626 0.31382 0.08819 0.0
N1547 N 0.98471 0.34832 0.09218 0.0
C1548 C 1.00006 0.35886 0.10422 0.0
C1549 C 0.95697 0.3599 0.11725 0.0
C1550 C 0.96388 0.34785 0.09916 0.0
C1551 C 0.97228 0.37236 0.12835 0.0
C1552 C 0.99403 0.37134 0.12216 0.0
H1553 H 0.89989 0.31079 0.09379 0.0
H1554 H 0.90476 0.34185 0.12008 0.0
H1555 H 0.92949 0.36786 0.13768 0.0
O1556 O 0.99264 0.30323 0.07475 0.0
O1557 O 0.96683 0.35957 0.04575 0.0
O1558 O 0.98486 0.37692 1.01791 0.0
O1559 O 1.00817 0.30556 0.043 0.0
O1560 O 1.01159 0.36259 0.06222 0.0
O1561 O 1.01358 0.38182 0.03027 0.0
O1562 O 1.00106 0.36036 0.97047 0.0
O1563 O 0.03667 0.33475 0.02362 0.0
O1564 O 0.02879 0.34008 0.05896 0.0
O1565 O 1.02354 0.3822 0.98569 0.0
O1566 O 0.97599 0.33982 0.99704 0.0
O1567 O 0.96437 0.32712 0.03004 0.0
C1568 C 0.96881 0.37556 0.03174 0.0
C1569 C 0.02847 0.29187 0.07286 0.0
C1570 C 0.05469 0.3049 0.09974 0.0
C1571 C 0.06883 0.28813 0.09339 0.0
C1572 C 0.04285 0.27555 0.06658 0.0
C1573 C 0.06289 0.2736 0.07699 0.0
C1574 C 0.03443 0.30613 0.08963 0.0
C1575 C 1.015 0.38056 0.05153 0.0
C1576 C 1.00755 0.29549 0.06181 0.0
C1577 C 0.92118 0.3436 0.11409 0.0
C1578 C 0.93526 0.35839 0.1241 0.0
C1579 C 0.04374 0.33613 0.0438 0.0
C1580 C 0.99872 0.39754 0.96159 0.0
C1581 C 0.97716 0.41449 0.9335 0.0
C1582 C 0.97483 0.43305 0.94645 0.0
C1583 C 0.99601 0.4161 0.97459 0.0
C1584 C 0.98924 0.39685 0.94113 0.0
C1585 C 0.98418 0.43377 0.96695 0.0
C1586 C 0.96051 0.33055 1.00917 0.0
C1587 C 1.01129 0.37878 0.96909 0.0
H1588 H 0.08444 0.28607 0.10108 0.0
H1589 H 0.03865 0.26446 0.05367 0.0
H1590 H 0.07399 0.26088 0.07223 0.0
H1591 H 1.02347 0.31903 0.09403 0.0
H1592 H 0.96546 0.44679 0.94088 0.0
H1593 H 1.00296 0.41698 0.99063 0.0
H1594 H 0.99137 0.3826 0.93109 0.0
H1595 H 0.98215 0.448 0.97699 0.0
Eu1596 Eu 0.53565 0.69617 0.50286 0.0
C1597 C 0.57809 0.76868 0.54204 0.0
N1598 N 0.58095 0.75066 0.55418 0.0
C1599 C 0.61279 0.76586 0.57033 0.0
C1600 C 0.59263 0.78625 0.54371 0.0
C1601 C 0.59803 0.74884 0.56807 0.0
C1602 C 0.61002 0.78471 0.55817 0.0
C1603 C 0.55827 0.78757 0.51403 0.0
C1604 C 0.56105 0.76922 0.5274 0.0
C1605 C 0.57241 0.80531 0.516 0.0
C1606 C 0.58955 0.80465 0.53078 0.0
Eu1607 Eu 0.55415 0.72381 0.55169 0.0
N1608 N 0.54767 0.75167 0.52572 0.0
C1609 C 0.54156 0.78748 0.49882 0.0
C1610 C 0.53185 0.75146 0.51039 0.0
C1611 C 0.52842 0.76924 0.49687 0.0
H1612 H 0.60023 0.73419 0.57738 0.0
H1613 H 0.51569 0.76878 0.48485 0.0
H1614 H 0.49327 0.72666 0.48514 0.0
H1615 H 0.54641 0.60845 0.49295 0.0
H1616 H 0.52196 0.73762 0.5081 0.0
H1617 H 0.5389 0.80123 0.48827 0.0
H1618 H 0.55864 0.64617 0.49662 0.0
H1619 H 0.6263 0.76441 0.58138 0.0
H1620 H 0.57039 0.81954 0.50594 0.0
H1621 H 0.60047 0.81836 0.53192 0.0
H1622 H 0.45463 0.72127 0.47597 0.0
H1623 H 0.62153 0.79787 0.55989 0.0
H1624 H 0.5074 0.60024 0.48902 0.0
N1625 N 0.49887 0.69332 0.49201 0.0
C1626 C 0.49101 0.67276 0.49061 0.0
C1627 C 0.46462 0.70752 0.48027 0.0
C1628 C 0.46904 0.66896 0.48545 0.0
C1629 C 0.48649 0.71051 0.48543 0.0
C1630 C 0.45572 0.68672 0.4808 0.0
N1631 N 0.52676 0.65949 0.49562 0.0
C1632 C 0.54154 0.64296 0.49512 0.0
C1633 C 0.49767 0.63395 0.4902 0.0
C1634 C 0.50529 0.6554 0.49264 0.0
C1635 C 0.51263 0.61692 0.4908 0.0
C1636 C 0.53468 0.62148 0.49296 0.0
H1637 H 0.43877 0.68445 0.47678 0.0
H1638 H 0.44436 0.64442 0.48057 0.0
H1639 H 0.46938 0.61377 0.48495 0.0
O1640 O 0.54068 0.6846 0.47033 0.0
O1641 O 0.53489 0.6715 0.53032 0.0
O1642 O 0.53092 0.69607 0.55756 0.0
O1643 O 0.53642 0.71965 0.47632 0.0
O1644 O 0.56686 0.68048 0.51277 0.0
O1645 O 0.57386 0.69167 0.54789 0.0
O1646 O 0.56366 0.71462 0.5844 0.0
O1647 O 0.58515 0.72291 0.53131 0.0
O1648 O 0.57037 0.71456 0.49827 0.0
O1649 O 0.55006 0.74616 0.5786 0.0
O1650 O 0.51662 0.73106 0.55066 0.0
O1651 O 0.50522 0.70836 0.52355 0.0
C1652 C 0.53131 0.67604 0.55072 0.0
C1653 C 0.53345 0.70644 0.43966 0.0
C1654 C 0.54293 0.69815 0.40246 0.0
C1655 C 0.52658 0.71228 0.39533 0.0
C1656 C 0.51733 0.72077 0.43259 0.0
C1657 C 0.51375 0.72343 0.41039 0.0
C1658 C 0.54572 0.69494 0.42461 0.0
C1659 C 0.5775 0.67871 0.53104 0.0
C1660 C 0.54004 0.70416 0.4622 0.0
C1661 C 0.46126 0.64761 0.48416 0.0
C1662 C 0.47552 0.63015 0.4866 0.0
C1663 C 0.58747 0.72143 0.5102 0.0
C1664 C 0.54023 0.72906 0.61035 0.0
C1665 C 0.50449 0.71762 0.62192 0.0
C1666 C 0.50864 0.72684 0.64237 0.0
C1667 C 0.54435 0.73779 0.6308 0.0
C1668 C 0.52039 0.71876 0.60601 0.0
C1669 C 0.5285 0.73666 0.6468 0.0
C1670 C 0.50039 0.7217 0.53989 0.0
C1671 C 0.5559 0.73215 0.59307 0.0
H1672 H 0.5242 0.71523 0.37825 0.0
H1673 H 0.50783 0.73003 0.44406 0.0
H1674 H 0.50141 0.73456 0.40482 0.0
H1675 H 0.55817 0.68389 0.43027 0.0
H1676 H 0.49668 0.72608 0.65508 0.0
H1677 H 0.55962 0.74576 0.63423 0.0
H1678 H 0.51711 0.71187 0.59036 0.0
H1679 H 0.53157 0.74344 0.66265 0.0
Eu1680 Eu 0.6948 0.50048 0.53302 0.0
C1681 C 0.76457 0.55261 0.57062 0.0
N1682 N 0.74517 0.56226 0.57409 0.0
C1683 C 0.7598 0.58173 0.60429 0.0
C1684 C 0.78264 0.55755 0.58369 0.0
C1685 C 0.74237 0.57624 0.59097 0.0
C1686 C 0.78011 0.57253 0.60049 0.0
C1687 C 0.78555 0.5253 0.55189 0.0
C1688 C 0.76591 0.53667 0.55497 0.0
C1689 C 0.80387 0.53085 0.56415 0.0
C1690 C 0.80241 0.54691 0.58005 0.0
Eu1691 Eu 0.71646 0.55312 0.55068 0.0
N1692 N 0.74767 0.53124 0.54387 0.0
C1693 C 0.78601 0.50814 0.53715 0.0
C1694 C 0.74792 0.51369 0.53054 0.0
C1695 C 0.76699 0.50212 0.52665 0.0
H1696 H 0.72662 0.58311 0.59431 0.0
H1697 H 0.76689 0.48836 0.51578 0.0
H1698 H 0.72689 0.48415 0.49152 0.0
H1699 H 0.60731 0.48629 0.54202 0.0
H1700 H 0.73346 0.50824 0.52317 0.0
H1701 H 0.80073 0.499 0.53433 0.0
H1702 H 0.64458 0.4918 0.555 0.0
H1703 H 0.75753 0.59294 0.61756 0.0
H1704 H 0.81909 0.52237 0.56188 0.0
H1705 H 0.8165 0.5506 0.58982 0.0
H1706 H 0.72273 0.47405 0.45306 0.0
H1707 H 0.79357 0.57668 0.61094 0.0
H1708 H 0.60016 0.4824 0.50294 0.0
N1709 N 0.69323 0.49022 0.49618 0.0
C1710 C 0.67288 0.48782 0.48801 0.0
C1711 C 0.70862 0.47817 0.46262 0.0
C1712 C 0.6698 0.48215 0.46612 0.0
C1713 C 0.71092 0.48385 0.48436 0.0
C1714 C 0.68802 0.47786 0.45331 0.0
N1715 N 0.65854 0.49207 0.52347 0.0
C1716 C 0.64177 0.49032 0.53789 0.0
C1717 C 0.63396 0.48544 0.49393 0.0
C1718 C 0.6551 0.48903 0.50194 0.0
C1719 C 0.6166 0.48504 0.50851 0.0
C1720 C 0.62057 0.48716 0.53059 0.0
H1721 H 0.68629 0.4734 0.43646 0.0
H1722 H 0.64605 0.47585 0.4411 0.0
H1723 H 0.61469 0.47906 0.46536 0.0
O1724 O 0.68388 0.46699 0.53573 0.0
O1725 O 0.66777 0.52588 0.53311 0.0
O1726 O 0.68994 0.55399 0.52542 0.0
O1727 O 0.71891 0.47429 0.53315 0.0
O1728 O 0.67906 0.50785 0.56507 0.0
O1729 O 0.68601 0.54429 0.57068 0.0
O1730 O 0.72799 0.58618 0.54494 0.0
O1731 O 0.72079 0.53217 0.58123 0.0
O1732 O 0.71438 0.49809 0.56721 0.0
O1733 O 0.69935 0.58078 0.56431 0.0
O1734 O 0.72513 0.55238 0.51341 0.0
O1735 O 0.70673 0.52187 0.50237 0.0
C1736 C 0.67043 0.54609 0.52729 0.0
C1737 C 0.70839 0.43626 0.53532 0.0
C1738 C 0.69866 0.39981 0.54728 0.0
C1739 C 0.7167 0.39163 0.53596 0.0
C1740 C 0.72635 0.42781 0.52428 0.0
C1741 C 0.73036 0.40556 0.5245 0.0
C1742 C 0.6945 0.42222 0.5466 0.0
C1743 C 0.67549 0.52616 0.57535 0.0
C1744 C 0.70365 0.45955 0.53437 0.0
C1745 C 0.6487 0.47982 0.45795 0.0
C1746 C 0.63083 0.48158 0.47179 0.0
C1747 C 0.72099 0.51088 0.58382 0.0
C1748 C 0.69774 0.60926 0.53997 0.0
C1749 C 0.68399 0.6193 0.50428 0.0
C1750 C 0.67093 0.6352 0.51438 0.0
C1751 C 0.68442 0.6249 0.54956 0.0
C1752 C 0.6969 0.60602 0.51753 0.0
C1753 C 0.67091 0.63764 0.5368 0.0
C1754 C 0.71834 0.5396 0.49729 0.0
C1755 C 0.71075 0.59484 0.55361 0.0
H1756 H 0.72056 0.37452 0.5363 0.0
H1757 H 0.73706 0.43837 0.51523 0.0
H1758 H 0.74418 0.3991 0.51586 0.0
H1759 H 0.68044 0.42879 0.55483 0.0
H1760 H 0.66113 0.64634 0.50513 0.0
H1761 H 0.68432 0.62707 0.56694 0.0
H1762 H 0.70647 0.59316 0.51051 0.0
H1763 H 0.66067 0.64978 0.54425 0.0
Eu1764 Eu 0.74996 0.46727 0.79991 0.0
C1765 C 0.82319 0.46618 0.73585 0.0
N1766 N 0.81167 0.44927 0.74404 0.0
C1767 C 0.81475 0.43003 0.71054 0.0
C1768 C 0.83103 0.46552 0.71447 0.0
C1769 C 0.80717 0.43141 0.73177 0.0
C1770 C 0.8269 0.44707 0.7019 0.0
C1771 C 0.8364 0.50302 0.73982 0.0
C1772 C 0.82564 0.48482 0.74847 0.0
C1773 C 0.84499 0.50209 0.71878 0.0
C1774 C 0.8423 0.48342 0.70615 0.0
Eu1775 Eu 0.80338 0.45177 0.78111 0.0
N1776 N 0.81683 0.48543 0.76876 0.0
C1777 C 0.83808 0.52171 0.75251 0.0
C1778 C 0.81863 0.50355 0.78124 0.0
C1779 C 0.82909 0.522 0.77323 0.0
H1780 H 0.79814 0.41803 0.73854 0.0
H1781 H 0.8304 0.5364 0.78314 0.0
H1782 H 0.75264 0.49975 0.84332 0.0
H1783 H 0.67559 0.42993 0.7678 0.0
H1784 H 0.81215 0.50391 0.79742 0.0
H1785 H 0.84622 0.53603 0.74643 0.0
H1786 H 0.71009 0.4493 0.76482 0.0
H1787 H 0.81136 0.41578 0.70091 0.0
H1788 H 0.85347 0.51588 0.71198 0.0
H1789 H 0.84867 0.48314 0.68983 0.0
H1790 H 0.73535 0.50205 0.87933 0.0
H1791 H 0.83272 0.44595 0.68542 0.0
H1792 H 0.65813 0.42523 0.80351 0.0
N1793 N 0.72983 0.47699 0.83111 0.0
C1794 C 0.71142 0.46583 0.83488 0.0
C1795 C 0.72843 0.49174 0.86698 0.0
C1796 C 0.70117 0.4662 0.85521 0.0
C1797 C 0.73806 0.49054 0.84653 0.0
C1798 C 0.71014 0.47913 0.87151 0.0
N1799 N 0.7125 0.45644 0.79847 0.0
C1800 C 0.70252 0.44829 0.78044 0.0
C1801 C 0.68267 0.44372 0.82043 0.0
C1802 C 0.70239 0.45499 0.81784 0.0
C1803 C 0.67317 0.43422 0.80224 0.0
C1804 C 0.68292 0.43695 0.78207 0.0
H1805 H 0.70284 0.47986 0.88742 0.0
H1806 H 0.67437 0.4535 0.87404 0.0
H1807 H 0.65814 0.4336 0.84347 0.0
O1808 O 0.74167 0.50145 0.79938 0.0
O1809 O 0.76146 0.43882 0.82133 0.0
O1810 O 0.79213 0.42614 0.80421 0.0
O1811 O 0.77268 0.4909 0.78639 0.0
O1812 O 0.74527 0.43835 0.77894 0.0
O1813 O 0.77929 0.42339 0.77491 0.0
O1814 O 0.83823 0.45174 0.79051 0.0
O1815 O 0.78327 0.46684 0.7523 0.0
O1816 O 0.74742 0.46386 0.76137 0.0
O1817 O 0.82379 0.42452 0.77317 0.0
O1818 O 0.80592 0.46967 0.81599 0.0
O1819 O 0.77194 0.46583 0.83043 0.0
C1820 C 0.77701 0.42424 0.81891 0.0
C1821 C 0.75191 0.51633 0.76615 0.0
C1822 C 0.72676 0.51587 0.73549 0.0
C1823 C 0.74006 0.53075 0.7246 0.0
C1824 C 0.76544 0.53063 0.75487 0.0
C1825 C 0.75924 0.53818 0.73437 0.0
C1826 C 0.73229 0.50989 0.75665 0.0
C1827 C 0.75788 0.42237 0.77344 0.0
C1828 C 0.75817 0.50647 0.78705 0.0
C1829 C 0.68224 0.45393 0.85839 0.0
C1830 C 0.67301 0.44262 0.841 0.0
C1831 C 0.76269 0.46677 0.74608 0.0
C1832 C 0.86183 0.42162 0.77918 0.0
C1833 C 0.89519 0.40882 0.7954 0.0
C1834 C 0.89902 0.3956 0.77737 0.0
C1835 C 0.86591 0.40859 0.76098 0.0
C1836 C 0.87673 0.42203 0.79614 0.0
C1837 C 0.88453 0.39575 0.76006 0.0
C1838 C 0.79266 0.47058 0.83336 0.0
C1839 C 0.84109 0.43295 0.78134 0.0
H1840 H 0.73623 0.53577 0.70828 0.0
H1841 H 0.78073 0.53576 0.76175 0.0
H1842 H 0.76975 0.5492 0.72567 0.0
H1843 H 0.72161 0.49905 0.76543 0.0
H1844 H 0.9132 0.38527 0.77669 0.0
H1845 H 0.85453 0.40808 0.74766 0.0
H1846 H 0.87344 0.43176 0.81038 0.0
H1847 H 0.88752 0.38561 0.74609 0.0
Eu1848 Eu 0.8245 0.49939 0.0525 0.0
C1849 C 0.82917 0.57037 0.98837 0.0
N1850 N 0.84558 0.55762 0.99568 0.0
C1851 C 0.86265 0.5583 0.96083 0.0
C1852 C 0.82912 0.57779 0.96682 0.0
C1853 C 0.86207 0.55122 0.98224 0.0
C1854 C 0.84627 0.57186 0.95315 0.0
C1855 C 0.79359 0.58617 0.99409 0.0
C1856 C 0.81148 0.57437 1.00201 0.0
C1857 C 0.794 0.59444 0.97293 0.0
C1858 C 0.81169 0.59028 0.95936 0.0
Eu1859 Eu 0.8451 0.55141 0.03337 0.0
N1860 N 0.81134 0.56603 1.02252 0.0
C1861 C 0.77561 0.5891 1.00755 0.0
C1862 C 0.79373 0.56877 0.03561 0.0
C1863 C 0.77561 0.58019 0.02827 0.0
H1864 H 0.87498 0.54107 0.98835 0.0
H1865 H 0.76166 0.58226 0.03869 0.0
H1866 H 0.78775 0.50568 0.09165 0.0
H1867 H 0.86674 0.42358 0.03064 0.0
H1868 H 0.79333 0.56215 0.0517 0.0
H1869 H 0.76155 0.59801 1.00202 0.0
H1870 H 0.84916 0.45793 1.02299 0.0
H1871 H 0.87581 0.55344 0.95031 0.0
H1872 H 0.78048 0.60374 0.96674 0.0
H1873 H 0.81149 0.59636 0.94294 0.0
H1874 H 0.779 0.48964 0.12715 0.0
H1875 H 0.84677 0.57729 0.93652 0.0
H1876 H 0.86346 0.40679 0.06669 0.0
N1877 N 0.81026 0.481 0.08309 0.0
C1878 C 0.81964 0.46215 0.08889 0.0
C1879 C 0.79048 0.48169 0.11656 0.0
C1880 C 0.81558 0.45261 0.1092 0.0
C1881 C 0.79535 0.49061 0.09636 0.0
C1882 C 0.80094 0.46277 0.12319 0.0
N1883 N 0.83523 0.46173 0.05451 0.0
C1884 C 0.84682 0.45112 0.0388 0.0
C1885 C 0.84274 0.4322 0.07916 0.0
C1886 C 0.83276 0.45216 0.07409 0.0
C1887 C 0.85533 0.422 0.06341 0.0
C1888 C 0.85712 0.43138 0.04305 0.0
H1889 H 0.7974 0.45602 0.13896 0.0
H1890 H 0.8236 0.42586 0.13043 0.0
H1891 H 0.84763 0.40798 0.10407 0.0
O1892 O 0.79003 0.49274 0.05048 0.0
O1893 O 0.85179 0.50999 0.07549 0.0
O1894 O 0.86817 0.53948 0.05927 0.0
O1895 O 0.80272 0.52226 0.03628 0.0
O1896 O 0.85403 0.4938 0.03231 0.0
O1897 O 0.87254 0.52611 0.03082 0.0
O1898 O 0.85032 0.58587 0.04228 0.0
O1899 O 0.82992 0.53047 1.0047 0.0
O1900 O 0.82962 0.49474 1.01447 0.0
O1901 O 0.87147 0.56986 1.02005 0.0
O1902 O 0.82757 0.557 0.06811 0.0
O1903 O 0.82417 0.52261 0.08202 0.0
C1904 C 0.86748 0.52459 0.07445 0.0
C1905 C 0.77828 0.50065 1.01546 0.0
C1906 C 0.7809 0.47174 0.98854 0.0
C1907 C 0.77231 0.48563 0.97282 0.0
C1908 C 0.77019 0.51469 0.9996 0.0
C1909 C 0.76647 0.50692 0.97854 0.0
C1910 C 0.78187 0.4789 1.00995 0.0
C1911 C 0.87174 0.50482 0.02902 0.0
C1912 C 0.7866 0.50834 0.03662 0.0
C1913 C 0.82613 0.43324 0.11475 0.0
C1914 C 0.83977 0.42307 0.09974 0.0
C1915 C 0.82848 0.50975 0.99878 0.0
C1916 C 0.88689 0.59924 0.0379 0.0
C1917 C 0.90329 0.62787 0.05926 0.0
C1918 C 0.92357 0.62326 0.05005 0.0
C1919 C 0.90734 0.59499 0.02856 0.0
C1920 C 0.88498 0.6159 0.0531 0.0
C1921 C 0.92552 0.60691 0.03468 0.0
C1922 C 0.82276 0.54384 0.08493 0.0
C1923 C 0.86752 0.58763 0.03016 0.0
H1924 H 0.77127 0.48053 0.95611 0.0
H1925 H 0.76738 0.53163 1.00327 0.0
H1926 H 0.76038 0.51783 0.96628 0.0
H1927 H 0.78779 0.4677 1.02207 0.0
H1928 H 0.93782 0.63249 0.05456 0.0
H1929 H 0.9093 0.58263 1.01627 0.0
H1930 H 0.86931 0.61951 0.06019 0.0
H1931 H 0.94112 0.60357 0.02738 0.0
Eu1932 Eu 0.79468 0.5823 0.30234 0.0
C1933 C 0.71769 0.59437 0.24113 0.0
N1934 N 0.72932 0.61172 0.248 0.0
C1935 C 0.72201 0.63069 0.21505 0.0
C1936 C 0.70704 0.59489 0.221 0.0
C1937 C 0.73222 0.6295 0.23517 0.0
C1938 C 0.70901 0.61348 0.20812 0.0
C1939 C 0.70714 0.55681 0.24593 0.0
C1940 C 0.71806 0.57542 0.25348 0.0
C1941 C 0.69544 0.55768 0.22646 0.0
C1942 C 0.69543 0.57664 0.21402 0.0
Eu1943 Eu 0.74299 0.60909 0.28328 0.0
N1944 N 0.7299 0.57486 0.27216 0.0
C1945 C 0.70861 0.5377 0.25797 0.0
C1946 C 0.73154 0.55619 0.28374 0.0
C1947 C 0.721 0.53735 0.27682 0.0
H1948 H 0.74207 0.6429 0.24072 0.0
H1949 H 0.72233 0.52258 0.28614 0.0
H1950 H 0.78932 0.54165 0.33897 0.0
H1951 H 0.86278 0.64025 0.30162 0.0
H1952 H 0.7407 0.55562 0.29835 0.0
H1953 H 0.70046 0.52306 0.25271 0.0
H1954 H 0.83877 0.61303 0.28522 0.0
H1955 H 0.72397 0.64493 0.20504 0.0
H1956 H 0.68678 0.54358 0.2206 0.0
H1957 H 0.68686 0.57683 0.19875 0.0
H1958 H 0.79615 0.53631 0.37797 0.0
H1959 H 0.70105 0.61447 0.19255 0.0
H1960 H 0.86476 0.64354 0.34142 0.0
N1961 N 0.80448 0.57264 0.33804 0.0
C1962 C 0.8171 0.58712 0.34867 0.0
C1963 C 0.80192 0.55081 0.36999 0.0
C1964 C 0.82123 0.5849 0.37095 0.0
C1965 C 0.79806 0.55391 0.34794 0.0
C1966 C 0.81301 0.5667 0.3817 0.0
N1967 N 0.82472 0.6032 0.31497 0.0
C1968 C 0.83839 0.61519 0.30239 0.0
C1969 C 0.84166 0.61771 0.34703 0.0
C1970 C 0.82738 0.60311 0.33678 0.0
C1971 C 0.85367 0.632 0.3342 0.0
C1972 C 0.85255 0.63023 0.31174 0.0
H1973 H 0.81587 0.56434 0.39881 0.0
H1974 H 0.83703 0.59932 0.39874 0.0
H1975 H 0.85476 0.62826 0.3778 0.0
O1976 O 0.824 0.56288 0.30293 0.0
O1977 O 0.78315 0.61042 0.32454 0.0
O1978 O 0.7635 0.63225 0.30193 0.0
O1979 O 0.79388 0.54897 0.29045 0.0
O1980 O 0.80178 0.60803 0.27709 0.0
O1981 O 0.77207 0.63099 0.27512 0.0
O1982 O 0.71066 0.61288 0.29726 0.0
O1983 O 0.76059 0.59747 0.25161 0.0
O1984 O 0.78973 0.57803 0.2641 0.0
O1985 O 0.72474 0.63918 0.27902 0.0
O1986 O 0.73983 0.59589 0.31969 0.0
O1987 O 0.76595 0.57008 0.32314 0.0
C1988 C 0.77445 0.62935 0.3197 0.0
C1989 C 0.82564 0.5449 0.26975 0.0
C1990 C 0.84186 0.56196 0.23796 0.0
C1991 C 0.84209 0.54159 0.22766 0.0
C1992 C 0.82569 0.52484 0.2592 0.0
C1993 C 0.83405 0.52321 0.23824 0.0
C1994 C 0.83385 0.56328 0.25905 0.0
C1995 C 0.79273 0.62646 0.27134 0.0
C1996 C 0.81517 0.5478 0.29091 0.0
C1997 C 0.83411 0.60041 0.38151 0.0
C1998 C 0.84421 0.61688 0.36958 0.0
C1999 C 0.77753 0.58488 0.2475 0.0
C2000 C 0.68624 0.63842 0.28229 0.0
C2001 C 0.64931 0.64775 0.29255 0.0
C2002 C 0.64483 0.65329 0.27099 0.0
C2003 C 0.68171 0.64439 0.2609 0.0
C2004 C 0.66994 0.63991 0.2979 0.0
C2005 C 0.66098 0.65152 0.25525 0.0
C2006 C 0.74956 0.58075 0.33179 0.0
C2007 C 0.708 0.63235 0.2897 0.0
H2008 H 0.84874 0.53976 0.21156 0.0
H2009 H 0.81906 0.51061 0.26703 0.0
H2010 H 0.83417 0.50768 0.2301 0.0
H2011 H 0.83331 0.5789 0.26697 0.0
H2012 H 0.62914 0.65967 0.26644 0.0
H2013 H 0.69409 0.64397 0.24865 0.0
H2014 H 0.67355 0.63542 0.31446 0.0
H2015 H 0.65758 0.65619 0.23875 0.0
H2016 H 0.1358 0.23681 0.2283 0.0
H2017 H 0.22147 0.30476 0.1595 0.0
H2018 H 0.15301 0.30217 0.24508 0.0
H2019 H 0.19022 0.24689 0.13574 0.0
H2020 H 0.19959 0.30282 0.19227 0.0
H2021 H 0.15927 0.23855 0.19696 0.0
C2022 C 0.1449 0.2514 0.22574 0.0
C2023 C 0.14264 0.26912 0.23975 0.0
C2024 C 0.19741 0.29059 0.17989 0.0
C2025 C 0.16936 0.27169 0.20288 0.0
C2026 C 0.20992 0.29161 0.16108 0.0
C2027 C 0.20776 0.2759 0.14463 0.0
C2028 C 0.18264 0.27358 0.18267 0.0
C2029 C 0.19241 0.25941 0.14778 0.0
C2030 C 0.15821 0.2525 0.20754 0.0
C2031 C 0.15453 0.28793 0.23496 0.0
N2032 N 0.18059 0.2586 0.16647 0.0
N2033 N 0.16736 0.28876 0.2169 0.0
H2034 H 0.03182 0.91222 0.50028 0.0
H2035 H 0.04508 0.92741 0.37176 0.0
H2036 H 0.03544 0.85917 0.45498 0.0
H2037 H 1.02179 0.978 0.4141 0.0
H2038 H 0.04635 0.90278 0.40302 0.0
H2039 H 0.03257 0.93761 0.46955 0.0
C2040 C 0.03258 0.90587 0.48397 0.0
C2041 C 0.03313 0.88343 0.48029 0.0
C2042 C 0.04101 0.91933 0.40538 0.0
C2043 C 0.03446 0.91227 0.44516 0.0
C2044 C 0.04035 0.93336 0.38754 0.0
C2045 C 0.03315 0.95475 0.39015 0.0
C2046 C 0.03476 0.92685 0.426 0.0
C2047 C 0.02722 0.96158 0.41112 0.0
C2048 C 0.03306 0.92034 0.46645 0.0
C2049 C 0.03449 0.8762 0.45876 0.0
N2050 N 0.02821 0.94776 0.42814 0.0
N2051 N 0.03514 0.89049 0.44212 0.0
H2052 H 0.38524 0.80146 0.75256 0.0
H2053 H 0.34743 0.73782 0.64603 0.0
H2054 H 0.41105 0.73976 0.73295 0.0
H2055 H 0.33355 0.80546 0.6569 0.0
H2056 H 0.36654 0.73649 0.68047 0.0
H2057 H 0.36061 0.80067 0.72143 0.0
C2058 C 0.385 0.78726 0.74231 0.0
C2059 C 0.40002 0.7705 0.74554 0.0
C2060 C 0.35938 0.75167 0.67537 0.0
C2061 C 0.37249 0.76981 0.7094 0.0
C2062 C 0.34853 0.75249 0.65559 0.0
C2063 C 0.33883 0.77181 0.64845 0.0
C2064 C 0.36055 0.77026 0.6884 0.0
C2065 C 0.34089 0.79026 0.66164 0.0
C2066 C 0.37126 0.78703 0.72425 0.0
C2067 C 0.39945 0.7528 0.7313 0.0
N2068 N 0.35139 0.789 0.68102 0.0
N2069 N 0.38614 0.75301 0.71378 0.0
H2070 H 0.54152 0.18519 0.95146 0.0
H2071 H 0.48299 0.0887 0.88903 0.0
H2072 H 0.49564 0.14454 0.9846 0.0
H2073 H 0.54902 0.10721 0.8756 0.0
H2074 H 0.48355 0.11247 0.92121 0.0
H2075 H 0.54195 0.15943 0.92125 0.0
C2076 C 0.53153 0.1708 0.95235 0.0
C2077 C 0.5181 0.16736 0.97034 0.0
C2078 C 0.49785 0.11134 0.91111 0.0
C2079 C 0.51793 0.13801 0.93539 0.0
C2080 C 0.49746 0.09797 0.89261 0.0
C2081 C 0.51602 0.09579 0.8796 0.0
C2082 C 0.5167 0.12319 0.9162 0.0
C2083 C 0.53434 0.10824 0.88515 0.0
C2084 C 0.53172 0.15614 0.93508 0.0
C2085 C 0.50589 0.14809 0.97086 0.0
N2086 N 0.53416 0.1214 0.90282 0.0
N2087 N 0.50571 0.13437 0.95346 0.0
H2088 H 0.147 0.20304 0.23795 0.0
H2089 H 0.23801 0.14123 0.30566 0.0
H2090 H 0.14883 0.20449 0.30765 0.0
H2091 H 0.2473 0.16135 0.23986 0.0
H2092 H 0.20479 0.16315 0.30714 0.0
H2093 H 0.18246 0.1849 0.23804 0.0
C2094 C 0.1547 0.19959 0.25324 0.0
C2095 C 0.14496 0.20593 0.27277 0.0
C2096 C 0.21451 0.16333 0.29256 0.0
C2097 C 0.18551 0.18478 0.27302 0.0
C2098 C 0.23375 0.1512 0.2919 0.0
C2099 C 0.24618 0.15022 0.27291 0.0
C2100 C 0.20721 0.17401 0.27383 0.0
C2101 C 0.23903 0.16243 0.25512 0.0
C2102 C 0.17504 0.18929 0.25329 0.0
C2103 C 0.15572 0.20033 0.2921 0.0
N2104 N 0.21996 0.1735 0.25588 0.0
N2105 N 0.17527 0.19016 0.29173 0.0
H2106 H 0.17772 0.96271 0.54387 0.0
H2107 H 0.09108 0.88882 0.48039 0.0
H2108 H 0.14907 0.98322 0.48404 0.0
H2109 H 0.10626 0.88104 0.54789 0.0
H2110 H 0.11463 0.92129 0.47952 0.0
H2111 H 0.15228 0.93211 0.5451 0.0
C2112 C 0.16604 0.96075 0.53097 0.0
C2113 C 0.16572 0.97542 0.51367 0.0
C2114 C 0.11287 0.91236 0.49447 0.0
C2115 C 0.13746 0.93937 0.51412 0.0
C2116 C 0.09969 0.89362 0.49487 0.0
C2117 C 0.0968 0.88197 0.51417 0.0
C2118 C 0.1234 0.9194 0.51347 0.0
C2119 C 0.108 0.88937 0.53259 0.0
C2120 C 0.15169 0.9431 0.5315 0.0
C2121 C 0.15009 0.97214 0.49747 0.0
N2122 N 0.12071 0.90742 0.53176 0.0
N2123 N 0.13691 0.95428 0.49782 0.0
H2124 H 0.3117 0.90019 0.80393 0.0
H2125 H 0.412 0.84911 0.73861 0.0
H2126 H 0.32315 0.90764 0.73569 0.0
H2127 H 0.39672 0.83027 0.80406 0.0
H2128 H 0.37982 0.87216 0.73839 0.0
H2129 H 0.34283 0.87503 0.80552 0.0
C2130 C 0.3203 0.89608 0.78922 0.0
C2131 C 0.31434 0.90556 0.76951 0.0
C2132 C 0.38351 0.863 0.75284 0.0
C2133 C 0.35019 0.87766 0.77124 0.0
C2134 C 0.402 0.84995 0.75299 0.0
C2135 C 0.40713 0.83773 0.77134 0.0
C2136 C 0.37005 0.86401 0.77122 0.0
C2137 C 0.39339 0.83936 0.78949 0.0
C2138 C 0.33814 0.88193 0.79014 0.0
C2139 C 0.32653 0.90038 0.75109 0.0
N2140 N 0.37551 0.85226 0.78899 0.0
N2141 N 0.34378 0.88691 0.75241 0.0
H2142 H 0.45966 0.15898 0.97475 0.0
H2143 H 0.37658 0.088 0.04319 0.0
H2144 H 0.44048 0.17437 0.03997 0.0
H2145 H 0.41235 0.06016 0.99031 0.0
H2146 H 0.40084 0.11928 0.04249 0.0
H2147 H 0.44092 0.12376 0.97817 0.0
C2148 C 0.45124 0.15512 0.98961 0.0
C2149 C 0.45179 0.16957 1.00714 0.0
C2150 C 0.40317 0.10657 0.03078 0.0
C2151 C 0.43046 0.12948 1.01121 0.0
C2152 C 0.38961 0.0885 0.03144 0.0
C2153 C 0.39212 0.07179 1.01635 0.0
C2154 C 0.4186 0.1086 1.01422 0.0
C2155 C 0.40951 0.07309 1.00174 0.0
C2156 C 0.44083 0.13493 0.99167 0.0
C2157 C 0.44058 0.16373 0.02604 0.0
N2158 N 0.42173 0.09152 1.00054 0.0
N2159 N 0.43045 0.14425 0.02755 0.0
H2160 H 0.08095 0.05028 0.37927 0.0
H2161 H 0.16417 0.97805 0.44735 0.0
H2162 H 0.06497 0.98648 0.40235 0.0
H2163 H 0.1686 0.04773 0.44354 0.0
H2164 H 0.12978 0.97977 0.42718 0.0
H2165 H 0.1143 0.04938 0.4009 0.0
C2166 C 0.08412 0.0364 0.38951 0.0
C2167 C 0.06988 1.01868 0.38955 0.0
C2168 C 0.13837 0.99464 0.43079 0.0
C2169 C 0.1086 1.0169 0.41329 0.0
C2170 C 0.15812 0.99364 0.44206 0.0
C2171 C 0.16911 1.01278 0.44761 0.0
C2172 C 0.12985 1.01489 0.4246 0.0
C2173 C 0.16055 0.03253 0.44006 0.0
C2174 C 0.10326 0.03574 0.40163 0.0
C2175 C 0.07516 1.00071 0.4024 0.0
N2176 N 0.14149 0.03307 0.42909 0.0
N2177 N 0.0942 1.00013 0.41352 0.0
H2178 H 0.28288 0.91631 0.67741 0.0
H2179 H 0.29417 0.78989 0.67056 0.0
H2180 H 0.28487 0.88104 0.73744 0.0
H2181 H 0.24918 0.82547 0.63099 0.0
H2182 H 0.29662 0.82144 0.69502 0.0
H2183 H 0.27861 0.8817 0.65818 0.0
C2184 C 0.28302 0.90127 0.68642 0.0
C2185 C 0.28461 0.90142 0.70891 0.0
C2186 C 0.28598 0.82212 0.68112 0.0
C2187 C 0.27935 0.86209 0.6871 0.0
C2188 C 0.28443 0.80411 0.66731 0.0
C2189 C 0.27208 0.80549 0.64832 0.0
C2190 C 0.27526 0.84144 0.67558 0.0
C2191 C 0.25956 0.82414 0.645 0.0
C2192 C 0.28026 0.88164 0.67551 0.0
C2193 C 0.28406 0.88148 0.71997 0.0
N2194 N 0.26189 0.84158 0.65814 0.0
N2195 N 0.2816 0.86252 0.70896 0.0
H2196 H 0.49778 0.05354 0.90538 0.0
H2197 H 0.38218 1.00506 0.9376 0.0
H2198 H 0.46529 1.00401 0.8686 0.0
H2199 H 0.40019 0.0703 0.95499 0.0
H2200 H 0.41502 1.00203 0.91595 0.0
H2201 H 0.46554 0.05652 0.92882 0.0
C2202 C 0.48397 0.04313 0.9024 0.0
C2203 C 0.48383 0.02906 0.88455 0.0
C2204 C 0.41184 1.01706 0.92443 0.0
C2205 C 0.44719 0.03216 0.91129 0.0
C2206 C 0.39299 1.01888 0.93672 0.0
C2207 C 0.38854 0.03787 0.94847 0.0
C2208 C 0.4267 0.03425 0.92393 0.0
C2209 C 0.4031 0.05527 0.94647 0.0
C2210 C 0.46554 0.04498 0.91563 0.0
C2211 C 0.46575 1.01559 0.88171 0.0
N2212 N 0.42175 0.05295 0.93471 0.0
N2213 N 0.44817 1.01752 0.89483 0.0
H2214 H 0.30139 0.22545 0.1214 0.0
H2215 H 0.28905 0.17193 0.23431 0.0
H2216 H 0.25751 0.25714 0.16549 0.0
H2217 H 0.26565 0.13618 0.17911 0.0
H2218 H 0.2906 0.20481 0.21217 0.0
H2219 H 0.3031 0.19425 0.14607 0.0
C2220 C 0.2926 0.22609 0.13656 0.0
C2221 C 0.27896 0.2437 0.14125 0.0
C2222 C 0.28516 0.18975 0.20498 0.0
C2223 C 0.28099 0.20829 0.16938 0.0
C2224 C 0.28427 0.17096 0.2175 0.0
C2225 C 0.27699 0.15123 0.20859 0.0
C2226 C 0.27964 0.18871 0.18312 0.0
C2227 C 0.27105 0.15103 0.18671 0.0
C2228 C 0.29345 0.20824 0.15045 0.0
C2229 C 0.26816 0.24386 0.16124 0.0
N2230 N 0.27279 0.16947 0.1746 0.0
N2231 N 0.26925 0.22628 0.17455 0.0
H2232 H 0.80355 0.32999 0.91676 0.0
H2233 H 0.79536 0.38576 0.80773 0.0
H2234 H 0.75915 0.29662 0.87464 0.0
H2235 H 0.76 0.41627 0.85973 0.0
H2236 H 0.7967 0.35213 0.82862 0.0
H2237 H 0.804 0.36071 0.89184 0.0
C2238 C 0.79472 0.32867 0.90174 0.0
C2239 C 0.78139 0.31063 0.89776 0.0
C2240 C 0.78865 0.3662 0.83535 0.0
C2241 C 0.78159 0.3459 0.86941 0.0
C2242 C 0.78799 0.38549 0.82363 0.0
C2243 C 0.77755 0.40401 0.83201 0.0
C2244 C 0.77947 0.36552 0.85594 0.0
C2245 C 0.76811 0.40246 0.85259 0.0
C2246 C 0.79467 0.34639 0.8878 0.0
C2247 C 0.76988 0.31004 0.8782 0.0
N2248 N 0.7696 0.3836 0.86404 0.0
N2249 N 0.77007 0.32759 0.86474 0.0
H2250 H 0.95312 0.49183 0.18016 0.0
H2251 H 0.90207 0.55262 0.07811 0.0
H2252 H 0.98788 0.54184 0.14626 0.0
H2253 H 0.87465 0.49531 0.10734 0.0
H2254 H 0.93255 0.55058 0.10335 0.0
H2255 H 0.92391 0.49422 0.15411 0.0
C2256 C 0.95458 0.50341 0.16719 0.0
C2257 C 0.97294 0.51673 0.16557 0.0
C2258 C 0.91989 0.53845 0.10421 0.0
C2259 C 0.93911 0.51973 0.13525 0.0
C2260 C 0.90236 0.5396 0.08984 0.0
C2261 C 0.88559 0.52407 0.09049 0.0
C2262 C 0.92078 0.52168 0.11949 0.0
C2263 C 0.88703 0.50769 0.10616 0.0
C2264 C 0.93785 0.50471 0.15217 0.0
C2265 C 0.97406 0.53117 0.14807 0.0
N2266 N 0.90424 0.50695 0.11994 0.0
N2267 N 0.95726 0.53243 0.13365 0.0
H2268 H 0.74818 0.72043 0.42079 0.0
H2269 H 0.7692 0.67151 0.30811 0.0
H2270 H 0.79434 0.75463 0.38121 0.0
H2271 H 0.78283 0.63191 0.3639 0.0
H2272 H 0.76939 0.70366 0.33085 0.0
H2273 H 0.74954 0.68981 0.39571 0.0
C2274 C 0.75793 0.72186 0.40631 0.0
C2275 C 0.77118 0.74014 0.40311 0.0
C2276 C 0.77263 0.68798 0.33803 0.0
C2277 C 0.77294 0.705 0.37452 0.0
C2278 C 0.77275 0.66951 0.32507 0.0
C2279 C 0.77652 0.64879 0.33392 0.0
C2280 C 0.77532 0.68583 0.36028 0.0
C2281 C 0.78009 0.64745 0.35628 0.0
C2282 C 0.75902 0.70419 0.39231 0.0
C2283 C 0.78368 0.74101 0.38417 0.0
N2284 N 0.77897 0.66571 0.36879 0.0
N2285 N 0.78433 0.72358 0.37053 0.0
H2286 H 0.82918 0.622 0.24693 0.0
H2287 H 0.87803 0.73876 0.26052 0.0
H2288 H 0.79088 0.67046 0.27905 0.0
H2289 H 0.91375 0.68327 0.28356 0.0
H2290 H 0.84595 0.71589 0.25601 0.0
H2291 H 0.86027 0.64708 0.24704 0.0
C2292 C 0.82723 0.63807 0.25363 0.0
C2293 C 0.80785 0.64375 0.26409 0.0
C2294 C 0.86083 0.70877 0.262 0.0
C2295 C 0.84292 0.67248 0.26374 0.0
C2296 C 0.87919 0.72172 0.26459 0.0
C2297 C 0.89864 0.71296 0.2727 0.0
C2298 C 0.86209 0.68665 0.26662 0.0
C2299 C 0.89907 0.69076 0.27758 0.0
C2300 C 0.84495 0.65218 0.25388 0.0
C2301 C 0.80578 0.66509 0.27168 0.0
N2302 N 0.8811 0.67828 0.27421 0.0
N2303 N 0.82323 0.67867 0.27163 0.0
H2304 H 0.75046 0.3893 0.80124 0.0
H2305 H 0.64793 0.34598 0.73531 0.0
H2306 H 0.73481 0.41169 0.73745 0.0
H2307 H 0.65391 0.33984 0.8045 0.0
H2308 H 0.68211 0.3658 0.73436 0.0
H2309 H 0.71902 0.36543 0.80055 0.0
C2310 C 0.7412 0.38832 0.78657 0.0
C2311 C 0.74595 0.40201 0.76908 0.0
C2312 C 0.67594 0.36022 0.74977 0.0
C2313 C 0.70877 0.3755 0.76859 0.0
C2314 C 0.65631 0.34894 0.7504 0.0
C2315 C 0.64788 0.34111 0.77006 0.0
C2316 C 0.68761 0.36365 0.7689 0.0
C2317 C 0.6596 0.34565 0.789 0.0
C2318 C 0.72277 0.37508 0.78642 0.0
C2319 C 0.73225 0.40092 0.75101 0.0
N2320 N 0.67896 0.35641 0.78792 0.0
N2321 N 0.71425 0.38805 0.75126 0.0
H2322 H 0.49476 0.58146 0.64737 0.0
H2323 H 0.55819 0.67419 0.58471 0.0
H2324 H 0.55863 0.60336 0.66585 0.0
H2325 H 0.50508 0.63966 0.55551 0.0
H2326 H 0.55739 0.64951 0.61519 0.0
H2327 H 0.49672 0.60402 0.61513 0.0
C2328 C 0.50922 0.59109 0.64477 0.0
C2329 C 0.52659 0.59049 0.65956 0.0
C2330 C 0.54595 0.64713 0.60215 0.0
C2331 C 0.52883 0.6164 0.62228 0.0
C2332 C 0.54633 0.66132 0.58471 0.0
C2333 C 0.53167 0.65904 0.56757 0.0
C2334 C 0.53037 0.63066 0.6029 0.0
C2335 C 0.51679 0.64187 0.56835 0.0
C2336 C 0.51031 0.60387 0.62619 0.0
C2337 C 0.54476 0.60344 0.65515 0.0
N2338 N 0.51633 0.62842 0.58591 0.0
N2339 N 0.54537 0.61585 0.63694 0.0
H2340 H 0.69683 0.31112 0.90023 0.0
H2341 H 0.6689 0.30181 0.78622 0.0
H2342 H 0.73056 0.25282 0.88102 0.0
H2343 H 0.63754 0.24852 0.81825 0.0
H2344 H 0.69424 0.30495 0.81696 0.0
H2345 H 0.67725 0.31026 0.86544 0.0
C2346 C 0.70018 0.29824 0.88881 0.0
C2347 C 0.71532 0.28198 0.89372 0.0
C2348 C 0.6819 0.29245 0.81703 0.0
C2349 C 0.6929 0.28088 0.85436 0.0
C2350 C 0.66755 0.29061 0.79957 0.0
C2351 C 0.65057 0.27548 0.80028 0.0
C2352 C 0.67965 0.27842 0.83471 0.0
C2353 C 0.65001 0.26078 0.81751 0.0
C2354 C 0.68911 0.29784 0.86902 0.0
C2355 C 0.71893 0.26563 0.87817 0.0
N2356 N 0.66431 0.26261 0.83411 0.0
N2357 N 0.70758 0.26531 0.85938 0.0
H2358 H 0.98966 0.4167 0.05554 0.0
H2359 H 0.03839 0.4391 0.17375 0.0
H2360 H 0.0469 0.38624 0.08096 0.0
H2361 H 0.97768 0.46624 0.1527 0.0
H2362 H 0.04244 0.42135 0.13879 0.0
H2363 H 0.98681 0.43843 0.0888 0.0
C2364 C 1.00213 0.41525 0.06773 0.0
C2365 C 1.0186 0.39973 0.06543 0.0
C2366 C 0.02808 0.431 0.14175 0.0
C2367 C 1.01514 0.42395 0.1038 0.0
C2368 C 0.02562 0.44093 0.16187 0.0
C2369 C 1.0075 0.45394 0.16633 0.0
C2370 C 1.01241 0.43417 0.12561 0.0
C2371 C 0.99168 0.45603 0.15014 0.0
C2372 C 1.00029 0.42736 0.08689 0.0
C2373 C 0.03413 0.39824 0.08191 0.0
N2374 N 0.99456 0.44638 0.13043 0.0
N2375 N 0.03189 0.40994 0.10042 0.0
H2376 H 0.90199 0.81043 0.31422 0.0
H2377 H 0.83833 0.7375 0.39966 0.0
H2378 H 0.88365 0.74435 0.30204 0.0
H2379 H 0.83962 0.8073 0.40341 0.0
H2380 H 0.85624 0.73966 0.3642 0.0
H2381 H 0.8786 0.81044 0.34632 0.0
C2382 C 0.89203 0.79634 0.31754 0.0
C2383 C 0.89408 0.77764 0.30479 0.0
C2384 C 0.85262 0.7545 0.37283 0.0
C2385 C 0.86858 0.77689 0.34244 0.0
C2386 C 0.84273 0.75323 0.39322 0.0
C2387 C 0.83759 0.77222 0.40459 0.0
C2388 C 0.85769 0.77489 0.36389 0.0
C2389 C 0.84327 0.79222 0.39523 0.0
C2390 C 0.87906 0.79616 0.33616 0.0
C2391 C 0.88181 0.7594 0.31067 0.0
N2392 N 0.85305 0.79303 0.37554 0.0
N2393 N 0.86994 0.75932 0.32921 0.0
H2394 H 0.65763 0.49151 0.59627 0.0
H2395 H 0.55391 0.55553 0.64027 0.0
H2396 H 0.65116 0.56085 0.59004 0.0
H2397 H 0.57577 0.4954 0.66795 0.0
H2398 H 0.58543 0.55523 0.61586 0.0
H2399 H 0.6245 0.49069 0.61787 0.0
C2400 C 0.64934 0.50663 0.59955 0.0
C2401 C 0.65721 0.52628 0.59112 0.0
C2402 C 0.58309 0.54191 0.62701 0.0
C2403 C 0.61881 0.52532 0.61562 0.0
C2404 C 0.56493 0.54189 0.64066 0.0
C2405 C 0.56213 0.52531 0.6559 0.0
C2406 C 0.59835 0.52506 0.62846 0.0
C2407 C 0.5772 0.50829 0.65617 0.0
C2408 C 0.63034 0.5061 0.61184 0.0
C2409 C 0.64575 0.54533 0.59616 0.0
N2410 N 0.59465 0.5086 0.6427 0.0
N2411 N 0.62698 0.54434 0.60783 0.0
H2412 H 0.95333 0.39581 0.99617 0.0
H2413 H 0.90401 0.49792 0.05831 0.0
H2414 H 0.94971 0.3979 0.06569 0.0
H2415 H 0.88179 0.47841 0.99536 0.0
H2416 H 0.92723 0.4656 0.05972 0.0
H2417 H 0.93244 0.4294 0.99435 0.0
C2418 C 0.94785 0.4032 1.01109 0.0
C2419 C 0.95308 0.39385 0.03112 0.0
C2420 C 0.91764 0.46867 0.04539 0.0
C2421 C 0.92965 0.43293 0.02912 0.0
C2422 C 0.90473 0.48738 0.04438 0.0
C2423 C 0.89136 0.49124 0.02642 0.0
C2424 C 0.91741 0.45382 0.02818 0.0
C2425 C 0.89234 0.47645 1.0092 0.0
C2426 C 0.93601 0.42246 1.01001 0.0
C2427 C 0.94569 0.40431 0.04992 0.0
N2428 N 0.90508 0.45846 1.01049 0.0
N2429 N 0.93458 0.42345 0.04847 0.0
H2430 H 0.60359 0.66489 0.49874 0.0
H2431 H 0.63499 0.55132 0.55377 0.0
H2432 H 0.58495 0.64893 0.56391 0.0
H2433 H 0.66397 0.57579 0.49551 0.0
H2434 H 0.61192 0.58392 0.55561 0.0
H2435 H 0.6222 0.63022 0.49577 0.0
C2436 C 0.60382 0.65426 0.51267 0.0
C2437 C 0.59288 0.66009 0.53176 0.0
C2438 C 0.62317 0.58205 0.54231 0.0
C2439 C 0.61401 0.61973 0.52827 0.0
C2440 C 0.63624 0.56341 0.54122 0.0
C2441 C 0.65196 0.56133 0.52496 0.0
C2442 C 0.62548 0.59837 0.5266 0.0
C2443 C 0.65241 0.57704 0.50863 0.0
C2444 C 0.6143 0.6343 0.51087 0.0
C2445 C 0.59347 0.64538 0.54907 0.0
N2446 N 0.6395 0.59487 0.50991 0.0
N2447 N 0.60377 0.62584 0.5469 0.0
H2448 H 0.03451 0.08384 0.35573 0.0
H2449 H 0.08247 0.17007 0.26712 0.0
H2450 H 0.06104 0.0646 0.29454 0.0
H2451 H 0.06519 0.19056 0.3313 0.0
H2452 H 0.07385 0.13257 0.27692 0.0
H2453 H 0.04389 0.1219 0.34745 0.0
C2454 C 0.04237 0.0873 0.34049 0.0
C2455 C 0.04707 0.06985 0.32615 0.0
C2456 C 0.07183 0.14507 0.28904 0.0
C2457 C 0.0582 0.11531 0.31612 0.0
C2458 C 0.07682 0.167 0.2834 0.0
C2459 C 0.07479 0.18466 0.29812 0.0
C2460 C 0.06418 0.13951 0.30985 0.0
C2461 C 0.06729 0.17828 0.31899 0.0
C2462 C 0.04789 0.10946 0.33577 0.0
C2463 C 0.05747 0.07659 0.30672 0.0
N2464 N 0.06227 0.15676 0.32401 0.0
N2465 N 0.06243 0.09818 0.30242 0.0
H2466 H 0.22504 0.77234 0.54586 0.0
H2467 H 0.11061 0.83209 0.58025 0.0
H2468 H 0.21963 0.80842 0.60497 0.0
H2469 H 0.12218 0.801 0.51917 0.0
H2470 H 0.14853 0.82319 0.59087 0.0
H2471 H 0.18698 0.78144 0.53743 0.0
C2472 C 0.21606 0.78234 0.55711 0.0
C2473 C 0.22651 0.78978 0.5761 0.0
C2474 C 0.14274 0.81813 0.57515 0.0
C2475 C 0.18119 0.80053 0.56635 0.0
C2476 C 0.12072 0.82322 0.56901 0.0
C2477 C 0.11207 0.81733 0.54852 0.0
C2478 C 0.15694 0.80669 0.56098 0.0
C2479 C 0.12711 0.80601 0.5351 0.0
C2480 C 0.19396 0.7876 0.55224 0.0
C2481 C 0.21299 0.8024 0.58995 0.0
N2482 N 0.14805 0.80118 0.54144 0.0
N2483 N 0.19156 0.80729 0.58487 0.0
H2484 H 0.46625 0.8733 0.76332 0.0
H2485 H 0.52428 0.96121 0.84466 0.0
H2486 H 0.49243 0.85336 0.82451 0.0
H2487 H 0.48612 0.9797 0.78963 0.0
H2488 H 0.51512 0.92275 0.83747 0.0
H2489 H 0.47507 0.91113 0.77216 0.0
C2490 C 0.47395 0.87656 0.77869 0.0
C2491 C 0.47841 0.85893 0.79287 0.0
C2492 C 0.50871 0.93509 0.82683 0.0
C2493 C 0.48927 0.90447 0.80348 0.0
C2494 C 0.51412 0.95749 0.8309 0.0
C2495 C 0.50644 0.97484 0.81775 0.0
C2496 C 0.49538 0.9289 0.80913 0.0
C2497 C 0.49288 0.96773 0.80045 0.0
C2498 C 0.47903 0.89867 0.78381 0.0
C2499 C 0.48839 0.86558 0.81264 0.0
N2500 N 0.48811 0.94597 0.79675 0.0
N2501 N 0.49347 0.88723 0.8171 0.0
H2502 H 0.44056 0.23485 0.07236 0.0
H2503 H 0.31492 0.26845 0.03912 0.0
H2504 H 0.41865 0.24376 1.00709 0.0
H2505 H 0.33412 0.26312 0.10551 0.0
H2506 H 0.3524 0.25954 0.02802 0.0
H2507 H 0.40348 0.24437 0.08523 0.0
C2508 C 0.4283 0.23884 0.06051 0.0
C2509 C 0.43403 0.23839 0.03815 0.0
C2510 C 0.34869 0.26024 0.0451 0.0
C2511 C 0.38959 0.24974 0.05343 0.0
C2512 C 0.3268 0.2653 0.05158 0.0
C2513 C 0.32016 0.26653 0.07355 0.0
C2514 C 0.36534 0.25595 0.06042 0.0
C2515 C 0.33753 0.26248 0.08837 0.0
C2516 C 0.40668 0.24438 0.06803 0.0
C2517 C 0.41619 0.24382 0.02437 0.0
N2518 N 0.35862 0.25739 0.08168 0.0
N2519 N 0.39561 0.24905 0.03202 0.0
H2520 H 0.29574 0.07339 0.06067 0.0
H2521 H 0.33165 0.0642 0.18867 0.0
H2522 H 0.34923 0.03363 0.08065 0.0
H2523 H 0.27202 0.09325 0.16747 0.0
H2524 H 0.34002 0.05494 0.15044 0.0
H2525 H 0.28883 0.08261 0.0989 0.0
C2526 C 0.30611 0.06634 0.07288 0.0
C2527 C 0.32301 0.05209 0.06636 0.0
C2528 C 0.32508 0.0634 0.15403 0.0
C2529 C 0.31502 0.0633 0.11214 0.0
C2530 C 0.32024 0.06885 0.17624 0.0
C2531 C 0.30083 0.07972 0.18237 0.0
C2532 C 0.31073 0.06889 0.13685 0.0
C2533 C 0.28713 0.08486 0.16448 0.0
C2534 C 0.30206 0.07173 0.09514 0.0
C2535 C 0.33566 0.04417 0.08403 0.0
N2536 N 0.29228 0.07962 0.14325 0.0
N2537 N 0.33151 0.04979 0.10547 0.0
H2538 H 0.28988 0.05837 0.32275 0.0
H2539 H 0.21772 0.07232 0.43409 0.0
H2540 H 0.2351 0.10118 0.32474 0.0
H2541 H 0.25797 1.01689 0.42166 0.0
H2542 H 0.22601 0.0858 0.39712 0.0
H2543 H 0.28157 0.04674 0.36005 0.0
C2544 C 0.27595 0.06543 0.33076 0.0
C2545 C 0.26267 0.08016 0.31903 0.0
C2546 C 0.23322 0.07072 0.40239 0.0
C2547 C 0.25315 0.06699 0.36417 0.0
C2548 C 0.22851 0.06291 0.42396 0.0
C2549 C 0.23704 0.04308 0.43216 0.0
C2550 C 0.24717 0.0592 0.38805 0.0
C2551 C 0.25074 0.03214 0.41701 0.0
C2552 C 0.27113 0.0586 0.3525 0.0
C2553 C 0.24554 0.08906 0.33188 0.0
N2554 N 0.25532 0.04023 0.39649 0.0
N2555 N 0.24133 0.08237 0.35306 0.0
H2556 H 0.26006 0.97194 0.55989 0.0
H2557 H 0.23008 0.99037 0.68875 0.0
H2558 H 0.21171 1.01773 0.58011 0.0
H2559 H 0.28653 0.95576 0.66715 0.0
H2560 H 0.22124 0.9985 0.65037 0.0
H2561 H 0.26755 0.96371 0.5983 0.0
C2562 C 0.25096 0.98053 0.57216 0.0
C2563 C 0.23533 0.99617 0.56559 0.0
C2564 C 0.23553 0.98896 0.65389 0.0
C2565 C 0.24407 0.98623 0.61165 0.0
C2566 C 0.24062 0.98415 0.67621 0.0
C2567 C 0.25928 0.97203 0.68228 0.0
C2568 C 0.24876 0.98146 0.63651 0.0
C2569 C 0.27196 0.96506 0.66421 0.0
C2570 C 0.25536 0.97573 0.59453 0.0
C2571 C 0.22428 1.00604 0.58342 0.0
N2572 N 0.26652 0.96962 0.64289 0.0
N2573 N 0.22876 1.00101 0.60493 0.0
H2574 H 0.31041 0.97713 0.93978 0.0
H2575 H 0.31898 1.00409 0.81006 0.0
H2576 H 0.33185 0.03873 0.91532 0.0
H2577 H 0.27415 0.95609 0.83332 0.0
H2578 H 0.32779 1.01357 0.84783 0.0
H2579 H 0.30125 0.9661 0.90217 0.0
C2580 C 0.31343 0.98843 0.92675 0.0
C2581 C 0.32211 1.00923 0.93174 0.0
C2582 C 0.31596 1.00095 0.84488 0.0
C2583 C 0.3116 0.99611 0.88701 0.0
C2584 C 0.31081 0.99541 0.82291 0.0
C2585 C 0.29532 0.97923 0.81743 0.0
C2586 C 0.30621 0.99011 0.86264 0.0
C2587 C 0.28591 0.96885 0.83586 0.0
C2588 C 0.30802 0.98205 0.90492 0.0
C2589 C 0.32523 1.02262 0.91318 0.0
N2590 N 0.2915 0.97426 0.85703 0.0
N2591 N 0.3203 1.01592 0.89233 0.0
H2592 H 0.07506 0.31137 1.02118 0.0
H2593 H 0.18051 0.32792 0.10189 0.0
H2594 H 0.07132 0.35076 0.07825 0.0
H2595 H 0.1828 0.29071 0.04325 0.0
H2596 H 0.142 0.33673 0.0941 0.0
H2597 H 0.11363 0.30418 0.02905 0.0
C2598 C 0.08206 0.3186 0.0355 0.0
C2599 C 0.06861 0.33154 0.0491 0.0
C2600 C 0.15081 0.32664 0.0828 0.0
C2601 C 0.11509 0.32318 0.05851 0.0
C2602 C 0.1733 0.32159 0.08724 0.0
C2603 C 0.18613 0.30816 0.07348 0.0
C2604 C 0.13996 0.31849 0.06415 0.0
C2605 C 0.17446 0.3007 0.05494 0.0
C2606 C 0.10458 0.31437 0.04006 0.0
C2607 C 0.08001 0.34031 0.0672 0.0
N2608 N 0.15281 0.30581 0.05103 0.0
N2609 N 0.10193 0.3361 0.07116 0.0
H2610 H 0.58165 0.20885 1.00988 0.0
H2611 H 0.6712 0.28643 0.94931 0.0
H2612 H 0.56393 0.26268 0.96962 0.0
H2613 H 0.69024 0.22855 0.98295 0.0
H2614 H 0.63306 0.27824 0.9573 0.0
H2615 H 0.62021 0.21581 1.00163 0.0
C2616 C 0.58557 0.22236 0.99947 0.0
C2617 C 0.56837 0.23524 0.99099 0.0
C2618 C 0.64537 0.26716 0.96304 0.0
C2619 C 0.61457 0.24343 0.98074 0.0
C2620 C 0.66767 0.27188 0.95842 0.0
C2621 C 0.68516 0.25841 0.96523 0.0
C2622 C 0.63921 0.24863 0.97506 0.0
C2623 C 0.67816 0.23975 0.97699 0.0
C2624 C 0.60806 0.22625 0.99454 0.0
C2625 C 0.57576 0.25206 0.97698 0.0
N2626 N 0.6563 0.23565 0.98148 0.0
N2627 N 0.59767 0.25557 0.97257 0.0
H2628 H 0.09596 0.3358 0.28021 0.0
H2629 H 1.00548 0.41799 0.22769 0.0
H2630 H 0.0407 0.31336 0.24439 0.0
H2631 H 0.06835 0.44184 0.24589 0.0
H2632 H 1.01726 0.38096 0.2363 0.0
H2633 H 0.08596 0.37365 0.27109 0.0
C2634 C 0.08161 0.3385 0.27052 0.0
C2635 C 0.06944 0.32019 0.2633 0.0
C2636 C 0.02868 0.3941 0.23853 0.0
C2637 C 0.05723 0.36553 0.25258 0.0
C2638 C 1.02186 0.41579 0.23354 0.0
C2639 C 0.03555 0.4343 0.23575 0.0
C2640 C 0.0497 0.38958 0.24656 0.0
C2641 C 0.05671 0.42892 0.24357 0.0
C2642 C 0.07588 0.36058 0.26516 0.0
C2643 C 0.05101 0.32609 0.25064 0.0
N2644 N 0.06282 0.40766 0.24871 0.0
N2645 N 0.04564 0.34756 0.24601 0.0
H2646 H 0.98204 0.78954 0.48795 0.0
H2647 H 0.8539 0.82793 0.49057 0.0
H2648 H 0.96213 0.84632 0.52298 0.0
H2649 H 0.87592 0.76726 0.46435 0.0
H2650 H 0.89199 0.83642 0.50086 0.0
H2651 H 0.94387 0.7827 0.47829 0.0
C2652 C 0.96985 0.80071 0.49381 0.0
C2653 C 0.97642 0.81857 0.50681 0.0
C2654 C 0.8886 0.82121 0.49283 0.0
C2655 C 0.93062 0.81073 0.49483 0.0
C2656 C 0.86646 0.8163 0.48675 0.0
C2657 C 0.86057 0.79653 0.47638 0.0
C2658 C 0.90595 0.80654 0.48855 0.0
C2659 C 0.87866 0.7826 0.47238 0.0
C2660 C 0.94761 0.79672 0.48813 0.0
C2661 C 0.95874 0.83215 0.51325 0.0
N2662 N 0.89976 0.78779 0.47825 0.0
N2663 N 0.93729 0.82807 0.50726 0.0
H2664 H 0.46185 0.69958 0.52782 0.0
H2665 H 0.37585 0.77826 0.5912 0.0
H2666 H 0.48134 0.75281 0.56817 0.0
H2667 H 0.35462 0.71878 0.56175 0.0
H2668 H 0.41335 0.76942 0.58169 0.0
H2669 H 0.42366 0.70625 0.5381 0.0
C2670 C 0.45838 0.71289 0.53865 0.0
C2671 C 0.47589 0.72575 0.54651 0.0
C2672 C 0.40071 0.75812 0.5772 0.0
C2673 C 0.43032 0.73367 0.55901 0.0
C2674 C 0.37878 0.76319 0.58272 0.0
C2675 C 0.3609 0.74949 0.5776 0.0
C2676 C 0.40608 0.739 0.56578 0.0
C2677 C 0.36709 0.73017 0.56648 0.0
C2678 C 0.43615 0.71662 0.54474 0.0
C2679 C 0.46919 0.74233 0.56113 0.0
N2680 N 0.38864 0.72576 0.56095 0.0
N2681 N 0.44754 0.74574 0.56656 0.0
H2682 H 0.97391 0.93385 0.35067 0.0
H2683 H 0.99053 0.82769 0.2712 0.0
H2684 H 1.01309 0.9345 0.29327 0.0
H2685 H 0.94436 0.82702 0.32318 0.0
H2686 H 0.99903 0.86584 0.27972 0.0
H2687 H 0.96314 0.89594 0.34206 0.0
C2688 C 0.98024 0.92642 0.33613 0.0
C2689 C 0.99489 0.9385 0.32296 0.0
C2690 C 0.98701 0.85755 0.28942 0.0
C2691 C 0.98238 0.89319 0.31277 0.0
C2692 C 0.982 0.83533 0.28446 0.0
C2693 C 0.96671 0.82293 0.29647 0.0
C2694 C 0.97673 0.86873 0.3067 0.0
C2695 C 0.95649 0.83498 0.31336 0.0
C2696 C 0.97409 0.90431 0.33122 0.0
C2697 C 1.0023 0.92663 0.30454 0.0
N2698 N 0.96159 0.85659 0.3178 0.0
N2699 N 0.9962 0.90536 0.30024 0.0
H2700 H 0.51471 0.12473 0.81097 0.0
H2701 H 0.60885 0.21224 0.77772 0.0
H2702 H 0.58197 0.10685 0.81474 0.0
H2703 H 0.54379 0.23055 0.79444 0.0
H2704 H 0.60024 0.17425 0.78791 0.0
H2705 H 0.52532 0.16182 0.80183 0.0
C2706 C 0.53185 0.12825 0.80988 0.0
C2707 C 0.54712 0.11139 0.81386 0.0
C2708 C 0.58769 0.18643 0.78928 0.0
C2709 C 0.55995 0.15622 0.80269 0.0
C2710 C 0.59262 0.20849 0.78328 0.0
C2711 C 0.57718 0.2256 0.7849 0.0
C2712 C 0.56671 0.18033 0.79661 0.0
C2713 C 0.55658 0.21868 0.79272 0.0
C2714 C 0.53796 0.15 0.8046 0.0
C2715 C 0.56913 0.11845 0.81197 0.0
N2716 N 0.55208 0.19717 0.79784 0.0
N2717 N 0.57467 0.13977 0.80652 0.0
H2718 H 0.57779 0.37402 0.78017 0.0
H2719 H 0.54256 0.46225 0.68757 0.0
H2720 H 0.57038 0.35471 0.71377 0.0
H2721 H 0.54742 0.47699 0.75501 0.0
H2722 H 0.55254 0.42409 0.69554 0.0
H2723 H 0.56779 0.41108 0.77038 0.0
C2724 C 0.57401 0.37725 0.7634 0.0
C2725 C 0.57512 0.36007 0.74806 0.0
C2726 C 0.55186 0.43563 0.7087 0.0
C2727 C 0.56308 0.40472 0.73628 0.0
C2728 C 0.5461 0.45777 0.70411 0.0
C2729 C 0.54511 0.47399 0.72045 0.0
C2730 C 0.55657 0.42871 0.73007 0.0
C2731 C 0.54926 0.46604 0.74154 0.0
C2732 C 0.5682 0.39892 0.75778 0.0
C2733 C 0.56992 0.36664 0.72657 0.0
N2734 N 0.5548 0.44461 0.74558 0.0
N2735 N 0.56424 0.38796 0.7215 0.0
H2736 H 0.93723 0.34472 0.97133 0.0
H2737 H 0.82642 0.27184 0.99043 0.0
H2738 H 0.92838 0.30184 0.0252 0.0
H2739 H 0.82855 0.32325 0.94381 0.0
H2740 H 0.86406 0.28065 1.00097 0.0
H2741 H 0.89984 0.33586 0.95921 0.0
C2742 C 0.92779 0.33335 0.98077 0.0
C2743 C 0.93716 0.32435 0.99984 0.0
C2744 C 0.85643 0.29026 0.9885 0.0
C2745 C 0.89242 0.31365 0.98541 0.0
C2746 C 0.83447 0.28516 0.98234 0.0
C2747 C 0.82269 0.29729 0.96669 0.0
C2748 C 0.86823 0.30742 0.97864 0.0
C2749 C 0.83562 0.31372 0.95659 0.0
C2750 C 0.90596 0.32829 0.97375 0.0
C2751 C 0.92283 0.30977 1.01076 0.0
N2752 N 0.85696 0.31822 0.9627 0.0
N2753 N 0.90198 0.30503 1.00356 0.0
H2754 H 1.01869 0.57587 0.25819 0.0
H2755 H 0.94845 0.68543 0.22557 0.0
H2756 H 0.96994 0.57412 0.20891 0.0
H2757 H 0.99382 0.68295 0.27806 0.0
H2758 H 0.9562 0.64655 0.21801 0.0
H2759 H 1.01059 0.61472 0.26422 0.0
C2760 C 1.00599 0.58334 0.2487 0.0
C2761 C 0.9946 0.57043 0.23341 0.0
C2762 C 0.96461 0.65442 0.23121 0.0
C2763 C 0.98506 0.61712 0.24023 0.0
C2764 C 0.96023 0.67712 0.23553 0.0
C2765 C 0.97024 0.68873 0.25281 0.0
C2766 C 0.97953 0.6422 0.24393 0.0
C2767 C 0.98508 0.67565 0.26485 0.0
C2768 C 1.00132 0.606 0.25219 0.0
C2769 C 0.97878 0.58241 0.22152 0.0
N2770 N 0.98913 0.65393 0.26025 0.0
N2771 N 0.97458 0.60439 0.22514 0.0
H2772 H 0.60987 0.70881 0.47092 0.0
H2773 H 0.72235 0.77637 0.49658 0.0
H2774 H 0.6203 0.74704 0.52799 0.0
H2775 H 0.72077 0.72726 0.44741 0.0
H2776 H 0.68423 0.76813 0.50543 0.0
H2777 H 0.64773 0.71708 0.4595 0.0
C2778 C 0.6197 0.71916 0.48109 0.0
C2779 C 0.61073 0.72716 0.50077 0.0
C2780 C 0.69199 0.75906 0.4926 0.0
C2781 C 0.6557 0.73715 0.48725 0.0
C2782 C 0.71419 0.7638 0.48746 0.0
C2783 C 0.72602 0.75229 0.47142 0.0
C2784 C 0.68007 0.743 0.48125 0.0
C2785 C 0.71329 0.73654 0.46021 0.0
C2786 C 0.64175 0.72385 0.4745 0.0
C2787 C 0.62551 0.74026 0.5128 0.0
N2788 N 0.69153 0.73263 0.46512 0.0
N2789 N 0.64646 0.74476 0.50597 0.0
H2790 H 0.74812 0.56953 0.47859 0.0
H2791 H 0.71372 0.5573 0.3501 0.0
H2792 H 0.69835 0.52547 0.45791 0.0
H2793 H 0.77044 0.59186 0.37082 0.0
H2794 H 0.70615 0.54771 0.38837 0.0
H2795 H 0.75457 0.57954 0.44042 0.0
C2796 C 0.73846 0.5617 0.46626 0.0
C2797 C 0.7227 0.54605 0.47266 0.0
C2798 C 0.72028 0.55747 0.38475 0.0
C2799 C 0.73019 0.5582 0.42677 0.0
C2800 C 0.72463 0.56317 0.36248 0.0
C2801 C 0.74293 0.57577 0.35616 0.0
C2802 C 0.73407 0.56428 0.40194 0.0
C2803 C 0.75612 0.58225 0.37401 0.0
C2804 C 0.74225 0.56756 0.444 0.0
C2805 C 0.71099 0.53719 0.45474 0.0
N2806 N 0.7515 0.57664 0.39536 0.0
N2807 N 0.71485 0.54329 0.43333 0.0
H2808 H 0.71215 0.47061 0.60607 0.0
H2809 H 0.77971 0.49843 0.7179 0.0
H2810 H 0.74564 0.53078 0.61665 0.0
H2811 H 0.73464 0.44551 0.71518 0.0
H2812 H 0.77013 0.508 0.68034 0.0
H2813 H 0.72188 0.45937 0.64343 0.0
C2814 C 0.72175 0.48153 0.61586 0.0
C2815 C 0.72794 0.50196 0.607 0.0
C2816 C 0.76205 0.49433 0.68779 0.0
C2817 C 0.73971 0.4886 0.65163 0.0
C2818 C 0.76759 0.48876 0.70972 0.0
C2819 C 0.7573 0.47168 0.72131 0.0
C2820 C 0.74644 0.4824 0.6758 0.0
C2821 C 0.74263 0.45943 0.70815 0.0
C2822 C 0.7273 0.47502 0.63766 0.0
C2823 C 0.74021 0.51492 0.62178 0.0
N2824 N 0.73765 0.46504 0.68683 0.0
N2825 N 0.74558 0.50813 0.64256 0.0
H2826 H 0.80971 0.53458 0.96499 0.0
H2827 H 0.77953 0.4519 0.87271 0.0
H2828 H 0.83967 0.47237 0.97273 0.0
H2829 H 0.82256 0.50224 0.85123 0.0
H2830 H 0.78893 0.4606 0.91058 0.0
H2831 H 0.80316 0.52607 0.9265 0.0
C2832 C 0.81487 0.51895 0.95902 0.0
C2833 C 0.82458 0.50404 0.97377 0.0
C2834 C 0.79651 0.4698 0.89773 0.0
C2835 C 0.81623 0.49351 0.92752 0.0
C2836 C 0.79112 0.46475 0.87563 0.0
C2837 C 0.8003 0.47576 0.85751 0.0
C2838 C 0.81088 0.48693 0.90309 0.0
C2839 C 0.81502 0.4926 0.86376 0.0
C2840 C 0.81091 0.514 0.93655 0.0
C2841 C 0.83071 0.48417 0.96349 0.0
N2842 N 0.81941 0.49766 0.8854 0.0
N2843 N 0.82612 0.47951 0.94184 0.0
H2844 H 0.77535 0.61086 0.20951 0.0
H2845 H 0.82185 0.52017 0.12348 0.0
H2846 H 0.7941 0.54649 0.22776 0.0
H2847 H 0.80898 0.58552 0.10314 0.0
H2848 H 0.81117 0.52986 0.1604 0.0
H2849 H 0.78606 0.60272 0.17171 0.0
C2850 C 0.78173 0.59492 0.20588 0.0
C2851 C 0.78397 0.57967 0.22307 0.0
C2852 C 0.81056 0.54229 0.14808 0.0
C2853 C 0.79647 0.56969 0.17772 0.0
C2854 C 0.81674 0.53669 0.1264 0.0
C2855 C 0.81656 0.55166 0.10881 0.0
C2856 C 0.80362 0.56345 0.15364 0.0
C2857 C 0.80973 0.5729 0.11525 0.0
C2858 C 0.78798 0.59024 0.18383 0.0
C2859 C 0.79237 0.55932 0.21602 0.0
N2860 N 0.80364 0.57791 0.13653 0.0
N2861 N 0.79804 0.55512 0.19458 0.0
H2862 H 0.47031 0.60987 0.70316 0.0
H2863 H 0.49111 0.71641 0.78148 0.0
H2864 H 0.51575 0.61082 0.75566 0.0
H2865 H 0.44357 0.71725 0.73095 0.0
H2866 H 0.49905 0.67813 0.77279 0.0
H2867 H 0.45976 0.64763 0.71257 0.0
C2868 C 0.47812 0.61762 0.71679 0.0
C2869 C 0.49442 0.60601 0.72829 0.0
C2870 C 0.48693 0.68652 0.76334 0.0
C2871 C 0.482 0.65113 0.73954 0.0
C2872 C 0.48225 0.70882 0.76841 0.0
C2873 C 0.4673 0.72153 0.75634 0.0
C2874 C 0.47639 0.6755 0.74611 0.0
C2875 C 0.45607 0.7093 0.74025 0.0
C2876 C 0.47205 0.63965 0.72217 0.0
C2877 C 0.5036 0.61828 0.74563 0.0
N2878 N 0.46094 0.68769 0.73556 0.0
N2879 N 0.49744 0.63941 0.75049 0.0
H2880 H 0.11572 0.23909 0.44524 0.0
H2881 H 0.19473 0.13637 0.44918 0.0
H2882 H 0.14919 0.21367 0.38937 0.0
H2883 H 0.1787 0.17444 0.50541 0.0
H2884 H 0.17261 0.16072 0.42702 0.0
H2885 H 0.13386 0.21189 0.46764 0.0
C2886 C 0.12689 0.22787 0.43768 0.0
C2887 C 0.13089 0.22871 0.41537 0.0
C2888 C 0.17386 0.16368 0.44422 0.0
C2889 C 0.15139 0.1974 0.44083 0.0
C2890 C 0.18637 0.14977 0.45684 0.0
C2891 C 0.18867 0.15365 0.47904 0.0
C2892 C 0.16341 0.18141 0.45396 0.0
C2893 C 0.17757 0.17118 0.48826 0.0
C2894 C 0.13712 0.21228 0.45045 0.0
C2895 C 0.14527 0.21346 0.40642 0.0
N2896 N 0.1654 0.18446 0.47566 0.0
N2897 N 0.15498 0.19846 0.41917 0.0
H2898 H 0.08683 0.83445 0.67419 0.0
H2899 H 0.11713 0.94725 0.72841 0.0
H2900 H 0.06132 0.89494 0.65042 0.0
H2901 H 0.15857 0.8912 0.73212 0.0
H2902 H 0.0942 0.92801 0.70213 0.0
H2903 H 0.11141 0.85458 0.69784 0.0
C2904 C 0.08645 0.85201 0.67403 0.0
C2905 C 0.07198 0.86312 0.66058 0.0
C2906 C 0.1083 0.91994 0.70873 0.0
C2907 C 0.09981 0.8862 0.68763 0.0
C2908 C 0.12119 0.93081 0.7238 0.0
C2909 C 0.13947 0.92059 0.73246 0.0
C2910 C 0.11361 0.89864 0.70272 0.0
C2911 C 0.14445 0.89946 0.72582 0.0
C2912 C 0.10051 0.86347 0.6874 0.0
C2913 C 0.07226 0.88585 0.66065 0.0
N2914 N 0.13147 0.88908 0.71145 0.0
N2915 N 0.08581 0.8967 0.6742 0.0
H2916 H 0.39801 0.8375 0.88443 0.0
H2917 H 0.3772 0.87524 1.00535 0.0
H2918 H 0.42602 0.80539 0.93975 0.0
H2919 H 0.3574 0.91229 0.94972 0.0
H2920 H 0.39785 0.85114 0.98161 0.0
H2921 H 0.38571 0.86666 0.90785 0.0
C2922 C 0.40186 0.83669 0.90148 0.0
C2923 C 0.41302 0.81886 0.91016 0.0
C2924 C 0.3891 0.8646 0.97458 0.0
C2925 C 0.39844 0.85206 0.93719 0.0
C2926 C 0.37725 0.87823 0.9881 0.0
C2927 C 0.36534 0.89541 0.97935 0.0
C2928 C 0.38867 0.868 0.95215 0.0
C2929 C 0.36628 0.89905 0.95701 0.0
C2930 C 0.39472 0.85335 0.91487 0.0
C2931 C 0.41713 0.8186 0.93243 0.0
N2932 N 0.37751 0.88524 0.94411 0.0
N2933 N 0.40968 0.83487 0.94521 0.0
H2934 H 0.38629 0.15885 0.20634 0.0
H2935 H 0.45521 0.20459 0.13106 0.0
H2936 H 0.44397 0.14428 0.24309 0.0
H2937 H 0.50754 0.17964 0.1699 0.0
H2938 H 0.42937 0.18775 0.15512 0.0
H2939 H 0.40848 0.17021 0.17651 0.0
C2940 C 0.40372 0.15791 0.20813 0.0
C2941 C 0.41323 0.15045 0.22736 0.0
C2942 C 0.44638 0.18546 0.15847 0.0
C2943 C 0.43921 0.16494 0.19325 0.0
C2944 C 0.4612 0.19521 0.1446 0.0
C2945 C 0.48347 0.19366 0.14868 0.0
C2946 C 0.45391 0.17393 0.17659 0.0
C2947 C 0.49044 0.18152 0.16647 0.0
C2948 C 0.41656 0.16484 0.19101 0.0
C2949 C 0.4359 0.15018 0.22874 0.0
N2950 N 0.47568 0.1722 0.17984 0.0
N2951 N 0.4481 0.15744 0.21195 0.0
H2952 H 0.1196 0.08354 0.29644 0.0
H2953 H 0.2166 1.01658 0.33959 0.0
H2954 H 0.1243 1.01549 0.31219 0.0
H2955 H 0.21913 0.07313 0.29883 0.0
H2956 H 0.18078 0.02831 0.35201 0.0
H2957 H 0.15279 0.0898 0.31769 0.0
C2958 C 0.12711 0.0701 0.30483 0.0
C2959 C 0.11917 0.04893 0.30233 0.0
C2960 C 0.1897 0.03852 0.34087 0.0
C2961 C 0.15615 0.05607 0.32728 0.0
C2962 C 0.21003 0.03165 0.33354 0.0
C2963 C 0.22036 0.04303 0.31684 0.0
C2964 C 0.17964 0.05646 0.33097 0.0
C2965 C 0.2112 0.06287 0.31038 0.0
C2966 C 0.14567 0.07375 0.31735 0.0
C2967 C 0.12929 0.03219 0.31392 0.0
N2968 N 0.19129 0.0688 0.31713 0.0
N2969 N 0.14715 0.03612 0.32578 0.0
H2970 H 0.21159 0.93648 0.5553 0.0
H2971 H 0.23268 0.84569 0.59221 0.0
H2972 H 0.17113 0.88318 0.53497 0.0
H2973 H 0.23423 0.89848 0.63813 0.0
H2974 H 0.19642 0.85511 0.58317 0.0
H2975 H 0.20429 0.92731 0.59248 0.0
C2976 C 0.20057 0.92321 0.55855 0.0
C2977 C 0.19342 0.90944 0.54197 0.0
C2978 C 0.2044 0.86455 0.59562 0.0
C2979 C 0.18625 0.89799 0.5847 0.0
C2980 C 0.22562 0.8591 0.60089 0.0
C2981 C 0.23796 0.87286 0.61422 0.0
C2982 C 0.19642 0.88488 0.602 0.0
C2983 C 0.22651 0.88901 0.62561 0.0
C2984 C 0.19624 0.91796 0.58001 0.0
C2985 C 0.1785 0.8931 0.54739 0.0
N2986 N 0.20671 0.89542 0.61841 0.0
N2987 N 0.176 0.88725 0.5684 0.0
H2988 H 0.35247 0.94891 0.81706 0.0
H2989 H 0.44854 0.97351 0.8271 0.0
H2990 H 0.40223 0.9026 0.80166 0.0
H2991 H 0.40071 0.998 0.87149 0.0
H2992 H 0.43726 0.93684 0.83566 0.0
H2993 H 0.36562 0.95024 0.85383 0.0
C2994 C 0.36566 0.93824 0.82157 0.0
C2995 C 0.37797 0.92756 0.80577 0.0
C2996 C 0.42961 0.95006 0.84431 0.0
C2997 C 0.3944 0.93098 0.84689 0.0
C2998 C 0.43622 0.97113 0.83936 0.0
C2999 C 0.42428 0.98869 0.84734 0.0
C3000 C 0.4101 0.94699 0.85589 0.0
C3001 C 0.40918 0.98469 0.86382 0.0
C3002 C 0.37343 0.93911 0.84274 0.0
C3003 C 0.39376 0.91289 0.81306 0.0
N3004 N 0.40188 0.96418 0.86706 0.0
N3005 N 0.40241 0.91574 0.83305 0.0
H3006 H 0.28638 0.18479 0.07772 0.0
H3007 H 0.3801 0.14768 0.05269 0.0
H3008 H 0.347 0.21529 0.06083 0.0
H3009 H 0.32221 0.11246 0.06953 0.0
H3010 H 0.38085 0.1627 0.08879 0.0
H3011 H 0.30531 0.16176 0.1029 0.0
C3012 C 0.30363 0.18721 0.07963 0.0
C3013 C 0.31516 0.2016 0.06625 0.0
C3014 C 0.36832 0.15098 0.085 0.0
C3015 C 0.33729 0.17332 0.09375 0.0
C3016 C 0.36813 0.14213 0.06423 0.0
C3017 C 0.34994 0.13028 0.05738 0.0
C3018 C 0.34823 0.15177 0.09571 0.0
C3019 C 0.33533 0.12346 0.07337 0.0
C3020 C 0.31453 0.17388 0.09416 0.0
C3021 C 0.33749 0.20371 0.06982 0.0
N3022 N 0.3348 0.13445 0.09244 0.0
N3023 N 0.3479 0.18938 0.08281 0.0
H3024 H 0.23911 0.40754 0.19151 0.0
H3025 H 0.15608 0.5007 0.16241 0.0
H3026 H 0.22175 0.42146 0.12555 0.0
H3027 H 0.15393 0.46654 0.22305 0.0
H3028 H 0.18186 0.47363 0.14855 0.0
H3029 H 0.2095 0.43096 0.20387 0.0
C3030 C 0.22909 0.41576 0.17971 0.0
C3031 C 0.23292 0.41312 0.1576 0.0
C3032 C 0.1757 0.47206 0.16487 0.0
C3033 C 0.19934 0.43974 0.1714 0.0
C3034 C 0.16126 0.48755 0.17277 0.0
C3035 C 0.15358 0.48594 0.19397 0.0
C3036 C 0.18255 0.45518 0.17846 0.0
C3037 C 0.16008 0.46844 0.20676 0.0
C3038 C 0.21215 0.42889 0.18669 0.0
C3039 C 0.21934 0.42353 0.14276 0.0
N3040 N 0.17443 0.45379 0.19888 0.0
N3041 N 0.20322 0.43669 0.14994 0.0
H3042 H 0.6844 0.04125 0.87104 0.0
H3043 H 0.7152 0.16491 0.88941 0.0
H3044 H 0.64285 0.09462 0.8535 0.0
H3045 H 0.75168 0.11212 0.91725 0.0
H3046 H 0.68765 0.13931 0.87785 0.0
H3047 H 0.70838 0.06668 0.88979 0.0
C3048 C 0.68035 0.05833 0.87121 0.0
C3049 C 0.66186 0.06595 0.86051 0.0
C3050 C 0.70157 0.13331 0.88664 0.0
C3051 C 0.6891 0.09504 0.88173 0.0
C3052 C 0.71732 0.14795 0.89338 0.0
C3053 C 0.73583 0.14067 0.90441 0.0
C3054 C 0.70446 0.11112 0.8906 0.0
C3055 C 0.73785 0.11841 0.90854 0.0
C3056 C 0.69393 0.0728 0.88199 0.0
C3057 C 0.65701 0.08813 0.86154 0.0
N3058 N 0.72241 0.10439 0.9015 0.0
N3059 N 0.6707 0.10194 0.87175 0.0
H3060 H 0.92243 0.94111 0.4375 0.0
H3061 H 0.81671 0.91091 0.37155 0.0
H3062 H 0.90059 0.98145 0.38474 0.0
H3063 H 0.82311 0.90087 0.44035 0.0
H3064 H 0.85061 0.93183 0.37205 0.0
H3065 H 0.88939 0.91964 0.4341 0.0
C3066 C 0.91073 0.94545 0.42521 0.0
C3067 C 0.91414 0.9633 0.41161 0.0
C3068 C 0.84442 0.92502 0.38696 0.0
C3069 C 0.87668 0.93859 0.40741 0.0
C3070 C 0.82507 0.91331 0.38675 0.0
C3071 C 0.81722 0.90399 0.40592 0.0
C3072 C 0.85596 0.92704 0.40637 0.0
C3073 C 0.82882 0.90734 0.42512 0.0
C3074 C 0.89198 0.93316 0.42324 0.0
C3075 C 0.89872 0.96775 0.39549 0.0
N3076 N 0.84774 0.9184 0.42481 0.0
N3077 N 0.88055 0.95548 0.39386 0.0
H3078 H 0.0284 0.3277 0.12838 0.0
H3079 H 0.13122 0.33693 0.18471 0.0
H3080 H 0.09548 0.32051 0.10941 0.0
H3081 H 0.06851 0.31918 0.20965 0.0
H3082 H 0.11389 0.36526 0.16354 0.0
H3083 H 0.0396 0.35247 0.15673 0.0
C3084 C 0.04541 0.33173 0.12951 0.0
C3085 C 0.061 0.32147 0.11631 0.0
C3086 C 0.10399 0.35572 0.17444 0.0
C3087 C 0.07387 0.34978 0.14946 0.0
C3088 C 0.11387 0.33912 0.18622 0.0
C3089 C 0.10076 0.32305 0.19571 0.0
C3090 C 0.0814 0.35467 0.17167 0.0
C3091 C 0.07911 0.32902 0.19987 0.0
C3092 C 0.05174 0.34614 0.14573 0.0
C3093 C 0.08277 0.3274 0.11924 0.0
N3094 N 0.06978 0.34444 0.18735 0.0
N3095 N 0.08853 0.34083 0.1356 0.0
H3096 H 0.372 0.54012 0.65098 0.0
H3097 H 0.34078 0.65812 0.62334 0.0
H3098 H 0.41614 0.59393 0.65693 0.0
H3099 H 0.29326 0.60727 0.63125 0.0
H3100 H 0.36665 0.63681 0.64358 0.0
H3101 H 0.3415 0.56532 0.65232 0.0
C3102 C 0.37512 0.55729 0.65301 0.0
C3103 C 0.39634 0.56523 0.65333 0.0
C3104 C 0.35045 0.63043 0.64133 0.0
C3105 C 0.36193 0.59403 0.65428 0.0
C3106 C 0.33558 0.64264 0.62975 0.0
C3107 C 0.31491 0.63426 0.62521 0.0
C3108 C 0.34484 0.60943 0.64794 0.0
C3109 C 0.30926 0.61402 0.63379 0.0
C3110 C 0.3578 0.57165 0.65385 0.0
C3111 C 0.39985 0.5874 0.65633 0.0
N3112 N 0.32431 0.60208 0.64442 0.0
N3113 N 0.38275 0.60118 0.65616 0.0
H3114 H 0.9972 0.8601 0.43454 0.0
H3115 H 0.96566 0.7922 0.3648 0.0
H3116 H 0.95469 0.80549 0.44277 0.0
H3117 H 0.99582 0.85414 0.35127 0.0
H3118 H 0.94093 0.80946 0.38808 0.0
H3119 H 0.97068 0.87646 0.41063 0.0
C3120 C 0.98184 0.85193 0.43223 0.0
C3121 C 0.97925 0.83013 0.43822 0.0
C3122 C 0.95275 0.81954 0.37989 0.0
C3123 C 0.95127 0.8472 0.40911 0.0
C3124 C 0.96701 0.80952 0.36573 0.0
C3125 C 0.98346 0.82123 0.35504 0.0
C3126 C 0.95668 0.84095 0.38636 0.0
C3127 C 0.98451 0.84365 0.35949 0.0
C3128 C 0.96657 0.86128 0.41841 0.0
C3129 C 0.95841 0.82131 0.43622 0.0
N3130 N 0.97189 0.85254 0.37524 0.0
N3131 N 0.94452 0.83036 0.42177 0.0
H3132 H 0.53168 0.18485 0.86981 0.0
H3133 H 0.63847 0.23312 0.89893 0.0
H3134 H 0.55523 0.21585 0.9278 0.0
H3135 H 0.61036 0.22806 0.83515 0.0
H3136 H 0.62181 0.19918 0.90831 0.0
H3137 H 0.56899 0.17528 0.86043 0.0
C3138 C 0.54457 0.1891 0.8809 0.0
C3139 C 0.54044 0.2023 0.89897 0.0
C3140 C 0.61991 0.20514 0.89196 0.0
C3141 C 0.58288 0.19083 0.88864 0.0
C3142 C 0.62936 0.2249 0.88649 0.0
C3143 C 0.62369 0.23514 0.86695 0.0
C3144 C 0.60373 0.19669 0.87845 0.0
C3145 C 0.61312 0.22227 0.85138 0.0
C3146 C 0.5658 0.18324 0.87571 0.0
C3147 C 0.55756 0.20626 0.91334 0.0
N3148 N 0.60262 0.20402 0.85774 0.0
N3149 N 0.57807 0.20095 0.90762 0.0
H3150 H 0.71652 0.47345 0.73833 0.0
H3151 H 0.59518 0.4927 0.71372 0.0
H3152 H 0.69394 0.53245 0.70919 0.0
H3153 H 0.62608 0.46219 0.76811 0.0
H3154 H 0.63013 0.4928 0.69445 0.0
H3155 H 0.684 0.45525 0.72777 0.0
C3156 C 0.70505 0.48251 0.72905 0.0
C3157 C 0.70819 0.50461 0.72496 0.0
C3158 C 0.62891 0.48539 0.71027 0.0
C3159 C 0.66923 0.4842 0.71472 0.0
C3160 C 0.60924 0.48576 0.72145 0.0
C3161 C 0.60848 0.47981 0.74343 0.0
C3162 C 0.64724 0.47732 0.72079 0.0
C3163 C 0.62609 0.46827 0.75174 0.0
C3164 C 0.68629 0.472 0.72296 0.0
C3165 C 0.69214 0.51547 0.71313 0.0
N3166 N 0.64493 0.46784 0.74054 0.0
N3167 N 0.67281 0.50537 0.70922 0.0
H3168 H 0.81973 0.45929 1.00315 0.0
H3169 H 0.80407 0.33867 0.96941 0.0
H3170 H 0.7683 0.43722 0.96199 0.0
H3171 H 0.82658 0.35895 0.03183 0.0
H3172 H 0.80711 0.37523 0.95605 0.0
H3173 H 0.83666 0.42403 1.00152 0.0
C3174 C 0.81214 0.44706 0.99356 0.0
C3175 C 0.79232 0.4512 0.9833 0.0
C3176 C 0.81198 0.3716 0.97246 0.0
C3177 C 0.81131 0.41037 0.98187 0.0
C3178 C 0.81058 0.35062 0.98007 0.0
C3179 C 0.81467 0.34563 1.00181 0.0
C3180 C 0.81723 0.38796 0.98691 0.0
C3181 C 0.82291 0.36205 1.01502 0.0
C3182 C 0.82186 0.42698 0.99263 0.0
C3183 C 0.78341 0.43474 0.9705 0.0
N3184 N 0.82337 0.38277 1.00749 0.0
N3185 N 0.79273 0.41469 0.9706 0.0
H3186 H 0.86519 0.5954 0.25666 0.0
H3187 H 0.93253 0.56592 0.22924 0.0
H3188 H 0.83954 0.57473 0.19523 0.0
H3189 H 0.91165 0.56031 0.16299 0.0
H3190 H 0.92258 0.60368 0.22864 0.0
H3191 H 0.89071 0.61852 0.23785 0.0
C3192 C 0.86465 0.59579 0.23919 0.0
C3193 C 0.85157 0.58133 0.22742 0.0
C3194 C 0.92002 0.59429 0.21408 0.0
C3195 C 0.88271 0.60559 0.20612 0.0
C3196 C 0.92595 0.5725 0.21443 0.0
C3197 C 0.92064 0.55913 0.19685 0.0
C3198 C 0.90509 0.60088 0.19817 0.0
C3199 C 0.91362 0.56938 0.17784 0.0
C3200 C 0.87938 0.60908 0.22837 0.0
C3201 C 0.85077 0.58398 0.20495 0.0
N3202 N 0.9057 0.58992 0.179 0.0
N3203 N 0.86658 0.59547 0.1949 0.0
H3204 H 0.71813 0.60252 0.47879 0.0
H3205 H 0.7632 0.68226 0.48359 0.0
H3206 H 0.65642 0.63389 0.47056 0.0
H3207 H 0.69813 0.70387 0.49815 0.0
H3208 H 0.74888 0.65862 0.4562 0.0
H3209 H 0.73317 0.62604 0.4518 0.0
C3210 C 0.70743 0.61426 0.4715 0.0
C3211 C 0.68692 0.61925 0.48026 0.0
C3212 C 0.73771 0.66876 0.46512 0.0
C3213 C 0.7052 0.64756 0.45212 0.0
C3214 C 0.74593 0.68268 0.48085 0.0
C3215 C 0.73211 0.69623 0.49305 0.0
C3216 C 0.71523 0.66689 0.46245 0.0
C3217 C 0.70974 0.69413 0.48945 0.0
C3218 C 0.71623 0.628 0.45592 0.0
C3219 C 0.67357 0.63232 0.46725 0.0
N3220 N 0.7021 0.67977 0.47467 0.0
N3221 N 0.68317 0.64687 0.45381 0.0
H3222 H 0.67984 0.40773 0.58674 0.0
H3223 H 0.64355 0.28626 0.60734 0.0
H3224 H 0.68557 0.3583 0.5376 0.0
H3225 H 0.61423 0.34035 0.64075 0.0
H3226 H 0.66184 0.31182 0.58327 0.0
H3227 H 0.65836 0.38275 0.6086 0.0
C3228 C 0.6764 0.39173 0.58039 0.0
C3229 C 0.68466 0.38512 0.56027 0.0
C3230 C 0.6513 0.31801 0.59585 0.0
C3231 C 0.66047 0.35629 0.58553 0.0
C3232 C 0.64075 0.30343 0.60955 0.0
C3233 C 0.62734 0.31105 0.62627 0.0
C3234 C 0.64868 0.34038 0.59903 0.0
C3235 C 0.62476 0.33362 0.62848 0.0
C3236 C 0.66422 0.37745 0.59296 0.0
C3237 C 0.67995 0.36399 0.55317 0.0
N3238 N 0.63546 0.34745 0.61516 0.0
N3239 N 0.66832 0.35028 0.56586 0.0
H3240 H 0.97781 0.44475 0.90142 0.0
H3241 H 0.9045 0.37437 0.8211 0.0
H3242 H 0.9531 0.38125 0.91721 0.0
H3243 H 0.91811 0.44229 0.81213 0.0
H3244 H 0.92623 0.37483 0.85429 0.0
H3245 H 0.95989 0.44244 0.86627 0.0
C3246 C 0.9685 0.43039 0.89747 0.0
C3247 C 0.96674 0.41324 0.91216 0.0
C3248 C 0.92466 0.38957 0.84493 0.0
C3249 C 0.94636 0.41042 0.87218 0.0
C3250 C 0.91243 0.38925 0.82602 0.0
C3251 C 0.90978 0.4083 0.81405 0.0
C3252 C 0.93437 0.40905 0.85164 0.0
C3253 C 0.91992 0.42732 0.82106 0.0
C3254 C 0.95838 0.42902 0.87743 0.0
C3255 C 0.95489 0.39477 0.9062 0.0
N3256 N 0.93181 0.42722 0.83945 0.0
N3257 N 0.94504 0.39388 0.88665 0.0
H3258 H 0.92783 0.63306 0.09517 0.0
H3259 H 0.86786 0.74064 0.13446 0.0
H3260 H 0.8741 0.66105 0.06045 0.0
H3261 H 0.90994 0.70202 0.17467 0.0
H3262 H 0.87163 0.71361 0.10559 0.0
H3263 H 0.92375 0.66078 0.12298 0.0
C3264 C 0.91528 0.64521 0.0934 0.0
C3265 C 0.90128 0.64492 0.07565 0.0
C3266 C 0.87993 0.71108 0.12079 0.0
C3267 C 0.89636 0.67646 0.10727 0.0
C3268 C 0.87772 0.72639 0.13722 0.0
C3269 C 0.8887 0.72349 0.15682 0.0
C3270 C 0.89322 0.69292 0.12415 0.0
C3271 C 0.90147 0.70496 0.15963 0.0
C3272 C 0.91284 0.6609 0.10928 0.0
C3273 C 0.88508 0.66076 0.07408 0.0
N3274 N 0.90343 0.69039 0.14343 0.0
N3275 N 0.88306 0.67601 0.08974 0.0
H3276 H 0.58673 0.69464 0.407 0.0
H3277 H 0.60555 0.63961 0.29182 0.0
H3278 H 0.53439 0.67809 0.36373 0.0
H3279 H 0.65646 0.66474 0.33263 0.0
H3280 H 0.57914 0.64832 0.32012 0.0
H3281 H 0.61229 0.67794 0.38224 0.0
C3282 C 0.58057 0.68732 0.39231 0.0
C3283 C 0.55837 0.68785 0.38732 0.0
C3284 C 0.59613 0.65174 0.32288 0.0
C3285 C 0.58773 0.66912 0.3586 0.0
C3286 C 0.61116 0.64689 0.30673 0.0
C3287 C 0.63318 0.65157 0.30982 0.0
C3288 C 0.60323 0.66143 0.34214 0.0
C3289 C 0.63967 0.66064 0.32959 0.0
C3290 C 0.59522 0.67787 0.37813 0.0
C3291 C 0.5514 0.67836 0.36797 0.0
N3292 N 0.62474 0.66539 0.34493 0.0
N3293 N 0.56609 0.66945 0.3542 0.0
H3294 H 0.46864 0.74221 0.70591 0.0
H3295 H 0.50012 0.6734 0.6203 0.0
H3296 H 0.51447 0.68944 0.70316 0.0
H3297 H 0.4614 0.73089 0.6165 0.0
H3298 H 0.47808 0.66095 0.65038 0.0
H3299 H 0.44662 0.72439 0.67936 0.0
C3300 C 0.47455 0.72716 0.69952 0.0
C3301 C 0.49435 0.71816 0.7065 0.0
C3302 C 0.47359 0.67592 0.64241 0.0
C3303 C 0.46842 0.69708 0.67547 0.0
C3304 C 0.48618 0.683 0.62499 0.0
C3305 C 0.48458 0.70477 0.61867 0.0
C3306 C 0.46106 0.69157 0.65325 0.0
C3307 C 0.46499 0.71519 0.62343 0.0
C3308 C 0.46132 0.71648 0.6848 0.0
C3309 C 0.49973 0.69755 0.69838 0.0
N3310 N 0.45399 0.70882 0.64136 0.0
N3311 N 0.48715 0.68803 0.68301 0.0
loop_
_geom_bond_atom_site_label_1
_geom_bond_atom_site_label_2
_geom_bond_distance
_geom_bond_site_symmetry_2
_ccdc_geom_bond_type
Eu0 N29 2.600 . S
Eu0 N35 2.562 . S
Eu0 O44 2.462 . S
Eu0 O45 2.373 . S
Eu0 O47 2.432 . S
Eu0 O48 2.291 . S
Eu0 O52 2.335 . S
Eu0 O55 2.372 . S
Eu0 C64 2.787 . S
C1 N2 1.365 . S
C1 C4 1.405 . S
C1 C8 1.448 . S
N2 C1 1.365 . S
N2 C5 1.319 . S
N2 Eu11 2.600 . S
C3 C5 1.397 . S
C3 C6 1.367 . S
C3 H23 0.931 . S
C4 C1 1.405 . S
C4 C6 1.403 . S
C4 C10 1.439 . S
C5 N2 1.319 . S
C5 C3 1.397 . S
C5 H16 0.930 . S
C6 C3 1.367 . S
C6 C4 1.403 . S
C6 H27 0.929 . S
C7 C8 1.430 . S
C7 C9 1.387 . S
C7 C13 1.404 . S
C8 C1 1.448 . S
C8 C7 1.430 . S
C8 N12 1.351 . S
C9 C7 1.387 . S
C9 C10 1.374 . S
C9 H24 0.931 . S
C10 C4 1.439 . S
C10 C9 1.374 . S
C10 H25 0.931 . S
Eu11 N2 2.600 . S
Eu11 N12 2.562 . S
Eu11 O46 2.335 . S
Eu11 O49 2.372 . S
Eu11 O50 2.462 . S
Eu11 O51 2.373 . S
Eu11 O53 2.432 . S
Eu11 O54 2.291 . S
Eu11 C75 2.787 . S
N12 C8 1.351 . S
N12 Eu11 2.562 . S
N12 C14 1.325 . S
C13 C7 1.404 . S
C13 C15 1.366 . S
C13 H21 0.930 1_455 S
C14 N12 1.325 . S
C14 C15 1.416 . S
C14 H20 0.929 . S
C15 C13 1.366 . S
C15 C14 1.416 . S
C15 H17 0.945 . S
H16 C5 0.930 . S
H17 C15 0.945 . S
H18 C33 0.930 . S
H19 C40 0.930 . S
H20 C14 0.929 . S
H21 C13 0.930 1_655 S
H22 C36 0.929 . S
H23 C3 0.931 . S
H24 C9 0.931 . S
H25 C10 0.931 . S
H26 C31 0.931 . S
H27 C6 0.929 . S
H28 C39 0.930 . S
N29 Eu0 2.600 . S
N29 C30 1.365 . S
N29 C33 1.319 . S
C30 N29 1.365 . S
C30 C32 1.405 . S
C30 C38 1.448 . S
C31 H26 0.931 . S
C31 C33 1.397 . S
C31 C34 1.367 . S
C32 C30 1.405 . S
C32 C34 1.403 . S
C32 C65 1.439 . S
C33 H18 0.930 . S
C33 N29 1.319 . S
C33 C31 1.397 . S
C34 C31 1.367 . S
C34 C32 1.403 . S
C34 H41 0.929 . S
N35 Eu0 2.562 . S
N35 C36 1.325 . S
N35 C38 1.351 . S
C36 H22 0.929 . S
C36 N35 1.325 . S
C36 C40 1.416 . S
C37 C38 1.430 . S
C37 C39 1.404 . S
C37 C66 1.387 . S
C38 C30 1.448 . S
C38 N35 1.351 . S
C38 C37 1.430 . S
C39 H28 0.930 . S
C39 C37 1.404 . S
C39 C40 1.366 . S
C40 H19 0.930 . S
C40 C36 1.416 . S
C40 C39 1.366 . S
H41 C34 0.929 . S
H42 C65 0.931 . S
H43 C66 0.931 . S
O44 Eu0 2.462 . S
O44 C64 1.252 . S
O45 Eu0 2.373 . S
O45 C56 1.249 . S
O46 Eu11 2.335 . S
O46 C56 1.264 . S
O47 Eu0 2.432 . S
O47 C64 1.268 . S
O48 Eu0 2.291 . S
O48 C63 1.255 . S
O49 Eu11 2.372 . S
O49 C63 1.257 . S
O50 Eu11 2.462 . S
O50 C75 1.252 . S
O51 Eu11 2.373 . S
O51 C67 1.249 . S
O52 Eu0 2.335 . S
O52 C67 1.264 . S
O53 Eu11 2.432 . S
O53 C75 1.268 . S
O54 Eu11 2.291 . S
O54 C74 1.255 . S
O55 Eu0 2.372 . S
O55 C74 1.257 . S
C56 O45 1.249 . S
C56 O46 1.264 . S
C57 C60 1.382 . S
C57 C62 1.390 . S
C57 C64 1.506 . S
C58 C59 1.398 . S
C58 C62 1.392 . S
C59 C58 1.398 . S
C59 C61 1.372 . S
C59 H76 0.931 . S
C60 C57 1.382 . S
C60 C61 1.390 . S
C60 H77 0.931 . S
C61 C59 1.372 . S
C61 C60 1.390 . S
C61 H78 0.929 . S
C62 C57 1.390 . S
C62 C58 1.392 . S
C62 H79 0.930 . S
C63 O48 1.255 . S
C63 O49 1.257 . S
C64 Eu0 2.787 . S
C64 O44 1.252 . S
C64 O47 1.268 . S
C64 C57 1.506 . S
C65 C32 1.439 . S
C65 H42 0.931 . S
C65 C66 1.374 . S
C66 C37 1.387 . S
C66 H43 0.931 . S
C66 C65 1.374 . S
C67 O51 1.249 . S
C67 O52 1.264 . S
C68 C71 1.382 . S
C68 C72 1.390 . S
C68 C75 1.506 . S
C69 C70 1.398 . S
C69 C72 1.392 . S
C70 C69 1.398 . S
C70 C73 1.372 . S
C70 H80 0.931 . S
C71 C68 1.382 . S
C71 C73 1.390 . S
C71 H81 0.931 . S
C72 C68 1.390 . S
C72 C69 1.392 . S
C72 H82 0.930 . S
C73 C70 1.372 . S
C73 C71 1.390 . S
C73 H83 0.929 . S
C74 O54 1.255 . S
C74 O55 1.257 . S
C75 Eu11 2.787 . S
C75 O50 1.252 . S
C75 O53 1.268 . S
C75 C68 1.506 . S
H76 C59 0.931 . S
H77 C60 0.931 . S
H78 C61 0.929 . S
H79 C62 0.930 . S
H80 C70 0.931 . S
H81 C71 0.931 . S
H82 C72 0.930 . S
H83 C73 0.929 . S
Eu84 N113 2.600 . S
Eu84 N119 2.562 . S
Eu84 O128 2.462 1_655 S
Eu84 O129 2.373 . S
Eu84 O131 2.432 . S
Eu84 O132 2.291 1_655 S
Eu84 O136 2.335 1_655 S
Eu84 O139 2.372 . S
Eu84 C148 2.787 1_655 S
C85 N86 1.365 . S
C85 C88 1.405 . S
C85 C92 1.448 . S
N86 C85 1.365 . S
N86 C89 1.319 . S
N86 Eu95 2.600 . S
C87 C89 1.397 . S
C87 C90 1.367 . S
C87 H107 0.931 . S
C88 C85 1.405 . S
C88 C90 1.403 . S
C88 C94 1.439 . S
C89 N86 1.319 . S
C89 C87 1.397 . S
C89 H100 0.930 . S
C90 C87 1.367 . S
C90 C88 1.403 . S
C90 H111 0.929 . S
C91 C92 1.430 . S
C91 C93 1.387 . S
C91 C97 1.404 . S
C92 C85 1.448 . S
C92 C91 1.430 . S
C92 N96 1.351 . S
C93 C91 1.387 . S
C93 C94 1.374 . S
C93 H108 0.931 . S
C94 C88 1.439 . S
C94 C93 1.374 . S
C94 H109 0.931 . S
Eu95 N86 2.600 . S
Eu95 N96 2.562 . S
Eu95 O130 2.335 1_455 S
Eu95 O133 2.372 . S
Eu95 O134 2.462 1_455 S
Eu95 O135 2.373 . S
Eu95 O137 2.432 . S
Eu95 O138 2.291 1_455 S
Eu95 C159 2.787 1_455 S
N96 C92 1.351 . S
N96 Eu95 2.562 . S
N96 C98 1.325 1_455 S
C97 C91 1.404 . S
C97 C99 1.335 1_455 S
C97 H105 0.930 . S
C98 N96 1.325 1_655 S
C98 C99 1.419 . S
C98 H104 0.929 . S
C99 C97 1.335 1_655 S
C99 C98 1.419 . S
C99 H101 0.957 . S
H100 C89 0.930 . S
H101 C99 0.957 . S
H102 C117 0.930 . S
H103 C124 0.968 . S
H104 C98 0.929 . S
H105 C97 0.930 . S
H106 C120 0.929 . S
H107 C87 0.931 . S
H108 C93 0.931 . S
H109 C94 0.931 . S
H110 C115 0.931 . S
H111 C90 0.929 . S
H112 C123 0.930 . S
N113 Eu84 2.600 . S
N113 C114 1.365 . S
N113 C117 1.319 . S
C114 N113 1.365 . S
C114 C116 1.405 . S
C114 C122 1.448 . S
C115 H110 0.931 . S
C115 C117 1.397 . S
C115 C118 1.367 . S
C116 C114 1.405 . S
C116 C118 1.403 . S
C116 C149 1.439 . S
C117 H102 0.930 . S
C117 N113 1.319 . S
C117 C115 1.397 . S
C118 C115 1.367 . S
C118 C116 1.403 . S
C118 H125 0.929 . S
N119 Eu84 2.562 . S
N119 C120 1.325 1_655 S
N119 C122 1.351 . S
C120 H106 0.929 . S
C120 N119 1.325 1_455 S
C120 C124 1.420 . S
C121 C122 1.430 . S
C121 C123 1.404 . S
C121 C150 1.387 . S
C122 C114 1.448 . S
C122 N119 1.351 . S
C122 C121 1.430 . S
C123 H112 0.930 . S
C123 C121 1.404 . S
C123 C124 1.323 1_655 S
C124 H103 0.968 . S
C124 C120 1.420 . S
C124 C123 1.323 1_455 S
H125 C118 0.929 . S
H126 C149 0.931 . S
H127 C150 0.931 . S
O128 Eu84 2.462 1_455 S
O128 C148 1.252 . S
O129 Eu84 2.373 . S
O129 C140 1.249 . S
O130 Eu95 2.335 1_655 S
O130 C140 1.264 . S
O131 Eu84 2.432 . S
O131 C148 1.268 1_655 S
O132 Eu84 2.291 1_455 S
O132 C147 1.255 . S
O133 Eu95 2.372 . S
O133 C147 1.257 . S
O134 Eu95 2.462 1_655 S
O134 C159 1.252 . S
O135 Eu95 2.373 . S
O135 C151 1.249 . S
O136 Eu84 2.335 1_455 S
O136 C151 1.264 . S
O137 Eu95 2.432 . S
O137 C159 1.268 1_455 S
O138 Eu95 2.291 1_655 S
O138 C158 1.255 . S
O139 Eu84 2.372 . S
O139 C158 1.257 . S
C140 O129 1.249 . S
C140 O130 1.264 . S
C141 C144 1.382 1_455 S
C141 C146 1.390 . S
C141 C148 1.506 . S
C142 C143 1.398 . S
C142 C146 1.392 . S
C143 C142 1.398 . S
C143 C145 1.372 . S
C143 H160 0.931 . S
C144 C141 1.382 1_655 S
C144 C145 1.390 1_655 S
C144 H161 0.931 . S
C145 C143 1.372 . S
C145 C144 1.390 1_455 S
C145 H162 0.929 1_455 S
C146 C141 1.390 . S
C146 C142 1.392 . S
C146 H163 0.930 . S
C147 O132 1.255 . S
C147 O133 1.257 . S
C148 Eu84 2.787 1_455 S
C148 O128 1.252 . S
C148 O131 1.268 1_455 S
C148 C141 1.506 . S
C149 C116 1.439 . S
C149 H126 0.931 . S
C149 C150 1.374 . S
C150 C121 1.387 . S
C150 H127 0.931 . S
C150 C149 1.374 . S
C151 O135 1.249 . S
C151 O136 1.264 . S
C152 C155 1.382 1_655 S
C152 C156 1.390 . S
C152 C159 1.506 . S
C153 C154 1.398 . S
C153 C156 1.392 . S
C154 C153 1.398 . S
C154 C157 1.372 . S
C154 H164 0.931 . S
C155 C152 1.382 1_455 S
C155 C157 1.390 1_455 S
C155 H165 0.931 . S
C156 C152 1.390 . S
C156 C153 1.392 . S
C156 H166 0.930 . S
C157 C154 1.372 . S
C157 C155 1.390 1_655 S
C157 H167 0.929 1_655 S
C158 O138 1.255 . S
C158 O139 1.257 . S
C159 Eu95 2.787 1_655 S
C159 O134 1.252 . S
C159 O137 1.268 1_655 S
C159 C152 1.506 . S
H160 C143 0.931 . S
H161 C144 0.931 . S
H162 C145 0.929 1_655 S
H163 C146 0.930 . S
H164 C154 0.931 . S
H165 C155 0.931 . S
H166 C156 0.930 . S
H167 C157 0.929 1_455 S
Eu168 N197 2.600 . S
Eu168 N203 2.562 . S
Eu168 O212 2.462 . S
Eu168 O213 2.373 . S
Eu168 O215 2.432 . S
Eu168 O216 2.291 . S
Eu168 O220 2.335 . S
Eu168 O223 2.372 . S
Eu168 C232 2.787 . S
C169 N170 1.365 . S
C169 C172 1.405 . S
C169 C176 1.448 . S
N170 C169 1.365 . S
N170 C173 1.319 . S
N170 Eu179 2.600 . S
C171 C173 1.397 . S
C171 C174 1.367 . S
C171 H191 0.931 . S
C172 C169 1.405 . S
C172 C174 1.403 . S
C172 C178 1.439 . S
C173 N170 1.319 . S
C173 C171 1.397 . S
C173 H184 0.930 . S
C174 C171 1.367 . S
C174 C172 1.403 . S
C174 H195 0.929 . S
C175 C176 1.430 . S
C175 C177 1.387 . S
C175 C181 1.404 . S
C176 C169 1.448 . S
C176 C175 1.430 . S
C176 N180 1.351 . S
C177 C175 1.387 . S
C177 C178 1.374 . S
C177 H192 0.931 . S
C178 C172 1.439 . S
C178 C177 1.374 . S
C178 H193 0.931 . S
Eu179 N170 2.600 . S
Eu179 N180 2.562 . S
Eu179 O214 2.335 . S
Eu179 O217 2.372 . S
Eu179 O218 2.462 . S
Eu179 O219 2.373 . S
Eu179 O221 2.432 . S
Eu179 O222 2.291 . S
Eu179 C243 2.787 . S
N180 C176 1.351 . S
N180 Eu179 2.562 . S
N180 C182 1.325 . S
C181 C175 1.404 . S
C181 C183 1.366 . S
C181 H189 0.930 . S
C182 N180 1.325 . S
C182 C183 1.416 . S
C182 H188 0.929 . S
C183 C181 1.366 . S
C183 C182 1.416 . S
C183 H185 0.930 . S
H184 C173 0.930 . S
H185 C183 0.930 . S
H186 C201 0.930 . S
H187 C208 0.930 . S
H188 C182 0.929 . S
H189 C181 0.930 . S
H190 C204 0.929 . S
H191 C171 0.931 . S
H192 C177 0.931 . S
H193 C178 0.931 . S
H194 C199 0.931 . S
H195 C174 0.929 . S
H196 C207 0.930 . S
N197 Eu168 2.600 . S
N197 C198 1.365 . S
N197 C201 1.319 . S
C198 N197 1.365 . S
C198 C200 1.405 . S
C198 C206 1.448 . S
C199 H194 0.931 . S
C199 C201 1.397 . S
C199 C202 1.367 . S
C200 C198 1.405 . S
C200 C202 1.403 . S
C200 C233 1.439 . S
C201 H186 0.930 . S
C201 N197 1.319 . S
C201 C199 1.397 . S
C202 C199 1.367 . S
C202 C200 1.403 . S
C202 H209 0.929 . S
N203 Eu168 2.562 . S
N203 C204 1.325 . S
N203 C206 1.351 . S
C204 H190 0.929 . S
C204 N203 1.325 . S
C204 C208 1.416 . S
C205 C206 1.430 . S
C205 C207 1.404 . S
C205 C234 1.387 . S
C206 C198 1.448 . S
C206 N203 1.351 . S
C206 C205 1.430 . S
C207 H196 0.930 . S
C207 C205 1.404 . S
C207 C208 1.366 . S
C208 H187 0.930 . S
C208 C204 1.416 . S
C208 C207 1.366 . S
H209 C202 0.929 . S
H210 C233 0.931 . S
H211 C234 0.931 . S
O212 Eu168 2.462 . S
O212 C232 1.252 . S
O213 Eu168 2.373 . S
O213 C224 1.249 . S
O214 Eu179 2.335 . S
O214 C224 1.264 . S
O215 Eu168 2.432 . S
O215 C232 1.268 . S
O216 Eu168 2.291 . S
O216 C231 1.255 . S
O217 Eu179 2.372 . S
O217 C231 1.257 . S
O218 Eu179 2.462 . S
O218 C243 1.252 . S
O219 Eu179 2.373 . S
O219 C235 1.249 . S
O220 Eu168 2.335 . S
O220 C235 1.264 . S
O221 Eu179 2.432 . S
O221 C243 1.268 . S
O222 Eu179 2.291 . S
O222 C242 1.255 . S
O223 Eu168 2.372 . S
O223 C242 1.257 . S
C224 O213 1.249 . S
C224 O214 1.264 . S
C225 C228 1.382 . S
C225 C230 1.390 . S
C225 C232 1.506 . S
C226 C227 1.398 . S
C226 C230 1.392 . S
C227 C226 1.398 . S
C227 C229 1.372 . S
C227 H244 0.931 . S
C228 C225 1.382 . S
C228 C229 1.390 . S
C228 H245 0.931 . S
C229 C227 1.372 . S
C229 C228 1.390 . S
C229 H246 0.929 . S
C230 C225 1.390 . S
C230 C226 1.392 . S
C230 H247 0.930 . S
C231 O216 1.255 . S
C231 O217 1.257 . S
C232 Eu168 2.787 . S
C232 O212 1.252 . S
C232 O215 1.268 . S
C232 C225 1.506 . S
C233 C200 1.439 . S
C233 H210 0.931 . S
C233 C234 1.374 . S
C234 C205 1.387 . S
C234 H211 0.931 . S
C234 C233 1.374 . S
C235 O219 1.249 . S
C235 O220 1.264 . S
C236 C239 1.382 . S
C236 C240 1.390 . S
C236 C243 1.506 . S
C237 C238 1.398 . S
C237 C240 1.392 . S
C238 C237 1.398 . S
C238 C241 1.372 . S
C238 H248 0.931 . S
C239 C236 1.382 . S
C239 C241 1.390 . S
C239 H249 0.931 . S
C240 C236 1.390 . S
C240 C237 1.392 . S
C240 H250 0.930 . S
C241 C238 1.372 . S
C241 C239 1.390 . S
C241 H251 0.929 . S
C242 O222 1.255 . S
C242 O223 1.257 . S
C243 Eu179 2.787 . S
C243 O218 1.252 . S
C243 O221 1.268 . S
C243 C236 1.506 . S
H244 C227 0.931 . S
H245 C228 0.931 . S
H246 C229 0.929 . S
H247 C230 0.930 . S
H248 C238 0.931 . S
H249 C239 0.931 . S
H250 C240 0.930 . S
H251 C241 0.929 . S
Eu252 N281 2.600 . S
Eu252 N287 2.562 . S
Eu252 O296 2.462 . S
Eu252 O297 2.373 1_554 S
Eu252 O299 2.432 . S
Eu252 O300 2.291 . S
Eu252 O304 2.335 . S
Eu252 O307 2.372 . S
Eu252 C316 2.787 . S
C253 N254 1.365 . S
C253 C256 1.405 . S
C253 C260 1.448 . S
N254 C253 1.365 . S
N254 C257 1.319 . S
N254 Eu263 2.600 . S
C255 C257 1.397 . S
C255 C258 1.367 . S
C255 H275 0.931 . S
C256 C253 1.405 . S
C256 C258 1.403 . S
C256 C262 1.439 . S
C257 N254 1.319 . S
C257 C255 1.397 . S
C257 H268 0.930 . S
C258 C255 1.367 . S
C258 C256 1.403 . S
C258 H279 0.929 . S
C259 C260 1.430 . S
C259 C261 1.387 . S
C259 C265 1.404 . S
C260 C253 1.448 . S
C260 C259 1.430 . S
C260 N264 1.351 . S
C261 C259 1.387 . S
C261 C262 1.374 . S
C261 H276 0.931 . S
C262 C256 1.439 . S
C262 C261 1.374 . S
C262 H277 0.931 . S
Eu263 N254 2.600 . S
Eu263 N264 2.562 . S
Eu263 O298 2.335 . S
Eu263 O301 2.372 . S
Eu263 O302 2.462 . S
Eu263 O303 2.373 1_556 S
Eu263 O305 2.432 . S
Eu263 O306 2.291 . S
Eu263 C327 2.787 . S
N264 C260 1.351 . S
N264 Eu263 2.562 . S
N264 C266 1.325 . S
C265 C259 1.404 . S
C265 C267 1.366 . S
C265 H273 0.930 . S
C266 N264 1.325 . S
C266 C267 1.416 . S
C266 H272 0.929 . S
C267 C265 1.366 . S
C267 C266 1.416 . S
C267 H269 0.930 . S
H268 C257 0.930 . S
H269 C267 0.930 . S
H270 C285 0.930 . S
H271 C292 0.930 . S
H272 C266 0.929 . S
H273 C265 0.930 . S
H274 C288 0.929 . S
H275 C255 0.931 . S
H276 C261 0.931 . S
H277 C262 0.931 . S
H278 C283 0.931 . S
H279 C258 0.929 . S
H280 C291 0.930 . S
N281 Eu252 2.600 . S
N281 C282 1.365 . S
N281 C285 1.319 . S
C282 N281 1.365 . S
C282 C284 1.405 . S
C282 C290 1.448 . S
C283 H278 0.931 . S
C283 C285 1.397 . S
C283 C286 1.367 . S
C284 C282 1.405 . S
C284 C286 1.403 . S
C284 C317 1.439 . S
C285 H270 0.930 . S
C285 N281 1.319 . S
C285 C283 1.397 . S
C286 C283 1.367 . S
C286 C284 1.403 . S
C286 H293 0.929 . S
N287 Eu252 2.562 . S
N287 C288 1.325 . S
N287 C290 1.351 . S
C288 H274 0.929 . S
C288 N287 1.325 . S
C288 C292 1.416 . S
C289 C290 1.430 . S
C289 C291 1.404 . S
C289 C318 1.387 . S
C290 C282 1.448 . S
C290 N287 1.351 . S
C290 C289 1.430 . S
C291 H280 0.930 . S
C291 C289 1.404 . S
C291 C292 1.366 . S
C292 H271 0.930 . S
C292 C288 1.416 . S
C292 C291 1.366 . S
H293 C286 0.929 . S
H294 C317 0.931 . S
H295 C318 0.931 . S
O296 Eu252 2.462 . S
O296 C316 1.252 . S
O297 Eu252 2.373 1_556 S
O297 C308 1.249 . S
O298 Eu263 2.335 . S
O298 C308 1.264 . S
O299 Eu252 2.432 . S
O299 C316 1.268 . S
O300 Eu252 2.291 . S
O300 C315 1.255 1_554 S
O301 Eu263 2.372 . S
O301 C315 1.257 . S
O302 Eu263 2.462 . S
O302 C327 1.252 . S
O303 Eu263 2.373 1_554 S
O303 C319 1.249 . S
O304 Eu252 2.335 . S
O304 C319 1.264 . S
O305 Eu263 2.432 . S
O305 C327 1.268 . S
O306 Eu263 2.291 . S
O306 C326 1.255 1_556 S
O307 Eu252 2.372 . S
O307 C326 1.257 . S
C308 O297 1.249 . S
C308 O298 1.264 . S
C309 C312 1.382 . S
C309 C314 1.390 . S
C309 C316 1.506 . S
C310 C311 1.398 . S
C310 C314 1.392 . S
C311 C310 1.398 . S
C311 C313 1.372 . S
C311 H328 0.931 . S
C312 C309 1.382 . S
C312 C313 1.390 . S
C312 H329 0.931 . S
C313 C311 1.372 . S
C313 C312 1.390 . S
C313 H330 0.929 . S
C314 C309 1.390 . S
C314 C310 1.392 . S
C314 H331 0.930 . S
C315 O300 1.255 1_556 S
C315 O301 1.257 . S
C316 Eu252 2.787 . S
C316 O296 1.252 . S
C316 O299 1.268 . S
C316 C309 1.506 . S
C317 C284 1.439 . S
C317 H294 0.931 . S
C317 C318 1.374 . S
C318 C289 1.387 . S
C318 H295 0.931 . S
C318 C317 1.374 . S
C319 O303 1.249 . S
C319 O304 1.264 . S
C320 C323 1.382 . S
C320 C324 1.390 . S
C320 C327 1.506 . S
C321 C322 1.398 . S
C321 C324 1.392 . S
C322 C321 1.398 . S
C322 C325 1.372 . S
C322 H332 0.931 . S
C323 C320 1.382 . S
C323 C325 1.390 . S
C323 H333 0.931 . S
C324 C320 1.390 . S
C324 C321 1.392 . S
C324 H334 0.930 . S
C325 C322 1.372 . S
C325 C323 1.390 . S
C325 H335 0.929 . S
C326 O306 1.255 1_554 S
C326 O307 1.257 . S
C327 Eu263 2.787 . S
C327 O302 1.252 . S
C327 O305 1.268 . S
C327 C320 1.506 . S
H328 C311 0.931 . S
H329 C312 0.931 . S
H330 C313 0.929 . S
H331 C314 0.930 . S
H332 C322 0.931 . S
H333 C323 0.931 . S
H334 C324 0.930 . S
H335 C325 0.929 . S
Eu336 N365 2.600 . S
Eu336 N371 2.562 . S
Eu336 O380 2.474 . S
Eu336 O381 2.373 . S
Eu336 O383 2.432 . S
Eu336 O384 2.291 . S
Eu336 O388 2.335 1_565 S
Eu336 O391 2.356 1_455 S
Eu336 C400 2.787 . S
C337 N338 1.365 . S
C337 C340 1.405 . S
C337 C344 1.448 . S
N338 C337 1.365 . S
N338 C341 1.319 . S
N338 Eu347 2.603 . S
C339 C341 1.397 . S
C339 C342 1.367 . S
C339 H359 0.931 . S
C340 C337 1.405 . S
C340 C342 1.403 . S
C340 C346 1.439 . S
C341 N338 1.319 . S
C341 C339 1.397 . S
C341 H352 0.930 . S
C342 C339 1.367 . S
C342 C340 1.403 . S
C342 H363 0.929 . S
C343 C344 1.430 . S
C343 C345 1.387 . S
C343 C349 1.404 . S
C344 C337 1.448 . S
C344 C343 1.430 . S
C344 N348 1.351 . S
C345 C343 1.387 . S
C345 C346 1.374 . S
C345 H360 0.931 . S
C346 C340 1.439 . S
C346 C345 1.374 . S
C346 H361 0.931 . S
Eu347 N338 2.603 . S
Eu347 N348 2.564 . S
Eu347 O382 2.332 1_545 S
Eu347 O385 2.347 1_655 S
Eu347 O386 2.460 1_545 S
Eu347 O387 2.375 . S
Eu347 O389 2.431 1_545 S
Eu347 O390 2.289 1_545 S
Eu347 C411 2.785 1_545 S
N348 C344 1.351 . S
N348 Eu347 2.564 . S
N348 C350 1.325 . S
C349 C343 1.404 . S
C349 C351 1.366 . S
C349 H357 0.930 . S
C350 N348 1.325 . S
C350 C351 1.416 . S
C350 H356 0.929 . S
C351 C349 1.366 . S
C351 C350 1.416 . S
C351 H353 0.930 . S
H352 C341 0.930 . S
H353 C351 0.930 . S
H354 C369 0.930 . S
H355 C376 0.930 . S
H356 C350 0.929 . S
H357 C349 0.930 . S
H358 C372 0.929 . S
H359 C339 0.931 . S
H360 C345 0.931 . S
H361 C346 0.931 . S
H362 C367 0.931 . S
H363 C342 0.929 . S
H364 C375 0.930 . S
N365 Eu336 2.600 . S
N365 C366 1.365 . S
N365 C369 1.319 . S
C366 N365 1.365 . S
C366 C368 1.405 . S
C366 C374 1.448 . S
C367 H362 0.931 . S
C367 C369 1.397 . S
C367 C370 1.367 . S
C368 C366 1.405 . S
C368 C370 1.403 . S
C368 C401 1.439 . S
C369 H354 0.930 . S
C369 N365 1.319 . S
C369 C367 1.397 . S
C370 C367 1.367 . S
C370 C368 1.403 . S
C370 H377 0.929 . S
N371 Eu336 2.562 . S
N371 C372 1.325 . S
N371 C374 1.351 . S
C372 H358 0.929 . S
C372 N371 1.325 . S
C372 C376 1.416 . S
C373 C374 1.430 . S
C373 C375 1.404 . S
C373 C402 1.387 . S
C374 C366 1.448 . S
C374 N371 1.351 . S
C374 C373 1.430 . S
C375 H364 0.930 . S
C375 C373 1.404 . S
C375 C376 1.366 . S
C376 H355 0.930 . S
C376 C372 1.416 . S
C376 C375 1.366 . S
H377 C370 0.929 . S
H378 C401 0.931 . S
H379 C402 0.931 . S
O380 Eu336 2.474 . S
O380 C400 1.257 . S
O381 Eu336 2.373 . S
O381 C392 1.249 1_455 S
O382 Eu347 2.332 1_565 S
O382 C392 1.264 . S
O383 Eu336 2.432 . S
O383 C400 1.268 . S
O384 Eu336 2.291 . S
O384 C399 1.255 1_565 S
O385 Eu347 2.347 1_455 S
O385 C399 1.289 . S
O386 Eu347 2.460 1_565 S
O386 C411 1.252 . S
O387 Eu347 2.375 . S
O387 C403 1.249 1_655 S
O388 Eu336 2.335 1_545 S
O388 C403 1.264 . S
O389 Eu347 2.431 1_565 S
O389 C411 1.268 . S
O390 Eu347 2.289 1_565 S
O390 C410 1.255 . S
O391 Eu336 2.356 1_655 S
O391 C410 1.276 . S
C392 O381 1.249 1_655 S
C392 O382 1.264 . S
C393 C396 1.382 1_545 S
C393 C398 1.390 . S
C393 C400 1.506 1_545 S
C394 C395 1.398 . S
C394 C398 1.392 . S
C395 C394 1.398 . S
C395 C397 1.372 . S
C395 H412 0.931 . S
C396 C393 1.382 1_565 S
C396 C397 1.390 1_565 S
C396 H413 0.931 . S
C397 C395 1.372 . S
C397 C396 1.390 1_545 S
C397 H414 0.929 . S
C398 C393 1.390 . S
C398 C394 1.392 . S
C398 H415 0.930 . S
C399 O384 1.255 1_545 S
C399 O385 1.289 . S
C400 Eu336 2.787 . S
C400 O380 1.257 . S
C400 O383 1.268 . S
C400 C393 1.506 1_565 S
C401 C368 1.439 . S
C401 H378 0.931 . S
C401 C402 1.374 . S
C402 C373 1.387 . S
C402 H379 0.931 . S
C402 C401 1.374 . S
C403 O387 1.249 1_455 S
C403 O388 1.264 . S
C404 C407 1.382 . S
C404 C408 1.390 . S
C404 C411 1.506 . S
C405 C406 1.398 . S
C405 C408 1.392 . S
C406 C405 1.398 . S
C406 C409 1.372 . S
C406 H416 0.931 . S
C407 C404 1.382 . S
C407 C409 1.390 . S
C407 H417 0.931 . S
C408 C404 1.390 . S
C408 C405 1.392 . S
C408 H418 0.930 . S
C409 C406 1.372 . S
C409 C407 1.390 . S
C409 H419 0.929 . S
C410 O390 1.255 . S
C410 O391 1.276 . S
C411 Eu347 2.785 1_565 S
C411 O386 1.252 . S
C411 O389 1.268 . S
C411 C404 1.506 . S
H412 C395 0.931 . S
H413 C396 0.931 . S
H414 C397 0.929 . S
H415 C398 0.930 . S
H416 C406 0.931 . S
H417 C407 0.931 . S
H418 C408 0.930 . S
H419 C409 0.929 . S
Eu420 N449 2.600 . S
Eu420 N455 2.562 . S
Eu420 O464 2.462 . S
Eu420 O465 2.373 . S
Eu420 O467 2.432 . S
Eu420 O468 2.291 . S
Eu420 O472 2.335 . S
Eu420 O475 2.372 . S
Eu420 C484 2.787 . S
C421 N422 1.365 . S
C421 C424 1.405 . S
C421 C428 1.448 . S
N422 C421 1.365 . S
N422 C425 1.319 . S
N422 Eu431 2.600 . S
C423 C425 1.397 . S
C423 C426 1.367 . S
C423 H443 0.931 . S
C424 C421 1.405 . S
C424 C426 1.403 . S
C424 C430 1.439 . S
C425 N422 1.319 . S
C425 C423 1.397 . S
C425 H436 0.930 . S
C426 C423 1.367 . S
C426 C424 1.403 . S
C426 H447 0.929 . S
C427 C428 1.430 . S
C427 C429 1.387 . S
C427 C433 1.404 . S
C428 C421 1.448 . S
C428 C427 1.430 . S
C428 N432 1.351 . S
C429 C427 1.387 . S
C429 C430 1.374 . S
C429 H444 0.931 . S
C430 C424 1.439 . S
C430 C429 1.374 . S
C430 H445 0.931 . S
Eu431 N422 2.600 . S
Eu431 N432 2.562 . S
Eu431 O466 2.335 . S
Eu431 O469 2.372 . S
Eu431 O470 2.462 . S
Eu431 O471 2.373 . S
Eu431 O473 2.432 . S
Eu431 O474 2.291 . S
Eu431 C495 2.787 . S
N432 C428 1.351 . S
N432 Eu431 2.562 . S
N432 C434 1.325 . S
C433 C427 1.404 . S
C433 C435 1.366 . S
C433 H441 0.930 . S
C434 N432 1.325 . S
C434 C435 1.416 . S
C434 H440 0.929 . S
C435 C433 1.366 . S
C435 C434 1.416 . S
C435 H437 0.930 . S
H436 C425 0.930 . S
H437 C435 0.930 . S
H438 C453 0.930 . S
H439 C460 0.930 . S
H440 C434 0.929 . S
H441 C433 0.930 . S
H442 C456 0.929 . S
H443 C423 0.931 . S
H444 C429 0.931 . S
H445 C430 0.931 . S
H446 C451 0.931 . S
H447 C426 0.929 . S
H448 C459 0.930 . S
N449 Eu420 2.600 . S
N449 C450 1.365 . S
N449 C453 1.319 . S
C450 N449 1.365 . S
C450 C452 1.405 . S
C450 C458 1.448 . S
C451 H446 0.931 . S
C451 C453 1.397 . S
C451 C454 1.367 . S
C452 C450 1.405 . S
C452 C454 1.403 . S
C452 C485 1.439 . S
C453 H438 0.930 . S
C453 N449 1.319 . S
C453 C451 1.397 . S
C454 C451 1.367 . S
C454 C452 1.403 . S
C454 H461 0.929 . S
N455 Eu420 2.562 . S
N455 C456 1.325 . S
N455 C458 1.351 . S
C456 H442 0.929 . S
C456 N455 1.325 . S
C456 C460 1.416 . S
C457 C458 1.430 . S
C457 C459 1.404 . S
C457 C486 1.387 . S
C458 C450 1.448 . S
C458 N455 1.351 . S
C458 C457 1.430 . S
C459 H448 0.930 . S
C459 C457 1.404 . S
C459 C460 1.366 . S
C460 H439 0.930 . S
C460 C456 1.416 . S
C460 C459 1.366 . S
H461 C454 0.929 . S
H462 C485 0.931 . S
H463 C486 0.931 . S
O464 Eu420 2.462 . S
O464 C484 1.252 . S
O465 Eu420 2.373 . S
O465 C476 1.249 . S
O466 Eu431 2.335 . S
O466 C476 1.264 . S
O467 Eu420 2.432 . S
O467 C484 1.268 . S
O468 Eu420 2.291 . S
O468 C483 1.255 . S
O469 Eu431 2.372 . S
O469 C483 1.257 . S
O470 Eu431 2.462 . S
O470 C495 1.252 . S
O471 Eu431 2.373 . S
O471 C487 1.249 . S
O472 Eu420 2.335 . S
O472 C487 1.264 . S
O473 Eu431 2.432 . S
O473 C495 1.268 . S
O474 Eu431 2.291 . S
O474 C494 1.255 . S
O475 Eu420 2.372 . S
O475 C494 1.257 . S
C476 O465 1.249 . S
C476 O466 1.264 . S
C477 C480 1.382 . S
C477 C482 1.390 . S
C477 C484 1.506 . S
C478 C479 1.398 . S
C478 C482 1.392 . S
C479 C478 1.398 . S
C479 C481 1.372 . S
C479 H496 0.931 . S
C480 C477 1.382 . S
C480 C481 1.390 . S
C480 H497 0.931 . S
C481 C479 1.372 . S
C481 C480 1.390 . S
C481 H498 0.929 . S
C482 C477 1.390 . S
C482 C478 1.392 . S
C482 H499 0.930 . S
C483 O468 1.255 . S
C483 O469 1.257 . S
C484 Eu420 2.787 . S
C484 O464 1.252 . S
C484 O467 1.268 . S
C484 C477 1.506 . S
C485 C452 1.439 . S
C485 H462 0.931 . S
C485 C486 1.374 . S
C486 C457 1.387 . S
C486 H463 0.931 . S
C486 C485 1.374 . S
C487 O471 1.249 . S
C487 O472 1.264 . S
C488 C491 1.382 . S
C488 C492 1.390 . S
C488 C495 1.506 . S
C489 C490 1.398 . S
C489 C492 1.392 . S
C490 C489 1.398 . S
C490 C493 1.372 . S
C490 H500 0.931 . S
C491 C488 1.382 . S
C491 C493 1.390 . S
C491 H501 0.931 . S
C492 C488 1.390 . S
C492 C489 1.392 . S
C492 H502 0.930 . S
C493 C490 1.372 . S
C493 C491 1.390 . S
C493 H503 0.929 . S
C494 O474 1.255 . S
C494 O475 1.257 . S
C495 Eu431 2.787 . S
C495 O470 1.252 . S
C495 O473 1.268 . S
C495 C488 1.506 . S
H496 C479 0.931 . S
H497 C480 0.931 . S
H498 C481 0.929 . S
H499 C482 0.930 . S
H500 C490 0.931 . S
H501 C491 0.931 . S
H502 C492 0.930 . S
H503 C493 0.929 . S
Eu504 N533 2.600 . S
Eu504 N539 2.562 . S
Eu504 O548 2.462 1_565 S
Eu504 O549 2.373 . S
Eu504 O551 2.432 . S
Eu504 O552 2.291 1_565 S
Eu504 O556 2.335 1_565 S
Eu504 O559 2.372 . S
Eu504 C568 2.787 1_565 S
C505 N506 1.365 . S
C505 C508 1.405 . S
C505 C512 1.448 . S
N506 C505 1.365 . S
N506 C509 1.319 . S
N506 Eu515 2.600 . S
C507 C509 1.397 . S
C507 C510 1.367 . S
C507 H527 0.931 . S
C508 C505 1.405 . S
C508 C510 1.403 . S
C508 C514 1.439 . S
C509 N506 1.319 . S
C509 C507 1.397 . S
C509 H520 0.930 . S
C510 C507 1.367 . S
C510 C508 1.403 . S
C510 H531 0.929 . S
C511 C512 1.430 . S
C511 C513 1.387 . S
C511 C517 1.404 . S
C512 C505 1.448 . S
C512 C511 1.430 . S
C512 N516 1.351 . S
C513 C511 1.387 . S
C513 C514 1.374 . S
C513 H528 0.931 . S
C514 C508 1.439 . S
C514 C513 1.374 . S
C514 H529 0.931 . S
Eu515 N506 2.600 . S
Eu515 N516 2.562 . S
Eu515 O550 2.335 1_545 S
Eu515 O553 2.372 . S
Eu515 O554 2.462 1_545 S
Eu515 O555 2.373 . S
Eu515 O557 2.432 . S
Eu515 O558 2.291 1_545 S
Eu515 C579 2.787 1_545 S
N516 C512 1.351 . S
N516 Eu515 2.562 . S
N516 C518 1.325 1_545 S
C517 C511 1.404 . S
C517 C519 1.316 1_545 S
C517 H525 0.930 . S
C518 N516 1.325 1_565 S
C518 C519 1.421 . S
C518 H524 0.929 . S
C519 C517 1.316 1_565 S
C519 C518 1.421 . S
C519 H521 0.975 . S
H520 C509 0.930 . S
H521 C519 0.975 . S
H522 C537 0.930 . S
H523 C544 0.930 . S
H524 C518 0.929 . S
H525 C517 0.930 . S
H526 C540 0.929 . S
H527 C507 0.931 . S
H528 C513 0.931 . S
H529 C514 0.931 . S
H530 C535 0.931 . S
H531 C510 0.929 . S
H532 C543 0.930 . S
N533 Eu504 2.600 . S
N533 C534 1.365 . S
N533 C537 1.319 . S
C534 N533 1.365 . S
C534 C536 1.405 . S
C534 C542 1.448 . S
C535 H530 0.931 . S
C535 C537 1.397 . S
C535 C538 1.367 . S
C536 C534 1.405 . S
C536 C538 1.403 . S
C536 C569 1.439 . S
C537 H522 0.930 . S
C537 N533 1.319 . S
C537 C535 1.397 . S
C538 C535 1.367 . S
C538 C536 1.403 . S
C538 H545 0.929 . S
N539 Eu504 2.562 . S
N539 C540 1.325 1_565 S
N539 C542 1.351 . S
C540 H526 0.929 . S
C540 N539 1.325 1_545 S
C540 C544 1.416 . S
C541 C542 1.430 . S
C541 C543 1.404 . S
C541 C570 1.387 . S
C542 C534 1.448 . S
C542 N539 1.351 . S
C542 C541 1.430 . S
C543 H532 0.930 . S
C543 C541 1.404 . S
C543 C544 1.366 1_565 S
C544 H523 0.930 . S
C544 C540 1.416 . S
C544 C543 1.366 1_545 S
H545 C538 0.929 . S
H546 C569 0.931 . S
H547 C570 0.931 . S
O548 Eu504 2.462 1_545 S
O548 C568 1.252 . S
O549 Eu504 2.373 . S
O549 C560 1.249 . S
O550 Eu515 2.335 1_565 S
O550 C560 1.264 . S
O551 Eu504 2.432 . S
O551 C568 1.268 1_565 S
O552 Eu504 2.291 1_545 S
O552 C567 1.255 . S
O553 Eu515 2.372 . S
O553 C567 1.257 . S
O554 Eu515 2.462 1_565 S
O554 C579 1.252 . S
O555 Eu515 2.373 . S
O555 C571 1.249 . S
O556 Eu504 2.335 1_545 S
O556 C571 1.264 . S
O557 Eu515 2.432 . S
O557 C579 1.268 1_545 S
O558 Eu515 2.291 1_565 S
O558 C578 1.255 . S
O559 Eu504 2.372 . S
O559 C578 1.257 . S
C560 O549 1.249 . S
C560 O550 1.264 . S
C561 C564 1.382 1_545 S
C561 C566 1.390 . S
C561 C568 1.506 . S
C562 C563 1.398 . S
C562 C566 1.392 . S
C563 C562 1.398 . S
C563 C565 1.372 . S
C563 H580 0.931 . S
C564 C561 1.382 1_565 S
C564 C565 1.390 1_565 S
C564 H581 0.931 . S
C565 C563 1.372 . S
C565 C564 1.390 1_545 S
C565 H582 0.929 1_545 S
C566 C561 1.390 . S
C566 C562 1.392 . S
C566 H583 0.930 . S
C567 O552 1.255 . S
C567 O553 1.257 . S
C568 Eu504 2.787 1_545 S
C568 O548 1.252 . S
C568 O551 1.268 1_545 S
C568 C561 1.506 . S
C569 C536 1.439 . S
C569 H546 0.931 . S
C569 C570 1.374 . S
C570 C541 1.387 . S
C570 H547 0.931 . S
C570 C569 1.374 . S
C571 O555 1.249 . S
C571 O556 1.264 . S
C572 C575 1.382 1_565 S
C572 C576 1.390 . S
C572 C579 1.506 . S
C573 C574 1.398 . S
C573 C576 1.392 . S
C574 C573 1.398 . S
C574 C577 1.372 . S
C574 H584 0.931 . S
C575 C572 1.382 1_545 S
C575 C577 1.390 1_545 S
C575 H585 0.931 . S
C576 C572 1.390 . S
C576 C573 1.392 . S
C576 H586 0.930 . S
C577 C574 1.372 . S
C577 C575 1.390 1_565 S
C577 H587 0.929 1_565 S
C578 O558 1.255 . S
C578 O559 1.257 . S
C579 Eu515 2.787 1_565 S
C579 O554 1.252 . S
C579 O557 1.268 1_565 S
C579 C572 1.506 . S
H580 C563 0.931 . S
H581 C564 0.931 . S
H582 C565 0.929 1_565 S
H583 C566 0.930 . S
H584 C574 0.931 . S
H585 C575 0.931 . S
H586 C576 0.930 . S
H587 C577 0.929 1_545 S
Eu588 N617 2.600 . S
Eu588 N623 2.562 . S
Eu588 O632 2.462 . S
Eu588 O633 2.373 . S
Eu588 O635 2.432 . S
Eu588 O636 2.291 . S
Eu588 O640 2.335 . S
Eu588 O643 2.372 . S
Eu588 C652 2.787 . S
C589 N590 1.365 . S
C589 C592 1.405 . S
C589 C596 1.448 . S
N590 C589 1.365 . S
N590 C593 1.319 . S
N590 Eu599 2.600 . S
C591 C593 1.397 . S
C591 C594 1.367 . S
C591 H611 0.931 . S
C592 C589 1.405 . S
C592 C594 1.403 . S
C592 C598 1.439 . S
C593 N590 1.319 . S
C593 C591 1.397 . S
C593 H604 0.930 . S
C594 C591 1.367 . S
C594 C592 1.403 . S
C594 H615 0.929 . S
C595 C596 1.430 . S
C595 C597 1.387 . S
C595 C601 1.404 . S
C596 C589 1.448 . S
C596 C595 1.430 . S
C596 N600 1.351 . S
C597 C595 1.387 . S
C597 C598 1.374 . S
C597 H612 0.931 . S
C598 C592 1.439 . S
C598 C597 1.374 . S
C598 H613 0.931 . S
Eu599 N590 2.600 . S
Eu599 N600 2.562 . S
Eu599 O634 2.335 . S
Eu599 O637 2.372 . S
Eu599 O638 2.462 . S
Eu599 O639 2.373 . S
Eu599 O641 2.432 . S
Eu599 O642 2.291 . S
Eu599 C663 2.787 . S
N600 C596 1.351 . S
N600 Eu599 2.562 . S
N600 C602 1.325 . S
C601 C595 1.404 . S
C601 C603 1.366 . S
C601 H609 0.930 . S
C602 N600 1.325 . S
C602 C603 1.416 . S
C602 H608 0.929 . S
C603 C601 1.366 . S
C603 C602 1.416 . S
C603 H605 0.930 . S
H604 C593 0.930 . S
H605 C603 0.930 . S
H606 C621 0.930 . S
H607 C628 0.930 . S
H608 C602 0.929 . S
H609 C601 0.930 . S
H610 C624 0.929 . S
H611 C591 0.931 . S
H612 C597 0.931 . S
H613 C598 0.931 . S
H614 C619 0.931 . S
H615 C594 0.929 . S
H616 C627 0.930 . S
N617 Eu588 2.600 . S
N617 C618 1.365 . S
N617 C621 1.319 . S
C618 N617 1.365 . S
C618 C620 1.405 . S
C618 C626 1.448 . S
C619 H614 0.931 . S
C619 C621 1.397 . S
C619 C622 1.367 . S
C620 C618 1.405 . S
C620 C622 1.403 . S
C620 C653 1.439 . S
C621 H606 0.930 . S
C621 N617 1.319 . S
C621 C619 1.397 . S
C622 C619 1.367 . S
C622 C620 1.403 . S
C622 H629 0.929 . S
N623 Eu588 2.562 . S
N623 C624 1.325 . S
N623 C626 1.351 . S
C624 H610 0.929 . S
C624 N623 1.325 . S
C624 C628 1.416 . S
C625 C626 1.430 . S
C625 C627 1.404 . S
C625 C654 1.387 . S
C626 C618 1.448 . S
C626 N623 1.351 . S
C626 C625 1.430 . S
C627 H616 0.930 . S
C627 C625 1.404 . S
C627 C628 1.366 . S
C628 H607 0.930 . S
C628 C624 1.416 . S
C628 C627 1.366 . S
H629 C622 0.929 . S
H630 C653 0.931 . S
H631 C654 0.931 . S
O632 Eu588 2.462 . S
O632 C652 1.252 . S
O633 Eu588 2.373 . S
O633 C644 1.249 . S
O634 Eu599 2.335 . S
O634 C644 1.264 . S
O635 Eu588 2.432 . S
O635 C652 1.268 . S
O636 Eu588 2.291 . S
O636 C651 1.255 . S
O637 Eu599 2.372 . S
O637 C651 1.257 . S
O638 Eu599 2.462 . S
O638 C663 1.252 . S
O639 Eu599 2.373 . S
O639 C655 1.249 . S
O640 Eu588 2.335 . S
O640 C655 1.264 . S
O641 Eu599 2.432 . S
O641 C663 1.268 . S
O642 Eu599 2.291 . S
O642 C662 1.255 . S
O643 Eu588 2.372 . S
O643 C662 1.257 . S
C644 O633 1.249 . S
C644 O634 1.264 . S
C645 C648 1.382 . S
C645 C650 1.390 . S
C645 C652 1.506 . S
C646 C647 1.398 . S
C646 C650 1.392 . S
C647 C646 1.398 . S
C647 C649 1.372 . S
C647 H664 0.931 . S
C648 C645 1.382 . S
C648 C649 1.390 . S
C648 H665 0.931 . S
C649 C647 1.372 . S
C649 C648 1.390 . S
C649 H666 0.929 . S
C650 C645 1.390 . S
C650 C646 1.392 . S
C650 H667 0.930 . S
C651 O636 1.255 . S
C651 O637 1.257 . S
C652 Eu588 2.787 . S
C652 O632 1.252 . S
C652 O635 1.268 . S
C652 C645 1.506 . S
C653 C620 1.439 . S
C653 H630 0.931 . S
C653 C654 1.374 . S
C654 C625 1.387 . S
C654 H631 0.931 . S
C654 C653 1.374 . S
C655 O639 1.249 . S
C655 O640 1.264 . S
C656 C659 1.382 . S
C656 C660 1.390 . S
C656 C663 1.506 . S
C657 C658 1.398 . S
C657 C660 1.392 . S
C658 C657 1.398 . S
C658 C661 1.372 . S
C658 H668 0.931 . S
C659 C656 1.382 . S
C659 C661 1.390 . S
C659 H669 0.931 . S
C660 C656 1.390 . S
C660 C657 1.392 . S
C660 H670 0.930 . S
C661 C658 1.372 . S
C661 C659 1.390 . S
C661 H671 0.929 . S
C662 O642 1.255 . S
C662 O643 1.257 . S
C663 Eu599 2.787 . S
C663 O638 1.252 . S
C663 O641 1.268 . S
C663 C656 1.506 . S
H664 C647 0.931 . S
H665 C648 0.931 . S
H666 C649 0.929 . S
H667 C650 0.930 . S
H668 C658 0.931 . S
H669 C659 0.931 . S
H670 C660 0.930 . S
H671 C661 0.929 . S
Eu672 N701 2.600 . S
Eu672 N707 2.562 . S
Eu672 O716 2.462 . S
Eu672 O717 2.373 . S
Eu672 O719 2.432 . S
Eu672 O720 2.291 . S
Eu672 O724 2.335 . S
Eu672 O727 2.372 . S
Eu672 C736 2.787 . S
C673 N674 1.365 . S
C673 C676 1.405 . S
C673 C680 1.448 . S
N674 C673 1.365 . S
N674 C677 1.319 . S
N674 Eu683 2.600 . S
C675 C677 1.397 . S
C675 C678 1.367 . S
C675 H695 0.931 . S
C676 C673 1.405 . S
C676 C678 1.403 . S
C676 C682 1.439 . S
C677 N674 1.319 . S
C677 C675 1.397 . S
C677 H688 0.930 . S
C678 C675 1.367 . S
C678 C676 1.403 . S
C678 H699 0.929 . S
C679 C680 1.430 . S
C679 C681 1.387 . S
C679 C685 1.404 . S
C680 C673 1.448 . S
C680 C679 1.430 . S
C680 N684 1.351 . S
C681 C679 1.387 . S
C681 C682 1.374 . S
C681 H696 0.931 . S
C682 C676 1.439 . S
C682 C681 1.374 . S
C682 H697 0.931 . S
Eu683 N674 2.600 . S
Eu683 N684 2.562 . S
Eu683 O718 2.335 . S
Eu683 O721 2.372 . S
Eu683 O722 2.462 . S
Eu683 O723 2.373 . S
Eu683 O725 2.432 . S
Eu683 O726 2.291 . S
Eu683 C747 2.787 . S
N684 C680 1.351 . S
N684 Eu683 2.562 . S
N684 C686 1.325 . S
C685 C679 1.404 . S
C685 C687 1.366 . S
C685 H693 0.930 . S
C686 N684 1.325 . S
C686 C687 1.416 . S
C686 H692 0.929 . S
C687 C685 1.366 . S
C687 C686 1.416 . S
C687 H689 0.930 . S
H688 C677 0.930 . S
H689 C687 0.930 . S
H690 C705 0.930 . S
H691 C712 0.930 . S
H692 C686 0.929 . S
H693 C685 0.930 . S
H694 C708 0.929 . S
H695 C675 0.931 . S
H696 C681 0.931 . S
H697 C682 0.931 . S
H698 C703 0.931 . S
H699 C678 0.929 . S
H700 C711 0.930 . S
N701 Eu672 2.600 . S
N701 C702 1.365 . S
N701 C705 1.319 . S
C702 N701 1.365 . S
C702 C704 1.405 . S
C702 C710 1.448 . S
C703 H698 0.931 . S
C703 C705 1.397 . S
C703 C706 1.367 . S
C704 C702 1.405 . S
C704 C706 1.403 . S
C704 C737 1.439 . S
C705 H690 0.930 . S
C705 N701 1.319 . S
C705 C703 1.397 . S
C706 C703 1.367 . S
C706 C704 1.403 . S
C706 H713 0.929 . S
N707 Eu672 2.562 . S
N707 C708 1.325 . S
N707 C710 1.351 . S
C708 H694 0.929 . S
C708 N707 1.325 . S
C708 C712 1.416 . S
C709 C710 1.430 . S
C709 C711 1.404 . S
C709 C738 1.387 . S
C710 C702 1.448 . S
C710 N707 1.351 . S
C710 C709 1.430 . S
C711 H700 0.930 . S
C711 C709 1.404 . S
C711 C712 1.366 . S
C712 H691 0.930 . S
C712 C708 1.416 . S
C712 C711 1.366 . S
H713 C706 0.929 . S
H714 C737 0.931 . S
H715 C738 0.931 . S
O716 Eu672 2.462 . S
O716 C736 1.252 . S
O717 Eu672 2.373 . S
O717 C728 1.249 . S
O718 Eu683 2.335 . S
O718 C728 1.264 . S
O719 Eu672 2.432 . S
O719 C736 1.268 . S
O720 Eu672 2.291 . S
O720 C735 1.255 . S
O721 Eu683 2.372 . S
O721 C735 1.257 . S
O722 Eu683 2.462 . S
O722 C747 1.252 . S
O723 Eu683 2.373 . S
O723 C739 1.249 . S
O724 Eu672 2.335 . S
O724 C739 1.264 . S
O725 Eu683 2.432 . S
O725 C747 1.268 . S
O726 Eu683 2.291 . S
O726 C746 1.255 . S
O727 Eu672 2.372 . S
O727 C746 1.257 . S
C728 O717 1.249 . S
C728 O718 1.264 . S
C729 C732 1.382 . S
C729 C734 1.390 . S
C729 C736 1.506 . S
C730 C731 1.398 . S
C730 C734 1.392 . S
C731 C730 1.398 . S
C731 C733 1.372 . S
C731 H748 0.931 . S
C732 C729 1.382 . S
C732 C733 1.390 . S
C732 H749 0.931 . S
C733 C731 1.372 . S
C733 C732 1.390 . S
C733 H750 0.929 . S
C734 C729 1.390 . S
C734 C730 1.392 . S
C734 H751 0.930 . S
C735 O720 1.255 . S
C735 O721 1.257 . S
C736 Eu672 2.787 . S
C736 O716 1.252 . S
C736 O719 1.268 . S
C736 C729 1.506 . S
C737 C704 1.439 . S
C737 H714 0.931 . S
C737 C738 1.374 . S
C738 C709 1.387 . S
C738 H715 0.931 . S
C738 C737 1.374 . S
C739 O723 1.249 . S
C739 O724 1.264 . S
C740 C743 1.382 . S
C740 C744 1.390 . S
C740 C747 1.506 . S
C741 C742 1.398 . S
C741 C744 1.392 . S
C742 C741 1.398 . S
C742 C745 1.372 . S
C742 H752 0.931 . S
C743 C740 1.382 . S
C743 C745 1.390 . S
C743 H753 0.931 . S
C744 C740 1.390 . S
C744 C741 1.392 . S
C744 H754 0.930 . S
C745 C742 1.372 . S
C745 C743 1.390 . S
C745 H755 0.929 . S
C746 O726 1.255 . S
C746 O727 1.257 . S
C747 Eu683 2.787 . S
C747 O722 1.252 . S
C747 O725 1.268 . S
C747 C740 1.506 . S
H748 C731 0.931 . S
H749 C732 0.931 . S
H750 C733 0.929 . S
H751 C734 0.930 . S
H752 C742 0.931 . S
H753 C743 0.931 . S
H754 C744 0.930 . S
H755 C745 0.929 . S
Eu756 N785 2.600 . S
Eu756 N791 2.562 . S
Eu756 O800 2.462 . S
Eu756 O801 2.373 1_545 S
Eu756 O803 2.432 . S
Eu756 O804 2.291 . S
Eu756 O808 2.335 . S
Eu756 O811 2.372 . S
Eu756 C820 2.787 . S
C757 N758 1.365 . S
C757 C760 1.405 . S
C757 C764 1.448 . S
N758 C757 1.365 . S
N758 C761 1.319 . S
N758 Eu767 2.600 . S
C759 C761 1.397 . S
C759 C762 1.367 . S
C759 H779 0.931 . S
C760 C757 1.405 . S
C760 C762 1.403 . S
C760 C766 1.439 . S
C761 N758 1.319 . S
C761 C759 1.397 . S
C761 H772 0.930 . S
C762 C759 1.367 . S
C762 C760 1.403 . S
C762 H783 0.929 . S
C763 C764 1.430 . S
C763 C765 1.387 . S
C763 C769 1.404 . S
C764 C757 1.448 . S
C764 C763 1.430 . S
C764 N768 1.351 . S
C765 C763 1.387 . S
C765 C766 1.374 . S
C765 H780 0.931 . S
C766 C760 1.439 . S
C766 C765 1.374 . S
C766 H781 0.931 . S
Eu767 N758 2.600 . S
Eu767 N768 2.562 . S
Eu767 O802 2.335 . S
Eu767 O805 2.372 . S
Eu767 O806 2.462 . S
Eu767 O807 2.373 1_565 S
Eu767 O809 2.432 . S
Eu767 O810 2.291 . S
Eu767 C831 2.787 . S
N768 C764 1.351 . S
N768 Eu767 2.562 . S
N768 C770 1.325 . S
C769 C763 1.404 . S
C769 C771 1.366 . S
C769 H777 0.930 . S
C770 N768 1.325 . S
C770 C771 1.416 . S
C770 H776 0.929 . S
C771 C769 1.366 . S
C771 C770 1.416 . S
C771 H773 0.930 . S
H772 C761 0.930 . S
H773 C771 0.930 . S
H774 C789 0.930 . S
H775 C796 0.930 . S
H776 C770 0.929 . S
H777 C769 0.930 . S
H778 C792 0.929 . S
H779 C759 0.931 . S
H780 C765 0.931 . S
H781 C766 0.931 . S
H782 C787 0.931 . S
H783 C762 0.929 . S
H784 C795 0.930 . S
N785 Eu756 2.600 . S
N785 C786 1.365 . S
N785 C789 1.319 . S
C786 N785 1.365 . S
C786 C788 1.405 . S
C786 C794 1.448 . S
C787 H782 0.931 . S
C787 C789 1.397 . S
C787 C790 1.367 . S
C788 C786 1.405 . S
C788 C790 1.403 . S
C788 C821 1.439 . S
C789 H774 0.930 . S
C789 N785 1.319 . S
C789 C787 1.397 . S
C790 C787 1.367 . S
C790 C788 1.403 . S
C790 H797 0.929 . S
N791 Eu756 2.562 . S
N791 C792 1.325 . S
N791 C794 1.351 . S
C792 H778 0.929 . S
C792 N791 1.325 . S
C792 C796 1.416 . S
C793 C794 1.430 . S
C793 C795 1.404 . S
C793 C822 1.387 . S
C794 C786 1.448 . S
C794 N791 1.351 . S
C794 C793 1.430 . S
C795 H784 0.930 . S
C795 C793 1.404 . S
C795 C796 1.366 . S
C796 H775 0.930 . S
C796 C792 1.416 . S
C796 C795 1.366 . S
H797 C790 0.929 . S
H798 C821 0.931 . S
H799 C822 0.931 . S
O800 Eu756 2.462 . S
O800 C820 1.252 . S
O801 Eu756 2.373 1_565 S
O801 C812 1.249 . S
O802 Eu767 2.335 . S
O802 C812 1.264 . S
O803 Eu756 2.432 . S
O803 C820 1.268 . S
O804 Eu756 2.291 . S
O804 C819 1.255 1_545 S
O805 Eu767 2.372 . S
O805 C819 1.257 . S
O806 Eu767 2.462 . S
O806 C831 1.252 . S
O807 Eu767 2.373 1_545 S
O807 C823 1.249 . S
O808 Eu756 2.335 . S
O808 C823 1.264 . S
O809 Eu767 2.432 . S
O809 C831 1.268 . S
O810 Eu767 2.291 . S
O810 C830 1.255 1_565 S
O811 Eu756 2.372 . S
O811 C830 1.257 . S
C812 O801 1.249 . S
C812 O802 1.264 . S
C813 C816 1.382 . S
C813 C818 1.390 . S
C813 C820 1.506 . S
C814 C815 1.398 . S
C814 C818 1.392 . S
C815 C814 1.398 . S
C815 C817 1.372 . S
C815 H832 0.931 . S
C816 C813 1.382 . S
C816 C817 1.390 . S
C816 H833 0.931 . S
C817 C815 1.372 . S
C817 C816 1.390 . S
C817 H834 0.929 . S
C818 C813 1.390 . S
C818 C814 1.392 . S
C818 H835 0.930 . S
C819 O804 1.255 1_565 S
C819 O805 1.257 . S
C820 Eu756 2.787 . S
C820 O800 1.252 . S
C820 O803 1.268 . S
C820 C813 1.506 . S
C821 C788 1.439 . S
C821 H798 0.931 . S
C821 C822 1.374 . S
C822 C793 1.387 . S
C822 H799 0.931 . S
C822 C821 1.374 . S
C823 O807 1.249 . S
C823 O808 1.264 . S
C824 C827 1.382 . S
C824 C828 1.390 . S
C824 C831 1.506 . S
C825 C826 1.398 . S
C825 C828 1.392 . S
C826 C825 1.398 . S
C826 C829 1.372 . S
C826 H836 0.931 . S
C827 C824 1.382 . S
C827 C829 1.390 . S
C827 H837 0.931 . S
C828 C824 1.390 . S
C828 C825 1.392 . S
C828 H838 0.930 . S
C829 C826 1.372 . S
C829 C827 1.390 . S
C829 H839 0.929 . S
C830 O810 1.255 1_545 S
C830 O811 1.257 . S
C831 Eu767 2.787 . S
C831 O806 1.252 . S
C831 O809 1.268 . S
C831 C824 1.506 . S
H832 C815 0.931 . S
H833 C816 0.931 . S
H834 C817 0.929 . S
H835 C818 0.930 . S
H836 C826 0.931 . S
H837 C827 0.931 . S
H838 C828 0.930 . S
H839 C829 0.929 . S
Eu840 N869 2.600 . S
Eu840 N875 2.562 . S
Eu840 O884 2.462 . S
Eu840 O885 2.373 . S
Eu840 O887 2.432 . S
Eu840 O888 2.291 . S
Eu840 O892 2.335 . S
Eu840 O895 2.372 . S
Eu840 C904 2.787 . S
C841 N842 1.365 . S
C841 C844 1.405 . S
C841 C848 1.448 . S
N842 C841 1.365 . S
N842 C845 1.319 . S
N842 Eu851 2.600 . S
C843 C845 1.397 . S
C843 C846 1.367 . S
C843 H863 0.931 . S
C844 C841 1.405 . S
C844 C846 1.403 . S
C844 C850 1.439 . S
C845 N842 1.319 . S
C845 C843 1.397 . S
C845 H856 0.930 . S
C846 C843 1.367 . S
C846 C844 1.403 . S
C846 H867 0.929 . S
C847 C848 1.430 . S
C847 C849 1.387 . S
C847 C853 1.404 . S
C848 C841 1.448 . S
C848 C847 1.430 . S
C848 N852 1.351 . S
C849 C847 1.387 . S
C849 C850 1.374 . S
C849 H864 0.931 . S
C850 C844 1.439 . S
C850 C849 1.374 . S
C850 H865 0.931 . S
Eu851 N842 2.600 . S
Eu851 N852 2.562 . S
Eu851 O886 2.335 . S
Eu851 O889 2.372 . S
Eu851 O890 2.462 . S
Eu851 O891 2.373 . S
Eu851 O893 2.432 . S
Eu851 O894 2.291 . S
Eu851 C915 2.787 . S
N852 C848 1.351 . S
N852 Eu851 2.562 . S
N852 C854 1.325 . S
C853 C847 1.404 . S
C853 C855 1.366 . S
C853 H861 0.930 1_565 S
C854 N852 1.325 . S
C854 C855 1.416 . S
C854 H860 0.929 . S
C855 C853 1.366 . S
C855 C854 1.416 . S
C855 H857 0.930 1_565 S
H856 C845 0.930 . S
H857 C855 0.930 1_545 S
H858 C873 0.930 . S
H859 C880 0.930 . S
H860 C854 0.929 . S
H861 C853 0.930 1_545 S
H862 C876 0.929 . S
H863 C843 0.931 . S
H864 C849 0.931 . S
H865 C850 0.931 . S
H866 C871 0.931 . S
H867 C846 0.929 . S
H868 C879 0.930 . S
N869 Eu840 2.600 . S
N869 C870 1.365 . S
N869 C873 1.319 . S
C870 N869 1.365 . S
C870 C872 1.405 . S
C870 C878 1.448 . S
C871 H866 0.931 . S
C871 C873 1.397 . S
C871 C874 1.367 . S
C872 C870 1.405 . S
C872 C874 1.403 . S
C872 C905 1.439 . S
C873 H858 0.930 . S
C873 N869 1.319 . S
C873 C871 1.397 . S
C874 C871 1.367 . S
C874 C872 1.403 . S
C874 H881 0.929 . S
N875 Eu840 2.562 . S
N875 C876 1.325 . S
N875 C878 1.351 . S
C876 H862 0.929 . S
C876 N875 1.325 . S
C876 C880 1.416 . S
C877 C878 1.430 . S
C877 C879 1.404 . S
C877 C906 1.387 . S
C878 C870 1.448 . S
C878 N875 1.351 . S
C878 C877 1.430 . S
C879 H868 0.930 . S
C879 C877 1.404 . S
C879 C880 1.366 . S
C880 H859 0.930 . S
C880 C876 1.416 . S
C880 C879 1.366 . S
H881 C874 0.929 . S
H882 C905 0.931 . S
H883 C906 0.931 . S
O884 Eu840 2.462 . S
O884 C904 1.252 . S
O885 Eu840 2.373 . S
O885 C896 1.249 . S
O886 Eu851 2.335 . S
O886 C896 1.264 . S
O887 Eu840 2.432 . S
O887 C904 1.268 . S
O888 Eu840 2.291 . S
O888 C903 1.255 . S
O889 Eu851 2.372 . S
O889 C903 1.257 . S
O890 Eu851 2.462 . S
O890 C915 1.252 . S
O891 Eu851 2.373 . S
O891 C907 1.249 . S
O892 Eu840 2.335 . S
O892 C907 1.264 . S
O893 Eu851 2.432 . S
O893 C915 1.268 . S
O894 Eu851 2.291 . S
O894 C914 1.255 . S
O895 Eu840 2.372 . S
O895 C914 1.257 . S
C896 O885 1.249 . S
C896 O886 1.264 . S
C897 C900 1.382 . S
C897 C902 1.390 . S
C897 C904 1.506 . S
C898 C899 1.398 . S
C898 C902 1.392 . S
C899 C898 1.398 . S
C899 C901 1.372 . S
C899 H916 0.931 . S
C900 C897 1.382 . S
C900 C901 1.390 . S
C900 H917 0.931 . S
C901 C899 1.372 . S
C901 C900 1.390 . S
C901 H918 0.929 . S
C902 C897 1.390 . S
C902 C898 1.392 . S
C902 H919 0.930 . S
C903 O888 1.255 . S
C903 O889 1.257 . S
C904 Eu840 2.787 . S
C904 O884 1.252 . S
C904 O887 1.268 . S
C904 C897 1.506 . S
C905 C872 1.439 . S
C905 H882 0.931 . S
C905 C906 1.374 . S
C906 C877 1.387 . S
C906 H883 0.931 . S
C906 C905 1.374 . S
C907 O891 1.249 . S
C907 O892 1.264 . S
C908 C911 1.382 . S
C908 C912 1.390 . S
C908 C915 1.506 . S
C909 C910 1.398 . S
C909 C912 1.392 . S
C910 C909 1.398 . S
C910 C913 1.372 . S
C910 H920 0.931 . S
C911 C908 1.382 . S
C911 C913 1.390 . S
C911 H921 0.931 . S
C912 C908 1.390 . S
C912 C909 1.392 . S
C912 H922 0.930 . S
C913 C910 1.372 . S
C913 C911 1.390 . S
C913 H923 0.929 . S
C914 O894 1.255 . S
C914 O895 1.257 . S
C915 Eu851 2.787 . S
C915 O890 1.252 . S
C915 O893 1.268 . S
C915 C908 1.506 . S
H916 C899 0.931 . S
H917 C900 0.931 . S
H918 C901 0.929 . S
H919 C902 0.930 . S
H920 C910 0.931 . S
H921 C911 0.931 . S
H922 C912 0.930 . S
H923 C913 0.929 . S
Eu924 N953 2.609 . S
Eu924 N959 2.563 . S
Eu924 O968 2.455 1_554 S
Eu924 O969 2.377 1_565 S
Eu924 O971 2.433 . S
Eu924 O972 2.283 1_554 S
Eu924 O976 2.329 1_554 S
Eu924 O979 2.378 . S
Eu924 C988 2.784 1_554 S
C925 N926 1.365 . S
C925 C928 1.405 . S
C925 C932 1.448 . S
N926 C925 1.365 . S
N926 C929 1.319 . S
N926 Eu935 2.600 . S
C927 C929 1.397 . S
C927 C930 1.367 . S
C927 H947 0.931 . S
C928 C925 1.405 . S
C928 C930 1.403 . S
C928 C934 1.439 . S
C929 N926 1.319 . S
C929 C927 1.397 . S
C929 H940 0.930 . S
C930 C927 1.367 . S
C930 C928 1.403 . S
C930 H951 0.929 . S
C931 C932 1.430 . S
C931 C933 1.387 . S
C931 C937 1.404 . S
C932 C925 1.448 . S
C932 C931 1.430 . S
C932 N936 1.351 . S
C933 C931 1.387 . S
C933 C934 1.374 . S
C933 H948 0.931 . S
C934 C928 1.439 . S
C934 C933 1.374 . S
C934 H949 0.931 . S
Eu935 N926 2.600 . S
Eu935 N936 2.562 . S
Eu935 O970 2.336 . S
Eu935 O973 2.372 . S
Eu935 O974 2.462 1_556 S
Eu935 O975 2.373 1_545 S
Eu935 O977 2.432 . S
Eu935 O978 2.291 1_556 S
Eu935 C999 2.787 . S
N936 C932 1.351 . S
N936 Eu935 2.562 . S
N936 C938 1.325 . S
C937 C931 1.404 . S
C937 C939 1.366 . S
C937 H945 0.930 . S
C938 N936 1.325 . S
C938 C939 1.416 . S
C938 H944 0.929 1_556 S
C939 C937 1.366 . S
C939 C938 1.416 . S
C939 H941 0.930 . S
H940 C929 0.930 . S
H941 C939 0.930 . S
H942 C957 0.930 . S
H943 C964 0.930 . S
H944 C938 0.929 1_554 S
H945 C937 0.930 . S
H946 C960 0.929 . S
H947 C927 0.931 . S
H948 C933 0.931 . S
H949 C934 0.931 . S
H950 C955 0.931 . S
H951 C930 0.929 . S
H952 C963 0.930 . S
N953 Eu924 2.609 . S
N953 C954 1.365 . S
N953 C957 1.319 . S
C954 N953 1.365 . S
C954 C956 1.405 . S
C954 C962 1.448 . S
C955 H950 0.931 . S
C955 C957 1.397 . S
C955 C958 1.367 . S
C956 C954 1.405 . S
C956 C958 1.403 . S
C956 C989 1.439 . S
C957 H942 0.930 . S
C957 N953 1.319 . S
C957 C955 1.397 . S
C958 C955 1.367 . S
C958 C956 1.403 . S
C958 H965 0.929 . S
N959 Eu924 2.563 . S
N959 C960 1.325 1_554 S
N959 C962 1.351 . S
C960 H946 0.929 . S
C960 N959 1.325 1_556 S
C960 C964 1.416 . S
C961 C962 1.430 . S
C961 C963 1.404 . S
C961 C990 1.387 . S
C962 C954 1.448 . S
C962 N959 1.351 . S
C962 C961 1.430 . S
C963 H952 0.930 . S
C963 C961 1.404 . S
C963 C964 1.366 1_554 S
C964 H943 0.930 . S
C964 C960 1.416 . S
C964 C963 1.366 1_556 S
H965 C958 0.929 . S
H966 C989 0.931 . S
H967 C990 0.931 . S
O968 Eu924 2.455 1_556 S
O968 C988 1.252 . S
O969 Eu924 2.377 1_545 S
O969 C980 1.249 . S
O970 Eu935 2.336 . S
O970 C980 1.262 1_556 S
O971 Eu924 2.433 . S
O971 C988 1.268 1_554 S
O972 Eu924 2.283 1_556 S
O972 C987 1.255 1_565 S
O973 Eu935 2.372 . S
O973 C987 1.257 . S
O974 Eu935 2.462 1_554 S
O974 C999 1.252 1_554 S
O975 Eu935 2.373 1_565 S
O975 C991 1.249 . S
O976 Eu924 2.329 1_556 S
O976 C991 1.264 . S
O977 Eu935 2.432 . S
O977 C999 1.268 . S
O978 Eu935 2.291 1_554 S
O978 C998 1.255 1_545 S
O979 Eu924 2.378 . S
O979 C998 1.257 . S
C980 O969 1.249 . S
C980 O970 1.262 1_554 S
C981 C984 1.382 . S
C981 C986 1.390 . S
C981 C988 1.506 . S
C982 C983 1.398 . S
C982 C986 1.392 . S
C983 C982 1.398 . S
C983 C985 1.372 . S
C983 H1000 0.931 . S
C984 C981 1.382 . S
C984 C985 1.390 . S
C984 H1001 0.931 1_556 S
C985 C983 1.372 . S
C985 C984 1.390 . S
C985 H1002 0.929 . S
C986 C981 1.390 . S
C986 C982 1.392 . S
C986 H1003 0.930 . S
C987 O972 1.255 1_545 S
C987 O973 1.257 . S
C988 Eu924 2.784 1_556 S
C988 O968 1.252 . S
C988 O971 1.268 1_556 S
C988 C981 1.506 . S
C989 C956 1.439 . S
C989 H966 0.931 . S
C989 C990 1.374 . S
C990 C961 1.387 . S
C990 H967 0.931 . S
C990 C989 1.374 . S
C991 O975 1.249 . S
C991 O976 1.264 . S
C992 C995 1.382 . S
C992 C996 1.390 1_556 S
C992 C999 1.506 . S
C993 C994 1.398 . S
C993 C996 1.392 . S
C994 C993 1.398 . S
C994 C997 1.372 1_554 S
C994 H1004 0.931 . S
C995 C992 1.382 . S
C995 C997 1.390 . S
C995 H1005 0.931 . S
C996 C992 1.390 1_554 S
C996 C993 1.392 . S
C996 H1006 0.930 . S
C997 C994 1.372 1_556 S
C997 C995 1.390 . S
C997 H1007 0.929 . S
C998 O978 1.255 1_565 S
C998 O979 1.257 . S
C999 Eu935 2.787 . S
C999 O974 1.252 1_556 S
C999 O977 1.268 . S
C999 C992 1.506 . S
H1000 C983 0.931 . S
H1001 C984 0.931 1_554 S
H1002 C985 0.929 . S
H1003 C986 0.930 . S
H1004 C994 0.931 . S
H1005 C995 0.931 . S
H1006 C996 0.930 . S
H1007 C997 0.929 . S
Eu1008 N1037 2.600 . S
Eu1008 N1043 2.562 . S
Eu1008 O1052 2.462 . S
Eu1008 O1053 2.373 . S
Eu1008 O1055 2.432 . S
Eu1008 O1056 2.291 . S
Eu1008 O1060 2.335 . S
Eu1008 O1063 2.372 . S
Eu1008 C1072 2.787 . S
C1009 N1010 1.365 . S
C1009 C1012 1.405 . S
C1009 C1016 1.448 . S
N1010 C1009 1.365 . S
N1010 C1013 1.319 . S
N1010 Eu1019 2.600 . S
C1011 C1013 1.397 . S
C1011 C1014 1.367 . S
C1011 H1031 0.931 . S
C1012 C1009 1.405 . S
C1012 C1014 1.403 . S
C1012 C1018 1.439 . S
C1013 N1010 1.319 . S
C1013 C1011 1.397 . S
C1013 H1024 0.930 . S
C1014 C1011 1.367 . S
C1014 C1012 1.403 . S
C1014 H1035 0.929 . S
C1015 C1016 1.430 . S
C1015 C1017 1.387 . S
C1015 C1021 1.404 . S
C1016 C1009 1.448 . S
C1016 C1015 1.430 . S
C1016 N1020 1.351 . S
C1017 C1015 1.387 . S
C1017 C1018 1.374 . S
C1017 H1032 0.931 . S
C1018 C1012 1.439 . S
C1018 C1017 1.374 . S
C1018 H1033 0.931 . S
Eu1019 N1010 2.600 . S
Eu1019 N1020 2.562 . S
Eu1019 O1054 2.335 . S
Eu1019 O1057 2.372 . S
Eu1019 O1058 2.462 . S
Eu1019 O1059 2.373 . S
Eu1019 O1061 2.432 . S
Eu1019 O1062 2.291 . S
Eu1019 C1083 2.787 . S
N1020 C1016 1.351 . S
N1020 Eu1019 2.562 . S
N1020 C1022 1.325 . S
C1021 C1015 1.404 . S
C1021 C1023 1.366 . S
C1021 H1029 0.930 . S
C1022 N1020 1.325 . S
C1022 C1023 1.416 . S
C1022 H1028 0.929 . S
C1023 C1021 1.366 . S
C1023 C1022 1.416 . S
C1023 H1025 0.930 . S
H1024 C1013 0.930 . S
H1025 C1023 0.930 . S
H1026 C1041 0.930 . S
H1027 C1048 0.930 . S
H1028 C1022 0.929 . S
H1029 C1021 0.930 . S
H1030 C1044 0.929 . S
H1031 C1011 0.931 . S
H1032 C1017 0.931 . S
H1033 C1018 0.931 . S
H1034 C1039 0.931 . S
H1035 C1014 0.929 . S
H1036 C1047 0.930 . S
N1037 Eu1008 2.600 . S
N1037 C1038 1.365 . S
N1037 C1041 1.319 . S
C1038 N1037 1.365 . S
C1038 C1040 1.405 . S
C1038 C1046 1.448 . S
C1039 H1034 0.931 . S
C1039 C1041 1.397 . S
C1039 C1042 1.367 . S
C1040 C1038 1.405 . S
C1040 C1042 1.403 . S
C1040 C1073 1.439 . S
C1041 H1026 0.930 . S
C1041 N1037 1.319 . S
C1041 C1039 1.397 . S
C1042 C1039 1.367 . S
C1042 C1040 1.403 . S
C1042 H1049 0.929 . S
N1043 Eu1008 2.562 . S
N1043 C1044 1.325 . S
N1043 C1046 1.351 . S
C1044 H1030 0.929 . S
C1044 N1043 1.325 . S
C1044 C1048 1.416 . S
C1045 C1046 1.430 . S
C1045 C1047 1.404 . S
C1045 C1074 1.387 . S
C1046 C1038 1.448 . S
C1046 N1043 1.351 . S
C1046 C1045 1.430 . S
C1047 H1036 0.930 . S
C1047 C1045 1.404 . S
C1047 C1048 1.366 . S
C1048 H1027 0.930 . S
C1048 C1044 1.416 . S
C1048 C1047 1.366 . S
H1049 C1042 0.929 . S
H1050 C1073 0.931 . S
H1051 C1074 0.931 . S
O1052 Eu1008 2.462 . S
O1052 C1072 1.252 . S
O1053 Eu1008 2.373 . S
O1053 C1064 1.249 . S
O1054 Eu1019 2.335 . S
O1054 C1064 1.264 . S
O1055 Eu1008 2.432 . S
O1055 C1072 1.268 . S
O1056 Eu1008 2.291 . S
O1056 C1071 1.255 . S
O1057 Eu1019 2.372 . S
O1057 C1071 1.257 . S
O1058 Eu1019 2.462 . S
O1058 C1083 1.252 . S
O1059 Eu1019 2.373 . S
O1059 C1075 1.249 . S
O1060 Eu1008 2.335 . S
O1060 C1075 1.264 . S
O1061 Eu1019 2.432 . S
O1061 C1083 1.268 . S
O1062 Eu1019 2.291 . S
O1062 C1082 1.255 . S
O1063 Eu1008 2.372 . S
O1063 C1082 1.257 . S
C1064 O1053 1.249 . S
C1064 O1054 1.264 . S
C1065 C1068 1.382 . S
C1065 C1070 1.390 . S
C1065 C1072 1.506 . S
C1066 C1067 1.398 . S
C1066 C1070 1.392 . S
C1067 C1066 1.398 . S
C1067 C1069 1.372 . S
C1067 H1084 0.931 . S
C1068 C1065 1.382 . S
C1068 C1069 1.390 . S
C1068 H1085 0.931 . S
C1069 C1067 1.372 . S
C1069 C1068 1.390 . S
C1069 H1086 0.929 . S
C1070 C1065 1.390 . S
C1070 C1066 1.392 . S
C1070 H1087 0.930 . S
C1071 O1056 1.255 . S
C1071 O1057 1.257 . S
C1072 Eu1008 2.787 . S
C1072 O1052 1.252 . S
C1072 O1055 1.268 . S
C1072 C1065 1.506 . S
C1073 C1040 1.439 . S
C1073 H1050 0.931 . S
C1073 C1074 1.374 . S
C1074 C1045 1.387 . S
C1074 H1051 0.931 . S
C1074 C1073 1.374 . S
C1075 O1059 1.249 . S
C1075 O1060 1.264 . S
C1076 C1079 1.382 . S
C1076 C1080 1.390 . S
C1076 C1083 1.506 . S
C1077 C1078 1.398 . S
C1077 C1080 1.392 . S
C1078 C1077 1.398 . S
C1078 C1081 1.372 . S
C1078 H1088 0.931 . S
C1079 C1076 1.382 . S
C1079 C1081 1.390 . S
C1079 H1089 0.931 . S
C1080 C1076 1.390 . S
C1080 C1077 1.392 . S
C1080 H1090 0.930 . S
C1081 C1078 1.372 . S
C1081 C1079 1.390 . S
C1081 H1091 0.929 . S
C1082 O1062 1.255 . S
C1082 O1063 1.257 . S
C1083 Eu1019 2.787 . S
C1083 O1058 1.252 . S
C1083 O1061 1.268 . S
C1083 C1076 1.506 . S
H1084 C1067 0.931 . S
H1085 C1068 0.931 . S
H1086 C1069 0.929 . S
H1087 C1070 0.930 . S
H1088 C1078 0.931 . S
H1089 C1079 0.931 . S
H1090 C1080 0.930 . S
H1091 C1081 0.929 . S
Eu1092 N1121 2.600 . S
Eu1092 N1127 2.562 . S
Eu1092 O1136 2.462 . S
Eu1092 O1137 2.373 1_455 S
Eu1092 O1139 2.432 . S
Eu1092 O1140 2.291 . S
Eu1092 O1144 2.335 . S
Eu1092 O1147 2.372 . S
Eu1092 C1156 2.787 . S
C1093 N1094 1.365 . S
C1093 C1096 1.405 . S
C1093 C1100 1.448 . S
N1094 C1093 1.365 . S
N1094 C1097 1.319 . S
N1094 Eu1103 2.600 . S
C1095 C1097 1.397 . S
C1095 C1098 1.367 . S
C1095 H1115 0.931 . S
C1096 C1093 1.405 . S
C1096 C1098 1.403 . S
C1096 C1102 1.439 . S
C1097 N1094 1.319 . S
C1097 C1095 1.397 . S
C1097 H1108 0.930 . S
C1098 C1095 1.367 . S
C1098 C1096 1.403 . S
C1098 H1119 0.929 . S
C1099 C1100 1.430 . S
C1099 C1101 1.387 . S
C1099 C1105 1.404 . S
C1100 C1093 1.448 . S
C1100 C1099 1.430 . S
C1100 N1104 1.351 . S
C1101 C1099 1.387 . S
C1101 C1102 1.374 . S
C1101 H1116 0.931 . S
C1102 C1096 1.439 . S
C1102 C1101 1.374 . S
C1102 H1117 0.931 . S
Eu1103 N1094 2.600 . S
Eu1103 N1104 2.562 . S
Eu1103 O1138 2.335 . S
Eu1103 O1141 2.372 . S
Eu1103 O1142 2.462 . S
Eu1103 O1143 2.373 1_655 S
Eu1103 O1145 2.432 . S
Eu1103 O1146 2.291 . S
Eu1103 C1167 2.787 . S
N1104 C1100 1.351 . S
N1104 Eu1103 2.562 . S
N1104 C1106 1.325 . S
C1105 C1099 1.404 . S
C1105 C1107 1.366 . S
C1105 H1113 0.930 . S
C1106 N1104 1.325 . S
C1106 C1107 1.416 . S
C1106 H1112 0.929 . S
C1107 C1105 1.366 . S
C1107 C1106 1.416 . S
C1107 H1109 0.930 . S
H1108 C1097 0.930 . S
H1109 C1107 0.930 . S
H1110 C1125 0.930 . S
H1111 C1132 0.930 . S
H1112 C1106 0.929 . S
H1113 C1105 0.930 . S
H1114 C1128 0.929 . S
H1115 C1095 0.931 . S
H1116 C1101 0.931 . S
H1117 C1102 0.931 . S
H1118 C1123 0.931 . S
H1119 C1098 0.929 . S
H1120 C1131 0.930 . S
N1121 Eu1092 2.600 . S
N1121 C1122 1.365 . S
N1121 C1125 1.319 . S
C1122 N1121 1.365 . S
C1122 C1124 1.405 . S
C1122 C1130 1.448 . S
C1123 H1118 0.931 . S
C1123 C1125 1.397 . S
C1123 C1126 1.367 . S
C1124 C1122 1.405 . S
C1124 C1126 1.403 . S
C1124 C1157 1.439 . S
C1125 H1110 0.930 . S
C1125 N1121 1.319 . S
C1125 C1123 1.397 . S
C1126 C1123 1.367 . S
C1126 C1124 1.403 . S
C1126 H1133 0.929 . S
N1127 Eu1092 2.562 . S
N1127 C1128 1.325 . S
N1127 C1130 1.351 . S
C1128 H1114 0.929 . S
C1128 N1127 1.325 . S
C1128 C1132 1.416 . S
C1129 C1130 1.430 . S
C1129 C1131 1.404 . S
C1129 C1158 1.387 . S
C1130 C1122 1.448 . S
C1130 N1127 1.351 . S
C1130 C1129 1.430 . S
C1131 H1120 0.930 . S
C1131 C1129 1.404 . S
C1131 C1132 1.366 . S
C1132 H1111 0.930 . S
C1132 C1128 1.416 . S
C1132 C1131 1.366 . S
H1133 C1126 0.929 . S
H1134 C1157 0.931 . S
H1135 C1158 0.931 . S
O1136 Eu1092 2.462 . S
O1136 C1156 1.252 . S
O1137 Eu1092 2.373 1_655 S
O1137 C1148 1.249 . S
O1138 Eu1103 2.335 . S
O1138 C1148 1.264 . S
O1139 Eu1092 2.432 . S
O1139 C1156 1.268 . S
O1140 Eu1092 2.291 . S
O1140 C1155 1.255 1_455 S
O1141 Eu1103 2.372 . S
O1141 C1155 1.257 . S
O1142 Eu1103 2.462 . S
O1142 C1167 1.252 . S
O1143 Eu1103 2.373 1_455 S
O1143 C1159 1.249 . S
O1144 Eu1092 2.335 . S
O1144 C1159 1.264 . S
O1145 Eu1103 2.432 . S
O1145 C1167 1.268 . S
O1146 Eu1103 2.291 . S
O1146 C1166 1.255 1_655 S
O1147 Eu1092 2.372 . S
O1147 C1166 1.257 . S
C1148 O1137 1.249 . S
C1148 O1138 1.264 . S
C1149 C1152 1.382 . S
C1149 C1154 1.390 . S
C1149 C1156 1.506 . S
C1150 C1151 1.398 . S
C1150 C1154 1.392 . S
C1151 C1150 1.398 . S
C1151 C1153 1.372 . S
C1151 H1168 0.931 . S
C1152 C1149 1.382 . S
C1152 C1153 1.390 . S
C1152 H1169 0.931 . S
C1153 C1151 1.372 . S
C1153 C1152 1.390 . S
C1153 H1170 0.929 . S
C1154 C1149 1.390 . S
C1154 C1150 1.392 . S
C1154 H1171 0.930 . S
C1155 O1140 1.255 1_655 S
C1155 O1141 1.257 . S
C1156 Eu1092 2.787 . S
C1156 O1136 1.252 . S
C1156 O1139 1.268 . S
C1156 C1149 1.506 . S
C1157 C1124 1.439 . S
C1157 H1134 0.931 . S
C1157 C1158 1.374 . S
C1158 C1129 1.387 . S
C1158 H1135 0.931 . S
C1158 C1157 1.374 . S
C1159 O1143 1.249 . S
C1159 O1144 1.264 . S
C1160 C1163 1.382 . S
C1160 C1164 1.390 . S
C1160 C1167 1.506 . S
C1161 C1162 1.398 . S
C1161 C1164 1.392 . S
C1162 C1161 1.398 . S
C1162 C1165 1.372 . S
C1162 H1172 0.931 . S
C1163 C1160 1.382 . S
C1163 C1165 1.390 . S
C1163 H1173 0.931 . S
C1164 C1160 1.390 . S
C1164 C1161 1.392 . S
C1164 H1174 0.930 . S
C1165 C1162 1.372 . S
C1165 C1163 1.390 . S
C1165 H1175 0.929 . S
C1166 O1146 1.255 1_455 S
C1166 O1147 1.257 . S
C1167 Eu1103 2.787 . S
C1167 O1142 1.252 . S
C1167 O1145 1.268 . S
C1167 C1160 1.506 . S
H1168 C1151 0.931 . S
H1169 C1152 0.931 . S
H1170 C1153 0.929 . S
H1171 C1154 0.930 . S
H1172 C1162 0.931 . S
H1173 C1163 0.931 . S
H1174 C1164 0.930 . S
H1175 C1165 0.929 . S
Eu1176 N1205 2.600 . S
Eu1176 N1211 2.562 . S
Eu1176 O1220 2.462 . S
Eu1176 O1221 2.373 . S
Eu1176 O1223 2.432 . S
Eu1176 O1224 2.291 . S
Eu1176 O1228 2.335 . S
Eu1176 O1231 2.372 . S
Eu1176 C1240 2.787 . S
C1177 N1178 1.365 . S
C1177 C1180 1.405 . S
C1177 C1184 1.448 . S
N1178 C1177 1.365 . S
N1178 C1181 1.319 . S
N1178 Eu1187 2.600 . S
C1179 C1181 1.397 . S
C1179 C1182 1.367 . S
C1179 H1199 0.931 . S
C1180 C1177 1.405 . S
C1180 C1182 1.403 . S
C1180 C1186 1.439 . S
C1181 N1178 1.319 . S
C1181 C1179 1.397 . S
C1181 H1192 0.930 . S
C1182 C1179 1.367 . S
C1182 C1180 1.403 . S
C1182 H1203 0.929 . S
C1183 C1184 1.430 . S
C1183 C1185 1.387 . S
C1183 C1189 1.404 . S
C1184 C1177 1.448 . S
C1184 C1183 1.430 . S
C1184 N1188 1.351 . S
C1185 C1183 1.387 . S
C1185 C1186 1.374 . S
C1185 H1200 0.931 . S
C1186 C1180 1.439 . S
C1186 C1185 1.374 . S
C1186 H1201 0.931 . S
Eu1187 N1178 2.600 . S
Eu1187 N1188 2.562 . S
Eu1187 O1222 2.335 . S
Eu1187 O1225 2.372 . S
Eu1187 O1226 2.462 . S
Eu1187 O1227 2.373 . S
Eu1187 O1229 2.432 . S
Eu1187 O1230 2.291 . S
Eu1187 C1251 2.787 . S
N1188 C1184 1.351 . S
N1188 Eu1187 2.562 . S
N1188 C1190 1.325 . S
C1189 C1183 1.404 . S
C1189 C1191 1.366 . S
C1189 H1197 0.930 . S
C1190 N1188 1.325 . S
C1190 C1191 1.416 . S
C1190 H1196 0.929 . S
C1191 C1189 1.366 . S
C1191 C1190 1.416 . S
C1191 H1193 0.930 . S
H1192 C1181 0.930 . S
H1193 C1191 0.930 . S
H1194 C1209 0.930 . S
H1195 C1216 0.930 . S
H1196 C1190 0.929 . S
H1197 C1189 0.930 . S
H1198 C1212 0.929 . S
H1199 C1179 0.931 . S
H1200 C1185 0.931 . S
H1201 C1186 0.931 . S
H1202 C1207 0.931 . S
H1203 C1182 0.929 . S
H1204 C1215 0.930 . S
N1205 Eu1176 2.600 . S
N1205 C1206 1.365 . S
N1205 C1209 1.319 . S
C1206 N1205 1.365 . S
C1206 C1208 1.405 . S
C1206 C1214 1.448 . S
C1207 H1202 0.931 . S
C1207 C1209 1.397 . S
C1207 C1210 1.367 . S
C1208 C1206 1.405 . S
C1208 C1210 1.403 . S
C1208 C1241 1.439 . S
C1209 H1194 0.930 . S
C1209 N1205 1.319 . S
C1209 C1207 1.397 . S
C1210 C1207 1.367 . S
C1210 C1208 1.403 . S
C1210 H1217 0.929 . S
N1211 Eu1176 2.562 . S
N1211 C1212 1.325 . S
N1211 C1214 1.351 . S
C1212 H1198 0.929 . S
C1212 N1211 1.325 . S
C1212 C1216 1.416 . S
C1213 C1214 1.430 . S
C1213 C1215 1.404 . S
C1213 C1242 1.387 . S
C1214 C1206 1.448 . S
C1214 N1211 1.351 . S
C1214 C1213 1.430 . S
C1215 H1204 0.930 . S
C1215 C1213 1.404 . S
C1215 C1216 1.366 . S
C1216 H1195 0.930 . S
C1216 C1212 1.416 . S
C1216 C1215 1.366 . S
H1217 C1210 0.929 . S
H1218 C1241 0.931 . S
H1219 C1242 0.931 . S
O1220 Eu1176 2.462 . S
O1220 C1240 1.252 . S
O1221 Eu1176 2.373 . S
O1221 C1232 1.249 . S
O1222 Eu1187 2.335 . S
O1222 C1232 1.264 . S
O1223 Eu1176 2.432 . S
O1223 C1240 1.268 . S
O1224 Eu1176 2.291 . S
O1224 C1239 1.255 . S
O1225 Eu1187 2.372 . S
O1225 C1239 1.257 . S
O1226 Eu1187 2.462 . S
O1226 C1251 1.252 . S
O1227 Eu1187 2.373 . S
O1227 C1243 1.249 . S
O1228 Eu1176 2.335 . S
O1228 C1243 1.264 . S
O1229 Eu1187 2.432 . S
O1229 C1251 1.268 . S
O1230 Eu1187 2.291 . S
O1230 C1250 1.255 . S
O1231 Eu1176 2.372 . S
O1231 C1250 1.257 . S
C1232 O1221 1.249 . S
C1232 O1222 1.264 . S
C1233 C1236 1.382 . S
C1233 C1238 1.390 . S
C1233 C1240 1.506 . S
C1234 C1235 1.398 . S
C1234 C1238 1.392 . S
C1235 C1234 1.398 . S
C1235 C1237 1.372 . S
C1235 H1252 0.931 . S
C1236 C1233 1.382 . S
C1236 C1237 1.390 . S
C1236 H1253 0.931 . S
C1237 C1235 1.372 . S
C1237 C1236 1.390 . S
C1237 H1254 0.929 . S
C1238 C1233 1.390 . S
C1238 C1234 1.392 . S
C1238 H1255 0.930 . S
C1239 O1224 1.255 . S
C1239 O1225 1.257 . S
C1240 Eu1176 2.787 . S
C1240 O1220 1.252 . S
C1240 O1223 1.268 . S
C1240 C1233 1.506 . S
C1241 C1208 1.439 . S
C1241 H1218 0.931 . S
C1241 C1242 1.374 . S
C1242 C1213 1.387 . S
C1242 H1219 0.931 . S
C1242 C1241 1.374 . S
C1243 O1227 1.249 . S
C1243 O1228 1.264 . S
C1244 C1247 1.382 . S
C1244 C1248 1.390 . S
C1244 C1251 1.506 . S
C1245 C1246 1.398 . S
C1245 C1248 1.392 . S
C1246 C1245 1.398 . S
C1246 C1249 1.372 . S
C1246 H1256 0.931 . S
C1247 C1244 1.382 . S
C1247 C1249 1.390 . S
C1247 H1257 0.931 . S
C1248 C1244 1.390 . S
C1248 C1245 1.392 . S
C1248 H1258 0.930 . S
C1249 C1246 1.372 . S
C1249 C1247 1.390 . S
C1249 H1259 0.929 . S
C1250 O1230 1.255 . S
C1250 O1231 1.257 . S
C1251 Eu1187 2.787 . S
C1251 O1226 1.252 . S
C1251 O1229 1.268 . S
C1251 C1244 1.506 . S
H1252 C1235 0.931 . S
H1253 C1236 0.931 . S
H1254 C1237 0.929 . S
H1255 C1238 0.930 . S
H1256 C1246 0.931 . S
H1257 C1247 0.931 . S
H1258 C1248 0.930 . S
H1259 C1249 0.929 . S
Eu1260 N1289 2.600 . S
Eu1260 N1295 2.562 . S
Eu1260 O1304 2.462 . S
Eu1260 O1305 2.373 . S
Eu1260 O1307 2.432 . S
Eu1260 O1308 2.291 . S
Eu1260 O1312 2.335 . S
Eu1260 O1315 2.372 . S
Eu1260 C1324 2.787 . S
C1261 N1262 1.365 . S
C1261 C1264 1.405 . S
C1261 C1268 1.448 . S
N1262 C1261 1.365 . S
N1262 C1265 1.319 . S
N1262 Eu1271 2.600 . S
C1263 C1265 1.397 . S
C1263 C1266 1.367 . S
C1263 H1283 0.931 . S
C1264 C1261 1.405 . S
C1264 C1266 1.403 . S
C1264 C1270 1.439 . S
C1265 N1262 1.319 . S
C1265 C1263 1.397 . S
C1265 H1276 0.930 . S
C1266 C1263 1.367 . S
C1266 C1264 1.403 . S
C1266 H1287 0.929 . S
C1267 C1268 1.430 . S
C1267 C1269 1.387 . S
C1267 C1273 1.404 . S
C1268 C1261 1.448 . S
C1268 C1267 1.430 . S
C1268 N1272 1.351 . S
C1269 C1267 1.387 . S
C1269 C1270 1.374 . S
C1269 H1284 0.931 . S
C1270 C1264 1.439 . S
C1270 C1269 1.374 . S
C1270 H1285 0.931 . S
Eu1271 N1262 2.600 . S
Eu1271 N1272 2.562 . S
Eu1271 O1306 2.335 . S
Eu1271 O1309 2.372 . S
Eu1271 O1310 2.462 . S
Eu1271 O1311 2.373 . S
Eu1271 O1313 2.432 . S
Eu1271 O1314 2.291 . S
Eu1271 C1335 2.787 . S
N1272 C1268 1.351 . S
N1272 Eu1271 2.562 . S
N1272 C1274 1.325 . S
C1273 C1267 1.404 . S
C1273 C1275 1.366 . S
C1273 H1281 0.930 . S
C1274 N1272 1.325 . S
C1274 C1275 1.416 . S
C1274 H1280 0.929 . S
C1275 C1273 1.366 . S
C1275 C1274 1.416 . S
C1275 H1277 0.930 . S
H1276 C1265 0.930 . S
H1277 C1275 0.930 . S
H1278 C1293 0.930 . S
H1279 C1300 0.930 . S
H1280 C1274 0.929 . S
H1281 C1273 0.930 . S
H1282 C1296 0.929 . S
H1283 C1263 0.931 . S
H1284 C1269 0.931 . S
H1285 C1270 0.931 . S
H1286 C1291 0.931 . S
H1287 C1266 0.929 . S
H1288 C1299 0.930 . S
N1289 Eu1260 2.600 . S
N1289 C1290 1.365 . S
N1289 C1293 1.319 . S
C1290 N1289 1.365 . S
C1290 C1292 1.405 . S
C1290 C1298 1.448 . S
C1291 H1286 0.931 . S
C1291 C1293 1.397 . S
C1291 C1294 1.367 . S
C1292 C1290 1.405 . S
C1292 C1294 1.403 . S
C1292 C1325 1.439 . S
C1293 H1278 0.930 . S
C1293 N1289 1.319 . S
C1293 C1291 1.397 . S
C1294 C1291 1.367 . S
C1294 C1292 1.403 . S
C1294 H1301 0.929 . S
N1295 Eu1260 2.562 . S
N1295 C1296 1.325 . S
N1295 C1298 1.351 . S
C1296 H1282 0.929 . S
C1296 N1295 1.325 . S
C1296 C1300 1.416 . S
C1297 C1298 1.430 . S
C1297 C1299 1.404 . S
C1297 C1326 1.387 . S
C1298 C1290 1.448 . S
C1298 N1295 1.351 . S
C1298 C1297 1.430 . S
C1299 H1288 0.930 . S
C1299 C1297 1.404 . S
C1299 C1300 1.366 . S
C1300 H1279 0.930 . S
C1300 C1296 1.416 . S
C1300 C1299 1.366 . S
H1301 C1294 0.929 . S
H1302 C1325 0.931 . S
H1303 C1326 0.931 . S
O1304 Eu1260 2.462 . S
O1304 C1324 1.252 . S
O1305 Eu1260 2.373 . S
O1305 C1316 1.249 . S
O1306 Eu1271 2.335 . S
O1306 C1316 1.264 . S
O1307 Eu1260 2.432 . S
O1307 C1324 1.268 . S
O1308 Eu1260 2.291 . S
O1308 C1323 1.255 . S
O1309 Eu1271 2.372 . S
O1309 C1323 1.257 . S
O1310 Eu1271 2.462 . S
O1310 C1335 1.252 . S
O1311 Eu1271 2.373 . S
O1311 C1327 1.249 . S
O1312 Eu1260 2.335 . S
O1312 C1327 1.264 . S
O1313 Eu1271 2.432 . S
O1313 C1335 1.268 . S
O1314 Eu1271 2.291 . S
O1314 C1334 1.255 . S
O1315 Eu1260 2.372 . S
O1315 C1334 1.257 . S
C1316 O1305 1.249 . S
C1316 O1306 1.264 . S
C1317 C1320 1.382 . S
C1317 C1322 1.390 . S
C1317 C1324 1.506 . S
C1318 C1319 1.398 . S
C1318 C1322 1.392 . S
C1319 C1318 1.398 . S
C1319 C1321 1.372 . S
C1319 H1336 0.931 . S
C1320 C1317 1.382 . S
C1320 C1321 1.390 . S
C1320 H1337 0.931 . S
C1321 C1319 1.372 . S
C1321 C1320 1.390 . S
C1321 H1338 0.929 . S
C1322 C1317 1.390 . S
C1322 C1318 1.392 . S
C1322 H1339 0.930 . S
C1323 O1308 1.255 . S
C1323 O1309 1.257 . S
C1324 Eu1260 2.787 . S
C1324 O1304 1.252 . S
C1324 O1307 1.268 . S
C1324 C1317 1.506 . S
C1325 C1292 1.439 . S
C1325 H1302 0.931 . S
C1325 C1326 1.374 . S
C1326 C1297 1.387 . S
C1326 H1303 0.931 . S
C1326 C1325 1.374 . S
C1327 O1311 1.249 . S
C1327 O1312 1.264 . S
C1328 C1331 1.382 . S
C1328 C1332 1.390 . S
C1328 C1335 1.506 . S
C1329 C1330 1.398 . S
C1329 C1332 1.392 . S
C1330 C1329 1.398 . S
C1330 C1333 1.372 . S
C1330 H1340 0.931 . S
C1331 C1328 1.382 . S
C1331 C1333 1.390 . S
C1331 H1341 0.931 . S
C1332 C1328 1.390 . S
C1332 C1329 1.392 . S
C1332 H1342 0.930 . S
C1333 C1330 1.372 . S
C1333 C1331 1.390 . S
C1333 H1343 0.929 . S
C1334 O1314 1.255 . S
C1334 O1315 1.257 . S
C1335 Eu1271 2.787 . S
C1335 O1310 1.252 . S
C1335 O1313 1.268 . S
C1335 C1328 1.506 . S
H1336 C1319 0.931 . S
H1337 C1320 0.931 . S
H1338 C1321 0.929 . S
H1339 C1322 0.930 . S
H1340 C1330 0.931 . S
H1341 C1331 0.931 . S
H1342 C1332 0.930 . S
H1343 C1333 0.929 . S
Eu1344 N1373 2.600 . S
Eu1344 N1379 2.562 . S
Eu1344 O1388 2.462 . S
Eu1344 O1389 2.373 . S
Eu1344 O1391 2.432 . S
Eu1344 O1392 2.291 . S
Eu1344 O1396 2.335 . S
Eu1344 O1399 2.372 . S
Eu1344 C1408 2.787 . S
C1345 N1346 1.365 . S
C1345 C1348 1.405 . S
C1345 C1352 1.448 . S
N1346 C1345 1.365 . S
N1346 C1349 1.319 . S
N1346 Eu1355 2.600 . S
C1347 C1349 1.397 . S
C1347 C1350 1.367 . S
C1347 H1367 0.931 . S
C1348 C1345 1.405 . S
C1348 C1350 1.403 . S
C1348 C1354 1.439 . S
C1349 N1346 1.319 . S
C1349 C1347 1.397 . S
C1349 H1360 0.930 . S
C1350 C1347 1.367 . S
C1350 C1348 1.403 . S
C1350 H1371 0.929 . S
C1351 C1352 1.430 . S
C1351 C1353 1.387 . S
C1351 C1357 1.404 . S
C1352 C1345 1.448 . S
C1352 C1351 1.430 . S
C1352 N1356 1.351 . S
C1353 C1351 1.387 . S
C1353 C1354 1.374 . S
C1353 H1368 0.931 . S
C1354 C1348 1.439 . S
C1354 C1353 1.374 . S
C1354 H1369 0.931 . S
Eu1355 N1346 2.600 . S
Eu1355 N1356 2.562 . S
Eu1355 O1390 2.335 . S
Eu1355 O1393 2.372 . S
Eu1355 O1394 2.462 . S
Eu1355 O1395 2.373 . S
Eu1355 O1397 2.432 . S
Eu1355 O1398 2.291 . S
Eu1355 C1419 2.787 . S
N1356 C1352 1.351 . S
N1356 Eu1355 2.562 . S
N1356 C1358 1.325 . S
C1357 C1351 1.404 . S
C1357 C1359 1.366 . S
C1357 H1365 0.930 . S
C1358 N1356 1.325 . S
C1358 C1359 1.416 . S
C1358 H1364 0.929 . S
C1359 C1357 1.366 . S
C1359 C1358 1.416 . S
C1359 H1361 0.930 . S
H1360 C1349 0.930 . S
H1361 C1359 0.930 . S
H1362 C1377 0.930 . S
H1363 C1384 0.930 . S
H1364 C1358 0.929 . S
H1365 C1357 0.930 . S
H1366 C1380 0.929 . S
H1367 C1347 0.931 . S
H1368 C1353 0.931 . S
H1369 C1354 0.931 . S
H1370 C1375 0.931 . S
H1371 C1350 0.929 . S
H1372 C1383 0.930 . S
N1373 Eu1344 2.600 . S
N1373 C1374 1.365 . S
N1373 C1377 1.319 . S
C1374 N1373 1.365 . S
C1374 C1376 1.405 . S
C1374 C1382 1.448 . S
C1375 H1370 0.931 . S
C1375 C1377 1.397 . S
C1375 C1378 1.367 . S
C1376 C1374 1.405 . S
C1376 C1378 1.403 . S
C1376 C1409 1.439 . S
C1377 H1362 0.930 . S
C1377 N1373 1.319 . S
C1377 C1375 1.397 . S
C1378 C1375 1.367 . S
C1378 C1376 1.403 . S
C1378 H1385 0.929 . S
N1379 Eu1344 2.562 . S
N1379 C1380 1.325 . S
N1379 C1382 1.351 . S
C1380 H1366 0.929 . S
C1380 N1379 1.325 . S
C1380 C1384 1.416 . S
C1381 C1382 1.430 . S
C1381 C1383 1.404 . S
C1381 C1410 1.387 . S
C1382 C1374 1.448 . S
C1382 N1379 1.351 . S
C1382 C1381 1.430 . S
C1383 H1372 0.930 . S
C1383 C1381 1.404 . S
C1383 C1384 1.366 . S
C1384 H1363 0.930 . S
C1384 C1380 1.416 . S
C1384 C1383 1.366 . S
H1385 C1378 0.929 . S
H1386 C1409 0.931 . S
H1387 C1410 0.931 . S
O1388 Eu1344 2.462 . S
O1388 C1408 1.252 . S
O1389 Eu1344 2.373 . S
O1389 C1400 1.249 . S
O1390 Eu1355 2.335 . S
O1390 C1400 1.264 . S
O1391 Eu1344 2.432 . S
O1391 C1408 1.268 . S
O1392 Eu1344 2.291 . S
O1392 C1407 1.255 . S
O1393 Eu1355 2.372 . S
O1393 C1407 1.257 . S
O1394 Eu1355 2.462 . S
O1394 C1419 1.252 . S
O1395 Eu1355 2.373 . S
O1395 C1411 1.249 . S
O1396 Eu1344 2.335 . S
O1396 C1411 1.264 . S
O1397 Eu1355 2.432 . S
O1397 C1419 1.268 . S
O1398 Eu1355 2.291 . S
O1398 C1418 1.255 . S
O1399 Eu1344 2.372 . S
O1399 C1418 1.257 . S
C1400 O1389 1.249 . S
C1400 O1390 1.264 . S
C1401 C1404 1.382 . S
C1401 C1406 1.390 . S
C1401 C1408 1.506 . S
C1402 C1403 1.398 . S
C1402 C1406 1.392 . S
C1403 C1402 1.398 . S
C1403 C1405 1.372 . S
C1403 H1420 0.931 . S
C1404 C1401 1.382 . S
C1404 C1405 1.390 . S
C1404 H1421 0.931 . S
C1405 C1403 1.372 . S
C1405 C1404 1.390 . S
C1405 H1422 0.929 . S
C1406 C1401 1.390 . S
C1406 C1402 1.392 . S
C1406 H1423 0.930 . S
C1407 O1392 1.255 . S
C1407 O1393 1.257 . S
C1408 Eu1344 2.787 . S
C1408 O1388 1.252 . S
C1408 O1391 1.268 . S
C1408 C1401 1.506 . S
C1409 C1376 1.439 . S
C1409 H1386 0.931 . S
C1409 C1410 1.374 . S
C1410 C1381 1.387 . S
C1410 H1387 0.931 . S
C1410 C1409 1.374 . S
C1411 O1395 1.249 . S
C1411 O1396 1.264 . S
C1412 C1415 1.382 . S
C1412 C1416 1.390 . S
C1412 C1419 1.506 . S
C1413 C1414 1.398 . S
C1413 C1416 1.392 . S
C1414 C1413 1.398 . S
C1414 C1417 1.372 . S
C1414 H1424 0.931 . S
C1415 C1412 1.382 . S
C1415 C1417 1.390 . S
C1415 H1425 0.931 . S
C1416 C1412 1.390 . S
C1416 C1413 1.392 . S
C1416 H1426 0.930 . S
C1417 C1414 1.372 . S
C1417 C1415 1.390 . S
C1417 H1427 0.929 . S
C1418 O1398 1.255 . S
C1418 O1399 1.257 . S
C1419 Eu1355 2.787 . S
C1419 O1394 1.252 . S
C1419 O1397 1.268 . S
C1419 C1412 1.506 . S
H1420 C1403 0.931 . S
H1421 C1404 0.931 . S
H1422 C1405 0.929 . S
H1423 C1406 0.930 . S
H1424 C1414 0.931 . S
H1425 C1415 0.931 . S
H1426 C1416 0.930 . S
H1427 C1417 0.929 . S
Eu1428 N1457 2.600 . S
Eu1428 N1463 2.562 . S
Eu1428 O1472 2.462 . S
Eu1428 O1473 2.373 . S
Eu1428 O1475 2.432 . S
Eu1428 O1476 2.291 . S
Eu1428 O1480 2.335 . S
Eu1428 O1483 2.372 . S
Eu1428 C1492 2.787 . S
C1429 N1430 1.365 . S
C1429 C1432 1.405 . S
C1429 C1436 1.448 . S
N1430 C1429 1.365 . S
N1430 C1433 1.319 . S
N1430 Eu1439 2.600 . S
C1431 C1433 1.397 . S
C1431 C1434 1.367 . S
C1431 H1451 0.931 . S
C1432 C1429 1.405 . S
C1432 C1434 1.403 . S
C1432 C1438 1.439 . S
C1433 N1430 1.319 . S
C1433 C1431 1.397 . S
C1433 H1444 0.930 . S
C1434 C1431 1.367 . S
C1434 C1432 1.403 . S
C1434 H1455 0.929 . S
C1435 C1436 1.430 . S
C1435 C1437 1.387 . S
C1435 C1441 1.404 . S
C1436 C1429 1.448 . S
C1436 C1435 1.430 . S
C1436 N1440 1.351 . S
C1437 C1435 1.387 . S
C1437 C1438 1.374 . S
C1437 H1452 0.931 . S
C1438 C1432 1.439 . S
C1438 C1437 1.374 . S
C1438 H1453 0.931 . S
Eu1439 N1430 2.600 . S
Eu1439 N1440 2.562 . S
Eu1439 O1474 2.335 . S
Eu1439 O1477 2.372 . S
Eu1439 O1478 2.462 . S
Eu1439 O1479 2.373 . S
Eu1439 O1481 2.432 . S
Eu1439 O1482 2.291 . S
Eu1439 C1503 2.787 . S
N1440 C1436 1.351 . S
N1440 Eu1439 2.562 . S
N1440 C1442 1.325 . S
C1441 C1435 1.404 . S
C1441 C1443 1.366 . S
C1441 H1449 0.930 . S
C1442 N1440 1.325 . S
C1442 C1443 1.416 . S
C1442 H1448 0.929 . S
C1443 C1441 1.366 . S
C1443 C1442 1.416 . S
C1443 H1445 0.930 . S
H1444 C1433 0.930 . S
H1445 C1443 0.930 . S
H1446 C1461 0.930 . S
H1447 C1468 0.930 . S
H1448 C1442 0.929 . S
H1449 C1441 0.930 . S
H1450 C1464 0.929 . S
H1451 C1431 0.931 . S
H1452 C1437 0.931 . S
H1453 C1438 0.931 . S
H1454 C1459 0.931 . S
H1455 C1434 0.929 . S
H1456 C1467 0.930 . S
N1457 Eu1428 2.600 . S
N1457 C1458 1.365 . S
N1457 C1461 1.319 . S
C1458 N1457 1.365 . S
C1458 C1460 1.405 . S
C1458 C1466 1.448 . S
C1459 H1454 0.931 . S
C1459 C1461 1.397 . S
C1459 C1462 1.367 . S
C1460 C1458 1.405 . S
C1460 C1462 1.403 . S
C1460 C1493 1.439 . S
C1461 H1446 0.930 . S
C1461 N1457 1.319 . S
C1461 C1459 1.397 . S
C1462 C1459 1.367 . S
C1462 C1460 1.403 . S
C1462 H1469 0.929 . S
N1463 Eu1428 2.562 . S
N1463 C1464 1.325 . S
N1463 C1466 1.351 . S
C1464 H1450 0.929 . S
C1464 N1463 1.325 . S
C1464 C1468 1.416 . S
C1465 C1466 1.430 . S
C1465 C1467 1.404 . S
C1465 C1494 1.387 . S
C1466 C1458 1.448 . S
C1466 N1463 1.351 . S
C1466 C1465 1.430 . S
C1467 H1456 0.930 . S
C1467 C1465 1.404 . S
C1467 C1468 1.366 . S
C1468 H1447 0.930 . S
C1468 C1464 1.416 . S
C1468 C1467 1.366 . S
H1469 C1462 0.929 . S
H1470 C1493 0.931 . S
H1471 C1494 0.931 . S
O1472 Eu1428 2.462 . S
O1472 C1492 1.252 . S
O1473 Eu1428 2.373 . S
O1473 C1484 1.249 . S
O1474 Eu1439 2.335 . S
O1474 C1484 1.264 . S
O1475 Eu1428 2.432 . S
O1475 C1492 1.268 . S
O1476 Eu1428 2.291 . S
O1476 C1491 1.255 . S
O1477 Eu1439 2.372 . S
O1477 C1491 1.257 . S
O1478 Eu1439 2.462 . S
O1478 C1503 1.252 . S
O1479 Eu1439 2.373 . S
O1479 C1495 1.249 . S
O1480 Eu1428 2.335 . S
O1480 C1495 1.264 . S
O1481 Eu1439 2.432 . S
O1481 C1503 1.268 . S
O1482 Eu1439 2.291 . S
O1482 C1502 1.255 . S
O1483 Eu1428 2.372 . S
O1483 C1502 1.257 . S
C1484 O1473 1.249 . S
C1484 O1474 1.264 . S
C1485 C1488 1.382 . S
C1485 C1490 1.390 . S
C1485 C1492 1.506 . S
C1486 C1487 1.398 . S
C1486 C1490 1.392 . S
C1487 C1486 1.398 . S
C1487 C1489 1.372 . S
C1487 H1504 0.931 . S
C1488 C1485 1.382 . S
C1488 C1489 1.390 . S
C1488 H1505 0.931 . S
C1489 C1487 1.372 . S
C1489 C1488 1.390 . S
C1489 H1506 0.929 . S
C1490 C1485 1.390 . S
C1490 C1486 1.392 . S
C1490 H1507 0.930 . S
C1491 O1476 1.255 . S
C1491 O1477 1.257 . S
C1492 Eu1428 2.787 . S
C1492 O1472 1.252 . S
C1492 O1475 1.268 . S
C1492 C1485 1.506 . S
C1493 C1460 1.439 . S
C1493 H1470 0.931 . S
C1493 C1494 1.374 . S
C1494 C1465 1.387 . S
C1494 H1471 0.931 . S
C1494 C1493 1.374 . S
C1495 O1479 1.249 . S
C1495 O1480 1.264 . S
C1496 C1499 1.382 . S
C1496 C1500 1.390 . S
C1496 C1503 1.506 . S
C1497 C1498 1.398 . S
C1497 C1500 1.392 . S
C1498 C1497 1.398 . S
C1498 C1501 1.372 . S
C1498 H1508 0.931 . S
C1499 C1496 1.382 . S
C1499 C1501 1.390 . S
C1499 H1509 0.931 . S
C1500 C1496 1.390 . S
C1500 C1497 1.392 . S
C1500 H1510 0.930 . S
C1501 C1498 1.372 . S
C1501 C1499 1.390 . S
C1501 H1511 0.929 . S
C1502 O1482 1.255 . S
C1502 O1483 1.257 . S
C1503 Eu1439 2.787 . S
C1503 O1478 1.252 . S
C1503 O1481 1.268 . S
C1503 C1496 1.506 . S
H1504 C1487 0.931 . S
H1505 C1488 0.931 . S
H1506 C1489 0.929 . S
H1507 C1490 0.930 . S
H1508 C1498 0.931 . S
H1509 C1499 0.931 . S
H1510 C1500 0.930 . S
H1511 C1501 0.929 . S
Eu1512 N1541 2.600 . S
Eu1512 N1547 2.562 . S
Eu1512 O1556 2.462 1_655 S
Eu1512 O1557 2.373 . S
Eu1512 O1559 2.432 . S
Eu1512 O1560 2.291 . S
Eu1512 O1564 2.335 1_655 S
Eu1512 O1567 2.348 1_554 S
Eu1512 C1576 2.787 . S
C1513 N1514 1.365 . S
C1513 C1516 1.405 . S
C1513 C1520 1.448 . S
N1514 C1513 1.365 . S
N1514 C1517 1.319 . S
N1514 Eu1523 2.600 . S
C1515 C1517 1.397 . S
C1515 C1518 1.367 . S
C1515 H1535 0.931 . S
C1516 C1513 1.405 . S
C1516 C1518 1.403 . S
C1516 C1522 1.439 . S
C1517 N1514 1.319 . S
C1517 C1515 1.397 . S
C1517 H1528 0.930 . S
C1518 C1515 1.367 . S
C1518 C1516 1.403 . S
C1518 H1539 0.929 . S
C1519 C1520 1.430 . S
C1519 C1521 1.387 . S
C1519 C1525 1.404 . S
C1520 C1513 1.448 . S
C1520 C1519 1.430 . S
C1520 N1524 1.351 . S
C1521 C1519 1.387 . S
C1521 C1522 1.374 . S
C1521 H1536 0.931 . S
C1522 C1516 1.439 . S
C1522 C1521 1.374 . S
C1522 H1537 0.931 . S
Eu1523 N1514 2.600 . S
Eu1523 N1524 2.562 . S
Eu1523 O1558 2.335 1_455 S
Eu1523 O1561 2.338 1_556 S
Eu1523 O1562 2.462 1_455 S
Eu1523 O1563 2.373 . S
Eu1523 O1565 2.432 1_455 S
Eu1523 O1566 2.291 1_455 S
Eu1523 C1587 2.787 1_455 S
N1524 C1520 1.351 . S
N1524 Eu1523 2.562 . S
N1524 C1526 1.325 . S
C1525 C1519 1.404 . S
C1525 C1527 1.366 . S
C1525 H1533 0.930 . S
C1526 N1524 1.325 . S
C1526 C1527 1.416 . S
C1526 H1532 0.929 . S
C1527 C1525 1.366 . S
C1527 C1526 1.416 . S
C1527 H1529 0.930 . S
H1528 C1517 0.930 . S
H1529 C1527 0.930 . S
H1530 C1545 0.930 . S
H1531 C1552 0.930 . S
H1532 C1526 0.929 . S
H1533 C1525 0.930 . S
H1534 C1548 0.929 . S
H1535 C1515 0.931 . S
H1536 C1521 0.931 . S
H1537 C1522 0.931 . S
H1538 C1543 0.931 . S
H1539 C1518 0.929 . S
H1540 C1551 0.930 . S
N1541 Eu1512 2.600 . S
N1541 C1542 1.365 . S
N1541 C1545 1.319 . S
C1542 N1541 1.365 . S
C1542 C1544 1.405 . S
C1542 C1550 1.448 . S
C1543 H1538 0.931 . S
C1543 C1545 1.397 . S
C1543 C1546 1.367 . S
C1544 C1542 1.405 . S
C1544 C1546 1.403 . S
C1544 C1577 1.439 . S
C1545 H1530 0.930 . S
C1545 N1541 1.319 . S
C1545 C1543 1.397 . S
C1546 C1543 1.367 . S
C1546 C1544 1.403 . S
C1546 H1553 0.929 . S
N1547 Eu1512 2.562 . S
N1547 C1548 1.325 . S
N1547 C1550 1.351 . S
C1548 H1534 0.929 . S
C1548 N1547 1.325 . S
C1548 C1552 1.416 . S
C1549 C1550 1.430 . S
C1549 C1551 1.404 . S
C1549 C1578 1.387 . S
C1550 C1542 1.448 . S
C1550 N1547 1.351 . S
C1550 C1549 1.430 . S
C1551 H1540 0.930 . S
C1551 C1549 1.404 . S
C1551 C1552 1.366 . S
C1552 H1531 0.930 . S
C1552 C1548 1.416 . S
C1552 C1551 1.366 . S
H1553 C1546 0.929 . S
H1554 C1577 0.931 . S
H1555 C1578 0.931 . S
O1556 Eu1512 2.462 1_455 S
O1556 C1576 1.252 1_455 S
O1557 Eu1512 2.373 . S
O1557 C1568 1.249 1_554 S
O1558 Eu1523 2.335 1_655 S
O1558 C1568 1.264 . S
O1559 Eu1512 2.432 . S
O1559 C1576 1.268 . S
O1560 Eu1512 2.291 . S
O1560 C1575 1.255 1_655 S
O1561 Eu1523 2.338 1_554 S
O1561 C1575 1.299 . S
O1562 Eu1523 2.462 1_655 S
O1562 C1587 1.252 . S
O1563 Eu1523 2.373 . S
O1563 C1579 1.249 1_556 S
O1564 Eu1512 2.335 1_455 S
O1564 C1579 1.264 . S
O1565 Eu1523 2.432 1_655 S
O1565 C1587 1.268 . S
O1566 Eu1523 2.291 1_655 S
O1566 C1586 1.255 . S
O1567 Eu1512 2.348 1_556 S
O1567 C1586 1.286 . S
C1568 O1557 1.249 1_556 S
C1568 O1558 1.264 . S
C1569 C1572 1.389 . S
C1569 C1574 1.390 . S
C1569 C1576 1.506 1_455 S
C1570 C1571 1.398 . S
C1570 C1574 1.392 . S
C1571 C1570 1.398 . S
C1571 C1573 1.372 . S
C1571 H1588 0.931 . S
C1572 C1569 1.389 . S
C1572 C1573 1.399 . S
C1572 H1589 0.915 1_455 S
C1573 C1571 1.372 . S
C1573 C1572 1.399 . S
C1573 H1590 0.929 . S
C1574 C1569 1.390 . S
C1574 C1570 1.392 . S
C1574 H1591 0.930 . S
C1575 O1560 1.255 1_455 S
C1575 O1561 1.299 . S
C1576 Eu1512 2.787 . S
C1576 O1556 1.252 1_655 S
C1576 O1559 1.268 . S
C1576 C1569 1.506 1_655 S
C1577 C1544 1.439 . S
C1577 H1554 0.931 . S
C1577 C1578 1.374 . S
C1578 C1549 1.387 . S
C1578 H1555 0.931 . S
C1578 C1577 1.374 . S
C1579 O1563 1.249 1_554 S
C1579 O1564 1.264 . S
C1580 C1583 1.382 . S
C1580 C1584 1.390 . S
C1580 C1587 1.506 . S
C1581 C1582 1.398 . S
C1581 C1584 1.392 . S
C1582 C1581 1.398 . S
C1582 C1585 1.372 . S
C1582 H1592 0.931 . S
C1583 C1580 1.382 . S
C1583 C1585 1.390 . S
C1583 H1593 0.931 . S
C1584 C1580 1.390 . S
C1584 C1581 1.392 . S
C1584 H1594 0.930 . S
C1585 C1582 1.372 . S
C1585 C1583 1.390 . S
C1585 H1595 0.929 . S
C1586 O1566 1.255 . S
C1586 O1567 1.286 . S
C1587 Eu1523 2.787 1_655 S
C1587 O1562 1.252 . S
C1587 O1565 1.268 . S
C1587 C1580 1.506 . S
H1588 C1571 0.931 . S
H1589 C1572 0.915 1_655 S
H1590 C1573 0.929 . S
H1591 C1574 0.930 . S
H1592 C1582 0.931 . S
H1593 C1583 0.931 . S
H1594 C1584 0.930 . S
H1595 C1585 0.929 . S
Eu1596 N1625 2.600 . S
Eu1596 N1631 2.562 . S
Eu1596 O1640 2.462 . S
Eu1596 O1641 2.373 . S
Eu1596 O1643 2.432 . S
Eu1596 O1644 2.291 . S
Eu1596 O1648 2.335 . S
Eu1596 O1651 2.372 . S
Eu1596 C1660 2.787 . S
C1597 N1598 1.365 . S
C1597 C1600 1.405 . S
C1597 C1604 1.448 . S
N1598 C1597 1.365 . S
N1598 C1601 1.319 . S
N1598 Eu1607 2.600 . S
C1599 C1601 1.397 . S
C1599 C1602 1.367 . S
C1599 H1619 0.931 . S
C1600 C1597 1.405 . S
C1600 C1602 1.403 . S
C1600 C1606 1.439 . S
C1601 N1598 1.319 . S
C1601 C1599 1.397 . S
C1601 H1612 0.930 . S
C1602 C1599 1.367 . S
C1602 C1600 1.403 . S
C1602 H1623 0.929 . S
C1603 C1604 1.430 . S
C1603 C1605 1.387 . S
C1603 C1609 1.404 . S
C1604 C1597 1.448 . S
C1604 C1603 1.430 . S
C1604 N1608 1.351 . S
C1605 C1603 1.387 . S
C1605 C1606 1.374 . S
C1605 H1620 0.931 . S
C1606 C1600 1.439 . S
C1606 C1605 1.374 . S
C1606 H1621 0.931 . S
Eu1607 N1598 2.600 . S
Eu1607 N1608 2.562 . S
Eu1607 O1642 2.335 . S
Eu1607 O1645 2.372 . S
Eu1607 O1646 2.462 . S
Eu1607 O1647 2.373 . S
Eu1607 O1649 2.432 . S
Eu1607 O1650 2.291 . S
Eu1607 C1671 2.787 . S
N1608 C1604 1.351 . S
N1608 Eu1607 2.562 . S
N1608 C1610 1.325 . S
C1609 C1603 1.404 . S
C1609 C1611 1.366 . S
C1609 H1617 0.930 . S
C1610 N1608 1.325 . S
C1610 C1611 1.416 . S
C1610 H1616 0.929 . S
C1611 C1609 1.366 . S
C1611 C1610 1.416 . S
C1611 H1613 0.930 . S
H1612 C1601 0.930 . S
H1613 C1611 0.930 . S
H1614 C1629 0.930 . S
H1615 C1636 0.930 . S
H1616 C1610 0.929 . S
H1617 C1609 0.930 . S
H1618 C1632 0.929 . S
H1619 C1599 0.931 . S
H1620 C1605 0.931 . S
H1621 C1606 0.931 . S
H1622 C1627 0.931 . S
H1623 C1602 0.929 . S
H1624 C1635 0.930 . S
N1625 Eu1596 2.600 . S
N1625 C1626 1.365 . S
N1625 C1629 1.319 . S
C1626 N1625 1.365 . S
C1626 C1628 1.405 . S
C1626 C1634 1.448 . S
C1627 H1622 0.931 . S
C1627 C1629 1.397 . S
C1627 C1630 1.367 . S
C1628 C1626 1.405 . S
C1628 C1630 1.403 . S
C1628 C1661 1.439 . S
C1629 H1614 0.930 . S
C1629 N1625 1.319 . S
C1629 C1627 1.397 . S
C1630 C1627 1.367 . S
C1630 C1628 1.403 . S
C1630 H1637 0.929 . S
N1631 Eu1596 2.562 . S
N1631 C1632 1.325 . S
N1631 C1634 1.351 . S
C1632 H1618 0.929 . S
C1632 N1631 1.325 . S
C1632 C1636 1.416 . S
C1633 C1634 1.430 . S
C1633 C1635 1.404 . S
C1633 C1662 1.387 . S
C1634 C1626 1.448 . S
C1634 N1631 1.351 . S
C1634 C1633 1.430 . S
C1635 H1624 0.930 . S
C1635 C1633 1.404 . S
C1635 C1636 1.366 . S
C1636 H1615 0.930 . S
C1636 C1632 1.416 . S
C1636 C1635 1.366 . S
H1637 C1630 0.929 . S
H1638 C1661 0.931 . S
H1639 C1662 0.931 . S
O1640 Eu1596 2.462 . S
O1640 C1660 1.252 . S
O1641 Eu1596 2.373 . S
O1641 C1652 1.249 . S
O1642 Eu1607 2.335 . S
O1642 C1652 1.264 . S
O1643 Eu1596 2.432 . S
O1643 C1660 1.268 . S
O1644 Eu1596 2.291 . S
O1644 C1659 1.255 . S
O1645 Eu1607 2.372 . S
O1645 C1659 1.257 . S
O1646 Eu1607 2.462 . S
O1646 C1671 1.252 . S
O1647 Eu1607 2.373 . S
O1647 C1663 1.249 . S
O1648 Eu1596 2.335 . S
O1648 C1663 1.264 . S
O1649 Eu1607 2.432 . S
O1649 C1671 1.268 . S
O1650 Eu1607 2.291 . S
O1650 C1670 1.255 . S
O1651 Eu1596 2.372 . S
O1651 C1670 1.257 . S
C1652 O1641 1.249 . S
C1652 O1642 1.264 . S
C1653 C1656 1.382 . S
C1653 C1658 1.390 . S
C1653 C1660 1.506 . S
C1654 C1655 1.398 . S
C1654 C1658 1.392 . S
C1655 C1654 1.398 . S
C1655 C1657 1.372 . S
C1655 H1672 0.931 . S
C1656 C1653 1.382 . S
C1656 C1657 1.390 . S
C1656 H1673 0.931 . S
C1657 C1655 1.372 . S
C1657 C1656 1.390 . S
C1657 H1674 0.929 . S
C1658 C1653 1.390 . S
C1658 C1654 1.392 . S
C1658 H1675 0.930 . S
C1659 O1644 1.255 . S
C1659 O1645 1.257 . S
C1660 Eu1596 2.787 . S
C1660 O1640 1.252 . S
C1660 O1643 1.268 . S
C1660 C1653 1.506 . S
C1661 C1628 1.439 . S
C1661 H1638 0.931 . S
C1661 C1662 1.374 . S
C1662 C1633 1.387 . S
C1662 H1639 0.931 . S
C1662 C1661 1.374 . S
C1663 O1647 1.249 . S
C1663 O1648 1.264 . S
C1664 C1667 1.382 . S
C1664 C1668 1.390 . S
C1664 C1671 1.506 . S
C1665 C1666 1.398 . S
C1665 C1668 1.392 . S
C1666 C1665 1.398 . S
C1666 C1669 1.372 . S
C1666 H1676 0.931 . S
C1667 C1664 1.382 . S
C1667 C1669 1.390 . S
C1667 H1677 0.931 . S
C1668 C1664 1.390 . S
C1668 C1665 1.392 . S
C1668 H1678 0.930 . S
C1669 C1666 1.372 . S
C1669 C1667 1.390 . S
C1669 H1679 0.929 . S
C1670 O1650 1.255 . S
C1670 O1651 1.257 . S
C1671 Eu1607 2.787 . S
C1671 O1646 1.252 . S
C1671 O1649 1.268 . S
C1671 C1664 1.506 . S
H1672 C1655 0.931 . S
H1673 C1656 0.931 . S
H1674 C1657 0.929 . S
H1675 C1658 0.930 . S
H1676 C1666 0.931 . S
H1677 C1667 0.931 . S
H1678 C1668 0.930 . S
H1679 C1669 0.929 . S
Eu1680 N1709 2.600 . S
Eu1680 N1715 2.562 . S
Eu1680 O1724 2.462 . S
Eu1680 O1725 2.373 . S
Eu1680 O1727 2.432 . S
Eu1680 O1728 2.291 . S
Eu1680 O1732 2.335 . S
Eu1680 O1735 2.372 . S
Eu1680 C1744 2.787 . S
C1681 N1682 1.365 . S
C1681 C1684 1.405 . S
C1681 C1688 1.448 . S
N1682 C1681 1.365 . S
N1682 C1685 1.319 . S
N1682 Eu1691 2.600 . S
C1683 C1685 1.397 . S
C1683 C1686 1.367 . S
C1683 H1703 0.931 . S
C1684 C1681 1.405 . S
C1684 C1686 1.403 . S
C1684 C1690 1.439 . S
C1685 N1682 1.319 . S
C1685 C1683 1.397 . S
C1685 H1696 0.930 . S
C1686 C1683 1.367 . S
C1686 C1684 1.403 . S
C1686 H1707 0.929 . S
C1687 C1688 1.430 . S
C1687 C1689 1.387 . S
C1687 C1693 1.404 . S
C1688 C1681 1.448 . S
C1688 C1687 1.430 . S
C1688 N1692 1.351 . S
C1689 C1687 1.387 . S
C1689 C1690 1.374 . S
C1689 H1704 0.931 . S
C1690 C1684 1.439 . S
C1690 C1689 1.374 . S
C1690 H1705 0.931 . S
Eu1691 N1682 2.600 . S
Eu1691 N1692 2.562 . S
Eu1691 O1726 2.335 . S
Eu1691 O1729 2.372 . S
Eu1691 O1730 2.462 . S
Eu1691 O1731 2.373 . S
Eu1691 O1733 2.432 . S
Eu1691 O1734 2.291 . S
Eu1691 C1755 2.787 . S
N1692 C1688 1.351 . S
N1692 Eu1691 2.562 . S
N1692 C1694 1.325 . S
C1693 C1687 1.404 . S
C1693 C1695 1.366 . S
C1693 H1701 0.930 . S
C1694 N1692 1.325 . S
C1694 C1695 1.416 . S
C1694 H1700 0.929 . S
C1695 C1693 1.366 . S
C1695 C1694 1.416 . S
C1695 H1697 0.930 . S
H1696 C1685 0.930 . S
H1697 C1695 0.930 . S
H1698 C1713 0.930 . S
H1699 C1720 0.930 . S
H1700 C1694 0.929 . S
H1701 C1693 0.930 . S
H1702 C1716 0.929 . S
H1703 C1683 0.931 . S
H1704 C1689 0.931 . S
H1705 C1690 0.931 . S
H1706 C1711 0.931 . S
H1707 C1686 0.929 . S
H1708 C1719 0.930 . S
N1709 Eu1680 2.600 . S
N1709 C1710 1.365 . S
N1709 C1713 1.319 . S
C1710 N1709 1.365 . S
C1710 C1712 1.405 . S
C1710 C1718 1.448 . S
C1711 H1706 0.931 . S
C1711 C1713 1.397 . S
C1711 C1714 1.367 . S
C1712 C1710 1.405 . S
C1712 C1714 1.403 . S
C1712 C1745 1.439 . S
C1713 H1698 0.930 . S
C1713 N1709 1.319 . S
C1713 C1711 1.397 . S
C1714 C1711 1.367 . S
C1714 C1712 1.403 . S
C1714 H1721 0.929 . S
N1715 Eu1680 2.562 . S
N1715 C1716 1.325 . S
N1715 C1718 1.351 . S
C1716 H1702 0.929 . S
C1716 N1715 1.325 . S
C1716 C1720 1.416 . S
C1717 C1718 1.430 . S
C1717 C1719 1.404 . S
C1717 C1746 1.387 . S
C1718 C1710 1.448 . S
C1718 N1715 1.351 . S
C1718 C1717 1.430 . S
C1719 H1708 0.930 . S
C1719 C1717 1.404 . S
C1719 C1720 1.366 . S
C1720 H1699 0.930 . S
C1720 C1716 1.416 . S
C1720 C1719 1.366 . S
H1721 C1714 0.929 . S
H1722 C1745 0.931 . S
H1723 C1746 0.931 . S
O1724 Eu1680 2.462 . S
O1724 C1744 1.252 . S
O1725 Eu1680 2.373 . S
O1725 C1736 1.249 . S
O1726 Eu1691 2.335 . S
O1726 C1736 1.264 . S
O1727 Eu1680 2.432 . S
O1727 C1744 1.268 . S
O1728 Eu1680 2.291 . S
O1728 C1743 1.255 . S
O1729 Eu1691 2.372 . S
O1729 C1743 1.257 . S
O1730 Eu1691 2.462 . S
O1730 C1755 1.252 . S
O1731 Eu1691 2.373 . S
O1731 C1747 1.249 . S
O1732 Eu1680 2.335 . S
O1732 C1747 1.264 . S
O1733 Eu1691 2.432 . S
O1733 C1755 1.268 . S
O1734 Eu1691 2.291 . S
O1734 C1754 1.255 . S
O1735 Eu1680 2.372 . S
O1735 C1754 1.257 . S
C1736 O1725 1.249 . S
C1736 O1726 1.264 . S
C1737 C1740 1.382 . S
C1737 C1742 1.390 . S
C1737 C1744 1.506 . S
C1738 C1739 1.398 . S
C1738 C1742 1.392 . S
C1739 C1738 1.398 . S
C1739 C1741 1.372 . S
C1739 H1756 0.931 . S
C1740 C1737 1.382 . S
C1740 C1741 1.390 . S
C1740 H1757 0.931 . S
C1741 C1739 1.372 . S
C1741 C1740 1.390 . S
C1741 H1758 0.929 . S
C1742 C1737 1.390 . S
C1742 C1738 1.392 . S
C1742 H1759 0.930 . S
C1743 O1728 1.255 . S
C1743 O1729 1.257 . S
C1744 Eu1680 2.787 . S
C1744 O1724 1.252 . S
C1744 O1727 1.268 . S
C1744 C1737 1.506 . S
C1745 C1712 1.439 . S
C1745 H1722 0.931 . S
C1745 C1746 1.374 . S
C1746 C1717 1.387 . S
C1746 H1723 0.931 . S
C1746 C1745 1.374 . S
C1747 O1731 1.249 . S
C1747 O1732 1.264 . S
C1748 C1751 1.382 . S
C1748 C1752 1.390 . S
C1748 C1755 1.506 . S
C1749 C1750 1.398 . S
C1749 C1752 1.392 . S
C1750 C1749 1.398 . S
C1750 C1753 1.372 . S
C1750 H1760 0.931 . S
C1751 C1748 1.382 . S
C1751 C1753 1.390 . S
C1751 H1761 0.931 . S
C1752 C1748 1.390 . S
C1752 C1749 1.392 . S
C1752 H1762 0.930 . S
C1753 C1750 1.372 . S
C1753 C1751 1.390 . S
C1753 H1763 0.929 . S
C1754 O1734 1.255 . S
C1754 O1735 1.257 . S
C1755 Eu1691 2.787 . S
C1755 O1730 1.252 . S
C1755 O1733 1.268 . S
C1755 C1748 1.506 . S
H1756 C1739 0.931 . S
H1757 C1740 0.931 . S
H1758 C1741 0.929 . S
H1759 C1742 0.930 . S
H1760 C1750 0.931 . S
H1761 C1751 0.931 . S
H1762 C1752 0.930 . S
H1763 C1753 0.929 . S
Eu1764 N1793 2.600 . S
Eu1764 N1799 2.562 . S
Eu1764 O1808 2.462 . S
Eu1764 O1809 2.373 . S
Eu1764 O1811 2.432 . S
Eu1764 O1812 2.291 . S
Eu1764 O1816 2.335 . S
Eu1764 O1819 2.372 . S
Eu1764 C1828 2.787 . S
C1765 N1766 1.365 . S
C1765 C1768 1.405 . S
C1765 C1772 1.448 . S
N1766 C1765 1.365 . S
N1766 C1769 1.319 . S
N1766 Eu1775 2.600 . S
C1767 C1769 1.397 . S
C1767 C1770 1.367 . S
C1767 H1787 0.931 . S
C1768 C1765 1.405 . S
C1768 C1770 1.403 . S
C1768 C1774 1.439 . S
C1769 N1766 1.319 . S
C1769 C1767 1.397 . S
C1769 H1780 0.930 . S
C1770 C1767 1.367 . S
C1770 C1768 1.403 . S
C1770 H1791 0.929 . S
C1771 C1772 1.430 . S
C1771 C1773 1.387 . S
C1771 C1777 1.404 . S
C1772 C1765 1.448 . S
C1772 C1771 1.430 . S
C1772 N1776 1.351 . S
C1773 C1771 1.387 . S
C1773 C1774 1.374 . S
C1773 H1788 0.931 . S
C1774 C1768 1.439 . S
C1774 C1773 1.374 . S
C1774 H1789 0.931 . S
Eu1775 N1766 2.600 . S
Eu1775 N1776 2.562 . S
Eu1775 O1810 2.335 . S
Eu1775 O1813 2.372 . S
Eu1775 O1814 2.462 . S
Eu1775 O1815 2.373 . S
Eu1775 O1817 2.432 . S
Eu1775 O1818 2.291 . S
Eu1775 C1839 2.787 . S
N1776 C1772 1.351 . S
N1776 Eu1775 2.562 . S
N1776 C1778 1.325 . S
C1777 C1771 1.404 . S
C1777 C1779 1.366 . S
C1777 H1785 0.930 . S
C1778 N1776 1.325 . S
C1778 C1779 1.416 . S
C1778 H1784 0.929 . S
C1779 C1777 1.366 . S
C1779 C1778 1.416 . S
C1779 H1781 0.930 . S
H1780 C1769 0.930 . S
H1781 C1779 0.930 . S
H1782 C1797 0.930 . S
H1783 C1804 0.930 . S
H1784 C1778 0.929 . S
H1785 C1777 0.930 . S
H1786 C1800 0.929 . S
H1787 C1767 0.931 . S
H1788 C1773 0.931 . S
H1789 C1774 0.931 . S
H1790 C1795 0.931 . S
H1791 C1770 0.929 . S
H1792 C1803 0.930 . S
N1793 Eu1764 2.600 . S
N1793 C1794 1.365 . S
N1793 C1797 1.319 . S
C1794 N1793 1.365 . S
C1794 C1796 1.405 . S
C1794 C1802 1.448 . S
C1795 H1790 0.931 . S
C1795 C1797 1.397 . S
C1795 C1798 1.367 . S
C1796 C1794 1.405 . S
C1796 C1798 1.403 . S
C1796 C1829 1.439 . S
C1797 H1782 0.930 . S
C1797 N1793 1.319 . S
C1797 C1795 1.397 . S
C1798 C1795 1.367 . S
C1798 C1796 1.403 . S
C1798 H1805 0.929 . S
N1799 Eu1764 2.562 . S
N1799 C1800 1.325 . S
N1799 C1802 1.351 . S
C1800 H1786 0.929 . S
C1800 N1799 1.325 . S
C1800 C1804 1.416 . S
C1801 C1802 1.430 . S
C1801 C1803 1.404 . S
C1801 C1830 1.387 . S
C1802 C1794 1.448 . S
C1802 N1799 1.351 . S
C1802 C1801 1.430 . S
C1803 H1792 0.930 . S
C1803 C1801 1.404 . S
C1803 C1804 1.366 . S
C1804 H1783 0.930 . S
C1804 C1800 1.416 . S
C1804 C1803 1.366 . S
H1805 C1798 0.929 . S
H1806 C1829 0.931 . S
H1807 C1830 0.931 . S
O1808 Eu1764 2.462 . S
O1808 C1828 1.252 . S
O1809 Eu1764 2.373 . S
O1809 C1820 1.249 . S
O1810 Eu1775 2.335 . S
O1810 C1820 1.264 . S
O1811 Eu1764 2.432 . S
O1811 C1828 1.268 . S
O1812 Eu1764 2.291 . S
O1812 C1827 1.255 . S
O1813 Eu1775 2.372 . S
O1813 C1827 1.257 . S
O1814 Eu1775 2.462 . S
O1814 C1839 1.252 . S
O1815 Eu1775 2.373 . S
O1815 C1831 1.249 . S
O1816 Eu1764 2.335 . S
O1816 C1831 1.264 . S
O1817 Eu1775 2.432 . S
O1817 C1839 1.268 . S
O1818 Eu1775 2.291 . S
O1818 C1838 1.255 . S
O1819 Eu1764 2.372 . S
O1819 C1838 1.257 . S
C1820 O1809 1.249 . S
C1820 O1810 1.264 . S
C1821 C1824 1.382 . S
C1821 C1826 1.390 . S
C1821 C1828 1.506 . S
C1822 C1823 1.398 . S
C1822 C1826 1.392 . S
C1823 C1822 1.398 . S
C1823 C1825 1.372 . S
C1823 H1840 0.931 . S
C1824 C1821 1.382 . S
C1824 C1825 1.390 . S
C1824 H1841 0.931 . S
C1825 C1823 1.372 . S
C1825 C1824 1.390 . S
C1825 H1842 0.929 . S
C1826 C1821 1.390 . S
C1826 C1822 1.392 . S
C1826 H1843 0.930 . S
C1827 O1812 1.255 . S
C1827 O1813 1.257 . S
C1828 Eu1764 2.787 . S
C1828 O1808 1.252 . S
C1828 O1811 1.268 . S
C1828 C1821 1.506 . S
C1829 C1796 1.439 . S
C1829 H1806 0.931 . S
C1829 C1830 1.374 . S
C1830 C1801 1.387 . S
C1830 H1807 0.931 . S
C1830 C1829 1.374 . S
C1831 O1815 1.249 . S
C1831 O1816 1.264 . S
C1832 C1835 1.382 . S
C1832 C1836 1.390 . S
C1832 C1839 1.506 . S
C1833 C1834 1.398 . S
C1833 C1836 1.392 . S
C1834 C1833 1.398 . S
C1834 C1837 1.372 . S
C1834 H1844 0.931 . S
C1835 C1832 1.382 . S
C1835 C1837 1.390 . S
C1835 H1845 0.931 . S
C1836 C1832 1.390 . S
C1836 C1833 1.392 . S
C1836 H1846 0.930 . S
C1837 C1834 1.372 . S
C1837 C1835 1.390 . S
C1837 H1847 0.929 . S
C1838 O1818 1.255 . S
C1838 O1819 1.257 . S
C1839 Eu1775 2.787 . S
C1839 O1814 1.252 . S
C1839 O1817 1.268 . S
C1839 C1832 1.506 . S
H1840 C1823 0.931 . S
H1841 C1824 0.931 . S
H1842 C1825 0.929 . S
H1843 C1826 0.930 . S
H1844 C1834 0.931 . S
H1845 C1835 0.931 . S
H1846 C1836 0.930 . S
H1847 C1837 0.929 . S
Eu1848 N1877 2.600 . S
Eu1848 N1883 2.562 . S
Eu1848 O1892 2.462 1_554 S
Eu1848 O1893 2.373 . S
Eu1848 O1895 2.432 . S
Eu1848 O1896 2.291 1_554 S
Eu1848 O1900 2.335 1_554 S
Eu1848 O1903 2.372 . S
Eu1848 C1912 2.787 1_554 S
C1849 N1850 1.365 . S
C1849 C1852 1.405 . S
C1849 C1856 1.448 . S
N1850 C1849 1.365 . S
N1850 C1853 1.319 . S
N1850 Eu1859 2.600 . S
C1851 C1853 1.397 . S
C1851 C1854 1.367 . S
C1851 H1871 0.931 . S
C1852 C1849 1.405 . S
C1852 C1854 1.403 . S
C1852 C1858 1.439 . S
C1853 N1850 1.319 . S
C1853 C1851 1.397 . S
C1853 H1864 0.930 . S
C1854 C1851 1.367 . S
C1854 C1852 1.403 . S
C1854 H1875 0.929 . S
C1855 C1856 1.430 . S
C1855 C1857 1.387 . S
C1855 C1861 1.404 . S
C1856 C1849 1.448 . S
C1856 C1855 1.430 . S
C1856 N1860 1.351 . S
C1857 C1855 1.387 . S
C1857 C1858 1.374 . S
C1857 H1872 0.931 . S
C1858 C1852 1.439 . S
C1858 C1857 1.374 . S
C1858 H1873 0.931 . S
Eu1859 N1850 2.600 . S
Eu1859 N1860 2.562 . S
Eu1859 O1894 2.335 1_556 S
Eu1859 O1897 2.372 . S
Eu1859 O1898 2.462 1_556 S
Eu1859 O1899 2.373 . S
Eu1859 O1901 2.432 . S
Eu1859 O1902 2.291 1_556 S
Eu1859 C1923 2.787 1_556 S
N1860 C1856 1.351 . S
N1860 Eu1859 2.562 . S
N1860 C1862 1.325 . S
C1861 C1855 1.404 . S
C1861 C1863 1.366 . S
C1861 H1869 0.930 . S
C1862 N1860 1.325 . S
C1862 C1863 1.416 . S
C1862 H1868 0.929 . S
C1863 C1861 1.366 . S
C1863 C1862 1.416 . S
C1863 H1865 0.930 . S
H1864 C1853 0.930 . S
H1865 C1863 0.930 . S
H1866 C1881 0.930 . S
H1867 C1888 0.930 . S
H1868 C1862 0.929 . S
H1869 C1861 0.930 . S
H1870 C1884 0.929 . S
H1871 C1851 0.931 . S
H1872 C1857 0.931 . S
H1873 C1858 0.931 . S
H1874 C1879 0.931 . S
H1875 C1854 0.929 . S
H1876 C1887 0.930 . S
N1877 Eu1848 2.600 . S
N1877 C1878 1.365 . S
N1877 C1881 1.319 . S
C1878 N1877 1.365 . S
C1878 C1880 1.405 . S
C1878 C1886 1.448 . S
C1879 H1874 0.931 . S
C1879 C1881 1.397 . S
C1879 C1882 1.367 . S
C1880 C1878 1.405 . S
C1880 C1882 1.403 . S
C1880 C1913 1.439 . S
C1881 H1866 0.930 . S
C1881 N1877 1.319 . S
C1881 C1879 1.397 . S
C1882 C1879 1.367 . S
C1882 C1880 1.403 . S
C1882 H1889 0.929 . S
N1883 Eu1848 2.562 . S
N1883 C1884 1.325 . S
N1883 C1886 1.351 . S
C1884 H1870 0.929 . S
C1884 N1883 1.325 . S
C1884 C1888 1.416 . S
C1885 C1886 1.430 . S
C1885 C1887 1.404 . S
C1885 C1914 1.387 . S
C1886 C1878 1.448 . S
C1886 N1883 1.351 . S
C1886 C1885 1.430 . S
C1887 H1876 0.930 . S
C1887 C1885 1.404 . S
C1887 C1888 1.366 . S
C1888 H1867 0.930 . S
C1888 C1884 1.416 . S
C1888 C1887 1.366 . S
H1889 C1882 0.929 . S
H1890 C1913 0.931 . S
H1891 C1914 0.931 . S
O1892 Eu1848 2.462 1_556 S
O1892 C1912 1.252 . S
O1893 Eu1848 2.373 . S
O1893 C1904 1.249 . S
O1894 Eu1859 2.335 1_554 S
O1894 C1904 1.264 . S
O1895 Eu1848 2.432 . S
O1895 C1912 1.268 1_554 S
O1896 Eu1848 2.291 1_556 S
O1896 C1911 1.255 . S
O1897 Eu1859 2.372 . S
O1897 C1911 1.257 . S
O1898 Eu1859 2.462 1_554 S
O1898 C1923 1.252 . S
O1899 Eu1859 2.373 . S
O1899 C1915 1.249 . S
O1900 Eu1848 2.335 1_556 S
O1900 C1915 1.264 . S
O1901 Eu1859 2.432 . S
O1901 C1923 1.268 1_556 S
O1902 Eu1859 2.291 1_554 S
O1902 C1922 1.255 . S
O1903 Eu1848 2.372 . S
O1903 C1922 1.257 . S
C1904 O1893 1.249 . S
C1904 O1894 1.264 . S
C1905 C1908 1.382 . S
C1905 C1910 1.390 . S
C1905 C1912 1.506 . S
C1906 C1907 1.398 . S
C1906 C1910 1.392 . S
C1907 C1906 1.398 . S
C1907 C1909 1.372 . S
C1907 H1924 0.931 . S
C1908 C1905 1.382 . S
C1908 C1909 1.390 . S
C1908 H1925 0.931 . S
C1909 C1907 1.372 . S
C1909 C1908 1.390 . S
C1909 H1926 0.929 . S
C1910 C1905 1.390 . S
C1910 C1906 1.392 . S
C1910 H1927 0.930 . S
C1911 O1896 1.255 . S
C1911 O1897 1.257 . S
C1912 Eu1848 2.787 1_556 S
C1912 O1892 1.252 . S
C1912 O1895 1.268 1_556 S
C1912 C1905 1.506 . S
C1913 C1880 1.439 . S
C1913 H1890 0.931 . S
C1913 C1914 1.374 . S
C1914 C1885 1.387 . S
C1914 H1891 0.931 . S
C1914 C1913 1.374 . S
C1915 O1899 1.249 . S
C1915 O1900 1.264 . S
C1916 C1919 1.382 . S
C1916 C1920 1.390 . S
C1916 C1923 1.506 . S
C1917 C1918 1.398 . S
C1917 C1920 1.392 . S
C1918 C1917 1.398 . S
C1918 C1921 1.372 . S
C1918 H1928 0.931 . S
C1919 C1916 1.382 . S
C1919 C1921 1.390 . S
C1919 H1929 0.931 . S
C1920 C1916 1.390 . S
C1920 C1917 1.392 . S
C1920 H1930 0.930 . S
C1921 C1918 1.372 . S
C1921 C1919 1.390 . S
C1921 H1931 0.929 . S
C1922 O1902 1.255 . S
C1922 O1903 1.257 . S
C1923 Eu1859 2.787 1_554 S
C1923 O1898 1.252 . S
C1923 O1901 1.268 1_554 S
C1923 C1916 1.506 . S
H1924 C1907 0.931 . S
H1925 C1908 0.931 . S
H1926 C1909 0.929 . S
H1927 C1910 0.930 . S
H1928 C1918 0.931 . S
H1929 C1919 0.931 . S
H1930 C1920 0.930 . S
H1931 C1921 0.929 . S
Eu1932 N1961 2.600 . S
Eu1932 N1967 2.562 . S
Eu1932 O1976 2.462 . S
Eu1932 O1977 2.373 . S
Eu1932 O1979 2.432 . S
Eu1932 O1980 2.291 . S
Eu1932 O1984 2.335 . S
Eu1932 O1987 2.372 . S
Eu1932 C1996 2.787 . S
C1933 N1934 1.365 . S
C1933 C1936 1.405 . S
C1933 C1940 1.448 . S
N1934 C1933 1.365 . S
N1934 C1937 1.319 . S
N1934 Eu1943 2.600 . S
C1935 C1937 1.397 . S
C1935 C1938 1.367 . S
C1935 H1955 0.931 . S
C1936 C1933 1.405 . S
C1936 C1938 1.403 . S
C1936 C1942 1.439 . S
C1937 N1934 1.319 . S
C1937 C1935 1.397 . S
C1937 H1948 0.930 . S
C1938 C1935 1.367 . S
C1938 C1936 1.403 . S
C1938 H1959 0.929 . S
C1939 C1940 1.430 . S
C1939 C1941 1.387 . S
C1939 C1945 1.404 . S
C1940 C1933 1.448 . S
C1940 C1939 1.430 . S
C1940 N1944 1.351 . S
C1941 C1939 1.387 . S
C1941 C1942 1.374 . S
C1941 H1956 0.931 . S
C1942 C1936 1.439 . S
C1942 C1941 1.374 . S
C1942 H1957 0.931 . S
Eu1943 N1934 2.600 . S
Eu1943 N1944 2.562 . S
Eu1943 O1978 2.335 . S
Eu1943 O1981 2.372 . S
Eu1943 O1982 2.462 . S
Eu1943 O1983 2.373 . S
Eu1943 O1985 2.432 . S
Eu1943 O1986 2.291 . S
Eu1943 C2007 2.787 . S
N1944 C1940 1.351 . S
N1944 Eu1943 2.562 . S
N1944 C1946 1.325 . S
C1945 C1939 1.404 . S
C1945 C1947 1.366 . S
C1945 H1953 0.930 . S
C1946 N1944 1.325 . S
C1946 C1947 1.416 . S
C1946 H1952 0.929 . S
C1947 C1945 1.366 . S
C1947 C1946 1.416 . S
C1947 H1949 0.930 . S
H1948 C1937 0.930 . S
H1949 C1947 0.930 . S
H1950 C1965 0.930 . S
H1951 C1972 0.930 . S
H1952 C1946 0.929 . S
H1953 C1945 0.930 . S
H1954 C1968 0.929 . S
H1955 C1935 0.931 . S
H1956 C1941 0.931 . S
H1957 C1942 0.931 . S
H1958 C1963 0.931 . S
H1959 C1938 0.929 . S
H1960 C1971 0.930 . S
N1961 Eu1932 2.600 . S
N1961 C1962 1.365 . S
N1961 C1965 1.319 . S
C1962 N1961 1.365 . S
C1962 C1964 1.405 . S
C1962 C1970 1.448 . S
C1963 H1958 0.931 . S
C1963 C1965 1.397 . S
C1963 C1966 1.367 . S
C1964 C1962 1.405 . S
C1964 C1966 1.403 . S
C1964 C1997 1.439 . S
C1965 H1950 0.930 . S
C1965 N1961 1.319 . S
C1965 C1963 1.397 . S
C1966 C1963 1.367 . S
C1966 C1964 1.403 . S
C1966 H1973 0.929 . S
N1967 Eu1932 2.562 . S
N1967 C1968 1.325 . S
N1967 C1970 1.351 . S
C1968 H1954 0.929 . S
C1968 N1967 1.325 . S
C1968 C1972 1.416 . S
C1969 C1970 1.430 . S
C1969 C1971 1.404 . S
C1969 C1998 1.387 . S
C1970 C1962 1.448 . S
C1970 N1967 1.351 . S
C1970 C1969 1.430 . S
C1971 H1960 0.930 . S
C1971 C1969 1.404 . S
C1971 C1972 1.366 . S
C1972 H1951 0.930 . S
C1972 C1968 1.416 . S
C1972 C1971 1.366 . S
H1973 C1966 0.929 . S
H1974 C1997 0.931 . S
H1975 C1998 0.931 . S
O1976 Eu1932 2.462 . S
O1976 C1996 1.252 . S
O1977 Eu1932 2.373 . S
O1977 C1988 1.249 . S
O1978 Eu1943 2.335 . S
O1978 C1988 1.264 . S
O1979 Eu1932 2.432 . S
O1979 C1996 1.268 . S
O1980 Eu1932 2.291 . S
O1980 C1995 1.255 . S
O1981 Eu1943 2.372 . S
O1981 C1995 1.257 . S
O1982 Eu1943 2.462 . S
O1982 C2007 1.252 . S
O1983 Eu1943 2.373 . S
O1983 C1999 1.249 . S
O1984 Eu1932 2.335 . S
O1984 C1999 1.264 . S
O1985 Eu1943 2.432 . S
O1985 C2007 1.268 . S
O1986 Eu1943 2.291 . S
O1986 C2006 1.255 . S
O1987 Eu1932 2.372 . S
O1987 C2006 1.257 . S
C1988 O1977 1.249 . S
C1988 O1978 1.264 . S
C1989 C1992 1.382 . S
C1989 C1994 1.390 . S
C1989 C1996 1.506 . S
C1990 C1991 1.398 . S
C1990 C1994 1.392 . S
C1991 C1990 1.398 . S
C1991 C1993 1.372 . S
C1991 H2008 0.931 . S
C1992 C1989 1.382 . S
C1992 C1993 1.390 . S
C1992 H2009 0.931 . S
C1993 C1991 1.372 . S
C1993 C1992 1.390 . S
C1993 H2010 0.929 . S
C1994 C1989 1.390 . S
C1994 C1990 1.392 . S
C1994 H2011 0.930 . S
C1995 O1980 1.255 . S
C1995 O1981 1.257 . S
C1996 Eu1932 2.787 . S
C1996 O1976 1.252 . S
C1996 O1979 1.268 . S
C1996 C1989 1.506 . S
C1997 C1964 1.439 . S
C1997 H1974 0.931 . S
C1997 C1998 1.374 . S
C1998 C1969 1.387 . S
C1998 H1975 0.931 . S
C1998 C1997 1.374 . S
C1999 O1983 1.249 . S
C1999 O1984 1.264 . S
C2000 C2003 1.382 . S
C2000 C2004 1.390 . S
C2000 C2007 1.506 . S
C2001 C2002 1.398 . S
C2001 C2004 1.392 . S
C2002 C2001 1.398 . S
C2002 C2005 1.372 . S
C2002 H2012 0.931 . S
C2003 C2000 1.382 . S
C2003 C2005 1.390 . S
C2003 H2013 0.931 . S
C2004 C2000 1.390 . S
C2004 C2001 1.392 . S
C2004 H2014 0.930 . S
C2005 C2002 1.372 . S
C2005 C2003 1.390 . S
C2005 H2015 0.929 . S
C2006 O1986 1.255 . S
C2006 O1987 1.257 . S
C2007 Eu1943 2.787 . S
C2007 O1982 1.252 . S
C2007 O1985 1.268 . S
C2007 C2000 1.506 . S
H2008 C1991 0.931 . S
H2009 C1992 0.931 . S
H2010 C1993 0.929 . S
H2011 C1994 0.930 . S
H2012 C2002 0.931 . S
H2013 C2003 0.931 . S
H2014 C2004 0.930 . S
H2015 C2005 0.929 . S
H2016 C2022 0.930 . S
H2017 C2026 0.930 . S
H2018 C2031 0.929 . S
H2019 C2029 0.929 . S
H2020 C2024 0.929 . S
H2021 C2030 0.929 . S
C2022 H2016 0.930 . S
C2022 C2023 1.367 . S
C2022 C2030 1.378 . S
C2023 C2022 1.367 . S
C2023 C2031 1.433 . S
C2024 H2020 0.929 . S
C2024 C2026 1.378 . S
C2024 C2028 1.350 . S
C2025 C2028 1.463 . S
C2025 C2030 1.350 . S
C2025 N2033 1.427 . S
C2026 H2017 0.930 . S
C2026 C2024 1.378 . S
C2026 C2027 1.367 . S
C2027 C2026 1.367 . S
C2027 C2029 1.433 . S
C2028 C2024 1.350 . S
C2028 C2025 1.463 . S
C2028 N2032 1.427 . S
C2029 H2019 0.929 . S
C2029 C2027 1.433 . S
C2029 N2032 1.384 . S
C2030 H2021 0.929 . S
C2030 C2022 1.378 . S
C2030 C2025 1.350 . S
C2031 H2018 0.929 . S
C2031 C2023 1.433 . S
C2031 N2033 1.384 . S
N2032 C2028 1.427 . S
N2032 C2029 1.384 . S
N2033 C2025 1.427 . S
N2033 C2031 1.384 . S
H2034 C2040 0.930 . S
H2035 C2044 0.930 . S
H2036 C2049 0.929 . S
H2037 C2047 0.929 . S
H2038 C2042 0.929 . S
H2039 C2048 0.900 1_455 S
C2040 H2034 0.930 . S
C2040 C2041 1.367 . S
C2040 C2048 1.378 . S
C2041 C2040 1.367 . S
C2041 C2049 1.433 . S
C2042 H2038 0.929 . S
C2042 C2044 1.378 . S
C2042 C2046 1.350 . S
C2043 C2046 1.463 . S
C2043 C2048 1.350 . S
C2043 N2051 1.427 . S
C2044 H2035 0.930 . S
C2044 C2042 1.378 . S
C2044 C2045 1.367 . S
C2045 C2044 1.367 . S
C2045 C2047 1.433 1_655 S
C2046 C2042 1.350 . S
C2046 C2043 1.463 . S
C2046 N2050 1.427 1_655 S
C2047 H2037 0.929 . S
C2047 C2045 1.433 1_455 S
C2047 N2050 1.384 . S
C2048 H2039 0.900 1_655 S
C2048 C2040 1.378 . S
C2048 C2043 1.350 . S
C2049 H2036 0.929 . S
C2049 C2041 1.433 . S
C2049 N2051 1.384 . S
N2050 C2046 1.427 1_455 S
N2050 C2047 1.384 . S
N2051 C2043 1.427 . S
N2051 C2049 1.384 . S
H2052 C2058 0.930 . S
H2053 C2062 0.930 . S
H2054 C2067 0.929 . S
H2055 C2065 0.929 . S
H2056 C2060 0.929 . S
H2057 C2066 0.929 . S
C2058 H2052 0.930 . S
C2058 C2059 1.367 . S
C2058 C2066 1.378 . S
C2059 C2058 1.367 . S
C2059 C2067 1.433 . S
C2060 H2056 0.929 . S
C2060 C2062 1.378 . S
C2060 C2064 1.350 . S
C2061 C2064 1.463 . S
C2061 C2066 1.350 . S
C2061 N2069 1.427 . S
C2062 H2053 0.930 . S
C2062 C2060 1.378 . S
C2062 C2063 1.367 . S
C2063 C2062 1.367 . S
C2063 C2065 1.433 . S
C2064 C2060 1.350 . S
C2064 C2061 1.463 . S
C2064 N2068 1.427 . S
C2065 H2055 0.929 . S
C2065 C2063 1.433 . S
C2065 N2068 1.384 . S
C2066 H2057 0.929 . S
C2066 C2058 1.378 . S
C2066 C2061 1.350 . S
C2067 H2054 0.929 . S
C2067 C2059 1.433 . S
C2067 N2069 1.384 . S
N2068 C2064 1.427 . S
N2068 C2065 1.384 . S
N2069 C2061 1.427 . S
N2069 C2067 1.384 . S
H2070 C2076 0.930 . S
H2071 C2080 0.930 . S
H2072 C2085 0.929 . S
H2073 C2083 0.929 . S
H2074 C2078 0.929 . S
H2075 C2084 0.929 . S
C2076 H2070 0.930 . S
C2076 C2077 1.367 . S
C2076 C2084 1.378 . S
C2077 C2076 1.367 . S
C2077 C2085 1.433 . S
C2078 H2074 0.929 . S
C2078 C2080 1.378 . S
C2078 C2082 1.350 . S
C2079 C2082 1.463 . S
C2079 C2084 1.350 . S
C2079 N2087 1.427 . S
C2080 H2071 0.930 . S
C2080 C2078 1.378 . S
C2080 C2081 1.367 . S
C2081 C2080 1.367 . S
C2081 C2083 1.433 . S
C2082 C2078 1.350 . S
C2082 C2079 1.463 . S
C2082 N2086 1.427 . S
C2083 H2073 0.929 . S
C2083 C2081 1.433 . S
C2083 N2086 1.384 . S
C2084 H2075 0.929 . S
C2084 C2076 1.378 . S
C2084 C2079 1.350 . S
C2085 H2072 0.929 . S
C2085 C2077 1.433 . S
C2085 N2087 1.384 . S
N2086 C2082 1.427 . S
N2086 C2083 1.384 . S
N2087 C2079 1.427 . S
N2087 C2085 1.384 . S
H2088 C2094 0.930 . S
H2089 C2098 0.930 . S
H2090 C2103 0.929 . S
H2091 C2101 0.929 . S
H2092 C2096 0.929 . S
H2093 C2102 0.929 . S
C2094 H2088 0.930 . S
C2094 C2095 1.367 . S
C2094 C2102 1.378 . S
C2095 C2094 1.367 . S
C2095 C2103 1.433 . S
C2096 H2092 0.929 . S
C2096 C2098 1.378 . S
C2096 C2100 1.350 . S
C2097 C2100 1.463 . S
C2097 C2102 1.350 . S
C2097 N2105 1.427 . S
C2098 H2089 0.930 . S
C2098 C2096 1.378 . S
C2098 C2099 1.367 . S
C2099 C2098 1.367 . S
C2099 C2101 1.433 . S
C2100 C2096 1.350 . S
C2100 C2097 1.463 . S
C2100 N2104 1.427 . S
C2101 H2091 0.929 . S
C2101 C2099 1.433 . S
C2101 N2104 1.384 . S
C2102 H2093 0.929 . S
C2102 C2094 1.378 . S
C2102 C2097 1.350 . S
C2103 H2090 0.929 . S
C2103 C2095 1.433 . S
C2103 N2105 1.384 . S
N2104 C2100 1.427 . S
N2104 C2101 1.384 . S
N2105 C2097 1.427 . S
N2105 C2103 1.384 . S
H2106 C2112 0.930 . S
H2107 C2116 0.930 . S
H2108 C2121 0.929 . S
H2109 C2119 0.929 . S
H2110 C2114 0.929 . S
H2111 C2120 0.929 . S
C2112 H2106 0.930 . S
C2112 C2113 1.367 . S
C2112 C2120 1.378 . S
C2113 C2112 1.367 . S
C2113 C2121 1.433 . S
C2114 H2110 0.929 . S
C2114 C2116 1.378 . S
C2114 C2118 1.350 . S
C2115 C2118 1.463 . S
C2115 C2120 1.350 . S
C2115 N2123 1.427 . S
C2116 H2107 0.930 . S
C2116 C2114 1.378 . S
C2116 C2117 1.367 . S
C2117 C2116 1.367 . S
C2117 C2119 1.433 . S
C2118 C2114 1.350 . S
C2118 C2115 1.463 . S
C2118 N2122 1.427 . S
C2119 H2109 0.929 . S
C2119 C2117 1.433 . S
C2119 N2122 1.384 . S
C2120 H2111 0.929 . S
C2120 C2112 1.378 . S
C2120 C2115 1.350 . S
C2121 H2108 0.929 . S
C2121 C2113 1.433 . S
C2121 N2123 1.384 . S
N2122 C2118 1.427 . S
N2122 C2119 1.384 . S
N2123 C2115 1.427 . S
N2123 C2121 1.384 . S
H2124 C2130 0.930 . S
H2125 C2134 0.930 . S
H2126 C2139 0.929 . S
H2127 C2137 0.929 . S
H2128 C2132 0.929 . S
H2129 C2138 0.929 . S
C2130 H2124 0.930 . S
C2130 C2131 1.367 . S
C2130 C2138 1.378 . S
C2131 C2130 1.367 . S
C2131 C2139 1.433 . S
C2132 H2128 0.929 . S
C2132 C2134 1.378 . S
C2132 C2136 1.350 . S
C2133 C2136 1.463 . S
C2133 C2138 1.350 . S
C2133 N2141 1.427 . S
C2134 H2125 0.930 . S
C2134 C2132 1.378 . S
C2134 C2135 1.367 . S
C2135 C2134 1.367 . S
C2135 C2137 1.433 . S
C2136 C2132 1.350 . S
C2136 C2133 1.463 . S
C2136 N2140 1.427 . S
C2137 H2127 0.929 . S
C2137 C2135 1.433 . S
C2137 N2140 1.384 . S
C2138 H2129 0.929 . S
C2138 C2130 1.378 . S
C2138 C2133 1.350 . S
C2139 H2126 0.929 . S
C2139 C2131 1.433 . S
C2139 N2141 1.384 . S
N2140 C2136 1.427 . S
N2140 C2137 1.384 . S
N2141 C2133 1.427 . S
N2141 C2139 1.384 . S
H2142 C2148 0.930 . S
H2143 C2152 0.930 . S
H2144 C2157 0.929 . S
H2145 C2155 0.929 1_556 S
H2146 C2150 0.929 . S
H2147 C2156 0.929 . S
C2148 H2142 0.930 . S
C2148 C2149 1.367 1_556 S
C2148 C2156 1.378 . S
C2149 C2148 1.367 1_554 S
C2149 C2157 1.433 . S
C2150 H2146 0.929 . S
C2150 C2152 1.378 . S
C2150 C2154 1.350 . S
C2151 C2154 1.463 . S
C2151 C2156 1.350 1_554 S
C2151 N2159 1.427 . S
C2152 H2143 0.930 . S
C2152 C2150 1.378 . S
C2152 C2153 1.367 . S
C2153 C2152 1.367 . S
C2153 C2155 1.433 . S
C2154 C2150 1.350 . S
C2154 C2151 1.463 . S
C2154 N2158 1.427 . S
C2155 H2145 0.929 1_554 S
C2155 C2153 1.433 . S
C2155 N2158 1.383 . S
C2156 H2147 0.929 . S
C2156 C2148 1.378 . S
C2156 C2151 1.350 1_556 S
C2157 H2144 0.929 . S
C2157 C2149 1.433 . S
C2157 N2159 1.384 . S
N2158 C2154 1.427 . S
N2158 C2155 1.383 . S
N2159 C2151 1.427 . S
N2159 C2157 1.384 . S
H2160 C2166 0.930 . S
H2161 C2170 0.930 . S
H2162 C2175 0.929 . S
H2163 C2173 0.929 . S
H2164 C2168 0.929 . S
H2165 C2174 0.929 . S
C2166 H2160 0.930 . S
C2166 C2167 1.367 . S
C2166 C2174 1.378 . S
C2167 C2166 1.367 . S
C2167 C2175 1.433 1_545 S
C2168 H2164 0.929 . S
C2168 C2170 1.378 . S
C2168 C2172 1.350 1_565 S
C2169 C2172 1.463 . S
C2169 C2174 1.350 . S
C2169 N2177 1.427 1_545 S
C2170 H2161 0.930 . S
C2170 C2168 1.378 . S
C2170 C2171 1.367 1_565 S
C2171 C2170 1.367 1_545 S
C2171 C2173 1.433 . S
C2172 C2168 1.350 1_545 S
C2172 C2169 1.463 . S
C2172 N2176 1.427 . S
C2173 H2163 0.929 . S
C2173 C2171 1.433 . S
C2173 N2176 1.384 . S
C2174 H2165 0.929 . S
C2174 C2166 1.378 . S
C2174 C2169 1.350 . S
C2175 H2162 0.929 . S
C2175 C2167 1.433 1_565 S
C2175 N2177 1.384 . S
N2176 C2172 1.427 . S
N2176 C2173 1.384 . S
N2177 C2169 1.427 1_565 S
N2177 C2175 1.384 . S
H2178 C2184 0.930 . S
H2179 C2188 0.930 . S
H2180 C2193 0.929 . S
H2181 C2191 0.929 . S
H2182 C2186 0.929 . S
H2183 C2192 0.929 . S
C2184 H2178 0.930 . S
C2184 C2185 1.367 . S
C2184 C2192 1.378 . S
C2185 C2184 1.367 . S
C2185 C2193 1.433 . S
C2186 H2182 0.929 . S
C2186 C2188 1.378 . S
C2186 C2190 1.350 . S
C2187 C2190 1.463 . S
C2187 C2192 1.350 . S
C2187 N2195 1.427 . S
C2188 H2179 0.930 . S
C2188 C2186 1.378 . S
C2188 C2189 1.367 . S
C2189 C2188 1.367 . S
C2189 C2191 1.433 . S
C2190 C2186 1.350 . S
C2190 C2187 1.463 . S
C2190 N2194 1.427 . S
C2191 H2181 0.929 . S
C2191 C2189 1.433 . S
C2191 N2194 1.384 . S
C2192 H2183 0.929 . S
C2192 C2184 1.378 . S
C2192 C2187 1.350 . S
C2193 H2180 0.929 . S
C2193 C2185 1.433 . S
C2193 N2195 1.384 . S
N2194 C2190 1.427 . S
N2194 C2191 1.384 . S
N2195 C2187 1.427 . S
N2195 C2193 1.384 . S
H2196 C2202 0.930 . S
H2197 C2206 0.930 1_545 S
H2198 C2211 0.929 . S
H2199 C2209 0.929 . S
H2200 C2204 0.936 . S
H2201 C2210 0.929 . S
C2202 H2196 0.930 . S
C2202 C2203 1.367 . S
C2202 C2210 1.378 . S
C2203 C2202 1.367 . S
C2203 C2211 1.433 . S
C2204 H2200 0.936 . S
C2204 C2206 1.378 . S
C2204 C2208 1.350 . S
C2205 C2208 1.463 . S
C2205 C2210 1.350 . S
C2205 N2213 1.427 . S
C2206 H2197 0.930 1_565 S
C2206 C2204 1.378 . S
C2206 C2207 1.367 . S
C2207 C2206 1.367 . S
C2207 C2209 1.433 . S
C2208 C2204 1.350 . S
C2208 C2205 1.463 . S
C2208 N2212 1.427 . S
C2209 H2199 0.929 . S
C2209 C2207 1.433 . S
C2209 N2212 1.384 . S
C2210 H2201 0.929 . S
C2210 C2202 1.378 . S
C2210 C2205 1.350 . S
C2211 H2198 0.929 . S
C2211 C2203 1.433 . S
C2211 N2213 1.384 . S
N2212 C2208 1.427 . S
N2212 C2209 1.384 . S
N2213 C2205 1.427 . S
N2213 C2211 1.384 . S
H2214 C2220 0.930 . S
H2215 C2224 0.930 . S
H2216 C2229 0.929 . S
H2217 C2227 0.929 . S
H2218 C2222 0.929 . S
H2219 C2228 0.929 . S
C2220 H2214 0.930 . S
C2220 C2221 1.367 . S
C2220 C2228 1.378 . S
C2221 C2220 1.367 . S
C2221 C2229 1.433 . S
C2222 H2218 0.929 . S
C2222 C2224 1.378 . S
C2222 C2226 1.350 . S
C2223 C2226 1.463 . S
C2223 C2228 1.350 . S
C2223 N2231 1.427 . S
C2224 H2215 0.930 . S
C2224 C2222 1.378 . S
C2224 C2225 1.367 . S
C2225 C2224 1.367 . S
C2225 C2227 1.433 . S
C2226 C2222 1.350 . S
C2226 C2223 1.463 . S
C2226 N2230 1.427 . S
C2227 H2217 0.929 . S
C2227 C2225 1.433 . S
C2227 N2230 1.384 . S
C2228 H2219 0.929 . S
C2228 C2220 1.378 . S
C2228 C2223 1.350 . S
C2229 H2216 0.929 . S
C2229 C2221 1.433 . S
C2229 N2231 1.384 . S
N2230 C2226 1.427 . S
N2230 C2227 1.384 . S
N2231 C2223 1.427 . S
N2231 C2229 1.384 . S
H2232 C2238 0.930 . S
H2233 C2242 0.930 . S
H2234 C2247 0.929 . S
H2235 C2245 0.929 . S
H2236 C2240 0.929 . S
H2237 C2246 0.929 . S
C2238 H2232 0.930 . S
C2238 C2239 1.367 . S
C2238 C2246 1.378 . S
C2239 C2238 1.367 . S
C2239 C2247 1.433 . S
C2240 H2236 0.929 . S
C2240 C2242 1.378 . S
C2240 C2244 1.350 . S
C2241 C2244 1.463 . S
C2241 C2246 1.350 . S
C2241 N2249 1.427 . S
C2242 H2233 0.930 . S
C2242 C2240 1.378 . S
C2242 C2243 1.367 . S
C2243 C2242 1.367 . S
C2243 C2245 1.433 . S
C2244 C2240 1.350 . S
C2244 C2241 1.463 . S
C2244 N2248 1.427 . S
C2245 H2235 0.929 . S
C2245 C2243 1.433 . S
C2245 N2248 1.384 . S
C2246 H2237 0.929 . S
C2246 C2238 1.378 . S
C2246 C2241 1.350 . S
C2247 H2234 0.929 . S
C2247 C2239 1.433 . S
C2247 N2249 1.384 . S
N2248 C2244 1.427 . S
N2248 C2245 1.384 . S
N2249 C2241 1.427 . S
N2249 C2247 1.384 . S
H2250 C2256 0.930 . S
H2251 C2260 0.930 . S
H2252 C2265 0.929 . S
H2253 C2263 0.929 . S
H2254 C2258 0.929 . S
H2255 C2264 0.929 . S
C2256 H2250 0.930 . S
C2256 C2257 1.367 . S
C2256 C2264 1.378 . S
C2257 C2256 1.367 . S
C2257 C2265 1.433 . S
C2258 H2254 0.929 . S
C2258 C2260 1.378 . S
C2258 C2262 1.350 . S
C2259 C2262 1.463 . S
C2259 C2264 1.350 . S
C2259 N2267 1.427 . S
C2260 H2251 0.930 . S
C2260 C2258 1.378 . S
C2260 C2261 1.367 . S
C2261 C2260 1.367 . S
C2261 C2263 1.433 . S
C2262 C2258 1.350 . S
C2262 C2259 1.463 . S
C2262 N2266 1.427 . S
C2263 H2253 0.929 . S
C2263 C2261 1.433 . S
C2263 N2266 1.384 . S
C2264 H2255 0.929 . S
C2264 C2256 1.378 . S
C2264 C2259 1.350 . S
C2265 H2252 0.929 . S
C2265 C2257 1.433 . S
C2265 N2267 1.384 . S
N2266 C2262 1.427 . S
N2266 C2263 1.384 . S
N2267 C2259 1.427 . S
N2267 C2265 1.384 . S
H2268 C2274 0.930 . S
H2269 C2278 0.930 . S
H2270 C2283 0.929 . S
H2271 C2281 0.929 . S
H2272 C2276 0.929 . S
H2273 C2282 0.929 . S
C2274 H2268 0.930 . S
C2274 C2275 1.367 . S
C2274 C2282 1.378 . S
C2275 C2274 1.367 . S
C2275 C2283 1.433 . S
C2276 H2272 0.929 . S
C2276 C2278 1.378 . S
C2276 C2280 1.350 . S
C2277 C2280 1.463 . S
C2277 C2282 1.350 . S
C2277 N2285 1.427 . S
C2278 H2269 0.930 . S
C2278 C2276 1.378 . S
C2278 C2279 1.367 . S
C2279 C2278 1.367 . S
C2279 C2281 1.433 . S
C2280 C2276 1.350 . S
C2280 C2277 1.463 . S
C2280 N2284 1.427 . S
C2281 H2271 0.929 . S
C2281 C2279 1.433 . S
C2281 N2284 1.384 . S
C2282 H2273 0.929 . S
C2282 C2274 1.378 . S
C2282 C2277 1.350 . S
C2283 H2270 0.929 . S
C2283 C2275 1.433 . S
C2283 N2285 1.384 . S
N2284 C2280 1.427 . S
N2284 C2281 1.384 . S
N2285 C2277 1.427 . S
N2285 C2283 1.384 . S
H2286 C2292 0.930 . S
H2287 C2296 0.930 . S
H2288 C2301 0.929 . S
H2289 C2299 0.929 . S
H2290 C2294 0.929 . S
H2291 C2300 0.929 . S
C2292 H2286 0.930 . S
C2292 C2293 1.367 . S
C2292 C2300 1.378 . S
C2293 C2292 1.367 . S
C2293 C2301 1.433 . S
C2294 H2290 0.929 . S
C2294 C2296 1.378 . S
C2294 C2298 1.350 . S
C2295 C2298 1.463 . S
C2295 C2300 1.350 . S
C2295 N2303 1.427 . S
C2296 H2287 0.930 . S
C2296 C2294 1.378 . S
C2296 C2297 1.367 . S
C2297 C2296 1.367 . S
C2297 C2299 1.433 . S
C2298 C2294 1.350 . S
C2298 C2295 1.463 . S
C2298 N2302 1.427 . S
C2299 H2289 0.929 . S
C2299 C2297 1.433 . S
C2299 N2302 1.384 . S
C2300 H2291 0.929 . S
C2300 C2292 1.378 . S
C2300 C2295 1.350 . S
C2301 H2288 0.929 . S
C2301 C2293 1.433 . S
C2301 N2303 1.384 . S
N2302 C2298 1.427 . S
N2302 C2299 1.384 . S
N2303 C2295 1.427 . S
N2303 C2301 1.384 . S
H2304 C2310 0.930 . S
H2305 C2314 0.930 . S
H2306 C2319 0.929 . S
H2307 C2317 0.929 . S
H2308 C2312 0.929 . S
H2309 C2318 0.929 . S
C2310 H2304 0.930 . S
C2310 C2311 1.367 . S
C2310 C2318 1.378 . S
C2311 C2310 1.367 . S
C2311 C2319 1.433 . S
C2312 H2308 0.929 . S
C2312 C2314 1.378 . S
C2312 C2316 1.350 . S
C2313 C2316 1.463 . S
C2313 C2318 1.350 . S
C2313 N2321 1.427 . S
C2314 H2305 0.930 . S
C2314 C2312 1.378 . S
C2314 C2315 1.367 . S
C2315 C2314 1.367 . S
C2315 C2317 1.433 . S
C2316 C2312 1.350 . S
C2316 C2313 1.463 . S
C2316 N2320 1.427 . S
C2317 H2307 0.929 . S
C2317 C2315 1.433 . S
C2317 N2320 1.384 . S
C2318 H2309 0.929 . S
C2318 C2310 1.378 . S
C2318 C2313 1.350 . S
C2319 H2306 0.929 . S
C2319 C2311 1.433 . S
C2319 N2321 1.384 . S
N2320 C2316 1.427 . S
N2320 C2317 1.384 . S
N2321 C2313 1.427 . S
N2321 C2319 1.384 . S
H2322 C2328 0.930 . S
H2323 C2332 0.930 . S
H2324 C2337 0.929 . S
H2325 C2335 0.929 . S
H2326 C2330 0.929 . S
H2327 C2336 0.929 . S
C2328 H2322 0.930 . S
C2328 C2329 1.367 . S
C2328 C2336 1.378 . S
C2329 C2328 1.367 . S
C2329 C2337 1.433 . S
C2330 H2326 0.929 . S
C2330 C2332 1.378 . S
C2330 C2334 1.350 . S
C2331 C2334 1.463 . S
C2331 C2336 1.350 . S
C2331 N2339 1.427 . S
C2332 H2323 0.930 . S
C2332 C2330 1.378 . S
C2332 C2333 1.367 . S
C2333 C2332 1.367 . S
C2333 C2335 1.433 . S
C2334 C2330 1.350 . S
C2334 C2331 1.463 . S
C2334 N2338 1.427 . S
C2335 H2325 0.929 . S
C2335 C2333 1.433 . S
C2335 N2338 1.384 . S
C2336 H2327 0.929 . S
C2336 C2328 1.378 . S
C2336 C2331 1.350 . S
C2337 H2324 0.929 . S
C2337 C2329 1.433 . S
C2337 N2339 1.384 . S
N2338 C2334 1.427 . S
N2338 C2335 1.384 . S
N2339 C2331 1.427 . S
N2339 C2337 1.384 . S
H2340 C2346 0.930 . S
H2341 C2350 0.930 . S
H2342 C2355 0.929 . S
H2343 C2353 0.929 . S
H2344 C2348 0.929 . S
H2345 C2354 0.929 . S
C2346 H2340 0.930 . S
C2346 C2347 1.367 . S
C2346 C2354 1.378 . S
C2347 C2346 1.367 . S
C2347 C2355 1.433 . S
C2348 H2344 0.929 . S
C2348 C2350 1.378 . S
C2348 C2352 1.350 . S
C2349 C2352 1.463 . S
C2349 C2354 1.350 . S
C2349 N2357 1.427 . S
C2350 H2341 0.930 . S
C2350 C2348 1.378 . S
C2350 C2351 1.367 . S
C2351 C2350 1.367 . S
C2351 C2353 1.433 . S
C2352 C2348 1.350 . S
C2352 C2349 1.463 . S
C2352 N2356 1.427 . S
C2353 H2343 0.929 . S
C2353 C2351 1.433 . S
C2353 N2356 1.384 . S
C2354 H2345 0.929 . S
C2354 C2346 1.378 . S
C2354 C2349 1.350 . S
C2355 H2342 0.929 . S
C2355 C2347 1.433 . S
C2355 N2357 1.384 . S
N2356 C2352 1.427 . S
N2356 C2353 1.384 . S
N2357 C2349 1.427 . S
N2357 C2355 1.384 . S
H2358 C2364 0.930 . S
H2359 C2368 0.930 . S
H2360 C2373 0.929 1_655 S
H2361 C2371 0.929 . S
H2362 C2366 0.929 . S
H2363 C2372 0.929 . S
C2364 H2358 0.930 . S
C2364 C2365 1.367 . S
C2364 C2372 1.378 . S
C2365 C2364 1.367 . S
C2365 C2373 1.433 . S
C2366 H2362 0.929 . S
C2366 C2368 1.378 . S
C2366 C2370 1.350 1_655 S
C2367 C2370 1.463 . S
C2367 C2372 1.350 . S
C2367 N2375 1.433 . S
C2368 H2359 0.930 . S
C2368 C2366 1.378 . S
C2368 C2369 1.367 1_655 S
C2369 C2368 1.367 1_455 S
C2369 C2371 1.433 . S
C2370 C2366 1.350 1_455 S
C2370 C2367 1.463 . S
C2370 N2374 1.427 . S
C2371 H2361 0.929 . S
C2371 C2369 1.433 . S
C2371 N2374 1.384 . S
C2372 H2363 0.929 . S
C2372 C2364 1.378 . S
C2372 C2367 1.350 . S
C2373 H2360 0.929 1_455 S
C2373 C2365 1.433 . S
C2373 N2375 1.385 . S
N2374 C2370 1.427 . S
N2374 C2371 1.384 . S
N2375 C2367 1.433 . S
N2375 C2373 1.385 . S
H2376 C2382 0.930 . S
H2377 C2386 0.930 . S
H2378 C2391 0.929 . S
H2379 C2389 0.929 . S
H2380 C2384 0.929 . S
H2381 C2390 0.929 . S
C2382 H2376 0.930 . S
C2382 C2383 1.367 . S
C2382 C2390 1.378 . S
C2383 C2382 1.367 . S
C2383 C2391 1.433 . S
C2384 H2380 0.929 . S
C2384 C2386 1.378 . S
C2384 C2388 1.350 . S
C2385 C2388 1.463 . S
C2385 C2390 1.350 . S
C2385 N2393 1.427 . S
C2386 H2377 0.930 . S
C2386 C2384 1.378 . S
C2386 C2387 1.367 . S
C2387 C2386 1.367 . S
C2387 C2389 1.433 . S
C2388 C2384 1.350 . S
C2388 C2385 1.463 . S
C2388 N2392 1.427 . S
C2389 H2379 0.929 . S
C2389 C2387 1.433 . S
C2389 N2392 1.384 . S
C2390 H2381 0.929 . S
C2390 C2382 1.378 . S
C2390 C2385 1.350 . S
C2391 H2378 0.929 . S
C2391 C2383 1.433 . S
C2391 N2393 1.384 . S
N2392 C2388 1.427 . S
N2392 C2389 1.384 . S
N2393 C2385 1.427 . S
N2393 C2391 1.384 . S
H2394 C2400 0.930 . S
H2395 C2404 0.930 . S
H2396 C2409 0.929 . S
H2397 C2407 0.929 . S
H2398 C2402 0.929 . S
H2399 C2408 0.929 . S
C2400 H2394 0.930 . S
C2400 C2401 1.367 . S
C2400 C2408 1.378 . S
C2401 C2400 1.367 . S
C2401 C2409 1.433 . S
C2402 H2398 0.929 . S
C2402 C2404 1.378 . S
C2402 C2406 1.350 . S
C2403 C2406 1.463 . S
C2403 C2408 1.350 . S
C2403 N2411 1.427 . S
C2404 H2395 0.930 . S
C2404 C2402 1.378 . S
C2404 C2405 1.367 . S
C2405 C2404 1.367 . S
C2405 C2407 1.433 . S
C2406 C2402 1.350 . S
C2406 C2403 1.463 . S
C2406 N2410 1.427 . S
C2407 H2397 0.929 . S
C2407 C2405 1.433 . S
C2407 N2410 1.384 . S
C2408 H2399 0.929 . S
C2408 C2400 1.378 . S
C2408 C2403 1.350 . S
C2409 H2396 0.929 . S
C2409 C2401 1.433 . S
C2409 N2411 1.384 . S
N2410 C2406 1.427 . S
N2410 C2407 1.384 . S
N2411 C2403 1.427 . S
N2411 C2409 1.384 . S
H2412 C2418 0.930 . S
H2413 C2422 0.928 1_554 S
H2414 C2427 0.929 . S
H2415 C2425 0.929 . S
H2416 C2420 0.929 . S
H2417 C2426 0.929 . S
C2418 H2412 0.930 . S
C2418 C2419 1.367 . S
C2418 C2426 1.378 . S
C2419 C2418 1.367 . S
C2419 C2427 1.433 1_556 S
C2420 H2416 0.929 . S
C2420 C2422 1.377 1_554 S
C2420 C2424 1.350 1_554 S
C2421 C2424 1.463 . S
C2421 C2426 1.350 . S
C2421 N2429 1.427 1_556 S
C2422 H2413 0.928 1_556 S
C2422 C2420 1.377 1_556 S
C2422 C2423 1.370 . S
C2423 C2422 1.370 . S
C2423 C2425 1.433 . S
C2424 C2420 1.350 1_556 S
C2424 C2421 1.463 . S
C2424 N2428 1.427 . S
C2425 H2415 0.929 . S
C2425 C2423 1.433 . S
C2425 N2428 1.384 . S
C2426 H2417 0.929 . S
C2426 C2418 1.378 . S
C2426 C2421 1.350 . S
C2427 H2414 0.929 . S
C2427 C2419 1.433 1_554 S
C2427 N2429 1.384 . S
N2428 C2424 1.427 . S
N2428 C2425 1.384 . S
N2429 C2421 1.427 1_554 S
N2429 C2427 1.384 . S
H2430 C2436 0.930 . S
H2431 C2440 0.930 . S
H2432 C2445 0.929 . S
H2433 C2443 0.929 . S
H2434 C2438 0.929 . S
H2435 C2444 0.929 . S
C2436 H2430 0.930 . S
C2436 C2437 1.367 . S
C2436 C2444 1.378 . S
C2437 C2436 1.367 . S
C2437 C2445 1.433 . S
C2438 H2434 0.929 . S
C2438 C2440 1.378 . S
C2438 C2442 1.350 . S
C2439 C2442 1.463 . S
C2439 C2444 1.350 . S
C2439 N2447 1.427 . S
C2440 H2431 0.930 . S
C2440 C2438 1.378 . S
C2440 C2441 1.367 . S
C2441 C2440 1.367 . S
C2441 C2443 1.433 . S
C2442 C2438 1.350 . S
C2442 C2439 1.463 . S
C2442 N2446 1.427 . S
C2443 H2433 0.929 . S
C2443 C2441 1.433 . S
C2443 N2446 1.384 . S
C2444 H2435 0.929 . S
C2444 C2436 1.378 . S
C2444 C2439 1.350 . S
C2445 H2432 0.929 . S
C2445 C2437 1.433 . S
C2445 N2447 1.384 . S
N2446 C2442 1.427 . S
N2446 C2443 1.384 . S
N2447 C2439 1.427 . S
N2447 C2445 1.384 . S
H2448 C2454 0.930 1_655 S
H2449 C2458 0.930 . S
H2450 C2463 0.929 . S
H2451 C2461 0.929 . S
H2452 C2456 0.929 . S
H2453 C2462 0.929 . S
C2454 H2448 0.930 1_455 S
C2454 C2455 1.367 . S
C2454 C2462 1.378 . S
C2455 C2454 1.367 . S
C2455 C2463 1.433 . S
C2456 H2452 0.929 . S
C2456 C2458 1.378 . S
C2456 C2460 1.350 . S
C2457 C2460 1.463 . S
C2457 C2462 1.350 . S
C2457 N2465 1.427 . S
C2458 H2449 0.930 . S
C2458 C2456 1.378 . S
C2458 C2459 1.367 . S
C2459 C2458 1.367 . S
C2459 C2461 1.433 . S
C2460 C2456 1.350 . S
C2460 C2457 1.463 . S
C2460 N2464 1.427 . S
C2461 H2451 0.929 . S
C2461 C2459 1.433 . S
C2461 N2464 1.384 . S
C2462 H2453 0.929 . S
C2462 C2454 1.378 . S
C2462 C2457 1.350 . S
C2463 H2450 0.929 . S
C2463 C2455 1.433 . S
C2463 N2465 1.384 . S
N2464 C2460 1.427 . S
N2464 C2461 1.384 . S
N2465 C2457 1.427 . S
N2465 C2463 1.384 . S
H2466 C2472 0.930 . S
H2467 C2476 0.930 . S
H2468 C2481 0.929 . S
H2469 C2479 0.929 . S
H2470 C2474 0.929 . S
H2471 C2480 0.929 . S
C2472 H2466 0.930 . S
C2472 C2473 1.367 . S
C2472 C2480 1.378 . S
C2473 C2472 1.367 . S
C2473 C2481 1.433 . S
C2474 H2470 0.929 . S
C2474 C2476 1.378 . S
C2474 C2478 1.350 . S
C2475 C2478 1.463 . S
C2475 C2480 1.350 . S
C2475 N2483 1.427 . S
C2476 H2467 0.930 . S
C2476 C2474 1.378 . S
C2476 C2477 1.367 . S
C2477 C2476 1.367 . S
C2477 C2479 1.433 . S
C2478 C2474 1.350 . S
C2478 C2475 1.463 . S
C2478 N2482 1.427 . S
C2479 H2469 0.929 . S
C2479 C2477 1.433 . S
C2479 N2482 1.384 . S
C2480 H2471 0.929 . S
C2480 C2472 1.378 . S
C2480 C2475 1.350 . S
C2481 H2468 0.929 . S
C2481 C2473 1.433 . S
C2481 N2483 1.384 . S
N2482 C2478 1.427 . S
N2482 C2479 1.384 . S
N2483 C2475 1.427 . S
N2483 C2481 1.384 . S
H2484 C2490 0.930 . S
H2485 C2494 0.930 . S
H2486 C2499 0.929 . S
H2487 C2497 0.929 . S
H2488 C2492 0.929 . S
H2489 C2498 0.929 . S
C2490 H2484 0.930 . S
C2490 C2491 1.367 . S
C2490 C2498 1.378 . S
C2491 C2490 1.367 . S
C2491 C2499 1.433 . S
C2492 H2488 0.929 . S
C2492 C2494 1.378 . S
C2492 C2496 1.350 . S
C2493 C2496 1.463 . S
C2493 C2498 1.350 . S
C2493 N2501 1.427 . S
C2494 H2485 0.930 . S
C2494 C2492 1.378 . S
C2494 C2495 1.367 . S
C2495 C2494 1.367 . S
C2495 C2497 1.433 . S
C2496 C2492 1.350 . S
C2496 C2493 1.463 . S
C2496 N2500 1.427 . S
C2497 H2487 0.929 . S
C2497 C2495 1.433 . S
C2497 N2500 1.384 . S
C2498 H2489 0.929 . S
C2498 C2490 1.378 . S
C2498 C2493 1.350 . S
C2499 H2486 0.929 . S
C2499 C2491 1.433 . S
C2499 N2501 1.384 . S
N2500 C2496 1.427 . S
N2500 C2497 1.384 . S
N2501 C2493 1.427 . S
N2501 C2499 1.384 . S
H2502 C2508 0.930 . S
H2503 C2512 0.930 . S
H2504 C2517 0.929 . S
H2505 C2515 0.929 . S
H2506 C2510 0.929 . S
H2507 C2516 0.929 . S
C2508 H2502 0.930 . S
C2508 C2509 1.367 . S
C2508 C2516 1.378 . S
C2509 C2508 1.367 . S
C2509 C2517 1.433 . S
C2510 H2506 0.929 . S
C2510 C2512 1.378 . S
C2510 C2514 1.350 . S
C2511 C2514 1.463 . S
C2511 C2516 1.350 . S
C2511 N2519 1.427 . S
C2512 H2503 0.930 . S
C2512 C2510 1.378 . S
C2512 C2513 1.367 . S
C2513 C2512 1.367 . S
C2513 C2515 1.433 . S
C2514 C2510 1.350 . S
C2514 C2511 1.463 . S
C2514 N2518 1.427 . S
C2515 H2505 0.929 . S
C2515 C2513 1.433 . S
C2515 N2518 1.384 . S
C2516 H2507 0.929 . S
C2516 C2508 1.378 . S
C2516 C2511 1.350 . S
C2517 H2504 0.929 . S
C2517 C2509 1.433 . S
C2517 N2519 1.384 . S
N2518 C2514 1.427 . S
N2518 C2515 1.384 . S
N2519 C2511 1.427 . S
N2519 C2517 1.384 . S
H2520 C2526 0.930 . S
H2521 C2530 0.930 . S
H2522 C2535 0.929 1_565 S
H2523 C2533 0.929 . S
H2524 C2528 0.929 . S
H2525 C2534 0.929 . S
C2526 H2520 0.930 . S
C2526 C2527 1.367 . S
C2526 C2534 1.378 . S
C2527 C2526 1.367 . S
C2527 C2535 1.433 . S
C2528 H2524 0.929 . S
C2528 C2530 1.378 . S
C2528 C2532 1.350 . S
C2529 C2532 1.463 . S
C2529 C2534 1.350 . S
C2529 N2537 1.427 . S
C2530 H2521 0.930 . S
C2530 C2528 1.378 . S
C2530 C2531 1.367 . S
C2531 C2530 1.367 . S
C2531 C2533 1.433 . S
C2532 C2528 1.350 . S
C2532 C2529 1.463 . S
C2532 N2536 1.427 . S
C2533 H2523 0.929 . S
C2533 C2531 1.433 . S
C2533 N2536 1.384 . S
C2534 H2525 0.929 . S
C2534 C2526 1.378 . S
C2534 C2529 1.350 . S
C2535 H2522 0.929 1_545 S
C2535 C2527 1.433 . S
C2535 N2537 1.384 . S
N2536 C2532 1.427 . S
N2536 C2533 1.384 . S
N2537 C2529 1.427 . S
N2537 C2535 1.384 . S
H2538 C2544 0.930 . S
H2539 C2548 0.930 . S
H2540 C2553 0.929 . S
H2541 C2551 0.929 . S
H2542 C2546 0.929 . S
H2543 C2552 0.929 . S
C2544 H2538 0.930 . S
C2544 C2545 1.367 . S
C2544 C2552 1.378 . S
C2545 C2544 1.367 . S
C2545 C2553 1.433 . S
C2546 H2542 0.929 . S
C2546 C2548 1.378 . S
C2546 C2550 1.350 . S
C2547 C2550 1.463 . S
C2547 C2552 1.350 . S
C2547 N2555 1.427 . S
C2548 H2539 0.930 . S
C2548 C2546 1.378 . S
C2548 C2549 1.367 . S
C2549 C2548 1.367 . S
C2549 C2551 1.433 . S
C2550 C2546 1.350 . S
C2550 C2547 1.463 . S
C2550 N2554 1.427 . S
C2551 H2541 0.929 . S
C2551 C2549 1.433 . S
C2551 N2554 1.384 . S
C2552 H2543 0.929 . S
C2552 C2544 1.378 . S
C2552 C2547 1.350 . S
C2553 H2540 0.929 . S
C2553 C2545 1.433 . S
C2553 N2555 1.384 . S
N2554 C2550 1.427 . S
N2554 C2551 1.384 . S
N2555 C2547 1.427 . S
N2555 C2553 1.384 . S
H2556 C2562 0.930 . S
H2557 C2566 0.930 . S
H2558 C2571 0.929 . S
H2559 C2569 0.929 . S
H2560 C2564 0.929 . S
H2561 C2570 0.929 . S
C2562 H2556 0.930 . S
C2562 C2563 1.367 . S
C2562 C2570 1.378 . S
C2563 C2562 1.367 . S
C2563 C2571 1.433 1_565 S
C2564 H2560 0.929 . S
C2564 C2566 1.378 . S
C2564 C2568 1.350 . S
C2565 C2568 1.463 . S
C2565 C2570 1.350 . S
C2565 N2573 1.427 . S
C2566 H2557 0.930 . S
C2566 C2564 1.378 . S
C2566 C2567 1.367 . S
C2567 C2566 1.367 . S
C2567 C2569 1.433 . S
C2568 C2564 1.350 . S
C2568 C2565 1.463 . S
C2568 N2572 1.427 . S
C2569 H2559 0.929 . S
C2569 C2567 1.433 . S
C2569 N2572 1.384 . S
C2570 H2561 0.929 . S
C2570 C2562 1.378 . S
C2570 C2565 1.350 . S
C2571 H2558 0.929 . S
C2571 C2563 1.433 1_545 S
C2571 N2573 1.384 1_545 S
N2572 C2568 1.427 . S
N2572 C2569 1.384 . S
N2573 C2565 1.427 . S
N2573 C2571 1.384 1_565 S
H2574 C2580 0.930 . S
H2575 C2584 0.930 . S
H2576 C2589 0.929 . S
H2577 C2587 0.929 . S
H2578 C2582 0.929 . S
H2579 C2588 0.929 . S
C2580 H2574 0.930 . S
C2580 C2581 1.367 . S
C2580 C2588 1.378 . S
C2581 C2580 1.367 . S
C2581 C2589 1.433 . S
C2582 H2578 0.929 . S
C2582 C2584 1.378 . S
C2582 C2586 1.350 . S
C2583 C2586 1.463 . S
C2583 C2588 1.350 . S
C2583 N2591 1.427 . S
C2584 H2575 0.930 . S
C2584 C2582 1.378 . S
C2584 C2585 1.367 . S
C2585 C2584 1.367 . S
C2585 C2587 1.433 . S
C2586 C2582 1.350 . S
C2586 C2583 1.463 . S
C2586 N2590 1.427 . S
C2587 H2577 0.929 . S
C2587 C2585 1.433 . S
C2587 N2590 1.384 . S
C2588 H2579 0.929 . S
C2588 C2580 1.378 . S
C2588 C2583 1.350 . S
C2589 H2576 0.929 . S
C2589 C2581 1.433 . S
C2589 N2591 1.384 . S
N2590 C2586 1.427 . S
N2590 C2587 1.384 . S
N2591 C2583 1.427 . S
N2591 C2589 1.384 . S
H2592 C2598 0.930 . S
H2593 C2602 0.930 . S
H2594 C2607 0.929 . S
H2595 C2605 0.929 . S
H2596 C2600 0.929 . S
H2597 C2606 0.929 . S
C2598 H2592 0.930 . S
C2598 C2599 1.367 . S
C2598 C2606 1.378 . S
C2599 C2598 1.367 . S
C2599 C2607 1.433 . S
C2600 H2596 0.929 . S
C2600 C2602 1.378 . S
C2600 C2604 1.350 . S
C2601 C2604 1.463 . S
C2601 C2606 1.350 . S
C2601 N2609 1.427 . S
C2602 H2593 0.930 . S
C2602 C2600 1.378 . S
C2602 C2603 1.367 . S
C2603 C2602 1.367 . S
C2603 C2605 1.433 . S
C2604 C2600 1.350 . S
C2604 C2601 1.463 . S
C2604 N2608 1.427 . S
C2605 H2595 0.929 . S
C2605 C2603 1.433 . S
C2605 N2608 1.384 . S
C2606 H2597 0.929 . S
C2606 C2598 1.378 . S
C2606 C2601 1.350 . S
C2607 H2594 0.929 . S
C2607 C2599 1.433 . S
C2607 N2609 1.384 . S
N2608 C2604 1.427 . S
N2608 C2605 1.384 . S
N2609 C2601 1.427 . S
N2609 C2607 1.384 . S
H2610 C2616 0.930 . S
H2611 C2620 0.930 . S
H2612 C2625 0.929 . S
H2613 C2623 0.929 . S
H2614 C2618 0.929 . S
H2615 C2624 0.929 . S
C2616 H2610 0.930 . S
C2616 C2617 1.367 . S
C2616 C2624 1.378 . S
C2617 C2616 1.367 . S
C2617 C2625 1.433 . S
C2618 H2614 0.929 . S
C2618 C2620 1.378 . S
C2618 C2622 1.350 . S
C2619 C2622 1.463 . S
C2619 C2624 1.350 . S
C2619 N2627 1.427 . S
C2620 H2611 0.930 . S
C2620 C2618 1.378 . S
C2620 C2621 1.367 . S
C2621 C2620 1.367 . S
C2621 C2623 1.433 . S
C2622 C2618 1.350 . S
C2622 C2619 1.463 . S
C2622 N2626 1.427 . S
C2623 H2613 0.929 . S
C2623 C2621 1.433 . S
C2623 N2626 1.384 . S
C2624 H2615 0.929 . S
C2624 C2616 1.378 . S
C2624 C2619 1.350 . S
C2625 H2612 0.929 . S
C2625 C2617 1.433 . S
C2625 N2627 1.384 . S
N2626 C2622 1.427 . S
N2626 C2623 1.384 . S
N2627 C2619 1.427 . S
N2627 C2625 1.384 . S
H2628 C2634 0.930 . S
H2629 C2638 0.930 . S
H2630 C2643 0.929 . S
H2631 C2641 0.929 . S
H2632 C2636 0.929 . S
H2633 C2642 0.929 . S
C2634 H2628 0.930 . S
C2634 C2635 1.367 . S
C2634 C2642 1.378 . S
C2635 C2634 1.367 . S
C2635 C2643 1.433 . S
C2636 H2632 0.929 . S
C2636 C2638 1.378 . S
C2636 C2640 1.350 . S
C2637 C2640 1.463 . S
C2637 C2642 1.350 . S
C2637 N2645 1.427 . S
C2638 H2629 0.930 . S
C2638 C2636 1.378 . S
C2638 C2639 1.367 . S
C2639 C2638 1.367 . S
C2639 C2641 1.433 . S
C2640 C2636 1.350 . S
C2640 C2637 1.463 . S
C2640 N2644 1.427 . S
C2641 H2631 0.929 . S
C2641 C2639 1.433 . S
C2641 N2644 1.384 . S
C2642 H2633 0.929 . S
C2642 C2634 1.378 . S
C2642 C2637 1.350 . S
C2643 H2630 0.929 . S
C2643 C2635 1.433 . S
C2643 N2645 1.384 . S
N2644 C2640 1.427 . S
N2644 C2641 1.384 . S
N2645 C2637 1.427 . S
N2645 C2643 1.384 . S
H2646 C2652 0.930 . S
H2647 C2656 0.930 . S
H2648 C2661 0.929 . S
H2649 C2659 0.929 . S
H2650 C2654 0.929 . S
H2651 C2660 0.929 . S
C2652 H2646 0.930 . S
C2652 C2653 1.367 . S
C2652 C2660 1.378 . S
C2653 C2652 1.367 . S
C2653 C2661 1.433 . S
C2654 H2650 0.929 . S
C2654 C2656 1.378 . S
C2654 C2658 1.350 . S
C2655 C2658 1.463 . S
C2655 C2660 1.350 . S
C2655 N2663 1.427 . S
C2656 H2647 0.930 . S
C2656 C2654 1.378 . S
C2656 C2657 1.367 . S
C2657 C2656 1.367 . S
C2657 C2659 1.433 . S
C2658 C2654 1.350 . S
C2658 C2655 1.463 . S
C2658 N2662 1.427 . S
C2659 H2649 0.929 . S
C2659 C2657 1.433 . S
C2659 N2662 1.384 . S
C2660 H2651 0.929 . S
C2660 C2652 1.378 . S
C2660 C2655 1.350 . S
C2661 H2648 0.929 . S
C2661 C2653 1.433 . S
C2661 N2663 1.384 . S
N2662 C2658 1.427 . S
N2662 C2659 1.384 . S
N2663 C2655 1.427 . S
N2663 C2661 1.384 . S
H2664 C2670 0.930 . S
H2665 C2674 0.930 . S
H2666 C2679 0.929 . S
H2667 C2677 0.929 . S
H2668 C2672 0.929 . S
H2669 C2678 0.929 . S
C2670 H2664 0.930 . S
C2670 C2671 1.367 . S
C2670 C2678 1.378 . S
C2671 C2670 1.367 . S
C2671 C2679 1.433 . S
C2672 H2668 0.929 . S
C2672 C2674 1.378 . S
C2672 C2676 1.350 . S
C2673 C2676 1.463 . S
C2673 C2678 1.350 . S
C2673 N2681 1.427 . S
C2674 H2665 0.930 . S
C2674 C2672 1.378 . S
C2674 C2675 1.367 . S
C2675 C2674 1.367 . S
C2675 C2677 1.433 . S
C2676 C2672 1.350 . S
C2676 C2673 1.463 . S
C2676 N2680 1.427 . S
C2677 H2667 0.929 . S
C2677 C2675 1.433 . S
C2677 N2680 1.384 . S
C2678 H2669 0.929 . S
C2678 C2670 1.378 . S
C2678 C2673 1.350 . S
C2679 H2666 0.929 . S
C2679 C2671 1.433 . S
C2679 N2681 1.384 . S
N2680 C2676 1.427 . S
N2680 C2677 1.384 . S
N2681 C2673 1.427 . S
N2681 C2679 1.384 . S
H2682 C2688 0.930 . S
H2683 C2692 0.930 . S
H2684 C2697 0.929 . S
H2685 C2695 0.929 . S
H2686 C2690 0.929 . S
H2687 C2696 0.929 . S
C2688 H2682 0.930 . S
C2688 C2689 1.367 . S
C2688 C2696 1.378 . S
C2689 C2688 1.367 . S
C2689 C2697 1.433 . S
C2690 H2686 0.929 . S
C2690 C2692 1.378 . S
C2690 C2694 1.350 . S
C2691 C2694 1.463 . S
C2691 C2696 1.350 . S
C2691 N2699 1.427 . S
C2692 H2683 0.930 . S
C2692 C2690 1.378 . S
C2692 C2693 1.367 . S
C2693 C2692 1.367 . S
C2693 C2695 1.433 . S
C2694 C2690 1.350 . S
C2694 C2691 1.463 . S
C2694 N2698 1.427 . S
C2695 H2685 0.929 . S
C2695 C2693 1.433 . S
C2695 N2698 1.384 . S
C2696 H2687 0.929 . S
C2696 C2688 1.378 . S
C2696 C2691 1.350 . S
C2697 H2684 0.929 . S
C2697 C2689 1.433 . S
C2697 N2699 1.384 . S
N2698 C2694 1.427 . S
N2698 C2695 1.384 . S
N2699 C2691 1.427 . S
N2699 C2697 1.384 . S
H2700 C2706 0.930 . S
H2701 C2710 0.930 . S
H2702 C2715 0.929 . S
H2703 C2713 0.929 . S
H2704 C2708 0.929 . S
H2705 C2714 0.929 . S
C2706 H2700 0.930 . S
C2706 C2707 1.367 . S
C2706 C2714 1.378 . S
C2707 C2706 1.367 . S
C2707 C2715 1.433 . S
C2708 H2704 0.929 . S
C2708 C2710 1.378 . S
C2708 C2712 1.350 . S
C2709 C2712 1.463 . S
C2709 C2714 1.350 . S
C2709 N2717 1.427 . S
C2710 H2701 0.930 . S
C2710 C2708 1.378 . S
C2710 C2711 1.367 . S
C2711 C2710 1.367 . S
C2711 C2713 1.433 . S
C2712 C2708 1.350 . S
C2712 C2709 1.463 . S
C2712 N2716 1.427 . S
C2713 H2703 0.929 . S
C2713 C2711 1.433 . S
C2713 N2716 1.384 . S
C2714 H2705 0.929 . S
C2714 C2706 1.378 . S
C2714 C2709 1.350 . S
C2715 H2702 0.929 . S
C2715 C2707 1.433 . S
C2715 N2717 1.384 . S
N2716 C2712 1.427 . S
N2716 C2713 1.384 . S
N2717 C2709 1.427 . S
N2717 C2715 1.384 . S
H2718 C2724 0.930 . S
H2719 C2728 0.930 . S
H2720 C2733 0.929 . S
H2721 C2731 0.929 . S
H2722 C2726 0.929 . S
H2723 C2732 0.929 . S
C2724 H2718 0.930 . S
C2724 C2725 1.367 . S
C2724 C2732 1.378 . S
C2725 C2724 1.367 . S
C2725 C2733 1.433 . S
C2726 H2722 0.929 . S
C2726 C2728 1.378 . S
C2726 C2730 1.350 . S
C2727 C2730 1.463 . S
C2727 C2732 1.350 . S
C2727 N2735 1.427 . S
C2728 H2719 0.930 . S
C2728 C2726 1.378 . S
C2728 C2729 1.367 . S
C2729 C2728 1.367 . S
C2729 C2731 1.433 . S
C2730 C2726 1.350 . S
C2730 C2727 1.463 . S
C2730 N2734 1.427 . S
C2731 H2721 0.929 . S
C2731 C2729 1.433 . S
C2731 N2734 1.384 . S
C2732 H2723 0.929 . S
C2732 C2724 1.378 . S
C2732 C2727 1.350 . S
C2733 H2720 0.929 . S
C2733 C2725 1.433 . S
C2733 N2735 1.384 . S
N2734 C2730 1.427 . S
N2734 C2731 1.384 . S
N2735 C2727 1.427 . S
N2735 C2733 1.384 . S
H2736 C2742 0.930 . S
H2737 C2746 0.930 . S
H2738 C2751 0.929 . S
H2739 C2749 0.929 . S
H2740 C2744 0.929 . S
H2741 C2750 0.929 . S
C2742 H2736 0.930 . S
C2742 C2743 1.367 . S
C2742 C2750 1.378 . S
C2743 C2742 1.367 . S
C2743 C2751 1.433 . S
C2744 H2740 0.929 . S
C2744 C2746 1.378 . S
C2744 C2748 1.350 . S
C2745 C2748 1.463 . S
C2745 C2750 1.350 . S
C2745 N2753 1.427 . S
C2746 H2737 0.930 . S
C2746 C2744 1.378 . S
C2746 C2747 1.367 . S
C2747 C2746 1.367 . S
C2747 C2749 1.433 . S
C2748 C2744 1.350 . S
C2748 C2745 1.463 . S
C2748 N2752 1.427 . S
C2749 H2739 0.929 . S
C2749 C2747 1.433 . S
C2749 N2752 1.384 . S
C2750 H2741 0.929 . S
C2750 C2742 1.378 . S
C2750 C2745 1.350 . S
C2751 H2738 0.929 . S
C2751 C2743 1.433 . S
C2751 N2753 1.384 . S
N2752 C2748 1.427 . S
N2752 C2749 1.384 . S
N2753 C2745 1.427 . S
N2753 C2751 1.384 . S
H2754 C2760 0.930 . S
H2755 C2764 0.930 . S
H2756 C2769 0.929 . S
H2757 C2767 0.929 . S
H2758 C2762 0.929 . S
H2759 C2768 0.929 . S
C2760 H2754 0.930 . S
C2760 C2761 1.367 . S
C2760 C2768 1.378 . S
C2761 C2760 1.367 . S
C2761 C2769 1.433 . S
C2762 H2758 0.929 . S
C2762 C2764 1.378 . S
C2762 C2766 1.350 . S
C2763 C2766 1.463 . S
C2763 C2768 1.350 . S
C2763 N2771 1.427 . S
C2764 H2755 0.930 . S
C2764 C2762 1.378 . S
C2764 C2765 1.367 . S
C2765 C2764 1.367 . S
C2765 C2767 1.433 . S
C2766 C2762 1.350 . S
C2766 C2763 1.463 . S
C2766 N2770 1.427 . S
C2767 H2757 0.929 . S
C2767 C2765 1.433 . S
C2767 N2770 1.384 . S
C2768 H2759 0.929 . S
C2768 C2760 1.378 . S
C2768 C2763 1.350 . S
C2769 H2756 0.929 . S
C2769 C2761 1.433 . S
C2769 N2771 1.384 . S
N2770 C2766 1.427 . S
N2770 C2767 1.384 . S
N2771 C2763 1.427 . S
N2771 C2769 1.384 . S
H2772 C2778 0.930 . S
H2773 C2782 0.930 . S
H2774 C2787 0.929 . S
H2775 C2785 0.929 . S
H2776 C2780 0.929 . S
H2777 C2786 0.929 . S
C2778 H2772 0.930 . S
C2778 C2779 1.367 . S
C2778 C2786 1.378 . S
C2779 C2778 1.367 . S
C2779 C2787 1.433 . S
C2780 H2776 0.929 . S
C2780 C2782 1.378 . S
C2780 C2784 1.350 . S
C2781 C2784 1.463 . S
C2781 C2786 1.350 . S
C2781 N2789 1.427 . S
C2782 H2773 0.930 . S
C2782 C2780 1.378 . S
C2782 C2783 1.367 . S
C2783 C2782 1.367 . S
C2783 C2785 1.433 . S
C2784 C2780 1.350 . S
C2784 C2781 1.463 . S
C2784 N2788 1.427 . S
C2785 H2775 0.929 . S
C2785 C2783 1.433 . S
C2785 N2788 1.384 . S
C2786 H2777 0.929 . S
C2786 C2778 1.378 . S
C2786 C2781 1.350 . S
C2787 H2774 0.929 . S
C2787 C2779 1.433 . S
C2787 N2789 1.384 . S
N2788 C2784 1.427 . S
N2788 C2785 1.384 . S
N2789 C2781 1.427 . S
N2789 C2787 1.384 . S
H2790 C2796 0.930 . S
H2791 C2800 0.930 . S
H2792 C2805 0.929 . S
H2793 C2803 0.929 . S
H2794 C2798 0.929 . S
H2795 C2804 0.929 . S
C2796 H2790 0.930 . S
C2796 C2797 1.367 . S
C2796 C2804 1.378 . S
C2797 C2796 1.367 . S
C2797 C2805 1.433 . S
C2798 H2794 0.929 . S
C2798 C2800 1.378 . S
C2798 C2802 1.350 . S
C2799 C2802 1.463 . S
C2799 C2804 1.350 . S
C2799 N2807 1.427 . S
C2800 H2791 0.930 . S
C2800 C2798 1.378 . S
C2800 C2801 1.367 . S
C2801 C2800 1.367 . S
C2801 C2803 1.433 . S
C2802 C2798 1.350 . S
C2802 C2799 1.463 . S
C2802 N2806 1.427 . S
C2803 H2793 0.929 . S
C2803 C2801 1.433 . S
C2803 N2806 1.384 . S
C2804 H2795 0.929 . S
C2804 C2796 1.378 . S
C2804 C2799 1.350 . S
C2805 H2792 0.929 . S
C2805 C2797 1.433 . S
C2805 N2807 1.384 . S
N2806 C2802 1.427 . S
N2806 C2803 1.384 . S
N2807 C2799 1.427 . S
N2807 C2805 1.384 . S
H2808 C2814 0.930 . S
H2809 C2818 0.930 . S
H2810 C2823 0.929 . S
H2811 C2821 0.929 . S
H2812 C2816 0.929 . S
H2813 C2822 0.929 . S
C2814 H2808 0.930 . S
C2814 C2815 1.367 . S
C2814 C2822 1.378 . S
C2815 C2814 1.367 . S
C2815 C2823 1.433 . S
C2816 H2812 0.929 . S
C2816 C2818 1.378 . S
C2816 C2820 1.350 . S
C2817 C2820 1.463 . S
C2817 C2822 1.350 . S
C2817 N2825 1.427 . S
C2818 H2809 0.930 . S
C2818 C2816 1.378 . S
C2818 C2819 1.367 . S
C2819 C2818 1.367 . S
C2819 C2821 1.433 . S
C2820 C2816 1.350 . S
C2820 C2817 1.463 . S
C2820 N2824 1.427 . S
C2821 H2811 0.929 . S
C2821 C2819 1.433 . S
C2821 N2824 1.384 . S
C2822 H2813 0.929 . S
C2822 C2814 1.378 . S
C2822 C2817 1.350 . S
C2823 H2810 0.929 . S
C2823 C2815 1.433 . S
C2823 N2825 1.384 . S
N2824 C2820 1.427 . S
N2824 C2821 1.384 . S
N2825 C2817 1.427 . S
N2825 C2823 1.384 . S
H2826 C2832 0.930 . S
H2827 C2836 0.930 . S
H2828 C2841 0.929 . S
H2829 C2839 0.929 . S
H2830 C2834 0.929 . S
H2831 C2840 0.929 . S
C2832 H2826 0.930 . S
C2832 C2833 1.367 . S
C2832 C2840 1.378 . S
C2833 C2832 1.367 . S
C2833 C2841 1.433 . S
C2834 H2830 0.929 . S
C2834 C2836 1.378 . S
C2834 C2838 1.350 . S
C2835 C2838 1.463 . S
C2835 C2840 1.350 . S
C2835 N2843 1.427 . S
C2836 H2827 0.930 . S
C2836 C2834 1.378 . S
C2836 C2837 1.367 . S
C2837 C2836 1.367 . S
C2837 C2839 1.433 . S
C2838 C2834 1.350 . S
C2838 C2835 1.463 . S
C2838 N2842 1.427 . S
C2839 H2829 0.929 . S
C2839 C2837 1.433 . S
C2839 N2842 1.384 . S
C2840 H2831 0.929 . S
C2840 C2832 1.378 . S
C2840 C2835 1.350 . S
C2841 H2828 0.929 . S
C2841 C2833 1.433 . S
C2841 N2843 1.384 . S
N2842 C2838 1.427 . S
N2842 C2839 1.384 . S
N2843 C2835 1.427 . S
N2843 C2841 1.384 . S
H2844 C2850 0.930 . S
H2845 C2854 0.930 . S
H2846 C2859 0.929 . S
H2847 C2857 0.929 . S
H2848 C2852 0.929 . S
H2849 C2858 0.929 . S
C2850 H2844 0.930 . S
C2850 C2851 1.367 . S
C2850 C2858 1.378 . S
C2851 C2850 1.367 . S
C2851 C2859 1.433 . S
C2852 H2848 0.929 . S
C2852 C2854 1.378 . S
C2852 C2856 1.350 . S
C2853 C2856 1.463 . S
C2853 C2858 1.350 . S
C2853 N2861 1.427 . S
C2854 H2845 0.930 . S
C2854 C2852 1.378 . S
C2854 C2855 1.367 . S
C2855 C2854 1.367 . S
C2855 C2857 1.433 . S
C2856 C2852 1.350 . S
C2856 C2853 1.463 . S
C2856 N2860 1.427 . S
C2857 H2847 0.929 . S
C2857 C2855 1.433 . S
C2857 N2860 1.384 . S
C2858 H2849 0.929 . S
C2858 C2850 1.378 . S
C2858 C2853 1.350 . S
C2859 H2846 0.929 . S
C2859 C2851 1.433 . S
C2859 N2861 1.384 . S
N2860 C2856 1.427 . S
N2860 C2857 1.384 . S
N2861 C2853 1.427 . S
N2861 C2859 1.384 . S
H2862 C2868 0.930 . S
H2863 C2872 0.930 . S
H2864 C2877 0.929 . S
H2865 C2875 0.929 . S
H2866 C2870 0.929 . S
H2867 C2876 0.929 . S
C2868 H2862 0.930 . S
C2868 C2869 1.367 . S
C2868 C2876 1.378 . S
C2869 C2868 1.367 . S
C2869 C2877 1.433 . S
C2870 H2866 0.929 . S
C2870 C2872 1.378 . S
C2870 C2874 1.350 . S
C2871 C2874 1.463 . S
C2871 C2876 1.350 . S
C2871 N2879 1.427 . S
C2872 H2863 0.930 . S
C2872 C2870 1.378 . S
C2872 C2873 1.367 . S
C2873 C2872 1.367 . S
C2873 C2875 1.433 . S
C2874 C2870 1.350 . S
C2874 C2871 1.463 . S
C2874 N2878 1.427 . S
C2875 H2865 0.929 . S
C2875 C2873 1.433 . S
C2875 N2878 1.384 . S
C2876 H2867 0.929 . S
C2876 C2868 1.378 . S
C2876 C2871 1.350 . S
C2877 H2864 0.929 . S
C2877 C2869 1.433 . S
C2877 N2879 1.384 . S
N2878 C2874 1.427 . S
N2878 C2875 1.384 . S
N2879 C2871 1.427 . S
N2879 C2877 1.384 . S
H2880 C2886 0.930 . S
H2881 C2890 0.930 . S
H2882 C2895 0.929 . S
H2883 C2893 0.929 . S
H2884 C2888 0.929 . S
H2885 C2894 0.929 . S
C2886 H2880 0.930 . S
C2886 C2887 1.367 . S
C2886 C2894 1.378 . S
C2887 C2886 1.367 . S
C2887 C2895 1.433 . S
C2888 H2884 0.929 . S
C2888 C2890 1.378 . S
C2888 C2892 1.350 . S
C2889 C2892 1.463 . S
C2889 C2894 1.350 . S
C2889 N2897 1.427 . S
C2890 H2881 0.930 . S
C2890 C2888 1.378 . S
C2890 C2891 1.367 . S
C2891 C2890 1.367 . S
C2891 C2893 1.433 . S
C2892 C2888 1.350 . S
C2892 C2889 1.463 . S
C2892 N2896 1.427 . S
C2893 H2883 0.929 . S
C2893 C2891 1.433 . S
C2893 N2896 1.384 . S
C2894 H2885 0.929 . S
C2894 C2886 1.378 . S
C2894 C2889 1.350 . S
C2895 H2882 0.929 . S
C2895 C2887 1.433 . S
C2895 N2897 1.384 . S
N2896 C2892 1.427 . S
N2896 C2893 1.384 . S
N2897 C2889 1.427 . S
N2897 C2895 1.384 . S
H2898 C2904 0.930 . S
H2899 C2908 0.930 . S
H2900 C2913 0.929 . S
H2901 C2911 0.929 . S
H2902 C2906 0.929 . S
H2903 C2912 0.929 . S
C2904 H2898 0.930 . S
C2904 C2905 1.367 . S
C2904 C2912 1.378 . S
C2905 C2904 1.367 . S
C2905 C2913 1.433 . S
C2906 H2902 0.929 . S
C2906 C2908 1.378 . S
C2906 C2910 1.350 . S
C2907 C2910 1.463 . S
C2907 C2912 1.350 . S
C2907 N2915 1.427 . S
C2908 H2899 0.930 . S
C2908 C2906 1.378 . S
C2908 C2909 1.367 . S
C2909 C2908 1.367 . S
C2909 C2911 1.433 . S
C2910 C2906 1.350 . S
C2910 C2907 1.463 . S
C2910 N2914 1.427 . S
C2911 H2901 0.929 . S
C2911 C2909 1.433 . S
C2911 N2914 1.384 . S
C2912 H2903 0.929 . S
C2912 C2904 1.378 . S
C2912 C2907 1.350 . S
C2913 H2900 0.929 . S
C2913 C2905 1.433 . S
C2913 N2915 1.384 . S
N2914 C2910 1.427 . S
N2914 C2911 1.384 . S
N2915 C2907 1.427 . S
N2915 C2913 1.384 . S
H2916 C2922 0.930 . S
H2917 C2926 0.930 . S
H2918 C2931 0.929 . S
H2919 C2929 0.929 . S
H2920 C2924 0.929 . S
H2921 C2930 0.929 . S
C2922 H2916 0.930 . S
C2922 C2923 1.367 . S
C2922 C2930 1.378 . S
C2923 C2922 1.367 . S
C2923 C2931 1.433 . S
C2924 H2920 0.929 . S
C2924 C2926 1.378 . S
C2924 C2928 1.350 . S
C2925 C2928 1.463 . S
C2925 C2930 1.350 . S
C2925 N2933 1.427 . S
C2926 H2917 0.930 . S
C2926 C2924 1.378 . S
C2926 C2927 1.367 . S
C2927 C2926 1.367 . S
C2927 C2929 1.433 . S
C2928 C2924 1.350 . S
C2928 C2925 1.463 . S
C2928 N2932 1.427 . S
C2929 H2919 0.929 . S
C2929 C2927 1.433 . S
C2929 N2932 1.384 . S
C2930 H2921 0.929 . S
C2930 C2922 1.378 . S
C2930 C2925 1.350 . S
C2931 H2918 0.929 . S
C2931 C2923 1.433 . S
C2931 N2933 1.384 . S
N2932 C2928 1.427 . S
N2932 C2929 1.384 . S
N2933 C2925 1.427 . S
N2933 C2931 1.384 . S
H2934 C2940 0.930 . S
H2935 C2944 0.930 . S
H2936 C2949 0.929 . S
H2937 C2947 0.929 . S
H2938 C2942 0.929 . S
H2939 C2948 0.929 . S
C2940 H2934 0.930 . S
C2940 C2941 1.367 . S
C2940 C2948 1.378 . S
C2941 C2940 1.367 . S
C2941 C2949 1.433 . S
C2942 H2938 0.929 . S
C2942 C2944 1.378 . S
C2942 C2946 1.350 . S
C2943 C2946 1.463 . S
C2943 C2948 1.350 . S
C2943 N2951 1.427 . S
C2944 H2935 0.930 . S
C2944 C2942 1.378 . S
C2944 C2945 1.367 . S
C2945 C2944 1.367 . S
C2945 C2947 1.433 . S
C2946 C2942 1.350 . S
C2946 C2943 1.463 . S
C2946 N2950 1.427 . S
C2947 H2937 0.929 . S
C2947 C2945 1.433 . S
C2947 N2950 1.384 . S
C2948 H2939 0.929 . S
C2948 C2940 1.378 . S
C2948 C2943 1.350 . S
C2949 H2936 0.929 . S
C2949 C2941 1.433 . S
C2949 N2951 1.384 . S
N2950 C2946 1.427 . S
N2950 C2947 1.384 . S
N2951 C2943 1.427 . S
N2951 C2949 1.384 . S
H2952 C2958 0.930 . S
H2953 C2962 0.930 . S
H2954 C2967 0.929 . S
H2955 C2965 0.929 . S
H2956 C2960 0.929 . S
H2957 C2966 0.929 . S
C2958 H2952 0.930 . S
C2958 C2959 1.367 . S
C2958 C2966 1.378 . S
C2959 C2958 1.367 . S
C2959 C2967 1.433 . S
C2960 H2956 0.929 . S
C2960 C2962 1.378 . S
C2960 C2964 1.350 . S
C2961 C2964 1.463 . S
C2961 C2966 1.350 . S
C2961 N2969 1.427 . S
C2962 H2953 0.930 . S
C2962 C2960 1.378 . S
C2962 C2963 1.367 . S
C2963 C2962 1.367 . S
C2963 C2965 1.433 . S
C2964 C2960 1.350 . S
C2964 C2961 1.463 . S
C2964 N2968 1.427 . S
C2965 H2955 0.929 . S
C2965 C2963 1.433 . S
C2965 N2968 1.384 . S
C2966 H2957 0.929 . S
C2966 C2958 1.378 . S
C2966 C2961 1.350 . S
C2967 H2954 0.929 . S
C2967 C2959 1.433 . S
C2967 N2969 1.384 . S
N2968 C2964 1.427 . S
N2968 C2965 1.384 . S
N2969 C2961 1.427 . S
N2969 C2967 1.384 . S
H2970 C2976 0.930 . S
H2971 C2980 0.930 . S
H2972 C2985 0.929 . S
H2973 C2983 0.929 . S
H2974 C2978 0.929 . S
H2975 C2984 0.929 . S
C2976 H2970 0.930 . S
C2976 C2977 1.367 . S
C2976 C2984 1.378 . S
C2977 C2976 1.367 . S
C2977 C2985 1.433 . S
C2978 H2974 0.929 . S
C2978 C2980 1.378 . S
C2978 C2982 1.350 . S
C2979 C2982 1.463 . S
C2979 C2984 1.350 . S
C2979 N2987 1.427 . S
C2980 H2971 0.930 . S
C2980 C2978 1.378 . S
C2980 C2981 1.367 . S
C2981 C2980 1.367 . S
C2981 C2983 1.433 . S
C2982 C2978 1.350 . S
C2982 C2979 1.463 . S
C2982 N2986 1.427 . S
C2983 H2973 0.929 . S
C2983 C2981 1.433 . S
C2983 N2986 1.384 . S
C2984 H2975 0.929 . S
C2984 C2976 1.378 . S
C2984 C2979 1.350 . S
C2985 H2972 0.929 . S
C2985 C2977 1.433 . S
C2985 N2987 1.384 . S
N2986 C2982 1.427 . S
N2986 C2983 1.384 . S
N2987 C2979 1.427 . S
N2987 C2985 1.384 . S
H2988 C2994 0.930 . S
H2989 C2998 0.930 . S
H2990 C3003 0.929 . S
H2991 C3001 0.929 . S
H2992 C2996 0.929 . S
H2993 C3002 0.929 . S
C2994 H2988 0.930 . S
C2994 C2995 1.367 . S
C2994 C3002 1.378 . S
C2995 C2994 1.367 . S
C2995 C3003 1.433 . S
C2996 H2992 0.929 . S
C2996 C2998 1.378 . S
C2996 C3000 1.350 . S
C2997 C3000 1.463 . S
C2997 C3002 1.350 . S
C2997 N3005 1.427 . S
C2998 H2989 0.930 . S
C2998 C2996 1.378 . S
C2998 C2999 1.367 . S
C2999 C2998 1.367 . S
C2999 C3001 1.433 . S
C3000 C2996 1.350 . S
C3000 C2997 1.463 . S
C3000 N3004 1.427 . S
C3001 H2991 0.929 . S
C3001 C2999 1.433 . S
C3001 N3004 1.384 . S
C3002 H2993 0.929 . S
C3002 C2994 1.378 . S
C3002 C2997 1.350 . S
C3003 H2990 0.929 . S
C3003 C2995 1.433 . S
C3003 N3005 1.384 . S
N3004 C3000 1.427 . S
N3004 C3001 1.384 . S
N3005 C2997 1.427 . S
N3005 C3003 1.384 . S
H3006 C3012 0.930 . S
H3007 C3016 0.930 . S
H3008 C3021 0.929 . S
H3009 C3019 0.929 . S
H3010 C3014 0.929 . S
H3011 C3020 0.929 . S
C3012 H3006 0.930 . S
C3012 C3013 1.367 . S
C3012 C3020 1.378 . S
C3013 C3012 1.367 . S
C3013 C3021 1.433 . S
C3014 H3010 0.929 . S
C3014 C3016 1.378 . S
C3014 C3018 1.350 . S
C3015 C3018 1.463 . S
C3015 C3020 1.350 . S
C3015 N3023 1.427 . S
C3016 H3007 0.930 . S
C3016 C3014 1.378 . S
C3016 C3017 1.367 . S
C3017 C3016 1.367 . S
C3017 C3019 1.433 . S
C3018 C3014 1.350 . S
C3018 C3015 1.463 . S
C3018 N3022 1.427 . S
C3019 H3009 0.929 . S
C3019 C3017 1.433 . S
C3019 N3022 1.384 . S
C3020 H3011 0.929 . S
C3020 C3012 1.378 . S
C3020 C3015 1.350 . S
C3021 H3008 0.929 . S
C3021 C3013 1.433 . S
C3021 N3023 1.384 . S
N3022 C3018 1.427 . S
N3022 C3019 1.384 . S
N3023 C3015 1.427 . S
N3023 C3021 1.384 . S
H3024 C3030 0.930 . S
H3025 C3034 0.930 . S
H3026 C3039 0.929 . S
H3027 C3037 0.929 . S
H3028 C3032 0.929 . S
H3029 C3038 0.929 . S
C3030 H3024 0.930 . S
C3030 C3031 1.367 . S
C3030 C3038 1.378 . S
C3031 C3030 1.367 . S
C3031 C3039 1.433 . S
C3032 H3028 0.929 . S
C3032 C3034 1.378 . S
C3032 C3036 1.350 . S
C3033 C3036 1.463 . S
C3033 C3038 1.350 . S
C3033 N3041 1.427 . S
C3034 H3025 0.930 . S
C3034 C3032 1.378 . S
C3034 C3035 1.367 . S
C3035 C3034 1.367 . S
C3035 C3037 1.433 . S
C3036 C3032 1.350 . S
C3036 C3033 1.463 . S
C3036 N3040 1.427 . S
C3037 H3027 0.929 . S
C3037 C3035 1.433 . S
C3037 N3040 1.384 . S
C3038 H3029 0.929 . S
C3038 C3030 1.378 . S
C3038 C3033 1.350 . S
C3039 H3026 0.929 . S
C3039 C3031 1.433 . S
C3039 N3041 1.384 . S
N3040 C3036 1.427 . S
N3040 C3037 1.384 . S
N3041 C3033 1.427 . S
N3041 C3039 1.384 . S
H3042 C3048 0.930 . S
H3043 C3052 0.930 . S
H3044 C3057 0.929 . S
H3045 C3055 0.929 . S
H3046 C3050 0.929 . S
H3047 C3056 0.929 . S
C3048 H3042 0.930 . S
C3048 C3049 1.367 . S
C3048 C3056 1.378 . S
C3049 C3048 1.367 . S
C3049 C3057 1.433 . S
C3050 H3046 0.929 . S
C3050 C3052 1.378 . S
C3050 C3054 1.350 . S
C3051 C3054 1.463 . S
C3051 C3056 1.350 . S
C3051 N3059 1.427 . S
C3052 H3043 0.930 . S
C3052 C3050 1.378 . S
C3052 C3053 1.367 . S
C3053 C3052 1.367 . S
C3053 C3055 1.433 . S
C3054 C3050 1.350 . S
C3054 C3051 1.463 . S
C3054 N3058 1.427 . S
C3055 H3045 0.929 . S
C3055 C3053 1.433 . S
C3055 N3058 1.384 . S
C3056 H3047 0.929 . S
C3056 C3048 1.378 . S
C3056 C3051 1.350 . S
C3057 H3044 0.929 . S
C3057 C3049 1.433 . S
C3057 N3059 1.384 . S
N3058 C3054 1.427 . S
N3058 C3055 1.384 . S
N3059 C3051 1.427 . S
N3059 C3057 1.384 . S
H3060 C3066 0.930 . S
H3061 C3070 0.930 . S
H3062 C3075 0.929 . S
H3063 C3073 0.929 . S
H3064 C3068 0.929 . S
H3065 C3074 0.929 . S
C3066 H3060 0.930 . S
C3066 C3067 1.367 . S
C3066 C3074 1.378 . S
C3067 C3066 1.367 . S
C3067 C3075 1.433 . S
C3068 H3064 0.929 . S
C3068 C3070 1.378 . S
C3068 C3072 1.350 . S
C3069 C3072 1.463 . S
C3069 C3074 1.350 . S
C3069 N3077 1.427 . S
C3070 H3061 0.930 . S
C3070 C3068 1.378 . S
C3070 C3071 1.367 . S
C3071 C3070 1.367 . S
C3071 C3073 1.433 . S
C3072 C3068 1.350 . S
C3072 C3069 1.463 . S
C3072 N3076 1.427 . S
C3073 H3063 0.929 . S
C3073 C3071 1.433 . S
C3073 N3076 1.384 . S
C3074 H3065 0.929 . S
C3074 C3066 1.378 . S
C3074 C3069 1.350 . S
C3075 H3062 0.929 . S
C3075 C3067 1.433 . S
C3075 N3077 1.384 . S
N3076 C3072 1.427 . S
N3076 C3073 1.384 . S
N3077 C3069 1.427 . S
N3077 C3075 1.384 . S
H3078 C3084 0.930 1_655 S
H3079 C3088 0.930 . S
H3080 C3093 0.929 . S
H3081 C3091 0.929 . S
H3082 C3086 0.929 . S
H3083 C3092 0.929 . S
C3084 H3078 0.930 1_455 S
C3084 C3085 1.367 . S
C3084 C3092 1.378 . S
C3085 C3084 1.367 . S
C3085 C3093 1.433 . S
C3086 H3082 0.929 . S
C3086 C3088 1.378 . S
C3086 C3090 1.350 . S
C3087 C3090 1.463 . S
C3087 C3092 1.350 . S
C3087 N3095 1.427 . S
C3088 H3079 0.930 . S
C3088 C3086 1.378 . S
C3088 C3089 1.367 . S
C3089 C3088 1.367 . S
C3089 C3091 1.433 . S
C3090 C3086 1.350 . S
C3090 C3087 1.463 . S
C3090 N3094 1.427 . S
C3091 H3081 0.929 . S
C3091 C3089 1.433 . S
C3091 N3094 1.384 . S
C3092 H3083 0.929 . S
C3092 C3084 1.378 . S
C3092 C3087 1.350 . S
C3093 H3080 0.929 . S
C3093 C3085 1.433 . S
C3093 N3095 1.384 . S
N3094 C3090 1.427 . S
N3094 C3091 1.384 . S
N3095 C3087 1.427 . S
N3095 C3093 1.384 . S
H3096 C3102 0.930 . S
H3097 C3106 0.930 . S
H3098 C3111 0.929 . S
H3099 C3109 0.929 . S
H3100 C3104 0.929 . S
H3101 C3110 0.929 . S
C3102 H3096 0.930 . S
C3102 C3103 1.367 . S
C3102 C3110 1.378 . S
C3103 C3102 1.367 . S
C3103 C3111 1.433 . S
C3104 H3100 0.929 . S
C3104 C3106 1.378 . S
C3104 C3108 1.350 . S
C3105 C3108 1.463 . S
C3105 C3110 1.350 . S
C3105 N3113 1.427 . S
C3106 H3097 0.930 . S
C3106 C3104 1.378 . S
C3106 C3107 1.367 . S
C3107 C3106 1.367 . S
C3107 C3109 1.433 . S
C3108 C3104 1.350 . S
C3108 C3105 1.463 . S
C3108 N3112 1.427 . S
C3109 H3099 0.929 . S
C3109 C3107 1.433 . S
C3109 N3112 1.384 . S
C3110 H3101 0.929 . S
C3110 C3102 1.378 . S
C3110 C3105 1.350 . S
C3111 H3098 0.929 . S
C3111 C3103 1.433 . S
C3111 N3113 1.384 . S
N3112 C3108 1.427 . S
N3112 C3109 1.384 . S
N3113 C3105 1.427 . S
N3113 C3111 1.384 . S
H3114 C3120 0.930 . S
H3115 C3124 0.930 . S
H3116 C3129 0.929 . S
H3117 C3127 0.929 . S
H3118 C3122 0.929 . S
H3119 C3128 0.929 . S
C3120 H3114 0.930 . S
C3120 C3121 1.367 . S
C3120 C3128 1.378 . S
C3121 C3120 1.367 . S
C3121 C3129 1.433 . S
C3122 H3118 0.929 . S
C3122 C3124 1.378 . S
C3122 C3126 1.350 . S
C3123 C3126 1.463 . S
C3123 C3128 1.350 . S
C3123 N3131 1.427 . S
C3124 H3115 0.930 . S
C3124 C3122 1.378 . S
C3124 C3125 1.367 . S
C3125 C3124 1.367 . S
C3125 C3127 1.433 . S
C3126 C3122 1.350 . S
C3126 C3123 1.463 . S
C3126 N3130 1.427 . S
C3127 H3117 0.929 . S
C3127 C3125 1.433 . S
C3127 N3130 1.384 . S
C3128 H3119 0.929 . S
C3128 C3120 1.378 . S
C3128 C3123 1.350 . S
C3129 H3116 0.929 . S
C3129 C3121 1.433 . S
C3129 N3131 1.384 . S
N3130 C3126 1.427 . S
N3130 C3127 1.384 . S
N3131 C3123 1.427 . S
N3131 C3129 1.384 . S
H3132 C3138 0.930 . S
H3133 C3142 0.930 . S
H3134 C3147 0.929 . S
H3135 C3145 0.929 . S
H3136 C3140 0.929 . S
H3137 C3146 0.929 . S
C3138 H3132 0.930 . S
C3138 C3139 1.367 . S
C3138 C3146 1.378 . S
C3139 C3138 1.367 . S
C3139 C3147 1.433 . S
C3140 H3136 0.929 . S
C3140 C3142 1.378 . S
C3140 C3144 1.350 . S
C3141 C3144 1.463 . S
C3141 C3146 1.350 . S
C3141 N3149 1.427 . S
C3142 H3133 0.930 . S
C3142 C3140 1.378 . S
C3142 C3143 1.367 . S
C3143 C3142 1.367 . S
C3143 C3145 1.433 . S
C3144 C3140 1.350 . S
C3144 C3141 1.463 . S
C3144 N3148 1.427 . S
C3145 H3135 0.929 . S
C3145 C3143 1.433 . S
C3145 N3148 1.384 . S
C3146 H3137 0.929 . S
C3146 C3138 1.378 . S
C3146 C3141 1.350 . S
C3147 H3134 0.929 . S
C3147 C3139 1.433 . S
C3147 N3149 1.384 . S
N3148 C3144 1.427 . S
N3148 C3145 1.384 . S
N3149 C3141 1.427 . S
N3149 C3147 1.384 . S
H3150 C3156 0.930 . S
H3151 C3160 0.930 . S
H3152 C3165 0.929 . S
H3153 C3163 0.929 . S
H3154 C3158 0.929 . S
H3155 C3164 0.929 . S
C3156 H3150 0.930 . S
C3156 C3157 1.367 . S
C3156 C3164 1.378 . S
C3157 C3156 1.367 . S
C3157 C3165 1.433 . S
C3158 H3154 0.929 . S
C3158 C3160 1.378 . S
C3158 C3162 1.350 . S
C3159 C3162 1.463 . S
C3159 C3164 1.350 . S
C3159 N3167 1.427 . S
C3160 H3151 0.930 . S
C3160 C3158 1.378 . S
C3160 C3161 1.367 . S
C3161 C3160 1.367 . S
C3161 C3163 1.433 . S
C3162 C3158 1.350 . S
C3162 C3159 1.463 . S
C3162 N3166 1.427 . S
C3163 H3153 0.929 . S
C3163 C3161 1.433 . S
C3163 N3166 1.384 . S
C3164 H3155 0.929 . S
C3164 C3156 1.378 . S
C3164 C3159 1.350 . S
C3165 H3152 0.929 . S
C3165 C3157 1.433 . S
C3165 N3167 1.384 . S
N3166 C3162 1.427 . S
N3166 C3163 1.384 . S
N3167 C3159 1.427 . S
N3167 C3165 1.384 . S
H3168 C3174 0.930 . S
H3169 C3178 0.930 . S
H3170 C3183 0.929 . S
H3171 C3181 0.929 . S
H3172 C3176 0.929 . S
H3173 C3182 0.929 . S
C3174 H3168 0.930 . S
C3174 C3175 1.367 . S
C3174 C3182 1.378 . S
C3175 C3174 1.367 . S
C3175 C3183 1.433 . S
C3176 H3172 0.929 . S
C3176 C3178 1.378 . S
C3176 C3180 1.350 . S
C3177 C3180 1.463 . S
C3177 C3182 1.350 . S
C3177 N3185 1.427 . S
C3178 H3169 0.930 . S
C3178 C3176 1.378 . S
C3178 C3179 1.367 . S
C3179 C3178 1.367 . S
C3179 C3181 1.433 . S
C3180 C3176 1.350 . S
C3180 C3177 1.463 . S
C3180 N3184 1.427 . S
C3181 H3171 0.929 . S
C3181 C3179 1.433 . S
C3181 N3184 1.384 . S
C3182 H3173 0.929 . S
C3182 C3174 1.378 . S
C3182 C3177 1.350 . S
C3183 H3170 0.929 . S
C3183 C3175 1.433 . S
C3183 N3185 1.384 . S
N3184 C3180 1.427 . S
N3184 C3181 1.384 . S
N3185 C3177 1.427 . S
N3185 C3183 1.384 . S
H3186 C3192 0.930 . S
H3187 C3196 0.930 . S
H3188 C3201 0.929 . S
H3189 C3199 0.929 . S
H3190 C3194 0.929 . S
H3191 C3200 0.929 . S
C3192 H3186 0.930 . S
C3192 C3193 1.367 . S
C3192 C3200 1.378 . S
C3193 C3192 1.367 . S
C3193 C3201 1.433 . S
C3194 H3190 0.929 . S
C3194 C3196 1.378 . S
C3194 C3198 1.350 . S
C3195 C3198 1.463 . S
C3195 C3200 1.350 . S
C3195 N3203 1.427 . S
C3196 H3187 0.930 . S
C3196 C3194 1.378 . S
C3196 C3197 1.367 . S
C3197 C3196 1.367 . S
C3197 C3199 1.433 . S
C3198 C3194 1.350 . S
C3198 C3195 1.463 . S
C3198 N3202 1.427 . S
C3199 H3189 0.929 . S
C3199 C3197 1.433 . S
C3199 N3202 1.384 . S
C3200 H3191 0.929 . S
C3200 C3192 1.378 . S
C3200 C3195 1.350 . S
C3201 H3188 0.929 . S
C3201 C3193 1.433 . S
C3201 N3203 1.384 . S
N3202 C3198 1.427 . S
N3202 C3199 1.384 . S
N3203 C3195 1.427 . S
N3203 C3201 1.384 . S
H3204 C3210 0.930 . S
H3205 C3214 0.930 . S
H3206 C3219 0.929 . S
H3207 C3217 0.929 . S
H3208 C3212 0.929 . S
H3209 C3218 0.929 . S
C3210 H3204 0.930 . S
C3210 C3211 1.367 . S
C3210 C3218 1.378 . S
C3211 C3210 1.367 . S
C3211 C3219 1.433 . S
C3212 H3208 0.929 . S
C3212 C3214 1.378 . S
C3212 C3216 1.350 . S
C3213 C3216 1.463 . S
C3213 C3218 1.350 . S
C3213 N3221 1.427 . S
C3214 H3205 0.930 . S
C3214 C3212 1.378 . S
C3214 C3215 1.367 . S
C3215 C3214 1.367 . S
C3215 C3217 1.433 . S
C3216 C3212 1.350 . S
C3216 C3213 1.463 . S
C3216 N3220 1.427 . S
C3217 H3207 0.929 . S
C3217 C3215 1.433 . S
C3217 N3220 1.384 . S
C3218 H3209 0.929 . S
C3218 C3210 1.378 . S
C3218 C3213 1.350 . S
C3219 H3206 0.929 . S
C3219 C3211 1.433 . S
C3219 N3221 1.384 . S
N3220 C3216 1.427 . S
N3220 C3217 1.384 . S
N3221 C3213 1.427 . S
N3221 C3219 1.384 . S
H3222 C3228 0.930 . S
H3223 C3232 0.930 . S
H3224 C3237 0.929 . S
H3225 C3235 0.929 . S
H3226 C3230 0.929 . S
H3227 C3236 0.929 . S
C3228 H3222 0.930 . S
C3228 C3229 1.367 . S
C3228 C3236 1.378 . S
C3229 C3228 1.367 . S
C3229 C3237 1.433 . S
C3230 H3226 0.929 . S
C3230 C3232 1.378 . S
C3230 C3234 1.350 . S
C3231 C3234 1.463 . S
C3231 C3236 1.350 . S
C3231 N3239 1.427 . S
C3232 H3223 0.930 . S
C3232 C3230 1.378 . S
C3232 C3233 1.367 . S
C3233 C3232 1.367 . S
C3233 C3235 1.433 . S
C3234 C3230 1.350 . S
C3234 C3231 1.463 . S
C3234 N3238 1.427 . S
C3235 H3225 0.929 . S
C3235 C3233 1.433 . S
C3235 N3238 1.384 . S
C3236 H3227 0.929 . S
C3236 C3228 1.378 . S
C3236 C3231 1.350 . S
C3237 H3224 0.929 . S
C3237 C3229 1.433 . S
C3237 N3239 1.384 . S
N3238 C3234 1.427 . S
N3238 C3235 1.384 . S
N3239 C3231 1.427 . S
N3239 C3237 1.384 . S
H3240 C3246 0.930 . S
H3241 C3250 0.930 . S
H3242 C3255 0.929 . S
H3243 C3253 0.929 . S
H3244 C3248 0.929 . S
H3245 C3254 0.929 . S
C3246 H3240 0.930 . S
C3246 C3247 1.367 . S
C3246 C3254 1.378 . S
C3247 C3246 1.367 . S
C3247 C3255 1.433 . S
C3248 H3244 0.929 . S
C3248 C3250 1.378 . S
C3248 C3252 1.350 . S
C3249 C3252 1.463 . S
C3249 C3254 1.350 . S
C3249 N3257 1.427 . S
C3250 H3241 0.930 . S
C3250 C3248 1.378 . S
C3250 C3251 1.367 . S
C3251 C3250 1.367 . S
C3251 C3253 1.433 . S
C3252 C3248 1.350 . S
C3252 C3249 1.463 . S
C3252 N3256 1.427 . S
C3253 H3243 0.929 . S
C3253 C3251 1.433 . S
C3253 N3256 1.384 . S
C3254 H3245 0.929 . S
C3254 C3246 1.378 . S
C3254 C3249 1.350 . S
C3255 H3242 0.929 . S
C3255 C3247 1.433 . S
C3255 N3257 1.384 . S
N3256 C3252 1.427 . S
N3256 C3253 1.384 . S
N3257 C3249 1.427 . S
N3257 C3255 1.384 . S
H3258 C3264 0.930 . S
H3259 C3268 0.930 . S
H3260 C3273 0.929 . S
H3261 C3271 0.929 . S
H3262 C3266 0.929 . S
H3263 C3272 0.929 . S
C3264 H3258 0.930 . S
C3264 C3265 1.367 . S
C3264 C3272 1.378 . S
C3265 C3264 1.367 . S
C3265 C3273 1.433 . S
C3266 H3262 0.929 . S
C3266 C3268 1.378 . S
C3266 C3270 1.350 . S
C3267 C3270 1.463 . S
C3267 C3272 1.350 . S
C3267 N3275 1.427 . S
C3268 H3259 0.930 . S
C3268 C3266 1.378 . S
C3268 C3269 1.367 . S
C3269 C3268 1.367 . S
C3269 C3271 1.433 . S
C3270 C3266 1.350 . S
C3270 C3267 1.463 . S
C3270 N3274 1.427 . S
C3271 H3261 0.929 . S
C3271 C3269 1.433 . S
C3271 N3274 1.384 . S
C3272 H3263 0.929 . S
C3272 C3264 1.378 . S
C3272 C3267 1.350 . S
C3273 H3260 0.929 . S
C3273 C3265 1.433 . S
C3273 N3275 1.384 . S
N3274 C3270 1.427 . S
N3274 C3271 1.384 . S
N3275 C3267 1.427 . S
N3275 C3273 1.384 . S
H3276 C3282 0.930 . S
H3277 C3286 0.930 . S
H3278 C3291 0.929 . S
H3279 C3289 0.929 . S
H3280 C3284 0.929 . S
H3281 C3290 0.929 . S
C3282 H3276 0.930 . S
C3282 C3283 1.367 . S
C3282 C3290 1.378 . S
C3283 C3282 1.367 . S
C3283 C3291 1.433 . S
C3284 H3280 0.929 . S
C3284 C3286 1.378 . S
C3284 C3288 1.350 . S
C3285 C3288 1.463 . S
C3285 C3290 1.350 . S
C3285 N3293 1.427 . S
C3286 H3277 0.930 . S
C3286 C3284 1.378 . S
C3286 C3287 1.367 . S
C3287 C3286 1.367 . S
C3287 C3289 1.433 . S
C3288 C3284 1.350 . S
C3288 C3285 1.463 . S
C3288 N3292 1.427 . S
C3289 H3279 0.929 . S
C3289 C3287 1.433 . S
C3289 N3292 1.384 . S
C3290 H3281 0.929 . S
C3290 C3282 1.378 . S
C3290 C3285 1.350 . S
C3291 H3278 0.929 . S
C3291 C3283 1.433 . S
C3291 N3293 1.384 . S
N3292 C3288 1.427 . S
N3292 C3289 1.384 . S
N3293 C3285 1.427 . S
N3293 C3291 1.384 . S
H3294 C3300 0.930 . S
H3295 C3304 0.930 . S
H3296 C3309 0.929 . S
H3297 C3307 0.929 . S
H3298 C3302 0.929 . S
H3299 C3308 0.929 . S
C3300 H3294 0.930 . S
C3300 C3301 1.367 . S
C3300 C3308 1.378 . S
C3301 C3300 1.367 . S
C3301 C3309 1.433 . S
C3302 H3298 0.929 . S
C3302 C3304 1.378 . S
C3302 C3306 1.350 . S
C3303 C3306 1.463 . S
C3303 C3308 1.350 . S
C3303 N3311 1.427 . S
C3304 H3295 0.930 . S
C3304 C3302 1.378 . S
C3304 C3305 1.367 . S
C3305 C3304 1.367 . S
C3305 C3307 1.433 . S
C3306 C3302 1.350 . S
C3306 C3303 1.463 . S
C3306 N3310 1.427 . S
C3307 H3297 0.929 . S
C3307 C3305 1.433 . S
C3307 N3310 1.384 . S
C3308 H3299 0.929 . S
C3308 C3300 1.378 . S
C3308 C3303 1.350 . S
C3309 H3296 0.929 . S
C3309 C3301 1.433 . S
C3309 N3311 1.384 . S
N3310 C3306 1.427 . S
N3310 C3307 1.384 . S
N3311 C3303 1.427 . S
N3311 C3309 1.384 . S
C2023 C56 2.460 . S
C2027 C644 2.565 . S
C2041 C140 2.155 . S
C2045 C392 2.227 . S
C2059 C231 2.398 . S
C2063 C483 2.459 . S
C2077 C308 2.047 . S
C2081 C567 2.011 . S
C2095 C63 2.552 . S
C2099 C735 2.487 . S
C2113 C812 2.028 . S
C2117 C147 1.989 . S
C2131 C896 2.318 . S
C2135 C224 2.413 . S
C2149 C315 1.767 1_554 S
C2153 C980 1.751 . S
C2167 C399 1.700 . S
C2171 C819 1.735 1_545 S
C2185 C903 2.394 . S
C2189 C476 2.350 . S
C2203 C560 2.208 . S
C2207 C987 2.237 1_565 S
C2221 C651 2.474 . S
C2225 C728 2.604 . S
C2239 C1071 2.291 . S
C2243 C1820 2.418 . S
C2257 C1148 2.016 . S
C2261 C1904 2.049 . S
C2275 C1239 2.371 . S
C2279 C1988 2.488 . S
C2293 C1995 2.344 . S
C2297 C1316 2.476 . S
C2311 C1827 2.348 . S
C2315 C1407 2.407 . S
C2329 C1484 2.171 . S
C2333 C1652 2.091 . S
C2347 C1064 2.431 . S
C2351 C1400 2.331 . S
C2365 C1575 1.740 . S
C2369 C1155 1.782 1_455 S
C2383 C1323 2.299 . S
C2387 C1232 2.423 . S
C2401 C1743 2.172 . S
C2405 C1491 2.115 . S
C2419 C1568 2.238 . S
C2423 C1911 2.121 . S
C2437 C1659 2.160 . S
C2441 C1736 2.139 . S
C2455 C403 3.500 . S
C2459 C67 3.497 . S
C2473 C494 3.644 . S
C2477 C151 3.492 . S
C2491 C242 3.674 . S
C2495 C578 3.754 . S
C2509 C319 3.545 . S
C2513 C655 3.495 . S
C2527 C998 3.674 1_545 S
C2531 C746 3.603 . S
C2545 C739 3.545 . S
C2549 C823 3.597 . S
C2563 C830 3.609 1_565 S
C2567 C907 3.475 . S
C2581 C991 3.304 . S
C2585 C914 3.426 . S
C2599 C1579 3.507 . S
C2603 C662 3.557 . S
C2617 C326 3.617 1_556 S
C2621 C1082 3.530 . S
C2635 C74 3.664 . S
C2639 C1159 3.558 . S
C2653 C158 3.756 . S
C2657 C1250 3.692 . S
C2671 C1670 3.645 . S
C2675 C487 3.522 . S
C2689 C410 3.367 . S
C2693 C1327 3.287 . S
C2707 C571 3.483 . S
C2711 C1418 3.617 . S
C2725 C1411 3.541 . S
C2729 C1495 3.506 . S
C2743 C1586 3.407 . S
C2747 C1075 3.323 . S
C2761 C1166 3.629 1_655 S
C2765 C1334 3.547 . S
C2779 C1663 3.637 . S
C2783 C1243 3.591 . S
C2797 C1754 3.704 . S
C2801 C2006 3.622 . S
C2815 C1747 3.690 . S
C2819 C1831 3.644 . S
C2833 C1915 3.568 . S
C2837 C1838 3.651 . S
C2851 C1999 3.483 . S
C2855 C1922 3.559 . S
C2869 C1502 3.747 . S
C2873 C235 3.649 . S
C2887 C58 0.443 . S
C2891 C814 0.602 . S
C2905 C142 0.455 . S
C2909 C898 0.412 . S
C2923 C237 0.492 . S
C2927 C982 0.594 . S
C2941 C741 0.448 . S
C2945 C310 0.551 . S
C2959 C394 0.962 . S
C2963 C730 1.351 . S
C2977 C825 1.331 . S
C2981 C489 1.534 . S
C2995 C909 1.256 . S
C2999 C573 1.201 . S
C3013 C646 1.331 . S
C3017 C993 1.160 . S
C3031 C657 0.444 . S
C3035 C1150 0.609 . S
C3049 C562 0.463 . S
C3053 C1077 0.328 . S
C3067 C405 0.499 . S
C3071 C1245 0.496 . S
C3085 C1570 0.943 . S
C3089 C69 1.301 . S
C3103 C1497 0.315 . S
C3107 C478 0.495 . S
C3121 C153 1.190 . S
C3125 C1318 1.139 . S
C3139 C321 1.313 . S
C3143 C1413 1.516 . S
C3157 C1822 1.057 . S
C3161 C1486 0.941 . S
C3175 C1906 0.868 . S
C3179 C1066 1.113 . S
C3193 C1990 1.585 . S
C3197 C1161 1.368 . S
C3211 C1749 1.139 . S
C3215 C1234 1.061 . S
C3229 C1738 0.557 . S
C3233 C1402 0.470 . S
C3247 C1581 0.518 . S
C3251 C1833 0.518 . S
C3265 C1917 0.362 . S
C3269 C1329 0.305 . S
C3283 C1654 0.528 . S
C3287 C2001 0.309 . S
C3301 C226 1.049 . S
C3305 C1665 1.144 . S
