# Generated by pormake.
# Topology vbx, (6)-cn, num edge types: 1
# Building blocks:
#     Node 0, Type 0, BuildingBlock: OJICUG_clean_sbu_0, # of connection points: 6
#     Node 1, Type 0, BuildingBlock: OJICUG_clean_sbu_0, # of connection points: 6
#     Node 2, Type 0, BuildingBlock: OJICUG_clean_sbu_0, # of connection points: 6
#     Node 3, Type 0, BuildingBlock: OJICUG_clean_sbu_0, # of connection points: 6
#     Node 4, Type 0, BuildingBlock: OJICUG_clean_sbu_0, # of connection points: 6
#     Node 5, Type 0, BuildingBlock: OJICUG_clean_sbu_0, # of connection points: 6
#     Node 6, Type 0, BuildingBlock: OJICUG_clean_sbu_0, # of connection points: 6
#     Node 7, Type 0, BuildingBlock: OJICUG_clean_sbu_0, # of connection points: 6
#     Node 8, Type 0, BuildingBlock: OJICUG_clean_sbu_0, # of connection points: 6
#     Node 9, Type 0, BuildingBlock: OJICUG_clean_sbu_0, # of connection points: 6
#     Node 10, Type 0, BuildingBlock: OJICUG_clean_sbu_0, # of connection points: 6
#     Node 11, Type 0, BuildingBlock: OJICUG_clean_sbu_0, # of connection points: 6
#     Node 12, Type 0, BuildingBlock: OJICUG_clean_sbu_0, # of connection points: 6
#     Node 13, Type 0, BuildingBlock: OJICUG_clean_sbu_0, # of connection points: 6
#     Node 14, Type 0, BuildingBlock: OJICUG_clean_sbu_0, # of connection points: 6
#     Node 15, Type 0, BuildingBlock: OJICUG_clean_sbu_0, # of connection points: 6
#     Edge 16, Type (0, 0), None
#     Edge 17, Type (0, 0), None
#     Edge 18, Type (0, 0), None
#     Edge 19, Type (0, 0), None
#     Edge 20, Type (0, 0), None
#     Edge 21, Type (0, 0), None
#     Edge 22, Type (0, 0), None
#     Edge 23, Type (0, 0), None
#     Edge 24, Type (0, 0), None
#     Edge 25, Type (0, 0), None
#     Edge 26, Type (0, 0), None
#     Edge 27, Type (0, 0), None
#     Edge 28, Type (0, 0), None
#     Edge 29, Type (0, 0), None
#     Edge 30, Type (0, 0), None
#     Edge 31, Type (0, 0), None
#     Edge 32, Type (0, 0), None
#     Edge 33, Type (0, 0), None
#     Edge 34, Type (0, 0), None
#     Edge 35, Type (0, 0), None
#     Edge 36, Type (0, 0), None
#     Edge 37, Type (0, 0), None
#     Edge 38, Type (0, 0), None
#     Edge 39, Type (0, 0), None
#     Edge 40, Type (0, 0), None
#     Edge 41, Type (0, 0), None
#     Edge 42, Type (0, 0), None
#     Edge 43, Type (0, 0), None
#     Edge 44, Type (0, 0), None
#     Edge 45, Type (0, 0), None
#     Edge 46, Type (0, 0), None
#     Edge 47, Type (0, 0), None
#     Edge 48, Type (0, 0), None
#     Edge 49, Type (0, 0), None
#     Edge 50, Type (0, 0), None
#     Edge 51, Type (0, 0), None
#     Edge 52, Type (0, 0), None
#     Edge 53, Type (0, 0), None
#     Edge 54, Type (0, 0), None
#     Edge 55, Type (0, 0), None
#     Edge 56, Type (0, 0), None
#     Edge 57, Type (0, 0), None
#     Edge 58, Type (0, 0), None
#     Edge 59, Type (0, 0), None
#     Edge 60, Type (0, 0), None
#     Edge 61, Type (0, 0), None
#     Edge 62, Type (0, 0), None
#     Edge 63, Type (0, 0), None
# Relax obj value: 0.244
# Max RMSD: 0.241
# Mean RMSD: 0.241
data_MOF--net-vbx--node1-OJICUG_clean_sbu_0--edge1-none
_symmetry_space_group_name_H-M    P1
_symmetry_Int_Tables_number       1
_symmetry_cell_setting            triclinic
loop_
_symmetry_equiv_pos_as_xyz
'x, y, z'
_cell_length_a     24.341609
_cell_length_b     13.967888
_cell_length_c     28.290927
_cell_angle_alpha  90.0
_cell_angle_beta   90.0
_cell_angle_gamma 90.000173
loop_
_atom_site_label
_atom_site_type_symbol
_atom_site_fract_x
_atom_site_fract_y
_atom_site_fract_z
_atom_type_partial_charge
Sc0 Sc 0.33927 0.49104 0.12204 0.0
Sc1 Sc 0.23122 0.33265 0.12245 0.0
Sc2 Sc 0.35181 0.27839 0.05987 0.0
O3 O 0.30685 0.36749 0.10123 0.0
C4 C 0.37242 0.48375 0.01597 0.0
C5 C 0.21054 0.5493 0.11544 0.0
C6 C 0.23957 0.26804 0.01289 0.0
C7 C 0.28775 0.41795 0.21597 0.0
C8 C 0.44442 0.35053 0.12162 0.0
C9 C 0.27624 0.13228 0.11763 0.0
O10 O 0.34789 0.53023 0.04857 0.0
O11 O 0.19348 0.46729 0.10296 0.0
O12 O 0.29059 0.28086 0.00812 0.0
O13 O 0.32986 0.45125 0.19481 0.0
O14 O 0.41839 0.27495 0.11012 0.0
O15 O 0.26237 0.19875 0.14535 0.0
O16 O 0.4216 0.43274 0.12192 0.0
O17 O 0.24603 0.38372 0.19425 0.0
O18 O 0.31207 0.14611 0.08546 0.0
O19 O 0.26071 0.56487 0.12593 0.0
O20 O 0.38924 0.39786 0.02168 0.0
O21 O 0.21349 0.27702 0.05203 0.0
Sc22 Sc 0.60997 0.51742 0.62204 0.0
Sc23 Sc 0.71802 0.67581 0.62245 0.0
Sc24 Sc 0.59742 0.73007 0.55987 0.0
O25 O 0.64238 0.64096 0.60123 0.0
C26 C 0.57681 0.52471 0.51597 0.0
C27 C 0.7387 0.45916 0.61544 0.0
C28 C 0.70967 0.74041 0.51289 0.0
C29 C 0.66149 0.5905 0.71597 0.0
C30 C 0.50482 0.65792 0.62162 0.0
C31 C 0.673 0.87617 0.61763 0.0
O32 O 0.60135 0.47822 0.54857 0.0
O33 O 0.75575 0.54117 0.60296 0.0
O34 O 0.65865 0.72759 0.50812 0.0
O35 O 0.61938 0.5572 0.69481 0.0
O36 O 0.53085 0.73351 0.61012 0.0
O37 O 0.68687 0.8097 0.64535 0.0
O38 O 0.52764 0.57572 0.62192 0.0
O39 O 0.70321 0.62473 0.69425 0.0
O40 O 0.63717 0.86235 0.58546 0.0
O41 O 0.68853 0.44359 0.62593 0.0
O42 O 0.56 0.61059 0.52168 0.0
O43 O 0.73575 0.73143 0.55203 0.0
Sc44 Sc 0.35182 0.73007 0.92401 0.0
Sc45 Sc 0.23122 0.67581 0.86143 0.0
Sc46 Sc 0.33927 0.51742 0.86184 0.0
O47 O 0.30686 0.64096 0.88266 0.0
C48 C 0.44442 0.65792 0.86227 0.0
C49 C 0.27625 0.87617 0.86625 0.0
C50 C 0.28775 0.59051 0.76791 0.0
C51 C 0.23957 0.74041 0.971 0.0
C52 C 0.37244 0.52468 0.96791 0.0
C53 C 0.21055 0.45916 0.86844 0.0
O54 O 0.4184 0.73351 0.87378 0.0
O55 O 0.26238 0.8097 0.83853 0.0
O56 O 0.32986 0.55722 0.78908 0.0
O57 O 0.29059 0.72759 0.97576 0.0
O58 O 0.3479 0.47821 0.9353 0.0
O59 O 0.19349 0.54117 0.88093 0.0
O60 O 0.38923 0.61059 0.96221 0.0
O61 O 0.21349 0.73143 0.93185 0.0
O62 O 0.26071 0.44359 0.85794 0.0
O63 O 0.31207 0.86234 0.89843 0.0
O64 O 0.4216 0.57572 0.86196 0.0
O65 O 0.24603 0.62474 0.78964 0.0
Sc66 Sc 0.60997 0.49104 0.36184 0.0
Sc67 Sc 0.71802 0.33265 0.36143 0.0
Sc68 Sc 0.59742 0.27839 0.42401 0.0
O69 O 0.64238 0.36749 0.38266 0.0
C70 C 0.5768 0.48377 0.46791 0.0
C71 C 0.73869 0.54929 0.36844 0.0
C72 C 0.70967 0.26804 0.471 0.0
C73 C 0.66149 0.41794 0.26791 0.0
C74 C 0.50482 0.35053 0.36227 0.0
C75 C 0.67299 0.13228 0.36625 0.0
O76 O 0.60134 0.53024 0.4353 0.0
O77 O 0.75575 0.46729 0.38093 0.0
O78 O 0.65865 0.28086 0.47576 0.0
O79 O 0.61938 0.45124 0.28908 0.0
O80 O 0.53084 0.27495 0.37378 0.0
O81 O 0.68686 0.19875 0.33853 0.0
O82 O 0.52764 0.43274 0.36196 0.0
O83 O 0.70321 0.38372 0.28964 0.0
O84 O 0.63716 0.14611 0.39843 0.0
O85 O 0.68853 0.56486 0.35794 0.0
O86 O 0.56001 0.39787 0.46221 0.0
O87 O 0.73575 0.27702 0.43185 0.0
Sc88 Sc 0.60999 0.51741 0.86184 0.0
Sc89 Sc 0.71804 0.67581 0.86142 0.0
Sc90 Sc 0.59744 0.73007 0.92401 0.0
O91 O 0.6424 0.64096 0.88265 0.0
C92 C 0.50486 0.65794 0.86223 0.0
C93 C 0.6615 0.5905 0.76791 0.0
C94 C 0.67302 0.87616 0.86626 0.0
C95 C 0.73872 0.45916 0.86843 0.0
C96 C 0.57684 0.5247 0.96792 0.0
C97 C 0.70969 0.74039 0.97099 0.0
O98 O 0.52766 0.57572 0.86196 0.0
O99 O 0.70321 0.62475 0.78962 0.0
O100 O 0.63719 0.86235 0.89843 0.0
O101 O 0.68855 0.44359 0.85795 0.0
O102 O 0.56002 0.61058 0.9622 0.0
O103 O 0.73577 0.73143 0.93184 0.0
O104 O 0.60137 0.47822 0.93531 0.0
O105 O 0.75578 0.54118 0.88091 0.0
O106 O 0.65867 0.72757 0.97576 0.0
O107 O 0.61939 0.55719 0.78908 0.0
O108 O 0.53087 0.73352 0.87377 0.0
O109 O 0.68687 0.8097 0.83853 0.0
Sc110 Sc 0.35179 0.27839 0.42401 0.0
Sc111 Sc 0.2312 0.33264 0.36142 0.0
Sc112 Sc 0.33925 0.49105 0.36184 0.0
O113 O 0.30684 0.3675 0.38265 0.0
C114 C 0.3724 0.48375 0.46792 0.0
C115 C 0.23955 0.26806 0.47099 0.0
C116 C 0.21052 0.54929 0.36843 0.0
C117 C 0.27622 0.13229 0.36626 0.0
C118 C 0.44438 0.35051 0.36223 0.0
C119 C 0.28774 0.41795 0.26791 0.0
O120 O 0.38922 0.39787 0.4622 0.0
O121 O 0.21347 0.27703 0.43184 0.0
O122 O 0.26069 0.56487 0.35795 0.0
O123 O 0.31205 0.14611 0.39843 0.0
O124 O 0.42158 0.43273 0.36196 0.0
O125 O 0.24603 0.38371 0.28962 0.0
O126 O 0.41837 0.27493 0.37377 0.0
O127 O 0.26237 0.19875 0.33853 0.0
O128 O 0.32985 0.45126 0.28908 0.0
O129 O 0.29057 0.28089 0.47576 0.0
O130 O 0.34787 0.53024 0.43531 0.0
O131 O 0.19346 0.46728 0.38091 0.0
Sc132 Sc 0.59744 0.27839 0.05987 0.0
Sc133 Sc 0.71803 0.33264 0.12246 0.0
Sc134 Sc 0.60999 0.49104 0.12204 0.0
O135 O 0.6424 0.3675 0.10123 0.0
C136 C 0.57682 0.48378 0.01598 0.0
C137 C 0.70969 0.26806 0.01289 0.0
C138 C 0.73871 0.54929 0.11546 0.0
C139 C 0.67302 0.13229 0.11762 0.0
C140 C 0.50486 0.35051 0.12165 0.0
C141 C 0.6615 0.41794 0.21598 0.0
O142 O 0.56002 0.39788 0.02168 0.0
O143 O 0.73577 0.27703 0.05204 0.0
O144 O 0.68855 0.56487 0.12594 0.0
O145 O 0.63718 0.14611 0.08545 0.0
O146 O 0.52766 0.43273 0.12193 0.0
O147 O 0.70321 0.38371 0.19426 0.0
O148 O 0.53086 0.27493 0.11011 0.0
O149 O 0.68687 0.19875 0.14535 0.0
O150 O 0.61939 0.45125 0.19481 0.0
O151 O 0.65867 0.28089 0.00813 0.0
O152 O 0.60136 0.53025 0.04858 0.0
O153 O 0.75577 0.46728 0.10298 0.0
Sc154 Sc 0.3518 0.73006 0.55987 0.0
Sc155 Sc 0.23121 0.67581 0.62246 0.0
Sc156 Sc 0.33925 0.51741 0.62204 0.0
O157 O 0.30684 0.64096 0.60123 0.0
C158 C 0.37242 0.52468 0.51598 0.0
C159 C 0.23955 0.74039 0.51289 0.0
C160 C 0.21052 0.45917 0.61546 0.0
C161 C 0.27622 0.87616 0.61762 0.0
C162 C 0.44438 0.65794 0.62165 0.0
C163 C 0.28774 0.59051 0.71598 0.0
O164 O 0.38921 0.61058 0.52168 0.0
O165 O 0.21347 0.73143 0.55204 0.0
O166 O 0.26069 0.44359 0.62594 0.0
O167 O 0.31205 0.86235 0.58545 0.0
O168 O 0.42158 0.57572 0.62193 0.0
O169 O 0.24603 0.62475 0.69426 0.0
O170 O 0.41837 0.73352 0.61011 0.0
O171 O 0.26237 0.8097 0.64535 0.0
O172 O 0.32985 0.55721 0.69481 0.0
O173 O 0.29057 0.72757 0.50813 0.0
O174 O 0.34787 0.47821 0.54858 0.0
O175 O 0.19347 0.54118 0.60298 0.0
Sc176 Sc 0.83927 0.99103 0.12204 0.0
Sc177 Sc 0.73121 0.83265 0.12245 0.0
Sc178 Sc 0.85181 0.77838 0.05987 0.0
O179 O 0.80685 0.86748 0.10123 0.0
C180 C 0.87242 0.98374 0.01596 0.0
C181 C 0.71055 0.04929 0.11544 0.0
C182 C 0.73956 0.76804 0.01289 0.0
C183 C 0.78775 0.91794 0.21597 0.0
C184 C 0.94442 0.85051 0.12161 0.0
C185 C 0.77626 0.63228 0.11765 0.0
O186 O 0.8479 0.03023 0.04858 0.0
O187 O 0.69349 0.96729 0.10295 0.0
O188 O 0.79058 0.78087 0.00812 0.0
O189 O 0.82986 0.95123 0.19481 0.0
O190 O 0.91839 0.77493 0.11011 0.0
O191 O 0.76235 0.69874 0.14536 0.0
O192 O 0.9216 0.93272 0.12192 0.0
O193 O 0.74603 0.88373 0.19425 0.0
O194 O 0.81206 0.64611 0.08546 0.0
O195 O 0.76072 0.06486 0.12594 0.0
O196 O 0.88923 0.89785 0.02168 0.0
O197 O 0.71348 0.77701 0.05203 0.0
Sc198 Sc 0.10997 0.01743 0.62204 0.0
Sc199 Sc 0.21802 0.17581 0.62245 0.0
Sc200 Sc 0.09743 0.23008 0.55987 0.0
O201 O 0.14238 0.14097 0.60123 0.0
C202 C 0.07682 0.02471 0.51596 0.0
C203 C 0.23869 0.95916 0.61544 0.0
C204 C 0.20968 0.24041 0.51289 0.0
C205 C 0.16149 0.09051 0.71597 0.0
C206 C 0.00482 0.15794 0.62161 0.0
C207 C 0.17298 0.37618 0.61765 0.0
O208 O 0.10134 0.97823 0.54858 0.0
O209 O 0.25575 0.04117 0.60295 0.0
O210 O 0.15866 0.22759 0.50812 0.0
O211 O 0.11937 0.05722 0.69481 0.0
O212 O 0.03085 0.23353 0.61011 0.0
O213 O 0.18688 0.30971 0.64536 0.0
O214 O 0.02764 0.07574 0.62192 0.0
O215 O 0.20321 0.12473 0.69425 0.0
O216 O 0.13718 0.36234 0.58546 0.0
O217 O 0.18852 0.9436 0.62594 0.0
O218 O 0.06001 0.1106 0.52168 0.0
O219 O 0.23576 0.23145 0.55203 0.0
Sc220 Sc 0.85181 0.23007 0.92402 0.0
Sc221 Sc 0.73122 0.17581 0.86143 0.0
Sc222 Sc 0.83927 0.01743 0.86184 0.0
O223 O 0.80686 0.14097 0.88266 0.0
C224 C 0.94442 0.15795 0.86227 0.0
C225 C 0.77626 0.37618 0.86623 0.0
C226 C 0.78775 0.09052 0.76791 0.0
C227 C 0.73956 0.24041 0.971 0.0
C228 C 0.87244 0.02469 0.96791 0.0
C229 C 0.71055 0.95916 0.86844 0.0
O230 O 0.9184 0.23353 0.87379 0.0
O231 O 0.76236 0.30971 0.83853 0.0
O232 O 0.82987 0.05724 0.78908 0.0
O233 O 0.79058 0.22759 0.97576 0.0
O234 O 0.8479 0.97822 0.9353 0.0
O235 O 0.6935 0.04117 0.88094 0.0
O236 O 0.88922 0.1106 0.96222 0.0
O237 O 0.71348 0.23144 0.93185 0.0
O238 O 0.76072 0.9436 0.85794 0.0
O239 O 0.81206 0.36234 0.89843 0.0
O240 O 0.9216 0.07574 0.86196 0.0
O241 O 0.74603 0.12473 0.78964 0.0
Sc242 Sc 0.10997 0.99102 0.36184 0.0
Sc243 Sc 0.21802 0.83264 0.36143 0.0
Sc244 Sc 0.09743 0.77838 0.42402 0.0
O245 O 0.14238 0.86748 0.38266 0.0
C246 C 0.0768 0.98377 0.46791 0.0
C247 C 0.23869 0.04929 0.36844 0.0
C248 C 0.20968 0.76804 0.471 0.0
C249 C 0.16149 0.91793 0.26791 0.0
C250 C 0.00482 0.85051 0.36227 0.0
C251 C 0.17298 0.63228 0.36623 0.0
O252 O 0.10134 0.03024 0.4353 0.0
O253 O 0.25574 0.96729 0.38094 0.0
O254 O 0.15866 0.78087 0.47576 0.0
O255 O 0.11937 0.95122 0.28908 0.0
O256 O 0.03084 0.77493 0.37379 0.0
O257 O 0.18688 0.69874 0.33853 0.0
O258 O 0.02764 0.93271 0.36196 0.0
O259 O 0.20321 0.88373 0.28964 0.0
O260 O 0.13718 0.64611 0.39843 0.0
O261 O 0.18852 0.06486 0.35794 0.0
O262 O 0.06001 0.89786 0.46222 0.0
O263 O 0.23576 0.77701 0.43185 0.0
Sc264 Sc 0.10999 0.01743 0.86184 0.0
Sc265 Sc 0.21804 0.17581 0.86142 0.0
Sc266 Sc 0.09745 0.23007 0.92401 0.0
O267 O 0.1424 0.14097 0.88265 0.0
C268 C 0.00486 0.15796 0.86223 0.0
C269 C 0.1615 0.09051 0.76791 0.0
C270 C 0.17301 0.37617 0.86624 0.0
C271 C 0.23871 0.95917 0.86843 0.0
C272 C 0.07684 0.02471 0.96792 0.0
C273 C 0.2097 0.24039 0.97099 0.0
O274 O 0.02766 0.07574 0.86196 0.0
O275 O 0.20322 0.12474 0.78963 0.0
O276 O 0.1372 0.36235 0.89844 0.0
O277 O 0.18854 0.94359 0.85794 0.0
O278 O 0.06002 0.11059 0.9622 0.0
O279 O 0.23578 0.23144 0.93184 0.0
O280 O 0.10136 0.97822 0.93531 0.0
O281 O 0.25577 0.04117 0.88092 0.0
O282 O 0.15868 0.22756 0.97576 0.0
O283 O 0.11938 0.05721 0.78907 0.0
O284 O 0.03087 0.23354 0.87378 0.0
O285 O 0.18689 0.30971 0.83852 0.0
Sc286 Sc 0.85179 0.77838 0.42401 0.0
Sc287 Sc 0.7312 0.83264 0.36142 0.0
Sc288 Sc 0.83925 0.99103 0.36184 0.0
O289 O 0.80684 0.86748 0.38265 0.0
C290 C 0.8724 0.98375 0.46792 0.0
C291 C 0.73954 0.76806 0.47099 0.0
C292 C 0.71053 0.04929 0.36843 0.0
C293 C 0.77623 0.63228 0.36624 0.0
C294 C 0.94438 0.85049 0.36223 0.0
C295 C 0.78774 0.91795 0.26791 0.0
O296 O 0.88922 0.89786 0.4622 0.0
O297 O 0.71346 0.77702 0.43184 0.0
O298 O 0.7607 0.06486 0.35794 0.0
O299 O 0.81204 0.64611 0.39844 0.0
O300 O 0.92158 0.93271 0.36196 0.0
O301 O 0.74602 0.88372 0.28963 0.0
O302 O 0.91837 0.77491 0.37378 0.0
O303 O 0.76235 0.69874 0.33852 0.0
O304 O 0.82985 0.95124 0.28907 0.0
O305 O 0.79056 0.78089 0.47576 0.0
O306 O 0.84787 0.03023 0.43531 0.0
O307 O 0.69347 0.96728 0.38092 0.0
Sc308 Sc 0.09745 0.77839 0.05987 0.0
Sc309 Sc 0.21804 0.83264 0.12246 0.0
Sc310 Sc 0.10998 0.99103 0.12205 0.0
O311 O 0.1424 0.86748 0.10123 0.0
C312 C 0.07682 0.98377 0.01598 0.0
C313 C 0.2097 0.76806 0.01289 0.0
C314 C 0.23871 0.04929 0.11545 0.0
C315 C 0.173 0.63228 0.11764 0.0
C316 C 0.00486 0.85049 0.12165 0.0
C317 C 0.1615 0.91794 0.21598 0.0
O318 O 0.06003 0.89787 0.02167 0.0
O319 O 0.23578 0.77702 0.05204 0.0
O320 O 0.18854 0.06486 0.12595 0.0
O321 O 0.1372 0.64611 0.08545 0.0
O322 O 0.02766 0.93271 0.12193 0.0
O323 O 0.20322 0.88371 0.19426 0.0
O324 O 0.03086 0.77491 0.1101 0.0
O325 O 0.18688 0.69874 0.14536 0.0
O326 O 0.11938 0.95123 0.19481 0.0
O327 O 0.15868 0.78089 0.00812 0.0
O328 O 0.10136 0.03024 0.04858 0.0
O329 O 0.25576 0.96728 0.10297 0.0
Sc330 Sc 0.85179 0.23007 0.55987 0.0
Sc331 Sc 0.7312 0.17581 0.62246 0.0
Sc332 Sc 0.83925 0.01743 0.62205 0.0
O333 O 0.80684 0.14097 0.60123 0.0
C334 C 0.87242 0.02468 0.51598 0.0
C335 C 0.73954 0.24039 0.51289 0.0
C336 C 0.71053 0.95917 0.61545 0.0
C337 C 0.77624 0.37617 0.61764 0.0
C338 C 0.94438 0.15796 0.62165 0.0
C339 C 0.78774 0.09052 0.71598 0.0
O340 O 0.88921 0.11059 0.52167 0.0
O341 O 0.71346 0.23144 0.55204 0.0
O342 O 0.7607 0.9436 0.62595 0.0
O343 O 0.81204 0.36234 0.58545 0.0
O344 O 0.92158 0.07575 0.62193 0.0
O345 O 0.74602 0.12474 0.69426 0.0
O346 O 0.91837 0.23354 0.6101 0.0
O347 O 0.76236 0.30971 0.64536 0.0
O348 O 0.82986 0.05723 0.69481 0.0
O349 O 0.79056 0.22756 0.50812 0.0
O350 O 0.84788 0.97822 0.54858 0.0
O351 O 0.69348 0.04117 0.60297 0.0
loop_
_geom_bond_atom_site_label_1
_geom_bond_atom_site_label_2
_geom_bond_distance
_geom_bond_site_symmetry_2
_ccdc_geom_bond_type
Sc0 O3 2.025 . S
Sc0 O10 2.105 . S
Sc0 O13 2.105 . S
Sc0 O16 2.105 . S
Sc0 O19 2.105 . S
Sc1 O3 2.025 . S
Sc1 O11 2.105 . S
Sc1 O15 2.105 . S
Sc1 O17 2.105 . S
Sc1 O21 2.105 . S
Sc2 O3 2.025 . S
Sc2 O12 2.105 . S
Sc2 O14 2.105 . S
Sc2 O18 2.105 . S
Sc2 O20 2.105 . S
O3 Sc0 2.025 . S
O3 Sc1 2.025 . S
O3 Sc2 2.025 . S
C4 O10 1.268 . S
C4 O20 1.268 . S
C5 O11 1.268 . S
C5 O19 1.268 . S
C6 O12 1.268 . S
C6 O21 1.268 . S
C7 O13 1.268 . S
C7 O17 1.268 . S
C8 O14 1.268 . S
C8 O16 1.268 . S
C9 O15 1.268 . S
C9 O18 1.268 . S
O10 Sc0 2.105 . S
O10 C4 1.268 . S
O11 Sc1 2.105 . S
O11 C5 1.268 . S
O12 Sc2 2.105 . S
O12 C6 1.268 . S
O13 Sc0 2.105 . S
O13 C7 1.268 . S
O14 Sc2 2.105 . S
O14 C8 1.268 . S
O15 Sc1 2.105 . S
O15 C9 1.268 . S
O16 Sc0 2.105 . S
O16 C8 1.268 . S
O17 Sc1 2.105 . S
O17 C7 1.268 . S
O18 Sc2 2.105 . S
O18 C9 1.268 . S
O19 Sc0 2.105 . S
O19 C5 1.268 . S
O20 Sc2 2.105 . S
O20 C4 1.268 . S
O21 Sc1 2.105 . S
O21 C6 1.268 . S
Sc22 O25 2.025 . S
Sc22 O32 2.105 . S
Sc22 O35 2.105 . S
Sc22 O38 2.105 . S
Sc22 O41 2.105 . S
Sc23 O25 2.025 . S
Sc23 O33 2.105 . S
Sc23 O37 2.105 . S
Sc23 O39 2.105 . S
Sc23 O43 2.105 . S
Sc24 O25 2.025 . S
Sc24 O34 2.105 . S
Sc24 O36 2.105 . S
Sc24 O40 2.105 . S
Sc24 O42 2.105 . S
O25 Sc22 2.025 . S
O25 Sc23 2.025 . S
O25 Sc24 2.025 . S
C26 O32 1.268 . S
C26 O42 1.268 . S
C27 O33 1.268 . S
C27 O41 1.268 . S
C28 O34 1.268 . S
C28 O43 1.268 . S
C29 O35 1.268 . S
C29 O39 1.268 . S
C30 O36 1.268 . S
C30 O38 1.268 . S
C31 O37 1.268 . S
C31 O40 1.268 . S
O32 Sc22 2.105 . S
O32 C26 1.268 . S
O33 Sc23 2.105 . S
O33 C27 1.268 . S
O34 Sc24 2.105 . S
O34 C28 1.268 . S
O35 Sc22 2.105 . S
O35 C29 1.268 . S
O36 Sc24 2.105 . S
O36 C30 1.268 . S
O37 Sc23 2.105 . S
O37 C31 1.268 . S
O38 Sc22 2.105 . S
O38 C30 1.268 . S
O39 Sc23 2.105 . S
O39 C29 1.268 . S
O40 Sc24 2.105 . S
O40 C31 1.268 . S
O41 Sc22 2.105 . S
O41 C27 1.268 . S
O42 Sc24 2.105 . S
O42 C26 1.268 . S
O43 Sc23 2.105 . S
O43 C28 1.268 . S
Sc44 O47 2.025 . S
Sc44 O54 2.105 . S
Sc44 O57 2.105 . S
Sc44 O60 2.105 . S
Sc44 O63 2.105 . S
Sc45 O47 2.025 . S
Sc45 O55 2.105 . S
Sc45 O59 2.105 . S
Sc45 O61 2.105 . S
Sc45 O65 2.105 . S
Sc46 O47 2.025 . S
Sc46 O56 2.105 . S
Sc46 O58 2.105 . S
Sc46 O62 2.105 . S
Sc46 O64 2.105 . S
O47 Sc44 2.025 . S
O47 Sc45 2.025 . S
O47 Sc46 2.025 . S
C48 O54 1.268 . S
C48 O64 1.268 . S
C49 O55 1.268 . S
C49 O63 1.268 . S
C50 O56 1.268 . S
C50 O65 1.268 . S
C51 O57 1.268 . S
C51 O61 1.268 . S
C52 O58 1.268 . S
C52 O60 1.268 . S
C53 O59 1.268 . S
C53 O62 1.268 . S
O54 Sc44 2.105 . S
O54 C48 1.268 . S
O55 Sc45 2.105 . S
O55 C49 1.268 . S
O56 Sc46 2.105 . S
O56 C50 1.268 . S
O57 Sc44 2.105 . S
O57 C51 1.268 . S
O58 Sc46 2.105 . S
O58 C52 1.268 . S
O59 Sc45 2.105 . S
O59 C53 1.268 . S
O60 Sc44 2.105 . S
O60 C52 1.268 . S
O61 Sc45 2.105 . S
O61 C51 1.268 . S
O62 Sc46 2.105 . S
O62 C53 1.268 . S
O63 Sc44 2.105 . S
O63 C49 1.268 . S
O64 Sc46 2.105 . S
O64 C48 1.268 . S
O65 Sc45 2.105 . S
O65 C50 1.268 . S
Sc66 O69 2.025 . S
Sc66 O76 2.105 . S
Sc66 O79 2.105 . S
Sc66 O82 2.105 . S
Sc66 O85 2.105 . S
Sc67 O69 2.025 . S
Sc67 O77 2.105 . S
Sc67 O81 2.105 . S
Sc67 O83 2.105 . S
Sc67 O87 2.105 . S
Sc68 O69 2.025 . S
Sc68 O78 2.105 . S
Sc68 O80 2.105 . S
Sc68 O84 2.105 . S
Sc68 O86 2.105 . S
O69 Sc66 2.025 . S
O69 Sc67 2.025 . S
O69 Sc68 2.025 . S
C70 O76 1.268 . S
C70 O86 1.268 . S
C71 O77 1.268 . S
C71 O85 1.268 . S
C72 O78 1.268 . S
C72 O87 1.268 . S
C73 O79 1.268 . S
C73 O83 1.268 . S
C74 O80 1.268 . S
C74 O82 1.268 . S
C75 O81 1.268 . S
C75 O84 1.268 . S
O76 Sc66 2.105 . S
O76 C70 1.268 . S
O77 Sc67 2.105 . S
O77 C71 1.268 . S
O78 Sc68 2.105 . S
O78 C72 1.268 . S
O79 Sc66 2.105 . S
O79 C73 1.268 . S
O80 Sc68 2.105 . S
O80 C74 1.268 . S
O81 Sc67 2.105 . S
O81 C75 1.268 . S
O82 Sc66 2.105 . S
O82 C74 1.268 . S
O83 Sc67 2.105 . S
O83 C73 1.268 . S
O84 Sc68 2.105 . S
O84 C75 1.268 . S
O85 Sc66 2.105 . S
O85 C71 1.268 . S
O86 Sc68 2.105 . S
O86 C70 1.268 . S
O87 Sc67 2.105 . S
O87 C72 1.268 . S
Sc88 O91 2.025 . S
Sc88 O98 2.105 . S
Sc88 O101 2.105 . S
Sc88 O104 2.105 . S
Sc88 O107 2.105 . S
Sc89 O91 2.025 . S
Sc89 O99 2.105 . S
Sc89 O103 2.105 . S
Sc89 O105 2.105 . S
Sc89 O109 2.105 . S
Sc90 O91 2.025 . S
Sc90 O100 2.105 . S
Sc90 O102 2.105 . S
Sc90 O106 2.105 . S
Sc90 O108 2.105 . S
O91 Sc88 2.025 . S
O91 Sc89 2.025 . S
O91 Sc90 2.025 . S
C92 O98 1.268 . S
C92 O108 1.268 . S
C93 O99 1.268 . S
C93 O107 1.268 . S
C94 O100 1.268 . S
C94 O109 1.268 . S
C95 O101 1.268 . S
C95 O105 1.268 . S
C96 O102 1.268 . S
C96 O104 1.268 . S
C97 O103 1.268 . S
C97 O106 1.268 . S
O98 Sc88 2.105 . S
O98 C92 1.268 . S
O99 Sc89 2.105 . S
O99 C93 1.268 . S
O100 Sc90 2.105 . S
O100 C94 1.268 . S
O101 Sc88 2.105 . S
O101 C95 1.268 . S
O102 Sc90 2.105 . S
O102 C96 1.268 . S
O103 Sc89 2.105 . S
O103 C97 1.268 . S
O104 Sc88 2.105 . S
O104 C96 1.268 . S
O105 Sc89 2.105 . S
O105 C95 1.268 . S
O106 Sc90 2.105 . S
O106 C97 1.268 . S
O107 Sc88 2.105 . S
O107 C93 1.268 . S
O108 Sc90 2.105 . S
O108 C92 1.268 . S
O109 Sc89 2.105 . S
O109 C94 1.268 . S
Sc110 O113 2.025 . S
Sc110 O120 2.105 . S
Sc110 O123 2.105 . S
Sc110 O126 2.105 . S
Sc110 O129 2.105 . S
Sc111 O113 2.025 . S
Sc111 O121 2.105 . S
Sc111 O125 2.105 . S
Sc111 O127 2.105 . S
Sc111 O131 2.105 . S
Sc112 O113 2.025 . S
Sc112 O122 2.105 . S
Sc112 O124 2.105 . S
Sc112 O128 2.105 . S
Sc112 O130 2.105 . S
O113 Sc110 2.025 . S
O113 Sc111 2.025 . S
O113 Sc112 2.025 . S
C114 O120 1.268 . S
C114 O130 1.268 . S
C115 O121 1.268 . S
C115 O129 1.268 . S
C116 O122 1.268 . S
C116 O131 1.268 . S
C117 O123 1.268 . S
C117 O127 1.268 . S
C118 O124 1.268 . S
C118 O126 1.268 . S
C119 O125 1.268 . S
C119 O128 1.268 . S
O120 Sc110 2.105 . S
O120 C114 1.268 . S
O121 Sc111 2.105 . S
O121 C115 1.268 . S
O122 Sc112 2.105 . S
O122 C116 1.268 . S
O123 Sc110 2.105 . S
O123 C117 1.268 . S
O124 Sc112 2.105 . S
O124 C118 1.268 . S
O125 Sc111 2.105 . S
O125 C119 1.268 . S
O126 Sc110 2.105 . S
O126 C118 1.268 . S
O127 Sc111 2.105 . S
O127 C117 1.268 . S
O128 Sc112 2.105 . S
O128 C119 1.268 . S
O129 Sc110 2.105 . S
O129 C115 1.268 . S
O130 Sc112 2.105 . S
O130 C114 1.268 . S
O131 Sc111 2.105 . S
O131 C116 1.268 . S
Sc132 O135 2.025 . S
Sc132 O142 2.105 . S
Sc132 O145 2.105 . S
Sc132 O148 2.105 . S
Sc132 O151 2.105 . S
Sc133 O135 2.025 . S
Sc133 O143 2.105 . S
Sc133 O147 2.105 . S
Sc133 O149 2.105 . S
Sc133 O153 2.105 . S
Sc134 O135 2.025 . S
Sc134 O144 2.105 . S
Sc134 O146 2.105 . S
Sc134 O150 2.105 . S
Sc134 O152 2.105 . S
O135 Sc132 2.025 . S
O135 Sc133 2.025 . S
O135 Sc134 2.025 . S
C136 O142 1.268 . S
C136 O152 1.268 . S
C137 O143 1.268 . S
C137 O151 1.268 . S
C138 O144 1.268 . S
C138 O153 1.268 . S
C139 O145 1.268 . S
C139 O149 1.268 . S
C140 O146 1.268 . S
C140 O148 1.268 . S
C141 O147 1.268 . S
C141 O150 1.268 . S
O142 Sc132 2.105 . S
O142 C136 1.268 . S
O143 Sc133 2.105 . S
O143 C137 1.268 . S
O144 Sc134 2.105 . S
O144 C138 1.268 . S
O145 Sc132 2.105 . S
O145 C139 1.268 . S
O146 Sc134 2.105 . S
O146 C140 1.268 . S
O147 Sc133 2.105 . S
O147 C141 1.268 . S
O148 Sc132 2.105 . S
O148 C140 1.268 . S
O149 Sc133 2.105 . S
O149 C139 1.268 . S
O150 Sc134 2.105 . S
O150 C141 1.268 . S
O151 Sc132 2.105 . S
O151 C137 1.268 . S
O152 Sc134 2.105 . S
O152 C136 1.268 . S
O153 Sc133 2.105 . S
O153 C138 1.268 . S
Sc154 O157 2.025 . S
Sc154 O164 2.105 . S
Sc154 O167 2.105 . S
Sc154 O170 2.105 . S
Sc154 O173 2.105 . S
Sc155 O157 2.025 . S
Sc155 O165 2.105 . S
Sc155 O169 2.105 . S
Sc155 O171 2.105 . S
Sc155 O175 2.105 . S
Sc156 O157 2.025 . S
Sc156 O166 2.105 . S
Sc156 O168 2.105 . S
Sc156 O172 2.105 . S
Sc156 O174 2.105 . S
O157 Sc154 2.025 . S
O157 Sc155 2.025 . S
O157 Sc156 2.025 . S
C158 O164 1.268 . S
C158 O174 1.268 . S
C159 O165 1.268 . S
C159 O173 1.268 . S
C160 O166 1.268 . S
C160 O175 1.268 . S
C161 O167 1.268 . S
C161 O171 1.268 . S
C162 O168 1.268 . S
C162 O170 1.268 . S
C163 O169 1.268 . S
C163 O172 1.268 . S
O164 Sc154 2.105 . S
O164 C158 1.268 . S
O165 Sc155 2.105 . S
O165 C159 1.268 . S
O166 Sc156 2.105 . S
O166 C160 1.268 . S
O167 Sc154 2.105 . S
O167 C161 1.268 . S
O168 Sc156 2.105 . S
O168 C162 1.268 . S
O169 Sc155 2.105 . S
O169 C163 1.268 . S
O170 Sc154 2.105 . S
O170 C162 1.268 . S
O171 Sc155 2.105 . S
O171 C161 1.268 . S
O172 Sc156 2.105 . S
O172 C163 1.268 . S
O173 Sc154 2.105 . S
O173 C159 1.268 . S
O174 Sc156 2.105 . S
O174 C158 1.268 . S
O175 Sc155 2.105 . S
O175 C160 1.268 . S
Sc176 O179 2.025 . S
Sc176 O186 2.105 . S
Sc176 O189 2.105 . S
Sc176 O192 2.105 . S
Sc176 O195 2.105 1_565 S
Sc177 O179 2.025 . S
Sc177 O187 2.105 . S
Sc177 O191 2.105 . S
Sc177 O193 2.105 . S
Sc177 O197 2.105 . S
Sc178 O179 2.025 . S
Sc178 O188 2.105 . S
Sc178 O190 2.105 . S
Sc178 O194 2.105 . S
Sc178 O196 2.105 . S
O179 Sc176 2.025 . S
O179 Sc177 2.025 . S
O179 Sc178 2.025 . S
C180 O186 1.268 . S
C180 O196 1.268 . S
C181 O187 1.275 . S
C181 O195 1.267 1_565 S
C182 O188 1.268 . S
C182 O197 1.268 . S
C183 O189 1.268 . S
C183 O193 1.268 . S
C184 O190 1.268 . S
C184 O192 1.268 . S
C185 O191 1.268 . S
C185 O194 1.268 . S
O186 Sc176 2.105 . S
O186 C180 1.268 . S
O187 Sc177 2.105 . S
O187 C181 1.275 . S
O188 Sc178 2.105 . S
O188 C182 1.268 . S
O189 Sc176 2.105 . S
O189 C183 1.268 . S
O190 Sc178 2.105 . S
O190 C184 1.268 . S
O191 Sc177 2.105 . S
O191 C185 1.268 . S
O192 Sc176 2.105 . S
O192 C184 1.268 . S
O193 Sc177 2.105 . S
O193 C183 1.268 . S
O194 Sc178 2.105 . S
O194 C185 1.268 . S
O195 Sc176 2.105 1_545 S
O195 C181 1.267 1_545 S
O196 Sc178 2.105 . S
O196 C180 1.268 . S
O197 Sc177 2.105 . S
O197 C182 1.268 . S
Sc198 O201 2.025 . S
Sc198 O208 2.105 . S
Sc198 O211 2.105 . S
Sc198 O214 2.105 . S
Sc198 O217 2.105 1_545 S
Sc199 O201 2.025 . S
Sc199 O209 2.105 . S
Sc199 O213 2.105 . S
Sc199 O215 2.105 . S
Sc199 O219 2.105 . S
Sc200 O201 2.025 . S
Sc200 O210 2.105 . S
Sc200 O212 2.105 . S
Sc200 O216 2.105 . S
Sc200 O218 2.105 . S
O201 Sc198 2.025 . S
O201 Sc199 2.025 . S
O201 Sc200 2.025 . S
C202 O208 1.268 . S
C202 O218 1.268 . S
C203 O209 1.275 . S
C203 O217 1.267 1_545 S
C204 O210 1.268 . S
C204 O219 1.268 . S
C205 O211 1.268 . S
C205 O215 1.268 . S
C206 O212 1.268 . S
C206 O214 1.268 . S
C207 O213 1.268 . S
C207 O216 1.268 . S
O208 Sc198 2.105 . S
O208 C202 1.268 . S
O209 Sc199 2.105 . S
O209 C203 1.275 . S
O210 Sc200 2.105 . S
O210 C204 1.268 . S
O211 Sc198 2.105 . S
O211 C205 1.268 . S
O212 Sc200 2.105 . S
O212 C206 1.268 . S
O213 Sc199 2.105 . S
O213 C207 1.268 . S
O214 Sc198 2.105 . S
O214 C206 1.268 . S
O215 Sc199 2.105 . S
O215 C205 1.268 . S
O216 Sc200 2.105 . S
O216 C207 1.268 . S
O217 Sc198 2.105 1_565 S
O217 C203 1.267 1_565 S
O218 Sc200 2.105 . S
O218 C202 1.268 . S
O219 Sc199 2.105 . S
O219 C204 1.268 . S
Sc220 O223 2.025 . S
Sc220 O230 2.105 . S
Sc220 O233 2.105 . S
Sc220 O236 2.105 . S
Sc220 O239 2.105 . S
Sc221 O223 2.025 . S
Sc221 O231 2.105 . S
Sc221 O235 2.105 . S
Sc221 O237 2.105 . S
Sc221 O241 2.105 . S
Sc222 O223 2.025 . S
Sc222 O232 2.105 . S
Sc222 O234 2.105 . S
Sc222 O238 2.105 1_545 S
Sc222 O240 2.105 . S
O223 Sc220 2.025 . S
O223 Sc221 2.025 . S
O223 Sc222 2.025 . S
C224 O230 1.268 . S
C224 O240 1.268 . S
C225 O231 1.268 . S
C225 O239 1.268 . S
C226 O232 1.268 . S
C226 O241 1.268 . S
C227 O233 1.268 . S
C227 O237 1.268 . S
C228 O234 1.268 . S
C228 O236 1.268 . S
C229 O235 1.275 . S
C229 O238 1.267 1_545 S
O230 Sc220 2.105 . S
O230 C224 1.268 . S
O231 Sc221 2.105 . S
O231 C225 1.268 . S
O232 Sc222 2.105 . S
O232 C226 1.268 . S
O233 Sc220 2.105 . S
O233 C227 1.268 . S
O234 Sc222 2.105 . S
O234 C228 1.268 . S
O235 Sc221 2.105 . S
O235 C229 1.275 . S
O236 Sc220 2.105 . S
O236 C228 1.268 . S
O237 Sc221 2.105 . S
O237 C227 1.268 . S
O238 Sc222 2.105 1_565 S
O238 C229 1.267 1_565 S
O239 Sc220 2.105 . S
O239 C225 1.268 . S
O240 Sc222 2.105 . S
O240 C224 1.268 . S
O241 Sc221 2.105 . S
O241 C226 1.268 . S
Sc242 O245 2.025 . S
Sc242 O252 2.105 . S
Sc242 O255 2.105 . S
Sc242 O258 2.105 . S
Sc242 O261 2.105 1_565 S
Sc243 O245 2.025 . S
Sc243 O253 2.105 . S
Sc243 O257 2.105 . S
Sc243 O259 2.105 . S
Sc243 O263 2.105 . S
Sc244 O245 2.025 . S
Sc244 O254 2.105 . S
Sc244 O256 2.105 . S
Sc244 O260 2.105 . S
Sc244 O262 2.105 . S
O245 Sc242 2.025 . S
O245 Sc243 2.025 . S
O245 Sc244 2.025 . S
C246 O252 1.268 . S
C246 O262 1.268 . S
C247 O253 1.275 . S
C247 O261 1.267 1_565 S
C248 O254 1.268 . S
C248 O263 1.268 . S
C249 O255 1.268 . S
C249 O259 1.268 . S
C250 O256 1.268 . S
C250 O258 1.268 . S
C251 O257 1.268 . S
C251 O260 1.268 . S
O252 Sc242 2.105 . S
O252 C246 1.268 . S
O253 Sc243 2.105 . S
O253 C247 1.275 . S
O254 Sc244 2.105 . S
O254 C248 1.268 . S
O255 Sc242 2.105 . S
O255 C249 1.268 . S
O256 Sc244 2.105 . S
O256 C250 1.268 . S
O257 Sc243 2.105 . S
O257 C251 1.268 . S
O258 Sc242 2.105 . S
O258 C250 1.268 . S
O259 Sc243 2.105 . S
O259 C249 1.268 . S
O260 Sc244 2.105 . S
O260 C251 1.268 . S
O261 Sc242 2.105 1_545 S
O261 C247 1.267 1_545 S
O262 Sc244 2.105 . S
O262 C246 1.268 . S
O263 Sc243 2.105 . S
O263 C248 1.268 . S
Sc264 O267 2.025 . S
Sc264 O274 2.105 . S
Sc264 O277 2.105 1_545 S
Sc264 O280 2.105 . S
Sc264 O283 2.105 . S
Sc265 O267 2.025 . S
Sc265 O275 2.105 . S
Sc265 O279 2.105 . S
Sc265 O281 2.105 . S
Sc265 O285 2.105 . S
Sc266 O267 2.025 . S
Sc266 O276 2.105 . S
Sc266 O278 2.105 . S
Sc266 O282 2.105 . S
Sc266 O284 2.105 . S
O267 Sc264 2.025 . S
O267 Sc265 2.025 . S
O267 Sc266 2.025 . S
C268 O274 1.268 . S
C268 O284 1.268 . S
C269 O275 1.268 . S
C269 O283 1.268 . S
C270 O276 1.268 . S
C270 O285 1.268 . S
C271 O277 1.267 1_545 S
C271 O281 1.275 . S
C272 O278 1.268 . S
C272 O280 1.268 . S
C273 O279 1.268 . S
C273 O282 1.268 . S
O274 Sc264 2.105 . S
O274 C268 1.268 . S
O275 Sc265 2.105 . S
O275 C269 1.268 . S
O276 Sc266 2.105 . S
O276 C270 1.268 . S
O277 Sc264 2.105 1_565 S
O277 C271 1.267 1_565 S
O278 Sc266 2.105 . S
O278 C272 1.268 . S
O279 Sc265 2.105 . S
O279 C273 1.268 . S
O280 Sc264 2.105 . S
O280 C272 1.268 . S
O281 Sc265 2.105 . S
O281 C271 1.275 . S
O282 Sc266 2.105 . S
O282 C273 1.268 . S
O283 Sc264 2.105 . S
O283 C269 1.268 . S
O284 Sc266 2.105 . S
O284 C268 1.268 . S
O285 Sc265 2.105 . S
O285 C270 1.268 . S
Sc286 O289 2.025 . S
Sc286 O296 2.105 . S
Sc286 O299 2.105 . S
Sc286 O302 2.105 . S
Sc286 O305 2.105 . S
Sc287 O289 2.025 . S
Sc287 O297 2.105 . S
Sc287 O301 2.105 . S
Sc287 O303 2.105 . S
Sc287 O307 2.105 . S
Sc288 O289 2.025 . S
Sc288 O298 2.105 1_565 S
Sc288 O300 2.105 . S
Sc288 O304 2.105 . S
Sc288 O306 2.105 . S
O289 Sc286 2.025 . S
O289 Sc287 2.025 . S
O289 Sc288 2.025 . S
C290 O296 1.268 . S
C290 O306 1.268 . S
C291 O297 1.268 . S
C291 O305 1.268 . S
C292 O298 1.267 1_565 S
C292 O307 1.275 . S
C293 O299 1.268 . S
C293 O303 1.268 . S
C294 O300 1.268 . S
C294 O302 1.268 . S
C295 O301 1.268 . S
C295 O304 1.268 . S
O296 Sc286 2.105 . S
O296 C290 1.268 . S
O297 Sc287 2.105 . S
O297 C291 1.268 . S
O298 Sc288 2.105 1_545 S
O298 C292 1.267 1_545 S
O299 Sc286 2.105 . S
O299 C293 1.268 . S
O300 Sc288 2.105 . S
O300 C294 1.268 . S
O301 Sc287 2.105 . S
O301 C295 1.268 . S
O302 Sc286 2.105 . S
O302 C294 1.268 . S
O303 Sc287 2.105 . S
O303 C293 1.268 . S
O304 Sc288 2.105 . S
O304 C295 1.268 . S
O305 Sc286 2.105 . S
O305 C291 1.268 . S
O306 Sc288 2.105 . S
O306 C290 1.268 . S
O307 Sc287 2.105 . S
O307 C292 1.275 . S
Sc308 O311 2.025 . S
Sc308 O318 2.105 . S
Sc308 O321 2.105 . S
Sc308 O324 2.105 . S
Sc308 O327 2.105 . S
Sc309 O311 2.025 . S
Sc309 O319 2.105 . S
Sc309 O323 2.105 . S
Sc309 O325 2.105 . S
Sc309 O329 2.105 . S
Sc310 O311 2.025 . S
Sc310 O320 2.105 1_565 S
Sc310 O322 2.105 . S
Sc310 O326 2.105 . S
Sc310 O328 2.105 . S
O311 Sc308 2.025 . S
O311 Sc309 2.025 . S
O311 Sc310 2.025 . S
C312 O318 1.268 . S
C312 O328 1.268 . S
C313 O319 1.268 . S
C313 O327 1.268 . S
C314 O320 1.267 1_565 S
C314 O329 1.275 . S
C315 O321 1.268 . S
C315 O325 1.268 . S
C316 O322 1.268 . S
C316 O324 1.268 . S
C317 O323 1.268 . S
C317 O326 1.268 . S
O318 Sc308 2.105 . S
O318 C312 1.268 . S
O319 Sc309 2.105 . S
O319 C313 1.268 . S
O320 Sc310 2.105 1_545 S
O320 C314 1.267 1_545 S
O321 Sc308 2.105 . S
O321 C315 1.268 . S
O322 Sc310 2.105 . S
O322 C316 1.268 . S
O323 Sc309 2.105 . S
O323 C317 1.268 . S
O324 Sc308 2.105 . S
O324 C316 1.268 . S
O325 Sc309 2.105 . S
O325 C315 1.268 . S
O326 Sc310 2.105 . S
O326 C317 1.268 . S
O327 Sc308 2.105 . S
O327 C313 1.268 . S
O328 Sc310 2.105 . S
O328 C312 1.268 . S
O329 Sc309 2.105 . S
O329 C314 1.275 . S
Sc330 O333 2.025 . S
Sc330 O340 2.105 . S
Sc330 O343 2.105 . S
Sc330 O346 2.105 . S
Sc330 O349 2.105 . S
Sc331 O333 2.025 . S
Sc331 O341 2.105 . S
Sc331 O345 2.105 . S
Sc331 O347 2.105 . S
Sc331 O351 2.105 . S
Sc332 O333 2.025 . S
Sc332 O342 2.105 1_545 S
Sc332 O344 2.105 . S
Sc332 O348 2.105 . S
Sc332 O350 2.105 . S
O333 Sc330 2.025 . S
O333 Sc331 2.025 . S
O333 Sc332 2.025 . S
C334 O340 1.268 . S
C334 O350 1.268 . S
C335 O341 1.268 . S
C335 O349 1.268 . S
C336 O342 1.267 1_545 S
C336 O351 1.275 . S
C337 O343 1.268 . S
C337 O347 1.268 . S
C338 O344 1.268 . S
C338 O346 1.268 . S
C339 O345 1.268 . S
C339 O348 1.268 . S
O340 Sc330 2.105 . S
O340 C334 1.268 . S
O341 Sc331 2.105 . S
O341 C335 1.268 . S
O342 Sc332 2.105 1_565 S
O342 C336 1.267 1_565 S
O343 Sc330 2.105 . S
O343 C337 1.268 . S
O344 Sc332 2.105 . S
O344 C338 1.268 . S
O345 Sc331 2.105 . S
O345 C339 1.268 . S
O346 Sc330 2.105 . S
O346 C338 1.268 . S
O347 Sc331 2.105 . S
O347 C337 1.268 . S
O348 Sc332 2.105 . S
O348 C339 1.268 . S
O349 Sc330 2.105 . S
O349 C335 1.268 . S
O350 Sc332 2.105 . S
O350 C334 1.268 . S
O351 Sc331 2.105 . S
O351 C336 1.275 . S
C9 C314 1.718 1_545 S
C31 C336 1.718 1_565 S
C49 C271 1.718 1_565 S
C292 C75 1.718 1_565 S
C229 C94 1.718 1_545 S
C247 C117 1.718 1_565 S
C181 C139 1.718 1_565 S
C203 C161 1.718 1_545 S
C185 C138 1.723 . S
C160 C207 1.723 . S
C95 C225 1.723 . S
C116 C251 1.723 . S
C53 C270 1.723 . S
C293 C71 1.723 . S
C5 C315 1.723 . S
C337 C27 1.723 . S
C4 C52 1.882 1_554 S
C70 C26 1.882 . S
C136 C96 1.882 1_554 S
C158 C114 1.882 . S
C228 C180 1.882 1_546 S
C246 C202 1.882 1_565 S
C312 C272 1.882 1_564 S
C290 C334 1.882 1_565 S
C8 C140 1.477 . S
C30 C162 1.477 . S
C92 C48 1.477 . S
C74 C118 1.477 . S
C184 C316 1.477 1_655 S
C338 C206 1.477 1_655 S
C268 C224 1.477 1_455 S
C250 C294 1.477 1_455 S
C6 C273 1.739 1_554 S
C291 C28 1.739 . S
C313 C51 1.739 1_554 S
C335 C72 1.739 . S
C182 C97 1.739 1_554 S
C204 C115 1.739 . S
C137 C227 1.739 1_554 S
C248 C159 1.739 . S
C7 C119 1.376 . S
C93 C29 1.376 . S
C50 C163 1.376 . S
C141 C73 1.376 . S
C183 C295 1.376 . S
C269 C205 1.376 . S
C339 C226 1.376 . S
C249 C317 1.376 . S
