# Generated by pormake.
# Topology fcs, (5)-cn, num edge types: 1
# Building blocks:
#     Node 0, Type 0, BuildingBlock: XOMCOT_clean_sbu_0, # of connection points: 5
#     Node 1, Type 0, BuildingBlock: XOMCOT_clean_sbu_0, # of connection points: 5
#     Node 2, Type 0, BuildingBlock: XOMCOT_clean_sbu_0, # of connection points: 5
#     Node 3, Type 0, BuildingBlock: XOMCOT_clean_sbu_0, # of connection points: 5
#     Node 4, Type 0, BuildingBlock: XOMCOT_clean_sbu_0, # of connection points: 5
#     Node 5, Type 0, BuildingBlock: XOMCOT_clean_sbu_0, # of connection points: 5
#     Node 6, Type 0, BuildingBlock: XOMCOT_clean_sbu_0, # of connection points: 5
#     Node 7, Type 0, BuildingBlock: XOMCOT_clean_sbu_0, # of connection points: 5
#     Node 8, Type 0, BuildingBlock: XOMCOT_clean_sbu_0, # of connection points: 5
#     Node 9, Type 0, BuildingBlock: XOMCOT_clean_sbu_0, # of connection points: 5
#     Node 10, Type 0, BuildingBlock: XOMCOT_clean_sbu_0, # of connection points: 5
#     Node 11, Type 0, BuildingBlock: XOMCOT_clean_sbu_0, # of connection points: 5
#     Node 12, Type 0, BuildingBlock: XOMCOT_clean_sbu_0, # of connection points: 5
#     Node 13, Type 0, BuildingBlock: XOMCOT_clean_sbu_0, # of connection points: 5
#     Node 14, Type 0, BuildingBlock: XOMCOT_clean_sbu_0, # of connection points: 5
#     Node 15, Type 0, BuildingBlock: XOMCOT_clean_sbu_0, # of connection points: 5
#     Node 16, Type 0, BuildingBlock: XOMCOT_clean_sbu_0, # of connection points: 5
#     Node 17, Type 0, BuildingBlock: XOMCOT_clean_sbu_0, # of connection points: 5
#     Node 18, Type 0, BuildingBlock: XOMCOT_clean_sbu_0, # of connection points: 5
#     Node 19, Type 0, BuildingBlock: XOMCOT_clean_sbu_0, # of connection points: 5
#     Node 20, Type 0, BuildingBlock: XOMCOT_clean_sbu_0, # of connection points: 5
#     Node 21, Type 0, BuildingBlock: XOMCOT_clean_sbu_0, # of connection points: 5
#     Node 22, Type 0, BuildingBlock: XOMCOT_clean_sbu_0, # of connection points: 5
#     Node 23, Type 0, BuildingBlock: XOMCOT_clean_sbu_0, # of connection points: 5
#     Node 24, Type 0, BuildingBlock: XOMCOT_clean_sbu_0, # of connection points: 5
#     Node 25, Type 0, BuildingBlock: XOMCOT_clean_sbu_0, # of connection points: 5
#     Node 26, Type 0, BuildingBlock: XOMCOT_clean_sbu_0, # of connection points: 5
#     Node 27, Type 0, BuildingBlock: XOMCOT_clean_sbu_0, # of connection points: 5
#     Node 28, Type 0, BuildingBlock: XOMCOT_clean_sbu_0, # of connection points: 5
#     Node 29, Type 0, BuildingBlock: XOMCOT_clean_sbu_0, # of connection points: 5
#     Node 30, Type 0, BuildingBlock: XOMCOT_clean_sbu_0, # of connection points: 5
#     Node 31, Type 0, BuildingBlock: XOMCOT_clean_sbu_0, # of connection points: 5
#     Node 32, Type 0, BuildingBlock: XOMCOT_clean_sbu_0, # of connection points: 5
#     Node 33, Type 0, BuildingBlock: XOMCOT_clean_sbu_0, # of connection points: 5
#     Node 34, Type 0, BuildingBlock: XOMCOT_clean_sbu_0, # of connection points: 5
#     Node 35, Type 0, BuildingBlock: XOMCOT_clean_sbu_0, # of connection points: 5
#     Node 36, Type 0, BuildingBlock: XOMCOT_clean_sbu_0, # of connection points: 5
#     Node 37, Type 0, BuildingBlock: XOMCOT_clean_sbu_0, # of connection points: 5
#     Node 38, Type 0, BuildingBlock: XOMCOT_clean_sbu_0, # of connection points: 5
#     Node 39, Type 0, BuildingBlock: XOMCOT_clean_sbu_0, # of connection points: 5
#     Node 40, Type 0, BuildingBlock: XOMCOT_clean_sbu_0, # of connection points: 5
#     Node 41, Type 0, BuildingBlock: XOMCOT_clean_sbu_0, # of connection points: 5
#     Node 42, Type 0, BuildingBlock: XOMCOT_clean_sbu_0, # of connection points: 5
#     Node 43, Type 0, BuildingBlock: XOMCOT_clean_sbu_0, # of connection points: 5
#     Node 44, Type 0, BuildingBlock: XOMCOT_clean_sbu_0, # of connection points: 5
#     Node 45, Type 0, BuildingBlock: XOMCOT_clean_sbu_0, # of connection points: 5
#     Node 46, Type 0, BuildingBlock: XOMCOT_clean_sbu_0, # of connection points: 5
#     Node 47, Type 0, BuildingBlock: XOMCOT_clean_sbu_0, # of connection points: 5
#     Edge 48, Type (0, 0), BuildingBlock: OJICUG_clean_linker_0, # of connection points: 2
#     Edge 49, Type (0, 0), BuildingBlock: OJICUG_clean_linker_0, # of connection points: 2
#     Edge 50, Type (0, 0), BuildingBlock: OJICUG_clean_linker_0, # of connection points: 2
#     Edge 51, Type (0, 0), BuildingBlock: OJICUG_clean_linker_0, # of connection points: 2
#     Edge 52, Type (0, 0), BuildingBlock: OJICUG_clean_linker_0, # of connection points: 2
#     Edge 53, Type (0, 0), BuildingBlock: OJICUG_clean_linker_0, # of connection points: 2
#     Edge 54, Type (0, 0), BuildingBlock: OJICUG_clean_linker_0, # of connection points: 2
#     Edge 55, Type (0, 0), BuildingBlock: OJICUG_clean_linker_0, # of connection points: 2
#     Edge 56, Type (0, 0), BuildingBlock: OJICUG_clean_linker_0, # of connection points: 2
#     Edge 57, Type (0, 0), BuildingBlock: OJICUG_clean_linker_0, # of connection points: 2
#     Edge 58, Type (0, 0), BuildingBlock: OJICUG_clean_linker_0, # of connection points: 2
#     Edge 59, Type (0, 0), BuildingBlock: OJICUG_clean_linker_0, # of connection points: 2
#     Edge 60, Type (0, 0), BuildingBlock: OJICUG_clean_linker_0, # of connection points: 2
#     Edge 61, Type (0, 0), BuildingBlock: OJICUG_clean_linker_0, # of connection points: 2
#     Edge 62, Type (0, 0), BuildingBlock: OJICUG_clean_linker_0, # of connection points: 2
#     Edge 63, Type (0, 0), BuildingBlock: OJICUG_clean_linker_0, # of connection points: 2
#     Edge 64, Type (0, 0), BuildingBlock: OJICUG_clean_linker_0, # of connection points: 2
#     Edge 65, Type (0, 0), BuildingBlock: OJICUG_clean_linker_0, # of connection points: 2
#     Edge 66, Type (0, 0), BuildingBlock: OJICUG_clean_linker_0, # of connection points: 2
#     Edge 67, Type (0, 0), BuildingBlock: OJICUG_clean_linker_0, # of connection points: 2
#     Edge 68, Type (0, 0), BuildingBlock: OJICUG_clean_linker_0, # of connection points: 2
#     Edge 69, Type (0, 0), BuildingBlock: OJICUG_clean_linker_0, # of connection points: 2
#     Edge 70, Type (0, 0), BuildingBlock: OJICUG_clean_linker_0, # of connection points: 2
#     Edge 71, Type (0, 0), BuildingBlock: OJICUG_clean_linker_0, # of connection points: 2
#     Edge 72, Type (0, 0), BuildingBlock: OJICUG_clean_linker_0, # of connection points: 2
#     Edge 73, Type (0, 0), BuildingBlock: OJICUG_clean_linker_0, # of connection points: 2
#     Edge 74, Type (0, 0), BuildingBlock: OJICUG_clean_linker_0, # of connection points: 2
#     Edge 75, Type (0, 0), BuildingBlock: OJICUG_clean_linker_0, # of connection points: 2
#     Edge 76, Type (0, 0), BuildingBlock: OJICUG_clean_linker_0, # of connection points: 2
#     Edge 77, Type (0, 0), BuildingBlock: OJICUG_clean_linker_0, # of connection points: 2
#     Edge 78, Type (0, 0), BuildingBlock: OJICUG_clean_linker_0, # of connection points: 2
#     Edge 79, Type (0, 0), BuildingBlock: OJICUG_clean_linker_0, # of connection points: 2
#     Edge 80, Type (0, 0), BuildingBlock: OJICUG_clean_linker_0, # of connection points: 2
#     Edge 81, Type (0, 0), BuildingBlock: OJICUG_clean_linker_0, # of connection points: 2
#     Edge 82, Type (0, 0), BuildingBlock: OJICUG_clean_linker_0, # of connection points: 2
#     Edge 83, Type (0, 0), BuildingBlock: OJICUG_clean_linker_0, # of connection points: 2
#     Edge 84, Type (0, 0), BuildingBlock: OJICUG_clean_linker_0, # of connection points: 2
#     Edge 85, Type (0, 0), BuildingBlock: OJICUG_clean_linker_0, # of connection points: 2
#     Edge 86, Type (0, 0), BuildingBlock: OJICUG_clean_linker_0, # of connection points: 2
#     Edge 87, Type (0, 0), BuildingBlock: OJICUG_clean_linker_0, # of connection points: 2
#     Edge 88, Type (0, 0), BuildingBlock: OJICUG_clean_linker_0, # of connection points: 2
#     Edge 89, Type (0, 0), BuildingBlock: OJICUG_clean_linker_0, # of connection points: 2
#     Edge 90, Type (0, 0), BuildingBlock: OJICUG_clean_linker_0, # of connection points: 2
#     Edge 91, Type (0, 0), BuildingBlock: OJICUG_clean_linker_0, # of connection points: 2
#     Edge 92, Type (0, 0), BuildingBlock: OJICUG_clean_linker_0, # of connection points: 2
#     Edge 93, Type (0, 0), BuildingBlock: OJICUG_clean_linker_0, # of connection points: 2
#     Edge 94, Type (0, 0), BuildingBlock: OJICUG_clean_linker_0, # of connection points: 2
#     Edge 95, Type (0, 0), BuildingBlock: OJICUG_clean_linker_0, # of connection points: 2
#     Edge 96, Type (0, 0), BuildingBlock: OJICUG_clean_linker_0, # of connection points: 2
#     Edge 97, Type (0, 0), BuildingBlock: OJICUG_clean_linker_0, # of connection points: 2
#     Edge 98, Type (0, 0), BuildingBlock: OJICUG_clean_linker_0, # of connection points: 2
#     Edge 99, Type (0, 0), BuildingBlock: OJICUG_clean_linker_0, # of connection points: 2
#     Edge 100, Type (0, 0), BuildingBlock: OJICUG_clean_linker_0, # of connection points: 2
#     Edge 101, Type (0, 0), BuildingBlock: OJICUG_clean_linker_0, # of connection points: 2
#     Edge 102, Type (0, 0), BuildingBlock: OJICUG_clean_linker_0, # of connection points: 2
#     Edge 103, Type (0, 0), BuildingBlock: OJICUG_clean_linker_0, # of connection points: 2
#     Edge 104, Type (0, 0), BuildingBlock: OJICUG_clean_linker_0, # of connection points: 2
#     Edge 105, Type (0, 0), BuildingBlock: OJICUG_clean_linker_0, # of connection points: 2
#     Edge 106, Type (0, 0), BuildingBlock: OJICUG_clean_linker_0, # of connection points: 2
#     Edge 107, Type (0, 0), BuildingBlock: OJICUG_clean_linker_0, # of connection points: 2
#     Edge 108, Type (0, 0), BuildingBlock: OJICUG_clean_linker_0, # of connection points: 2
#     Edge 109, Type (0, 0), BuildingBlock: OJICUG_clean_linker_0, # of connection points: 2
#     Edge 110, Type (0, 0), BuildingBlock: OJICUG_clean_linker_0, # of connection points: 2
#     Edge 111, Type (0, 0), BuildingBlock: OJICUG_clean_linker_0, # of connection points: 2
#     Edge 112, Type (0, 0), BuildingBlock: OJICUG_clean_linker_0, # of connection points: 2
#     Edge 113, Type (0, 0), BuildingBlock: OJICUG_clean_linker_0, # of connection points: 2
#     Edge 114, Type (0, 0), BuildingBlock: OJICUG_clean_linker_0, # of connection points: 2
#     Edge 115, Type (0, 0), BuildingBlock: OJICUG_clean_linker_0, # of connection points: 2
#     Edge 116, Type (0, 0), BuildingBlock: OJICUG_clean_linker_0, # of connection points: 2
#     Edge 117, Type (0, 0), BuildingBlock: OJICUG_clean_linker_0, # of connection points: 2
#     Edge 118, Type (0, 0), BuildingBlock: OJICUG_clean_linker_0, # of connection points: 2
#     Edge 119, Type (0, 0), BuildingBlock: OJICUG_clean_linker_0, # of connection points: 2
#     Edge 120, Type (0, 0), BuildingBlock: OJICUG_clean_linker_0, # of connection points: 2
#     Edge 121, Type (0, 0), BuildingBlock: OJICUG_clean_linker_0, # of connection points: 2
#     Edge 122, Type (0, 0), BuildingBlock: OJICUG_clean_linker_0, # of connection points: 2
#     Edge 123, Type (0, 0), BuildingBlock: OJICUG_clean_linker_0, # of connection points: 2
#     Edge 124, Type (0, 0), BuildingBlock: OJICUG_clean_linker_0, # of connection points: 2
#     Edge 125, Type (0, 0), BuildingBlock: OJICUG_clean_linker_0, # of connection points: 2
#     Edge 126, Type (0, 0), BuildingBlock: OJICUG_clean_linker_0, # of connection points: 2
#     Edge 127, Type (0, 0), BuildingBlock: OJICUG_clean_linker_0, # of connection points: 2
#     Edge 128, Type (0, 0), BuildingBlock: OJICUG_clean_linker_0, # of connection points: 2
#     Edge 129, Type (0, 0), BuildingBlock: OJICUG_clean_linker_0, # of connection points: 2
#     Edge 130, Type (0, 0), BuildingBlock: OJICUG_clean_linker_0, # of connection points: 2
#     Edge 131, Type (0, 0), BuildingBlock: OJICUG_clean_linker_0, # of connection points: 2
#     Edge 132, Type (0, 0), BuildingBlock: OJICUG_clean_linker_0, # of connection points: 2
#     Edge 133, Type (0, 0), BuildingBlock: OJICUG_clean_linker_0, # of connection points: 2
#     Edge 134, Type (0, 0), BuildingBlock: OJICUG_clean_linker_0, # of connection points: 2
#     Edge 135, Type (0, 0), BuildingBlock: OJICUG_clean_linker_0, # of connection points: 2
#     Edge 136, Type (0, 0), BuildingBlock: OJICUG_clean_linker_0, # of connection points: 2
#     Edge 137, Type (0, 0), BuildingBlock: OJICUG_clean_linker_0, # of connection points: 2
#     Edge 138, Type (0, 0), BuildingBlock: OJICUG_clean_linker_0, # of connection points: 2
#     Edge 139, Type (0, 0), BuildingBlock: OJICUG_clean_linker_0, # of connection points: 2
#     Edge 140, Type (0, 0), BuildingBlock: OJICUG_clean_linker_0, # of connection points: 2
#     Edge 141, Type (0, 0), BuildingBlock: OJICUG_clean_linker_0, # of connection points: 2
#     Edge 142, Type (0, 0), BuildingBlock: OJICUG_clean_linker_0, # of connection points: 2
#     Edge 143, Type (0, 0), BuildingBlock: OJICUG_clean_linker_0, # of connection points: 2
#     Edge 144, Type (0, 0), BuildingBlock: OJICUG_clean_linker_0, # of connection points: 2
#     Edge 145, Type (0, 0), BuildingBlock: OJICUG_clean_linker_0, # of connection points: 2
#     Edge 146, Type (0, 0), BuildingBlock: OJICUG_clean_linker_0, # of connection points: 2
#     Edge 147, Type (0, 0), BuildingBlock: OJICUG_clean_linker_0, # of connection points: 2
#     Edge 148, Type (0, 0), BuildingBlock: OJICUG_clean_linker_0, # of connection points: 2
#     Edge 149, Type (0, 0), BuildingBlock: OJICUG_clean_linker_0, # of connection points: 2
#     Edge 150, Type (0, 0), BuildingBlock: OJICUG_clean_linker_0, # of connection points: 2
#     Edge 151, Type (0, 0), BuildingBlock: OJICUG_clean_linker_0, # of connection points: 2
#     Edge 152, Type (0, 0), BuildingBlock: OJICUG_clean_linker_0, # of connection points: 2
#     Edge 153, Type (0, 0), BuildingBlock: OJICUG_clean_linker_0, # of connection points: 2
#     Edge 154, Type (0, 0), BuildingBlock: OJICUG_clean_linker_0, # of connection points: 2
#     Edge 155, Type (0, 0), BuildingBlock: OJICUG_clean_linker_0, # of connection points: 2
#     Edge 156, Type (0, 0), BuildingBlock: OJICUG_clean_linker_0, # of connection points: 2
#     Edge 157, Type (0, 0), BuildingBlock: OJICUG_clean_linker_0, # of connection points: 2
#     Edge 158, Type (0, 0), BuildingBlock: OJICUG_clean_linker_0, # of connection points: 2
#     Edge 159, Type (0, 0), BuildingBlock: OJICUG_clean_linker_0, # of connection points: 2
#     Edge 160, Type (0, 0), BuildingBlock: OJICUG_clean_linker_0, # of connection points: 2
#     Edge 161, Type (0, 0), BuildingBlock: OJICUG_clean_linker_0, # of connection points: 2
#     Edge 162, Type (0, 0), BuildingBlock: OJICUG_clean_linker_0, # of connection points: 2
#     Edge 163, Type (0, 0), BuildingBlock: OJICUG_clean_linker_0, # of connection points: 2
#     Edge 164, Type (0, 0), BuildingBlock: OJICUG_clean_linker_0, # of connection points: 2
#     Edge 165, Type (0, 0), BuildingBlock: OJICUG_clean_linker_0, # of connection points: 2
#     Edge 166, Type (0, 0), BuildingBlock: OJICUG_clean_linker_0, # of connection points: 2
#     Edge 167, Type (0, 0), BuildingBlock: OJICUG_clean_linker_0, # of connection points: 2
# Relax obj value: 0.286
# Max RMSD: 0.278
# Mean RMSD: 0.275
data_MOF--net-fcs--node1-XOMCOT_clean_sbu_0--edge1-OJICUG_clean_linker_0
_symmetry_space_group_name_H-M    P1
_symmetry_Int_Tables_number       1
_symmetry_cell_setting            triclinic
loop_
_symmetry_equiv_pos_as_xyz
'x, y, z'
_cell_length_a     45.787215
_cell_length_b     45.813582
_cell_length_c     45.825855
_cell_angle_alpha  89.865459
_cell_angle_beta   89.901157
_cell_angle_gamma 90.053138
loop_
_atom_site_label
_atom_site_type_symbol
_atom_site_fract_x
_atom_site_fract_y
_atom_site_fract_z
_atom_type_partial_charge
Co0 Co 0.07541 0.16376 0.28542 0.0
C1 C 0.12995 0.13312 0.26784 0.0
C2 C 0.13873 0.1718 0.29258 0.0
C3 C 0.1649 0.16003 0.28376 0.0
N4 N 0.1168 0.15446 0.28342 0.0
N5 N 0.15939 0.13571 0.26819 0.0
H6 H 0.11819 0.11661 0.25576 0.0
H7 H 0.13584 0.19204 0.30434 0.0
C8 C 0.09388 0.16245 0.34997 0.0
O9 O 0.11892 0.14953 0.34491 0.0
N10 N 0.03417 0.17366 0.28777 0.0
C11 C 0.01999 0.19695 0.27653 0.0
C12 C 0.99304 0.19927 0.2899 0.0
C13 C 0.01548 0.1621 0.30749 0.0
N14 N 0.99033 0.1773 0.30933 0.0
C15 C 0.047 0.11374 0.26331 0.0
C16 C 0.07661 0.07246 0.29582 0.0
C17 C 0.05915 0.06326 0.27242 0.0
C18 C 0.04339 0.08425 0.2568 0.0
C19 C 0.07906 0.1023 0.30209 0.0
N20 N 0.06529 0.12253 0.28508 0.0
H21 H 0.03628 0.12977 0.24971 0.0
H22 H 0.09373 0.10907 0.31911 0.0
H23 H 0.02906 0.21247 0.26121 0.0
H24 H 0.02123 0.14441 0.3221 0.0
O25 O 0.07628 0.16986 0.24374 0.0
O26 O 0.08521 0.20397 0.27682 0.0
O27 O 0.07541 0.16665 0.32952 0.0
C28 C 0.08422 0.19652 0.24939 0.0
H29 H 0.18627 0.16951 0.28729 0.0
H30 H 0.9773 0.21661 0.28668 0.0
H31 H 0.08897 0.05681 0.30853 0.0
H32 H 0.0298 0.07808 0.2385 0.0
Co33 Co 0.41745 0.68306 0.97248 0.0
C34 C 0.38725 0.62847 0.99057 0.0
C35 C 0.42685 0.6197 0.96713 0.0
C36 C 0.41489 0.59356 0.9759 0.0
N37 N 0.40904 0.64158 0.97551 0.0
N38 N 0.38997 0.59909 0.99061 0.0
H39 H 0.37015 0.64018 1.00186 0.0
H40 H 0.44734 0.6226 0.9557 0.0
C41 C 0.41543 0.66294 0.90862 0.0
O42 O 0.40332 0.63772 0.91485 0.0
N43 N 0.4263 0.72447 0.96924 0.0
C44 C 0.44923 0.73949 0.98011 0.0
C45 C 0.45079 0.76628 0.96635 0.0
C46 C 0.41417 0.74253 0.94933 0.0
N47 N 0.42871 0.76807 0.94702 0.0
C48 C 0.36678 0.70982 0.99596 0.0
C49 C 0.32593 0.68063 0.9626 0.0
C50 C 0.31635 0.69744 0.98633 0.0
C51 C 0.33713 0.71295 1.00244 0.0
C52 C 0.35586 0.67865 0.95638 0.0
N53 N 0.3759 0.69219 0.97376 0.0
H54 H 0.38266 0.72052 0.00971 0.0
H55 H 0.36283 0.66458 0.93897 0.0
H56 H 0.46501 0.73115 0.9955 0.0
H57 H 0.39655 0.7361 0.93497 0.0
O58 O 0.42496 0.68292 0.01401 0.0
O59 O 0.45819 0.67449 0.97983 0.0
O60 O 0.41924 0.68229 0.92831 0.0
C61 C 0.45171 0.67579 0.00749 0.0
H62 H 0.42447 0.5722 0.97274 0.0
H63 H 0.4677 0.78255 0.96925 0.0
H64 H 0.31048 0.66851 0.94947 0.0
H65 H 0.33066 0.72613 0.02096 0.0
Co66 Co 0.93469 0.34076 0.28304 0.0
C67 C 0.87996 0.37035 0.26442 0.0
C68 C 0.87144 0.33099 0.2884 0.0
C69 C 0.84524 0.3424 0.2793 0.0
N70 N 0.8932 0.34898 0.27991 0.0
N71 N 0.8506 0.36715 0.26424 0.0
H72 H 0.89159 0.38741 0.25288 0.0
H73 H 0.8745 0.31063 0.30001 0.0
C74 C 0.91407 0.34115 0.34704 0.0
O75 O 0.88882 0.35335 0.34128 0.0
N76 N 0.97611 0.33195 0.28668 0.0
C77 C 0.99108 0.30882 0.27623 0.0
C78 C 0.01721 0.30655 0.29108 0.0
C79 C 0.99359 0.3435 0.30742 0.0
N80 N 0.01865 0.32836 0.31072 0.0
C81 C 0.96203 0.39198 0.26137 0.0
C82 C 0.93112 0.43201 0.29417 0.0
C83 C 0.94871 0.44212 0.27112 0.0
C84 C 0.96507 0.42173 0.25532 0.0
C85 C 0.92922 0.40199 0.29996 0.0
N86 N 0.94369 0.38235 0.28286 0.0
H87 H 0.97336 0.37642 0.24774 0.0
H88 H 0.91452 0.39459 0.31676 0.0
H89 H 0.98294 0.29326 0.26054 0.0
H90 H 0.98683 0.36098 0.32179 0.0
O91 O 0.93509 0.33442 0.24125 0.0
O92 O 0.92614 0.30028 0.2744 0.0
O93 O 0.93336 0.33777 0.32715 0.0
C94 C 0.9275 0.3076 0.24692 0.0
H95 H 0.82397 0.33249 0.28237 0.0
H96 H 0.03315 0.28926 0.28875 0.0
H97 H 0.9183 0.44712 0.30705 0.0
H98 H 0.97884 0.42856 0.23731 0.0
Co99 Co 0.5877 0.81972 0.97614 0.0
C100 C 0.61831 0.87235 0.99753 0.0
C101 C 0.57941 0.88336 0.97398 0.0
C102 C 0.59038 0.90833 0.98641 0.0
N103 N 0.59725 0.86083 0.98036 0.0
N104 N 0.61477 0.90136 1.00132 0.0
H105 H 0.63456 0.85946 0.00884 0.0
H106 H 0.55908 0.88152 0.96213 0.0
C107 C 0.58754 0.84195 0.91277 0.0
O108 O 0.59908 0.86728 0.91942 0.0
N109 N 0.57778 0.77868 0.97203 0.0
C110 C 0.55433 0.76409 0.98252 0.0
C111 C 0.55219 0.73761 0.96834 0.0
C112 C 0.58962 0.76071 0.95191 0.0
N113 N 0.57444 0.73561 0.94915 0.0
C114 C 0.63865 0.79146 0.99727 0.0
C115 C 0.67867 0.82271 0.96446 0.0
C116 C 0.68878 0.80519 0.98749 0.0
C117 C 0.66842 0.78859 1.00325 0.0
C118 C 0.64866 0.82446 0.95874 0.0
N119 N 0.62904 0.80989 0.9759 0.0
H120 H 0.62306 0.7801 0.01093 0.0
H121 H 0.6412 0.83924 0.94205 0.0
H122 H 0.53865 0.77259 0.99794 0.0
H123 H 0.60755 0.76695 0.93777 0.0
O124 O 0.5812 0.81875 0.01789 0.0
O125 O 0.54747 0.82916 0.98483 0.0
O126 O 0.58487 0.82184 0.93199 0.0
C127 C 0.55468 0.82733 0.01227 0.0
H128 H 0.58058 0.92979 0.98534 0.0
H129 H 0.53487 0.72171 0.97091 0.0
H130 H 0.69375 0.83569 0.95161 0.0
H131 H 0.67529 0.77485 0.02124 0.0
Co132 Co 0.07559 0.84354 0.2183 0.0
C133 C 0.12972 0.87421 0.23727 0.0
C134 C 0.13914 0.83561 0.21266 0.0
C135 C 0.16505 0.84724 0.22233 0.0
N136 N 0.11697 0.853 0.22117 0.0
N137 N 0.15916 0.87151 0.23785 0.0
H138 H 0.11765 0.89068 0.24912 0.0
H139 H 0.13655 0.81536 0.20084 0.0
C140 C 0.09581 0.84384 0.15426 0.0
O141 O 0.12064 0.85703 0.15972 0.0
N142 N 0.03437 0.8335 0.21526 0.0
C143 C 0.01983 0.81071 0.22715 0.0
C144 C 0.99279 0.80846 0.21405 0.0
C145 C 0.0158 0.84484 0.19533 0.0
N146 N 0.99036 0.82998 0.1941 0.0
C147 C 0.04667 0.89364 0.23951 0.0
C148 C 0.0773 0.93471 0.2075 0.0
C149 C 0.0593 0.94405 0.23048 0.0
C150 C 0.04304 0.92317 0.24582 0.0
C151 C 0.07978 0.90484 0.2014 0.0
N152 N 0.06547 0.88472 0.21818 0.0
H153 H 0.03557 0.87769 0.25296 0.0
H154 H 0.09484 0.89793 0.18474 0.0
H155 H 0.02858 0.79562 0.24301 0.0
H156 H 0.02166 0.86232 0.18048 0.0
O157 O 0.07557 0.83762 0.26004 0.0
O158 O 0.08523 0.80345 0.2272 0.0
O159 O 0.0766 0.84027 0.17422 0.0
C160 C 0.08376 0.81099 0.25458 0.0
H161 H 0.18647 0.83767 0.21946 0.0
H162 H 0.97665 0.79163 0.21804 0.0
H163 H 0.09008 0.95027 0.19502 0.0
H164 H 0.02903 0.92944 0.26381 0.0
Co165 Co 0.09385 0.68107 0.03417 0.0
C166 C 0.12364 0.62604 0.01688 0.0
C167 C 0.08427 0.61796 0.04098 0.0
C168 C 0.09552 0.59162 0.03213 0.0
N169 N 0.10235 0.63954 0.03226 0.0
N170 N 0.12027 0.59669 0.01694 0.0
H171 H 0.14065 0.6375 0.00508 0.0
H172 H 0.06384 0.62123 0.05241 0.0
C173 C 0.093 0.66184 0.09854 0.0
O174 O 0.10608 0.6369 0.0935 0.0
N175 N 0.08471 0.72249 0.03636 0.0
C176 C 0.06227 0.73723 0.02417 0.0
C177 C 0.06022 0.76434 0.03712 0.0
C178 C 0.09605 0.74101 0.05628 0.0
N179 N 0.08151 0.76661 0.05725 0.0
C180 C 0.14511 0.70875 0.0132 0.0
C181 C 0.18505 0.67857 0.04683 0.0
C182 C 0.19527 0.69637 0.02399 0.0
C183 C 0.1749 0.71231 0.00774 0.0
C184 C 0.15494 0.6762 0.05207 0.0
N185 N 0.13537 0.69038 0.03462 0.0
H186 H 0.12963 0.71974 0.99919 0.0
H187 H 0.14747 0.66143 0.06878 0.0
H188 H 0.0472 0.72853 0.0083 0.0
H189 H 0.11315 0.73498 0.07142 0.0
O190 O 0.0885 0.6804 0.99229 0.0
O191 O 0.05363 0.67208 0.02488 0.0
O192 O 0.08981 0.68081 0.07828 0.0
C193 C 0.06159 0.67283 0.99756 0.0
H194 H 0.08542 0.57048 0.03531 0.0
H195 H 0.04358 0.78061 0.03297 0.0
H196 H 0.20015 0.666 0.05997 0.0
H197 H 0.18184 0.72614 0.98982 0.0
Co198 Co 0.93235 0.66464 0.22296 0.0
C199 C 0.87791 0.6345 0.24186 0.0
C200 C 0.869 0.67378 0.21796 0.0
C201 C 0.84294 0.66227 0.22748 0.0
N202 N 0.89091 0.6559 0.22613 0.0
N203 N 0.84854 0.63758 0.24252 0.0
H204 H 0.88973 0.61757 0.25332 0.0
H205 H 0.87187 0.6942 0.2064 0.0
C206 C 0.91154 0.66505 0.15914 0.0
O207 O 0.8867 0.65198 0.16497 0.0
N208 N 0.97369 0.674 0.21947 0.0
C209 C 0.98851 0.69691 0.23062 0.0
C210 C 0.01519 0.69908 0.21669 0.0
C211 C 0.99177 0.6625 0.19917 0.0
N212 N 0.01713 0.67739 0.19696 0.0
C213 C 0.96041 0.61356 0.2437 0.0
C214 C 0.92967 0.57342 0.21092 0.0
C215 C 0.94767 0.56334 0.23359 0.0
C216 C 0.9639 0.58381 0.24939 0.0
C217 C 0.92733 0.60348 0.20546 0.0
N218 N 0.94177 0.62316 0.22254 0.0
H219 H 0.97165 0.62913 0.25738 0.0
H220 H 0.91238 0.61083 0.18893 0.0
H221 H 0.98006 0.71224 0.24638 0.0
H222 H 0.98548 0.64503 0.18459 0.0
O223 O 0.93266 0.67028 0.26481 0.0
O224 O 0.92342 0.70487 0.23225 0.0
O225 O 0.931 0.66839 0.17884 0.0
C226 C 0.92485 0.6971 0.25959 0.0
H227 H 0.82163 0.67212 0.22479 0.0
H228 H 0.03135 0.71604 0.21988 0.0
H229 H 0.91691 0.55826 0.19807 0.0
H230 H 0.97793 0.57701 0.26715 0.0
Co231 Co 0.91128 0.82486 0.03404 0.0
C232 C 0.88096 0.87934 0.01556 0.0
C233 C 0.92017 0.88819 0.03949 0.0
C234 C 0.90866 0.91427 0.03014 0.0
N235 N 0.90235 0.86628 0.03119 0.0
N236 N 0.88401 0.90873 0.01507 0.0
H237 H 0.86409 0.86755 0.004 0.0
H238 H 0.94058 0.88531 0.05098 0.0
C239 C 0.91187 0.84502 0.09803 0.0
O240 O 0.89895 0.86999 0.09265 0.0
N241 N 0.92081 0.78356 0.03721 0.0
C242 C 0.94367 0.76892 0.02568 0.0
C243 C 0.94617 0.74228 0.03961 0.0
C244 C 0.90966 0.7654 0.0577 0.0
N245 N 0.92476 0.74018 0.05972 0.0
C246 C 0.86039 0.79654 0.01328 0.0
C247 C 0.82006 0.82638 0.04677 0.0
C248 C 0.81005 0.8083 0.02417 0.0
C249 C 0.83064 0.79256 0.00798 0.0
C250 C 0.85014 0.82923 0.05183 0.0
N251 N 0.86987 0.81518 0.03446 0.0
H252 H 0.87602 0.78563 0.99938 0.0
H253 H 0.85746 0.84419 0.06835 0.0
H254 H 0.95878 0.77748 0.00968 0.0
H255 H 0.89234 0.77156 0.07258 0.0
O256 O 0.91718 0.82494 0.99218 0.0
O257 O 0.9515 0.83408 0.02497 0.0
O258 O 0.91486 0.82578 0.0781 0.0
C259 C 0.94395 0.83282 0.99759 0.0
H260 H 0.91852 0.93556 0.03293 0.0
H261 H 0.96323 0.72629 0.03618 0.0
H262 H 0.80481 0.8388 0.05988 0.0
H263 H 0.82388 0.77852 0.99024 0.0
Co264 Co 0.2848 0.07299 0.16733 0.0
C265 C 0.26741 0.12831 0.13827 0.0
C266 C 0.29091 0.13602 0.17794 0.0
C267 C 0.28207 0.16246 0.1668 0.0
N268 N 0.28252 0.11463 0.15959 0.0
N269 N 0.26729 0.1576 0.14185 0.0
H270 H 0.25598 0.11701 0.12101 0.0
H271 H 0.30216 0.13254 0.19839 0.0
C272 C 0.34901 0.09276 0.16798 0.0
O273 O 0.34362 0.11784 0.15525 0.0
N274 N 0.2874 0.03146 0.17557 0.0
C275 C 0.27525 0.01576 0.19742 0.0
C276 C 0.28843 0.98865 0.19839 0.0
C277 C 0.3075 0.01359 0.16354 0.0
N278 N 0.30868 0.98742 0.17703 0.0
C279 C 0.26349 0.04635 0.11604 0.0
C280 C 0.29647 0.07729 0.076 0.0
C281 C 0.27341 0.05975 0.06595 0.0
C282 C 0.25752 0.04342 0.08636 0.0
C283 C 0.30224 0.07904 0.10604 0.0
N284 N 0.28504 0.06452 0.12567 0.0
H285 H 0.24971 0.03503 0.13156 0.0
H286 H 0.31909 0.09363 0.11344 0.0
H287 H 0.25922 0.02375 0.21277 0.0
H288 H 0.32261 0.02049 0.14667 0.0
O289 O 0.24293 0.07319 0.1729 0.0
O290 O 0.27549 0.08101 0.20776 0.0
O291 O 0.32896 0.07355 0.17107 0.0
C292 C 0.24815 0.08017 0.1999 0.0
H293 H 0.28506 0.18351 0.17705 0.0
H294 H 0.28433 0.97168 0.21437 0.0
H295 H 0.30939 0.09012 0.06086 0.0
H296 H 0.23946 0.02973 0.07959 0.0
Co297 Co 0.32368 0.47451 0.08914 0.0
C298 C 0.37676 0.49641 0.11893 0.0
C299 C 0.38726 0.47282 0.07994 0.0
C300 C 0.41238 0.48536 0.09048 0.0
N301 N 0.36494 0.47914 0.09811 0.0
N302 N 0.40576 0.50032 0.11493 0.0
H303 H 0.36408 0.50764 0.13538 0.0
H304 H 0.38517 0.46091 0.0597 0.0
C305 C 0.34625 0.41132 0.08836 0.0
O306 O 0.37166 0.418 0.09969 0.0
N307 N 0.28252 0.46998 0.07977 0.0
C308 C 0.26755 0.48052 0.05667 0.0
C309 C 0.24104 0.46626 0.05496 0.0
C310 C 0.26475 0.44969 0.09183 0.0
N311 N 0.23938 0.44695 0.07713 0.0
C312 C 0.29554 0.49499 0.14015 0.0
C313 C 0.3277 0.46302 0.17995 0.0
C314 C 0.30982 0.48574 0.19008 0.0
C315 C 0.29279 0.50106 0.16984 0.0
C316 C 0.32934 0.45721 0.14998 0.0
N317 N 0.31429 0.47398 0.13048 0.0
H318 H 0.28382 0.50836 0.12464 0.0
H319 H 0.34439 0.44081 0.14242 0.0
H320 H 0.27576 0.49613 0.04096 0.0
H321 H 0.27124 0.43554 0.10962 0.0
O322 O 0.32224 0.51625 0.08304 0.0
O323 O 0.33255 0.48361 0.04889 0.0
O324 O 0.32607 0.43044 0.08603 0.0
C325 C 0.33048 0.51097 0.05637 0.0
H326 H 0.43372 0.48431 0.08035 0.0
H327 H 0.22481 0.46894 0.03801 0.0
H328 H 0.341 0.4505 0.19497 0.0
H329 H 0.27879 0.51882 0.17671 0.0
Co330 Co 0.72466 0.4278 0.16387 0.0
C331 C 0.74355 0.37275 0.1354 0.0
C332 C 0.72029 0.36472 0.17529 0.0
C333 C 0.7298 0.33844 0.16442 0.0
N334 N 0.72809 0.38618 0.15664 0.0
N335 N 0.74443 0.3435 0.13935 0.0
H336 H 0.75463 0.3842 0.11792 0.0
H337 H 0.70899 0.36806 0.19576 0.0
C338 C 0.66079 0.40647 0.16576 0.0
O339 O 0.66643 0.38108 0.15386 0.0
N340 N 0.72096 0.46932 0.17148 0.0
C341 C 0.73569 0.48685 0.18993 0.0
C342 C 0.72175 0.51362 0.19097 0.0
C343 C 0.69869 0.48571 0.16145 0.0
N344 N 0.69834 0.51276 0.17308 0.0
C345 C 0.74439 0.45495 0.11204 0.0
C346 C 0.7114 0.4233 0.07281 0.0
C347 C 0.73338 0.44196 0.06219 0.0
C348 C 0.74933 0.45852 0.08222 0.0
C349 C 0.70663 0.4209 0.103 0.0
N350 N 0.72376 0.43593 0.12218 0.0
H351 H 0.75816 0.46661 0.12721 0.0
H352 H 0.69053 0.40563 0.11087 0.0
H353 H 0.75446 0.48052 0.20273 0.0
H354 H 0.68199 0.47718 0.14716 0.0
O355 O 0.76655 0.42881 0.16908 0.0
O356 O 0.73426 0.42055 0.20428 0.0
O357 O 0.68061 0.42598 0.16812 0.0
C358 C 0.76154 0.42199 0.19623 0.0
H359 H 0.72735 0.31738 0.17491 0.0
H360 H 0.72791 0.53186 0.20459 0.0
H361 H 0.69852 0.41021 0.05796 0.0
H362 H 0.76663 0.473 0.075 0.0
Co363 Co 0.67732 0.0435 0.09785 0.0
C364 C 0.74014 0.05619 0.09533 0.0
C365 C 0.72509 0.03767 0.05523 0.0
C366 C 0.75275 0.04874 0.05088 0.0
N367 N 0.71718 0.0421 0.08324 0.0
N368 N 0.7621 0.06075 0.07606 0.0
H369 H 0.73929 0.06622 0.11663 0.0
H370 H 0.71068 0.0296 0.03839 0.0
C371 C 0.68097 0.98247 0.07043 0.0
O372 O 0.70927 0.97992 0.07427 0.0
N373 N 0.63759 0.04532 0.11287 0.0
C374 C 0.62157 0.06897 0.12004 0.0
C375 C 0.59581 0.05979 0.13282 0.0
C376 C 0.62134 0.02223 0.12155 0.0
N377 N 0.59583 0.03036 0.13394 0.0
C378 C 0.69784 0.04598 0.15679 0.0
C379 C 0.69062 0.98754 0.17007 0.0
C380 C 0.69858 0.00675 0.19234 0.0
C381 C 0.70279 0.03625 0.1853 0.0
C382 C 0.68615 0.99808 0.14185 0.0
N383 N 0.6894 0.02709 0.13538 0.0
H384 H 0.69984 0.06901 0.15226 0.0
H385 H 0.67857 0.98269 0.12602 0.0
H386 H 0.62826 0.0914 0.11707 0.0
H387 H 0.62818 0.9998 0.11915 0.0
O388 O 0.68299 0.08537 0.1047 0.0
O389 O 0.66651 0.06548 0.06397 0.0
O390 O 0.66714 0.00458 0.08019 0.0
C391 C 0.67467 0.08879 0.0777 0.0
H392 H 0.76407 0.04989 0.03015 0.0
H393 H 0.57887 0.07376 0.14151 0.0
H394 H 0.68719 0.96456 0.17455 0.0
H395 H 0.70852 0.05198 0.20195 0.0
Co396 Co 0.28268 0.93535 0.34109 0.0
C397 C 0.26566 0.87998 0.37037 0.0
C398 C 0.29182 0.87243 0.33226 0.0
C399 C 0.28347 0.84588 0.34362 0.0
N400 N 0.28133 0.89381 0.34947 0.0
N401 N 0.26702 0.85061 0.3676 0.0
H402 H 0.25293 0.8912 0.38677 0.0
H403 H 0.30411 0.87596 0.31238 0.0
C404 C 0.34799 0.91837 0.34184 0.0
O405 O 0.3441 0.89361 0.35578 0.0
N406 N 0.28475 0.97687 0.33224 0.0
C407 C 0.27497 0.99129 0.30845 0.0
C408 C 0.28904 0.01795 0.30665 0.0
C409 C 0.30434 0.99515 0.34458 0.0
N410 N 0.30751 0.02024 0.32941 0.0
C411 C 0.26022 0.9617 0.39221 0.0
C412 C 0.29344 0.93123 0.43226 0.0
C413 C 0.26963 0.94772 0.44223 0.0
C414 C 0.25363 0.96395 0.42188 0.0
C415 C 0.29971 0.93008 0.40233 0.0
N416 N 0.28239 0.94425 0.38264 0.0
H417 H 0.24637 0.97275 0.37663 0.0
H418 H 0.317 0.91604 0.39507 0.0
H419 H 0.26047 0.98241 0.29214 0.0
H420 H 0.31823 0.98895 0.36266 0.0
O421 O 0.24081 0.93417 0.33518 0.0
O422 O 0.2739 0.92648 0.30073 0.0
O423 O 0.32671 0.93584 0.3374 0.0
C424 C 0.24645 0.92696 0.30831 0.0
H425 H 0.288 0.82476 0.33409 0.0
H426 H 0.28712 0.03363 0.28905 0.0
H427 H 0.30652 0.91858 0.44736 0.0
H428 H 0.23503 0.9769 0.42863 0.0
Co429 Co 0.18252 0.46996 0.91718 0.0
C430 C 0.12796 0.48644 0.88611 0.0
C431 C 0.11919 0.46469 0.92669 0.0
C432 C 0.09308 0.47343 0.91478 0.0
N433 N 0.14106 0.4721 0.90836 0.0
N434 N 0.09857 0.48717 0.8893 0.0
H435 H 0.13973 0.49703 0.86853 0.0
H436 H 0.12211 0.45427 0.94768 0.0
C437 C 0.1628 0.40592 0.91867 0.0
O438 O 0.1376 0.41133 0.90621 0.0
N439 N 0.22392 0.46758 0.92626 0.0
C440 C 0.23857 0.47858 0.94932 0.0
C441 C 0.26563 0.46537 0.9509 0.0
C442 C 0.24242 0.44808 0.91414 0.0
N443 N 0.26793 0.44624 0.92871 0.0
C444 C 0.2078 0.49165 0.86512 0.0
C445 C 0.18498 0.45092 0.8271 0.0
C446 C 0.19979 0.47527 0.81556 0.0
C447 C 0.21184 0.4954 0.83519 0.0
C448 C 0.1812 0.44814 0.85731 0.0
N449 N 0.19196 0.46878 0.87583 0.0
H450 H 0.21655 0.50784 0.87982 0.0
H451 H 0.16863 0.43007 0.86547 0.0
H452 H 0.22977 0.49367 0.96514 0.0
H453 H 0.23633 0.43363 0.89649 0.0
O454 O 0.1821 0.51192 0.92212 0.0
O455 O 0.17351 0.47975 0.95727 0.0
O456 O 0.18199 0.42596 0.92167 0.0
C457 C 0.17461 0.50699 0.94908 0.0
H458 H 0.07181 0.47125 0.92492 0.0
H459 H 0.28176 0.46854 0.96785 0.0
H460 H 0.17575 0.43446 0.81293 0.0
H461 H 0.22316 0.51474 0.8276 0.0
Co462 Co 0.72379 0.57378 0.34421 0.0
C463 C 0.7418 0.62874 0.37358 0.0
C464 C 0.71667 0.63704 0.33502 0.0
C465 C 0.72598 0.66332 0.34612 0.0
N466 N 0.7258 0.61535 0.3527 0.0
N467 N 0.74182 0.65813 0.37037 0.0
H468 H 0.75395 0.61715 0.39019 0.0
H469 H 0.70482 0.63389 0.31487 0.0
C470 C 0.6589 0.59199 0.34226 0.0
O471 O 0.66284 0.61739 0.3548 0.0
N472 N 0.72138 0.5323 0.33526 0.0
C473 C 0.73265 0.51765 0.31231 0.0
C474 C 0.71898 0.49083 0.31028 0.0
C475 C 0.7013 0.51398 0.34691 0.0
N476 N 0.69928 0.48865 0.33207 0.0
C477 C 0.74464 0.54642 0.39545 0.0
C478 C 0.71148 0.57741 0.43515 0.0
C479 C 0.73445 0.55986 0.4454 0.0
C480 C 0.7504 0.54346 0.42518 0.0
C481 C 0.70592 0.57918 0.4051 0.0
N482 N 0.72321 0.56465 0.38566 0.0
H483 H 0.75851 0.53519 0.38002 0.0
H484 H 0.68921 0.59385 0.39745 0.0
H485 H 0.74819 0.52634 0.29679 0.0
H486 H 0.68658 0.52015 0.36435 0.0
O487 O 0.76571 0.57445 0.33878 0.0
O488 O 0.7331 0.58268 0.30401 0.0
O489 O 0.6798 0.57368 0.34008 0.0
C490 C 0.76044 0.58186 0.31186 0.0
H491 H 0.72264 0.68452 0.3362 0.0
H492 H 0.72224 0.47481 0.29325 0.0
H493 H 0.69854 0.59029 0.45016 0.0
H494 H 0.7684 0.52979 0.43214 0.0
Co495 Co 0.8252 0.03406 0.91212 0.0
C496 C 0.88016 0.01448 0.88328 0.0
C497 C 0.88848 0.03724 0.92325 0.0
C498 C 0.91467 0.02764 0.91212 0.0
N499 N 0.86687 0.02985 0.90472 0.0
N500 N 0.90945 0.01333 0.88698 0.0
H501 H 0.86859 0.00372 0.86576 0.0
H502 H 0.88534 0.04847 0.94375 0.0
C503 C 0.84756 0.09741 0.91335 0.0
O504 O 0.87288 0.09114 0.9015 0.0
N505 N 0.78364 0.03858 0.91975 0.0
C506 C 0.76659 0.02612 0.94035 0.0
C507 C 0.7397 0.03987 0.94031 0.0
C508 C 0.76683 0.05948 0.90748 0.0
N509 N 0.73995 0.06085 0.91958 0.0
C510 C 0.79832 0.01367 0.86068 0.0
C511 C 0.82983 0.04654 0.82098 0.0
C512 C 0.81144 0.02426 0.8107 0.0
C513 C 0.79493 0.00837 0.83096 0.0
C514 C 0.83209 0.05163 0.85108 0.0
N515 N 0.81716 0.03453 0.87048 0.0
H516 H 0.78667 1.00004 0.87608 0.0
H517 H 0.84719 0.06793 0.85872 0.0
H518 H 0.77335 0.00915 0.95528 0.0
H519 H 0.77482 0.07462 0.89114 0.0
O520 O 0.82361 0.99224 0.91812 0.0
O521 O 0.83235 0.02482 0.95269 0.0
O522 O 0.8275 0.07811 0.91561 0.0
C523 C 0.83054 0.99747 0.94515 0.0
H524 H 0.93581 0.02991 0.92243 0.0
H525 H 0.7217 0.03529 0.95496 0.0
H526 H 0.84284 0.05941 0.80594 0.0
H527 H 0.78065 0.99086 0.82401 0.0
Co528 Co 0.16724 0.28256 0.07689 0.0
C529 C 0.13697 0.26522 0.13164 0.0
C530 C 0.17593 0.28978 0.14 0.0
C531 C 0.16438 0.28091 0.16626 0.0
N532 N 0.15828 0.28073 0.11829 0.0
N533 N 0.13988 0.26544 0.16101 0.0
H534 H 0.12027 0.25322 0.12007 0.0
H535 H 0.19626 0.30144 0.13686 0.0
C536 C 0.16636 0.34706 0.09529 0.0
O537 O 0.15338 0.34195 0.12032 0.0
N538 N 0.17686 0.28474 0.03562 0.0
C539 C 0.2003 0.27391 0.02136 0.0
C540 C 0.20229 0.2872 0.99434 0.0
C541 C 0.16489 0.30415 0.01694 0.0
N542 N 0.17995 0.30615 0.9917 0.0
C543 C 0.11686 0.26044 0.04903 0.0
C544 C 0.07585 0.29324 0.07865 0.0
C545 C 0.06641 0.2699 0.06124 0.0
C546 C 0.08728 0.25411 0.04552 0.0
C547 C 0.10577 0.29936 0.08101 0.0
N548 N 0.12588 0.28225 0.06718 0.0
H549 H 0.13277 0.24675 0.03828 0.0
H550 H 0.11269 0.31638 0.09557 0.0
H551 H 0.21614 0.25898 0.03042 0.0
H552 H 0.14702 0.31848 0.02276 0.0
O553 O 0.17308 0.24085 0.07783 0.0
O554 O 0.2075 0.27384 0.08635 0.0
O555 O 0.1704 0.32666 0.07675 0.0
C556 C 0.19984 0.24642 0.08554 0.0
H557 H 0.17414 0.28427 0.18749 0.0
H558 H 0.21963 0.28429 0.97853 0.0
H559 H 0.0603 0.30608 0.091 0.0
H560 H 0.08095 0.23584 0.03196 0.0
Co561 Co 0.16689 0.7231 0.42658 0.0
C562 C 0.13763 0.74285 0.372 0.0
C563 C 0.17822 0.72109 0.36353 0.0
C564 C 0.16692 0.73054 0.33743 0.0
N565 N 0.15942 0.72794 0.38515 0.0
N566 N 0.14139 0.74418 0.34276 0.0
H567 H 0.11979 0.75309 0.38359 0.0
H568 H 0.19893 0.71017 0.36661 0.0
C569 C 0.16691 0.66022 0.40259 0.0
O570 O 0.15525 0.66745 0.37748 0.0
N571 N 0.17495 0.71806 0.46798 0.0
C572 C 0.19175 0.73393 0.48629 0.0
C573 C 0.19471 0.71878 0.51234 0.0
C574 C 0.16764 0.69401 0.48331 0.0
N575 N 0.17972 0.69357 0.5101 0.0
C576 C 0.11557 0.74258 0.45466 0.0
C577 C 0.07556 0.71083 0.42269 0.0
C578 C 0.06541 0.73262 0.44169 0.0
C579 C 0.08583 0.74789 0.45846 0.0
C580 C 0.10567 0.70569 0.42003 0.0
N581 N 0.12525 0.7223 0.43515 0.0
H582 H 0.13104 0.75587 0.46647 0.0
H583 H 0.11314 0.68982 0.40443 0.0
H584 H 0.20247 0.75424 0.48079 0.0
H585 H 0.15484 0.67623 0.47452 0.0
O586 O 0.17257 0.76484 0.42877 0.0
O587 O 0.20743 0.73269 0.41926 0.0
O588 O 0.17029 0.679 0.42294 0.0
C589 C 0.19961 0.75995 0.42151 0.0
H590 H 0.17729 0.72859 0.31628 0.0
H591 H 0.20848 0.72478 0.53055 0.0
H592 H 0.06042 0.69842 0.40947 0.0
H593 H 0.079 0.76501 0.47323 0.0
Co594 Co 0.97422 0.58887 0.82588 0.0
C595 C 0.9931 0.61889 0.88025 0.0
C596 C 0.9689 0.57979 0.88926 0.0
C597 C 0.97825 0.59134 0.91529 0.0
N598 N 0.97738 0.59753 0.86729 0.0
N599 N 0.99347 0.61593 0.90963 0.0
H600 H 0.00471 0.63575 0.8684 0.0
H601 H 0.95719 0.55947 0.88647 0.0
C602 C 0.91008 0.58965 0.84629 0.0
O603 O 0.91589 0.60185 0.87148 0.0
N604 N 0.97069 0.57965 0.78458 0.0
C605 C 0.98083 0.55613 0.77 0.0
C606 C 0.96661 0.55422 0.74352 0.0
C607 C 0.95068 0.59173 0.76656 0.0
N608 N 0.94768 0.57664 0.74147 0.0
C609 C 0.99605 0.63973 0.79817 0.0
C610 C 0.9634 0.68008 0.82884 0.0
C611 C 0.98664 0.68993 0.81136 0.0
C612 C 1.00234 0.6694 0.7951 0.0
C613 C 0.95737 0.65012 0.83079 0.0
N614 N 0.97443 0.63033 0.81647 0.0
H615 H 0.00963 0.62404 0.78697 0.0
H616 H 0.94048 0.64289 0.84547 0.0
H617 H 0.99595 0.54019 0.77855 0.0
H618 H 0.9367 0.60972 0.77281 0.0
O619 O 0.016 0.58257 0.82551 0.0
O620 O 0.98291 0.54848 0.83488 0.0
O621 O 0.93005 0.586 0.82711 0.0
C622 C 0.01039 0.55582 0.83333 0.0
H623 H 0.97524 0.58161 0.93663 0.0
H624 H 0.96895 0.53689 0.72766 0.0
H625 H 0.95057 0.69532 0.84155 0.0
H626 H 0.0205 0.67604 0.78141 0.0
Co627 Co 0.84368 0.78374 0.43286 0.0
C628 C 0.87298 0.76537 0.37803 0.0
C629 C 0.83559 0.79227 0.3697 0.0
C630 C 0.84686 0.78317 0.3434 0.0
N631 N 0.85241 0.78178 0.39141 0.0
N632 N 0.87038 0.76623 0.34862 0.0
H633 H 0.88899 0.75247 0.38963 0.0
H634 H 0.81594 0.80499 0.37284 0.0
C635 C 0.84394 0.84907 0.41517 0.0
O636 O 0.85804 0.84547 0.39049 0.0
N637 N 0.83452 0.78644 0.47429 0.0
C638 C 0.81092 0.77625 0.48882 0.0
C639 C 0.8087 0.79068 0.51519 0.0
C640 C 0.84632 0.80666 0.49223 0.0
N641 N 0.83098 0.80984 0.51721 0.0
C642 C 0.89476 0.76238 0.46019 0.0
C643 C 0.93485 0.79466 0.42857 0.0
C644 C 0.94482 0.77136 0.44584 0.0
C645 C 0.92444 0.75588 0.46262 0.0
C646 C 0.90491 0.80086 0.42724 0.0
N647 N 0.8852 0.784 0.44202 0.0
H648 H 0.87916 0.74881 0.47165 0.0
H649 H 0.8976 0.81766 0.41258 0.0
H650 H 0.79505 0.7611 0.4802 0.0
H651 H 0.86417 0.82085 0.48586 0.0
O652 O 0.83807 0.74183 0.43241 0.0
O653 O 0.80342 0.77443 0.42382 0.0
O654 O 0.83964 0.82768 0.43258 0.0
C655 C 0.8112 0.74707 0.42483 0.0
H656 H 0.83755 0.78752 0.32214 0.0
H657 H 0.79115 0.78842 0.5309 0.0
H658 H 0.94997 0.80734 0.41546 0.0
H659 H 0.93115 0.73766 0.47615 0.0
Co660 Co 0.53611 0.41292 0.32618 0.0
C661 C 0.51649 0.38333 0.38066 0.0
C662 C 0.54066 0.42242 0.3895 0.0
C663 C 0.5307 0.4112 0.41553 0.0
N664 N 0.53259 0.40447 0.36766 0.0
N665 N 0.51547 0.38663 0.40998 0.0
H666 H 0.50499 0.36645 0.36885 0.0
H667 H 0.55239 0.44273 0.38659 0.0
C668 C 0.59998 0.41364 0.34717 0.0
O669 O 0.59416 0.40108 0.37226 0.0
N670 N 0.53991 0.42187 0.2848 0.0
C671 C 0.52901 0.44468 0.26962 0.0
C672 C 0.54294 0.44621 0.24289 0.0
C673 C 0.5601 0.40983 0.26693 0.0
N674 N 0.56244 0.42424 0.2413 0.0
C675 C 0.5155 0.36174 0.29852 0.0
C676 C 0.5479 0.32177 0.33 0.0
C677 C 0.52529 0.31164 0.31198 0.0
C678 C 0.50971 0.33201 0.29536 0.0
C679 C 0.55348 0.35182 0.332 0.0
N680 N 0.53657 0.3714 0.3172 0.0
H681 H 0.50195 0.37726 0.28701 0.0
H682 H 0.56992 0.35929 0.347 0.0
H683 H 0.51339 0.46032 0.27779 0.0
H684 H 0.57446 0.39225 0.27351 0.0
O685 O 0.49423 0.41861 0.32549 0.0
O686 O 0.52676 0.45321 0.33466 0.0
O687 O 0.58025 0.41661 0.32768 0.0
C688 C 0.4994 0.44547 0.3331 0.0
H689 H 0.5332 0.42119 0.43676 0.0
H690 H 0.53987 0.46293 0.22644 0.0
H691 H 0.56058 0.30668 0.34306 0.0
H692 H 0.49198 0.32517 0.28132 0.0
Co693 Co 0.34444 0.71868 0.57414 0.0
C694 C 0.37446 0.7366 0.62876 0.0
C695 C 0.33596 0.71136 0.63745 0.0
C696 C 0.34738 0.72054 0.66361 0.0
N697 N 0.35339 0.72065 0.61559 0.0
N698 N 0.3716 0.73645 0.65817 0.0
H699 H 0.39094 0.74884 0.61701 0.0
H700 H 0.31579 0.69941 0.6345 0.0
C701 C 0.34412 0.65389 0.59258 0.0
O702 O 0.35708 0.6583 0.6177 0.0
N703 N 0.33501 0.71637 0.53281 0.0
C704 C 0.31221 0.72805 0.51821 0.0
C705 C 0.31027 0.71496 0.49116 0.0
C706 C 0.34664 0.69663 0.51426 0.0
N707 N 0.33197 0.69524 0.48879 0.0
C708 C 0.39507 0.74026 0.5462 0.0
C709 C 0.43556 0.7076 0.57672 0.0
C710 C 0.44527 0.73087 0.55921 0.0
C711 C 0.42469 0.74655 0.54301 0.0
C712 C 0.40561 0.70153 0.57875 0.0
N713 N 0.38578 0.71861 0.5645 0.0
H714 H 0.37934 0.75394 0.53516 0.0
H715 H 0.39838 0.68463 0.59345 0.0
H716 H 0.29684 0.7436 0.527 0.0
H717 H 0.36408 0.68183 0.52024 0.0
O718 O 0.33878 0.76047 0.5748 0.0
O719 O 0.30425 0.72759 0.5835 0.0
O720 O 0.34081 0.67466 0.57424 0.0
C721 C 0.31197 0.75498 0.58253 0.0
H722 H 0.33769 0.71706 0.6849 0.0
H723 H 0.29342 0.7187 0.47503 0.0
H724 H 0.45089 0.69486 0.58943 0.0
H725 H 0.43126 0.76476 0.52937 0.0
Co726 Co 0.97067 0.41995 0.68122 0.0
C727 C 0.98736 0.38679 0.6281 0.0
C728 C 0.96619 0.42717 0.61745 0.0
C729 C 0.97476 0.41391 0.59194 0.0
N730 N 0.97334 0.40981 0.64014 0.0
N731 N 0.98811 0.38854 0.59864 0.0
H732 H 0.99757 0.36957 0.64062 0.0
H733 H 0.95587 0.44832 0.61936 0.0
C734 C 0.9067 0.41919 0.66144 0.0
O735 O 0.91257 0.40699 0.63625 0.0
N736 N 0.96784 0.43017 0.72228 0.0
C737 C 0.97792 0.45411 0.73619 0.0
C738 C 0.96438 0.45612 0.76306 0.0
C739 C 0.94858 0.41795 0.74106 0.0
N740 N 0.94597 0.43333 0.766 0.0
C741 C 0.99429 0.36883 0.70702 0.0
C742 C 0.95342 0.32958 0.68646 0.0
C743 C 0.97855 0.31873 0.70035 0.0
C744 C 0.99874 0.33899 0.71133 0.0
C745 C 0.94997 0.35966 0.68231 0.0
N746 N 0.9707 0.3788 0.69186 0.0
H747 H 0.01052 0.38401 0.71488 0.0
H748 H 0.93132 0.36722 0.67029 0.0
H749 H 0.9925 0.47024 0.72696 0.0
H750 H 0.93475 0.39963 0.73548 0.0
O751 O 0.01243 0.42663 0.68067 0.0
O752 O 0.979 0.4602 0.67108 0.0
O753 O 0.92658 0.42278 0.68064 0.0
C754 C 0.00653 0.45325 0.67267 0.0
H755 H 0.97258 0.42294 0.5702 0.0
H756 H 0.96677 0.47376 0.77856 0.0
H757 H 0.93683 0.31497 0.67815 0.0
H758 H 0.01862 0.33196 0.72198 0.0
Co759 Co 0.04501 0.10065 0.67962 0.0
C760 C 0.05811 0.0974 0.74224 0.0
C761 C 0.03836 0.05788 0.72712 0.0
C762 C 0.04973 0.05296 0.75452 0.0
N763 N 0.04341 0.08587 0.71941 0.0
N764 N 0.0625 0.07777 0.7639 0.0
H765 H 0.06874 0.11845 0.74145 0.0
H766 H 0.02976 0.04135 0.71267 0.0
C767 C 0.98342 0.07372 0.68309 0.0
O768 O 0.9806 0.07757 0.71135 0.0
N769 N 0.04703 0.11569 0.63995 0.0
C770 C 0.07074 0.12313 0.62404 0.0
C771 C 0.06162 0.13543 0.59807 0.0
C772 C 0.02397 0.12375 0.62346 0.0
N773 N 0.03217 0.13597 0.59788 0.0
C774 C 0.04832 0.15941 0.70082 0.0
C775 C 0.99048 0.17398 0.69185 0.0
C776 C 0.01001 0.19588 0.7003 0.0
C777 C 0.03915 0.18817 0.7055 0.0
C778 C 1.00042 0.14547 0.6878 0.0
N779 N 0.02917 0.13839 0.69179 0.0
H780 H 0.07119 0.15442 0.70338 0.0
H781 H 0.98488 0.12988 0.6799 0.0
H782 H 0.09317 0.12058 0.6309 0.0
H783 H 1.00149 0.12098 0.6301 0.0
O784 O 0.08702 0.10703 0.68512 0.0
O785 O 0.0665 0.06655 0.66866 0.0
O786 O 0.00581 0.08332 0.66948 0.0
C787 C 0.09004 0.08003 0.67667 0.0
H788 H 0.0506 0.03207 0.76555 0.0
H789 H 0.07563 0.14413 0.5811 0.0
H790 H 0.96775 0.179 0.68765 0.0
H791 H 0.05506 0.20452 0.71171 0.0
Co792 Co 0.57287 0.66573 0.78396 0.0
C793 C 0.62786 0.63588 0.76653 0.0
C794 C 0.63596 0.67461 0.79142 0.0
C795 C 0.66233 0.66328 0.7827 0.0
N796 N 0.61433 0.65697 0.78208 0.0
N797 N 0.65725 0.63893 0.76704 0.0
H798 H 0.61641 0.61923 0.75436 0.0
H799 H 0.6327 0.69476 0.80324 0.0
C800 C 0.5914 0.66404 0.84843 0.0
O801 O 0.61632 0.65096 0.84317 0.0
N802 N 0.53154 0.6752 0.78625 0.0
C803 C 0.51721 0.69848 0.77518 0.0
C804 C 0.49028 0.7006 0.78863 0.0
C805 C 0.51296 0.66344 0.80597 0.0
N806 N 0.48774 0.67851 0.80795 0.0
C807 C 0.54495 0.61543 0.76168 0.0
C808 C 0.57496 0.5743 0.794 0.0
C809 C 0.55753 0.56499 0.77062 0.0
C810 C 0.54158 0.5859 0.7551 0.0
C811 C 0.57718 0.60414 0.80036 0.0
N812 N 0.56318 0.62434 0.78346 0.0
H813 H 0.53405 0.6314 0.74815 0.0
H814 H 0.5918 0.61094 0.81736 0.0
H815 H 0.52619 0.71415 0.75996 0.0
H816 H 0.51885 0.64574 0.8205 0.0
O817 O 0.57378 0.67189 0.74227 0.0
O818 O 0.58231 0.70606 0.77537 0.0
O819 O 0.57287 0.66853 0.82808 0.0
C820 C 0.58154 0.6986 0.74793 0.0
H821 H 0.68353 0.67307 0.78635 0.0
H822 H 0.47447 0.71789 0.78557 0.0
H823 H 0.58748 0.55872 0.80665 0.0
H824 H 0.52798 0.57966 0.73682 0.0
Co825 Co 0.91947 0.18344 0.47348 0.0
C826 C 0.8888 0.12908 0.4919 0.0
C827 C 0.92857 0.11999 0.46886 0.0
C828 C 0.9164 0.09396 0.47765 0.0
N829 N 0.91081 0.14202 0.47696 0.0
N830 N 0.89137 0.09968 0.49209 0.0
H831 H 0.87162 0.14092 0.50293 0.0
H832 H 0.94914 0.12272 0.45754 0.0
C833 C 0.91762 0.16265 0.40983 0.0
O834 O 0.90541 0.13752 0.41624 0.0
N835 N 0.9286 0.22477 0.46975 0.0
C836 C 0.95166 0.23975 0.48038 0.0
C837 C 0.95331 0.26643 0.4664 0.0
C838 C 0.91648 0.24275 0.44974 0.0
N839 N 0.93114 0.2682 0.44716 0.0
C840 C 0.86886 0.21081 0.49639 0.0
C841 C 0.82799 0.18151 0.46316 0.0
C842 C 0.81839 0.19869 0.48661 0.0
C843 C 0.83919 0.21426 0.50265 0.0
C844 C 0.85793 0.17922 0.45715 0.0
N845 N 0.87798 0.19283 0.47448 0.0
H846 H 0.88474 0.22157 0.51009 0.0
H847 H 0.86491 0.16487 0.43996 0.0
H848 H 0.96746 0.23145 0.49578 0.0
H849 H 0.89873 0.23631 0.43555 0.0
O850 O 0.92682 0.18377 0.51504 0.0
O851 O 0.96014 0.17468 0.48113 0.0
O852 O 0.92143 0.18216 0.42934 0.0
C853 C 0.95355 0.17636 0.50874 0.0
H854 H 0.92587 0.07254 0.47463 0.0
H855 H 0.97028 0.28266 0.46915 0.0
H856 H 0.81253 0.16931 0.45011 0.0
H857 H 0.83271 0.22771 0.52095 0.0
Co858 Co 0.43313 0.8394 0.78252 0.0
C859 C 0.37833 0.86911 0.76398 0.0
C860 C 0.36987 0.82951 0.78758 0.0
C861 C 0.34364 0.84103 0.7787 0.0
N862 N 0.39161 0.84757 0.7792 0.0
N863 N 0.34896 0.86595 0.76389 0.0
H864 H 0.38993 0.88631 0.75262 0.0
H865 H 0.37294 0.80909 0.79907 0.0
C866 C 0.41219 0.84019 0.84637 0.0
O867 O 0.38699 0.85237 0.84035 0.0
N868 N 0.47454 0.83064 0.78635 0.0
C869 C 0.48961 0.80755 0.77594 0.0
C870 C 0.51579 0.80547 0.79073 0.0
C871 C 0.49201 0.84234 0.80703 0.0
N872 N 0.51718 0.82736 0.81029 0.0
C873 C 0.46035 0.89047 0.76067 0.0
C874 C 0.42926 0.93062 0.79314 0.0
C875 C 0.44665 0.94058 0.76988 0.0
C876 C 0.46314 0.92015 0.75427 0.0
C877 C 0.4276 0.90066 0.79926 0.0
N878 N 0.44209 0.88095 0.78227 0.0
H879 H 0.47175 0.87485 0.74717 0.0
H880 H 0.413 0.89336 0.81618 0.0
H881 H 0.48152 0.79193 0.76029 0.0
H882 H 0.48523 0.85987 0.82132 0.0
O883 O 0.43376 0.83308 0.74078 0.0
O884 O 0.42466 0.7989 0.77385 0.0
O885 O 0.43157 0.83655 0.82661 0.0
C886 C 0.42618 0.80627 0.74638 0.0
H887 H 0.32238 0.83114 0.7818 0.0
H888 H 0.53184 0.78829 0.78836 0.0
H889 H 0.4164 0.94578 0.80592 0.0
H890 H 0.47678 0.92686 0.73612 0.0
Co891 Co 0.08778 0.31906 0.47724 0.0
C892 C 0.1184 0.37162 0.49897 0.0
C893 C 0.07937 0.38274 0.47567 0.0
C894 C 0.09047 0.40766 0.48809 0.0
N895 N 0.09722 0.36017 0.48187 0.0
N896 N 0.11495 0.40063 0.50286 0.0
H897 H 0.13473 0.35868 0.51009 0.0
H898 H 0.05901 0.38099 0.46385 0.0
C899 C 0.08788 0.34188 0.4141 0.0
O900 O 0.09929 0.36717 0.42109 0.0
N901 N 0.07806 0.27801 0.47275 0.0
C902 C 0.05468 0.26319 0.48306 0.0
C903 C 0.05291 0.23668 0.46888 0.0
C904 C 0.09021 0.26016 0.4527 0.0
N905 N 0.07532 0.23489 0.44986 0.0
C906 C 0.13879 0.29099 0.49843 0.0
C907 C 0.17869 0.3222 0.46543 0.0
C908 C 0.18886 0.30473 0.48846 0.0
C909 C 0.16859 0.28814 0.50432 0.0
C910 C 0.14868 0.32393 0.45982 0.0
N911 N 0.12913 0.30938 0.47707 0.0
H912 H 0.12324 0.27961 0.51213 0.0
H913 H 0.14119 0.33869 0.44313 0.0
H914 H 0.03884 0.27151 0.49842 0.0
H915 H 0.10823 0.26654 0.43874 0.0
O916 O 0.08104 0.31776 0.51897 0.0
O917 O 0.04749 0.32826 0.48578 0.0
O918 O 0.08516 0.32155 0.43308 0.0
C919 C 0.05451 0.32626 0.51325 0.0
H920 H 0.08073 0.42915 0.48703 0.0
H921 H 0.03577 0.22057 0.4714 0.0
H922 H 0.19373 0.33516 0.45251 0.0
H923 H 0.17553 0.27443 0.52231 0.0
Co924 Co 0.57507 0.34491 0.71714 0.0
C925 C 0.62927 0.3757 0.73529 0.0
C926 C 0.63853 0.33727 0.71035 0.0
C927 C 0.66452 0.34897 0.71973 0.0
N928 N 0.61641 0.35451 0.71929 0.0
N929 N 0.65871 0.37313 0.73546 0.0
H930 H 0.61727 0.39202 0.74741 0.0
H931 H 0.63586 0.31705 0.6985 0.0
C932 C 0.59431 0.34523 0.65277 0.0
O933 O 0.61893 0.35895 0.65783 0.0
N934 N 0.53386 0.33477 0.71482 0.0
C935 C 0.5195 0.31205 0.72706 0.0
C936 C 0.49229 0.3097 0.71433 0.0
C937 C 0.51503 0.34597 0.69508 0.0
N938 N 0.48959 0.33109 0.69428 0.0
C939 C 0.54625 0.395 0.73867 0.0
C940 C 0.57614 0.43617 0.70612 0.0
C941 C 0.55835 0.44549 0.72928 0.0
C942 C 0.54247 0.42453 0.74491 0.0
C943 C 0.57875 0.40629 0.70009 0.0
N944 N 0.5648 0.38611 0.7171 0.0
H945 H 0.53543 0.37902 0.75232 0.0
H946 H 0.59364 0.39945 0.68326 0.0
H947 H 0.52849 0.29707 0.7429 0.0
H948 H 0.52069 0.36333 0.68001 0.0
O949 O 0.57575 0.33908 0.75893 0.0
O950 O 0.58498 0.30487 0.72603 0.0
O951 O 0.57544 0.34143 0.67302 0.0
C952 C 0.5839 0.31245 0.75341 0.0
H953 H 0.68594 0.3395 0.71656 0.0
H954 H 0.47623 0.29286 0.7186 0.0
H955 H 0.58863 0.45178 0.69341 0.0
H956 H 0.52863 0.43078 0.76304 0.0
Co957 Co 0.59637 0.18148 0.53536 0.0
C958 C 0.62728 0.12692 0.51942 0.0
C959 C 0.58973 0.11846 0.54615 0.0
C960 C 0.60162 0.09218 0.53786 0.0
N961 N 0.60623 0.14027 0.53522 0.0
N962 N 0.62524 0.09748 0.521 0.0
H963 H 0.64311 0.13857 0.50625 0.0
H964 H 0.56978 0.1215 0.55845 0.0
C965 C 0.59569 0.1658 0.60106 0.0
O966 O 0.6113 0.14194 0.59854 0.0
N967 N 0.58596 0.22268 0.53609 0.0
C968 C 0.56254 0.23614 0.52428 0.0
C969 C 0.55959 0.26339 0.53678 0.0
C970 C 0.59695 0.24211 0.55534 0.0
N971 N 0.58129 0.26703 0.55627 0.0
C972 C 0.64702 0.21003 0.51392 0.0
C973 C 0.68756 0.18112 0.54793 0.0
C974 C 0.69741 0.19844 0.5246 0.0
C975 C 0.67675 0.21383 0.50818 0.0
C976 C 0.65753 0.1785 0.55343 0.0
N977 N 0.63764 0.192 0.5358 0.0
H978 H 0.63132 0.2204 0.49969 0.0
H979 H 0.65043 0.16391 0.5704 0.0
H980 H 0.54733 0.22637 0.50917 0.0
H981 H 0.61456 0.23708 0.57027 0.0
O982 O 0.59137 0.1792 0.49343 0.0
O983 O 0.55656 0.17094 0.52608 0.0
O984 O 0.59145 0.18267 0.57922 0.0
C985 C 0.56458 0.17122 0.49879 0.0
H986 H 0.59255 0.07085 0.54254 0.0
H987 H 0.54203 0.27873 0.53292 0.0
H988 H 0.70289 0.16897 0.5612 0.0
H989 H 0.68341 0.22728 0.48986 0.0
Co990 Co 0.43145 0.16326 0.72288 0.0
C991 C 0.37632 0.13457 0.7421 0.0
C992 C 0.3683 0.17469 0.71929 0.0
C993 C 0.34202 0.16375 0.72895 0.0
N994 N 0.38976 0.15595 0.72668 0.0
N995 N 0.34707 0.13853 0.74331 0.0
H996 H 0.38777 0.11698 0.75292 0.0
H997 H 0.37162 0.19525 0.7081 0.0
C998 C 0.40916 0.16479 0.65944 0.0
O999 O 0.384 0.15254 0.66567 0.0
N1000 N 0.47318 0.17095 0.71912 0.0
C1001 C 0.49214 0.18235 0.73862 0.0
C1002 C 0.51948 0.18425 0.72578 0.0
C1003 C 0.48934 0.16599 0.69494 0.0
N1004 N 0.51739 0.17407 0.69834 0.0
C1005 C 0.45825 0.11143 0.74292 0.0
C1006 C 0.4266 0.07218 0.70994 0.0
C1007 C 0.44488 0.06157 0.73217 0.0
C1008 C 0.46147 0.08161 0.74809 0.0
C1009 C 0.42455 0.10236 0.70495 0.0
N1010 N 0.43953 0.12157 0.72208 0.0
H1011 H 0.46979 0.12657 0.75678 0.0
H1012 H 0.40951 0.11018 0.6887 0.0
H1013 H 0.48663 0.18912 0.76053 0.0
H1014 H 0.48095 0.15651 0.67508 0.0
O1015 O 0.43244 0.16876 0.76476 0.0
O1016 O 0.42438 0.20374 0.73228 0.0
O1017 O 0.42908 0.16736 0.6788 0.0
C1018 C 0.42576 0.19591 0.75959 0.0
H1019 H 0.32098 0.17427 0.72678 0.0
H1020 H 0.53907 0.19323 0.73546 0.0
H1021 H 0.41351 0.05733 0.69706 0.0
H1022 H 0.47564 0.07441 0.76559 0.0
Co1023 Co 0.41156 0.3246 0.534 0.0
C1024 C 0.38155 0.3792 0.51537 0.0
C1025 C 0.421 0.3879 0.53896 0.0
C1026 C 0.40954 0.41402 0.52966 0.0
N1027 N 0.40301 0.36607 0.53084 0.0
N1028 N 0.38474 0.40857 0.51481 0.0
H1029 H 0.36449 0.36747 0.50403 0.0
H1030 H 0.44145 0.38495 0.55038 0.0
C1031 C 0.41172 0.34527 0.59778 0.0
O1032 O 0.399 0.37026 0.59201 0.0
N1033 N 0.42063 0.28324 0.5375 0.0
C1034 C 0.44316 0.26813 0.52596 0.0
C1035 C 0.44509 0.24144 0.53989 0.0
C1036 C 0.40911 0.26533 0.55801 0.0
N1037 N 0.42365 0.23979 0.56002 0.0
C1038 C 0.36054 0.29665 0.51311 0.0
C1039 C 0.32034 0.32634 0.54687 0.0
C1040 C 0.31026 0.30824 0.52433 0.0
C1041 C 0.33078 0.2926 0.50797 0.0
C1042 C 0.35043 0.32927 0.55175 0.0
N1043 N 0.37009 0.31526 0.53427 0.0
H1044 H 0.37613 0.28574 0.49915 0.0
H1045 H 0.35777 0.3442 0.56827 0.0
H1046 H 0.45838 0.27635 0.50988 0.0
H1047 H 0.39188 0.27184 0.57284 0.0
O1048 O 0.41772 0.32437 0.49216 0.0
O1049 O 0.45193 0.33337 0.5251 0.0
O1050 O 0.41486 0.32584 0.57806 0.0
C1051 C 0.44454 0.33202 0.49768 0.0
H1052 H 0.4195 0.43528 0.53236 0.0
H1053 H 0.46177 0.22507 0.5364 0.0
H1054 H 0.30513 0.33868 0.5601 0.0
H1055 H 0.32396 0.27855 0.49026 0.0
Co1056 Co 0.78359 0.57607 0.66704 0.0
C1057 C 0.76694 0.63086 0.63666 0.0
C1058 C 0.79076 0.63925 0.67599 0.0
C1059 C 0.7821 0.66551 0.66431 0.0
N1060 N 0.78205 0.61753 0.6582 0.0
N1061 N 0.7671 0.66023 0.63957 0.0
H1062 H 0.75523 0.61926 0.61979 0.0
H1063 H 0.80201 0.63612 0.6965 0.0
C1064 C 0.84825 0.59449 0.6676 0.0
O1065 O 0.84348 0.61956 0.65461 0.0
N1066 N 0.78541 0.53475 0.67644 0.0
C1067 C 0.7743 0.52032 0.69969 0.0
C1068 C 0.78727 0.49317 0.70142 0.0
C1069 C 0.80468 0.51605 0.66434 0.0
N1070 N 0.80629 0.49062 0.6791 0.0
C1071 C 0.76223 0.54856 0.6162 0.0
C1072 C 0.79601 0.57821 0.57584 0.0
C1073 C 0.77275 0.56084 0.56597 0.0
C1074 C 0.75645 0.54513 0.58654 0.0
C1075 C 0.80157 0.58046 0.60586 0.0
N1076 N 0.784 0.56659 0.62563 0.0
H1077 H 0.74816 0.53778 0.63184 0.0
H1078 H 0.81857 0.59495 0.61312 0.0
H1079 H 0.75939 0.52934 0.71558 0.0
H1080 H 0.8192 0.52196 0.6466 0.0
O1081 O 0.74174 0.57701 0.67224 0.0
O1082 O 0.77416 0.58527 0.70716 0.0
O1083 O 0.82772 0.57585 0.671 0.0
C1084 C 0.74686 0.58445 0.69913 0.0
H1085 H 0.78527 0.68675 0.67411 0.0
H1086 H 0.78412 0.47719 0.71859 0.0
H1087 H 0.80922 0.59056 0.56055 0.0
H1088 H 0.73823 0.53161 0.57988 0.0
Co1089 Co 0.82328 0.97506 0.58944 0.0
C1090 C 0.87535 0.99748 0.62022 0.0
C1091 C 0.88715 0.97418 0.58144 0.0
C1092 C 0.91176 0.98734 0.59247 0.0
N1093 N 0.86434 0.97995 0.59917 0.0
N1094 N 0.9043 1.00212 0.61679 0.0
H1095 H 0.86208 0.00851 0.63634 0.0
H1096 H 0.8857 0.96238 0.56107 0.0
C1097 C 0.84606 0.91187 0.58833 0.0
O1098 O 0.87154 0.91865 0.59945 0.0
N1099 N 0.78228 0.97042 0.57953 0.0
C1100 C 0.76736 0.9813 0.55655 0.0
C1101 C 0.74069 0.9673 0.55482 0.0
C1102 C 0.76434 0.95023 0.59149 0.0
N1103 N 0.73891 0.94785 0.57686 0.0
C1104 C 0.7946 0.99539 0.64021 0.0
C1105 C 0.8265 0.96329 0.68014 0.0
C1106 C 0.80875 0.98616 0.69018 0.0
C1107 C 0.7918 1.0015 0.66989 0.0
C1108 C 0.82818 0.95743 0.65018 0.0
N1109 N 0.81331 0.97432 0.63063 0.0
H1110 H 0.78302 0.00883 0.62464 0.0
H1111 H 0.8432 0.94098 0.64265 0.0
H1112 H 0.77565 0.99705 0.54104 0.0
H1113 H 0.7707 0.93597 0.60925 0.0
O1114 O 0.82179 0.01684 0.58339 0.0
O1115 O 0.83272 0.98431 0.54935 0.0
O1116 O 0.82581 0.93094 0.58622 0.0
C1117 C 0.83048 0.01165 0.55684 0.0
H1118 H 0.93329 0.98691 0.5827 0.0
H1119 H 0.72439 0.97035 0.538 0.0
H1120 H 0.83971 0.95075 0.6952 0.0
H1121 H 0.77789 0.01935 0.6767 0.0
Co1122 Co 0.22281 0.92683 0.66441 0.0
C1123 C 0.24262 0.87225 0.63524 0.0
C1124 C 0.2205 0.86373 0.67567 0.0
C1125 C 0.23013 0.83765 0.6645 0.0
N1126 N 0.22746 0.88537 0.65688 0.0
N1127 N 0.24401 0.84301 0.63908 0.0
H1128 H 0.25305 0.88389 0.61748 0.0
H1129 H 0.20947 0.86679 0.69633 0.0
C1130 C 0.15977 0.90295 0.66488 0.0
O1131 O 0.16681 0.87781 0.65321 0.0
N1132 N 0.21805 0.96826 0.67253 0.0
C1133 C 0.23431 0.98655 0.68896 0.0
C1134 C 0.21943 0.0127 0.69204 0.0
C1135 C 0.19402 0.9837 0.66554 0.0
N1136 N 0.19397 0.01055 0.6775 0.0
C1137 C 0.24224 0.95507 0.61306 0.0
C1138 C 0.21014 0.92322 0.57326 0.0
C1139 C 0.2318 0.94243 0.563 0.0
C1140 C 0.24728 0.9591 0.58332 0.0
C1141 C 0.20526 0.92034 0.60338 0.0
N1142 N 0.22199 0.93545 0.62284 0.0
H1143 H 0.25566 0.96683 0.62845 0.0
H1144 H 0.18945 0.90464 0.61093 0.0
H1145 H 0.25477 0.98101 0.6993 0.0
H1146 H 0.17604 0.97498 0.65297 0.0
O1147 O 0.2646 0.9289 0.67 0.0
O1148 O 0.23227 0.91945 0.70484 0.0
O1149 O 0.17867 0.9233 0.66799 0.0
C1150 C 0.25957 0.92163 0.69703 0.0
H1151 H 0.22819 0.81651 0.67493 0.0
H1152 H 0.22583 0.03096 0.70555 0.0
H1153 H 0.19762 0.91004 0.55818 0.0
H1154 H 0.26432 0.974 0.57637 0.0
Co1155 Co 0.17919 0.54314 0.59791 0.0
C1156 C 0.24211 0.55538 0.59523 0.0
C1157 C 0.22698 0.53592 0.55562 0.0
C1158 C 0.25467 0.54681 0.55096 0.0
N1159 N 0.21909 0.54111 0.5835 0.0
N1160 N 0.26406 0.55938 0.57584 0.0
H1161 H 0.24133 0.56604 0.61621 0.0
H1162 H 0.21252 0.52755 0.53897 0.0
C1163 C 0.18216 0.4816 0.57135 0.0
O1164 O 0.21024 0.47833 0.57612 0.0
N1165 N 0.13936 0.54551 0.61254 0.0
C1166 C 0.12398 0.56929 0.62061 0.0
C1167 C 0.09772 0.56034 0.63254 0.0
C1168 C 0.12225 0.52258 0.61984 0.0
N1169 N 0.09684 0.53092 0.63222 0.0
C1170 C 0.20074 0.54516 0.65661 0.0
C1171 C 0.18944 0.48764 0.67097 0.0
C1172 C 0.19911 0.50657 0.69281 0.0
C1173 C 0.20542 0.53554 0.68523 0.0
C1174 C 0.18544 0.498 0.6426 0.0
N1175 N 0.19072 0.52658 0.63558 0.0
H1176 H 0.20416 0.56795 0.65175 0.0
H1177 H 0.17655 0.48296 0.62708 0.0
H1178 H 0.13141 0.59162 0.61881 0.0
H1179 H 0.12835 0.50007 0.6165 0.0
O1180 O 0.18532 0.5849 0.60492 0.0
O1181 O 0.16897 0.56533 0.56396 0.0
O1182 O 0.16872 0.50434 0.58015 0.0
C1183 C 0.1772 0.58851 0.57789 0.0
H1184 H 0.26594 0.54754 0.53019 0.0
H1185 H 0.08108 0.5744 0.64167 0.0
H1186 H 0.18427 0.46508 0.67594 0.0
H1187 H 0.21253 0.55102 0.70158 0.0
Co1188 Co 0.78229 0.43444 0.83956 0.0
C1189 C 0.76488 0.37897 0.86865 0.0
C1190 C 0.78845 0.37143 0.82891 0.0
C1191 C 0.77993 0.34492 0.84018 0.0
N1192 N 0.77984 0.39277 0.84722 0.0
N1193 N 0.76513 0.34966 0.86519 0.0
H1194 H 0.75341 0.39016 0.88598 0.0
H1195 H 0.79978 0.37497 0.80847 0.0
C1196 C 0.84658 0.41497 0.83966 0.0
O1197 O 0.84111 0.38952 0.85166 0.0
N1198 N 0.78518 0.47602 0.83137 0.0
C1199 C 0.77481 0.49115 0.80827 0.0
C1200 C 0.78901 0.51773 0.80677 0.0
C1201 C 0.80523 0.49382 0.84365 0.0
N1202 N 0.80812 0.51927 0.82906 0.0
C1203 C 0.76002 0.4602 0.89106 0.0
C1204 C 0.79353 0.42944 0.93067 0.0
C1205 C 0.76991 0.44606 0.94094 0.0
C1206 C 0.75375 0.46239 0.9208 0.0
C1207 C 0.7995 0.42838 0.90066 0.0
N1208 N 0.78202 0.4427 0.88122 0.0
H1209 H 0.74614 0.47146 0.87566 0.0
H1210 H 0.81675 0.41437 0.8931 0.0
H1211 H 0.75967 0.48289 0.79223 0.0
H1212 H 0.81945 0.48711 0.86129 0.0
O1213 O 0.74049 0.43423 0.83336 0.0
O1214 O 0.77366 0.42647 0.79899 0.0
O1215 O 0.82643 0.43399 0.83647 0.0
C1216 C 0.74618 0.42732 0.80642 0.0
H1217 H 0.78321 0.32387 0.83002 0.0
H1218 H 0.78665 0.53394 0.78971 0.0
H1219 H 0.80673 0.41673 0.94561 0.0
H1220 H 0.73532 0.47545 0.92778 0.0
Co1221 Co 0.6838 0.97244 0.41754 0.0
C1222 C 0.62821 0.9891 0.38846 0.0
C1223 C 0.62077 0.96895 0.43012 0.0
C1224 C 0.5943 0.97762 0.41889 0.0
N1225 N 0.64202 0.97554 0.41076 0.0
N1226 N 0.59899 0.99036 0.39273 0.0
H1227 H 0.6393 0.99863 0.3699 0.0
H1228 H 0.62435 0.95898 0.45123 0.0
C1229 C 0.66151 0.90922 0.41774 0.0
O1230 O 0.63667 0.916 0.40521 0.0
N1231 N 0.72575 0.9698 0.42436 0.0
C1232 C 0.74624 0.99026 0.41863 0.0
C1233 C 0.77357 0.9776 0.42031 0.0
C1234 C 0.7411 0.9453 0.43033 0.0
N1235 N 0.77018 0.94931 0.42765 0.0
C1236 C 0.70116 0.99763 0.36356 0.0
C1237 C 0.6893 0.95092 0.32757 0.0
C1238 C 0.69895 0.97724 0.31507 0.0
C1239 C 0.70515 1.00061 0.33363 0.0
C1240 C 0.68569 0.94877 0.35792 0.0
N1241 N 0.69124 0.97215 0.37556 0.0
H1242 H 0.70541 0.01642 0.37694 0.0
H1243 H 0.67796 0.92846 0.36675 0.0
H1244 H 0.74177 0.01251 0.4122 0.0
H1245 H 0.73142 0.92433 0.43482 0.0
O1246 O 0.68432 0.01419 0.42393 0.0
O1247 O 0.67729 0.98122 0.45848 0.0
O1248 O 0.68167 0.92828 0.421 0.0
C1249 C 0.67853 0.00865 0.45112 0.0
H1250 H 0.57338 0.97595 0.42981 0.0
H1251 H 0.79421 0.98808 0.41544 0.0
H1252 H 0.68439 0.9322 0.31404 0.0
H1253 H 0.71204 0.02158 0.32509 0.0
Co1254 Co 0.22195 0.07436 0.84458 0.0
C1255 C 0.24016 0.12919 0.87404 0.0
C1256 C 0.21502 0.13758 0.83551 0.0
C1257 C 0.22427 0.16383 0.84668 0.0
N1258 N 0.22419 0.11586 0.85313 0.0
N1259 N 0.24011 0.15857 0.87091 0.0
H1260 H 0.25232 0.11757 0.89062 0.0
H1261 H 0.20308 0.13446 0.8154 0.0
C1262 C 0.15729 0.09325 0.84404 0.0
O1263 O 0.16188 0.11828 0.85711 0.0
N1264 N 0.21927 0.03295 0.83548 0.0
C1265 C 0.2308 0.0182 0.81273 0.0
C1266 C 0.21718 0.99136 0.81069 0.0
C1267 C 0.19908 0.01468 0.84701 0.0
N1268 N 0.19725 0.98926 0.83228 0.0
C1269 C 0.24329 0.04665 0.89543 0.0
C1270 C 0.21093 0.0776 0.93581 0.0
C1271 C 0.23397 0.0599 0.94563 0.0
C1272 C 0.24952 0.04354 0.92507 0.0
C1273 C 0.2049 0.07954 0.90584 0.0
N1274 N 0.2218 0.06503 0.88605 0.0
H1275 H 0.25687 0.03541 0.87976 0.0
H1276 H 0.18814 0.09432 0.89858 0.0
H1277 H 0.24659 0.02679 0.7974 0.0
H1278 H 0.18425 0.02089 0.86435 0.0
O1279 O 0.26383 0.07485 0.83879 0.0
O1280 O 0.23105 0.08343 0.8043 0.0
O1281 O 0.17788 0.0747 0.84091 0.0
C1282 C 0.25844 0.0825 0.81196 0.0
H1283 H 0.22089 0.18505 0.83682 0.0
H1284 H 0.2207 0.97522 0.79383 0.0
H1285 H 0.19826 0.09044 0.95107 0.0
H1286 H 0.26755 0.02974 0.93166 0.0
Co1287 Co 0.32531 0.53377 0.41221 0.0
C1288 C 0.38062 0.51436 0.38395 0.0
C1289 C 0.3884 0.53761 0.42375 0.0
C1290 C 0.41476 0.52808 0.413 0.0
N1291 N 0.36703 0.52984 0.4051 0.0
N1292 N 0.40989 0.51347 0.38796 0.0
H1293 H 0.36929 0.50335 0.36644 0.0
H1294 H 0.38497 0.54903 0.44411 0.0
C1295 C 0.34725 0.59726 0.41289 0.0
O1296 O 0.37256 0.59106 0.401 0.0
N1297 N 0.2837 0.53806 0.41967 0.0
C1298 C 0.26674 0.52567 0.4404 0.0
C1299 C 0.23991 0.53951 0.44055 0.0
C1300 C 0.26687 0.559 0.4075 0.0
N1301 N 0.2401 0.56048 0.41981 0.0
C1302 C 0.29868 0.51314 0.36071 0.0
C1303 C 0.33036 0.54586 0.32102 0.0
C1304 C 0.31203 0.52354 0.31074 0.0
C1305 C 0.29543 0.50772 0.33099 0.0
C1306 C 0.33249 0.55105 0.3511 0.0
N1307 N 0.31747 0.53406 0.37052 0.0
H1308 H 0.28696 0.49956 0.3761 0.0
H1309 H 0.34756 0.56738 0.35871 0.0
H1310 H 0.27357 0.50875 0.45537 0.0
H1311 H 0.27482 0.57416 0.39117 0.0
O1312 O 0.32392 0.49197 0.41826 0.0
O1313 O 0.33233 0.52464 0.45284 0.0
O1314 O 0.32738 0.57782 0.41554 0.0
C1315 C 0.33072 0.49727 0.44531 0.0
H1316 H 0.43576 0.53059 0.42351 0.0
H1317 H 0.22203 0.53507 0.45539 0.0
H1318 H 0.34344 0.55868 0.30599 0.0
H1319 H 0.28118 0.49018 0.32404 0.0
Co1320 Co 0.66582 0.78441 0.57557 0.0
C1321 C 0.63588 0.76658 0.63042 0.0
C1322 C 0.67522 0.79054 0.63878 0.0
C1323 C 0.66367 0.78159 0.66504 0.0
N1324 N 0.65735 0.78192 0.61708 0.0
N1325 N 0.63892 0.76652 0.65977 0.0
H1326 H 0.61891 0.75497 0.61884 0.0
H1327 H 0.69563 0.80205 0.63566 0.0
C1328 C 0.66506 0.84862 0.59493 0.0
O1329 O 0.65259 0.84313 0.62014 0.0
N1330 N 0.67474 0.78724 0.53419 0.0
C1331 C 0.6969 0.77535 0.51882 0.0
C1332 C 0.69816 0.78864 0.49174 0.0
C1333 C 0.66281 0.80727 0.51615 0.0
N1334 N 0.67668 0.8087 0.4902 0.0
C1335 C 0.61532 0.76238 0.54805 0.0
C1336 C 0.57443 0.79505 0.57799 0.0
C1337 C 0.56495 0.77186 0.56038 0.0
C1338 C 0.58576 0.75614 0.54453 0.0
C1339 C 0.60437 0.80108 0.58035 0.0
N1340 N 0.62439 0.78403 0.56634 0.0
H1341 H 0.63119 0.74877 0.53713 0.0
H1342 H 0.61137 0.81801 0.59501 0.0
H1343 H 0.71223 0.75943 0.52702 0.0
H1344 H 0.64571 0.82217 0.5228 0.0
O1345 O 0.67197 0.74272 0.5759 0.0
O1346 O 0.70625 0.77585 0.58432 0.0
O1347 O 0.66875 0.8285 0.57602 0.0
C1348 C 0.69878 0.7484 0.58333 0.0
H1349 H 0.67351 0.78472 0.68626 0.0
H1350 H 0.71441 0.78473 0.47501 0.0
H1351 H 0.55892 0.80781 0.59045 0.0
H1352 H 0.57937 0.73799 0.53083 0.0
Co1353 Co 0.66577 0.22268 0.92524 0.0
C1354 C 0.63693 0.24296 0.8706 0.0
C1355 C 0.67726 0.22073 0.86218 0.0
C1356 C 0.66624 0.23056 0.83609 0.0
N1357 N 0.65844 0.22763 0.88376 0.0
N1358 N 0.64087 0.24451 0.84139 0.0
H1359 H 0.61918 0.25337 0.88219 0.0
H1360 H 0.69785 0.20959 0.86528 0.0
C1361 C 0.66593 0.15978 0.90126 0.0
O1362 O 0.65452 0.16697 0.87603 0.0
N1363 N 0.67365 0.21761 0.96667 0.0
C1364 C 0.69029 0.2335 0.98509 0.0
C1365 C 0.69293 0.21845 0.01123 0.0
C1366 C 0.66609 0.19364 0.98201 0.0
N1367 N 0.67789 0.19327 0.00894 0.0
C1368 C 0.61446 0.24224 0.95319 0.0
C1369 C 0.57446 0.21084 0.92086 0.0
C1370 C 0.56434 0.23257 0.93996 0.0
C1371 C 0.58475 0.24767 0.95688 0.0
C1372 C 0.60456 0.20558 0.91831 0.0
N1373 N 0.62412 0.222 0.93362 0.0
H1374 H 0.62994 0.25541 0.96512 0.0
H1375 H 0.61205 0.18977 0.90265 0.0
H1376 H 0.70108 0.25379 0.97965 0.0
H1377 H 0.65326 0.17591 0.97317 0.0
O1378 O 0.67154 0.26439 0.92749 0.0
O1379 O 0.70633 0.2321 0.91807 0.0
O1380 O 0.66906 0.17859 0.92162 0.0
C1381 C 0.69859 0.25938 0.92031 0.0
H1382 H 0.67672 0.22868 0.81499 0.0
H1383 H 0.70648 0.2245 0.02958 0.0
H1384 H 0.55931 0.19858 0.90751 0.0
H1385 H 0.57793 0.26474 0.97172 0.0
Co1386 Co 0.47381 0.09004 0.32754 0.0
C1387 C 0.49334 0.11963 0.38182 0.0
C1388 C 0.46776 0.08144 0.3909 0.0
C1389 C 0.47773 0.09254 0.41688 0.0
N1390 N 0.47674 0.09891 0.36892 0.0
N1391 N 0.49386 0.11654 0.4112 0.0
H1392 H 0.50556 0.13602 0.36991 0.0
H1393 H 0.45548 0.06146 0.38811 0.0
C1394 C 0.40934 0.09085 0.34731 0.0
O1395 O 0.41477 0.10332 0.37245 0.0
N1396 N 0.47055 0.08062 0.28626 0.0
C1397 C 0.48158 0.05755 0.27161 0.0
C1398 C 0.46765 0.05539 0.24498 0.0
C1399 C 0.45036 0.09222 0.26813 0.0
N1400 N 0.44805 0.07722 0.24291 0.0
C1401 C 0.49539 0.14072 0.29928 0.0
C1402 C 0.4633 0.1813 0.33022 0.0
C1403 C 0.48626 0.19103 0.31229 0.0
C1404 C 0.50168 0.17036 0.29593 0.0
C1405 C 0.45726 0.15136 0.33245 0.0
N1406 N 0.474 0.13145 0.31792 0.0
H1407 H 0.50883 0.12495 0.28802 0.0
H1408 H 0.44059 0.14422 0.34744 0.0
H1409 H 0.49721 0.04211 0.28017 0.0
H1410 H 0.43587 0.10982 0.27432 0.0
O1411 O 0.51561 0.08386 0.32745 0.0
O1412 O 0.48258 0.04971 0.33685 0.0
O1413 O 0.4296 0.08701 0.32848 0.0
C1414 C 0.51005 0.05717 0.33549 0.0
H1415 H 0.47462 0.08279 0.43821 0.0
H1416 H 0.47074 0.03832 0.22898 0.0
H1417 H 0.45071 0.19664 0.34306 0.0
H1418 H 0.51965 0.17688 0.28195 0.0
Co1419 Co 0.34278 0.28369 0.9316 0.0
C1420 C 0.37264 0.26481 0.8771 0.0
C1421 C 0.33336 0.28866 0.86821 0.0
C1422 C 0.34495 0.27931 0.84215 0.0
N1423 N 0.3512 0.28042 0.89011 0.0
N1424 N 0.36966 0.26431 0.84775 0.0
H1425 H 0.38959 0.25337 0.88891 0.0
H1426 H 0.31297 0.30021 0.87106 0.0
C1427 C 0.34261 0.34772 0.91095 0.0
O1428 O 0.35465 0.3421 0.88559 0.0
N1429 N 0.33391 0.2873 0.97299 0.0
C1430 C 0.31101 0.27643 0.98815 0.0
C1431 C 0.30915 0.29071 0.0146 0.0
C1432 C 0.3457 0.30776 0.99064 0.0
N1433 N 0.33098 0.31041 0.01605 0.0
C1434 C 0.39393 0.26224 0.9586 0.0
C1435 C 0.43383 0.29491 0.9271 0.0
C1436 C 0.4439 0.27153 0.94421 0.0
C1437 C 0.42362 0.25586 0.96095 0.0
C1438 C 0.40386 0.301 0.92585 0.0
N1439 N 0.38428 0.28386 0.9405 0.0
H1440 H 0.37839 0.24863 0.97009 0.0
H1441 H 0.39638 0.31793 0.91138 0.0
H1442 H 0.29544 0.2607 0.98004 0.0
H1443 H 0.36318 0.32224 0.98394 0.0
O1444 O 0.33672 0.2419 0.93218 0.0
O1445 O 0.30235 0.27471 0.92314 0.0
O1446 O 0.33956 0.32777 0.93024 0.0
C1447 C 0.30987 0.24731 0.92466 0.0
H1448 H 0.33519 0.28216 0.82084 0.0
H1449 H 0.2922 0.28783 0.03087 0.0
H1450 H 0.44889 0.30775 0.91408 0.0
H1451 H 0.43042 0.23761 0.97438 0.0
Co1452 Co 0.03482 0.91244 0.82511 0.0
C1453 C 0.01501 0.88401 0.8801 0.0
C1454 C 0.03852 0.92366 0.88823 0.0
C1455 C 0.02855 0.91286 0.91444 0.0
N1456 N 0.03087 0.90512 0.86675 0.0
N1457 N 0.01375 0.88793 0.90932 0.0
H1458 H 0.00391 0.86666 0.8686 0.0
H1459 H 0.05005 0.94404 0.88496 0.0
C1460 C 0.09834 0.91364 0.84695 0.0
O1461 O 0.09213 0.90158 0.87219 0.0
N1462 N 0.03905 0.92008 0.78354 0.0
C1463 C 0.02641 0.94066 0.76666 0.0
C1464 C 0.04004 0.94083 0.73971 0.0
C1465 C 0.05993 0.90804 0.76656 0.0
N1466 N 0.06113 0.92026 0.73973 0.0
C1467 C 0.01436 0.86075 0.79845 0.0
C1468 C 0.04692 0.82128 0.83039 0.0
C1469 C 0.02461 0.81083 0.81216 0.0
C1470 C 0.0089 0.83096 0.7954 0.0
C1471 C 0.05219 0.8514 0.83228 0.0
N1472 N 0.03525 0.87072 0.81717 0.0
H1473 H 1.0008 0.87606 0.78668 0.0
H1474 H 0.06849 0.85913 0.84731 0.0
H1475 H 0.00941 0.95545 0.7736 0.0
H1476 H 0.0752 0.89179 0.77438 0.0
O1477 O 0.99294 0.91829 0.82392 0.0
O1478 O 0.02556 0.953 0.83235 0.0
O1479 O 0.07894 0.91611 0.82706 0.0
C1480 C 0.99818 0.94531 0.83092 0.0
H1481 H 0.03082 0.9233 0.93548 0.0
H1482 H 0.03532 0.95553 0.72181 0.0
H1483 H 0.05965 0.80636 0.84359 0.0
H1484 H 0.99138 0.82388 0.78121 0.0
Co1485 Co 0.84533 0.21856 0.07554 0.0
C1486 C 0.87545 0.23681 0.12997 0.0
C1487 C 0.8369 0.21175 0.13897 0.0
C1488 C 0.84835 0.22124 0.16501 0.0
N1489 N 0.85435 0.22071 0.11698 0.0
N1490 N 0.87259 0.23705 0.15937 0.0
H1491 H 0.89193 0.24891 0.11807 0.0
H1492 H 0.81666 0.19989 0.13617 0.0
C1493 C 0.84387 0.15379 0.0942 0.0
O1494 O 0.85647 0.15801 0.11953 0.0
N1495 N 0.83589 0.21612 0.0342 0.0
C1496 C 0.8132 0.2279 0.01954 0.0
C1497 C 0.81119 0.21475 0.99252 0.0
C1498 C 0.8474 0.19623 0.01571 0.0
N1499 N 0.83274 0.19486 0.99021 0.0
C1500 C 0.8962 0.23964 0.04756 0.0
C1501 C 0.93635 0.20666 0.07819 0.0
C1502 C 0.94633 0.22972 0.06055 0.0
C1503 C 0.9259 0.24558 0.04431 0.0
C1504 C 0.90631 0.20093 0.08026 0.0
N1505 N 0.88667 0.21816 0.06593 0.0
H1506 H 0.88061 0.25345 0.03647 0.0
H1507 H 0.89886 0.18416 0.09503 0.0
H1508 H 0.79794 0.24361 0.02826 0.0
H1509 H 0.86476 0.18136 0.02173 0.0
O1510 O 0.83982 0.2604 0.07607 0.0
O1511 O 0.80517 0.22768 0.08487 0.0
O1512 O 0.84138 0.17456 0.07573 0.0
C1513 C 0.81298 0.25503 0.08385 0.0
H1514 H 0.83865 0.21808 0.18634 0.0
H1515 H 0.79441 0.21861 0.97634 0.0
H1516 H 0.95153 0.1938 0.09095 0.0
H1517 H 0.93267 0.26365 0.03057 0.0
Co1518 Co 0.47251 0.91688 0.18319 0.0
C1519 C 0.48872 0.8861 0.12851 0.0
C1520 C 0.46951 0.9279 0.1198 0.0
C1521 C 0.47787 0.91563 0.0937 0.0
N1522 N 0.47572 0.90911 0.14163 0.0
N1523 N 0.49 0.88938 0.09922 0.0
H1524 H 0.49776 0.86765 0.14009 0.0
H1525 H 0.45991 0.94926 0.12269 0.0
C1526 C 0.40928 0.91553 0.16122 0.0
O1527 O 0.41629 0.90347 0.13624 0.0
N1528 N 0.4698 0.92466 0.22488 0.0
C1529 C 0.49001 0.91888 0.24552 0.0
C1530 C 0.47725 0.92151 0.27272 0.0
C1531 C 0.44541 0.93167 0.23996 0.0
N1532 N 0.44917 0.9295 0.26908 0.0
C1533 C 0.49907 0.86354 0.20106 0.0
C1534 C 0.45268 0.82656 0.19051 0.0
C1535 C 0.47936 0.81457 0.19968 0.0
C1536 C 0.50256 0.83364 0.20528 0.0
C1537 C 0.45001 0.85684 0.18671 0.0
N1538 N 0.47322 0.87499 0.19158 0.0
H1539 H 0.51777 0.87735 0.2046 0.0
H1540 H 0.42944 0.8652 0.17923 0.0
H1541 H 0.5121 0.9118 0.24128 0.0
H1542 H 0.42463 0.93652 0.23007 0.0
O1543 O 0.51412 0.92475 0.18334 0.0
O1544 O 0.47999 0.95795 0.17575 0.0
O1545 O 0.42827 0.91895 0.18136 0.0
C1546 C 0.50765 0.95168 0.17717 0.0
H1547 H 0.47631 0.92583 0.07243 0.0
H1548 H 0.48747 0.91677 0.29348 0.0
H1549 H 0.43407 0.81267 0.18608 0.0
H1550 H 0.52377 0.82548 0.21181 0.0
Co1551 Co 0.54833 0.59891 0.17552 0.0
C1552 C 0.56214 0.59376 0.23793 0.0
C1553 C 0.5448 0.55374 0.22125 0.0
C1554 C 0.55608 0.54857 0.24866 0.0
N1555 N 0.54836 0.58221 0.21456 0.0
N1556 N 0.56731 0.57374 0.25904 0.0
H1557 H 0.57139 0.61545 0.23805 0.0
H1558 H 0.53698 0.53732 0.20624 0.0
C1559 C 0.4881 0.56969 0.17967 0.0
O1560 O 0.48597 0.57343 0.208 0.0
N1561 N 0.54879 0.61596 0.1366 0.0
C1562 C 0.57179 0.6262 0.1212 0.0
C1563 C 0.56173 0.63878 0.09575 0.0
C1564 C 0.52514 0.6227 0.12032 0.0
N1565 N 0.53235 0.63671 0.09537 0.0
C1566 C 0.54896 0.65658 0.19945 0.0
C1567 C 0.49068 0.66932 0.19067 0.0
C1568 C 0.50937 0.69171 0.19976 0.0
C1569 C 0.53877 0.68483 0.20482 0.0
C1570 C 0.50171 0.64134 0.18569 0.0
N1571 N 0.53068 0.63515 0.18969 0.0
H1572 H 0.57201 0.65246 0.20189 0.0
H1573 H 0.48685 0.62555 0.17692 0.0
H1574 H 0.59434 0.62539 0.12807 0.0
H1575 H 0.50295 0.61773 0.12669 0.0
O1576 O 0.5898 0.60752 0.18086 0.0
O1577 O 0.57182 0.56681 0.16213 0.0
O1578 O 0.50987 0.57994 0.16549 0.0
C1579 C 0.59455 0.58161 0.17019 0.0
H1580 H 0.55776 0.52744 0.25913 0.0
H1581 H 0.57497 0.64945 0.0793 0.0
H1582 H 0.46778 0.67356 0.18656 0.0
H1583 H 0.5542 0.7015 0.21136 0.0
C1584 C 0.10868 0.22356 0.17519 0.0
C1585 C 0.1227 0.24987 0.18239 0.0
H1586 H 0.08534 0.1861 0.19075 0.0
C1587 C 0.12118 0.25988 0.21135 0.0
H1588 H 0.10954 0.21513 0.15317 0.0
C1589 C 0.10729 0.24327 0.23291 0.0
C1590 C 0.09467 0.21622 0.22599 0.0
H1591 H 0.13129 0.28033 0.21747 0.0
H1592 H 0.10741 0.25113 0.25518 0.0
C1593 C 0.09488 0.20687 0.19678 0.0
C1594 C 0.52156 0.65072 0.04422 0.0
C1595 C 0.51262 0.64793 0.07348 0.0
H1596 H 0.50938 0.66178 1.00042 0.0
C1597 C 0.48393 0.65595 0.08098 0.0
H1598 H 0.54343 0.64462 0.03768 0.0
C1599 C 0.46445 0.66582 0.05967 0.0
C1600 C 0.47315 0.66783 0.03032 0.0
H1601 H 0.47647 0.65465 0.10337 0.0
H1602 H 0.44238 0.67135 0.06616 0.0
C1603 C 0.50201 0.66048 0.02286 0.0
C1604 C 0.91671 0.29684 0.19429 0.0
C1605 C 0.91732 0.28763 0.2236 0.0
H1606 H 0.90195 0.28801 0.15083 0.0
C1607 C 0.90521 0.26036 0.23081 0.0
H1608 H 0.92578 0.31777 0.18801 0.0
C1609 C 0.89147 0.24339 0.20952 0.0
C1610 C 0.8896 0.25316 0.18046 0.0
H1611 H 0.90536 0.25257 0.25315 0.0
H1612 H 0.88178 0.22279 0.21595 0.0
C1613 C 0.90308 0.27974 0.17293 0.0
C1614 C 0.50976 0.85403 0.02809 0.0
C1615 C 0.53543 0.83896 0.0355 0.0
H1616 H 0.47511 0.88181 0.04268 0.0
C1617 C 0.54436 0.83852 0.06484 0.0
H1618 H 0.50227 0.85484 0.00569 0.0
C1619 C 0.52875 0.85402 0.08604 0.0
C1620 C 0.50405 0.87052 0.07828 0.0
H1621 H 0.5641 0.8272 0.07124 0.0
H1622 H 0.5369 0.85428 0.10819 0.0
C1623 C 0.49433 0.86972 0.04922 0.0
C1624 C 0.09405 0.80082 0.30729 0.0
C1625 C 0.09442 0.79158 0.27805 0.0
H1626 H 0.10882 0.79291 0.35095 0.0
C1627 C 0.10809 0.76507 0.27107 0.0
H1628 H 0.0837 0.82118 0.31335 0.0
C1629 C 0.12257 0.74902 0.29257 0.0
C1630 C 0.12355 0.75901 0.32153 0.0
H1631 H 0.1087 0.75731 0.24877 0.0
H1632 H 0.1336 0.72908 0.2864 0.0
C1633 C 0.10838 0.78462 0.32886 0.0
C1634 C 0.99862 0.63541 0.95959 0.0
C1635 C 0.00892 0.63343 0.93074 0.0
H1636 H 0.00686 0.64988 1.00319 0.0
C1637 C 0.03535 0.64731 0.92344 0.0
H1638 H 0.97809 0.6254 0.96578 0.0
C1639 C 0.05187 0.66143 0.94492 0.0
C1640 C 0.04218 0.66214 0.97406 0.0
H1641 H 0.04395 0.6461 0.90147 0.0
H1642 H 0.07275 0.67081 0.93888 0.0
C1643 C 0.015 0.64966 0.98098 0.0
C1644 C 0.9002 0.72344 0.33406 0.0
C1645 C 0.88712 0.75034 0.32713 0.0
H1646 H 0.92254 0.68555 0.31819 0.0
C1647 C 0.88929 0.76077 0.2983 0.0
H1648 H 0.89884 0.71465 0.35596 0.0
C1649 C 0.90292 0.74414 0.27666 0.0
C1650 C 0.91467 0.7166 0.28329 0.0
H1651 H 0.87997 0.78164 0.29233 0.0
H1652 H 0.90332 0.75244 0.25451 0.0
C1653 C 0.91375 0.70672 0.31236 0.0
C1654 C 0.97161 0.85683 0.92325 0.0
C1655 C 0.99784 0.87096 0.93064 0.0
H1656 H 0.93394 0.83357 0.93867 0.0
C1657 C 0.0075 0.86974 0.95972 0.0
H1658 H 0.9635 0.85749 0.90109 0.0
C1659 C 0.9907 0.85593 0.98119 0.0
C1660 C 0.96373 0.84316 0.97412 0.0
H1661 H 0.02785 0.87999 0.96598 0.0
H1662 H 0.99838 0.85626 0.00353 0.0
C1663 C 0.95465 0.84318 0.94481 0.0
C1664 C 0.19537 0.091 0.20967 0.0
C1665 C 0.22446 0.09027 0.21946 0.0
H1666 H 0.15179 0.10611 0.21746 0.0
C1667 C 0.23112 0.10232 0.24681 0.0
H1668 H 0.18953 0.08194 0.18866 0.0
C1669 C 0.20949 0.11624 0.26325 0.0
C1670 C 0.1807 0.11834 0.2528 0.0
H1671 H 0.25328 0.10205 0.25503 0.0
H1672 H 0.21546 0.12595 0.2839 0.0
C1673 C 0.17369 0.10481 0.22621 0.0
C1674 C 0.36994 0.54915 0.99474 0.0
C1675 C 0.37172 0.57792 0.00522 0.0
H1676 H 0.35494 0.50554 1.00234 0.0
C1677 C 0.3567 0.58514 0.03099 0.0
H1678 H 0.38078 0.54305 0.97465 0.0
C1679 C 0.34175 0.56365 0.04683 0.0
C1680 C 0.34135 0.53456 0.03711 0.0
H1681 H 0.3577 0.60704 0.03972 0.0
H1682 H 0.33159 0.5696 0.06734 0.0
C1683 C 0.35488 0.52773 0.01047 0.0
C1684 C 0.81446 0.41195 0.20589 0.0
C1685 C 0.78536 0.41236 0.21577 0.0
H1686 H 0.85816 0.39715 0.21362 0.0
C1687 C 0.77879 0.4002 0.24317 0.0
H1688 H 0.82022 0.42111 0.18484 0.0
C1689 C 0.80049 0.38638 0.25953 0.0
C1690 C 0.82927 0.38454 0.24897 0.0
H1691 H 0.75662 0.40021 0.25145 0.0
H1692 H 0.79459 0.37648 0.28019 0.0
C1693 C 0.83624 0.39827 0.2224 0.0
C1694 C 0.66165 0.91632 0.024 0.0
C1695 C 0.63147 0.92043 0.01994 0.0
H1696 H 0.70122 0.93275 0.04307 0.0
C1697 C 0.61774 0.9439 0.03399 0.0
H1698 H 0.6728 0.8984 0.01339 0.0
C1699 C 0.63379 0.96331 0.05097 0.0
C1700 C 0.66415 0.95995 0.05432 0.0
H1701 H 0.59445 0.9473 0.0319 0.0
H1702 H 0.6223 0.9813 0.0611 0.0
C1703 C 0.6779 0.93599 0.04095 0.0
C1704 C 0.23038 0.90481 0.26107 0.0
C1705 C 0.22315 0.91654 0.28843 0.0
H1706 H 0.21556 0.88156 0.22342 0.0
C1707 C 0.19385 0.9155 0.29773 0.0
H1708 H 0.25269 0.90531 0.2532 0.0
C1709 C 0.17253 0.90182 0.28061 0.0
C1710 C 0.1801 0.88869 0.25395 0.0
H1711 H 0.18756 0.92431 0.31872 0.0
H1712 H 0.15043 0.90034 0.28891 0.0
C1713 C 0.20913 0.89099 0.24409 0.0
C1714 C 0.16438 0.55994 0.95842 0.0
C1715 C 0.16459 0.53087 0.96837 0.0
H1716 H 0.15006 0.6038 0.96611 0.0
C1717 C 0.15235 0.52445 0.99576 0.0
H1718 H 0.17361 0.56559 0.93737 0.0
C1719 C 0.1388 0.54631 0.01213 0.0
C1720 C 0.13728 0.57512 1.00158 0.0
H1721 H 0.15223 0.50231 0.00411 0.0
H1722 H 0.12891 0.54054 0.03283 0.0
C1723 C 0.15095 0.58188 0.97492 0.0
C1724 C 0.79851 0.61821 0.24817 0.0
C1725 C 0.82741 0.62024 0.25827 0.0
H1726 H 0.75482 0.60401 0.25687 0.0
C1727 C 0.83471 0.60672 0.28484 0.0
H1728 H 0.79234 0.62797 0.22755 0.0
C1729 C 0.81317 0.59293 0.3017 0.0
C1730 C 0.78399 0.5922 0.2922 0.0
H1731 H 0.85673 0.60801 0.29328 0.0
H1732 H 0.8192 0.58384 0.32268 0.0
C1733 C 0.77706 0.60428 0.26488 0.0
C1734 C 0.85349 0.92283 0.97267 0.0
C1735 C 0.86684 0.92996 0.99933 0.0
H1736 H 0.83135 0.93863 0.9346 0.0
C1737 C 0.865 0.95886 0.00942 0.0
H1738 H 0.85461 0.90082 0.96423 0.0
C1739 C 0.8516 0.98049 0.99256 0.0
C1740 C 0.83982 0.97374 0.96511 0.0
H1741 H 0.87462 0.96492 0.0301 0.0
H1742 H 0.8516 1.00273 1.00054 0.0
C1743 C 0.8402 0.94454 0.95568 0.0
C1744 C 0.22626 0.17204 0.10982 0.0
C1745 C 0.25214 0.17918 0.12463 0.0
H1746 H 0.18948 0.18773 0.08566 0.0
C1747 C 0.26216 0.2082 0.12375 0.0
H1748 H 0.21784 0.14997 0.11018 0.0
C1749 C 0.24595 0.22986 0.10962 0.0
C1750 C 0.2193 0.22298 0.09618 0.0
H1751 H 0.28229 0.21428 0.1345 0.0
H1752 H 0.25377 0.25218 0.11023 0.0
C1753 C 0.20996 0.19373 0.09582 0.0
C1754 C 0.26267 0.80002 0.38613 0.0
C1755 C 0.25187 0.82872 0.38459 0.0
H1756 H 0.25493 0.75586 0.3995 0.0
C1757 C 0.22521 0.83513 0.39844 0.0
H1758 H 0.2834 0.79446 0.37623 0.0
C1759 C 0.20897 0.81301 0.41198 0.0
C1760 C 0.21907 0.78403 0.41207 0.0
H1761 H 0.21616 0.85692 0.39761 0.0
H1762 H 0.18789 0.81843 0.42125 0.0
C1763 C 0.24648 0.77793 0.39974 0.0
C1764 C 0.08478 0.5284 0.85702 0.0
C1765 C 0.07739 0.50239 0.87162 0.0
H1766 H 0.06937 0.5657 0.83331 0.0
C1767 C 0.04829 0.4926 0.87055 0.0
H1768 H 0.10694 0.53663 0.85755 0.0
C1769 C 0.02678 0.50915 0.85659 0.0
C1770 C 0.03384 0.536 0.8435 0.0
H1771 H 0.04201 0.47242 0.88117 0.0
H1772 H 0.0044 0.50147 0.85715 0.0
C1773 C 0.06321 0.54509 0.8432 0.0
C1774 C 0.78435 0.67255 0.40063 0.0
C1775 C 0.75771 0.6796 0.38712 0.0
H1776 H 0.82214 0.68832 0.42325 0.0
C1777 C 0.74761 0.70855 0.38875 0.0
H1778 H 0.79287 0.65055 0.39967 0.0
C1779 C 0.76431 0.73018 0.40234 0.0
C1780 C 0.79162 0.72343 0.41454 0.0
H1781 H 0.72696 0.71461 0.37902 0.0
H1782 H 0.75625 0.7524 0.40235 0.0
C1783 C 0.80117 0.69425 0.41409 0.0
C1784 C 0.42451 0.47204 0.35643 0.0
C1785 C 0.43151 0.49813 0.37093 0.0
H1786 H 0.44051 0.43491 0.33295 0.0
C1787 C 0.46054 0.50816 0.37005 0.0
H1788 H 0.40241 0.46365 0.35679 0.0
C1789 C 0.48233 0.49183 0.35628 0.0
C1790 C 0.47564 0.46496 0.34319 0.0
H1791 H 0.46653 0.52843 0.38057 0.0
H1792 H 0.50462 0.49974 0.35694 0.0
C1793 C 0.44638 0.45556 0.34281 0.0
C1794 C 0.30166 0.80769 0.59281 0.0
C1795 C 0.29242 0.7784 0.59304 0.0
H1796 H 0.2934 0.85136 0.60733 0.0
C1797 C 0.26565 0.77133 0.6063 0.0
H1798 H 0.32221 0.81382 0.58277 0.0
C1799 C 0.2493 0.79279 0.62046 0.0
C1800 C 0.25922 0.82182 0.62153 0.0
H1801 H 0.25788 0.749 0.60681 0.0
H1802 H 0.22914 0.78656 0.63118 0.0
C1803 C 0.28514 0.82923 0.60681 0.0
C1804 C 0.04502 0.52135 0.64494 0.0
C1805 C 0.07427 0.51207 0.64377 0.0
H1806 H 1.00065 0.5101 0.65501 0.0
C1807 C 0.0811 0.4838 0.6537 0.0
H1808 H 0.03898 0.5429 0.63736 0.0
C1809 C 0.0592 0.46503 0.6638 0.0
C1810 C 0.02989 0.47403 0.66422 0.0
H1811 H 0.10344 0.4761 0.65373 0.0
H1812 H 0.06523 0.44328 0.67085 0.0
C1813 C 0.02305 0.50251 0.65498 0.0
C1814 C 0.93741 0.04323 0.67982 0.0
C1815 C 0.96126 0.05711 0.66619 0.0
H1816 H 0.90048 0.01465 0.67466 0.0
C1817 C 0.96499 0.0536 0.6359 0.0
H1818 H 0.93389 0.04542 0.70308 0.0
C1819 C 0.94612 0.03597 0.61984 0.0
C1820 C 0.92281 0.02139 0.63347 0.0
H1821 H 0.9829 0.06408 0.62448 0.0
H1822 H 0.94984 0.03378 0.59662 0.0
C1823 C 0.91828 0.02562 0.66357 0.0
C1824 C 0.59248 0.7089 0.69536 0.0
C1825 C 0.59239 0.71819 0.72458 0.0
H1826 H 0.60746 0.71691 0.6518 0.0
C1827 C 0.60565 0.74491 0.7316 0.0
H1828 H 0.58247 0.68837 0.68925 0.0
C1829 C 0.62004 0.76122 0.71011 0.0
C1830 C 0.62139 0.75125 0.68112 0.0
H1831 H 0.60592 0.7527 0.75389 0.0
H1832 H 0.63063 0.7814 0.71631 0.0
C1833 C 0.60675 0.7253 0.67383 0.0
C1834 C 1.00307 0.15897 0.52456 0.0
C1835 C 0.97474 0.16833 0.5318 0.0
H1836 H 0.0435 0.1411 0.53987 0.0
C1837 C 0.96616 0.16815 0.56124 0.0
H1838 H 0.01034 0.15881 0.50205 0.0
C1839 C 0.98515 0.15804 0.58287 0.0
C1840 C 0.01321 0.14782 0.57563 0.0
H1841 H 0.94453 0.17532 0.56759 0.0
H1842 H 0.97774 0.15819 0.60531 0.0
C1843 C 0.02212 0.14887 0.54624 0.0
C1844 C 0.39028 0.74232 0.70845 0.0
C1845 C 0.38859 0.75231 0.67945 0.0
H1846 H 0.40393 0.75121 0.75222 0.0
C1847 C 0.40223 0.77887 0.67215 0.0
H1848 H 0.38049 0.72172 0.7147 0.0
C1849 C 0.41579 0.79576 0.69368 0.0
C1850 C 0.41618 0.78639 0.72294 0.0
H1851 H 0.40124 0.7873 0.6501 0.0
H1852 H 0.42498 0.8167 0.68757 0.0
C1853 C 0.40395 0.75912 0.72993 0.0
C1854 C 0.99255 0.36677 0.54957 0.0
C1855 C 1.00265 0.36929 0.5784 0.0
H1856 H 1.00061 0.3506 0.50654 0.0
C1857 C 0.02822 0.35432 0.58643 0.0
H1858 H 0.97266 0.3776 0.54285 0.0
C1859 C 0.04429 0.33875 0.56559 0.0
C1860 C 0.03498 0.33765 0.53638 0.0
H1861 H 0.03666 0.3559 0.60841 0.0
H1862 H 0.06468 0.32871 0.5721 0.0
C1863 C 0.00846 0.35107 0.52882 0.0
C1864 C 0.60854 0.28557 0.8276 0.0
C1865 C 0.62336 0.25978 0.82017 0.0
H1866 H 0.58428 0.3225 0.81225 0.0
C1867 C 0.62235 0.25001 0.79114 0.0
H1868 H 0.60903 0.29372 0.84974 0.0
C1869 C 0.60808 0.26635 0.7697 0.0
C1870 C 0.59466 0.29295 0.7768 0.0
H1871 H 0.63314 0.22996 0.78487 0.0
H1872 H 0.6086 0.25867 0.74737 0.0
C1873 C 0.59443 0.30207 0.80609 0.0
C1874 C 0.51742 0.14904 0.48249 0.0
C1875 C 0.54501 0.16049 0.47541 0.0
H1876 H 0.47942 0.12639 0.46749 0.0
C1877 C 0.55453 0.15931 0.44623 0.0
H1878 H 0.50935 0.14968 0.50471 0.0
C1879 C 0.5373 0.1459 0.42483 0.0
C1880 C 0.5103 0.1332 0.43225 0.0
H1881 H 0.57571 0.16792 0.44007 0.0
H1882 H 0.54569 0.14437 0.4028 0.0
C1883 C 0.50033 0.13551 0.46119 0.0
C1884 C 0.38933 0.25923 0.79779 0.0
C1885 C 0.38725 0.24892 0.82664 0.0
H1886 H 0.40368 0.25093 0.75413 0.0
C1887 C 0.40108 0.2225 0.83391 0.0
H1888 H 0.37937 0.27975 0.79163 0.0
C1889 C 0.4151 0.20592 0.81238 0.0
C1890 C 0.41579 0.21557 0.78322 0.0
H1891 H 0.39981 0.2139 0.85589 0.0
H1892 H 0.42432 0.18499 0.81838 0.0
C1893 C 0.4035 0.24281 0.77635 0.0
C1894 C 0.49184 0.35414 0.48146 0.0
C1895 C 0.46457 0.34209 0.47428 0.0
H1896 H 0.52951 0.3775 0.46649 0.0
C1897 C 0.45549 0.34262 0.44497 0.0
H1898 H 0.49954 0.35403 0.5038 0.0
C1899 C 0.47274 0.35614 0.42355 0.0
C1900 C 0.49928 0.3696 0.43106 0.0
H1901 H 0.43455 0.33356 0.43874 0.0
H1902 H 0.46461 0.35725 0.40141 0.0
C1903 C 0.50893 0.36779 0.46012 0.0
C1904 C 0.70765 0.6203 0.76221 0.0
C1905 C 0.67886 0.62196 0.75167 0.0
H1906 H 0.75165 0.60671 0.75412 0.0
C1907 C 0.67211 0.60839 0.72505 0.0
H1908 H 0.71341 0.63007 0.78289 0.0
C1909 C 0.69402 0.5949 0.70858 0.0
C1910 C 0.72307 0.59457 0.71848 0.0
H1911 H 0.65022 0.60937 0.71624 0.0
H1912 H 0.68835 0.58572 0.68758 0.0
C1913 C 0.72951 0.60671 0.74583 0.0
C1914 C 0.87093 0.04988 0.49584 0.0
C1915 C 0.87278 0.0786 0.50644 0.0
H1916 H 0.85555 0.00634 0.50309 0.0
C1917 C 0.85752 0.08581 0.53207 0.0
H1918 H 0.88195 0.04377 0.47586 0.0
C1919 C 0.84223 0.06435 0.54766 0.0
C1920 C 0.84174 0.03529 0.53783 0.0
H1921 H 0.85856 0.10768 0.54087 0.0
H1922 H 0.83189 0.07028 0.56808 0.0
C1923 C 0.85554 0.02849 0.51131 0.0
C1924 C 0.27698 0.89921 0.74362 0.0
C1925 C 0.28347 0.91196 0.71647 0.0
H1926 H 0.29291 0.87479 0.78012 0.0
C1927 C 0.31258 0.91194 0.7066 0.0
H1928 H 0.25481 0.89892 0.7519 0.0
C1929 C 0.33443 0.89799 0.72278 0.0
C1930 C 0.32754 0.88362 0.74904 0.0
H1931 H 0.31828 0.92155 0.68573 0.0
H1932 H 0.35635 0.89716 0.71396 0.0
C1933 C 0.29876 0.88515 0.75967 0.0
C1934 C 0.17849 0.43478 0.54239 0.0
C1935 C 0.1651 0.45919 0.55531 0.0
H1936 H 0.17292 0.3969 0.51533 0.0
C1937 C 0.13483 0.46304 0.55166 0.0
H1938 H 0.20174 0.43116 0.54474 0.0
C1939 C 0.11853 0.44365 0.53489 0.0
C1940 C 0.1319 0.41972 0.52128 0.0
H1941 H 0.12359 0.48139 0.56143 0.0
H1942 H 0.09532 0.44745 0.53264 0.0
C1943 C 0.162 0.41516 0.52559 0.0
C1944 C 0.69356 0.41652 0.79561 0.0
C1945 C 0.72285 0.41748 0.78633 0.0
H1946 H 0.65011 0.4016 0.78671 0.0
C1947 C 0.73003 0.40603 0.75884 0.0
H1948 H 0.68731 0.42512 0.81671 0.0
C1949 C 0.70873 0.39249 0.74172 0.0
C1950 C 0.67971 0.39018 0.75161 0.0
H1951 H 0.75236 0.4065 0.75098 0.0
H1952 H 0.7151 0.38323 0.72096 0.0
C1953 C 0.67219 0.40309 0.77838 0.0
C1954 C 0.64411 0.04711 0.51556 0.0
C1955 C 0.64213 0.07602 0.50524 0.0
H1956 H 0.65761 1.00321 0.50684 0.0
C1957 C 0.65536 0.08302 0.47841 0.0
H1958 H 0.63466 0.04107 0.53639 0.0
C1959 C 0.6687 0.06135 0.46157 0.0
C1960 C 0.66922 0.03218 0.4712 0.0
H1961 H 0.6542 0.10494 0.46967 0.0
H1962 H 0.67751 0.06727 0.44042 0.0
C1963 C 0.65752 0.02544 0.49875 0.0
C1964 C 0.31128 0.09281 0.80147 0.0
C1965 C 0.28196 0.09306 0.79234 0.0
H1966 H 0.35509 0.10711 0.79298 0.0
C1967 C 0.27498 0.10633 0.76559 0.0
H1968 H 0.31737 0.0828 0.82201 0.0
C1969 C 0.29655 0.12037 0.7491 0.0
C1970 C 0.32564 0.12131 0.75883 0.0
H1971 H 0.25263 0.10689 0.7579 0.0
H1972 H 0.29035 0.13102 0.72893 0.0
C1973 C 0.33293 0.10668 0.78481 0.0
C1974 C 0.35378 0.42268 0.47276 0.0
C1975 C 0.36747 0.42983 0.49922 0.0
H1976 H 0.33121 0.43843 0.43493 0.0
C1977 C 0.36583 0.45876 0.50928 0.0
H1978 H 0.35474 0.40065 0.46435 0.0
C1979 C 0.35226 0.48038 0.49254 0.0
C1980 C 0.34014 0.4736 0.46526 0.0
H1981 H 0.37572 0.46484 0.52983 0.0
H1982 H 0.35243 0.50264 0.50045 0.0
C1983 C 0.34034 0.44437 0.45588 0.0
C1984 C 0.76183 0.71055 0.62071 0.0
C1985 C 0.75179 0.68155 0.62215 0.0
H1986 H 0.75323 0.75437 0.60684 0.0
C1987 C 0.72568 0.67425 0.60781 0.0
H1988 H 0.78212 0.71675 0.63108 0.0
C1989 C 0.70917 0.69578 0.59381 0.0
C1990 C 0.7185 0.72503 0.5937 0.0
H1991 H 0.71724 0.65219 0.60859 0.0
H1992 H 0.68851 0.68967 0.58408 0.0
C1993 C 0.7454 0.73205 0.60659 0.0
C1994 C 0.74501 0.27706 0.89751 0.0
C1995 C 0.71808 0.28335 0.91076 0.0
H1996 H 0.78125 0.29339 0.87282 0.0
C1997 C 0.70832 0.31244 0.91132 0.0
H1998 H 0.75318 0.25489 0.89674 0.0
C1999 C 0.72437 0.3345 0.89747 0.0
C2000 C 0.75042 0.32788 0.88263 0.0
H2001 H 0.68762 0.318 0.92133 0.0
H2002 H 0.71559 0.35642 0.89713 0.0
C2003 C 0.76096 0.29907 0.88355 0.0
C2004 C 0.58467 0.03025 0.35904 0.0
C2005 C 0.5774 0.00507 0.37509 0.0
H2006 H 0.56907 0.06645 0.33381 0.0
C2007 C 0.54818 0.99556 0.37523 0.0
H2008 H 0.6069 0.03826 0.35861 0.0
C2009 C 0.5265 0.0116 0.36088 0.0
C2010 C 0.53352 0.03765 0.34623 0.0
H2011 H 0.54196 0.97601 0.38702 0.0
H2012 H 0.50407 0.0042 0.36234 0.0
C2013 C 0.56294 0.04645 0.34488 0.0
C2014 C 0.2826 0.17285 0.90119 0.0
C2015 C 0.25598 0.17997 0.8877 0.0
H2016 H 0.3205 0.18855 0.92362 0.0
C2017 C 0.24592 0.20893 0.88932 0.0
H2018 H 0.29107 0.15083 0.90024 0.0
C2019 C 0.26272 0.23054 0.90278 0.0
C2020 C 0.29005 0.22372 0.91485 0.0
H2021 H 0.22526 0.21502 0.87962 0.0
H2022 H 0.25475 0.25279 0.90271 0.0
C2023 C 0.2995 0.19452 0.91454 0.0
C2024 C 0.9814 0.99178 0.85411 0.0
C2025 C 0.97452 0.96495 0.84103 0.0
H2026 H 0.96599 0.02828 0.87881 0.0
C2027 C 0.94523 0.9556 0.84099 0.0
H2028 H 0.00372 0.99964 0.85455 0.0
C2029 C 0.92356 0.97208 0.85496 0.0
C2030 C 0.9308 0.99808 0.86951 0.0
H2031 H 0.93922 0.93498 0.83116 0.0
H2032 H 0.90146 0.96372 0.8556 0.0
C2033 C 0.95982 0.00808 0.86826 0.0
C2034 C 0.80277 0.30778 0.09414 0.0
C2035 C 0.79345 0.27852 0.0943 0.0
H2036 H 0.79444 0.3515 0.10842 0.0
C2037 C 0.76654 0.27155 0.10733 0.0
H2038 H 0.82344 0.31384 0.08431 0.0
C2039 C 0.75005 0.29309 0.12124 0.0
C2040 C 0.75997 0.32212 0.12229 0.0
H2041 H 0.7587 0.24924 0.10778 0.0
H2042 H 0.72974 0.28692 0.1317 0.0
C2043 C 0.78613 0.32939 0.10789 0.0
C2044 C 0.52302 1.0012 0.15907 0.0
C2045 C 0.53054 0.97306 0.16878 0.0
H2046 H 0.53782 0.04139 0.14009 0.0
C2047 C 0.56004 0.96468 0.16816 0.0
H2048 H 0.50046 0.0083 0.15916 0.0
C2049 C 0.58142 0.98361 0.15722 0.0
C2050 C 0.57387 0.01144 0.1466 0.0
H2051 H 0.56661 0.94319 0.17554 0.0
H2052 H 0.60389 0.97633 0.15702 0.0
C2053 C 0.54445 0.0202 0.14815 0.0
C2054 C 0.42147 0.52313 0.16148 0.0
C2055 C 0.42519 0.51894 0.13128 0.0
H2056 H 0.43849 0.54234 0.2007 0.0
C2057 C 0.44867 0.53282 0.1172 0.0
H2058 H 0.40357 0.51267 0.17292 0.0
C2059 C 0.46844 0.54977 0.13291 0.0
C2060 C 0.46543 0.5533 0.16326 0.0
H2061 H 0.45182 0.53062 0.0939 0.0
H2062 H 0.48639 0.55977 0.12114 0.0
C2063 C 0.44149 0.54006 0.17737 0.0
C2064 C 0.0855 0.01779 0.25734 0.0
C2065 C 0.05904 0.0324 0.26259 0.0
H2066 H 0.10626 0.97859 0.24244 0.0
C2067 C 0.03262 0.01801 0.2565 0.0
H2068 H 0.10618 0.02853 0.26144 0.0
C2069 C 0.03267 0.98945 0.24573 0.0
C2070 C 0.05914 0.97493 0.24024 0.0
H2071 H 0.01193 0.02883 0.26025 0.0
H2072 H 0.012 0.97873 0.24153 0.0
C2073 C 0.08555 0.98942 0.24607 0.0
C2074 C 0.27044 0.7236 1.00131 0.0
C2075 C 0.2852 0.69733 0.99559 0.0
H2076 H 0.23034 0.74389 0.01466 0.0
C2077 C 0.27042 0.67078 1.0001 0.0
H2078 H 0.28134 0.74436 0.99809 0.0
C2079 C 0.24153 0.6705 0.0102 0.0
C2080 C 0.22663 0.69677 0.0155 0.0
H2081 H 0.28139 0.6502 0.99623 0.0
H2082 H 0.23061 0.64972 0.01326 0.0
C2083 C 0.24134 0.72333 0.01083 0.0
C2084 C 0.92177 0.51694 0.24738 0.0
C2085 C 0.94806 0.53201 0.2423 0.0
H2086 H 0.90142 0.47694 0.26103 0.0
C2087 C 0.97463 0.51744 0.24724 0.0
H2088 H 0.90098 0.52772 0.24413 0.0
C2089 C 0.97488 0.48834 0.25674 0.0
C2090 C 0.94858 0.47337 0.26214 0.0
H2091 H 0.99522 0.52853 0.24357 0.0
H2092 H 0.99566 0.47758 0.26013 0.0
C2093 C 0.92203 0.48803 0.25742 0.0
C2094 C 0.7645 0.78054 0.011 0.0
C2095 C 0.77865 0.80734 0.01592 0.0
H2096 H 0.72494 0.75884 0.99827 0.0
C2097 C 0.76309 0.83336 0.01116 0.0
H2098 H 0.77598 0.76016 0.01444 0.0
C2099 C 0.73415 0.8326 1.00136 0.0
C2100 C 0.71996 0.80581 0.99655 0.0
H2101 H 0.77353 0.85432 0.01443 0.0
H2102 H 0.72269 0.853 0.99794 0.0
C2103 C 0.73536 0.77978 1.00172 0.0
C2104 C 0.24857 0.08624 0.99138 0.0
C2105 C 0.2433 0.05983 0.97671 0.0
H2106 H 0.26288 0.10687 0.03089 0.0
C2107 C 0.24878 0.0334 0.99136 0.0
H2108 H 0.24494 0.10693 0.9805 0.0
C2109 C 0.25892 0.03337 0.02017 0.0
C2110 C 0.2644 0.05977 0.03478 0.0
H2111 H 0.245 0.01273 0.98056 0.0
H2112 H 0.26262 0.01268 0.03103 0.0
C2113 C 0.25924 0.08621 0.02004 0.0
C2114 C 0.28472 0.51017 0.26518 0.0
C2115 C 0.31143 0.51518 0.27943 0.0
H2116 H 0.26328 0.49687 0.22581 0.0
C2117 C 0.33759 0.51013 0.26416 0.0
H2118 H 0.26423 0.51385 0.27643 0.0
C2119 C 0.33704 0.49994 0.23538 0.0
C2120 C 0.31032 0.49498 0.22114 0.0
H2121 H 0.35849 0.51344 0.27471 0.0
H2122 H 0.35754 0.49635 0.2241 0.0
C2123 C 0.28417 0.50043 0.23627 0.0
C2124 C 0.75458 0.47092 0.98734 0.0
C2125 C 0.76085 0.44507 0.97211 0.0
H2126 H 0.74094 0.49018 0.02776 0.0
C2127 C 0.75698 0.41815 0.98642 0.0
H2128 H 0.7573 0.49196 0.97684 0.0
C2129 C 0.74706 0.4171 0.01534 0.0
C2130 C 0.74126 0.44298 0.03071 0.0
H2131 H 0.76124 0.39786 0.97508 0.0
H2132 H 0.7446 0.39608 0.02593 0.0
C2133 C 0.74518 0.46989 0.01641 0.0
C2134 C 0.72319 0.00611 0.24123 0.0
C2135 C 0.70051 0.99651 0.22305 0.0
H2136 H 0.74112 0.00663 0.28428 0.0
C2137 C 0.67875 0.97822 0.23482 0.0
H2138 H 0.74051 0.01982 0.23267 0.0
C2139 C 0.67896 0.97079 0.26444 0.0
C2140 C 0.70098 0.98143 0.28292 0.0
H2141 H 0.6608 0.9707 0.22142 0.0
H2142 H 0.66109 0.95789 0.27311 0.0
C2143 C 0.72351 0.99853 0.27077 0.0
C2144 C 0.25338 0.97217 0.48855 0.0
C2145 C 0.26012 0.94649 0.47325 0.0
H2146 H 0.2391 0.991 0.52896 0.0
C2147 C 0.2564 0.91943 0.48734 0.0
H2148 H 0.25597 0.9933 0.47821 0.0
C2149 C 0.24621 0.91809 0.51614 0.0
C2150 C 0.23997 0.94379 0.53161 0.0
H2151 H 0.26102 0.89927 0.47593 0.0
H2152 H 0.2439 0.89696 0.52657 0.0
C2153 C 0.2437 0.97085 0.51752 0.0
C2154 C 0.17695 0.4739 0.76562 0.0
C2155 C 0.20093 0.48094 0.78346 0.0
H2156 H 0.15765 0.47651 0.72317 0.0
C2157 C 0.22504 0.49526 0.77067 0.0
H2158 H 0.15773 0.46345 0.77464 0.0
C2159 C 0.22468 0.50327 0.74118 0.0
C2160 C 0.20045 0.4967 0.72366 0.0
H2161 H 0.24415 0.50057 0.78349 0.0
H2162 H 0.24334 0.51467 0.73207 0.0
C2163 C 0.1768 0.48153 0.73608 0.0
C2164 C 0.74849 0.53376 0.49156 0.0
C2165 C 0.74336 0.56006 0.47657 0.0
H2166 H 0.76182 0.5134 0.5316 0.0
C2167 C 0.74866 0.5866 0.49097 0.0
H2168 H 0.74468 0.513 0.48095 0.0
C2169 C 0.75907 0.58683 0.5197 0.0
C2170 C 0.76392 0.56052 0.53478 0.0
H2171 H 0.74528 0.60719 0.4798 0.0
H2172 H 0.76278 0.60759 0.53034 0.0
C2173 C 0.75837 0.53399 0.52046 0.0
C2174 C 0.83682 0.01078 0.76406 0.0
C2175 C 0.81073 0.01596 0.77938 0.0
H2176 H 0.8566 0.99677 0.72399 0.0
C2177 C 0.78396 0.01101 0.76523 0.0
H2178 H 0.85776 0.01404 0.77454 0.0
C2179 C 0.78328 1.00117 0.73636 0.0
C2180 C 0.80937 0.99555 0.72118 0.0
H2181 H 0.76351 0.01479 0.77654 0.0
H2182 H 0.76234 0.99764 0.72597 0.0
C2183 C 0.83615 1.00048 0.73532 0.0
C2184 C 0.99229 0.24435 0.0343 0.0
C2185 C 0.97744 0.23895 0.06064 0.0
H2186 H 0.03212 0.25838 0.01386 0.0
C2187 C 0.99184 0.24441 0.08714 0.0
H2188 H 0.98166 0.24044 0.01357 0.0
C2189 C 0.02044 0.25527 0.08729 0.0
C2190 C 0.03537 0.26043 0.06095 0.0
H2191 H 0.98075 0.24084 0.10775 0.0
H2192 H 0.03108 0.25912 0.10803 0.0
C2193 C 0.02108 0.25468 0.03446 0.0
C2194 C 0.99104 0.75534 0.47072 0.0
C2195 C 0.97584 0.76176 0.44487 0.0
H2196 H 0.03125 0.741 0.48997 0.0
C2197 C 0.99 0.75752 0.41795 0.0
H2198 H 0.98068 0.75833 0.49177 0.0
C2199 C 0.01873 0.7471 0.41691 0.0
C2200 C 0.03408 0.74111 0.44278 0.0
H2201 H 0.97868 0.76187 0.39766 0.0
H2202 H 0.0292 0.74438 0.39587 0.0
C2203 C 0.01993 0.74539 0.46969 0.0
C2204 C 0.01061 0.7646 0.83821 0.0
C2205 C 0.01612 0.77949 0.81192 0.0
H2206 H 0.99641 0.72481 0.85859 0.0
C2207 C 0.01153 0.76481 0.7854 0.0
H2208 H 0.01359 0.77548 0.85896 0.0
C2209 C 1.00181 0.73582 0.78518 0.0
C2210 C 0.99591 0.72106 0.81147 0.0
H2211 H 0.01554 0.77577 0.7648 0.0
H2212 H 0.99862 0.72501 0.76443 0.0
C2213 C 1.00039 0.73577 0.83799 0.0
C2214 C 0.50057 0.23695 0.33846 0.0
C2215 C 0.49562 0.22214 0.31209 0.0
H2216 H 0.51441 0.27664 0.35905 0.0
C2217 C 0.50123 0.23675 0.28565 0.0
H2218 H 0.49683 0.22612 0.35917 0.0
C2219 C 0.51118 0.26567 0.28558 0.0
C2220 C 0.51632 0.28042 0.31196 0.0
H2221 H 0.49767 0.22585 0.265 0.0
H2222 H 0.51501 0.2765 0.26488 0.0
C2223 C 0.51103 0.2657 0.3384 0.0
C2224 C 0.49053 0.74585 0.58599 0.0
C2225 C 0.47623 0.74048 0.55942 0.0
H2226 H 0.52964 0.76065 0.60705 0.0
C2227 C 0.49104 0.74627 0.53315 0.0
H2228 H 0.47946 0.74198 0.60656 0.0
C2229 C 0.51971 0.75686 0.53343 0.0
C2230 C 0.53393 0.76243 0.56 0.0
H2231 H 0.48046 0.74243 0.51238 0.0
H2232 H 0.53075 0.76081 0.51288 0.0
C2233 C 0.51903 0.75693 0.58628 0.0
C2234 C 1.0003 0.27439 0.72515 0.0
C2235 C 0.98475 0.28671 0.70162 0.0
H2236 H 0.02051 0.23613 0.74318 0.0
C2237 C 0.97669 0.26841 0.67834 0.0
H2238 H 0.00648 0.28756 0.74373 0.0
C2239 C 0.9843 0.23887 0.67836 0.0
C2240 C 1.00048 0.22686 0.70147 0.0
H2241 H 0.96534 0.27703 0.6595 0.0
H2242 H 0.97836 0.22562 0.65974 0.0
C2243 C 0.00828 0.24488 0.72495 0.0
C2244 C 0.53145 0.4908 0.74442 0.0
C2245 C 0.558 0.47645 0.73885 0.0
H2246 H 0.51049 0.53013 0.75882 0.0
C2247 C 0.58433 0.49121 0.74437 0.0
H2248 H 0.51084 0.47988 0.74046 0.0
C2249 C 0.58413 0.51966 0.75546 0.0
C2250 C 0.55759 0.5341 0.76081 0.0
H2251 H 0.6051 0.48052 0.74066 0.0
H2252 H 0.60475 0.53058 0.75937 0.0
C2253 C 0.53125 0.51946 0.75499 0.0
C2254 C 0.74354 0.17233 0.51089 0.0
C2255 C 0.72867 0.19872 0.51577 0.0
H2256 H 0.78334 0.15173 0.49726 0.0
C2257 C 0.74338 0.22517 0.51053 0.0
H2258 H 0.73262 0.15163 0.51439 0.0
C2259 C 0.77248 0.22523 0.50097 0.0
C2260 C 0.78721 0.19883 0.49576 0.0
H2261 H 0.7324 0.24581 0.51402 0.0
H2262 H 0.78341 0.24591 0.49738 0.0
C2263 C 0.7724 0.17239 0.50075 0.0
C2264 C 0.47245 0.98662 0.7546 0.0
C2265 C 0.44627 0.97169 0.76054 0.0
H2266 H 0.49252 0.02673 0.74091 0.0
C2267 C 0.4196 0.98623 0.75608 0.0
H2268 H 0.49331 0.97594 0.75777 0.0
C2269 C 0.41914 0.01509 0.74589 0.0
C2270 C 0.44534 0.03015 0.74039 0.0
H2271 H 0.39908 0.97514 0.76008 0.0
H2272 H 0.39829 0.02586 0.74297 0.0
C2273 C 0.472 0.01562 0.74491 0.0
C2274 C 0.26475 0.2803 0.51152 0.0
C2275 C 0.27883 0.30715 0.51633 0.0
H2276 H 0.22517 0.25847 0.49907 0.0
C2277 C 0.26316 0.33312 0.5117 0.0
H2278 H 0.27632 0.25996 0.51489 0.0
C2279 C 0.23416 0.33227 0.50212 0.0
C2280 C 0.22005 0.30543 0.49739 0.0
H2281 H 0.27355 0.35412 0.51489 0.0
H2282 H 0.22261 0.35263 0.49877 0.0
C2283 C 0.23555 0.27944 0.50246 0.0
C2284 C 0.51892 0.24535 0.96796 0.0
C2285 C 0.53306 0.24117 0.94103 0.0
H2286 H 0.47972 0.25832 0.99008 0.0
C2287 C 0.51777 0.24737 0.91518 0.0
H2288 H 0.53019 0.2408 0.98822 0.0
C2289 C 0.48908 0.25789 0.91626 0.0
C2290 C 0.47493 0.26202 0.94319 0.0
H2291 H 0.52825 0.24473 0.89413 0.0
H2292 H 0.47778 0.26238 0.89598 0.0
C2293 C 0.49009 0.25542 0.96902 0.0
C2294 C 0.50874 0.74091 0.22407 0.0
C2295 C 0.49895 0.72244 0.20168 0.0
H2296 H 0.50956 0.78421 0.2415 0.0
C2297 C 0.48054 0.73408 0.18 0.0
H2298 H 0.52254 0.73257 0.24134 0.0
C2299 C 0.47312 0.76371 0.18004 0.0
C2300 C 0.48394 0.78243 0.20176 0.0
H2301 H 0.47291 0.72058 0.1622 0.0
H2302 H 0.46005 0.77219 0.16227 0.0
C2303 C 0.50128 0.77051 0.22414 0.0
C2304 C 0.11249 0.18664 0.39526 0.0
C2305 C 0.08875 0.17703 0.37838 0.0
H2306 H 0.12668 0.21306 0.43121 0.0
C2307 C 0.06029 0.18469 0.3871 0.0
H2308 H 0.13469 0.18137 0.389 0.0
C2309 C 0.05577 0.20243 0.41154 0.0
C2310 C 0.07964 0.2134 0.42735 0.0
H2311 H 0.04155 0.17772 0.37449 0.0
H2312 H 0.03371 0.20884 0.41715 0.0
C2313 C 0.10798 0.20493 0.41928 0.0
C2314 C 0.43752 0.6955 0.87034 0.0
C2315 C 0.42968 0.66732 0.87985 0.0
H2316 H 0.46189 0.72114 0.83952 0.0
C2317 C 0.43893 0.64313 0.86343 0.0
H2318 H 0.43081 0.71458 0.88256 0.0
C2319 C 0.45714 0.64692 0.83915 0.0
C2320 C 0.46592 0.67497 0.83038 0.0
H2321 H 0.4335 0.62113 0.87027 0.0
H2322 H 0.46508 0.62788 0.82765 0.0
C2323 C 0.45522 0.69929 0.84566 0.0
C2324 C 0.947 0.31916 0.3849 0.0
C2325 C 0.91866 0.32641 0.37553 0.0
H2326 H 0.97316 0.29521 0.41547 0.0
C2327 C 0.89463 0.31624 0.3918 0.0
H2328 H 0.96596 0.32656 0.37278 0.0
C2329 C 0.8988 0.29783 0.41587 0.0
C2330 C 0.92706 0.28978 0.4246 0.0
H2331 H 0.87253 0.32118 0.38503 0.0
H2332 H 0.87992 0.2893 0.42733 0.0
C2333 C 0.95115 0.30128 0.40938 0.0
C2334 C 0.54868 0.80637 0.84886 0.0
C2335 C 0.53791 0.83082 0.83372 0.0
H2336 H 0.57274 0.79065 0.88582 0.0
C2337 C 0.54591 0.85881 0.84327 0.0
H2338 H 0.54262 0.78454 0.84218 0.0
C2339 C 0.5636 0.86236 0.86792 0.0
C2340 C 0.57314 0.83797 0.884 0.0
H2341 H 0.53795 0.87797 0.83193 0.0
H2342 H 0.56857 0.88428 0.87518 0.0
C2343 C 0.56585 0.8099 0.8739 0.0
C2344 C 0.06389 0.81995 0.11675 0.0
C2345 C 0.09195 0.82792 0.12637 0.0
H2346 H 0.03861 0.79446 0.08673 0.0
C2347 C 0.11641 0.81725 0.11117 0.0
H2348 H 0.04462 0.82767 0.1281 0.0
C2349 C 0.11293 0.79774 0.08795 0.0
C2350 C 0.08494 0.78907 0.07896 0.0
H2351 H 0.13832 0.82269 0.11821 0.0
H2352 H 0.13212 0.78887 0.07736 0.0
C2353 C 0.06043 0.80099 0.09306 0.0
C2354 C 0.05037 0.69809 0.15962 0.0
C2355 C 0.03902 0.67377 0.1746 0.0
H2356 H 0.07628 0.71344 0.12364 0.0
C2357 C 0.0478 0.64571 0.16602 0.0
H2358 H 0.04373 0.71995 0.16563 0.0
C2359 C 0.06692 0.64196 0.14244 0.0
C2360 C 0.0771 0.66619 0.12646 0.0
H2361 H 0.03939 0.62667 0.17728 0.0
H2362 H 0.07252 0.61998 0.13584 0.0
C2363 C 0.06894 0.69434 0.13558 0.0
C2364 C 0.89384 0.70949 0.09161 0.0
C2365 C 0.92168 0.71842 0.08231 0.0
H2366 H 0.86881 0.68487 0.12262 0.0
C2367 C 0.94637 0.7074 0.09683 0.0
H2368 H 0.87452 0.71766 0.08072 0.0
C2369 C 0.94318 0.68902 0.12112 0.0
C2370 C 0.91525 0.68074 0.13098 0.0
H2371 H 0.96808 0.71416 0.09028 0.0
H2372 H 0.96256 0.68194 0.13268 0.0
C2373 C 0.89065 0.69057 0.11546 0.0
C2374 C 0.93619 0.81285 0.13515 0.0
C2375 C 0.92819 0.84096 0.12569 0.0
H2376 H 0.96202 0.78735 0.16477 0.0
C2377 C 0.93919 0.8653 0.14079 0.0
H2378 H 0.92822 0.79367 0.12388 0.0
C2379 C 0.95903 0.86164 0.16373 0.0
C2380 C 0.96773 0.8336 0.17255 0.0
H2381 H 0.93373 0.88725 0.13387 0.0
H2382 H 0.96808 0.88075 0.17426 0.0
C2383 C 0.9555 0.80921 0.15857 0.0
C2384 C 0.41685 0.1089 0.21242 0.0
C2385 C 0.42558 0.08085 0.22117 0.0
H2386 H 0.3864 0.13464 0.18801 0.0
C2387 C 0.41058 0.05652 0.21001 0.0
H2388 H 0.42812 0.12796 0.22068 0.0
C2389 C 0.38638 0.06028 0.19168 0.0
C2390 C 0.37709 0.08843 0.18359 0.0
H2391 H 0.41667 0.03466 0.21662 0.0
H2392 H 0.37445 0.04117 0.18449 0.0
C2393 C 0.3931 0.11266 0.19356 0.0
C2394 C 0.36654 0.36716 0.06315 0.0
C2395 C 0.34222 0.38276 0.07357 0.0
H2396 H 0.3819 0.33198 0.03631 0.0
C2397 C 0.31407 0.37256 0.06666 0.0
H2398 H 0.38852 0.37454 0.06782 0.0
C2399 C 0.31036 0.34792 0.04896 0.0
C2400 C 0.33471 0.33332 0.03729 0.0
H2401 H 0.29487 0.38412 0.07423 0.0
H2402 H 0.28845 0.34119 0.04321 0.0
C2403 C 0.36281 0.34292 0.04495 0.0
C2404 C 0.59923 0.4438 0.20676 0.0
C2405 C 0.58467 0.41986 0.21939 0.0
H2406 H 0.63479 0.45837 0.17989 0.0
C2407 C 0.59358 0.39152 0.21185 0.0
H2408 H 0.593 0.46588 0.21237 0.0
C2409 C 0.61714 0.38717 0.1928 0.0
C2410 C 0.63273 0.41109 0.1814 0.0
H2411 H 0.58264 0.37273 0.2212 0.0
H2412 H 0.62405 0.36504 0.18823 0.0
C2413 C 0.6232 0.43947 0.18822 0.0
C2414 C 0.67446 0.14407 0.07496 0.0
C2415 C 0.67735 0.1166 0.06158 0.0
H2416 H 0.67204 0.1907 0.06822 0.0
C2417 C 0.68285 0.11528 0.0315 0.0
H2418 H 0.67056 0.14562 0.09822 0.0
C2419 C 0.68425 0.1406 0.01487 0.0
C2420 C 0.67952 0.16797 0.02755 0.0
H2421 H 0.68617 0.09453 0.02067 0.0
H2422 H 0.68902 0.13888 0.99187 0.0
C2423 C 0.6754 0.16972 0.05793 0.0
C2424 C 0.4004 0.90582 0.33068 0.0
C2425 C 0.37616 0.92423 0.32669 0.0
H2426 H 0.44298 0.89334 0.31557 0.0
C2427 C 0.37802 0.94661 0.30563 0.0
H2428 H 0.39978 0.88842 0.34671 0.0
C2429 C 0.4026 0.94918 0.28766 0.0
C2430 C 0.42616 0.92981 0.29061 0.0
H2431 H 0.35988 0.96134 0.30195 0.0
H2432 H 0.40286 0.96576 0.27079 0.0
C2433 C 0.42523 0.90871 0.31294 0.0
C2434 C 0.19599 0.36863 0.94124 0.0
C2435 C 0.16765 0.37749 0.93337 0.0
H2436 H 0.22212 0.33846 0.96575 0.0
C2437 C 0.14371 0.3606 0.94268 0.0
H2438 H 0.21487 0.38122 0.93445 0.0
C2439 C 0.14789 0.33649 0.96097 0.0
C2440 C 0.17609 0.32835 0.96977 0.0
H2441 H 0.1216 0.36693 0.93718 0.0
H2442 H 0.12904 0.3246 0.96895 0.0
C2443 C 0.20017 0.34411 0.95904 0.0
C2444 C 0.60454 0.55385 0.29299 0.0
C2445 C 0.587 0.57723 0.28349 0.0
H2446 H 0.64064 0.54006 0.31919 0.0
C2447 C 0.59097 0.60472 0.29657 0.0
H2448 H 0.60235 0.53242 0.28339 0.0
C2449 C 0.61303 0.60913 0.31731 0.0
C2450 C 0.63181 0.58619 0.3253 0.0
H2451 H 0.5776 0.62307 0.29006 0.0
H2452 H 0.61632 0.6309 0.32587 0.0
C2453 C 0.62668 0.5583 0.31353 0.0
C2454 C 0.812 0.15921 0.9554 0.0
C2455 C 0.8364 0.17303 0.96785 0.0
H2456 H 0.79636 0.12438 0.92839 0.0
C2457 C 0.86446 0.16365 0.95976 0.0
H2458 H 0.79012 0.16581 0.96144 0.0
C2459 C 0.8681 0.14031 0.94039 0.0
C2460 C 0.8437 0.1254 0.9292 0.0
H2461 H 0.8836 0.17401 0.96897 0.0
H2462 H 0.89004 0.13299 0.93544 0.0
C2463 C 0.8156 0.13546 0.93653 0.0
C2464 C 0.2068 0.40874 0.05747 0.0
C2465 C 0.21787 0.42436 0.08138 0.0
H2466 H 0.18183 0.37184 0.0431 0.0
C2467 C 0.20939 0.4161 0.10968 0.0
H2468 H 0.21322 0.4145 0.03544 0.0
C2469 C 0.19095 0.3921 0.11409 0.0
C2470 C 0.18119 0.37543 0.09028 0.0
H2471 H 0.21761 0.42788 0.12841 0.0
H2472 H 0.18564 0.3857 0.13624 0.0
C2473 C 0.18891 0.3843 0.06188 0.0
C2474 C 0.19777 0.62002 0.38247 0.0
C2475 C 0.18149 0.63156 0.40574 0.0
H2476 H 0.22919 0.58822 0.36876 0.0
C2477 C 0.18235 0.61736 0.43289 0.0
H2478 H 0.19757 0.63056 0.36128 0.0
C2479 C 0.20054 0.59316 0.43727 0.0
C2480 C 0.21837 0.58275 0.4145 0.0
H2481 H 0.16934 0.62545 0.45084 0.0
H2482 H 0.20165 0.58351 0.45882 0.0
C2483 C 0.21612 0.59599 0.38685 0.0
C2484 C 0.86444 0.56613 0.8655 0.0
C2485 C 0.8813 0.57551 0.84155 0.0
H2486 H 0.82794 0.54047 0.88014 0.0
C2487 C 0.87203 0.56818 0.81323 0.0
H2488 H 0.87109 0.57116 0.88759 0.0
C2489 C 0.84705 0.55102 0.80904 0.0
C2490 C 0.83119 0.54032 0.83308 0.0
H2491 H 0.88458 0.57497 0.79433 0.0
H2492 H 0.84103 0.54483 0.78706 0.0
C2493 C 0.83985 0.54844 0.8613 0.0
C2494 C 0.83182 0.90136 0.40265 0.0
C2495 C 0.82843 0.87699 0.42111 0.0
H2496 H 0.81605 0.94382 0.39056 0.0
C2497 C 0.80766 0.87847 0.44379 0.0
H2498 H 0.8476 0.90103 0.38502 0.0
C2499 C 0.78947 0.90278 0.44669 0.0
C2500 C 0.79187 0.92648 0.42737 0.0
H2501 H 0.80443 0.86025 0.45858 0.0
H2502 H 0.77287 0.90274 0.46355 0.0
C2503 C 0.81385 0.92594 0.40589 0.0
C2504 C 0.66207 0.45549 0.31126 0.0
C2505 C 0.67683 0.4668 0.33563 0.0
H2506 H 0.62607 0.42985 0.29576 0.0
C2507 C 0.66779 0.45817 0.36366 0.0
H2508 H 0.66838 0.46201 0.28942 0.0
C2509 C 0.64396 0.4393 0.36732 0.0
C2510 C 0.62819 0.4292 0.34303 0.0
H2511 H 0.67886 0.46655 0.38275 0.0
H2512 H 0.63701 0.43386 0.38928 0.0
C2513 C 0.63781 0.43714 0.31492 0.0
C2514 C 0.31683 0.62005 0.55938 0.0
C2515 C 0.32814 0.62615 0.58724 0.0
H2516 H 0.28774 0.59409 0.53384 0.0
C2517 C 0.32062 0.60756 0.61056 0.0
H2518 H 0.32219 0.63387 0.5409 0.0
C2519 C 0.30064 0.58472 0.60649 0.0
C2520 C 0.288 0.57974 0.57899 0.0
H2521 H 0.32884 0.61163 0.63232 0.0
H2522 H 0.29428 0.57156 0.6251 0.0
C2523 C 0.29712 0.59708 0.55528 0.0
C2524 C 0.86095 0.44222 0.64252 0.0
C2525 C 0.87789 0.43299 0.66637 0.0
H2526 H 0.82475 0.46821 0.62807 0.0
C2527 C 0.86881 0.44041 0.69475 0.0
H2528 H 0.86744 0.43705 0.62039 0.0
C2529 C 0.8441 0.45785 0.69908 0.0
C2530 C 0.82837 0.46866 0.6751 0.0
H2531 H 0.88143 0.43365 0.71357 0.0
H2532 H 0.83835 0.46432 0.72106 0.0
C2533 C 0.83662 0.46015 0.64685 0.0
C2534 C 0.14134 0.01665 0.68438 0.0
C2535 C 0.16882 0.02926 0.67966 0.0
H2536 H 0.09533 0.0227 0.68692 0.0
C2537 C 0.17083 0.05973 0.67619 0.0
H2538 H 0.13941 0.99356 0.68866 0.0
C2539 C 0.14533 0.07694 0.67588 0.0
C2540 C 0.11774 0.06367 0.67878 0.0
H2541 H 0.19189 0.06997 0.67286 0.0
H2542 H 0.14708 0.10028 0.67246 0.0
C2543 C 0.11616 0.03348 0.68363 0.0
C2544 C 0.61053 0.68733 0.89395 0.0
C2545 C 0.58657 0.6784 0.877 0.0
H2546 H 0.6253 0.713 0.9302 0.0
C2547 C 0.55827 0.68647 0.88588 0.0
H2548 H 0.63261 0.68172 0.88758 0.0
C2549 C 0.55415 0.70396 0.91057 0.0
C2550 C 0.57826 0.71426 0.92646 0.0
H2551 H 0.53938 0.68001 0.87322 0.0
H2552 H 0.53224 0.71073 0.91631 0.0
C2553 C 0.60642 0.70536 0.91822 0.0
C2554 C 0.93986 0.19485 0.37135 0.0
C2555 C 0.93196 0.16676 0.38106 0.0
H2556 H 0.96439 0.2202 0.34043 0.0
C2557 C 0.94124 0.14242 0.36488 0.0
H2558 H 0.93312 0.21404 0.38338 0.0
C2559 C 0.95956 0.14599 0.34065 0.0
C2560 C 0.96841 0.17396 0.33168 0.0
H2561 H 0.93576 0.12049 0.37189 0.0
H2562 H 0.96752 0.12685 0.32934 0.0
C2563 C 0.95767 0.19841 0.34672 0.0
C2564 C 0.39252 0.81584 0.8913 0.0
C2565 C 0.41663 0.82579 0.87502 0.0
H2566 H 0.37761 0.78921 0.92698 0.0
C2567 C 0.44492 0.81863 0.88459 0.0
H2568 H 0.37045 0.82074 0.88438 0.0
C2569 C 0.44894 0.80097 0.90924 0.0
C2570 C 0.42476 0.78962 0.92443 0.0
H2571 H 0.46394 0.82588 0.87248 0.0
H2572 H 0.47091 0.79489 0.91546 0.0
C2573 C 0.39655 0.79765 0.91554 0.0
C2574 C 0.06464 0.36269 0.36907 0.0
C2575 C 0.0738 0.33815 0.38513 0.0
H2576 H 0.03957 0.37869 0.33284 0.0
C2577 C 0.06646 0.31019 0.37478 0.0
H2578 H 0.06968 0.38455 0.37651 0.0
C2579 C 0.04959 0.30692 0.3495 0.0
C2580 C 0.03919 0.33153 0.33436 0.0
H2581 H 0.07307 0.29083 0.38668 0.0
H2582 H 0.04345 0.28517 0.34263 0.0
C2583 C 0.04726 0.35941 0.34416 0.0
C2584 C 0.61497 0.31967 0.60904 0.0
C2585 C 0.59044 0.32906 0.62498 0.0
H2586 H 0.63117 0.29211 0.57479 0.0
C2587 C 0.56256 0.31966 0.61612 0.0
H2588 H 0.63677 0.32625 0.61543 0.0
C2589 C 0.55942 0.3005 0.59252 0.0
C2590 C 0.58411 0.28983 0.57773 0.0
H2591 H 0.54324 0.32638 0.62801 0.0
H2592 H 0.5378 0.29281 0.58684 0.0
C2593 C 0.61185 0.29999 0.58591 0.0
C2594 C 0.58368 0.15536 0.65393 0.0
C2595 C 0.57811 0.17082 0.62792 0.0
H2596 H 0.56865 0.14488 0.69733 0.0
C2597 C 0.55347 0.18918 0.62673 0.0
H2598 H 0.6024 0.14102 0.65556 0.0
C2599 C 0.53407 0.19075 0.65023 0.0
C2600 C 0.53919 0.17469 0.67576 0.0
H2601 H 0.54831 0.20134 0.60711 0.0
H2602 H 0.51462 0.20405 0.64831 0.0
C2603 C 0.5645 0.15755 0.6778 0.0
C2604 C 0.44101 0.18757 0.62083 0.0
C2605 C 0.41296 0.18043 0.63124 0.0
H2606 H 0.46638 0.21178 0.58967 0.0
C2607 C 0.38851 0.19135 0.61622 0.0
H2608 H 0.46031 0.17961 0.63189 0.0
C2609 C 0.39204 0.21023 0.59237 0.0
C2610 C 0.42006 0.21804 0.58257 0.0
H2611 H 0.3666 0.18653 0.62379 0.0
H2612 H 0.37287 0.21921 0.58188 0.0
C2613 C 0.44452 0.20592 0.59658 0.0
C2614 C 0.45487 0.30993 0.65888 0.0
C2615 C 0.46685 0.33445 0.67284 0.0
H2616 H 0.42799 0.29409 0.62403 0.0
C2617 C 0.45799 0.36241 0.66391 0.0
H2618 H 0.46153 0.28814 0.66518 0.0
C2619 C 0.43833 0.36586 0.6408 0.0
C2620 C 0.42767 0.3414 0.62566 0.0
H2621 H 0.46687 0.3816 0.67442 0.0
H2622 H 0.4328 0.38775 0.63376 0.0
C2623 C 0.43573 0.31337 0.63531 0.0
C2624 C 0.8932 0.6133 0.69251 0.0
C2625 C 0.87635 0.58947 0.68297 0.0
H2626 H 0.92901 0.62776 0.71905 0.0
C2627 C 0.88489 0.56112 0.69119 0.0
H2628 H 0.88709 0.63542 0.68684 0.0
C2629 C 0.9092 0.55679 0.70924 0.0
C2630 C 0.92507 0.58075 0.71998 0.0
H2631 H 0.87231 0.54232 0.68431 0.0
H2632 H 0.91471 0.53481 0.71597 0.0
C2633 C 0.91707 0.60899 0.7111 0.0
C2634 C 0.86626 0.86701 0.56414 0.0
C2635 C 0.84195 0.88313 0.57378 0.0
H2636 H 0.88171 0.83112 0.5383 0.0
C2637 C 0.81382 0.87313 0.56645 0.0
H2638 H 0.88823 0.87416 0.56915 0.0
C2639 C 0.81015 0.84821 0.54911 0.0
C2640 C 0.83453 0.83305 0.53822 0.0
H2641 H 0.79461 0.88505 0.57342 0.0
H2642 H 0.78828 0.84167 0.54301 0.0
C2643 C 0.86258 0.84246 0.54632 0.0
C2644 C 0.12006 0.88288 0.6966 0.0
C2645 C 0.13131 0.90608 0.67993 0.0
H2646 H 0.08878 0.86924 0.7287 0.0
C2647 C 0.11712 0.93319 0.6809 0.0
H2648 H 0.13062 0.86172 0.69634 0.0
C2649 C 0.09321 0.9376 0.69952 0.0
C2650 C 0.08311 0.91491 0.71769 0.0
H2651 H 0.125 0.9511 0.66762 0.0
H2652 H 0.08357 0.95913 0.70066 0.0
C2653 C 0.09633 0.88729 0.71538 0.0
C2654 C 0.18706 0.64099 0.51563 0.0
C2655 C 0.18175 0.66816 0.52851 0.0
H2656 H 0.18953 0.59487 0.52106 0.0
C2657 C 0.17728 0.66958 0.55886 0.0
H2658 H 0.19207 0.63956 0.49265 0.0
C2659 C 0.17653 0.64377 0.57564 0.0
C2660 C 0.17994 0.61647 0.56204 0.0
H2661 H 0.17346 0.69041 0.56928 0.0
H2662 H 0.17229 0.64506 0.59886 0.0
C2663 C 0.18584 0.61549 0.53202 0.0
C2664 C 0.90797 0.45301 0.79893 0.0
C2665 C 0.92381 0.42914 0.788 0.0
H2666 H 0.87101 0.46728 0.82388 0.0
C2667 C 0.91591 0.40085 0.79686 0.0
H2668 H 0.91341 0.47504 0.79223 0.0
C2669 C 0.89196 0.39637 0.81538 0.0
C2670 C 0.875 0.42011 0.82491 0.0
H2671 H 0.92785 0.38213 0.7888 0.0
H2672 H 0.88582 0.3742 0.82089 0.0
C2673 C 0.88364 0.44853 0.81697 0.0
C2674 C 0.6407 0.86645 0.44464 0.0
C2675 C 0.66498 0.88036 0.43197 0.0
H2676 H 0.62552 0.83259 0.47331 0.0
C2677 C 0.69285 0.86822 0.43615 0.0
H2678 H 0.61895 0.87534 0.44192 0.0
C2679 C 0.69656 0.84364 0.45397 0.0
C2680 C 0.6725 0.83093 0.46826 0.0
H2681 H 0.7119 0.87815 0.42627 0.0
H2682 H 0.71844 0.83557 0.45781 0.0
C2683 C 0.64446 0.84214 0.46279 0.0
C2684 C 0.12331 0.06057 0.81621 0.0
C2685 C 0.12963 0.08828 0.82779 0.0
H2686 H 0.09712 0.03544 0.78697 0.0
C2687 C 0.11132 0.1118 0.82038 0.0
H2688 H 0.13691 0.04194 0.82143 0.0
C2689 C 0.08847 0.10807 0.80039 0.0
C2690 C 0.08316 0.08069 0.78759 0.0
H2691 H 0.11556 0.13346 0.82879 0.0
H2692 H 0.07547 0.12682 0.79422 0.0
C2693 C 0.10032 0.0568 0.79647 0.0
C2694 C 0.31506 0.63531 0.43569 0.0
C2695 C 0.34322 0.62542 0.42835 0.0
H2696 H 0.28944 0.66567 0.46044 0.0
C2697 C 0.36754 0.6407 0.43919 0.0
H2698 H 0.29588 0.62395 0.4278 0.0
C2699 C 0.3638 0.66421 0.45832 0.0
C2700 C 0.33569 0.67339 0.46649 0.0
H2701 H 0.38952 0.63353 0.4342 0.0
H2702 H 0.38288 0.67485 0.46732 0.0
C2703 C 0.31135 0.65923 0.45432 0.0
C2704 C 0.70891 0.91708 0.6095 0.0
C2705 C 0.71706 0.92558 0.58117 0.0
H2706 H 0.68526 0.88661 0.63607 0.0
C2707 C 0.70537 0.91043 0.55725 0.0
H2708 H 0.71758 0.92851 0.62825 0.0
C2709 C 0.68724 0.88618 0.56165 0.0
C2710 C 0.67993 0.87699 0.59007 0.0
H2711 H 0.71151 0.91639 0.5352 0.0
H2712 H 0.67972 0.87404 0.54284 0.0
C2713 C 0.69025 0.89325 0.61391 0.0
C2714 C 0.69752 0.11994 0.88158 0.0
C2715 C 0.68069 0.13122 0.90457 0.0
H2716 H 0.72957 0.08855 0.86836 0.0
C2717 C 0.68124 0.11698 0.9317 0.0
H2718 H 0.69757 0.13052 0.86041 0.0
C2719 C 0.69968 0.09301 0.93637 0.0
C2720 C 0.71805 0.08288 0.91392 0.0
H2721 H 0.66781 0.12488 0.94942 0.0
H2722 H 0.70052 0.08334 0.95793 0.0
C2723 C 0.7161 0.09612 0.88624 0.0
C2724 C 0.36319 0.06781 0.36602 0.0
C2725 C 0.38059 0.07666 0.34226 0.0
H2726 H 0.32631 0.04256 0.38043 0.0
C2727 C 0.37184 0.0688 0.31391 0.0
H2728 H 0.36939 0.07326 0.38815 0.0
C2729 C 0.34689 0.05161 0.30954 0.0
C2730 C 0.33049 0.04142 0.33345 0.0
H2731 H 0.38479 0.07518 0.29513 0.0
H2732 H 0.34132 0.045 0.28757 0.0
C2733 C 0.33862 0.05011 0.36167 0.0
C2734 C 0.32028 0.38517 0.94409 0.0
C2735 C 0.32757 0.376 0.9157 0.0
H2736 H 0.29584 0.41513 0.97047 0.0
C2737 C 0.31706 0.39218 0.89181 0.0
H2738 H 0.32794 0.37312 0.96296 0.0
C2739 C 0.29825 0.41586 0.89616 0.0
C2740 C 0.29009 0.4243 0.92447 0.0
H2741 H 0.32203 0.38558 0.86967 0.0
H2742 H 0.28943 0.42719 0.87738 0.0
C2743 C 0.30197 0.40926 0.94843 0.0
C2744 C 0.1607 0.95539 0.81141 0.0
C2745 C 0.17491 0.96728 0.83583 0.0
H2746 H 0.12524 0.92913 0.79573 0.0
C2747 C 0.16547 0.95904 0.86384 0.0
H2748 H 0.16733 0.96159 0.78957 0.0
C2749 C 0.14176 0.94 0.86742 0.0
C2750 C 0.12651 0.92933 0.84303 0.0
H2751 H 0.17612 0.96784 0.88298 0.0
H2752 H 0.13446 0.93488 0.88934 0.0
C2753 C 0.13656 0.93687 0.81496 0.0
C2754 C 0.79852 0.0856 0.10744 0.0
C2755 C 0.78623 0.08085 0.07973 0.0
H2756 H 0.8269 0.11189 0.13373 0.0
C2757 C 0.7961 0.09804 0.05619 0.0
H2758 H 0.79164 0.07254 0.12594 0.0
C2759 C 0.81627 0.12057 0.06062 0.0
C2760 C 0.8273 0.12641 0.08865 0.0
H2761 H 0.78706 0.09528 0.03458 0.0
H2762 H 0.82224 0.13424 0.04222 0.0
C2763 C 0.81894 0.10801 0.11184 0.0
C2764 C 0.34199 0.96018 0.1446 0.0
C2765 C 0.33086 0.96552 0.17268 0.0
H2766 H 0.37515 0.93951 0.11889 0.0
C2767 C 0.34361 0.95119 0.19663 0.0
H2768 H 0.3324 0.97076 0.12577 0.0
C2769 C 0.36821 0.93346 0.19276 0.0
C2770 C 0.38029 0.92941 0.16483 0.0
H2771 H 0.3356 0.95496 0.21854 0.0
H2772 H 0.37827 0.92363 0.21173 0.0
C2773 C 0.3663 0.9421 0.14067 0.0
C2774 C 0.65541 0.53193 0.14656 0.0
C2775 C 0.675 0.53386 0.17012 0.0
H2776 H 0.61463 0.54551 0.1283 0.0
C2777 C 0.66962 0.55494 0.19186 0.0
H2778 H 0.65912 0.51676 0.1289 0.0
C2779 C 0.6443 0.57218 0.19095 0.0
C2780 C 0.62382 0.56835 0.16852 0.0
H2781 H 0.68407 0.55712 0.21037 0.0
H2782 H 0.63986 0.58711 0.20872 0.0
C2783 C 0.62997 0.54864 0.146 0.0
loop_
_geom_bond_atom_site_label_1
_geom_bond_atom_site_label_2
_geom_bond_distance
_geom_bond_site_symmetry_2
_ccdc_geom_bond_type
Co0 N4 2.148 . S
Co0 N10 2.128 . S
Co0 N20 2.194 . S
Co0 O25 2.351 . S
Co0 O26 2.155 . S
Co0 O27 2.096 . S
C1 N4 1.301 . S
C1 N5 1.328 . S
C1 H6 0.930 . S
C2 C3 1.333 . S
C2 N4 1.317 . S
C2 H7 0.930 . S
C3 C2 1.333 . S
C3 N5 1.350 . S
C3 H29 0.931 . S
N4 Co0 2.148 . S
N4 C1 1.301 . S
N4 C2 1.317 . S
N5 C1 1.328 . S
N5 C3 1.350 . S
H6 C1 0.930 . S
H7 C2 0.930 . S
C8 O9 1.224 . S
C8 O27 1.247 . S
O9 C8 1.224 . S
N10 Co0 2.128 . S
N10 C11 1.355 . S
N10 C13 1.311 . S
C11 N10 1.355 . S
C11 C12 1.363 1_455 S
C11 H23 0.929 . S
C12 C11 1.363 1_655 S
C12 N14 1.375 . S
C12 H30 0.931 . S
C13 N10 1.311 . S
C13 N14 1.347 1_455 S
C13 H24 0.929 . S
N14 C12 1.375 . S
N14 C13 1.347 1_655 S
C15 C18 1.365 . S
C15 N20 1.328 . S
C15 H21 0.929 . S
C16 C17 1.362 . S
C16 C19 1.378 . S
C16 H31 0.929 . S
C17 C16 1.362 . S
C17 C18 1.366 . S
C18 C15 1.365 . S
C18 C17 1.366 . S
C18 H32 0.930 . S
C19 C16 1.378 . S
C19 N20 1.315 . S
C19 H22 0.930 . S
N20 Co0 2.194 . S
N20 C15 1.328 . S
N20 C19 1.315 . S
H21 C15 0.929 . S
H22 C19 0.930 . S
H23 C11 0.929 . S
H24 C13 0.929 . S
O25 Co0 2.351 . S
O25 C28 1.244 . S
O26 Co0 2.155 . S
O26 C28 1.240 . S
O27 Co0 2.096 . S
O27 C8 1.247 . S
C28 O25 1.244 . S
C28 O26 1.240 . S
H29 C3 0.931 . S
H30 C12 0.931 . S
H31 C16 0.929 . S
H32 C18 0.930 . S
Co33 N37 2.148 . S
Co33 N43 2.128 . S
Co33 N53 2.194 . S
Co33 O58 2.351 1_556 S
Co33 O59 2.159 . S
Co33 O60 2.096 . S
C34 N37 1.301 1_554 S
C34 N38 1.328 . S
C34 H39 0.930 . S
C35 C36 1.333 . S
C35 N37 1.317 . S
C35 H40 0.930 . S
C36 C35 1.333 . S
C36 N38 1.350 1_556 S
C36 H62 0.931 . S
N37 Co33 2.148 . S
N37 C34 1.301 1_556 S
N37 C35 1.317 . S
N38 C34 1.328 . S
N38 C36 1.350 1_554 S
H39 C34 0.930 . S
H40 C35 0.930 . S
C41 O42 1.224 . S
C41 O60 1.247 . S
O42 C41 1.224 . S
N43 Co33 2.128 . S
N43 C44 1.355 . S
N43 C46 1.311 . S
C44 N43 1.355 . S
C44 C45 1.363 . S
C44 H56 0.929 . S
C45 C44 1.363 . S
C45 N47 1.375 . S
C45 H63 0.931 . S
C46 N43 1.311 . S
C46 N47 1.347 . S
C46 H57 0.929 . S
N47 C45 1.375 . S
N47 C46 1.347 . S
C48 C51 1.365 . S
C48 N53 1.328 . S
C48 H54 0.929 1_556 S
C49 C50 1.362 . S
C49 C52 1.378 . S
C49 H64 0.929 . S
C50 C49 1.362 . S
C50 C51 1.366 . S
C51 C48 1.365 . S
C51 C50 1.366 . S
C51 H65 0.930 1_556 S
C52 C49 1.378 . S
C52 N53 1.315 . S
C52 H55 0.930 . S
N53 Co33 2.194 . S
N53 C48 1.328 . S
N53 C52 1.315 . S
H54 C48 0.929 1_554 S
H55 C52 0.930 . S
H56 C44 0.929 . S
H57 C46 0.929 . S
O58 Co33 2.351 1_554 S
O58 C61 1.244 . S
O59 Co33 2.159 . S
O59 C61 1.234 1_556 S
O60 Co33 2.096 . S
O60 C41 1.247 . S
C61 O58 1.244 . S
C61 O59 1.234 1_554 S
H62 C36 0.931 . S
H63 C45 0.931 . S
H64 C49 0.929 . S
H65 C51 0.930 1_554 S
Co66 N70 2.148 . S
Co66 N76 2.128 . S
Co66 N86 2.194 . S
Co66 O91 2.351 . S
Co66 O92 2.155 . S
Co66 O93 2.096 . S
C67 N70 1.301 . S
C67 N71 1.328 . S
C67 H72 0.930 . S
C68 C69 1.333 . S
C68 N70 1.317 . S
C68 H73 0.930 . S
C69 C68 1.333 . S
C69 N71 1.350 . S
C69 H95 0.931 . S
N70 Co66 2.148 . S
N70 C67 1.301 . S
N70 C68 1.317 . S
N71 C67 1.328 . S
N71 C69 1.350 . S
H72 C67 0.930 . S
H73 C68 0.930 . S
C74 O75 1.224 . S
C74 O93 1.247 . S
O75 C74 1.224 . S
N76 Co66 2.128 . S
N76 C77 1.355 . S
N76 C79 1.311 . S
C77 N76 1.355 . S
C77 C78 1.363 1_655 S
C77 H89 0.929 . S
C78 C77 1.363 1_455 S
C78 N80 1.375 . S
C78 H96 0.931 . S
C79 N76 1.311 . S
C79 N80 1.347 1_655 S
C79 H90 0.929 . S
N80 C78 1.375 . S
N80 C79 1.347 1_455 S
C81 C84 1.365 . S
C81 N86 1.328 . S
C81 H87 0.929 . S
C82 C83 1.362 . S
C82 C85 1.378 . S
C82 H97 0.929 . S
C83 C82 1.362 . S
C83 C84 1.366 . S
C84 C81 1.365 . S
C84 C83 1.366 . S
C84 H98 0.930 . S
C85 C82 1.378 . S
C85 N86 1.315 . S
C85 H88 0.930 . S
N86 Co66 2.194 . S
N86 C81 1.328 . S
N86 C85 1.315 . S
H87 C81 0.929 . S
H88 C85 0.930 . S
H89 C77 0.929 . S
H90 C79 0.929 . S
O91 Co66 2.351 . S
O91 C94 1.244 . S
O92 Co66 2.155 . S
O92 C94 1.240 . S
O93 Co66 2.096 . S
O93 C74 1.247 . S
C94 O91 1.244 . S
C94 O92 1.240 . S
H95 C69 0.931 . S
H96 C78 0.931 . S
H97 C82 0.929 . S
H98 C84 0.930 . S
Co99 N103 2.148 . S
Co99 N109 2.128 . S
Co99 N119 2.194 . S
Co99 O124 2.351 1_556 S
Co99 O125 2.155 1_556 S
Co99 O126 2.096 . S
C100 N103 1.301 1_554 S
C100 N104 1.328 . S
C100 H105 0.930 . S
C101 C102 1.333 . S
C101 N103 1.317 . S
C101 H106 0.930 . S
C102 C101 1.333 . S
C102 N104 1.350 1_556 S
C102 H128 0.931 . S
N103 Co99 2.148 . S
N103 C100 1.301 1_556 S
N103 C101 1.317 . S
N104 C100 1.328 . S
N104 C102 1.350 1_554 S
H105 C100 0.930 . S
H106 C101 0.930 . S
C107 O108 1.224 . S
C107 O126 1.247 . S
O108 C107 1.224 . S
N109 Co99 2.128 . S
N109 C110 1.355 . S
N109 C112 1.311 . S
C110 N109 1.355 . S
C110 C111 1.363 . S
C110 H122 0.929 . S
C111 C110 1.363 . S
C111 N113 1.375 . S
C111 H129 0.931 . S
C112 N109 1.311 . S
C112 N113 1.347 . S
C112 H123 0.929 . S
N113 C111 1.375 . S
N113 C112 1.347 . S
C114 C117 1.365 . S
C114 N119 1.328 . S
C114 H120 0.929 1_556 S
C115 C116 1.362 . S
C115 C118 1.378 . S
C115 H130 0.929 . S
C116 C115 1.362 . S
C116 C117 1.366 . S
C117 C114 1.365 . S
C117 C116 1.366 . S
C117 H131 0.930 1_556 S
C118 C115 1.378 . S
C118 N119 1.315 . S
C118 H121 0.930 . S
N119 Co99 2.194 . S
N119 C114 1.328 . S
N119 C118 1.315 . S
H120 C114 0.929 1_554 S
H121 C118 0.930 . S
H122 C110 0.929 . S
H123 C112 0.929 . S
O124 Co99 2.351 1_554 S
O124 C127 1.244 . S
O125 Co99 2.155 1_554 S
O125 C127 1.240 . S
O126 Co99 2.096 . S
O126 C107 1.247 . S
C127 O124 1.244 . S
C127 O125 1.240 . S
H128 C102 0.931 . S
H129 C111 0.931 . S
H130 C115 0.929 . S
H131 C117 0.930 1_554 S
Co132 N136 2.148 . S
Co132 N142 2.128 . S
Co132 N152 2.194 . S
Co132 O157 2.351 . S
Co132 O158 2.155 . S
Co132 O159 2.096 . S
C133 N136 1.301 . S
C133 N137 1.328 . S
C133 H138 0.930 . S
C134 C135 1.333 . S
C134 N136 1.317 . S
C134 H139 0.930 . S
C135 C134 1.333 . S
C135 N137 1.350 . S
C135 H161 0.931 . S
N136 Co132 2.148 . S
N136 C133 1.301 . S
N136 C134 1.317 . S
N137 C133 1.328 . S
N137 C135 1.350 . S
H138 C133 0.930 . S
H139 C134 0.930 . S
C140 O141 1.224 . S
C140 O159 1.247 . S
O141 C140 1.224 . S
N142 Co132 2.128 . S
N142 C143 1.355 . S
N142 C145 1.311 . S
C143 N142 1.355 . S
C143 C144 1.363 1_455 S
C143 H155 0.929 . S
C144 C143 1.363 1_655 S
C144 N146 1.375 . S
C144 H162 0.931 . S
C145 N142 1.311 . S
C145 N146 1.347 1_455 S
C145 H156 0.929 . S
N146 C144 1.375 . S
N146 C145 1.347 1_655 S
C147 C150 1.365 . S
C147 N152 1.328 . S
C147 H153 0.929 . S
C148 C149 1.362 . S
C148 C151 1.378 . S
C148 H163 0.929 . S
C149 C148 1.362 . S
C149 C150 1.366 . S
C150 C147 1.365 . S
C150 C149 1.366 . S
C150 H164 0.930 . S
C151 C148 1.378 . S
C151 N152 1.315 . S
C151 H154 0.930 . S
N152 Co132 2.194 . S
N152 C147 1.328 . S
N152 C151 1.315 . S
H153 C147 0.929 . S
H154 C151 0.930 . S
H155 C143 0.929 . S
H156 C145 0.929 . S
O157 Co132 2.351 . S
O157 C160 1.244 . S
O158 Co132 2.155 . S
O158 C160 1.240 . S
O159 Co132 2.096 . S
O159 C140 1.247 . S
C160 O157 1.244 . S
C160 O158 1.240 . S
H161 C135 0.931 . S
H162 C144 0.931 . S
H163 C148 0.929 . S
H164 C150 0.930 . S
Co165 N169 2.148 . S
Co165 N175 2.128 . S
Co165 N185 2.194 . S
Co165 O190 2.351 1_554 S
Co165 O191 2.130 1_554 S
Co165 O192 2.096 . S
C166 N169 1.301 1_556 S
C166 N170 1.328 . S
C166 H171 0.930 . S
C167 C168 1.333 . S
C167 N169 1.317 . S
C167 H172 0.930 . S
C168 C167 1.333 . S
C168 N170 1.350 1_554 S
C168 H194 0.931 . S
N169 Co165 2.148 . S
N169 C166 1.301 1_554 S
N169 C167 1.317 . S
N170 C166 1.328 . S
N170 C168 1.350 1_556 S
H171 C166 0.930 . S
H172 C167 0.930 . S
C173 O174 1.224 . S
C173 O192 1.247 . S
O174 C173 1.224 . S
N175 Co165 2.128 . S
N175 C176 1.355 . S
N175 C178 1.311 . S
C176 N175 1.355 . S
C176 C177 1.363 . S
C176 H188 0.929 . S
C177 C176 1.363 . S
C177 N179 1.375 . S
C177 H195 0.931 . S
C178 N175 1.311 . S
C178 N179 1.347 . S
C178 H189 0.929 . S
N179 C177 1.375 . S
N179 C178 1.347 . S
C180 C183 1.365 . S
C180 N185 1.328 . S
C180 H186 0.929 1_554 S
C181 C182 1.362 . S
C181 C184 1.378 . S
C181 H196 0.929 . S
C182 C181 1.362 . S
C182 C183 1.366 . S
C183 C180 1.365 . S
C183 C182 1.366 . S
C183 H197 0.930 1_554 S
C184 C181 1.378 . S
C184 N185 1.315 . S
C184 H187 0.930 . S
N185 Co165 2.194 . S
N185 C180 1.328 . S
N185 C184 1.315 . S
H186 C180 0.929 1_556 S
H187 C184 0.930 . S
H188 C176 0.929 . S
H189 C178 0.929 . S
O190 Co165 2.351 1_556 S
O190 C193 1.244 . S
O191 Co165 2.130 1_556 S
O191 C193 1.274 . S
O192 Co165 2.096 . S
O192 C173 1.247 . S
C193 O190 1.244 . S
C193 O191 1.274 . S
H194 C168 0.931 . S
H195 C177 0.931 . S
H196 C181 0.929 . S
H197 C183 0.930 1_556 S
Co198 N202 2.148 . S
Co198 N208 2.128 . S
Co198 N218 2.194 . S
Co198 O223 2.351 . S
Co198 O224 2.155 . S
Co198 O225 2.096 . S
C199 N202 1.301 . S
C199 N203 1.328 . S
C199 H204 0.930 . S
C200 C201 1.333 . S
C200 N202 1.317 . S
C200 H205 0.930 . S
C201 C200 1.333 . S
C201 N203 1.350 . S
C201 H227 0.931 . S
N202 Co198 2.148 . S
N202 C199 1.301 . S
N202 C200 1.317 . S
N203 C199 1.328 . S
N203 C201 1.350 . S
H204 C199 0.930 . S
H205 C200 0.930 . S
C206 O207 1.224 . S
C206 O225 1.247 . S
O207 C206 1.224 . S
N208 Co198 2.128 . S
N208 C209 1.355 . S
N208 C211 1.311 . S
C209 N208 1.355 . S
C209 C210 1.363 1_655 S
C209 H221 0.929 . S
C210 C209 1.363 1_455 S
C210 N212 1.375 . S
C210 H228 0.931 . S
C211 N208 1.311 . S
C211 N212 1.347 1_655 S
C211 H222 0.929 . S
N212 C210 1.375 . S
N212 C211 1.347 1_455 S
C213 C216 1.365 . S
C213 N218 1.328 . S
C213 H219 0.929 . S
C214 C215 1.362 . S
C214 C217 1.378 . S
C214 H229 0.929 . S
C215 C214 1.362 . S
C215 C216 1.366 . S
C216 C213 1.365 . S
C216 C215 1.366 . S
C216 H230 0.930 . S
C217 C214 1.378 . S
C217 N218 1.315 . S
C217 H220 0.930 . S
N218 Co198 2.194 . S
N218 C213 1.328 . S
N218 C217 1.315 . S
H219 C213 0.929 . S
H220 C217 0.930 . S
H221 C209 0.929 . S
H222 C211 0.929 . S
O223 Co198 2.351 . S
O223 C226 1.244 . S
O224 Co198 2.155 . S
O224 C226 1.240 . S
O225 Co198 2.096 . S
O225 C206 1.247 . S
C226 O223 1.244 . S
C226 O224 1.240 . S
H227 C201 0.931 . S
H228 C210 0.931 . S
H229 C214 0.929 . S
H230 C216 0.930 . S
Co231 N235 2.148 . S
Co231 N241 2.128 . S
Co231 N251 2.194 . S
Co231 O256 2.351 1_554 S
Co231 O257 2.134 1_554 S
Co231 O258 2.096 . S
C232 N235 1.301 1_556 S
C232 N236 1.328 . S
C232 H237 0.930 . S
C233 C234 1.333 . S
C233 N235 1.317 . S
C233 H238 0.930 . S
C234 C233 1.333 . S
C234 N236 1.350 1_554 S
C234 H260 0.931 . S
N235 Co231 2.148 . S
N235 C232 1.301 1_554 S
N235 C233 1.317 . S
N236 C232 1.328 . S
N236 C234 1.350 1_556 S
H237 C232 0.930 . S
H238 C233 0.930 . S
C239 O240 1.224 . S
C239 O258 1.247 . S
O240 C239 1.224 . S
N241 Co231 2.128 . S
N241 C242 1.355 . S
N241 C244 1.311 . S
C242 N241 1.355 . S
C242 C243 1.363 . S
C242 H254 0.929 . S
C243 C242 1.363 . S
C243 N245 1.375 . S
C243 H261 0.931 . S
C244 N241 1.311 . S
C244 N245 1.347 . S
C244 H255 0.929 . S
N245 C243 1.375 . S
N245 C244 1.347 . S
C246 C249 1.365 . S
C246 N251 1.328 . S
C246 H252 0.929 1_554 S
C247 C248 1.362 . S
C247 C250 1.378 . S
C247 H262 0.929 . S
C248 C247 1.362 . S
C248 C249 1.366 . S
C249 C246 1.365 . S
C249 C248 1.366 . S
C249 H263 0.930 1_554 S
C250 C247 1.378 . S
C250 N251 1.315 . S
C250 H253 0.930 . S
N251 Co231 2.194 . S
N251 C246 1.328 . S
N251 C250 1.315 . S
H252 C246 0.929 1_556 S
H253 C250 0.930 . S
H254 C242 0.929 . S
H255 C244 0.929 . S
O256 Co231 2.351 1_556 S
O256 C259 1.244 . S
O257 Co231 2.134 1_556 S
O257 C259 1.268 . S
O258 Co231 2.096 . S
O258 C239 1.247 . S
C259 O256 1.244 . S
C259 O257 1.268 . S
H260 C234 0.931 . S
H261 C243 0.931 . S
H262 C247 0.929 . S
H263 C249 0.930 1_556 S
Co264 N268 2.148 . S
Co264 N274 2.128 . S
Co264 N284 2.194 . S
Co264 O289 2.351 . S
Co264 O290 2.155 . S
Co264 O291 2.096 . S
C265 N268 1.301 . S
C265 N269 1.328 . S
C265 H270 0.930 . S
C266 C267 1.333 . S
C266 N268 1.317 . S
C266 H271 0.930 . S
C267 C266 1.333 . S
C267 N269 1.350 . S
C267 H293 0.931 . S
N268 Co264 2.148 . S
N268 C265 1.301 . S
N268 C266 1.317 . S
N269 C265 1.328 . S
N269 C267 1.350 . S
H270 C265 0.930 . S
H271 C266 0.930 . S
C272 O273 1.224 . S
C272 O291 1.247 . S
O273 C272 1.224 . S
N274 Co264 2.128 . S
N274 C275 1.355 . S
N274 C277 1.311 . S
C275 N274 1.355 . S
C275 C276 1.363 1_545 S
C275 H287 0.929 . S
C276 C275 1.363 1_565 S
C276 N278 1.375 . S
C276 H294 0.931 . S
C277 N274 1.311 . S
C277 N278 1.347 1_545 S
C277 H288 0.929 . S
N278 C276 1.375 . S
N278 C277 1.347 1_565 S
C279 C282 1.365 . S
C279 N284 1.328 . S
C279 H285 0.929 . S
C280 C281 1.362 . S
C280 C283 1.378 . S
C280 H295 0.929 . S
C281 C280 1.362 . S
C281 C282 1.366 . S
C282 C279 1.365 . S
C282 C281 1.366 . S
C282 H296 0.930 . S
C283 C280 1.378 . S
C283 N284 1.315 . S
C283 H286 0.930 . S
N284 Co264 2.194 . S
N284 C279 1.328 . S
N284 C283 1.315 . S
H285 C279 0.929 . S
H286 C283 0.930 . S
H287 C275 0.929 . S
H288 C277 0.929 . S
O289 Co264 2.351 . S
O289 C292 1.244 . S
O290 Co264 2.155 . S
O290 C292 1.240 . S
O291 Co264 2.096 . S
O291 C272 1.247 . S
C292 O289 1.244 . S
C292 O290 1.240 . S
H293 C267 0.931 . S
H294 C276 0.931 . S
H295 C280 0.929 . S
H296 C282 0.930 . S
Co297 N301 2.148 . S
Co297 N307 2.128 . S
Co297 N317 2.194 . S
Co297 O322 2.351 . S
Co297 O323 2.155 . S
Co297 O324 2.096 . S
C298 N301 1.301 . S
C298 N302 1.328 . S
C298 H303 0.930 . S
C299 C300 1.333 . S
C299 N301 1.317 . S
C299 H304 0.930 . S
C300 C299 1.333 . S
C300 N302 1.350 . S
C300 H326 0.931 . S
N301 Co297 2.148 . S
N301 C298 1.301 . S
N301 C299 1.317 . S
N302 C298 1.328 . S
N302 C300 1.350 . S
H303 C298 0.930 . S
H304 C299 0.930 . S
C305 O306 1.224 . S
C305 O324 1.247 . S
O306 C305 1.224 . S
N307 Co297 2.128 . S
N307 C308 1.355 . S
N307 C310 1.311 . S
C308 N307 1.355 . S
C308 C309 1.363 . S
C308 H320 0.929 . S
C309 C308 1.363 . S
C309 N311 1.375 . S
C309 H327 0.931 . S
C310 N307 1.311 . S
C310 N311 1.347 . S
C310 H321 0.929 . S
N311 C309 1.375 . S
N311 C310 1.347 . S
C312 C315 1.365 . S
C312 N317 1.328 . S
C312 H318 0.929 . S
C313 C314 1.362 . S
C313 C316 1.378 . S
C313 H328 0.929 . S
C314 C313 1.362 . S
C314 C315 1.366 . S
C315 C312 1.365 . S
C315 C314 1.366 . S
C315 H329 0.930 . S
C316 C313 1.378 . S
C316 N317 1.315 . S
C316 H319 0.930 . S
N317 Co297 2.194 . S
N317 C312 1.328 . S
N317 C316 1.315 . S
H318 C312 0.929 . S
H319 C316 0.930 . S
H320 C308 0.929 . S
H321 C310 0.929 . S
O322 Co297 2.351 . S
O322 C325 1.244 . S
O323 Co297 2.155 . S
O323 C325 1.240 . S
O324 Co297 2.096 . S
O324 C305 1.247 . S
C325 O322 1.244 . S
C325 O323 1.240 . S
H326 C300 0.931 . S
H327 C309 0.931 . S
H328 C313 0.929 . S
H329 C315 0.930 . S
Co330 N334 2.148 . S
Co330 N340 2.128 . S
Co330 N350 2.194 . S
Co330 O355 2.351 . S
Co330 O356 2.155 . S
Co330 O357 2.096 . S
C331 N334 1.301 . S
C331 N335 1.328 . S
C331 H336 0.930 . S
C332 C333 1.333 . S
C332 N334 1.317 . S
C332 H337 0.930 . S
C333 C332 1.333 . S
C333 N335 1.350 . S
C333 H359 0.931 . S
N334 Co330 2.148 . S
N334 C331 1.301 . S
N334 C332 1.317 . S
N335 C331 1.328 . S
N335 C333 1.350 . S
H336 C331 0.930 . S
H337 C332 0.930 . S
C338 O339 1.224 . S
C338 O357 1.247 . S
O339 C338 1.224 . S
N340 Co330 2.128 . S
N340 C341 1.355 . S
N340 C343 1.311 . S
C341 N340 1.355 . S
C341 C342 1.363 . S
C341 H353 0.929 . S
C342 C341 1.363 . S
C342 N344 1.375 . S
C342 H360 0.931 . S
C343 N340 1.311 . S
C343 N344 1.347 . S
C343 H354 0.929 . S
N344 C342 1.375 . S
N344 C343 1.347 . S
C345 C348 1.365 . S
C345 N350 1.328 . S
C345 H351 0.929 . S
C346 C347 1.362 . S
C346 C349 1.378 . S
C346 H361 0.929 . S
C347 C346 1.362 . S
C347 C348 1.366 . S
C348 C345 1.365 . S
C348 C347 1.366 . S
C348 H362 0.930 . S
C349 C346 1.378 . S
C349 N350 1.315 . S
C349 H352 0.930 . S
N350 Co330 2.194 . S
N350 C345 1.328 . S
N350 C349 1.315 . S
H351 C345 0.929 . S
H352 C349 0.930 . S
H353 C341 0.929 . S
H354 C343 0.929 . S
O355 Co330 2.351 . S
O355 C358 1.244 . S
O356 Co330 2.155 . S
O356 C358 1.240 . S
O357 Co330 2.096 . S
O357 C338 1.247 . S
C358 O355 1.244 . S
C358 O356 1.240 . S
H359 C333 0.931 . S
H360 C342 0.931 . S
H361 C346 0.929 . S
H362 C348 0.930 . S
Co363 N367 2.148 . S
Co363 N373 2.128 . S
Co363 N383 2.194 . S
Co363 O388 2.351 . S
Co363 O389 2.155 . S
Co363 O390 2.096 1_545 S
C364 N367 1.301 . S
C364 N368 1.328 . S
C364 H369 0.930 . S
C365 C366 1.333 . S
C365 N367 1.317 . S
C365 H370 0.930 . S
C366 C365 1.333 . S
C366 N368 1.350 . S
C366 H392 0.931 . S
N367 Co363 2.148 . S
N367 C364 1.301 . S
N367 C365 1.317 . S
N368 C364 1.328 . S
N368 C366 1.350 . S
H369 C364 0.930 . S
H370 C365 0.930 . S
C371 O372 1.224 . S
C371 O390 1.247 . S
O372 C371 1.224 . S
N373 Co363 2.128 . S
N373 C374 1.355 . S
N373 C376 1.311 1_545 S
C374 N373 1.355 . S
C374 C375 1.363 . S
C374 H386 0.929 . S
C375 C374 1.363 . S
C375 N377 1.375 1_545 S
C375 H393 0.931 . S
C376 N373 1.311 1_565 S
C376 N377 1.347 . S
C376 H387 0.929 . S
N377 C375 1.375 1_565 S
N377 C376 1.347 . S
C378 C381 1.365 . S
C378 N383 1.328 . S
C378 H384 0.929 . S
C379 C380 1.362 . S
C379 C382 1.378 . S
C379 H394 0.929 1_545 S
C380 C379 1.362 . S
C380 C381 1.366 . S
C381 C378 1.365 . S
C381 C380 1.366 . S
C381 H395 0.930 . S
C382 C379 1.378 . S
C382 N383 1.315 . S
C382 H385 0.930 1_545 S
N383 Co363 2.194 . S
N383 C378 1.328 . S
N383 C382 1.315 . S
H384 C378 0.929 . S
H385 C382 0.930 1_565 S
H386 C374 0.929 . S
H387 C376 0.929 . S
O388 Co363 2.351 . S
O388 C391 1.244 . S
O389 Co363 2.155 . S
O389 C391 1.240 . S
O390 Co363 2.096 1_565 S
O390 C371 1.247 . S
C391 O388 1.244 . S
C391 O389 1.240 . S
H392 C366 0.931 . S
H393 C375 0.931 . S
H394 C379 0.929 1_565 S
H395 C381 0.930 . S
Co396 N400 2.148 . S
Co396 N406 2.128 . S
Co396 N416 2.194 . S
Co396 O421 2.351 . S
Co396 O422 2.155 . S
Co396 O423 2.096 . S
C397 N400 1.301 . S
C397 N401 1.328 . S
C397 H402 0.930 . S
C398 C399 1.333 . S
C398 N400 1.317 . S
C398 H403 0.930 . S
C399 C398 1.333 . S
C399 N401 1.350 . S
C399 H425 0.931 . S
N400 Co396 2.148 . S
N400 C397 1.301 . S
N400 C398 1.317 . S
N401 C397 1.328 . S
N401 C399 1.350 . S
H402 C397 0.930 . S
H403 C398 0.930 . S
C404 O405 1.224 . S
C404 O423 1.247 . S
O405 C404 1.224 . S
N406 Co396 2.128 . S
N406 C407 1.355 . S
N406 C409 1.311 . S
C407 N406 1.355 . S
C407 C408 1.363 1_565 S
C407 H419 0.929 . S
C408 C407 1.363 1_545 S
C408 N410 1.375 . S
C408 H426 0.931 . S
C409 N406 1.311 . S
C409 N410 1.347 1_565 S
C409 H420 0.929 . S
N410 C408 1.375 . S
N410 C409 1.347 1_545 S
C411 C414 1.365 . S
C411 N416 1.328 . S
C411 H417 0.929 . S
C412 C413 1.362 . S
C412 C415 1.378 . S
C412 H427 0.929 . S
C413 C412 1.362 . S
C413 C414 1.366 . S
C414 C411 1.365 . S
C414 C413 1.366 . S
C414 H428 0.930 . S
C415 C412 1.378 . S
C415 N416 1.315 . S
C415 H418 0.930 . S
N416 Co396 2.194 . S
N416 C411 1.328 . S
N416 C415 1.315 . S
H417 C411 0.929 . S
H418 C415 0.930 . S
H419 C407 0.929 . S
H420 C409 0.929 . S
O421 Co396 2.351 . S
O421 C424 1.244 . S
O422 Co396 2.155 . S
O422 C424 1.240 . S
O423 Co396 2.096 . S
O423 C404 1.247 . S
C424 O421 1.244 . S
C424 O422 1.240 . S
H425 C399 0.931 . S
H426 C408 0.931 . S
H427 C412 0.929 . S
H428 C414 0.930 . S
Co429 N433 2.148 . S
Co429 N439 2.128 . S
Co429 N449 2.194 . S
Co429 O454 2.351 . S
Co429 O455 2.155 . S
Co429 O456 2.096 . S
C430 N433 1.301 . S
C430 N434 1.328 . S
C430 H435 0.930 . S
C431 C432 1.333 . S
C431 N433 1.317 . S
C431 H436 0.930 . S
C432 C431 1.333 . S
C432 N434 1.350 . S
C432 H458 0.931 . S
N433 Co429 2.148 . S
N433 C430 1.301 . S
N433 C431 1.317 . S
N434 C430 1.328 . S
N434 C432 1.350 . S
H435 C430 0.930 . S
H436 C431 0.930 . S
C437 O438 1.224 . S
C437 O456 1.247 . S
O438 C437 1.224 . S
N439 Co429 2.128 . S
N439 C440 1.355 . S
N439 C442 1.311 . S
C440 N439 1.355 . S
C440 C441 1.363 . S
C440 H452 0.929 . S
C441 C440 1.363 . S
C441 N443 1.375 . S
C441 H459 0.931 . S
C442 N439 1.311 . S
C442 N443 1.347 . S
C442 H453 0.929 . S
N443 C441 1.375 . S
N443 C442 1.347 . S
C444 C447 1.365 . S
C444 N449 1.328 . S
C444 H450 0.929 . S
C445 C446 1.362 . S
C445 C448 1.378 . S
C445 H460 0.929 . S
C446 C445 1.362 . S
C446 C447 1.366 . S
C447 C444 1.365 . S
C447 C446 1.366 . S
C447 H461 0.930 . S
C448 C445 1.378 . S
C448 N449 1.315 . S
C448 H451 0.930 . S
N449 Co429 2.194 . S
N449 C444 1.328 . S
N449 C448 1.315 . S
H450 C444 0.929 . S
H451 C448 0.930 . S
H452 C440 0.929 . S
H453 C442 0.929 . S
O454 Co429 2.351 . S
O454 C457 1.244 . S
O455 Co429 2.155 . S
O455 C457 1.240 . S
O456 Co429 2.096 . S
O456 C437 1.247 . S
C457 O454 1.244 . S
C457 O455 1.240 . S
H458 C432 0.931 . S
H459 C441 0.931 . S
H460 C445 0.929 . S
H461 C447 0.930 . S
Co462 N466 2.148 . S
Co462 N472 2.128 . S
Co462 N482 2.194 . S
Co462 O487 2.351 . S
Co462 O488 2.155 . S
Co462 O489 2.096 . S
C463 N466 1.301 . S
C463 N467 1.328 . S
C463 H468 0.930 . S
C464 C465 1.333 . S
C464 N466 1.317 . S
C464 H469 0.930 . S
C465 C464 1.333 . S
C465 N467 1.350 . S
C465 H491 0.931 . S
N466 Co462 2.148 . S
N466 C463 1.301 . S
N466 C464 1.317 . S
N467 C463 1.328 . S
N467 C465 1.350 . S
H468 C463 0.930 . S
H469 C464 0.930 . S
C470 O471 1.224 . S
C470 O489 1.247 . S
O471 C470 1.224 . S
N472 Co462 2.128 . S
N472 C473 1.355 . S
N472 C475 1.311 . S
C473 N472 1.355 . S
C473 C474 1.363 . S
C473 H485 0.929 . S
C474 C473 1.363 . S
C474 N476 1.375 . S
C474 H492 0.931 . S
C475 N472 1.311 . S
C475 N476 1.347 . S
C475 H486 0.929 . S
N476 C474 1.375 . S
N476 C475 1.347 . S
C477 C480 1.365 . S
C477 N482 1.328 . S
C477 H483 0.929 . S
C478 C479 1.362 . S
C478 C481 1.378 . S
C478 H493 0.929 . S
C479 C478 1.362 . S
C479 C480 1.366 . S
C480 C477 1.365 . S
C480 C479 1.366 . S
C480 H494 0.930 . S
C481 C478 1.378 . S
C481 N482 1.315 . S
C481 H484 0.930 . S
N482 Co462 2.194 . S
N482 C477 1.328 . S
N482 C481 1.315 . S
H483 C477 0.929 . S
H484 C481 0.930 . S
H485 C473 0.929 . S
H486 C475 0.929 . S
O487 Co462 2.351 . S
O487 C490 1.244 . S
O488 Co462 2.155 . S
O488 C490 1.240 . S
O489 Co462 2.096 . S
O489 C470 1.247 . S
C490 O487 1.244 . S
C490 O488 1.240 . S
H491 C465 0.931 . S
H492 C474 0.931 . S
H493 C478 0.929 . S
H494 C480 0.930 . S
Co495 N499 2.148 . S
Co495 N505 2.128 . S
Co495 N515 2.194 . S
Co495 O520 2.351 1_545 S
Co495 O521 2.135 1_545 S
Co495 O522 2.096 . S
C496 N499 1.301 1_565 S
C496 N500 1.328 . S
C496 H501 0.930 . S
C497 C498 1.333 . S
C497 N499 1.317 . S
C497 H502 0.930 . S
C498 C497 1.333 . S
C498 N500 1.350 1_545 S
C498 H524 0.931 . S
N499 Co495 2.148 . S
N499 C496 1.301 1_545 S
N499 C497 1.317 . S
N500 C496 1.328 . S
N500 C498 1.350 1_565 S
H501 C496 0.930 . S
H502 C497 0.930 . S
C503 O504 1.224 . S
C503 O522 1.247 . S
O504 C503 1.224 . S
N505 Co495 2.128 . S
N505 C506 1.355 . S
N505 C508 1.311 . S
C506 N505 1.355 . S
C506 C507 1.363 . S
C506 H518 0.929 . S
C507 C506 1.363 . S
C507 N509 1.375 . S
C507 H525 0.931 . S
C508 N505 1.311 . S
C508 N509 1.347 . S
C508 H519 0.929 . S
N509 C507 1.375 . S
N509 C508 1.347 . S
C510 C513 1.365 . S
C510 N515 1.328 . S
C510 H516 0.929 1_545 S
C511 C512 1.362 . S
C511 C514 1.378 . S
C511 H526 0.929 . S
C512 C511 1.362 . S
C512 C513 1.366 . S
C513 C510 1.365 . S
C513 C512 1.366 . S
C513 H527 0.930 1_545 S
C514 C511 1.378 . S
C514 N515 1.315 . S
C514 H517 0.930 . S
N515 Co495 2.194 . S
N515 C510 1.328 . S
N515 C514 1.315 . S
H516 C510 0.929 1_565 S
H517 C514 0.930 . S
H518 C506 0.929 . S
H519 C508 0.929 . S
O520 Co495 2.351 1_565 S
O520 C523 1.244 . S
O521 Co495 2.135 1_565 S
O521 C523 1.267 . S
O522 Co495 2.096 . S
O522 C503 1.247 . S
C523 O520 1.244 . S
C523 O521 1.267 . S
H524 C498 0.931 . S
H525 C507 0.931 . S
H526 C511 0.929 . S
H527 C513 0.930 1_565 S
Co528 N532 2.148 . S
Co528 N538 2.128 . S
Co528 N548 2.194 . S
Co528 O553 2.351 . S
Co528 O554 2.155 . S
Co528 O555 2.096 . S
C529 N532 1.301 . S
C529 N533 1.328 . S
C529 H534 0.930 . S
C530 C531 1.333 . S
C530 N532 1.317 . S
C530 H535 0.930 . S
C531 C530 1.333 . S
C531 N533 1.350 . S
C531 H557 0.931 . S
N532 Co528 2.148 . S
N532 C529 1.301 . S
N532 C530 1.317 . S
N533 C529 1.328 . S
N533 C531 1.350 . S
H534 C529 0.930 . S
H535 C530 0.930 . S
C536 O537 1.224 . S
C536 O555 1.247 . S
O537 C536 1.224 . S
N538 Co528 2.128 . S
N538 C539 1.355 . S
N538 C541 1.311 . S
C539 N538 1.355 . S
C539 C540 1.363 1_554 S
C539 H551 0.929 . S
C540 C539 1.363 1_556 S
C540 N542 1.375 . S
C540 H558 0.931 . S
C541 N538 1.311 . S
C541 N542 1.347 1_554 S
C541 H552 0.929 . S
N542 C540 1.375 . S
N542 C541 1.347 1_556 S
C543 C546 1.365 . S
C543 N548 1.328 . S
C543 H549 0.929 . S
C544 C545 1.362 . S
C544 C547 1.378 . S
C544 H559 0.929 . S
C545 C544 1.362 . S
C545 C546 1.366 . S
C546 C543 1.365 . S
C546 C545 1.366 . S
C546 H560 0.930 . S
C547 C544 1.378 . S
C547 N548 1.315 . S
C547 H550 0.930 . S
N548 Co528 2.194 . S
N548 C543 1.328 . S
N548 C547 1.315 . S
H549 C543 0.929 . S
H550 C547 0.930 . S
H551 C539 0.929 . S
H552 C541 0.929 . S
O553 Co528 2.351 . S
O553 C556 1.244 . S
O554 Co528 2.155 . S
O554 C556 1.240 . S
O555 Co528 2.096 . S
O555 C536 1.247 . S
C556 O553 1.244 . S
C556 O554 1.240 . S
H557 C531 0.931 . S
H558 C540 0.931 . S
H559 C544 0.929 . S
H560 C546 0.930 . S
Co561 N565 2.148 . S
Co561 N571 2.128 . S
Co561 N581 2.194 . S
Co561 O586 2.351 . S
Co561 O587 2.155 . S
Co561 O588 2.096 . S
C562 N565 1.301 . S
C562 N566 1.328 . S
C562 H567 0.930 . S
C563 C564 1.333 . S
C563 N565 1.317 . S
C563 H568 0.930 . S
C564 C563 1.333 . S
C564 N566 1.350 . S
C564 H590 0.931 . S
N565 Co561 2.148 . S
N565 C562 1.301 . S
N565 C563 1.317 . S
N566 C562 1.328 . S
N566 C564 1.350 . S
H567 C562 0.930 . S
H568 C563 0.930 . S
C569 O570 1.224 . S
C569 O588 1.247 . S
O570 C569 1.224 . S
N571 Co561 2.128 . S
N571 C572 1.355 . S
N571 C574 1.311 . S
C572 N571 1.355 . S
C572 C573 1.363 . S
C572 H584 0.929 . S
C573 C572 1.363 . S
C573 N575 1.375 . S
C573 H591 0.931 . S
C574 N571 1.311 . S
C574 N575 1.347 . S
C574 H585 0.929 . S
N575 C573 1.375 . S
N575 C574 1.347 . S
C576 C579 1.365 . S
C576 N581 1.328 . S
C576 H582 0.929 . S
C577 C578 1.362 . S
C577 C580 1.378 . S
C577 H592 0.929 . S
C578 C577 1.362 . S
C578 C579 1.366 . S
C579 C576 1.365 . S
C579 C578 1.366 . S
C579 H593 0.930 . S
C580 C577 1.378 . S
C580 N581 1.315 . S
C580 H583 0.930 . S
N581 Co561 2.194 . S
N581 C576 1.328 . S
N581 C580 1.315 . S
H582 C576 0.929 . S
H583 C580 0.930 . S
H584 C572 0.929 . S
H585 C574 0.929 . S
O586 Co561 2.351 . S
O586 C589 1.244 . S
O587 Co561 2.155 . S
O587 C589 1.240 . S
O588 Co561 2.096 . S
O588 C569 1.247 . S
C589 O586 1.244 . S
C589 O587 1.240 . S
H590 C564 0.931 . S
H591 C573 0.931 . S
H592 C577 0.929 . S
H593 C579 0.930 . S
Co594 N598 2.148 . S
Co594 N604 2.128 . S
Co594 N614 2.194 . S
Co594 O619 2.351 1_655 S
Co594 O620 2.155 1_655 S
Co594 O621 2.096 . S
C595 N598 1.301 1_455 S
C595 N599 1.328 . S
C595 H600 0.930 . S
C596 C597 1.333 . S
C596 N598 1.317 . S
C596 H601 0.930 . S
C597 C596 1.333 . S
C597 N599 1.350 1_655 S
C597 H623 0.931 . S
N598 Co594 2.148 . S
N598 C595 1.301 1_655 S
N598 C596 1.317 . S
N599 C595 1.328 . S
N599 C597 1.350 1_455 S
H600 C595 0.930 . S
H601 C596 0.930 . S
C602 O603 1.224 . S
C602 O621 1.247 . S
O603 C602 1.224 . S
N604 Co594 2.128 . S
N604 C605 1.355 . S
N604 C607 1.311 . S
C605 N604 1.355 . S
C605 C606 1.363 . S
C605 H617 0.929 . S
C606 C605 1.363 . S
C606 N608 1.375 . S
C606 H624 0.931 . S
C607 N604 1.311 . S
C607 N608 1.347 . S
C607 H618 0.929 . S
N608 C606 1.375 . S
N608 C607 1.347 . S
C609 C612 1.365 . S
C609 N614 1.328 . S
C609 H615 0.929 1_655 S
C610 C611 1.362 . S
C610 C613 1.378 . S
C610 H625 0.929 . S
C611 C610 1.362 . S
C611 C612 1.366 . S
C612 C609 1.365 . S
C612 C611 1.366 . S
C612 H626 0.930 1_655 S
C613 C610 1.378 . S
C613 N614 1.315 . S
C613 H616 0.930 . S
N614 Co594 2.194 . S
N614 C609 1.328 . S
N614 C613 1.315 . S
H615 C609 0.929 1_455 S
H616 C613 0.930 . S
H617 C605 0.929 . S
H618 C607 0.929 . S
O619 Co594 2.351 1_455 S
O619 C622 1.244 . S
O620 Co594 2.155 1_455 S
O620 C622 1.240 . S
O621 Co594 2.096 . S
O621 C602 1.247 . S
C622 O619 1.244 . S
C622 O620 1.240 . S
H623 C597 0.931 . S
H624 C606 0.931 . S
H625 C610 0.929 . S
H626 C612 0.930 1_455 S
Co627 N631 2.148 . S
Co627 N637 2.128 . S
Co627 N647 2.194 . S
Co627 O652 2.351 . S
Co627 O653 2.155 . S
Co627 O654 2.096 . S
C628 N631 1.301 . S
C628 N632 1.328 . S
C628 H633 0.930 . S
C629 C630 1.333 . S
C629 N631 1.317 . S
C629 H634 0.930 . S
C630 C629 1.333 . S
C630 N632 1.350 . S
C630 H656 0.931 . S
N631 Co627 2.148 . S
N631 C628 1.301 . S
N631 C629 1.317 . S
N632 C628 1.328 . S
N632 C630 1.350 . S
H633 C628 0.930 . S
H634 C629 0.930 . S
C635 O636 1.224 . S
C635 O654 1.247 . S
O636 C635 1.224 . S
N637 Co627 2.128 . S
N637 C638 1.355 . S
N637 C640 1.311 . S
C638 N637 1.355 . S
C638 C639 1.363 . S
C638 H650 0.929 . S
C639 C638 1.363 . S
C639 N641 1.375 . S
C639 H657 0.931 . S
C640 N637 1.311 . S
C640 N641 1.347 . S
C640 H651 0.929 . S
N641 C639 1.375 . S
N641 C640 1.347 . S
C642 C645 1.365 . S
C642 N647 1.328 . S
C642 H648 0.929 . S
C643 C644 1.362 . S
C643 C646 1.378 . S
C643 H658 0.929 . S
C644 C643 1.362 . S
C644 C645 1.366 . S
C645 C642 1.365 . S
C645 C644 1.366 . S
C645 H659 0.930 . S
C646 C643 1.378 . S
C646 N647 1.315 . S
C646 H649 0.930 . S
N647 Co627 2.194 . S
N647 C642 1.328 . S
N647 C646 1.315 . S
H648 C642 0.929 . S
H649 C646 0.930 . S
H650 C638 0.929 . S
H651 C640 0.929 . S
O652 Co627 2.351 . S
O652 C655 1.244 . S
O653 Co627 2.155 . S
O653 C655 1.240 . S
O654 Co627 2.096 . S
O654 C635 1.247 . S
C655 O652 1.244 . S
C655 O653 1.240 . S
H656 C630 0.931 . S
H657 C639 0.931 . S
H658 C643 0.929 . S
H659 C645 0.930 . S
Co660 N664 2.148 . S
Co660 N670 2.128 . S
Co660 N680 2.194 . S
Co660 O685 2.351 . S
Co660 O686 2.155 . S
Co660 O687 2.096 . S
C661 N664 1.301 . S
C661 N665 1.328 . S
C661 H666 0.930 . S
C662 C663 1.333 . S
C662 N664 1.317 . S
C662 H667 0.930 . S
C663 C662 1.333 . S
C663 N665 1.350 . S
C663 H689 0.931 . S
N664 Co660 2.148 . S
N664 C661 1.301 . S
N664 C662 1.317 . S
N665 C661 1.328 . S
N665 C663 1.350 . S
H666 C661 0.930 . S
H667 C662 0.930 . S
C668 O669 1.224 . S
C668 O687 1.247 . S
O669 C668 1.224 . S
N670 Co660 2.128 . S
N670 C671 1.355 . S
N670 C673 1.311 . S
C671 N670 1.355 . S
C671 C672 1.363 . S
C671 H683 0.929 . S
C672 C671 1.363 . S
C672 N674 1.375 . S
C672 H690 0.931 . S
C673 N670 1.311 . S
C673 N674 1.347 . S
C673 H684 0.929 . S
N674 C672 1.375 . S
N674 C673 1.347 . S
C675 C678 1.365 . S
C675 N680 1.328 . S
C675 H681 0.929 . S
C676 C677 1.362 . S
C676 C679 1.378 . S
C676 H691 0.929 . S
C677 C676 1.362 . S
C677 C678 1.366 . S
C678 C675 1.365 . S
C678 C677 1.366 . S
C678 H692 0.930 . S
C679 C676 1.378 . S
C679 N680 1.315 . S
C679 H682 0.930 . S
N680 Co660 2.194 . S
N680 C675 1.328 . S
N680 C679 1.315 . S
H681 C675 0.929 . S
H682 C679 0.930 . S
H683 C671 0.929 . S
H684 C673 0.929 . S
O685 Co660 2.351 . S
O685 C688 1.244 . S
O686 Co660 2.155 . S
O686 C688 1.240 . S
O687 Co660 2.096 . S
O687 C668 1.247 . S
C688 O685 1.244 . S
C688 O686 1.240 . S
H689 C663 0.931 . S
H690 C672 0.931 . S
H691 C676 0.929 . S
H692 C678 0.930 . S
Co693 N697 2.148 . S
Co693 N703 2.128 . S
Co693 N713 2.194 . S
Co693 O718 2.351 . S
Co693 O719 2.155 . S
Co693 O720 2.096 . S
C694 N697 1.301 . S
C694 N698 1.328 . S
C694 H699 0.930 . S
C695 C696 1.333 . S
C695 N697 1.317 . S
C695 H700 0.930 . S
C696 C695 1.333 . S
C696 N698 1.350 . S
C696 H722 0.931 . S
N697 Co693 2.148 . S
N697 C694 1.301 . S
N697 C695 1.317 . S
N698 C694 1.328 . S
N698 C696 1.350 . S
H699 C694 0.930 . S
H700 C695 0.930 . S
C701 O702 1.224 . S
C701 O720 1.247 . S
O702 C701 1.224 . S
N703 Co693 2.128 . S
N703 C704 1.355 . S
N703 C706 1.311 . S
C704 N703 1.355 . S
C704 C705 1.363 . S
C704 H716 0.929 . S
C705 C704 1.363 . S
C705 N707 1.375 . S
C705 H723 0.931 . S
C706 N703 1.311 . S
C706 N707 1.347 . S
C706 H717 0.929 . S
N707 C705 1.375 . S
N707 C706 1.347 . S
C708 C711 1.365 . S
C708 N713 1.328 . S
C708 H714 0.929 . S
C709 C710 1.362 . S
C709 C712 1.378 . S
C709 H724 0.929 . S
C710 C709 1.362 . S
C710 C711 1.366 . S
C711 C708 1.365 . S
C711 C710 1.366 . S
C711 H725 0.930 . S
C712 C709 1.378 . S
C712 N713 1.315 . S
C712 H715 0.930 . S
N713 Co693 2.194 . S
N713 C708 1.328 . S
N713 C712 1.315 . S
H714 C708 0.929 . S
H715 C712 0.930 . S
H716 C704 0.929 . S
H717 C706 0.929 . S
O718 Co693 2.351 . S
O718 C721 1.244 . S
O719 Co693 2.155 . S
O719 C721 1.240 . S
O720 Co693 2.096 . S
O720 C701 1.247 . S
C721 O718 1.244 . S
C721 O719 1.240 . S
H722 C696 0.931 . S
H723 C705 0.931 . S
H724 C709 0.929 . S
H725 C711 0.930 . S
Co726 N730 2.148 . S
Co726 N736 2.128 . S
Co726 N746 2.194 . S
Co726 O751 2.351 1_655 S
Co726 O752 2.137 1_655 S
Co726 O753 2.096 . S
C727 N730 1.301 1_455 S
C727 N731 1.328 . S
C727 H732 0.930 . S
C728 C729 1.333 . S
C728 N730 1.317 . S
C728 H733 0.930 . S
C729 C728 1.333 . S
C729 N731 1.350 1_655 S
C729 H755 0.931 . S
N730 Co726 2.148 . S
N730 C727 1.301 1_655 S
N730 C728 1.317 . S
N731 C727 1.328 . S
N731 C729 1.350 1_455 S
H732 C727 0.930 . S
H733 C728 0.930 . S
C734 O735 1.224 . S
C734 O753 1.247 . S
O735 C734 1.224 . S
N736 Co726 2.128 . S
N736 C737 1.355 . S
N736 C739 1.311 . S
C737 N736 1.355 . S
C737 C738 1.363 . S
C737 H749 0.929 . S
C738 C737 1.363 . S
C738 N740 1.375 . S
C738 H756 0.931 . S
C739 N736 1.311 . S
C739 N740 1.347 . S
C739 H750 0.929 . S
N740 C738 1.375 . S
N740 C739 1.347 . S
C741 C744 1.365 . S
C741 N746 1.328 . S
C741 H747 0.929 1_655 S
C742 C743 1.362 . S
C742 C745 1.378 . S
C742 H757 0.929 . S
C743 C742 1.362 . S
C743 C744 1.366 . S
C744 C741 1.365 . S
C744 C743 1.366 . S
C744 H758 0.930 1_655 S
C745 C742 1.378 . S
C745 N746 1.315 . S
C745 H748 0.930 . S
N746 Co726 2.194 . S
N746 C741 1.328 . S
N746 C745 1.315 . S
H747 C741 0.929 1_455 S
H748 C745 0.930 . S
H749 C737 0.929 . S
H750 C739 0.929 . S
O751 Co726 2.351 1_455 S
O751 C754 1.244 . S
O752 Co726 2.137 1_455 S
O752 C754 1.263 . S
O753 Co726 2.096 . S
O753 C734 1.247 . S
C754 O751 1.244 . S
C754 O752 1.263 . S
H755 C729 0.931 . S
H756 C738 0.931 . S
H757 C742 0.929 . S
H758 C744 0.930 1_455 S
Co759 N763 2.148 . S
Co759 N769 2.128 . S
Co759 N779 2.194 . S
Co759 O784 2.351 . S
Co759 O785 2.155 . S
Co759 O786 2.096 1_455 S
C760 N763 1.301 . S
C760 N764 1.328 . S
C760 H765 0.930 . S
C761 C762 1.333 . S
C761 N763 1.317 . S
C761 H766 0.930 . S
C762 C761 1.333 . S
C762 N764 1.350 . S
C762 H788 0.931 . S
N763 Co759 2.148 . S
N763 C760 1.301 . S
N763 C761 1.317 . S
N764 C760 1.328 . S
N764 C762 1.350 . S
H765 C760 0.930 . S
H766 C761 0.930 . S
C767 O768 1.224 . S
C767 O786 1.247 . S
O768 C767 1.224 . S
N769 Co759 2.128 . S
N769 C770 1.355 . S
N769 C772 1.311 1_455 S
C770 N769 1.355 . S
C770 C771 1.363 . S
C770 H782 0.929 . S
C771 C770 1.363 . S
C771 N773 1.375 1_455 S
C771 H789 0.931 . S
C772 N769 1.311 1_655 S
C772 N773 1.347 . S
C772 H783 0.929 . S
N773 C771 1.375 1_655 S
N773 C772 1.347 . S
C774 C777 1.365 . S
C774 N779 1.328 . S
C774 H780 0.929 . S
C775 C776 1.362 . S
C775 C778 1.378 . S
C775 H790 0.929 1_455 S
C776 C775 1.362 . S
C776 C777 1.366 . S
C777 C774 1.365 . S
C777 C776 1.366 . S
C777 H791 0.930 . S
C778 C775 1.378 . S
C778 N779 1.315 . S
C778 H781 0.930 1_455 S
N779 Co759 2.194 . S
N779 C774 1.328 . S
N779 C778 1.315 . S
H780 C774 0.929 . S
H781 C778 0.930 1_655 S
H782 C770 0.929 . S
H783 C772 0.929 . S
O784 Co759 2.351 . S
O784 C787 1.244 . S
O785 Co759 2.155 . S
O785 C787 1.240 . S
O786 Co759 2.096 1_655 S
O786 C767 1.247 . S
C787 O784 1.244 . S
C787 O785 1.240 . S
H788 C762 0.931 . S
H789 C771 0.931 . S
H790 C775 0.929 1_655 S
H791 C777 0.930 . S
Co792 N796 2.148 . S
Co792 N802 2.128 . S
Co792 N812 2.194 . S
Co792 O817 2.351 . S
Co792 O818 2.155 . S
Co792 O819 2.096 . S
C793 N796 1.301 . S
C793 N797 1.328 . S
C793 H798 0.930 . S
C794 C795 1.333 . S
C794 N796 1.317 . S
C794 H799 0.930 . S
C795 C794 1.333 . S
C795 N797 1.350 . S
C795 H821 0.931 . S
N796 Co792 2.148 . S
N796 C793 1.301 . S
N796 C794 1.317 . S
N797 C793 1.328 . S
N797 C795 1.350 . S
H798 C793 0.930 . S
H799 C794 0.930 . S
C800 O801 1.224 . S
C800 O819 1.247 . S
O801 C800 1.224 . S
N802 Co792 2.128 . S
N802 C803 1.355 . S
N802 C805 1.311 . S
C803 N802 1.355 . S
C803 C804 1.363 . S
C803 H815 0.929 . S
C804 C803 1.363 . S
C804 N806 1.375 . S
C804 H822 0.931 . S
C805 N802 1.311 . S
C805 N806 1.347 . S
C805 H816 0.929 . S
N806 C804 1.375 . S
N806 C805 1.347 . S
C807 C810 1.365 . S
C807 N812 1.328 . S
C807 H813 0.929 . S
C808 C809 1.362 . S
C808 C811 1.378 . S
C808 H823 0.929 . S
C809 C808 1.362 . S
C809 C810 1.366 . S
C810 C807 1.365 . S
C810 C809 1.366 . S
C810 H824 0.930 . S
C811 C808 1.378 . S
C811 N812 1.315 . S
C811 H814 0.930 . S
N812 Co792 2.194 . S
N812 C807 1.328 . S
N812 C811 1.315 . S
H813 C807 0.929 . S
H814 C811 0.930 . S
H815 C803 0.929 . S
H816 C805 0.929 . S
O817 Co792 2.351 . S
O817 C820 1.244 . S
O818 Co792 2.155 . S
O818 C820 1.240 . S
O819 Co792 2.096 . S
O819 C800 1.247 . S
C820 O817 1.244 . S
C820 O818 1.240 . S
H821 C795 0.931 . S
H822 C804 0.931 . S
H823 C808 0.929 . S
H824 C810 0.930 . S
Co825 N829 2.148 . S
Co825 N835 2.128 . S
Co825 N845 2.194 . S
Co825 O850 2.351 . S
Co825 O851 2.155 . S
Co825 O852 2.096 . S
C826 N829 1.301 . S
C826 N830 1.328 . S
C826 H831 0.930 . S
C827 C828 1.333 . S
C827 N829 1.317 . S
C827 H832 0.930 . S
C828 C827 1.333 . S
C828 N830 1.350 . S
C828 H854 0.931 . S
N829 Co825 2.148 . S
N829 C826 1.301 . S
N829 C827 1.317 . S
N830 C826 1.328 . S
N830 C828 1.350 . S
H831 C826 0.930 . S
H832 C827 0.930 . S
C833 O834 1.224 . S
C833 O852 1.247 . S
O834 C833 1.224 . S
N835 Co825 2.128 . S
N835 C836 1.355 . S
N835 C838 1.311 . S
C836 N835 1.355 . S
C836 C837 1.363 . S
C836 H848 0.929 . S
C837 C836 1.363 . S
C837 N839 1.375 . S
C837 H855 0.931 . S
C838 N835 1.311 . S
C838 N839 1.347 . S
C838 H849 0.929 . S
N839 C837 1.375 . S
N839 C838 1.347 . S
C840 C843 1.365 . S
C840 N845 1.328 . S
C840 H846 0.929 . S
C841 C842 1.362 . S
C841 C844 1.378 . S
C841 H856 0.929 . S
C842 C841 1.362 . S
C842 C843 1.366 . S
C843 C840 1.365 . S
C843 C842 1.366 . S
C843 H857 0.930 . S
C844 C841 1.378 . S
C844 N845 1.315 . S
C844 H847 0.930 . S
N845 Co825 2.194 . S
N845 C840 1.328 . S
N845 C844 1.315 . S
H846 C840 0.929 . S
H847 C844 0.930 . S
H848 C836 0.929 . S
H849 C838 0.929 . S
O850 Co825 2.351 . S
O850 C853 1.244 . S
O851 Co825 2.155 . S
O851 C853 1.240 . S
O852 Co825 2.096 . S
O852 C833 1.247 . S
C853 O850 1.244 . S
C853 O851 1.240 . S
H854 C828 0.931 . S
H855 C837 0.931 . S
H856 C841 0.929 . S
H857 C843 0.930 . S
Co858 N862 2.148 . S
Co858 N868 2.128 . S
Co858 N878 2.194 . S
Co858 O883 2.351 . S
Co858 O884 2.155 . S
Co858 O885 2.096 . S
C859 N862 1.301 . S
C859 N863 1.328 . S
C859 H864 0.930 . S
C860 C861 1.333 . S
C860 N862 1.317 . S
C860 H865 0.930 . S
C861 C860 1.333 . S
C861 N863 1.350 . S
C861 H887 0.931 . S
N862 Co858 2.148 . S
N862 C859 1.301 . S
N862 C860 1.317 . S
N863 C859 1.328 . S
N863 C861 1.350 . S
H864 C859 0.930 . S
H865 C860 0.930 . S
C866 O867 1.224 . S
C866 O885 1.247 . S
O867 C866 1.224 . S
N868 Co858 2.128 . S
N868 C869 1.355 . S
N868 C871 1.311 . S
C869 N868 1.355 . S
C869 C870 1.363 . S
C869 H881 0.929 . S
C870 C869 1.363 . S
C870 N872 1.375 . S
C870 H888 0.931 . S
C871 N868 1.311 . S
C871 N872 1.347 . S
C871 H882 0.929 . S
N872 C870 1.375 . S
N872 C871 1.347 . S
C873 C876 1.365 . S
C873 N878 1.328 . S
C873 H879 0.929 . S
C874 C875 1.362 . S
C874 C877 1.378 . S
C874 H889 0.929 . S
C875 C874 1.362 . S
C875 C876 1.366 . S
C876 C873 1.365 . S
C876 C875 1.366 . S
C876 H890 0.930 . S
C877 C874 1.378 . S
C877 N878 1.315 . S
C877 H880 0.930 . S
N878 Co858 2.194 . S
N878 C873 1.328 . S
N878 C877 1.315 . S
H879 C873 0.929 . S
H880 C877 0.930 . S
H881 C869 0.929 . S
H882 C871 0.929 . S
O883 Co858 2.351 . S
O883 C886 1.244 . S
O884 Co858 2.155 . S
O884 C886 1.240 . S
O885 Co858 2.096 . S
O885 C866 1.247 . S
C886 O883 1.244 . S
C886 O884 1.240 . S
H887 C861 0.931 . S
H888 C870 0.931 . S
H889 C874 0.929 . S
H890 C876 0.930 . S
Co891 N895 2.148 . S
Co891 N901 2.128 . S
Co891 N911 2.194 . S
Co891 O916 2.351 . S
Co891 O917 2.155 . S
Co891 O918 2.096 . S
C892 N895 1.301 . S
C892 N896 1.328 . S
C892 H897 0.930 . S
C893 C894 1.333 . S
C893 N895 1.317 . S
C893 H898 0.930 . S
C894 C893 1.333 . S
C894 N896 1.350 . S
C894 H920 0.931 . S
N895 Co891 2.148 . S
N895 C892 1.301 . S
N895 C893 1.317 . S
N896 C892 1.328 . S
N896 C894 1.350 . S
H897 C892 0.930 . S
H898 C893 0.930 . S
C899 O900 1.224 . S
C899 O918 1.247 . S
O900 C899 1.224 . S
N901 Co891 2.128 . S
N901 C902 1.355 . S
N901 C904 1.311 . S
C902 N901 1.355 . S
C902 C903 1.363 . S
C902 H914 0.929 . S
C903 C902 1.363 . S
C903 N905 1.375 . S
C903 H921 0.931 . S
C904 N901 1.311 . S
C904 N905 1.347 . S
C904 H915 0.929 . S
N905 C903 1.375 . S
N905 C904 1.347 . S
C906 C909 1.365 . S
C906 N911 1.328 . S
C906 H912 0.929 . S
C907 C908 1.362 . S
C907 C910 1.378 . S
C907 H922 0.929 . S
C908 C907 1.362 . S
C908 C909 1.366 . S
C909 C906 1.365 . S
C909 C908 1.366 . S
C909 H923 0.930 . S
C910 C907 1.378 . S
C910 N911 1.315 . S
C910 H913 0.930 . S
N911 Co891 2.194 . S
N911 C906 1.328 . S
N911 C910 1.315 . S
H912 C906 0.929 . S
H913 C910 0.930 . S
H914 C902 0.929 . S
H915 C904 0.929 . S
O916 Co891 2.351 . S
O916 C919 1.244 . S
O917 Co891 2.155 . S
O917 C919 1.240 . S
O918 Co891 2.096 . S
O918 C899 1.247 . S
C919 O916 1.244 . S
C919 O917 1.240 . S
H920 C894 0.931 . S
H921 C903 0.931 . S
H922 C907 0.929 . S
H923 C909 0.930 . S
Co924 N928 2.148 . S
Co924 N934 2.128 . S
Co924 N944 2.194 . S
Co924 O949 2.351 . S
Co924 O950 2.155 . S
Co924 O951 2.096 . S
C925 N928 1.301 . S
C925 N929 1.328 . S
C925 H930 0.930 . S
C926 C927 1.333 . S
C926 N928 1.317 . S
C926 H931 0.930 . S
C927 C926 1.333 . S
C927 N929 1.350 . S
C927 H953 0.931 . S
N928 Co924 2.148 . S
N928 C925 1.301 . S
N928 C926 1.317 . S
N929 C925 1.328 . S
N929 C927 1.350 . S
H930 C925 0.930 . S
H931 C926 0.930 . S
C932 O933 1.224 . S
C932 O951 1.247 . S
O933 C932 1.224 . S
N934 Co924 2.128 . S
N934 C935 1.355 . S
N934 C937 1.311 . S
C935 N934 1.355 . S
C935 C936 1.363 . S
C935 H947 0.929 . S
C936 C935 1.363 . S
C936 N938 1.375 . S
C936 H954 0.931 . S
C937 N934 1.311 . S
C937 N938 1.347 . S
C937 H948 0.929 . S
N938 C936 1.375 . S
N938 C937 1.347 . S
C939 C942 1.365 . S
C939 N944 1.328 . S
C939 H945 0.929 . S
C940 C941 1.362 . S
C940 C943 1.378 . S
C940 H955 0.929 . S
C941 C940 1.362 . S
C941 C942 1.366 . S
C942 C939 1.365 . S
C942 C941 1.366 . S
C942 H956 0.930 . S
C943 C940 1.378 . S
C943 N944 1.315 . S
C943 H946 0.930 . S
N944 Co924 2.194 . S
N944 C939 1.328 . S
N944 C943 1.315 . S
H945 C939 0.929 . S
H946 C943 0.930 . S
H947 C935 0.929 . S
H948 C937 0.929 . S
O949 Co924 2.351 . S
O949 C952 1.244 . S
O950 Co924 2.155 . S
O950 C952 1.240 . S
O951 Co924 2.096 . S
O951 C932 1.247 . S
C952 O949 1.244 . S
C952 O950 1.240 . S
H953 C927 0.931 . S
H954 C936 0.931 . S
H955 C940 0.929 . S
H956 C942 0.930 . S
Co957 N961 2.148 . S
Co957 N967 2.128 . S
Co957 N977 2.194 . S
Co957 O982 2.351 . S
Co957 O983 2.155 . S
Co957 O984 2.096 . S
C958 N961 1.301 . S
C958 N962 1.328 . S
C958 H963 0.930 . S
C959 C960 1.333 . S
C959 N961 1.317 . S
C959 H964 0.930 . S
C960 C959 1.333 . S
C960 N962 1.350 . S
C960 H986 0.931 . S
N961 Co957 2.148 . S
N961 C958 1.301 . S
N961 C959 1.317 . S
N962 C958 1.328 . S
N962 C960 1.350 . S
H963 C958 0.930 . S
H964 C959 0.930 . S
C965 O966 1.224 . S
C965 O984 1.247 . S
O966 C965 1.224 . S
N967 Co957 2.128 . S
N967 C968 1.355 . S
N967 C970 1.311 . S
C968 N967 1.355 . S
C968 C969 1.363 . S
C968 H980 0.929 . S
C969 C968 1.363 . S
C969 N971 1.375 . S
C969 H987 0.931 . S
C970 N967 1.311 . S
C970 N971 1.347 . S
C970 H981 0.929 . S
N971 C969 1.375 . S
N971 C970 1.347 . S
C972 C975 1.365 . S
C972 N977 1.328 . S
C972 H978 0.929 . S
C973 C974 1.362 . S
C973 C976 1.378 . S
C973 H988 0.929 . S
C974 C973 1.362 . S
C974 C975 1.366 . S
C975 C972 1.365 . S
C975 C974 1.366 . S
C975 H989 0.930 . S
C976 C973 1.378 . S
C976 N977 1.315 . S
C976 H979 0.930 . S
N977 Co957 2.194 . S
N977 C972 1.328 . S
N977 C976 1.315 . S
H978 C972 0.929 . S
H979 C976 0.930 . S
H980 C968 0.929 . S
H981 C970 0.929 . S
O982 Co957 2.351 . S
O982 C985 1.244 . S
O983 Co957 2.155 . S
O983 C985 1.240 . S
O984 Co957 2.096 . S
O984 C965 1.247 . S
C985 O982 1.244 . S
C985 O983 1.240 . S
H986 C960 0.931 . S
H987 C969 0.931 . S
H988 C973 0.929 . S
H989 C975 0.930 . S
Co990 N994 2.148 . S
Co990 N1000 2.128 . S
Co990 N1010 2.194 . S
Co990 O1015 2.351 . S
Co990 O1016 2.155 . S
Co990 O1017 2.096 . S
C991 N994 1.301 . S
C991 N995 1.328 . S
C991 H996 0.930 . S
C992 C993 1.333 . S
C992 N994 1.317 . S
C992 H997 0.930 . S
C993 C992 1.333 . S
C993 N995 1.350 . S
C993 H1019 0.931 . S
N994 Co990 2.148 . S
N994 C991 1.301 . S
N994 C992 1.317 . S
N995 C991 1.328 . S
N995 C993 1.350 . S
H996 C991 0.930 . S
H997 C992 0.930 . S
C998 O999 1.224 . S
C998 O1017 1.247 . S
O999 C998 1.224 . S
N1000 Co990 2.128 . S
N1000 C1001 1.355 . S
N1000 C1003 1.311 . S
C1001 N1000 1.355 . S
C1001 C1002 1.363 . S
C1001 H1013 0.929 . S
C1002 C1001 1.363 . S
C1002 N1004 1.375 . S
C1002 H1020 0.931 . S
C1003 N1000 1.311 . S
C1003 N1004 1.347 . S
C1003 H1014 0.929 . S
N1004 C1002 1.375 . S
N1004 C1003 1.347 . S
C1005 C1008 1.365 . S
C1005 N1010 1.328 . S
C1005 H1011 0.929 . S
C1006 C1007 1.362 . S
C1006 C1009 1.378 . S
C1006 H1021 0.929 . S
C1007 C1006 1.362 . S
C1007 C1008 1.366 . S
C1008 C1005 1.365 . S
C1008 C1007 1.366 . S
C1008 H1022 0.930 . S
C1009 C1006 1.378 . S
C1009 N1010 1.315 . S
C1009 H1012 0.930 . S
N1010 Co990 2.194 . S
N1010 C1005 1.328 . S
N1010 C1009 1.315 . S
H1011 C1005 0.929 . S
H1012 C1009 0.930 . S
H1013 C1001 0.929 . S
H1014 C1003 0.929 . S
O1015 Co990 2.351 . S
O1015 C1018 1.244 . S
O1016 Co990 2.155 . S
O1016 C1018 1.240 . S
O1017 Co990 2.096 . S
O1017 C998 1.247 . S
C1018 O1015 1.244 . S
C1018 O1016 1.240 . S
H1019 C993 0.931 . S
H1020 C1002 0.931 . S
H1021 C1006 0.929 . S
H1022 C1008 0.930 . S
Co1023 N1027 2.148 . S
Co1023 N1033 2.128 . S
Co1023 N1043 2.194 . S
Co1023 O1048 2.351 . S
Co1023 O1049 2.155 . S
Co1023 O1050 2.096 . S
C1024 N1027 1.301 . S
C1024 N1028 1.328 . S
C1024 H1029 0.930 . S
C1025 C1026 1.333 . S
C1025 N1027 1.317 . S
C1025 H1030 0.930 . S
C1026 C1025 1.333 . S
C1026 N1028 1.350 . S
C1026 H1052 0.931 . S
N1027 Co1023 2.148 . S
N1027 C1024 1.301 . S
N1027 C1025 1.317 . S
N1028 C1024 1.328 . S
N1028 C1026 1.350 . S
H1029 C1024 0.930 . S
H1030 C1025 0.930 . S
C1031 O1032 1.224 . S
C1031 O1050 1.247 . S
O1032 C1031 1.224 . S
N1033 Co1023 2.128 . S
N1033 C1034 1.355 . S
N1033 C1036 1.311 . S
C1034 N1033 1.355 . S
C1034 C1035 1.363 . S
C1034 H1046 0.929 . S
C1035 C1034 1.363 . S
C1035 N1037 1.375 . S
C1035 H1053 0.931 . S
C1036 N1033 1.311 . S
C1036 N1037 1.347 . S
C1036 H1047 0.929 . S
N1037 C1035 1.375 . S
N1037 C1036 1.347 . S
C1038 C1041 1.365 . S
C1038 N1043 1.328 . S
C1038 H1044 0.929 . S
C1039 C1040 1.362 . S
C1039 C1042 1.378 . S
C1039 H1054 0.929 . S
C1040 C1039 1.362 . S
C1040 C1041 1.366 . S
C1041 C1038 1.365 . S
C1041 C1040 1.366 . S
C1041 H1055 0.930 . S
C1042 C1039 1.378 . S
C1042 N1043 1.315 . S
C1042 H1045 0.930 . S
N1043 Co1023 2.194 . S
N1043 C1038 1.328 . S
N1043 C1042 1.315 . S
H1044 C1038 0.929 . S
H1045 C1042 0.930 . S
H1046 C1034 0.929 . S
H1047 C1036 0.929 . S
O1048 Co1023 2.351 . S
O1048 C1051 1.244 . S
O1049 Co1023 2.155 . S
O1049 C1051 1.240 . S
O1050 Co1023 2.096 . S
O1050 C1031 1.247 . S
C1051 O1048 1.244 . S
C1051 O1049 1.240 . S
H1052 C1026 0.931 . S
H1053 C1035 0.931 . S
H1054 C1039 0.929 . S
H1055 C1041 0.930 . S
Co1056 N1060 2.148 . S
Co1056 N1066 2.128 . S
Co1056 N1076 2.194 . S
Co1056 O1081 2.351 . S
Co1056 O1082 2.155 . S
Co1056 O1083 2.096 . S
C1057 N1060 1.301 . S
C1057 N1061 1.328 . S
C1057 H1062 0.930 . S
C1058 C1059 1.333 . S
C1058 N1060 1.317 . S
C1058 H1063 0.930 . S
C1059 C1058 1.333 . S
C1059 N1061 1.350 . S
C1059 H1085 0.931 . S
N1060 Co1056 2.148 . S
N1060 C1057 1.301 . S
N1060 C1058 1.317 . S
N1061 C1057 1.328 . S
N1061 C1059 1.350 . S
H1062 C1057 0.930 . S
H1063 C1058 0.930 . S
C1064 O1065 1.224 . S
C1064 O1083 1.247 . S
O1065 C1064 1.224 . S
N1066 Co1056 2.128 . S
N1066 C1067 1.355 . S
N1066 C1069 1.311 . S
C1067 N1066 1.355 . S
C1067 C1068 1.363 . S
C1067 H1079 0.929 . S
C1068 C1067 1.363 . S
C1068 N1070 1.375 . S
C1068 H1086 0.931 . S
C1069 N1066 1.311 . S
C1069 N1070 1.347 . S
C1069 H1080 0.929 . S
N1070 C1068 1.375 . S
N1070 C1069 1.347 . S
C1071 C1074 1.365 . S
C1071 N1076 1.328 . S
C1071 H1077 0.929 . S
C1072 C1073 1.362 . S
C1072 C1075 1.378 . S
C1072 H1087 0.929 . S
C1073 C1072 1.362 . S
C1073 C1074 1.366 . S
C1074 C1071 1.365 . S
C1074 C1073 1.366 . S
C1074 H1088 0.930 . S
C1075 C1072 1.378 . S
C1075 N1076 1.315 . S
C1075 H1078 0.930 . S
N1076 Co1056 2.194 . S
N1076 C1071 1.328 . S
N1076 C1075 1.315 . S
H1077 C1071 0.929 . S
H1078 C1075 0.930 . S
H1079 C1067 0.929 . S
H1080 C1069 0.929 . S
O1081 Co1056 2.351 . S
O1081 C1084 1.244 . S
O1082 Co1056 2.155 . S
O1082 C1084 1.240 . S
O1083 Co1056 2.096 . S
O1083 C1064 1.247 . S
C1084 O1081 1.244 . S
C1084 O1082 1.240 . S
H1085 C1059 0.931 . S
H1086 C1068 0.931 . S
H1087 C1072 0.929 . S
H1088 C1074 0.930 . S
Co1089 N1093 2.148 . S
Co1089 N1099 2.128 . S
Co1089 N1109 2.194 . S
Co1089 O1114 2.351 1_565 S
Co1089 O1115 2.155 1_565 S
Co1089 O1116 2.096 . S
C1090 N1093 1.301 1_545 S
C1090 N1094 1.328 . S
C1090 H1095 0.930 . S
C1091 C1092 1.333 . S
C1091 N1093 1.317 . S
C1091 H1096 0.930 . S
C1092 C1091 1.333 . S
C1092 N1094 1.350 1_565 S
C1092 H1118 0.931 . S
N1093 Co1089 2.148 . S
N1093 C1090 1.301 1_565 S
N1093 C1091 1.317 . S
N1094 C1090 1.328 . S
N1094 C1092 1.350 1_545 S
H1095 C1090 0.930 . S
H1096 C1091 0.930 . S
C1097 O1098 1.224 . S
C1097 O1116 1.247 . S
O1098 C1097 1.224 . S
N1099 Co1089 2.128 . S
N1099 C1100 1.355 . S
N1099 C1102 1.311 . S
C1100 N1099 1.355 . S
C1100 C1101 1.363 . S
C1100 H1112 0.929 . S
C1101 C1100 1.363 . S
C1101 N1103 1.375 . S
C1101 H1119 0.931 . S
C1102 N1099 1.311 . S
C1102 N1103 1.347 . S
C1102 H1113 0.929 . S
N1103 C1101 1.375 . S
N1103 C1102 1.347 . S
C1104 C1107 1.365 . S
C1104 N1109 1.328 . S
C1104 H1110 0.929 1_565 S
C1105 C1106 1.362 . S
C1105 C1108 1.378 . S
C1105 H1120 0.929 . S
C1106 C1105 1.362 . S
C1106 C1107 1.366 . S
C1107 C1104 1.365 . S
C1107 C1106 1.366 . S
C1107 H1121 0.930 1_565 S
C1108 C1105 1.378 . S
C1108 N1109 1.315 . S
C1108 H1111 0.930 . S
N1109 Co1089 2.194 . S
N1109 C1104 1.328 . S
N1109 C1108 1.315 . S
H1110 C1104 0.929 1_545 S
H1111 C1108 0.930 . S
H1112 C1100 0.929 . S
H1113 C1102 0.929 . S
O1114 Co1089 2.351 1_545 S
O1114 C1117 1.244 . S
O1115 Co1089 2.155 1_545 S
O1115 C1117 1.240 . S
O1116 Co1089 2.096 . S
O1116 C1097 1.247 . S
C1117 O1114 1.244 . S
C1117 O1115 1.240 . S
H1118 C1092 0.931 . S
H1119 C1101 0.931 . S
H1120 C1105 0.929 . S
H1121 C1107 0.930 1_545 S
Co1122 N1126 2.148 . S
Co1122 N1132 2.128 . S
Co1122 N1142 2.194 . S
Co1122 O1147 2.351 . S
Co1122 O1148 2.155 . S
Co1122 O1149 2.096 . S
C1123 N1126 1.301 . S
C1123 N1127 1.328 . S
C1123 H1128 0.930 . S
C1124 C1125 1.333 . S
C1124 N1126 1.317 . S
C1124 H1129 0.930 . S
C1125 C1124 1.333 . S
C1125 N1127 1.350 . S
C1125 H1151 0.931 . S
N1126 Co1122 2.148 . S
N1126 C1123 1.301 . S
N1126 C1124 1.317 . S
N1127 C1123 1.328 . S
N1127 C1125 1.350 . S
H1128 C1123 0.930 . S
H1129 C1124 0.930 . S
C1130 O1131 1.224 . S
C1130 O1149 1.247 . S
O1131 C1130 1.224 . S
N1132 Co1122 2.128 . S
N1132 C1133 1.355 . S
N1132 C1135 1.311 . S
C1133 N1132 1.355 . S
C1133 C1134 1.363 1_565 S
C1133 H1145 0.929 . S
C1134 C1133 1.363 1_545 S
C1134 N1136 1.375 . S
C1134 H1152 0.931 . S
C1135 N1132 1.311 . S
C1135 N1136 1.347 1_565 S
C1135 H1146 0.929 . S
N1136 C1134 1.375 . S
N1136 C1135 1.347 1_545 S
C1137 C1140 1.365 . S
C1137 N1142 1.328 . S
C1137 H1143 0.929 . S
C1138 C1139 1.362 . S
C1138 C1141 1.378 . S
C1138 H1153 0.929 . S
C1139 C1138 1.362 . S
C1139 C1140 1.366 . S
C1140 C1137 1.365 . S
C1140 C1139 1.366 . S
C1140 H1154 0.930 . S
C1141 C1138 1.378 . S
C1141 N1142 1.315 . S
C1141 H1144 0.930 . S
N1142 Co1122 2.194 . S
N1142 C1137 1.328 . S
N1142 C1141 1.315 . S
H1143 C1137 0.929 . S
H1144 C1141 0.930 . S
H1145 C1133 0.929 . S
H1146 C1135 0.929 . S
O1147 Co1122 2.351 . S
O1147 C1150 1.244 . S
O1148 Co1122 2.155 . S
O1148 C1150 1.240 . S
O1149 Co1122 2.096 . S
O1149 C1130 1.247 . S
C1150 O1147 1.244 . S
C1150 O1148 1.240 . S
H1151 C1125 0.931 . S
H1152 C1134 0.931 . S
H1153 C1138 0.929 . S
H1154 C1140 0.930 . S
Co1155 N1159 2.148 . S
Co1155 N1165 2.128 . S
Co1155 N1175 2.194 . S
Co1155 O1180 2.351 . S
Co1155 O1181 2.155 . S
Co1155 O1182 2.096 . S
C1156 N1159 1.301 . S
C1156 N1160 1.328 . S
C1156 H1161 0.930 . S
C1157 C1158 1.333 . S
C1157 N1159 1.317 . S
C1157 H1162 0.930 . S
C1158 C1157 1.333 . S
C1158 N1160 1.350 . S
C1158 H1184 0.931 . S
N1159 Co1155 2.148 . S
N1159 C1156 1.301 . S
N1159 C1157 1.317 . S
N1160 C1156 1.328 . S
N1160 C1158 1.350 . S
H1161 C1156 0.930 . S
H1162 C1157 0.930 . S
C1163 O1164 1.224 . S
C1163 O1182 1.247 . S
O1164 C1163 1.224 . S
N1165 Co1155 2.128 . S
N1165 C1166 1.355 . S
N1165 C1168 1.311 . S
C1166 N1165 1.355 . S
C1166 C1167 1.363 . S
C1166 H1178 0.929 . S
C1167 C1166 1.363 . S
C1167 N1169 1.375 . S
C1167 H1185 0.931 . S
C1168 N1165 1.311 . S
C1168 N1169 1.347 . S
C1168 H1179 0.929 . S
N1169 C1167 1.375 . S
N1169 C1168 1.347 . S
C1170 C1173 1.365 . S
C1170 N1175 1.328 . S
C1170 H1176 0.929 . S
C1171 C1172 1.362 . S
C1171 C1174 1.378 . S
C1171 H1186 0.929 . S
C1172 C1171 1.362 . S
C1172 C1173 1.366 . S
C1173 C1170 1.365 . S
C1173 C1172 1.366 . S
C1173 H1187 0.930 . S
C1174 C1171 1.378 . S
C1174 N1175 1.315 . S
C1174 H1177 0.930 . S
N1175 Co1155 2.194 . S
N1175 C1170 1.328 . S
N1175 C1174 1.315 . S
H1176 C1170 0.929 . S
H1177 C1174 0.930 . S
H1178 C1166 0.929 . S
H1179 C1168 0.929 . S
O1180 Co1155 2.351 . S
O1180 C1183 1.244 . S
O1181 Co1155 2.155 . S
O1181 C1183 1.240 . S
O1182 Co1155 2.096 . S
O1182 C1163 1.247 . S
C1183 O1180 1.244 . S
C1183 O1181 1.240 . S
H1184 C1158 0.931 . S
H1185 C1167 0.931 . S
H1186 C1171 0.929 . S
H1187 C1173 0.930 . S
Co1188 N1192 2.148 . S
Co1188 N1198 2.128 . S
Co1188 N1208 2.194 . S
Co1188 O1213 2.351 . S
Co1188 O1214 2.155 . S
Co1188 O1215 2.096 . S
C1189 N1192 1.301 . S
C1189 N1193 1.328 . S
C1189 H1194 0.930 . S
C1190 C1191 1.333 . S
C1190 N1192 1.317 . S
C1190 H1195 0.930 . S
C1191 C1190 1.333 . S
C1191 N1193 1.350 . S
C1191 H1217 0.931 . S
N1192 Co1188 2.148 . S
N1192 C1189 1.301 . S
N1192 C1190 1.317 . S
N1193 C1189 1.328 . S
N1193 C1191 1.350 . S
H1194 C1189 0.930 . S
H1195 C1190 0.930 . S
C1196 O1197 1.224 . S
C1196 O1215 1.247 . S
O1197 C1196 1.224 . S
N1198 Co1188 2.128 . S
N1198 C1199 1.355 . S
N1198 C1201 1.311 . S
C1199 N1198 1.355 . S
C1199 C1200 1.363 . S
C1199 H1211 0.929 . S
C1200 C1199 1.363 . S
C1200 N1202 1.375 . S
C1200 H1218 0.931 . S
C1201 N1198 1.311 . S
C1201 N1202 1.347 . S
C1201 H1212 0.929 . S
N1202 C1200 1.375 . S
N1202 C1201 1.347 . S
C1203 C1206 1.365 . S
C1203 N1208 1.328 . S
C1203 H1209 0.929 . S
C1204 C1205 1.362 . S
C1204 C1207 1.378 . S
C1204 H1219 0.929 . S
C1205 C1204 1.362 . S
C1205 C1206 1.366 . S
C1206 C1203 1.365 . S
C1206 C1205 1.366 . S
C1206 H1220 0.930 . S
C1207 C1204 1.378 . S
C1207 N1208 1.315 . S
C1207 H1210 0.930 . S
N1208 Co1188 2.194 . S
N1208 C1203 1.328 . S
N1208 C1207 1.315 . S
H1209 C1203 0.929 . S
H1210 C1207 0.930 . S
H1211 C1199 0.929 . S
H1212 C1201 0.929 . S
O1213 Co1188 2.351 . S
O1213 C1216 1.244 . S
O1214 Co1188 2.155 . S
O1214 C1216 1.240 . S
O1215 Co1188 2.096 . S
O1215 C1196 1.247 . S
C1216 O1213 1.244 . S
C1216 O1214 1.240 . S
H1217 C1191 0.931 . S
H1218 C1200 0.931 . S
H1219 C1204 0.929 . S
H1220 C1206 0.930 . S
Co1221 N1225 2.148 . S
Co1221 N1231 2.128 . S
Co1221 N1241 2.194 . S
Co1221 O1246 2.351 1_565 S
Co1221 O1247 2.155 1_565 S
Co1221 O1248 2.096 . S
C1222 N1225 1.301 1_545 S
C1222 N1226 1.328 . S
C1222 H1227 0.930 . S
C1223 C1224 1.333 . S
C1223 N1225 1.317 . S
C1223 H1228 0.930 . S
C1224 C1223 1.333 . S
C1224 N1226 1.350 1_565 S
C1224 H1250 0.931 . S
N1225 Co1221 2.148 . S
N1225 C1222 1.301 1_565 S
N1225 C1223 1.317 . S
N1226 C1222 1.328 . S
N1226 C1224 1.350 1_545 S
H1227 C1222 0.930 . S
H1228 C1223 0.930 . S
C1229 O1230 1.224 . S
C1229 O1248 1.247 . S
O1230 C1229 1.224 . S
N1231 Co1221 2.128 . S
N1231 C1232 1.355 . S
N1231 C1234 1.311 . S
C1232 N1231 1.355 . S
C1232 C1233 1.363 . S
C1232 H1244 0.929 . S
C1233 C1232 1.363 . S
C1233 N1235 1.375 . S
C1233 H1251 0.931 . S
C1234 N1231 1.311 . S
C1234 N1235 1.347 . S
C1234 H1245 0.929 . S
N1235 C1233 1.375 . S
N1235 C1234 1.347 . S
C1236 C1239 1.365 . S
C1236 N1241 1.328 . S
C1236 H1242 0.929 1_565 S
C1237 C1238 1.362 . S
C1237 C1240 1.378 . S
C1237 H1252 0.929 . S
C1238 C1237 1.362 . S
C1238 C1239 1.366 . S
C1239 C1236 1.365 . S
C1239 C1238 1.366 . S
C1239 H1253 0.930 1_565 S
C1240 C1237 1.378 . S
C1240 N1241 1.315 . S
C1240 H1243 0.930 . S
N1241 Co1221 2.194 . S
N1241 C1236 1.328 . S
N1241 C1240 1.315 . S
H1242 C1236 0.929 1_545 S
H1243 C1240 0.930 . S
H1244 C1232 0.929 . S
H1245 C1234 0.929 . S
O1246 Co1221 2.351 1_545 S
O1246 C1249 1.244 . S
O1247 Co1221 2.155 1_545 S
O1247 C1249 1.240 . S
O1248 Co1221 2.096 . S
O1248 C1229 1.247 . S
C1249 O1246 1.244 . S
C1249 O1247 1.240 . S
H1250 C1224 0.931 . S
H1251 C1233 0.931 . S
H1252 C1237 0.929 . S
H1253 C1239 0.930 1_545 S
Co1254 N1258 2.148 . S
Co1254 N1264 2.128 . S
Co1254 N1274 2.194 . S
Co1254 O1279 2.351 . S
Co1254 O1280 2.155 . S
Co1254 O1281 2.096 . S
C1255 N1258 1.301 . S
C1255 N1259 1.328 . S
C1255 H1260 0.930 . S
C1256 C1257 1.333 . S
C1256 N1258 1.317 . S
C1256 H1261 0.930 . S
C1257 C1256 1.333 . S
C1257 N1259 1.350 . S
C1257 H1283 0.931 . S
N1258 Co1254 2.148 . S
N1258 C1255 1.301 . S
N1258 C1256 1.317 . S
N1259 C1255 1.328 . S
N1259 C1257 1.350 . S
H1260 C1255 0.930 . S
H1261 C1256 0.930 . S
C1262 O1263 1.224 . S
C1262 O1281 1.247 . S
O1263 C1262 1.224 . S
N1264 Co1254 2.128 . S
N1264 C1265 1.355 . S
N1264 C1267 1.311 . S
C1265 N1264 1.355 . S
C1265 C1266 1.363 1_545 S
C1265 H1277 0.929 . S
C1266 C1265 1.363 1_565 S
C1266 N1268 1.375 . S
C1266 H1284 0.931 . S
C1267 N1264 1.311 . S
C1267 N1268 1.347 1_545 S
C1267 H1278 0.929 . S
N1268 C1266 1.375 . S
N1268 C1267 1.347 1_565 S
C1269 C1272 1.365 . S
C1269 N1274 1.328 . S
C1269 H1275 0.929 . S
C1270 C1271 1.362 . S
C1270 C1273 1.378 . S
C1270 H1285 0.929 . S
C1271 C1270 1.362 . S
C1271 C1272 1.366 . S
C1272 C1269 1.365 . S
C1272 C1271 1.366 . S
C1272 H1286 0.930 . S
C1273 C1270 1.378 . S
C1273 N1274 1.315 . S
C1273 H1276 0.930 . S
N1274 Co1254 2.194 . S
N1274 C1269 1.328 . S
N1274 C1273 1.315 . S
H1275 C1269 0.929 . S
H1276 C1273 0.930 . S
H1277 C1265 0.929 . S
H1278 C1267 0.929 . S
O1279 Co1254 2.351 . S
O1279 C1282 1.244 . S
O1280 Co1254 2.155 . S
O1280 C1282 1.240 . S
O1281 Co1254 2.096 . S
O1281 C1262 1.247 . S
C1282 O1279 1.244 . S
C1282 O1280 1.240 . S
H1283 C1257 0.931 . S
H1284 C1266 0.931 . S
H1285 C1270 0.929 . S
H1286 C1272 0.930 . S
Co1287 N1291 2.148 . S
Co1287 N1297 2.128 . S
Co1287 N1307 2.194 . S
Co1287 O1312 2.351 . S
Co1287 O1313 2.155 . S
Co1287 O1314 2.096 . S
C1288 N1291 1.301 . S
C1288 N1292 1.328 . S
C1288 H1293 0.930 . S
C1289 C1290 1.333 . S
C1289 N1291 1.317 . S
C1289 H1294 0.930 . S
C1290 C1289 1.333 . S
C1290 N1292 1.350 . S
C1290 H1316 0.931 . S
N1291 Co1287 2.148 . S
N1291 C1288 1.301 . S
N1291 C1289 1.317 . S
N1292 C1288 1.328 . S
N1292 C1290 1.350 . S
H1293 C1288 0.930 . S
H1294 C1289 0.930 . S
C1295 O1296 1.224 . S
C1295 O1314 1.247 . S
O1296 C1295 1.224 . S
N1297 Co1287 2.128 . S
N1297 C1298 1.355 . S
N1297 C1300 1.311 . S
C1298 N1297 1.355 . S
C1298 C1299 1.363 . S
C1298 H1310 0.929 . S
C1299 C1298 1.363 . S
C1299 N1301 1.375 . S
C1299 H1317 0.931 . S
C1300 N1297 1.311 . S
C1300 N1301 1.347 . S
C1300 H1311 0.929 . S
N1301 C1299 1.375 . S
N1301 C1300 1.347 . S
C1302 C1305 1.365 . S
C1302 N1307 1.328 . S
C1302 H1308 0.929 . S
C1303 C1304 1.362 . S
C1303 C1306 1.378 . S
C1303 H1318 0.929 . S
C1304 C1303 1.362 . S
C1304 C1305 1.366 . S
C1305 C1302 1.365 . S
C1305 C1304 1.366 . S
C1305 H1319 0.930 . S
C1306 C1303 1.378 . S
C1306 N1307 1.315 . S
C1306 H1309 0.930 . S
N1307 Co1287 2.194 . S
N1307 C1302 1.328 . S
N1307 C1306 1.315 . S
H1308 C1302 0.929 . S
H1309 C1306 0.930 . S
H1310 C1298 0.929 . S
H1311 C1300 0.929 . S
O1312 Co1287 2.351 . S
O1312 C1315 1.244 . S
O1313 Co1287 2.155 . S
O1313 C1315 1.240 . S
O1314 Co1287 2.096 . S
O1314 C1295 1.247 . S
C1315 O1312 1.244 . S
C1315 O1313 1.240 . S
H1316 C1290 0.931 . S
H1317 C1299 0.931 . S
H1318 C1303 0.929 . S
H1319 C1305 0.930 . S
Co1320 N1324 2.148 . S
Co1320 N1330 2.128 . S
Co1320 N1340 2.194 . S
Co1320 O1345 2.351 . S
Co1320 O1346 2.155 . S
Co1320 O1347 2.096 . S
C1321 N1324 1.301 . S
C1321 N1325 1.328 . S
C1321 H1326 0.930 . S
C1322 C1323 1.333 . S
C1322 N1324 1.317 . S
C1322 H1327 0.930 . S
C1323 C1322 1.333 . S
C1323 N1325 1.350 . S
C1323 H1349 0.931 . S
N1324 Co1320 2.148 . S
N1324 C1321 1.301 . S
N1324 C1322 1.317 . S
N1325 C1321 1.328 . S
N1325 C1323 1.350 . S
H1326 C1321 0.930 . S
H1327 C1322 0.930 . S
C1328 O1329 1.224 . S
C1328 O1347 1.247 . S
O1329 C1328 1.224 . S
N1330 Co1320 2.128 . S
N1330 C1331 1.355 . S
N1330 C1333 1.311 . S
C1331 N1330 1.355 . S
C1331 C1332 1.363 . S
C1331 H1343 0.929 . S
C1332 C1331 1.363 . S
C1332 N1334 1.375 . S
C1332 H1350 0.931 . S
C1333 N1330 1.311 . S
C1333 N1334 1.347 . S
C1333 H1344 0.929 . S
N1334 C1332 1.375 . S
N1334 C1333 1.347 . S
C1335 C1338 1.365 . S
C1335 N1340 1.328 . S
C1335 H1341 0.929 . S
C1336 C1337 1.362 . S
C1336 C1339 1.378 . S
C1336 H1351 0.929 . S
C1337 C1336 1.362 . S
C1337 C1338 1.366 . S
C1338 C1335 1.365 . S
C1338 C1337 1.366 . S
C1338 H1352 0.930 . S
C1339 C1336 1.378 . S
C1339 N1340 1.315 . S
C1339 H1342 0.930 . S
N1340 Co1320 2.194 . S
N1340 C1335 1.328 . S
N1340 C1339 1.315 . S
H1341 C1335 0.929 . S
H1342 C1339 0.930 . S
H1343 C1331 0.929 . S
H1344 C1333 0.929 . S
O1345 Co1320 2.351 . S
O1345 C1348 1.244 . S
O1346 Co1320 2.155 . S
O1346 C1348 1.240 . S
O1347 Co1320 2.096 . S
O1347 C1328 1.247 . S
C1348 O1345 1.244 . S
C1348 O1346 1.240 . S
H1349 C1323 0.931 . S
H1350 C1332 0.931 . S
H1351 C1336 0.929 . S
H1352 C1338 0.930 . S
Co1353 N1357 2.148 . S
Co1353 N1363 2.128 . S
Co1353 N1373 2.194 . S
Co1353 O1378 2.351 . S
Co1353 O1379 2.155 . S
Co1353 O1380 2.096 . S
C1354 N1357 1.301 . S
C1354 N1358 1.328 . S
C1354 H1359 0.930 . S
C1355 C1356 1.333 . S
C1355 N1357 1.317 . S
C1355 H1360 0.930 . S
C1356 C1355 1.333 . S
C1356 N1358 1.350 . S
C1356 H1382 0.931 . S
N1357 Co1353 2.148 . S
N1357 C1354 1.301 . S
N1357 C1355 1.317 . S
N1358 C1354 1.328 . S
N1358 C1356 1.350 . S
H1359 C1354 0.930 . S
H1360 C1355 0.930 . S
C1361 O1362 1.224 . S
C1361 O1380 1.247 . S
O1362 C1361 1.224 . S
N1363 Co1353 2.128 . S
N1363 C1364 1.355 . S
N1363 C1366 1.311 . S
C1364 N1363 1.355 . S
C1364 C1365 1.363 1_556 S
C1364 H1376 0.929 . S
C1365 C1364 1.363 1_554 S
C1365 N1367 1.375 . S
C1365 H1383 0.931 . S
C1366 N1363 1.311 . S
C1366 N1367 1.347 1_556 S
C1366 H1377 0.929 . S
N1367 C1365 1.375 . S
N1367 C1366 1.347 1_554 S
C1368 C1371 1.365 . S
C1368 N1373 1.328 . S
C1368 H1374 0.929 . S
C1369 C1370 1.362 . S
C1369 C1372 1.378 . S
C1369 H1384 0.929 . S
C1370 C1369 1.362 . S
C1370 C1371 1.366 . S
C1371 C1368 1.365 . S
C1371 C1370 1.366 . S
C1371 H1385 0.930 . S
C1372 C1369 1.378 . S
C1372 N1373 1.315 . S
C1372 H1375 0.930 . S
N1373 Co1353 2.194 . S
N1373 C1368 1.328 . S
N1373 C1372 1.315 . S
H1374 C1368 0.929 . S
H1375 C1372 0.930 . S
H1376 C1364 0.929 . S
H1377 C1366 0.929 . S
O1378 Co1353 2.351 . S
O1378 C1381 1.244 . S
O1379 Co1353 2.155 . S
O1379 C1381 1.240 . S
O1380 Co1353 2.096 . S
O1380 C1361 1.247 . S
C1381 O1378 1.244 . S
C1381 O1379 1.240 . S
H1382 C1356 0.931 . S
H1383 C1365 0.931 . S
H1384 C1369 0.929 . S
H1385 C1371 0.930 . S
Co1386 N1390 2.148 . S
Co1386 N1396 2.128 . S
Co1386 N1406 2.194 . S
Co1386 O1411 2.351 . S
Co1386 O1412 2.155 . S
Co1386 O1413 2.096 . S
C1387 N1390 1.301 . S
C1387 N1391 1.328 . S
C1387 H1392 0.930 . S
C1388 C1389 1.333 . S
C1388 N1390 1.317 . S
C1388 H1393 0.930 . S
C1389 C1388 1.333 . S
C1389 N1391 1.350 . S
C1389 H1415 0.931 . S
N1390 Co1386 2.148 . S
N1390 C1387 1.301 . S
N1390 C1388 1.317 . S
N1391 C1387 1.328 . S
N1391 C1389 1.350 . S
H1392 C1387 0.930 . S
H1393 C1388 0.930 . S
C1394 O1395 1.224 . S
C1394 O1413 1.247 . S
O1395 C1394 1.224 . S
N1396 Co1386 2.128 . S
N1396 C1397 1.355 . S
N1396 C1399 1.311 . S
C1397 N1396 1.355 . S
C1397 C1398 1.363 . S
C1397 H1409 0.929 . S
C1398 C1397 1.363 . S
C1398 N1400 1.375 . S
C1398 H1416 0.931 . S
C1399 N1396 1.311 . S
C1399 N1400 1.347 . S
C1399 H1410 0.929 . S
N1400 C1398 1.375 . S
N1400 C1399 1.347 . S
C1401 C1404 1.365 . S
C1401 N1406 1.328 . S
C1401 H1407 0.929 . S
C1402 C1403 1.362 . S
C1402 C1405 1.378 . S
C1402 H1417 0.929 . S
C1403 C1402 1.362 . S
C1403 C1404 1.366 . S
C1404 C1401 1.365 . S
C1404 C1403 1.366 . S
C1404 H1418 0.930 . S
C1405 C1402 1.378 . S
C1405 N1406 1.315 . S
C1405 H1408 0.930 . S
N1406 Co1386 2.194 . S
N1406 C1401 1.328 . S
N1406 C1405 1.315 . S
H1407 C1401 0.929 . S
H1408 C1405 0.930 . S
H1409 C1397 0.929 . S
H1410 C1399 0.929 . S
O1411 Co1386 2.351 . S
O1411 C1414 1.244 . S
O1412 Co1386 2.155 . S
O1412 C1414 1.240 . S
O1413 Co1386 2.096 . S
O1413 C1394 1.247 . S
C1414 O1411 1.244 . S
C1414 O1412 1.240 . S
H1415 C1389 0.931 . S
H1416 C1398 0.931 . S
H1417 C1402 0.929 . S
H1418 C1404 0.930 . S
Co1419 N1423 2.148 . S
Co1419 N1429 2.128 . S
Co1419 N1439 2.194 . S
Co1419 O1444 2.351 . S
Co1419 O1445 2.155 . S
Co1419 O1446 2.096 . S
C1420 N1423 1.301 . S
C1420 N1424 1.328 . S
C1420 H1425 0.930 . S
C1421 C1422 1.333 . S
C1421 N1423 1.317 . S
C1421 H1426 0.930 . S
C1422 C1421 1.333 . S
C1422 N1424 1.350 . S
C1422 H1448 0.931 . S
N1423 Co1419 2.148 . S
N1423 C1420 1.301 . S
N1423 C1421 1.317 . S
N1424 C1420 1.328 . S
N1424 C1422 1.350 . S
H1425 C1420 0.930 . S
H1426 C1421 0.930 . S
C1427 O1428 1.224 . S
C1427 O1446 1.247 . S
O1428 C1427 1.224 . S
N1429 Co1419 2.128 . S
N1429 C1430 1.355 . S
N1429 C1432 1.311 . S
C1430 N1429 1.355 . S
C1430 C1431 1.363 1_556 S
C1430 H1442 0.929 . S
C1431 C1430 1.363 1_554 S
C1431 N1433 1.375 . S
C1431 H1449 0.931 . S
C1432 N1429 1.311 . S
C1432 N1433 1.347 1_556 S
C1432 H1443 0.929 . S
N1433 C1431 1.375 . S
N1433 C1432 1.347 1_554 S
C1434 C1437 1.365 . S
C1434 N1439 1.328 . S
C1434 H1440 0.929 . S
C1435 C1436 1.362 . S
C1435 C1438 1.378 . S
C1435 H1450 0.929 . S
C1436 C1435 1.362 . S
C1436 C1437 1.366 . S
C1437 C1434 1.365 . S
C1437 C1436 1.366 . S
C1437 H1451 0.930 . S
C1438 C1435 1.378 . S
C1438 N1439 1.315 . S
C1438 H1441 0.930 . S
N1439 Co1419 2.194 . S
N1439 C1434 1.328 . S
N1439 C1438 1.315 . S
H1440 C1434 0.929 . S
H1441 C1438 0.930 . S
H1442 C1430 0.929 . S
H1443 C1432 0.929 . S
O1444 Co1419 2.351 . S
O1444 C1447 1.244 . S
O1445 Co1419 2.155 . S
O1445 C1447 1.240 . S
O1446 Co1419 2.096 . S
O1446 C1427 1.247 . S
C1447 O1444 1.244 . S
C1447 O1445 1.240 . S
H1448 C1422 0.931 . S
H1449 C1431 0.931 . S
H1450 C1435 0.929 . S
H1451 C1437 0.930 . S
Co1452 N1456 2.148 . S
Co1452 N1462 2.128 . S
Co1452 N1472 2.194 . S
Co1452 O1477 2.351 1_455 S
Co1452 O1478 2.142 1_455 S
Co1452 O1479 2.096 . S
C1453 N1456 1.301 1_655 S
C1453 N1457 1.328 . S
C1453 H1458 0.930 . S
C1454 C1455 1.333 . S
C1454 N1456 1.317 . S
C1454 H1459 0.930 . S
C1455 C1454 1.333 . S
C1455 N1457 1.350 1_455 S
C1455 H1481 0.931 . S
N1456 Co1452 2.148 . S
N1456 C1453 1.301 1_455 S
N1456 C1454 1.317 . S
N1457 C1453 1.328 . S
N1457 C1455 1.350 1_655 S
H1458 C1453 0.930 . S
H1459 C1454 0.930 . S
C1460 O1461 1.224 . S
C1460 O1479 1.247 . S
O1461 C1460 1.224 . S
N1462 Co1452 2.128 . S
N1462 C1463 1.355 . S
N1462 C1465 1.311 . S
C1463 N1462 1.355 . S
C1463 C1464 1.363 . S
C1463 H1475 0.929 . S
C1464 C1463 1.363 . S
C1464 N1466 1.375 . S
C1464 H1482 0.931 . S
C1465 N1462 1.311 . S
C1465 N1466 1.347 . S
C1465 H1476 0.929 . S
N1466 C1464 1.375 . S
N1466 C1465 1.347 . S
C1467 C1470 1.365 . S
C1467 N1472 1.328 . S
C1467 H1473 0.929 1_455 S
C1468 C1469 1.362 . S
C1468 C1471 1.378 . S
C1468 H1483 0.929 . S
C1469 C1468 1.362 . S
C1469 C1470 1.366 . S
C1470 C1467 1.365 . S
C1470 C1469 1.366 . S
C1470 H1484 0.930 1_455 S
C1471 C1468 1.378 . S
C1471 N1472 1.315 . S
C1471 H1474 0.930 . S
N1472 Co1452 2.194 . S
N1472 C1467 1.328 . S
N1472 C1471 1.315 . S
H1473 C1467 0.929 1_655 S
H1474 C1471 0.930 . S
H1475 C1463 0.929 . S
H1476 C1465 0.929 . S
O1477 Co1452 2.351 1_655 S
O1477 C1480 1.244 . S
O1478 Co1452 2.142 1_655 S
O1478 C1480 1.257 . S
O1479 Co1452 2.096 . S
O1479 C1460 1.247 . S
C1480 O1477 1.244 . S
C1480 O1478 1.257 . S
H1481 C1455 0.931 . S
H1482 C1464 0.931 . S
H1483 C1468 0.929 . S
H1484 C1470 0.930 1_655 S
Co1485 N1489 2.148 . S
Co1485 N1495 2.128 . S
Co1485 N1505 2.194 . S
Co1485 O1510 2.351 . S
Co1485 O1511 2.155 . S
Co1485 O1512 2.096 . S
C1486 N1489 1.301 . S
C1486 N1490 1.328 . S
C1486 H1491 0.930 . S
C1487 C1488 1.333 . S
C1487 N1489 1.317 . S
C1487 H1492 0.930 . S
C1488 C1487 1.333 . S
C1488 N1490 1.350 . S
C1488 H1514 0.931 . S
N1489 Co1485 2.148 . S
N1489 C1486 1.301 . S
N1489 C1487 1.317 . S
N1490 C1486 1.328 . S
N1490 C1488 1.350 . S
H1491 C1486 0.930 . S
H1492 C1487 0.930 . S
C1493 O1494 1.224 . S
C1493 O1512 1.247 . S
O1494 C1493 1.224 . S
N1495 Co1485 2.128 . S
N1495 C1496 1.355 . S
N1495 C1498 1.311 . S
C1496 N1495 1.355 . S
C1496 C1497 1.363 1_554 S
C1496 H1508 0.929 . S
C1497 C1496 1.363 1_556 S
C1497 N1499 1.375 . S
C1497 H1515 0.931 . S
C1498 N1495 1.311 . S
C1498 N1499 1.347 1_554 S
C1498 H1509 0.929 . S
N1499 C1497 1.375 . S
N1499 C1498 1.347 1_556 S
C1500 C1503 1.365 . S
C1500 N1505 1.328 . S
C1500 H1506 0.929 . S
C1501 C1502 1.362 . S
C1501 C1504 1.378 . S
C1501 H1516 0.929 . S
C1502 C1501 1.362 . S
C1502 C1503 1.366 . S
C1503 C1500 1.365 . S
C1503 C1502 1.366 . S
C1503 H1517 0.930 . S
C1504 C1501 1.378 . S
C1504 N1505 1.315 . S
C1504 H1507 0.930 . S
N1505 Co1485 2.194 . S
N1505 C1500 1.328 . S
N1505 C1504 1.315 . S
H1506 C1500 0.929 . S
H1507 C1504 0.930 . S
H1508 C1496 0.929 . S
H1509 C1498 0.929 . S
O1510 Co1485 2.351 . S
O1510 C1513 1.244 . S
O1511 Co1485 2.155 . S
O1511 C1513 1.240 . S
O1512 Co1485 2.096 . S
O1512 C1493 1.247 . S
C1513 O1510 1.244 . S
C1513 O1511 1.240 . S
H1514 C1488 0.931 . S
H1515 C1497 0.931 . S
H1516 C1501 0.929 . S
H1517 C1503 0.930 . S
Co1518 N1522 2.148 . S
Co1518 N1528 2.128 . S
Co1518 N1538 2.194 . S
Co1518 O1543 2.351 . S
Co1518 O1544 2.155 . S
Co1518 O1545 2.096 . S
C1519 N1522 1.301 . S
C1519 N1523 1.328 . S
C1519 H1524 0.930 . S
C1520 C1521 1.333 . S
C1520 N1522 1.317 . S
C1520 H1525 0.930 . S
C1521 C1520 1.333 . S
C1521 N1523 1.350 . S
C1521 H1547 0.931 . S
N1522 Co1518 2.148 . S
N1522 C1519 1.301 . S
N1522 C1520 1.317 . S
N1523 C1519 1.328 . S
N1523 C1521 1.350 . S
H1524 C1519 0.930 . S
H1525 C1520 0.930 . S
C1526 O1527 1.224 . S
C1526 O1545 1.247 . S
O1527 C1526 1.224 . S
N1528 Co1518 2.128 . S
N1528 C1529 1.355 . S
N1528 C1531 1.311 . S
C1529 N1528 1.355 . S
C1529 C1530 1.363 . S
C1529 H1541 0.929 . S
C1530 C1529 1.363 . S
C1530 N1532 1.375 . S
C1530 H1548 0.931 . S
C1531 N1528 1.311 . S
C1531 N1532 1.347 . S
C1531 H1542 0.929 . S
N1532 C1530 1.375 . S
N1532 C1531 1.347 . S
C1533 C1536 1.365 . S
C1533 N1538 1.328 . S
C1533 H1539 0.929 . S
C1534 C1535 1.362 . S
C1534 C1537 1.378 . S
C1534 H1549 0.929 . S
C1535 C1534 1.362 . S
C1535 C1536 1.366 . S
C1536 C1533 1.365 . S
C1536 C1535 1.366 . S
C1536 H1550 0.930 . S
C1537 C1534 1.378 . S
C1537 N1538 1.315 . S
C1537 H1540 0.930 . S
N1538 Co1518 2.194 . S
N1538 C1533 1.328 . S
N1538 C1537 1.315 . S
H1539 C1533 0.929 . S
H1540 C1537 0.930 . S
H1541 C1529 0.929 . S
H1542 C1531 0.929 . S
O1543 Co1518 2.351 . S
O1543 C1546 1.244 . S
O1544 Co1518 2.155 . S
O1544 C1546 1.240 . S
O1545 Co1518 2.096 . S
O1545 C1526 1.247 . S
C1546 O1543 1.244 . S
C1546 O1544 1.240 . S
H1547 C1521 0.931 . S
H1548 C1530 0.931 . S
H1549 C1534 0.929 . S
H1550 C1536 0.930 . S
Co1551 N1555 2.148 . S
Co1551 N1561 2.128 . S
Co1551 N1571 2.194 . S
Co1551 O1576 2.351 . S
Co1551 O1577 2.155 . S
Co1551 O1578 2.096 . S
C1552 N1555 1.301 . S
C1552 N1556 1.328 . S
C1552 H1557 0.930 . S
C1553 C1554 1.333 . S
C1553 N1555 1.317 . S
C1553 H1558 0.930 . S
C1554 C1553 1.333 . S
C1554 N1556 1.350 . S
C1554 H1580 0.931 . S
N1555 Co1551 2.148 . S
N1555 C1552 1.301 . S
N1555 C1553 1.317 . S
N1556 C1552 1.328 . S
N1556 C1554 1.350 . S
H1557 C1552 0.930 . S
H1558 C1553 0.930 . S
C1559 O1560 1.224 . S
C1559 O1578 1.247 . S
O1560 C1559 1.224 . S
N1561 Co1551 2.128 . S
N1561 C1562 1.355 . S
N1561 C1564 1.311 . S
C1562 N1561 1.355 . S
C1562 C1563 1.363 . S
C1562 H1574 0.929 . S
C1563 C1562 1.363 . S
C1563 N1565 1.375 . S
C1563 H1581 0.931 . S
C1564 N1561 1.311 . S
C1564 N1565 1.347 . S
C1564 H1575 0.929 . S
N1565 C1563 1.375 . S
N1565 C1564 1.347 . S
C1566 C1569 1.365 . S
C1566 N1571 1.328 . S
C1566 H1572 0.929 . S
C1567 C1568 1.362 . S
C1567 C1570 1.378 . S
C1567 H1582 0.929 . S
C1568 C1567 1.362 . S
C1568 C1569 1.366 . S
C1569 C1566 1.365 . S
C1569 C1568 1.366 . S
C1569 H1583 0.930 . S
C1570 C1567 1.378 . S
C1570 N1571 1.315 . S
C1570 H1573 0.930 . S
N1571 Co1551 2.194 . S
N1571 C1566 1.328 . S
N1571 C1570 1.315 . S
H1572 C1566 0.929 . S
H1573 C1570 0.930 . S
H1574 C1562 0.929 . S
H1575 C1564 0.929 . S
O1576 Co1551 2.351 . S
O1576 C1579 1.244 . S
O1577 Co1551 2.155 . S
O1577 C1579 1.240 . S
O1578 Co1551 2.096 . S
O1578 C1559 1.247 . S
C1579 O1576 1.244 . S
C1579 O1577 1.240 . S
H1580 C1554 0.931 . S
H1581 C1563 0.931 . S
H1582 C1567 0.929 . S
H1583 C1569 0.930 . S
C1584 C1585 1.387 . S
C1584 H1588 0.950 . S
C1584 C1593 1.390 . S
C1585 C1584 1.387 . S
C1585 C1587 1.387 . S
H1586 C1593 0.950 . S
C1587 C1585 1.387 . S
C1587 C1589 1.390 . S
C1587 H1591 0.950 . S
H1588 C1584 0.950 . S
C1589 C1587 1.390 . S
C1589 C1590 1.387 . S
C1589 H1592 0.950 . S
C1590 C1589 1.387 . S
C1590 C1593 1.387 . S
H1591 C1587 0.950 . S
H1592 C1589 0.950 . S
C1593 C1584 1.390 . S
C1593 H1586 0.950 . S
C1593 C1590 1.387 . S
C1594 C1595 1.387 . S
C1594 H1598 0.950 . S
C1594 C1603 1.390 . S
C1595 C1594 1.387 . S
C1595 C1597 1.387 . S
H1596 C1603 0.950 . S
C1597 C1595 1.387 . S
C1597 C1599 1.390 . S
C1597 H1601 0.950 . S
H1598 C1594 0.950 . S
C1599 C1597 1.390 . S
C1599 C1600 1.387 . S
C1599 H1602 0.950 . S
C1600 C1599 1.387 . S
C1600 C1603 1.387 . S
H1601 C1597 0.950 . S
H1602 C1599 0.950 . S
C1603 C1594 1.390 . S
C1603 H1596 0.950 . S
C1603 C1600 1.387 . S
C1604 C1605 1.387 . S
C1604 H1608 0.950 . S
C1604 C1613 1.390 . S
C1605 C1604 1.387 . S
C1605 C1607 1.387 . S
H1606 C1613 0.950 . S
C1607 C1605 1.387 . S
C1607 C1609 1.390 . S
C1607 H1611 0.950 . S
H1608 C1604 0.950 . S
C1609 C1607 1.390 . S
C1609 C1610 1.387 . S
C1609 H1612 0.950 . S
C1610 C1609 1.387 . S
C1610 C1613 1.387 . S
H1611 C1607 0.950 . S
H1612 C1609 0.950 . S
C1613 C1604 1.390 . S
C1613 H1606 0.950 . S
C1613 C1610 1.387 . S
C1614 C1615 1.387 . S
C1614 H1618 0.950 . S
C1614 C1623 1.390 . S
C1615 C1614 1.387 . S
C1615 C1617 1.387 . S
H1616 C1623 0.950 . S
C1617 C1615 1.387 . S
C1617 C1619 1.390 . S
C1617 H1621 0.950 . S
H1618 C1614 0.950 . S
C1619 C1617 1.390 . S
C1619 C1620 1.387 . S
C1619 H1622 0.950 . S
C1620 C1619 1.387 . S
C1620 C1623 1.387 . S
H1621 C1617 0.950 . S
H1622 C1619 0.950 . S
C1623 C1614 1.390 . S
C1623 H1616 0.950 . S
C1623 C1620 1.387 . S
C1624 C1625 1.387 . S
C1624 H1628 0.950 . S
C1624 C1633 1.390 . S
C1625 C1624 1.387 . S
C1625 C1627 1.387 . S
H1626 C1633 0.950 . S
C1627 C1625 1.387 . S
C1627 C1629 1.390 . S
C1627 H1631 0.950 . S
H1628 C1624 0.950 . S
C1629 C1627 1.390 . S
C1629 C1630 1.387 . S
C1629 H1632 0.950 . S
C1630 C1629 1.387 . S
C1630 C1633 1.387 . S
H1631 C1627 0.950 . S
H1632 C1629 0.950 . S
C1633 C1624 1.390 . S
C1633 H1626 0.950 . S
C1633 C1630 1.387 . S
C1634 C1635 1.387 . S
C1634 H1638 0.950 . S
C1634 C1643 1.390 . S
C1635 C1634 1.387 . S
C1635 C1637 1.387 . S
H1636 C1643 0.950 . S
C1637 C1635 1.387 . S
C1637 C1639 1.390 . S
C1637 H1641 0.950 . S
H1638 C1634 0.950 . S
C1639 C1637 1.390 . S
C1639 C1640 1.387 . S
C1639 H1642 0.950 . S
C1640 C1639 1.387 . S
C1640 C1643 1.387 . S
H1641 C1637 0.950 . S
H1642 C1639 0.950 . S
C1643 C1634 1.390 . S
C1643 H1636 0.950 . S
C1643 C1640 1.387 . S
C1644 C1645 1.387 . S
C1644 H1648 0.950 . S
C1644 C1653 1.390 . S
C1645 C1644 1.387 . S
C1645 C1647 1.387 . S
H1646 C1653 0.950 . S
C1647 C1645 1.387 . S
C1647 C1649 1.390 . S
C1647 H1651 0.950 . S
H1648 C1644 0.950 . S
C1649 C1647 1.390 . S
C1649 C1650 1.387 . S
C1649 H1652 0.950 . S
C1650 C1649 1.387 . S
C1650 C1653 1.387 . S
H1651 C1647 0.950 . S
H1652 C1649 0.950 . S
C1653 C1644 1.390 . S
C1653 H1646 0.950 . S
C1653 C1650 1.387 . S
C1654 C1655 1.387 . S
C1654 H1658 0.950 . S
C1654 C1663 1.390 . S
C1655 C1654 1.387 . S
C1655 C1657 1.387 . S
H1656 C1663 0.950 . S
C1657 C1655 1.387 . S
C1657 C1659 1.390 . S
C1657 H1661 0.950 . S
H1658 C1654 0.950 . S
C1659 C1657 1.390 . S
C1659 C1660 1.387 . S
C1659 H1662 0.950 . S
C1660 C1659 1.387 . S
C1660 C1663 1.387 . S
H1661 C1657 0.950 . S
H1662 C1659 0.950 . S
C1663 C1654 1.390 . S
C1663 H1656 0.950 . S
C1663 C1660 1.387 . S
C1664 C1665 1.387 . S
C1664 H1668 0.950 . S
C1664 C1673 1.390 . S
C1665 C1664 1.387 . S
C1665 C1667 1.387 . S
H1666 C1673 0.950 . S
C1667 C1665 1.387 . S
C1667 C1669 1.390 . S
C1667 H1671 0.950 . S
H1668 C1664 0.950 . S
C1669 C1667 1.390 . S
C1669 C1670 1.387 . S
C1669 H1672 0.950 . S
C1670 C1669 1.387 . S
C1670 C1673 1.387 . S
H1671 C1667 0.950 . S
H1672 C1669 0.950 . S
C1673 C1664 1.390 . S
C1673 H1666 0.950 . S
C1673 C1670 1.387 . S
C1674 C1675 1.387 . S
C1674 H1678 0.950 . S
C1674 C1683 1.390 . S
C1675 C1674 1.387 . S
C1675 C1677 1.387 . S
H1676 C1683 0.950 . S
C1677 C1675 1.387 . S
C1677 C1679 1.390 . S
C1677 H1681 0.950 . S
H1678 C1674 0.950 . S
C1679 C1677 1.390 . S
C1679 C1680 1.387 . S
C1679 H1682 0.950 . S
C1680 C1679 1.387 . S
C1680 C1683 1.387 . S
H1681 C1677 0.950 . S
H1682 C1679 0.950 . S
C1683 C1674 1.390 . S
C1683 H1676 0.950 . S
C1683 C1680 1.387 . S
C1684 C1685 1.387 . S
C1684 H1688 0.950 . S
C1684 C1693 1.390 . S
C1685 C1684 1.387 . S
C1685 C1687 1.387 . S
H1686 C1693 0.950 . S
C1687 C1685 1.387 . S
C1687 C1689 1.390 . S
C1687 H1691 0.950 . S
H1688 C1684 0.950 . S
C1689 C1687 1.390 . S
C1689 C1690 1.387 . S
C1689 H1692 0.950 . S
C1690 C1689 1.387 . S
C1690 C1693 1.387 . S
H1691 C1687 0.950 . S
H1692 C1689 0.950 . S
C1693 C1684 1.390 . S
C1693 H1686 0.950 . S
C1693 C1690 1.387 . S
C1694 C1695 1.387 . S
C1694 H1698 0.950 . S
C1694 C1703 1.390 . S
C1695 C1694 1.387 . S
C1695 C1697 1.387 . S
H1696 C1703 0.950 . S
C1697 C1695 1.387 . S
C1697 C1699 1.390 . S
C1697 H1701 0.950 . S
H1698 C1694 0.950 . S
C1699 C1697 1.390 . S
C1699 C1700 1.387 . S
C1699 H1702 0.950 . S
C1700 C1699 1.387 . S
C1700 C1703 1.387 . S
H1701 C1697 0.950 . S
H1702 C1699 0.950 . S
C1703 C1694 1.390 . S
C1703 H1696 0.950 . S
C1703 C1700 1.387 . S
C1704 C1705 1.387 . S
C1704 H1708 0.950 . S
C1704 C1713 1.390 . S
C1705 C1704 1.387 . S
C1705 C1707 1.387 . S
H1706 C1713 0.950 . S
C1707 C1705 1.387 . S
C1707 C1709 1.390 . S
C1707 H1711 0.950 . S
H1708 C1704 0.950 . S
C1709 C1707 1.390 . S
C1709 C1710 1.387 . S
C1709 H1712 0.950 . S
C1710 C1709 1.387 . S
C1710 C1713 1.387 . S
H1711 C1707 0.950 . S
H1712 C1709 0.950 . S
C1713 C1704 1.390 . S
C1713 H1706 0.950 . S
C1713 C1710 1.387 . S
C1714 C1715 1.387 . S
C1714 H1718 0.950 . S
C1714 C1723 1.390 . S
C1715 C1714 1.387 . S
C1715 C1717 1.387 . S
H1716 C1723 0.950 . S
C1717 C1715 1.387 . S
C1717 C1719 1.390 . S
C1717 H1721 0.950 . S
H1718 C1714 0.950 . S
C1719 C1717 1.390 . S
C1719 C1720 1.387 . S
C1719 H1722 0.950 . S
C1720 C1719 1.387 . S
C1720 C1723 1.387 . S
H1721 C1717 0.950 . S
H1722 C1719 0.950 . S
C1723 C1714 1.390 . S
C1723 H1716 0.950 . S
C1723 C1720 1.387 . S
C1724 C1725 1.387 . S
C1724 H1728 0.950 . S
C1724 C1733 1.390 . S
C1725 C1724 1.387 . S
C1725 C1727 1.387 . S
H1726 C1733 0.950 . S
C1727 C1725 1.387 . S
C1727 C1729 1.390 . S
C1727 H1731 0.950 . S
H1728 C1724 0.950 . S
C1729 C1727 1.390 . S
C1729 C1730 1.387 . S
C1729 H1732 0.950 . S
C1730 C1729 1.387 . S
C1730 C1733 1.387 . S
H1731 C1727 0.950 . S
H1732 C1729 0.950 . S
C1733 C1724 1.390 . S
C1733 H1726 0.950 . S
C1733 C1730 1.387 . S
C1734 C1735 1.387 . S
C1734 H1738 0.950 . S
C1734 C1743 1.390 . S
C1735 C1734 1.387 . S
C1735 C1737 1.387 . S
H1736 C1743 0.950 . S
C1737 C1735 1.387 . S
C1737 C1739 1.390 . S
C1737 H1741 0.965 . S
H1738 C1734 0.950 . S
C1739 C1737 1.390 . S
C1739 C1740 1.387 . S
C1739 H1742 0.950 . S
C1740 C1739 1.387 . S
C1740 C1743 1.387 . S
H1741 C1737 0.965 . S
H1742 C1739 0.950 . S
C1743 C1734 1.390 . S
C1743 H1736 0.950 . S
C1743 C1740 1.387 . S
C1744 C1745 1.387 . S
C1744 H1748 0.950 . S
C1744 C1753 1.390 . S
C1745 C1744 1.387 . S
C1745 C1747 1.387 . S
H1746 C1753 0.950 . S
C1747 C1745 1.387 . S
C1747 C1749 1.390 . S
C1747 H1751 0.950 . S
H1748 C1744 0.950 . S
C1749 C1747 1.390 . S
C1749 C1750 1.387 . S
C1749 H1752 0.950 . S
C1750 C1749 1.387 . S
C1750 C1753 1.387 . S
H1751 C1747 0.950 . S
H1752 C1749 0.950 . S
C1753 C1744 1.390 . S
C1753 H1746 0.950 . S
C1753 C1750 1.387 . S
C1754 C1755 1.387 . S
C1754 H1758 0.950 . S
C1754 C1763 1.390 . S
C1755 C1754 1.387 . S
C1755 C1757 1.387 . S
H1756 C1763 0.950 . S
C1757 C1755 1.387 . S
C1757 C1759 1.390 . S
C1757 H1761 0.950 . S
H1758 C1754 0.950 . S
C1759 C1757 1.390 . S
C1759 C1760 1.387 . S
C1759 H1762 0.950 . S
C1760 C1759 1.387 . S
C1760 C1763 1.387 . S
H1761 C1757 0.950 . S
H1762 C1759 0.950 . S
C1763 C1754 1.390 . S
C1763 H1756 0.950 . S
C1763 C1760 1.387 . S
C1764 C1765 1.387 . S
C1764 H1768 0.950 . S
C1764 C1773 1.390 . S
C1765 C1764 1.387 . S
C1765 C1767 1.387 . S
H1766 C1773 0.950 . S
C1767 C1765 1.387 . S
C1767 C1769 1.390 . S
C1767 H1771 0.950 . S
H1768 C1764 0.950 . S
C1769 C1767 1.390 . S
C1769 C1770 1.387 . S
C1769 H1772 0.950 . S
C1770 C1769 1.387 . S
C1770 C1773 1.387 . S
H1771 C1767 0.950 . S
H1772 C1769 0.950 . S
C1773 C1764 1.390 . S
C1773 H1766 0.950 . S
C1773 C1770 1.387 . S
C1774 C1775 1.387 . S
C1774 H1778 0.950 . S
C1774 C1783 1.390 . S
C1775 C1774 1.387 . S
C1775 C1777 1.387 . S
H1776 C1783 0.950 . S
C1777 C1775 1.387 . S
C1777 C1779 1.390 . S
C1777 H1781 0.950 . S
H1778 C1774 0.950 . S
C1779 C1777 1.390 . S
C1779 C1780 1.387 . S
C1779 H1782 0.950 . S
C1780 C1779 1.387 . S
C1780 C1783 1.387 . S
H1781 C1777 0.950 . S
H1782 C1779 0.950 . S
C1783 C1774 1.390 . S
C1783 H1776 0.950 . S
C1783 C1780 1.387 . S
C1784 C1785 1.387 . S
C1784 H1788 0.950 . S
C1784 C1793 1.390 . S
C1785 C1784 1.387 . S
C1785 C1787 1.387 . S
H1786 C1793 0.950 . S
C1787 C1785 1.387 . S
C1787 C1789 1.390 . S
C1787 H1791 0.950 . S
H1788 C1784 0.950 . S
C1789 C1787 1.390 . S
C1789 C1790 1.387 . S
C1789 H1792 0.950 . S
C1790 C1789 1.387 . S
C1790 C1793 1.387 . S
H1791 C1787 0.950 . S
H1792 C1789 0.950 . S
C1793 C1784 1.390 . S
C1793 H1786 0.950 . S
C1793 C1790 1.387 . S
C1794 C1795 1.387 . S
C1794 H1798 0.950 . S
C1794 C1803 1.390 . S
C1795 C1794 1.387 . S
C1795 C1797 1.387 . S
H1796 C1803 0.950 . S
C1797 C1795 1.387 . S
C1797 C1799 1.390 . S
C1797 H1801 0.950 . S
H1798 C1794 0.950 . S
C1799 C1797 1.390 . S
C1799 C1800 1.387 . S
C1799 H1802 0.950 . S
C1800 C1799 1.387 . S
C1800 C1803 1.387 . S
H1801 C1797 0.950 . S
H1802 C1799 0.950 . S
C1803 C1794 1.390 . S
C1803 H1796 0.950 . S
C1803 C1800 1.387 . S
C1804 C1805 1.387 . S
C1804 H1808 0.950 . S
C1804 C1813 1.390 . S
C1805 C1804 1.387 . S
C1805 C1807 1.387 . S
H1806 C1813 0.950 . S
C1807 C1805 1.387 . S
C1807 C1809 1.390 . S
C1807 H1811 0.950 . S
H1808 C1804 0.950 . S
C1809 C1807 1.390 . S
C1809 C1810 1.387 . S
C1809 H1812 0.950 . S
C1810 C1809 1.387 . S
C1810 C1813 1.387 . S
H1811 C1807 0.950 . S
H1812 C1809 0.950 . S
C1813 C1804 1.390 . S
C1813 H1806 0.950 . S
C1813 C1810 1.387 . S
C1814 C1815 1.387 . S
C1814 H1818 0.950 . S
C1814 C1823 1.390 . S
C1815 C1814 1.387 . S
C1815 C1817 1.387 . S
H1816 C1823 0.950 . S
C1817 C1815 1.387 . S
C1817 C1819 1.390 . S
C1817 H1821 0.950 . S
H1818 C1814 0.950 . S
C1819 C1817 1.390 . S
C1819 C1820 1.387 . S
C1819 H1822 0.950 . S
C1820 C1819 1.387 . S
C1820 C1823 1.387 . S
H1821 C1817 0.950 . S
H1822 C1819 0.950 . S
C1823 C1814 1.390 . S
C1823 H1816 0.950 . S
C1823 C1820 1.387 . S
C1824 C1825 1.387 . S
C1824 H1828 0.950 . S
C1824 C1833 1.390 . S
C1825 C1824 1.387 . S
C1825 C1827 1.387 . S
H1826 C1833 0.950 . S
C1827 C1825 1.387 . S
C1827 C1829 1.390 . S
C1827 H1831 0.950 . S
H1828 C1824 0.950 . S
C1829 C1827 1.390 . S
C1829 C1830 1.387 . S
C1829 H1832 0.950 . S
C1830 C1829 1.387 . S
C1830 C1833 1.387 . S
H1831 C1827 0.950 . S
H1832 C1829 0.950 . S
C1833 C1824 1.390 . S
C1833 H1826 0.950 . S
C1833 C1830 1.387 . S
C1834 C1835 1.387 . S
C1834 H1838 0.950 . S
C1834 C1843 1.390 . S
C1835 C1834 1.387 . S
C1835 C1837 1.387 . S
H1836 C1843 0.950 . S
C1837 C1835 1.387 . S
C1837 C1839 1.390 . S
C1837 H1841 0.950 . S
H1838 C1834 0.950 . S
C1839 C1837 1.390 . S
C1839 C1840 1.387 . S
C1839 H1842 0.950 . S
C1840 C1839 1.387 . S
C1840 C1843 1.387 . S
H1841 C1837 0.950 . S
H1842 C1839 0.950 . S
C1843 C1834 1.390 . S
C1843 H1836 0.950 . S
C1843 C1840 1.387 . S
C1844 C1845 1.387 . S
C1844 H1848 0.950 . S
C1844 C1853 1.390 . S
C1845 C1844 1.387 . S
C1845 C1847 1.387 . S
H1846 C1853 0.950 . S
C1847 C1845 1.387 . S
C1847 C1849 1.390 . S
C1847 H1851 0.950 . S
H1848 C1844 0.950 . S
C1849 C1847 1.390 . S
C1849 C1850 1.387 . S
C1849 H1852 0.950 . S
C1850 C1849 1.387 . S
C1850 C1853 1.387 . S
H1851 C1847 0.950 . S
H1852 C1849 0.950 . S
C1853 C1844 1.390 . S
C1853 H1846 0.950 . S
C1853 C1850 1.387 . S
C1854 C1855 1.387 . S
C1854 H1858 0.950 . S
C1854 C1863 1.390 . S
C1855 C1854 1.387 . S
C1855 C1857 1.387 . S
H1856 C1863 0.950 . S
C1857 C1855 1.387 . S
C1857 C1859 1.390 . S
C1857 H1861 0.950 . S
H1858 C1854 0.950 . S
C1859 C1857 1.390 . S
C1859 C1860 1.387 . S
C1859 H1862 0.950 . S
C1860 C1859 1.387 . S
C1860 C1863 1.387 . S
H1861 C1857 0.950 . S
H1862 C1859 0.950 . S
C1863 C1854 1.390 . S
C1863 H1856 0.950 . S
C1863 C1860 1.387 . S
C1864 C1865 1.387 . S
C1864 H1868 0.950 . S
C1864 C1873 1.390 . S
C1865 C1864 1.387 . S
C1865 C1867 1.387 . S
H1866 C1873 0.950 . S
C1867 C1865 1.387 . S
C1867 C1869 1.390 . S
C1867 H1871 0.950 . S
H1868 C1864 0.950 . S
C1869 C1867 1.390 . S
C1869 C1870 1.387 . S
C1869 H1872 0.950 . S
C1870 C1869 1.387 . S
C1870 C1873 1.387 . S
H1871 C1867 0.950 . S
H1872 C1869 0.950 . S
C1873 C1864 1.390 . S
C1873 H1866 0.950 . S
C1873 C1870 1.387 . S
C1874 C1875 1.387 . S
C1874 H1878 0.950 . S
C1874 C1883 1.390 . S
C1875 C1874 1.387 . S
C1875 C1877 1.387 . S
H1876 C1883 0.950 . S
C1877 C1875 1.387 . S
C1877 C1879 1.390 . S
C1877 H1881 0.950 . S
H1878 C1874 0.950 . S
C1879 C1877 1.390 . S
C1879 C1880 1.387 . S
C1879 H1882 0.950 . S
C1880 C1879 1.387 . S
C1880 C1883 1.387 . S
H1881 C1877 0.950 . S
H1882 C1879 0.950 . S
C1883 C1874 1.390 . S
C1883 H1876 0.950 . S
C1883 C1880 1.387 . S
C1884 C1885 1.387 . S
C1884 H1888 0.950 . S
C1884 C1893 1.390 . S
C1885 C1884 1.387 . S
C1885 C1887 1.387 . S
H1886 C1893 0.950 . S
C1887 C1885 1.387 . S
C1887 C1889 1.390 . S
C1887 H1891 0.950 . S
H1888 C1884 0.950 . S
C1889 C1887 1.390 . S
C1889 C1890 1.387 . S
C1889 H1892 0.950 . S
C1890 C1889 1.387 . S
C1890 C1893 1.387 . S
H1891 C1887 0.950 . S
H1892 C1889 0.950 . S
C1893 C1884 1.390 . S
C1893 H1886 0.950 . S
C1893 C1890 1.387 . S
C1894 C1895 1.387 . S
C1894 H1898 0.950 . S
C1894 C1903 1.390 . S
C1895 C1894 1.387 . S
C1895 C1897 1.387 . S
H1896 C1903 0.950 . S
C1897 C1895 1.387 . S
C1897 C1899 1.390 . S
C1897 H1901 0.950 . S
H1898 C1894 0.950 . S
C1899 C1897 1.390 . S
C1899 C1900 1.387 . S
C1899 H1902 0.950 . S
C1900 C1899 1.387 . S
C1900 C1903 1.387 . S
H1901 C1897 0.950 . S
H1902 C1899 0.950 . S
C1903 C1894 1.390 . S
C1903 H1896 0.950 . S
C1903 C1900 1.387 . S
C1904 C1905 1.387 . S
C1904 H1908 0.950 . S
C1904 C1913 1.390 . S
C1905 C1904 1.387 . S
C1905 C1907 1.387 . S
H1906 C1913 0.950 . S
C1907 C1905 1.387 . S
C1907 C1909 1.390 . S
C1907 H1911 0.950 . S
H1908 C1904 0.950 . S
C1909 C1907 1.390 . S
C1909 C1910 1.387 . S
C1909 H1912 0.950 . S
C1910 C1909 1.387 . S
C1910 C1913 1.387 . S
H1911 C1907 0.950 . S
H1912 C1909 0.950 . S
C1913 C1904 1.390 . S
C1913 H1906 0.950 . S
C1913 C1910 1.387 . S
C1914 C1915 1.387 . S
C1914 H1918 0.950 . S
C1914 C1923 1.390 . S
C1915 C1914 1.387 . S
C1915 C1917 1.387 . S
H1916 C1923 0.950 . S
C1917 C1915 1.387 . S
C1917 C1919 1.390 . S
C1917 H1921 0.950 . S
H1918 C1914 0.950 . S
C1919 C1917 1.390 . S
C1919 C1920 1.387 . S
C1919 H1922 0.950 . S
C1920 C1919 1.387 . S
C1920 C1923 1.387 . S
H1921 C1917 0.950 . S
H1922 C1919 0.950 . S
C1923 C1914 1.390 . S
C1923 H1916 0.950 . S
C1923 C1920 1.387 . S
C1924 C1925 1.387 . S
C1924 H1928 0.950 . S
C1924 C1933 1.390 . S
C1925 C1924 1.387 . S
C1925 C1927 1.387 . S
H1926 C1933 0.950 . S
C1927 C1925 1.387 . S
C1927 C1929 1.390 . S
C1927 H1931 0.950 . S
H1928 C1924 0.950 . S
C1929 C1927 1.390 . S
C1929 C1930 1.387 . S
C1929 H1932 0.950 . S
C1930 C1929 1.387 . S
C1930 C1933 1.387 . S
H1931 C1927 0.950 . S
H1932 C1929 0.950 . S
C1933 C1924 1.390 . S
C1933 H1926 0.950 . S
C1933 C1930 1.387 . S
C1934 C1935 1.387 . S
C1934 H1938 0.950 . S
C1934 C1943 1.390 . S
C1935 C1934 1.387 . S
C1935 C1937 1.387 . S
H1936 C1943 0.950 . S
C1937 C1935 1.387 . S
C1937 C1939 1.390 . S
C1937 H1941 0.950 . S
H1938 C1934 0.950 . S
C1939 C1937 1.390 . S
C1939 C1940 1.387 . S
C1939 H1942 0.950 . S
C1940 C1939 1.387 . S
C1940 C1943 1.387 . S
H1941 C1937 0.950 . S
H1942 C1939 0.950 . S
C1943 C1934 1.390 . S
C1943 H1936 0.950 . S
C1943 C1940 1.387 . S
C1944 C1945 1.387 . S
C1944 H1948 0.950 . S
C1944 C1953 1.390 . S
C1945 C1944 1.387 . S
C1945 C1947 1.387 . S
H1946 C1953 0.950 . S
C1947 C1945 1.387 . S
C1947 C1949 1.390 . S
C1947 H1951 0.950 . S
H1948 C1944 0.950 . S
C1949 C1947 1.390 . S
C1949 C1950 1.387 . S
C1949 H1952 0.950 . S
C1950 C1949 1.387 . S
C1950 C1953 1.387 . S
H1951 C1947 0.950 . S
H1952 C1949 0.950 . S
C1953 C1944 1.390 . S
C1953 H1946 0.950 . S
C1953 C1950 1.387 . S
C1954 C1955 1.387 . S
C1954 H1958 0.950 . S
C1954 C1963 1.390 . S
C1955 C1954 1.387 . S
C1955 C1957 1.387 . S
H1956 C1963 0.950 . S
C1957 C1955 1.387 . S
C1957 C1959 1.390 . S
C1957 H1961 0.950 . S
H1958 C1954 0.950 . S
C1959 C1957 1.390 . S
C1959 C1960 1.387 . S
C1959 H1962 0.950 . S
C1960 C1959 1.387 . S
C1960 C1963 1.387 . S
H1961 C1957 0.950 . S
H1962 C1959 0.950 . S
C1963 C1954 1.390 . S
C1963 H1956 0.950 . S
C1963 C1960 1.387 . S
C1964 C1965 1.387 . S
C1964 H1968 0.950 . S
C1964 C1973 1.390 . S
C1965 C1964 1.387 . S
C1965 C1967 1.387 . S
H1966 C1973 0.950 . S
C1967 C1965 1.387 . S
C1967 C1969 1.390 . S
C1967 H1971 0.950 . S
H1968 C1964 0.950 . S
C1969 C1967 1.390 . S
C1969 C1970 1.387 . S
C1969 H1972 0.950 . S
C1970 C1969 1.387 . S
C1970 C1973 1.387 . S
H1971 C1967 0.950 . S
H1972 C1969 0.950 . S
C1973 C1964 1.390 . S
C1973 H1966 0.950 . S
C1973 C1970 1.387 . S
C1974 C1975 1.387 . S
C1974 H1978 0.950 . S
C1974 C1983 1.390 . S
C1975 C1974 1.387 . S
C1975 C1977 1.387 . S
H1976 C1983 0.950 . S
C1977 C1975 1.387 . S
C1977 C1979 1.390 . S
C1977 H1981 0.950 . S
H1978 C1974 0.950 . S
C1979 C1977 1.390 . S
C1979 C1980 1.387 . S
C1979 H1982 0.950 . S
C1980 C1979 1.387 . S
C1980 C1983 1.387 . S
H1981 C1977 0.950 . S
H1982 C1979 0.950 . S
C1983 C1974 1.390 . S
C1983 H1976 0.950 . S
C1983 C1980 1.387 . S
C1984 C1985 1.387 . S
C1984 H1988 0.950 . S
C1984 C1993 1.390 . S
C1985 C1984 1.387 . S
C1985 C1987 1.387 . S
H1986 C1993 0.950 . S
C1987 C1985 1.387 . S
C1987 C1989 1.390 . S
C1987 H1991 0.950 . S
H1988 C1984 0.950 . S
C1989 C1987 1.390 . S
C1989 C1990 1.387 . S
C1989 H1992 0.950 . S
C1990 C1989 1.387 . S
C1990 C1993 1.387 . S
H1991 C1987 0.950 . S
H1992 C1989 0.950 . S
C1993 C1984 1.390 . S
C1993 H1986 0.950 . S
C1993 C1990 1.387 . S
C1994 C1995 1.387 . S
C1994 H1998 0.950 . S
C1994 C2003 1.390 . S
C1995 C1994 1.387 . S
C1995 C1997 1.387 . S
H1996 C2003 0.950 . S
C1997 C1995 1.387 . S
C1997 C1999 1.390 . S
C1997 H2001 0.950 . S
H1998 C1994 0.950 . S
C1999 C1997 1.390 . S
C1999 C2000 1.387 . S
C1999 H2002 0.950 . S
C2000 C1999 1.387 . S
C2000 C2003 1.387 . S
H2001 C1997 0.950 . S
H2002 C1999 0.950 . S
C2003 C1994 1.390 . S
C2003 H1996 0.950 . S
C2003 C2000 1.387 . S
C2004 C2005 1.387 . S
C2004 H2008 0.950 . S
C2004 C2013 1.390 . S
C2005 C2004 1.387 . S
C2005 C2007 1.387 . S
H2006 C2013 0.950 . S
C2007 C2005 1.387 . S
C2007 C2009 1.390 . S
C2007 H2011 0.950 . S
H2008 C2004 0.950 . S
C2009 C2007 1.390 . S
C2009 C2010 1.387 . S
C2009 H2012 0.950 . S
C2010 C2009 1.387 . S
C2010 C2013 1.387 . S
H2011 C2007 0.950 . S
H2012 C2009 0.950 . S
C2013 C2004 1.390 . S
C2013 H2006 0.950 . S
C2013 C2010 1.387 . S
C2014 C2015 1.387 . S
C2014 H2018 0.950 . S
C2014 C2023 1.390 . S
C2015 C2014 1.387 . S
C2015 C2017 1.387 . S
H2016 C2023 0.950 . S
C2017 C2015 1.387 . S
C2017 C2019 1.390 . S
C2017 H2021 0.950 . S
H2018 C2014 0.950 . S
C2019 C2017 1.390 . S
C2019 C2020 1.387 . S
C2019 H2022 0.950 . S
C2020 C2019 1.387 . S
C2020 C2023 1.387 . S
H2021 C2017 0.950 . S
H2022 C2019 0.950 . S
C2023 C2014 1.390 . S
C2023 H2016 0.950 . S
C2023 C2020 1.387 . S
C2024 C2025 1.387 . S
C2024 H2028 0.950 . S
C2024 C2033 1.390 . S
C2025 C2024 1.387 . S
C2025 C2027 1.387 . S
H2026 C2033 0.950 . S
C2027 C2025 1.387 . S
C2027 C2029 1.390 . S
C2027 H2031 0.950 . S
H2028 C2024 0.950 . S
C2029 C2027 1.390 . S
C2029 C2030 1.387 . S
C2029 H2032 0.950 . S
C2030 C2029 1.387 . S
C2030 C2033 1.387 . S
H2031 C2027 0.950 . S
H2032 C2029 0.950 . S
C2033 C2024 1.390 . S
C2033 H2026 0.950 . S
C2033 C2030 1.387 . S
C2034 C2035 1.387 . S
C2034 H2038 0.950 . S
C2034 C2043 1.390 . S
C2035 C2034 1.387 . S
C2035 C2037 1.387 . S
H2036 C2043 0.950 . S
C2037 C2035 1.387 . S
C2037 C2039 1.390 . S
C2037 H2041 0.950 . S
H2038 C2034 0.950 . S
C2039 C2037 1.390 . S
C2039 C2040 1.387 . S
C2039 H2042 0.950 . S
C2040 C2039 1.387 . S
C2040 C2043 1.387 . S
H2041 C2037 0.950 . S
H2042 C2039 0.950 . S
C2043 C2034 1.390 . S
C2043 H2036 0.950 . S
C2043 C2040 1.387 . S
C2044 C2045 1.387 . S
C2044 H2048 0.950 . S
C2044 C2053 1.390 . S
C2045 C2044 1.387 . S
C2045 C2047 1.387 . S
H2046 C2053 0.950 . S
C2047 C2045 1.387 . S
C2047 C2049 1.390 . S
C2047 H2051 0.950 . S
H2048 C2044 0.950 . S
C2049 C2047 1.390 . S
C2049 C2050 1.387 . S
C2049 H2052 0.950 . S
C2050 C2049 1.387 . S
C2050 C2053 1.387 . S
H2051 C2047 0.950 . S
H2052 C2049 0.950 . S
C2053 C2044 1.390 . S
C2053 H2046 0.950 . S
C2053 C2050 1.387 . S
C2054 C2055 1.387 . S
C2054 H2058 0.950 . S
C2054 C2063 1.390 . S
C2055 C2054 1.387 . S
C2055 C2057 1.387 . S
H2056 C2063 0.950 . S
C2057 C2055 1.387 . S
C2057 C2059 1.390 . S
C2057 H2061 0.950 . S
H2058 C2054 0.950 . S
C2059 C2057 1.390 . S
C2059 C2060 1.387 . S
C2059 H2062 0.950 . S
C2060 C2059 1.387 . S
C2060 C2063 1.387 . S
H2061 C2057 0.950 . S
H2062 C2059 0.950 . S
C2063 C2054 1.390 . S
C2063 H2056 0.950 . S
C2063 C2060 1.387 . S
C2064 C2065 1.387 . S
C2064 H2068 0.950 . S
C2064 C2073 1.390 1_545 S
C2065 C2064 1.387 . S
C2065 C2067 1.387 . S
H2066 C2073 0.950 . S
C2067 C2065 1.387 . S
C2067 C2069 1.390 1_545 S
C2067 H2071 0.950 . S
H2068 C2064 0.950 . S
C2069 C2067 1.390 1_565 S
C2069 C2070 1.387 . S
C2069 H2072 0.950 . S
C2070 C2069 1.387 . S
C2070 C2073 1.387 . S
H2071 C2067 0.950 . S
H2072 C2069 0.950 . S
C2073 C2064 1.390 1_565 S
C2073 H2066 0.950 . S
C2073 C2070 1.387 . S
C2074 C2075 1.387 . S
C2074 H2078 0.950 . S
C2074 C2083 1.390 1_556 S
C2075 C2074 1.387 . S
C2075 C2077 1.387 . S
H2076 C2083 0.950 . S
C2077 C2075 1.387 . S
C2077 C2079 1.390 1_556 S
C2077 H2081 0.950 . S
H2078 C2074 0.950 . S
C2079 C2077 1.390 1_554 S
C2079 C2080 1.387 . S
C2079 H2082 0.950 . S
C2080 C2079 1.387 . S
C2080 C2083 1.387 . S
H2081 C2077 0.950 . S
H2082 C2079 0.950 . S
C2083 C2074 1.390 1_554 S
C2083 H2076 0.950 . S
C2083 C2080 1.387 . S
C2084 C2085 1.387 . S
C2084 H2088 0.950 . S
C2084 C2093 1.390 . S
C2085 C2084 1.387 . S
C2085 C2087 1.387 . S
H2086 C2093 0.950 . S
C2087 C2085 1.387 . S
C2087 C2089 1.390 . S
C2087 H2091 0.950 . S
H2088 C2084 0.950 . S
C2089 C2087 1.390 . S
C2089 C2090 1.387 . S
C2089 H2092 0.950 . S
C2090 C2089 1.387 . S
C2090 C2093 1.387 . S
H2091 C2087 0.950 . S
H2092 C2089 0.950 . S
C2093 C2084 1.390 . S
C2093 H2086 0.950 . S
C2093 C2090 1.387 . S
C2094 C2095 1.387 . S
C2094 H2098 0.950 . S
C2094 C2103 1.390 1_554 S
C2095 C2094 1.387 . S
C2095 C2097 1.387 . S
H2096 C2103 0.950 . S
C2097 C2095 1.387 . S
C2097 C2099 1.390 1_554 S
C2097 H2101 0.950 . S
H2098 C2094 0.950 . S
C2099 C2097 1.390 1_556 S
C2099 C2100 1.387 . S
C2099 H2102 0.950 . S
C2100 C2099 1.387 . S
C2100 C2103 1.387 . S
H2101 C2097 0.950 . S
H2102 C2099 0.950 . S
C2103 C2094 1.390 1_556 S
C2103 H2096 0.950 . S
C2103 C2100 1.387 . S
C2104 C2105 1.387 . S
C2104 H2108 0.950 . S
C2104 C2113 1.390 1_556 S
C2105 C2104 1.387 . S
C2105 C2107 1.387 . S
H2106 C2113 0.950 . S
C2107 C2105 1.387 . S
C2107 C2109 1.390 1_556 S
C2107 H2111 0.950 . S
H2108 C2104 0.950 . S
C2109 C2107 1.390 1_554 S
C2109 C2110 1.387 . S
C2109 H2112 0.950 . S
C2110 C2109 1.387 . S
C2110 C2113 1.387 . S
H2111 C2107 0.950 . S
H2112 C2109 0.950 . S
C2113 C2104 1.390 1_554 S
C2113 H2106 0.950 . S
C2113 C2110 1.387 . S
C2114 C2115 1.387 . S
C2114 H2118 0.950 . S
C2114 C2123 1.390 . S
C2115 C2114 1.387 . S
C2115 C2117 1.387 . S
H2116 C2123 0.950 . S
C2117 C2115 1.387 . S
C2117 C2119 1.390 . S
C2117 H2121 0.950 . S
H2118 C2114 0.950 . S
C2119 C2117 1.390 . S
C2119 C2120 1.387 . S
C2119 H2122 0.950 . S
C2120 C2119 1.387 . S
C2120 C2123 1.387 . S
H2121 C2117 0.950 . S
H2122 C2119 0.950 . S
C2123 C2114 1.390 . S
C2123 H2116 0.950 . S
C2123 C2120 1.387 . S
C2124 C2125 1.387 . S
C2124 H2128 0.950 . S
C2124 C2133 1.390 1_556 S
C2125 C2124 1.387 . S
C2125 C2127 1.387 . S
H2126 C2133 0.950 . S
C2127 C2125 1.387 . S
C2127 C2129 1.390 1_556 S
C2127 H2131 0.950 . S
H2128 C2124 0.950 . S
C2129 C2127 1.390 1_554 S
C2129 C2130 1.387 . S
C2129 H2132 0.950 . S
C2130 C2129 1.387 . S
C2130 C2133 1.387 . S
H2131 C2127 0.950 . S
H2132 C2129 0.950 . S
C2133 C2124 1.390 1_554 S
C2133 H2126 0.950 . S
C2133 C2130 1.387 . S
C2134 C2135 1.387 . S
C2134 H2138 0.950 . S
C2134 C2143 1.390 1_545 S
C2135 C2134 1.387 . S
C2135 C2137 1.387 . S
H2136 C2143 0.950 . S
C2137 C2135 1.387 . S
C2137 C2139 1.390 1_545 S
C2137 H2141 0.950 . S
H2138 C2134 0.950 . S
C2139 C2137 1.390 1_565 S
C2139 C2140 1.387 . S
C2139 H2142 0.950 . S
C2140 C2139 1.387 . S
C2140 C2143 1.387 . S
H2141 C2137 0.950 . S
H2142 C2139 0.950 . S
C2143 C2134 1.390 1_565 S
C2143 H2136 0.950 . S
C2143 C2140 1.387 . S
C2144 C2145 1.387 . S
C2144 H2148 0.950 . S
C2144 C2153 1.390 . S
C2145 C2144 1.387 . S
C2145 C2147 1.387 . S
H2146 C2153 0.950 . S
C2147 C2145 1.387 . S
C2147 C2149 1.390 . S
C2147 H2151 0.950 . S
H2148 C2144 0.950 . S
C2149 C2147 1.390 . S
C2149 C2150 1.387 . S
C2149 H2152 0.950 . S
C2150 C2149 1.387 . S
C2150 C2153 1.387 . S
H2151 C2147 0.950 . S
H2152 C2149 0.950 . S
C2153 C2144 1.390 . S
C2153 H2146 0.950 . S
C2153 C2150 1.387 . S
C2154 C2155 1.387 . S
C2154 H2158 0.950 . S
C2154 C2163 1.390 . S
C2155 C2154 1.387 . S
C2155 C2157 1.387 . S
H2156 C2163 0.950 . S
C2157 C2155 1.387 . S
C2157 C2159 1.390 . S
C2157 H2161 0.950 . S
H2158 C2154 0.950 . S
C2159 C2157 1.390 . S
C2159 C2160 1.387 . S
C2159 H2162 0.950 . S
C2160 C2159 1.387 . S
C2160 C2163 1.387 . S
H2161 C2157 0.950 . S
H2162 C2159 0.950 . S
C2163 C2154 1.390 . S
C2163 H2156 0.950 . S
C2163 C2160 1.387 . S
C2164 C2165 1.387 . S
C2164 H2168 0.950 . S
C2164 C2173 1.390 . S
C2165 C2164 1.387 . S
C2165 C2167 1.387 . S
H2166 C2173 0.950 . S
C2167 C2165 1.387 . S
C2167 C2169 1.390 . S
C2167 H2171 0.950 . S
H2168 C2164 0.950 . S
C2169 C2167 1.390 . S
C2169 C2170 1.387 . S
C2169 H2172 0.950 . S
C2170 C2169 1.387 . S
C2170 C2173 1.387 . S
H2171 C2167 0.950 . S
H2172 C2169 0.950 . S
C2173 C2164 1.390 . S
C2173 H2166 0.950 . S
C2173 C2170 1.387 . S
C2174 C2175 1.387 . S
C2174 H2178 0.950 . S
C2174 C2183 1.390 1_545 S
C2175 C2174 1.387 . S
C2175 C2177 1.387 . S
H2176 C2183 0.950 . S
C2177 C2175 1.387 . S
C2177 C2179 1.390 1_545 S
C2177 H2181 0.950 . S
H2178 C2174 0.950 . S
C2179 C2177 1.390 1_565 S
C2179 C2180 1.387 . S
C2179 H2182 0.950 . S
C2180 C2179 1.387 . S
C2180 C2183 1.387 . S
H2181 C2177 0.950 . S
H2182 C2179 0.950 . S
C2183 C2174 1.390 1_565 S
C2183 H2176 0.950 . S
C2183 C2180 1.387 . S
C2184 C2185 1.387 . S
C2184 H2188 0.950 . S
C2184 C2193 1.390 1_655 S
C2185 C2184 1.387 . S
C2185 C2187 1.387 . S
H2186 C2193 0.950 . S
C2187 C2185 1.387 . S
C2187 C2189 1.390 1_655 S
C2187 H2191 0.950 . S
H2188 C2184 0.950 . S
C2189 C2187 1.390 1_455 S
C2189 C2190 1.387 . S
C2189 H2192 0.950 . S
C2190 C2189 1.387 . S
C2190 C2193 1.387 . S
H2191 C2187 0.950 . S
H2192 C2189 0.950 . S
C2193 C2184 1.390 1_455 S
C2193 H2186 0.950 . S
C2193 C2190 1.387 . S
C2194 C2195 1.387 . S
C2194 H2198 0.950 . S
C2194 C2203 1.390 1_655 S
C2195 C2194 1.387 . S
C2195 C2197 1.387 . S
H2196 C2203 0.950 . S
C2197 C2195 1.387 . S
C2197 C2199 1.390 1_655 S
C2197 H2201 0.950 . S
H2198 C2194 0.950 . S
C2199 C2197 1.390 1_455 S
C2199 C2200 1.387 . S
C2199 H2202 0.950 . S
C2200 C2199 1.387 . S
C2200 C2203 1.387 . S
H2201 C2197 0.950 . S
H2202 C2199 0.950 . S
C2203 C2194 1.390 1_455 S
C2203 H2196 0.950 . S
C2203 C2200 1.387 . S
C2204 C2205 1.387 . S
C2204 H2208 0.950 . S
C2204 C2213 1.390 1_455 S
C2205 C2204 1.387 . S
C2205 C2207 1.387 . S
H2206 C2213 0.950 . S
C2207 C2205 1.387 . S
C2207 C2209 1.390 1_455 S
C2207 H2211 0.950 . S
H2208 C2204 0.950 . S
C2209 C2207 1.390 1_655 S
C2209 C2210 1.387 . S
C2209 H2212 0.950 . S
C2210 C2209 1.387 . S
C2210 C2213 1.387 . S
H2211 C2207 0.950 . S
H2212 C2209 0.950 . S
C2213 C2204 1.390 1_655 S
C2213 H2206 0.950 . S
C2213 C2210 1.387 . S
C2214 C2215 1.387 . S
C2214 H2218 0.950 . S
C2214 C2223 1.390 . S
C2215 C2214 1.387 . S
C2215 C2217 1.387 . S
H2216 C2223 0.950 . S
C2217 C2215 1.387 . S
C2217 C2219 1.390 . S
C2217 H2221 0.950 . S
H2218 C2214 0.950 . S
C2219 C2217 1.390 . S
C2219 C2220 1.387 . S
C2219 H2222 0.950 . S
C2220 C2219 1.387 . S
C2220 C2223 1.387 . S
H2221 C2217 0.950 . S
H2222 C2219 0.950 . S
C2223 C2214 1.390 . S
C2223 H2216 0.950 . S
C2223 C2220 1.387 . S
C2224 C2225 1.387 . S
C2224 H2228 0.950 . S
C2224 C2233 1.390 . S
C2225 C2224 1.387 . S
C2225 C2227 1.387 . S
H2226 C2233 0.950 . S
C2227 C2225 1.387 . S
C2227 C2229 1.390 . S
C2227 H2231 0.950 . S
H2228 C2224 0.950 . S
C2229 C2227 1.390 . S
C2229 C2230 1.387 . S
C2229 H2232 0.950 . S
C2230 C2229 1.387 . S
C2230 C2233 1.387 . S
H2231 C2227 0.950 . S
H2232 C2229 0.950 . S
C2233 C2224 1.390 . S
C2233 H2226 0.950 . S
C2233 C2230 1.387 . S
C2234 C2235 1.387 . S
C2234 H2238 0.950 . S
C2234 C2243 1.390 1_655 S
C2235 C2234 1.387 . S
C2235 C2237 1.387 . S
H2236 C2243 0.950 . S
C2237 C2235 1.387 . S
C2237 C2239 1.390 1_655 S
C2237 H2241 0.950 . S
H2238 C2234 0.950 . S
C2239 C2237 1.390 1_455 S
C2239 C2240 1.387 . S
C2239 H2242 0.950 . S
C2240 C2239 1.387 . S
C2240 C2243 1.387 . S
H2241 C2237 0.950 . S
H2242 C2239 0.950 . S
C2243 C2234 1.390 1_455 S
C2243 H2236 0.950 . S
C2243 C2240 1.387 . S
C2244 C2245 1.387 . S
C2244 H2248 0.950 . S
C2244 C2253 1.390 . S
C2245 C2244 1.387 . S
C2245 C2247 1.387 . S
H2246 C2253 0.950 . S
C2247 C2245 1.387 . S
C2247 C2249 1.390 . S
C2247 H2251 0.950 . S
H2248 C2244 0.950 . S
C2249 C2247 1.390 . S
C2249 C2250 1.387 . S
C2249 H2252 0.950 . S
C2250 C2249 1.387 . S
C2250 C2253 1.387 . S
H2251 C2247 0.950 . S
H2252 C2249 0.950 . S
C2253 C2244 1.390 . S
C2253 H2246 0.950 . S
C2253 C2250 1.387 . S
C2254 C2255 1.387 . S
C2254 H2258 0.950 . S
C2254 C2263 1.390 . S
C2255 C2254 1.387 . S
C2255 C2257 1.387 . S
H2256 C2263 0.950 . S
C2257 C2255 1.387 . S
C2257 C2259 1.390 . S
C2257 H2261 0.950 . S
H2258 C2254 0.950 . S
C2259 C2257 1.390 . S
C2259 C2260 1.387 . S
C2259 H2262 0.950 . S
C2260 C2259 1.387 . S
C2260 C2263 1.387 . S
H2261 C2257 0.950 . S
H2262 C2259 0.950 . S
C2263 C2254 1.390 . S
C2263 H2256 0.950 . S
C2263 C2260 1.387 . S
C2264 C2265 1.387 . S
C2264 H2268 0.950 . S
C2264 C2273 1.390 1_565 S
C2265 C2264 1.387 . S
C2265 C2267 1.387 . S
H2266 C2273 0.950 . S
C2267 C2265 1.387 . S
C2267 C2269 1.390 1_565 S
C2267 H2271 0.950 . S
H2268 C2264 0.950 . S
C2269 C2267 1.390 1_545 S
C2269 C2270 1.387 . S
C2269 H2272 0.950 . S
C2270 C2269 1.387 . S
C2270 C2273 1.387 . S
H2271 C2267 0.950 . S
H2272 C2269 0.950 . S
C2273 C2264 1.390 1_545 S
C2273 H2266 0.950 . S
C2273 C2270 1.387 . S
C2274 C2275 1.387 . S
C2274 H2278 0.950 . S
C2274 C2283 1.390 . S
C2275 C2274 1.387 . S
C2275 C2277 1.387 . S
H2276 C2283 0.950 . S
C2277 C2275 1.387 . S
C2277 C2279 1.390 . S
C2277 H2281 0.950 . S
H2278 C2274 0.950 . S
C2279 C2277 1.390 . S
C2279 C2280 1.387 . S
C2279 H2282 0.950 . S
C2280 C2279 1.387 . S
C2280 C2283 1.387 . S
H2281 C2277 0.950 . S
H2282 C2279 0.950 . S
C2283 C2274 1.390 . S
C2283 H2276 0.950 . S
C2283 C2280 1.387 . S
C2284 C2285 1.387 . S
C2284 H2288 0.950 . S
C2284 C2293 1.390 . S
C2285 C2284 1.387 . S
C2285 C2287 1.387 . S
H2286 C2293 0.950 . S
C2287 C2285 1.387 . S
C2287 C2289 1.390 . S
C2287 H2291 0.950 . S
H2288 C2284 0.950 . S
C2289 C2287 1.390 . S
C2289 C2290 1.387 . S
C2289 H2292 0.950 . S
C2290 C2289 1.387 . S
C2290 C2293 1.387 . S
H2291 C2287 0.950 . S
H2292 C2289 0.950 . S
C2293 C2284 1.390 . S
C2293 H2286 0.950 . S
C2293 C2290 1.387 . S
C2294 C2295 1.387 . S
C2294 H2298 0.950 . S
C2294 C2303 1.390 . S
C2295 C2294 1.387 . S
C2295 C2297 1.387 . S
H2296 C2303 0.950 . S
C2297 C2295 1.387 . S
C2297 C2299 1.390 . S
C2297 H2301 0.950 . S
H2298 C2294 0.950 . S
C2299 C2297 1.390 . S
C2299 C2300 1.387 . S
C2299 H2302 0.950 . S
C2300 C2299 1.387 . S
C2300 C2303 1.387 . S
H2301 C2297 0.950 . S
H2302 C2299 0.950 . S
C2303 C2294 1.390 . S
C2303 H2296 0.950 . S
C2303 C2300 1.387 . S
C2304 C2305 1.387 . S
C2304 H2308 0.950 . S
C2304 C2313 1.390 . S
C2305 C2304 1.387 . S
C2305 C2307 1.387 . S
H2306 C2313 0.950 . S
C2307 C2305 1.387 . S
C2307 C2309 1.390 . S
C2307 H2311 0.950 . S
H2308 C2304 0.950 . S
C2309 C2307 1.390 . S
C2309 C2310 1.387 . S
C2309 H2312 0.950 . S
C2310 C2309 1.387 . S
C2310 C2313 1.387 . S
H2311 C2307 0.950 . S
H2312 C2309 0.950 . S
C2313 C2304 1.390 . S
C2313 H2306 0.950 . S
C2313 C2310 1.387 . S
C2314 C2315 1.387 . S
C2314 H2318 0.950 . S
C2314 C2323 1.390 . S
C2315 C2314 1.387 . S
C2315 C2317 1.387 . S
H2316 C2323 0.950 . S
C2317 C2315 1.387 . S
C2317 C2319 1.390 . S
C2317 H2321 0.950 . S
H2318 C2314 0.950 . S
C2319 C2317 1.390 . S
C2319 C2320 1.387 . S
C2319 H2322 0.950 . S
C2320 C2319 1.387 . S
C2320 C2323 1.387 . S
H2321 C2317 0.950 . S
H2322 C2319 0.950 . S
C2323 C2314 1.390 . S
C2323 H2316 0.950 . S
C2323 C2320 1.387 . S
C2324 C2325 1.387 . S
C2324 H2328 0.950 . S
C2324 C2333 1.390 . S
C2325 C2324 1.387 . S
C2325 C2327 1.387 . S
H2326 C2333 0.950 . S
C2327 C2325 1.387 . S
C2327 C2329 1.390 . S
C2327 H2331 0.950 . S
H2328 C2324 0.950 . S
C2329 C2327 1.390 . S
C2329 C2330 1.387 . S
C2329 H2332 0.950 . S
C2330 C2329 1.387 . S
C2330 C2333 1.387 . S
H2331 C2327 0.950 . S
H2332 C2329 0.950 . S
C2333 C2324 1.390 . S
C2333 H2326 0.950 . S
C2333 C2330 1.387 . S
C2334 C2335 1.387 . S
C2334 H2338 0.950 . S
C2334 C2343 1.390 . S
C2335 C2334 1.387 . S
C2335 C2337 1.387 . S
H2336 C2343 0.950 . S
C2337 C2335 1.387 . S
C2337 C2339 1.390 . S
C2337 H2341 0.950 . S
H2338 C2334 0.950 . S
C2339 C2337 1.390 . S
C2339 C2340 1.387 . S
C2339 H2342 0.950 . S
C2340 C2339 1.387 . S
C2340 C2343 1.387 . S
H2341 C2337 0.950 . S
H2342 C2339 0.950 . S
C2343 C2334 1.390 . S
C2343 H2336 0.950 . S
C2343 C2340 1.387 . S
C2344 C2345 1.387 . S
C2344 H2348 0.950 . S
C2344 C2353 1.390 . S
C2345 C2344 1.387 . S
C2345 C2347 1.387 . S
H2346 C2353 0.950 . S
C2347 C2345 1.387 . S
C2347 C2349 1.390 . S
C2347 H2351 0.950 . S
H2348 C2344 0.950 . S
C2349 C2347 1.390 . S
C2349 C2350 1.387 . S
C2349 H2352 0.950 . S
C2350 C2349 1.387 . S
C2350 C2353 1.387 . S
H2351 C2347 0.950 . S
H2352 C2349 0.950 . S
C2353 C2344 1.390 . S
C2353 H2346 0.950 . S
C2353 C2350 1.387 . S
C2354 C2355 1.387 . S
C2354 H2358 0.950 . S
C2354 C2363 1.390 . S
C2355 C2354 1.387 . S
C2355 C2357 1.387 . S
H2356 C2363 0.950 . S
C2357 C2355 1.387 . S
C2357 C2359 1.390 . S
C2357 H2361 0.950 . S
H2358 C2354 0.950 . S
C2359 C2357 1.390 . S
C2359 C2360 1.387 . S
C2359 H2362 0.950 . S
C2360 C2359 1.387 . S
C2360 C2363 1.387 . S
H2361 C2357 0.950 . S
H2362 C2359 0.950 . S
C2363 C2354 1.390 . S
C2363 H2356 0.950 . S
C2363 C2360 1.387 . S
C2364 C2365 1.387 . S
C2364 H2368 0.950 . S
C2364 C2373 1.390 . S
C2365 C2364 1.387 . S
C2365 C2367 1.387 . S
H2366 C2373 0.950 . S
C2367 C2365 1.387 . S
C2367 C2369 1.390 . S
C2367 H2371 0.950 . S
H2368 C2364 0.950 . S
C2369 C2367 1.390 . S
C2369 C2370 1.387 . S
C2369 H2372 0.950 . S
C2370 C2369 1.387 . S
C2370 C2373 1.387 . S
H2371 C2367 0.950 . S
H2372 C2369 0.950 . S
C2373 C2364 1.390 . S
C2373 H2366 0.950 . S
C2373 C2370 1.387 . S
C2374 C2375 1.387 . S
C2374 H2378 0.950 . S
C2374 C2383 1.390 . S
C2375 C2374 1.387 . S
C2375 C2377 1.387 . S
H2376 C2383 0.950 . S
C2377 C2375 1.387 . S
C2377 C2379 1.390 . S
C2377 H2381 0.950 . S
H2378 C2374 0.950 . S
C2379 C2377 1.390 . S
C2379 C2380 1.387 . S
C2379 H2382 0.950 . S
C2380 C2379 1.387 . S
C2380 C2383 1.387 . S
H2381 C2377 0.950 . S
H2382 C2379 0.950 . S
C2383 C2374 1.390 . S
C2383 H2376 0.950 . S
C2383 C2380 1.387 . S
C2384 C2385 1.387 . S
C2384 H2388 0.950 . S
C2384 C2393 1.390 . S
C2385 C2384 1.387 . S
C2385 C2387 1.387 . S
H2386 C2393 0.950 . S
C2387 C2385 1.387 . S
C2387 C2389 1.390 . S
C2387 H2391 0.950 . S
H2388 C2384 0.950 . S
C2389 C2387 1.390 . S
C2389 C2390 1.387 . S
C2389 H2392 0.950 . S
C2390 C2389 1.387 . S
C2390 C2393 1.387 . S
H2391 C2387 0.950 . S
H2392 C2389 0.950 . S
C2393 C2384 1.390 . S
C2393 H2386 0.950 . S
C2393 C2390 1.387 . S
C2394 C2395 1.387 . S
C2394 H2398 0.950 . S
C2394 C2403 1.390 . S
C2395 C2394 1.387 . S
C2395 C2397 1.387 . S
H2396 C2403 0.950 . S
C2397 C2395 1.387 . S
C2397 C2399 1.390 . S
C2397 H2401 0.950 . S
H2398 C2394 0.950 . S
C2399 C2397 1.390 . S
C2399 C2400 1.387 . S
C2399 H2402 0.950 . S
C2400 C2399 1.387 . S
C2400 C2403 1.387 . S
H2401 C2397 0.950 . S
H2402 C2399 0.950 . S
C2403 C2394 1.390 . S
C2403 H2396 0.950 . S
C2403 C2400 1.387 . S
C2404 C2405 1.387 . S
C2404 H2408 0.950 . S
C2404 C2413 1.390 . S
C2405 C2404 1.387 . S
C2405 C2407 1.387 . S
H2406 C2413 0.950 . S
C2407 C2405 1.387 . S
C2407 C2409 1.390 . S
C2407 H2411 0.950 . S
H2408 C2404 0.950 . S
C2409 C2407 1.390 . S
C2409 C2410 1.387 . S
C2409 H2412 0.950 . S
C2410 C2409 1.387 . S
C2410 C2413 1.387 . S
H2411 C2407 0.950 . S
H2412 C2409 0.950 . S
C2413 C2404 1.390 . S
C2413 H2406 0.950 . S
C2413 C2410 1.387 . S
C2414 C2415 1.387 . S
C2414 H2418 0.950 . S
C2414 C2423 1.390 . S
C2415 C2414 1.387 . S
C2415 C2417 1.387 . S
H2416 C2423 0.950 . S
C2417 C2415 1.387 . S
C2417 C2419 1.390 . S
C2417 H2421 0.950 . S
H2418 C2414 0.950 . S
C2419 C2417 1.390 . S
C2419 C2420 1.387 . S
C2419 H2422 0.950 . S
C2420 C2419 1.387 . S
C2420 C2423 1.387 . S
H2421 C2417 0.950 . S
H2422 C2419 0.950 . S
C2423 C2414 1.390 . S
C2423 H2416 0.950 . S
C2423 C2420 1.387 . S
C2424 C2425 1.387 . S
C2424 H2428 0.950 . S
C2424 C2433 1.390 . S
C2425 C2424 1.387 . S
C2425 C2427 1.387 . S
H2426 C2433 0.950 . S
C2427 C2425 1.387 . S
C2427 C2429 1.390 . S
C2427 H2431 0.950 . S
H2428 C2424 0.950 . S
C2429 C2427 1.390 . S
C2429 C2430 1.387 . S
C2429 H2432 0.950 . S
C2430 C2429 1.387 . S
C2430 C2433 1.387 . S
H2431 C2427 0.950 . S
H2432 C2429 0.950 . S
C2433 C2424 1.390 . S
C2433 H2426 0.950 . S
C2433 C2430 1.387 . S
C2434 C2435 1.387 . S
C2434 H2438 0.950 . S
C2434 C2443 1.390 . S
C2435 C2434 1.387 . S
C2435 C2437 1.387 . S
H2436 C2443 0.950 . S
C2437 C2435 1.387 . S
C2437 C2439 1.390 . S
C2437 H2441 0.950 . S
H2438 C2434 0.950 . S
C2439 C2437 1.390 . S
C2439 C2440 1.387 . S
C2439 H2442 0.950 . S
C2440 C2439 1.387 . S
C2440 C2443 1.387 . S
H2441 C2437 0.950 . S
H2442 C2439 0.950 . S
C2443 C2434 1.390 . S
C2443 H2436 0.950 . S
C2443 C2440 1.387 . S
C2444 C2445 1.387 . S
C2444 H2448 0.950 . S
C2444 C2453 1.390 . S
C2445 C2444 1.387 . S
C2445 C2447 1.387 . S
H2446 C2453 0.950 . S
C2447 C2445 1.387 . S
C2447 C2449 1.390 . S
C2447 H2451 0.950 . S
H2448 C2444 0.950 . S
C2449 C2447 1.390 . S
C2449 C2450 1.387 . S
C2449 H2452 0.950 . S
C2450 C2449 1.387 . S
C2450 C2453 1.387 . S
H2451 C2447 0.950 . S
H2452 C2449 0.950 . S
C2453 C2444 1.390 . S
C2453 H2446 0.950 . S
C2453 C2450 1.387 . S
C2454 C2455 1.387 . S
C2454 H2458 0.950 . S
C2454 C2463 1.390 . S
C2455 C2454 1.387 . S
C2455 C2457 1.387 . S
H2456 C2463 0.950 . S
C2457 C2455 1.387 . S
C2457 C2459 1.390 . S
C2457 H2461 0.950 . S
H2458 C2454 0.950 . S
C2459 C2457 1.390 . S
C2459 C2460 1.387 . S
C2459 H2462 0.950 . S
C2460 C2459 1.387 . S
C2460 C2463 1.387 . S
H2461 C2457 0.950 . S
H2462 C2459 0.950 . S
C2463 C2454 1.390 . S
C2463 H2456 0.950 . S
C2463 C2460 1.387 . S
C2464 C2465 1.387 . S
C2464 H2468 0.950 . S
C2464 C2473 1.390 . S
C2465 C2464 1.387 . S
C2465 C2467 1.387 . S
H2466 C2473 0.950 . S
C2467 C2465 1.387 . S
C2467 C2469 1.390 . S
C2467 H2471 0.950 . S
H2468 C2464 0.950 . S
C2469 C2467 1.390 . S
C2469 C2470 1.387 . S
C2469 H2472 0.950 . S
C2470 C2469 1.387 . S
C2470 C2473 1.387 . S
H2471 C2467 0.950 . S
H2472 C2469 0.950 . S
C2473 C2464 1.390 . S
C2473 H2466 0.950 . S
C2473 C2470 1.387 . S
C2474 C2475 1.387 . S
C2474 H2478 0.950 . S
C2474 C2483 1.390 . S
C2475 C2474 1.387 . S
C2475 C2477 1.387 . S
H2476 C2483 0.950 . S
C2477 C2475 1.387 . S
C2477 C2479 1.390 . S
C2477 H2481 0.950 . S
H2478 C2474 0.950 . S
C2479 C2477 1.390 . S
C2479 C2480 1.387 . S
C2479 H2482 0.950 . S
C2480 C2479 1.387 . S
C2480 C2483 1.387 . S
H2481 C2477 0.950 . S
H2482 C2479 0.950 . S
C2483 C2474 1.390 . S
C2483 H2476 0.950 . S
C2483 C2480 1.387 . S
C2484 C2485 1.387 . S
C2484 H2488 0.950 . S
C2484 C2493 1.390 . S
C2485 C2484 1.387 . S
C2485 C2487 1.387 . S
H2486 C2493 0.950 . S
C2487 C2485 1.387 . S
C2487 C2489 1.390 . S
C2487 H2491 0.950 . S
H2488 C2484 0.950 . S
C2489 C2487 1.390 . S
C2489 C2490 1.387 . S
C2489 H2492 0.950 . S
C2490 C2489 1.387 . S
C2490 C2493 1.387 . S
H2491 C2487 0.950 . S
H2492 C2489 0.950 . S
C2493 C2484 1.390 . S
C2493 H2486 0.950 . S
C2493 C2490 1.387 . S
C2494 C2495 1.387 . S
C2494 H2498 0.950 . S
C2494 C2503 1.390 . S
C2495 C2494 1.387 . S
C2495 C2497 1.387 . S
H2496 C2503 0.950 . S
C2497 C2495 1.387 . S
C2497 C2499 1.390 . S
C2497 H2501 0.950 . S
H2498 C2494 0.950 . S
C2499 C2497 1.390 . S
C2499 C2500 1.387 . S
C2499 H2502 0.950 . S
C2500 C2499 1.387 . S
C2500 C2503 1.387 . S
H2501 C2497 0.950 . S
H2502 C2499 0.950 . S
C2503 C2494 1.390 . S
C2503 H2496 0.950 . S
C2503 C2500 1.387 . S
C2504 C2505 1.387 . S
C2504 H2508 0.950 . S
C2504 C2513 1.390 . S
C2505 C2504 1.387 . S
C2505 C2507 1.387 . S
H2506 C2513 0.950 . S
C2507 C2505 1.387 . S
C2507 C2509 1.390 . S
C2507 H2511 0.950 . S
H2508 C2504 0.950 . S
C2509 C2507 1.390 . S
C2509 C2510 1.387 . S
C2509 H2512 0.950 . S
C2510 C2509 1.387 . S
C2510 C2513 1.387 . S
H2511 C2507 0.950 . S
H2512 C2509 0.950 . S
C2513 C2504 1.390 . S
C2513 H2506 0.950 . S
C2513 C2510 1.387 . S
C2514 C2515 1.387 . S
C2514 H2518 0.950 . S
C2514 C2523 1.390 . S
C2515 C2514 1.387 . S
C2515 C2517 1.387 . S
H2516 C2523 0.950 . S
C2517 C2515 1.387 . S
C2517 C2519 1.390 . S
C2517 H2521 0.950 . S
H2518 C2514 0.950 . S
C2519 C2517 1.390 . S
C2519 C2520 1.387 . S
C2519 H2522 0.950 . S
C2520 C2519 1.387 . S
C2520 C2523 1.387 . S
H2521 C2517 0.950 . S
H2522 C2519 0.950 . S
C2523 C2514 1.390 . S
C2523 H2516 0.950 . S
C2523 C2520 1.387 . S
C2524 C2525 1.387 . S
C2524 H2528 0.950 . S
C2524 C2533 1.390 . S
C2525 C2524 1.387 . S
C2525 C2527 1.387 . S
H2526 C2533 0.950 . S
C2527 C2525 1.387 . S
C2527 C2529 1.390 . S
C2527 H2531 0.950 . S
H2528 C2524 0.950 . S
C2529 C2527 1.390 . S
C2529 C2530 1.387 . S
C2529 H2532 0.950 . S
C2530 C2529 1.387 . S
C2530 C2533 1.387 . S
H2531 C2527 0.950 . S
H2532 C2529 0.950 . S
C2533 C2524 1.390 . S
C2533 H2526 0.950 . S
C2533 C2530 1.387 . S
C2534 C2535 1.387 . S
C2534 H2538 0.950 . S
C2534 C2543 1.390 . S
C2535 C2534 1.387 . S
C2535 C2537 1.387 . S
H2536 C2543 0.950 . S
C2537 C2535 1.387 . S
C2537 C2539 1.390 . S
C2537 H2541 0.950 . S
H2538 C2534 0.950 . S
C2539 C2537 1.390 . S
C2539 C2540 1.387 . S
C2539 H2542 0.950 . S
C2540 C2539 1.387 . S
C2540 C2543 1.387 . S
H2541 C2537 0.950 . S
H2542 C2539 0.950 . S
C2543 C2534 1.390 . S
C2543 H2536 0.950 . S
C2543 C2540 1.387 . S
C2544 C2545 1.387 . S
C2544 H2548 0.950 . S
C2544 C2553 1.390 . S
C2545 C2544 1.387 . S
C2545 C2547 1.387 . S
H2546 C2553 0.950 . S
C2547 C2545 1.387 . S
C2547 C2549 1.390 . S
C2547 H2551 0.950 . S
H2548 C2544 0.950 . S
C2549 C2547 1.390 . S
C2549 C2550 1.387 . S
C2549 H2552 0.950 . S
C2550 C2549 1.387 . S
C2550 C2553 1.387 . S
H2551 C2547 0.950 . S
H2552 C2549 0.950 . S
C2553 C2544 1.390 . S
C2553 H2546 0.950 . S
C2553 C2550 1.387 . S
C2554 C2555 1.387 . S
C2554 H2558 0.950 . S
C2554 C2563 1.390 . S
C2555 C2554 1.387 . S
C2555 C2557 1.387 . S
H2556 C2563 0.950 . S
C2557 C2555 1.387 . S
C2557 C2559 1.390 . S
C2557 H2561 0.950 . S
H2558 C2554 0.950 . S
C2559 C2557 1.390 . S
C2559 C2560 1.387 . S
C2559 H2562 0.950 . S
C2560 C2559 1.387 . S
C2560 C2563 1.387 . S
H2561 C2557 0.950 . S
H2562 C2559 0.950 . S
C2563 C2554 1.390 . S
C2563 H2556 0.950 . S
C2563 C2560 1.387 . S
C2564 C2565 1.387 . S
C2564 H2568 0.950 . S
C2564 C2573 1.390 . S
C2565 C2564 1.387 . S
C2565 C2567 1.387 . S
H2566 C2573 0.950 . S
C2567 C2565 1.387 . S
C2567 C2569 1.390 . S
C2567 H2571 0.950 . S
H2568 C2564 0.950 . S
C2569 C2567 1.390 . S
C2569 C2570 1.387 . S
C2569 H2572 0.950 . S
C2570 C2569 1.387 . S
C2570 C2573 1.387 . S
H2571 C2567 0.950 . S
H2572 C2569 0.950 . S
C2573 C2564 1.390 . S
C2573 H2566 0.950 . S
C2573 C2570 1.387 . S
C2574 C2575 1.387 . S
C2574 H2578 0.950 . S
C2574 C2583 1.390 . S
C2575 C2574 1.387 . S
C2575 C2577 1.387 . S
H2576 C2583 0.950 . S
C2577 C2575 1.387 . S
C2577 C2579 1.390 . S
C2577 H2581 0.950 . S
H2578 C2574 0.950 . S
C2579 C2577 1.390 . S
C2579 C2580 1.387 . S
C2579 H2582 0.950 . S
C2580 C2579 1.387 . S
C2580 C2583 1.387 . S
H2581 C2577 0.950 . S
H2582 C2579 0.950 . S
C2583 C2574 1.390 . S
C2583 H2576 0.950 . S
C2583 C2580 1.387 . S
C2584 C2585 1.387 . S
C2584 H2588 0.950 . S
C2584 C2593 1.390 . S
C2585 C2584 1.387 . S
C2585 C2587 1.387 . S
H2586 C2593 0.950 . S
C2587 C2585 1.387 . S
C2587 C2589 1.390 . S
C2587 H2591 0.950 . S
H2588 C2584 0.950 . S
C2589 C2587 1.390 . S
C2589 C2590 1.387 . S
C2589 H2592 0.950 . S
C2590 C2589 1.387 . S
C2590 C2593 1.387 . S
H2591 C2587 0.950 . S
H2592 C2589 0.950 . S
C2593 C2584 1.390 . S
C2593 H2586 0.950 . S
C2593 C2590 1.387 . S
C2594 C2595 1.387 . S
C2594 H2598 0.950 . S
C2594 C2603 1.390 . S
C2595 C2594 1.387 . S
C2595 C2597 1.387 . S
H2596 C2603 0.950 . S
C2597 C2595 1.387 . S
C2597 C2599 1.390 . S
C2597 H2601 0.950 . S
H2598 C2594 0.950 . S
C2599 C2597 1.390 . S
C2599 C2600 1.387 . S
C2599 H2602 0.950 . S
C2600 C2599 1.387 . S
C2600 C2603 1.387 . S
H2601 C2597 0.950 . S
H2602 C2599 0.950 . S
C2603 C2594 1.390 . S
C2603 H2596 0.950 . S
C2603 C2600 1.387 . S
C2604 C2605 1.387 . S
C2604 H2608 0.950 . S
C2604 C2613 1.390 . S
C2605 C2604 1.387 . S
C2605 C2607 1.387 . S
H2606 C2613 0.950 . S
C2607 C2605 1.387 . S
C2607 C2609 1.390 . S
C2607 H2611 0.950 . S
H2608 C2604 0.950 . S
C2609 C2607 1.390 . S
C2609 C2610 1.387 . S
C2609 H2612 0.950 . S
C2610 C2609 1.387 . S
C2610 C2613 1.387 . S
H2611 C2607 0.950 . S
H2612 C2609 0.950 . S
C2613 C2604 1.390 . S
C2613 H2606 0.950 . S
C2613 C2610 1.387 . S
C2614 C2615 1.387 . S
C2614 H2618 0.950 . S
C2614 C2623 1.390 . S
C2615 C2614 1.387 . S
C2615 C2617 1.387 . S
H2616 C2623 0.950 . S
C2617 C2615 1.387 . S
C2617 C2619 1.390 . S
C2617 H2621 0.950 . S
H2618 C2614 0.950 . S
C2619 C2617 1.390 . S
C2619 C2620 1.387 . S
C2619 H2622 0.950 . S
C2620 C2619 1.387 . S
C2620 C2623 1.387 . S
H2621 C2617 0.950 . S
H2622 C2619 0.950 . S
C2623 C2614 1.390 . S
C2623 H2616 0.950 . S
C2623 C2620 1.387 . S
C2624 C2625 1.387 . S
C2624 H2628 0.950 . S
C2624 C2633 1.390 . S
C2625 C2624 1.387 . S
C2625 C2627 1.387 . S
H2626 C2633 0.950 . S
C2627 C2625 1.387 . S
C2627 C2629 1.390 . S
C2627 H2631 0.950 . S
H2628 C2624 0.950 . S
C2629 C2627 1.390 . S
C2629 C2630 1.387 . S
C2629 H2632 0.950 . S
C2630 C2629 1.387 . S
C2630 C2633 1.387 . S
H2631 C2627 0.950 . S
H2632 C2629 0.950 . S
C2633 C2624 1.390 . S
C2633 H2626 0.950 . S
C2633 C2630 1.387 . S
C2634 C2635 1.387 . S
C2634 H2638 0.950 . S
C2634 C2643 1.390 . S
C2635 C2634 1.387 . S
C2635 C2637 1.387 . S
H2636 C2643 0.950 . S
C2637 C2635 1.387 . S
C2637 C2639 1.390 . S
C2637 H2641 0.950 . S
H2638 C2634 0.950 . S
C2639 C2637 1.390 . S
C2639 C2640 1.387 . S
C2639 H2642 0.950 . S
C2640 C2639 1.387 . S
C2640 C2643 1.387 . S
H2641 C2637 0.950 . S
H2642 C2639 0.950 . S
C2643 C2634 1.390 . S
C2643 H2636 0.950 . S
C2643 C2640 1.387 . S
C2644 C2645 1.387 . S
C2644 H2648 0.950 . S
C2644 C2653 1.390 . S
C2645 C2644 1.387 . S
C2645 C2647 1.387 . S
H2646 C2653 0.950 . S
C2647 C2645 1.387 . S
C2647 C2649 1.390 . S
C2647 H2651 0.950 . S
H2648 C2644 0.950 . S
C2649 C2647 1.390 . S
C2649 C2650 1.387 . S
C2649 H2652 0.950 . S
C2650 C2649 1.387 . S
C2650 C2653 1.387 . S
H2651 C2647 0.950 . S
H2652 C2649 0.950 . S
C2653 C2644 1.390 . S
C2653 H2646 0.950 . S
C2653 C2650 1.387 . S
C2654 C2655 1.387 . S
C2654 H2658 0.950 . S
C2654 C2663 1.390 . S
C2655 C2654 1.387 . S
C2655 C2657 1.387 . S
H2656 C2663 0.950 . S
C2657 C2655 1.387 . S
C2657 C2659 1.390 . S
C2657 H2661 0.950 . S
H2658 C2654 0.950 . S
C2659 C2657 1.390 . S
C2659 C2660 1.387 . S
C2659 H2662 0.950 . S
C2660 C2659 1.387 . S
C2660 C2663 1.387 . S
H2661 C2657 0.950 . S
H2662 C2659 0.950 . S
C2663 C2654 1.390 . S
C2663 H2656 0.950 . S
C2663 C2660 1.387 . S
C2664 C2665 1.387 . S
C2664 H2668 0.950 . S
C2664 C2673 1.390 . S
C2665 C2664 1.387 . S
C2665 C2667 1.387 . S
H2666 C2673 0.950 . S
C2667 C2665 1.387 . S
C2667 C2669 1.390 . S
C2667 H2671 0.950 . S
H2668 C2664 0.950 . S
C2669 C2667 1.390 . S
C2669 C2670 1.387 . S
C2669 H2672 0.950 . S
C2670 C2669 1.387 . S
C2670 C2673 1.387 . S
H2671 C2667 0.950 . S
H2672 C2669 0.950 . S
C2673 C2664 1.390 . S
C2673 H2666 0.950 . S
C2673 C2670 1.387 . S
C2674 C2675 1.387 . S
C2674 H2678 0.950 . S
C2674 C2683 1.390 . S
C2675 C2674 1.387 . S
C2675 C2677 1.387 . S
H2676 C2683 0.950 . S
C2677 C2675 1.387 . S
C2677 C2679 1.390 . S
C2677 H2681 0.950 . S
H2678 C2674 0.950 . S
C2679 C2677 1.390 . S
C2679 C2680 1.387 . S
C2679 H2682 0.950 . S
C2680 C2679 1.387 . S
C2680 C2683 1.387 . S
H2681 C2677 0.950 . S
H2682 C2679 0.950 . S
C2683 C2674 1.390 . S
C2683 H2676 0.950 . S
C2683 C2680 1.387 . S
C2684 C2685 1.387 . S
C2684 H2688 0.950 . S
C2684 C2693 1.390 . S
C2685 C2684 1.387 . S
C2685 C2687 1.387 . S
H2686 C2693 0.950 . S
C2687 C2685 1.387 . S
C2687 C2689 1.390 . S
C2687 H2691 0.950 . S
H2688 C2684 0.950 . S
C2689 C2687 1.390 . S
C2689 C2690 1.387 . S
C2689 H2692 0.950 . S
C2690 C2689 1.387 . S
C2690 C2693 1.387 . S
H2691 C2687 0.950 . S
H2692 C2689 0.950 . S
C2693 C2684 1.390 . S
C2693 H2686 0.950 . S
C2693 C2690 1.387 . S
C2694 C2695 1.387 . S
C2694 H2698 0.950 . S
C2694 C2703 1.390 . S
C2695 C2694 1.387 . S
C2695 C2697 1.387 . S
H2696 C2703 0.950 . S
C2697 C2695 1.387 . S
C2697 C2699 1.390 . S
C2697 H2701 0.950 . S
H2698 C2694 0.950 . S
C2699 C2697 1.390 . S
C2699 C2700 1.387 . S
C2699 H2702 0.950 . S
C2700 C2699 1.387 . S
C2700 C2703 1.387 . S
H2701 C2697 0.950 . S
H2702 C2699 0.950 . S
C2703 C2694 1.390 . S
C2703 H2696 0.950 . S
C2703 C2700 1.387 . S
C2704 C2705 1.387 . S
C2704 H2708 0.950 . S
C2704 C2713 1.390 . S
C2705 C2704 1.387 . S
C2705 C2707 1.387 . S
H2706 C2713 0.950 . S
C2707 C2705 1.387 . S
C2707 C2709 1.390 . S
C2707 H2711 0.950 . S
H2708 C2704 0.950 . S
C2709 C2707 1.390 . S
C2709 C2710 1.387 . S
C2709 H2712 0.950 . S
C2710 C2709 1.387 . S
C2710 C2713 1.387 . S
H2711 C2707 0.950 . S
H2712 C2709 0.950 . S
C2713 C2704 1.390 . S
C2713 H2706 0.950 . S
C2713 C2710 1.387 . S
C2714 C2715 1.387 . S
C2714 H2718 0.950 . S
C2714 C2723 1.390 . S
C2715 C2714 1.387 . S
C2715 C2717 1.387 . S
H2716 C2723 0.950 . S
C2717 C2715 1.387 . S
C2717 C2719 1.390 . S
C2717 H2721 0.950 . S
H2718 C2714 0.950 . S
C2719 C2717 1.390 . S
C2719 C2720 1.387 . S
C2719 H2722 0.950 . S
C2720 C2719 1.387 . S
C2720 C2723 1.387 . S
H2721 C2717 0.950 . S
H2722 C2719 0.950 . S
C2723 C2714 1.390 . S
C2723 H2716 0.950 . S
C2723 C2720 1.387 . S
C2724 C2725 1.387 . S
C2724 H2728 0.950 . S
C2724 C2733 1.390 . S
C2725 C2724 1.387 . S
C2725 C2727 1.387 . S
H2726 C2733 0.950 . S
C2727 C2725 1.387 . S
C2727 C2729 1.390 . S
C2727 H2731 0.950 . S
H2728 C2724 0.950 . S
C2729 C2727 1.390 . S
C2729 C2730 1.387 . S
C2729 H2732 0.950 . S
C2730 C2729 1.387 . S
C2730 C2733 1.387 . S
H2731 C2727 0.950 . S
H2732 C2729 0.950 . S
C2733 C2724 1.390 . S
C2733 H2726 0.950 . S
C2733 C2730 1.387 . S
C2734 C2735 1.387 . S
C2734 H2738 0.950 . S
C2734 C2743 1.390 . S
C2735 C2734 1.387 . S
C2735 C2737 1.387 . S
H2736 C2743 0.950 . S
C2737 C2735 1.387 . S
C2737 C2739 1.390 . S
C2737 H2741 0.950 . S
H2738 C2734 0.950 . S
C2739 C2737 1.390 . S
C2739 C2740 1.387 . S
C2739 H2742 0.950 . S
C2740 C2739 1.387 . S
C2740 C2743 1.387 . S
H2741 C2737 0.950 . S
H2742 C2739 0.950 . S
C2743 C2734 1.390 . S
C2743 H2736 0.950 . S
C2743 C2740 1.387 . S
C2744 C2745 1.387 . S
C2744 H2748 0.950 . S
C2744 C2753 1.390 . S
C2745 C2744 1.387 . S
C2745 C2747 1.387 . S
H2746 C2753 0.950 . S
C2747 C2745 1.387 . S
C2747 C2749 1.390 . S
C2747 H2751 0.950 . S
H2748 C2744 0.950 . S
C2749 C2747 1.390 . S
C2749 C2750 1.387 . S
C2749 H2752 0.950 . S
C2750 C2749 1.387 . S
C2750 C2753 1.387 . S
H2751 C2747 0.950 . S
H2752 C2749 0.950 . S
C2753 C2744 1.390 . S
C2753 H2746 0.950 . S
C2753 C2750 1.387 . S
C2754 C2755 1.387 . S
C2754 H2758 0.950 . S
C2754 C2763 1.390 . S
C2755 C2754 1.387 . S
C2755 C2757 1.387 . S
H2756 C2763 0.950 . S
C2757 C2755 1.387 . S
C2757 C2759 1.390 . S
C2757 H2761 0.950 . S
H2758 C2754 0.950 . S
C2759 C2757 1.390 . S
C2759 C2760 1.387 . S
C2759 H2762 0.950 . S
C2760 C2759 1.387 . S
C2760 C2763 1.387 . S
H2761 C2757 0.950 . S
H2762 C2759 0.950 . S
C2763 C2754 1.390 . S
C2763 H2756 0.950 . S
C2763 C2760 1.387 . S
C2764 C2765 1.387 . S
C2764 H2768 0.950 . S
C2764 C2773 1.390 . S
C2765 C2764 1.387 . S
C2765 C2767 1.387 . S
H2766 C2773 0.950 . S
C2767 C2765 1.387 . S
C2767 C2769 1.390 . S
C2767 H2771 0.950 . S
H2768 C2764 0.950 . S
C2769 C2767 1.390 . S
C2769 C2770 1.387 . S
C2769 H2772 0.950 . S
C2770 C2769 1.387 . S
C2770 C2773 1.387 . S
H2771 C2767 0.950 . S
H2772 C2769 0.950 . S
C2773 C2764 1.390 . S
C2773 H2766 0.950 . S
C2773 C2770 1.387 . S
C2774 C2775 1.387 . S
C2774 H2778 0.950 . S
C2774 C2783 1.390 . S
C2775 C2774 1.387 . S
C2775 C2777 1.387 . S
H2776 C2783 0.950 . S
C2777 C2775 1.387 . S
C2777 C2779 1.390 . S
C2777 H2781 0.950 . S
H2778 C2774 0.950 . S
C2779 C2777 1.390 . S
C2779 C2780 1.387 . S
C2779 H2782 0.950 . S
C2780 C2779 1.387 . S
C2780 C2783 1.387 . S
H2781 C2777 0.950 . S
H2782 C2779 0.950 . S
C2783 C2774 1.390 . S
C2783 H2776 0.950 . S
C2783 C2780 1.387 . S
C1585 N533 1.442 . S
C1590 C28 1.331 . S
C1595 N1565 1.395 . S
C1600 C61 1.384 . S
C1605 C94 1.330 . S
C1610 N1490 1.447 . S
C1615 C127 1.318 . S
C1620 N1523 1.436 . S
C1625 C160 1.322 . S
C1630 N566 1.434 . S
C1635 N599 1.458 . S
C1640 C193 1.344 . S
C1645 N632 1.464 . S
C1650 C226 1.350 . S
C1655 N1457 1.452 . S
C1660 C259 1.338 . S
C1665 C292 1.334 . S
C1670 N5 1.444 . S
C1675 N38 1.420 . S
C1680 C325 1.302 . S
C1685 C358 1.351 . S
C1690 N71 1.464 . S
C1695 N104 1.475 . S
C1700 C371 1.364 . S
C1705 C424 1.345 . S
C1710 N137 1.460 . S
C1715 C457 1.352 . S
C1720 N170 1.468 . S
C1725 N203 1.429 . S
C1730 C490 1.326 . S
C1735 N236 1.446 . S
C1740 C523 1.336 . S
C1745 N269 1.444 . S
C1750 C556 1.333 . S
C1755 N401 1.455 . S
C1760 C589 1.344 . S
C1765 N434 1.457 . S
C1770 C622 1.348 . S
C1775 N467 1.438 . S
C1780 C655 1.323 . S
C1785 N1292 1.449 . S
C1790 C688 1.336 . S
C1795 C721 1.321 . S
C1800 N1127 1.429 . S
C1805 N1169 1.404 . S
C1810 C754 1.388 . S
C1815 C767 1.355 . S
C1820 N1094 1.465 . S
C1825 C820 1.331 . S
C1830 N1325 1.442 . S
C1835 C853 1.383 . S
C1840 N773 1.394 . S
C1845 N698 1.449 . S
C1850 C886 1.335 . S
C1855 N731 1.436 . S
C1860 C919 1.319 . S
C1865 N1358 1.432 . S
C1870 C952 1.321 . S
C1875 C985 1.346 . S
C1880 N1391 1.458 . S
C1885 N1424 1.466 . S
C1890 C1018 1.353 . S
C1895 C1051 1.338 . S
C1900 N665 1.451 . S
C1905 N797 1.446 . S
C1910 C1084 1.337 . S
C1915 N830 1.420 . S
C1920 C1117 1.302 . S
C1925 C1150 1.355 . S
C1930 N863 1.466 . S
C1935 C1163 1.364 . S
C1940 N896 1.475 . S
C1945 C1216 1.343 . S
C1950 N929 1.458 . S
C1955 N962 1.466 . S
C1960 C1249 1.349 . S
C1965 C1282 1.322 . S
C1970 N995 1.427 . S
C1975 N1028 1.447 . S
C1980 C1315 1.336 . S
C1985 N1061 1.446 . S
C1990 C1348 1.333 . S
C1995 C1381 1.346 . S
C2000 N1193 1.454 . S
C2005 N1226 1.457 . S
C2010 C1414 1.346 . S
C2015 N1259 1.440 . S
C2020 C1447 1.327 . S
C2025 C1480 1.334 . S
C2030 N500 1.448 . S
C2035 C1513 1.324 . S
C2040 N335 1.430 . S
C2045 C1546 1.390 . S
C2050 N377 1.403 . S
C2055 N302 1.464 . S
C2060 C1559 1.352 . S
C2065 C17 1.027 . S
C2070 C149 1.024 . S
C2075 C50 1.027 . S
C2080 C182 1.023 . S
C2085 C215 1.023 . S
C2090 C83 1.022 . S
C2095 C248 1.019 . S
C2100 C116 1.016 . S
C2105 C1271 1.034 . S
C2110 C281 1.032 . S
C2115 C1304 1.026 . S
C2120 C314 1.024 . S
C2125 C1205 1.021 . S
C2130 C347 1.021 . S
C2135 C380 1.031 . S
C2140 C1238 1.004 . S
C2145 C413 1.021 . S
C2150 C1139 1.021 . S
C2155 C446 1.011 . S
C2160 C1172 1.037 . S
C2165 C479 1.041 . S
C2170 C1073 1.039 . S
C2175 C512 1.033 . S
C2180 C1106 1.030 . S
C2185 C1502 1.032 . S
C2190 C545 1.030 . S
C2195 C644 1.020 . S
C2200 C578 1.022 . S
C2205 C1469 1.033 . S
C2210 C611 1.032 . S
C2215 C1403 1.032 . S
C2220 C677 1.033 . S
C2225 C710 1.026 . S
C2230 C1337 1.023 . S
C2235 C743 1.023 . S
C2240 C776 1.052 . S
C2245 C941 1.031 . S
C2250 C809 1.033 . S
C2255 C974 1.029 . S
C2260 C842 1.034 . S
C2265 C875 1.029 . S
C2270 C1007 1.029 . S
C2275 C1040 1.019 . S
C2280 C908 1.016 . S
C2285 C1370 1.022 . S
C2290 C1436 1.020 . S
C2295 C1568 1.052 . S
C2300 C1535 1.023 . S
C2305 C8 1.575 . S
C2310 N905 1.575 . S
C2315 C41 1.539 . S
C2320 N806 1.541 . S
C2325 C74 1.547 . S
C2330 N839 1.549 . S
C2335 N872 1.570 . S
C2340 C107 1.570 . S
C2345 C140 1.555 . S
C2350 N179 1.557 . S
C2355 N212 1.566 . S
C2360 C173 1.565 . S
C2365 N245 1.553 . S
C2370 C206 1.554 . S
C2375 C239 1.553 . S
C2380 N146 1.555 . S
C2385 N1400 1.557 . S
C2390 C272 1.557 . S
C2395 C305 1.562 . S
C2400 N1433 1.564 . S
C2405 N674 1.557 . S
C2410 C338 1.555 . S
C2415 C391 1.543 . S
C2420 N1367 1.541 . S
C2425 C404 1.553 . S
C2430 N1532 1.553 . S
C2435 C437 1.561 . S
C2440 N542 1.562 . S
C2445 N1556 1.568 . S
C2450 C470 1.530 . S
C2455 N1499 1.576 . S
C2460 C503 1.573 . S
C2465 N311 1.550 . S
C2470 C536 1.549 . S
C2475 C569 1.552 . S
C2480 N1301 1.553 . S
C2485 C602 1.574 . S
C2490 N1202 1.575 . S
C2495 C635 1.540 . S
C2500 N1235 1.540 . S
C2505 N476 1.574 . S
C2510 C668 1.572 . S
C2515 C701 1.530 . S
C2520 N1160 1.567 . S
C2525 C734 1.548 . S
C2530 N1070 1.551 . S
C2535 N1136 1.546 . S
C2540 C787 1.549 . S
C2545 C800 1.576 . S
C2550 N113 1.576 . S
C2555 C833 1.538 . S
C2560 N14 1.540 . S
C2565 C866 1.548 . S
C2570 N47 1.550 . S
C2575 C899 1.569 . S
C2580 N80 1.570 . S
C2585 C932 1.554 . S
C2590 N971 1.555 . S
C2595 C965 1.565 . S
C2600 N1004 1.566 . S
C2605 C998 1.552 . S
C2610 N1037 1.552 . S
C2615 N938 1.555 . S
C2620 C1031 1.553 . S
C2625 C1064 1.557 . S
C2630 N608 1.557 . S
C2635 C1097 1.561 . S
C2640 N641 1.563 . S
C2645 C1130 1.557 . S
C2650 N1466 1.557 . S
C2655 N575 1.539 . S
C2660 C1183 1.543 . S
C2665 N740 1.553 . S
C2670 C1196 1.552 . S
C2675 C1229 1.560 . S
C2680 N1334 1.562 . S
C2685 C1262 1.530 . S
C2690 N764 1.568 . S
C2695 C1295 1.573 . S
C2700 N707 1.575 . S
C2705 N1103 1.550 . S
C2710 C1328 1.550 . S
C2715 C1361 1.552 . S
C2720 N509 1.553 . S
C2725 C1394 1.574 . S
C2730 N410 1.575 . S
C2735 C1427 1.540 . S
C2740 N443 1.541 . S
C2745 N1268 1.574 . S
C2750 C1460 1.572 . S
C2755 N368 1.567 . S
C2760 C1493 1.531 . S
C2765 N278 1.550 . S
C2770 C1526 1.548 . S
C2775 N344 1.545 . S
C2780 C1579 1.547 . S
