# Generated by pormake.
# Topology acs-i, (5)-cn, num edge types: 1
# Building blocks:
#     Node 0, Type 0, BuildingBlock: BEQFEK_clean_sbu_0, # of connection points: 5
#     Node 1, Type 0, BuildingBlock: BEQFEK_clean_sbu_0, # of connection points: 5
#     Node 2, Type 0, BuildingBlock: BEQFEK_clean_sbu_0, # of connection points: 5
#     Node 3, Type 0, BuildingBlock: BEQFEK_clean_sbu_0, # of connection points: 5
#     Node 4, Type 0, BuildingBlock: BEQFEK_clean_sbu_0, # of connection points: 5
#     Node 5, Type 0, BuildingBlock: BEQFEK_clean_sbu_0, # of connection points: 5
#     Node 6, Type 0, BuildingBlock: BEQFEK_clean_sbu_0, # of connection points: 5
#     Node 7, Type 0, BuildingBlock: BEQFEK_clean_sbu_0, # of connection points: 5
#     Node 8, Type 0, BuildingBlock: BEQFEK_clean_sbu_0, # of connection points: 5
#     Node 9, Type 0, BuildingBlock: BEQFEK_clean_sbu_0, # of connection points: 5
#     Node 10, Type 0, BuildingBlock: BEQFEK_clean_sbu_0, # of connection points: 5
#     Node 11, Type 0, BuildingBlock: BEQFEK_clean_sbu_0, # of connection points: 5
#     Edge 12, Type (0, 0), None
#     Edge 13, Type (0, 0), None
#     Edge 14, Type (0, 0), None
#     Edge 15, Type (0, 0), None
#     Edge 16, Type (0, 0), None
#     Edge 17, Type (0, 0), None
#     Edge 18, Type (0, 0), None
#     Edge 19, Type (0, 0), None
#     Edge 20, Type (0, 0), None
#     Edge 21, Type (0, 0), None
#     Edge 22, Type (0, 0), None
#     Edge 23, Type (0, 0), None
#     Edge 24, Type (0, 0), None
#     Edge 25, Type (0, 0), None
#     Edge 26, Type (0, 0), None
#     Edge 27, Type (0, 0), None
#     Edge 28, Type (0, 0), None
#     Edge 29, Type (0, 0), None
#     Edge 30, Type (0, 0), None
#     Edge 31, Type (0, 0), None
#     Edge 32, Type (0, 0), None
#     Edge 33, Type (0, 0), None
#     Edge 34, Type (0, 0), None
#     Edge 35, Type (0, 0), None
#     Edge 36, Type (0, 0), None
#     Edge 37, Type (0, 0), None
#     Edge 38, Type (0, 0), None
#     Edge 39, Type (0, 0), None
#     Edge 40, Type (0, 0), None
#     Edge 41, Type (0, 0), None
# Relax obj value: 1.393
# Max RMSD: 0.194
# Mean RMSD: 0.178
data_MOF--net-acs-i--node1-BEQFEK_clean_sbu_0--edge1-none
_symmetry_space_group_name_H-M    P1
_symmetry_Int_Tables_number       1
_symmetry_cell_setting            triclinic
loop_
_symmetry_equiv_pos_as_xyz
'x, y, z'
_cell_length_a     21.987781
_cell_length_b     22.434927
_cell_length_c     18.480233
_cell_angle_alpha  88.710611
_cell_angle_beta   90.297059
_cell_angle_gamma 116.51988
loop_
_atom_site_label
_atom_site_type_symbol
_atom_site_fract_x
_atom_site_fract_y
_atom_site_fract_z
_atom_type_partial_charge
Co0 Co 0.3824 0.45266 0.06176 0.0
Co1 Co 0.24081 0.44014 -0.00439 0.0
C2 C 0.3845 0.55244 0.95072 0.0
O3 O 0.4149 0.53149 -0.00423 0.0
O4 O 0.31945 0.52419 0.94719 0.0
C5 C 0.49685 0.49087 0.1653 0.0
O6 O 0.47516 0.53091 0.19395 0.0
C7 C 0.15253 0.50154 -0.02994 0.0
C8 C 0.053 0.43492 0.01437 0.0
C9 C 0.09271 0.50094 -0.00652 0.0
N10 N 0.15204 0.44248 -0.01839 0.0
N11 N 0.0898 0.40099 0.00332 0.0
C12 C 0.20252 0.55087 0.92191 0.0
H13 H 0.22393 0.52545 0.88697 0.0
H14 H 0.24161 0.58763 0.95667 0.0
H15 H 0.1767 0.57144 0.88534 0.0
C16 C 0.30528 0.42771 0.19738 0.0
N17 N 0.31302 0.44402 0.1262 0.0
N18 N 0.25381 0.43352 0.09888 0.0
C19 C 0.20645 0.40813 0.1518 0.0
C20 C 0.23839 0.40944 0.21723 0.0
C21 C 0.34934 0.40266 0.23654 0.0
H22 H 0.37882 0.38898 0.19801 0.0
H23 H 0.3835 0.44065 0.27437 0.0
H24 H 0.3181 0.35596 0.267 0.0
O25 O 0.34297 0.37609 -0.00229 0.0
O26 O 0.24606 0.36519 0.94682 0.0
H27 H 0.12259 0.31286 0.17959 0.0
H28 H 0.09985 0.37092 0.13257 0.0
C29 C 0.13842 0.35214 0.1363 0.0
H30 H 0.14083 0.32846 0.08505 0.0
H31 H 0.07243 0.35006 0.01283 0.0
O32 O 0.46522 0.45499 0.11201 0.0
C33 C 0.29264 0.34654 0.95551 0.0
Co34 Co 0.98653 0.39884 0.66958 0.0
Co35 Co 0.90181 0.29908 0.54629 0.0
C36 C 0.94176 0.44789 0.53382 0.0
O37 O 0.97586 0.4572 0.59178 0.0
O38 O 0.90551 0.38869 0.51232 0.0
C39 C 0.01196 0.50921 0.75961 0.0
O40 O 0.01676 0.54498 0.70083 0.0
C41 C 0.78905 0.2359 0.446 0.0
C42 C 0.75383 0.1298 0.46353 0.0
C43 C 0.73213 0.17586 0.43748 0.0
N44 N 0.83847 0.2281 0.48152 0.0
N45 N 0.81897 0.16322 0.48626 0.0
C46 C 0.79646 0.30069 0.42052 0.0
H47 H 0.85014 0.33098 0.40427 0.0
H48 H 0.78157 0.32224 0.46626 0.0
H49 H 0.76467 0.29503 0.37228 0.0
C50 C 0.87528 0.29746 0.76125 0.0
N51 N 0.90478 0.32199 0.69601 0.0
N52 N 0.87017 0.27953 0.64566 0.0
C53 C 0.81754 0.22744 0.67805 0.0
C54 C 0.81721 0.23856 0.75143 0.0
C55 C 0.90759 0.32138 0.83302 0.0
H56 H 0.95535 0.36678 0.82896 0.0
H57 H 0.87133 0.32754 0.87007 0.0
H58 H 0.92215 0.28409 0.85704 0.0
O59 O 0.05254 0.3687 0.63893 0.0
O60 O 0.99958 0.31614 0.53963 0.0
H61 H 0.74739 0.12254 0.6851 0.0
H62 H 0.7463 0.16544 0.60103 0.0
C63 C 0.77888 0.16125 0.64468 0.0
H64 H 0.81557 0.14488 0.62324 0.0
H65 H 0.84718 0.14163 0.51113 0.0
O66 O 0.01732 0.45539 0.75511 0.0
C67 C 0.05435 0.34947 0.57524 0.0
Co68 Co 0.43533 0.83751 0.04493 0.0
Co69 Co 0.46821 0.78687 0.90627 0.0
C70 C 0.34551 0.82311 0.92416 0.0
O71 O 0.36212 0.84208 -0.01134 0.0
O72 O 0.37885 0.79865 0.88813 0.0
C73 C 0.50511 0.91823 0.15654 0.0
O74 O 0.55567 0.90653 0.13564 0.0
C75 C 0.41275 0.65829 0.86791 0.0
C76 C 0.49804 0.63825 0.89814 0.0
C77 C 0.42775 0.61082 0.90275 0.0
N78 N 0.47006 0.71389 0.85349 0.0
N79 N 0.52103 0.69902 0.86564 0.0
C80 C 0.34576 0.65577 0.85517 0.0
H81 H 0.35009 0.69372 0.81333 0.0
H82 H 0.32893 0.66755 0.90663 0.0
H83 H 0.31088 0.60632 0.83492 0.0
C84 C 0.43739 0.72407 0.10947 0.0
N85 N 0.42642 0.75025 0.04784 0.0
N86 N 0.47373 0.75712 0.00125 0.0
C87 C 0.52187 0.74517 0.03494 0.0
C88 C 0.49964 0.72226 0.10455 0.0
C89 C 0.38365 0.69202 0.16665 0.0
H90 H 0.33779 0.65239 0.14172 0.0
H91 H 0.40094 0.66962 0.21145 0.0
H92 H 0.36836 0.72929 0.18782 0.0
O93 O 0.52227 0.9015 -0.00031 0.0
O94 O 0.54934 0.87332 0.89537 0.0
H95 H 0.63012 0.79238 0.05198 0.0
H96 H 0.60072 0.72838 -0.01409 0.0
C97 C 0.59323 0.7702 0.00749 0.0
H98 H 0.604 0.80789 -0.0365 0.0
H99 H 0.57206 0.73349 0.86109 0.0
O100 O 0.44469 0.87589 0.14185 0.0
C101 C 0.56339 0.91382 0.94733 0.0
Co102 Co 0.64675 0.55537 0.55226 0.0
Co103 Co 0.7831 0.55546 0.4926 0.0
C104 C 0.64702 0.46016 0.43615 0.0
O105 O 0.62028 0.48985 0.47256 0.0
O106 O 0.71023 0.47543 0.44243 0.0
C107 C 0.53781 0.46989 0.62796 0.0
O108 O 0.56657 0.43562 0.59958 0.0
C109 C 0.88007 0.50568 0.46498 0.0
C110 C 0.96983 0.57141 0.52468 0.0
C111 C 0.93684 0.50675 0.49922 0.0
N112 N 0.87446 0.56152 0.47722 0.0
N113 N 0.93146 0.6032 0.50831 0.0
C114 C 0.83331 0.45493 0.41677 0.0
H115 H 0.81429 0.47913 0.37558 0.0
H116 H 0.79074 0.42044 0.45073 0.0
H117 H 0.86022 0.43096 0.38828 0.0
C118 C 0.70482 0.54216 0.69109 0.0
N119 N 0.7083 0.54783 0.61827 0.0
N120 N 0.76354 0.54507 0.59539 0.0
C121 C 0.79454 0.53368 0.6539 0.0
C122 C 0.7572 0.52904 0.71541 0.0
C123 C 0.66286 0.56383 0.7372 0.0
H124 H 0.62573 0.57415 0.70665 0.0
H125 H 0.63797 0.52726 0.78198 0.0
H126 H 0.6968 0.6127 0.7599 0.0
O127 O 0.69193 0.64429 0.50905 0.0
O128 O 0.77079 0.63105 0.44513 0.0
H129 H 0.88009 0.53064 0.70943 0.0
H130 H 0.86435 0.4985 0.61915 0.0
C131 C 0.86368 0.53722 0.65446 0.0
H132 H 0.90032 0.58785 0.63687 0.0
H133 H 0.94009 0.64976 0.52734 0.0
O134 O 0.5593 0.53055 0.60749 0.0
C135 C 0.73433 0.66123 0.45662 0.0
Co136 Co 0.03186 0.61443 0.13388 0.0
Co137 Co 0.10585 0.70288 -0.00282 0.0
C138 C 0.08192 0.55952 0.01409 0.0
O139 O 0.04103 0.55127 0.06563 0.0
O140 O 0.1187 0.61797 -0.01183 0.0
C141 C 0.07531 0.56592 0.2372 0.0
O142 O 0.12044 0.58623 0.1846 0.0
C143 C 0.22025 0.76056 0.89848 0.0
C144 C 0.25612 0.86601 0.91414 0.0
C145 C 0.27951 0.81962 0.89803 0.0
N146 N 0.16677 0.76858 0.9224 0.0
N147 N 0.18788 0.83365 0.92418 0.0
C148 C 0.21611 0.69611 0.87983 0.0
H149 H 0.16299 0.66194 0.86522 0.0
H150 H 0.23366 0.67885 0.92813 0.0
H151 H 0.24973 0.70192 0.83309 0.0
C152 C 0.12858 0.73103 0.20884 0.0
N153 N 0.10691 0.69823 0.14666 0.0
N154 N 0.13404 0.73942 0.09162 0.0
C155 C 0.17291 0.80076 0.11794 0.0
C156 C 0.17578 0.79601 0.19298 0.0
C157 C 0.08706 0.70948 0.27699 0.0
H158 H 0.03497 0.67101 0.26631 0.0
H159 H 0.11198 0.69052 0.31737 0.0
H160 H 0.08024 0.7513 0.29954 0.0
O161 O 0.95978 0.63457 0.1018 0.0
O162 O 1.00242 0.66468 -0.01007 0.0
H163 H 0.17868 0.89933 0.12438 0.0
H164 H 0.21859 0.88636 0.04655 0.0
C165 C 0.17446 0.86234 0.08319 0.0
H166 H 0.12661 0.84939 0.05305 0.0
H167 H 0.15719 0.85596 0.93824 0.0
O168 O 0.01821 0.56607 0.22719 0.0
C169 C 0.95152 0.63894 0.03423 0.0
Co170 Co 0.54983 0.13604 0.543 0.0
Co171 Co 0.54889 0.21381 0.41879 0.0
C172 C 0.66121 0.16814 0.44468 0.0
O173 O 0.62525 0.12941 0.49482 0.0
O174 O 0.64163 0.20817 0.41317 0.0
C175 C 0.53876 0.03069 0.63627 0.0
O176 O 0.5488 0.00224 0.57928 0.0
C177 C 0.61165 0.34814 0.37316 0.0
C178 C 0.5298 0.37508 0.39625 0.0
C179 C 0.60009 0.40074 0.39541 0.0
N180 N 0.55268 0.29269 0.36924 0.0
N181 N 0.50348 0.31053 0.37769 0.0
C182 C 0.67777 0.34775 0.3642 0.0
H183 H 0.67243 0.30733 0.32741 0.0
H184 H 0.69347 0.33876 0.41849 0.0
H185 H 0.71482 0.39583 0.34023 0.0
C186 C 0.54786 0.23716 0.62861 0.0
N187 N 0.56984 0.22629 0.56475 0.0
N188 N 0.52683 0.22432 0.51458 0.0
C189 C 0.4702 0.22081 0.54646 0.0
C190 C 0.4812 0.2268 0.6204 0.0
C191 C 0.59545 0.28935 0.6786 0.0
H192 H 0.64914 0.30522 0.66284 0.0
H193 H 0.58581 0.3339 0.6761 0.0
H194 H 0.58695 0.27066 0.73547 0.0
O195 O 0.46151 0.08303 0.49804 0.0
O196 O 0.4751 0.12966 0.38892 0.0
H197 H 0.36083 0.17482 0.54385 0.0
H198 H 0.40265 0.25168 0.49242 0.0
C199 C 0.40487 0.2048 0.50805 0.0
H200 H 0.40142 0.17768 0.45777 0.0
H201 H 0.452 0.27721 0.37919 0.0
O202 O 0.53723 0.08649 0.63042 0.0
C203 C 0.44214 0.08151 0.43335 0.0
Co204 Co 0.60224 0.60546 0.29635 0.0
Co205 Co 0.60101 0.7293 0.37619 0.0
C206 C 0.50687 0.59089 0.4256 0.0
O207 O 0.53174 0.56768 0.37749 0.0
O208 O 0.52637 0.6537 0.43038 0.0
C209 C 0.55703 0.4862 0.19455 0.0
O210 O 0.57179 0.43942 0.17104 0.0
C211 C 0.56409 0.82845 0.43248 0.0
C212 C 0.62034 0.91411 0.36073 0.0
C213 C 0.56264 0.88588 0.40462 0.0
N214 N 0.6122 0.81814 0.39901 0.0
N215 N 0.64931 0.87227 0.36 0.0
C216 C 0.51986 0.78181 0.48802 0.0
H217 H 0.548 0.75833 0.51753 0.0
H218 H 0.47776 0.74296 0.45894 0.0
H219 H 0.5035 0.80837 0.52714 0.0
C220 C 0.5706 0.67201 0.1703 0.0
N221 N 0.58912 0.6703 0.23979 0.0
N222 N 0.57884 0.71475 0.27609 0.0
C223 C 0.54647 0.74031 0.23293 0.0
C224 C 0.53947 0.71381 0.1649 0.0
C225 C 0.58837 0.63983 0.10933 0.0
H226 H 0.60879 0.60576 0.12948 0.0
H227 H 0.54413 0.61441 0.07319 0.0
H228 H 0.63007 0.67883 0.07727 0.0
O229 O 0.69246 0.64661 0.3416 0.0
O230 O 0.68335 0.72298 0.40843 0.0
H231 H 0.48475 0.7938 0.22144 0.0
H232 H 0.50119 0.77612 0.31189 0.0
C233 C 0.52285 0.78952 0.25674 0.0
H234 H 0.56668 0.83907 0.25384 0.0
H235 H 0.68831 0.8767 0.32504 0.0
O236 O 0.59687 0.52719 0.24016 0.0
C237 C 0.71248 0.68686 0.39375 0.0
Co238 Co 0.863 0.45637 0.92381 0.0
Co239 Co 0.75551 0.48151 0.00748 0.0
C240 C 0.79264 0.36178 0.04085 0.0
O241 O 0.84182 0.38447 -0.00414 0.0
O242 O 0.75505 0.39188 0.04913 0.0
C243 C 0.97334 0.51487 0.82104 0.0
O244 O 0.96882 0.57054 0.83074 0.0
C245 C 0.61361 0.42807 0.01009 0.0
C246 C 0.59506 0.50732 0.95982 0.0
C247 C 0.5669 0.43851 -0.03206 0.0
N248 N 0.66901 0.48525 0.02054 0.0
N249 N 0.65564 0.53345 -0.00568 0.0
C250 C 0.60761 0.36495 0.04001 0.0
H251 H 0.64236 0.37528 0.08659 0.0
H252 H 0.62133 0.34024 -0.00362 0.0
H253 H 0.55552 0.33556 0.06067 0.0
C254 C 0.78127 0.45114 0.80306 0.0
N255 N 0.7838 0.44443 0.87509 0.0
N256 N 0.76264 0.48384 0.90568 0.0
C257 C 0.75569 0.5242 0.85487 0.0
C258 C 0.76426 0.5029 0.78752 0.0
C259 C 0.78821 0.40352 0.75192 0.0
H260 H 0.76548 0.35264 0.77676 0.0
H261 H 0.76301 0.40265 0.69955 0.0
H262 H 0.84272 0.41779 0.74216 0.0
O263 O 0.90343 0.54471 -0.03347 0.0
O264 O 0.83419 0.56288 0.03954 0.0
H265 H 0.79591 0.62898 0.82802 0.0
H266 H 0.71538 0.59355 0.87447 0.0
C267 C 0.76515 0.59289 0.87105 0.0
H268 H 0.79115 0.60919 0.92363 0.0
H269 H 0.69009 0.58382 -0.00551 0.0
O270 O 0.933 0.46174 0.85464 0.0
C271 C 0.89148 0.58272 0.00777 0.0
Co272 Co 0.43476 0.94935 0.28211 0.0
Co273 Co 0.35293 0.87039 0.42366 0.0
C274 C 0.5005 0.8948 0.38797 0.0
O275 O 0.5006 0.92475 0.32899 0.0
O276 O 0.44695 0.86899 0.42741 0.0
C277 C 0.5178 0.98795 0.15835 0.0
O278 O 0.56026 0.03148 0.11196 0.0
C279 C 0.29717 0.74296 0.50298 0.0
C280 C 0.19103 0.71605 0.52389 0.0
C281 C 0.23641 0.68849 0.52073 0.0
N282 N 0.28903 0.7982 0.49119 0.0
N283 N 0.22538 0.78232 0.50921 0.0
C284 C 0.36406 0.74511 0.50678 0.0
H285 H 0.39967 0.79456 0.52655 0.0
H286 H 0.37722 0.73622 0.45168 0.0
H287 H 0.36351 0.70866 0.54779 0.0
C288 C 0.30474 0.86915 0.21218 0.0
N289 N 0.34733 0.88065 0.2686 0.0
N290 N 0.31169 0.85416 0.32797 0.0
C291 C 0.24506 0.82884 0.31147 0.0
C292 C 0.23827 0.83298 0.23693 0.0
C293 C 0.325 0.90669 0.14156 0.0
H294 H 0.37965 0.93939 0.13787 0.0
H295 H 0.31008 0.8713 0.09661 0.0
H296 H 0.29965 0.93949 0.13575 0.0
O297 O 0.42453 0.01128 0.34183 0.0
O298 O 0.3752 0.96472 0.44709 0.0
H299 H 0.16034 0.84911 0.33556 0.0
H300 H 0.16573 0.78383 0.39033 0.0
C301 C 0.19544 0.83288 0.36345 0.0
H302 H 0.22322 0.87087 0.40432 0.0
H303 H 0.2039 0.81535 0.5084 0.0
O304 O 0.4831 0.00549 0.1992 0.0
C305 C 0.40433 0.01562 0.40437 0.0
Co306 Co 0.41338 0.36945 0.79542 0.0
Co307 Co 0.40801 0.24979 0.89608 0.0
C308 C 0.50914 0.38831 0.92622 0.0
O309 O 0.48269 0.40872 0.87584 0.0
O310 O 0.4898 0.32607 0.93754 0.0
C311 C 0.50571 0.44601 0.69922 0.0
O312 O 0.5316 0.41466 0.74029 0.0
C313 C 0.44081 0.15729 -0.01923 0.0
C314 C 0.38548 0.06422 0.92462 0.0
C315 C 0.44143 0.09683 -0.03076 0.0
N316 N 0.39401 0.16392 0.93908 0.0
N317 N 0.35741 0.1057 0.90946 0.0
C318 C 0.48853 0.21117 0.02515 0.0
H319 H 0.46312 0.2409 0.04446 0.0
H320 H 0.53173 0.24151 -0.01056 0.0
H321 H 0.50465 0.19065 0.07238 0.0
C322 C 0.41695 0.28134 0.68338 0.0
N323 N 0.41059 0.29229 0.75364 0.0
N324 N 0.41971 0.24822 0.79412 0.0
C325 C 0.43834 0.21164 0.75059 0.0
C326 C 0.4385 0.23233 0.6789 0.0
C327 C 0.3978 0.31374 0.62161 0.0
H328 H 0.37878 0.34876 0.64044 0.0
H329 H 0.44106 0.33865 0.58349 0.0
H330 H 0.35517 0.27478 0.59202 0.0
O331 O 0.32458 0.34375 0.83937 0.0
O332 O 0.3333 0.27344 0.92167 0.0
H333 H 0.49174 0.15118 0.73753 0.0
H334 H 0.48559 0.17412 0.82945 0.0
C335 C 0.45904 0.15981 0.77689 0.0
H336 H 0.41286 0.11177 0.78306 0.0
H337 H 0.31953 0.09716 0.87118 0.0
O338 O 0.44688 0.43994 0.71529 0.0
C339 C 0.30635 0.31047 0.89893 0.0
Co340 Co 0.1257 0.50232 0.41849 0.0
Co341 Co 0.25232 0.49597 0.49582 0.0
C342 C 0.21779 0.61715 0.50479 0.0
O343 O 0.16345 0.58611 0.4702 0.0
O344 O 0.258 0.59051 0.51605 0.0
C345 C 0.09841 0.55834 0.30861 0.0
O346 O 0.16381 0.5906 0.32163 0.0
C347 C 0.39768 0.55534 0.50013 0.0
C348 C 0.42425 0.47488 0.47817 0.0
C349 C 0.44881 0.5434 0.47111 0.0
N350 N 0.34271 0.49824 0.51594 0.0
N351 N 0.36124 0.45009 0.5081 0.0
C352 C 0.40255 0.62028 0.51858 0.0
H353 H 0.3683 0.61361 0.56502 0.0
H354 H 0.388 0.64028 0.46984 0.0
H355 H 0.45473 0.65341 0.5362 0.0
C356 C 0.17197 0.45157 0.29896 0.0
N357 N 0.18595 0.48303 0.36263 0.0
N358 N 0.23523 0.47501 0.39493 0.0
C359 C 0.25289 0.43643 0.35304 0.0
C360 C 0.21795 0.42595 0.28814 0.0
C361 C 0.10188 0.42135 0.26778 0.0
H362 H 0.06393 0.41949 0.30754 0.0
H363 H 0.10035 0.44943 0.21822 0.0
H364 H 0.08553 0.36845 0.25567 0.0
O365 O 0.08646 0.42786 0.48394 0.0
O366 O 0.17113 0.42265 0.54797 0.0
H367 H 0.24157 0.33563 0.35576 0.0
H368 H 0.32245 0.39801 0.3857 0.0
C369 C 0.26723 0.38263 0.38595 0.0
H370 H 0.2463 0.37113 0.44171 0.0
H371 H 0.32982 0.3997 0.5186 0.0
O372 O 0.06048 0.51301 0.35264 0.0
C373 C 0.108 0.39968 0.53106 0.0
Co374 Co 0.58242 0.06536 0.85118 0.0
Co375 Co 0.65261 0.12133 -0.00856 0.0
C376 C 0.50429 0.08748 -0.03666 0.0
O377 O 0.50514 0.05101 0.91268 0.0
O378 O 0.55988 0.1253 -0.00518 0.0
C379 C 0.54656 0.01003 0.70892 0.0
O380 O 0.57543 0.97067 0.72113 0.0
C381 C 0.71033 0.23965 0.07403 0.0
C382 C 0.81751 0.26338 0.0711 0.0
C383 C 0.77454 0.29374 0.07308 0.0
N384 N 0.71427 0.18209 0.06464 0.0
N385 N 0.77932 0.19657 0.06907 0.0
C386 C 0.6452 0.24253 0.07936 0.0
H387 H 0.60671 0.19516 0.10376 0.0
H388 H 0.63077 0.24942 0.02382 0.0
H389 H 0.65054 0.28362 0.11469 0.0
C390 C 0.69107 0.18104 0.78854 0.0
N391 N 0.65463 0.15164 0.8483 0.0
N392 N 0.69626 0.15888 0.90181 0.0
C393 C 0.76072 0.1869 0.87599 0.0
C394 C 0.75972 0.20427 0.80331 0.0
C395 C 0.65971 0.1836 0.71788 0.0
H396 H 0.60819 0.17878 0.72722 0.0
H397 H 0.69179 0.23022 0.68741 0.0
H398 H 0.65451 0.14112 0.6853 0.0
O399 O 0.62133 0.00542 0.87436 0.0
O400 O 0.62663 0.02183 -0.0077 0.0
H401 H 0.84966 0.17003 0.86971 0.0
H402 H 0.84743 0.21852 0.94511 0.0
C403 C 0.81628 0.17574 0.91105 0.0
H404 H 0.79413 0.12967 0.94528 0.0
H405 H 0.79841 0.16205 0.06211 0.0
O406 O 0.54381 0.04728 0.7577 0.0
C407 C 0.61514 0.98288 0.93849 0.0
loop_
_geom_bond_atom_site_label_1
_geom_bond_atom_site_label_2
_geom_bond_distance
_geom_bond_site_symmetry_2
_ccdc_geom_bond_type
Co0 O3 1.970 . S
Co0 N17 1.989 . S
Co0 O25 1.967 . S
Co0 O32 1.920 . S
Co1 O4 1.966 1_554 S
Co1 N10 2.022 1_554 S
Co1 N18 1.993 . S
Co1 O26 1.941 1_554 S
C2 O3 1.258 1_556 S
C2 O4 1.263 . S
O3 Co0 1.970 . S
O3 C2 1.258 1_554 S
O4 Co1 1.966 1_556 S
O4 C2 1.263 . S
C5 O6 1.235 . S
C5 O32 1.289 . S
O6 C5 1.235 . S
C7 C9 1.400 . S
C7 N10 1.351 . S
C7 C12 1.501 . S
C8 C9 1.387 . S
C8 N11 1.341 . S
C9 C7 1.400 . S
C9 C8 1.387 . S
N10 Co1 2.022 1_556 S
N10 C7 1.351 . S
N10 N11 1.365 . S
N11 C8 1.341 . S
N11 N10 1.365 . S
N11 H31 0.862 . S
C12 C7 1.501 . S
C12 H13 0.961 . S
C12 H14 0.961 . S
C12 H15 0.960 . S
H13 C12 0.961 . S
H14 C12 0.961 . S
H15 C12 0.960 . S
C16 N17 1.342 . S
C16 C20 1.401 . S
C16 C21 1.499 . S
N17 Co0 1.989 . S
N17 C16 1.342 . S
N17 N18 1.388 . S
N18 Co1 1.993 . S
N18 N17 1.388 . S
N18 C19 1.346 . S
C19 N18 1.346 . S
C19 C20 1.396 . S
C19 C29 1.510 . S
C20 C16 1.401 . S
C20 C19 1.396 . S
C21 C16 1.499 . S
C21 H22 0.959 . S
C21 H23 0.960 . S
C21 H24 0.961 . S
H22 C21 0.959 . S
H23 C21 0.960 . S
H24 C21 0.961 . S
O25 Co0 1.967 . S
O25 C33 1.258 1_554 S
O26 Co1 1.941 1_556 S
O26 C33 1.266 . S
H27 C29 0.959 . S
H28 C29 0.961 . S
C29 C19 1.510 . S
C29 H27 0.959 . S
C29 H28 0.961 . S
C29 H30 0.960 . S
H30 C29 0.960 . S
H31 N11 0.862 . S
O32 Co0 1.920 . S
O32 C5 1.289 . S
C33 O25 1.258 1_556 S
C33 O26 1.266 . S
Co34 O37 1.970 . S
Co34 N51 1.989 . S
Co34 O59 1.967 1_655 S
Co34 O66 1.920 1_655 S
Co35 O38 1.966 . S
Co35 N44 2.022 . S
Co35 N52 1.993 . S
Co35 O60 1.941 . S
C36 O37 1.258 . S
C36 O38 1.263 . S
O37 Co34 1.970 . S
O37 C36 1.258 . S
O38 Co35 1.966 . S
O38 C36 1.263 . S
C39 O40 1.235 . S
C39 O66 1.289 1_655 S
O40 C39 1.235 . S
C41 C43 1.400 . S
C41 N44 1.351 . S
C41 C46 1.501 . S
C42 C43 1.387 . S
C42 N45 1.341 . S
C43 C41 1.400 . S
C43 C42 1.387 . S
N44 Co35 2.022 . S
N44 C41 1.351 . S
N44 N45 1.365 . S
N45 C42 1.341 . S
N45 N44 1.365 . S
N45 H65 0.862 . S
C46 C41 1.501 . S
C46 H47 0.961 . S
C46 H48 0.961 . S
C46 H49 0.960 . S
H47 C46 0.961 . S
H48 C46 0.961 . S
H49 C46 0.960 . S
C50 N51 1.342 . S
C50 C54 1.401 . S
C50 C55 1.499 . S
N51 Co34 1.989 . S
N51 C50 1.342 . S
N51 N52 1.388 . S
N52 Co35 1.993 . S
N52 N51 1.388 . S
N52 C53 1.346 . S
C53 N52 1.346 . S
C53 C54 1.396 . S
C53 C63 1.510 . S
C54 C50 1.401 . S
C54 C53 1.396 . S
C55 C50 1.499 . S
C55 H56 0.959 . S
C55 H57 0.960 . S
C55 H58 0.961 . S
H56 C55 0.959 . S
H57 C55 0.960 . S
H58 C55 0.961 . S
O59 Co34 1.967 1_455 S
O59 C67 1.258 . S
O60 Co35 1.941 . S
O60 C67 1.266 1_655 S
H61 C63 0.959 . S
H62 C63 0.961 . S
C63 C53 1.510 . S
C63 H61 0.959 . S
C63 H62 0.961 . S
C63 H64 0.960 . S
H64 C63 0.960 . S
H65 N45 0.862 . S
O66 Co34 1.920 1_455 S
O66 C39 1.289 1_455 S
C67 O59 1.258 . S
C67 O60 1.266 1_455 S
Co68 O71 1.970 . S
Co68 N85 1.989 . S
Co68 O93 1.967 1_554 S
Co68 O100 1.920 . S
Co69 O72 1.966 . S
Co69 N78 2.022 . S
Co69 N86 1.993 1_556 S
Co69 O94 1.941 . S
C70 O71 1.258 1_556 S
C70 O72 1.263 . S
O71 Co68 1.970 . S
O71 C70 1.258 1_554 S
O72 Co69 1.966 . S
O72 C70 1.263 . S
C73 O74 1.235 . S
C73 O100 1.289 . S
O74 C73 1.235 . S
C75 C77 1.400 . S
C75 N78 1.351 . S
C75 C80 1.501 . S
C76 C77 1.387 . S
C76 N79 1.341 . S
C77 C75 1.400 . S
C77 C76 1.387 . S
N78 Co69 2.022 . S
N78 C75 1.351 . S
N78 N79 1.365 . S
N79 C76 1.341 . S
N79 N78 1.365 . S
N79 H99 0.862 . S
C80 C75 1.501 . S
C80 H81 0.961 . S
C80 H82 0.961 . S
C80 H83 0.960 . S
H81 C80 0.961 . S
H82 C80 0.961 . S
H83 C80 0.960 . S
C84 N85 1.342 . S
C84 C88 1.401 . S
C84 C89 1.499 . S
N85 Co68 1.989 . S
N85 C84 1.342 . S
N85 N86 1.388 . S
N86 Co69 1.993 1_554 S
N86 N85 1.388 . S
N86 C87 1.346 . S
C87 N86 1.346 . S
C87 C88 1.396 . S
C87 C97 1.510 . S
C88 C84 1.401 . S
C88 C87 1.396 . S
C89 C84 1.499 . S
C89 H90 0.959 . S
C89 H91 0.960 . S
C89 H92 0.961 . S
H90 C89 0.959 . S
H91 C89 0.960 . S
H92 C89 0.961 . S
O93 Co68 1.967 1_556 S
O93 C101 1.258 . S
O94 Co69 1.941 . S
O94 C101 1.266 . S
H95 C97 0.959 . S
H96 C97 0.961 . S
C97 C87 1.510 . S
C97 H95 0.959 . S
C97 H96 0.961 . S
C97 H98 0.960 1_554 S
H98 C97 0.960 1_556 S
H99 N79 0.862 . S
O100 Co68 1.920 . S
O100 C73 1.289 . S
C101 O93 1.258 . S
C101 O94 1.266 . S
Co102 O105 1.970 . S
Co102 N119 1.989 . S
Co102 O127 1.967 . S
Co102 O134 1.920 . S
Co103 O106 1.966 . S
Co103 N112 2.022 . S
Co103 N120 1.993 . S
Co103 O128 1.941 . S
C104 O105 1.258 . S
C104 O106 1.263 . S
O105 Co102 1.970 . S
O105 C104 1.258 . S
O106 Co103 1.966 . S
O106 C104 1.263 . S
C107 O108 1.235 . S
C107 O134 1.289 . S
O108 C107 1.235 . S
C109 C111 1.400 . S
C109 N112 1.351 . S
C109 C114 1.501 . S
C110 C111 1.387 . S
C110 N113 1.341 . S
C111 C109 1.400 . S
C111 C110 1.387 . S
N112 Co103 2.022 . S
N112 C109 1.351 . S
N112 N113 1.365 . S
N113 C110 1.341 . S
N113 N112 1.365 . S
N113 H133 0.862 . S
C114 C109 1.501 . S
C114 H115 0.961 . S
C114 H116 0.961 . S
C114 H117 0.960 . S
H115 C114 0.961 . S
H116 C114 0.961 . S
H117 C114 0.960 . S
C118 N119 1.342 . S
C118 C122 1.401 . S
C118 C123 1.499 . S
N119 Co102 1.989 . S
N119 C118 1.342 . S
N119 N120 1.388 . S
N120 Co103 1.993 . S
N120 N119 1.388 . S
N120 C121 1.346 . S
C121 N120 1.346 . S
C121 C122 1.396 . S
C121 C131 1.510 . S
C122 C118 1.401 . S
C122 C121 1.396 . S
C123 C118 1.499 . S
C123 H124 0.959 . S
C123 H125 0.960 . S
C123 H126 0.961 . S
H124 C123 0.959 . S
H125 C123 0.960 . S
H126 C123 0.961 . S
O127 Co102 1.967 . S
O127 C135 1.258 . S
O128 Co103 1.941 . S
O128 C135 1.266 . S
H129 C131 0.959 . S
H130 C131 0.961 . S
C131 C121 1.510 . S
C131 H129 0.959 . S
C131 H130 0.961 . S
C131 H132 0.960 . S
H132 C131 0.960 . S
H133 N113 0.862 . S
O134 Co102 1.920 . S
O134 C107 1.289 . S
C135 O127 1.258 . S
C135 O128 1.266 . S
Co136 O139 1.970 . S
Co136 N153 1.989 . S
Co136 O161 1.967 1_455 S
Co136 O168 1.920 1_455 S
Co137 O140 1.966 . S
Co137 N146 2.022 . S
Co137 N154 1.993 1_556 S
Co137 O162 1.941 . S
C138 O139 1.258 . S
C138 O140 1.263 1_554 S
O139 Co136 1.970 . S
O139 C138 1.258 . S
O140 Co137 1.966 . S
O140 C138 1.263 1_556 S
C141 O142 1.235 . S
C141 O168 1.289 1_455 S
O142 C141 1.235 . S
C143 C145 1.400 . S
C143 N146 1.351 . S
C143 C148 1.501 . S
C144 C145 1.387 . S
C144 N147 1.341 . S
C145 C143 1.400 . S
C145 C144 1.387 . S
N146 Co137 2.022 . S
N146 C143 1.351 . S
N146 N147 1.365 . S
N147 C144 1.341 . S
N147 N146 1.365 . S
N147 H167 0.862 . S
C148 C143 1.501 . S
C148 H149 0.961 . S
C148 H150 0.961 . S
C148 H151 0.960 . S
H149 C148 0.961 . S
H150 C148 0.961 . S
H151 C148 0.960 . S
C152 N153 1.342 . S
C152 C156 1.401 . S
C152 C157 1.499 . S
N153 Co136 1.989 . S
N153 C152 1.342 . S
N153 N154 1.388 . S
N154 Co137 1.993 1_554 S
N154 N153 1.388 . S
N154 C155 1.346 . S
C155 N154 1.346 . S
C155 C156 1.396 . S
C155 C165 1.510 . S
C156 C152 1.401 . S
C156 C155 1.396 . S
C157 C152 1.499 . S
C157 H158 0.959 . S
C157 H159 0.960 . S
C157 H160 0.961 . S
H158 C157 0.959 . S
H159 C157 0.960 . S
H160 C157 0.961 . S
O161 Co136 1.967 1_655 S
O161 C169 1.258 1_554 S
O162 Co137 1.941 . S
O162 C169 1.266 1_455 S
H163 C165 0.959 . S
H164 C165 0.961 . S
C165 C155 1.510 . S
C165 H163 0.959 . S
C165 H164 0.961 . S
C165 H166 0.960 . S
H166 C165 0.960 . S
H167 N147 0.862 . S
O168 Co136 1.920 1_655 S
O168 C141 1.289 1_655 S
C169 O161 1.258 1_556 S
C169 O162 1.266 1_655 S
Co170 O173 1.970 . S
Co170 N187 1.989 . S
Co170 O195 1.967 . S
Co170 O202 1.920 . S
Co171 O174 1.966 . S
Co171 N180 2.022 . S
Co171 N188 1.993 . S
Co171 O196 1.941 . S
C172 O173 1.258 . S
C172 O174 1.263 . S
O173 Co170 1.970 . S
O173 C172 1.258 . S
O174 Co171 1.966 . S
O174 C172 1.263 . S
C175 O176 1.235 . S
C175 O202 1.289 . S
O176 C175 1.235 . S
C177 C179 1.400 . S
C177 N180 1.351 . S
C177 C182 1.501 . S
C178 C179 1.387 . S
C178 N181 1.341 . S
C179 C177 1.400 . S
C179 C178 1.387 . S
N180 Co171 2.022 . S
N180 C177 1.351 . S
N180 N181 1.365 . S
N181 C178 1.341 . S
N181 N180 1.365 . S
N181 H201 0.862 . S
C182 C177 1.501 . S
C182 H183 0.961 . S
C182 H184 0.961 . S
C182 H185 0.960 . S
H183 C182 0.961 . S
H184 C182 0.961 . S
H185 C182 0.960 . S
C186 N187 1.342 . S
C186 C190 1.401 . S
C186 C191 1.499 . S
N187 Co170 1.989 . S
N187 C186 1.342 . S
N187 N188 1.388 . S
N188 Co171 1.993 . S
N188 N187 1.388 . S
N188 C189 1.346 . S
C189 N188 1.346 . S
C189 C190 1.396 . S
C189 C199 1.510 . S
C190 C186 1.401 . S
C190 C189 1.396 . S
C191 C186 1.499 . S
C191 H192 0.959 . S
C191 H193 0.960 . S
C191 H194 0.961 . S
H192 C191 0.959 . S
H193 C191 0.960 . S
H194 C191 0.961 . S
O195 Co170 1.967 . S
O195 C203 1.258 . S
O196 Co171 1.941 . S
O196 C203 1.266 . S
H197 C199 0.959 . S
H198 C199 0.961 . S
C199 C189 1.510 . S
C199 H197 0.959 . S
C199 H198 0.961 . S
C199 H200 0.960 . S
H200 C199 0.960 . S
H201 N181 0.862 . S
O202 Co170 1.920 . S
O202 C175 1.289 . S
C203 O195 1.258 . S
C203 O196 1.266 . S
Co204 O207 1.970 . S
Co204 N221 1.989 . S
Co204 O229 1.967 . S
Co204 O236 1.920 . S
Co205 O208 1.966 . S
Co205 N214 2.022 . S
Co205 N222 1.993 . S
Co205 O230 1.941 . S
C206 O207 1.258 . S
C206 O208 1.263 . S
O207 Co204 1.970 . S
O207 C206 1.258 . S
O208 Co205 1.966 . S
O208 C206 1.263 . S
C209 O210 1.235 . S
C209 O236 1.289 . S
O210 C209 1.235 . S
C211 C213 1.400 . S
C211 N214 1.351 . S
C211 C216 1.501 . S
C212 C213 1.387 . S
C212 N215 1.341 . S
C213 C211 1.400 . S
C213 C212 1.387 . S
N214 Co205 2.022 . S
N214 C211 1.351 . S
N214 N215 1.365 . S
N215 C212 1.341 . S
N215 N214 1.365 . S
N215 H235 0.862 . S
C216 C211 1.501 . S
C216 H217 0.961 . S
C216 H218 0.961 . S
C216 H219 0.960 . S
H217 C216 0.961 . S
H218 C216 0.961 . S
H219 C216 0.960 . S
C220 N221 1.342 . S
C220 C224 1.401 . S
C220 C225 1.499 . S
N221 Co204 1.989 . S
N221 C220 1.342 . S
N221 N222 1.388 . S
N222 Co205 1.993 . S
N222 N221 1.388 . S
N222 C223 1.346 . S
C223 N222 1.346 . S
C223 C224 1.396 . S
C223 C233 1.510 . S
C224 C220 1.401 . S
C224 C223 1.396 . S
C225 C220 1.499 . S
C225 H226 0.959 . S
C225 H227 0.960 . S
C225 H228 0.961 . S
H226 C225 0.959 . S
H227 C225 0.960 . S
H228 C225 0.961 . S
O229 Co204 1.967 . S
O229 C237 1.258 . S
O230 Co205 1.941 . S
O230 C237 1.266 . S
H231 C233 0.959 . S
H232 C233 0.961 . S
C233 C223 1.510 . S
C233 H231 0.959 . S
C233 H232 0.961 . S
C233 H234 0.960 . S
H234 C233 0.960 . S
H235 N215 0.862 . S
O236 Co204 1.920 . S
O236 C209 1.289 . S
C237 O229 1.258 . S
C237 O230 1.266 . S
Co238 O241 1.970 . S
Co238 N255 1.989 . S
Co238 O263 1.967 1_556 S
Co238 O270 1.920 . S
Co239 O242 1.966 . S
Co239 N248 2.022 . S
Co239 N256 1.993 1_554 S
Co239 O264 1.941 . S
C240 O241 1.258 1_554 S
C240 O242 1.263 . S
O241 Co238 1.970 . S
O241 C240 1.258 1_556 S
O242 Co239 1.966 . S
O242 C240 1.263 . S
C243 O244 1.235 . S
C243 O270 1.289 . S
O244 C243 1.235 . S
C245 C247 1.400 . S
C245 N248 1.351 . S
C245 C250 1.501 . S
C246 C247 1.387 . S
C246 N249 1.341 . S
C247 C245 1.400 . S
C247 C246 1.387 . S
N248 Co239 2.022 . S
N248 C245 1.351 . S
N248 N249 1.365 . S
N249 C246 1.341 . S
N249 N248 1.365 . S
N249 H269 0.862 . S
C250 C245 1.501 . S
C250 H251 0.961 . S
C250 H252 0.961 . S
C250 H253 0.960 . S
H251 C250 0.961 . S
H252 C250 0.961 . S
H253 C250 0.960 . S
C254 N255 1.342 . S
C254 C258 1.401 . S
C254 C259 1.499 . S
N255 Co238 1.989 . S
N255 C254 1.342 . S
N255 N256 1.388 . S
N256 Co239 1.993 1_556 S
N256 N255 1.388 . S
N256 C257 1.346 . S
C257 N256 1.346 . S
C257 C258 1.396 . S
C257 C267 1.510 . S
C258 C254 1.401 . S
C258 C257 1.396 . S
C259 C254 1.499 . S
C259 H260 0.959 . S
C259 H261 0.960 . S
C259 H262 0.961 . S
H260 C259 0.959 . S
H261 C259 0.960 . S
H262 C259 0.961 . S
O263 Co238 1.967 1_554 S
O263 C271 1.258 . S
O264 Co239 1.941 . S
O264 C271 1.266 . S
H265 C267 0.959 . S
H266 C267 0.961 . S
C267 C257 1.510 . S
C267 H265 0.959 . S
C267 H266 0.961 . S
C267 H268 0.960 1_556 S
H268 C267 0.960 1_554 S
H269 N249 0.862 . S
O270 Co238 1.920 . S
O270 C243 1.289 . S
C271 O263 1.258 . S
C271 O264 1.266 . S
Co272 O275 1.970 . S
Co272 N289 1.989 . S
Co272 O297 1.967 1_565 S
Co272 O304 1.920 1_565 S
Co273 O276 1.966 . S
Co273 N282 2.022 . S
Co273 N290 1.993 . S
Co273 O298 1.941 . S
C274 O275 1.258 . S
C274 O276 1.263 . S
O275 Co272 1.970 . S
O275 C274 1.258 . S
O276 Co273 1.966 . S
O276 C274 1.263 . S
C277 O278 1.235 . S
C277 O304 1.289 1_565 S
O278 C277 1.235 . S
C279 C281 1.400 . S
C279 N282 1.351 . S
C279 C284 1.501 . S
C280 C281 1.387 . S
C280 N283 1.341 . S
C281 C279 1.400 . S
C281 C280 1.387 . S
N282 Co273 2.022 . S
N282 C279 1.351 . S
N282 N283 1.365 . S
N283 C280 1.341 . S
N283 N282 1.365 . S
N283 H303 0.862 . S
C284 C279 1.501 . S
C284 H285 0.961 . S
C284 H286 0.961 . S
C284 H287 0.960 . S
H285 C284 0.961 . S
H286 C284 0.961 . S
H287 C284 0.960 . S
C288 N289 1.342 . S
C288 C292 1.401 . S
C288 C293 1.499 . S
N289 Co272 1.989 . S
N289 C288 1.342 . S
N289 N290 1.388 . S
N290 Co273 1.993 . S
N290 N289 1.388 . S
N290 C291 1.346 . S
C291 N290 1.346 . S
C291 C292 1.396 . S
C291 C301 1.510 . S
C292 C288 1.401 . S
C292 C291 1.396 . S
C293 C288 1.499 . S
C293 H294 0.959 . S
C293 H295 0.960 . S
C293 H296 0.961 . S
H294 C293 0.959 . S
H295 C293 0.960 . S
H296 C293 0.961 . S
O297 Co272 1.967 1_545 S
O297 C305 1.258 . S
O298 Co273 1.941 . S
O298 C305 1.266 1_565 S
H299 C301 0.959 . S
H300 C301 0.961 . S
C301 C291 1.510 . S
C301 H299 0.959 . S
C301 H300 0.961 . S
C301 H302 0.960 . S
H302 C301 0.960 . S
H303 N283 0.862 . S
O304 Co272 1.920 1_545 S
O304 C277 1.289 1_545 S
C305 O297 1.258 . S
C305 O298 1.266 1_545 S
Co306 O309 1.970 . S
Co306 N323 1.989 . S
Co306 O331 1.967 . S
Co306 O338 1.920 . S
Co307 O310 1.966 1_556 S
Co307 N316 2.022 1_556 S
Co307 N324 1.993 . S
Co307 O332 1.941 1_556 S
C308 O309 1.258 1_554 S
C308 O310 1.263 . S
O309 Co306 1.970 . S
O309 C308 1.258 1_556 S
O310 Co307 1.966 1_554 S
O310 C308 1.263 . S
C311 O312 1.235 . S
C311 O338 1.289 . S
O312 C311 1.235 . S
C313 C315 1.400 . S
C313 N316 1.351 . S
C313 C318 1.501 . S
C314 C315 1.387 . S
C314 N317 1.341 . S
C315 C313 1.400 . S
C315 C314 1.387 . S
N316 Co307 2.022 1_554 S
N316 C313 1.351 . S
N316 N317 1.365 . S
N317 C314 1.341 . S
N317 N316 1.365 . S
N317 H337 0.862 . S
C318 C313 1.501 . S
C318 H319 0.961 . S
C318 H320 0.961 . S
C318 H321 0.960 . S
H319 C318 0.961 . S
H320 C318 0.961 . S
H321 C318 0.960 . S
C322 N323 1.342 . S
C322 C326 1.401 . S
C322 C327 1.499 . S
N323 Co306 1.989 . S
N323 C322 1.342 . S
N323 N324 1.388 . S
N324 Co307 1.993 . S
N324 N323 1.388 . S
N324 C325 1.346 . S
C325 N324 1.346 . S
C325 C326 1.396 . S
C325 C335 1.510 . S
C326 C322 1.401 . S
C326 C325 1.396 . S
C327 C322 1.499 . S
C327 H328 0.959 . S
C327 H329 0.960 . S
C327 H330 0.961 . S
H328 C327 0.959 . S
H329 C327 0.960 . S
H330 C327 0.961 . S
O331 Co306 1.967 . S
O331 C339 1.258 1_556 S
O332 Co307 1.941 1_554 S
O332 C339 1.266 . S
H333 C335 0.959 . S
H334 C335 0.961 . S
C335 C325 1.510 . S
C335 H333 0.959 . S
C335 H334 0.961 . S
C335 H336 0.960 . S
H336 C335 0.960 . S
H337 N317 0.862 . S
O338 Co306 1.920 . S
O338 C311 1.289 . S
C339 O331 1.258 1_554 S
C339 O332 1.266 . S
Co340 O343 1.970 . S
Co340 N357 1.989 . S
Co340 O365 1.967 . S
Co340 O372 1.920 . S
Co341 O344 1.966 . S
Co341 N350 2.022 . S
Co341 N358 1.993 . S
Co341 O366 1.941 . S
C342 O343 1.258 . S
C342 O344 1.263 . S
O343 Co340 1.970 . S
O343 C342 1.258 . S
O344 Co341 1.966 . S
O344 C342 1.263 . S
C345 O346 1.235 . S
C345 O372 1.289 . S
O346 C345 1.235 . S
C347 C349 1.400 . S
C347 N350 1.351 . S
C347 C352 1.501 . S
C348 C349 1.387 . S
C348 N351 1.341 . S
C349 C347 1.400 . S
C349 C348 1.387 . S
N350 Co341 2.022 . S
N350 C347 1.351 . S
N350 N351 1.365 . S
N351 C348 1.341 . S
N351 N350 1.365 . S
N351 H371 0.862 . S
C352 C347 1.501 . S
C352 H353 0.961 . S
C352 H354 0.961 . S
C352 H355 0.960 . S
H353 C352 0.961 . S
H354 C352 0.961 . S
H355 C352 0.960 . S
C356 N357 1.342 . S
C356 C360 1.401 . S
C356 C361 1.499 . S
N357 Co340 1.989 . S
N357 C356 1.342 . S
N357 N358 1.388 . S
N358 Co341 1.993 . S
N358 N357 1.388 . S
N358 C359 1.346 . S
C359 N358 1.346 . S
C359 C360 1.396 . S
C359 C369 1.510 . S
C360 C356 1.401 . S
C360 C359 1.396 . S
C361 C356 1.499 . S
C361 H362 0.959 . S
C361 H363 0.960 . S
C361 H364 0.961 . S
H362 C361 0.959 . S
H363 C361 0.960 . S
H364 C361 0.961 . S
O365 Co340 1.967 . S
O365 C373 1.258 . S
O366 Co341 1.941 . S
O366 C373 1.266 . S
H367 C369 0.959 . S
H368 C369 0.961 . S
C369 C359 1.510 . S
C369 H367 0.959 . S
C369 H368 0.961 . S
C369 H370 0.960 . S
H370 C369 0.960 . S
H371 N351 0.862 . S
O372 Co340 1.920 . S
O372 C345 1.289 . S
C373 O365 1.258 . S
C373 O366 1.266 . S
Co374 O377 1.970 . S
Co374 N391 1.989 . S
Co374 O399 1.967 1_545 S
Co374 O406 1.920 1_545 S
Co375 O378 1.966 . S
Co375 N384 2.022 . S
Co375 N392 1.993 1_554 S
Co375 O400 1.941 . S
C376 O377 1.258 . S
C376 O378 1.263 1_556 S
O377 Co374 1.970 . S
O377 C376 1.258 . S
O378 Co375 1.966 . S
O378 C376 1.263 1_554 S
C379 O380 1.235 . S
C379 O406 1.289 1_545 S
O380 C379 1.235 . S
C381 C383 1.400 . S
C381 N384 1.351 . S
C381 C386 1.501 . S
C382 C383 1.387 . S
C382 N385 1.341 . S
C383 C381 1.400 . S
C383 C382 1.387 . S
N384 Co375 2.022 . S
N384 C381 1.351 . S
N384 N385 1.365 . S
N385 C382 1.341 . S
N385 N384 1.365 . S
N385 H405 0.862 . S
C386 C381 1.501 . S
C386 H387 0.961 . S
C386 H388 0.961 . S
C386 H389 0.960 . S
H387 C386 0.961 . S
H388 C386 0.961 . S
H389 C386 0.960 . S
C390 N391 1.342 . S
C390 C394 1.401 . S
C390 C395 1.499 . S
N391 Co374 1.989 . S
N391 C390 1.342 . S
N391 N392 1.388 . S
N392 Co375 1.993 1_556 S
N392 N391 1.388 . S
N392 C393 1.346 . S
C393 N392 1.346 . S
C393 C394 1.396 . S
C393 C403 1.510 . S
C394 C390 1.401 . S
C394 C393 1.396 . S
C395 C390 1.499 . S
C395 H396 0.959 . S
C395 H397 0.960 . S
C395 H398 0.961 . S
H396 C395 0.959 . S
H397 C395 0.960 . S
H398 C395 0.961 . S
O399 Co374 1.967 1_565 S
O399 C407 1.258 1_556 S
O400 Co375 1.941 . S
O400 C407 1.266 1_545 S
H401 C403 0.959 . S
H402 C403 0.961 . S
C403 C393 1.510 . S
C403 H401 0.959 . S
C403 H402 0.961 . S
C403 H404 0.960 . S
H404 C403 0.960 . S
H405 N385 0.862 . S
O406 Co374 1.920 1_565 S
O406 C379 1.289 1_565 S
C407 O399 1.258 1_554 S
C407 O400 1.266 1_565 S
C339 C33 0.608 1_554 S
C67 C373 2.238 . S
C407 C101 2.105 1_554 S
C135 C237 0.814 . S
C169 C271 2.094 1_556 S
C305 C203 2.250 . S
C9 C138 3.474 1_556 S
C172 C43 3.561 . S
C77 C2 3.834 . S
C111 C36 3.539 . S
C70 C145 3.512 . S
C104 C179 3.884 . S
C274 C213 3.537 . S
C247 C308 3.834 . S
C342 C281 3.564 . S
C376 C315 3.472 1_556 S
C206 C349 3.883 . S
C383 C240 3.515 . S
C360 C20 1.984 . S
C394 C54 1.980 . S
C88 C224 1.966 . S
C122 C258 1.965 . S
C292 C156 1.980 . S
C190 C326 1.985 . S
C209 C5 1.104 . S
C243 C39 1.035 . S
C73 C277 1.034 . S
C311 C107 1.104 . S
C141 C345 1.058 . S
C379 C175 1.057 . S
