# Generated by pormake.
# Topology ukt, (4)-cn, num edge types: 1
# Building blocks:
#     Node 0, Type 0, BuildingBlock: AZAVOO_clean_sbu_0, # of connection points: 4
#     Node 1, Type 0, BuildingBlock: AZAVOO_clean_sbu_0, # of connection points: 4
#     Node 2, Type 0, BuildingBlock: AZAVOO_clean_sbu_0, # of connection points: 4
#     Node 3, Type 0, BuildingBlock: AZAVOO_clean_sbu_0, # of connection points: 4
#     Node 4, Type 0, BuildingBlock: AZAVOO_clean_sbu_0, # of connection points: 4
#     Node 5, Type 0, BuildingBlock: AZAVOO_clean_sbu_0, # of connection points: 4
#     Node 6, Type 0, BuildingBlock: AZAVOO_clean_sbu_0, # of connection points: 4
#     Node 7, Type 0, BuildingBlock: AZAVOO_clean_sbu_0, # of connection points: 4
#     Node 8, Type 0, BuildingBlock: AZAVOO_clean_sbu_0, # of connection points: 4
#     Node 9, Type 0, BuildingBlock: AZAVOO_clean_sbu_0, # of connection points: 4
#     Node 10, Type 0, BuildingBlock: AZAVOO_clean_sbu_0, # of connection points: 4
#     Node 11, Type 0, BuildingBlock: AZAVOO_clean_sbu_0, # of connection points: 4
#     Node 12, Type 0, BuildingBlock: AZAVOO_clean_sbu_0, # of connection points: 4
#     Node 13, Type 0, BuildingBlock: AZAVOO_clean_sbu_0, # of connection points: 4
#     Node 14, Type 0, BuildingBlock: AZAVOO_clean_sbu_0, # of connection points: 4
#     Node 15, Type 0, BuildingBlock: AZAVOO_clean_sbu_0, # of connection points: 4
#     Edge 16, Type (0, 0), BuildingBlock: XIVTED_clean_linker_0, # of connection points: 2
#     Edge 17, Type (0, 0), BuildingBlock: XIVTED_clean_linker_0, # of connection points: 2
#     Edge 18, Type (0, 0), BuildingBlock: XIVTED_clean_linker_0, # of connection points: 2
#     Edge 19, Type (0, 0), BuildingBlock: XIVTED_clean_linker_0, # of connection points: 2
#     Edge 20, Type (0, 0), BuildingBlock: XIVTED_clean_linker_0, # of connection points: 2
#     Edge 21, Type (0, 0), BuildingBlock: XIVTED_clean_linker_0, # of connection points: 2
#     Edge 22, Type (0, 0), BuildingBlock: XIVTED_clean_linker_0, # of connection points: 2
#     Edge 23, Type (0, 0), BuildingBlock: XIVTED_clean_linker_0, # of connection points: 2
#     Edge 24, Type (0, 0), BuildingBlock: XIVTED_clean_linker_0, # of connection points: 2
#     Edge 25, Type (0, 0), BuildingBlock: XIVTED_clean_linker_0, # of connection points: 2
#     Edge 26, Type (0, 0), BuildingBlock: XIVTED_clean_linker_0, # of connection points: 2
#     Edge 27, Type (0, 0), BuildingBlock: XIVTED_clean_linker_0, # of connection points: 2
#     Edge 28, Type (0, 0), BuildingBlock: XIVTED_clean_linker_0, # of connection points: 2
#     Edge 29, Type (0, 0), BuildingBlock: XIVTED_clean_linker_0, # of connection points: 2
#     Edge 30, Type (0, 0), BuildingBlock: XIVTED_clean_linker_0, # of connection points: 2
#     Edge 31, Type (0, 0), BuildingBlock: XIVTED_clean_linker_0, # of connection points: 2
#     Edge 32, Type (0, 0), BuildingBlock: XIVTED_clean_linker_0, # of connection points: 2
#     Edge 33, Type (0, 0), BuildingBlock: XIVTED_clean_linker_0, # of connection points: 2
#     Edge 34, Type (0, 0), BuildingBlock: XIVTED_clean_linker_0, # of connection points: 2
#     Edge 35, Type (0, 0), BuildingBlock: XIVTED_clean_linker_0, # of connection points: 2
#     Edge 36, Type (0, 0), BuildingBlock: XIVTED_clean_linker_0, # of connection points: 2
#     Edge 37, Type (0, 0), BuildingBlock: XIVTED_clean_linker_0, # of connection points: 2
#     Edge 38, Type (0, 0), BuildingBlock: XIVTED_clean_linker_0, # of connection points: 2
#     Edge 39, Type (0, 0), BuildingBlock: XIVTED_clean_linker_0, # of connection points: 2
#     Edge 40, Type (0, 0), BuildingBlock: XIVTED_clean_linker_0, # of connection points: 2
#     Edge 41, Type (0, 0), BuildingBlock: XIVTED_clean_linker_0, # of connection points: 2
#     Edge 42, Type (0, 0), BuildingBlock: XIVTED_clean_linker_0, # of connection points: 2
#     Edge 43, Type (0, 0), BuildingBlock: XIVTED_clean_linker_0, # of connection points: 2
#     Edge 44, Type (0, 0), BuildingBlock: XIVTED_clean_linker_0, # of connection points: 2
#     Edge 45, Type (0, 0), BuildingBlock: XIVTED_clean_linker_0, # of connection points: 2
#     Edge 46, Type (0, 0), BuildingBlock: XIVTED_clean_linker_0, # of connection points: 2
#     Edge 47, Type (0, 0), BuildingBlock: XIVTED_clean_linker_0, # of connection points: 2
# Relax obj value: 0.297
# Max RMSD: 0.207
# Mean RMSD: 0.196
data_MOF--net-ukt--node1-AZAVOO_clean_sbu_0--edge1-XIVTED_clean_linker_0
_symmetry_space_group_name_H-M    P1
_symmetry_Int_Tables_number       1
_symmetry_cell_setting            triclinic
loop_
_symmetry_equiv_pos_as_xyz
'x, y, z'
_cell_length_a     41.005257
_cell_length_b     41.065835
_cell_length_c     37.828042
_cell_angle_alpha  89.769007
_cell_angle_beta   90.164459
_cell_angle_gamma 90.049004
loop_
_atom_site_label
_atom_site_type_symbol
_atom_site_fract_x
_atom_site_fract_y
_atom_site_fract_z
_atom_type_partial_charge
Mg0 Mg 0.58921 0.17238 0.05588 0.0
O1 O 0.64281 0.17044 0.03987 0.0
O2 O 0.66317 0.22041 0.03316 0.0
Mg3 Mg 0.62185 0.25559 0.04768 0.0
C4 C 0.66627 0.18951 0.0321 0.0
C5 C 0.59858 0.10141 0.03433 0.0
O6 O 0.61236 0.11848 0.00902 0.0
O7 O 0.60381 0.18482 0.11397 0.0
O8 O 0.62074 0.23587 0.10425 0.0
O9 O 0.57488 0.17768 0.99874 0.0
O10 O 0.58479 0.21914 0.03414 0.0
C11 C 0.61471 0.21222 0.1253 0.0
C12 C 0.57753 0.20873 1.00313 0.0
O13 O 0.58821 0.1164 0.06157 0.0
Mg14 Mg 0.33067 0.5867 0.06006 0.0
O15 O 0.3277 0.64064 0.04655 0.0
O16 O 0.27619 0.65743 0.04196 0.0
Mg17 Mg 0.24487 0.61265 0.05569 0.0
C18 C 0.3068 0.66287 0.0403 0.0
C19 C 0.40006 0.60373 0.03764 0.0
O20 O 0.38118 0.61654 0.0132 0.0
O21 O 0.31852 0.59815 0.11863 0.0
O22 O 0.26579 0.61099 0.11199 0.0
O23 O 0.32586 0.5749 1.00261 0.0
O24 O 0.28391 0.57958 0.03874 0.0
C25 C 0.29076 0.60612 0.13161 0.0
C26 C 0.29468 0.57529 0.0072 0.0
O27 O 0.38669 0.59073 0.06468 0.0
Mg28 Mg 0.90508 0.31304 0.04598 0.0
O29 O 0.85078 0.3176 0.03281 0.0
O30 O 0.82865 0.2683 0.02524 0.0
Mg31 Mg 0.86866 0.23105 0.03791 0.0
C32 C 0.82661 0.29931 0.02534 0.0
C33 C 0.89685 0.38504 0.02735 0.0
O34 O 0.88093 0.3692 1.00263 0.0
O35 O 0.89177 0.29966 0.10384 0.0
O36 O 0.8729 0.24913 0.09511 0.0
O37 O 0.91779 0.30949 0.98847 0.0
O38 O 0.90502 0.26716 0.02181 0.0
C39 C 0.88067 0.2725 0.11571 0.0
C40 C 0.91158 0.27876 0.99101 0.0
O41 O 0.90872 0.36883 0.05324 0.0
Mg42 Mg 0.16802 0.90092 0.06578 0.0
O43 O 0.16842 0.84863 0.04615 0.0
O44 O 0.21933 0.83237 0.03544 0.0
Mg45 Mg 0.25252 0.87534 0.05002 0.0
C46 C 0.18864 0.82712 0.03589 0.0
C47 C 0.09716 0.92198 0.08071 0.0
O48 O 0.11344 0.9483 0.08957 0.0
O49 O 0.18527 0.88421 0.12174 0.0
O50 O 0.23672 0.87163 0.10783 0.0
O51 O 0.16773 0.9175 0.00938 0.0
O52 O 0.21266 0.91005 0.04085 0.0
C53 C 0.21398 0.87468 0.13061 0.0
C54 C 0.1992 0.91688 0.011 0.0
O55 O 0.11303 0.89599 0.0748 0.0
Mg56 Mg 0.59268 0.33386 0.44082 0.0
O57 O 0.64653 0.33963 0.45543 0.0
O58 O 0.66702 0.29069 0.46878 0.0
Mg59 Mg 0.62518 0.25348 0.46541 0.0
C60 C 0.67024 0.32146 0.46495 0.0
C61 C 0.59266 0.41383 0.42124 0.0
O62 O 0.59852 0.43542 0.39632 0.0
O63 O 0.60575 0.30887 0.38815 0.0
O64 O 0.62168 0.25908 0.40495 0.0
O65 O 0.57952 0.34086 0.49835 0.0
O66 O 0.59013 0.29338 0.47371 0.0
C67 C 0.61502 0.27991 0.38081 0.0
C68 C 0.58411 0.30983 0.5017 0.0
O69 O 0.5948 0.38377 0.41335 0.0
Mg70 Mg 0.21147 0.60493 0.4674 0.0
O71 O 0.20112 0.65952 0.47188 0.0
O72 O 0.24839 0.6867 0.47166 0.0
Mg73 Mg 0.28959 0.64933 0.46758 0.0
C74 C 0.21727 0.68608 0.47319 0.0
C75 C 0.138 0.60621 0.48277 0.0
O76 O 0.15071 0.62574 0.50653 0.0
O77 O 0.22368 0.61101 0.40792 0.0
O78 O 0.27268 0.63471 0.41204 0.0
O79 O 0.21542 0.60089 0.52622 0.0
O80 O 0.25689 0.61313 0.49154 0.0
C81 C 0.24977 0.62213 0.39364 0.0
C82 C 0.24547 0.60986 0.52306 0.0
O83 O 0.15671 0.5942 0.45929 0.0
Mg84 Mg 0.88644 0.17884 0.44579 0.0
O85 O 0.83215 0.16842 0.45748 0.0
O86 O 0.80641 0.21632 0.46048 0.0
Mg87 Mg 0.84348 0.25733 0.45268 0.0
C88 C 0.80627 0.18524 0.46194 0.0
C89 C 0.88851 0.10622 0.46312 0.0
O90 O 0.86902 0.11858 0.48706 0.0
O91 O 0.87487 0.19215 0.38716 0.0
O92 O 0.85289 0.24129 0.39582 0.0
O93 O 0.89767 0.18254 0.50354 0.0
O94 O 0.88169 0.22403 0.47061 0.0
C95 C 0.86316 0.21903 0.37519 0.0
C96 C 0.88927 0.21276 0.50132 0.0
O97 O 0.89762 0.12444 0.43757 0.0
Mg98 Mg 0.34425 0.88763 0.44232 0.0
O99 O 0.34805 0.83425 0.45893 0.0
O100 O 0.29905 0.81535 0.47431 0.0
Mg101 Mg 0.26321 0.85828 0.46946 0.0
C102 C 0.32963 0.81126 0.46976 0.0
C103 C 0.42418 0.88691 0.42354 0.0
O104 O 0.44642 0.87755 0.4008 0.0
O105 O 0.31796 0.87377 0.39033 0.0
O106 O 0.26815 0.85969 0.40894 0.0
O107 O 0.35206 0.90274 0.49925 0.0
O108 O 0.30399 0.89294 0.47504 0.0
C109 C 0.2885 0.86507 0.38406 0.0
C110 C 0.32081 0.89986 0.50264 0.0
O111 O 0.39429 0.8822 0.41568 0.0
Mg112 Mg 0.4358 0.89495 0.8592 0.0
O113 O 0.4133 0.86321 0.90328 0.0
O114 O 0.38126 0.89446 0.93684 0.0
Mg115 Mg 0.38895 0.94701 0.9196 0.0
C116 C 0.39287 0.86675 0.92846 0.0
C117 C 0.45245 0.82437 0.83303 0.0
O118 O 0.42183 0.8205 0.84227 0.0
O119 O 0.47536 0.9137 0.8983 0.0
O120 O 0.44296 0.94314 0.93335 0.0
O121 O 0.3886 0.88908 0.82961 0.0
O122 O 0.39905 0.92952 0.86621 0.0
C123 C 0.47097 0.93184 0.9254 0.0
C124 C 0.37824 0.91388 0.84732 0.0
O125 O 0.46627 0.85167 0.83891 0.0
Mg126 Mg 0.59971 0.45305 0.85437 0.0
O127 O 0.63481 0.42855 0.89418 0.0
O128 O 0.60523 0.4025 0.93523 0.0
Mg129 Mg 0.55165 0.41074 0.92282 0.0
C130 C 0.63255 0.41083 0.92194 0.0
C131 C 0.66964 0.48812 0.84111 0.0
O132 O 0.67457 0.48322 0.87505 0.0
O133 O 0.58746 0.49433 0.89426 0.0
O134 O 0.55906 0.46457 0.93318 0.0
O135 O 0.59951 0.40545 0.82548 0.0
O136 O 0.56425 0.41841 0.86712 0.0
C137 C 0.57128 0.49159 0.9231 0.0
C138 C 0.57648 0.39662 0.84679 0.0
O139 O 0.6423 0.48031 0.82755 0.0
Mg140 Mg 0.05412 0.59784 0.85593 0.0
O141 O 0.0775 0.62879 0.89984 0.0
O142 O 0.1091 0.59716 0.93386 0.0
Mg143 Mg 0.10037 0.5448 0.91674 0.0
C144 C 0.09787 0.62503 0.92516 0.0
C145 C 0.02902 0.64885 0.80352 0.0
O146 O 0.04323 0.62668 0.78392 0.0
O147 O 0.01416 0.57957 0.895 0.0
O148 O 0.0465 0.54947 0.9299 0.0
O149 O 0.1014 0.60298 0.82673 0.0
O150 O 0.09031 0.56229 0.86302 0.0
C151 C 0.01856 0.56111 0.92205 0.0
C152 C 0.11142 0.57795 0.84451 0.0
O153 O 0.02636 0.6434 0.8366 0.0
Mg154 Mg 0.89041 0.03603 0.86124 0.0
O155 O 0.86032 0.06493 0.90201 0.0
O156 O 0.8926 0.10118 0.92894 0.0
Mg157 Mg 0.94449 0.09077 0.91119 0.0
C158 C 0.8646 0.08856 0.92347 0.0
C159 C 0.84078 0.0016 0.81479 0.0
O160 O 0.86512 0.00893 0.79367 0.0
O161 O 0.90993 0.00218 0.90606 0.0
O162 O 0.94031 0.03944 0.934 0.0
O163 O 0.88294 0.0778 0.82448 0.0
O164 O 0.92523 0.07381 0.86047 0.0
C165 C 0.92877 0.01067 0.93153 0.0
C166 C 0.90758 0.09148 0.83976 0.0
O167 O 0.84456 0.00612 0.84787 0.0
Mg168 Mg 0.48229 0.60888 0.65848 0.0
O169 O 0.45714 0.62755 0.6075 0.0
O170 O 0.41298 0.59677 0.59774 0.0
Mg171 Mg 0.41293 0.55556 0.63843 0.0
C172 C 0.43121 0.62099 0.58997 0.0
C173 C 0.54084 0.6665 0.65544 0.0
O174 O 0.56748 0.6758 0.63899 0.0
O175 O 0.50467 0.56603 0.62758 0.0
O176 O 0.46084 0.53562 0.61607 0.0
O177 O 0.44741 0.64129 0.68643 0.0
O178 O 0.43741 0.58951 0.67496 0.0
C179 C 0.49143 0.5409 0.61372 0.0
C180 C 0.42653 0.6178 0.68365 0.0
O181 O 0.52754 0.63988 0.64575 0.0
Mg182 Mg 0.90323 0.4579 0.63757 0.0
O183 O 0.87114 0.43666 0.59236 0.0
O184 O 0.90161 0.39979 0.56422 0.0
Mg185 Mg 0.95307 0.40088 0.58632 0.0
C186 C 0.87457 0.41448 0.56893 0.0
C187 C 0.86398 0.50034 0.68563 0.0
O188 O 0.89046 0.49228 0.70324 0.0
O189 O 0.9303 0.49203 0.59839 0.0
O190 O 0.95892 0.45416 0.5697 0.0
O191 O 0.88756 0.41566 0.66982 0.0
O192 O 0.93197 0.41552 0.63686 0.0
C193 C 0.9508 0.48381 0.57452 0.0
C194 C 0.91055 0.39942 0.65467 0.0
O195 O 0.86268 0.49352 0.65283 0.0
Mg196 Mg 0.0761 0.91368 0.64091 0.0
O197 O 0.09751 0.88312 0.59537 0.0
O198 O 0.13032 0.91538 0.56347 0.0
Mg199 Mg 0.12601 0.96693 0.5843 0.0
C200 C 0.11781 0.88757 0.57015 0.0
C201 C 0.03963 0.86815 0.6913 0.0
O202 O 0.04987 0.89216 0.71135 0.0
O203 O 0.03809 0.93613 0.60245 0.0
O204 O 0.07175 0.96679 0.56995 0.0
O205 O 0.1214 0.90261 0.67098 0.0
O206 O 0.11615 0.94573 0.6364 0.0
C207 C 0.04325 0.95601 0.57686 0.0
C208 C 0.13494 0.92648 0.65413 0.0
O209 O 0.04393 0.8704 0.65802 0.0
Mg210 Mg 0.57944 0.06724 0.65245 0.0
O211 O 0.60906 0.08236 0.60322 0.0
O212 O 0.57751 0.11536 0.57072 0.0
Mg213 Mg 0.52726 0.119 0.59638 0.0
C214 C 0.60461 0.10091 0.57639 0.0
C215 C 0.62308 0.02878 0.70304 0.0
O216 O 0.60084 0.04216 0.72325 0.0
O217 O 0.55017 0.02953 0.6192 0.0
O218 O 0.51859 0.06449 0.58921 0.0
O219 O 0.59661 0.11346 0.6775 0.0
O220 O 0.55077 0.10953 0.6472 0.0
C221 C 0.527 0.03546 0.59725 0.0
C222 C 0.57227 0.12772 0.66214 0.0
O223 O 0.6202 0.0319 0.66963 0.0
H224 H 0.54863 0.26745 0.00658 0.0
H225 H 0.61779 0.34454 0.83836 0.0
H226 H 0.59633 0.20272 0.93369 0.0
H227 H 0.5222 0.37055 0.87625 0.0
H228 H 0.61365 0.29261 0.8706 0.0
H229 H 0.54267 0.3076 0.95928 0.0
C230 C 0.55773 0.26172 0.98047 0.0
C231 C 0.57297 0.23192 0.97385 0.0
C232 C 0.59323 0.30932 0.87083 0.0
C233 C 0.56669 0.27779 0.91983 0.0
C234 C 0.59546 0.33883 0.85232 0.0
C235 C 0.57052 0.36206 0.85529 0.0
C236 C 0.56613 0.30359 0.89259 0.0
C237 C 0.54225 0.35355 0.87391 0.0
C238 C 0.55409 0.28446 0.95346 0.0
C239 C 0.58429 0.22551 0.93959 0.0
N240 N 0.54116 0.32536 0.89263 0.0
N241 N 0.5815 0.24864 0.9138 0.0
H242 H 0.16067 0.62332 0.84275 0.0
H243 H 0.23535 0.54652 0.00719 0.0
H244 H 0.14083 0.52261 0.86751 0.0
H245 H 0.30237 0.59825 0.93954 0.0
H246 H 0.19675 0.54295 0.95791 0.0
H247 H 0.21157 0.61954 0.87696 0.0
C248 C 0.16761 0.6001 0.85416 0.0
C249 C 0.14625 0.57338 0.85298 0.0
C250 C 0.22008 0.55477 0.95378 0.0
C251 C 0.20342 0.56936 0.89264 0.0
C252 C 0.2419 0.55704 0.98188 0.0
C253 C 0.27195 0.57261 0.97722 0.0
C254 C 0.22795 0.56904 0.92115 0.0
C255 C 0.27941 0.58587 0.94392 0.0
C256 C 0.1965 0.59807 0.87384 0.0
C257 C 0.15633 0.54396 0.86844 0.0
N258 N 0.25721 0.58432 0.91712 0.0
N259 N 0.18372 0.54298 0.88858 0.0
H260 H 0.85565 0.13253 0.84205 0.0
H261 H 0.95611 0.27339 0.93806 0.0
H262 H 0.9605 0.13047 0.85119 0.0
H263 H 0.8624 0.23782 0.97224 0.0
H264 H 0.95476 0.23422 0.88885 0.0
H265 H 0.85525 0.18566 0.87098 0.0
C266 C 0.8787 0.14391 0.84866 0.0
C267 C 0.90818 0.12704 0.84457 0.0
C268 C 0.93434 0.23548 0.9069 0.0
C269 C 0.90777 0.18746 0.87775 0.0
C270 C 0.93509 0.25767 0.93482 0.0
C271 C 0.90963 0.25816 0.95944 0.0
C272 C 0.90751 0.2145 0.90326 0.0
C273 C 0.88284 0.23755 0.95426 0.0
C274 C 0.87839 0.17402 0.86554 0.0
C275 C 0.93729 0.1427 0.85414 0.0
N276 N 0.88248 0.21647 0.92673 0.0
N277 N 0.93636 0.17195 0.8708 0.0
H278 H 0.3292 0.8683 0.84707 0.0
H279 H 0.25421 0.9525 1.00595 0.0
H280 H 0.34854 0.96988 0.86672 0.0
H281 H 0.19046 0.89067 0.9451 0.0
H282 H 0.29084 0.95652 0.95525 0.0
H283 H 0.27802 0.87318 0.88023 0.0
C284 C 0.32203 0.89192 0.85704 0.0
C285 C 0.34332 0.91863 0.85479 0.0
C286 C 0.26855 0.94252 0.95274 0.0
C287 C 0.28578 0.924 0.89325 0.0
C288 C 0.24785 0.94007 0.98166 0.0
C289 C 0.21942 0.92137 0.97941 0.0
C290 C 0.26134 0.92522 0.92176 0.0
C291 C 0.21216 0.90555 0.94752 0.0
C292 C 0.29297 0.89461 0.87614 0.0
C293 C 0.33303 0.94858 0.86847 0.0
N294 N 0.23344 0.90722 0.91997 0.0
N295 N 0.30544 0.95026 0.888 0.0
H296 H 0.63501 0.27756 0.53089 0.0
H297 H 0.52158 0.16788 0.64503 0.0
H298 H 0.53492 0.30379 0.54971 0.0
H299 H 0.62619 0.16661 0.65697 0.0
H300 H 0.52561 0.22077 0.61536 0.0
H301 H 0.63307 0.24025 0.58128 0.0
C302 C 0.61283 0.27592 0.54626 0.0
C303 C 0.58506 0.29354 0.53631 0.0
C304 C 0.54762 0.20934 0.62526 0.0
C305 C 0.58224 0.25033 0.59334 0.0
C306 C 0.54532 0.17916 0.64219 0.0
C307 C 0.57362 0.1627 0.65306 0.0
C308 C 0.57849 0.22278 0.61851 0.0
C309 C 0.60376 0.17842 0.64892 0.0
C310 C 0.6117 0.25468 0.57505 0.0
C311 C 0.55686 0.29063 0.55686 0.0
N312 N 0.60548 0.20725 0.63122 0.0
N313 N 0.5559 0.26881 0.58404 0.0
H314 H 0.40112 0.67397 0.65656 0.0
H315 H 0.24291 0.58024 0.58757 0.0
H316 H 0.37385 0.57771 0.69173 0.0
H317 H 0.29282 0.65632 0.5305 0.0
H318 H 0.28002 0.58876 0.63777 0.0
H319 H 0.3498 0.67784 0.62391 0.0
C320 C 0.38372 0.6542 0.65873 0.0
C321 C 0.39194 0.6252 0.67638 0.0
C322 C 0.28251 0.60384 0.61438 0.0
C323 C 0.33351 0.62935 0.6387 0.0
C324 C 0.26144 0.59899 0.58578 0.0
C325 C 0.26549 0.61701 0.55453 0.0
C326 C 0.3073 0.62733 0.61183 0.0
C327 C 0.28959 0.64119 0.55362 0.0
C328 C 0.3546 0.65628 0.63967 0.0
C329 C 0.36855 0.60029 0.678 0.0
N330 N 0.30969 0.64557 0.5818 0.0
N331 N 0.3406 0.60266 0.65879 0.0
H332 H 0.85303 0.36697 0.64865 0.0
H333 H 0.93208 0.21202 0.55627 0.0
H334 H 0.95714 0.35366 0.64109 0.0
H335 H 0.84596 0.2609 0.51761 0.0
H336 H 0.93567 0.25183 0.60451 0.0
H337 H 0.84493 0.31501 0.61854 0.0
C338 C 0.87419 0.3525 0.64196 0.0
C339 C 0.90585 0.36462 0.64712 0.0
C340 C 0.91575 0.25339 0.58571 0.0
C341 C 0.89665 0.30547 0.61279 0.0
C342 C 0.91363 0.23078 0.55835 0.0
C343 C 0.88903 0.2337 0.53272 0.0
C344 C 0.89259 0.2784 0.58777 0.0
C345 C 0.86571 0.25833 0.53642 0.0
C346 C 0.8695 0.32307 0.62447 0.0
C347 C 0.93237 0.34513 0.63739 0.0
N348 N 0.86808 0.27986 0.56344 0.0
N349 N 0.9272 0.31653 0.62031 0.0
H350 H 0.17387 0.97591 0.62962 0.0
H351 H 0.28854 0.85231 0.53766 0.0
H352 H 0.17607 0.87444 0.6595 0.0
H353 H 0.31384 0.95394 0.5433 0.0
H354 H 0.2499 0.85982 0.58606 0.0
H355 H 0.22756 0.96964 0.60227 0.0
C356 C 0.18599 0.95252 0.63115 0.0
C357 C 0.17025 0.92555 0.64632 0.0
C358 C 0.2645 0.88036 0.57748 0.0
C359 C 0.23129 0.91806 0.61466 0.0
C360 C 0.28654 0.87602 0.54992 0.0
C361 C 0.30435 0.90252 0.53688 0.0
C362 C 0.25951 0.91169 0.59125 0.0
C363 C 0.30068 0.9329 0.55308 0.0
C364 C 0.21664 0.94896 0.6156 0.0
C365 C 0.18718 0.89588 0.64791 0.0
N366 N 0.27809 0.93687 0.57902 0.0
N367 N 0.21644 0.89273 0.63152 0.0
H368 H 0.42187 0.80693 0.93317 0.0
H369 H 0.27153 0.71834 0.02456 0.0
H370 H 0.3366 0.86007 0.9666 0.0
H371 H 0.36992 0.68079 0.02801 0.0
H372 H 0.29273 0.76934 0.99954 0.0
H373 H 0.40087 0.75853 0.96329 0.0
C374 C 0.3988 0.80844 0.94695 0.0
C375 C 0.38106 0.83759 0.94755 0.0
C376 C 0.30958 0.74991 1.00606 0.0
C377 C 0.35672 0.78226 0.9817 0.0
C378 C 0.29753 0.72082 0.02032 0.0
C379 C 0.3189 0.69503 0.02815 0.0
C380 C 0.34311 0.75296 0.99915 0.0
C381 C 0.3524 0.69974 0.02214 0.0
C382 C 0.38687 0.78086 0.96423 0.0
C383 C 0.35123 0.83814 0.96578 0.0
N384 N 0.36337 0.72794 0.0077 0.0
N385 N 0.33984 0.81079 0.98192 0.0
H386 H 0.68516 0.386 0.88772 0.0
H387 H 0.79927 0.35531 0.05 0.0
H388 H 0.64675 0.40344 0.99197 0.0
H389 H 0.78574 0.27937 0.97283 0.0
H390 H 0.75129 0.38364 0.02568 0.0
H391 H 0.73184 0.35751 0.91464 0.0
C392 C 0.68691 0.38431 0.91625 0.0
C393 C 0.66232 0.39708 0.93778 0.0
C394 C 0.75883 0.36066 0.01437 0.0
C395 C 0.71529 0.3651 0.96836 0.0
C396 C 0.78602 0.34454 0.02814 0.0
C397 C 0.79618 0.31493 0.01347 0.0
C398 C 0.74262 0.3476 0.98501 0.0
C399 C 0.7784 0.302 0.98506 0.0
C400 C 0.71323 0.36786 0.93147 0.0
C401 C 0.66534 0.39387 0.97459 0.0
N402 N 0.75271 0.31872 0.97131 0.0
N403 N 0.69159 0.37842 0.98885 0.0
H404 H 0.06995 0.6854 0.92854 0.0
H405 H 0.22208 0.7706 0.02139 0.0
H406 H 0.15417 0.63103 0.96373 0.0
H407 H 0.12551 0.81258 0.01916 0.0
H408 H 0.19962 0.72035 0.99631 0.0
H409 H 0.09197 0.73381 0.95746 0.0
C410 C 0.09301 0.68362 0.94246 0.0
C411 C 0.11017 0.65412 0.94385 0.0
C412 C 0.1834 0.74055 1.00156 0.0
C413 C 0.13568 0.70948 0.97667 0.0
C414 C 0.19619 0.76924 0.01578 0.0
C415 C 0.17567 0.79589 0.02238 0.0
C416 C 0.15 0.73874 0.99341 0.0
C417 C 0.14229 0.7927 0.01463 0.0
C418 C 0.10552 0.71122 0.95904 0.0
C419 C 0.13997 0.65322 0.96228 0.0
N420 N 0.13058 0.76478 1.00032 0.0
N421 N 0.15192 0.68059 0.97775 0.0
H422 H 0.72383 0.22059 0.01533 0.0
H423 H 0.80421 0.06135 0.9326 0.0
H424 H 0.67932 0.12526 0.01967 0.0
H425 H 0.85975 0.14825 0.95513 0.0
H426 H 0.75695 0.08584 0.96127 0.0
H427 H 0.7731 0.19586 0.99066 0.0
C428 C 0.72441 0.1945 0.0113 0.0
C429 C 0.69722 0.17505 0.01944 0.0
C430 C 0.77954 0.09948 0.96012 0.0
C431 C 0.75335 0.14672 0.99091 0.0
C432 C 0.8065 0.08555 0.94364 0.0
C433 C 0.83602 0.1027 0.94158 0.0
C434 C 0.78193 0.131 0.97424 0.0
C435 C 0.83755 0.13402 0.95639 0.0
C436 C 0.75255 0.18041 0.99723 0.0
C437 C 0.69949 0.14134 0.01369 0.0
N438 N 0.81082 0.14725 0.97191 0.0
N439 N 0.72691 0.12834 0.99955 0.0
H440 H 0.46261 0.67515 0.56402 0.0
H441 H 0.29946 0.75431 0.4901 0.0
H442 H 0.37199 0.62197 0.55613 0.0
H443 H 0.3947 0.79646 0.47317 0.0
H444 H 0.32558 0.70483 0.51247 0.0
H445 H 0.43867 0.71885 0.52853 0.0
C446 C 0.43786 0.67238 0.5544 0.0
C447 C 0.41924 0.64489 0.56343 0.0
C448 C 0.34074 0.72477 0.50346 0.0
C449 C 0.39145 0.69522 0.52323 0.0
C450 C 0.32582 0.75308 0.49071 0.0
C451 C 0.34484 0.77978 0.47993 0.0
C452 C 0.37491 0.72324 0.50592 0.0
C453 C 0.37896 0.77664 0.4813 0.0
C454 C 0.42416 0.69741 0.53415 0.0
C455 C 0.38727 0.64274 0.55005 0.0
N456 N 0.39285 0.7491 0.49445 0.0
N457 N 0.37425 0.66777 0.5311 0.0
H458 H 0.86877 0.35805 0.53147 0.0
H459 H 0.68261 0.38623 0.47629 0.0
H460 H 0.8145 0.44381 0.56096 0.0
H461 H 0.72944 0.29205 0.47655 0.0
H462 H 0.73323 0.41059 0.49805 0.0
H463 H 0.82035 0.33674 0.50219 0.0
C464 C 0.84679 0.37268 0.53142 0.0
C465 C 0.84579 0.4029 0.54874 0.0
C466 C 0.73243 0.38464 0.49313 0.0
C467 C 0.79003 0.37834 0.51518 0.0
C468 C 0.70361 0.37069 0.48051 0.0
C469 C 0.70166 0.33694 0.47473 0.0
C470 C 0.75966 0.36481 0.49967 0.0
C471 C 0.7297 0.31811 0.48082 0.0
C472 C 0.81907 0.36033 0.51483 0.0
C473 C 0.8164 0.42043 0.54803 0.0
N474 N 0.75749 0.33229 0.49299 0.0
N475 N 0.78967 0.40788 0.53153 0.0
H476 H 0.15302 0.69366 0.49117 0.0
H477 H 0.17001 0.88478 0.52541 0.0
H478 H 0.24098 0.74856 0.47106 0.0
H479 H 0.09237 0.82567 0.56848 0.0
H480 H 0.19179 0.83686 0.49594 0.0
H481 H 0.12611 0.74372 0.50964 0.0
C482 C 0.16662 0.71626 0.49023 0.0
C483 C 0.19952 0.71678 0.48 0.0
C484 C 0.16983 0.83443 0.51158 0.0
C485 C 0.16875 0.77417 0.5012 0.0
C486 C 0.15725 0.86182 0.52834 0.0
C487 C 0.12933 0.85924 0.54964 0.0
C488 C 0.15432 0.80423 0.51591 0.0
C489 C 0.11404 0.82877 0.55253 0.0
C490 C 0.15122 0.74482 0.50094 0.0
C491 C 0.21575 0.74689 0.4792 0.0
N492 N 0.12681 0.80241 0.53595 0.0
N493 N 0.20025 0.77435 0.48989 0.0
H494 H 0.60757 0.1468 0.52376 0.0
H495 H 0.79811 0.12279 0.48687 0.0
H496 H 0.66578 0.07323 0.57594 0.0
H497 H 0.7443 0.2099 0.46035 0.0
H498 H 0.7478 0.09846 0.50978 0.0
H499 H 0.65546 0.16393 0.49052 0.0
C500 C 0.63029 0.13389 0.52794 0.0
C501 C 0.63261 0.10863 0.553 0.0
C502 C 0.74703 0.12277 0.49863 0.0
C503 C 0.68774 0.12837 0.5149 0.0
C504 C 0.77568 0.13664 0.48538 0.0
C505 C 0.77553 0.16858 0.47193 0.0
C506 C 0.71796 0.14083 0.49806 0.0
C507 C 0.7457 0.18535 0.47077 0.0
C508 C 0.6577 0.14384 0.509 0.0
C509 C 0.66284 0.09295 0.55713 0.0
N510 N 0.7182 0.17133 0.48378 0.0
N511 N 0.68927 0.10319 0.53842 0.0
H512 H 0.53369 0.94614 0.90436 0.0
H513 H 0.55579 0.06196 0.07083 0.0
H514 H 0.47068 0.94584 0.99542 0.0
H515 H 0.61947 0.063 0.9802 0.0
H516 H 0.53199 0.01095 0.04965 0.0
H517 H 0.57281 0.97979 0.93729 0.0
C518 C 0.52857 0.95227 0.93161 0.0
C519 C 0.4987 0.94365 0.947 0.0
C520 C 0.55159 0.02203 0.03469 0.0
C521 C 0.54285 0.98257 0.98458 0.0
C522 C 0.5653 0.05112 0.04693 0.0
C523 C 0.58921 0.06718 0.02693 0.0
C524 C 0.56171 0.00901 1.00213 0.0
C525 C 0.60064 0.05183 0.99618 0.0
C526 C 0.55075 0.97173 0.95035 0.0
C527 C 0.49322 0.95244 0.98235 0.0
N528 N 0.58642 0.02397 0.98441 0.0
N529 N 0.51475 0.9718 0.9997 0.0
H530 H 0.44505 0.5655 0.07275 0.0
H531 H 0.55141 0.55196 0.90007 0.0
H532 H 0.4347 0.62979 0.9829 0.0
H533 H 0.56809 0.49521 0.99446 0.0
H534 H 0.51765 0.58948 0.93452 0.0
H535 H 0.49793 0.548 0.04986 0.0
C536 C 0.45419 0.57649 0.04866 0.0
C537 C 0.43502 0.59856 0.02933 0.0
C538 C 0.52947 0.56935 0.94796 0.0
C539 C 0.49532 0.57826 1.00256 0.0
C540 C 0.54908 0.54817 0.9283 0.0
C541 C 0.56211 0.52025 0.94437 0.0
C542 C 0.52278 0.56225 0.9837 0.0
C543 C 0.55804 0.51628 0.98099 0.0
C544 C 0.48439 0.56642 0.03547 0.0
C545 C 0.4483 0.61216 0.99835 0.0
N546 N 0.53819 0.53656 0.99925 0.0
N547 N 0.47725 0.60132 0.98557 0.0
H548 H 0.95649 0.54485 0.90027 0.0
H549 H 0.94115 0.4234 0.06318 0.0
H550 H 0.01872 0.54758 0.99225 0.0
H551 H 0.87357 0.42528 0.97552 0.0
H552 H 0.96321 0.47572 0.04319 0.0
H553 H 0.91897 0.50888 0.93252 0.0
C554 C 0.96166 0.53883 0.92762 0.0
C555 C 0.99094 0.54881 0.94345 0.0
C556 C 0.94316 0.46497 0.02865 0.0
C557 C 0.94876 0.50707 0.9802 0.0
C558 C 0.93048 0.43509 0.04019 0.0
C559 C 0.9059 0.41955 0.02066 0.0
C560 C 0.93135 0.47927 0.99721 0.0
C561 C 0.89295 0.43602 0.9911 0.0
C562 C 0.94044 0.518 0.94596 0.0
C563 C 0.9966 0.54001 0.97889 0.0
N564 N 0.90618 0.46462 0.97995 0.0
N565 N 0.97609 0.51922 0.9958 0.0
H566 H 0.05209 0.96706 0.10062 0.0
H567 H 0.95262 0.94855 0.92238 0.0
H568 H 0.06526 0.88567 0.03044 0.0
H569 H 0.93273 0.0206 1.00191 0.0
H570 H 0.9866 0.91878 0.96541 0.0
H571 H 1.00164 0.98077 0.06969 0.0
C572 C 0.04396 0.95164 0.07916 0.0
C573 C 0.06309 0.9254 0.06794 0.0
C574 C 0.97405 0.94062 0.97373 0.0
C575 C 0.00565 0.94151 0.03145 0.0
C576 C 0.9544 0.9574 0.94925 0.0
C577 C 0.94011 0.98715 0.9586 0.0
C578 C 0.97939 0.95389 0.00756 0.0
C579 C 0.9436 0.99786 0.99358 0.0
C580 C 0.01514 0.95951 0.06135 0.0
C581 C 0.05128 0.90617 0.03997 0.0
N582 N 0.96322 0.98158 0.01654 0.0
N583 N 0.02371 0.91503 0.02217 0.0
H584 H 0.55428 0.54853 0.58935 0.0
H585 H 0.54619 0.38975 0.46655 0.0
H586 H 0.47365 0.48085 0.58883 0.0
H587 H 0.61766 0.46604 0.45542 0.0
H588 H 0.52526 0.41685 0.51972 0.0
H589 H 0.58342 0.51294 0.54837 0.0
C590 C 0.54285 0.52604 0.58103 0.0
C591 C 0.51125 0.51797 0.59229 0.0
C592 C 0.54592 0.42732 0.50601 0.0
C593 C 0.54449 0.47707 0.54524 0.0
C594 C 0.5581 0.41162 0.47597 0.0
C595 C 0.58379 0.42557 0.45682 0.0
C596 C 0.55958 0.45718 0.51681 0.0
C597 C 0.59775 0.45451 0.46948 0.0
C598 C 0.55947 0.50574 0.55753 0.0
C599 C 0.49777 0.48837 0.58057 0.0
N600 N 0.58538 0.46943 0.49848 0.0
N601 N 0.51432 0.46918 0.55754 0.0
H602 H 0.1059 0.55715 0.44733 0.0
H603 H 0.96419 0.54774 0.59167 0.0
H604 H 0.09263 0.62829 0.52971 0.0
H605 H 0.97955 0.47607 0.51034 0.0
H606 H 0.00443 0.58313 0.56269 0.0
H607 H 0.05348 0.5327 0.46331 0.0
C608 C 0.09175 0.56798 0.46836 0.0
C609 C 0.104 0.5945 0.48755 0.0
C610 C 0.99855 0.55987 0.55087 0.0
C611 C 0.04406 0.56641 0.50632 0.0
C612 C 0.97538 0.53979 0.56729 0.0
C613 C 0.96887 0.50868 0.55376 0.0
C614 C 0.01522 0.54874 0.52073 0.0
C615 C 0.98423 0.49962 0.52209 0.0
C616 C 0.06182 0.55395 0.47759 0.0
C617 C 0.08444 0.60756 0.51449 0.0
N618 N 0.00692 0.5193 0.50698 0.0
N619 N 0.05572 0.59315 0.52336 0.0
H620 H 0.97758 0.95926 0.59292 0.0
H621 H 0.94236 0.07989 0.43061 0.0
H622 H 0.04683 0.98242 0.51087 0.0
H623 H 0.87406 0.06217 0.51513 0.0
H624 H 0.97651 0.03575 0.45354 0.0
H625 H 0.93541 0.98862 0.55929 0.0
C626 C 0.98378 0.96998 0.56761 0.0
C627 C 0.01592 0.96882 0.55503 0.0
C628 C 0.95379 0.04118 0.46678 0.0
C629 C 0.96796 0.00251 0.51649 0.0
C630 C 0.93415 0.06629 0.45351 0.0
C631 C 0.90553 0.07516 0.47126 0.0
C632 C 0.94484 0.02489 0.49811 0.0
C633 C 0.89617 0.05653 0.50084 0.0
C634 C 0.95976 0.98686 0.54847 0.0
C635 C 0.02254 0.98317 0.52199 0.0
N636 N 0.91597 0.03266 0.51363 0.0
N637 N 0.99894 0.99962 0.50413 0.0
H638 H 0.46465 0.03744 0.57313 0.0
H639 H 0.47938 0.8745 0.46109 0.0
H640 H 0.54744 0.97302 0.58084 0.0
H641 H 0.39467 0.93651 0.45989 0.0
H642 H 0.5021 0.90646 0.5097 0.0
H643 H 0.43635 0.99736 0.53717 0.0
C644 C 0.47683 0.01465 0.56748 0.0
C645 C 0.50871 0.00879 0.57969 0.0
C646 C 0.47828 0.91278 0.49933 0.0
C647 C 0.47626 0.9626 0.53792 0.0
C648 C 0.46525 0.89452 0.47159 0.0
C649 C 0.43493 0.90274 0.45667 0.0
C650 C 0.46112 0.93986 0.51196 0.0
C651 C 0.41778 0.92896 0.47111 0.0
C652 C 0.46055 0.9917 0.54692 0.0
C653 C 0.52296 0.9786 0.57192 0.0
N654 N 0.43127 0.94681 0.49769 0.0
N655 N 0.5068 0.95681 0.55107 0.0
H656 H 0.61657 0.31811 0.32104 0.0
H657 H 0.6011 0.17209 0.1829 0.0
H658 H 0.61729 0.21759 0.35487 0.0
H659 H 0.63593 0.26835 0.15597 0.0
H660 H 0.60258 0.18758 0.24578 0.0
H661 H 0.61841 0.29997 0.25958 0.0
C662 C 0.61716 0.29224 0.31559 0.0
C663 C 0.61692 0.26941 0.34327 0.0
C664 C 0.61008 0.2051 0.22594 0.0
C665 C 0.61869 0.24837 0.27276 0.0
C666 C 0.60931 0.19625 0.19008 0.0
C667 C 0.61821 0.2189 0.16385 0.0
C668 C 0.61939 0.2369 0.23549 0.0
C669 C 0.62859 0.24995 0.17492 0.0
C670 C 0.6183 0.28187 0.28047 0.0
C671 C 0.61769 0.23612 0.33444 0.0
N672 N 0.62858 0.25803 0.20965 0.0
N673 N 0.61832 0.22659 0.29999 0.0
H674 H 0.20523 0.60655 0.34137 0.0
H675 H 0.3372 0.60777 0.18492 0.0
H676 H 0.30654 0.63148 0.35724 0.0
H677 H 0.23311 0.60955 0.16728 0.0
H678 H 0.32719 0.61126 0.24884 0.0
H679 H 0.21566 0.60224 0.2777 0.0
C680 C 0.22961 0.61112 0.33156 0.0
C681 C 0.25494 0.61955 0.35482 0.0
C682 C 0.30661 0.61093 0.23085 0.0
C683 C 0.26715 0.61437 0.28202 0.0
C684 C 0.31233 0.60889 0.19438 0.0
C685 C 0.28604 0.60852 0.17053 0.0
C686 C 0.27438 0.61218 0.24356 0.0
C687 C 0.25425 0.60999 0.18447 0.0
C688 C 0.23556 0.60871 0.2952 0.0
C689 C 0.28611 0.62514 0.34043 0.0
N690 N 0.24936 0.61163 0.21991 0.0
N691 N 0.29133 0.62234 0.30511 0.0
H692 H 0.88446 0.31667 0.17054 0.0
H693 H 0.84318 0.27522 0.34293 0.0
H694 H 0.87118 0.21425 0.14939 0.0
H695 H 0.88409 0.18095 0.3191 0.0
H696 H 0.84731 0.2902 0.28104 0.0
H697 H 0.88007 0.30495 0.23394 0.0
C698 C 0.88039 0.29181 0.17914 0.0
C699 C 0.87779 0.26655 0.15443 0.0
C700 C 0.85582 0.2664 0.28928 0.0
C701 C 0.8724 0.25289 0.227 0.0
C702 C 0.8531 0.25753 0.32474 0.0
C703 C 0.86354 0.2267 0.33662 0.0
C704 C 0.869 0.24435 0.26505 0.0
C705 C 0.87585 0.20498 0.31135 0.0
C706 C 0.87761 0.28512 0.21537 0.0
C707 C 0.87291 0.23467 0.16731 0.0
N708 N 0.87813 0.21419 0.27672 0.0
N709 N 0.87054 0.22876 0.20259 0.0
H710 H 0.22518 0.86139 0.36074 0.0
H711 H 0.27271 0.85426 0.15651 0.0
H712 H 0.32425 0.8647 0.32251 0.0
H713 H 0.17645 0.8822 0.19116 0.0
H714 H 0.28995 0.84969 0.21768 0.0
H715 H 0.20555 0.86122 0.29962 0.0
C716 C 0.24289 0.86181 0.33955 0.0
C717 C 0.27655 0.86308 0.34694 0.0
C718 C 0.26503 0.85674 0.21202 0.0
C719 C 0.25399 0.86279 0.27675 0.0
C720 C 0.25497 0.85928 0.17693 0.0
C721 C 0.22296 0.86894 0.16835 0.0
C722 C 0.24301 0.86361 0.23921 0.0
C723 C 0.20133 0.87479 0.19637 0.0
C724 C 0.23156 0.86188 0.30464 0.0
C725 C 0.29815 0.86379 0.31823 0.0
N726 N 0.21177 0.87211 0.23058 0.0
N727 N 0.2865 0.86356 0.28449 0.0
H728 H 0.50843 0.82994 0.79388 0.0
H729 H 0.50344 0.64975 0.71344 0.0
H730 H 0.43315 0.76117 0.82211 0.0
H731 H 0.54968 0.7316 0.66246 0.0
H732 H 0.48275 0.68677 0.7594 0.0
H733 H 0.5307 0.7901 0.75258 0.0
C734 C 0.49683 0.80632 0.79179 0.0
C735 C 0.46872 0.79903 0.81137 0.0
C736 C 0.49724 0.69655 0.73795 0.0
C737 C 0.49409 0.75324 0.76392 0.0
C738 C 0.50856 0.67554 0.71148 0.0
C739 C 0.52729 0.68776 0.68344 0.0
C740 C 0.50553 0.7298 0.73675 0.0
C741 C 0.535 0.72111 0.68335 0.0
C742 C 0.50943 0.78364 0.768 0.0
C743 C 0.45473 0.76794 0.80739 0.0
N744 N 0.52416 0.74086 0.7095 0.0
N745 N 0.46749 0.74622 0.78407 0.0
H746 H 0.80005 0.50152 0.66267 0.0
H747 H 0.73194 0.5051 0.86041 0.0
H748 H 0.8599 0.51838 0.75482 0.0
H749 H 0.67007 0.49423 0.7687 0.0
H750 H 0.77814 0.51584 0.82146 0.0
H751 H 0.75137 0.50527 0.69991 0.0
C752 C 0.80297 0.50671 0.69055 0.0
C753 C 0.8342 0.50928 0.70566 0.0
C754 C 0.7544 0.51146 0.8098 0.0
C755 C 0.77857 0.51308 0.74857 0.0
C756 C 0.72794 0.50533 0.83209 0.0
C757 C 0.69702 0.49847 0.8179 0.0
C758 C 0.75011 0.51054 0.77291 0.0
C759 C 0.69345 0.49921 0.7809 0.0
C760 C 0.77514 0.50864 0.71188 0.0
C761 C 0.83639 0.51588 0.74202 0.0
N762 N 0.71969 0.50477 0.75973 0.0
N763 N 0.80906 0.51715 0.76222 0.0
H764 H 0.02565 0.85736 0.76093 0.0
H765 H 0.00614 0.704 0.83668 0.0
H766 H 0.02946 0.8082 0.66048 0.0
H767 H 0.03447 0.66774 0.7344 0.0
H768 H 1.00039 0.75831 0.81112 0.0
H769 H 0.01627 0.80558 0.79013 0.0
C770 C 0.02385 0.83565 0.74486 0.0
C771 C 0.02856 0.83726 0.70812 0.0
C772 C 0.00814 0.73872 0.79413 0.0
C773 C 0.01737 0.77702 0.74165 0.0
C774 C 0.01103 0.70744 0.80879 0.0
C775 C 0.02127 0.68124 0.78787 0.0
C776 C 0.01593 0.74398 0.75826 0.0
C777 C 0.0269 0.68719 0.75176 0.0
C778 C 0.01827 0.80581 0.76167 0.0
C779 C 0.02599 0.80822 0.68884 0.0
N780 N 0.02444 0.71784 0.73828 0.0
N781 N 0.02099 0.77934 0.70587 0.0
H782 H 0.6348 0.01714 0.77315 0.0
H783 H 0.82582 0.98871 0.74577 0.0
H784 H 0.6804 0.01029 0.67079 0.0
H785 H 0.78094 1.00072 0.84792 0.0
H786 H 0.77183 0.98805 0.71846 0.0
H787 H 0.68663 0.00292 0.80101 0.0
C788 C 0.65561 0.01223 0.75643 0.0
C789 C 0.6532 0.01526 0.71948 0.0
C790 C 0.77371 0.99042 0.74689 0.0
C791 C 0.71301 0.99913 0.75147 0.0
C792 C 0.80459 0.9907 0.7626 0.0
C793 C 0.80806 0.9951 0.79925 0.0
C794 C 0.74587 0.99473 0.76788 0.0
C795 C 0.77954 0.99736 0.81959 0.0
C796 C 0.68529 0.00415 0.77244 0.0
C797 C 0.68106 0.00838 0.69933 0.0
N798 N 0.74971 0.99754 0.80359 0.0
N799 N 0.70984 1.00099 0.71559 0.0
loop_
_geom_bond_atom_site_label_1
_geom_bond_atom_site_label_2
_geom_bond_distance
_geom_bond_site_symmetry_2
_ccdc_geom_bond_type
Mg0 O1 2.028 . S
Mg0 O7 1.986 . S
Mg0 O9 2.114 . S
Mg0 O10 2.251 . S
Mg0 O13 2.010 . S
O1 Mg0 2.028 . S
O1 C4 1.250 . S
O2 Mg3 2.028 . S
O2 C4 1.248 . S
Mg3 O2 2.028 . S
Mg3 O8 2.032 . S
Mg3 O10 2.079 . S
C4 O1 1.250 . S
C4 O2 1.248 . S
C5 O6 1.264 . S
C5 O13 1.249 . S
O6 C5 1.264 . S
O7 Mg0 1.986 . S
O7 C11 1.246 . S
O8 Mg3 2.032 . S
O8 C11 1.259 . S
O9 Mg0 2.114 . S
O9 C12 1.252 . S
O10 Mg0 2.251 . S
O10 Mg3 2.079 . S
O10 C12 1.273 . S
C11 O7 1.246 . S
C11 O8 1.259 . S
C12 O9 1.252 . S
C12 O10 1.273 . S
O13 Mg0 2.010 . S
O13 C5 1.249 . S
Mg14 O15 2.028 . S
Mg14 O21 1.986 . S
Mg14 O23 2.114 . S
Mg14 O24 2.251 . S
Mg14 O27 2.010 . S
O15 Mg14 2.028 . S
O15 C18 1.250 . S
O16 Mg17 2.028 . S
O16 C18 1.248 . S
Mg17 O16 2.028 . S
Mg17 O22 2.032 . S
Mg17 O24 2.079 . S
C18 O15 1.250 . S
C18 O16 1.248 . S
C19 O20 1.264 . S
C19 O27 1.249 . S
O20 C19 1.264 . S
O21 Mg14 1.986 . S
O21 C25 1.246 . S
O22 Mg17 2.032 . S
O22 C25 1.259 . S
O23 Mg14 2.114 . S
O23 C26 1.252 . S
O24 Mg14 2.251 . S
O24 Mg17 2.079 . S
O24 C26 1.273 . S
C25 O21 1.246 . S
C25 O22 1.259 . S
C26 O23 1.252 . S
C26 O24 1.273 . S
O27 Mg14 2.010 . S
O27 C19 1.249 . S
Mg28 O29 2.028 . S
Mg28 O35 1.986 . S
Mg28 O37 2.114 . S
Mg28 O38 2.251 . S
Mg28 O41 2.010 . S
O29 Mg28 2.028 . S
O29 C32 1.250 . S
O30 Mg31 2.028 . S
O30 C32 1.248 . S
Mg31 O30 2.028 . S
Mg31 O36 2.032 . S
Mg31 O38 2.079 . S
C32 O29 1.250 . S
C32 O30 1.248 . S
C33 O34 1.265 . S
C33 O41 1.249 . S
O34 C33 1.265 . S
O35 Mg28 1.986 . S
O35 C39 1.246 . S
O36 Mg31 2.032 . S
O36 C39 1.259 . S
O37 Mg28 2.114 . S
O37 C40 1.252 . S
O38 Mg28 2.251 . S
O38 Mg31 2.079 . S
O38 C40 1.273 . S
C39 O35 1.246 . S
C39 O36 1.259 . S
C40 O37 1.252 . S
C40 O38 1.273 . S
O41 Mg28 2.010 . S
O41 C33 1.249 . S
Mg42 O43 2.028 . S
Mg42 O49 1.986 . S
Mg42 O51 2.114 . S
Mg42 O52 2.251 . S
Mg42 O55 2.010 . S
O43 Mg42 2.028 . S
O43 C46 1.250 . S
O44 Mg45 2.028 . S
O44 C46 1.248 . S
Mg45 O44 2.028 . S
Mg45 O50 2.032 . S
Mg45 O52 2.079 . S
C46 O43 1.250 . S
C46 O44 1.248 . S
C47 O48 1.265 . S
C47 O55 1.249 . S
O48 C47 1.265 . S
O49 Mg42 1.986 . S
O49 C53 1.246 . S
O50 Mg45 2.032 . S
O50 C53 1.259 . S
O51 Mg42 2.114 . S
O51 C54 1.252 . S
O52 Mg42 2.251 . S
O52 Mg45 2.079 . S
O52 C54 1.273 . S
C53 O49 1.246 . S
C53 O50 1.259 . S
C54 O51 1.252 . S
C54 O52 1.273 . S
O55 Mg42 2.010 . S
O55 C47 1.249 . S
Mg56 O57 2.028 . S
Mg56 O63 1.986 . S
Mg56 O65 2.114 . S
Mg56 O66 2.251 . S
Mg56 O69 2.010 . S
O57 Mg56 2.028 . S
O57 C60 1.250 . S
O58 Mg59 2.028 . S
O58 C60 1.248 . S
Mg59 O58 2.028 . S
Mg59 O64 2.032 . S
Mg59 O66 2.079 . S
C60 O57 1.250 . S
C60 O58 1.248 . S
C61 O62 1.264 . S
C61 O69 1.249 . S
O62 C61 1.264 . S
O63 Mg56 1.986 . S
O63 C67 1.246 . S
O64 Mg59 2.032 . S
O64 C67 1.259 . S
O65 Mg56 2.114 . S
O65 C68 1.252 . S
O66 Mg56 2.251 . S
O66 Mg59 2.079 . S
O66 C68 1.273 . S
C67 O63 1.246 . S
C67 O64 1.259 . S
C68 O65 1.252 . S
C68 O66 1.273 . S
O69 Mg56 2.010 . S
O69 C61 1.249 . S
Mg70 O71 2.028 . S
Mg70 O77 1.986 . S
Mg70 O79 2.114 . S
Mg70 O80 2.251 . S
Mg70 O83 2.010 . S
O71 Mg70 2.028 . S
O71 C74 1.250 . S
O72 Mg73 2.028 . S
O72 C74 1.248 . S
Mg73 O72 2.028 . S
Mg73 O78 2.032 . S
Mg73 O80 2.079 . S
C74 O71 1.250 . S
C74 O72 1.248 . S
C75 O76 1.264 . S
C75 O83 1.249 . S
O76 C75 1.264 . S
O77 Mg70 1.986 . S
O77 C81 1.246 . S
O78 Mg73 2.032 . S
O78 C81 1.259 . S
O79 Mg70 2.114 . S
O79 C82 1.252 . S
O80 Mg70 2.251 . S
O80 Mg73 2.079 . S
O80 C82 1.273 . S
C81 O77 1.246 . S
C81 O78 1.259 . S
C82 O79 1.252 . S
C82 O80 1.273 . S
O83 Mg70 2.010 . S
O83 C75 1.249 . S
Mg84 O85 2.028 . S
Mg84 O91 1.986 . S
Mg84 O93 2.114 . S
Mg84 O94 2.251 . S
Mg84 O97 2.010 . S
O85 Mg84 2.028 . S
O85 C88 1.250 . S
O86 Mg87 2.028 . S
O86 C88 1.248 . S
Mg87 O86 2.028 . S
Mg87 O92 2.032 . S
Mg87 O94 2.079 . S
C88 O85 1.250 . S
C88 O86 1.248 . S
C89 O90 1.264 . S
C89 O97 1.249 . S
O90 C89 1.264 . S
O91 Mg84 1.986 . S
O91 C95 1.246 . S
O92 Mg87 2.032 . S
O92 C95 1.259 . S
O93 Mg84 2.114 . S
O93 C96 1.252 . S
O94 Mg84 2.251 . S
O94 Mg87 2.079 . S
O94 C96 1.273 . S
C95 O91 1.246 . S
C95 O92 1.259 . S
C96 O93 1.252 . S
C96 O94 1.273 . S
O97 Mg84 2.010 . S
O97 C89 1.249 . S
Mg98 O99 2.028 . S
Mg98 O105 1.986 . S
Mg98 O107 2.114 . S
Mg98 O108 2.251 . S
Mg98 O111 2.010 . S
O99 Mg98 2.028 . S
O99 C102 1.250 . S
O100 Mg101 2.028 . S
O100 C102 1.248 . S
Mg101 O100 2.028 . S
Mg101 O106 2.032 . S
Mg101 O108 2.079 . S
C102 O99 1.250 . S
C102 O100 1.248 . S
C103 O104 1.264 . S
C103 O111 1.249 . S
O104 C103 1.264 . S
O105 Mg98 1.986 . S
O105 C109 1.246 . S
O106 Mg101 2.032 . S
O106 C109 1.259 . S
O107 Mg98 2.114 . S
O107 C110 1.252 . S
O108 Mg98 2.251 . S
O108 Mg101 2.079 . S
O108 C110 1.273 . S
C109 O105 1.246 . S
C109 O106 1.259 . S
C110 O107 1.252 . S
C110 O108 1.273 . S
O111 Mg98 2.010 . S
O111 C103 1.249 . S
Mg112 O113 2.028 . S
Mg112 O119 1.986 . S
Mg112 O121 2.114 . S
Mg112 O122 2.251 . S
Mg112 O125 2.010 . S
O113 Mg112 2.028 . S
O113 C116 1.250 . S
O114 Mg115 2.028 1_556 S
O114 C116 1.248 . S
Mg115 O114 2.028 1_554 S
Mg115 O120 2.032 1_554 S
Mg115 O122 2.079 1_554 S
C116 O113 1.250 . S
C116 O114 1.248 . S
C117 O118 1.264 . S
C117 O125 1.249 . S
O118 C117 1.264 . S
O119 Mg112 1.986 . S
O119 C123 1.246 . S
O120 Mg115 2.032 1_556 S
O120 C123 1.259 . S
O121 Mg112 2.114 . S
O121 C124 1.252 . S
O122 Mg112 2.251 . S
O122 Mg115 2.079 1_556 S
O122 C124 1.273 . S
C123 O119 1.246 . S
C123 O120 1.259 . S
C124 O121 1.252 . S
C124 O122 1.273 . S
O125 Mg112 2.010 . S
O125 C117 1.249 . S
Mg126 O127 2.028 . S
Mg126 O133 1.986 . S
Mg126 O135 2.114 . S
Mg126 O136 2.251 . S
Mg126 O139 2.010 . S
O127 Mg126 2.028 . S
O127 C130 1.250 . S
O128 Mg129 2.028 1_556 S
O128 C130 1.248 . S
Mg129 O128 2.028 1_554 S
Mg129 O134 2.032 1_554 S
Mg129 O136 2.079 1_554 S
C130 O127 1.250 . S
C130 O128 1.248 . S
C131 O132 1.264 . S
C131 O139 1.249 . S
O132 C131 1.264 . S
O133 Mg126 1.986 . S
O133 C137 1.246 . S
O134 Mg129 2.032 1_556 S
O134 C137 1.259 . S
O135 Mg126 2.114 . S
O135 C138 1.252 . S
O136 Mg126 2.251 . S
O136 Mg129 2.079 1_556 S
O136 C138 1.273 . S
C137 O133 1.246 . S
C137 O134 1.259 . S
C138 O135 1.252 . S
C138 O136 1.273 . S
O139 Mg126 2.010 . S
O139 C131 1.249 . S
Mg140 O141 2.028 . S
Mg140 O147 1.986 . S
Mg140 O149 2.114 . S
Mg140 O150 2.251 . S
Mg140 O153 2.010 . S
O141 Mg140 2.028 . S
O141 C144 1.250 . S
O142 Mg143 2.028 1_556 S
O142 C144 1.248 . S
Mg143 O142 2.028 1_554 S
Mg143 O148 2.032 1_554 S
Mg143 O150 2.079 1_554 S
C144 O141 1.250 . S
C144 O142 1.248 . S
C145 O146 1.264 . S
C145 O153 1.249 . S
O146 C145 1.264 . S
O147 Mg140 1.986 . S
O147 C151 1.246 . S
O148 Mg143 2.032 1_556 S
O148 C151 1.259 . S
O149 Mg140 2.114 . S
O149 C152 1.252 . S
O150 Mg140 2.251 . S
O150 Mg143 2.079 1_556 S
O150 C152 1.273 . S
C151 O147 1.246 . S
C151 O148 1.259 . S
C152 O149 1.252 . S
C152 O150 1.273 . S
O153 Mg140 2.010 . S
O153 C145 1.249 . S
Mg154 O155 2.028 . S
Mg154 O161 1.986 . S
Mg154 O163 2.114 . S
Mg154 O164 2.251 . S
Mg154 O167 2.010 . S
O155 Mg154 2.028 . S
O155 C158 1.250 . S
O156 Mg157 2.028 1_556 S
O156 C158 1.248 . S
Mg157 O156 2.028 1_554 S
Mg157 O162 2.032 1_554 S
Mg157 O164 2.079 1_554 S
C158 O155 1.250 . S
C158 O156 1.248 . S
C159 O160 1.264 . S
C159 O167 1.249 . S
O160 C159 1.264 . S
O161 Mg154 1.986 . S
O161 C165 1.246 . S
O162 Mg157 2.032 1_556 S
O162 C165 1.259 . S
O163 Mg154 2.114 . S
O163 C166 1.252 . S
O164 Mg154 2.251 . S
O164 Mg157 2.079 1_556 S
O164 C166 1.273 . S
C165 O161 1.246 . S
C165 O162 1.259 . S
C166 O163 1.252 . S
C166 O164 1.273 . S
O167 Mg154 2.010 . S
O167 C159 1.249 . S
Mg168 O169 2.028 . S
Mg168 O175 1.986 . S
Mg168 O177 2.114 . S
Mg168 O178 2.251 . S
Mg168 O181 2.010 . S
O169 Mg168 2.028 . S
O169 C172 1.250 . S
O170 Mg171 2.028 . S
O170 C172 1.248 . S
Mg171 O170 2.028 . S
Mg171 O176 2.032 . S
Mg171 O178 2.079 . S
C172 O169 1.250 . S
C172 O170 1.248 . S
C173 O174 1.264 . S
C173 O181 1.249 . S
O174 C173 1.264 . S
O175 Mg168 1.986 . S
O175 C179 1.246 . S
O176 Mg171 2.032 . S
O176 C179 1.259 . S
O177 Mg168 2.114 . S
O177 C180 1.252 . S
O178 Mg168 2.251 . S
O178 Mg171 2.079 . S
O178 C180 1.273 . S
C179 O175 1.246 . S
C179 O176 1.259 . S
C180 O177 1.252 . S
C180 O178 1.273 . S
O181 Mg168 2.010 . S
O181 C173 1.249 . S
Mg182 O183 2.028 . S
Mg182 O189 1.986 . S
Mg182 O191 2.114 . S
Mg182 O192 2.251 . S
Mg182 O195 2.010 . S
O183 Mg182 2.028 . S
O183 C186 1.250 . S
O184 Mg185 2.028 . S
O184 C186 1.248 . S
Mg185 O184 2.028 . S
Mg185 O190 2.032 . S
Mg185 O192 2.079 . S
C186 O183 1.250 . S
C186 O184 1.248 . S
C187 O188 1.264 . S
C187 O195 1.249 . S
O188 C187 1.264 . S
O189 Mg182 1.986 . S
O189 C193 1.246 . S
O190 Mg185 2.032 . S
O190 C193 1.259 . S
O191 Mg182 2.114 . S
O191 C194 1.252 . S
O192 Mg182 2.251 . S
O192 Mg185 2.079 . S
O192 C194 1.273 . S
C193 O189 1.246 . S
C193 O190 1.259 . S
C194 O191 1.252 . S
C194 O192 1.273 . S
O195 Mg182 2.010 . S
O195 C187 1.249 . S
Mg196 O197 2.028 . S
Mg196 O203 1.986 . S
Mg196 O205 2.114 . S
Mg196 O206 2.251 . S
Mg196 O209 2.010 . S
O197 Mg196 2.028 . S
O197 C200 1.250 . S
O198 Mg199 2.028 . S
O198 C200 1.248 . S
Mg199 O198 2.028 . S
Mg199 O204 2.032 . S
Mg199 O206 2.079 . S
C200 O197 1.250 . S
C200 O198 1.248 . S
C201 O202 1.264 . S
C201 O209 1.249 . S
O202 C201 1.264 . S
O203 Mg196 1.986 . S
O203 C207 1.246 . S
O204 Mg199 2.032 . S
O204 C207 1.259 . S
O205 Mg196 2.114 . S
O205 C208 1.252 . S
O206 Mg196 2.251 . S
O206 Mg199 2.079 . S
O206 C208 1.273 . S
C207 O203 1.246 . S
C207 O204 1.259 . S
C208 O205 1.252 . S
C208 O206 1.273 . S
O209 Mg196 2.010 . S
O209 C201 1.249 . S
Mg210 O211 2.028 . S
Mg210 O217 1.986 . S
Mg210 O219 2.114 . S
Mg210 O220 2.251 . S
Mg210 O223 2.010 . S
O211 Mg210 2.028 . S
O211 C214 1.250 . S
O212 Mg213 2.028 . S
O212 C214 1.248 . S
Mg213 O212 2.028 . S
Mg213 O218 2.032 . S
Mg213 O220 2.079 . S
C214 O211 1.250 . S
C214 O212 1.248 . S
C215 O216 1.264 . S
C215 O223 1.249 . S
O216 C215 1.264 . S
O217 Mg210 1.986 . S
O217 C221 1.246 . S
O218 Mg213 2.032 . S
O218 C221 1.259 . S
O219 Mg210 2.114 . S
O219 C222 1.252 . S
O220 Mg210 2.251 . S
O220 Mg213 2.079 . S
O220 C222 1.273 . S
C221 O217 1.246 . S
C221 O218 1.259 . S
C222 O219 1.252 . S
C222 O220 1.273 . S
O223 Mg210 2.010 . S
O223 C215 1.249 . S
H224 C230 0.930 . S
H225 C234 0.930 . S
H226 C239 0.930 1_556 S
H227 C237 0.929 . S
H228 C232 0.929 . S
H229 C238 0.929 . S
C230 H224 0.930 . S
C230 C231 1.367 . S
C230 C238 1.378 . S
C231 C230 1.367 . S
C231 C239 1.431 . S
C232 H228 0.929 . S
C232 C234 1.378 . S
C232 C236 1.350 . S
C233 C236 1.456 1_554 S
C233 C238 1.361 . S
C233 N241 1.422 1_554 S
C234 H225 0.930 . S
C234 C232 1.378 . S
C234 C235 1.367 . S
C235 C234 1.367 . S
C235 C237 1.433 . S
C236 C232 1.350 . S
C236 C233 1.456 1_556 S
C236 N240 1.427 . S
C237 H227 0.929 . S
C237 C235 1.433 . S
C237 N240 1.384 . S
C238 H229 0.929 . S
C238 C230 1.378 . S
C238 C233 1.361 . S
C239 H226 0.930 1_554 S
C239 C231 1.431 . S
C239 N241 1.385 1_554 S
N240 C236 1.427 . S
N240 C237 1.384 . S
N241 C233 1.422 1_556 S
N241 C239 1.385 1_556 S
H242 C248 0.930 . S
H243 C252 0.930 . S
H244 C257 0.929 . S
H245 C255 0.917 1_556 S
H246 C250 0.929 . S
H247 C256 0.929 . S
C248 H242 0.930 . S
C248 C249 1.367 . S
C248 C256 1.378 . S
C249 C248 1.367 . S
C249 C257 1.433 . S
C250 H246 0.929 . S
C250 C252 1.378 . S
C250 C254 1.360 . S
C251 C254 1.457 1_556 S
C251 C256 1.350 . S
C251 N259 1.427 . S
C252 H243 0.930 . S
C252 C250 1.378 . S
C252 C253 1.367 . S
C253 C252 1.367 . S
C253 C255 1.460 . S
C254 C250 1.360 . S
C254 C251 1.457 1_554 S
C254 N258 1.422 1_554 S
C255 H245 0.917 1_554 S
C255 C253 1.460 . S
C255 N258 1.369 1_554 S
C256 H247 0.929 . S
C256 C248 1.378 . S
C256 C251 1.350 . S
C257 H244 0.929 . S
C257 C249 1.433 . S
C257 N259 1.384 . S
N258 C254 1.422 1_556 S
N258 C255 1.369 1_556 S
N259 C251 1.427 . S
N259 C257 1.384 . S
H260 C266 0.930 . S
H261 C270 0.930 . S
H262 C275 0.929 . S
H263 C273 0.929 1_556 S
H264 C268 0.929 . S
H265 C274 0.929 . S
C266 H260 0.930 . S
C266 C267 1.367 . S
C266 C274 1.378 . S
C267 C266 1.367 . S
C267 C275 1.433 . S
C268 H264 0.929 . S
C268 C270 1.378 . S
C268 C272 1.358 . S
C269 C272 1.458 1_556 S
C269 C274 1.350 . S
C269 N277 1.427 . S
C270 H261 0.930 . S
C270 C268 1.378 . S
C270 C271 1.367 . S
C271 C270 1.367 . S
C271 C273 1.433 . S
C272 C268 1.358 . S
C272 C269 1.458 1_554 S
C272 N276 1.423 1_554 S
C273 H263 0.929 1_554 S
C273 C271 1.433 . S
C273 N276 1.384 1_554 S
C274 H265 0.929 . S
C274 C266 1.378 . S
C274 C269 1.350 . S
C275 H262 0.929 . S
C275 C267 1.433 . S
C275 N277 1.384 . S
N276 C272 1.423 1_556 S
N276 C273 1.384 1_556 S
N277 C269 1.427 . S
N277 C275 1.384 . S
H278 C284 0.930 . S
H279 C288 0.930 . S
H280 C293 0.929 . S
H281 C291 0.929 . S
H282 C286 0.929 . S
H283 C292 0.929 1_554 S
C284 H278 0.930 . S
C284 C285 1.367 . S
C284 C292 1.378 . S
C285 C284 1.367 . S
C285 C293 1.433 . S
C286 H282 0.929 . S
C286 C288 1.378 1_556 S
C286 C290 1.350 . S
C287 C290 1.463 . S
C287 C292 1.350 . S
C287 N295 1.427 . S
C288 H279 0.930 . S
C288 C286 1.378 1_554 S
C288 C289 1.367 . S
C289 C288 1.367 . S
C289 C291 1.433 . S
C290 C286 1.350 . S
C290 C287 1.463 . S
C290 N294 1.427 1_556 S
C291 H281 0.929 . S
C291 C289 1.433 . S
C291 N294 1.384 . S
C292 H283 0.929 1_556 S
C292 C284 1.378 . S
C292 C287 1.350 . S
C293 H280 0.929 . S
C293 C285 1.433 . S
C293 N295 1.384 . S
N294 C290 1.427 1_554 S
N294 C291 1.384 . S
N295 C287 1.427 . S
N295 C293 1.384 . S
H296 C302 0.930 . S
H297 C306 0.930 . S
H298 C311 0.929 . S
H299 C309 0.929 . S
H300 C304 0.929 . S
H301 C310 0.929 . S
C302 H296 0.930 . S
C302 C303 1.367 . S
C302 C310 1.378 . S
C303 C302 1.367 . S
C303 C311 1.433 . S
C304 H300 0.929 . S
C304 C306 1.378 . S
C304 C308 1.350 . S
C305 C308 1.463 . S
C305 C310 1.350 . S
C305 N313 1.427 . S
C306 H297 0.930 . S
C306 C304 1.378 . S
C306 C307 1.367 . S
C307 C306 1.367 . S
C307 C309 1.433 . S
C308 C304 1.350 . S
C308 C305 1.463 . S
C308 N312 1.427 . S
C309 H299 0.929 . S
C309 C307 1.433 . S
C309 N312 1.384 . S
C310 H301 0.929 . S
C310 C302 1.378 . S
C310 C305 1.350 . S
C311 H298 0.929 . S
C311 C303 1.433 . S
C311 N313 1.384 . S
N312 C308 1.427 . S
N312 C309 1.384 . S
N313 C305 1.427 . S
N313 C311 1.384 . S
H314 C320 0.930 . S
H315 C324 0.930 . S
H316 C329 0.929 . S
H317 C327 0.929 . S
H318 C322 0.929 . S
H319 C328 0.929 . S
C320 H314 0.930 . S
C320 C321 1.367 . S
C320 C328 1.378 . S
C321 C320 1.367 . S
C321 C329 1.433 . S
C322 H318 0.929 . S
C322 C324 1.378 . S
C322 C326 1.350 . S
C323 C326 1.463 . S
C323 C328 1.350 . S
C323 N331 1.427 . S
C324 H315 0.930 . S
C324 C322 1.378 . S
C324 C325 1.367 . S
C325 C324 1.367 . S
C325 C327 1.433 . S
C326 C322 1.350 . S
C326 C323 1.463 . S
C326 N330 1.427 . S
C327 H317 0.929 . S
C327 C325 1.433 . S
C327 N330 1.384 . S
C328 H319 0.929 . S
C328 C320 1.378 . S
C328 C323 1.350 . S
C329 H316 0.929 . S
C329 C321 1.433 . S
C329 N331 1.384 . S
N330 C326 1.427 . S
N330 C327 1.384 . S
N331 C323 1.427 . S
N331 C329 1.384 . S
H332 C338 0.930 . S
H333 C342 0.930 . S
H334 C347 0.929 . S
H335 C345 0.929 . S
H336 C340 0.929 . S
H337 C346 0.929 . S
C338 H332 0.930 . S
C338 C339 1.367 . S
C338 C346 1.378 . S
C339 C338 1.367 . S
C339 C347 1.433 . S
C340 H336 0.929 . S
C340 C342 1.378 . S
C340 C344 1.350 . S
C341 C344 1.463 . S
C341 C346 1.350 . S
C341 N349 1.427 . S
C342 H333 0.930 . S
C342 C340 1.378 . S
C342 C343 1.367 . S
C343 C342 1.367 . S
C343 C345 1.433 . S
C344 C340 1.350 . S
C344 C341 1.463 . S
C344 N348 1.427 . S
C345 H335 0.929 . S
C345 C343 1.433 . S
C345 N348 1.384 . S
C346 H337 0.929 . S
C346 C338 1.378 . S
C346 C341 1.350 . S
C347 H334 0.929 . S
C347 C339 1.433 . S
C347 N349 1.384 . S
N348 C344 1.427 . S
N348 C345 1.384 . S
N349 C341 1.427 . S
N349 C347 1.384 . S
H350 C356 0.930 . S
H351 C360 0.930 . S
H352 C365 0.929 . S
H353 C363 0.929 . S
H354 C358 0.929 . S
H355 C364 0.929 . S
C356 H350 0.930 . S
C356 C357 1.367 . S
C356 C364 1.378 . S
C357 C356 1.367 . S
C357 C365 1.433 . S
C358 H354 0.929 . S
C358 C360 1.378 . S
C358 C362 1.350 . S
C359 C362 1.463 . S
C359 C364 1.350 . S
C359 N367 1.427 . S
C360 H351 0.930 . S
C360 C358 1.378 . S
C360 C361 1.367 . S
C361 C360 1.367 . S
C361 C363 1.433 . S
C362 C358 1.350 . S
C362 C359 1.463 . S
C362 N366 1.427 . S
C363 H353 0.929 . S
C363 C361 1.433 . S
C363 N366 1.384 . S
C364 H355 0.929 . S
C364 C356 1.378 . S
C364 C359 1.350 . S
C365 H352 0.929 . S
C365 C357 1.433 . S
C365 N367 1.384 . S
N366 C362 1.427 . S
N366 C363 1.384 . S
N367 C359 1.427 . S
N367 C365 1.384 . S
H368 C374 0.930 . S
H369 C378 0.930 . S
H370 C383 0.929 1_554 S
H371 C381 0.929 . S
H372 C376 0.929 . S
H373 C382 0.929 . S
C374 H368 0.930 . S
C374 C375 1.367 . S
C374 C382 1.378 . S
C375 C374 1.367 . S
C375 C383 1.433 . S
C376 H372 0.929 . S
C376 C378 1.378 . S
C376 C380 1.350 . S
C377 C380 1.463 . S
C377 C382 1.350 1_554 S
C377 N385 1.427 . S
C378 H369 0.930 . S
C378 C376 1.378 . S
C378 C379 1.367 . S
C379 C378 1.367 . S
C379 C381 1.433 . S
C380 C376 1.350 . S
C380 C377 1.463 . S
C380 N384 1.427 . S
C381 H371 0.929 . S
C381 C379 1.433 . S
C381 N384 1.384 . S
C382 H373 0.929 . S
C382 C374 1.378 . S
C382 C377 1.350 1_556 S
C383 H370 0.929 1_556 S
C383 C375 1.433 . S
C383 N385 1.384 1_556 S
N384 C380 1.427 . S
N384 C381 1.384 . S
N385 C377 1.427 . S
N385 C383 1.384 1_554 S
H386 C392 0.930 . S
H387 C396 0.930 . S
H388 C401 0.929 . S
H389 C399 0.929 . S
H390 C394 0.929 . S
H391 C400 0.929 . S
C392 H386 0.930 . S
C392 C393 1.367 . S
C392 C400 1.378 . S
C393 C392 1.367 . S
C393 C401 1.433 . S
C394 H390 0.929 . S
C394 C396 1.378 . S
C394 C398 1.350 . S
C395 C398 1.463 . S
C395 C400 1.350 1_554 S
C395 N403 1.427 . S
C396 H387 0.930 . S
C396 C394 1.378 . S
C396 C397 1.367 . S
C397 C396 1.367 . S
C397 C399 1.433 . S
C398 C394 1.350 . S
C398 C395 1.463 . S
C398 N402 1.427 . S
C399 H389 0.929 . S
C399 C397 1.433 . S
C399 N402 1.384 . S
C400 H391 0.929 . S
C400 C392 1.378 . S
C400 C395 1.350 1_556 S
C401 H388 0.929 . S
C401 C393 1.433 . S
C401 N403 1.384 1_556 S
N402 C398 1.427 . S
N402 C399 1.384 . S
N403 C395 1.427 . S
N403 C401 1.384 1_554 S
H404 C410 0.930 . S
H405 C414 0.930 . S
H406 C419 0.929 . S
H407 C417 0.929 . S
H408 C412 0.929 . S
H409 C418 0.929 . S
C410 H404 0.930 . S
C410 C411 1.367 . S
C410 C418 1.378 . S
C411 C410 1.367 . S
C411 C419 1.433 . S
C412 H408 0.929 . S
C412 C414 1.378 . S
C412 C416 1.350 . S
C413 C416 1.463 . S
C413 C418 1.350 1_554 S
C413 N421 1.427 . S
C414 H405 0.930 . S
C414 C412 1.378 . S
C414 C415 1.367 . S
C415 C414 1.367 . S
C415 C417 1.433 . S
C416 C412 1.350 . S
C416 C413 1.463 . S
C416 N420 1.427 . S
C417 H407 0.929 . S
C417 C415 1.433 . S
C417 N420 1.384 . S
C418 H409 0.929 . S
C418 C410 1.378 . S
C418 C413 1.350 1_556 S
C419 H406 0.929 . S
C419 C411 1.433 . S
C419 N421 1.384 1_556 S
N420 C416 1.427 . S
N420 C417 1.384 . S
N421 C413 1.427 . S
N421 C419 1.384 1_554 S
H422 C428 0.930 . S
H423 C432 0.930 . S
H424 C437 0.929 . S
H425 C435 0.929 . S
H426 C430 0.929 . S
H427 C436 0.929 . S
C428 H422 0.930 . S
C428 C429 1.367 . S
C428 C436 1.378 . S
C429 C428 1.367 . S
C429 C437 1.433 . S
C430 H426 0.929 . S
C430 C432 1.378 . S
C430 C434 1.350 1_556 S
C431 C434 1.463 . S
C431 C436 1.350 . S
C431 N439 1.427 . S
C432 H423 0.930 . S
C432 C430 1.378 . S
C432 C433 1.367 . S
C433 C432 1.367 . S
C433 C435 1.433 . S
C434 C430 1.350 1_554 S
C434 C431 1.463 . S
C434 N438 1.427 . S
C435 H425 0.929 . S
C435 C433 1.433 . S
C435 N438 1.384 1_556 S
C436 H427 0.929 . S
C436 C428 1.378 . S
C436 C431 1.350 . S
C437 H424 0.929 . S
C437 C429 1.433 . S
C437 N439 1.384 . S
N438 C434 1.427 . S
N438 C435 1.384 1_554 S
N439 C431 1.427 . S
N439 C437 1.384 . S
H440 C446 0.930 . S
H441 C450 0.930 . S
H442 C455 0.929 . S
H443 C453 0.929 . S
H444 C448 0.929 . S
H445 C454 0.929 . S
C446 H440 0.930 . S
C446 C447 1.367 . S
C446 C454 1.378 . S
C447 C446 1.367 . S
C447 C455 1.433 . S
C448 H444 0.929 . S
C448 C450 1.378 . S
C448 C452 1.350 . S
C449 C452 1.463 . S
C449 C454 1.350 . S
C449 N457 1.427 . S
C450 H441 0.930 . S
C450 C448 1.378 . S
C450 C451 1.367 . S
C451 C450 1.367 . S
C451 C453 1.433 . S
C452 C448 1.350 . S
C452 C449 1.463 . S
C452 N456 1.427 . S
C453 H443 0.929 . S
C453 C451 1.433 . S
C453 N456 1.384 . S
C454 H445 0.929 . S
C454 C446 1.378 . S
C454 C449 1.350 . S
C455 H442 0.929 . S
C455 C447 1.433 . S
C455 N457 1.384 . S
N456 C452 1.427 . S
N456 C453 1.384 . S
N457 C449 1.427 . S
N457 C455 1.384 . S
H458 C464 0.930 . S
H459 C468 0.930 . S
H460 C473 0.929 . S
H461 C471 0.929 . S
H462 C466 0.929 . S
H463 C472 0.929 . S
C464 H458 0.930 . S
C464 C465 1.367 . S
C464 C472 1.378 . S
C465 C464 1.367 . S
C465 C473 1.433 . S
C466 H462 0.929 . S
C466 C468 1.378 . S
C466 C470 1.350 . S
C467 C470 1.463 . S
C467 C472 1.350 . S
C467 N475 1.427 . S
C468 H459 0.930 . S
C468 C466 1.378 . S
C468 C469 1.367 . S
C469 C468 1.367 . S
C469 C471 1.433 . S
C470 C466 1.350 . S
C470 C467 1.463 . S
C470 N474 1.427 . S
C471 H461 0.929 . S
C471 C469 1.433 . S
C471 N474 1.384 . S
C472 H463 0.929 . S
C472 C464 1.378 . S
C472 C467 1.350 . S
C473 H460 0.929 . S
C473 C465 1.433 . S
C473 N475 1.384 . S
N474 C470 1.427 . S
N474 C471 1.384 . S
N475 C467 1.427 . S
N475 C473 1.384 . S
H476 C482 0.930 . S
H477 C486 0.930 . S
H478 C491 0.929 . S
H479 C489 0.929 . S
H480 C484 0.929 . S
H481 C490 0.929 . S
C482 H476 0.930 . S
C482 C483 1.367 . S
C482 C490 1.378 . S
C483 C482 1.367 . S
C483 C491 1.433 . S
C484 H480 0.929 . S
C484 C486 1.378 . S
C484 C488 1.350 . S
C485 C488 1.463 . S
C485 C490 1.350 . S
C485 N493 1.427 . S
C486 H477 0.930 . S
C486 C484 1.378 . S
C486 C487 1.367 . S
C487 C486 1.367 . S
C487 C489 1.433 . S
C488 C484 1.350 . S
C488 C485 1.463 . S
C488 N492 1.427 . S
C489 H479 0.929 . S
C489 C487 1.433 . S
C489 N492 1.384 . S
C490 H481 0.929 . S
C490 C482 1.378 . S
C490 C485 1.350 . S
C491 H478 0.929 . S
C491 C483 1.433 . S
C491 N493 1.384 . S
N492 C488 1.427 . S
N492 C489 1.384 . S
N493 C485 1.427 . S
N493 C491 1.384 . S
H494 C500 0.930 . S
H495 C504 0.930 . S
H496 C509 0.929 . S
H497 C507 0.929 . S
H498 C502 0.929 . S
H499 C508 0.929 . S
C500 H494 0.930 . S
C500 C501 1.367 . S
C500 C508 1.378 . S
C501 C500 1.367 . S
C501 C509 1.433 . S
C502 H498 0.929 . S
C502 C504 1.378 . S
C502 C506 1.350 . S
C503 C506 1.463 . S
C503 C508 1.350 . S
C503 N511 1.427 . S
C504 H495 0.930 . S
C504 C502 1.378 . S
C504 C505 1.367 . S
C505 C504 1.367 . S
C505 C507 1.433 . S
C506 C502 1.350 . S
C506 C503 1.463 . S
C506 N510 1.427 . S
C507 H497 0.929 . S
C507 C505 1.433 . S
C507 N510 1.384 . S
C508 H499 0.929 . S
C508 C500 1.378 . S
C508 C503 1.350 . S
C509 H496 0.929 . S
C509 C501 1.433 . S
C509 N511 1.384 . S
N510 C506 1.427 . S
N510 C507 1.384 . S
N511 C503 1.427 . S
N511 C509 1.384 . S
H512 C518 0.930 . S
H513 C522 0.930 . S
H514 C527 0.929 . S
H515 C525 0.929 . S
H516 C520 0.929 1_556 S
H517 C526 0.938 . S
C518 H512 0.930 . S
C518 C519 1.367 . S
C518 C526 1.371 1_556 S
C519 C518 1.367 . S
C519 C527 1.433 . S
C520 H516 0.929 1_554 S
C520 C522 1.378 . S
C520 C524 1.350 . S
C521 C524 1.463 1_566 S
C521 C526 1.348 1_556 S
C521 N529 1.427 . S
C522 H513 0.930 . S
C522 C520 1.378 . S
C522 C523 1.367 . S
C523 C522 1.367 . S
C523 C525 1.433 . S
C524 C520 1.350 . S
C524 C521 1.463 1_544 S
C524 N528 1.427 . S
C525 H515 0.929 . S
C525 C523 1.433 . S
C525 N528 1.384 . S
C526 H517 0.938 . S
C526 C518 1.371 1_554 S
C526 C521 1.348 1_554 S
C527 H514 0.929 . S
C527 C519 1.433 . S
C527 N529 1.384 . S
N528 C524 1.427 . S
N528 C525 1.384 . S
N529 C521 1.427 . S
N529 C527 1.384 . S
H530 C536 0.930 . S
H531 C540 0.930 . S
H532 C545 0.929 . S
H533 C543 0.929 1_554 S
H534 C538 0.929 . S
H535 C544 0.929 . S
C536 H530 0.930 . S
C536 C537 1.367 . S
C536 C544 1.378 . S
C537 C536 1.367 . S
C537 C545 1.433 . S
C538 H534 0.929 . S
C538 C540 1.378 . S
C538 C542 1.350 . S
C539 C542 1.463 1_554 S
C539 C544 1.350 . S
C539 N547 1.427 1_554 S
C540 H531 0.930 . S
C540 C538 1.378 . S
C540 C541 1.367 . S
C541 C540 1.367 . S
C541 C543 1.433 . S
C542 C538 1.350 . S
C542 C539 1.463 1_556 S
C542 N546 1.427 1_556 S
C543 H533 0.929 1_556 S
C543 C541 1.433 . S
C543 N546 1.384 1_556 S
C544 H535 0.929 . S
C544 C536 1.378 . S
C544 C539 1.350 . S
C545 H532 0.929 . S
C545 C537 1.433 . S
C545 N547 1.384 1_554 S
N546 C542 1.427 1_554 S
N546 C543 1.384 1_554 S
N547 C539 1.427 1_556 S
N547 C545 1.384 1_556 S
H548 C554 0.930 . S
H549 C558 0.930 . S
H550 C563 0.929 1_554 S
H551 C561 0.929 . S
H552 C556 0.929 . S
H553 C562 0.929 . S
C554 H548 0.930 . S
C554 C555 1.367 . S
C554 C562 1.378 1_455 S
C555 C554 1.367 . S
C555 C563 1.433 . S
C556 H552 0.929 . S
C556 C558 1.378 . S
C556 C560 1.350 . S
C557 C560 1.463 1_556 S
C557 C562 1.350 . S
C557 N565 1.427 1_656 S
C558 H549 0.930 . S
C558 C556 1.378 . S
C558 C559 1.367 . S
C559 C558 1.367 . S
C559 C561 1.433 . S
C560 C556 1.350 . S
C560 C557 1.463 1_554 S
C560 N564 1.427 1_554 S
C561 H551 0.929 . S
C561 C559 1.433 . S
C561 N564 1.384 1_554 S
C562 H553 0.929 . S
C562 C554 1.378 1_655 S
C562 C557 1.350 . S
C563 H550 0.929 1_556 S
C563 C555 1.433 . S
C563 N565 1.384 1_556 S
N564 C560 1.427 1_556 S
N564 C561 1.384 1_556 S
N565 C557 1.427 1_454 S
N565 C563 1.384 1_554 S
H566 C572 0.930 . S
H567 C576 0.930 . S
H568 C581 0.929 1_545 S
H569 C579 0.929 . S
H570 C574 0.934 . S
H571 C580 0.929 1_556 S
C572 H566 0.930 . S
C572 C573 1.367 . S
C572 C580 1.378 . S
C573 C572 1.367 . S
C573 C581 1.433 . S
C574 H570 0.934 . S
C574 C576 1.374 1_554 S
C574 C578 1.326 1_544 S
C575 C578 1.472 1_454 S
C575 C580 1.350 . S
C575 N583 1.427 1_565 S
C576 H567 0.930 . S
C576 C574 1.374 1_556 S
C576 C577 1.367 . S
C577 C576 1.367 . S
C577 C579 1.433 1_545 S
C578 C574 1.326 1_566 S
C578 C575 1.472 1_656 S
C578 N582 1.443 . S
C579 H569 0.929 . S
C579 C577 1.433 1_565 S
C579 N582 1.384 . S
C580 H571 0.929 1_554 S
C580 C572 1.378 . S
C580 C575 1.350 . S
C581 H568 0.929 1_565 S
C581 C573 1.433 . S
C581 N583 1.384 1_565 S
N582 C578 1.443 . S
N582 C579 1.384 . S
N583 C575 1.427 1_545 S
N583 C581 1.384 1_545 S
H584 C590 0.930 . S
H585 C594 0.930 . S
H586 C599 0.929 . S
H587 C597 0.929 . S
H588 C592 0.929 . S
H589 C598 0.929 . S
C590 H584 0.930 . S
C590 C591 1.367 . S
C590 C598 1.378 . S
C591 C590 1.367 . S
C591 C599 1.433 . S
C592 H588 0.929 . S
C592 C594 1.378 . S
C592 C596 1.350 . S
C593 C596 1.463 . S
C593 C598 1.350 . S
C593 N601 1.427 . S
C594 H585 0.930 . S
C594 C592 1.378 . S
C594 C595 1.367 . S
C595 C594 1.367 . S
C595 C597 1.433 . S
C596 C592 1.350 . S
C596 C593 1.463 . S
C596 N600 1.427 . S
C597 H587 0.929 . S
C597 C595 1.433 . S
C597 N600 1.384 . S
C598 H589 0.929 . S
C598 C590 1.378 . S
C598 C593 1.350 . S
C599 H586 0.929 . S
C599 C591 1.433 . S
C599 N601 1.384 . S
N600 C596 1.427 . S
N600 C597 1.384 . S
N601 C593 1.427 . S
N601 C599 1.384 . S
H602 C608 0.930 . S
H603 C612 0.930 . S
H604 C617 0.929 . S
H605 C615 0.929 . S
H606 C610 0.929 . S
H607 C616 0.929 . S
C608 H602 0.930 . S
C608 C609 1.367 . S
C608 C616 1.378 . S
C609 C608 1.367 . S
C609 C617 1.433 . S
C610 H606 0.929 . S
C610 C612 1.378 . S
C610 C614 1.350 . S
C611 C614 1.463 1_455 S
C611 C616 1.350 . S
C611 N619 1.427 . S
C612 H603 0.930 . S
C612 C610 1.378 . S
C612 C613 1.367 . S
C613 C612 1.367 . S
C613 C615 1.433 . S
C614 C610 1.350 . S
C614 C611 1.463 1_655 S
C614 N618 1.427 . S
C615 H605 0.929 . S
C615 C613 1.433 . S
C615 N618 1.384 . S
C616 H607 0.929 . S
C616 C608 1.378 . S
C616 C611 1.350 . S
C617 H604 0.929 . S
C617 C609 1.433 . S
C617 N619 1.384 . S
N618 C614 1.427 . S
N618 C615 1.384 . S
N619 C611 1.427 . S
N619 C617 1.384 . S
H620 C626 0.930 . S
H621 C630 0.930 . S
H622 C635 0.929 . S
H623 C633 0.929 . S
H624 C628 0.929 1_565 S
H625 C634 0.929 1_655 S
C626 H620 0.930 . S
C626 C627 1.367 . S
C626 C634 1.378 . S
C627 C626 1.367 . S
C627 C635 1.433 . S
C628 H624 0.929 1_545 S
C628 C630 1.378 . S
C628 C632 1.350 . S
C629 C632 1.463 1_565 S
C629 C634 1.350 1_655 S
C629 N637 1.427 1_655 S
C630 H621 0.930 . S
C630 C628 1.378 . S
C630 C631 1.367 . S
C631 C630 1.367 . S
C631 C633 1.433 . S
C632 C628 1.350 . S
C632 C629 1.463 1_545 S
C632 N636 1.427 . S
C633 H623 0.929 . S
C633 C631 1.433 . S
C633 N636 1.384 . S
C634 H625 0.929 1_455 S
C634 C626 1.378 . S
C634 C629 1.350 1_455 S
C635 H622 0.929 . S
C635 C627 1.433 . S
C635 N637 1.384 . S
N636 C632 1.427 . S
N636 C633 1.384 . S
N637 C629 1.427 1_455 S
N637 C635 1.384 . S
H638 C644 0.930 . S
H639 C648 0.930 . S
H640 C653 0.929 . S
H641 C651 0.929 . S
H642 C646 0.929 . S
H643 C652 0.929 . S
C644 H638 0.930 . S
C644 C645 1.367 . S
C644 C652 1.378 . S
C645 C644 1.367 . S
C645 C653 1.433 . S
C646 H642 0.929 . S
C646 C648 1.378 . S
C646 C650 1.350 . S
C647 C650 1.463 . S
C647 C652 1.350 1_565 S
C647 N655 1.427 . S
C648 H639 0.930 . S
C648 C646 1.378 . S
C648 C649 1.367 . S
C649 C648 1.367 . S
C649 C651 1.433 . S
C650 C646 1.350 . S
C650 C647 1.463 . S
C650 N654 1.427 . S
C651 H641 0.929 . S
C651 C649 1.433 . S
C651 N654 1.384 . S
C652 H643 0.929 . S
C652 C644 1.378 . S
C652 C647 1.350 1_545 S
C653 H640 0.929 . S
C653 C645 1.433 . S
C653 N655 1.384 1_545 S
N654 C650 1.427 . S
N654 C651 1.384 . S
N655 C647 1.427 . S
N655 C653 1.384 1_565 S
H656 C662 0.930 . S
H657 C666 0.930 . S
H658 C671 0.929 . S
H659 C669 0.929 . S
H660 C664 0.929 . S
H661 C670 0.929 . S
C662 H656 0.930 . S
C662 C663 1.367 . S
C662 C670 1.378 . S
C663 C662 1.367 . S
C663 C671 1.433 . S
C664 H660 0.929 . S
C664 C666 1.378 . S
C664 C668 1.350 . S
C665 C668 1.463 . S
C665 C670 1.350 . S
C665 N673 1.427 . S
C666 H657 0.930 . S
C666 C664 1.378 . S
C666 C667 1.367 . S
C667 C666 1.367 . S
C667 C669 1.433 . S
C668 C664 1.350 . S
C668 C665 1.463 . S
C668 N672 1.427 . S
C669 H659 0.929 . S
C669 C667 1.433 . S
C669 N672 1.384 . S
C670 H661 0.929 . S
C670 C662 1.378 . S
C670 C665 1.350 . S
C671 H658 0.929 . S
C671 C663 1.433 . S
C671 N673 1.384 . S
N672 C668 1.427 . S
N672 C669 1.384 . S
N673 C665 1.427 . S
N673 C671 1.384 . S
H674 C680 0.930 . S
H675 C684 0.930 . S
H676 C689 0.929 . S
H677 C687 0.929 . S
H678 C682 0.929 . S
H679 C688 0.929 . S
C680 H674 0.930 . S
C680 C681 1.367 . S
C680 C688 1.378 . S
C681 C680 1.367 . S
C681 C689 1.433 . S
C682 H678 0.929 . S
C682 C684 1.378 . S
C682 C686 1.350 . S
C683 C686 1.463 . S
C683 C688 1.350 . S
C683 N691 1.427 . S
C684 H675 0.930 . S
C684 C682 1.378 . S
C684 C685 1.367 . S
C685 C684 1.367 . S
C685 C687 1.433 . S
C686 C682 1.350 . S
C686 C683 1.463 . S
C686 N690 1.427 . S
C687 H677 0.929 . S
C687 C685 1.433 . S
C687 N690 1.384 . S
C688 H679 0.929 . S
C688 C680 1.378 . S
C688 C683 1.350 . S
C689 H676 0.929 . S
C689 C681 1.433 . S
C689 N691 1.384 . S
N690 C686 1.427 . S
N690 C687 1.384 . S
N691 C683 1.427 . S
N691 C689 1.384 . S
H692 C698 0.930 . S
H693 C702 0.930 . S
H694 C707 0.929 . S
H695 C705 0.929 . S
H696 C700 0.929 . S
H697 C706 0.929 . S
C698 H692 0.930 . S
C698 C699 1.367 . S
C698 C706 1.378 . S
C699 C698 1.367 . S
C699 C707 1.433 . S
C700 H696 0.929 . S
C700 C702 1.378 . S
C700 C704 1.350 . S
C701 C704 1.463 . S
C701 C706 1.350 . S
C701 N709 1.427 . S
C702 H693 0.930 . S
C702 C700 1.378 . S
C702 C703 1.367 . S
C703 C702 1.367 . S
C703 C705 1.433 . S
C704 C700 1.350 . S
C704 C701 1.463 . S
C704 N708 1.427 . S
C705 H695 0.929 . S
C705 C703 1.433 . S
C705 N708 1.384 . S
C706 H697 0.929 . S
C706 C698 1.378 . S
C706 C701 1.350 . S
C707 H694 0.929 . S
C707 C699 1.433 . S
C707 N709 1.384 . S
N708 C704 1.427 . S
N708 C705 1.384 . S
N709 C701 1.427 . S
N709 C707 1.384 . S
H710 C716 0.930 . S
H711 C720 0.930 . S
H712 C725 0.929 . S
H713 C723 0.929 . S
H714 C718 0.929 . S
H715 C724 0.929 . S
C716 H710 0.930 . S
C716 C717 1.367 . S
C716 C724 1.378 . S
C717 C716 1.367 . S
C717 C725 1.433 . S
C718 H714 0.929 . S
C718 C720 1.378 . S
C718 C722 1.350 . S
C719 C722 1.463 . S
C719 C724 1.350 . S
C719 N727 1.427 . S
C720 H711 0.930 . S
C720 C718 1.378 . S
C720 C721 1.367 . S
C721 C720 1.367 . S
C721 C723 1.433 . S
C722 C718 1.350 . S
C722 C719 1.463 . S
C722 N726 1.427 . S
C723 H713 0.929 . S
C723 C721 1.433 . S
C723 N726 1.384 . S
C724 H715 0.929 . S
C724 C716 1.378 . S
C724 C719 1.350 . S
C725 H712 0.929 . S
C725 C717 1.433 . S
C725 N727 1.384 . S
N726 C722 1.427 . S
N726 C723 1.384 . S
N727 C719 1.427 . S
N727 C725 1.384 . S
H728 C734 0.930 . S
H729 C738 0.930 . S
H730 C743 0.929 . S
H731 C741 0.929 . S
H732 C736 0.929 . S
H733 C742 0.929 . S
C734 H728 0.930 . S
C734 C735 1.367 . S
C734 C742 1.378 . S
C735 C734 1.367 . S
C735 C743 1.433 . S
C736 H732 0.929 . S
C736 C738 1.378 . S
C736 C740 1.350 . S
C737 C740 1.463 . S
C737 C742 1.350 . S
C737 N745 1.427 . S
C738 H729 0.930 . S
C738 C736 1.378 . S
C738 C739 1.367 . S
C739 C738 1.367 . S
C739 C741 1.433 . S
C740 C736 1.350 . S
C740 C737 1.463 . S
C740 N744 1.427 . S
C741 H731 0.929 . S
C741 C739 1.433 . S
C741 N744 1.384 . S
C742 H733 0.929 . S
C742 C734 1.378 . S
C742 C737 1.350 . S
C743 H730 0.929 . S
C743 C735 1.433 . S
C743 N745 1.384 . S
N744 C740 1.427 . S
N744 C741 1.384 . S
N745 C737 1.427 . S
N745 C743 1.384 . S
H746 C752 0.930 . S
H747 C756 0.930 . S
H748 C761 0.929 . S
H749 C759 0.929 . S
H750 C754 0.929 . S
H751 C760 0.929 . S
C752 H746 0.930 . S
C752 C753 1.367 . S
C752 C760 1.378 . S
C753 C752 1.367 . S
C753 C761 1.433 . S
C754 H750 0.929 . S
C754 C756 1.378 . S
C754 C758 1.350 . S
C755 C758 1.463 . S
C755 C760 1.350 . S
C755 N763 1.427 . S
C756 H747 0.930 . S
C756 C754 1.378 . S
C756 C757 1.367 . S
C757 C756 1.367 . S
C757 C759 1.433 . S
C758 C754 1.350 . S
C758 C755 1.463 . S
C758 N762 1.427 . S
C759 H749 0.929 . S
C759 C757 1.433 . S
C759 N762 1.384 . S
C760 H751 0.929 . S
C760 C752 1.378 . S
C760 C755 1.350 . S
C761 H748 0.929 . S
C761 C753 1.433 . S
C761 N763 1.384 . S
N762 C758 1.427 . S
N762 C759 1.384 . S
N763 C755 1.427 . S
N763 C761 1.384 . S
H764 C770 0.930 . S
H765 C774 0.930 . S
H766 C779 0.929 . S
H767 C777 0.929 . S
H768 C772 0.929 . S
H769 C778 0.929 . S
C770 H764 0.930 . S
C770 C771 1.367 . S
C770 C778 1.378 . S
C771 C770 1.367 . S
C771 C779 1.433 . S
C772 H768 0.929 . S
C772 C774 1.378 . S
C772 C776 1.350 . S
C773 C776 1.463 . S
C773 C778 1.350 . S
C773 N781 1.427 . S
C774 H765 0.930 . S
C774 C772 1.378 . S
C774 C775 1.367 . S
C775 C774 1.367 . S
C775 C777 1.433 . S
C776 C772 1.350 . S
C776 C773 1.463 . S
C776 N780 1.427 . S
C777 H767 0.929 . S
C777 C775 1.433 . S
C777 N780 1.384 . S
C778 H769 0.929 . S
C778 C770 1.378 . S
C778 C773 1.350 . S
C779 H766 0.929 . S
C779 C771 1.433 . S
C779 N781 1.384 . S
N780 C776 1.427 . S
N780 C777 1.384 . S
N781 C773 1.427 . S
N781 C779 1.384 . S
H782 C788 0.930 . S
H783 C792 0.930 . S
H784 C797 0.929 . S
H785 C795 0.929 . S
H786 C790 0.929 . S
H787 C796 0.929 . S
C788 H782 0.930 . S
C788 C789 1.367 . S
C788 C796 1.378 . S
C789 C788 1.367 . S
C789 C797 1.433 . S
C790 H786 0.929 . S
C790 C792 1.378 . S
C790 C794 1.350 . S
C791 C794 1.463 . S
C791 C796 1.350 . S
C791 N799 1.427 . S
C792 H783 0.930 . S
C792 C790 1.378 . S
C792 C793 1.367 . S
C793 C792 1.367 . S
C793 C795 1.433 . S
C794 C790 1.350 . S
C794 C791 1.463 . S
C794 N798 1.427 . S
C795 H785 0.929 . S
C795 C793 1.433 . S
C795 N798 1.384 . S
C796 H787 0.929 . S
C796 C788 1.378 . S
C796 C791 1.350 . S
C797 H784 0.929 . S
C797 C789 1.433 . S
C797 N799 1.384 . S
N798 C794 1.427 . S
N798 C795 1.384 . S
N799 C791 1.427 . S
N799 C797 1.384 . S
C231 C12 0.541 . S
C235 C138 0.551 . S
C249 C152 0.551 . S
C253 C26 0.542 . S
C267 C166 0.553 . S
C271 C40 0.535 . S
C285 C124 0.533 . S
C289 C54 0.550 . S
C303 C68 0.536 . S
C307 C222 0.553 . S
C321 C180 0.544 . S
C325 C82 0.549 . S
C339 C194 0.538 . S
C343 C96 0.551 . S
C357 C208 0.551 . S
C361 C110 0.532 . S
C375 C116 0.741 . S
C379 C18 0.720 . S
C393 C130 0.719 . S
C397 C32 0.737 . S
C411 C144 0.742 . S
C415 C46 0.714 . S
C429 C4 0.712 . S
C433 C158 0.742 . S
C447 C172 0.735 . S
C451 C102 0.729 . S
C465 C186 0.732 . S
C469 C60 0.707 . S
C483 C74 0.730 . S
C487 C200 0.706 . S
C501 C214 0.718 . S
C505 C88 0.712 . S
C519 C123 1.345 . S
C523 C5 1.358 . S
C537 C19 1.350 . S
C541 C137 1.363 . S
C555 C151 1.364 . S
C559 C33 1.349 . S
C573 C47 1.358 . S
C577 C165 1.345 . S
C591 C179 1.350 . S
C595 C61 1.346 . S
C609 C75 1.358 . S
C613 C193 1.345 . S
C627 C207 1.363 . S
C631 C89 1.351 . S
C645 C221 1.358 . S
C649 C103 1.355 . S
C663 C67 1.683 . S
C667 C11 1.680 . S
C681 C81 1.687 . S
C685 C25 1.694 . S
C699 C39 1.700 . S
C703 C95 1.697 . S
C717 C109 1.684 . S
C721 C53 1.691 . S
C735 C117 1.583 . S
C739 C173 1.578 . S
C753 C187 1.591 . S
C757 C131 1.586 . S
C771 C201 1.578 . S
C775 C145 1.584 . S
C789 C215 1.578 . S
C793 C159 1.576 . S
