# Generated by pormake.
# Topology unu, (4)-cn, num edge types: 1
# Building blocks:
#     Node 0, Type 0, BuildingBlock: AZAVOO_clean_sbu_0, # of connection points: 4
#     Node 1, Type 0, BuildingBlock: AZAVOO_clean_sbu_0, # of connection points: 4
#     Node 2, Type 0, BuildingBlock: AZAVOO_clean_sbu_0, # of connection points: 4
#     Node 3, Type 0, BuildingBlock: AZAVOO_clean_sbu_0, # of connection points: 4
#     Node 4, Type 0, BuildingBlock: AZAVOO_clean_sbu_0, # of connection points: 4
#     Node 5, Type 0, BuildingBlock: AZAVOO_clean_sbu_0, # of connection points: 4
#     Node 6, Type 0, BuildingBlock: AZAVOO_clean_sbu_0, # of connection points: 4
#     Node 7, Type 0, BuildingBlock: AZAVOO_clean_sbu_0, # of connection points: 4
#     Node 8, Type 0, BuildingBlock: AZAVOO_clean_sbu_0, # of connection points: 4
#     Node 9, Type 0, BuildingBlock: AZAVOO_clean_sbu_0, # of connection points: 4
#     Node 10, Type 0, BuildingBlock: AZAVOO_clean_sbu_0, # of connection points: 4
#     Node 11, Type 0, BuildingBlock: AZAVOO_clean_sbu_0, # of connection points: 4
#     Node 12, Type 0, BuildingBlock: AZAVOO_clean_sbu_0, # of connection points: 4
#     Node 13, Type 0, BuildingBlock: AZAVOO_clean_sbu_0, # of connection points: 4
#     Node 14, Type 0, BuildingBlock: AZAVOO_clean_sbu_0, # of connection points: 4
#     Node 15, Type 0, BuildingBlock: AZAVOO_clean_sbu_0, # of connection points: 4
#     Node 16, Type 0, BuildingBlock: AZAVOO_clean_sbu_0, # of connection points: 4
#     Node 17, Type 0, BuildingBlock: AZAVOO_clean_sbu_0, # of connection points: 4
#     Node 18, Type 0, BuildingBlock: AZAVOO_clean_sbu_0, # of connection points: 4
#     Node 19, Type 0, BuildingBlock: AZAVOO_clean_sbu_0, # of connection points: 4
#     Node 20, Type 0, BuildingBlock: AZAVOO_clean_sbu_0, # of connection points: 4
#     Node 21, Type 0, BuildingBlock: AZAVOO_clean_sbu_0, # of connection points: 4
#     Node 22, Type 0, BuildingBlock: AZAVOO_clean_sbu_0, # of connection points: 4
#     Node 23, Type 0, BuildingBlock: AZAVOO_clean_sbu_0, # of connection points: 4
#     Node 24, Type 0, BuildingBlock: AZAVOO_clean_sbu_0, # of connection points: 4
#     Node 25, Type 0, BuildingBlock: AZAVOO_clean_sbu_0, # of connection points: 4
#     Node 26, Type 0, BuildingBlock: AZAVOO_clean_sbu_0, # of connection points: 4
#     Node 27, Type 0, BuildingBlock: AZAVOO_clean_sbu_0, # of connection points: 4
#     Node 28, Type 0, BuildingBlock: AZAVOO_clean_sbu_0, # of connection points: 4
#     Node 29, Type 0, BuildingBlock: AZAVOO_clean_sbu_0, # of connection points: 4
#     Node 30, Type 0, BuildingBlock: AZAVOO_clean_sbu_0, # of connection points: 4
#     Node 31, Type 0, BuildingBlock: AZAVOO_clean_sbu_0, # of connection points: 4
#     Node 32, Type 0, BuildingBlock: AZAVOO_clean_sbu_0, # of connection points: 4
#     Node 33, Type 0, BuildingBlock: AZAVOO_clean_sbu_0, # of connection points: 4
#     Node 34, Type 0, BuildingBlock: AZAVOO_clean_sbu_0, # of connection points: 4
#     Node 35, Type 0, BuildingBlock: AZAVOO_clean_sbu_0, # of connection points: 4
#     Edge 36, Type (0, 0), None
#     Edge 37, Type (0, 0), None
#     Edge 38, Type (0, 0), None
#     Edge 39, Type (0, 0), None
#     Edge 40, Type (0, 0), None
#     Edge 41, Type (0, 0), None
#     Edge 42, Type (0, 0), None
#     Edge 43, Type (0, 0), None
#     Edge 44, Type (0, 0), None
#     Edge 45, Type (0, 0), None
#     Edge 46, Type (0, 0), None
#     Edge 47, Type (0, 0), None
#     Edge 48, Type (0, 0), None
#     Edge 49, Type (0, 0), None
#     Edge 50, Type (0, 0), None
#     Edge 51, Type (0, 0), None
#     Edge 52, Type (0, 0), None
#     Edge 53, Type (0, 0), None
#     Edge 54, Type (0, 0), None
#     Edge 55, Type (0, 0), None
#     Edge 56, Type (0, 0), None
#     Edge 57, Type (0, 0), None
#     Edge 58, Type (0, 0), None
#     Edge 59, Type (0, 0), None
#     Edge 60, Type (0, 0), None
#     Edge 61, Type (0, 0), None
#     Edge 62, Type (0, 0), None
#     Edge 63, Type (0, 0), None
#     Edge 64, Type (0, 0), None
#     Edge 65, Type (0, 0), None
#     Edge 66, Type (0, 0), None
#     Edge 67, Type (0, 0), None
#     Edge 68, Type (0, 0), None
#     Edge 69, Type (0, 0), None
#     Edge 70, Type (0, 0), None
#     Edge 71, Type (0, 0), None
#     Edge 72, Type (0, 0), None
#     Edge 73, Type (0, 0), None
#     Edge 74, Type (0, 0), None
#     Edge 75, Type (0, 0), None
#     Edge 76, Type (0, 0), None
#     Edge 77, Type (0, 0), None
#     Edge 78, Type (0, 0), None
#     Edge 79, Type (0, 0), None
#     Edge 80, Type (0, 0), None
#     Edge 81, Type (0, 0), None
#     Edge 82, Type (0, 0), None
#     Edge 83, Type (0, 0), None
#     Edge 84, Type (0, 0), None
#     Edge 85, Type (0, 0), None
#     Edge 86, Type (0, 0), None
#     Edge 87, Type (0, 0), None
#     Edge 88, Type (0, 0), None
#     Edge 89, Type (0, 0), None
#     Edge 90, Type (0, 0), None
#     Edge 91, Type (0, 0), None
#     Edge 92, Type (0, 0), None
#     Edge 93, Type (0, 0), None
#     Edge 94, Type (0, 0), None
#     Edge 95, Type (0, 0), None
#     Edge 96, Type (0, 0), None
#     Edge 97, Type (0, 0), None
#     Edge 98, Type (0, 0), None
#     Edge 99, Type (0, 0), None
#     Edge 100, Type (0, 0), None
#     Edge 101, Type (0, 0), None
#     Edge 102, Type (0, 0), None
#     Edge 103, Type (0, 0), None
#     Edge 104, Type (0, 0), None
#     Edge 105, Type (0, 0), None
#     Edge 106, Type (0, 0), None
#     Edge 107, Type (0, 0), None
# Relax obj value: 0.258
# Max RMSD: 0.285
# Mean RMSD: 0.284
data_MOF--net-unu--node1-AZAVOO_clean_sbu_0--edge1-none
_symmetry_space_group_name_H-M    P1
_symmetry_Int_Tables_number       1
_symmetry_cell_setting            triclinic
loop_
_symmetry_equiv_pos_as_xyz
'x, y, z'
_cell_length_a     16.391118
_cell_length_b     16.403829
_cell_length_c     60.251372
_cell_angle_alpha  89.876364
_cell_angle_beta   90.198221
_cell_angle_gamma 120.11689
loop_
_atom_site_label
_atom_site_type_symbol
_atom_site_fract_x
_atom_site_fract_y
_atom_site_fract_z
_atom_type_partial_charge
Mg0 Mg 0.2352 0.97425 0.18384 0.0
O1 O 0.20581 0.09083 0.17748 0.0
O2 O 0.1754 0.10929 0.14246 0.0
Mg3 Mg 0.17097 0.98108 0.12542 0.0
C4 C 0.18714 0.13421 0.16277 0.0
C5 C 0.33922 0.13336 0.22507 0.0
O6 O 0.34051 0.1447 0.24659 0.0
O7 O 0.3741 0.04089 0.16561 0.0
O8 O 0.32953 0.03152 0.13004 0.0
O9 O 0.08614 0.88782 0.19171 0.0
O10 O 0.14055 0.90224 0.15739 0.0
C11 C 0.39214 0.04881 0.14488 0.0
C12 C 0.06973 0.87493 0.17059 0.0
O13 O 0.29874 0.04862 0.21765 0.0
Mg14 Mg 0.0654 0.27009 0.18414 0.0
O15 O 0.94846 0.12419 0.17757 0.0
O16 O 0.93023 0.0764 0.14251 0.0
Mg17 Mg 0.0588 0.20111 0.12565 0.0
C18 C 0.90508 0.06252 0.16279 0.0
C19 C 0.90581 0.21347 0.22526 0.0
O20 O 0.89438 0.20292 0.24677 0.0
O21 O 0.99935 0.34316 0.16595 0.0
O22 O 1.0086 0.30898 0.13035 0.0
O23 O 0.15138 0.20699 0.19198 0.0
O24 O 0.13748 0.24848 0.15771 0.0
C25 C 0.99148 0.3539 0.14522 0.0
C26 C 0.16445 0.20438 0.17087 0.0
O27 O 0.99066 0.25791 0.21789 0.0
Mg28 Mg 0.76896 0.8039 0.18394 0.0
O29 O 0.91481 0.83333 0.17735 0.0
O30 O 0.96253 0.86408 0.14231 0.0
Mg31 Mg 0.83783 0.86825 0.12549 0.0
C32 C 0.97642 0.85215 0.16258 0.0
C33 C 0.8258 0.70025 0.22503 0.0
O34 O 0.83646 0.69904 0.24655 0.0
O35 O 0.69574 0.66515 0.16564 0.0
O36 O 0.72979 0.70974 0.13007 0.0
O37 O 0.8322 0.95285 0.1919 0.0
O38 O 0.79061 0.89842 0.15757 0.0
C39 C 0.68486 0.64715 0.1449 0.0
C40 C 0.83479 0.96921 0.1708 0.0
O41 O 0.78126 0.74054 0.21766 0.0
Mg42 Mg 0.94762 0.20605 0.40513 0.0
O43 O 0.0801 0.19484 0.40927 0.0
O44 O 0.10159 0.16411 0.44429 0.0
Mg45 Mg 0.97244 0.14604 0.46271 0.0
C46 C 0.12769 0.1814 0.42411 0.0
C47 C 0.07964 0.32712 0.36243 0.0
O48 O 0.08597 0.34677 0.34121 0.0
O49 O 1.01135 0.34349 0.42393 0.0
O50 O 1.02435 0.3051 0.45894 0.0
O51 O 0.87356 0.0576 0.39606 0.0
O52 O 0.89163 0.10885 0.43093 0.0
C53 C 0.0335 0.36541 0.44424 0.0
C54 C 0.86934 0.0404 0.41714 0.0
O55 O 0.99777 0.27812 0.37091 0.0
Mg56 Mg 0.83574 0.74741 0.40517 0.0
O57 O 0.84736 0.89104 0.40947 0.0
O58 O 0.87926 0.94257 0.4445 0.0
Mg59 Mg 0.89767 0.83112 0.46275 0.0
C60 C 0.86134 0.95176 0.42437 0.0
C61 C 0.71405 0.75922 0.36254 0.0
O62 O 0.69413 0.74619 0.34132 0.0
O63 O 0.69869 0.67316 0.42411 0.0
O64 O 0.7383 0.72375 0.45912 0.0
O65 O 0.98404 0.82222 0.39594 0.0
O66 O 0.9338 0.78831 0.43085 0.0
C67 C 0.67742 0.67285 0.44446 0.0
C68 C 1.00193 0.83483 0.417 0.0
O69 O 0.76285 0.7261 0.37102 0.0
Mg70 Mg 0.29507 0.09511 0.40473 0.0
O71 O 0.15137 0.96256 0.40919 0.0
O72 O 0.10087 0.94237 0.44429 0.0
Mg73 Mg 0.21331 0.07217 0.46243 0.0
C74 C 0.09099 0.91549 0.42415 0.0
C75 C 0.28211 0.96186 0.36214 0.0
O76 O 0.29466 0.95501 0.34093 0.0
O77 O 0.37017 0.03259 0.42347 0.0
O78 O 0.32026 0.02028 0.45853 0.0
O79 O 0.21984 0.16832 0.39569 0.0
O80 O 0.25513 0.15175 0.43053 0.0
C81 C 0.37089 1.01098 0.44378 0.0
C82 C 0.20805 0.17331 0.41679 0.0
O83 O 0.31523 0.04387 0.37053 0.0
Mg84 Mg 0.8352 0.09372 0.90519 0.0
O85 O 0.84659 0.96145 0.90935 0.0
O86 O 0.8779 0.94054 0.94437 0.0
Mg87 Mg 0.89625 0.06988 0.96275 0.0
C88 C 0.8603 0.91414 0.92419 0.0
C89 C 0.71367 0.96125 0.8625 0.0
O90 O 0.69386 0.95472 0.84127 0.0
O91 O 0.69794 0.0302 0.92404 0.0
O92 O 0.73699 0.01794 0.95904 0.0
O93 O 0.98359 0.16766 0.89605 0.0
O94 O 0.93292 0.15009 0.93094 0.0
C95 C 0.67636 1.00847 0.94436 0.0
C96 C 1.00119 0.17219 0.91712 0.0
O97 O 0.76263 0.04313 0.87098 0.0
Mg98 Mg 0.94638 0.74661 0.90483 0.0
O99 O 0.07906 0.89031 0.90918 0.0
O100 O 0.09998 0.94141 0.94425 0.0
Mg101 Mg 0.97046 0.8294 0.96249 0.0
C102 C 0.12646 0.95094 0.92409 0.0
C103 C 0.07899 0.75883 0.8622 0.0
O104 O 0.08553 0.74595 0.84099 0.0
O105 O 1.00935 0.67195 0.92357 0.0
O106 O 1.02224 0.72239 0.95861 0.0
O107 O 0.87288 0.82157 0.89579 0.0
O108 O 0.89016 0.78697 0.93064 0.0
C109 C 0.03131 0.67157 0.94388 0.0
C110 C 0.8683 0.83374 0.91689 0.0
O111 O 0.99703 0.72585 0.87062 0.0
Mg112 Mg 0.2942 0.20566 0.90499 0.0
O113 O 0.15054 0.19411 0.90938 0.0
O114 O 0.09961 0.16268 0.94444 0.0
Mg115 Mg 0.2116 0.14472 0.96261 0.0
C116 C 0.09003 0.18032 0.9243 0.0
C117 C 0.28163 0.32681 0.86238 0.0
O118 O 0.29435 0.34654 0.84116 0.0
O119 O 0.36891 0.3429 0.92386 0.0
O120 O 0.31877 0.30393 0.95889 0.0
O121 O 0.21914 0.05732 0.89581 0.0
O122 O 0.25385 0.10813 0.9307 0.0
C123 C 0.36949 0.36451 0.9442 0.0
C124 C 0.207 0.03981 0.91688 0.0
O125 O 0.31483 0.27803 0.87082 0.0
Mg126 Mg 0.06483 0.80442 0.6839 0.0
O127 O 0.94802 0.83362 0.67756 0.0
O128 O 0.92906 0.8635 0.64253 0.0
Mg129 Mg 0.05715 0.86774 0.62548 0.0
C130 C 0.9044 0.85205 0.66285 0.0
C131 C 0.90606 0.7008 0.72514 0.0
O132 O 0.89488 0.69968 0.74667 0.0
O133 O 0.99795 0.66537 0.66572 0.0
O134 O 1.00676 0.70939 0.63013 0.0
O135 O 0.15137 0.95353 0.69173 0.0
O136 O 0.1365 0.89861 0.65743 0.0
C137 C 0.9897 0.64704 0.64499 0.0
C138 C 0.16398 0.96958 0.6706 0.0
O139 O 0.99081 0.74132 0.71773 0.0
Mg140 Mg 0.23514 0.27037 0.68378 0.0
O141 O 0.20561 0.12449 0.6773 0.0
O142 O 0.1745 0.07621 0.64227 0.0
Mg143 Mg 0.17 0.20043 0.62537 0.0
C144 C 0.18664 0.06268 0.66255 0.0
C145 C 0.33931 0.2144 0.72493 0.0
O146 O 0.34074 0.20415 0.74646 0.0
O147 O 0.37377 0.34321 0.66545 0.0
O148 O 0.32867 0.30863 0.62989 0.0
O149 O 0.08619 0.20734 0.69177 0.0
O150 O 0.14017 0.24817 0.65742 0.0
C151 C 0.39151 0.35378 0.6447 0.0
C152 C 0.06951 0.2043 0.67067 0.0
O153 O 0.29896 0.25882 0.71752 0.0
Mg154 Mg 0.76872 0.97402 0.6842 0.0
O155 O 0.91455 0.09079 0.67752 0.0
O156 O 0.96181 0.10829 0.64244 0.0
Mg157 Mg 0.83671 0.97945 0.62569 0.0
C158 C 0.97601 0.13386 0.66271 0.0
C159 C 0.82615 0.13428 0.72525 0.0
O160 O 0.83709 0.14603 0.74676 0.0
O161 O 0.69522 0.03959 0.666 0.0
O162 O 0.72886 0.02972 0.6304 0.0
O163 O 0.83206 0.88833 0.69206 0.0
O164 O 0.7899 0.90149 0.65779 0.0
C165 C 0.68413 0.04706 0.64527 0.0
C166 C 0.83429 0.87483 0.67095 0.0
O167 O 0.78155 0.04938 0.71792 0.0
Mg168 Mg 0.96335 0.38933 0.49407 0.0
O169 O 0.894 0.48583 0.49204 0.0
O170 O 0.81688 0.45585 0.45931 0.0
Mg171 Mg 0.85552 0.36792 0.43793 0.0
C172 C 0.83864 0.49523 0.47836 0.0
C173 C 0.0662 0.50877 0.54126 0.0
O174 O 0.14389 0.55049 0.55311 0.0
O175 O 0.08483 0.48431 0.47101 0.0
O176 O 1.00585 0.48916 0.44321 0.0
O177 O 0.82131 0.27109 0.50605 0.0
O178 O 0.85916 0.30239 0.47071 0.0
C179 C 0.05926 0.46124 0.45105 0.0
C180 C 0.79566 0.2559 0.48541 0.0
O181 O 0.06574 0.46779 0.52331 0.0
Mg182 Mg 0.65652 0.57912 0.49403 0.0
O183 O 0.55938 0.41256 0.4924 0.0
O184 O 0.58651 0.3658 0.45942 0.0
Mg185 Mg 0.67346 0.49204 0.43774 0.0
C186 C 0.54868 0.34786 0.47863 0.0
C187 C 0.53812 0.56761 0.54142 0.0
O188 O 0.5045 0.61105 0.55327 0.0
O189 O 0.55928 0.60423 0.47139 0.0
O190 O 0.55286 0.52142 0.44333 0.0
O191 O 0.77548 0.55643 0.50566 0.0
O192 O 0.74092 0.56075 0.47039 0.0
C193 C 0.58159 0.60255 0.45135 0.0
C194 C 0.78864 0.54468 0.485 0.0
O195 O 0.58369 0.60685 0.52379 0.0
Mg196 Mg 0.46415 0.08024 0.49362 0.0
O197 O 0.6308 0.15025 0.49233 0.0
O198 O 0.67816 0.2268 0.4596 0.0
Mg199 Mg 0.5524 0.18919 0.43774 0.0
C200 C 0.69578 0.20555 0.47873 0.0
C201 C 0.47558 0.97447 0.54084 0.0
O202 O 0.43765 0.89628 0.55247 0.0
O203 O 0.43935 0.95989 0.47046 0.0
O204 O 0.52248 0.03862 0.44263 0.0
O205 O 0.48736 0.2217 0.50573 0.0
O206 O 0.4828 0.18493 0.47038 0.0
C207 C 0.44121 0.98532 0.45051 0.0
C208 C 0.4991 0.24792 0.48514 0.0
O209 O 0.43699 0.97625 0.52263 0.0
Mg210 Mg 0.66172 0.56899 0.75172 0.0
O211 O 0.77383 0.53352 0.75865 0.0
O212 O 0.79193 0.50508 0.79381 0.0
Mg213 Mg 0.66667 0.50925 0.81041 0.0
C214 C 0.81565 0.51328 0.77346 0.0
C215 C 0.82232 0.66652 0.71045 0.0
O216 O 0.83331 0.66487 0.68897 0.0
O217 O 0.73265 0.71 0.76915 0.0
O218 O 0.71961 0.66863 0.80499 0.0
O219 O 0.57023 0.42031 0.74428 0.0
O220 O 0.58643 0.47669 0.77844 0.0
C221 C 0.73869 0.73013 0.78976 0.0
C222 C 0.55601 0.40485 0.76539 0.0
O223 O 0.73763 0.62782 0.71785 0.0
Mg224 Mg 0.4706 0.10074 0.7515 0.0
O225 O 0.50645 0.24813 0.7586 0.0
O226 O 0.53553 0.29396 0.79378 0.0
Mg227 Mg 0.53121 0.164 0.81025 0.0
C228 C 0.52702 0.30991 0.77344 0.0
C229 C 0.37302 0.16493 0.71025 0.0
O230 O 0.37433 0.17774 0.68876 0.0
O231 O 0.3297 0.02989 0.76895 0.0
O232 O 0.37167 0.05755 0.80479 0.0
O233 O 0.61935 0.15848 0.74409 0.0
O234 O 0.56301 0.11706 0.77821 0.0
C235 C 0.30988 1.01535 0.78956 0.0
C236 C 0.63485 0.15905 0.76519 0.0
O237 O 0.41154 0.11876 0.71766 0.0
Mg238 Mg 0.93947 0.37879 0.75166 0.0
O239 O 0.79177 0.26677 0.75853 0.0
O240 O 0.7458 0.24873 0.79368 0.0
Mg241 Mg 0.87588 0.37398 0.81034 0.0
C242 C 0.72987 0.22495 0.77332 0.0
C243 C 0.8751 0.21761 0.71047 0.0
O244 O 0.86177 0.20603 0.689 0.0
O245 O 1.0097 0.30797 0.76908 0.0
O246 O 0.98185 0.32075 0.80493 0.0
O247 O 0.88216 0.47012 0.74425 0.0
O248 O 0.92321 0.45412 0.7784 0.0
C249 C 1.02396 0.30168 0.78969 0.0
C250 C 0.88147 0.4844 0.76536 0.0
O251 O 0.92135 0.30245 0.7178 0.0
Mg252 Mg 0.47099 0.37794 0.25165 0.0
O253 O 0.5066 0.26608 0.25866 0.0
O254 O 0.53548 0.24859 0.29384 0.0
Mg255 Mg 0.53144 0.37403 0.31036 0.0
C256 C 0.52705 0.22455 0.27349 0.0
C257 C 0.37322 0.21689 0.21038 0.0
O258 O 0.37473 0.20575 0.1889 0.0
O259 O 0.33004 0.30739 0.26909 0.0
O260 O 0.37193 0.32111 0.30493 0.0
O261 O 0.6197 0.46925 0.24421 0.0
O262 O 0.56356 0.4536 0.27836 0.0
C263 C 0.31019 0.30178 0.2897 0.0
C264 C 0.63533 0.48379 0.26531 0.0
O265 O 0.41187 0.30157 0.21779 0.0
Mg266 Mg 0.66147 0.10056 0.25174 0.0
O267 O 0.77366 0.24828 0.25858 0.0
O268 O 0.79209 0.2946 0.29373 0.0
Mg269 Mg 0.66695 0.16479 0.31041 0.0
C270 C 0.81565 0.31031 0.27336 0.0
C271 C 0.82219 0.16431 0.21051 0.0
O272 O 0.83344 0.17731 0.18904 0.0
O273 O 0.73256 0.03059 0.26917 0.0
O274 O 0.72009 0.05874 0.30501 0.0
O275 O 0.56998 0.1577 0.24432 0.0
O276 O 0.58638 0.11717 0.27847 0.0
C277 C 0.73902 0.01651 0.28977 0.0
C278 C 0.55591 0.15869 0.26542 0.0
O279 O 0.7374 0.11819 0.21787 0.0
Mg280 Mg 0.93961 0.56915 0.25152 0.0
O281 O 0.79213 0.53328 0.25856 0.0
O282 O 0.74647 0.50459 0.29373 0.0
Mg283 Mg 0.87665 0.50921 0.31025 0.0
C284 C 0.73039 0.51286 0.27339 0.0
C285 C 0.87498 0.66635 0.2103 0.0
O286 O 0.86182 0.66488 0.18882 0.0
O287 O 1.01038 0.71011 0.26895 0.0
O288 O 0.98287 0.66864 0.30479 0.0
O289 O 0.88191 0.42044 0.24411 0.0
O290 O 0.92354 0.47714 0.27824 0.0
C291 C 0.02495 0.73021 0.28956 0.0
C292 C 0.88149 0.4052 0.26522 0.0
O293 O 0.92124 0.62784 0.21767 0.0
Mg294 Mg 0.65351 0.07969 0.99411 0.0
O295 O 0.55672 0.14889 0.99211 0.0
O296 O 0.58583 0.22494 0.9593 0.0
Mg297 Mg 0.67338 0.18599 0.93788 0.0
C298 C 0.54693 0.20378 0.97839 0.0
C299 C 0.53397 0.97545 1.04135 0.0
O300 O 0.49491 0.89782 0.05318 0.0
O301 O 0.55783 0.95774 0.97119 0.0
O302 O 0.55231 0.0358 0.9433 0.0
O303 O 0.77204 0.22173 1.00596 0.0
O304 O 0.73965 0.18333 0.97065 0.0
C305 C 0.58054 0.98277 0.9512 0.0
C306 C 0.78658 0.24702 0.98531 0.0
O307 O 0.5768 0.97802 1.02354 0.0
Mg308 Mg 0.96232 0.578 0.99377 0.0
O309 O 0.89239 0.41166 0.99223 0.0
O310 O 0.81506 0.36429 0.95954 0.0
Mg311 Mg 0.85284 0.49034 0.93785 0.0
C312 C 0.83678 0.34672 0.97862 0.0
C313 C 0.0666 0.56428 1.04095 0.0
O314 O 0.14465 0.60031 0.05267 0.0
O315 O 0.08279 0.60353 0.97057 0.0
O316 O 1.00343 0.52001 0.94279 0.0
O317 O 0.82068 0.55446 1.00591 0.0
O318 O 0.8575 0.55995 0.97055 0.0
C319 C 0.05699 0.60134 0.95063 0.0
C320 C 0.79444 0.5433 0.98531 0.0
O321 O 0.0662 0.6036 1.02276 0.0
Mg322 Mg 0.46286 0.38606 0.99383 0.0
O323 O 0.62961 0.48314 0.99246 0.0
O324 O 0.67655 0.45575 0.95953 0.0
Mg325 Mg 0.55059 0.36848 0.93769 0.0
C326 C 0.69442 0.4937 0.97874 0.0
C327 C 0.47339 0.5037 1.04119 0.0
O328 O 0.43092 0.53873 0.05291 0.0
O329 O 0.43827 0.48311 0.97105 0.0
O330 O 0.52098 0.48901 0.94305 0.0
O331 O 0.48547 0.2672 1.00559 0.0
O332 O 0.48159 0.3015 0.97031 0.0
C333 C 0.43984 0.46042 0.95103 0.0
C334 C 0.49748 0.2539 0.98496 0.0
O335 O 0.43456 0.45945 1.02336 0.0
Mg336 Mg 0.61802 0.73205 0.83177 0.0
O337 O 0.54108 0.81398 0.82403 0.0
O338 O 0.49155 0.80675 0.78897 0.0
Mg339 Mg 0.55785 0.72928 0.77174 0.0
C340 C 0.49802 0.83371 0.80908 0.0
C341 C 0.68259 0.87539 0.87579 0.0
O342 O 0.67409 0.87927 0.89731 0.0
O343 O 0.75745 0.8424 0.81631 0.0
O344 O 0.70181 0.84761 0.78449 0.0
O345 O 0.48017 0.6099 0.83804 0.0
O346 O 0.53742 0.64774 0.80387 0.0
C347 C 0.75145 0.82295 0.79578 0.0
C348 C 0.46664 0.59755 0.81688 0.0
O349 O 0.65343 0.79474 0.86701 0.0
Mg350 Mg 0.30842 0.89246 0.83164 0.0
O351 O 0.22612 0.7335 0.82399 0.0
O352 O 0.23313 0.69154 0.78896 0.0
Mg353 Mg 0.31063 0.83561 0.77167 0.0
C354 C 0.20624 0.67081 0.80908 0.0
C355 C 0.16493 0.81313 0.87557 0.0
O356 O 0.16083 0.8003 0.89709 0.0
O357 O 0.19789 0.9213 0.81614 0.0
O358 O 0.19234 0.86065 0.78436 0.0
O359 O 0.43059 0.87691 0.83797 0.0
O360 O 0.39259 0.89658 0.80378 0.0
C361 C 0.21707 0.93493 0.7956 0.0
C362 C 0.44277 0.87591 0.81683 0.0
O363 O 0.24579 0.86467 0.86686 0.0
Mg364 Mg 0.14733 0.42212 0.83174 0.0
O365 O 0.30625 0.49914 0.82402 0.0
O366 O 0.34801 0.54855 0.78898 0.0
Mg367 Mg 0.20363 0.48197 0.77172 0.0
C368 C 0.36889 0.54216 0.8091 0.0
C369 C 0.22719 0.35782 0.87572 0.0
O370 O 0.24013 0.36629 0.89724 0.0
O371 O 0.11789 0.28285 0.81625 0.0
O372 O 0.17834 0.33838 0.78446 0.0
O373 O 0.16328 0.55986 0.83801 0.0
O374 O 0.1431 0.50245 0.80384 0.0
C375 C 0.10407 0.28881 0.79572 0.0
C376 C 0.16402 0.57322 0.81686 0.0
O377 O 0.17548 0.38692 0.86697 0.0
Mg378 Mg 0.40469 0.95539 0.09606 0.0
O379 O 0.49709 0.88128 0.09861 0.0
O380 O 0.46901 0.80961 0.13197 0.0
Mg381 Mg 0.38422 0.85599 0.15281 0.0
C382 C 0.50622 0.82697 0.11267 0.0
C383 C 0.52516 0.05562 0.04842 0.0
O384 O 0.56507 0.13355 1.03672 0.0
O385 O 0.50522 0.08087 0.11771 0.0
O386 O 0.50599 1.00608 0.14669 0.0
O387 O 0.28289 0.81431 0.0849 0.0
O388 O 0.31642 0.85466 0.12006 0.0
C389 C 0.48432 0.06317 0.13803 0.0
C390 C 0.26767 0.79029 0.10561 0.0
O391 O 0.48207 0.05314 0.06617 0.0
Mg392 Mg 0.08321 0.45993 0.09621 0.0
O393 O 0.15806 0.62678 0.09841 0.0
O394 O 0.23096 0.6705 0.13167 0.0
Mg395 Mg 0.18546 0.53947 0.1527 0.0
C396 C 0.21308 0.69035 0.11238 0.0
C397 C 0.98311 0.47907 0.04861 0.0
O398 O 0.90481 0.4437 1.03701 0.0
O399 O 0.95895 0.43524 0.11813 0.0
O400 O 0.03499 0.51071 0.147 0.0
O401 O 0.22399 0.4795 0.08477 0.0
O402 O 0.18495 0.47263 0.11998 0.0
C403 C 0.9773 0.43191 0.13842 0.0
C404 C 0.2488 0.48841 0.10544 0.0
O405 O 0.98341 0.43928 0.06672 0.0
Mg406 Mg 0.57994 0.63652 0.09625 0.0
O407 O 0.41263 0.54395 0.09808 0.0
O408 O 0.36884 0.56972 0.13159 0.0
Mg409 Mg 0.49936 0.65399 0.15292 0.0
C410 C 0.34898 0.5338 0.11214 0.0
C411 C 0.56478 0.51845 0.04841 0.0
O412 O 0.60684 0.48273 1.0368 0.0
O413 O 0.60267 0.53417 0.11768 0.0
O414 O 0.52819 0.53278 0.14681 0.0
O415 O 0.56183 0.75886 0.08526 0.0
O416 O 0.56615 0.72293 0.12038 0.0
C417 C 0.60677 0.55488 0.13803 0.0
C418 C 0.55157 0.77257 0.10597 0.0
O419 O 0.60384 0.56278 0.0662 0.0
Mg420 Mg 0.08216 0.63317 0.59605 0.0
O421 O 0.15637 0.54103 0.59872 0.0
O422 O 0.22925 0.57034 0.63198 0.0
Mg423 Mg 0.18308 0.65559 0.65272 0.0
C424 C 0.21122 0.53245 0.61274 0.0
C425 C 0.98334 0.51247 0.54848 0.0
O426 O 0.90537 0.4698 0.53677 0.0
O427 O 0.95702 0.53361 0.61785 0.0
O428 O 0.03288 0.5336 0.64673 0.0
O429 O 0.22332 0.75452 0.58473 0.0
O430 O 0.18343 0.72241 0.61992 0.0
C431 C 0.97533 0.55489 0.63816 0.0
C432 C 0.24765 0.77056 0.60543 0.0
O433 O 0.98372 0.55382 0.56636 0.0
Mg434 Mg 0.40151 0.45884 0.59614 0.0
O435 O 0.49418 0.62595 0.59817 0.0
O436 O 0.46876 0.66969 0.63173 0.0
Mg437 Mg 0.38479 0.53905 0.65293 0.0
C438 C 0.50451 0.68954 0.61228 0.0
C439 C 0.52018 0.47475 0.54828 0.0
O440 O 0.55444 0.43167 0.53654 0.0
O441 O 0.5041 0.43573 0.61744 0.0
O442 O 0.50601 0.51035 0.64661 0.0
O443 O 0.27905 0.47696 0.58527 0.0
O444 O 0.31533 0.47243 0.62037 0.0
C445 C 0.48373 0.43178 0.63781 0.0
C446 C 0.26552 0.48707 0.606 0.0
O447 O 0.47459 0.43532 0.56589 0.0
Mg448 Mg 0.57859 0.95497 0.59633 0.0
O449 O 0.4114 0.87996 0.59822 0.0
O450 O 0.36759 0.80801 0.63155 0.0
Mg451 Mg 0.49828 0.85339 0.65279 0.0
C452 C 0.34775 0.82532 0.6122 0.0
C453 C 0.56191 0.05649 0.54864 0.0
O454 O 0.59923 0.13493 0.53712 0.0
O455 O 0.60228 0.07906 0.61817 0.0
O456 O 0.5273 1.00385 0.64711 0.0
O457 O 0.5595 0.81439 0.58495 0.0
O458 O 0.56524 0.85343 0.62015 0.0
C459 C 0.60601 0.0612 0.63847 0.0
C460 C 0.54991 0.78962 0.60562 0.0
O461 O 0.6009 0.05482 0.56678 0.0
Mg462 Mg 0.30878 0.4229 0.33173 0.0
O463 O 0.22665 0.49966 0.32402 0.0
O464 O 0.23365 0.54894 0.28897 0.0
Mg465 Mg 0.31105 0.48261 0.27172 0.0
C466 C 0.20681 0.5426 0.30908 0.0
C467 C 0.16569 0.35848 0.37573 0.0
O468 O 0.16195 0.36711 0.39726 0.0
O469 O 0.1982 0.28344 0.31626 0.0
O470 O 0.19273 0.33884 0.28445 0.0
O471 O 0.43105 0.56073 0.33802 0.0
O472 O 0.39294 0.50332 0.30384 0.0
C473 C 0.21742 0.28924 0.29572 0.0
C474 C 0.44324 0.57414 0.31687 0.0
O475 O 0.24637 0.38772 0.36696 0.0
Mg476 Mg 0.61875 0.89337 0.3318 0.0
O477 O 0.54167 0.73448 0.32405 0.0
O478 O 0.49207 0.69253 0.28899 0.0
Mg479 Mg 0.55854 0.83671 0.27176 0.0
C480 C 0.49858 0.67179 0.30911 0.0
C481 C 0.68325 0.81394 0.37583 0.0
O482 O 0.67489 0.80133 0.39736 0.0
O483 O 0.75808 0.92283 0.31633 0.0
O484 O 0.70237 0.86222 0.28453 0.0
O485 O 0.48094 0.87741 0.33805 0.0
O486 O 0.53822 0.89737 0.30388 0.0
C487 C 0.75197 0.93652 0.2958 0.0
C488 C 0.46745 0.87653 0.31689 0.0
O489 O 0.65418 0.86557 0.36704 0.0
Mg490 Mg 0.14814 0.73223 0.33164 0.0
O491 O 0.30711 0.81443 0.32399 0.0
O492 O 0.34889 0.80718 0.28897 0.0
Mg493 Mg 0.20458 0.72952 0.27167 0.0
C494 C 0.36975 0.83424 0.30908 0.0
C495 C 0.22799 0.87617 0.37554 0.0
O496 O 0.24113 0.8806 0.39706 0.0
O497 O 0.11911 0.84249 0.31613 0.0
O498 O 0.1796 0.84782 0.28436 0.0
O499 O 0.16383 0.61023 0.33797 0.0
O500 O 0.14384 0.6479 0.30378 0.0
C501 C 0.10534 0.82309 0.2956 0.0
C502 C 0.16464 0.59787 0.31682 0.0
O503 O 0.17632 0.79523 0.36685 0.0
loop_
_geom_bond_atom_site_label_1
_geom_bond_atom_site_label_2
_geom_bond_distance
_geom_bond_site_symmetry_2
_ccdc_geom_bond_type
Mg0 O1 2.028 . S
Mg0 O7 1.986 . S
Mg0 O9 2.114 1_545 S
Mg0 O10 2.251 1_545 S
Mg0 O13 2.010 . S
O1 Mg0 2.028 . S
O1 C4 1.250 . S
O2 Mg3 2.028 1_545 S
O2 C4 1.248 . S
Mg3 O2 2.028 1_565 S
Mg3 O8 2.032 1_565 S
Mg3 O10 2.079 . S
C4 O1 1.250 . S
C4 O2 1.248 . S
C5 O6 1.264 . S
C5 O13 1.249 . S
O6 C5 1.264 . S
O7 Mg0 1.986 . S
O7 C11 1.246 . S
O8 Mg3 2.032 1_545 S
O8 C11 1.259 . S
O9 Mg0 2.114 1_565 S
O9 C12 1.252 . S
O10 Mg0 2.251 1_565 S
O10 Mg3 2.079 . S
O10 C12 1.273 . S
C11 O7 1.246 . S
C11 O8 1.259 . S
C12 O9 1.252 . S
C12 O10 1.273 . S
O13 Mg0 2.010 . S
O13 C5 1.249 . S
Mg14 O15 2.028 . S
Mg14 O21 1.986 . S
Mg14 O23 2.114 1_655 S
Mg14 O24 2.251 1_655 S
Mg14 O27 2.010 . S
O15 Mg14 2.028 . S
O15 C18 1.250 . S
O16 Mg17 2.028 1_655 S
O16 C18 1.248 . S
Mg17 O16 2.028 1_455 S
Mg17 O22 2.032 1_455 S
Mg17 O24 2.079 . S
C18 O15 1.250 . S
C18 O16 1.248 . S
C19 O20 1.264 . S
C19 O27 1.249 . S
O20 C19 1.264 . S
O21 Mg14 1.986 . S
O21 C25 1.246 . S
O22 Mg17 2.032 1_655 S
O22 C25 1.259 . S
O23 Mg14 2.114 1_455 S
O23 C26 1.252 . S
O24 Mg14 2.251 1_455 S
O24 Mg17 2.079 . S
O24 C26 1.273 . S
C25 O21 1.246 . S
C25 O22 1.259 . S
C26 O23 1.252 . S
C26 O24 1.273 . S
O27 Mg14 2.010 . S
O27 C19 1.249 . S
Mg28 O29 2.028 . S
Mg28 O35 1.986 . S
Mg28 O37 2.114 . S
Mg28 O38 2.251 . S
Mg28 O41 2.010 . S
O29 Mg28 2.028 . S
O29 C32 1.250 . S
O30 Mg31 2.028 . S
O30 C32 1.248 . S
Mg31 O30 2.028 . S
Mg31 O36 2.032 . S
Mg31 O38 2.079 . S
C32 O29 1.250 . S
C32 O30 1.248 . S
C33 O34 1.264 . S
C33 O41 1.249 . S
O34 C33 1.264 . S
O35 Mg28 1.986 . S
O35 C39 1.246 . S
O36 Mg31 2.032 . S
O36 C39 1.259 . S
O37 Mg28 2.114 . S
O37 C40 1.252 . S
O38 Mg28 2.251 . S
O38 Mg31 2.079 . S
O38 C40 1.273 . S
C39 O35 1.246 . S
C39 O36 1.259 . S
C40 O37 1.252 . S
C40 O38 1.273 . S
O41 Mg28 2.010 . S
O41 C33 1.249 . S
Mg42 O43 2.028 . S
Mg42 O49 1.986 . S
Mg42 O51 2.114 1_455 S
Mg42 O52 2.251 1_455 S
Mg42 O55 2.010 . S
O43 Mg42 2.028 . S
O43 C46 1.250 . S
O44 Mg45 2.028 1_455 S
O44 C46 1.248 . S
Mg45 O44 2.028 1_655 S
Mg45 O50 2.032 1_655 S
Mg45 O52 2.079 . S
C46 O43 1.250 . S
C46 O44 1.248 . S
C47 O48 1.264 . S
C47 O55 1.249 . S
O48 C47 1.264 . S
O49 Mg42 1.986 . S
O49 C53 1.246 . S
O50 Mg45 2.032 1_455 S
O50 C53 1.259 . S
O51 Mg42 2.114 1_655 S
O51 C54 1.252 . S
O52 Mg42 2.251 1_655 S
O52 Mg45 2.079 . S
O52 C54 1.273 . S
C53 O49 1.246 . S
C53 O50 1.259 . S
C54 O51 1.252 . S
C54 O52 1.273 . S
O55 Mg42 2.010 . S
O55 C47 1.249 . S
Mg56 O57 2.028 . S
Mg56 O63 1.986 . S
Mg56 O65 2.114 . S
Mg56 O66 2.251 . S
Mg56 O69 2.010 . S
O57 Mg56 2.028 . S
O57 C60 1.250 . S
O58 Mg59 2.028 . S
O58 C60 1.248 . S
Mg59 O58 2.028 . S
Mg59 O64 2.032 . S
Mg59 O66 2.079 . S
C60 O57 1.250 . S
C60 O58 1.248 . S
C61 O62 1.264 . S
C61 O69 1.249 . S
O62 C61 1.264 . S
O63 Mg56 1.986 . S
O63 C67 1.246 . S
O64 Mg59 2.032 . S
O64 C67 1.259 . S
O65 Mg56 2.114 . S
O65 C68 1.252 . S
O66 Mg56 2.251 . S
O66 Mg59 2.079 . S
O66 C68 1.273 . S
C67 O63 1.246 . S
C67 O64 1.259 . S
C68 O65 1.252 . S
C68 O66 1.273 . S
O69 Mg56 2.010 . S
O69 C61 1.249 . S
Mg70 O71 2.028 . S
Mg70 O77 1.986 . S
Mg70 O79 2.114 1_565 S
Mg70 O80 2.251 1_565 S
Mg70 O83 2.010 . S
O71 Mg70 2.028 . S
O71 C74 1.250 . S
O72 Mg73 2.028 1_565 S
O72 C74 1.248 . S
Mg73 O72 2.028 1_545 S
Mg73 O78 2.032 1_545 S
Mg73 O80 2.079 . S
C74 O71 1.250 . S
C74 O72 1.248 . S
C75 O76 1.264 . S
C75 O83 1.249 . S
O76 C75 1.264 . S
O77 Mg70 1.986 . S
O77 C81 1.246 . S
O78 Mg73 2.032 1_565 S
O78 C81 1.259 . S
O79 Mg70 2.114 1_545 S
O79 C82 1.252 . S
O80 Mg70 2.251 1_545 S
O80 Mg73 2.079 . S
O80 C82 1.273 . S
C81 O77 1.246 . S
C81 O78 1.259 . S
C82 O79 1.252 . S
C82 O80 1.273 . S
O83 Mg70 2.010 . S
O83 C75 1.249 . S
Mg84 O85 2.028 . S
Mg84 O91 1.986 . S
Mg84 O93 2.114 1_565 S
Mg84 O94 2.251 1_565 S
Mg84 O97 2.010 . S
O85 Mg84 2.028 . S
O85 C88 1.250 . S
O86 Mg87 2.028 1_565 S
O86 C88 1.248 . S
Mg87 O86 2.028 1_545 S
Mg87 O92 2.032 1_545 S
Mg87 O94 2.079 . S
C88 O85 1.250 . S
C88 O86 1.248 . S
C89 O90 1.264 . S
C89 O97 1.249 . S
O90 C89 1.264 . S
O91 Mg84 1.986 . S
O91 C95 1.246 . S
O92 Mg87 2.032 1_565 S
O92 C95 1.259 . S
O93 Mg84 2.114 1_545 S
O93 C96 1.252 . S
O94 Mg84 2.251 1_545 S
O94 Mg87 2.079 . S
O94 C96 1.273 . S
C95 O91 1.246 . S
C95 O92 1.259 . S
C96 O93 1.252 . S
C96 O94 1.273 . S
O97 Mg84 2.010 . S
O97 C89 1.249 . S
Mg98 O99 2.028 . S
Mg98 O105 1.986 . S
Mg98 O107 2.114 1_455 S
Mg98 O108 2.251 1_455 S
Mg98 O111 2.010 . S
O99 Mg98 2.028 . S
O99 C102 1.250 . S
O100 Mg101 2.028 1_455 S
O100 C102 1.248 . S
Mg101 O100 2.028 1_655 S
Mg101 O106 2.032 1_655 S
Mg101 O108 2.079 . S
C102 O99 1.250 . S
C102 O100 1.248 . S
C103 O104 1.264 . S
C103 O111 1.249 . S
O104 C103 1.264 . S
O105 Mg98 1.986 . S
O105 C109 1.246 . S
O106 Mg101 2.032 1_455 S
O106 C109 1.259 . S
O107 Mg98 2.114 1_655 S
O107 C110 1.252 . S
O108 Mg98 2.251 1_655 S
O108 Mg101 2.079 . S
O108 C110 1.273 . S
C109 O105 1.246 . S
C109 O106 1.259 . S
C110 O107 1.252 . S
C110 O108 1.273 . S
O111 Mg98 2.010 . S
O111 C103 1.249 . S
Mg112 O113 2.028 . S
Mg112 O119 1.986 . S
Mg112 O121 2.114 . S
Mg112 O122 2.251 . S
Mg112 O125 2.010 . S
O113 Mg112 2.028 . S
O113 C116 1.250 . S
O114 Mg115 2.028 . S
O114 C116 1.248 . S
Mg115 O114 2.028 . S
Mg115 O120 2.032 . S
Mg115 O122 2.079 . S
C116 O113 1.250 . S
C116 O114 1.248 . S
C117 O118 1.264 . S
C117 O125 1.249 . S
O118 C117 1.264 . S
O119 Mg112 1.986 . S
O119 C123 1.246 . S
O120 Mg115 2.032 . S
O120 C123 1.259 . S
O121 Mg112 2.114 . S
O121 C124 1.252 . S
O122 Mg112 2.251 . S
O122 Mg115 2.079 . S
O122 C124 1.273 . S
C123 O119 1.246 . S
C123 O120 1.259 . S
C124 O121 1.252 . S
C124 O122 1.273 . S
O125 Mg112 2.010 . S
O125 C117 1.249 . S
Mg126 O127 2.028 . S
Mg126 O133 1.986 . S
Mg126 O135 2.114 1_655 S
Mg126 O136 2.251 1_655 S
Mg126 O139 2.010 . S
O127 Mg126 2.028 . S
O127 C130 1.250 . S
O128 Mg129 2.028 1_655 S
O128 C130 1.248 . S
Mg129 O128 2.028 1_455 S
Mg129 O134 2.032 1_455 S
Mg129 O136 2.079 . S
C130 O127 1.250 . S
C130 O128 1.248 . S
C131 O132 1.264 . S
C131 O139 1.249 . S
O132 C131 1.264 . S
O133 Mg126 1.986 . S
O133 C137 1.246 . S
O134 Mg129 2.032 1_655 S
O134 C137 1.259 . S
O135 Mg126 2.114 1_455 S
O135 C138 1.252 . S
O136 Mg126 2.251 1_455 S
O136 Mg129 2.079 . S
O136 C138 1.273 . S
C137 O133 1.246 . S
C137 O134 1.259 . S
C138 O135 1.252 . S
C138 O136 1.273 . S
O139 Mg126 2.010 . S
O139 C131 1.249 . S
Mg140 O141 2.028 . S
Mg140 O147 1.986 . S
Mg140 O149 2.114 . S
Mg140 O150 2.251 . S
Mg140 O153 2.010 . S
O141 Mg140 2.028 . S
O141 C144 1.250 . S
O142 Mg143 2.028 . S
O142 C144 1.248 . S
Mg143 O142 2.028 . S
Mg143 O148 2.032 . S
Mg143 O150 2.079 . S
C144 O141 1.250 . S
C144 O142 1.248 . S
C145 O146 1.264 . S
C145 O153 1.249 . S
O146 C145 1.264 . S
O147 Mg140 1.986 . S
O147 C151 1.246 . S
O148 Mg143 2.032 . S
O148 C151 1.259 . S
O149 Mg140 2.114 . S
O149 C152 1.252 . S
O150 Mg140 2.251 . S
O150 Mg143 2.079 . S
O150 C152 1.273 . S
C151 O147 1.246 . S
C151 O148 1.259 . S
C152 O149 1.252 . S
C152 O150 1.273 . S
O153 Mg140 2.010 . S
O153 C145 1.249 . S
Mg154 O155 2.028 . S
Mg154 O161 1.986 . S
Mg154 O163 2.114 1_545 S
Mg154 O164 2.251 1_545 S
Mg154 O167 2.010 . S
O155 Mg154 2.028 . S
O155 C158 1.250 . S
O156 Mg157 2.028 1_545 S
O156 C158 1.248 . S
Mg157 O156 2.028 1_565 S
Mg157 O162 2.032 1_565 S
Mg157 O164 2.079 . S
C158 O155 1.250 . S
C158 O156 1.248 . S
C159 O160 1.264 . S
C159 O167 1.249 . S
O160 C159 1.264 . S
O161 Mg154 1.986 . S
O161 C165 1.246 . S
O162 Mg157 2.032 1_545 S
O162 C165 1.259 . S
O163 Mg154 2.114 1_565 S
O163 C166 1.252 . S
O164 Mg154 2.251 1_565 S
O164 Mg157 2.079 . S
O164 C166 1.273 . S
C165 O161 1.246 . S
C165 O162 1.259 . S
C166 O163 1.252 . S
C166 O164 1.273 . S
O167 Mg154 2.010 . S
O167 C159 1.249 . S
Mg168 O169 2.028 . S
Mg168 O175 1.986 . S
Mg168 O177 2.114 . S
Mg168 O178 2.251 . S
Mg168 O181 2.010 . S
O169 Mg168 2.028 . S
O169 C172 1.250 . S
O170 Mg171 2.028 . S
O170 C172 1.248 . S
Mg171 O170 2.028 . S
Mg171 O176 2.032 . S
Mg171 O178 2.079 . S
C172 O169 1.250 . S
C172 O170 1.248 . S
C173 O174 1.264 . S
C173 O181 1.249 1_455 S
O174 C173 1.264 . S
O175 Mg168 1.986 . S
O175 C179 1.246 . S
O176 Mg171 2.032 . S
O176 C179 1.259 . S
O177 Mg168 2.114 . S
O177 C180 1.252 . S
O178 Mg168 2.251 . S
O178 Mg171 2.079 . S
O178 C180 1.273 . S
C179 O175 1.246 . S
C179 O176 1.259 . S
C180 O177 1.252 . S
C180 O178 1.273 . S
O181 Mg168 2.010 . S
O181 C173 1.249 1_655 S
Mg182 O183 2.028 . S
Mg182 O189 1.986 . S
Mg182 O191 2.114 . S
Mg182 O192 2.251 . S
Mg182 O195 2.010 . S
O183 Mg182 2.028 . S
O183 C186 1.250 . S
O184 Mg185 2.028 . S
O184 C186 1.248 . S
Mg185 O184 2.028 . S
Mg185 O190 2.032 . S
Mg185 O192 2.079 . S
C186 O183 1.250 . S
C186 O184 1.248 . S
C187 O188 1.264 . S
C187 O195 1.249 . S
O188 C187 1.264 . S
O189 Mg182 1.986 . S
O189 C193 1.246 . S
O190 Mg185 2.032 . S
O190 C193 1.259 . S
O191 Mg182 2.114 . S
O191 C194 1.252 . S
O192 Mg182 2.251 . S
O192 Mg185 2.079 . S
O192 C194 1.273 . S
C193 O189 1.246 . S
C193 O190 1.259 . S
C194 O191 1.252 . S
C194 O192 1.273 . S
O195 Mg182 2.010 . S
O195 C187 1.249 . S
Mg196 O197 2.028 . S
Mg196 O203 1.986 . S
Mg196 O205 2.114 . S
Mg196 O206 2.251 . S
Mg196 O209 2.010 . S
O197 Mg196 2.028 . S
O197 C200 1.250 . S
O198 Mg199 2.028 . S
O198 C200 1.248 . S
Mg199 O198 2.028 . S
Mg199 O204 2.032 . S
Mg199 O206 2.079 . S
C200 O197 1.250 . S
C200 O198 1.248 . S
C201 O202 1.264 . S
C201 O209 1.249 1_565 S
O202 C201 1.264 . S
O203 Mg196 1.986 . S
O203 C207 1.246 . S
O204 Mg199 2.032 . S
O204 C207 1.259 . S
O205 Mg196 2.114 . S
O205 C208 1.252 . S
O206 Mg196 2.251 . S
O206 Mg199 2.079 . S
O206 C208 1.273 . S
C207 O203 1.246 . S
C207 O204 1.259 . S
C208 O205 1.252 . S
C208 O206 1.273 . S
O209 Mg196 2.010 . S
O209 C201 1.249 1_545 S
Mg210 O211 2.028 . S
Mg210 O217 1.986 . S
Mg210 O219 2.114 . S
Mg210 O220 2.251 . S
Mg210 O223 2.010 . S
O211 Mg210 2.028 . S
O211 C214 1.250 . S
O212 Mg213 2.028 . S
O212 C214 1.248 . S
Mg213 O212 2.028 . S
Mg213 O218 2.032 . S
Mg213 O220 2.079 . S
C214 O211 1.250 . S
C214 O212 1.248 . S
C215 O216 1.264 . S
C215 O223 1.249 . S
O216 C215 1.264 . S
O217 Mg210 1.986 . S
O217 C221 1.246 . S
O218 Mg213 2.032 . S
O218 C221 1.259 . S
O219 Mg210 2.114 . S
O219 C222 1.252 . S
O220 Mg210 2.251 . S
O220 Mg213 2.079 . S
O220 C222 1.273 . S
C221 O217 1.246 . S
C221 O218 1.259 . S
C222 O219 1.252 . S
C222 O220 1.273 . S
O223 Mg210 2.010 . S
O223 C215 1.249 . S
Mg224 O225 2.028 . S
Mg224 O231 1.986 . S
Mg224 O233 2.114 . S
Mg224 O234 2.251 . S
Mg224 O237 2.010 . S
O225 Mg224 2.028 . S
O225 C228 1.250 . S
O226 Mg227 2.028 . S
O226 C228 1.248 . S
Mg227 O226 2.028 . S
Mg227 O232 2.032 . S
Mg227 O234 2.079 . S
C228 O225 1.250 . S
C228 O226 1.248 . S
C229 O230 1.264 . S
C229 O237 1.249 . S
O230 C229 1.264 . S
O231 Mg224 1.986 . S
O231 C235 1.246 . S
O232 Mg227 2.032 . S
O232 C235 1.259 . S
O233 Mg224 2.114 . S
O233 C236 1.252 . S
O234 Mg224 2.251 . S
O234 Mg227 2.079 . S
O234 C236 1.273 . S
C235 O231 1.246 . S
C235 O232 1.259 . S
C236 O233 1.252 . S
C236 O234 1.273 . S
O237 Mg224 2.010 . S
O237 C229 1.249 . S
Mg238 O239 2.028 . S
Mg238 O245 1.986 . S
Mg238 O247 2.114 . S
Mg238 O248 2.251 . S
Mg238 O251 2.010 . S
O239 Mg238 2.028 . S
O239 C242 1.250 . S
O240 Mg241 2.028 . S
O240 C242 1.248 . S
Mg241 O240 2.028 . S
Mg241 O246 2.032 . S
Mg241 O248 2.079 . S
C242 O239 1.250 . S
C242 O240 1.248 . S
C243 O244 1.264 . S
C243 O251 1.249 . S
O244 C243 1.264 . S
O245 Mg238 1.986 . S
O245 C249 1.246 . S
O246 Mg241 2.032 . S
O246 C249 1.259 . S
O247 Mg238 2.114 . S
O247 C250 1.252 . S
O248 Mg238 2.251 . S
O248 Mg241 2.079 . S
O248 C250 1.273 . S
C249 O245 1.246 . S
C249 O246 1.259 . S
C250 O247 1.252 . S
C250 O248 1.273 . S
O251 Mg238 2.010 . S
O251 C243 1.249 . S
Mg252 O253 2.028 . S
Mg252 O259 1.986 . S
Mg252 O261 2.114 . S
Mg252 O262 2.251 . S
Mg252 O265 2.010 . S
O253 Mg252 2.028 . S
O253 C256 1.250 . S
O254 Mg255 2.028 . S
O254 C256 1.248 . S
Mg255 O254 2.028 . S
Mg255 O260 2.032 . S
Mg255 O262 2.079 . S
C256 O253 1.250 . S
C256 O254 1.248 . S
C257 O258 1.264 . S
C257 O265 1.249 . S
O258 C257 1.264 . S
O259 Mg252 1.986 . S
O259 C263 1.246 . S
O260 Mg255 2.032 . S
O260 C263 1.259 . S
O261 Mg252 2.114 . S
O261 C264 1.252 . S
O262 Mg252 2.251 . S
O262 Mg255 2.079 . S
O262 C264 1.273 . S
C263 O259 1.246 . S
C263 O260 1.259 . S
C264 O261 1.252 . S
C264 O262 1.273 . S
O265 Mg252 2.010 . S
O265 C257 1.249 . S
Mg266 O267 2.028 . S
Mg266 O273 1.986 . S
Mg266 O275 2.114 . S
Mg266 O276 2.251 . S
Mg266 O279 2.010 . S
O267 Mg266 2.028 . S
O267 C270 1.250 . S
O268 Mg269 2.028 . S
O268 C270 1.248 . S
Mg269 O268 2.028 . S
Mg269 O274 2.032 . S
Mg269 O276 2.079 . S
C270 O267 1.250 . S
C270 O268 1.248 . S
C271 O272 1.264 . S
C271 O279 1.249 . S
O272 C271 1.264 . S
O273 Mg266 1.986 . S
O273 C277 1.246 . S
O274 Mg269 2.032 . S
O274 C277 1.259 . S
O275 Mg266 2.114 . S
O275 C278 1.252 . S
O276 Mg266 2.251 . S
O276 Mg269 2.079 . S
O276 C278 1.273 . S
C277 O273 1.246 . S
C277 O274 1.259 . S
C278 O275 1.252 . S
C278 O276 1.273 . S
O279 Mg266 2.010 . S
O279 C271 1.249 . S
Mg280 O281 2.028 . S
Mg280 O287 1.986 . S
Mg280 O289 2.114 . S
Mg280 O290 2.251 . S
Mg280 O293 2.010 . S
O281 Mg280 2.028 . S
O281 C284 1.250 . S
O282 Mg283 2.028 . S
O282 C284 1.248 . S
Mg283 O282 2.028 . S
Mg283 O288 2.032 . S
Mg283 O290 2.079 . S
C284 O281 1.250 . S
C284 O282 1.248 . S
C285 O286 1.264 . S
C285 O293 1.249 . S
O286 C285 1.264 . S
O287 Mg280 1.986 . S
O287 C291 1.246 . S
O288 Mg283 2.032 . S
O288 C291 1.259 . S
O289 Mg280 2.114 . S
O289 C292 1.252 . S
O290 Mg280 2.251 . S
O290 Mg283 2.079 . S
O290 C292 1.273 . S
C291 O287 1.246 . S
C291 O288 1.259 . S
C292 O289 1.252 . S
C292 O290 1.273 . S
O293 Mg280 2.010 . S
O293 C285 1.249 . S
Mg294 O295 2.028 . S
Mg294 O301 1.986 . S
Mg294 O303 2.114 . S
Mg294 O304 2.251 . S
Mg294 O307 2.010 . S
O295 Mg294 2.028 . S
O295 C298 1.250 . S
O296 Mg297 2.028 . S
O296 C298 1.248 . S
Mg297 O296 2.028 . S
Mg297 O302 2.032 . S
Mg297 O304 2.079 . S
C298 O295 1.250 . S
C298 O296 1.248 . S
C299 O300 1.264 1_556 S
C299 O307 1.249 1_565 S
O300 C299 1.264 1_554 S
O301 Mg294 1.986 . S
O301 C305 1.246 . S
O302 Mg297 2.032 . S
O302 C305 1.259 . S
O303 Mg294 2.114 . S
O303 C306 1.252 . S
O304 Mg294 2.251 . S
O304 Mg297 2.079 . S
O304 C306 1.273 . S
C305 O301 1.246 . S
C305 O302 1.259 . S
C306 O303 1.252 . S
C306 O304 1.273 . S
O307 Mg294 2.010 . S
O307 C299 1.249 1_545 S
Mg308 O309 2.028 . S
Mg308 O315 1.986 . S
Mg308 O317 2.114 . S
Mg308 O318 2.251 . S
Mg308 O321 2.010 . S
O309 Mg308 2.028 . S
O309 C312 1.250 . S
O310 Mg311 2.028 . S
O310 C312 1.248 . S
Mg311 O310 2.028 . S
Mg311 O316 2.032 . S
Mg311 O318 2.079 . S
C312 O309 1.250 . S
C312 O310 1.248 . S
C313 O314 1.264 1_556 S
C313 O321 1.249 1_455 S
O314 C313 1.264 1_554 S
O315 Mg308 1.986 . S
O315 C319 1.246 . S
O316 Mg311 2.032 . S
O316 C319 1.259 . S
O317 Mg308 2.114 . S
O317 C320 1.252 . S
O318 Mg308 2.251 . S
O318 Mg311 2.079 . S
O318 C320 1.273 . S
C319 O315 1.246 . S
C319 O316 1.259 . S
C320 O317 1.252 . S
C320 O318 1.273 . S
O321 Mg308 2.010 . S
O321 C313 1.249 1_655 S
Mg322 O323 2.028 . S
Mg322 O329 1.986 . S
Mg322 O331 2.114 . S
Mg322 O332 2.251 . S
Mg322 O335 2.010 . S
O323 Mg322 2.028 . S
O323 C326 1.250 . S
O324 Mg325 2.028 . S
O324 C326 1.248 . S
Mg325 O324 2.028 . S
Mg325 O330 2.032 . S
Mg325 O332 2.079 . S
C326 O323 1.250 . S
C326 O324 1.248 . S
C327 O328 1.264 1_556 S
C327 O335 1.249 . S
O328 C327 1.264 1_554 S
O329 Mg322 1.986 . S
O329 C333 1.246 . S
O330 Mg325 2.032 . S
O330 C333 1.259 . S
O331 Mg322 2.114 . S
O331 C334 1.252 . S
O332 Mg322 2.251 . S
O332 Mg325 2.079 . S
O332 C334 1.273 . S
C333 O329 1.246 . S
C333 O330 1.259 . S
C334 O331 1.252 . S
C334 O332 1.273 . S
O335 Mg322 2.010 . S
O335 C327 1.249 . S
Mg336 O337 2.028 . S
Mg336 O343 1.986 . S
Mg336 O345 2.114 . S
Mg336 O346 2.251 . S
Mg336 O349 2.010 . S
O337 Mg336 2.028 . S
O337 C340 1.250 . S
O338 Mg339 2.028 . S
O338 C340 1.248 . S
Mg339 O338 2.028 . S
Mg339 O344 2.032 . S
Mg339 O346 2.079 . S
C340 O337 1.250 . S
C340 O338 1.248 . S
C341 O342 1.264 . S
C341 O349 1.249 . S
O342 C341 1.264 . S
O343 Mg336 1.986 . S
O343 C347 1.246 . S
O344 Mg339 2.032 . S
O344 C347 1.259 . S
O345 Mg336 2.114 . S
O345 C348 1.252 . S
O346 Mg336 2.251 . S
O346 Mg339 2.079 . S
O346 C348 1.273 . S
C347 O343 1.246 . S
C347 O344 1.259 . S
C348 O345 1.252 . S
C348 O346 1.273 . S
O349 Mg336 2.010 . S
O349 C341 1.249 . S
Mg350 O351 2.028 . S
Mg350 O357 1.986 . S
Mg350 O359 2.114 . S
Mg350 O360 2.251 . S
Mg350 O363 2.010 . S
O351 Mg350 2.028 . S
O351 C354 1.250 . S
O352 Mg353 2.028 . S
O352 C354 1.248 . S
Mg353 O352 2.028 . S
Mg353 O358 2.032 . S
Mg353 O360 2.079 . S
C354 O351 1.250 . S
C354 O352 1.248 . S
C355 O356 1.264 . S
C355 O363 1.249 . S
O356 C355 1.264 . S
O357 Mg350 1.986 . S
O357 C361 1.246 . S
O358 Mg353 2.032 . S
O358 C361 1.259 . S
O359 Mg350 2.114 . S
O359 C362 1.252 . S
O360 Mg350 2.251 . S
O360 Mg353 2.079 . S
O360 C362 1.273 . S
C361 O357 1.246 . S
C361 O358 1.259 . S
C362 O359 1.252 . S
C362 O360 1.273 . S
O363 Mg350 2.010 . S
O363 C355 1.249 . S
Mg364 O365 2.028 . S
Mg364 O371 1.986 . S
Mg364 O373 2.114 . S
Mg364 O374 2.251 . S
Mg364 O377 2.010 . S
O365 Mg364 2.028 . S
O365 C368 1.250 . S
O366 Mg367 2.028 . S
O366 C368 1.248 . S
Mg367 O366 2.028 . S
Mg367 O372 2.032 . S
Mg367 O374 2.079 . S
C368 O365 1.250 . S
C368 O366 1.248 . S
C369 O370 1.264 . S
C369 O377 1.249 . S
O370 C369 1.264 . S
O371 Mg364 1.986 . S
O371 C375 1.246 . S
O372 Mg367 2.032 . S
O372 C375 1.259 . S
O373 Mg364 2.114 . S
O373 C376 1.252 . S
O374 Mg364 2.251 . S
O374 Mg367 2.079 . S
O374 C376 1.273 . S
C375 O371 1.246 . S
C375 O372 1.259 . S
C376 O373 1.252 . S
C376 O374 1.273 . S
O377 Mg364 2.010 . S
O377 C369 1.249 . S
Mg378 O379 2.028 . S
Mg378 O385 1.986 . S
Mg378 O387 2.114 . S
Mg378 O388 2.251 . S
Mg378 O391 2.010 . S
O379 Mg378 2.028 . S
O379 C382 1.250 . S
O380 Mg381 2.028 . S
O380 C382 1.248 . S
Mg381 O380 2.028 . S
Mg381 O386 2.032 . S
Mg381 O388 2.079 . S
C382 O379 1.250 . S
C382 O380 1.248 . S
C383 O384 1.264 1_554 S
C383 O391 1.249 1_545 S
O384 C383 1.264 1_556 S
O385 Mg378 1.986 . S
O385 C389 1.246 . S
O386 Mg381 2.032 . S
O386 C389 1.259 . S
O387 Mg378 2.114 . S
O387 C390 1.252 . S
O388 Mg378 2.251 . S
O388 Mg381 2.079 . S
O388 C390 1.273 . S
C389 O385 1.246 . S
C389 O386 1.259 . S
C390 O387 1.252 . S
C390 O388 1.273 . S
O391 Mg378 2.010 . S
O391 C383 1.249 1_565 S
Mg392 O393 2.028 . S
Mg392 O399 1.986 . S
Mg392 O401 2.114 . S
Mg392 O402 2.251 . S
Mg392 O405 2.010 . S
O393 Mg392 2.028 . S
O393 C396 1.250 . S
O394 Mg395 2.028 . S
O394 C396 1.248 . S
Mg395 O394 2.028 . S
Mg395 O400 2.032 . S
Mg395 O402 2.079 . S
C396 O393 1.250 . S
C396 O394 1.248 . S
C397 O398 1.264 1_554 S
C397 O405 1.249 1_655 S
O398 C397 1.264 1_556 S
O399 Mg392 1.986 . S
O399 C403 1.246 . S
O400 Mg395 2.032 . S
O400 C403 1.259 . S
O401 Mg392 2.114 . S
O401 C404 1.252 . S
O402 Mg392 2.251 . S
O402 Mg395 2.079 . S
O402 C404 1.273 . S
C403 O399 1.246 . S
C403 O400 1.259 . S
C404 O401 1.252 . S
C404 O402 1.273 . S
O405 Mg392 2.010 . S
O405 C397 1.249 1_455 S
Mg406 O407 2.028 . S
Mg406 O413 1.986 . S
Mg406 O415 2.114 . S
Mg406 O416 2.251 . S
Mg406 O419 2.010 . S
O407 Mg406 2.028 . S
O407 C410 1.250 . S
O408 Mg409 2.028 . S
O408 C410 1.248 . S
Mg409 O408 2.028 . S
Mg409 O414 2.032 . S
Mg409 O416 2.079 . S
C410 O407 1.250 . S
C410 O408 1.248 . S
C411 O412 1.264 1_554 S
C411 O419 1.249 . S
O412 C411 1.264 1_556 S
O413 Mg406 1.986 . S
O413 C417 1.246 . S
O414 Mg409 2.032 . S
O414 C417 1.259 . S
O415 Mg406 2.114 . S
O415 C418 1.252 . S
O416 Mg406 2.251 . S
O416 Mg409 2.079 . S
O416 C418 1.273 . S
C417 O413 1.246 . S
C417 O414 1.259 . S
C418 O415 1.252 . S
C418 O416 1.273 . S
O419 Mg406 2.010 . S
O419 C411 1.249 . S
Mg420 O421 2.028 . S
Mg420 O427 1.986 . S
Mg420 O429 2.114 . S
Mg420 O430 2.251 . S
Mg420 O433 2.010 . S
O421 Mg420 2.028 . S
O421 C424 1.250 . S
O422 Mg423 2.028 . S
O422 C424 1.248 . S
Mg423 O422 2.028 . S
Mg423 O428 2.032 . S
Mg423 O430 2.079 . S
C424 O421 1.250 . S
C424 O422 1.248 . S
C425 O426 1.264 . S
C425 O433 1.249 1_655 S
O426 C425 1.264 . S
O427 Mg420 1.986 . S
O427 C431 1.246 . S
O428 Mg423 2.032 . S
O428 C431 1.259 . S
O429 Mg420 2.114 . S
O429 C432 1.252 . S
O430 Mg420 2.251 . S
O430 Mg423 2.079 . S
O430 C432 1.273 . S
C431 O427 1.246 . S
C431 O428 1.259 . S
C432 O429 1.252 . S
C432 O430 1.273 . S
O433 Mg420 2.010 . S
O433 C425 1.249 1_455 S
Mg434 O435 2.028 . S
Mg434 O441 1.986 . S
Mg434 O443 2.114 . S
Mg434 O444 2.251 . S
Mg434 O447 2.010 . S
O435 Mg434 2.028 . S
O435 C438 1.250 . S
O436 Mg437 2.028 . S
O436 C438 1.248 . S
Mg437 O436 2.028 . S
Mg437 O442 2.032 . S
Mg437 O444 2.079 . S
C438 O435 1.250 . S
C438 O436 1.248 . S
C439 O440 1.264 . S
C439 O447 1.249 . S
O440 C439 1.264 . S
O441 Mg434 1.986 . S
O441 C445 1.246 . S
O442 Mg437 2.032 . S
O442 C445 1.259 . S
O443 Mg434 2.114 . S
O443 C446 1.252 . S
O444 Mg434 2.251 . S
O444 Mg437 2.079 . S
O444 C446 1.273 . S
C445 O441 1.246 . S
C445 O442 1.259 . S
C446 O443 1.252 . S
C446 O444 1.273 . S
O447 Mg434 2.010 . S
O447 C439 1.249 . S
Mg448 O449 2.028 . S
Mg448 O455 1.986 . S
Mg448 O457 2.114 . S
Mg448 O458 2.251 . S
Mg448 O461 2.010 . S
O449 Mg448 2.028 . S
O449 C452 1.250 . S
O450 Mg451 2.028 . S
O450 C452 1.248 . S
Mg451 O450 2.028 . S
Mg451 O456 2.032 . S
Mg451 O458 2.079 . S
C452 O449 1.250 . S
C452 O450 1.248 . S
C453 O454 1.264 . S
C453 O461 1.249 1_545 S
O454 C453 1.264 . S
O455 Mg448 1.986 . S
O455 C459 1.246 . S
O456 Mg451 2.032 . S
O456 C459 1.259 . S
O457 Mg448 2.114 . S
O457 C460 1.252 . S
O458 Mg448 2.251 . S
O458 Mg451 2.079 . S
O458 C460 1.273 . S
C459 O455 1.246 . S
C459 O456 1.259 . S
C460 O457 1.252 . S
C460 O458 1.273 . S
O461 Mg448 2.010 . S
O461 C453 1.249 1_565 S
Mg462 O463 2.028 . S
Mg462 O469 1.986 . S
Mg462 O471 2.114 . S
Mg462 O472 2.251 . S
Mg462 O475 2.010 . S
O463 Mg462 2.028 . S
O463 C466 1.250 . S
O464 Mg465 2.028 . S
O464 C466 1.248 . S
Mg465 O464 2.028 . S
Mg465 O470 2.032 . S
Mg465 O472 2.079 . S
C466 O463 1.250 . S
C466 O464 1.248 . S
C467 O468 1.264 . S
C467 O475 1.249 . S
O468 C467 1.264 . S
O469 Mg462 1.986 . S
O469 C473 1.246 . S
O470 Mg465 2.032 . S
O470 C473 1.259 . S
O471 Mg462 2.114 . S
O471 C474 1.252 . S
O472 Mg462 2.251 . S
O472 Mg465 2.079 . S
O472 C474 1.273 . S
C473 O469 1.246 . S
C473 O470 1.259 . S
C474 O471 1.252 . S
C474 O472 1.273 . S
O475 Mg462 2.010 . S
O475 C467 1.249 . S
Mg476 O477 2.028 . S
Mg476 O483 1.986 . S
Mg476 O485 2.114 . S
Mg476 O486 2.251 . S
Mg476 O489 2.010 . S
O477 Mg476 2.028 . S
O477 C480 1.250 . S
O478 Mg479 2.028 . S
O478 C480 1.248 . S
Mg479 O478 2.028 . S
Mg479 O484 2.032 . S
Mg479 O486 2.079 . S
C480 O477 1.250 . S
C480 O478 1.248 . S
C481 O482 1.264 . S
C481 O489 1.249 . S
O482 C481 1.264 . S
O483 Mg476 1.986 . S
O483 C487 1.246 . S
O484 Mg479 2.032 . S
O484 C487 1.259 . S
O485 Mg476 2.114 . S
O485 C488 1.252 . S
O486 Mg476 2.251 . S
O486 Mg479 2.079 . S
O486 C488 1.273 . S
C487 O483 1.246 . S
C487 O484 1.259 . S
C488 O485 1.252 . S
C488 O486 1.273 . S
O489 Mg476 2.010 . S
O489 C481 1.249 . S
Mg490 O491 2.028 . S
Mg490 O497 1.986 . S
Mg490 O499 2.114 . S
Mg490 O500 2.251 . S
Mg490 O503 2.010 . S
O491 Mg490 2.028 . S
O491 C494 1.250 . S
O492 Mg493 2.028 . S
O492 C494 1.248 . S
Mg493 O492 2.028 . S
Mg493 O498 2.032 . S
Mg493 O500 2.079 . S
C494 O491 1.250 . S
C494 O492 1.248 . S
C495 O496 1.264 . S
C495 O503 1.249 . S
O496 C495 1.264 . S
O497 Mg490 1.986 . S
O497 C501 1.246 . S
O498 Mg493 2.032 . S
O498 C501 1.259 . S
O499 Mg490 2.114 . S
O499 C502 1.252 . S
O500 Mg490 2.251 . S
O500 Mg493 2.079 . S
O500 C502 1.273 . S
C501 O497 1.246 . S
C501 O498 1.259 . S
C502 O499 1.252 . S
C502 O500 1.273 . S
O503 Mg490 2.010 . S
O503 C495 1.249 . S
C5 C257 1.948 . S
C271 C19 1.948 . S
C285 C33 1.948 . S
C47 C467 1.948 . S
C61 C481 1.948 . S
C75 C495 1.948 . S
C341 C89 1.948 . S
C103 C355 1.948 . S
C117 C369 1.948 . S
C215 C131 1.948 . S
C229 C145 1.948 . S
C243 C159 1.948 . S
C425 C173 1.948 1_655 S
C439 C187 1.949 . S
C201 C453 1.948 1_565 S
C383 C299 1.948 1_544 S
C313 C397 1.948 1_456 S
C327 C411 1.949 1_556 S
C11 C389 1.997 1_545 S
C403 C25 1.996 1_455 S
C417 C39 1.996 . S
C179 C53 1.997 1_655 S
C193 C67 1.996 . S
C207 C81 1.996 1_545 S
C95 C305 1.997 1_565 S
C319 C109 1.996 1_655 S
C333 C123 1.996 . S
C137 C431 1.997 1_655 S
C151 C445 1.996 . S
C165 C459 1.996 1_545 S
C221 C347 1.997 . S
C235 C361 1.996 1_545 S
C249 C375 1.996 1_655 S
C263 C473 1.997 . S
C487 C277 1.996 1_565 S
C291 C501 1.996 1_655 S
C26 C4 1.660 . S
C18 C40 1.659 1_545 S
C32 C12 1.659 1_655 S
C46 C82 1.660 . S
C54 C60 1.659 1_545 S
C74 C68 1.659 1_455 S
C88 C110 1.660 . S
C102 C124 1.659 1_565 S
C116 C96 1.659 1_455 S
C166 C130 1.660 . S
C144 C138 1.659 1_545 S
C152 C158 1.659 1_455 S
C194 C172 1.660 . S
C208 C186 1.659 . S
C180 C200 1.659 . S
C214 C250 1.660 . S
C228 C222 1.659 . S
C242 C236 1.659 . S
C278 C256 1.660 . S
C270 C292 1.659 . S
C284 C264 1.659 . S
C298 C334 1.660 . S
C312 C306 1.659 . S
C320 C326 1.659 . S
C362 C340 1.660 . S
C354 C376 1.659 . S
C348 C368 1.659 . S
C382 C418 1.660 . S
C396 C390 1.659 . S
C410 C404 1.659 . S
C424 C446 1.660 . S
C438 C460 1.659 . S
C452 C432 1.659 . S
C466 C502 1.660 . S
C480 C474 1.659 . S
C488 C494 1.659 . S
