# Generated by pormake.
# Topology acs-h, (5)-cn, num edge types: 1
# Building blocks:
#     Node 0, Type 0, BuildingBlock: XOMCOT_clean_sbu_1, # of connection points: 5
#     Node 1, Type 0, BuildingBlock: XOMCOT_clean_sbu_1, # of connection points: 5
#     Node 2, Type 0, BuildingBlock: XOMCOT_clean_sbu_1, # of connection points: 5
#     Node 3, Type 0, BuildingBlock: XOMCOT_clean_sbu_1, # of connection points: 5
#     Node 4, Type 0, BuildingBlock: XOMCOT_clean_sbu_1, # of connection points: 5
#     Node 5, Type 0, BuildingBlock: XOMCOT_clean_sbu_1, # of connection points: 5
#     Node 6, Type 0, BuildingBlock: XOMCOT_clean_sbu_1, # of connection points: 5
#     Node 7, Type 0, BuildingBlock: XOMCOT_clean_sbu_1, # of connection points: 5
#     Node 8, Type 0, BuildingBlock: XOMCOT_clean_sbu_1, # of connection points: 5
#     Node 9, Type 0, BuildingBlock: XOMCOT_clean_sbu_1, # of connection points: 5
#     Node 10, Type 0, BuildingBlock: XOMCOT_clean_sbu_1, # of connection points: 5
#     Node 11, Type 0, BuildingBlock: XOMCOT_clean_sbu_1, # of connection points: 5
#     Edge 12, Type (0, 0), BuildingBlock: OJICUG_clean_linker_0, # of connection points: 2
#     Edge 13, Type (0, 0), BuildingBlock: OJICUG_clean_linker_0, # of connection points: 2
#     Edge 14, Type (0, 0), BuildingBlock: OJICUG_clean_linker_0, # of connection points: 2
#     Edge 15, Type (0, 0), BuildingBlock: OJICUG_clean_linker_0, # of connection points: 2
#     Edge 16, Type (0, 0), BuildingBlock: OJICUG_clean_linker_0, # of connection points: 2
#     Edge 17, Type (0, 0), BuildingBlock: OJICUG_clean_linker_0, # of connection points: 2
#     Edge 18, Type (0, 0), BuildingBlock: OJICUG_clean_linker_0, # of connection points: 2
#     Edge 19, Type (0, 0), BuildingBlock: OJICUG_clean_linker_0, # of connection points: 2
#     Edge 20, Type (0, 0), BuildingBlock: OJICUG_clean_linker_0, # of connection points: 2
#     Edge 21, Type (0, 0), BuildingBlock: OJICUG_clean_linker_0, # of connection points: 2
#     Edge 22, Type (0, 0), BuildingBlock: OJICUG_clean_linker_0, # of connection points: 2
#     Edge 23, Type (0, 0), BuildingBlock: OJICUG_clean_linker_0, # of connection points: 2
#     Edge 24, Type (0, 0), BuildingBlock: OJICUG_clean_linker_0, # of connection points: 2
#     Edge 25, Type (0, 0), BuildingBlock: OJICUG_clean_linker_0, # of connection points: 2
#     Edge 26, Type (0, 0), BuildingBlock: OJICUG_clean_linker_0, # of connection points: 2
#     Edge 27, Type (0, 0), BuildingBlock: OJICUG_clean_linker_0, # of connection points: 2
#     Edge 28, Type (0, 0), BuildingBlock: OJICUG_clean_linker_0, # of connection points: 2
#     Edge 29, Type (0, 0), BuildingBlock: OJICUG_clean_linker_0, # of connection points: 2
#     Edge 30, Type (0, 0), BuildingBlock: OJICUG_clean_linker_0, # of connection points: 2
#     Edge 31, Type (0, 0), BuildingBlock: OJICUG_clean_linker_0, # of connection points: 2
#     Edge 32, Type (0, 0), BuildingBlock: OJICUG_clean_linker_0, # of connection points: 2
#     Edge 33, Type (0, 0), BuildingBlock: OJICUG_clean_linker_0, # of connection points: 2
#     Edge 34, Type (0, 0), BuildingBlock: OJICUG_clean_linker_0, # of connection points: 2
#     Edge 35, Type (0, 0), BuildingBlock: OJICUG_clean_linker_0, # of connection points: 2
#     Edge 36, Type (0, 0), BuildingBlock: OJICUG_clean_linker_0, # of connection points: 2
#     Edge 37, Type (0, 0), BuildingBlock: OJICUG_clean_linker_0, # of connection points: 2
#     Edge 38, Type (0, 0), BuildingBlock: OJICUG_clean_linker_0, # of connection points: 2
#     Edge 39, Type (0, 0), BuildingBlock: OJICUG_clean_linker_0, # of connection points: 2
#     Edge 40, Type (0, 0), BuildingBlock: OJICUG_clean_linker_0, # of connection points: 2
#     Edge 41, Type (0, 0), BuildingBlock: OJICUG_clean_linker_0, # of connection points: 2
# Relax obj value: 0.914
# Max RMSD: 0.280
# Mean RMSD: 0.280
data_MOF--net-acs-h--node1-XOMCOT_clean_sbu_1--edge1-OJICUG_clean_linker_0
_symmetry_space_group_name_H-M    P1
_symmetry_Int_Tables_number       1
_symmetry_cell_setting            triclinic
loop_
_symmetry_equiv_pos_as_xyz
'x, y, z'
_cell_length_a     37.005341
_cell_length_b     37.072015
_cell_length_c     30.317822
_cell_angle_alpha  89.718232
_cell_angle_beta   90.288407
_cell_angle_gamma 120.0054
loop_
_atom_site_label
_atom_site_type_symbol
_atom_site_fract_x
_atom_site_fract_y
_atom_site_fract_z
_atom_type_partial_charge
C0 C 0.56908 0.2533 0.96787 0.0
C1 C 0.6063 0.25331 0.96964 0.0
N2 N 0.61578 0.25158 0.01235 0.0
N3 N 0.55505 0.2512 0.00926 0.0
C4 C 0.58432 0.25065 0.03552 0.0
H5 H 0.5533 0.25479 0.93839 0.0
Co6 Co 0.50659 0.24995 0.02746 0.0
C7 C 0.47682 0.18628 0.0997 0.0
O8 O 0.43825 0.16951 0.08509 0.0
N9 N 0.45848 0.2501 0.04682 0.0
C10 C 0.40361 0.25927 0.05476 0.0
C11 C 0.42807 0.25301 0.0249 0.0
C12 C 0.45214 0.25541 0.08951 0.0
N13 N 0.41879 0.26019 0.09533 0.0
O14 O 0.53965 0.301 0.05706 0.0
H15 H 0.42479 0.2529 0.98953 0.0
H16 H 0.47313 0.25816 0.11596 0.0
O17 O 0.50589 0.21821 0.0802 0.0
C18 C 0.55007 0.33109 0.03014 0.0
O19 O 0.53526 0.32263 0.98969 0.0
N20 N 0.47558 0.20188 0.99367 0.0
C21 C 0.45062 0.14448 0.92534 0.0
C22 C 0.46246 0.13589 0.96615 0.0
C23 C 0.47621 0.16561 -0.00056 0.0
C24 C 0.46313 0.21012 0.9543 0.0
C25 C 0.45047 0.18178 0.91954 0.0
H26 H 0.49116 0.16085 0.02763 0.0
H27 H 0.46731 0.24068 0.94812 0.0
H28 H 0.58243 0.24929 0.07112 0.0
H29 H 0.62518 0.25515 0.94164 0.0
H30 H 0.37754 0.26382 0.04724 0.0
H31 H 0.46499 0.10822 0.97079 0.0
H32 H 0.44325 0.19005 0.88771 0.0
C33 C 0.86091 0.36406 0.0642 0.0
C34 C 0.86324 0.40233 0.06471 0.0
N35 N 0.8498 0.40713 0.10433 0.0
N36 N 0.84647 0.34517 0.10344 0.0
C37 C 0.83973 0.37196 0.12697 0.0
H38 H 0.8691 0.35079 0.037 0.0
Co39 Co 0.83773 0.29337 0.12065 0.0
C40 C 0.85393 0.30201 0.21693 0.0
O41 O 0.87685 0.28425 0.21297 0.0
N42 N 0.82704 0.23995 0.1373 0.0
C43 C 0.81064 0.17326 0.13564 0.0
C44 C 0.83559 0.21234 0.1177 0.0
C45 C 0.79718 0.21683 0.16699 0.0
N46 N 0.78664 0.17644 0.16672 0.0
O47 O 0.77941 0.27259 0.11586 0.0
H48 H 0.85564 0.21861 0.08965 0.0
H49 H 0.78026 0.22857 0.18542 0.0
O50 O 0.83664 0.30732 0.18285 0.0
C51 C 0.76526 0.259 0.07745 0.0
O52 O 0.7902 0.25628 0.04862 0.0
N53 N 0.89587 0.31594 0.12081 0.0
C54 C 0.9668 0.37788 0.07935 0.0
C55 C 0.95693 0.38387 0.12226 0.0
C56 C 0.92135 0.35233 0.14265 0.0
C57 C 0.90886 0.30745 0.08225 0.0
C58 C 0.94498 0.33767 0.06152 0.0
H59 H 0.91087 0.36113 0.17156 0.0
H60 H 0.8876 0.28091 0.06288 0.0
H61 H 0.82779 0.36589 0.16026 0.0
H62 H 0.87306 0.42433 0.03764 0.0
H63 H 0.80842 0.14445 0.12475 0.0
H64 H 0.97264 0.41433 0.1375 0.0
H65 H 0.9521 0.33131 0.02885 0.0
C66 C 0.75156 0.53918 0.07917 0.0
C67 C 0.72129 0.51038 0.05149 0.0
N68 N 0.68445 0.49329 0.07268 0.0
N69 N 0.73372 0.53977 0.11762 0.0
C70 C 0.69269 0.5128 0.11179 0.0
H71 H 0.78476 0.55588 0.073 0.0
Co72 Co 0.76051 0.56262 0.17096 0.0
C73 C 0.69621 0.48194 0.2116 0.0
O74 O 0.71555 0.46195 0.19993 0.0
N75 N 0.78731 0.58413 0.22455 0.0
C76 C 0.83209 0.62209 0.27749 0.0
C77 C 0.81291 0.62343 0.23854 0.0
C78 C 0.79103 0.55982 0.25534 0.0
N79 N 0.81852 0.58183 0.28729 0.0
O80 O 0.78368 0.5272 0.16944 0.0
H81 H 0.81939 0.65112 0.22021 0.0
H82 H 0.7759 0.52628 0.25286 0.0
O83 O 0.71187 0.52061 0.20278 0.0
C84 C 0.81928 0.53842 0.15297 0.0
O85 O 0.84227 0.57675 0.13842 0.0
N86 N 0.73854 0.5984 0.16945 0.0
C87 C 0.68692 0.62446 0.13178 0.0
C88 C 0.67682 0.60379 0.17275 0.0
C89 C 0.70355 0.59141 0.19148 0.0
C90 C 0.75224 0.62444 0.13393 0.0
C91 C 0.72665 0.63763 0.11424 0.0
H92 H 0.69386 0.57266 0.22111 0.0
H93 H 0.78044 0.6302 0.11727 0.0
H94 H 0.66932 0.5052 0.13682 0.0
H95 H 0.72666 0.49993 0.0202 0.0
H96 H 0.85624 0.64848 0.29524 0.0
H97 H 0.64688 0.59368 0.18808 0.0
H98 H 0.73638 0.65488 0.08352 0.0
C99 C 0.76915 0.29923 0.50904 0.0
C100 C 0.73904 0.25869 0.49964 0.0
N101 N 0.72829 0.25664 0.45672 0.0
N102 N 0.77748 0.32231 0.47206 0.0
C103 C 0.75213 0.29561 0.44102 0.0
H104 H 0.78331 0.31126 0.54087 0.0
Co105 Co 0.81152 0.37901 0.46304 0.0
C106 C 0.85654 0.38207 0.38081 0.0
O107 O 0.89215 0.41095 0.39754 0.0
N108 N 0.84442 0.43697 0.45243 0.0
C109 C 0.87566 0.50628 0.4571 0.0
C110 C 0.86665 0.47003 0.47918 0.0
C111 C 0.84049 0.4542 0.4146 0.0
N112 N 0.85906 0.49605 0.41638 0.0
O113 O 0.76429 0.38107 0.44184 0.0
H114 H 0.87349 0.46844 0.51349 0.0
H115 H 0.82112 0.43592 0.3873 0.0
O116 O 0.82317 0.36745 0.40352 0.0
C117 C 0.74639 0.39046 0.47165 0.0
O118 O 0.76321 0.39973 0.51123 0.0
N119 N 0.85648 0.37575 0.48817 0.0
C120 C 0.91216 0.3634 0.54022 0.0
C121 C 0.90033 0.34552 0.49811 0.0
C122 C 0.87178 0.35133 0.47299 0.0
C123 C 0.86617 0.39165 0.52972 0.0
C124 C 0.89457 0.38676 0.55583 0.0
H125 H 0.86045 0.33428 0.44255 0.0
H126 H 0.85005 0.40638 0.54372 0.0
H127 H 0.75084 0.30492 0.40746 0.0
H128 H 0.72525 0.23315 0.52296 0.0
H129 H 0.89148 0.53743 0.47066 0.0
H130 H 0.91168 0.32579 0.48537 0.0
H131 H 0.90214 0.40078 0.58826 0.0
C132 C 0.52106 0.36208 0.45723 0.0
C133 C 0.55728 0.36855 0.47729 0.0
N134 N 0.584 0.3712 0.44564 0.0
N135 N 0.52516 0.36102 0.41323 0.0
C136 C 0.56361 0.36635 0.40721 0.0
H137 H 0.49335 0.358 0.47361 0.0
Co138 Co 0.48528 0.35194 0.37113 0.0
C139 C 0.53273 0.39583 0.2906 0.0
O140 O 0.50522 0.40717 0.28074 0.0
N141 N 0.44417 0.34127 0.32824 0.0
C142 C 0.39598 0.3395 0.28227 0.0
C143 C 0.41683 0.35499 0.32181 0.0
C144 C 0.43859 0.31707 0.29285 0.0
N145 N 0.4097 0.31536 0.26453 0.0
O146 O 0.47918 0.2991 0.36125 0.0
H147 H 0.41315 0.37607 0.34328 0.0
H148 H 0.4576 0.30309 0.28621 0.0
O149 O 0.52804 0.37431 0.32535 0.0
C150 C 0.45597 0.26686 0.38397 0.0
O151 O 0.43153 0.26842 0.41426 0.0
N152 N 0.49247 0.40438 0.38449 0.0
C153 C 0.51168 0.47428 0.43452 0.0
C154 C 0.53905 0.4762 0.40199 0.0
C155 C 0.52947 0.44058 0.37815 0.0
C156 C 0.46435 0.40282 0.41442 0.0
C157 C 0.47347 0.43754 0.44016 0.0
H158 H 0.55417 0.44164 0.35869 0.0
H159 H 0.43652 0.37339 0.42128 0.0
H160 H 0.57648 0.36672 0.37521 0.0
H161 H 0.56301 0.37022 0.51245 0.0
H162 H 0.37329 0.34615 0.26736 0.0
H163 H 0.56939 0.50386 0.39799 0.0
H164 H 0.45203 0.43505 0.46579 0.0
C165 C 0.48152 0.06784 0.37752 0.0
C166 C 0.46579 0.09201 0.39356 0.0
N167 N 0.48017 0.12631 0.36798 0.0
N168 N 0.50519 0.08679 0.34185 0.0
C169 C 0.50382 0.12216 0.33705 0.0
H170 H 0.47644 0.03866 0.3912 0.0
Co171 Co 0.53622 0.07135 0.30722 0.0
C172 C 0.52253 0.09184 0.21659 0.0
O173 O 0.51614 0.05545 0.20322 0.0
N174 N 0.56952 0.0568 0.27217 0.0
C175 C 0.5996 0.02758 0.23357 0.0
C176 C 0.56364 0.02065 0.25465 0.0
C177 C 0.60893 0.08499 0.26026 0.0
N178 N 0.62813 0.06809 0.23798 0.0
O179 O 0.58488 0.1202 0.32719 0.0
H180 H 0.53527 0.99091 0.2564 0.0
H181 H 0.62359 0.11795 0.26695 0.0
O182 O 0.53117 0.10213 0.25704 0.0
C183 C 0.60069 0.11567 0.36272 0.0
O184 O 0.58428 0.07835 0.38045 0.0
N185 N 0.4869 0.02242 0.29294 0.0
C186 C 0.40848 0.95718 0.31527 0.0
C187 C 0.41227 0.99032 0.28953 0.0
C188 C 0.45196 0.02276 0.27847 0.0
C189 C 0.48337 0.98897 0.31555 0.0
C190 C 0.44437 0.95542 0.32604 0.0
H191 H 0.45416 0.05049 0.26417 0.0
H192 H 0.51085 0.99045 0.33007 0.0
H193 H 0.52026 0.14466 0.31129 0.0
H194 H 0.4463 0.08533 0.42238 0.0
H195 H 0.60456 0.00463 0.217 0.0
H196 H 0.38514 0.9931 0.28187 0.0
H197 H 0.44257 0.93092 0.34718 0.0
C198 C 0.42687 0.92092 0.88353 0.0
C199 C 0.38685 0.89881 0.89997 0.0
N200 N 0.36459 0.86511 0.87421 0.0
N201 N 0.42964 0.90131 0.84753 0.0
C202 C 0.3915 0.86751 0.84291 0.0
H203 H 0.45229 0.94938 0.8969 0.0
Co204 Co 0.4755 0.91626 0.81168 0.0
C205 C 0.4381 0.89409 0.72233 0.0
O206 O 0.46802 0.92974 0.70705 0.0
N207 N 0.5228 0.93069 0.77527 0.0
C208 C 0.57602 0.95905 0.72759 0.0
C209 C 0.54767 0.96517 0.75101 0.0
C210 C 0.53734 0.90454 0.76603 0.0
N211 N 0.56956 0.92101 0.7377 0.0
O212 O 0.47598 0.86784 0.8322 0.0
H213 H 0.54444 0.99243 0.74813 0.0
H214 H 0.52336 0.8728 0.77772 0.0
O215 O 0.43829 0.88463 0.76285 0.0
C216 C 0.49316 0.8717 0.86975 0.0
O217 O 0.51014 0.90804 0.88955 0.0
N218 N 0.47446 0.96475 0.79654 0.0
C219 C 0.46418 0.03318 0.81004 0.0
C220 C 0.43341 -0.00197 0.78809 0.0
C221 C 0.43897 0.96389 0.78192 0.0
C222 C 0.50554 -0.00037 0.816 0.0
C223 C 0.50148 0.03464 0.82211 0.0
H224 H 0.41248 0.93531 0.77062 0.0
H225 H 0.53201 -0.00107 0.83034 0.0
H226 H 0.38372 0.84514 0.81677 0.0
H227 H 0.37548 0.90675 0.92901 0.0
H228 H 0.59878 0.98035 0.70419 0.0
H229 H 0.40374 0.99547 0.77957 0.0
H230 H 0.52535 0.06079 0.84049 0.0
C231 C 0.17476 0.65066 0.98368 0.0
C232 C 0.20667 0.64697 0.00269 0.0
N233 N 0.228 0.64116 0.97027 0.0
N234 N 0.17551 0.6463 0.93959 0.0
C235 C 0.2089 0.64167 0.93257 0.0
H236 H 0.15252 0.65614 0.00102 0.0
Co237 Co 0.13952 0.64683 0.89666 0.0
C238 C 0.16909 0.62242 0.81643 0.0
O239 O 0.1709 0.65232 0.79152 0.0
N240 N 0.10334 0.64805 0.8527 0.0
C241 C 0.05403 0.62832 0.80093 0.0
C242 C 0.06502 0.61746 0.84013 0.0
C243 C 0.11372 0.67789 0.82146 0.0
N244 N 0.08494 0.66627 0.78912 0.0
O245 O 0.18389 0.69848 0.87714 0.0
H246 H 0.04703 0.58769 0.85626 0.0
H247 H 0.14391 0.70582 0.81932 0.0
O248 O 0.15757 0.61876 0.85648 0.0
C249 C 0.19627 0.73201 0.89862 0.0
O250 O 0.17473 0.73215 0.93286 0.0
N251 N 0.09704 0.59551 0.91861 0.0
C252 C 0.05005 0.52414 0.96876 0.0
C253 C 0.06521 0.52151 0.92749 0.0
C254 C 0.08885 0.55758 0.90293 0.0
C255 C 0.07899 0.598 0.95668 0.0
C256 C 0.05598 0.56266 0.9829 0.0
H257 H 0.10112 0.55446 0.87194 0.0
H258 H 0.08493 0.62804 0.96821 0.0
H259 H 0.21904 0.63848 0.90031 0.0
H260 H 0.21365 0.64863 0.03757 0.0
H261 H 0.02695 0.60851 0.78095 0.0
H262 H 0.06058 0.49208 0.91523 0.0
H263 H 0.0438 0.56555 0.01428 0.0
C264 C 0.48559 0.68582 0.00753 0.0
C265 C 0.49882 0.72713 -0.00173 0.0
N266 N 0.48035 0.729 0.96048 0.0
N267 N 0.4591 0.66189 0.97554 0.0
C268 C 0.45622 0.68904 0.948 0.0
H269 H 0.4953 0.67423 0.03527 0.0
Co270 Co 0.43149 0.60479 0.9645 0.0
C271 C 0.46039 0.60257 0.87209 0.0
O272 O 0.46162 0.56807 0.87817 0.0
N273 N 0.40207 0.54728 0.9516 0.0
C274 C 0.36623 0.47775 0.95267 0.0
C275 C 0.39536 0.51313 0.9746 0.0
C276 C 0.37647 0.53165 0.91623 0.0
N277 N 0.35466 0.48969 0.91578 0.0
O278 O 0.38282 0.60728 0.95079 0.0
H279 H 0.40915 0.51337 0.00611 0.0
H280 H 0.37246 0.55095 0.89203 0.0
O281 O 0.44962 0.61791 0.90353 0.0
C282 C 0.36013 0.60324 0.98389 0.0
O283 O 0.37018 0.59458 0.02255 0.0
N284 N 0.47919 0.60309 0.98235 0.0
C285 C 0.54906 0.61254 0.02841 0.0
C286 C 0.55262 0.62668 0.98466 0.0
C287 C 0.51735 0.62223 0.96235 0.0
C288 C 0.47528 0.58915 0.02467 0.0
C289 C 0.50953 0.59298 0.04805 0.0
H290 H 0.52159 0.6367 0.93042 0.0
H291 H 0.44566 0.57707 0.04133 0.0
H292 H 0.43629 0.67927 0.9192 0.0
H293 H 0.52096 0.7536 0.01749 0.0
H294 H 0.35398 0.44586 0.96344 0.0
H295 H 0.58272 0.64295 0.9686 0.0
H296 H 0.50514 0.58152 0.08164 0.0
C297 C 0.1547 0.43843 0.59181 0.0
C298 C 0.15786 0.47025 0.5653 0.0
N299 N 0.17964 0.50635 0.58746 0.0
N300 N 0.17368 0.45449 0.63076 0.0
C301 C 0.1893 0.49582 0.62644 0.0
H302 H 0.13924 0.40582 0.5832 0.0
Co303 Co 0.17879 0.4296 0.68219 0.0
C304 C 0.20225 0.49769 0.74622 0.0
O305 O 0.23392 0.49437 0.76084 0.0
N306 N 0.18483 0.40552 0.73479 0.0
C307 C 0.18143 0.39244 0.80686 0.0
C308 C 0.15958 0.39344 0.77037 0.0
C309 C 0.22109 0.4097 0.75032 0.0
N310 N 0.22063 0.40388 0.79441 0.0
O311 O 0.23768 0.46319 0.67647 0.0
H312 H 0.12905 0.39052 0.77122 0.0
H313 H 0.24899 0.42134 0.73066 0.0
O314 O 0.17837 0.47341 0.71625 0.0
C315 C 0.25648 0.45591 0.6458 0.0
O316 O 0.23555 0.42229 0.62165 0.0
N317 N 0.12023 0.39662 0.68441 0.0
C318 C 0.04007 0.36329 0.64993 0.0
C319 C 0.05445 0.39454 0.68207 0.0
C320 C 0.09479 0.411 0.69885 0.0
C321 C 0.10457 0.36209 0.65846 0.0
C322 C 0.06459 0.34525 0.64012 0.0
H323 H 0.10615 0.43755 0.72038 0.0
H324 H 0.12507 0.35111 0.64721 0.0
H325 H 0.20693 0.51791 0.652 0.0
H326 H 0.14497 0.46696 0.53247 0.0
H327 H 0.17076 0.38878 0.84063 0.0
H328 H 0.03645 0.40917 0.69088 0.0
H329 H 0.05433 0.32065 0.61589 0.0
C330 C 0.47522 0.62457 0.55106 0.0
C331 C 0.437 0.58839 0.55058 0.0
N332 N 0.4182 0.58482 0.58966 0.0
N333 N 0.48051 0.64333 0.59042 0.0
C334 C 0.4452 0.61866 0.6129 0.0
H335 H 0.49782 0.63626 0.52464 0.0
Co336 Co 0.52624 0.6922 0.61073 0.0
C337 C 0.50489 0.68957 0.70445 0.0
O338 O 0.50779 0.72625 0.70073 0.0
N339 N 0.57211 0.74159 0.63173 0.0
C340 C 0.62328 0.78404 0.67684 0.0
C341 C 0.60235 0.7446 0.65919 0.0
C342 C 0.57633 0.77995 0.63216 0.0
N343 N 0.60649 0.80608 0.66007 0.0
O344 O 0.49152 0.71647 0.61082 0.0
H345 H 0.60617 0.7187 0.66937 0.0
H346 H 0.55447 0.78739 0.61678 0.0
O347 O 0.5117 0.67311 0.67107 0.0
C348 C 0.48855 0.7285 0.5722 0.0
O349 O 0.51296 0.72811 0.54108 0.0
N350 N 0.55865 0.66713 0.60605 0.0
C351 C 0.56834 0.6093 0.55839 0.0
C352 C 0.55024 0.59917 0.60052 0.0
C353 C 0.54608 0.62895 0.62429 0.0
C354 C 0.58291 0.67979 0.56934 0.0
C355 C 0.58865 0.65124 0.54505 0.0
H356 H 0.52657 0.61874 0.65321 0.0
H357 H 0.59233 0.71007 0.55523 0.0
H358 H 0.43964 0.62512 0.6461 0.0
H359 H 0.42401 0.56675 0.52339 0.0
H360 H 0.6462 0.79435 0.70312 0.0
H361 H 0.53441 0.56742 0.61261 0.0
H362 H 0.60446 0.66084 0.51359 0.0
C363 C 0.30227 0.75207 0.4783 0.0
C364 C 0.3385 0.75008 0.47656 0.0
N365 N 0.35009 0.74742 0.51819 0.0
N366 N 0.29146 0.75107 0.52086 0.0
C367 C 0.32088 0.74785 0.54412 0.0
H368 H 0.28492 0.75394 0.45043 0.0
Co369 Co 0.24632 0.75222 0.54575 0.0
C370 C 0.28526 0.80999 0.62189 0.0
O371 O 0.26269 0.82779 0.61504 0.0
N372 N 0.20028 0.75261 0.57263 0.0
C373 C 0.15253 0.7676 0.59762 0.0
C374 C 0.18279 0.77679 0.5661 0.0
C375 C 0.17961 0.72887 0.60793 0.0
N376 N 0.15051 0.73708 0.62334 0.0
O377 O 0.23083 0.70014 0.57158 0.0
H378 H 0.19244 0.80109 0.54159 0.0
H379 H 0.18706 0.70733 0.62407 0.0
O380 O 0.28086 0.78052 0.59689 0.0
C381 C 0.20716 0.66931 0.54727 0.0
O382 O 0.19277 0.67607 0.5103 0.0
N383 N 0.26161 0.80157 0.51523 0.0
C384 C 0.29158 0.85801 0.44566 0.0
C385 C 0.31407 0.86674 0.48525 0.0
C386 C 0.29904 0.83755 0.5194 0.0
C387 C 0.23814 0.79398 0.47793 0.0
C388 C 0.25264 0.8218 0.44253 0.0
H389 H 0.31972 0.84215 0.54661 0.0
H390 H 0.20979 0.76429 0.47414 0.0
H391 H 0.32086 0.74594 0.57969 0.0
H392 H 0.35452 0.74987 0.44689 0.0
H393 H 0.13416 0.78266 0.6019 0.0
H394 H 0.345 0.89378 0.48803 0.0
H395 H 0.235 0.81376 0.41201 0.0
C396 C 0.47771 0.09633 0.15777 0.0
C397 C 0.5114 0.11672 0.18714 0.0
H398 H 0.43971 0.10242 0.10821 0.0
C399 C 0.53307 0.16047 0.18875 0.0
H400 H 0.46015 0.06263 0.15621 0.0
C401 C 0.52192 0.18341 0.16041 0.0
C402 C 0.4879 0.16285 0.13135 0.0
H403 H 0.55907 0.17687 0.21127 0.0
H404 H 0.53967 0.21712 0.16136 0.0
C405 C 0.46572 0.11912 0.13065 0.0
C406 C 0.88925 0.33838 0.2866 0.0
C407 C 0.85398 0.32195 0.259 0.0
H408 H 0.91806 0.37131 0.34617 0.0
C409 C 0.81969 0.3261 0.27131 0.0
H410 H 0.9163 0.33602 0.27767 0.0
C411 C 0.82036 0.34556 0.31106 0.0
C412 C 0.85591 0.36243 0.33833 0.0
H413 H 0.79219 0.31381 0.2505 0.0
H414 H 0.7933 0.34781 0.32027 0.0
C415 C 0.89043 0.35893 0.32556 0.0
C416 C 0.64073 0.42131 0.25383 0.0
C417 C 0.65401 0.45885 0.23087 0.0
H418 H 0.5917 0.37176 0.29099 0.0
C419 C 0.62621 0.47399 0.2256 0.0
H420 H 0.66145 0.40881 0.25816 0.0
C421 C 0.58622 0.45247 0.24345 0.0
C422 C 0.57333 0.4157 0.2677 0.0
H423 H 0.63517 0.50241 0.20744 0.0
H424 H 0.56587 0.46542 0.23929 0.0
C425 C 0.60086 0.40012 0.27251 0.0
C426 C 0.37537 0.82801 0.69657 0.0
C427 C 0.39892 0.8717 0.69693 0.0
H428 H 0.32085 0.77391 0.67141 0.0
C429 C 0.3838 0.89463 0.67432 0.0
H430 H 0.3863 0.80974 0.71412 0.0
C431 C 0.34586 0.87438 0.65168 0.0
C432 C 0.32281 0.83073 0.6501 0.0
H433 H 0.40106 0.92838 0.6747 0.0
H434 H 0.33523 0.89295 0.63422 0.0
C435 C 0.33797 0.80763 0.67249 0.0
C436 C 0.17875 0.54976 0.73644 0.0
C437 C 0.19451 0.53011 0.76388 0.0
H438 H 0.15963 0.59554 0.73137 0.0
C439 C 0.20249 0.54147 0.80839 0.0
H440 H 0.1722 0.54146 0.70197 0.0
C441 C 0.19395 0.57131 0.82549 0.0
C442 C 0.17886 0.59154 0.79797 0.0
H443 H 0.21432 0.52651 0.83024 0.0
H444 H 0.19929 0.5785 0.86025 0.0
C445 C 0.17171 0.58079 0.75318 0.0
C446 C 0.48672 0.6263 0.7507 0.0
C447 C 0.49382 0.66725 0.74731 0.0
H448 H 0.47061 0.57369 0.7927 0.0
C449 C 0.49023 0.68667 0.78534 0.0
H450 H 0.48895 0.61028 0.72201 0.0
C451 C 0.47971 0.66566 0.82573 0.0
C452 C 0.47238 0.62469 0.82915 0.0
H453 H 0.4957 0.71822 0.78405 0.0
H454 H 0.47767 0.68172 0.85441 0.0
C455 C 0.47619 0.60528 0.79123 0.0
C456 C 0.47841 0.13357 0.8556 0.0
C457 C 0.44672 0.11816 0.88748 0.0
H458 H 0.50889 0.11811 0.80526 0.0
C459 C 0.4167 0.07573 0.88795 0.0
H460 H 0.50222 0.16622 0.85527 0.0
C461 C 0.42008 0.04848 0.85897 0.0
C462 C 0.45406 0.06326 0.82988 0.0
H463 H 0.39239 0.06332 0.91271 0.0
H464 H 0.39828 0.01539 0.86213 0.0
C465 C 0.48232 0.10619 0.8272 0.0
C466 C 0.97779 0.41397 0.00653 0.0
C467 C 0.99145 0.41446 0.05013 0.0
H468 H 0.98539 0.44832 0.94703 0.0
C469 C 0.02488 0.45174 0.06664 0.0
H470 H 0.95123 0.38651 0.99293 0.0
C471 C 0.04352 0.48769 0.04046 0.0
C472 C 0.02944 0.48685 -0.00283 0.0
H473 H 0.0363 0.4533 0.09992 0.0
H474 H 0.0692 0.51604 0.05384 0.0
C475 C -0.00318 0.44961 0.98029 0.0
C476 C 0.59062 0.63023 0.099 0.0
C477 C 0.5863 0.61914 0.0541 0.0
H478 H 0.62614 0.6416 0.15858 0.0
C479 C 0.61717 0.61319 0.0344 0.0
H480 H 0.56788 0.63596 0.11503 0.0
C481 C 0.65066 0.61668 0.05933 0.0
C482 C 0.65427 0.62639 0.10459 0.0
H483 H 0.61464 0.60424 8e-05 0.0
H484 H 0.67272 0.60989 0.04343 0.0
C485 C 0.62413 0.63371 0.12397 0.0
C486 C 0.00752 0.35713 0.57577 0.0
C487 C 0.00375 0.35537 0.62198 0.0
H488 H 0.98215 0.36185 0.51385 0.0
C489 C 0.96774 0.35233 0.64083 0.0
H490 H 0.03527 0.36027 0.56026 0.0
C491 C 0.93717 0.35311 0.6142 0.0
C492 C 0.94211 0.35745 0.56809 0.0
H493 H 0.96385 0.35067 0.67631 0.0
H494 H 0.91007 0.35123 0.62991 0.0
C495 C 0.97711 0.35823 0.54913 0.0
C496 C 0.5361 0.50344 0.50938 0.0
C497 C 0.526 0.50866 0.46608 0.0
H498 H 0.5598 0.53183 0.5721 0.0
C499 C 0.53289 0.5476 0.45221 0.0
H500 H 0.53188 0.47367 0.52019 0.0
C501 C 0.54826 0.5807 0.48183 0.0
C502 C 0.558 0.57572 0.52568 0.0
H503 H 0.52569 0.55217 0.41867 0.0
H504 H 0.55098 0.60971 0.47057 0.0
C505 C 0.55229 0.53677 0.53887 0.0
C506 C 0.35729 0.94959 0.37212 0.0
C507 C 0.37005 0.9308 0.34035 0.0
H508 H 0.3221 0.94081 0.43121 0.0
C509 C 0.35166 0.88733 0.33965 0.0
H510 H 0.37179 0.98321 0.37375 0.0
C511 C 0.32274 0.86314 0.37197 0.0
C512 C 0.3127 0.88229 0.4059 0.0
H513 H 0.36163 0.87239 0.31586 0.0
H514 H 0.31085 0.82984 0.37252 0.0
C515 C 0.32915 0.92551 0.40503 0.0
C516 C 0.40332 0.25964 0.21622 0.0
C517 C 0.40129 0.29616 0.22176 0.0
H518 H 0.41024 0.21946 0.17093 0.0
C519 C 0.3976 0.31659 0.18426 0.0
H520 H 0.40547 0.24294 0.24459 0.0
C521 C 0.39991 0.30277 0.1419 0.0
C522 C 0.40609 0.26859 0.13685 0.0
H523 H 0.39621 0.34492 0.18767 0.0
H524 H 0.40017 0.3206 0.11339 0.0
C525 C 0.40595 0.24616 0.17424 0.0
C526 C 0.70079 0.12379 0.24787 0.0
C527 C 0.67065 0.09022 0.22301 0.0
H528 H 0.76203 0.17726 0.24936 0.0
C529 C 0.68191 0.08146 0.18194 0.0
H530 H 0.69326 0.13058 0.28013 0.0
C531 C 0.72162 0.10812 0.16449 0.0
C532 C 0.75038 0.14371 0.188 0.0
H533 H 0.65923 0.05573 0.16222 0.0
H534 H 0.72872 0.10263 0.13145 0.0
C535 C 0.74016 0.15028 0.23051 0.0
C536 C 0.85118 0.51084 0.33887 0.0
C537 C 0.85527 0.52224 0.38347 0.0
H538 H 0.83698 0.52137 0.27337 0.0
C539 C 0.85165 0.55703 0.39532 0.0
H540 H 0.85473 0.48487 0.32854 0.0
C541 C 0.84154 0.57821 0.36339 0.0
C542 C 0.83472 0.56473 0.31937 0.0
H543 H 0.85449 0.56649 0.42946 0.0
H544 H 0.83694 0.60363 0.37339 0.0
C545 C 0.84098 0.53172 0.3073 0.0
C546 C 0.59678 0.87298 0.74487 0.0
C547 C 0.58824 0.89899 0.71839 0.0
H548 H 0.61032 0.82332 0.74687 0.0
C549 C 0.59269 0.89861 0.67248 0.0
H550 H 0.59357 0.87291 0.78037 0.0
C551 C 0.60194 0.86997 0.65319 0.0
C552 C 0.60761 0.8419 0.6796 0.0
H553 H 0.58592 0.91821 0.65147 0.0
H554 H 0.6023 0.86801 0.61759 0.0
C555 C 0.60672 0.84492 0.7257 0.0
C556 C 0.1138 0.7273 0.7395 0.0
C557 C 0.09343 0.68389 0.74545 0.0
H558 H 0.14727 0.77851 0.69466 0.0
C559 C 0.08755 0.65835 0.70891 0.0
H560 H 0.11897 0.74752 0.76736 0.0
C561 C 0.10436 0.676 0.66797 0.0
C562 C 0.12645 0.71938 0.66256 0.0
H563 H 0.07269 0.62489 0.71276 0.0
H564 H 0.10187 0.65591 0.64091 0.0
C565 C 0.12978 0.74494 0.69814 0.0
C566 C 0.29447 0.45601 0.8099 0.0
C567 C 0.2567 0.4211 0.82327 0.0
H568 H 0.35514 0.50479 0.82881 0.0
C569 C 0.25349 0.4067 0.86693 0.0
H570 H 0.29828 0.46859 0.77691 0.0
C571 C 0.28645 0.4279 0.89695 0.0
C572 C 0.32307 0.46419 0.88399 0.0
H573 H 0.22496 0.37985 0.87822 0.0
H574 H 0.28245 0.41715 0.93079 0.0
C575 C 0.32708 0.47726 0.83987 0.0
C576 C 0.59441 0.38488 0.08575 0.0
C577 C 0.58187 0.37404 0.04181 0.0
H578 H 0.63689 0.43159 0.13004 0.0
C579 C 0.6017 0.40411 0.00844 0.0
H580 H 0.5797 0.3624 0.11211 0.0
C581 C 0.63466 0.44374 0.01865 0.0
C582 C 0.64788 0.45423 0.06243 0.0
H583 H 0.59273 0.39664 0.97418 0.0
H584 H 0.65031 0.466 0.99235 0.0
C585 C 0.62695 0.42466 0.09599 0.0
C586 C 0.70958 0.23804 0.02018 0.0
C587 C 0.72447 0.25308 0.0628 0.0
H588 H 0.66324 0.22538 0.97093 0.0
C589 C 0.70198 0.26588 0.08934 0.0
H590 H 0.72611 0.22777 -0.00107 0.0
C591 C 0.66612 0.26497 0.07301 0.0
C592 C 0.65189 0.2511 0.02983 0.0
H593 H 0.71281 0.27794 0.12219 0.0
H594 H 0.6504 0.27639 0.09384 0.0
C595 C 0.67372 0.23704 0.00391 0.0
C596 C 0.86819 0.48112 0.09982 0.0
C597 C 0.84488 0.44135 0.11894 0.0
H598 H 0.87884 0.54343 0.09606 0.0
C599 C 0.81585 0.43519 0.15204 0.0
H600 H 0.89135 0.48713 0.07486 0.0
C601 C 0.80918 0.46746 0.16458 0.0
C602 C 0.83108 0.50661 0.14412 0.0
H603 H 0.79707 0.40506 0.16738 0.0
H604 H 0.78604 0.46135 0.1896 0.0
C605 C 0.8614 0.5135 0.11236 0.0
C606 C 0.68813 0.40125 0.4958 0.0
C607 C 0.70573 0.38767 0.46354 0.0
H608 H 0.63595 0.40724 0.51515 0.0
C609 C 0.68314 0.36952 0.42475 0.0
H610 H 0.70486 0.41556 0.52599 0.0
C611 C 0.64334 0.36426 0.4188 0.0
C612 C 0.62538 0.37728 0.45139 0.0
H613 H 0.69576 0.35845 0.39944 0.0
H614 H 0.62637 0.34908 0.38906 0.0
C615 C 0.64844 0.39619 0.48976 0.0
C616 C 0.50192 0.19992 0.35384 0.0
C617 C 0.47357 0.16126 0.37272 0.0
H618 H 0.51822 0.26289 0.34205 0.0
C619 C 0.4388 0.15745 0.39553 0.0
H620 H 0.52971 0.20467 0.33712 0.0
C621 C 0.43256 0.19161 0.39909 0.0
C622 C 0.46079 0.22992 0.37953 0.0
H623 H 0.41623 0.12808 0.4102 0.0
H624 H 0.40565 0.18799 0.41691 0.0
C625 C 0.49543 0.23361 0.35685 0.0
C626 C 0.68423 0.1804 0.44669 0.0
C627 C 0.69683 0.22118 0.43267 0.0
H628 H 0.64436 0.11517 0.43539 0.0
C629 C 0.67818 0.2268 0.39459 0.0
H630 H 0.69823 0.17487 0.47545 0.0
C631 C 0.64767 0.19259 0.37129 0.0
C632 C 0.63481 0.15191 0.38566 0.0
H633 H 0.68641 0.25763 0.3831 0.0
H634 H 0.63359 0.19809 0.34252 0.0
C635 C 0.65353 0.14617 0.42349 0.0
C636 C 0.47311 0.76278 0.89269 0.0
C637 C 0.48523 0.76539 0.9373 0.0
H638 H 0.4662 0.794 0.83647 0.0
C639 C 0.50148 0.80396 0.95877 0.0
H640 H 0.46111 0.73411 0.87444 0.0
C641 C 0.50478 0.83864 0.93654 0.0
C642 C 0.49176 0.83556 0.89235 0.0
H643 H 0.51088 0.80731 0.99303 0.0
H644 H 0.51684 0.8677 0.95434 0.0
C645 C 0.47622 0.79735 0.87059 0.0
C646 C 0.25281 0.80574 0.91208 0.0
C647 C 0.23812 0.76782 0.88971 0.0
H648 H 0.30426 0.86674 0.92422 0.0
C649 C 0.26514 0.76298 0.86121 0.0
H650 H 0.23265 0.81037 0.93428 0.0
C651 C 0.30629 0.79475 0.85619 0.0
C652 C 0.32155 0.83265 0.87899 0.0
H653 H 0.255 0.73402 0.84377 0.0
H654 H 0.32613 0.78874 0.83514 0.0
C655 C 0.29405 0.83793 0.9066 0.0
C656 C 0.26731 0.61503 0.01302 0.0
C657 C 0.262 0.63289 0.97432 0.0
H658 H 0.30214 0.59114 0.04618 0.0
C659 C 0.28922 0.64065 0.9387 0.0
H660 H 0.24659 0.60808 0.0408 0.0
C661 C 0.32059 0.63031 0.94149 0.0
C662 C 0.32571 0.61232 0.98011 0.0
H663 H 0.28659 0.65502 0.90865 0.0
H664 H 0.34115 0.63695 0.91356 0.0
C665 C 0.29889 0.60492 0.01591 0.0
C666 C 0.35677 0.55912 0.63845 0.0
C667 C 0.37804 0.55193 0.60434 0.0
H668 H 0.30224 0.53445 0.67866 0.0
C669 C 0.35958 0.5121 0.58526 0.0
H670 H 0.36951 0.58947 0.65351 0.0
C671 C 0.32055 0.48045 0.59954 0.0
C672 C 0.29927 0.48793 0.63332 0.0
H673 H 0.37529 0.50525 0.55942 0.0
H674 H 0.3069 0.45027 0.58378 0.0
C675 C 0.318 0.52749 0.65289 0.0
C676 C 0.38626 0.72807 0.57456 0.0
C677 C 0.38577 0.74447 0.53264 0.0
H678 H 0.41934 0.71079 0.62027 0.0
C679 C 0.42074 0.75798 0.50526 0.0
H680 H 0.35979 0.71674 0.59645 0.0
C681 C 0.45481 0.75422 0.51895 0.0
C682 C 0.45481 0.73708 0.56041 0.0
H683 H 0.42185 0.77142 0.4732 0.0
H684 H 0.48092 0.76419 0.49666 0.0
C685 C 0.42048 0.72462 0.58837 0.0
C686 C 0.22591 0.62225 0.58748 0.0
C687 C 0.19973 0.62732 0.55764 0.0
H688 H 0.2415 0.58023 0.61856 0.0
C689 C 0.16794 0.59223 0.53607 0.0
H690 H 0.25125 0.64885 0.60387 0.0
C691 C 0.16188 0.55255 0.54494 0.0
C692 C 0.18778 0.54734 0.57524 0.0
H693 H 0.14744 0.59535 0.51268 0.0
H694 H 0.13634 0.52598 0.52886 0.0
C695 C 0.22025 0.58279 0.59586 0.0
loop_
_geom_bond_atom_site_label_1
_geom_bond_atom_site_label_2
_geom_bond_distance
_geom_bond_site_symmetry_2
_ccdc_geom_bond_type
C0 C1 1.351 . S
C0 N3 1.368 . S
C0 H5 0.931 . S
C1 C0 1.351 . S
C1 N2 1.373 . S
C1 H29 0.930 1_554 S
N2 C1 1.373 . S
N2 C4 1.340 . S
N3 C0 1.368 . S
N3 C4 1.321 . S
N3 Co6 2.135 . S
C4 N2 1.340 . S
C4 N3 1.321 . S
C4 H28 0.930 . S
H5 C0 0.931 . S
Co6 N3 2.135 . S
Co6 N9 2.121 . S
Co6 O14 2.055 . S
Co6 O17 2.039 . S
Co6 N20 2.140 . S
C7 O8 1.227 . S
C7 O17 1.265 . S
O8 C7 1.227 . S
N9 Co6 2.121 . S
N9 C11 1.375 . S
N9 C12 1.313 . S
C10 C11 1.338 . S
C10 N13 1.377 . S
C10 H30 0.930 . S
C11 N9 1.375 . S
C11 C10 1.338 . S
C11 H15 0.931 . S
C12 N9 1.313 . S
C12 N13 1.344 . S
C12 H16 0.930 . S
N13 C10 1.377 . S
N13 C12 1.344 . S
O14 Co6 2.055 . S
O14 C18 1.253 . S
H15 C11 0.931 . S
H16 C12 0.930 . S
O17 Co6 2.039 . S
O17 C7 1.265 . S
C18 O14 1.253 . S
C18 O19 1.227 . S
O19 C18 1.227 . S
N20 Co6 2.140 . S
N20 C23 1.346 . S
N20 C24 1.345 . S
C21 C22 1.387 . S
C21 C25 1.391 . S
C22 C21 1.387 . S
C22 C23 1.369 . S
C22 H31 0.929 . S
C23 N20 1.346 . S
C23 C22 1.369 . S
C23 H26 0.928 . S
C24 N20 1.345 . S
C24 C25 1.371 . S
C24 H27 0.931 . S
C25 C21 1.391 . S
C25 C24 1.371 . S
C25 H32 0.930 . S
H26 C23 0.928 . S
H27 C24 0.931 . S
H28 C4 0.930 . S
H29 C1 0.930 1_556 S
H30 C10 0.930 . S
H31 C22 0.929 . S
H32 C25 0.930 . S
C33 C34 1.351 . S
C33 N36 1.368 . S
C33 H38 0.931 . S
C34 C33 1.351 . S
C34 N35 1.373 . S
C34 H62 0.930 1_554 S
N35 C34 1.373 . S
N35 C37 1.340 . S
N36 C33 1.368 . S
N36 C37 1.321 . S
N36 Co39 2.135 . S
C37 N35 1.340 . S
C37 N36 1.321 . S
C37 H61 0.930 . S
H38 C33 0.931 . S
Co39 N36 2.135 . S
Co39 N42 2.121 . S
Co39 O47 2.055 . S
Co39 O50 2.039 . S
Co39 N53 2.140 . S
C40 O41 1.227 . S
C40 O50 1.265 . S
O41 C40 1.227 . S
N42 Co39 2.121 . S
N42 C44 1.375 . S
N42 C45 1.313 . S
C43 C44 1.338 . S
C43 N46 1.377 . S
C43 H63 0.930 . S
C44 N42 1.375 . S
C44 C43 1.338 . S
C44 H48 0.931 . S
C45 N42 1.313 . S
C45 N46 1.344 . S
C45 H49 0.930 . S
N46 C43 1.377 . S
N46 C45 1.344 . S
O47 Co39 2.055 . S
O47 C51 1.253 . S
H48 C44 0.931 . S
H49 C45 0.930 . S
O50 Co39 2.039 . S
O50 C40 1.265 . S
C51 O47 1.253 . S
C51 O52 1.227 . S
O52 C51 1.227 . S
N53 Co39 2.140 . S
N53 C56 1.346 . S
N53 C57 1.345 . S
C54 C55 1.387 . S
C54 C58 1.391 . S
C55 C54 1.387 . S
C55 C56 1.369 . S
C55 H64 0.929 . S
C56 N53 1.346 . S
C56 C55 1.369 . S
C56 H59 0.928 . S
C57 N53 1.345 . S
C57 C58 1.371 . S
C57 H60 0.931 . S
C58 C54 1.391 . S
C58 C57 1.371 . S
C58 H65 0.930 . S
H59 C56 0.928 . S
H60 C57 0.931 . S
H61 C37 0.930 . S
H62 C34 0.930 1_556 S
H63 C43 0.930 . S
H64 C55 0.929 . S
H65 C58 0.930 . S
C66 C67 1.351 . S
C66 N69 1.368 . S
C66 H71 0.931 . S
C67 C66 1.351 . S
C67 N68 1.373 . S
C67 H95 0.930 1_554 S
N68 C67 1.373 . S
N68 C70 1.340 . S
N69 C66 1.368 . S
N69 C70 1.321 . S
N69 Co72 2.135 . S
C70 N68 1.340 . S
C70 N69 1.321 . S
C70 H94 0.930 . S
H71 C66 0.931 . S
Co72 N69 2.135 . S
Co72 N75 2.121 . S
Co72 O80 2.055 . S
Co72 O83 2.039 . S
Co72 N86 2.140 . S
C73 O74 1.227 . S
C73 O83 1.265 . S
O74 C73 1.227 . S
N75 Co72 2.121 . S
N75 C77 1.375 . S
N75 C78 1.313 . S
C76 C77 1.338 . S
C76 N79 1.377 . S
C76 H96 0.930 . S
C77 N75 1.375 . S
C77 C76 1.338 . S
C77 H81 0.931 . S
C78 N75 1.313 . S
C78 N79 1.344 . S
C78 H82 0.930 . S
N79 C76 1.377 . S
N79 C78 1.344 . S
O80 Co72 2.055 . S
O80 C84 1.253 . S
H81 C77 0.931 . S
H82 C78 0.930 . S
O83 Co72 2.039 . S
O83 C73 1.265 . S
C84 O80 1.253 . S
C84 O85 1.227 . S
O85 C84 1.227 . S
N86 Co72 2.140 . S
N86 C89 1.346 . S
N86 C90 1.345 . S
C87 C88 1.387 . S
C87 C91 1.391 . S
C88 C87 1.387 . S
C88 C89 1.369 . S
C88 H97 0.929 . S
C89 N86 1.346 . S
C89 C88 1.369 . S
C89 H92 0.928 . S
C90 N86 1.345 . S
C90 C91 1.371 . S
C90 H93 0.931 . S
C91 C87 1.391 . S
C91 C90 1.371 . S
C91 H98 0.930 . S
H92 C89 0.928 . S
H93 C90 0.931 . S
H94 C70 0.930 . S
H95 C67 0.930 1_556 S
H96 C76 0.930 . S
H97 C88 0.929 . S
H98 C91 0.930 . S
C99 C100 1.351 . S
C99 N102 1.368 . S
C99 H104 0.931 . S
C100 C99 1.351 . S
C100 N101 1.373 . S
C100 H128 0.930 . S
N101 C100 1.373 . S
N101 C103 1.340 . S
N102 C99 1.368 . S
N102 C103 1.321 . S
N102 Co105 2.135 . S
C103 N101 1.340 . S
C103 N102 1.321 . S
C103 H127 0.930 . S
H104 C99 0.931 . S
Co105 N102 2.135 . S
Co105 N108 2.121 . S
Co105 O113 2.055 . S
Co105 O116 2.039 . S
Co105 N119 2.140 . S
C106 O107 1.227 . S
C106 O116 1.265 . S
O107 C106 1.227 . S
N108 Co105 2.121 . S
N108 C110 1.375 . S
N108 C111 1.313 . S
C109 C110 1.338 . S
C109 N112 1.377 . S
C109 H129 0.930 . S
C110 N108 1.375 . S
C110 C109 1.338 . S
C110 H114 0.931 . S
C111 N108 1.313 . S
C111 N112 1.344 . S
C111 H115 0.930 . S
N112 C109 1.377 . S
N112 C111 1.344 . S
O113 Co105 2.055 . S
O113 C117 1.253 . S
H114 C110 0.931 . S
H115 C111 0.930 . S
O116 Co105 2.039 . S
O116 C106 1.265 . S
C117 O113 1.253 . S
C117 O118 1.227 . S
O118 C117 1.227 . S
N119 Co105 2.140 . S
N119 C122 1.346 . S
N119 C123 1.345 . S
C120 C121 1.387 . S
C120 C124 1.391 . S
C121 C120 1.387 . S
C121 C122 1.369 . S
C121 H130 0.929 . S
C122 N119 1.346 . S
C122 C121 1.369 . S
C122 H125 0.928 . S
C123 N119 1.345 . S
C123 C124 1.371 . S
C123 H126 0.931 . S
C124 C120 1.391 . S
C124 C123 1.371 . S
C124 H131 0.930 . S
H125 C122 0.928 . S
H126 C123 0.931 . S
H127 C103 0.930 . S
H128 C100 0.930 . S
H129 C109 0.930 . S
H130 C121 0.929 . S
H131 C124 0.930 . S
C132 C133 1.351 . S
C132 N135 1.368 . S
C132 H137 0.931 . S
C133 C132 1.351 . S
C133 N134 1.373 . S
C133 H161 0.930 . S
N134 C133 1.373 . S
N134 C136 1.340 . S
N135 C132 1.368 . S
N135 C136 1.321 . S
N135 Co138 2.135 . S
C136 N134 1.340 . S
C136 N135 1.321 . S
C136 H160 0.930 . S
H137 C132 0.931 . S
Co138 N135 2.135 . S
Co138 N141 2.121 . S
Co138 O146 2.055 . S
Co138 O149 2.039 . S
Co138 N152 2.140 . S
C139 O140 1.227 . S
C139 O149 1.265 . S
O140 C139 1.227 . S
N141 Co138 2.121 . S
N141 C143 1.375 . S
N141 C144 1.313 . S
C142 C143 1.338 . S
C142 N145 1.377 . S
C142 H162 0.930 . S
C143 N141 1.375 . S
C143 C142 1.338 . S
C143 H147 0.931 . S
C144 N141 1.313 . S
C144 N145 1.344 . S
C144 H148 0.930 . S
N145 C142 1.377 . S
N145 C144 1.344 . S
O146 Co138 2.055 . S
O146 C150 1.253 . S
H147 C143 0.931 . S
H148 C144 0.930 . S
O149 Co138 2.039 . S
O149 C139 1.265 . S
C150 O146 1.253 . S
C150 O151 1.227 . S
O151 C150 1.227 . S
N152 Co138 2.140 . S
N152 C155 1.346 . S
N152 C156 1.345 . S
C153 C154 1.387 . S
C153 C157 1.391 . S
C154 C153 1.387 . S
C154 C155 1.369 . S
C154 H163 0.929 . S
C155 N152 1.346 . S
C155 C154 1.369 . S
C155 H158 0.928 . S
C156 N152 1.345 . S
C156 C157 1.371 . S
C156 H159 0.931 . S
C157 C153 1.391 . S
C157 C156 1.371 . S
C157 H164 0.930 . S
H158 C155 0.928 . S
H159 C156 0.931 . S
H160 C136 0.930 . S
H161 C133 0.930 . S
H162 C142 0.930 . S
H163 C154 0.929 . S
H164 C157 0.930 . S
C165 C166 1.351 . S
C165 N168 1.368 . S
C165 H170 0.931 . S
C166 C165 1.351 . S
C166 N167 1.373 . S
C166 H194 0.930 . S
N167 C166 1.373 . S
N167 C169 1.340 . S
N168 C165 1.368 . S
N168 C169 1.321 . S
N168 Co171 2.135 . S
C169 N167 1.340 . S
C169 N168 1.321 . S
C169 H193 0.930 . S
H170 C165 0.931 . S
Co171 N168 2.135 . S
Co171 N174 2.121 . S
Co171 O179 2.055 . S
Co171 O182 2.039 . S
Co171 N185 2.140 . S
C172 O173 1.227 . S
C172 O182 1.265 . S
O173 C172 1.227 . S
N174 Co171 2.121 . S
N174 C176 1.375 . S
N174 C177 1.313 . S
C175 C176 1.338 . S
C175 N178 1.377 . S
C175 H195 0.930 . S
C176 N174 1.375 . S
C176 C175 1.338 . S
C176 H180 0.931 . S
C177 N174 1.313 . S
C177 N178 1.344 . S
C177 H181 0.930 . S
N178 C175 1.377 . S
N178 C177 1.344 . S
O179 Co171 2.055 . S
O179 C183 1.253 . S
H180 C176 0.931 . S
H181 C177 0.930 . S
O182 Co171 2.039 . S
O182 C172 1.265 . S
C183 O179 1.253 . S
C183 O184 1.227 . S
O184 C183 1.227 . S
N185 Co171 2.140 . S
N185 C188 1.346 . S
N185 C189 1.345 . S
C186 C187 1.387 . S
C186 C190 1.391 . S
C187 C186 1.387 . S
C187 C188 1.369 . S
C187 H196 0.929 . S
C188 N185 1.346 . S
C188 C187 1.369 . S
C188 H191 0.928 . S
C189 N185 1.345 . S
C189 C190 1.371 . S
C189 H192 0.931 . S
C190 C186 1.391 . S
C190 C189 1.371 . S
C190 H197 0.930 . S
H191 C188 0.928 . S
H192 C189 0.931 . S
H193 C169 0.930 . S
H194 C166 0.930 . S
H195 C175 0.930 . S
H196 C187 0.929 . S
H197 C190 0.930 . S
C198 C199 1.351 . S
C198 N201 1.368 . S
C198 H203 0.931 . S
C199 C198 1.351 . S
C199 N200 1.373 . S
C199 H227 0.930 1_556 S
N200 C199 1.373 . S
N200 C202 1.340 . S
N201 C198 1.368 . S
N201 C202 1.321 . S
N201 Co204 2.135 . S
C202 N200 1.340 . S
C202 N201 1.321 . S
C202 H226 0.930 . S
H203 C198 0.931 . S
Co204 N201 2.135 . S
Co204 N207 2.121 . S
Co204 O212 2.055 . S
Co204 O215 2.039 . S
Co204 N218 2.140 . S
C205 O206 1.227 . S
C205 O215 1.265 . S
O206 C205 1.227 . S
N207 Co204 2.121 . S
N207 C209 1.375 . S
N207 C210 1.313 . S
C208 C209 1.338 . S
C208 N211 1.377 . S
C208 H228 0.930 . S
C209 N207 1.375 . S
C209 C208 1.338 . S
C209 H213 0.931 . S
C210 N207 1.313 . S
C210 N211 1.344 . S
C210 H214 0.930 . S
N211 C208 1.377 . S
N211 C210 1.344 . S
O212 Co204 2.055 . S
O212 C216 1.253 . S
H213 C209 0.931 . S
H214 C210 0.930 . S
O215 Co204 2.039 . S
O215 C205 1.265 . S
C216 O212 1.253 . S
C216 O217 1.227 . S
O217 C216 1.227 . S
N218 Co204 2.140 . S
N218 C221 1.346 . S
N218 C222 1.345 . S
C219 C220 1.387 . S
C219 C223 1.391 . S
C220 C219 1.387 . S
C220 C221 1.369 . S
C220 H229 0.929 . S
C221 N218 1.346 . S
C221 C220 1.369 . S
C221 H224 0.928 . S
C222 N218 1.345 . S
C222 C223 1.371 . S
C222 H225 0.931 . S
C223 C219 1.391 . S
C223 C222 1.371 . S
C223 H230 0.930 . S
H224 C221 0.928 . S
H225 C222 0.931 . S
H226 C202 0.930 . S
H227 C199 0.930 1_554 S
H228 C208 0.930 . S
H229 C220 0.929 . S
H230 C223 0.930 . S
C231 C232 1.351 . S
C231 N234 1.368 . S
C231 H236 0.931 . S
C232 C231 1.351 . S
C232 N233 1.373 . S
C232 H260 0.930 1_556 S
N233 C232 1.373 . S
N233 C235 1.340 . S
N234 C231 1.368 . S
N234 C235 1.321 . S
N234 Co237 2.135 . S
C235 N233 1.340 . S
C235 N234 1.321 . S
C235 H259 0.930 . S
H236 C231 0.931 . S
Co237 N234 2.135 . S
Co237 N240 2.121 . S
Co237 O245 2.055 . S
Co237 O248 2.039 . S
Co237 N251 2.140 . S
C238 O239 1.227 . S
C238 O248 1.265 . S
O239 C238 1.227 . S
N240 Co237 2.121 . S
N240 C242 1.375 . S
N240 C243 1.313 . S
C241 C242 1.338 . S
C241 N244 1.377 . S
C241 H261 0.930 . S
C242 N240 1.375 . S
C242 C241 1.338 . S
C242 H246 0.931 . S
C243 N240 1.313 . S
C243 N244 1.344 . S
C243 H247 0.930 . S
N244 C241 1.377 . S
N244 C243 1.344 . S
O245 Co237 2.055 . S
O245 C249 1.253 . S
H246 C242 0.931 . S
H247 C243 0.930 . S
O248 Co237 2.039 . S
O248 C238 1.265 . S
C249 O245 1.253 . S
C249 O250 1.227 . S
O250 C249 1.227 . S
N251 Co237 2.140 . S
N251 C254 1.346 . S
N251 C255 1.345 . S
C252 C253 1.387 . S
C252 C256 1.391 . S
C253 C252 1.387 . S
C253 C254 1.369 . S
C253 H262 0.929 . S
C254 N251 1.346 . S
C254 C253 1.369 . S
C254 H257 0.928 . S
C255 N251 1.345 . S
C255 C256 1.371 . S
C255 H258 0.931 . S
C256 C252 1.391 . S
C256 C255 1.371 . S
C256 H263 0.930 . S
H257 C254 0.928 . S
H258 C255 0.931 . S
H259 C235 0.930 . S
H260 C232 0.930 1_554 S
H261 C241 0.930 . S
H262 C253 0.929 . S
H263 C256 0.930 . S
C264 C265 1.351 . S
C264 N267 1.368 . S
C264 H269 0.931 . S
C265 C264 1.351 . S
C265 N266 1.373 . S
C265 H293 0.930 1_556 S
N266 C265 1.373 . S
N266 C268 1.340 . S
N267 C264 1.368 . S
N267 C268 1.321 . S
N267 Co270 2.135 . S
C268 N266 1.340 . S
C268 N267 1.321 . S
C268 H292 0.930 . S
H269 C264 0.931 . S
Co270 N267 2.135 . S
Co270 N273 2.121 . S
Co270 O278 2.055 . S
Co270 O281 2.039 . S
Co270 N284 2.140 . S
C271 O272 1.227 . S
C271 O281 1.265 . S
O272 C271 1.227 . S
N273 Co270 2.121 . S
N273 C275 1.375 . S
N273 C276 1.313 . S
C274 C275 1.338 . S
C274 N277 1.377 . S
C274 H294 0.930 . S
C275 N273 1.375 . S
C275 C274 1.338 . S
C275 H279 0.931 . S
C276 N273 1.313 . S
C276 N277 1.344 . S
C276 H280 0.930 . S
N277 C274 1.377 . S
N277 C276 1.344 . S
O278 Co270 2.055 . S
O278 C282 1.253 . S
H279 C275 0.931 . S
H280 C276 0.930 . S
O281 Co270 2.039 . S
O281 C271 1.265 . S
C282 O278 1.253 . S
C282 O283 1.227 . S
O283 C282 1.227 . S
N284 Co270 2.140 . S
N284 C287 1.346 . S
N284 C288 1.345 . S
C285 C286 1.387 . S
C285 C289 1.391 . S
C286 C285 1.387 . S
C286 C287 1.369 . S
C286 H295 0.929 . S
C287 N284 1.346 . S
C287 C286 1.369 . S
C287 H290 0.928 . S
C288 N284 1.345 . S
C288 C289 1.371 . S
C288 H291 0.931 . S
C289 C285 1.391 . S
C289 C288 1.371 . S
C289 H296 0.930 . S
H290 C287 0.928 . S
H291 C288 0.931 . S
H292 C268 0.930 . S
H293 C265 0.930 1_554 S
H294 C274 0.930 . S
H295 C286 0.929 . S
H296 C289 0.930 . S
C297 C298 1.351 . S
C297 N300 1.368 . S
C297 H302 0.931 . S
C298 C297 1.351 . S
C298 N299 1.373 . S
C298 H326 0.930 . S
N299 C298 1.373 . S
N299 C301 1.340 . S
N300 C297 1.368 . S
N300 C301 1.321 . S
N300 Co303 2.135 . S
C301 N299 1.340 . S
C301 N300 1.321 . S
C301 H325 0.930 . S
H302 C297 0.931 . S
Co303 N300 2.135 . S
Co303 N306 2.121 . S
Co303 O311 2.055 . S
Co303 O314 2.039 . S
Co303 N317 2.140 . S
C304 O305 1.227 . S
C304 O314 1.265 . S
O305 C304 1.227 . S
N306 Co303 2.121 . S
N306 C308 1.375 . S
N306 C309 1.313 . S
C307 C308 1.338 . S
C307 N310 1.377 . S
C307 H327 0.930 . S
C308 N306 1.375 . S
C308 C307 1.338 . S
C308 H312 0.931 . S
C309 N306 1.313 . S
C309 N310 1.344 . S
C309 H313 0.930 . S
N310 C307 1.377 . S
N310 C309 1.344 . S
O311 Co303 2.055 . S
O311 C315 1.253 . S
H312 C308 0.931 . S
H313 C309 0.930 . S
O314 Co303 2.039 . S
O314 C304 1.265 . S
C315 O311 1.253 . S
C315 O316 1.227 . S
O316 C315 1.227 . S
N317 Co303 2.140 . S
N317 C320 1.346 . S
N317 C321 1.345 . S
C318 C319 1.387 . S
C318 C322 1.391 . S
C319 C318 1.387 . S
C319 C320 1.369 . S
C319 H328 0.929 . S
C320 N317 1.346 . S
C320 C319 1.369 . S
C320 H323 0.928 . S
C321 N317 1.345 . S
C321 C322 1.371 . S
C321 H324 0.931 . S
C322 C318 1.391 . S
C322 C321 1.371 . S
C322 H329 0.930 . S
H323 C320 0.928 . S
H324 C321 0.931 . S
H325 C301 0.930 . S
H326 C298 0.930 . S
H327 C307 0.930 . S
H328 C319 0.929 . S
H329 C322 0.930 . S
C330 C331 1.351 . S
C330 N333 1.368 . S
C330 H335 0.931 . S
C331 C330 1.351 . S
C331 N332 1.373 . S
C331 H359 0.930 . S
N332 C331 1.373 . S
N332 C334 1.340 . S
N333 C330 1.368 . S
N333 C334 1.321 . S
N333 Co336 2.135 . S
C334 N332 1.340 . S
C334 N333 1.321 . S
C334 H358 0.930 . S
H335 C330 0.931 . S
Co336 N333 2.135 . S
Co336 N339 2.121 . S
Co336 O344 2.055 . S
Co336 O347 2.039 . S
Co336 N350 2.140 . S
C337 O338 1.227 . S
C337 O347 1.265 . S
O338 C337 1.227 . S
N339 Co336 2.121 . S
N339 C341 1.375 . S
N339 C342 1.313 . S
C340 C341 1.338 . S
C340 N343 1.377 . S
C340 H360 0.930 . S
C341 N339 1.375 . S
C341 C340 1.338 . S
C341 H345 0.931 . S
C342 N339 1.313 . S
C342 N343 1.344 . S
C342 H346 0.930 . S
N343 C340 1.377 . S
N343 C342 1.344 . S
O344 Co336 2.055 . S
O344 C348 1.253 . S
H345 C341 0.931 . S
H346 C342 0.930 . S
O347 Co336 2.039 . S
O347 C337 1.265 . S
C348 O344 1.253 . S
C348 O349 1.227 . S
O349 C348 1.227 . S
N350 Co336 2.140 . S
N350 C353 1.346 . S
N350 C354 1.345 . S
C351 C352 1.387 . S
C351 C355 1.391 . S
C352 C351 1.387 . S
C352 C353 1.369 . S
C352 H361 0.929 . S
C353 N350 1.346 . S
C353 C352 1.369 . S
C353 H356 0.928 . S
C354 N350 1.345 . S
C354 C355 1.371 . S
C354 H357 0.931 . S
C355 C351 1.391 . S
C355 C354 1.371 . S
C355 H362 0.930 . S
H356 C353 0.928 . S
H357 C354 0.931 . S
H358 C334 0.930 . S
H359 C331 0.930 . S
H360 C340 0.930 . S
H361 C352 0.929 . S
H362 C355 0.930 . S
C363 C364 1.351 . S
C363 N366 1.368 . S
C363 H368 0.931 . S
C364 C363 1.351 . S
C364 N365 1.373 . S
C364 H392 0.930 . S
N365 C364 1.373 . S
N365 C367 1.340 . S
N366 C363 1.368 . S
N366 C367 1.321 . S
N366 Co369 2.135 . S
C367 N365 1.340 . S
C367 N366 1.321 . S
C367 H391 0.930 . S
H368 C363 0.931 . S
Co369 N366 2.135 . S
Co369 N372 2.121 . S
Co369 O377 2.055 . S
Co369 O380 2.039 . S
Co369 N383 2.140 . S
C370 O371 1.227 . S
C370 O380 1.265 . S
O371 C370 1.227 . S
N372 Co369 2.121 . S
N372 C374 1.375 . S
N372 C375 1.313 . S
C373 C374 1.338 . S
C373 N376 1.377 . S
C373 H393 0.930 . S
C374 N372 1.375 . S
C374 C373 1.338 . S
C374 H378 0.931 . S
C375 N372 1.313 . S
C375 N376 1.344 . S
C375 H379 0.930 . S
N376 C373 1.377 . S
N376 C375 1.344 . S
O377 Co369 2.055 . S
O377 C381 1.253 . S
H378 C374 0.931 . S
H379 C375 0.930 . S
O380 Co369 2.039 . S
O380 C370 1.265 . S
C381 O377 1.253 . S
C381 O382 1.227 . S
O382 C381 1.227 . S
N383 Co369 2.140 . S
N383 C386 1.346 . S
N383 C387 1.345 . S
C384 C385 1.387 . S
C384 C388 1.391 . S
C385 C384 1.387 . S
C385 C386 1.369 . S
C385 H394 0.929 . S
C386 N383 1.346 . S
C386 C385 1.369 . S
C386 H389 0.928 . S
C387 N383 1.345 . S
C387 C388 1.371 . S
C387 H390 0.931 . S
C388 C384 1.391 . S
C388 C387 1.371 . S
C388 H395 0.930 . S
H389 C386 0.928 . S
H390 C387 0.931 . S
H391 C367 0.930 . S
H392 C364 0.930 . S
H393 C373 0.930 . S
H394 C385 0.929 . S
H395 C388 0.930 . S
C396 C397 1.387 . S
C396 H400 0.950 . S
C396 C405 1.390 . S
C397 C396 1.387 . S
C397 C399 1.387 . S
H398 C405 0.950 . S
C399 C397 1.387 . S
C399 C401 1.390 . S
C399 H403 0.950 . S
H400 C396 0.950 . S
C401 C399 1.390 . S
C401 C402 1.387 . S
C401 H404 0.950 . S
C402 C401 1.387 . S
C402 C405 1.387 . S
H403 C399 0.950 . S
H404 C401 0.950 . S
C405 C396 1.390 . S
C405 H398 0.950 . S
C405 C402 1.387 . S
C406 C407 1.387 . S
C406 H410 0.950 . S
C406 C415 1.390 . S
C407 C406 1.387 . S
C407 C409 1.387 . S
H408 C415 0.950 . S
C409 C407 1.387 . S
C409 C411 1.390 . S
C409 H413 0.950 . S
H410 C406 0.950 . S
C411 C409 1.390 . S
C411 C412 1.387 . S
C411 H414 0.950 . S
C412 C411 1.387 . S
C412 C415 1.387 . S
H413 C409 0.950 . S
H414 C411 0.950 . S
C415 C406 1.390 . S
C415 H408 0.950 . S
C415 C412 1.387 . S
C416 C417 1.387 . S
C416 H420 0.950 . S
C416 C425 1.390 . S
C417 C416 1.387 . S
C417 C419 1.387 . S
H418 C425 0.950 . S
C419 C417 1.387 . S
C419 C421 1.390 . S
C419 H423 0.950 . S
H420 C416 0.950 . S
C421 C419 1.390 . S
C421 C422 1.387 . S
C421 H424 0.950 . S
C422 C421 1.387 . S
C422 C425 1.387 . S
H423 C419 0.950 . S
H424 C421 0.950 . S
C425 C416 1.390 . S
C425 H418 0.950 . S
C425 C422 1.387 . S
C426 C427 1.387 . S
C426 H430 0.950 . S
C426 C435 1.390 . S
C427 C426 1.387 . S
C427 C429 1.387 . S
H428 C435 0.950 . S
C429 C427 1.387 . S
C429 C431 1.390 . S
C429 H433 0.950 . S
H430 C426 0.950 . S
C431 C429 1.390 . S
C431 C432 1.387 . S
C431 H434 0.950 . S
C432 C431 1.387 . S
C432 C435 1.387 . S
H433 C429 0.950 . S
H434 C431 0.950 . S
C435 C426 1.390 . S
C435 H428 0.950 . S
C435 C432 1.387 . S
C436 C437 1.387 . S
C436 H440 0.950 . S
C436 C445 1.390 . S
C437 C436 1.387 . S
C437 C439 1.387 . S
H438 C445 0.950 . S
C439 C437 1.387 . S
C439 C441 1.390 . S
C439 H443 0.950 . S
H440 C436 0.950 . S
C441 C439 1.390 . S
C441 C442 1.387 . S
C441 H444 0.950 . S
C442 C441 1.387 . S
C442 C445 1.387 . S
H443 C439 0.950 . S
H444 C441 0.950 . S
C445 C436 1.390 . S
C445 H438 0.950 . S
C445 C442 1.387 . S
C446 C447 1.387 . S
C446 H450 0.950 . S
C446 C455 1.390 . S
C447 C446 1.387 . S
C447 C449 1.387 . S
H448 C455 0.950 . S
C449 C447 1.387 . S
C449 C451 1.390 . S
C449 H453 0.950 . S
H450 C446 0.950 . S
C451 C449 1.390 . S
C451 C452 1.387 . S
C451 H454 0.950 . S
C452 C451 1.387 . S
C452 C455 1.387 . S
H453 C449 0.950 . S
H454 C451 0.950 . S
C455 C446 1.390 . S
C455 H448 0.950 . S
C455 C452 1.387 . S
C456 C457 1.389 1_556 S
C456 H460 0.950 . S
C456 C465 1.390 1_545 S
C457 C456 1.389 1_554 S
C457 C459 1.386 . S
H458 C465 0.950 . S
C459 C457 1.386 . S
C459 C461 1.390 1_545 S
C459 H463 0.950 . S
H460 C456 0.950 . S
C461 C459 1.390 1_565 S
C461 C462 1.389 1_554 S
C461 H464 0.950 . S
C462 C461 1.389 1_556 S
C462 C465 1.386 . S
H463 C459 0.950 . S
H464 C461 0.950 . S
C465 C456 1.390 1_565 S
C465 H458 0.950 . S
C465 C462 1.386 . S
C466 C467 1.389 1_556 S
C466 H470 0.950 . S
C466 C475 1.390 1_655 S
C467 C466 1.389 1_554 S
C467 C469 1.386 . S
H468 C475 0.950 . S
C469 C467 1.386 . S
C469 C471 1.390 1_655 S
C469 H473 0.950 . S
H470 C466 0.950 . S
C471 C469 1.390 1_455 S
C471 C472 1.389 1_554 S
C471 H474 0.950 . S
C472 C471 1.389 1_556 S
C472 C475 1.386 . S
H473 C469 0.950 . S
H474 C471 0.950 . S
C475 C466 1.390 1_455 S
C475 H468 0.950 . S
C475 C472 1.386 . S
C476 C477 1.389 1_554 S
C476 H480 0.950 . S
C476 C485 1.390 . S
C477 C476 1.389 1_556 S
C477 C479 1.386 . S
H478 C485 0.950 . S
C479 C477 1.386 . S
C479 C481 1.390 . S
C479 H483 0.950 . S
H480 C476 0.950 . S
C481 C479 1.390 . S
C481 C482 1.389 1_556 S
C481 H484 0.950 . S
C482 C481 1.389 1_554 S
C482 C485 1.386 . S
H483 C479 0.950 . S
H484 C481 0.950 . S
C485 C476 1.390 . S
C485 H478 0.950 . S
C485 C482 1.386 . S
C486 C487 1.387 . S
C486 H490 0.950 . S
C486 C495 1.390 1_455 S
C487 C486 1.387 . S
C487 C489 1.387 . S
H488 C495 0.950 . S
C489 C487 1.387 . S
C489 C491 1.390 1_455 S
C489 H493 0.950 . S
H490 C486 0.950 . S
C491 C489 1.390 1_655 S
C491 C492 1.387 . S
C491 H494 0.950 . S
C492 C491 1.387 . S
C492 C495 1.387 . S
H493 C489 0.950 . S
H494 C491 0.950 . S
C495 C486 1.390 1_655 S
C495 H488 0.950 . S
C495 C492 1.387 . S
C496 C497 1.387 . S
C496 H500 0.950 . S
C496 C505 1.390 . S
C497 C496 1.387 . S
C497 C499 1.387 . S
H498 C505 0.950 . S
C499 C497 1.387 . S
C499 C501 1.390 . S
C499 H503 0.950 . S
H500 C496 0.950 . S
C501 C499 1.390 . S
C501 C502 1.387 . S
C501 H504 0.950 . S
C502 C501 1.387 . S
C502 C505 1.387 . S
H503 C499 0.950 . S
H504 C501 0.950 . S
C505 C496 1.390 . S
C505 H498 0.950 . S
C505 C502 1.387 . S
C506 C507 1.387 . S
C506 H510 0.950 . S
C506 C515 1.390 1_545 S
C507 C506 1.387 . S
C507 C509 1.387 . S
H508 C515 0.950 . S
C509 C507 1.387 . S
C509 C511 1.390 1_545 S
C509 H513 0.950 . S
H510 C506 0.950 . S
C511 C509 1.390 1_565 S
C511 C512 1.387 . S
C511 H514 0.950 . S
C512 C511 1.387 . S
C512 C515 1.387 . S
H513 C509 0.950 . S
H514 C511 0.950 . S
C515 C506 1.390 1_565 S
C515 H508 0.950 . S
C515 C512 1.387 . S
C516 C517 1.387 . S
C516 H520 0.950 . S
C516 C525 1.390 . S
C517 C516 1.387 . S
C517 C519 1.387 . S
H518 C525 0.950 . S
C519 C517 1.387 . S
C519 C521 1.390 . S
C519 H523 0.950 . S
H520 C516 0.950 . S
C521 C519 1.390 . S
C521 C522 1.387 . S
C521 H524 0.950 . S
C522 C521 1.387 . S
C522 C525 1.387 . S
H523 C519 0.950 . S
H524 C521 0.950 . S
C525 C516 1.390 . S
C525 H518 0.950 . S
C525 C522 1.387 . S
C526 C527 1.387 . S
C526 H530 0.950 . S
C526 C535 1.390 . S
C527 C526 1.387 . S
C527 C529 1.387 . S
H528 C535 0.950 . S
C529 C527 1.387 . S
C529 C531 1.390 . S
C529 H533 0.950 . S
H530 C526 0.950 . S
C531 C529 1.390 . S
C531 C532 1.387 . S
C531 H534 0.950 . S
C532 C531 1.387 . S
C532 C535 1.387 . S
H533 C529 0.950 . S
H534 C531 0.950 . S
C535 C526 1.390 . S
C535 H528 0.950 . S
C535 C532 1.387 . S
C536 C537 1.387 . S
C536 H540 0.950 . S
C536 C545 1.390 . S
C537 C536 1.387 . S
C537 C539 1.387 . S
H538 C545 0.950 . S
C539 C537 1.387 . S
C539 C541 1.390 . S
C539 H543 0.950 . S
H540 C536 0.950 . S
C541 C539 1.390 . S
C541 C542 1.387 . S
C541 H544 0.950 . S
C542 C541 1.387 . S
C542 C545 1.387 . S
H543 C539 0.950 . S
H544 C541 0.950 . S
C545 C536 1.390 . S
C545 H538 0.950 . S
C545 C542 1.387 . S
C546 C547 1.387 . S
C546 H550 0.950 . S
C546 C555 1.390 . S
C547 C546 1.387 . S
C547 C549 1.387 . S
H548 C555 0.950 . S
C549 C547 1.387 . S
C549 C551 1.390 . S
C549 H553 0.950 . S
H550 C546 0.950 . S
C551 C549 1.390 . S
C551 C552 1.387 . S
C551 H554 0.950 . S
C552 C551 1.387 . S
C552 C555 1.387 . S
H553 C549 0.950 . S
H554 C551 0.950 . S
C555 C546 1.390 . S
C555 H548 0.950 . S
C555 C552 1.387 . S
C556 C557 1.387 . S
C556 H560 0.950 . S
C556 C565 1.390 . S
C557 C556 1.387 . S
C557 C559 1.387 . S
H558 C565 0.950 . S
C559 C557 1.387 . S
C559 C561 1.390 . S
C559 H563 0.950 . S
H560 C556 0.950 . S
C561 C559 1.390 . S
C561 C562 1.387 . S
C561 H564 0.950 . S
C562 C561 1.387 . S
C562 C565 1.387 . S
H563 C559 0.950 . S
H564 C561 0.950 . S
C565 C556 1.390 . S
C565 H558 0.950 . S
C565 C562 1.387 . S
C566 C567 1.387 . S
C566 H570 0.950 . S
C566 C575 1.390 . S
C567 C566 1.387 . S
C567 C569 1.387 . S
H568 C575 0.950 . S
C569 C567 1.387 . S
C569 C571 1.390 . S
C569 H573 0.950 . S
H570 C566 0.950 . S
C571 C569 1.390 . S
C571 C572 1.387 . S
C571 H574 0.950 . S
C572 C571 1.387 . S
C572 C575 1.387 . S
H573 C569 0.950 . S
H574 C571 0.950 . S
C575 C566 1.390 . S
C575 H568 0.950 . S
C575 C572 1.387 . S
C576 C577 1.387 . S
C576 H580 0.950 . S
C576 C585 1.390 . S
C577 C576 1.387 . S
C577 C579 1.387 . S
H578 C585 0.950 . S
C579 C577 1.387 . S
C579 C581 1.390 . S
C579 H583 0.950 . S
H580 C576 0.950 . S
C581 C579 1.390 . S
C581 C582 1.387 . S
C581 H584 0.950 . S
C582 C581 1.387 . S
C582 C585 1.387 . S
H583 C579 0.950 . S
H584 C581 0.950 . S
C585 C576 1.390 . S
C585 H578 0.950 . S
C585 C582 1.387 . S
C586 C587 1.387 . S
C586 H590 0.950 . S
C586 C595 1.390 . S
C587 C586 1.387 . S
C587 C589 1.387 . S
H588 C595 0.950 . S
C589 C587 1.387 . S
C589 C591 1.390 . S
C589 H593 0.950 . S
H590 C586 0.950 . S
C591 C589 1.390 . S
C591 C592 1.387 . S
C591 H594 0.950 . S
C592 C591 1.387 . S
C592 C595 1.387 . S
H593 C589 0.950 . S
H594 C591 0.950 . S
C595 C586 1.390 . S
C595 H588 0.950 . S
C595 C592 1.387 . S
C596 C597 1.387 . S
C596 H600 0.950 1_554 S
C596 C605 1.390 . S
C597 C596 1.387 . S
C597 C599 1.387 . S
H598 C605 0.950 . S
C599 C597 1.387 . S
C599 C601 1.390 . S
C599 H603 0.950 . S
H600 C596 0.950 1_556 S
C601 C599 1.390 . S
C601 C602 1.387 . S
C601 H604 0.950 . S
C602 C601 1.387 . S
C602 C605 1.387 . S
H603 C599 0.950 . S
H604 C601 0.950 . S
C605 C596 1.390 . S
C605 H598 0.950 . S
C605 C602 1.387 . S
C606 C607 1.387 . S
C606 H610 0.950 . S
C606 C615 1.390 . S
C607 C606 1.387 . S
C607 C609 1.387 . S
H608 C615 0.950 . S
C609 C607 1.387 . S
C609 C611 1.390 . S
C609 H613 0.950 . S
H610 C606 0.950 . S
C611 C609 1.390 . S
C611 C612 1.387 . S
C611 H614 0.950 . S
C612 C611 1.387 . S
C612 C615 1.387 . S
H613 C609 0.950 . S
H614 C611 0.950 . S
C615 C606 1.390 . S
C615 H608 0.950 . S
C615 C612 1.387 . S
C616 C617 1.387 . S
C616 H620 0.950 . S
C616 C625 1.390 . S
C617 C616 1.387 . S
C617 C619 1.387 . S
H618 C625 0.950 . S
C619 C617 1.387 . S
C619 C621 1.390 . S
C619 H623 0.950 . S
H620 C616 0.950 . S
C621 C619 1.390 . S
C621 C622 1.387 . S
C621 H624 0.950 . S
C622 C621 1.387 . S
C622 C625 1.387 . S
H623 C619 0.950 . S
H624 C621 0.950 . S
C625 C616 1.390 . S
C625 H618 0.950 . S
C625 C622 1.387 . S
C626 C627 1.387 . S
C626 H630 0.950 . S
C626 C635 1.390 . S
C627 C626 1.387 . S
C627 C629 1.387 . S
H628 C635 0.950 . S
C629 C627 1.387 . S
C629 C631 1.390 . S
C629 H633 0.950 . S
H630 C626 0.950 . S
C631 C629 1.390 . S
C631 C632 1.387 . S
C631 H634 0.950 . S
C632 C631 1.387 . S
C632 C635 1.387 . S
H633 C629 0.950 . S
H634 C631 0.950 . S
C635 C626 1.390 . S
C635 H628 0.950 . S
C635 C632 1.387 . S
C636 C637 1.387 . S
C636 H640 0.950 . S
C636 C645 1.390 . S
C637 C636 1.387 . S
C637 C639 1.387 . S
H638 C645 0.950 . S
C639 C637 1.387 . S
C639 C641 1.390 . S
C639 H643 0.950 . S
H640 C636 0.950 . S
C641 C639 1.390 . S
C641 C642 1.387 . S
C641 H644 0.950 . S
C642 C641 1.387 . S
C642 C645 1.387 . S
H643 C639 0.950 . S
H644 C641 0.950 . S
C645 C636 1.390 . S
C645 H638 0.950 . S
C645 C642 1.387 . S
C646 C647 1.387 . S
C646 H650 0.950 . S
C646 C655 1.390 . S
C647 C646 1.387 . S
C647 C649 1.387 . S
H648 C655 0.950 1_554 S
C649 C647 1.387 . S
C649 C651 1.390 . S
C649 H653 0.950 . S
H650 C646 0.950 . S
C651 C649 1.390 . S
C651 C652 1.387 . S
C651 H654 0.950 . S
C652 C651 1.387 . S
C652 C655 1.387 . S
H653 C649 0.950 . S
H654 C651 0.950 . S
C655 C646 1.390 . S
C655 H648 0.950 1_556 S
C655 C652 1.387 . S
C656 C657 1.387 . S
C656 H660 0.950 1_556 S
C656 C665 1.390 . S
C657 C656 1.387 . S
C657 C659 1.387 . S
H658 C665 0.950 . S
C659 C657 1.387 . S
C659 C661 1.390 . S
C659 H663 0.950 . S
H660 C656 0.950 1_554 S
C661 C659 1.390 . S
C661 C662 1.387 . S
C661 H664 0.950 . S
C662 C661 1.387 . S
C662 C665 1.387 . S
H663 C659 0.950 . S
H664 C661 0.950 . S
C665 C656 1.390 . S
C665 H658 0.950 . S
C665 C662 1.387 . S
C666 C667 1.387 . S
C666 H670 0.950 . S
C666 C675 1.390 . S
C667 C666 1.387 . S
C667 C669 1.387 . S
H668 C675 0.950 . S
C669 C667 1.387 . S
C669 C671 1.390 . S
C669 H673 0.950 . S
H670 C666 0.950 . S
C671 C669 1.390 . S
C671 C672 1.387 . S
C671 H674 0.950 . S
C672 C671 1.387 . S
C672 C675 1.387 . S
H673 C669 0.950 . S
H674 C671 0.950 . S
C675 C666 1.390 . S
C675 H668 0.950 . S
C675 C672 1.387 . S
C676 C677 1.387 . S
C676 H680 0.950 . S
C676 C685 1.390 . S
C677 C676 1.387 . S
C677 C679 1.387 . S
H678 C685 0.950 . S
C679 C677 1.387 . S
C679 C681 1.390 . S
C679 H683 0.950 . S
H680 C676 0.950 . S
C681 C679 1.390 . S
C681 C682 1.387 . S
C681 H684 0.950 . S
C682 C681 1.387 . S
C682 C685 1.387 . S
H683 C679 0.950 . S
H684 C681 0.950 . S
C685 C676 1.390 . S
C685 H678 0.950 . S
C685 C682 1.387 . S
C686 C687 1.387 . S
C686 H690 0.950 . S
C686 C695 1.390 . S
C687 C686 1.387 . S
C687 C689 1.387 . S
H688 C695 0.950 . S
C689 C687 1.387 . S
C689 C691 1.390 . S
C689 H693 0.950 . S
H690 C686 0.950 . S
C691 C689 1.390 . S
C691 C692 1.387 . S
C691 H694 0.950 . S
C692 C691 1.387 . S
C692 C695 1.387 . S
H693 C689 0.950 . S
H694 C691 0.950 . S
C695 C686 1.390 . S
C695 H688 0.950 . S
C695 C692 1.387 . S
C397 C172 1.215 . S
C402 C7 1.215 . S
C407 C40 1.215 . S
C412 C106 1.216 . S
C417 C73 1.214 . S
C422 C139 1.213 . S
C427 C205 1.215 . S
C432 C370 1.215 . S
C437 C304 1.214 . S
C442 C238 1.215 . S
C447 C337 1.214 . S
C452 C271 1.214 . S
C457 C21 2.518 . S
C462 C219 2.518 . S
C467 C54 2.518 . S
C472 C252 2.518 . S
C477 C285 2.515 . S
C482 C87 2.515 . S
C487 C318 2.515 . S
C492 C120 2.515 . S
C497 C153 2.518 . S
C502 C351 2.518 . S
C507 C186 2.519 . S
C512 C384 2.519 . S
C517 N145 1.698 . S
C522 N13 1.701 . S
C527 N178 1.697 . S
C532 N46 1.699 . S
C537 N112 1.697 . S
C542 N79 1.697 . S
C547 N211 1.698 . S
C552 N343 1.697 . S
C557 N244 1.701 . S
C562 N376 1.697 . S
C567 N310 1.700 . S
C572 N277 1.700 . S
C577 C18 1.091 . S
C582 N68 1.039 . S
C587 C51 1.090 . S
C592 N2 1.040 . S
C597 N35 1.040 . S
C602 C84 1.090 . S
C607 C117 1.090 . S
C612 N134 1.039 . S
C617 N167 1.035 . S
C622 C150 1.092 . S
C627 N101 1.038 . S
C632 C183 1.091 . S
C637 N266 1.036 . S
C642 C216 1.091 . S
C647 C249 1.093 . S
C652 N200 1.035 . S
C657 N233 1.035 . S
C662 C282 1.092 . S
C667 N332 1.039 . S
C672 C315 1.090 . S
C677 N365 1.040 . S
C682 C348 1.089 . S
C687 C381 1.092 . S
C692 N299 1.036 . S
